
#######################################################################
#
#                 Cambridge Crystallographic Data Centre
#                                CCDC 
#
#######################################################################
#
# If this CIF has been generated from an entry in the Cambridge 
# Structural Database, then it will include bibliographic, chemical, 
# crystal, experimental, refinement or atomic coordinate data resulting 
# from the CCDC's data processing and validation procedures.
#
#######################################################################

data_BEZNIG
_chemical_formula_moiety         
'C336 H264 Co8 N72 16+,6(C1 H4 O1),23(H2 O1),16(Cl1 1-)'
_chemical_name_systematic        
"dodecakis(\m-2,2'-[naphthalene-1,5-diylbis(methylene-1H-pyrazole-1,3-diyl)]dipyridine)-octa-cobalt(ii) hexadecachloride methanol unknown solvate tricosahydrate"
_symmetry_cell_setting           rhombohedral
_symmetry_space_group_name_H-M   'R -3'
_symmetry_Int_Tables_number      148
_space_group_name_Hall           '-R 3'
loop_
_symmetry_equiv_pos_site_id
_symmetry_equiv_pos_as_xyz
1 x,y,z
2 -y,x-y,z
3 -x+y,-x,z
4 2/3+x,1/3+y,1/3+z
5 2/3-y,1/3+x-y,1/3+z
6 2/3-x+y,1/3-x,1/3+z
7 1/3+x,2/3+y,2/3+z
8 1/3-y,2/3+x-y,2/3+z
9 1/3-x+y,2/3-x,2/3+z
10 -x,-y,-z
11 y,-x+y,-z
12 x-y,x,-z
13 1/3-x,2/3-y,2/3-z
14 1/3+y,2/3-x+y,2/3-z
15 1/3+x-y,2/3+x,2/3-z
16 2/3-x,1/3-y,1/3-z
17 2/3+y,1/3-x+y,1/3-z
18 2/3+x-y,1/3+x,1/3-z
_cell_length_a                   33.0793(5)
_cell_length_b                   33.0793(5)
_cell_length_c                   34.2247(8)
_cell_angle_alpha                90
_cell_angle_beta                 90
_cell_angle_gamma                120
_cell_volume                     32432.7
_exptl_crystal_colour            'light orange'
_exptl_crystal_description       Block
_cell_formula_units_Z            3
_chemical_properties_physical    Efflorescent
_exptl_crystal_recrystallization_method methanol/water
loop_
_atom_site_label
_atom_site_type_symbol
_atom_site_fract_x
_atom_site_fract_y
_atom_site_fract_z
Co1 Co 0.70593(3) 0.97011(3) 0.08964(2)
Co2 Co 1.0000 1.0000 0.26601(4)
N1 N 0.70805(18) 1.02144(19) 0.05019(16)
C1 C 0.7372(2) 1.0667(2) 0.06089(18)
C2 C 0.7413(2) 1.1031(2) 0.0385(2)
H1 H 0.7620 1.1345 0.0459
C3 C 0.7149(3) 1.0934(3) 0.0055(2)
H2 H 0.7174 1.1182 -0.0102
C4 C 0.6849(3) 1.0484(3) -0.0053(2)
H3 H 0.6660 1.0415 -0.0280
C5 C 0.6829(2) 1.0131(3) 0.0178(2)
H4 H 0.6627 0.9817 0.0101
N2 N 0.78089(18) 1.05034(17) 0.15006(15)
N3 N 0.75677(16) 1.03466(16) 0.11618(13)
C6 C 0.8021(3) 1.0973(2) 0.1513(2)
H5 H 0.8215 1.1166 0.1718
C7 C 0.7909(2) 1.1125(2) 0.1182(2)
H6 H 0.8008 1.1438 0.1108
C8 C 0.7622(2) 1.0725(2) 0.09769(18)
C9 C 0.7869(2) 1.0198(2) 0.17665(17)
H7 H 0.7577 0.9892 0.1777
H8 H 0.7932 1.0334 0.2032
N4 N 1.0178(2) 0.9567(2) 0.30076(17)
C10 C 0.9954(3) 0.9112(3) 0.2917(2)
C11 C 1.0006(3) 0.8780(3) 0.3125(3)
H9 H 0.9850 0.8462 0.3047
C12 C 1.0290(5) 0.8929(4) 0.3446(3)
H10 H 1.0331 0.8711 0.3597
C13 C 1.0511(5) 0.9382(5) 0.3546(3)
H11 H 1.0708 0.9482 0.3769
C14 C 1.0459(3) 0.9709(3) 0.3331(3)
H12 H 1.0615 1.0028 0.3408
N5 N 0.93522(17) 0.91219(17) 0.20767(15)
N6 N 0.96385(17) 0.93262(16) 0.23723(15)
C15 C 0.9657(2) 0.8988(2) 0.2574(2)
C16 C 0.9376(2) 0.8558(2) 0.2390(2)
H13 H 0.9327 0.8263 0.2471
C17 C 0.9186(2) 0.8646(2) 0.2072(2)
H14 H 0.8981 0.8427 0.1886
C18 C 0.9230(2) 0.9371(2) 0.18043(18)
H15 H 0.9156 0.9207 0.1550
H16 H 0.9504 0.9686 0.1765
C19 C 0.8269(2) 1.0127(2) 0.16397(17)
C20 C 0.8551(2) 1.0378(2) 0.13302(16)
H17 H 0.8504 1.0606 0.1202
C21 C 0.8910(2) 1.0293(2) 0.12044(18)
H18 H 0.9096 1.0461 0.0987
C22 C 0.8994(2) 0.9979(2) 0.13865(17)
H19 H 0.9233 0.9923 0.1293
C23 C 0.8721(2) 0.9731(2) 0.17216(16)
C24 C 0.8347(2) 0.9796(2) 0.18491(16)
C25 C 0.8082(2) 0.9550(2) 0.21697(17)
H20 H 0.7830 0.9590 0.2251
C26 C 0.8179(2) 0.9249(2) 0.2371(2)
H21 H 0.7994 0.9082 0.2589
C27 C 0.8550(2) 0.9189(2) 0.22541(19)
H22 H 0.8617 0.8985 0.2399
C28 C 0.88204(19) 0.9419(2) 0.19337(17)
N7 N 0.71067(19) 0.92138(17) 0.12732(16)
C29 C 0.7427(2) 0.9094(2) 0.11701(19)
C30 C 0.7490(3) 0.8778(2) 0.1399(2)
H23 H 0.7717 0.8697 0.1325
C31 C 0.7229(3) 0.8587(2) 0.1722(2)
H24 H 0.7275 0.8379 0.1883
C32 C 0.6883(3) 0.8709(3) 0.1813(2)
H25 H 0.6684 0.8573 0.2032
C33 C 0.6843(3) 0.9016(2) 0.15884(19)
H26 H 0.6615 0.9097 0.1656
N8 N 0.78373(17) 0.96836(17) 0.02784(15)
N9 N 0.75645(17) 0.95669(16) 0.06003(14)
C34 C 0.7676(2) 0.9292(2) 0.08195(18)
C35 C 0.8023(2) 0.9242(2) 0.06346(19)
H27 H 0.8166 0.9072 0.0725
C36 C 0.8112(2) 0.9487(2) 0.0297(2)
H28 H 0.8332 0.9517 0.0104
C37 C 0.7852(2) 1.0001(2) -0.00161(18)
H29 H 0.7533 0.9950 -0.0053
H30 H 0.7951 0.9928 -0.0266
N10 N 0.97417(19) 1.32274(27) -0.12363(16)
C38 C 0.9428(3) 1.3344(4) -0.11365(19)
C39 C 0.9420(3) 1.3737(4) -0.1312(2)
H31 H 0.9195 1.3822 -0.1239
C40 C 0.9755(3) 1.3984(4) -0.1590(3)
H32 H 0.9765 1.4247 -0.1710
C41 C 1.0072(3) 1.3856(4) -0.1696(3)
H33 H 1.0293 1.4017 -0.1897
C42 C 1.0061(3) 1.3477(4) -0.1500(2)
H34 H 1.0293 1.3398 -0.1561
N11 N 0.8817(2) 1.25542(27) -0.03839(17)
N12 N 0.91563(18) 1.27439(25) -0.06578(15)
C43 C 0.9096(3) 1.3072(4) -0.0836(2)
C44 C 0.8713(3) 1.3081(4) -0.0684(3)
H35 H 0.8590 1.3273 -0.0766
C45 C 0.8549(3) 1.2754(4) -0.0389(3)
H36 H 0.8294 1.2682 -0.0221
C46 C 0.8794(3) 1.2200(2) -0.01182(19)
H37 H 0.8678 1.2237 0.0138
H38 H 0.9113 1.2252 -0.0079
C47 C 0.8180(2) 1.0514(2) 0.00813(16)
C48 C 0.8472(2) 1.0626(2) 0.03981(17)
H39 H 0.8475 1.0385 0.0548
C49 C 0.8769(2) 1.1098(2) 0.05009(17)
H40 H 0.8976 1.1172 0.0716
C50 C 0.8763(2) 1.1440(2) 0.03017(17)
H41 H 0.8955 1.1755 0.0383
C51 C 0.8474(2) 1.1338(2) -0.00294(17)
C52 C 0.8186(2) 1.0869(2) -0.01460(17)
C53 C 0.7919(2) 1.0773(2) -0.04920(18)
H42 H 0.7733 1.0461 -0.0581
C54 C 0.7930(2) 1.1135(3) -0.06983(19)
H43 H 0.7746 1.1066 -0.0928
C55 C 0.8197(2) 1.1590(2) -0.0585(2)
H44 H 0.8184 1.1828 -0.0731
C56 C 0.8486(2) 1.1711(2) -0.02581(19)
Co1A Co 1.02989(3) 0.73582(4) 0.08964(2)
N1A N 0.97856(19) 0.68661(26) 0.05019(16)
C1A C 0.9333(2) 0.6705(3) 0.06089(18)
C2A C 0.8969(2) 0.6382(3) 0.0385(2)
H1A H 0.8655 0.6275 0.0459
C3A C 0.9066(3) 0.6215(4) 0.0055(2)
H2A H 0.8818 0.5992 -0.0102
C4A C 0.9516(3) 0.6365(4) -0.0053(2)
H3A H 0.9585 0.6245 -0.0280
C5A C 0.9869(3) 0.6698(4) 0.0178(2)
H4A H 1.0183 0.6810 0.0101
N2A N 0.94966(17) 0.73055(25) 0.15006(15)
N3A N 0.96534(16) 0.72211(23) 0.11618(13)
C6A C 0.9027(2) 0.7048(4) 0.1513(2)
H5A H 0.8834 0.7049 0.1718
C7A C 0.8875(2) 0.6784(3) 0.1182(2)
H6A H 0.8562 0.6570 0.1108
C8A C 0.9275(2) 0.6897(3) 0.09769(18)
C9A C 0.9802(2) 0.7671(3) 0.17665(17)
H7A H 1.0108 0.7685 0.1777
H8A H 0.9666 0.7598 0.2032
N4A N 1.0433(2) 1.0611(3) 0.30076(17)
C10A C 1.0888(3) 1.0842(4) 0.2917(2)
C11A C 1.1220(3) 1.1226(4) 0.3125(3)
H9A H 1.1538 1.1388 0.3047
C12A C 1.1071(4) 1.1361(6) 0.3446(3)
H10A H 1.1289 1.1620 0.3597
C13A C 1.0618(5) 1.1129(7) 0.3546(3)
H11A H 1.0518 1.1226 0.3769
C14A C 1.0291(3) 1.0750(4) 0.3331(3)
H12A H 0.9972 1.0587 0.3408
N5A N 1.08781(17) 1.02303(24) 0.20767(15)
N6A N 1.06738(16) 1.03123(23) 0.23723(15)
C15A C 1.1012(2) 1.0669(3) 0.2574(2)
C16A C 1.1442(2) 1.0818(3) 0.2390(2)
H13A H 1.1737 1.1064 0.2471
C17A C 1.1354(2) 1.0540(3) 0.2072(2)
H14A H 1.1573 1.0554 0.1886
C18A C 1.0629(2) 0.9859(3) 0.18043(18)
H15A H 1.0793 0.9949 0.1550
H16A H 1.0314 0.9818 0.1765
C19A C 0.9873(2) 0.8142(3) 0.16397(17)
C20A C 0.9622(2) 0.8173(3) 0.13302(16)
H17A H 0.9394 0.7898 0.1202
C21A C 0.9707(2) 0.8617(3) 0.12044(18)
H18A H 0.9539 0.8635 0.0987
C22A C 1.0021(2) 0.9015(3) 0.13865(17)
H19A H 1.0077 0.9310 0.1293
C23A C 1.0269(2) 0.8990(3) 0.17216(16)
C24A C 1.0204(2) 0.8551(3) 0.18491(16)
C25A C 1.0450(2) 0.8532(3) 0.21697(17)
H20A H 1.0410 0.8240 0.2251
C26A C 1.0751(2) 0.8930(3) 0.2371(2)
H21A H 1.0918 0.8912 0.2589
C27A C 1.0811(2) 0.9361(3) 0.22541(19)
H22A H 1.1015 0.9632 0.2399
C28A C 1.0581(2) 0.94014(28) 0.19337(17)
N7A N 1.07862(17) 0.78929(25) 0.12732(16)
C29A C 1.0906(2) 0.8333(3) 0.11701(19)
C30A C 1.1222(2) 0.8712(4) 0.1399(2)
H23A H 1.1303 0.9020 0.1325
C31A C 1.1413(2) 0.8642(4) 0.1722(2)
H24A H 1.1621 0.8896 0.1883
C32A C 1.1291(3) 0.8174(4) 0.1813(2)
H25A H 1.1427 0.8111 0.2032
C33A C 1.0984(2) 0.7827(4) 0.15884(19)
H26A H 1.0903 0.7518 0.1656
N8A N 1.03164(17) 0.81537(24) 0.02784(15)
N9A N 1.04331(16) 0.79976(23) 0.06003(14)
C34A C 1.0708(2) 0.8384(3) 0.08195(18)
C35A C 1.0758(2) 0.8781(3) 0.06346(19)
H27A H 1.0928 0.9094 0.0725
C36A C 1.0513(2) 0.8625(3) 0.0297(2)
H28A H 1.0483 0.8815 0.0104
C37A C 0.9999(2) 0.7851(3) -0.00161(18)
H29A H 1.0050 0.7583 -0.0053
H30A H 1.0072 0.8023 -0.0266
N10A N 0.67726(27) 0.65143(33) -0.12363(16)
C38A C 0.6656(4) 0.6084(5) -0.11365(19)
C39A C 0.6263(4) 0.5683(5) -0.1312(2)
H31A H 0.6178 0.5373 -0.1239
C40A C 0.6016(4) 0.5771(5) -0.1590(3)
H32A H 0.5753 0.5518 -0.1710
C41A C 0.6144(4) 0.6216(5) -0.1696(3)
H33A H 0.5983 0.6276 -0.1897
C42A C 0.6523(4) 0.6584(5) -0.1500(2)
H34A H 0.6602 0.6895 -0.1561
N11A N 0.74458(27) 0.62628(34) -0.03839(17)
N12A N 0.72561(25) 0.64124(31) -0.06578(15)
C43A C 0.6928(4) 0.6024(5) -0.0836(2)
C44A C 0.6919(4) 0.5632(5) -0.0684(3)
H35A H 0.6727 0.5317 -0.0766
C45A C 0.7246(4) 0.5795(5) -0.0389(3)
H36A H 0.7318 0.5612 -0.0221
C46A C 0.7800(2) 0.6594(4) -0.01182(19)
H37A H 0.7763 0.6441 0.0138
H38A H 0.7748 0.6861 -0.0079
C47A C 0.9486(2) 0.7666(3) 0.00813(16)
C48A C 0.9374(2) 0.7846(3) 0.03981(17)
H39A H 0.9615 0.8090 0.0548
C49A C 0.8902(2) 0.7671(3) 0.05009(17)
H40A H 0.8828 0.7804 0.0716
C50A C 0.8560(2) 0.7323(3) 0.03017(17)
H41A H 0.8245 0.7200 0.0383
C51A C 0.8662(2) 0.7136(3) -0.00294(17)
C52A C 0.9131(2) 0.7317(3) -0.01460(17)
C53A C 0.9227(2) 0.7146(3) -0.04920(18)
H42A H 0.9539 0.7272 -0.0581
C54A C 0.8865(3) 0.6795(4) -0.06983(19)
H43A H 0.8934 0.6680 -0.0928
C55A C 0.8410(2) 0.6607(3) -0.0585(2)
H44A H 0.8172 0.6356 -0.0731
C56A C 0.8289(2) 0.6775(3) -0.02581(19)
Co1B Co 1.26418(4) 1.29407(3) 0.08964(2)
N1B N 1.31339(26) 1.29195(18) 0.05019(16)
C1B C 1.3295(3) 1.2628(2) 0.06089(18)
C2B C 1.3618(3) 1.2587(2) 0.0385(2)
H1B H 1.3725 1.2380 0.0459
C3B C 1.3785(4) 1.2851(3) 0.0055(2)
H2B H 1.4008 1.2826 -0.0102
C4B C 1.3635(4) 1.3151(3) -0.0053(2)
H3B H 1.3755 1.3340 -0.0280
C5B C 1.3302(4) 1.3171(2) 0.0178(2)
H4B H 1.3190 1.3373 0.0101
N2B N 1.26945(25) 1.21911(18) 0.15006(15)
N3B N 1.27789(23) 1.24323(16) 0.11618(13)
C6B C 1.2952(4) 1.1979(3) 0.1513(2)
H5B H 1.2951 1.1785 0.1718
C7B C 1.3216(3) 1.2091(2) 0.1182(2)
H6B H 1.3430 1.1992 0.1108
C8B C 1.3103(3) 1.2378(2) 0.09769(18)
C9B C 1.2329(3) 1.2131(2) 0.17665(17)
H7B H 1.2315 1.2423 0.1777
H8B H 1.2402 1.2068 0.2032
N4B N 0.9389(3) 0.9822(2) 0.30076(17)
C10B C 0.9158(4) 1.0046(3) 0.2917(2)
C11B C 0.8774(4) 0.9994(3) 0.3125(3)
H9B H 0.8612 1.0150 0.3047
C12B C 0.8639(6) 0.9710(5) 0.3446(3)
H10B H 0.8380 0.9669 0.3597
C13B C 0.8871(7) 0.9489(5) 0.3546(3)
H11B H 0.8774 0.9292 0.3769
C14B C 0.9250(4) 0.9541(3) 0.3331(3)
H12B H 0.9413 0.9385 0.3408
N5B N 0.97697(24) 1.06478(17) 0.20767(15)
N6B N 0.96877(23) 1.03615(17) 0.23723(15)
C15B C 0.9331(3) 1.0343(2) 0.2574(2)
C16B C 0.9182(3) 1.0624(2) 0.2390(2)
H13B H 0.8936 1.0673 0.2471
C17B C 0.9460(3) 1.0814(2) 0.2072(2)
H14B H 0.9446 1.1019 0.1886
C18B C 1.0141(3) 1.0770(2) 0.18043(18)
H15B H 1.0051 1.0844 0.1550
H16B H 1.0182 1.0496 0.1765
C19B C 1.1858(3) 1.1731(2) 0.16397(17)
C20B C 1.1827(3) 1.1449(2) 0.13302(16)
H17B H 1.2102 1.1496 0.1202
C21B C 1.1383(3) 1.1090(2) 0.12044(18)
H18B H 1.1365 1.0904 0.0987
C22B C 1.0985(3) 1.1006(2) 0.13865(17)
H19B H 1.0690 1.0767 0.1293
C23B C 1.1010(3) 1.1279(2) 0.17216(16)
C24B C 1.1449(3) 1.1653(2) 0.18491(16)
C25B C 1.1468(3) 1.1918(2) 0.21697(17)
H20B H 1.1760 1.2170 0.2251
C26B C 1.1070(3) 1.1821(2) 0.2371(2)
H21B H 1.1088 1.2006 0.2589
C27B C 1.0639(3) 1.1450(2) 0.22541(19)
H22B H 1.0368 1.1383 0.2399
C28B C 1.05986(28) 1.11796(19) 0.19337(17)
N7B N 1.21071(25) 1.28933(19) 0.12732(16)
C29B C 1.1667(3) 1.2573(2) 0.11701(19)
C30B C 1.1288(4) 1.2510(3) 0.1399(2)
H23B H 1.0980 1.2283 0.1325
C31B C 1.1358(4) 1.2771(3) 0.1722(2)
H24B H 1.1104 1.2725 0.1883
C32B C 1.1826(4) 1.3117(3) 0.1813(2)
H25B H 1.1889 1.3316 0.2032
C33B C 1.2173(4) 1.3157(3) 0.15884(19)
H26B H 1.2482 1.3385 0.1656
N8B N 1.18463(24) 1.21627(17) 0.02784(15)
N9B N 1.20024(23) 1.24355(17) 0.06003(14)
C34B C 1.1616(3) 1.2324(2) 0.08195(18)
C35B C 1.1219(3) 1.1977(2) 0.06346(19)
H27B H 1.0906 1.1834 0.0725
C36B C 1.1375(3) 1.1888(2) 0.0297(2)
H28B H 1.1185 1.1668 0.0104
C37B C 1.2149(3) 1.2148(2) -0.00161(18)
H29B H 1.2417 1.2467 -0.0053
H30B H 1.1977 1.2049 -0.0266
N10B N 1.34857(33) 1.02583(19) -0.12363(16)
C38B C 1.3916(5) 1.0572(3) -0.11365(19)
C39B C 1.4317(5) 1.0580(3) -0.1312(2)
H31B H 1.4627 1.0805 -0.1239
C40B C 1.4229(5) 1.0245(3) -0.1590(3)
H32B H 1.4482 1.0235 -0.1710
C41B C 1.3784(5) 0.9928(3) -0.1696(3)
H33B H 1.3724 0.9707 -0.1897
C42B C 1.3416(5) 0.9939(3) -0.1500(2)
H34B H 1.3105 0.9707 -0.1561
N11B N 1.37372(34) 1.1183(2) -0.03839(17)
N12B N 1.35876(31) 1.08437(18) -0.06578(15)
C43B C 1.3976(5) 1.0904(3) -0.0836(2)
C44B C 1.4368(5) 1.1287(3) -0.0684(3)
H35B H 1.4683 1.1410 -0.0766
C45B C 1.4205(5) 1.1451(3) -0.0389(3)
H36B H 1.4388 1.1706 -0.0221
C46B C 1.3406(4) 1.1206(3) -0.01182(19)
H37B H 1.3559 1.1322 0.0138
H38B H 1.3139 1.0887 -0.0079
C47B C 1.2334(3) 1.1820(2) 0.00813(16)
C48B C 1.2154(3) 1.1528(2) 0.03981(17)
H39B H 1.1910 1.1525 0.0548
C49B C 1.2329(3) 1.1231(2) 0.05009(17)
H40B H 1.2196 1.1024 0.0716
C50B C 1.2677(3) 1.1237(2) 0.03017(17)
H41B H 1.2800 1.1045 0.0383
C51B C 1.2864(3) 1.1526(2) -0.00294(17)
C52B C 1.2683(3) 1.1814(2) -0.01460(17)
C53B C 1.2854(3) 1.2081(2) -0.04920(18)
H42B H 1.2728 1.2267 -0.0581
C54B C 1.3205(4) 1.2070(2) -0.06983(19)
H43B H 1.3320 1.2254 -0.0928
C55B C 1.3393(3) 1.1803(2) -0.0585(2)
H44B H 1.3644 1.1816 -0.0731
C56B C 1.3225(3) 1.1514(2) -0.02581(19)
Co1I Co 1.29407(3) 1.02989(3) -0.08964(2)
Co2I Co 1.0000 1.0000 -0.26601(4)
N1I N 1.29195(18) 0.97856(19) -0.05019(16)
C1I C 1.2628(2) 0.9333(2) -0.06089(18)
C2I C 1.2587(2) 0.8969(2) -0.0385(2)
H1I H 1.2380 0.8655 -0.0459
C3I C 1.2851(3) 0.9066(3) -0.0055(2)
H2I H 1.2826 0.8818 0.0102
C4I C 1.3151(3) 0.9516(3) 0.0053(2)
H3I H 1.3340 0.9585 0.0280
C5I C 1.3171(2) 0.9869(3) -0.0178(2)
H4I H 1.3373 1.0183 -0.0101
N2I N 1.21911(18) 0.94966(17) -0.15006(15)
N3I N 1.24323(16) 0.96534(16) -0.11618(13)
C6I C 1.1979(3) 0.9027(2) -0.1513(2)
H5I H 1.1785 0.8834 -0.1718
C7I C 1.2091(2) 0.8875(2) -0.1182(2)
H6I H 1.1992 0.8562 -0.1108
C8I C 1.2378(2) 0.9275(2) -0.09769(18)
C9I C 1.2131(2) 0.9802(2) -0.17665(17)
H7I H 1.2423 1.0108 -0.1777
H8I H 1.2068 0.9666 -0.2032
N4I N 0.9822(2) 1.0433(2) -0.30076(17)
C10I C 1.0046(3) 1.0888(3) -0.2917(2)
C11I C 0.9994(3) 1.1220(3) -0.3125(3)
H9I H 1.0150 1.1538 -0.3047
C12I C 0.9710(5) 1.1071(4) -0.3446(3)
H10I H 0.9669 1.1289 -0.3597
C13I C 0.9489(5) 1.0618(5) -0.3546(3)
H11I H 0.9292 1.0518 -0.3769
C14I C 0.9541(3) 1.0291(3) -0.3331(3)
H12I H 0.9385 0.9972 -0.3408
N5I N 1.06478(17) 1.08781(17) -0.20767(15)
N6I N 1.03615(17) 1.06738(16) -0.23723(15)
C15I C 1.0343(2) 1.1012(2) -0.2574(2)
C16I C 1.0624(2) 1.1442(2) -0.2390(2)
H13I H 1.0673 1.1737 -0.2471
C17I C 1.0814(2) 1.1354(2) -0.2072(2)
H14I H 1.1019 1.1573 -0.1886
C18I C 1.0770(2) 1.0629(2) -0.18043(18)
H15I H 1.0844 1.0793 -0.1550
H16I H 1.0496 1.0314 -0.1765
C19I C 1.1731(2) 0.9873(2) -0.16397(17)
C20I C 1.1449(2) 0.9622(2) -0.13302(16)
H17I H 1.1496 0.9394 -0.1202
C21I C 1.1090(2) 0.9707(2) -0.12044(18)
H18I H 1.0904 0.9539 -0.0987
C22I C 1.1006(2) 1.0021(2) -0.13865(17)
H19I H 1.0767 1.0077 -0.1293
C23I C 1.1279(2) 1.0269(2) -0.17216(16)
C24I C 1.1653(2) 1.0204(2) -0.18491(16)
C25I C 1.1918(2) 1.0450(2) -0.21697(17)
H20I H 1.2170 1.0410 -0.2251
C26I C 1.1821(2) 1.0751(2) -0.2371(2)
H21I H 1.2006 1.0918 -0.2589
C27I C 1.1450(2) 1.0811(2) -0.22541(19)
H22I H 1.1383 1.1015 -0.2399
C28I C 1.11796(19) 1.0581(2) -0.19337(17)
N7I N 1.28933(19) 1.07862(17) -0.12732(16)
C29I C 1.2573(2) 1.0906(2) -0.11701(19)
C30I C 1.2510(3) 1.1222(2) -0.1399(2)
H23I H 1.2283 1.1303 -0.1325
C31I C 1.2771(3) 1.1413(2) -0.1722(2)
H24I H 1.2725 1.1621 -0.1883
C32I C 1.3117(3) 1.1291(3) -0.1813(2)
H25I H 1.3316 1.1427 -0.2032
C33I C 1.3157(3) 1.0984(2) -0.15884(19)
H26I H 1.3385 1.0903 -0.1656
N8I N 1.21627(17) 1.03164(17) -0.02784(15)
N9I N 1.24355(17) 1.04331(16) -0.06003(14)
C34I C 1.2324(2) 1.0708(2) -0.08195(18)
C35I C 1.1977(2) 1.0758(2) -0.06346(19)
H27I H 1.1834 1.0928 -0.0725
C36I C 1.1888(2) 1.0513(2) -0.0297(2)
H28I H 1.1668 1.0483 -0.0104
C37I C 1.2148(2) 0.9999(2) 0.00161(18)
H29I H 1.2467 1.0050 0.0053
H30I H 1.2049 1.0072 0.0266
N10I N 1.02583(19) 0.67726(27) 0.12363(16)
C38I C 1.0572(3) 0.6656(4) 0.11365(19)
C39I C 1.0580(3) 0.6263(4) 0.1312(2)
H31I H 1.0805 0.6178 0.1239
C40I C 1.0245(3) 0.6016(4) 0.1590(3)
H32I H 1.0235 0.5753 0.1710
C41I C 0.9928(3) 0.6144(4) 0.1696(3)
H33I H 0.9707 0.5983 0.1897
C42I C 0.9939(3) 0.6523(4) 0.1500(2)
H34I H 0.9707 0.6602 0.1561
N11I N 1.1183(2) 0.74458(27) 0.03839(17)
N12I N 1.08437(18) 0.72561(25) 0.06578(15)
C43I C 1.0904(3) 0.6928(4) 0.0836(2)
C44I C 1.1287(3) 0.6919(4) 0.0684(3)
H35I H 1.1410 0.6727 0.0766
C45I C 1.1451(3) 0.7246(4) 0.0389(3)
H36I H 1.1706 0.7318 0.0221
C46I C 1.1206(3) 0.7800(2) 0.01182(19)
H37I H 1.1322 0.7763 -0.0138
H38I H 1.0887 0.7748 0.0079
C47I C 1.1820(2) 0.9486(2) -0.00813(16)
C48I C 1.1528(2) 0.9374(2) -0.03981(17)
H39I H 1.1525 0.9615 -0.0548
C49I C 1.1231(2) 0.8902(2) -0.05009(17)
H40I H 1.1024 0.8828 -0.0716
C50I C 1.1237(2) 0.8560(2) -0.03017(17)
H41I H 1.1045 0.8245 -0.0383
C51I C 1.1526(2) 0.8662(2) 0.00294(17)
C52I C 1.1814(2) 0.9131(2) 0.01460(17)
C53I C 1.2081(2) 0.9227(2) 0.04920(18)
H42I H 1.2267 0.9539 0.0581
C54I C 1.2070(2) 0.8865(3) 0.06983(19)
H43I H 1.2254 0.8934 0.0928
C55I C 1.1803(2) 0.8410(2) 0.0585(2)
H44I H 1.1816 0.8172 0.0731
C56I C 1.1514(2) 0.8289(2) 0.02581(19)
Co1J Co 0.97011(3) 1.26418(4) -0.08964(2)
N1J N 1.02144(19) 1.31339(26) -0.05019(16)
C1J C 1.0667(2) 1.3295(3) -0.06089(18)
C2J C 1.1031(2) 1.3618(3) -0.0385(2)
H1J H 1.1345 1.3725 -0.0459
C3J C 1.0934(3) 1.3785(4) -0.0055(2)
H2J H 1.1182 1.4008 0.0102
C4J C 1.0484(3) 1.3635(4) 0.0053(2)
H3J H 1.0415 1.3755 0.0280
C5J C 1.0131(3) 1.3302(4) -0.0178(2)
H4J H 0.9817 1.3190 -0.0101
N2J N 1.05034(17) 1.26945(25) -0.15006(15)
N3J N 1.03466(16) 1.27789(23) -0.11618(13)
C6J C 1.0973(2) 1.2952(4) -0.1513(2)
H5J H 1.1166 1.2951 -0.1718
C7J C 1.1125(2) 1.3216(3) -0.1182(2)
H6J H 1.1438 1.3430 -0.1108
C8J C 1.0725(2) 1.3103(3) -0.09769(18)
C9J C 1.0198(2) 1.2329(3) -0.17665(17)
H7J H 0.9892 1.2315 -0.1777
H8J H 1.0334 1.2402 -0.2032
N4J N 0.9567(2) 0.9389(3) -0.30076(17)
C10J C 0.9112(3) 0.9158(4) -0.2917(2)
C11J C 0.8780(3) 0.8774(4) -0.3125(3)
H9J H 0.8462 0.8612 -0.3047
C12J C 0.8929(4) 0.8639(6) -0.3446(3)
H10J H 0.8711 0.8380 -0.3597
C13J C 0.9382(5) 0.8871(7) -0.3546(3)
H11J H 0.9482 0.8774 -0.3769
C14J C 0.9709(3) 0.9250(4) -0.3331(3)
H12J H 1.0028 0.9413 -0.3408
N5J N 0.91219(17) 0.97697(24) -0.20767(15)
N6J N 0.93262(16) 0.96877(23) -0.23723(15)
C15J C 0.8988(2) 0.9331(3) -0.2574(2)
C16J C 0.8558(2) 0.9182(3) -0.2390(2)
H13J H 0.8263 0.8936 -0.2471
C17J C 0.8646(2) 0.9460(3) -0.2072(2)
H14J H 0.8427 0.9446 -0.1886
C18J C 0.9371(2) 1.0141(3) -0.18043(18)
H15J H 0.9207 1.0051 -0.1550
H16J H 0.9686 1.0182 -0.1765
C19J C 1.0127(2) 1.1858(3) -0.16397(17)
C20J C 1.0378(2) 1.1827(3) -0.13302(16)
H17J H 1.0606 1.2102 -0.1202
C21J C 1.0293(2) 1.1383(3) -0.12044(18)
H18J H 1.0461 1.1365 -0.0987
C22J C 0.9979(2) 1.0985(3) -0.13865(17)
H19J H 0.9923 1.0690 -0.1293
C23J C 0.9731(2) 1.1010(3) -0.17216(16)
C24J C 0.9796(2) 1.1449(3) -0.18491(16)
C25J C 0.9550(2) 1.1468(3) -0.21697(17)
H20J H 0.9590 1.1760 -0.2251
C26J C 0.9249(2) 1.1070(3) -0.2371(2)
H21J H 0.9082 1.1088 -0.2589
C27J C 0.9189(2) 1.0639(3) -0.22541(19)
H22J H 0.8985 1.0368 -0.2399
C28J C 0.9419(2) 1.05986(28) -0.19337(17)
N7J N 0.92138(17) 1.21071(25) -0.12732(16)
C29J C 0.9094(2) 1.1667(3) -0.11701(19)
C30J C 0.8778(2) 1.1288(4) -0.1399(2)
H23J H 0.8697 1.0980 -0.1325
C31J C 0.8587(2) 1.1358(4) -0.1722(2)
H24J H 0.8379 1.1104 -0.1883
C32J C 0.8709(3) 1.1826(4) -0.1813(2)
H25J H 0.8573 1.1889 -0.2032
C33J C 0.9016(2) 1.2173(4) -0.15884(19)
H26J H 0.9097 1.2482 -0.1656
N8J N 0.96836(17) 1.18463(24) -0.02784(15)
N9J N 0.95669(16) 1.20024(23) -0.06003(14)
C34J C 0.9292(2) 1.1616(3) -0.08195(18)
C35J C 0.9242(2) 1.1219(3) -0.06346(19)
H27J H 0.9072 1.0906 -0.0725
C36J C 0.9487(2) 1.1375(3) -0.0297(2)
H28J H 0.9517 1.1185 -0.0104
C37J C 1.0001(2) 1.2149(3) 0.00161(18)
H29J H 0.9950 1.2417 0.0053
H30J H 0.9928 1.1977 0.0266
N10J N 1.32274(27) 1.34857(33) 0.12363(16)
C38J C 1.3344(4) 1.3916(5) 0.11365(19)
C39J C 1.3737(4) 1.4317(5) 0.1312(2)
H31J H 1.3822 1.4627 0.1239
C40J C 1.3984(4) 1.4229(5) 0.1590(3)
H32J H 1.4247 1.4482 0.1710
C41J C 1.3856(4) 1.3784(5) 0.1696(3)
H33J H 1.4017 1.3724 0.1897
C42J C 1.3477(4) 1.3416(5) 0.1500(2)
H34J H 1.3398 1.3105 0.1561
N11J N 1.25542(27) 1.37372(34) 0.03839(17)
N12J N 1.27439(25) 1.35876(31) 0.06578(15)
C43J C 1.3072(4) 1.3976(5) 0.0836(2)
C44J C 1.3081(4) 1.4368(5) 0.0684(3)
H35J H 1.3273 1.4683 0.0766
C45J C 1.2754(4) 1.4205(5) 0.0389(3)
H36J H 1.2682 1.4388 0.0221
C46J C 1.2200(2) 1.3406(4) 0.01182(19)
H37J H 1.2237 1.3559 -0.0138
H38J H 1.2252 1.3139 0.0079
C47J C 1.0514(2) 1.2334(3) -0.00813(16)
C48J C 1.0626(2) 1.2154(3) -0.03981(17)
H39J H 1.0385 1.1910 -0.0548
C49J C 1.1098(2) 1.2329(3) -0.05009(17)
H40J H 1.1172 1.2196 -0.0716
C50J C 1.1440(2) 1.2677(3) -0.03017(17)
H41J H 1.1755 1.2800 -0.0383
C51J C 1.1338(2) 1.2864(3) 0.00294(17)
C52J C 1.0869(2) 1.2683(3) 0.01460(17)
C53J C 1.0773(2) 1.2854(3) 0.04920(18)
H42J H 1.0461 1.2728 0.0581
C54J C 1.1135(3) 1.3205(4) 0.06983(19)
H43J H 1.1066 1.3320 0.0928
C55J C 1.1590(2) 1.3393(3) 0.0585(2)
H44J H 1.1828 1.3644 0.0731
C56J C 1.1711(2) 1.3225(3) 0.02581(19)
Co1K Co 0.73582(4) 0.70593(3) -0.08964(2)
N1K N 0.68661(26) 0.70805(18) -0.05019(16)
C1K C 0.6705(3) 0.7372(2) -0.06089(18)
C2K C 0.6382(3) 0.7413(2) -0.0385(2)
H1K H 0.6275 0.7620 -0.0459
C3K C 0.6215(4) 0.7149(3) -0.0055(2)
H2K H 0.5992 0.7174 0.0102
C4K C 0.6365(4) 0.6849(3) 0.0053(2)
H3K H 0.6245 0.6660 0.0280
C5K C 0.6698(4) 0.6829(2) -0.0178(2)
H4K H 0.6810 0.6627 -0.0101
N2K N 0.73055(25) 0.78089(18) -0.15006(15)
N3K N 0.72211(23) 0.75677(16) -0.11618(13)
C6K C 0.7048(4) 0.8021(3) -0.1513(2)
H5K H 0.7049 0.8215 -0.1718
C7K C 0.6784(3) 0.7909(2) -0.1182(2)
H6K H 0.6570 0.8008 -0.1108
C8K C 0.6897(3) 0.7622(2) -0.09769(18)
C9K C 0.7671(3) 0.7869(2) -0.17665(17)
H7K H 0.7685 0.7577 -0.1777
H8K H 0.7598 0.7932 -0.2032
N4K N 1.0611(3) 1.0178(2) -0.30076(17)
C10K C 1.0842(4) 0.9954(3) -0.2917(2)
C11K C 1.1226(4) 1.0006(3) -0.3125(3)
H9K H 1.1388 0.9850 -0.3047
C12K C 1.1361(6) 1.0290(5) -0.3446(3)
H10K H 1.1620 1.0331 -0.3597
C13K C 1.1129(7) 1.0511(5) -0.3546(3)
H11K H 1.1226 1.0708 -0.3769
C14K C 1.0750(4) 1.0459(3) -0.3331(3)
H12K H 1.0587 1.0615 -0.3408
N5K N 1.02303(24) 0.93522(17) -0.20767(15)
N6K N 1.03123(23) 0.96385(17) -0.23723(15)
C15K C 1.0669(3) 0.9657(2) -0.2574(2)
C16K C 1.0818(3) 0.9376(2) -0.2390(2)
H13K H 1.1064 0.9327 -0.2471
C17K C 1.0540(3) 0.9186(2) -0.2072(2)
H14K H 1.0554 0.8981 -0.1886
C18K C 0.9859(3) 0.9230(2) -0.18043(18)
H15K H 0.9949 0.9156 -0.1550
H16K H 0.9818 0.9504 -0.1765
C19K C 0.8142(3) 0.8269(2) -0.16397(17)
C20K C 0.8173(3) 0.8551(2) -0.13302(16)
H17K H 0.7898 0.8504 -0.1202
C21K C 0.8617(3) 0.8910(2) -0.12044(18)
H18K H 0.8635 0.9096 -0.0987
C22K C 0.9015(3) 0.8994(2) -0.13865(17)
H19K H 0.9310 0.9233 -0.1293
C23K C 0.8990(3) 0.8721(2) -0.17216(16)
C24K C 0.8551(3) 0.8347(2) -0.18491(16)
C25K C 0.8532(3) 0.8082(2) -0.21697(17)
H20K H 0.8240 0.7830 -0.2251
C26K C 0.8930(3) 0.8179(2) -0.2371(2)
H21K H 0.8912 0.7994 -0.2589
C27K C 0.9361(3) 0.8550(2) -0.22541(19)
H22K H 0.9632 0.8617 -0.2399
C28K C 0.94014(28) 0.88204(19) -0.19337(17)
N7K N 0.78929(25) 0.71067(19) -0.12732(16)
C29K C 0.8333(3) 0.7427(2) -0.11701(19)
C30K C 0.8712(4) 0.7490(3) -0.1399(2)
H23K H 0.9020 0.7717 -0.1325
C31K C 0.8642(4) 0.7229(3) -0.1722(2)
H24K H 0.8896 0.7275 -0.1883
C32K C 0.8174(4) 0.6883(3) -0.1813(2)
H25K H 0.8111 0.6684 -0.2032
C33K C 0.7827(4) 0.6843(3) -0.15884(19)
H26K H 0.7518 0.6615 -0.1656
N8K N 0.81537(24) 0.78373(17) -0.02784(15)
N9K N 0.79976(23) 0.75645(17) -0.06003(14)
C34K C 0.8384(3) 0.7676(2) -0.08195(18)
C35K C 0.8781(3) 0.8023(2) -0.06346(19)
H27K H 0.9094 0.8166 -0.0725
C36K C 0.8625(3) 0.8112(2) -0.0297(2)
H28K H 0.8815 0.8332 -0.0104
C37K C 0.7851(3) 0.7852(2) 0.00161(18)
H29K H 0.7583 0.7533 0.0053
H30K H 0.8023 0.7951 0.0266
N10K N 0.65143(33) 0.97417(19) 0.12363(16)
C38K C 0.6084(5) 0.9428(3) 0.11365(19)
C39K C 0.5683(5) 0.9420(3) 0.1312(2)
H31K H 0.5373 0.9195 0.1239
C40K C 0.5771(5) 0.9755(3) 0.1590(3)
H32K H 0.5518 0.9765 0.1710
C41K C 0.6216(5) 1.0072(3) 0.1696(3)
H33K H 0.6276 1.0293 0.1897
C42K C 0.6584(5) 1.0061(3) 0.1500(2)
H34K H 0.6895 1.0293 0.1561
N11K N 0.62628(34) 0.8817(2) 0.03839(17)
N12K N 0.64124(31) 0.91563(18) 0.06578(15)
C43K C 0.6024(5) 0.9096(3) 0.0836(2)
C44K C 0.5632(5) 0.8713(3) 0.0684(3)
H35K H 0.5317 0.8590 0.0766
C45K C 0.5795(5) 0.8549(3) 0.0389(3)
H36K H 0.5612 0.8294 0.0221
C46K C 0.6594(4) 0.8794(3) 0.01182(19)
H37K H 0.6441 0.8678 -0.0138
H38K H 0.6861 0.9113 0.0079
C47K C 0.7666(3) 0.8180(2) -0.00813(16)
C48K C 0.7846(3) 0.8472(2) -0.03981(17)
H39K H 0.8090 0.8475 -0.0548
C49K C 0.7671(3) 0.8769(2) -0.05009(17)
H40K H 0.7804 0.8976 -0.0716
C50K C 0.7323(3) 0.8763(2) -0.03017(17)
H41K H 0.7200 0.8955 -0.0383
C51K C 0.7136(3) 0.8474(2) 0.00294(17)
C52K C 0.7317(3) 0.8186(2) 0.01460(17)
C53K C 0.7146(3) 0.7919(2) 0.04920(18)
H42K H 0.7272 0.7733 0.0581
C54K C 0.6795(4) 0.7930(2) 0.06983(19)
H43K H 0.6680 0.7746 0.0928
C55K C 0.6607(3) 0.8197(2) 0.0585(2)
H44K H 0.6356 0.8184 0.0731
C56K C 0.6775(3) 0.8486(2) 0.02581(19)
Cl1 Cl 0.8364(2) 0.8426(2) 0.1225(2)
Cl2 Cl 0.76998(8) 0.59820(7) 0.07625(7)
Cl3 Cl 0.4529(3) 0.8490(3) 0.1032(3)
O1 O 1.0000 0.0000 0.1029(4)
O2 O -0.0106(5) 0.0694(5) 0.0591(4)
O3 O -0.0172(8) 0.1102(8) 0.0466(6)
O4 O 0.5431(3) 0.7518(3) 0.9888(3)
O5 O 0.7407(5) 0.9653(5) 0.9006(4)
O6 O 0.6116(6) 0.9784(6) 0.9036(5)
C57 C 0.7448(7) 0.9494(7) 0.3144(6)
H45 H 0.7319 0.9360 0.3401
H46 H 0.7439 0.9784 0.3110
H47 H 0.7771 0.9561 0.3126
O7 O 0.7175(6) 0.9169(5) 0.2844(5)
H48 H 0.7114 0.9308 0.2669
C58 C 0.5624(9) 0.9011(11) 0.2356(8)
H49 H 0.5658 0.9060 0.2640
H50 H 0.5334 0.8721 0.2299
H51 H 0.5615 0.9273 0.2232
O8 O 0.6011(6) 0.8981(6) 0.2208(5)
H52 H 0.5914 0.8725 0.2092
Cl4? Cl 0.84640(15) 0.84708(15) 0.10265(15)
O9? O 0.0202(7) 0.0866(7) 0.0330(6)
O10? O 0.6680(5) 0.9467(5) 0.9346(4)
loop_
_geom_bond_atom_site_label_1
_geom_bond_atom_site_label_2
_geom_bond_site_symmetry_1
_geom_bond_site_symmetry_2
Co1 N1 1_555 1_555
Co2 N4 1_555 1_555
N1 C1 1_555 1_555
C1 C2 1_555 1_555
C2 H1 1_555 1_555
C3 C2 1_555 1_555
H2 C3 1_555 1_555
C4 C3 1_555 1_555
H3 C4 1_555 1_555
C5 N1 1_555 1_555
H4 C5 1_555 1_555
N2 N3 1_555 1_555
N3 Co1 1_555 1_555
C6 N2 1_555 1_555
H5 C6 1_555 1_555
C7 C6 1_555 1_555
H6 C7 1_555 1_555
C8 C1 1_555 1_555
C9 N2 1_555 1_555
H7 C9 1_555 1_555
H8 C9 1_555 1_555
N4 C10 1_555 1_555
C10 C11 1_555 1_555
C11 H9 1_555 1_555
C12 C11 1_555 1_555
H10 C12 1_555 1_555
C13 C12 1_555 1_555
H11 C13 1_555 1_555
C14 N4 1_555 1_555
H12 C14 1_555 1_555
N5 N6 1_555 1_555
N6 Co2 1_555 1_555
C15 C10 1_555 1_555
C16 C15 1_555 1_555
H13 C16 1_555 1_555
C17 N5 1_555 1_555
H14 C17 1_555 1_555
C18 N5 1_555 1_555
H15 C18 1_555 1_555
H16 C18 1_555 1_555
C19 C9 1_555 1_555
C20 C19 1_555 1_555
H17 C20 1_555 1_555
C21 C20 1_555 1_555
H18 C21 1_555 1_555
C22 C21 1_555 1_555
H19 C22 1_555 1_555
C23 C22 1_555 1_555
C24 C19 1_555 1_555
C25 C24 1_555 1_555
H20 C25 1_555 1_555
C26 C25 1_555 1_555
H21 C26 1_555 1_555
C27 C26 1_555 1_555
H22 C27 1_555 1_555
C28 C18 1_555 1_555
N7 Co1 1_555 1_555
C29 N7 1_555 1_555
C30 C29 1_555 1_555
H23 C30 1_555 1_555
C31 C30 1_555 1_555
H24 C31 1_555 1_555
C32 C31 1_555 1_555
H25 C32 1_555 1_555
C33 N7 1_555 1_555
H26 C33 1_555 1_555
N8 N9 1_555 1_555
N9 Co1 1_555 1_555
C34 C29 1_555 1_555
C35 C34 1_555 1_555
H27 C35 1_555 1_555
C36 N8 1_555 1_555
H28 C36 1_555 1_555
C37 N8 1_555 1_555
H29 C37 1_555 1_555
H30 C37 1_555 1_555
N10 C38 1_555 1_555
C38 C39 1_555 1_555
C39 H31 1_555 1_555
C40 C39 1_555 1_555
H32 C40 1_555 1_555
C41 C40 1_555 1_555
H33 C41 1_555 1_555
C42 N10 1_555 1_555
H34 C42 1_555 1_555
N11 N12 1_555 1_555
N12 C43 1_555 1_555
C43 C38 1_555 1_555
C44 C43 1_555 1_555
H35 C44 1_555 1_555
C45 N11 1_555 1_555
H36 C45 1_555 1_555
C46 N11 1_555 1_555
H37 C46 1_555 1_555
H38 C46 1_555 1_555
C47 C37 1_555 1_555
C48 C47 1_555 1_555
H39 C48 1_555 1_555
C49 C48 1_555 1_555
H40 C49 1_555 1_555
C50 C49 1_555 1_555
H41 C50 1_555 1_555
C51 C50 1_555 1_555
C52 C47 1_555 1_555
C53 C52 1_555 1_555
H42 C53 1_555 1_555
C54 C53 1_555 1_555
H43 C54 1_555 1_555
C55 C54 1_555 1_555
H44 C55 1_555 1_555
C56 C46 1_555 1_555
C57 H45 1_555 1_555
H46 C57 1_555 1_555
H47 C57 1_555 1_555
O7 C57 1_555 1_555
H48 O7 1_555 1_555
C58 H49 1_555 1_555
H50 C58 1_555 1_555
H51 C58 1_555 1_555
O8 C58 1_555 1_555
H52 O8 1_555 1_555
Co1A N1A 1_555 1_555
N1A C1A 1_555 1_555
C1A C2A 1_555 1_555
C2A H1A 1_555 1_555
C3A C2A 1_555 1_555
H2A C3A 1_555 1_555
C4A C3A 1_555 1_555
H3A C4A 1_555 1_555
C5A N1A 1_555 1_555
H4A C5A 1_555 1_555
N2A N3A 1_555 1_555
N3A Co1A 1_555 1_555
C6A N2A 1_555 1_555
H5A C6A 1_555 1_555
C7A C6A 1_555 1_555
H6A C7A 1_555 1_555
C8A C1A 1_555 1_555
C9A N2A 1_555 1_555
H7A C9A 1_555 1_555
H8A C9A 1_555 1_555
N4A Co2 1_555 1_555
C10A N4A 1_555 1_555
C11A C10A 1_555 1_555
H9A C11A 1_555 1_555
C12A C11A 1_555 1_555
H10A C12A 1_555 1_555
C13A C12A 1_555 1_555
H11A C13A 1_555 1_555
C14A N4A 1_555 1_555
H12A C14A 1_555 1_555
N5A N6A 1_555 1_555
N6A Co2 1_555 1_555
C15A C10A 1_555 1_555
C16A C15A 1_555 1_555
H13A C16A 1_555 1_555
C17A N5A 1_555 1_555
H14A C17A 1_555 1_555
C18A N5A 1_555 1_555
H15A C18A 1_555 1_555
H16A C18A 1_555 1_555
C19A C9A 1_555 1_555
C20A C19A 1_555 1_555
H17A C20A 1_555 1_555
C21A C20A 1_555 1_555
H18A C21A 1_555 1_555
C22A C21A 1_555 1_555
H19A C22A 1_555 1_555
C23A C22A 1_555 1_555
C24A C19A 1_555 1_555
C25A C24A 1_555 1_555
H20A C25A 1_555 1_555
C26A C25A 1_555 1_555
H21A C26A 1_555 1_555
C27A C26A 1_555 1_555
H22A C27A 1_555 1_555
C28A C18A 1_555 1_555
N7A Co1A 1_555 1_555
C29A N7A 1_555 1_555
C30A C29A 1_555 1_555
H23A C30A 1_555 1_555
C31A C30A 1_555 1_555
H24A C31A 1_555 1_555
C32A C31A 1_555 1_555
H25A C32A 1_555 1_555
C33A N7A 1_555 1_555
H26A C33A 1_555 1_555
N8A N9A 1_555 1_555
N9A Co1A 1_555 1_555
C34A C29A 1_555 1_555
C35A C34A 1_555 1_555
H27A C35A 1_555 1_555
C36A N8A 1_555 1_555
H28A C36A 1_555 1_555
C37A N8A 1_555 1_555
H29A C37A 1_555 1_555
H30A C37A 1_555 1_555
N10A C38A 1_555 1_555
C38A C39A 1_555 1_555
C39A H31A 1_555 1_555
C40A C39A 1_555 1_555
H32A C40A 1_555 1_555
C41A C40A 1_555 1_555
H33A C41A 1_555 1_555
C42A N10A 1_555 1_555
H34A C42A 1_555 1_555
N11A N12A 1_555 1_555
N12A C43A 1_555 1_555
C43A C38A 1_555 1_555
C44A C43A 1_555 1_555
H35A C44A 1_555 1_555
C45A N11A 1_555 1_555
H36A C45A 1_555 1_555
C46A N11A 1_555 1_555
H37A C46A 1_555 1_555
H38A C46A 1_555 1_555
C47A C37A 1_555 1_555
C48A C47A 1_555 1_555
H39A C48A 1_555 1_555
C49A C48A 1_555 1_555
H40A C49A 1_555 1_555
C50A C49A 1_555 1_555
H41A C50A 1_555 1_555
C51A C50A 1_555 1_555
C52A C47A 1_555 1_555
C53A C52A 1_555 1_555
H42A C53A 1_555 1_555
C54A C53A 1_555 1_555
H43A C54A 1_555 1_555
C55A C54A 1_555 1_555
H44A C55A 1_555 1_555
C56A C46A 1_555 1_555
Co1B N1B 1_555 1_555
N1B C1B 1_555 1_555
C1B C2B 1_555 1_555
C2B H1B 1_555 1_555
C3B C2B 1_555 1_555
H2B C3B 1_555 1_555
C4B C3B 1_555 1_555
H3B C4B 1_555 1_555
C5B N1B 1_555 1_555
H4B C5B 1_555 1_555
N2B N3B 1_555 1_555
N3B Co1B 1_555 1_555
C6B N2B 1_555 1_555
H5B C6B 1_555 1_555
C7B C6B 1_555 1_555
H6B C7B 1_555 1_555
C8B C1B 1_555 1_555
C9B N2B 1_555 1_555
H7B C9B 1_555 1_555
H8B C9B 1_555 1_555
N4B Co2 1_555 1_555
C10B N4B 1_555 1_555
C11B C10B 1_555 1_555
H9B C11B 1_555 1_555
C12B C11B 1_555 1_555
H10B C12B 1_555 1_555
C13B C12B 1_555 1_555
H11B C13B 1_555 1_555
C14B N4B 1_555 1_555
H12B C14B 1_555 1_555
N5B N6B 1_555 1_555
N6B Co2 1_555 1_555
C15B C10B 1_555 1_555
C16B C15B 1_555 1_555
H13B C16B 1_555 1_555
C17B N5B 1_555 1_555
H14B C17B 1_555 1_555
C18B N5B 1_555 1_555
H15B C18B 1_555 1_555
H16B C18B 1_555 1_555
C19B C9B 1_555 1_555
C20B C19B 1_555 1_555
H17B C20B 1_555 1_555
C21B C20B 1_555 1_555
H18B C21B 1_555 1_555
C22B C21B 1_555 1_555
H19B C22B 1_555 1_555
C23B C22B 1_555 1_555
C24B C19B 1_555 1_555
C25B C24B 1_555 1_555
H20B C25B 1_555 1_555
C26B C25B 1_555 1_555
H21B C26B 1_555 1_555
C27B C26B 1_555 1_555
H22B C27B 1_555 1_555
C28B C18B 1_555 1_555
N7B Co1B 1_555 1_555
C29B N7B 1_555 1_555
C30B C29B 1_555 1_555
H23B C30B 1_555 1_555
C31B C30B 1_555 1_555
H24B C31B 1_555 1_555
C32B C31B 1_555 1_555
H25B C32B 1_555 1_555
C33B N7B 1_555 1_555
H26B C33B 1_555 1_555
N8B N9B 1_555 1_555
N9B Co1B 1_555 1_555
C34B C29B 1_555 1_555
C35B C34B 1_555 1_555
H27B C35B 1_555 1_555
C36B N8B 1_555 1_555
H28B C36B 1_555 1_555
C37B N8B 1_555 1_555
H29B C37B 1_555 1_555
H30B C37B 1_555 1_555
N10B C38B 1_555 1_555
C38B C39B 1_555 1_555
C39B H31B 1_555 1_555
C40B C39B 1_555 1_555
H32B C40B 1_555 1_555
C41B C40B 1_555 1_555
H33B C41B 1_555 1_555
C42B N10B 1_555 1_555
H34B C42B 1_555 1_555
N11B N12B 1_555 1_555
N12B C43B 1_555 1_555
C43B C38B 1_555 1_555
C44B C43B 1_555 1_555
H35B C44B 1_555 1_555
C45B N11B 1_555 1_555
H36B C45B 1_555 1_555
C46B N11B 1_555 1_555
H37B C46B 1_555 1_555
H38B C46B 1_555 1_555
C47B C37B 1_555 1_555
C48B C47B 1_555 1_555
H39B C48B 1_555 1_555
C49B C48B 1_555 1_555
H40B C49B 1_555 1_555
C50B C49B 1_555 1_555
H41B C50B 1_555 1_555
C51B C50B 1_555 1_555
C52B C47B 1_555 1_555
C53B C52B 1_555 1_555
H42B C53B 1_555 1_555
C54B C53B 1_555 1_555
H43B C54B 1_555 1_555
C55B C54B 1_555 1_555
H44B C55B 1_555 1_555
C56B C46B 1_555 1_555
Co1I N10B 1_555 1_555
Co2I N4I 1_555 1_555
N1I Co1I 1_555 1_555
C1I N1I 1_555 1_555
C2I C1I 1_555 1_555
H1I C2I 1_555 1_555
C3I C2I 1_555 1_555
H2I C3I 1_555 1_555
C4I C3I 1_555 1_555
H3I C4I 1_555 1_555
C5I N1I 1_555 1_555
H4I C5I 1_555 1_555
N2I N3I 1_555 1_555
N3I Co1I 1_555 1_555
C6I N2I 1_555 1_555
H5I C6I 1_555 1_555
C7I C6I 1_555 1_555
H6I C7I 1_555 1_555
C8I C1I 1_555 1_555
C9I N2I 1_555 1_555
H7I C9I 1_555 1_555
H8I C9I 1_555 1_555
N4I C10I 1_555 1_555
C10I C11I 1_555 1_555
C11I H9I 1_555 1_555
C12I C11I 1_555 1_555
H10I C12I 1_555 1_555
C13I C12I 1_555 1_555
H11I C13I 1_555 1_555
C14I N4I 1_555 1_555
H12I C14I 1_555 1_555
N5I N6I 1_555 1_555
N6I Co2I 1_555 1_555
C15I C10I 1_555 1_555
C16I C15I 1_555 1_555
H13I C16I 1_555 1_555
C17I N5I 1_555 1_555
H14I C17I 1_555 1_555
C18I N5I 1_555 1_555
H15I C18I 1_555 1_555
H16I C18I 1_555 1_555
C19I C9I 1_555 1_555
C20I C19I 1_555 1_555
H17I C20I 1_555 1_555
C21I C20I 1_555 1_555
H18I C21I 1_555 1_555
C22I C21I 1_555 1_555
H19I C22I 1_555 1_555
C23I C22I 1_555 1_555
C24I C19I 1_555 1_555
C25I C24I 1_555 1_555
H20I C25I 1_555 1_555
C26I C25I 1_555 1_555
H21I C26I 1_555 1_555
C27I C26I 1_555 1_555
H22I C27I 1_555 1_555
C28I C18I 1_555 1_555
N7I Co1I 1_555 1_555
C29I N7I 1_555 1_555
C30I C29I 1_555 1_555
H23I C30I 1_555 1_555
C31I C30I 1_555 1_555
H24I C31I 1_555 1_555
C32I C31I 1_555 1_555
H25I C32I 1_555 1_555
C33I N7I 1_555 1_555
H26I C33I 1_555 1_555
N8I N9I 1_555 1_555
N9I Co1I 1_555 1_555
C34I C29I 1_555 1_555
C35I C34I 1_555 1_555
H27I C35I 1_555 1_555
C36I N8I 1_555 1_555
H28I C36I 1_555 1_555
C37I N8I 1_555 1_555
H29I C37I 1_555 1_555
H30I C37I 1_555 1_555
N10I Co1A 1_555 1_555
C38I N10I 1_555 1_555
C39I C38I 1_555 1_555
H31I C39I 1_555 1_555
C40I C39I 1_555 1_555
H32I C40I 1_555 1_555
C41I C40I 1_555 1_555
H33I C41I 1_555 1_555
C42I N10I 1_555 1_555
H34I C42I 1_555 1_555
N11I N12I 1_555 1_555
N12I Co1A 1_555 1_555
C43I C38I 1_555 1_555
C44I C43I 1_555 1_555
H35I C44I 1_555 1_555
C45I N11I 1_555 1_555
H36I C45I 1_555 1_555
C46I N11I 1_555 1_555
H37I C46I 1_555 1_555
H38I C46I 1_555 1_555
C47I C37I 1_555 1_555
C48I C47I 1_555 1_555
H39I C48I 1_555 1_555
C49I C48I 1_555 1_555
H40I C49I 1_555 1_555
C50I C49I 1_555 1_555
H41I C50I 1_555 1_555
C51I C50I 1_555 1_555
C52I C47I 1_555 1_555
C53I C52I 1_555 1_555
H42I C53I 1_555 1_555
C54I C53I 1_555 1_555
H43I C54I 1_555 1_555
C55I C54I 1_555 1_555
H44I C55I 1_555 1_555
C56I C46I 1_555 1_555
Co1J N10 1_555 1_555
N1J Co1J 1_555 1_555
C1J N1J 1_555 1_555
C2J C1J 1_555 1_555
H1J C2J 1_555 1_555
C3J C2J 1_555 1_555
H2J C3J 1_555 1_555
C4J C3J 1_555 1_555
H3J C4J 1_555 1_555
C5J N1J 1_555 1_555
H4J C5J 1_555 1_555
N2J N3J 1_555 1_555
N3J Co1J 1_555 1_555
C6J N2J 1_555 1_555
H5J C6J 1_555 1_555
C7J C6J 1_555 1_555
H6J C7J 1_555 1_555
C8J C1J 1_555 1_555
C9J N2J 1_555 1_555
H7J C9J 1_555 1_555
H8J C9J 1_555 1_555
N4J Co2I 1_555 1_555
C10J N4J 1_555 1_555
C11J C10J 1_555 1_555
H9J C11J 1_555 1_555
C12J C11J 1_555 1_555
H10J C12J 1_555 1_555
C13J C12J 1_555 1_555
H11J C13J 1_555 1_555
C14J N4J 1_555 1_555
H12J C14J 1_555 1_555
N5J N6J 1_555 1_555
N6J Co2I 1_555 1_555
C15J C10J 1_555 1_555
C16J C15J 1_555 1_555
H13J C16J 1_555 1_555
C17J N5J 1_555 1_555
H14J C17J 1_555 1_555
C18J N5J 1_555 1_555
H15J C18J 1_555 1_555
H16J C18J 1_555 1_555
C19J C9J 1_555 1_555
C20J C19J 1_555 1_555
H17J C20J 1_555 1_555
C21J C20J 1_555 1_555
H18J C21J 1_555 1_555
C22J C21J 1_555 1_555
H19J C22J 1_555 1_555
C23J C22J 1_555 1_555
C24J C19J 1_555 1_555
C25J C24J 1_555 1_555
H20J C25J 1_555 1_555
C26J C25J 1_555 1_555
H21J C26J 1_555 1_555
C27J C26J 1_555 1_555
H22J C27J 1_555 1_555
C28J C18J 1_555 1_555
N7J Co1J 1_555 1_555
C29J N7J 1_555 1_555
C30J C29J 1_555 1_555
H23J C30J 1_555 1_555
C31J C30J 1_555 1_555
H24J C31J 1_555 1_555
C32J C31J 1_555 1_555
H25J C32J 1_555 1_555
C33J N7J 1_555 1_555
H26J C33J 1_555 1_555
N8J N9J 1_555 1_555
N9J Co1J 1_555 1_555
C34J C29J 1_555 1_555
C35J C34J 1_555 1_555
H27J C35J 1_555 1_555
C36J N8J 1_555 1_555
H28J C36J 1_555 1_555
C37J N8J 1_555 1_555
H29J C37J 1_555 1_555
H30J C37J 1_555 1_555
N10J Co1B 1_555 1_555
C38J N10J 1_555 1_555
C39J C38J 1_555 1_555
H31J C39J 1_555 1_555
C40J C39J 1_555 1_555
H32J C40J 1_555 1_555
C41J C40J 1_555 1_555
H33J C41J 1_555 1_555
C42J N10J 1_555 1_555
H34J C42J 1_555 1_555
N11J N12J 1_555 1_555
N12J Co1B 1_555 1_555
C43J C38J 1_555 1_555
C44J C43J 1_555 1_555
H35J C44J 1_555 1_555
C45J N11J 1_555 1_555
H36J C45J 1_555 1_555
C46J N11J 1_555 1_555
H37J C46J 1_555 1_555
H38J C46J 1_555 1_555
C47J C37J 1_555 1_555
C48J C47J 1_555 1_555
H39J C48J 1_555 1_555
C49J C48J 1_555 1_555
H40J C49J 1_555 1_555
C50J C49J 1_555 1_555
H41J C50J 1_555 1_555
C51J C50J 1_555 1_555
C52J C47J 1_555 1_555
C53J C52J 1_555 1_555
H42J C53J 1_555 1_555
C54J C53J 1_555 1_555
H43J C54J 1_555 1_555
C55J C54J 1_555 1_555
H44J C55J 1_555 1_555
C56J C46J 1_555 1_555
Co1K N10A 1_555 1_555
N1K Co1K 1_555 1_555
C1K N1K 1_555 1_555
C2K C1K 1_555 1_555
H1K C2K 1_555 1_555
C3K C2K 1_555 1_555
H2K C3K 1_555 1_555
C4K C3K 1_555 1_555
H3K C4K 1_555 1_555
C5K N1K 1_555 1_555
H4K C5K 1_555 1_555
N2K N3K 1_555 1_555
N3K Co1K 1_555 1_555
C6K N2K 1_555 1_555
H5K C6K 1_555 1_555
C7K C6K 1_555 1_555
H6K C7K 1_555 1_555
C8K C1K 1_555 1_555
C9K N2K 1_555 1_555
H7K C9K 1_555 1_555
H8K C9K 1_555 1_555
N4K Co2I 1_555 1_555
C10K N4K 1_555 1_555
C11K C10K 1_555 1_555
H9K C11K 1_555 1_555
C12K C11K 1_555 1_555
H10K C12K 1_555 1_555
C13K C12K 1_555 1_555
H11K C13K 1_555 1_555
C14K N4K 1_555 1_555
H12K C14K 1_555 1_555
N5K N6K 1_555 1_555
N6K Co2I 1_555 1_555
C15K C10K 1_555 1_555
C16K C15K 1_555 1_555
H13K C16K 1_555 1_555
C17K N5K 1_555 1_555
H14K C17K 1_555 1_555
C18K N5K 1_555 1_555
H15K C18K 1_555 1_555
H16K C18K 1_555 1_555
C19K C9K 1_555 1_555
C20K C19K 1_555 1_555
H17K C20K 1_555 1_555
C21K C20K 1_555 1_555
H18K C21K 1_555 1_555
C22K C21K 1_555 1_555
H19K C22K 1_555 1_555
C23K C22K 1_555 1_555
C24K C19K 1_555 1_555
C25K C24K 1_555 1_555
H20K C25K 1_555 1_555
C26K C25K 1_555 1_555
H21K C26K 1_555 1_555
C27K C26K 1_555 1_555
H22K C27K 1_555 1_555
C28K C18K 1_555 1_555
N7K Co1K 1_555 1_555
C29K N7K 1_555 1_555
C30K C29K 1_555 1_555
H23K C30K 1_555 1_555
C31K C30K 1_555 1_555
H24K C31K 1_555 1_555
C32K C31K 1_555 1_555
H25K C32K 1_555 1_555
C33K N7K 1_555 1_555
H26K C33K 1_555 1_555
N8K N9K 1_555 1_555
N9K Co1K 1_555 1_555
C34K C29K 1_555 1_555
C35K C34K 1_555 1_555
H27K C35K 1_555 1_555
C36K N8K 1_555 1_555
H28K C36K 1_555 1_555
C37K N8K 1_555 1_555
H29K C37K 1_555 1_555
H30K C37K 1_555 1_555
N10K Co1 1_555 1_555
C38K N10K 1_555 1_555
C39K C38K 1_555 1_555
H31K C39K 1_555 1_555
C40K C39K 1_555 1_555
H32K C40K 1_555 1_555
C41K C40K 1_555 1_555
H33K C41K 1_555 1_555
C42K N10K 1_555 1_555
H34K C42K 1_555 1_555
N11K N12K 1_555 1_555
N12K Co1 1_555 1_555
C43K C38K 1_555 1_555
C44K C43K 1_555 1_555
H35K C44K 1_555 1_555
C45K N11K 1_555 1_555
H36K C45K 1_555 1_555
C46K N11K 1_555 1_555
H37K C46K 1_555 1_555
H38K C46K 1_555 1_555
C47K C37K 1_555 1_555
C48K C47K 1_555 1_555
H39K C48K 1_555 1_555
C49K C48K 1_555 1_555
H40K C49K 1_555 1_555
C50K C49K 1_555 1_555
H41K C50K 1_555 1_555
C51K C50K 1_555 1_555
C52K C47K 1_555 1_555
C53K C52K 1_555 1_555
H42K C53K 1_555 1_555
C54K C53K 1_555 1_555
H43K C54K 1_555 1_555
C55K C54K 1_555 1_555
H44K C55K 1_555 1_555
C56K C46K 1_555 1_555
C4 C5 1_555 1_555
N3 C8 1_555 1_555
C7 C8 1_555 1_555
C13 C14 1_555 1_555
N6 C15 1_555 1_555
C16 C17 1_555 1_555
C23 C24 1_555 1_555
C23 C28 1_555 1_555
C27 C28 1_555 1_555
C32 C33 1_555 1_555
N9 C34 1_555 1_555
C35 C36 1_555 1_555
C41 C42 1_555 1_555
N12 Co1J 1_555 1_555
C44 C45 1_555 1_555
C51 C52 1_555 1_555
C51 C56 1_555 1_555
C55 C56 1_555 1_555
C4A C5A 1_555 1_555
N3A C8A 1_555 1_555
C7A C8A 1_555 1_555
C13A C14A 1_555 1_555
N6A C15A 1_555 1_555
C16A C17A 1_555 1_555
C23A C24A 1_555 1_555
C23A C28A 1_555 1_555
C27A C28A 1_555 1_555
C32A C33A 1_555 1_555
N9A C34A 1_555 1_555
C35A C36A 1_555 1_555
C41A C42A 1_555 1_555
N12A Co1K 1_555 1_555
C44A C45A 1_555 1_555
C51A C52A 1_555 1_555
C51A C56A 1_555 1_555
C55A C56A 1_555 1_555
C4B C5B 1_555 1_555
N3B C8B 1_555 1_555
C7B C8B 1_555 1_555
C13B C14B 1_555 1_555
N6B C15B 1_555 1_555
C16B C17B 1_555 1_555
C23B C24B 1_555 1_555
C23B C28B 1_555 1_555
C27B C28B 1_555 1_555
C32B C33B 1_555 1_555
N9B C34B 1_555 1_555
C35B C36B 1_555 1_555
C41B C42B 1_555 1_555
N12B Co1I 1_555 1_555
C44B C45B 1_555 1_555
C51B C52B 1_555 1_555
C51B C56B 1_555 1_555
C55B C56B 1_555 1_555
C4I C5I 1_555 1_555
N3I C8I 1_555 1_555
C7I C8I 1_555 1_555
C13I C14I 1_555 1_555
N6I C15I 1_555 1_555
C16I C17I 1_555 1_555
C23I C24I 1_555 1_555
C23I C28I 1_555 1_555
C27I C28I 1_555 1_555
C32I C33I 1_555 1_555
N9I C34I 1_555 1_555
C35I C36I 1_555 1_555
C41I C42I 1_555 1_555
N12I C43I 1_555 1_555
C44I C45I 1_555 1_555
C51I C52I 1_555 1_555
C51I C56I 1_555 1_555
C55I C56I 1_555 1_555
C4J C5J 1_555 1_555
N3J C8J 1_555 1_555
C7J C8J 1_555 1_555
C13J C14J 1_555 1_555
N6J C15J 1_555 1_555
C16J C17J 1_555 1_555
C23J C24J 1_555 1_555
C23J C28J 1_555 1_555
C27J C28J 1_555 1_555
C32J C33J 1_555 1_555
N9J C34J 1_555 1_555
C35J C36J 1_555 1_555
C41J C42J 1_555 1_555
N12J C43J 1_555 1_555
C44J C45J 1_555 1_555
C51J C52J 1_555 1_555
C51J C56J 1_555 1_555
C55J C56J 1_555 1_555
C4K C5K 1_555 1_555
N3K C8K 1_555 1_555
C7K C8K 1_555 1_555
C13K C14K 1_555 1_555
N6K C15K 1_555 1_555
C16K C17K 1_555 1_555
C23K C24K 1_555 1_555
C23K C28K 1_555 1_555
C27K C28K 1_555 1_555
C32K C33K 1_555 1_555
N9K C34K 1_555 1_555
C35K C36K 1_555 1_555
C41K C42K 1_555 1_555
N12K C43K 1_555 1_555
C44K C45K 1_555 1_555
C51K C52K 1_555 1_555
C51K C56K 1_555 1_555
C55K C56K 1_555 1_555

#END
