
#######################################################################
#
#                 Cambridge Crystallographic Data Centre
#                                CCDC 
#
#######################################################################
#
# If this CIF has been generated from an entry in the Cambridge 
# Structural Database, then it will include bibliographic, chemical, 
# crystal, experimental, refinement or atomic coordinate data resulting 
# from the CCDC's data processing and validation procedures.
#
#######################################################################

data_GEWMON
_chemical_formula_moiety         '(C12 H14 Cu1 O6)n'
_chemical_name_systematic        
'catena-((\m-5-n-butoxyisophthalato)-aqua-copper unknown solvate)'
_symmetry_cell_setting           tetragonal
_symmetry_space_group_name_H-M   'P 4/n m m'
_symmetry_Int_Tables_number      129
_space_group_name_Hall           '-P 4a 2a'
loop_
_symmetry_equiv_pos_site_id
_symmetry_equiv_pos_as_xyz
1 x,y,z
2 1/2-y,x,z
3 y,1/2-x,z
4 1/2+x,-y,-z
5 -x,1/2+y,-z
6 1/2-x,1/2-y,z
7 1/2+y,1/2+x,-z
8 -y,-x,-z
9 -x,-y,-z
10 1/2+y,-x,-z
11 -y,1/2+x,-z
12 1/2-x,y,z
13 x,1/2-y,z
14 1/2+x,1/2+y,-z
15 1/2-y,1/2-x,z
16 y,x,z
_cell_length_a                   18.948(7)
_cell_length_b                   18.948(7)
_cell_length_c                   10.669(4)
_cell_angle_alpha                90
_cell_angle_beta                 90
_cell_angle_gamma                90
_cell_volume                     3830.46
_exptl_crystal_colour            green
_exptl_crystal_description       plate
_cell_formula_units_Z            8
loop_
_atom_site_label
_atom_site_type_symbol
_atom_site_fract_x
_atom_site_fract_y
_atom_site_fract_z
Cu1 Cu 0.53237(3) 0.53237(3) 0.90728(8)
O1 O 0.5395(2) 0.4370(2) 0.8342(4)
O2 O 0.4853(2) 0.3819(2) 0.9926(4)
O3 O 0.5647(6) 0.250000 0.5055(6)
O4 O 0.5859(3) 0.5859(3) 0.7561(6)
C1 C 0.5152(3) 0.3832(3) 0.8881(5)
C2 C 0.5139(5) 0.250000 0.8830(8)
H1 H 0.498645 0.249999 0.967820
C3 C 0.5251(3) 0.3138(3) 0.8210(5)
C4 C 0.5422(4) 0.3143(3) 0.6944(5)
H2 H 0.548619 0.357745 0.651553
C5 C 0.5501(6) 0.250000 0.6301(9)
C6 C 0.5712(13) 0.1928(8) 0.4292(12)
H3 H 0.531619 0.159669 0.444246
H4 H 0.615902 0.167795 0.447432
C7 C 0.5704(10) 0.2172(8) 0.2930(13)
H5 H 0.556811 0.178529 0.235404
H6 H 0.538369 0.257836 0.280554
C8 C 0.6452(9) 0.2376(10) 0.2764(12)
H7 H 0.676881 0.209553 0.330908
H8 H 0.652673 0.288471 0.292416
C9 C 0.6551(10) 0.2192(8) 0.1382(12)
H9 H 0.703562 0.230172 0.112904
H10 H 0.645975 0.168802 0.125604
H11 H 0.622018 0.246902 0.087510
O1L O 0.5395(2) 0.0630(2) 0.8342(4)
O2L O 0.4853(2) 0.1181(2) 0.9926(4)
C1L C 0.5152(3) 0.1168(3) 0.8881(5)
C3L C 0.5251(3) 0.1862(3) 0.8210(5)
C4L C 0.5422(4) 0.1857(3) 0.6944(5)
H2L H 0.548619 0.142255 0.651553
C6L C 0.5712(13) 0.3072(8) 0.4292(12)
H3L H 0.531619 0.340331 0.444246
H4L H 0.615902 0.332205 0.447432
C7L C 0.5704(10) 0.2828(8) 0.2930(13)
H5L H 0.556811 0.321471 0.235404
H6L H 0.538369 0.242164 0.280554
C8L C 0.6452(9) 0.2624(10) 0.2764(12)
H7L H 0.676881 0.290447 0.330908
H8L H 0.652673 0.211529 0.292416
C9L C 0.6551(10) 0.2808(8) 0.1382(12)
H9L H 0.703562 0.269828 0.112904
H10L H 0.645975 0.331198 0.125604
H11L H 0.622018 0.253098 0.087510
Cu1B Cu 0.53237(3) -0.03237(3) 0.90728(8)
Cu1D Cu 0.46763(3) 0.03237(3) 1.09272(8)
Cu1G Cu 0.46763(3) 0.46763(3) 1.09272(8)
O1O O 0.4370(2) 0.5395(2) 0.8342(4)
O2G O 0.6181(2) 0.5147(2) 1.0074(4)
O2H O 0.5147(2) 0.6181(2) 1.0074(4)
loop_
_geom_bond_atom_site_label_1
_geom_bond_atom_site_label_2
_geom_bond_site_symmetry_1
_geom_bond_site_symmetry_2
Cu1 O1 1_555 1_555
O1 C1 1_555 1_555
O2 C1 1_555 1_555
O3 C5 1_555 1_555
O4 Cu1 1_555 1_555
C1 C3 1_555 1_555
C2 H1 1_555 1_555
C3 C2 1_555 1_555
C4 C3 1_555 1_555
H2 C4 1_555 1_555
C5 C4 1_555 1_555
C6 O3 1_555 1_555
H3 C6 1_555 1_555
H4 C6 1_555 1_555
C7 C6 1_555 1_555
H5 C7 1_555 1_555
H6 C7 1_555 1_555
C8 C7 1_555 1_555
H7 C8 1_555 1_555
H8 C8 1_555 1_555
C9 C8 1_555 1_555
H9 C9 1_555 1_555
H10 C9 1_555 1_555
H11 C9 1_555 1_555
O1L C1L 1_555 1_555
O2L C1L 1_555 1_555
C1L C3L 1_555 1_555
C3L C2 1_555 1_555
C4L C5 1_555 1_555
H2L C4L 1_555 1_555
C6L O3 1_555 1_555
H3L C6L 1_555 1_555
H4L C6L 1_555 1_555
C7L C7 1_555 1_555
H5L C7L 1_555 1_555
H6L C7 1_555 1_555
C8L C7 1_555 1_555
H7L C8 1_555 1_555
H8L C8L 1_555 1_555
C9L C8 1_555 1_555
H9L C9 1_555 1_555
H10L C9L 1_555 1_555
H11L C9 1_555 1_555
Cu1B O1L 1_555 1_555
Cu1D O2L 1_555 1_555
Cu1G Cu1 1_555 1_555
O1O Cu1 1_555 1_555
O2G Cu1 1_555 1_555
O2H Cu1 1_555 1_555
O2 Cu1G 1_555 1_555
H6 C7L 1_555 1_555
C8 C7L 1_555 1_555
H7 C8L 1_555 1_555
C9 C8L 1_555 1_555
C9 C9L 1_555 1_555
H9 C9L 1_555 1_555
H11 C9L 1_555 1_555
C3L C4L 1_555 1_555
C6L C7L 1_555 1_555
C7L H6L 1_555 1_555
C7L C8L 1_555 1_555
C8L H7L 1_555 1_555
C8L C9L 1_555 1_555
C9L H9L 1_555 1_555
C9L H11L 1_555 1_555
Cu1B Cu1D 1_555 1_555

#END
