
#######################################################################
#
#                 Cambridge Crystallographic Data Centre
#                                CCDC 
#
#######################################################################
#
# If this CIF has been generated from an entry in the Cambridge 
# Structural Database, then it will include bibliographic, chemical, 
# crystal, experimental, refinement or atomic coordinate data resulting 
# from the CCDC's data processing and validation procedures.
#
#######################################################################

data_GEWNUU
_chemical_formula_moiety         '(C11 H12 Cu1 O6)n'
_chemical_name_systematic        
'catena-((\m-5-ethoxyisophthalato)-methanol-copper unknown solvate)'
_symmetry_cell_setting           trigonal
_symmetry_space_group_name_H-M   'P -3 m 1'
_symmetry_Int_Tables_number      164
_space_group_name_Hall           '-P 3 2"'
loop_
_symmetry_equiv_pos_site_id
_symmetry_equiv_pos_as_xyz
1 x,y,z
2 -y,x-y,z
3 -x+y,-x,z
4 y,x,-z
5 x-y,-y,-z
6 -x,-x+y,-z
7 -x,-y,-z
8 y,-x+y,-z
9 x-y,x,-z
10 -y,-x,z
11 -x+y,y,z
12 x,x-y,z
_cell_length_a                   18.4598(7)
_cell_length_b                   18.4598(7)
_cell_length_c                   8.9338(4)
_cell_angle_alpha                90
_cell_angle_beta                 90
_cell_angle_gamma                120
_cell_volume                     2636.46
_exptl_crystal_colour            green
_exptl_crystal_description       needle
_cell_formula_units_Z            6
loop_
_atom_site_label
_atom_site_type_symbol
_atom_site_fract_x
_atom_site_fract_y
_atom_site_fract_z
Cu1 Cu 0.47552(2) 0.52448(2) 0.38226(8)
O1 O 0.5203(3) 0.6291(2) 0.4937(4)
O2 O 0.5600(3) 0.5879(2) 0.6962(4)
O3 O 0.6497(8) 0.8249(4) 1.0600(10)
O4 O 0.4354(2) 0.5646(2) 0.1919(7)
C1 C 0.5491(3) 0.6389(3) 0.6221(5)
C2 C 0.5555(5) 0.7777(2) 0.6268(8)
H1 H 0.532234 0.766119 0.528965
C3 C 0.5723(4) 0.7216(3) 0.6976(7)
C4 C 0.6026(5) 0.7362(4) 0.8405(7)
H2 H 0.611739 0.695889 0.889986
C5 C 0.6203(8) 0.8101(4) 0.9149(12)
C6 C 0.6705(17) 0.8910(14) 1.136(2)
H3 H 0.623094 0.901712 1.140943
H4 H 0.718352 0.939740 1.087334
C7 C 0.6955(17) 0.8778(17) 1.298(2)
C8 C 0.774(2) 0.862(3) 1.268(4)
C9 C 0.4414(6) 0.5586(6) 0.0736(16)
O1K O 0.5203(3) 0.8912(4) 0.4937(4)
O2K O 0.5600(3) 0.9721(4) 0.6962(4)
C1K C 0.5491(3) 0.9102(4) 0.6221(5)
C3K C 0.5723(4) 0.8507(5) 0.6976(7)
C4K C 0.6026(5) 0.8664(6) 0.8405(7)
H2K H 0.611739 0.915850 0.889986
C6K C 0.6705(17) 0.7795(22) 1.136(2)
H3K H 0.623094 0.721382 1.140943
H4K H 0.718352 0.778612 1.087334
C7K C 0.6955(17) 0.8177(24) 1.298(2)
C8K C 0.774(2) 0.912(4) 1.268(4)
Cu1A Cu 0.47552(2) 0.95104(3) 0.38226(8)
Cu1C Cu 0.52448(2) 0.47552(2) 0.61774(8)
Cu1E Cu 0.52448(2) 1.04896(3) 0.61774(8)
O1I O 0.3709(2) 0.4797(3) 0.4937(4)
O2C O 0.5879(2) 0.5600(3) 0.3038(4)
O2F O 0.4400(3) 0.4121(2) 0.3038(4)
C10? C 0.681(3) 0.914(6) 1.347(7)
loop_
_geom_bond_atom_site_label_1
_geom_bond_atom_site_label_2
_geom_bond_site_symmetry_1
_geom_bond_site_symmetry_2
Cu1 O1 1_555 1_555
O1 C1 1_555 1_555
O2 C1 1_555 1_555
O3 C5 1_555 1_555
O4 Cu1 1_555 1_555
C1 C3 1_555 1_555
C2 H1 1_555 1_555
C3 C2 1_555 1_555
C4 C3 1_555 1_555
H2 C4 1_555 1_555
C5 C4 1_555 1_555
C6 O3 1_555 1_555
H3 C6 1_555 1_555
H4 C6 1_555 1_555
C7 C6 1_555 1_555
C8 C7 1_555 1_555
C9 O4 1_555 1_555
O1K C1K 1_555 1_555
O2K C1K 1_555 1_555
C1K C3K 1_555 1_555
C3K C2 1_555 1_555
C4K C5 1_555 1_555
H2K C4K 1_555 1_555
C6K O3 1_555 1_555
H3K C6K 1_555 1_555
H4K C6K 1_555 1_555
C7K C7 1_555 1_555
C8K C7 1_555 1_555
Cu1A O1K 1_555 1_555
Cu1C O2 1_555 1_555
Cu1E O2K 1_555 1_555
O1I Cu1 1_555 1_555
O2C Cu1 1_555 1_555
O2F Cu1 1_555 1_555
C8 C7K 1_555 1_555
C8 C8K 1_555 1_555
C3K C4K 1_555 1_555
C6K C7K 1_555 1_555
C7K C8K 1_555 1_555

#END
