
#######################################################################
#
#                 Cambridge Crystallographic Data Centre
#                                CCDC 
#
#######################################################################
#
# If this CIF has been generated from an entry in the Cambridge 
# Structural Database, then it will include bibliographic, chemical, 
# crystal, experimental, refinement or atomic coordinate data resulting 
# from the CCDC's data processing and validation procedures.
#
#######################################################################

data_GEWNAA
_chemical_formula_moiety         '(C72 H84 Cu6 O36)n'
_chemical_name_systematic        
'catena-(hexakis(\m-5-n-butoxyisophthalato)-tetra-aqua-bis(methanol)-hexa-copper unknown solvate)'
_symmetry_cell_setting           monoclinic
_symmetry_space_group_name_H-M   'P 21/c'
_symmetry_Int_Tables_number      14
_space_group_name_Hall           '-P 2ybc'
loop_
_symmetry_equiv_pos_site_id
_symmetry_equiv_pos_as_xyz
1 x,y,z
2 -x,1/2+y,1/2-z
3 -x,-y,-z
4 x,1/2-y,1/2+z
_cell_length_a                   15.8733(3)
_cell_length_b                   18.3788(4)
_cell_length_c                   32.3346(7)
_cell_angle_alpha                90
_cell_angle_beta                 93.2461(12)
_cell_angle_gamma                90
_cell_volume                     9417.91
_exptl_crystal_colour            green
_exptl_crystal_description       plate
_cell_formula_units_Z            4
loop_
_atom_site_label
_atom_site_type_symbol
_atom_site_fract_x
_atom_site_fract_y
_atom_site_fract_z
Cu1 Cu 0.71305(5) 0.49744(4) 0.47026(2)
Cu2 Cu 0.84876(5) 0.50025(4) 0.52142(2)
Cu3 Cu 0.71877(5) 0.27845(4) 0.25872(2)
Cu4 Cu 0.85278(4) 0.20396(4) 0.23847(2)
Cu5 Cu 0.71348(5) 0.70213(4) 0.24934(2)
Cu6 Cu 0.84782(4) 0.77659(4) 0.22979(2)
O1 O 0.7723(3) 0.4179(2) 0.44354(12)
O2 O 0.8884(2) 0.4209(2) 0.48606(11)
O3 O 0.7769(3) 0.2882(2) 0.31297(12)
O4 O 0.8924(2) 0.2273(2) 0.29672(11)
C1 C 0.8457(4) 0.3976(3) 0.45492(15)
C2 C 0.8866(4) 0.3421(3) 0.42833(16)
C3 C 0.9640(4) 0.3120(3) 0.44119(17)
H1 H 0.990123 0.324379 0.467410
C4 C 1.0034(4) 0.2631(3) 0.41505(18)
C5 C 0.9666(4) 0.2477(3) 0.37618(17)
H2 H 0.994079 0.215977 0.358028
C6 C 0.8893(4) 0.2788(3) 0.36377(16)
C7 C 0.8487(4) 0.3249(3) 0.38990(17)
H3 H 0.795104 0.344724 0.381588
C8 C 0.8504(3) 0.2631(3) 0.32105(16)
O5 O 1.0772(3) 0.2312(3) 0.42794(15)
C9 C 1.1195(8) 0.2430(8) 0.4644(4)
H4 H 1.082076 0.233603 0.487303
H5 H 1.138150 0.294326 0.466194
C10 C 1.1961(9) 0.1928(7) 0.4686(5)
H6 H 1.234586 0.208301 0.447265
H7 H 1.225207 0.203951 0.495791
C11 C 1.1902(10) 0.1112(9) 0.4659(7)
H8 H 1.172362 0.097201 0.437120
H9 H 1.146642 0.093824 0.484242
C12 C 1.2739(10) 0.0745(11) 0.4782(7)
H10 H 1.320316 0.103690 0.468249
H11 H 1.275035 0.025891 0.465743
H12 H 1.280153 0.070296 0.508385
O6 O 0.7732(3) 0.5670(2) 0.43710(12)
O7 O 0.8873(3) 0.5711(2) 0.48035(11)
O8 O 0.7734(2) 0.6924(2) 0.30339(11)
O9 O 0.8908(3) 0.7491(2) 0.28591(12)
C13 C 0.8455(4) 0.5885(3) 0.44773(16)
C14 C 0.8879(4) 0.6381(3) 0.41871(17)
C15 C 0.9679(4) 0.6650(3) 0.42925(18)
H13 H 0.995341 0.652912 0.455205
C16 C 1.0081(4) 0.7100(4) 0.4015(2)
C17 C 0.9692(4) 0.7255(3) 0.36300(18)
H14 H 0.996967 0.755111 0.343904
C18 C 0.8898(4) 0.6977(3) 0.35249(17)
C19 C 0.8479(4) 0.6550(3) 0.38043(16)
H15 H 0.792523 0.637569 0.373449
C20 C 0.8472(4) 0.7146(3) 0.31089(17)
O10 O 1.0869(3) 0.7371(3) 0.41080(15)
C21 C 1.1186(8) 0.7501(7) 0.4494(4)
H16 H 1.180510 0.756599 0.449230
H17 H 1.107297 0.707979 0.467381
C22 C 1.0765(9) 0.8220(8) 0.4676(5)
H18 H 1.098926 0.830240 0.496043
H19 H 1.015188 0.815741 0.467310
H20 H 1.089786 0.863979 0.450383
O11 O 0.6709(2) 0.4282(2) 0.51051(11)
O12 O 0.7869(2) 0.4290(2) 0.55344(12)
O13 O 0.6719(2) 0.2416(2) 0.70279(11)
O14 O 0.7862(2) 0.3020(2) 0.68506(11)
C23 C 0.7122(3) 0.4097(3) 0.54328(16)
C24 C 0.6689(4) 0.3614(3) 0.57269(17)
C25 C 0.5849(4) 0.3423(4) 0.56416(19)
H21 H 0.555690 0.358947 0.539502
C26 C 0.5439(4) 0.2987(4) 0.5920(2)
C27 C 0.5864(4) 0.2763(4) 0.62857(19)
H22 H 0.558334 0.246974 0.647703
C28 C 0.6694(4) 0.2966(3) 0.63711(17)
C29 C 0.7118(3) 0.3382(3) 0.60898(16)
H23 H 0.769443 0.350712 0.614528
C30 C 0.7126(3) 0.2785(3) 0.67799(16)
O15 O 0.4618(3) 0.2825(3) 0.58023(16)
C31 C 0.4139(5) 0.2386(5) 0.6065(2)
H24 H 0.406351 0.264065 0.633012
H25 H 0.443659 0.192118 0.612610
C32 C 0.3302(4) 0.2241(4) 0.5849(2)
H26 H 0.338596 0.199643 0.558168
H27 H 0.301082 0.270853 0.578958
C33 C 0.2750(5) 0.1762(4) 0.6110(2)
H28 H 0.304252 0.129556 0.617258
H29 H 0.265854 0.200832 0.637637
C34 C 0.1908(5) 0.1612(4) 0.5885(3)
H30 H 0.165661 0.207200 0.578663
H31 H 0.153195 0.137659 0.607469
H32 H 0.198949 0.129168 0.564885
O16 O 0.6730(2) 0.5770(2) 0.50486(12)
O17 O 0.7874(2) 0.5780(2) 0.54848(12)
O18 O 0.6706(2) 0.7786(2) 0.69183(12)
O19 O 0.7819(3) 0.7112(2) 0.67707(12)
C35 C 0.7152(4) 0.5995(3) 0.53658(16)
C36 C 0.6754(4) 0.6563(4) 0.5620(2)
C37 C 0.6033(5) 0.6921(4) 0.5467(2)
H33 H 0.578180 0.680025 0.520232
C38 C 0.5686(5) 0.7454(5) 0.5704(2)
C39 C 0.6017(5) 0.7610(4) 0.6106(2)
H34 H 0.575071 0.795472 0.627431
C40 C 0.6741(4) 0.7249(4) 0.6252(2)
C41 C 0.7123(4) 0.6744(4) 0.60051(19)
H35 H 0.763820 0.652154 0.609980
C42 C 0.7116(3) 0.7401(3) 0.66837(17)
O20 O 0.4991(4) 0.7862(4) 0.5571(2)
C43 C 0.4575(7) 0.7675(6) 0.5187(3)
H36 H 0.436023 0.716956 0.519815
H37 H 0.497493 0.770381 0.496348
C44 C 0.3816(8) 0.8219(6) 0.5094(4)
H38 H 0.349604 0.831327 0.534240
H39 H 0.342682 0.804668 0.486431
C45 C 0.4366(8) 0.8932(7) 0.4961(4)
H40 H 0.477273 0.906115 0.518834
H41 H 0.398433 0.934310 0.490193
H42 H 0.466835 0.881718 0.471310
O21 O 0.7858(3) 0.3588(2) 0.23768(14)
O22 O 0.8999(2) 0.29648(19) 0.22051(13)
O23 O 0.7761(2) 0.61859(19) 0.22978(13)
O24 O 0.8882(3) 0.68156(19) 0.21059(14)
C46 C 0.8575(3) 0.3540(3) 0.22340(16)
C47 C 0.8961(4) 0.4240(3) 0.20956(17)
C48 C 0.9717(4) 0.4241(3) 0.19065(18)
H43 H 1.000192 0.379465 0.186418
C49 C 1.0069(4) 0.4896(3) 0.1776(2)
C50 C 0.9665(4) 0.5545(3) 0.18568(18)
H44 H 0.990342 0.599504 0.177837
C51 C 0.8904(4) 0.5534(3) 0.20541(17)
C52 C 0.8546(4) 0.4885(3) 0.21658(17)
H45 H 0.801858 0.488203 0.229035
C53 C 0.8478(4) 0.6233(3) 0.21594(16)
O25 O 1.0797(3) 0.4846(2) 0.15778(17)
C54 C 1.1172(5) 0.5492(4) 0.1443(3)
H46 H 1.130587 0.581566 0.168267
H47 H 1.077764 0.575040 0.124600
C55 C 1.1966(6) 0.5300(4) 0.1236(3)
H48 H 1.182078 0.501832 0.098113
H49 H 1.232675 0.499047 0.142378
C56 C 1.2464(6) 0.5995(5) 0.1123(3)
H50 H 1.257504 0.630321 0.137182
H51 H 1.213735 0.628348 0.091114
C57 C 1.3311(6) 0.5732(6) 0.0952(3)
H52 H 1.360499 0.541390 0.115651
H53 H 1.366630 0.615334 0.089859
H54 H 1.319316 0.546175 0.069398
O26 O 0.6702(3) 0.7978(2) 0.26620(14)
O27 O 0.7864(3) 0.8590(2) 0.25257(13)
O28 O 0.6740(3) 1.1829(2) 0.27532(13)
O29 O 0.7879(2) 1.12199(19) 0.25869(13)
C58 C 0.7137(4) 0.8549(3) 0.26443(17)
C59 C 0.6726(4) 0.9243(3) 0.2776(2)
C60 C 0.5971(5) 0.9235(4) 0.2961(3)
H55 H 0.570422 0.878258 0.301018
C61 C 0.5591(6) 0.9872(4) 0.3077(3)
C62 C 0.5968(5) 1.0540(4) 0.2984(3)
H56 H 0.569383 1.098454 0.304347
C63 C 0.6731(4) 1.0546(3) 0.2809(2)
C64 C 0.7131(5) 0.9901(3) 0.2708(2)
H57 H 0.767003 0.990961 0.259482
C65 C 0.7159(4) 1.1255(3) 0.27114(17)
O30 O 0.4853(4) 0.9812(3) 0.3260(2)
C66 C 0.4363(6) 1.0394(5) 0.3366(4)
H58 H 0.422924 1.069091 0.311551
H59 H 0.469219 1.070151 0.356773
C67 C 0.3615(6) 1.0190(5) 0.3536(4)
H60 H 0.361056 1.044608 0.380541
H61 H 0.315922 1.041272 0.335662
C68 C 0.3351(7) 0.9487(5) 0.3612(4)
H62 H 0.384390 0.924230 0.375253
H63 H 0.327231 0.925537 0.333575
C69 C 0.2661(7) 0.9272(7) 0.3827(4)
H64 H 0.262988 0.873968 0.383089
H65 H 0.272251 0.945594 0.411122
H66 H 0.214415 0.946917 0.368950
O31 O 0.5951(3) 0.4946(3) 0.43317(14)
C70 C 0.5213(8) 0.4938(8) 0.4480(5)
O32 O 0.6108(3) 0.3442(3) 0.27252(16)
O33 O 0.6041(3) 0.6393(3) 0.26648(15)
C71 C 0.5329(5) 0.6622(6) 0.2698(3)
O34 O 0.9591(3) 0.5089(3) 0.56179(16)
O35 O 0.9579(3) 0.1393(2) 0.22364(15)
O36 O 0.9547(3) 0.8387(2) 0.21300(14)
Cu3_2 Cu 0.71877(5) 1.27845(4) 0.25872(2)
Cu3C Cu 0.71877(5) 0.22155(4) 0.75872(2)
Cu4_2 Cu 0.85278(4) 1.20396(4) 0.23847(2)
Cu4C Cu 0.85278(4) 0.29604(4) 0.73847(2)
Cu5C Cu 0.71348(5) 0.79787(4) 0.74934(2)
Cu6C Cu 0.84782(4) 0.72341(4) 0.72979(2)
O13C O 0.6719(2) 0.2584(2) 0.20279(11)
O14C O 0.7862(2) 0.1980(2) 0.18506(11)
O18C O 0.6706(2) 0.7214(2) 0.19183(12)
O19C O 0.7819(3) 0.7888(2) 0.17707(12)
O28_2 O 0.6740(3) 0.1829(2) 0.27532(13)
O29_2 O 0.7879(2) 0.12199(19) 0.25869(13)
C72? C 1.1181(9) 0.1827(8) 0.4062(5)
H67? H 1.136420 0.206038 0.380598
H68? H 1.079136 0.142521 0.397921
C73? C 1.1950(9) 0.1515(9) 0.4304(5)
H69? H 1.229906 0.122917 0.411815
H70? H 1.229992 0.191130 0.442951
C74? C 1.1620(11) 0.1029(11) 0.4638(7)
H71? H 1.117222 0.070335 0.452004
H72? H 1.138375 0.132696 0.485908
C75? C 1.2371(11) 0.0586(11) 0.4813(7)
H73? H 1.264805 0.084560 0.504776
H74? H 1.277337 0.051660 0.459714
H75? H 1.217457 0.011080 0.490549
C76? C 1.1136(12) 0.8015(8) 0.4011(6)
H76? H 1.100905 0.808869 0.371023
H77? H 1.175793 0.802245 0.405825
C77? C 1.0744(14) 0.8718(11) 0.4261(7)
H78? H 1.079524 0.916025 0.409551
H79? H 1.105845 0.877885 0.452864
H80? H 1.014828 0.862736 0.430702
loop_
_geom_bond_atom_site_label_1
_geom_bond_atom_site_label_2
_geom_bond_site_symmetry_1
_geom_bond_site_symmetry_2
Cu1 O1 1_555 1_555
Cu2 O2 1_555 1_555
Cu3 O3 1_555 1_555
Cu4 O4 1_555 1_555
Cu5 O8 1_555 1_555
Cu6 O9 1_555 1_555
O1 C1 1_555 1_555
O2 C1 1_555 1_555
O3 C8 1_555 1_555
O4 C8 1_555 1_555
C1 C2 1_555 1_555
C2 C3 1_555 1_555
C3 H1 1_555 1_555
C4 C3 1_555 1_555
C5 C4 1_555 1_555
H2 C5 1_555 1_555
C6 C5 1_555 1_555
C7 C2 1_555 1_555
H3 C7 1_555 1_555
C8 C6 1_555 1_555
O5 C4 1_555 1_555
C9 O5 1_555 1_555
H4 C9 1_555 1_555
H5 C9 1_555 1_555
C10 C9 1_555 1_555
H6 C10 1_555 1_555
H7 C10 1_555 1_555
C11 C10 1_555 1_555
H8 C11 1_555 1_555
H9 C11 1_555 1_555
C12 C11 1_555 1_555
H10 C12 1_555 1_555
H11 C12 1_555 1_555
H12 C12 1_555 1_555
O6 Cu1 1_555 1_555
O7 Cu2 1_555 1_555
O8 C20 1_555 1_555
O9 C20 1_555 1_555
C13 O6 1_555 1_555
C14 C13 1_555 1_555
C15 C14 1_555 1_555
H13 C15 1_555 1_555
C16 C15 1_555 1_555
C17 C16 1_555 1_555
H14 C17 1_555 1_555
C18 C17 1_555 1_555
C19 C14 1_555 1_555
H15 C19 1_555 1_555
C20 C18 1_555 1_555
O10 C16 1_555 1_555
C21 O10 1_555 1_555
H16 C21 1_555 1_555
H17 C21 1_555 1_555
C22 C21 1_555 1_555
H18 C22 1_555 1_555
H19 C22 1_555 1_555
H20 C22 1_555 1_555
O11 Cu1 1_555 1_555
O12 Cu2 1_555 1_555
O13 C30 1_555 1_555
O14 C30 1_555 1_555
C23 O11 1_555 1_555
C24 C23 1_555 1_555
C25 C24 1_555 1_555
H21 C25 1_555 1_555
C26 C25 1_555 1_555
C27 C26 1_555 1_555
H22 C27 1_555 1_555
C28 C27 1_555 1_555
C29 C24 1_555 1_555
H23 C29 1_555 1_555
C30 C28 1_555 1_555
O15 C26 1_555 1_555
C31 O15 1_555 1_555
H24 C31 1_555 1_555
H25 C31 1_555 1_555
C32 C31 1_555 1_555
H26 C32 1_555 1_555
H27 C32 1_555 1_555
C33 C32 1_555 1_555
H28 C33 1_555 1_555
H29 C33 1_555 1_555
C34 C33 1_555 1_555
H30 C34 1_555 1_555
H31 C34 1_555 1_555
H32 C34 1_555 1_555
O16 Cu1 1_555 1_555
O17 Cu2 1_555 1_555
O18 C42 1_555 1_555
O19 C42 1_555 1_555
C35 O16 1_555 1_555
C36 C35 1_555 1_555
C37 C36 1_555 1_555
H33 C37 1_555 1_555
C38 C37 1_555 1_555
C39 C38 1_555 1_555
H34 C39 1_555 1_555
C40 C39 1_555 1_555
C41 C36 1_555 1_555
H35 C41 1_555 1_555
C42 C40 1_555 1_555
O20 C38 1_555 1_555
C43 O20 1_555 1_555
H36 C43 1_555 1_555
H37 C43 1_555 1_555
C44 C43 1_555 1_555
H38 C44 1_555 1_555
H39 C44 1_555 1_555
C45 C44 1_555 1_555
H40 C45 1_555 1_555
H41 C45 1_555 1_555
H42 C45 1_555 1_555
O21 Cu3 1_555 1_555
O22 Cu4 1_555 1_555
O23 Cu5 1_555 1_555
O24 Cu6 1_555 1_555
C46 O21 1_555 1_555
C47 C46 1_555 1_555
C48 C47 1_555 1_555
H43 C48 1_555 1_555
C49 C48 1_555 1_555
C50 C49 1_555 1_555
H44 C50 1_555 1_555
C51 C50 1_555 1_555
C52 C47 1_555 1_555
H45 C52 1_555 1_555
C53 O23 1_555 1_555
O25 C49 1_555 1_555
C54 O25 1_555 1_555
H46 C54 1_555 1_555
H47 C54 1_555 1_555
C55 C54 1_555 1_555
H48 C55 1_555 1_555
H49 C55 1_555 1_555
C56 C55 1_555 1_555
H50 C56 1_555 1_555
H51 C56 1_555 1_555
C57 C56 1_555 1_555
H52 C57 1_555 1_555
H53 C57 1_555 1_555
H54 C57 1_555 1_555
O26 Cu5 1_555 1_555
O27 Cu6 1_555 1_555
O28 C65 1_555 1_555
O29 C65 1_555 1_555
C58 O26 1_555 1_555
C59 C58 1_555 1_555
C60 C59 1_555 1_555
H55 C60 1_555 1_555
C61 C60 1_555 1_555
C62 C61 1_555 1_555
H56 C62 1_555 1_555
C63 C62 1_555 1_555
C64 C59 1_555 1_555
H57 C64 1_555 1_555
C65 C63 1_555 1_555
O30 C61 1_555 1_555
C66 O30 1_555 1_555
H58 C66 1_555 1_555
H59 C66 1_555 1_555
C67 C66 1_555 1_555
H60 C67 1_555 1_555
H61 C67 1_555 1_555
C68 C67 1_555 1_555
H62 C68 1_555 1_555
H63 C68 1_555 1_555
C69 C68 1_555 1_555
H64 C69 1_555 1_555
H65 C69 1_555 1_555
H66 C69 1_555 1_555
O31 Cu1 1_555 1_555
C70 O31 1_555 1_555
O32 Cu3 1_555 1_555
O33 Cu5 1_555 1_555
C71 O33 1_555 1_555
O34 Cu2 1_555 1_555
O35 Cu4 1_555 1_555
O36 Cu6 1_555 1_555
Cu3_2 O28 1_555 1_555
Cu3C O13 1_555 1_555
Cu4_2 O29 1_555 1_555
Cu4C O14 1_555 1_555
Cu5C O18 1_555 1_555
Cu6C O19 1_555 1_555
O13C Cu3 1_555 1_555
O14C Cu4 1_555 1_555
O18C Cu5 1_555 1_555
O19C Cu6 1_555 1_555
O28_2 Cu3 1_555 1_555
O29_2 Cu4 1_555 1_555
C6 C7 1_555 1_555
O7 C13 1_555 1_555
C18 C19 1_555 1_555
O12 C23 1_555 1_555
C28 C29 1_555 1_555
O17 C35 1_555 1_555
C40 C41 1_555 1_555
O22 C46 1_555 1_555
O24 C53 1_555 1_555
C51 C52 1_555 1_555
C51 C53 1_555 1_555
O27 C58 1_555 1_555
C63 C64 1_555 1_555

#END
