
#######################################################################
#
#                 Cambridge Crystallographic Data Centre
#                                CCDC 
#
#######################################################################
#
# If this CIF has been generated from an entry in the Cambridge 
# Structural Database, then it will include bibliographic, chemical, 
# crystal, experimental, refinement or atomic coordinate data resulting 
# from the CCDC's data processing and validation procedures.
#
#######################################################################

data_GEWNEE
_chemical_formula_moiety         '(C11 H12 Cu1 O6)n'
_chemical_name_systematic        
'catena-((\m-5-n-propoxyisophthalato)-aqua-copper unknown solvate)'
_symmetry_cell_setting           trigonal
_symmetry_space_group_name_H-M   'P -3 m 1'
_symmetry_Int_Tables_number      164
_space_group_name_Hall           '-P 3 2"'
loop_
_symmetry_equiv_pos_site_id
_symmetry_equiv_pos_as_xyz
1 x,y,z
2 -y,x-y,z
3 -x+y,-x,z
4 y,x,-z
5 x-y,-y,-z
6 -x,-x+y,-z
7 -x,-y,-z
8 y,-x+y,-z
9 x-y,x,-z
10 -y,-x,z
11 -x+y,y,z
12 x,x-y,z
_cell_length_a                   18.6055(11)
_cell_length_b                   18.6055(11)
_cell_length_c                   6.9528(4)
_cell_angle_alpha                90
_cell_angle_beta                 90
_cell_angle_gamma                120
_cell_volume                     2084.36
_exptl_crystal_colour            blue
_exptl_crystal_description       plate
_cell_formula_units_Z            6
loop_
_atom_site_label
_atom_site_type_symbol
_atom_site_fract_x
_atom_site_fract_y
_atom_site_fract_z
Cu1 Cu 0.47604(2) 0.52396(2) 0.65549(5)
C1 C 0.07843(16) 0.15764(13) -0.3614(3)
H1 H 0.048252 0.125166 -0.474623
H2 H 0.043873 0.174932 -0.291468
H3 H 0.091667 0.123618 -0.277182
C2 C 0.15881(15) 0.23444(15) -0.4255(3)
H4 H 0.145137 0.265928 -0.519038
H5 H 0.194116 0.216355 -0.492062
C3 C 0.20820(12) 0.29210(12) -0.2589(2)
H6 H 0.219604 0.260897 -0.159835
H7 H 0.261843 0.337887 -0.306310
C4 C 0.18163(8) 0.36325(9) -0.00984(18)
C5 C 0.25742(7) 0.38496(6) 0.07674(13)
H8 H 0.295877 0.373448 0.013837
C6 C 0.27649(5) 0.42371(6) 0.25631(12)
C7 C 0.22089(7) 0.44179(11) 0.34842(18)
H9 H 0.233098 0.466196 0.472791
C8 C 0.35925(5) 0.44995(6) 0.34799(12)
O1 O 0.16162(10) 0.32324(11) -0.18243(19)
O2 O 0.37090(7) 0.48011(7) 0.51341(12)
O3 O 0.41075(6) 0.44038(10) 0.25090(16)
O4 O 0.43685(12) 0.56316(14) 0.90402(19)
H1J H 0.076914 0.125166 -0.474623
H2J H 0.131059 0.174932 -0.291468
H3J H 0.031951 0.123618 -0.277182
C2J C 0.07563(21) 0.23444(15) -0.4255(3)
H4J H 0.120791 0.265928 -0.519038
H5J H 0.022239 0.216355 -0.492062
C3J C 0.08390(17) 0.29210(12) -0.2589(2)
H6J H 0.041293 0.260897 -0.159835
H7J H 0.076044 0.337887 -0.306310
C5J C 0.12754(9) 0.38496(6) 0.07674(13)
H8J H 0.077571 0.373448 0.013837
C6J C 0.14722(8) 0.42371(6) 0.25631(12)
C8J C 0.09070(8) 0.44995(6) 0.34799(12)
O2J O 0.10921(10) 0.48011(7) 0.51341(12)
O3J O 0.02963(12) 0.44038(10) 0.25090(16)
Cu1B Cu 0.04792(3) 0.52396(2) 0.65549(5)
Cu1C Cu 0.52396(2) 0.47604(2) 0.34451(5)
Cu1D Cu -0.04792(3) 0.47604(2) 0.34451(5)
O2I O 0.51989(7) 0.62910(7) 0.51341(12)
O3C O 0.44038(10) 0.41075(6) 0.74910(16)
O3F O 0.58925(6) 0.55962(10) 0.74910(16)
C9? C 0.08177(16) 0.14459(10) -0.1586(4)
H10? H 0.065664 0.114586 -0.036048
H11? H 0.068151 0.104998 -0.264314
H12? H 0.051657 0.174850 -0.175770
C10? C 0.17596(15) 0.20653(10) -0.1581(3)
H13? H 0.195034 0.222051 -0.023743
H14? H 0.205282 0.179241 -0.213385
C11? C 0.19871(12) 0.28520(12) -0.2733(2)
H15? H 0.259669 0.322219 -0.276325
H16? H 0.178286 0.270882 -0.407180
loop_
_geom_bond_atom_site_label_1
_geom_bond_atom_site_label_2
_geom_bond_site_symmetry_1
_geom_bond_site_symmetry_2
Cu1 O2 1_555 1_555
C1 H1 1_555 1_555
H2 C1 1_555 1_555
H3 C1 1_555 1_555
C2 C1 1_555 1_555
H4 C2 1_555 1_555
H5 C2 1_555 1_555
C3 C2 1_555 1_555
H6 C3 1_555 1_555
H7 C3 1_555 1_555
C4 C5 1_555 1_555
C5 H8 1_555 1_555
C6 C5 1_555 1_555
C7 C6 1_555 1_555
H9 C7 1_555 1_555
C8 C6 1_555 1_555
O1 C3 1_555 1_555
O2 C8 1_555 1_555
O3 C8 1_555 1_555
O4 Cu1 1_555 1_555
H1J C1 1_555 1_555
H2J C1 1_555 1_555
H3J C1 1_555 1_555
C2J C1 1_555 1_555
H4J C2 1_555 1_555
H5J C2J 1_555 1_555
C3J O1 1_555 1_555
H6J C3J 1_555 1_555
H7J C3J 1_555 1_555
C5J C4 1_555 1_555
H8J C5J 1_555 1_555
C6J C7 1_555 1_555
C8J C6J 1_555 1_555
O2J C8J 1_555 1_555
O3J C8J 1_555 1_555
Cu1B O2J 1_555 1_555
Cu1C Cu1 1_555 1_555
Cu1D O3J 1_555 1_555
O2I Cu1 1_555 1_555
O3C Cu1 1_555 1_555
O3F Cu1 1_555 1_555
H2 C2J 1_555 1_555
C2 H2J 1_555 1_555
C2 C2J 1_555 1_555
H4 C2J 1_555 1_555
C4 O1 1_555 1_555
O3 Cu1C 1_555 1_555
C2J H4J 1_555 1_555
C2J C3J 1_555 1_555
C5J C6J 1_555 1_555
Cu1B Cu1D 1_555 1_555

#END
