
#######################################################################
#
#                 Cambridge Crystallographic Data Centre
#                                CCDC 
#
#######################################################################
#
# If this CIF has been generated from an entry in the Cambridge 
# Structural Database, then it will include bibliographic, chemical, 
# crystal, experimental, refinement or atomic coordinate data resulting 
# from the CCDC's data processing and validation procedures.
#
#######################################################################

data_GEWPEG
_chemical_formula_moiety         'C312 H372 Cu24 N12 O144,6(C4 H9 N1 O1)'
_chemical_name_systematic        
'tetracosakis(\m-5-n-propylisophthalato)-dodeca-aqua-dodecakis(dimethylacetamide)-tetracosa-copper dimethylacetamide solvate'
_symmetry_cell_setting           triclinic
_symmetry_space_group_name_H-M   'P -1'
_symmetry_Int_Tables_number      2
_space_group_name_Hall           '-P 1'
loop_
_symmetry_equiv_pos_site_id
_symmetry_equiv_pos_as_xyz
1 x,y,z
2 -x,-y,-z
_cell_length_a                   25.4877(8)
_cell_length_b                   25.7261(8)
_cell_length_c                   25.8744(8)
_cell_angle_alpha                71.2054(18)
_cell_angle_beta                 61.6771(17)
_cell_angle_gamma                61.2609(16)
_cell_volume                     12997.5
_exptl_crystal_colour            green
_exptl_crystal_description       needle
_cell_formula_units_Z            2
loop_
_atom_site_label
_atom_site_type_symbol
_atom_site_fract_x
_atom_site_fract_y
_atom_site_fract_z
Cu1 Cu 0.55297(10) 0.34927(8) 0.25154(10)
Cu2 Cu 0.58286(11) 0.29397(9) 0.16543(10)
Cu3 Cu 0.38210(8) 0.69694(7) 0.23122(8)
Cu4 Cu 0.34448(8) 0.76131(7) 0.14328(8)
Cu5 Cu 0.31412(8) 0.84924(7) 0.48741(8)
Cu6 Cu 0.25443(8) 0.96589(7) 0.48841(9)
Cu7 Cu 0.11838(8) 0.65458(7) 0.55713(8)
Cu8 Cu -0.00592(8) 0.70614(7) 0.57569(8)
Cu9 Cu 0.23868(9) 0.44874(9) 0.81594(8)
Cu10 Cu 0.15319(9) 0.43931(10) 0.92435(9)
Cu11 Cu 0.29764(9) 0.30350(7) 0.57120(10)
Cu12 Cu 0.23626(9) 0.23554(8) 0.59089(11)
O1 O 0.4821(5) 0.3215(4) 0.2905(4)
O2 O 0.5095(5) 0.2688(4) 0.2210(5)
O3 O 0.3305(4) 0.2925(4) 0.4878(5)
O4 O 0.2706(4) 0.2414(4) 0.5052(5)
C1 C 0.4762(8) 0.2879(6) 0.2690(7)
C2 C 0.4233(8) 0.2642(6) 0.3121(8)
C3 C 0.4077(8) 0.2300(6) 0.2940(8)
H1 H 0.430324 0.220025 0.254714
C4 C 0.3593(8) 0.2108(7) 0.3337(8)
C5 C 0.3283(8) 0.2199(6) 0.3904(8)
H2 H 0.297380 0.203141 0.417063
C6 C 0.3431(7) 0.2558(6) 0.4104(8)
C7 C 0.3903(7) 0.2769(6) 0.3688(7)
H3 H 0.399967 0.301500 0.380667
C8 C 0.3118(7) 0.2622(6) 0.4731(8)
O5 O 0.3493(5) 0.1736(5) 0.3117(5)
C9 C 0.3065(9) 0.1422(7) 0.3556(8)
H4 H 0.261248 0.171438 0.371314
H5 H 0.320688 0.120687 0.388988
C10 C 0.3108(8) 0.0977(7) 0.3242(9)
H6 H 0.280371 0.078266 0.351752
H7 H 0.298439 0.119286 0.289797
C11 C 0.3778(9) 0.0519(8) 0.3041(9)
H8 H 0.378957 0.020648 0.289274
H9 H 0.391905 0.034227 0.337381
H10 H 0.406841 0.070477 0.272467
O6 O 0.5040(4) 0.4186(4) 0.2081(4)
O7 O 0.5235(5) 0.3693(4) 0.1389(4)
O8 O 0.3933(4) 0.6319(3) 0.1967(4)
O9 O 0.3678(4) 0.6863(4) 0.1188(4)
C12 C 0.4987(7) 0.4159(6) 0.1624(7)
C13 C 0.4594(7) 0.4736(6) 0.1361(6)
C14 C 0.4467(6) 0.4736(6) 0.0887(6)
H11 H 0.461333 0.437201 0.074597
C15 C 0.4129(7) 0.5269(6) 0.0632(6)
C16 C 0.3923(6) 0.5802(6) 0.0825(6)
H12 H 0.368917 0.616746 0.064316
C17 C 0.4058(6) 0.5808(6) 0.1291(6)
C18 C 0.4380(6) 0.5269(6) 0.1563(6)
H13 H 0.445509 0.526461 0.189052
C19 C 0.3880(6) 0.6383(6) 0.1492(6)
O10 O 0.3964(4) 0.5327(4) 0.0183(4)
C20 C 0.4121(7) 0.4790(6) -0.0017(7)
H14 H 0.394882 0.452016 0.032223
H15 H 0.459750 0.457910 -0.020207
C21 C 0.3829(7) 0.4954(6) -0.0454(7)
H16 H 0.401458 0.521101 -0.079962
H17 H 0.335506 0.518030 -0.027305
C22 C 0.3967(7) 0.4383(6) -0.0655(7)
H18 H 0.385341 0.449020 -0.099880
H19 H 0.370744 0.417150 -0.033185
H20 H 0.442855 0.412293 -0.076263
O11 O 0.6261(5) 0.3701(4) 0.2030(5)
O12 O 0.6492(5) 0.3284(4) 0.1255(5)
O13 O 0.7530(5) 0.4895(5) 0.1630(5)
O14 O 0.8281(6) 0.4955(5) 0.0714(5)
C23 C 0.6593(8) 0.3586(7) 0.1507(8)
C24 C 0.7139(5) 0.3780(5) 0.1135(5)
C25 C 0.7504(6) 0.3610(5) 0.0569(5)
H21 H 0.742155 0.335395 0.044860
C26 C 0.7990(6) 0.3815(5) 0.0178(4)
C27 C 0.8111(5) 0.4191(5) 0.0353(5)
H22 H 0.844290 0.433081 0.008599
C28 C 0.7745(6) 0.4361(5) 0.0919(5)
C29 C 0.7259(5) 0.4155(5) 0.1310(4)
H23 H 0.700951 0.427155 0.169739
C30 C 0.7849(9) 0.4759(8) 0.1116(9)
O15 O 0.8314(7) 0.3721(6) -0.0409(6)
C31 C 0.8086(10) 0.3516(10) -0.0700(8)
H24 H 0.761453 0.375239 -0.058929
H25 H 0.814831 0.309470 -0.053944
C32 C 0.8397(10) 0.3553(10) -0.1352(8)
H26 H 0.878145 0.317636 -0.146135
H27 H 0.855203 0.388080 -0.150470
C33 C 0.7949(10) 0.3663(10) -0.1664(9)
H28 H 0.818177 0.371165 -0.209380
H29 H 0.755694 0.402565 -0.154505
H30 H 0.782905 0.332116 -0.154809
O16 O 0.3631(4) 0.7735(3) 0.2498(4)
O17 O 0.3238(4) 0.8301(3) 0.1786(4)
O18 O 0.3222(4) 0.8687(3) 0.4056(4)
O19 O 0.2708(4) 0.9681(3) 0.4051(4)
C34 C 0.3354(6) 0.8218(5) 0.2231(6)
C35 C 0.3137(6) 0.8805(6) 0.2458(6)
C36 C 0.2874(6) 0.9347(6) 0.2175(7)
H31 H 0.284349 0.937991 0.181258
C37 C 0.2647(7) 0.9857(6) 0.2432(7)
C38 C 0.2711(6) 0.9822(6) 0.2935(7)
H32 H 0.258376 1.017415 0.308657
C39 C 0.2966(6) 0.9264(5) 0.3222(6)
C40 C 0.3187(6) 0.8759(6) 0.2993(6)
H33 H 0.337320 0.837878 0.318918
C41 C 0.2964(6) 0.9215(5) 0.3825(6)
O20 O 0.2375(5) 1.0409(4) 0.2127(5)
C42 C 0.1961(8) 1.0952(7) 0.2473(8)
O21 O 0.2921(4) 0.7083(3) 0.2770(4)
O22 O 0.2608(4) 0.7564(3) 0.2021(4)
O23 O 0.1350(4) 0.6786(3) 0.4732(4)
O24 O 0.0302(4) 0.7189(3) 0.4881(4)
C43 C 0.2510(6) 0.7327(5) 0.2543(6)
C44 C 0.1846(6) 0.7342(5) 0.2939(6)
C45 C 0.1390(6) 0.7489(6) 0.2700(6)
H34 H 0.149431 0.759476 0.228658
C46 C 0.0794(6) 0.7475(6) 0.3074(6)
C47 C 0.0608(6) 0.7367(6) 0.3670(6)
H35 H 0.017615 0.740552 0.392169
C48 C 0.1074(6) 0.7197(5) 0.3906(6)
C49 C 0.1677(6) 0.7186(5) 0.3539(6)
H36 H 0.198797 0.706893 0.370169
C50 C 0.0888(6) 0.7046(5) 0.4561(6)
O25 O 0.0394(4) 0.7622(4) 0.2784(4)
C51 C -0.0231(6) 0.7582(7) 0.3147(7)
H37 H -0.052003 0.790994 0.339894
H38 H -0.017821 0.719595 0.340598
C52 C -0.0512(7) 0.7631(8) 0.2719(7)
O26 O 0.4688(4) 0.6924(4) 0.1763(4)
O27 O 0.4370(4) 0.7506(4) 0.1033(4)
O28 O 0.6965(4) 0.6112(4) 0.1501(4)
O29 O 0.7709(4) 0.6189(4) 0.0572(4)
C53 C 0.4795(6) 0.7192(6) 0.1255(6)
C54 C 0.5495(6) 0.7119(6) 0.0857(6)
C55 C 0.5636(7) 0.7408(7) 0.0280(6)
H39 H 0.529843 0.767111 0.014257
C56 C 0.6266(7) 0.7306(8) -0.0082(7)
C57 C 0.6759(7) 0.6954(7) 0.0142(7)
H40 H 0.719890 0.688545 -0.010780
C58 C 0.6595(6) 0.6708(7) 0.0729(6)
C59 C 0.5954(6) 0.6778(6) 0.1100(6)
H41 H 0.584256 0.659966 0.150001
C60 C 0.7130(6) 0.6311(7) 0.0964(6)
O30 O 0.6395(5) 0.7551(5) -0.0650(5)
C61 C 0.7088(8) 0.7399(9) -0.1085(7)
H42 H 0.732200 0.752410 -0.096525
H43 H 0.731572 0.696411 -0.111008
C62 C 0.7046(8) 0.7736(9) -0.1663(8)
H44 H 0.684376 0.817237 -0.164694
H45 H 0.678977 0.762943 -0.177252
C63 C 0.7788(9) 0.7536(10) -0.2129(9)
H46 H 0.805109 0.756956 -0.197181
H47 H 0.781071 0.779441 -0.250510
H48 H 0.795377 0.712037 -0.219301
O31 O 0.3920(4) 0.8634(3) 0.4636(4)
O32 O 0.3408(4) 0.9631(3) 0.4642(4)
O33 O 0.6262(4) 0.7680(4) 0.4234(5)
O34 O 0.6773(4) 0.8262(4) 0.4098(5)
C64 C 0.3907(6) 0.9136(5) 0.4571(6)
C65 C 0.4538(6) 0.9186(5) 0.4416(7)
C66 C 0.4555(6) 0.9744(6) 0.4327(7)
H49 H 0.416961 1.009401 0.436348
C67 C 0.5126(7) 0.9791(6) 0.4187(8)
C68 C 0.5696(7) 0.9277(6) 0.4134(7)
H50 H 0.608787 0.930584 0.404806
C69 C 0.5682(6) 0.8708(5) 0.4210(7)
C70 C 0.5089(6) 0.8683(5) 0.4355(7)
H51 H 0.507244 0.830690 0.441291
C71 C 0.6273(6) 0.8172(6) 0.4194(7)
O35 O 0.5248(5) 1.0282(4) 0.4097(5)
C72 C 0.4704(7) 1.0802(6) 0.4234(8)
H52 H 0.439862 1.075335 0.464710
H53 H 0.447847 1.092361 0.396467
C73 C 0.4966(8) 1.1256(6) 0.4153(8)
H54 H 0.458589 1.163342 0.427130
H55 H 0.516694 1.111626 0.444568
C74 C 0.5401(8) 1.1402(7) 0.3625(9)
H56 H 0.517040 1.169361 0.337162
H57 H 0.571672 1.104224 0.342906
H58 H 0.562674 1.157552 0.369441
O36 O 0.3003(4) 0.8431(3) 0.5689(4)
O37 O 0.2461(4) 0.9429(3) 0.5711(4)
O38 O 0.3899(5) 0.7295(4) 0.7233(4)
O39 O 0.3589(5) 0.7741(4) 0.7994(5)
C75 C 0.2699(6) 0.8901(5) 0.5946(6)
C76 C 0.2668(6) 0.8836(6) 0.6549(7)
C77 C 0.2241(7) 0.9294(6) 0.6897(7)
H59 H 0.194992 0.964480 0.675504
C78 C 0.2229(7) 0.9254(6) 0.7449(7)
C79 C 0.2676(7) 0.8737(6) 0.7643(7)
H60 H 0.268468 0.870954 0.801374
C80 C 0.3093(7) 0.8279(6) 0.7314(7)
C81 C 0.3093(7) 0.8318(6) 0.6767(7)
H61 H 0.338088 0.799357 0.653836
C82 C 0.3565(7) 0.7727(6) 0.7523(7)
O40 O 0.1778(5) 0.9721(4) 0.7762(5)
C83 C 0.1836(8) 0.9741(7) 0.8279(8)
H62 H 0.227234 0.971478 0.818133
H63 H 0.176127 0.940569 0.858539
C84 C 0.1307(9) 1.0350(8) 0.8501(8)
H64 H 0.086800 1.034653 0.868376
H65 H 0.132306 1.068156 0.817483
C85 C 0.1497(9) 1.0405(8) 0.8975(9)
H66 H 0.187775 1.004848 0.900625
H67 H 0.113337 1.043986 0.936049
H68 H 0.159631 1.075991 0.885332
O41 O 0.2240(4) 0.8578(3) 0.5128(4)
O42 O 0.1740(4) 0.9558(3) 0.5137(4)
O43 O 0.1062(4) 0.7348(3) 0.5623(4)
O44 O 0.0007(4) 0.7786(3) 0.5772(4)
C86 C 0.1756(6) 0.9040(5) 0.5204(6)
C87 C 0.1115(6) 0.8991(5) 0.5423(6)
C88 C 0.0528(6) 0.9500(5) 0.5580(6)
H69 H 0.052864 0.988254 0.553064
C89 C -0.0058(6) 0.9423(5) 0.5812(6)
C90 C -0.0042(6) 0.8857(5) 0.5861(6)
H70 H -0.043903 0.880693 0.602106
C91 C 0.0524(6) 0.8381(5) 0.5684(6)
C92 C 0.1111(6) 0.8436(5) 0.5461(6)
H71 H 0.150771 0.810048 0.533542
C93 C 0.0553(5) 0.7782(5) 0.5689(6)
O45 O -0.0666(4) 0.9870(4) 0.5984(4)
C94 C -0.0709(6) 1.0464(5) 0.5947(7)
H72 H -0.050463 1.061937 0.553107
H73 H -0.049194 1.045883 0.618128
C95 C -0.1432(6) 1.0844(6) 0.6200(7)
H74 H -0.163161 1.068207 0.661380
H75 H -0.164472 1.084042 0.596586
C96 C -0.1525(6) 1.1495(6) 0.6175(7)
H76 H -0.144573 1.169290 0.576795
H77 H -0.121789 1.148594 0.630730
H78 H -0.196881 1.171601 0.643408
O46 O 0.1077(4) 0.5849(3) 0.5539(4)
O47 O 0.0013(4) 0.6282(3) 0.5716(4)
O48 O 0.2189(4) 0.3678(4) 0.5648(5)
O49 O 0.1625(4) 0.3131(4) 0.5872(5)
C97 C 0.0561(6) 0.5835(5) 0.5622(6)
C98 C 0.0560(6) 0.5230(6) 0.5663(7)
C99 C 0.0012(7) 0.5192(6) 0.5718(7)
H79 H -0.036427 0.554275 0.571810
C100 C 0.0019(7) 0.4643(6) 0.5770(8)
C101 C 0.0561(6) 0.4130(6) 0.5785(7)
H80 H 0.055582 0.374874 0.583855
C102 C 0.1096(7) 0.4172(6) 0.5724(7)
C103 C 0.1096(6) 0.4730(5) 0.5656(7)
H81 H 0.147613 0.475937 0.560331
C104 C 0.1695(7) 0.3622(5) 0.5750(7)
O50 O -0.0520(5) 0.4603(4) 0.5822(5)
C105 C -0.0654(8) 0.4166(7) 0.5997(9)
O51 O 0.0880(4) 0.6375(4) 0.6419(4)
O52 O -0.0181(4) 0.6800(4) 0.6599(4)
O53 O 0.1624(4) 0.5087(4) 0.7992(4)
O54 O 0.0890(4) 0.4979(5) 0.8914(4)
C106 C 0.0314(6) 0.6506(6) 0.6739(6)
C107 C 0.0192(8) 0.6415(8) 0.7408(6)
C108 C -0.0408(7) 0.6716(7) 0.7824(7)
H82 H -0.073770 0.703059 0.769806
C109 C -0.0526(6) 0.6557(8) 0.8423(7)
C110 C -0.0043(8) 0.6096(8) 0.8607(6)
H83 H -0.012355 0.598742 0.901701
C111 C 0.0556(7) 0.5795(7) 0.8191(7)
C112 C 0.0674(6) 0.5954(8) 0.7592(7)
H84 H 0.108374 0.574805 0.730775
C113 C 0.1071(7) 0.5167(7) 0.8365(7)
O55 O -0.1112(8) 0.6870(8) 0.8794(8)
C114 C -0.1184(10) 0.6920(12) 0.9349(10)
H85 H -0.145688 0.671091 0.966624
H86 H -0.139475 0.734565 0.941272
C115 C -0.0525(11) 0.6645(11) 0.9362(11)
H87 H -0.047361 0.690573 0.952913
H88 H -0.018970 0.658835 0.895605
C116 C -0.0453(13) 0.6047(10) 0.9744(12)
H89 H -0.002283 0.585309 0.976149
H90 H -0.078650 0.610904 1.014393
O56 O 0.2520(4) 0.2974(4) 0.6584(5)
O57 O 0.2049(4) 0.2350(4) 0.6754(5)
O58 O 0.2197(4) 0.3853(4) 0.8111(4)
O59 O 0.1479(4) 0.3749(5) 0.9039(4)
C117 C 0.2179(7) 0.2675(6) 0.6931(8)
C118 C 0.1897(5) 0.2724(4) 0.7573(4)
C119 C 0.1987(4) 0.3120(4) 0.7752(4)
H91 H 0.225177 0.332808 0.747028
C120 C 0.1690(5) 0.3211(4) 0.8344(5)
C121 C 0.1303(5) 0.2906(5) 0.8756(4)
H92 H 0.109990 0.296854 0.916079
C122 C 0.1213(5) 0.2511(5) 0.8577(4)
C123 C 0.1510(5) 0.2420(4) 0.7986(5)
H93 H 0.144834 0.214958 0.786332
C124 C 0.1804(7) 0.3652(7) 0.8520(7)
O60 O 0.0827(6) 0.2209(6) 0.8982(6)
O61 O 0.2201(4) 0.6157(7) 0.5384(5)
O62 O 0.6176(7) 0.2456(6) 0.0932(6)
O63 O 0.3193(4) 0.8173(4) 0.0697(4)
O64 O 0.3359(6) 0.3608(5) 0.5741(6)
O65 O 0.3089(5) 0.4383(6) 0.7236(5)
N1 N 0.4761(7) 0.4194(5) 0.4179(5)
O66 O 0.5253(6) 0.3882(5) 0.3286(4)
C125 C 0.5030(4) 0.3771(4) 0.3837(4)
C126 C 0.5057(9) 0.3151(5) 0.4122(6)
H94 H 0.486384 0.314062 0.455294
H95 H 0.481598 0.304541 0.399764
H96 H 0.551011 0.286479 0.399924
C127 C 0.4737(11) 0.4762(9) 0.3932(9)
H97 H 0.452348 0.501415 0.424656
H98 H 0.517907 0.474577 0.369662
H99 H 0.449270 0.493057 0.367617
C128 C 0.4336(11) 0.4191(10) 0.4837(9)
H100 H 0.421000 0.456786 0.496395
H101 H 0.394587 0.414399 0.490856
H102 H 0.457746 0.385750 0.506029
N2 N 0.5242(4) 0.5681(4) 0.2625(5)
O67 O 0.4225(3) 0.6360(4) 0.2978(4)
C129 C 0.4815(3) 0.6184(3) 0.2864(3)
C130 C 0.5050(5) 0.6550(5) 0.2989(7)
H103 H 0.552152 0.635000 0.287425
H104 H 0.494228 0.694655 0.276161
H105 H 0.484076 0.659021 0.341213
C131 C 0.5065(8) 0.5358(7) 0.2441(8)
H106 H 0.544552 0.500291 0.227826
H107 H 0.473240 0.523419 0.277979
H108 H 0.489140 0.560800 0.213680
C132 C 0.5948(7) 0.5452(8) 0.2482(8)
H109 H 0.617259 0.507696 0.231056
H110 H 0.611840 0.574700 0.219813
H111 H 0.601712 0.538138 0.284487
N3 N 0.3762(7) 0.6614(3) 0.4775(7)
O68 O 0.3545(5) 0.7553(3) 0.4833(6)
C133 C 0.3463(4) 0.7201(3) 0.4667(4)
C134 C 0.3011(7) 0.7443(5) 0.4348(8)
H112 H 0.300264 0.710994 0.425009
H113 H 0.257345 0.768097 0.460330
H114 H 0.316379 0.769427 0.398358
C135 C 0.4182(9) 0.6393(8) 0.5072(11)
H115 H 0.436579 0.595556 0.511913
H116 H 0.453280 0.653654 0.484148
H117 H 0.394037 0.653357 0.546209
C136 C 0.3721(9) 0.6203(7) 0.4545(10)
H118 H 0.397354 0.579309 0.467323
H119 H 0.326684 0.626018 0.469330
H120 H 0.389469 0.627457 0.411214
N4 N 0.1003(3) 1.1004(4) 0.5495(4)
O69 O 0.2065(3) 1.0597(3) 0.4942(4)
C137 C 0.1491(3) 1.0849(2) 0.4982(3)
C138 C 0.1345(5) 1.0990(5) 0.4440(4)
H121 H 0.087442 1.118584 0.454766
H122 H 0.154972 1.125649 0.414180
H123 H 0.151449 1.061885 0.427907
C139 C 0.1128(7) 1.0845(6) 0.6028(8)
H124 H 0.071717 1.099228 0.636302
H125 H 0.133649 1.040918 0.610255
H126 H 0.141368 1.102465 0.597858
C140 C 0.0313(7) 1.1315(6) 0.5566(8)
H127 H 0.003812 1.138507 0.597995
H128 H 0.024878 1.169884 0.531249
H129 H 0.019778 1.106796 0.545301
N5 N -0.1582(5) 0.6898(5) 0.6019(5)
O70 O -0.1075(4) 0.7483(4) 0.5849(5)
C141 C -0.1274(3) 0.7253(3) 0.5659(4)
C142 C -0.1174(7) 0.7385(6) 0.5015(4)
H130 H -0.135740 0.717093 0.494032
H131 H -0.139044 0.781536 0.491509
H132 H -0.070894 0.725424 0.477029
C143 C -0.1624(8) 0.6801(9) 0.6614(9)
H133 H -0.185431 0.653793 0.686006
H134 H -0.118602 0.661527 0.661372
H135 H -0.185920 0.718482 0.677268
C144 C -0.1715(8) 0.6584(8) 0.5726(9)
H136 H -0.194220 0.633505 0.602688
H137 H -0.198503 0.688001 0.550757
H138 H -0.130400 0.633187 0.545110
N6 N 0.2781(8) 0.0798(7) 0.5764(8)
O71 O 0.2016(9) 0.1670(5) 0.6098(8)
C145 C 0.2379(6) 0.1141(5) 0.6197(6)
C146 C 0.2369(12) 0.0888(8) 0.6813(7)
H139 H 0.267895 0.047106 0.681346
H140 H 0.248777 0.112082 0.694128
H141 H 0.193221 0.090761 0.708459
C147 C 0.2914(14) 0.0974(11) 0.5226(14)
H142 H 0.322238 0.063357 0.499968
H143 H 0.251664 0.116215 0.514782
H144 H 0.310655 0.126535 0.510802
C148 C 0.3216(12) 0.0144(13) 0.5910(17)
H145 H 0.307955 0.004170 0.634014
H146 H 0.317518 -0.012432 0.574743
H147 H 0.366882 0.009917 0.573527
O72 O 0.0907(7) 0.4561(8) 1.0169(6)
Cu1A Cu 0.44703(10) 0.65073(8) 0.74846(10)
Cu2A Cu 0.41714(11) 0.70603(9) 0.83457(10)
Cu3A Cu 0.61790(8) 0.30306(7) 0.76878(8)
Cu4A Cu 0.65552(8) 0.23869(7) 0.85672(8)
Cu5A Cu 0.68588(8) 0.15076(7) 0.51259(8)
Cu6A Cu 0.74557(8) 0.03411(7) 0.51159(9)
Cu7A Cu 0.88162(8) 0.34542(7) 0.44287(8)
Cu8A Cu 1.00592(8) 0.29386(7) 0.42431(8)
Cu9A Cu 0.76132(9) 0.55126(9) 0.18406(8)
Cu10A Cu 0.84681(9) 0.56069(10) 0.07565(9)
Cu11A Cu 0.70236(9) 0.69650(7) 0.42880(10)
Cu12A Cu 0.76374(9) 0.76446(8) 0.40911(11)
O1A O 0.5179(5) 0.6785(4) 0.7095(4)
O2A O 0.4905(5) 0.7312(4) 0.7790(5)
O3A O 0.6695(4) 0.7075(4) 0.5122(5)
O4A O 0.7294(4) 0.7586(4) 0.4948(5)
C1A C 0.5238(8) 0.7121(6) 0.7310(7)
C2A C 0.5767(8) 0.7358(6) 0.6879(8)
C3A C 0.5923(8) 0.7700(6) 0.7060(8)
H1A H 0.569676 0.779975 0.745286
C4A C 0.6407(8) 0.7892(7) 0.6663(8)
C5A C 0.6717(8) 0.7801(6) 0.6096(8)
H2A H 0.702620 0.796859 0.582937
C6A C 0.6569(7) 0.7442(6) 0.5896(8)
C7A C 0.6097(7) 0.7231(6) 0.6312(7)
H3A H 0.600033 0.698500 0.619333
C8A C 0.6882(7) 0.7378(6) 0.5269(8)
O5A O 0.6507(5) 0.8264(5) 0.6883(5)
C9A C 0.6935(9) 0.8578(7) 0.6444(8)
H4A H 0.738752 0.828562 0.628686
H5A H 0.679312 0.879313 0.611012
C10A C 0.6892(8) 0.9023(7) 0.6758(9)
H6A H 0.719629 0.921734 0.648248
H7A H 0.701561 0.880714 0.710203
C11A C 0.6222(9) 0.9481(8) 0.6959(9)
H8A H 0.621043 0.979352 0.710726
H9A H 0.608095 0.965773 0.662619
H10A H 0.593159 0.929523 0.727533
O6A O 0.4960(4) 0.5814(4) 0.7919(4)
O7A O 0.4765(5) 0.6307(4) 0.8611(4)
O8A O 0.6067(4) 0.3681(3) 0.8033(4)
O9A O 0.6322(4) 0.3137(4) 0.8812(4)
C12A C 0.5013(7) 0.5841(6) 0.8376(7)
C13A C 0.5406(7) 0.5264(6) 0.8639(6)
C14A C 0.5533(6) 0.5264(6) 0.9113(6)
H11A H 0.538667 0.562799 0.925403
C15A C 0.5871(7) 0.4731(6) 0.9368(6)
C16A C 0.6077(6) 0.4198(6) 0.9175(6)
H12A H 0.631083 0.383254 0.935684
C17A C 0.5942(6) 0.4192(6) 0.8709(6)
C18A C 0.5620(6) 0.4731(6) 0.8437(6)
H13A H 0.554491 0.473539 0.810948
C19A C 0.6120(6) 0.3617(6) 0.8508(6)
O10A O 0.6036(4) 0.4673(4) 0.9817(4)
C20A C 0.5879(7) 0.5210(6) 1.0017(7)
H14A H 0.605118 0.547984 0.967777
H15A H 0.540250 0.542090 1.020207
C21A C 0.6171(7) 0.5046(6) 1.0454(7)
H16A H 0.598542 0.478899 1.079962
H17A H 0.664494 0.481970 1.027305
C22A C 0.6033(7) 0.5617(6) 1.0655(7)
H18A H 0.614659 0.550980 1.099880
H19A H 0.629256 0.582850 1.033185
H20A H 0.557145 0.587707 1.076263
O11A O 0.3739(5) 0.6299(4) 0.7970(5)
O12A O 0.3508(5) 0.6716(4) 0.8745(5)
O13A O 0.2470(5) 0.5105(5) 0.8370(5)
O14A O 0.1719(6) 0.5045(5) 0.9286(5)
C23A C 0.3407(8) 0.6414(7) 0.8493(8)
C24A C 0.2861(5) 0.6220(5) 0.8865(5)
C25A C 0.2496(6) 0.6390(5) 0.9431(5)
H21A H 0.257845 0.664605 0.955140
C26A C 0.2010(6) 0.6185(5) 0.9822(4)
C27A C 0.1889(5) 0.5809(5) 0.9647(5)
H22A H 0.155710 0.566919 0.991401
C28A C 0.2255(6) 0.5639(5) 0.9081(5)
C29A C 0.2741(5) 0.5845(5) 0.8690(4)
H23A H 0.299049 0.572845 0.830261
C30A C 0.2151(9) 0.5241(8) 0.8884(9)
O15A O 0.1686(7) 0.6279(6) 1.0409(6)
C31A C 0.1914(10) 0.6484(10) 1.0700(8)
H24A H 0.238547 0.624761 1.058929
H25A H 0.185169 0.690530 1.053944
C32A C 0.1603(10) 0.6447(10) 1.1352(8)
H26A H 0.121855 0.682364 1.146135
H27A H 0.144797 0.611920 1.150470
C33A C 0.2051(10) 0.6337(10) 1.1664(9)
H28A H 0.181823 0.628835 1.209380
H29A H 0.244306 0.597435 1.154505
H30A H 0.217095 0.667884 1.154809
O16A O 0.6369(4) 0.2265(3) 0.7502(4)
O17A O 0.6762(4) 0.1699(3) 0.8214(4)
O18A O 0.6778(4) 0.1313(3) 0.5944(4)
O19A O 0.7292(4) 0.0319(3) 0.5949(4)
C34A C 0.6646(6) 0.1782(5) 0.7769(6)
C35A C 0.6863(6) 0.1195(6) 0.7542(6)
C36A C 0.7126(6) 0.0653(6) 0.7825(7)
H31A H 0.715651 0.062009 0.818742
C37A C 0.7353(7) 0.0143(6) 0.7568(7)
C38A C 0.7289(6) 0.0178(6) 0.7065(7)
H32A H 0.741624 -0.017415 0.691343
C39A C 0.7034(6) 0.0736(5) 0.6778(6)
C40A C 0.6813(6) 0.1241(6) 0.7007(6)
H33A H 0.662680 0.162122 0.681082
C41A C 0.7036(6) 0.0785(5) 0.6175(6)
O20A O 0.7625(5) -0.0409(4) 0.7873(5)
C42A C 0.8039(8) -0.0952(7) 0.7527(8)
O21A O 0.7079(4) 0.2917(3) 0.7230(4)
O22A O 0.7392(4) 0.2436(3) 0.7979(4)
O23A O 0.8650(4) 0.3214(3) 0.5268(4)
O24A O 0.9698(4) 0.2811(3) 0.5119(4)
C43A C 0.7490(6) 0.2673(5) 0.7457(6)
C44A C 0.8154(6) 0.2658(5) 0.7061(6)
C45A C 0.8610(6) 0.2511(6) 0.7300(6)
H34A H 0.850569 0.240524 0.771342
C46A C 0.9206(6) 0.2525(6) 0.6926(6)
C47A C 0.9392(6) 0.2633(6) 0.6330(6)
H35A H 0.982385 0.259448 0.607831
C48A C 0.8926(6) 0.2803(5) 0.6094(6)
C49A C 0.8323(6) 0.2814(5) 0.6461(6)
H36A H 0.801203 0.293107 0.629831
C50A C 0.9112(6) 0.2954(5) 0.5439(6)
O25A O 0.9606(4) 0.2378(4) 0.7216(4)
C51A C 1.0231(6) 0.2418(7) 0.6853(7)
H37A H 1.052003 0.209006 0.660106
H38A H 1.017821 0.280405 0.659402
C52A C 1.0512(7) 0.2369(8) 0.7281(7)
O26A O 0.5312(4) 0.3076(4) 0.8237(4)
O27A O 0.5630(4) 0.2494(4) 0.8967(4)
O28A O 0.3035(4) 0.3888(4) 0.8499(4)
O29A O 0.2291(4) 0.3811(4) 0.9428(4)
C53A C 0.5205(6) 0.2808(6) 0.8745(6)
C54A C 0.4505(6) 0.2881(6) 0.9143(6)
C55A C 0.4364(7) 0.2592(7) 0.9720(6)
H39A H 0.470157 0.232889 0.985743
C56A C 0.3734(7) 0.2694(8) 1.0082(7)
C57A C 0.3241(7) 0.3046(7) 0.9858(7)
H40A H 0.280110 0.311455 1.010780
C58A C 0.3405(6) 0.3292(7) 0.9271(6)
C59A C 0.4046(6) 0.3222(6) 0.8900(6)
H41A H 0.415744 0.340034 0.849999
C60A C 0.2870(6) 0.3689(7) 0.9036(6)
O30A O 0.3605(5) 0.2449(5) 1.0650(5)
C61A C 0.2912(8) 0.2601(9) 1.1085(7)
H42A H 0.267800 0.247590 1.096525
H43A H 0.268428 0.303589 1.111008
C62A C 0.2954(8) 0.2264(9) 1.1663(8)
H44A H 0.315624 0.182763 1.164694
H45A H 0.321023 0.237057 1.177252
C63A C 0.2212(9) 0.2464(10) 1.2129(9)
H46A H 0.194891 0.243044 1.197181
H47A H 0.218929 0.220559 1.250510
H48A H 0.204623 0.287963 1.219301
O31A O 0.6080(4) 0.1366(3) 0.5364(4)
O32A O 0.6592(4) 0.0369(3) 0.5358(4)
O33A O 0.3738(4) 0.2320(4) 0.5766(5)
O34A O 0.3227(4) 0.1738(4) 0.5902(5)
C64A C 0.6093(6) 0.0864(5) 0.5429(6)
C65A C 0.5462(6) 0.0814(5) 0.5584(7)
C66A C 0.5445(6) 0.0256(6) 0.5673(7)
H49A H 0.583039 -0.009401 0.563652
C67A C 0.4874(7) 0.0209(6) 0.5813(8)
C68A C 0.4304(7) 0.0723(6) 0.5866(7)
H50A H 0.391213 0.069416 0.595194
C69A C 0.4318(6) 0.1292(5) 0.5790(7)
C70A C 0.4911(6) 0.1317(5) 0.5645(7)
H51A H 0.492756 0.169310 0.558709
C71A C 0.3727(6) 0.1828(6) 0.5806(7)
O35A O 0.4752(5) -0.0282(4) 0.5903(5)
C72A C 0.5296(7) -0.0802(6) 0.5766(8)
H52A H 0.560138 -0.075335 0.535290
H53A H 0.552153 -0.092361 0.603533
C73A C 0.5034(8) -0.1256(6) 0.5847(8)
H54A H 0.541411 -0.163342 0.572870
H55A H 0.483306 -0.111626 0.555432
C74A C 0.4599(8) -0.1402(7) 0.6375(9)
H56A H 0.482960 -0.169361 0.662838
H57A H 0.428328 -0.104224 0.657094
H58A H 0.437326 -0.157552 0.630559
O36A O 0.6997(4) 0.1569(3) 0.4311(4)
O37A O 0.7539(4) 0.0571(3) 0.4289(4)
O38A O 0.6101(5) 0.2705(4) 0.2767(4)
O39A O 0.6411(5) 0.2259(4) 0.2006(5)
C75A C 0.7301(6) 0.1099(5) 0.4054(6)
C76A C 0.7332(6) 0.1164(6) 0.3451(7)
C77A C 0.7759(7) 0.0706(6) 0.3103(7)
H59A H 0.805008 0.035520 0.324496
C78A C 0.7771(7) 0.0746(6) 0.2551(7)
C79A C 0.7324(7) 0.1263(6) 0.2357(7)
H60A H 0.731532 0.129046 0.198626
C80A C 0.6907(7) 0.1721(6) 0.2686(7)
C81A C 0.6907(7) 0.1682(6) 0.3233(7)
H61A H 0.661912 0.200643 0.346164
C82A C 0.6435(7) 0.2273(6) 0.2477(7)
O40A O 0.8222(5) 0.0279(4) 0.2238(5)
C83A C 0.8164(8) 0.0259(7) 0.1721(8)
H62A H 0.772766 0.028522 0.181867
H63A H 0.823873 0.059431 0.141461
C84A C 0.8693(9) -0.0350(8) 0.1499(8)
H64A H 0.913200 -0.034653 0.131624
H65A H 0.867694 -0.068156 0.182517
C85A C 0.8503(9) -0.0405(8) 0.1025(9)
H66A H 0.812225 -0.004848 0.099375
H67A H 0.886663 -0.043986 0.063951
H68A H 0.840369 -0.075991 0.114668
O41A O 0.7760(4) 0.1422(3) 0.4872(4)
O42A O 0.8260(4) 0.0442(3) 0.4863(4)
O43A O 0.8938(4) 0.2652(3) 0.4377(4)
O44A O 0.9993(4) 0.2214(3) 0.4228(4)
C86A C 0.8244(6) 0.0960(5) 0.4796(6)
C87A C 0.8885(6) 0.1009(5) 0.4577(6)
C88A C 0.9472(6) 0.0500(5) 0.4420(6)
H69A H 0.947136 0.011746 0.446936
C89A C 1.0058(6) 0.0577(5) 0.4188(6)
C90A C 1.0042(6) 0.1143(5) 0.4139(6)
H70A H 1.043903 0.119307 0.397894
C91A C 0.9476(6) 0.1619(5) 0.4316(6)
C92A C 0.8889(6) 0.1564(5) 0.4539(6)
H71A H 0.849229 0.189952 0.466458
C93A C 0.9447(5) 0.2218(5) 0.4311(6)
O45A O 1.0666(4) 0.0130(4) 0.4016(4)
C94A C 1.0709(6) -0.0464(5) 0.4053(7)
H72A H 1.050463 -0.061937 0.446893
H73A H 1.049194 -0.045883 0.381872
C95A C 1.1432(6) -0.0844(6) 0.3800(7)
H74A H 1.163161 -0.068207 0.338620
H75A H 1.164472 -0.084042 0.403414
C96A C 1.1525(6) -0.1495(6) 0.3825(7)
H76A H 1.144573 -0.169290 0.423205
H77A H 1.121789 -0.148594 0.369270
H78A H 1.196881 -0.171601 0.356592
O46A O 0.8923(4) 0.4151(3) 0.4461(4)
O47A O 0.9987(4) 0.3718(3) 0.4284(4)
O48A O 0.7811(4) 0.6322(4) 0.4352(5)
O49A O 0.8375(4) 0.6869(4) 0.4128(5)
C97A C 0.9439(6) 0.4165(5) 0.4378(6)
C98A C 0.9440(6) 0.4770(6) 0.4337(7)
C99A C 0.9988(7) 0.4808(6) 0.4282(7)
H79A H 1.036427 0.445725 0.428190
C100A C 0.9981(7) 0.5357(6) 0.4230(8)
C101A C 0.9439(6) 0.5870(6) 0.4215(7)
H80A H 0.944418 0.625126 0.416145
C102A C 0.8904(7) 0.5828(6) 0.4276(7)
C103A C 0.8904(6) 0.5270(5) 0.4344(7)
H81A H 0.852387 0.524063 0.439669
C104A C 0.8305(7) 0.6378(5) 0.4250(7)
O50A O 1.0520(5) 0.5397(4) 0.4178(5)
C105A C 1.0654(8) 0.5834(7) 0.4003(9)
O51A O 0.9120(4) 0.3625(4) 0.3581(4)
O52A O 1.0181(4) 0.3200(4) 0.3401(4)
O53A O 0.8376(4) 0.4913(4) 0.2008(4)
O54A O 0.9110(4) 0.5021(5) 0.1086(4)
C106A C 0.9686(6) 0.3494(6) 0.3261(6)
C107A C 0.9808(8) 0.3585(8) 0.2592(6)
C108A C 1.0408(7) 0.3284(7) 0.2176(7)
H82A H 1.073770 0.296941 0.230194
C109A C 1.0526(6) 0.3443(8) 0.1577(7)
C110A C 1.0043(8) 0.3904(8) 0.1393(6)
H83A H 1.012355 0.401258 0.098299
C111A C 0.9444(7) 0.4205(7) 0.1809(7)
C112A C 0.9326(6) 0.4046(8) 0.2408(7)
H84A H 0.891626 0.425195 0.269225
C113A C 0.8929(7) 0.4833(7) 0.1635(7)
O55A O 1.1112(8) 0.3130(8) 0.1206(8)
C114A C 1.1184(10) 0.3080(12) 0.0651(10)
H85A H 1.145688 0.328909 0.033376
H86A H 1.139475 0.265435 0.058728
C115A C 1.0525(11) 0.3355(11) 0.0638(11)
H87A H 1.047361 0.309427 0.047087
H88A H 1.018970 0.341165 0.104395
C116A C 1.0453(13) 0.3953(10) 0.0256(12)
H89A H 1.002283 0.414691 0.023851
H90A H 1.078650 0.389096 -0.014393
O56A O 0.7480(4) 0.7026(4) 0.3416(5)
O57A O 0.7951(4) 0.7650(4) 0.3246(5)
O58A O 0.7803(4) 0.6147(4) 0.1889(4)
O59A O 0.8521(4) 0.6251(5) 0.0961(4)
C117A C 0.7821(7) 0.7325(6) 0.3069(8)
C118A C 0.8103(5) 0.7276(4) 0.2427(4)
C119A C 0.8013(4) 0.6880(4) 0.2248(4)
H91A H 0.774823 0.667192 0.252972
C120A C 0.8310(5) 0.6789(4) 0.1656(5)
C121A C 0.8697(5) 0.7094(5) 0.1244(4)
H92A H 0.890010 0.703146 0.083921
C122A C 0.8787(5) 0.7489(5) 0.1423(4)
C123A C 0.8490(5) 0.7580(4) 0.2014(5)
H93A H 0.855166 0.785042 0.213668
C124A C 0.8196(7) 0.6348(7) 0.1480(7)
O60A O 0.9173(6) 0.7791(6) 0.1018(6)
O61A O 0.7799(4) 0.3843(7) 0.4616(5)
O62A O 0.3824(7) 0.7544(6) 0.9068(6)
O63A O 0.6807(4) 0.1827(4) 0.9303(4)
O64A O 0.6641(6) 0.6392(5) 0.4259(6)
O65A O 0.6911(5) 0.5617(6) 0.2764(5)
N1A N 0.5239(7) 0.5806(5) 0.5821(5)
O66A O 0.4747(6) 0.6118(5) 0.6714(4)
C125A C 0.4970(4) 0.6229(4) 0.6163(4)
C126A C 0.4943(9) 0.6849(5) 0.5878(6)
H94A H 0.513616 0.685938 0.544706
H95A H 0.518402 0.695459 0.600236
H96A H 0.448989 0.713521 0.600076
C127A C 0.5263(11) 0.5238(9) 0.6068(9)
H97A H 0.547652 0.498585 0.575344
H98A H 0.482093 0.525423 0.630338
H99A H 0.550730 0.506943 0.632383
C128A C 0.5664(11) 0.5809(10) 0.5163(9)
H100A H 0.579000 0.543214 0.503605
H101A H 0.605413 0.585601 0.509144
H102A H 0.542254 0.614250 0.493971
N2A N 0.4758(4) 0.4319(4) 0.7375(5)
O67A O 0.5775(3) 0.3640(4) 0.7022(4)
C129A C 0.5185(3) 0.3816(3) 0.7136(3)
C130A C 0.4950(5) 0.3450(5) 0.7011(7)
H103A H 0.447848 0.365000 0.712575
H104A H 0.505772 0.305345 0.723839
H105A H 0.515924 0.340979 0.658787
C131A C 0.4935(8) 0.4642(7) 0.7559(8)
H106A H 0.455448 0.499709 0.772174
H107A H 0.526760 0.476581 0.722021
H108A H 0.510860 0.439200 0.786320
C132A C 0.4052(7) 0.4548(8) 0.7518(8)
H109A H 0.382741 0.492304 0.768944
H110A H 0.388160 0.425300 0.780187
H111A H 0.398288 0.461862 0.715513
N3A N 0.6238(7) 0.3386(3) 0.5225(7)
O68A O 0.6455(5) 0.2447(3) 0.5167(6)
C133A C 0.6537(4) 0.2799(3) 0.5333(4)
C134A C 0.6989(7) 0.2557(5) 0.5652(8)
H112A H 0.699736 0.289006 0.574991
H113A H 0.742655 0.231903 0.539670
H114A H 0.683621 0.230573 0.601642
C135A C 0.5818(9) 0.3607(8) 0.4928(11)
H115A H 0.563421 0.404444 0.488087
H116A H 0.546720 0.346346 0.515852
H117A H 0.605963 0.346643 0.453791
C136A C 0.6279(9) 0.3797(7) 0.5455(10)
H118A H 0.602646 0.420691 0.532677
H119A H 0.673316 0.373982 0.530670
H120A H 0.610531 0.372543 0.588786
N4A N 0.8997(3) -0.1004(4) 0.4505(4)
O69A O 0.7935(3) -0.0597(3) 0.5058(4)
C137A C 0.8509(3) -0.0849(2) 0.5018(3)
C138A C 0.8655(5) -0.0990(5) 0.5560(4)
H121A H 0.912558 -0.118584 0.545234
H122A H 0.845028 -0.125649 0.585820
H123A H 0.848551 -0.061885 0.572093
C139A C 0.8872(7) -0.0845(6) 0.3972(8)
H124A H 0.928283 -0.099228 0.363698
H125A H 0.866351 -0.040918 0.389745
H126A H 0.858632 -0.102465 0.402142
C140A C 0.9687(7) -0.1315(6) 0.4434(8)
H127A H 0.996188 -0.138507 0.402005
H128A H 0.975122 -0.169884 0.468751
H129A H 0.980222 -0.106796 0.454699
N5A N 1.1582(5) 0.3102(5) 0.3981(5)
O70A O 1.1075(4) 0.2517(4) 0.4151(5)
C141A C 1.1274(3) 0.2747(3) 0.4341(4)
C142A C 1.1174(7) 0.2615(6) 0.4985(4)
H130A H 1.135740 0.282907 0.505968
H131A H 1.139044 0.218464 0.508491
H132A H 1.070894 0.274576 0.522971
C143A C 1.1624(8) 0.3199(9) 0.3386(9)
H133A H 1.185431 0.346207 0.313994
H134A H 1.118602 0.338473 0.338628
H135A H 1.185920 0.281518 0.322732
C144A C 1.1715(8) 0.3416(8) 0.4274(9)
H136A H 1.194220 0.366495 0.397312
H137A H 1.198503 0.311999 0.449243
H138A H 1.130400 0.366813 0.454890
N6A N 0.7219(8) 0.9202(7) 0.4236(8)
O71A O 0.7984(9) 0.8330(5) 0.3902(8)
C145A C 0.7621(6) 0.8859(5) 0.3803(6)
C146A C 0.7631(12) 0.9112(8) 0.3187(7)
H139A H 0.732105 0.952894 0.318654
H140A H 0.751223 0.887918 0.305872
H141A H 0.806779 0.909239 0.291541
C147A C 0.7086(14) 0.9026(11) 0.4774(14)
H142A H 0.677762 0.936643 0.500032
H143A H 0.748336 0.883785 0.485218
H144A H 0.689345 0.873465 0.489198
C148A C 0.6784(12) 0.9856(13) 0.4090(17)
H145A H 0.692045 0.995830 0.365986
H146A H 0.682482 1.012432 0.425257
H147A H 0.633118 0.990083 0.426473
O72A O 0.9093(7) 0.5439(8) -0.0169(6)
N7 N 0.2907(11) 0.6597(7) 0.6634(10)
O73 O 0.2662(8) 0.6163(5) 0.6201(9)
C149 C 0.2631(6) 0.6626(5) 0.6296(6)
C150 C 0.2282(12) 0.7228(5) 0.6016(12)
H148 H 0.230244 0.754167 0.613433
H149 H 0.249027 0.724102 0.558410
H150 H 0.182827 0.729356 0.614668
C151 C 0.3226(14) 0.6025(11) 0.6887(14)
H151 H 0.340872 0.606225 0.712561
H152 H 0.291535 0.583754 0.713912
H153 H 0.357512 0.577907 0.657204
C152 C 0.2907(13) 0.7103(10) 0.6735(14)
H154 H 0.313604 0.698061 0.699626
H155 H 0.312484 0.730140 0.635690
H156 H 0.245857 0.738026 0.692052
N8 N 0.3210(8) 0.4842(7) 0.3880(7)
O74 O 0.2814(6) 0.5237(7) 0.4710(5)
C153 C 0.3006(4) 0.5296(5) 0.4159(5)
C154 C 0.3000(9) 0.5892(7) 0.3805(7)
H157 H 0.316549 0.586134 0.338368
H158 H 0.255563 0.619422 0.392967
H159 H 0.327591 0.600750 0.387184
C155 C 0.3127(11) 0.4296(12) 0.4299(11)
H160 H 0.328337 0.397540 0.407129
H161 H 0.337596 0.416461 0.454457
H162 H 0.266689 0.439441 0.455256
C156 C 0.3483(11) 0.4936(12) 0.3236(11)
H163 H 0.361517 0.457210 0.308075
H164 H 0.315703 0.526800 0.309420
H165 H 0.386178 0.502985 0.309933
N9 N 0.4608(5) 0.2475(6) 0.6650(7)
O75 O 0.3678(5) 0.3288(5) 0.6777(6)
C157 C 0.4024(4) 0.2815(5) 0.6993(5)
C158 C 0.3780(8) 0.2630(8) 0.7652(5)
H166 H 0.410759 0.225206 0.774593
H167 H 0.369757 0.293891 0.785572
H168 H 0.337774 0.257751 0.778087
C159 C 0.4826(10) 0.2719(10) 0.6026(10)
H169 H 0.525952 0.243957 0.580881
H170 H 0.452341 0.277693 0.586087
H171 H 0.484093 0.310291 0.599030
C160 C 0.5035(10) 0.1908(10) 0.6876(11)
H172 H 0.544032 0.173440 0.654648
H173 H 0.512991 0.198445 0.716332
H174 H 0.481715 0.162945 0.706823
C161? C 0.0118(8) 0.6140(8) 0.7375(6)
C162? C -0.0509(7) 0.6175(8) 0.7733(7)
H175? H -0.084767 0.640991 0.758986
C163? C -0.0642(6) 0.5866(8) 0.8299(7)
C164? C -0.0147(8) 0.5522(8) 0.8508(6)
H176? H -0.023719 0.531108 0.889534
C165? C 0.0480(7) 0.5488(8) 0.8151(8)
C166? C 0.0613(6) 0.5797(9) 0.7584(7)
H177? H 0.104136 0.577317 0.734000
O76? O -0.1287(8) 0.5939(8) 0.8622(8)
C167? C -0.1434(10) 0.5537(10) 0.9144(10)
H178? H -0.178833 0.545253 0.917326
H179? H -0.160086 0.573976 0.948982
C168? C -0.0896(12) 0.4965(10) 0.9185(11)
H180? H -0.053171 0.491621 0.879409
H181? H -0.103837 0.463542 0.928830
C169? C -0.0658(13) 0.4918(13) 0.9644(12)
H182? H -0.029969 0.452950 0.965344
H183? H -0.050643 0.523756 0.953971
H184? H -0.101324 0.495669 1.003407
O77? O -0.0882(8) 0.5874(9) 0.9875(7)
N10? N 0.2664(11) 0.0721(7) 0.6140(10)
O78? O 0.2075(11) 0.1684(7) 0.5924(10)
C170? C 0.2507(7) 0.1193(6) 0.5754(8)
C171? C 0.2851(14) 0.1131(11) 0.5102(8)
H185? H 0.317249 0.072088 0.504465
H186? H 0.253449 0.122218 0.493870
H187? H 0.306901 0.140905 0.489849
C172? C 0.2050(16) 0.0876(13) 0.6814(17)
H188? H 0.214718 0.053666 0.711263
H189? H 0.200722 0.123252 0.691787
H190? H 0.164343 0.094831 0.679808
C173? C 0.3018(16) 0.0140(16) 0.604(2)
H191? H 0.305420 -0.010897 0.640838
H192? H 0.280444 0.001563 0.590049
H193? H 0.345229 0.009551 0.573964
H194? H -0.050379 0.579299 0.957327
loop_
_geom_bond_atom_site_label_1
_geom_bond_atom_site_label_2
_geom_bond_site_symmetry_1
_geom_bond_site_symmetry_2
Cu1 O1 1_555 1_555
Cu2 O2 1_555 1_555
Cu3 O8 1_555 1_555
Cu4 O9 1_555 1_555
Cu5 O18 1_555 1_555
Cu6 O19 1_555 1_555
Cu7 O23 1_555 1_555
Cu8 O24 1_555 1_555
Cu9 O53 1_555 1_555
Cu10 O54 1_555 1_555
Cu11 O3 1_555 1_555
Cu12 O4 1_555 1_555
O1 C1 1_555 1_555
O2 C1 1_555 1_555
O3 C8 1_555 1_555
O4 C8 1_555 1_555
C1 C2 1_555 1_555
C2 C3 1_555 1_555
C3 H1 1_555 1_555
C4 C3 1_555 1_555
C5 C4 1_555 1_555
H2 C5 1_555 1_555
C6 C5 1_555 1_555
C7 C2 1_555 1_555
H3 C7 1_555 1_555
C8 C6 1_555 1_555
O5 C4 1_555 1_555
C9 O5 1_555 1_555
H4 C9 1_555 1_555
H5 C9 1_555 1_555
C10 C9 1_555 1_555
H6 C10 1_555 1_555
H7 C10 1_555 1_555
C11 C10 1_555 1_555
H8 C11 1_555 1_555
H9 C11 1_555 1_555
H10 C11 1_555 1_555
O6 Cu1 1_555 1_555
O7 Cu2 1_555 1_555
O8 C19 1_555 1_555
O9 C19 1_555 1_555
C12 O6 1_555 1_555
C13 C12 1_555 1_555
C14 C13 1_555 1_555
H11 C14 1_555 1_555
C15 C14 1_555 1_555
C16 C15 1_555 1_555
H12 C16 1_555 1_555
C17 C16 1_555 1_555
C18 C13 1_555 1_555
H13 C18 1_555 1_555
C19 C17 1_555 1_555
O10 C15 1_555 1_555
C20 O10 1_555 1_555
H14 C20 1_555 1_555
H15 C20 1_555 1_555
C21 C20 1_555 1_555
H16 C21 1_555 1_555
H17 C21 1_555 1_555
C22 C21 1_555 1_555
H18 C22 1_555 1_555
H19 C22 1_555 1_555
H20 C22 1_555 1_555
O11 Cu1 1_555 1_555
O12 Cu2 1_555 1_555
O13 C30 1_555 1_555
O14 C30 1_555 1_555
C23 O11 1_555 1_555
C24 C23 1_555 1_555
C25 C24 1_555 1_555
H21 C25 1_555 1_555
C26 C25 1_555 1_555
C27 C26 1_555 1_555
H22 C27 1_555 1_555
C28 C27 1_555 1_555
C29 C24 1_555 1_555
H23 C29 1_555 1_555
C30 C28 1_555 1_555
O15 C26 1_555 1_555
C31 O15 1_555 1_555
H24 C31 1_555 1_555
H25 C31 1_555 1_555
C32 C31 1_555 1_555
H26 C32 1_555 1_555
H27 C32 1_555 1_555
C33 C32 1_555 1_555
H28 C33 1_555 1_555
H29 C33 1_555 1_555
H30 C33 1_555 1_555
O16 Cu3 1_555 1_555
O17 Cu4 1_555 1_555
O18 C41 1_555 1_555
O19 C41 1_555 1_555
C34 O16 1_555 1_555
C35 C34 1_555 1_555
C36 C35 1_555 1_555
H31 C36 1_555 1_555
C37 C36 1_555 1_555
C38 C37 1_555 1_555
H32 C38 1_555 1_555
C39 C38 1_555 1_555
C40 C35 1_555 1_555
H33 C40 1_555 1_555
C41 C39 1_555 1_555
O20 C37 1_555 1_555
C42 O20 1_555 1_555
O21 Cu3 1_555 1_555
O22 Cu4 1_555 1_555
O23 C50 1_555 1_555
O24 C50 1_555 1_555
C43 O21 1_555 1_555
C44 C43 1_555 1_555
C45 C44 1_555 1_555
H34 C45 1_555 1_555
C46 C45 1_555 1_555
C47 C46 1_555 1_555
H35 C47 1_555 1_555
C48 C47 1_555 1_555
C49 C44 1_555 1_555
H36 C49 1_555 1_555
C50 C48 1_555 1_555
O25 C46 1_555 1_555
C51 O25 1_555 1_555
H37 C51 1_555 1_555
H38 C51 1_555 1_555
C52 C51 1_555 1_555
O26 Cu3 1_555 1_555
O27 Cu4 1_555 1_555
O28 C60 1_555 1_555
O29 C60 1_555 1_555
C53 O26 1_555 1_555
C54 C53 1_555 1_555
C55 C54 1_555 1_555
H39 C55 1_555 1_555
C56 C55 1_555 1_555
C57 C56 1_555 1_555
H40 C57 1_555 1_555
C58 C57 1_555 1_555
C59 C54 1_555 1_555
H41 C59 1_555 1_555
C60 C58 1_555 1_555
O30 C56 1_555 1_555
C61 O30 1_555 1_555
H42 C61 1_555 1_555
H43 C61 1_555 1_555
C62 C61 1_555 1_555
H44 C62 1_555 1_555
H45 C62 1_555 1_555
C63 C62 1_555 1_555
H46 C63 1_555 1_555
H47 C63 1_555 1_555
H48 C63 1_555 1_555
O31 Cu5 1_555 1_555
O32 Cu6 1_555 1_555
O33 C71 1_555 1_555
O34 C71 1_555 1_555
C64 O31 1_555 1_555
C65 C64 1_555 1_555
C66 C65 1_555 1_555
H49 C66 1_555 1_555
C67 C66 1_555 1_555
C68 C67 1_555 1_555
H50 C68 1_555 1_555
C69 C68 1_555 1_555
C70 C65 1_555 1_555
H51 C70 1_555 1_555
C71 C69 1_555 1_555
O35 C67 1_555 1_555
C72 O35 1_555 1_555
H52 C72 1_555 1_555
H53 C72 1_555 1_555
C73 C72 1_555 1_555
H54 C73 1_555 1_555
H55 C73 1_555 1_555
C74 C73 1_555 1_555
H56 C74 1_555 1_555
H57 C74 1_555 1_555
H58 C74 1_555 1_555
O36 Cu5 1_555 1_555
O37 Cu6 1_555 1_555
O38 C82 1_555 1_555
O39 C82 1_555 1_555
C75 O36 1_555 1_555
C76 C75 1_555 1_555
C77 C76 1_555 1_555
H59 C77 1_555 1_555
C78 C77 1_555 1_555
C79 C78 1_555 1_555
H60 C79 1_555 1_555
C80 C79 1_555 1_555
C81 C76 1_555 1_555
H61 C81 1_555 1_555
C82 C80 1_555 1_555
O40 C78 1_555 1_555
C83 O40 1_555 1_555
H62 C83 1_555 1_555
H63 C83 1_555 1_555
C84 C83 1_555 1_555
H64 C84 1_555 1_555
H65 C84 1_555 1_555
C85 C84 1_555 1_555
H66 C85 1_555 1_555
H67 C85 1_555 1_555
H68 C85 1_555 1_555
O41 Cu5 1_555 1_555
O42 Cu6 1_555 1_555
O43 Cu7 1_555 1_555
O44 Cu8 1_555 1_555
C86 O41 1_555 1_555
C87 C86 1_555 1_555
C88 C87 1_555 1_555
H69 C88 1_555 1_555
C89 C88 1_555 1_555
C90 C89 1_555 1_555
H70 C90 1_555 1_555
C91 C90 1_555 1_555
C92 C87 1_555 1_555
H71 C92 1_555 1_555
C93 O43 1_555 1_555
O45 C89 1_555 1_555
C94 O45 1_555 1_555
H72 C94 1_555 1_555
H73 C94 1_555 1_555
C95 C94 1_555 1_555
H74 C95 1_555 1_555
H75 C95 1_555 1_555
C96 C95 1_555 1_555
H76 C96 1_555 1_555
H77 C96 1_555 1_555
H78 C96 1_555 1_555
O46 Cu7 1_555 1_555
O47 Cu8 1_555 1_555
O48 Cu11 1_555 1_555
O49 Cu12 1_555 1_555
C97 O46 1_555 1_555
C98 C97 1_555 1_555
C99 C98 1_555 1_555
H79 C99 1_555 1_555
C100 C99 1_555 1_555
C101 C100 1_555 1_555
H80 C101 1_555 1_555
C102 C101 1_555 1_555
C103 C98 1_555 1_555
H81 C103 1_555 1_555
C104 O48 1_555 1_555
O50 C100 1_555 1_555
C105 O50 1_555 1_555
O51 Cu7 1_555 1_555
O52 Cu8 1_555 1_555
O53 C113 1_555 1_555
O54 C113 1_555 1_555
C106 O51 1_555 1_555
C107 C106 1_555 1_555
C108 C107 1_555 1_555
H82 C108 1_555 1_555
C109 C108 1_555 1_555
C110 C109 1_555 1_555
H83 C110 1_555 1_555
C111 C110 1_555 1_555
C112 C107 1_555 1_555
H84 C112 1_555 1_555
C113 C111 1_555 1_555
O55 C109 1_555 1_555
C114 O55 1_555 1_555
H85 C114 1_555 1_555
H86 C114 1_555 1_555
C115 C114 1_555 1_555
H87 C115 1_555 1_555
H88 C115 1_555 1_555
C116 C115 1_555 1_555
H89 C116 1_555 1_555
H90 C116 1_555 1_555
O56 Cu11 1_555 1_555
O57 Cu12 1_555 1_555
O58 Cu9 1_555 1_555
O59 Cu10 1_555 1_555
C117 O56 1_555 1_555
C118 C117 1_555 1_555
C119 C118 1_555 1_555
H91 C119 1_555 1_555
C120 C119 1_555 1_555
C121 C120 1_555 1_555
H92 C121 1_555 1_555
C122 C121 1_555 1_555
C123 C118 1_555 1_555
H93 C123 1_555 1_555
C124 O58 1_555 1_555
O60 C122 1_555 1_555
O61 Cu7 1_555 1_555
O62 Cu2 1_555 1_555
O63 Cu4 1_555 1_555
O64 Cu11 1_555 1_555
O65 Cu9 1_555 1_555
N1 C125 1_555 1_555
O66 Cu1 1_555 1_555
C125 O66 1_555 1_555
C126 C125 1_555 1_555
H94 C126 1_555 1_555
H95 C126 1_555 1_555
H96 C126 1_555 1_555
C127 N1 1_555 1_555
H97 C127 1_555 1_555
H98 C127 1_555 1_555
H99 C127 1_555 1_555
C128 N1 1_555 1_555
H100 C128 1_555 1_555
H101 C128 1_555 1_555
H102 C128 1_555 1_555
N2 C129 1_555 1_555
O67 Cu3 1_555 1_555
C129 O67 1_555 1_555
C130 C129 1_555 1_555
H103 C130 1_555 1_555
H104 C130 1_555 1_555
H105 C130 1_555 1_555
C131 N2 1_555 1_555
H106 C131 1_555 1_555
H107 C131 1_555 1_555
H108 C131 1_555 1_555
C132 N2 1_555 1_555
H109 C132 1_555 1_555
H110 C132 1_555 1_555
H111 C132 1_555 1_555
N3 C133 1_555 1_555
O68 Cu5 1_555 1_555
C133 O68 1_555 1_555
C134 C133 1_555 1_555
H112 C134 1_555 1_555
H113 C134 1_555 1_555
H114 C134 1_555 1_555
C135 N3 1_555 1_555
H115 C135 1_555 1_555
H116 C135 1_555 1_555
H117 C135 1_555 1_555
C136 N3 1_555 1_555
H118 C136 1_555 1_555
H119 C136 1_555 1_555
H120 C136 1_555 1_555
N4 C137 1_555 1_555
O69 Cu6 1_555 1_555
C137 O69 1_555 1_555
C138 C137 1_555 1_555
H121 C138 1_555 1_555
H122 C138 1_555 1_555
H123 C138 1_555 1_555
C139 N4 1_555 1_555
H124 C139 1_555 1_555
H125 C139 1_555 1_555
H126 C139 1_555 1_555
C140 N4 1_555 1_555
H127 C140 1_555 1_555
H128 C140 1_555 1_555
H129 C140 1_555 1_555
N5 C141 1_555 1_555
O70 Cu8 1_555 1_555
C141 O70 1_555 1_555
C142 C141 1_555 1_555
H130 C142 1_555 1_555
H131 C142 1_555 1_555
H132 C142 1_555 1_555
C143 N5 1_555 1_555
H133 C143 1_555 1_555
H134 C143 1_555 1_555
H135 C143 1_555 1_555
C144 N5 1_555 1_555
H136 C144 1_555 1_555
H137 C144 1_555 1_555
H138 C144 1_555 1_555
N6 C145 1_555 1_555
O71 Cu12 1_555 1_555
C145 O71 1_555 1_555
C146 C145 1_555 1_555
H139 C146 1_555 1_555
H140 C146 1_555 1_555
H141 C146 1_555 1_555
C147 N6 1_555 1_555
H142 C147 1_555 1_555
H143 C147 1_555 1_555
H144 C147 1_555 1_555
C148 N6 1_555 1_555
H145 C148 1_555 1_555
H146 C148 1_555 1_555
H147 C148 1_555 1_555
O72 Cu10 1_555 1_555
N7 C149 1_555 1_555
O73 C149 1_555 1_555
C149 C150 1_555 1_555
C150 H148 1_555 1_555
H149 C150 1_555 1_555
H150 C150 1_555 1_555
C151 N7 1_555 1_555
H151 C151 1_555 1_555
H152 C151 1_555 1_555
H153 C151 1_555 1_555
C152 N7 1_555 1_555
H154 C152 1_555 1_555
H155 C152 1_555 1_555
H156 C152 1_555 1_555
N8 C153 1_555 1_555
O74 C153 1_555 1_555
C153 C154 1_555 1_555
C154 H157 1_555 1_555
H158 C154 1_555 1_555
H159 C154 1_555 1_555
C155 N8 1_555 1_555
H160 C155 1_555 1_555
H161 C155 1_555 1_555
H162 C155 1_555 1_555
C156 N8 1_555 1_555
H163 C156 1_555 1_555
H164 C156 1_555 1_555
H165 C156 1_555 1_555
N9 C157 1_555 1_555
O75 C157 1_555 1_555
C157 C158 1_555 1_555
C158 H166 1_555 1_555
H167 C158 1_555 1_555
H168 C158 1_555 1_555
C159 N9 1_555 1_555
H169 C159 1_555 1_555
H170 C159 1_555 1_555
H171 C159 1_555 1_555
C160 N9 1_555 1_555
H172 C160 1_555 1_555
H173 C160 1_555 1_555
H174 C160 1_555 1_555
Cu1A O38 1_555 1_555
Cu2A O39 1_555 1_555
Cu3A O8A 1_555 1_555
Cu4A O9A 1_555 1_555
Cu5A O18A 1_555 1_555
Cu6A O19A 1_555 1_555
Cu7A O23A 1_555 1_555
Cu8A O24A 1_555 1_555
Cu9A O13 1_555 1_555
Cu10A O14 1_555 1_555
Cu11A O33 1_555 1_555
Cu12A O34 1_555 1_555
O1A Cu1A 1_555 1_555
O2A Cu2A 1_555 1_555
O3A Cu11A 1_555 1_555
O4A Cu12A 1_555 1_555
C1A O1A 1_555 1_555
C2A C1A 1_555 1_555
C3A C2A 1_555 1_555
H1A C3A 1_555 1_555
C4A C3A 1_555 1_555
C5A C4A 1_555 1_555
H2A C5A 1_555 1_555
C6A C5A 1_555 1_555
C7A C2A 1_555 1_555
H3A C7A 1_555 1_555
C8A O3A 1_555 1_555
O5A C4A 1_555 1_555
C9A O5A 1_555 1_555
H4A C9A 1_555 1_555
H5A C9A 1_555 1_555
C10A C9A 1_555 1_555
H6A C10A 1_555 1_555
H7A C10A 1_555 1_555
C11A C10A 1_555 1_555
H8A C11A 1_555 1_555
H9A C11A 1_555 1_555
H10A C11A 1_555 1_555
O6A Cu1A 1_555 1_555
O7A Cu2A 1_555 1_555
O8A C19A 1_555 1_555
O9A C19A 1_555 1_555
C12A O6A 1_555 1_555
C13A C12A 1_555 1_555
C14A C13A 1_555 1_555
H11A C14A 1_555 1_555
C15A C14A 1_555 1_555
C16A C15A 1_555 1_555
H12A C16A 1_555 1_555
C17A C16A 1_555 1_555
C18A C13A 1_555 1_555
H13A C18A 1_555 1_555
C19A C17A 1_555 1_555
O10A C15A 1_555 1_555
C20A O10A 1_555 1_555
H14A C20A 1_555 1_555
H15A C20A 1_555 1_555
C21A C20A 1_555 1_555
H16A C21A 1_555 1_555
H17A C21A 1_555 1_555
C22A C21A 1_555 1_555
H18A C22A 1_555 1_555
H19A C22A 1_555 1_555
H20A C22A 1_555 1_555
O11A Cu1A 1_555 1_555
O12A Cu2A 1_555 1_555
O13A Cu9 1_555 1_555
O14A Cu10 1_555 1_555
C23A O11A 1_555 1_555
C24A C23A 1_555 1_555
C25A C24A 1_555 1_555
H21A C25A 1_555 1_555
C26A C25A 1_555 1_555
C27A C26A 1_555 1_555
H22A C27A 1_555 1_555
C28A C27A 1_555 1_555
C29A C24A 1_555 1_555
H23A C29A 1_555 1_555
C30A O13A 1_555 1_555
O15A C26A 1_555 1_555
C31A O15A 1_555 1_555
H24A C31A 1_555 1_555
H25A C31A 1_555 1_555
C32A C31A 1_555 1_555
H26A C32A 1_555 1_555
H27A C32A 1_555 1_555
C33A C32A 1_555 1_555
H28A C33A 1_555 1_555
H29A C33A 1_555 1_555
H30A C33A 1_555 1_555
O16A Cu3A 1_555 1_555
O17A Cu4A 1_555 1_555
O18A C41A 1_555 1_555
O19A C41A 1_555 1_555
C34A O16A 1_555 1_555
C35A C34A 1_555 1_555
C36A C35A 1_555 1_555
H31A C36A 1_555 1_555
C37A C36A 1_555 1_555
C38A C37A 1_555 1_555
H32A C38A 1_555 1_555
C39A C38A 1_555 1_555
C40A C35A 1_555 1_555
H33A C40A 1_555 1_555
C41A C39A 1_555 1_555
O20A C37A 1_555 1_555
C42A O20A 1_555 1_555
O21A Cu3A 1_555 1_555
O22A Cu4A 1_555 1_555
O23A C50A 1_555 1_555
O24A C50A 1_555 1_555
C43A O21A 1_555 1_555
C44A C43A 1_555 1_555
C45A C44A 1_555 1_555
H34A C45A 1_555 1_555
C46A C45A 1_555 1_555
C47A C46A 1_555 1_555
H35A C47A 1_555 1_555
C48A C47A 1_555 1_555
C49A C44A 1_555 1_555
H36A C49A 1_555 1_555
C50A C48A 1_555 1_555
O25A C46A 1_555 1_555
C51A O25A 1_555 1_555
H37A C51A 1_555 1_555
H38A C51A 1_555 1_555
C52A C51A 1_555 1_555
O26A Cu3A 1_555 1_555
O27A Cu4A 1_555 1_555
O28A Cu9 1_555 1_555
O29A Cu10 1_555 1_555
C53A O26A 1_555 1_555
C54A C53A 1_555 1_555
C55A C54A 1_555 1_555
H39A C55A 1_555 1_555
C56A C55A 1_555 1_555
C57A C56A 1_555 1_555
H40A C57A 1_555 1_555
C58A C57A 1_555 1_555
C59A C54A 1_555 1_555
H41A C59A 1_555 1_555
C60A O28A 1_555 1_555
O30A C56A 1_555 1_555
C61A O30A 1_555 1_555
H42A C61A 1_555 1_555
H43A C61A 1_555 1_555
C62A C61A 1_555 1_555
H44A C62A 1_555 1_555
H45A C62A 1_555 1_555
C63A C62A 1_555 1_555
H46A C63A 1_555 1_555
H47A C63A 1_555 1_555
H48A C63A 1_555 1_555
O31A Cu5A 1_555 1_555
O32A Cu6A 1_555 1_555
O33A Cu11 1_555 1_555
O34A Cu12 1_555 1_555
C64A O31A 1_555 1_555
C65A C64A 1_555 1_555
C66A C65A 1_555 1_555
H49A C66A 1_555 1_555
C67A C66A 1_555 1_555
C68A C67A 1_555 1_555
H50A C68A 1_555 1_555
C69A C68A 1_555 1_555
C70A C65A 1_555 1_555
H51A C70A 1_555 1_555
C71A O33A 1_555 1_555
O35A C67A 1_555 1_555
C72A O35A 1_555 1_555
H52A C72A 1_555 1_555
H53A C72A 1_555 1_555
C73A C72A 1_555 1_555
H54A C73A 1_555 1_555
H55A C73A 1_555 1_555
C74A C73A 1_555 1_555
H56A C74A 1_555 1_555
H57A C74A 1_555 1_555
H58A C74A 1_555 1_555
O36A Cu5A 1_555 1_555
O37A Cu6A 1_555 1_555
O38A Cu1 1_555 1_555
O39A Cu2 1_555 1_555
C75A O36A 1_555 1_555
C76A C75A 1_555 1_555
C77A C76A 1_555 1_555
H59A C77A 1_555 1_555
C78A C77A 1_555 1_555
C79A C78A 1_555 1_555
H60A C79A 1_555 1_555
C80A C79A 1_555 1_555
C81A C76A 1_555 1_555
H61A C81A 1_555 1_555
C82A O38A 1_555 1_555
O40A C78A 1_555 1_555
C83A O40A 1_555 1_555
H62A C83A 1_555 1_555
H63A C83A 1_555 1_555
C84A C83A 1_555 1_555
H64A C84A 1_555 1_555
H65A C84A 1_555 1_555
C85A C84A 1_555 1_555
H66A C85A 1_555 1_555
H67A C85A 1_555 1_555
H68A C85A 1_555 1_555
O41A Cu5A 1_555 1_555
O42A Cu6A 1_555 1_555
O43A Cu7A 1_555 1_555
O44A Cu8A 1_555 1_555
C86A O41A 1_555 1_555
C87A C86A 1_555 1_555
C88A C87A 1_555 1_555
H69A C88A 1_555 1_555
C89A C88A 1_555 1_555
C90A C89A 1_555 1_555
H70A C90A 1_555 1_555
C91A C90A 1_555 1_555
C92A C87A 1_555 1_555
H71A C92A 1_555 1_555
C93A O43A 1_555 1_555
O45A C89A 1_555 1_555
C94A O45A 1_555 1_555
H72A C94A 1_555 1_555
H73A C94A 1_555 1_555
C95A C94A 1_555 1_555
H74A C95A 1_555 1_555
H75A C95A 1_555 1_555
C96A C95A 1_555 1_555
H76A C96A 1_555 1_555
H77A C96A 1_555 1_555
H78A C96A 1_555 1_555
O46A Cu7A 1_555 1_555
O47A Cu8A 1_555 1_555
O48A Cu11A 1_555 1_555
O49A Cu12A 1_555 1_555
C97A O46A 1_555 1_555
C98A C97A 1_555 1_555
C99A C98A 1_555 1_555
H79A C99A 1_555 1_555
C100A C99A 1_555 1_555
C101A C100A 1_555 1_555
H80A C101A 1_555 1_555
C102A C101A 1_555 1_555
C103A C98A 1_555 1_555
H81A C103A 1_555 1_555
C104A O48A 1_555 1_555
O50A C100A 1_555 1_555
C105A O50A 1_555 1_555
O51A Cu7A 1_555 1_555
O52A Cu8A 1_555 1_555
O53A Cu9A 1_555 1_555
O54A Cu10A 1_555 1_555
C106A O51A 1_555 1_555
C107A C106A 1_555 1_555
C108A C107A 1_555 1_555
H82A C108A 1_555 1_555
C109A C108A 1_555 1_555
C110A C109A 1_555 1_555
H83A C110A 1_555 1_555
C111A C110A 1_555 1_555
C112A C107A 1_555 1_555
H84A C112A 1_555 1_555
C113A O53A 1_555 1_555
O55A C109A 1_555 1_555
C114A O55A 1_555 1_555
H85A C114A 1_555 1_555
H86A C114A 1_555 1_555
C115A C114A 1_555 1_555
H87A C115A 1_555 1_555
H88A C115A 1_555 1_555
C116A C115A 1_555 1_555
H89A C116A 1_555 1_555
H90A C116A 1_555 1_555
O56A Cu11A 1_555 1_555
O57A Cu12A 1_555 1_555
O58A Cu9A 1_555 1_555
O59A Cu10A 1_555 1_555
C117A O56A 1_555 1_555
C118A C117A 1_555 1_555
C119A C118A 1_555 1_555
H91A C119A 1_555 1_555
C120A C119A 1_555 1_555
C121A C120A 1_555 1_555
H92A C121A 1_555 1_555
C122A C121A 1_555 1_555
C123A C118A 1_555 1_555
H93A C123A 1_555 1_555
C124A O58A 1_555 1_555
O60A C122A 1_555 1_555
O61A Cu7A 1_555 1_555
O62A Cu2A 1_555 1_555
O63A Cu4A 1_555 1_555
O64A Cu11A 1_555 1_555
O65A Cu9A 1_555 1_555
N1A C125A 1_555 1_555
O66A Cu1A 1_555 1_555
C125A O66A 1_555 1_555
C126A C125A 1_555 1_555
H94A C126A 1_555 1_555
H95A C126A 1_555 1_555
H96A C126A 1_555 1_555
C127A N1A 1_555 1_555
H97A C127A 1_555 1_555
H98A C127A 1_555 1_555
H99A C127A 1_555 1_555
C128A N1A 1_555 1_555
H100A C128A 1_555 1_555
H101A C128A 1_555 1_555
H102A C128A 1_555 1_555
N2A C129A 1_555 1_555
O67A Cu3A 1_555 1_555
C129A O67A 1_555 1_555
C130A C129A 1_555 1_555
H103A C130A 1_555 1_555
H104A C130A 1_555 1_555
H105A C130A 1_555 1_555
C131A N2A 1_555 1_555
H106A C131A 1_555 1_555
H107A C131A 1_555 1_555
H108A C131A 1_555 1_555
C132A N2A 1_555 1_555
H109A C132A 1_555 1_555
H110A C132A 1_555 1_555
H111A C132A 1_555 1_555
N3A C133A 1_555 1_555
O68A Cu5A 1_555 1_555
C133A O68A 1_555 1_555
C134A C133A 1_555 1_555
H112A C134A 1_555 1_555
H113A C134A 1_555 1_555
H114A C134A 1_555 1_555
C135A N3A 1_555 1_555
H115A C135A 1_555 1_555
H116A C135A 1_555 1_555
H117A C135A 1_555 1_555
C136A N3A 1_555 1_555
H118A C136A 1_555 1_555
H119A C136A 1_555 1_555
H120A C136A 1_555 1_555
N4A C137A 1_555 1_555
O69A Cu6A 1_555 1_555
C137A O69A 1_555 1_555
C138A C137A 1_555 1_555
H121A C138A 1_555 1_555
H122A C138A 1_555 1_555
H123A C138A 1_555 1_555
C139A N4A 1_555 1_555
H124A C139A 1_555 1_555
H125A C139A 1_555 1_555
H126A C139A 1_555 1_555
C140A N4A 1_555 1_555
H127A C140A 1_555 1_555
H128A C140A 1_555 1_555
H129A C140A 1_555 1_555
N5A C141A 1_555 1_555
O70A Cu8A 1_555 1_555
C141A O70A 1_555 1_555
C142A C141A 1_555 1_555
H130A C142A 1_555 1_555
H131A C142A 1_555 1_555
H132A C142A 1_555 1_555
C143A N5A 1_555 1_555
H133A C143A 1_555 1_555
H134A C143A 1_555 1_555
H135A C143A 1_555 1_555
C144A N5A 1_555 1_555
H136A C144A 1_555 1_555
H137A C144A 1_555 1_555
H138A C144A 1_555 1_555
N6A C145A 1_555 1_555
O71A Cu12A 1_555 1_555
C145A O71A 1_555 1_555
C146A C145A 1_555 1_555
H139A C146A 1_555 1_555
H140A C146A 1_555 1_555
H141A C146A 1_555 1_555
C147A N6A 1_555 1_555
H142A C147A 1_555 1_555
H143A C147A 1_555 1_555
H144A C147A 1_555 1_555
C148A N6A 1_555 1_555
H145A C148A 1_555 1_555
H146A C148A 1_555 1_555
H147A C148A 1_555 1_555
O72A Cu10A 1_555 1_555
C6 C7 1_555 1_555
O7 C12 1_555 1_555
C17 C18 1_555 1_555
O12 C23 1_555 1_555
C28 C29 1_555 1_555
O17 C34 1_555 1_555
C39 C40 1_555 1_555
O22 C43 1_555 1_555
C48 C49 1_555 1_555
O27 C53 1_555 1_555
O28 Cu9A 1_555 1_555
O29 Cu10A 1_555 1_555
C58 C59 1_555 1_555
O32 C64 1_555 1_555
C69 C70 1_555 1_555
O37 C75 1_555 1_555
C80 C81 1_555 1_555
O42 C86 1_555 1_555
O44 C93 1_555 1_555
C91 C92 1_555 1_555
C91 C93 1_555 1_555
O47 C97 1_555 1_555
O49 C104 1_555 1_555
C102 C103 1_555 1_555
C102 C104 1_555 1_555
O52 C106 1_555 1_555
C111 C112 1_555 1_555
O57 C117 1_555 1_555
O59 C124 1_555 1_555
C120 C124 1_555 1_555
C122 C123 1_555 1_555
O2A C1A 1_555 1_555
O4A C8A 1_555 1_555
C6A C7A 1_555 1_555
C6A C8A 1_555 1_555
O7A C12A 1_555 1_555
C17A C18A 1_555 1_555
O12A C23A 1_555 1_555
O14A C30A 1_555 1_555
C28A C29A 1_555 1_555
C28A C30A 1_555 1_555
O17A C34A 1_555 1_555
C39A C40A 1_555 1_555
O22A C43A 1_555 1_555
C48A C49A 1_555 1_555
O27A C53A 1_555 1_555
O29A C60A 1_555 1_555
C58A C59A 1_555 1_555
C58A C60A 1_555 1_555
O32A C64A 1_555 1_555
O34A C71A 1_555 1_555
C69A C70A 1_555 1_555
C69A C71A 1_555 1_555
O37A C75A 1_555 1_555
O39A C82A 1_555 1_555
C80A C81A 1_555 1_555
C80A C82A 1_555 1_555
O42A C86A 1_555 1_555
O44A C93A 1_555 1_555
C91A C92A 1_555 1_555
C91A C93A 1_555 1_555
O47A C97A 1_555 1_555
O49A C104A 1_555 1_555
C102A C103A 1_555 1_555
C102A C104A 1_555 1_555
O52A C106A 1_555 1_555
O54A C113A 1_555 1_555
C111A C112A 1_555 1_555
C111A C113A 1_555 1_555
O57A C117A 1_555 1_555
O59A C124A 1_555 1_555
C120A C124A 1_555 1_555
C122A C123A 1_555 1_555

#END
