
#######################################################################
#
#                 Cambridge Crystallographic Data Centre
#                                CCDC 
#
#######################################################################
#
# If this CIF has been generated from an entry in the Cambridge 
# Structural Database, then it will include bibliographic, chemical, 
# crystal, experimental, refinement or atomic coordinate data resulting 
# from the CCDC's data processing and validation procedures.
#
#######################################################################

data_GEWPAC
_chemical_formula_moiety         'C336 H420 Cu24 N12 O144'
_chemical_name_systematic        
'catena-(tetracosakis(\m-5-n-pentoxyisophthalato)-dodecakis(N-methylformamide)-dodeca-aqua-tetracosa-copper unknown solvate)'
_symmetry_cell_setting           rhombohedral
_symmetry_space_group_name_H-M   'R -3 c'
_symmetry_Int_Tables_number      167
_space_group_name_Hall           '-R 3 2"c'
loop_
_symmetry_equiv_pos_site_id
_symmetry_equiv_pos_as_xyz
1 x,y,z
2 -y,x-y,z
3 -x+y,-x,z
4 y,x,1/2-z
5 x-y,-y,1/2-z
6 -x,-x+y,1/2-z
7 2/3+x,1/3+y,1/3+z
8 2/3-y,1/3+x-y,1/3+z
9 2/3-x+y,1/3-x,1/3+z
10 2/3+y,1/3+x,5/6-z
11 2/3+x-y,1/3-y,5/6-z
12 2/3-x,1/3-x+y,5/6-z
13 1/3+x,2/3+y,2/3+z
14 1/3-y,2/3+x-y,2/3+z
15 1/3-x+y,2/3-x,2/3+z
16 1/3+y,2/3+x,1/6-z
17 1/3+x-y,2/3-y,1/6-z
18 1/3-x,2/3-x+y,1/6-z
19 -x,-y,-z
20 y,-x+y,-z
21 x-y,x,-z
22 -y,-x,1/2+z
23 -x+y,y,1/2+z
24 x,x-y,1/2+z
25 1/3-x,2/3-y,2/3-z
26 1/3+y,2/3-x+y,2/3-z
27 1/3+x-y,2/3+x,2/3-z
28 1/3-y,2/3-x,1/6+z
29 1/3-x+y,2/3+y,1/6+z
30 1/3+x,2/3+x-y,1/6+z
31 2/3-x,1/3-y,1/3-z
32 2/3+y,1/3-x+y,1/3-z
33 2/3+x-y,1/3+x,1/3-z
34 2/3-y,1/3-x,5/6+z
35 2/3-x+y,1/3+y,5/6+z
36 2/3+x,1/3+x-y,5/6+z
_cell_length_a                   27.4404(5)
_cell_length_b                   27.4404(5)
_cell_length_c                   119.124(3)
_cell_angle_alpha                90
_cell_angle_beta                 90
_cell_angle_gamma                120
_cell_volume                     77680.3
_exptl_crystal_colour            green
_exptl_crystal_description       block
_cell_formula_units_Z            6
loop_
_atom_site_label
_atom_site_type_symbol
_atom_site_fract_x
_atom_site_fract_y
_atom_site_fract_z
Cu1 Cu 0.33273(5) 0.13582(5) 0.33273(2)
Cu2 Cu 0.22231(5) 0.07047(5) 0.33293(2)
Cu3 Cu 0.48925(7) 0.31148(7) 0.27833(2)
Cu4 Cu 0.43084(7) 0.30593(8) 0.26039(2)
O1 O 0.3134(3) 0.1946(3) 0.33493(7)
O2 O 0.2194(3) 0.1395(2) 0.33580(8)
O3 O 0.4001(2) 0.3973(2) 0.33588(7)
O4 O 0.3452(2) 0.4373(2) 0.33707(7)
O5 O 0.1538(3) 0.2716(3) 0.34684(8)
C1 C 0.2652(3) 0.1855(4) 0.33542(10)
C2 C 0.2599(2) 0.23802(18) 0.33842(7)
C3 C 0.20862(19) 0.23287(17) 0.34142(7)
H1 H 0.177005 0.197388 0.342216
C4 C 0.20455(18) 0.2808(2) 0.34322(7)
C5 C 0.2518(2) 0.33378(18) 0.34203(7)
H2 H 0.249069 0.365820 0.343240
C6 C 0.30312(18) 0.33893(17) 0.33903(7)
C7 C 0.30719(18) 0.2910(2) 0.33722(7)
H3 H 0.341527 0.294493 0.335215
C8 C 0.3549(3) 0.3974(4) 0.33685(11)
C9 C 0.1504(4) 0.3202(4) 0.34991(11)
H4 H 0.159652 0.345292 0.343528
H5 H 0.176686 0.340406 0.355923
C10 C 0.0916(4) 0.3004(4) 0.35367(12)
H6 H 0.082860 0.275856 0.360132
H7 H 0.065475 0.279223 0.347700
C11 C 0.0859(4) 0.3538(5) 0.35689(12)
H8 H 0.112120 0.374486 0.362874
H9 H 0.095799 0.378481 0.350429
C12 C 0.0291(5) 0.3379(5) 0.36050(13)
H10 H 0.019063 0.313366 0.366990
H11 H 0.002690 0.317241 0.354529
C13 C 0.0249(6) 0.3884(5) 0.36342(14)
H12 H 0.024451 0.407242 0.356666
H13 H 0.056640 0.413478 0.367926
H14 H -0.009174 0.377014 0.367558
O6 O 0.3213(3) 0.1379(3) 0.31671(7)
O7 O 0.2256(3) 0.0858(3) 0.31683(7)
O8 O 0.4165(3) 0.2473(4) 0.28365(7)
O9 O 0.3678(4) 0.2434(4) 0.26803(8)
O10 O 0.1751(5) 0.0855(7) 0.27557(12)
C14 C 0.2739(4) 0.1181(4) 0.31244(11)
C15 C 0.2728(3) 0.1282(3) 0.29966(6)
C16 C 0.2227(3) 0.1007(4) 0.29365(9)
H15 H 0.190051 0.073488 0.297145
C17 C 0.2215(3) 0.1138(5) 0.28242(9)
C18 C 0.2703(4) 0.1544(5) 0.27720(6)
H16 H 0.269527 0.163179 0.269684
C19 C 0.3204(3) 0.1819(3) 0.28320(7)
C20 C 0.3216(3) 0.1688(3) 0.29443(7)
H17 H 0.355141 0.187203 0.298450
C21 C 0.3728(5) 0.2310(6) 0.27779(11)
C22 C 0.1237(12) 0.0293(14) 0.2802(3)
O11 O 0.3291(3) 0.1242(3) 0.34892(7)
O12 O 0.2339(3) 0.0652(3) 0.34915(7)
O13 O 0.4355(3) 0.1329(3) 0.38247(7)
O14 O 0.3906(3) 0.0850(4) 0.39796(8)
O15 O 0.1906(5) 0.0140(6) 0.39021(11)
C23 C 0.2818(4) 0.0901(4) 0.35342(11)
C24 C 0.2857(3) 0.0817(3) 0.36624(6)
C25 C 0.2357(2) 0.0527(3) 0.37223(8)
H18 H 0.201494 0.041345 0.368675
C26 C 0.2368(3) 0.0407(4) 0.38353(8)
C27 C 0.2880(4) 0.0577(4) 0.38885(6)
H19 H 0.288711 0.049714 0.396410
C28 C 0.3379(3) 0.0867(3) 0.38286(7)
C29 C 0.3368(2) 0.0987(3) 0.37156(7)
H20 H 0.370266 0.118113 0.367554
C30 C 0.3944(5) 0.1025(5) 0.38838(10)
C31 C 0.1436(9) -0.0001(12) 0.3872(2)
O16 O 0.5041(3) 0.2580(4) 0.27035(7)
O17 O 0.4551(4) 0.2539(4) 0.25494(8)
O18 O 0.6268(4) 0.1783(4) 0.27044(8)
O19 O 0.6314(4) 0.1334(4) 0.25482(8)
O20 O 0.4822(7) 0.1276(7) 0.22889(12)
C32 C 0.4866(5) 0.2435(5) 0.26065(10)
C33 C 0.5061(4) 0.2058(4) 0.25539(7)
C34 C 0.4848(4) 0.1824(5) 0.24493(8)
H21 H 0.457253 0.187683 0.241567
C35 C 0.5048(5) 0.1509(5) 0.23950(7)
C36 C 0.5460(4) 0.1430(4) 0.24453(8)
H22 H 0.559294 0.121970 0.240895
C37 C 0.5672(4) 0.1665(4) 0.25499(8)
C38 C 0.5473(4) 0.1979(4) 0.26042(6)
H23 H 0.561567 0.213572 0.267418
C39 C 0.6143(5) 0.1604(5) 0.26044(11)
O21 O 0.4199(3) 0.1986(4) 0.33109(10)
N1 N 0.4607(8) 0.2930(7) 0.3241(2)
H24 H 0.479036 0.307715 0.330170
C40 C 0.4275(8) 0.2438(8) 0.3236(2)
H25 H 0.402673 0.232752 0.317613
C41 C 0.4696(9) 0.3261(9) 0.3148(2)
H26 H 0.449793 0.310183 0.308180
H27 H 0.495461 0.364491 0.315056
O22 O 0.1315(3) 0.0133(3) 0.33334(9)
O23 O 0.5392(6) 0.3168(5) 0.29287(12)
O24 O 0.3792(5) 0.2985(5) 0.24639(10)
N2 N 0.3354(9) 0.2536(8) 0.23037(16)
H28 H 0.336561 0.232243 0.225208
C42 C 0.3703(11) 0.2711(11) 0.2391(2)
H29 H 0.393736 0.255720 0.238954
C43 C 0.2959(9) 0.2730(10) 0.23025(19)
H30 H 0.275260 0.262132 0.223316
H31 H 0.315537 0.313207 0.230922
H32 H 0.270233 0.256570 0.236419
Cu1A Cu 0.86418(5) 0.19691(7) 0.33273(2)
Cu2A Cu 0.92953(5) 0.15184(7) 0.33293(2)
Cu3A Cu 0.68852(7) 0.17777(10) 0.27833(2)
Cu4A Cu 0.69407(8) 0.12491(11) 0.26039(2)
O1A O 0.8054(3) 0.1188(4) 0.33493(7)
O2A O 0.8605(2) 0.0799(4) 0.33580(8)
O3A O 0.6027(2) 0.0028(3) 0.33588(7)
O4A O 0.5627(2) -0.0921(3) 0.33707(7)
O5A O 0.7284(3) -0.1178(4) 0.34684(8)
C1A C 0.8145(4) 0.0797(5) 0.33542(10)
C2A C 0.76198(18) 0.02188(27) 0.33842(7)
C3A C 0.76713(17) -0.02425(25) 0.34142(7)
H1A H 0.802612 -0.020383 0.342216
C4A C 0.7192(2) -0.07625(27) 0.34322(7)
C5A C 0.66622(18) -0.08198(27) 0.34203(7)
H2A H 0.634180 -0.116751 0.343240
C6A C 0.66107(17) -0.03581(25) 0.33903(7)
C7A C 0.7090(2) 0.01619(27) 0.33722(7)
H3A H 0.705507 0.047034 0.335215
C8A C 0.6026(4) -0.0425(5) 0.33685(11)
C9A C 0.6798(4) -0.1698(6) 0.34991(11)
H4A H 0.654708 -0.185640 0.343528
H5A H 0.659594 -0.163720 0.355923
C10A C 0.6996(4) -0.2088(6) 0.35367(12)
H6A H 0.724144 -0.192996 0.360132
H7A H 0.720777 -0.213748 0.347700
C11A C 0.6462(5) -0.2679(6) 0.35689(12)
H8A H 0.625514 -0.262366 0.362874
H9A H 0.621519 -0.282682 0.350429
C12A C 0.6621(5) -0.3088(7) 0.36050(13)
H10A H 0.686634 -0.294303 0.366990
H11A H 0.682759 -0.314551 0.354529
C13A C 0.6116(5) -0.3635(8) 0.36342(14)
H12A H 0.592758 -0.382791 0.356666
H13A H 0.586522 -0.356838 0.367926
H14A H 0.622986 -0.386188 0.367558
O6A O 0.8621(3) 0.1834(4) 0.31671(7)
O7A O 0.9142(3) 0.1398(4) 0.31683(7)
O8A O 0.7527(4) 0.1692(5) 0.28365(7)
O9A O 0.7566(4) 0.1244(6) 0.26803(8)
O10A O 0.9145(7) 0.0896(9) 0.27557(12)
C14A C 0.8819(4) 0.1558(6) 0.31244(11)
C15A C 0.8718(3) 0.1446(4) 0.29966(6)
C16A C 0.8993(4) 0.1220(5) 0.29365(9)
H15A H 0.926512 0.116563 0.297145
C17A C 0.8862(5) 0.1077(6) 0.28242(9)
C18A C 0.8456(5) 0.1159(6) 0.27720(6)
H16A H 0.836821 0.106348 0.269684
C19A C 0.8181(3) 0.1385(4) 0.28320(7)
C20A C 0.8312(3) 0.1528(4) 0.29443(7)
H17A H 0.812797 0.167938 0.298450
C21A C 0.7690(6) 0.1418(8) 0.27779(11)
C22A C 0.9707(14) 0.0944(18) 0.2802(3)
O11A O 0.8758(3) 0.2049(4) 0.34892(7)
O12A O 0.9348(3) 0.1687(4) 0.34915(7)
O13A O 0.8671(3) 0.3026(4) 0.38247(7)
O14A O 0.9150(4) 0.3056(5) 0.39796(8)
O15A O 0.9860(6) 0.1766(8) 0.39021(11)
C23A C 0.9099(4) 0.1917(6) 0.35342(11)
C24A C 0.9183(3) 0.2040(4) 0.36624(6)
C25A C 0.9473(3) 0.1830(4) 0.37223(8)
H18A H 0.958655 0.160149 0.368675
C26A C 0.9593(4) 0.1961(5) 0.38353(8)
C27A C 0.9423(4) 0.2303(6) 0.38885(6)
H19A H 0.950286 0.238997 0.396410
C28A C 0.9133(3) 0.2512(4) 0.38286(7)
C29A C 0.9013(3) 0.2381(4) 0.37156(7)
H20A H 0.881887 0.252153 0.367554
C30A C 0.8975(5) 0.2919(7) 0.38838(10)
C31A C 1.0001(12) 0.1437(15) 0.3872(2)
O16A O 0.7420(4) 0.2461(5) 0.27035(7)
O17A O 0.7461(4) 0.2012(6) 0.25494(8)
O18A O 0.8217(4) 0.4485(6) 0.27044(8)
O19A O 0.8666(4) 0.4980(6) 0.25482(8)
O20A O 0.8724(7) 0.3546(10) 0.22889(12)
C32A C 0.7565(5) 0.2431(7) 0.26065(10)
C33A C 0.7942(4) 0.3003(6) 0.25539(7)
C34A C 0.8176(5) 0.3024(6) 0.24493(8)
H21A H 0.812317 0.269570 0.241567
C35A C 0.8491(5) 0.3539(7) 0.23950(7)
C36A C 0.8570(4) 0.4030(6) 0.24453(8)
H22A H 0.878030 0.437324 0.240895
C37A C 0.8335(4) 0.4007(6) 0.25499(8)
C38A C 0.8021(4) 0.3494(6) 0.26042(6)
H23A H 0.786428 0.347995 0.267418
C39A C 0.8396(5) 0.4539(7) 0.26044(11)
O21A O 0.8014(4) 0.2213(5) 0.33109(10)
N1A N 0.7070(7) 0.1677(11) 0.3241(2)
H24A H 0.692285 0.171321 0.330170
C40A C 0.7562(8) 0.1837(11) 0.3236(2)
H25A H 0.767248 0.169921 0.317613
C41A C 0.6739(9) 0.1435(13) 0.3148(2)
H26A H 0.689817 0.139610 0.308180
H27A H 0.635509 0.130970 0.315056
O22A O 0.9867(3) 0.1182(4) 0.33334(9)
O23A O 0.6832(5) 0.2224(8) 0.29287(12)
O24A O 0.7015(5) 0.0807(7) 0.24639(10)
N2A N 0.7464(8) 0.0818(12) 0.23037(16)
H28A H 0.767757 0.104318 0.225208
C42A C 0.7289(11) 0.0992(16) 0.2391(2)
H29A H 0.744280 0.138016 0.238954
C43A C 0.7270(10) 0.0229(13) 0.23025(19)
H30A H 0.737868 0.013128 0.223316
H31A H 0.686793 0.002330 0.230922
H32A H 0.743430 0.013663 0.236419
Cu1B Cu 0.80309(7) 0.66727(5) 0.33273(2)
Cu2B Cu 0.84816(7) 0.77769(5) 0.33293(2)
Cu3B Cu 0.82223(10) 0.51075(7) 0.27833(2)
Cu4B Cu 0.87509(11) 0.56916(7) 0.26039(2)
O1B O 0.8812(4) 0.6866(3) 0.33493(7)
O2B O 0.9201(4) 0.7806(3) 0.33580(8)
O3B O 0.9972(3) 0.5999(2) 0.33588(7)
O4B O 1.0921(3) 0.6548(2) 0.33707(7)
O5B O 1.1178(4) 0.8462(3) 0.34684(8)
C1B C 0.9203(5) 0.7348(3) 0.33542(10)
C2B C 0.97812(27) 0.7401(2) 0.33842(7)
C3B C 1.02425(25) 0.79138(19) 0.34142(7)
H1B H 1.020383 0.822995 0.342216
C4B C 1.07625(27) 0.79545(18) 0.34322(7)
C5B C 1.08198(27) 0.7482(2) 0.34203(7)
H2B H 1.116751 0.750931 0.343240
C6B C 1.03581(25) 0.69688(18) 0.33903(7)
C7B C 0.98381(27) 0.69281(18) 0.33722(7)
H3B H 0.952966 0.658473 0.335215
C8B C 1.0425(5) 0.6451(3) 0.33685(11)
C9B C 1.1698(6) 0.8496(4) 0.34991(11)
H4B H 1.185640 0.840348 0.343528
H5B H 1.163720 0.823314 0.355923
C10B C 1.2088(6) 0.9084(4) 0.35367(12)
H6B H 1.192996 0.917140 0.360132
H7B H 1.213748 0.934525 0.347700
C11B C 1.2679(6) 0.9141(4) 0.35689(12)
H8B H 1.262366 0.887880 0.362874
H9B H 1.282682 0.904201 0.350429
C12B C 1.3088(7) 0.9709(5) 0.36050(13)
H10B H 1.294303 0.980937 0.366990
H11B H 1.314551 0.997310 0.354529
C13B C 1.3635(8) 0.9751(6) 0.36342(14)
H12B H 1.382791 0.975549 0.356666
H13B H 1.356838 0.943360 0.367926
H14B H 1.386188 1.009174 0.367558
O6B O 0.8166(4) 0.6787(3) 0.31671(7)
O7B O 0.8602(4) 0.7744(3) 0.31683(7)
O8B O 0.8308(5) 0.5835(3) 0.28365(7)
O9B O 0.8756(6) 0.6322(4) 0.26803(8)
O10B O 0.9104(9) 0.8249(5) 0.27557(12)
C14B C 0.8442(6) 0.7261(4) 0.31244(11)
C15B C 0.8554(4) 0.7272(3) 0.29966(6)
C16B C 0.8780(5) 0.7773(3) 0.29365(9)
H15B H 0.883437 0.809949 0.297145
C17B C 0.8923(6) 0.7785(3) 0.28242(9)
C18B C 0.8841(6) 0.7297(4) 0.27720(6)
H16B H 0.893652 0.730473 0.269684
C19B C 0.8615(4) 0.6796(3) 0.28320(7)
C20B C 0.8472(4) 0.6784(3) 0.29443(7)
H17B H 0.832062 0.644859 0.298450
C21B C 0.8582(8) 0.6272(5) 0.27779(11)
C22B C 0.9056(18) 0.8763(12) 0.2802(3)
O11B O 0.7951(4) 0.6709(3) 0.34892(7)
O12B O 0.8313(4) 0.7661(3) 0.34915(7)
O13B O 0.6974(4) 0.5645(3) 0.38247(7)
O14B O 0.6944(5) 0.6094(3) 0.39796(8)
O15B O 0.8234(8) 0.8094(5) 0.39021(11)
C23B C 0.8083(6) 0.7182(4) 0.35342(11)
C24B C 0.7960(4) 0.7143(3) 0.36624(6)
C25B C 0.8170(4) 0.7643(2) 0.37223(8)
H18B H 0.839851 0.798506 0.368675
C26B C 0.8039(5) 0.7632(3) 0.38353(8)
C27B C 0.7697(6) 0.7120(4) 0.38885(6)
H19B H 0.761003 0.711289 0.396410
C28B C 0.7488(4) 0.6621(3) 0.38286(7)
C29B C 0.7619(4) 0.6632(2) 0.37156(7)
H20B H 0.747847 0.629734 0.367554
C30B C 0.7081(7) 0.6056(5) 0.38838(10)
C31B C 0.8563(15) 0.8564(9) 0.3872(2)
O16B O 0.7539(5) 0.4959(3) 0.27035(7)
O17B O 0.7988(6) 0.5449(4) 0.25494(8)
O18B O 0.5515(6) 0.3732(4) 0.27044(8)
O19B O 0.5020(6) 0.3686(4) 0.25482(8)
O20B O 0.6454(10) 0.5178(7) 0.22889(12)
C32B C 0.7569(7) 0.5134(5) 0.26065(10)
C33B C 0.6997(6) 0.4939(4) 0.25539(7)
C34B C 0.6976(6) 0.5152(4) 0.24493(8)
H21B H 0.730430 0.542747 0.241567
C35B C 0.6461(7) 0.4952(5) 0.23950(7)
C36B C 0.5970(6) 0.4540(4) 0.24453(8)
H22B H 0.562676 0.440706 0.240895
C37B C 0.5993(6) 0.4328(4) 0.25499(8)
C38B C 0.6506(6) 0.4527(4) 0.26042(6)
H23B H 0.652005 0.438433 0.267418
C39B C 0.5461(7) 0.3857(5) 0.26044(11)
O21B O 0.7787(5) 0.5801(3) 0.33109(10)
N1B N 0.8323(11) 0.5393(8) 0.3241(2)
H24B H 0.828679 0.520964 0.330170
C40B C 0.8163(11) 0.5725(8) 0.3236(2)
H25B H 0.830079 0.597327 0.317613
C41B C 0.8565(13) 0.5304(9) 0.3148(2)
H26B H 0.860390 0.550207 0.308180
H27B H 0.869030 0.504539 0.315056
O22B O 0.8818(4) 0.8685(3) 0.33334(9)
O23B O 0.7776(8) 0.4608(6) 0.29287(12)
O24B O 0.9193(7) 0.6208(5) 0.24639(10)
N2B N 0.9182(12) 0.6646(9) 0.23037(16)
H28B H 0.895682 0.663439 0.225208
C42B C 0.9008(16) 0.6297(11) 0.2391(2)
H29B H 0.861984 0.606264 0.238954
C43B C 0.9771(13) 0.7041(9) 0.23025(19)
H30B H 0.986872 0.724740 0.223316
H31B H 0.997670 0.684463 0.230922
H32B H 0.986337 0.729767 0.236419
Cu1X Cu 1.00060(5) 0.53085(5) 0.33394(2)
Cu2X Cu 1.11102(5) 0.59620(5) 0.33374(2)
Cu3X Cu 0.84408(7) 0.35519(7) 0.38834(2)
Cu4X Cu 0.90249(7) 0.36074(8) 0.40628(2)
O1X O 1.0199(3) 0.4721(3) 0.33174(7)
O2X O 1.1139(3) 0.5272(2) 0.33087(8)
O3X O 0.9332(2) 0.2694(2) 0.33079(7)
O4X O 0.9881(2) 0.2294(2) 0.32960(7)
O5X O 1.1795(3) 0.3951(3) 0.31983(8)
C1X C 1.0681(3) 0.4812(4) 0.33125(10)
C2X C 1.0734(2) 0.42865(18) 0.32825(7)
C3X C 1.12471(19) 0.43380(17) 0.32525(7)
H1X H 1.156328 0.469279 0.324451
C4X C 1.12878(18) 0.3859(2) 0.32345(7)
C5X C 1.0815(2) 0.33289(18) 0.32464(7)
H2X H 1.084264 0.300847 0.323427
C6X C 1.03021(18) 0.32774(17) 0.32764(7)
C7X C 1.02614(18) 0.3757(2) 0.32945(7)
H3X H 0.991806 0.372174 0.331452
C8X C 0.9784(3) 0.2693(4) 0.32982(11)
C9X C 1.1829(4) 0.3465(4) 0.31676(11)
H4X H 1.173681 0.321375 0.323139
H5X H 1.156647 0.326261 0.310744
C10X C 1.2417(4) 0.3663(4) 0.31300(12)
H6X H 1.250473 0.390811 0.306535
H7X H 1.267858 0.387444 0.318967
C11X C 1.2474(4) 0.3129(5) 0.30978(12)
H8X H 1.221213 0.292181 0.303793
H9X H 1.237534 0.288186 0.316238
C12X C 1.3042(5) 0.3288(5) 0.30617(13)
H10X H 1.314270 0.353301 0.299677
H11X H 1.330643 0.349426 0.312138
C13X C 1.3084(6) 0.2783(5) 0.30325(14)
H12X H 1.308882 0.259425 0.310001
H13X H 1.276693 0.253189 0.298741
H14X H 1.342507 0.289653 0.299109
O6X O 1.0120(3) 0.5288(3) 0.34996(7)
O7X O 1.1077(3) 0.5809(3) 0.34984(7)
O8X O 0.9168(3) 0.4194(4) 0.38302(7)
O9X O 0.9655(4) 0.4233(4) 0.39864(8)
O10X O 1.1582(5) 0.5812(7) 0.39110(12)
C14X C 1.0594(4) 0.5486(4) 0.35423(11)
C15X C 1.0605(3) 0.5385(3) 0.36701(6)
C16X C 1.1106(3) 0.5660(4) 0.37302(9)
H15X H 1.143282 0.593179 0.369522
C17X C 1.1118(3) 0.5529(5) 0.38425(9)
C18X C 1.0630(4) 0.5123(5) 0.38947(6)
H16X H 1.063806 0.503488 0.396983
C19X C 1.0129(3) 0.4848(3) 0.38347(7)
C20X C 1.0117(3) 0.4979(3) 0.37224(7)
H17X H 0.978192 0.479464 0.368217
C21X C 0.9605(5) 0.4357(6) 0.38888(11)
C22X C 1.2096(12) 0.6374(14) 0.3865(3)
O11X O 1.0042(3) 0.5425(3) 0.31775(7)
O12X O 1.0994(3) 0.6015(3) 0.31752(7)
O13X O 0.8978(3) 0.5338(3) 0.28420(7)
O14X O 0.9427(3) 0.5817(4) 0.26871(8)
O15X O 1.1427(5) 0.6527(6) 0.27646(11)
C23X C 1.0515(4) 0.5766(4) 0.31325(11)
C24X C 1.0476(3) 0.5850(3) 0.30043(6)
C25X C 1.0976(2) 0.6140(3) 0.29444(8)
H18X H 1.131839 0.625322 0.297992
C26X C 1.0965(3) 0.6260(4) 0.28314(8)
C27X C 1.0453(4) 0.6090(4) 0.27782(6)
H19X H 1.044622 0.616953 0.270257
C28X C 0.9954(3) 0.5800(3) 0.28381(7)
C29X C 0.9965(2) 0.5680(3) 0.29511(7)
H20X H 0.963067 0.548554 0.299113
C30X C 0.9389(5) 0.5642(5) 0.27829(10)
C31X C 1.1897(9) 0.6668(12) 0.2795(2)
O16X O 0.8292(3) 0.4087(4) 0.39632(7)
O17X O 0.8782(4) 0.4128(4) 0.41173(8)
O18X O 0.7065(4) 0.4884(4) 0.39623(8)
O19X O 0.7019(4) 0.5333(4) 0.41185(8)
O20X O 0.8511(7) 0.5391(7) 0.43778(12)
C32X C 0.8467(5) 0.4232(5) 0.40602(10)
C33X C 0.8272(4) 0.4609(4) 0.41128(7)
C34X C 0.8485(4) 0.4843(5) 0.42174(8)
H21X H 0.876080 0.478984 0.425100
C35X C 0.8285(5) 0.5158(5) 0.42717(7)
C36X C 0.7873(4) 0.5237(4) 0.42214(8)
H22X H 0.774039 0.544697 0.425772
C37X C 0.7661(4) 0.5002(4) 0.41168(8)
C38X C 0.7860(4) 0.4688(4) 0.40625(6)
H23X H 0.771766 0.453095 0.399249
C39X C 0.7190(5) 0.5063(5) 0.40623(11)
O21X O 0.9134(3) 0.4681(4) 0.33558(10)
N1X N 0.8726(8) 0.3737(7) 0.3426(2)
H24X H 0.854297 0.358952 0.336497
C40X C 0.9058(8) 0.4229(8) 0.3431(2)
H25X H 0.930660 0.433915 0.349054
C41X C 0.8637(9) 0.3406(9) 0.3519(2)
H26X H 0.883540 0.356484 0.358487
H27X H 0.837872 0.302176 0.351611
O22X O 1.2018(3) 0.6534(3) 0.33333(9)
O23X O 0.7941(6) 0.3499(5) 0.37380(12)
O24X O 0.9541(5) 0.3682(5) 0.42028(10)
N2X N 0.9979(9) 0.4131(8) 0.43630(16)
H28X H 0.996772 0.434424 0.441459
C42X C 0.9630(11) 0.3956(11) 0.4276(2)
H29X H 0.939597 0.410947 0.427713
C43X C 1.0374(9) 0.3937(10) 0.43642(19)
H30X H 1.058073 0.404535 0.443351
H31X H 1.017796 0.353460 0.435745
H32X H 1.063100 0.410097 0.430248
Cu1Y Cu 0.46915(5) 0.46976(7) 0.33394(2)
Cu2Y Cu 0.40380(5) 0.51483(7) 0.33374(2)
Cu3Y Cu 0.64481(7) 0.48890(10) 0.38834(2)
Cu4Y Cu 0.63926(8) 0.54176(11) 0.40628(2)
O1Y O 0.5279(3) 0.5479(4) 0.33174(7)
O2Y O 0.4728(2) 0.5868(4) 0.33087(8)
O3Y O 0.7306(2) 0.6639(3) 0.33079(7)
O4Y O 0.7706(2) 0.7588(3) 0.32960(7)
O5Y O 0.6049(3) 0.7845(4) 0.31983(8)
C1Y C 0.5188(4) 0.5870(5) 0.33125(10)
C2Y C 0.57135(18) 0.64479(27) 0.32825(7)
C3Y C 0.56620(17) 0.69092(25) 0.32525(7)
H1Y H 0.530721 0.687050 0.324451
C4Y C 0.6141(2) 0.74292(27) 0.32345(7)
C5Y C 0.66711(18) 0.74865(27) 0.32464(7)
H2Y H 0.699153 0.783418 0.323427
C6Y C 0.67226(17) 0.70248(25) 0.32764(7)
C7Y C 0.6243(2) 0.65048(27) 0.32945(7)
H3Y H 0.627826 0.619633 0.331452
C8Y C 0.7307(4) 0.7092(5) 0.32982(11)
C9Y C 0.6535(4) 0.8365(6) 0.31676(11)
H4Y H 0.678625 0.852307 0.323139
H5Y H 0.673739 0.830387 0.310744
C10Y C 0.6337(4) 0.8755(6) 0.31300(12)
H6Y H 0.609189 0.859663 0.306535
H7Y H 0.612556 0.880415 0.318967
C11Y C 0.6871(5) 0.9346(6) 0.30978(12)
H8Y H 0.707819 0.929033 0.303793
H9Y H 0.711814 0.949349 0.316238
C12Y C 0.6712(5) 0.9755(7) 0.30617(13)
H10Y H 0.646699 0.960970 0.299677
H11Y H 0.650574 0.981218 0.312138
C13Y C 0.7217(5) 1.0302(8) 0.30325(14)
H12Y H 0.740575 1.049458 0.310001
H13Y H 0.746811 1.023505 0.298741
H14Y H 0.710347 1.052855 0.299109
O6Y O 0.4712(3) 0.4833(4) 0.34996(7)
O7Y O 0.4191(3) 0.5269(4) 0.34984(7)
O8Y O 0.5806(4) 0.4975(5) 0.38302(7)
O9Y O 0.5767(4) 0.5423(6) 0.39864(8)
O10Y O 0.4188(7) 0.5771(9) 0.39110(12)
C14Y C 0.4514(4) 0.5109(6) 0.35423(11)
C15Y C 0.4615(3) 0.5221(4) 0.36701(6)
C16Y C 0.4340(4) 0.5447(5) 0.37302(9)
H15Y H 0.406821 0.550104 0.369522
C17Y C 0.4471(5) 0.5590(6) 0.38425(9)
C18Y C 0.4877(5) 0.5508(6) 0.38947(6)
H16Y H 0.496512 0.560319 0.396983
C19Y C 0.5152(3) 0.5282(4) 0.38347(7)
C20Y C 0.5021(3) 0.5139(4) 0.37224(7)
H17Y H 0.520536 0.498729 0.368217
C21Y C 0.5643(6) 0.5249(8) 0.38888(11)
C22Y C 0.3626(14) 0.5723(18) 0.3865(3)
O11Y O 0.4575(3) 0.4618(4) 0.31775(7)
O12Y O 0.3985(3) 0.4980(4) 0.31752(7)
O13Y O 0.4662(3) 0.3641(4) 0.28420(7)
O14Y O 0.4183(4) 0.3611(5) 0.26871(8)
O15Y O 0.3473(6) 0.4901(8) 0.27646(11)
C23Y C 0.4234(4) 0.4750(6) 0.31325(11)
C24Y C 0.4150(3) 0.4627(4) 0.30043(6)
C25Y C 0.3860(3) 0.4837(4) 0.29444(8)
H18Y H 0.374678 0.506518 0.297992
C26Y C 0.3740(4) 0.4706(5) 0.28314(8)
C27Y C 0.3910(4) 0.4364(6) 0.27782(6)
H19Y H 0.383047 0.427670 0.270257
C28Y C 0.4200(3) 0.4155(4) 0.28381(7)
C29Y C 0.4320(3) 0.4286(4) 0.29511(7)
H20Y H 0.451446 0.414514 0.299113
C30Y C 0.4358(5) 0.3748(7) 0.27829(10)
C31Y C 0.3332(12) 0.5230(15) 0.2795(2)
O16Y O 0.5913(4) 0.4206(5) 0.39632(7)
O17Y O 0.5872(4) 0.4655(6) 0.41173(8)
O18Y O 0.5116(4) 0.2182(6) 0.39623(8)
O19Y O 0.4667(4) 0.1687(6) 0.41185(8)
O20Y O 0.4609(7) 0.3121(10) 0.43778(12)
C32Y C 0.5768(5) 0.4236(7) 0.40602(10)
C33Y C 0.5391(4) 0.3664(6) 0.41128(7)
C34Y C 0.5157(5) 0.3643(6) 0.42174(8)
H21Y H 0.521016 0.397097 0.425100
C35Y C 0.4842(5) 0.3128(7) 0.42717(7)
C36Y C 0.4763(4) 0.2637(6) 0.42214(8)
H22Y H 0.455303 0.229343 0.425772
C37Y C 0.4998(4) 0.2660(6) 0.41168(8)
C38Y C 0.5312(4) 0.3173(6) 0.40625(6)
H23Y H 0.546905 0.318672 0.399249
C39Y C 0.4937(5) 0.2128(7) 0.40623(11)
O21Y O 0.5319(4) 0.4454(5) 0.33558(10)
N1Y N 0.6263(7) 0.4990(11) 0.3426(2)
H24Y H 0.641048 0.495346 0.336497
C40Y C 0.5771(8) 0.4830(11) 0.3431(2)
H25Y H 0.566085 0.496746 0.349054
C41Y C 0.6594(9) 0.5232(13) 0.3519(2)
H26Y H 0.643516 0.527057 0.358487
H27Y H 0.697824 0.535697 0.351611
O22Y O 0.3466(3) 0.5485(4) 0.33333(9)
O23Y O 0.6501(5) 0.4443(8) 0.37380(12)
O24Y O 0.6318(5) 0.5860(7) 0.42028(10)
N2Y N 0.5869(8) 0.5849(12) 0.43630(16)
H28Y H 0.565576 0.562349 0.441459
C42Y C 0.6044(11) 0.5675(16) 0.4276(2)
H29Y H 0.589053 0.528651 0.427713
C43Y C 0.6063(10) 0.6438(13) 0.43642(19)
H30Y H 0.595465 0.653539 0.443351
H31Y H 0.646540 0.664337 0.435745
H32Y H 0.589903 0.653004 0.430248
Cu1Z Cu 0.53024(7) -0.00060(5) 0.33394(2)
Cu2Z Cu 0.48517(7) -0.11102(5) 0.33374(2)
Cu3Z Cu 0.51110(10) 0.15592(7) 0.38834(2)
Cu4Z Cu 0.45824(11) 0.09751(7) 0.40628(2)
O1Z O 0.4521(4) -0.0199(3) 0.33174(7)
O2Z O 0.4132(4) -0.1139(3) 0.33087(8)
O3Z O 0.3361(3) 0.0668(2) 0.33079(7)
O4Z O 0.2412(3) 0.0119(2) 0.32960(7)
O5Z O 0.2155(4) -0.1795(3) 0.31983(8)
C1Z C 0.4130(5) -0.0681(3) 0.33125(10)
C2Z C 0.35521(27) -0.0734(2) 0.32825(7)
C3Z C 0.30908(25) -0.12471(19) 0.32525(7)
H1Z H 0.312950 -0.156328 0.324451
C4Z C 0.25708(27) -0.12878(18) 0.32345(7)
C5Z C 0.25135(27) -0.0815(2) 0.32464(7)
H2Z H 0.216582 -0.084264 0.323427
C6Z C 0.29752(25) -0.03021(18) 0.32764(7)
C7Z C 0.34952(27) -0.02614(18) 0.32945(7)
H3Z H 0.380367 0.008194 0.331452
C8Z C 0.2908(5) 0.0216(3) 0.32982(11)
C9Z C 0.1635(6) -0.1829(4) 0.31676(11)
H4Z H 0.147693 -0.173681 0.323139
H5Z H 0.169613 -0.156647 0.310744
C10Z C 0.1245(6) -0.2417(4) 0.31300(12)
H6Z H 0.140337 -0.250473 0.306535
H7Z H 0.119585 -0.267858 0.318967
C11Z C 0.0654(6) -0.2474(4) 0.30978(12)
H8Z H 0.070967 -0.221213 0.303793
H9Z H 0.050651 -0.237534 0.316238
C12Z C 0.0245(7) -0.3042(5) 0.30617(13)
H10Z H 0.039030 -0.314270 0.299677
H11Z H 0.018782 -0.330643 0.312138
C13Z C -0.0302(8) -0.3084(6) 0.30325(14)
H12Z H -0.049458 -0.308882 0.310001
H13Z H -0.023505 -0.276693 0.298741
H14Z H -0.052855 -0.342507 0.299109
O6Z O 0.5167(4) -0.0120(3) 0.34996(7)
O7Z O 0.4731(4) -0.1077(3) 0.34984(7)
O8Z O 0.5025(5) 0.0832(3) 0.38302(7)
O9Z O 0.4577(6) 0.0345(4) 0.39864(8)
O10Z O 0.4229(9) -0.1582(5) 0.39110(12)
C14Z C 0.4891(6) -0.0594(4) 0.35423(11)
C15Z C 0.4779(4) -0.0605(3) 0.36701(6)
C16Z C 0.4553(5) -0.1106(3) 0.37302(9)
H15Z H 0.449896 -0.143282 0.369522
C17Z C 0.4410(6) -0.1118(3) 0.38425(9)
C18Z C 0.4492(6) -0.0630(4) 0.38947(6)
H16Z H 0.439681 -0.063806 0.396983
C19Z C 0.4718(4) -0.0129(3) 0.38347(7)
C20Z C 0.4861(4) -0.0117(3) 0.37224(7)
H17Z H 0.501271 0.021808 0.368217
C21Z C 0.4751(8) 0.0395(5) 0.38888(11)
C22Z C 0.4277(18) -0.2096(12) 0.3865(3)
O11Z O 0.5382(4) -0.0042(3) 0.31775(7)
O12Z O 0.5020(4) -0.0994(3) 0.31752(7)
O13Z O 0.6359(4) 0.1022(3) 0.28420(7)
O14Z O 0.6389(5) 0.0573(3) 0.26871(8)
O15Z O 0.5099(8) -0.1427(5) 0.27646(11)
C23Z C 0.5250(6) -0.0515(4) 0.31325(11)
C24Z C 0.5373(4) -0.0476(3) 0.30043(6)
C25Z C 0.5163(4) -0.0976(2) 0.29444(8)
H18Z H 0.493482 -0.131839 0.297992
C26Z C 0.5294(5) -0.0965(3) 0.28314(8)
C27Z C 0.5636(6) -0.0453(4) 0.27782(6)
H19Z H 0.572330 -0.044622 0.270257
C28Z C 0.5845(4) 0.0046(3) 0.28381(7)
C29Z C 0.5714(4) 0.0035(2) 0.29511(7)
H20Z H 0.585486 0.036933 0.299113
C30Z C 0.6252(7) 0.0611(5) 0.27829(10)
C31Z C 0.4770(15) -0.1897(9) 0.2795(2)
O16Z O 0.5794(5) 0.1708(3) 0.39632(7)
O17Z O 0.5345(6) 0.1218(4) 0.41173(8)
O18Z O 0.7818(6) 0.2935(4) 0.39623(8)
O19Z O 0.8313(6) 0.2981(4) 0.41185(8)
O20Z O 0.6879(10) 0.1489(7) 0.43778(12)
C32Z C 0.5764(7) 0.1533(5) 0.40602(10)
C33Z C 0.6336(6) 0.1728(4) 0.41128(7)
C34Z C 0.6357(6) 0.1515(4) 0.42174(8)
H21Z H 0.602903 0.123920 0.425100
C35Z C 0.6872(7) 0.1715(5) 0.42717(7)
C36Z C 0.7363(6) 0.2127(4) 0.42214(8)
H22Z H 0.770657 0.225961 0.425772
C37Z C 0.7340(6) 0.2339(4) 0.41168(8)
C38Z C 0.6827(6) 0.2140(4) 0.40625(6)
H23Z H 0.681328 0.228234 0.399249
C39Z C 0.7872(7) 0.2810(5) 0.40623(11)
O21Z O 0.5546(5) 0.0866(3) 0.33558(10)
N1Z N 0.5010(11) 0.1274(8) 0.3426(2)
H24Z H 0.504654 0.145703 0.336497
C40Z C 0.5170(11) 0.0942(8) 0.3431(2)
H25Z H 0.503254 0.069340 0.349054
C41Z C 0.4768(13) 0.1363(9) 0.3519(2)
H26Z H 0.472943 0.116460 0.358487
H27Z H 0.464303 0.162128 0.351611
O22Z O 0.4515(4) -0.2018(3) 0.33333(9)
O23Z O 0.5557(8) 0.2059(6) 0.37380(12)
O24Z O 0.4140(7) 0.0459(5) 0.42028(10)
N2Z N 0.4151(12) 0.0021(9) 0.43630(16)
H28Z H 0.437651 0.003228 0.441459
C42Z C 0.4325(16) 0.0370(11) 0.4276(2)
H29Z H 0.471349 0.060403 0.427713
C43Z C 0.3562(13) -0.0374(9) 0.43642(19)
H30Z H 0.346461 -0.058073 0.443351
H31Z H 0.335663 -0.017796 0.435745
H32Z H 0.346996 -0.063100 0.430248
loop_
_geom_bond_atom_site_label_1
_geom_bond_atom_site_label_2
_geom_bond_site_symmetry_1
_geom_bond_site_symmetry_2
Cu1 O1 1_555 1_555
Cu2 O2 1_555 1_555
Cu3 O8 1_555 1_555
Cu4 O9 1_555 1_555
O1 C1 1_555 1_555
O2 C1 1_555 1_555
O3 C8 1_555 1_555
O4 C8 1_555 1_555
O5 C4 1_555 1_555
C1 C2 1_555 1_555
C2 C3 1_555 1_555
C3 H1 1_555 1_555
C4 C3 1_555 1_555
C5 C4 1_555 1_555
H2 C5 1_555 1_555
C6 C5 1_555 1_555
C7 C2 1_555 1_555
H3 C7 1_555 1_555
C8 C6 1_555 1_555
C9 O5 1_555 1_555
H4 C9 1_555 1_555
H5 C9 1_555 1_555
C10 C9 1_555 1_555
H6 C10 1_555 1_555
H7 C10 1_555 1_555
C11 C10 1_555 1_555
H8 C11 1_555 1_555
H9 C11 1_555 1_555
C12 C11 1_555 1_555
H10 C12 1_555 1_555
H11 C12 1_555 1_555
C13 C12 1_555 1_555
H12 C13 1_555 1_555
H13 C13 1_555 1_555
H14 C13 1_555 1_555
O6 Cu1 1_555 1_555
O7 Cu2 1_555 1_555
O8 C21 1_555 1_555
O9 C21 1_555 1_555
O10 C17 1_555 1_555
C14 O6 1_555 1_555
C15 C14 1_555 1_555
C16 C15 1_555 1_555
H15 C16 1_555 1_555
C17 C16 1_555 1_555
C18 C17 1_555 1_555
H16 C18 1_555 1_555
C19 C18 1_555 1_555
C20 C15 1_555 1_555
H17 C20 1_555 1_555
C21 C19 1_555 1_555
C22 O10 1_555 1_555
O11 Cu1 1_555 1_555
O12 Cu2 1_555 1_555
O13 C30 1_555 1_555
O14 C30 1_555 1_555
O15 C26 1_555 1_555
C23 O11 1_555 1_555
C24 C23 1_555 1_555
C25 C24 1_555 1_555
H18 C25 1_555 1_555
C26 C25 1_555 1_555
C27 C26 1_555 1_555
H19 C27 1_555 1_555
C28 C27 1_555 1_555
C29 C24 1_555 1_555
H20 C29 1_555 1_555
C30 C28 1_555 1_555
C31 O15 1_555 1_555
O16 Cu3 1_555 1_555
O17 Cu4 1_555 1_555
O18 C39 1_555 1_555
O19 C39 1_555 1_555
O20 C35 1_555 1_555
C32 O16 1_555 1_555
C33 C32 1_555 1_555
C34 C33 1_555 1_555
H21 C34 1_555 1_555
C35 C34 1_555 1_555
C36 C35 1_555 1_555
H22 C36 1_555 1_555
C37 C36 1_555 1_555
C38 C33 1_555 1_555
H23 C38 1_555 1_555
C39 C37 1_555 1_555
O21 Cu1 1_555 1_555
N1 H24 1_555 1_555
C40 O21 1_555 1_555
H25 C40 1_555 1_555
C41 N1 1_555 1_555
H26 C41 1_555 1_555
H27 C41 1_555 1_555
O22 Cu2 1_555 1_555
O23 Cu3 1_555 1_555
O24 Cu4 1_555 1_555
N2 H28 1_555 1_555
C42 O24 1_555 1_555
H29 C42 1_555 1_555
C43 N2 1_555 1_555
H30 C43 1_555 1_555
H31 C43 1_555 1_555
H32 C43 1_555 1_555
Cu1A O1A 1_555 1_555
Cu2A O2A 1_555 1_555
Cu3A O18 1_555 1_555
Cu4A O19 1_555 1_555
O1A C1A 1_555 1_555
O2A C1A 1_555 1_555
O3A C8A 1_555 1_555
O4A C8A 1_555 1_555
O5A C4A 1_555 1_555
C1A C2A 1_555 1_555
C2A C3A 1_555 1_555
C3A H1A 1_555 1_555
C4A C3A 1_555 1_555
C5A C4A 1_555 1_555
H2A C5A 1_555 1_555
C6A C5A 1_555 1_555
C7A C2A 1_555 1_555
H3A C7A 1_555 1_555
C8A C6A 1_555 1_555
C9A O5A 1_555 1_555
H4A C9A 1_555 1_555
H5A C9A 1_555 1_555
C10A C9A 1_555 1_555
H6A C10A 1_555 1_555
H7A C10A 1_555 1_555
C11A C10A 1_555 1_555
H8A C11A 1_555 1_555
H9A C11A 1_555 1_555
C12A C11A 1_555 1_555
H10A C12A 1_555 1_555
H11A C12A 1_555 1_555
C13A C12A 1_555 1_555
H12A C13A 1_555 1_555
H13A C13A 1_555 1_555
H14A C13A 1_555 1_555
O6A Cu1A 1_555 1_555
O7A Cu2A 1_555 1_555
O8A Cu3A 1_555 1_555
O9A Cu4A 1_555 1_555
O10A C17A 1_555 1_555
C14A O6A 1_555 1_555
C15A C14A 1_555 1_555
C16A C15A 1_555 1_555
H15A C16A 1_555 1_555
C17A C16A 1_555 1_555
C18A C17A 1_555 1_555
H16A C18A 1_555 1_555
C19A C18A 1_555 1_555
C20A C15A 1_555 1_555
H17A C20A 1_555 1_555
C21A O8A 1_555 1_555
C22A O10A 1_555 1_555
O11A Cu1A 1_555 1_555
O12A Cu2A 1_555 1_555
O13A C30A 1_555 1_555
O14A C30A 1_555 1_555
O15A C26A 1_555 1_555
C23A O11A 1_555 1_555
C24A C23A 1_555 1_555
C25A C24A 1_555 1_555
H18A C25A 1_555 1_555
C26A C25A 1_555 1_555
C27A C26A 1_555 1_555
H19A C27A 1_555 1_555
C28A C27A 1_555 1_555
C29A C24A 1_555 1_555
H20A C29A 1_555 1_555
C30A C28A 1_555 1_555
C31A O15A 1_555 1_555
O16A Cu3A 1_555 1_555
O17A Cu4A 1_555 1_555
O18A C39A 1_555 1_555
O19A C39A 1_555 1_555
O20A C35A 1_555 1_555
C32A O16A 1_555 1_555
C33A C32A 1_555 1_555
C34A C33A 1_555 1_555
H21A C34A 1_555 1_555
C35A C34A 1_555 1_555
C36A C35A 1_555 1_555
H22A C36A 1_555 1_555
C37A C36A 1_555 1_555
C38A C33A 1_555 1_555
H23A C38A 1_555 1_555
C39A C37A 1_555 1_555
O21A Cu1A 1_555 1_555
N1A H24A 1_555 1_555
C40A O21A 1_555 1_555
H25A C40A 1_555 1_555
C41A N1A 1_555 1_555
H26A C41A 1_555 1_555
H27A C41A 1_555 1_555
O22A Cu2A 1_555 1_555
O23A Cu3A 1_555 1_555
O24A Cu4A 1_555 1_555
N2A H28A 1_555 1_555
C42A O24A 1_555 1_555
H29A C42A 1_555 1_555
C43A N2A 1_555 1_555
H30A C43A 1_555 1_555
H31A C43A 1_555 1_555
H32A C43A 1_555 1_555
Cu1B O1B 1_555 1_555
Cu2B O2B 1_555 1_555
Cu3B O18A 1_555 1_555
Cu4B O19A 1_555 1_555
O1B C1B 1_555 1_555
O2B C1B 1_555 1_555
O3B C8B 1_555 1_555
O4B C8B 1_555 1_555
O5B C4B 1_555 1_555
C1B C2B 1_555 1_555
C2B C3B 1_555 1_555
C3B H1B 1_555 1_555
C4B C3B 1_555 1_555
C5B C4B 1_555 1_555
H2B C5B 1_555 1_555
C6B C5B 1_555 1_555
C7B C2B 1_555 1_555
H3B C7B 1_555 1_555
C8B C6B 1_555 1_555
C9B O5B 1_555 1_555
H4B C9B 1_555 1_555
H5B C9B 1_555 1_555
C10B C9B 1_555 1_555
H6B C10B 1_555 1_555
H7B C10B 1_555 1_555
C11B C10B 1_555 1_555
H8B C11B 1_555 1_555
H9B C11B 1_555 1_555
C12B C11B 1_555 1_555
H10B C12B 1_555 1_555
H11B C12B 1_555 1_555
C13B C12B 1_555 1_555
H12B C13B 1_555 1_555
H13B C13B 1_555 1_555
H14B C13B 1_555 1_555
O6B Cu1B 1_555 1_555
O7B Cu2B 1_555 1_555
O8B Cu3B 1_555 1_555
O9B Cu4B 1_555 1_555
O10B C17B 1_555 1_555
C14B O6B 1_555 1_555
C15B C14B 1_555 1_555
C16B C15B 1_555 1_555
H15B C16B 1_555 1_555
C17B C16B 1_555 1_555
C18B C17B 1_555 1_555
H16B C18B 1_555 1_555
C19B C18B 1_555 1_555
C20B C15B 1_555 1_555
H17B C20B 1_555 1_555
C21B O8B 1_555 1_555
C22B O10B 1_555 1_555
O11B Cu1B 1_555 1_555
O12B Cu2B 1_555 1_555
O13B C30B 1_555 1_555
O14B C30B 1_555 1_555
O15B C26B 1_555 1_555
C23B O11B 1_555 1_555
C24B C23B 1_555 1_555
C25B C24B 1_555 1_555
H18B C25B 1_555 1_555
C26B C25B 1_555 1_555
C27B C26B 1_555 1_555
H19B C27B 1_555 1_555
C28B C27B 1_555 1_555
C29B C24B 1_555 1_555
H20B C29B 1_555 1_555
C30B C28B 1_555 1_555
C31B O15B 1_555 1_555
O16B Cu3B 1_555 1_555
O17B Cu4B 1_555 1_555
O18B Cu3 1_555 1_555
O19B Cu4 1_555 1_555
O20B C35B 1_555 1_555
C32B O16B 1_555 1_555
C33B C32B 1_555 1_555
C34B C33B 1_555 1_555
H21B C34B 1_555 1_555
C35B C34B 1_555 1_555
C36B C35B 1_555 1_555
H22B C36B 1_555 1_555
C37B C36B 1_555 1_555
C38B C33B 1_555 1_555
H23B C38B 1_555 1_555
C39B O18B 1_555 1_555
O21B Cu1B 1_555 1_555
N1B H24B 1_555 1_555
C40B O21B 1_555 1_555
H25B C40B 1_555 1_555
C41B N1B 1_555 1_555
H26B C41B 1_555 1_555
H27B C41B 1_555 1_555
O22B Cu2B 1_555 1_555
O23B Cu3B 1_555 1_555
O24B Cu4B 1_555 1_555
N2B H28B 1_555 1_555
C42B O24B 1_555 1_555
H29B C42B 1_555 1_555
C43B N2B 1_555 1_555
H30B C43B 1_555 1_555
H31B C43B 1_555 1_555
H32B C43B 1_555 1_555
Cu1X O3B 1_555 1_555
Cu2X O4B 1_555 1_555
Cu3X O13A 1_555 1_555
Cu4X O14A 1_555 1_555
O1X Cu1X 1_555 1_555
O2X Cu2X 1_555 1_555
O3X Cu1A 1_555 1_555
O4X Cu2A 1_555 1_555
O5X C4X 1_555 1_555
C1X O1X 1_555 1_555
C2X C1X 1_555 1_555
C3X C2X 1_555 1_555
H1X C3X 1_555 1_555
C4X C3X 1_555 1_555
C5X C4X 1_555 1_555
H2X C5X 1_555 1_555
C6X C5X 1_555 1_555
C7X C2X 1_555 1_555
H3X C7X 1_555 1_555
C8X O3X 1_555 1_555
C9X O5X 1_555 1_555
H4X C9X 1_555 1_555
H5X C9X 1_555 1_555
C10X C9X 1_555 1_555
H6X C10X 1_555 1_555
H7X C10X 1_555 1_555
C11X C10X 1_555 1_555
H8X C11X 1_555 1_555
H9X C11X 1_555 1_555
C12X C11X 1_555 1_555
H10X C12X 1_555 1_555
H11X C12X 1_555 1_555
C13X C12X 1_555 1_555
H12X C13X 1_555 1_555
H13X C13X 1_555 1_555
H14X C13X 1_555 1_555
O6X Cu1X 1_555 1_555
O7X Cu2X 1_555 1_555
O8X Cu3X 1_555 1_555
O9X Cu4X 1_555 1_555
O10X C17X 1_555 1_555
C14X O6X 1_555 1_555
C15X C14X 1_555 1_555
C16X C15X 1_555 1_555
H15X C16X 1_555 1_555
C17X C16X 1_555 1_555
C18X C17X 1_555 1_555
H16X C18X 1_555 1_555
C19X C18X 1_555 1_555
C20X C15X 1_555 1_555
H17X C20X 1_555 1_555
C21X O8X 1_555 1_555
C22X O10X 1_555 1_555
O11X Cu1X 1_555 1_555
O12X Cu2X 1_555 1_555
O13X Cu3B 1_555 1_555
O14X Cu4B 1_555 1_555
O15X C26X 1_555 1_555
C23X O11X 1_555 1_555
C24X C23X 1_555 1_555
C25X C24X 1_555 1_555
H18X C25X 1_555 1_555
C26X C25X 1_555 1_555
C27X C26X 1_555 1_555
H19X C27X 1_555 1_555
C28X C27X 1_555 1_555
C29X C24X 1_555 1_555
H20X C29X 1_555 1_555
C30X O13X 1_555 1_555
C31X O15X 1_555 1_555
O16X Cu3X 1_555 1_555
O17X Cu4X 1_555 1_555
O18X C39X 1_555 1_555
O19X C39X 1_555 1_555
O20X C35X 1_555 1_555
C32X O16X 1_555 1_555
C33X C32X 1_555 1_555
C34X C33X 1_555 1_555
H21X C34X 1_555 1_555
C35X C34X 1_555 1_555
C36X C35X 1_555 1_555
H22X C36X 1_555 1_555
C37X C36X 1_555 1_555
C38X C33X 1_555 1_555
H23X C38X 1_555 1_555
C39X C37X 1_555 1_555
O21X Cu1X 1_555 1_555
N1X H24X 1_555 1_555
C40X O21X 1_555 1_555
H25X C40X 1_555 1_555
C41X N1X 1_555 1_555
H26X C41X 1_555 1_555
H27X C41X 1_555 1_555
O22X Cu2X 1_555 1_555
O23X Cu3X 1_555 1_555
O24X Cu4X 1_555 1_555
N2X H28X 1_555 1_555
C42X O24X 1_555 1_555
H29X C42X 1_555 1_555
C43X N2X 1_555 1_555
H30X C43X 1_555 1_555
H31X C43X 1_555 1_555
H32X C43X 1_555 1_555
Cu1Y O3 1_555 1_555
Cu2Y O4 1_555 1_555
Cu3Y O13B 1_555 1_555
Cu4Y O14B 1_555 1_555
O1Y Cu1Y 1_555 1_555
O2Y Cu2Y 1_555 1_555
O3Y Cu1B 1_555 1_555
O4Y Cu2B 1_555 1_555
O5Y C4Y 1_555 1_555
C1Y O1Y 1_555 1_555
C2Y C1Y 1_555 1_555
C3Y C2Y 1_555 1_555
H1Y C3Y 1_555 1_555
C4Y C3Y 1_555 1_555
C5Y C4Y 1_555 1_555
H2Y C5Y 1_555 1_555
C6Y C5Y 1_555 1_555
C7Y C2Y 1_555 1_555
H3Y C7Y 1_555 1_555
C8Y O3Y 1_555 1_555
C9Y O5Y 1_555 1_555
H4Y C9Y 1_555 1_555
H5Y C9Y 1_555 1_555
C10Y C9Y 1_555 1_555
H6Y C10Y 1_555 1_555
H7Y C10Y 1_555 1_555
C11Y C10Y 1_555 1_555
H8Y C11Y 1_555 1_555
H9Y C11Y 1_555 1_555
C12Y C11Y 1_555 1_555
H10Y C12Y 1_555 1_555
H11Y C12Y 1_555 1_555
C13Y C12Y 1_555 1_555
H12Y C13Y 1_555 1_555
H13Y C13Y 1_555 1_555
H14Y C13Y 1_555 1_555
O6Y Cu1Y 1_555 1_555
O7Y Cu2Y 1_555 1_555
O8Y Cu3Y 1_555 1_555
O9Y Cu4Y 1_555 1_555
O10Y C17Y 1_555 1_555
C14Y O6Y 1_555 1_555
C15Y C14Y 1_555 1_555
C16Y C15Y 1_555 1_555
H15Y C16Y 1_555 1_555
C17Y C16Y 1_555 1_555
C18Y C17Y 1_555 1_555
H16Y C18Y 1_555 1_555
C19Y C18Y 1_555 1_555
C20Y C15Y 1_555 1_555
H17Y C20Y 1_555 1_555
C21Y O8Y 1_555 1_555
C22Y O10Y 1_555 1_555
O11Y Cu1Y 1_555 1_555
O12Y Cu2Y 1_555 1_555
O13Y Cu3 1_555 1_555
O14Y Cu4 1_555 1_555
O15Y C26Y 1_555 1_555
C23Y O11Y 1_555 1_555
C24Y C23Y 1_555 1_555
C25Y C24Y 1_555 1_555
H18Y C25Y 1_555 1_555
C26Y C25Y 1_555 1_555
C27Y C26Y 1_555 1_555
H19Y C27Y 1_555 1_555
C28Y C27Y 1_555 1_555
C29Y C24Y 1_555 1_555
H20Y C29Y 1_555 1_555
C30Y O13Y 1_555 1_555
C31Y O15Y 1_555 1_555
O16Y Cu3Y 1_555 1_555
O17Y Cu4Y 1_555 1_555
O18Y C39Y 1_555 1_555
O19Y C39Y 1_555 1_555
O20Y C35Y 1_555 1_555
C32Y O16Y 1_555 1_555
C33Y C32Y 1_555 1_555
C34Y C33Y 1_555 1_555
H21Y C34Y 1_555 1_555
C35Y C34Y 1_555 1_555
C36Y C35Y 1_555 1_555
H22Y C36Y 1_555 1_555
C37Y C36Y 1_555 1_555
C38Y C33Y 1_555 1_555
H23Y C38Y 1_555 1_555
C39Y C37Y 1_555 1_555
O21Y Cu1Y 1_555 1_555
N1Y H24Y 1_555 1_555
C40Y O21Y 1_555 1_555
H25Y C40Y 1_555 1_555
C41Y N1Y 1_555 1_555
H26Y C41Y 1_555 1_555
H27Y C41Y 1_555 1_555
O22Y Cu2Y 1_555 1_555
O23Y Cu3Y 1_555 1_555
O24Y Cu4Y 1_555 1_555
N2Y H28Y 1_555 1_555
C42Y O24Y 1_555 1_555
H29Y C42Y 1_555 1_555
C43Y N2Y 1_555 1_555
H30Y C43Y 1_555 1_555
H31Y C43Y 1_555 1_555
H32Y C43Y 1_555 1_555
Cu1Z O3A 1_555 1_555
Cu2Z O4A 1_555 1_555
Cu3Z O13 1_555 1_555
Cu4Z O14 1_555 1_555
O1Z Cu1Z 1_555 1_555
O2Z Cu2Z 1_555 1_555
O3Z Cu1 1_555 1_555
O4Z Cu2 1_555 1_555
O5Z C4Z 1_555 1_555
C1Z O1Z 1_555 1_555
C2Z C1Z 1_555 1_555
C3Z C2Z 1_555 1_555
H1Z C3Z 1_555 1_555
C4Z C3Z 1_555 1_555
C5Z C4Z 1_555 1_555
H2Z C5Z 1_555 1_555
C6Z C5Z 1_555 1_555
C7Z C2Z 1_555 1_555
H3Z C7Z 1_555 1_555
C8Z O3Z 1_555 1_555
C9Z O5Z 1_555 1_555
H4Z C9Z 1_555 1_555
H5Z C9Z 1_555 1_555
C10Z C9Z 1_555 1_555
H6Z C10Z 1_555 1_555
H7Z C10Z 1_555 1_555
C11Z C10Z 1_555 1_555
H8Z C11Z 1_555 1_555
H9Z C11Z 1_555 1_555
C12Z C11Z 1_555 1_555
H10Z C12Z 1_555 1_555
H11Z C12Z 1_555 1_555
C13Z C12Z 1_555 1_555
H12Z C13Z 1_555 1_555
H13Z C13Z 1_555 1_555
H14Z C13Z 1_555 1_555
O6Z Cu1Z 1_555 1_555
O7Z Cu2Z 1_555 1_555
O8Z Cu3Z 1_555 1_555
O9Z Cu4Z 1_555 1_555
O10Z C17Z 1_555 1_555
C14Z O6Z 1_555 1_555
C15Z C14Z 1_555 1_555
C16Z C15Z 1_555 1_555
H15Z C16Z 1_555 1_555
C17Z C16Z 1_555 1_555
C18Z C17Z 1_555 1_555
H16Z C18Z 1_555 1_555
C19Z C18Z 1_555 1_555
C20Z C15Z 1_555 1_555
H17Z C20Z 1_555 1_555
C21Z O8Z 1_555 1_555
C22Z O10Z 1_555 1_555
O11Z Cu1Z 1_555 1_555
O12Z Cu2Z 1_555 1_555
O13Z Cu3A 1_555 1_555
O14Z Cu4A 1_555 1_555
O15Z C26Z 1_555 1_555
C23Z O11Z 1_555 1_555
C24Z C23Z 1_555 1_555
C25Z C24Z 1_555 1_555
H18Z C25Z 1_555 1_555
C26Z C25Z 1_555 1_555
C27Z C26Z 1_555 1_555
H19Z C27Z 1_555 1_555
C28Z C27Z 1_555 1_555
C29Z C24Z 1_555 1_555
H20Z C29Z 1_555 1_555
C30Z O13Z 1_555 1_555
C31Z O15Z 1_555 1_555
O16Z Cu3Z 1_555 1_555
O17Z Cu4Z 1_555 1_555
O18Z Cu3X 1_555 1_555
O19Z Cu4X 1_555 1_555
O20Z C35Z 1_555 1_555
C32Z O16Z 1_555 1_555
C33Z C32Z 1_555 1_555
C34Z C33Z 1_555 1_555
H21Z C34Z 1_555 1_555
C35Z C34Z 1_555 1_555
C36Z C35Z 1_555 1_555
H22Z C36Z 1_555 1_555
C37Z C36Z 1_555 1_555
C38Z C33Z 1_555 1_555
H23Z C38Z 1_555 1_555
C39Z O18Z 1_555 1_555
O21Z Cu1Z 1_555 1_555
N1Z H24Z 1_555 1_555
C40Z O21Z 1_555 1_555
H25Z C40Z 1_555 1_555
C41Z N1Z 1_555 1_555
H26Z C41Z 1_555 1_555
H27Z C41Z 1_555 1_555
O22Z Cu2Z 1_555 1_555
O23Z Cu3Z 1_555 1_555
O24Z Cu4Z 1_555 1_555
N2Z H28Z 1_555 1_555
C42Z O24Z 1_555 1_555
H29Z C42Z 1_555 1_555
C43Z N2Z 1_555 1_555
H30Z C43Z 1_555 1_555
H31Z C43Z 1_555 1_555
H32Z C43Z 1_555 1_555
C6 C7 1_555 1_555
O7 C14 1_555 1_555
C19 C20 1_555 1_555
O12 C23 1_555 1_555
C28 C29 1_555 1_555
O17 C32 1_555 1_555
C37 C38 1_555 1_555
N1 C40 1_555 1_555
N2 C42 1_555 1_555
C6A C7A 1_555 1_555
O7A C14A 1_555 1_555
O9A C21A 1_555 1_555
C19A C20A 1_555 1_555
C19A C21A 1_555 1_555
O12A C23A 1_555 1_555
C28A C29A 1_555 1_555
O17A C32A 1_555 1_555
C37A C38A 1_555 1_555
N1A C40A 1_555 1_555
N2A C42A 1_555 1_555
C6B C7B 1_555 1_555
O7B C14B 1_555 1_555
O9B C21B 1_555 1_555
C19B C20B 1_555 1_555
C19B C21B 1_555 1_555
O12B C23B 1_555 1_555
C28B C29B 1_555 1_555
O17B C32B 1_555 1_555
O19B C39B 1_555 1_555
C37B C38B 1_555 1_555
C37B C39B 1_555 1_555
N1B C40B 1_555 1_555
N2B C42B 1_555 1_555
O2X C1X 1_555 1_555
O4X C8X 1_555 1_555
C6X C7X 1_555 1_555
C6X C8X 1_555 1_555
O7X C14X 1_555 1_555
O9X C21X 1_555 1_555
C19X C20X 1_555 1_555
C19X C21X 1_555 1_555
O12X C23X 1_555 1_555
O14X C30X 1_555 1_555
C28X C29X 1_555 1_555
C28X C30X 1_555 1_555
O17X C32X 1_555 1_555
O18X Cu3Y 1_555 1_555
O19X Cu4Y 1_555 1_555
C37X C38X 1_555 1_555
N1X C40X 1_555 1_555
N2X C42X 1_555 1_555
O2Y C1Y 1_555 1_555
O4Y C8Y 1_555 1_555
C6Y C7Y 1_555 1_555
C6Y C8Y 1_555 1_555
O7Y C14Y 1_555 1_555
O9Y C21Y 1_555 1_555
C19Y C20Y 1_555 1_555
C19Y C21Y 1_555 1_555
O12Y C23Y 1_555 1_555
O14Y C30Y 1_555 1_555
C28Y C29Y 1_555 1_555
C28Y C30Y 1_555 1_555
O17Y C32Y 1_555 1_555
O18Y Cu3Z 1_555 1_555
O19Y Cu4Z 1_555 1_555
C37Y C38Y 1_555 1_555
N1Y C40Y 1_555 1_555
N2Y C42Y 1_555 1_555
O2Z C1Z 1_555 1_555
O4Z C8Z 1_555 1_555
C6Z C7Z 1_555 1_555
C6Z C8Z 1_555 1_555
O7Z C14Z 1_555 1_555
O9Z C21Z 1_555 1_555
C19Z C20Z 1_555 1_555
C19Z C21Z 1_555 1_555
O12Z C23Z 1_555 1_555
O14Z C30Z 1_555 1_555
C28Z C29Z 1_555 1_555
C28Z C30Z 1_555 1_555
O17Z C32Z 1_555 1_555
O19Z C39Z 1_555 1_555
C37Z C38Z 1_555 1_555
C37Z C39Z 1_555 1_555
N1Z C40Z 1_555 1_555
N2Z C42Z 1_555 1_555

#END
