
#######################################################################
#
#                 Cambridge Crystallographic Data Centre
#                                CCDC 
#
#######################################################################
#
# If this CIF has been generated from an entry in the Cambridge 
# Structural Database, then it will include bibliographic, chemical, 
# crystal, experimental, refinement or atomic coordinate data resulting 
# from the CCDC's data processing and validation procedures.
#
#######################################################################

data_JANZEE
_chemical_name_common            IRMOF-51c
_chemical_formula_moiety         'C144 H108 Fe12 N12 O76 S12 8-,8(C2 H8 N1 1+)'
_chemical_name_systematic        
"octakis(Dimethylammonium) hexakis(\m~4~-4,4'-biphenyldicarboxylato-O,O',O'',O''')-tetrakis(\m~3~-oxo)-dodecakis(\m~2~-sulfato-O,O')-dodecakis(pyridine-N)-dodeca-iron unknown clathrate"
_symmetry_cell_setting           cubic
_symmetry_space_group_name_H-M   'F -4 3 m'
_symmetry_Int_Tables_number      216
_space_group_name_Hall           'F -4 2 3'
loop_
_symmetry_equiv_pos_site_id
_symmetry_equiv_pos_as_xyz
1 x,y,z
2 -x,-y,z
3 -x,y,-z
4 x,-y,-z
5 z,x,y
6 z,-x,-y
7 -z,-x,y
8 -z,x,-y
9 y,z,x
10 -y,z,-x
11 y,-z,-x
12 -y,-z,x
13 y,x,z
14 -y,-x,z
15 y,-x,-z
16 -y,x,-z
17 x,z,y
18 -x,z,-y
19 -x,-z,y
20 x,-z,-y
21 z,y,x
22 z,-y,-x
23 -z,y,-x
24 -z,-y,x
25 x,1/2+y,1/2+z
26 -x,1/2-y,1/2+z
27 -x,1/2+y,1/2-z
28 x,1/2-y,1/2-z
29 z,1/2+x,1/2+y
30 z,1/2-x,1/2-y
31 -z,1/2-x,1/2+y
32 -z,1/2+x,1/2-y
33 y,1/2+z,1/2+x
34 -y,1/2+z,1/2-x
35 y,1/2-z,1/2-x
36 -y,1/2-z,1/2+x
37 y,1/2+x,1/2+z
38 -y,1/2-x,1/2+z
39 y,1/2-x,1/2-z
40 -y,1/2+x,1/2-z
41 x,1/2+z,1/2+y
42 -x,1/2+z,1/2-y
43 -x,1/2-z,1/2+y
44 x,1/2-z,1/2-y
45 z,1/2+y,1/2+x
46 z,1/2-y,1/2-x
47 -z,1/2+y,1/2-x
48 -z,1/2-y,1/2+x
49 1/2+x,y,1/2+z
50 1/2-x,-y,1/2+z
51 1/2-x,y,1/2-z
52 1/2+x,-y,1/2-z
53 1/2+z,x,1/2+y
54 1/2+z,-x,1/2-y
55 1/2-z,-x,1/2+y
56 1/2-z,x,1/2-y
57 1/2+y,z,1/2+x
58 1/2-y,z,1/2-x
59 1/2+y,-z,1/2-x
60 1/2-y,-z,1/2+x
61 1/2+y,x,1/2+z
62 1/2-y,-x,1/2+z
63 1/2+y,-x,1/2-z
64 1/2-y,x,1/2-z
65 1/2+x,z,1/2+y
66 1/2-x,z,1/2-y
67 1/2-x,-z,1/2+y
68 1/2+x,-z,1/2-y
69 1/2+z,y,1/2+x
70 1/2+z,-y,1/2-x
71 1/2-z,y,1/2-x
72 1/2-z,-y,1/2+x
73 1/2+x,1/2+y,z
74 1/2-x,1/2-y,z
75 1/2-x,1/2+y,-z
76 1/2+x,1/2-y,-z
77 1/2+z,1/2+x,y
78 1/2+z,1/2-x,-y
79 1/2-z,1/2-x,y
80 1/2-z,1/2+x,-y
81 1/2+y,1/2+z,x
82 1/2-y,1/2+z,-x
83 1/2+y,1/2-z,-x
84 1/2-y,1/2-z,x
85 1/2+y,1/2+x,z
86 1/2-y,1/2-x,z
87 1/2+y,1/2-x,-z
88 1/2-y,1/2+x,-z
89 1/2+x,1/2+z,y
90 1/2-x,1/2+z,-y
91 1/2-x,1/2-z,y
92 1/2+x,1/2-z,-y
93 1/2+z,1/2+y,x
94 1/2+z,1/2-y,-x
95 1/2-z,1/2+y,-x
96 1/2-z,1/2-y,x
_cell_length_a                   38.508(9)
_cell_length_b                   38.508(9)
_cell_length_c                   38.508(9)
_cell_angle_alpha                90
_cell_angle_beta                 90
_cell_angle_gamma                90
_cell_volume                     57102.2
_exptl_crystal_colour            orange
_exptl_crystal_description       cube
_cell_formula_units_Z            4
loop_
_atom_site_label
_atom_site_type_symbol
_atom_site_fract_x
_atom_site_fract_y
_atom_site_fract_z
Fe1 Fe 0.83141(3) 0.16859(3) 0.89241(4)
S1 S 0.76059(10) 0.14157(8) 0.85844(8)
O1 O 0.85054(16) 0.14946(16) 0.85054(16)
O2 O 0.82650(17) 0.12274(19) 0.91756(16)
O3 O 0.78266(14) 0.16741(16) 0.87679(15)
O4 O 0.7341(2) 0.1609(2) 0.8391(2)
O5 O 0.7466(3) 0.1166(2) 0.8834(2)
N1 N 0.8104(2) 0.1896(2) 0.9394(3)
C1 C 0.8250(4) 0.0906(3) 0.9094(3)
C2 C 0.8235(4) 0.0662(3) 0.9338(3)
C3 C 0.8251(5) 0.0727(3) 0.9668(4)
H1 H 0.8285 0.0963 0.9731
C4 C 0.8221(6) 0.0482(3) 0.9949(3)
H2 H 0.8207 0.0556 1.0184
C5 C 0.8214(6) 0.0138(2) 0.9862(2)
C6 C 0.8239(4) 0.2166(4) 0.9556(3)
H3 H 0.8442 0.2264 0.9456
C7 C 0.8110(4) 0.2332(4) 0.9876(4)
H4 H 0.8223 0.2523 0.9984
C8 C 0.7814(5) 0.2186(5) 1.0004(6)
H5 H 0.7702 0.2298 1.0193
Fe1K Fe 0.83141(3) 0.10759(4) 0.83141(3)
Fe1E Fe 0.89241(4) 0.16859(3) 0.83141(3)
Fe1C Fe 0.83141(3) -0.16859(3) 1.10759(4)
Fe1I Fe 0.83141(3) -0.10759(4) 1.16859(3)
Fe1D Fe 0.89241(4) -0.16859(3) 1.16859(3)
Fe1G Fe 1.10759(4) -0.16859(3) 0.83141(3)
Fe1A Fe 1.16859(3) -0.16859(3) 0.89241(4)
Fe1H Fe 1.16859(3) -0.10759(4) 0.83141(3)
Fe1B Fe 1.16859(3) 0.16859(3) 1.10759(4)
Fe1J Fe 1.16859(3) 0.10759(4) 1.16859(3)
Fe1F Fe 1.10759(4) 0.16859(3) 1.16859(3)
S1K S 0.85843(8) 0.14156(8) 0.76059(10)
S1E S 0.85844(8) 0.23941(10) 0.85843(8)
S1C S 0.76059(10) -0.14157(8) 1.14156(8)
S1I S 0.85843(8) -0.14156(8) 1.23941(10)
S1D S 0.85844(8) -0.23941(10) 1.14157(8)
S1G S 1.14156(8) -0.23941(10) 0.85843(8)
S1A S 1.23941(10) -0.14157(8) 0.85844(8)
S1H S 1.14157(8) -0.14156(8) 0.76059(10)
S1B S 1.23941(10) 0.14157(8) 1.14156(8)
S1J S 1.14157(8) 0.14156(8) 1.23941(10)
S1F S 1.14156(8) 0.23941(10) 1.14157(8)
O1C O 0.85054(16) -0.14946(16) 1.14946(16)
O1A O 1.14946(16) -0.14946(16) 0.85054(16)
O1B O 1.14946(16) 0.14946(16) 1.14946(16)
O2K O 0.87726(19) 0.08244(16) 0.82650(17)
O2T O 0.91756(16) 0.12274(19) 0.82650(17)
O2E O 0.91756(16) 0.17350(17) 0.87726(19)
O2M O 0.87726(19) 0.17350(17) 0.91756(16)
O2S O 0.82650(17) 0.08244(16) 0.87726(19)
O2C O 0.82650(17) -0.12274(19) 1.08244(16)
O2I O 0.87726(19) -0.08244(16) 1.17350(17)
O2U O 0.91756(16) -0.12274(19) 1.17350(17)
O2D O 0.91756(16) -0.17350(17) 1.12274(19)
O2O O 0.87726(19) -0.17350(17) 1.08244(16)
O2P O 0.82650(17) -0.08244(16) 1.12274(19)
O2G O 1.08244(16) -0.17350(17) 0.87726(19)
O2A O 1.17350(17) -0.12274(19) 0.91756(16)
O2Q O 1.17350(17) -0.08244(16) 0.87726(19)
O2H O 1.12274(19) -0.08244(16) 0.82650(17)
O2W O 1.08244(16) -0.12274(19) 0.82650(17)
O2L O 1.12274(19) -0.17350(17) 0.91756(16)
O2B O 1.17350(17) 0.12274(19) 1.08244(16)
O2J O 1.12274(19) 0.08244(16) 1.17350(17)
O2V O 1.08244(16) 0.12274(19) 1.17350(17)
O2F O 1.08244(16) 0.17350(17) 1.12274(19)
O2N O 1.12274(19) 0.17350(17) 1.08244(16)
O2R O 1.17350(17) 0.08244(16) 1.12274(19)
O3K O 0.83259(16) 0.12321(15) 0.78266(14)
O3T O 0.87679(15) 0.16741(16) 0.78266(14)
O3E O 0.87679(15) 0.21734(14) 0.83259(16)
O3M O 0.83259(16) 0.21734(14) 0.87679(15)
O3S O 0.78266(14) 0.12321(15) 0.83259(16)
O3C O 0.78266(14) -0.16741(16) 1.12321(15)
O3P O 0.78266(14) -0.12321(15) 1.16741(16)
O3I O 0.83259(16) -0.12321(15) 1.21734(14)
O3U O 0.87679(15) -0.16741(16) 1.21734(14)
O3D O 0.87679(15) -0.21734(14) 1.16741(16)
O3O O 0.83259(16) -0.21734(14) 1.12321(15)
O3G O 1.12321(15) -0.21734(14) 0.83259(16)
O3L O 1.16741(16) -0.21734(14) 0.87679(15)
O3A O 1.21734(14) -0.16741(16) 0.87679(15)
O3Q O 1.21734(14) -0.12321(15) 0.83259(16)
O3H O 1.16741(16) -0.12321(15) 0.78266(14)
O3W O 1.12321(15) -0.16741(16) 0.78266(14)
O3B O 1.21734(14) 0.16741(16) 1.12321(15)
O3R O 1.21734(14) 0.12321(15) 1.16741(16)
O3J O 1.16741(16) 0.12321(15) 1.21734(14)
O3V O 1.12321(15) 0.16741(16) 1.21734(14)
O3F O 1.12321(15) 0.21734(14) 1.16741(16)
O3N O 1.16741(16) 0.21734(14) 1.12321(15)
O4E O 0.8391(2) 0.2659(2) 0.8391(2)
O4K O 0.8391(2) 0.1609(2) 0.7341(2)
O4D O 0.8391(2) -0.2659(2) 1.1609(2)
O4I O 0.8391(2) -0.1609(2) 1.2659(2)
O4C O 0.7341(2) -0.1609(2) 1.1609(2)
O4H O 1.1609(2) -0.1609(2) 0.7341(2)
O4A O 1.2659(2) -0.1609(2) 0.8391(2)
O4G O 1.1609(2) -0.2659(2) 0.8391(2)
O4F O 1.1609(2) 0.2659(2) 1.1609(2)
O4J O 1.1609(2) 0.1609(2) 1.2659(2)
O4B O 1.2659(2) 0.1609(2) 1.1609(2)
O5E O 0.8834(2) 0.2534(3) 0.8834(2)
O5K O 0.8834(2) 0.1166(2) 0.7466(3)
O5D O 0.8834(2) -0.2534(3) 1.1166(2)
O5I O 0.8834(2) -0.1166(2) 1.2534(3)
O5C O 0.7466(3) -0.1166(2) 1.1166(2)
O5H O 1.1166(2) -0.1166(2) 0.7466(3)
O5A O 1.2534(3) -0.1166(2) 0.8834(2)
O5G O 1.1166(2) -0.2534(3) 0.8834(2)
O5F O 1.1166(2) 0.2534(3) 1.1166(2)
O5J O 1.1166(2) 0.1166(2) 1.2534(3)
O5B O 1.2534(3) 0.1166(2) 1.1166(2)
N1K N 0.8104(2) 0.0606(3) 0.8104(2)
N1E N 0.9394(3) 0.1896(2) 0.8104(2)
N1C N 0.8104(2) -0.1896(2) 1.0606(3)
N1D N 0.9394(3) -0.1896(2) 1.1896(2)
N1I N 0.8104(2) -0.0606(3) 1.1896(2)
N1G N 1.0606(3) -0.1896(2) 0.8104(2)
N1H N 1.1896(2) -0.0606(3) 0.8104(2)
N1A N 1.1896(2) -0.1896(2) 0.9394(3)
N1B N 1.1896(2) 0.1896(2) 1.0606(3)
N1F N 1.0606(3) 0.1896(2) 1.1896(2)
N1J N 1.1896(2) 0.0606(3) 1.1896(2)
C1K C 0.9094(3) 0.0906(3) 0.8250(4)
C1E C 0.9094(3) 0.1750(4) 0.9094(3)
C1C C 0.8250(4) -0.0906(3) 1.0906(3)
C1I C 0.9094(3) -0.0906(3) 1.1750(4)
C1D C 0.9094(3) -0.1750(4) 1.0906(3)
C1G C 1.0906(3) -0.1750(4) 0.9094(3)
C1A C 1.1750(4) -0.0906(3) 0.9094(3)
C1H C 1.0906(3) -0.0906(3) 0.8250(4)
C1B C 1.1750(4) 0.0906(3) 1.0906(3)
C1J C 1.0906(3) 0.0906(3) 1.1750(4)
C1F C 1.0906(3) 0.1750(4) 1.0906(3)
C2C C 0.8235(4) -0.0662(3) 1.0662(3)
C2D C 0.9338(3) -0.1765(4) 1.0662(3)
C2G C 1.0662(3) -0.1765(4) 0.9338(3)
C2H C 1.0662(3) -0.0662(3) 0.8235(4)
C2K C 0.9338(3) 0.0662(3) 0.8235(4)
C2A C 1.1765(4) -0.0662(3) 0.9338(3)
C2B C 1.1765(4) 0.0662(3) 1.0662(3)
C2F C 1.0662(3) 0.1765(4) 1.0662(3)
C2E C 0.9338(3) 0.1765(4) 0.9338(3)
C2J C 1.0662(3) 0.0662(3) 1.1765(4)
C2I C 0.9338(3) -0.0662(3) 1.1765(4)
C3S C 0.8251(5) 0.0332(4) 0.9273(3)
C3C C 0.8251(5) -0.0727(3) 1.0332(4)
C3D C 0.9668(4) -0.1749(5) 1.0727(3)
C3O C 0.9273(3) -0.1749(5) 1.0332(4)
C3G C 1.0332(4) -0.1749(5) 0.9273(3)
C3H C 1.0727(3) -0.0332(4) 0.8251(5)
C3W C 1.0332(4) -0.0727(3) 0.8251(5)
C3K C 0.9273(3) 0.0332(4) 0.8251(5)
C3T C 0.9668(4) 0.0727(3) 0.8251(5)
C3A C 1.1749(5) -0.0727(3) 0.9668(4)
C3Q C 1.1749(5) -0.0332(4) 0.9273(3)
C3B C 1.1749(5) 0.0727(3) 1.0332(4)
C3F C 1.0332(4) 0.1749(5) 1.0727(3)
C3N C 1.0727(3) 0.1749(5) 1.0332(4)
C3E C 0.9668(4) 0.1749(5) 0.9273(3)
C3M C 0.9273(3) 0.1749(5) 0.9668(4)
C3J C 1.0727(3) 0.0332(4) 1.1749(5)
C3V C 1.0332(4) 0.0727(3) 1.1749(5)
C3I C 0.9273(3) -0.0332(4) 1.1749(5)
C3U C 0.9668(4) -0.0727(3) 1.1749(5)
C3R C 1.1749(5) 0.0332(4) 1.0727(3)
C3L C 1.0727(3) -0.1749(5) 0.9668(4)
C3P C 0.8251(5) -0.0332(4) 1.0727(3)
H1S H 0.8285 0.0269 0.9037
H1D H 0.9731 -0.1715 1.0963
H1O H 0.9037 -0.1715 1.0269
H1H H 1.0963 -0.0269 0.8285
H1W H 1.0269 -0.0963 0.8285
H1T H 0.9731 0.0963 0.8285
H1K H 0.9037 0.0269 0.8285
H1A H 1.1715 -0.0963 0.9731
H1Q H 1.1715 -0.0269 0.9037
H1F H 1.0269 0.1715 1.0963
H1N H 1.0963 0.1715 1.0269
H1M H 0.9037 0.1715 0.9731
H1E H 0.9731 0.1715 0.9037
H1J H 1.0963 0.0269 1.1715
H1V H 1.0269 0.0963 1.1715
H1U H 0.9731 -0.0963 1.1715
H1I H 0.9037 -0.0269 1.1715
H1R H 1.1715 0.0269 1.0963
H1B H 1.1715 0.0963 1.0269
H1L H 1.0963 -0.1715 0.9731
H1G H 1.0269 -0.1715 0.9037
H1P H 0.8285 -0.0269 1.0963
H1C H 0.8285 -0.0963 1.0269
C4S C 0.8221(6) 0.0051(3) 0.9518(3)
C4C C 0.8221(6) -0.0482(3) 1.0051(3)
C4D C 0.9949(3) -0.1779(6) 1.0482(3)
C4O C 0.9518(3) -0.1779(6) 1.0051(3)
C4G C 1.0051(3) -0.1779(6) 0.9518(3)
C4H C 1.0482(3) -0.0051(3) 0.8221(6)
C4W C 1.0051(3) -0.0482(3) 0.8221(6)
C4K C 0.9518(3) 0.0051(3) 0.8221(6)
C4T C 0.9949(3) 0.0482(3) 0.8221(6)
C4A C 1.1779(6) -0.0482(3) 0.9949(3)
C4Q C 1.1779(6) -0.0051(3) 0.9518(3)
C4B C 1.1779(6) 0.0482(3) 1.0051(3)
C4F C 1.0051(3) 0.1779(6) 1.0482(3)
C4N C 1.0482(3) 0.1779(6) 1.0051(3)
C4E C 0.9949(3) 0.1779(6) 0.9518(3)
C4M C 0.9518(3) 0.1779(6) 0.9949(3)
C4J C 1.0482(3) 0.0051(3) 1.1779(6)
C4V C 1.0051(3) 0.0482(3) 1.1779(6)
C4I C 0.9518(3) -0.0051(3) 1.1779(6)
C4U C 0.9949(3) -0.0482(3) 1.1779(6)
C4R C 1.1779(6) 0.0051(3) 1.0482(3)
C4L C 1.0482(3) -0.1779(6) 0.9949(3)
C4P C 0.8221(6) -0.0051(3) 1.0482(3)
H2S H 0.8207 -0.0184 0.9444
H2D H 1.0184 -0.1793 1.0556
H2O H 0.9444 -0.1793 0.9816
H2H H 1.0556 0.0184 0.8207
H2W H 0.9816 -0.0556 0.8207
H2T H 1.0184 0.0556 0.8207
H2K H 0.9444 -0.0184 0.8207
H2A H 1.1793 -0.0556 1.0184
H2Q H 1.1793 0.0184 0.9444
H2F H 0.9816 0.1793 1.0556
H2N H 1.0556 0.1793 0.9816
H2M H 0.9444 0.1793 1.0184
H2E H 1.0184 0.1793 0.9444
H2J H 1.0556 -0.0184 1.1793
H2V H 0.9816 0.0556 1.1793
H2U H 1.0184 -0.0556 1.1793
H2I H 0.9444 0.0184 1.1793
H2R H 1.1793 -0.0184 1.0556
H2B H 1.1793 0.0556 0.9816
H2L H 1.0556 -0.1793 1.0184
H2G H 0.9816 -0.1793 0.9444
H2P H 0.8207 0.0184 1.0556
H2C H 0.8207 -0.0556 0.9816
C5C C 0.8214(6) -0.0138(2) 1.0138(2)
C5D C 0.9862(2) -0.1786(6) 1.0138(2)
C5G C 1.0138(2) -0.1786(6) 0.9862(2)
C5H C 1.0138(2) -0.0138(2) 0.8214(6)
C5K C 0.9862(2) 0.0138(2) 0.8214(6)
C5A C 1.1786(6) -0.0138(2) 0.9862(2)
C5B C 1.1786(6) 0.0138(2) 1.0138(2)
C5F C 1.0138(2) 0.1786(6) 1.0138(2)
C5E C 0.9862(2) 0.1786(6) 0.9862(2)
C5J C 1.0138(2) 0.0138(2) 1.1786(6)
C5I C 0.9862(2) -0.0138(2) 1.1786(6)
C6K C 0.7834(4) 0.0444(3) 0.8239(4)
C6S C 0.8239(4) 0.0444(3) 0.7834(4)
C6M C 0.7834(4) 0.1761(4) 0.9556(3)
C6T C 0.9556(3) 0.2166(4) 0.8239(4)
C6E C 0.9556(3) 0.1761(4) 0.7834(4)
C6C C 0.8239(4) -0.2166(4) 1.0444(3)
C6O C 0.7834(4) -0.1761(4) 1.0444(3)
C6U C 0.9556(3) -0.2166(4) 1.1761(4)
C6D C 0.9556(3) -0.1761(4) 1.2166(4)
C6I C 0.7834(4) -0.0444(3) 1.1761(4)
C6P C 0.8239(4) -0.0444(3) 1.2166(4)
C6G C 1.0444(3) -0.1761(4) 0.7834(4)
C6W C 1.0444(3) -0.2166(4) 0.8239(4)
C6Q C 1.1761(4) -0.0444(3) 0.7834(4)
C6H C 1.2166(4) -0.0444(3) 0.8239(4)
C6A C 1.1761(4) -0.2166(4) 0.9556(3)
C6L C 1.2166(4) -0.1761(4) 0.9556(3)
C6B C 1.1761(4) 0.2166(4) 1.0444(3)
C6N C 1.2166(4) 0.1761(4) 1.0444(3)
C6V C 1.0444(3) 0.2166(4) 1.1761(4)
C6F C 1.0444(3) 0.1761(4) 1.2166(4)
C6J C 1.2166(4) 0.0444(3) 1.1761(4)
C6R C 1.1761(4) 0.0444(3) 1.2166(4)
H3K H 0.7736 0.0544 0.8442
H3S H 0.8442 0.0544 0.7736
H3M H 0.7736 0.1558 0.9456
H3T H 0.9456 0.2264 0.8442
H3E H 0.9456 0.1558 0.7736
H3C H 0.8442 -0.2264 1.0544
H3O H 0.7736 -0.1558 1.0544
H3U H 0.9456 -0.2264 1.1558
H3D H 0.9456 -0.1558 1.2264
H3I H 0.7736 -0.0544 1.1558
H3P H 0.8442 -0.0544 1.2264
H3G H 1.0544 -0.1558 0.7736
H3W H 1.0544 -0.2264 0.8442
H3Q H 1.1558 -0.0544 0.7736
H3H H 1.2264 -0.0544 0.8442
H3A H 1.1558 -0.2264 0.9456
H3L H 1.2264 -0.1558 0.9456
H3B H 1.1558 0.2264 1.0544
H3N H 1.2264 0.1558 1.0544
H3V H 1.0544 0.2264 1.1558
H3F H 1.0544 0.1558 1.2264
H3J H 1.2264 0.0544 1.1558
H3R H 1.1558 0.0544 1.2264
C7K C 0.7668(4) 0.0124(4) 0.8110(4)
C7S C 0.8110(4) 0.0124(4) 0.7668(4)
C7M C 0.7668(4) 0.1890(4) 0.9876(4)
C7T C 0.9876(4) 0.2332(4) 0.8110(4)
C7E C 0.9876(4) 0.1890(4) 0.7668(4)
C7C C 0.8110(4) -0.2332(4) 1.0124(4)
C7O C 0.7668(4) -0.1890(4) 1.0124(4)
C7U C 0.9876(4) -0.2332(4) 1.1890(4)
C7D C 0.9876(4) -0.1890(4) 1.2332(4)
C7I C 0.7668(4) -0.0124(4) 1.1890(4)
C7P C 0.8110(4) -0.0124(4) 1.2332(4)
C7G C 1.0124(4) -0.1890(4) 0.7668(4)
C7W C 1.0124(4) -0.2332(4) 0.8110(4)
C7Q C 1.1890(4) -0.0124(4) 0.7668(4)
C7H C 1.2332(4) -0.0124(4) 0.8110(4)
C7A C 1.1890(4) -0.2332(4) 0.9876(4)
C7L C 1.2332(4) -0.1890(4) 0.9876(4)
C7B C 1.1890(4) 0.2332(4) 1.0124(4)
C7N C 1.2332(4) 0.1890(4) 1.0124(4)
C7V C 1.0124(4) 0.2332(4) 1.1890(4)
C7F C 1.0124(4) 0.1890(4) 1.2332(4)
C7J C 1.2332(4) 0.0124(4) 1.1890(4)
C7R C 1.1890(4) 0.0124(4) 1.2332(4)
H4K H 0.7477 0.0016 0.8223
H4S H 0.8223 0.0016 0.7477
H4M H 0.7477 0.1777 0.9984
H4T H 0.9984 0.2523 0.8223
H4E H 0.9984 0.1777 0.7477
H4C H 0.8223 -0.2523 1.0016
H4O H 0.7477 -0.1777 1.0016
H4U H 0.9984 -0.2523 1.1777
H4D H 0.9984 -0.1777 1.2523
H4I H 0.7477 -0.0016 1.1777
H4P H 0.8223 -0.0016 1.2523
H4G H 1.0016 -0.1777 0.7477
H4W H 1.0016 -0.2523 0.8223
H4Q H 1.1777 -0.0016 0.7477
H4H H 1.2523 -0.0016 0.8223
H4A H 1.1777 -0.2523 0.9984
H4L H 1.2523 -0.1777 0.9984
H4B H 1.1777 0.2523 1.0016
H4N H 1.2523 0.1777 1.0016
H4V H 1.0016 0.2523 1.1777
H4F H 1.0016 0.1777 1.2523
H4J H 1.2523 0.0016 1.1777
H4R H 1.1777 0.0016 1.2523
C8K C 0.7814(5) -0.0004(6) 0.7814(5)
C8E C 1.0004(6) 0.2186(5) 0.7814(5)
C8C C 0.7814(5) -0.2186(5) 0.9996(6)
C8D C 1.0004(6) -0.2186(5) 1.2186(5)
C8I C 0.7814(5) 0.0004(6) 1.2186(5)
C8G C 0.9996(6) -0.2186(5) 0.7814(5)
C8H C 1.2186(5) 0.0004(6) 0.7814(5)
C8A C 1.2186(5) -0.2186(5) 1.0004(6)
C8B C 1.2186(5) 0.2186(5) 0.9996(6)
C8F C 0.9996(6) 0.2186(5) 1.2186(5)
C8J C 1.2186(5) -0.0004(6) 1.2186(5)
H5K H 0.7702 -0.0193 0.7702
H5E H 1.0193 0.2298 0.7702
H5C H 0.7702 -0.2298 0.9807
H5D H 1.0193 -0.2298 1.2298
H5I H 0.7702 0.0193 1.2298
H5G H 0.9807 -0.2298 0.7702
H5H H 1.2298 0.0193 0.7702
H5A H 1.2298 -0.2298 1.0193
H5B H 1.2298 0.2298 0.9807
H5F H 0.9807 0.2298 1.2298
H5J H 1.2298 -0.0193 1.2298
N2 N 0.7500 0.1609(10) 0.7500
C9 C 0.7500 0.1096(10) 0.7500
loop_
_geom_bond_atom_site_label_1
_geom_bond_atom_site_label_2
_geom_bond_site_symmetry_1
_geom_bond_site_symmetry_2
Fe1 O1 1_555 1_555
S1 O3 1_555 1_555
O1 Fe1K 1_555 1_555
O2 Fe1 1_555 1_555
O3 Fe1 1_555 1_555
O4 S1 1_555 1_555
O5 S1 1_555 1_555
N1 Fe1 1_555 1_555
C1 O2 1_555 1_555
C2 C1 1_555 1_555
C3 C2 1_555 1_555
H1 C3 1_555 1_555
C4 C3 1_555 1_555
H2 C4 1_555 1_555
C5 C4 1_555 1_555
C6 N1 1_555 1_555
H3 C6 1_555 1_555
C7 C6 1_555 1_555
H4 C7 1_555 1_555
C8 C7 1_555 1_555
H5 C8 1_555 1_555
N2 C9 1_555 1_555
Fe1K O2K 1_555 1_555
Fe1E O1 1_555 1_555
Fe1C O1C 1_555 1_555
Fe1I O1C 1_555 1_555
Fe1D O1C 1_555 1_555
Fe1G O1A 1_555 1_555
Fe1A O1A 1_555 1_555
Fe1H O1A 1_555 1_555
Fe1B O1B 1_555 1_555
Fe1J O1B 1_555 1_555
Fe1F O1B 1_555 1_555
S1K O3K 1_555 1_555
S1E O3E 1_555 1_555
S1C O3C 1_555 1_555
S1I O3I 1_555 1_555
S1D O3D 1_555 1_555
S1G O3G 1_555 1_555
S1A O3A 1_555 1_555
S1H O3H 1_555 1_555
S1B O3B 1_555 1_555
S1J O3J 1_555 1_555
S1F O3F 1_555 1_555
O2K C1K 1_555 1_555
O2T Fe1E 1_555 1_555
O2E Fe1E 1_555 1_555
O2M Fe1 1_555 1_555
O2S C1 1_555 1_555
O2C Fe1C 1_555 1_555
O2I Fe1I 1_555 1_555
O2U Fe1D 1_555 1_555
O2D Fe1D 1_555 1_555
O2O Fe1C 1_555 1_555
O2P Fe1I 1_555 1_555
O2G Fe1G 1_555 1_555
O2A Fe1A 1_555 1_555
O2Q Fe1H 1_555 1_555
O2H Fe1H 1_555 1_555
O2W Fe1G 1_555 1_555
O2L Fe1A 1_555 1_555
O2B Fe1B 1_555 1_555
O2J Fe1J 1_555 1_555
O2V Fe1F 1_555 1_555
O2F Fe1F 1_555 1_555
O2N Fe1B 1_555 1_555
O2R Fe1J 1_555 1_555
O3K Fe1K 1_555 1_555
O3T Fe1E 1_555 1_555
O3E Fe1E 1_555 1_555
O3M Fe1 1_555 1_555
O3S S1 1_555 1_555
O3C Fe1C 1_555 1_555
O3P Fe1I 1_555 1_555
O3I Fe1I 1_555 1_555
O3U Fe1D 1_555 1_555
O3D Fe1D 1_555 1_555
O3O Fe1C 1_555 1_555
O3G Fe1G 1_555 1_555
O3L Fe1A 1_555 1_555
O3A Fe1A 1_555 1_555
O3Q Fe1H 1_555 1_555
O3H Fe1H 1_555 1_555
O3W Fe1G 1_555 1_555
O3B Fe1B 1_555 1_555
O3R Fe1J 1_555 1_555
O3J Fe1J 1_555 1_555
O3V Fe1F 1_555 1_555
O3F Fe1F 1_555 1_555
O3N Fe1B 1_555 1_555
O4E S1E 1_555 1_555
O4K S1K 1_555 1_555
O4D S1D 1_555 1_555
O4I S1I 1_555 1_555
O4C S1C 1_555 1_555
O4H S1H 1_555 1_555
O4A S1A 1_555 1_555
O4G S1G 1_555 1_555
O4F S1F 1_555 1_555
O4J S1J 1_555 1_555
O4B S1B 1_555 1_555
O5E S1E 1_555 1_555
O5K S1K 1_555 1_555
O5D S1D 1_555 1_555
O5I S1I 1_555 1_555
O5C S1C 1_555 1_555
O5H S1H 1_555 1_555
O5A S1A 1_555 1_555
O5G S1G 1_555 1_555
O5F S1F 1_555 1_555
O5J S1J 1_555 1_555
O5B S1B 1_555 1_555
N1K Fe1K 1_555 1_555
N1E Fe1E 1_555 1_555
N1C Fe1C 1_555 1_555
N1D Fe1D 1_555 1_555
N1I Fe1I 1_555 1_555
N1G Fe1G 1_555 1_555
N1H Fe1H 1_555 1_555
N1A Fe1A 1_555 1_555
N1B Fe1B 1_555 1_555
N1F Fe1F 1_555 1_555
N1J Fe1J 1_555 1_555
C1K O2T 1_555 1_555
C1E O2E 1_555 1_555
C1C O2C 1_555 1_555
C1I O2I 1_555 1_555
C1D O2D 1_555 1_555
C1G O2G 1_555 1_555
C1A O2A 1_555 1_555
C1H O2H 1_555 1_555
C1B O2B 1_555 1_555
C1J O2J 1_555 1_555
C1F O2F 1_555 1_555
C2C C1C 1_555 1_555
C2D C1D 1_555 1_555
C2G C1G 1_555 1_555
C2H C1H 1_555 1_555
C2K C1K 1_555 1_555
C2A C1A 1_555 1_555
C2B C1B 1_555 1_555
C2F C1F 1_555 1_555
C2E C1E 1_555 1_555
C2J C1J 1_555 1_555
C2I C1I 1_555 1_555
C3S C2 1_555 1_555
C3C C2C 1_555 1_555
C3D C2D 1_555 1_555
C3O C2D 1_555 1_555
C3G C2G 1_555 1_555
C3H C2H 1_555 1_555
C3W C2H 1_555 1_555
C3K C2K 1_555 1_555
C3T C2K 1_555 1_555
C3A C2A 1_555 1_555
C3Q C2A 1_555 1_555
C3B C2B 1_555 1_555
C3F C2F 1_555 1_555
C3N C2F 1_555 1_555
C3E C2E 1_555 1_555
C3M C2E 1_555 1_555
C3J C2J 1_555 1_555
C3V C2J 1_555 1_555
C3I C2I 1_555 1_555
C3U C2I 1_555 1_555
C3R C2B 1_555 1_555
C3L C2G 1_555 1_555
C3P C2C 1_555 1_555
H1S C3S 1_555 1_555
H1D C3D 1_555 1_555
H1O C3O 1_555 1_555
H1H C3H 1_555 1_555
H1W C3W 1_555 1_555
H1T C3T 1_555 1_555
H1K C3K 1_555 1_555
H1A C3A 1_555 1_555
H1Q C3Q 1_555 1_555
H1F C3F 1_555 1_555
H1N C3N 1_555 1_555
H1M C3M 1_555 1_555
H1E C3E 1_555 1_555
H1J C3J 1_555 1_555
H1V C3V 1_555 1_555
H1U C3U 1_555 1_555
H1I C3I 1_555 1_555
H1R C3R 1_555 1_555
H1B C3B 1_555 1_555
H1L C3L 1_555 1_555
H1G C3G 1_555 1_555
H1P C3P 1_555 1_555
H1C C3C 1_555 1_555
C4S C5 1_555 1_555
C4C C3C 1_555 1_555
C4D C3D 1_555 1_555
C4O C3O 1_555 1_555
C4G C3G 1_555 1_555
C4H C3H 1_555 1_555
C4W C3W 1_555 1_555
C4K C3K 1_555 1_555
C4T C3T 1_555 1_555
C4A C3A 1_555 1_555
C4Q C3Q 1_555 1_555
C4B C3B 1_555 1_555
C4F C3F 1_555 1_555
C4N C3N 1_555 1_555
C4E C3E 1_555 1_555
C4M C3M 1_555 1_555
C4J C3J 1_555 1_555
C4V C3V 1_555 1_555
C4I C3I 1_555 1_555
C4U C3U 1_555 1_555
C4R C3R 1_555 1_555
C4L C3L 1_555 1_555
C4P C3P 1_555 1_555
H2S C4S 1_555 1_555
H2D C4D 1_555 1_555
H2O C4O 1_555 1_555
H2H C4H 1_555 1_555
H2W C4W 1_555 1_555
H2T C4T 1_555 1_555
H2K C4K 1_555 1_555
H2A C4A 1_555 1_555
H2Q C4Q 1_555 1_555
H2F C4F 1_555 1_555
H2N C4N 1_555 1_555
H2M C4M 1_555 1_555
H2E C4E 1_555 1_555
H2J C4J 1_555 1_555
H2V C4V 1_555 1_555
H2U C4U 1_555 1_555
H2I C4I 1_555 1_555
H2R C4R 1_555 1_555
H2B C4B 1_555 1_555
H2L C4L 1_555 1_555
H2G C4G 1_555 1_555
H2P C4P 1_555 1_555
H2C C4C 1_555 1_555
C5C C5 1_555 1_555
C5D C4D 1_555 1_555
C5G C4G 1_555 1_555
C5H C4H 1_555 1_555
C5K C4K 1_555 1_555
C5A C4A 1_555 1_555
C5B C4B 1_555 1_555
C5F C4F 1_555 1_555
C5E C4E 1_555 1_555
C5J C4J 1_555 1_555
C5I C4I 1_555 1_555
C6K N1K 1_555 1_555
C6S N1K 1_555 1_555
C6M N1 1_555 1_555
C6T N1E 1_555 1_555
C6E N1E 1_555 1_555
C6C N1C 1_555 1_555
C6O N1C 1_555 1_555
C6U N1D 1_555 1_555
C6D N1D 1_555 1_555
C6I N1I 1_555 1_555
C6P N1I 1_555 1_555
C6G N1G 1_555 1_555
C6W N1G 1_555 1_555
C6Q N1H 1_555 1_555
C6H N1H 1_555 1_555
C6A N1A 1_555 1_555
C6L N1A 1_555 1_555
C6B N1B 1_555 1_555
C6N N1B 1_555 1_555
C6V N1F 1_555 1_555
C6F N1F 1_555 1_555
C6J N1J 1_555 1_555
C6R N1J 1_555 1_555
H3K C6K 1_555 1_555
H3S C6S 1_555 1_555
H3M C6M 1_555 1_555
H3T C6T 1_555 1_555
H3E C6E 1_555 1_555
H3C C6C 1_555 1_555
H3O C6O 1_555 1_555
H3U C6U 1_555 1_555
H3D C6D 1_555 1_555
H3I C6I 1_555 1_555
H3P C6P 1_555 1_555
H3G C6G 1_555 1_555
H3W C6W 1_555 1_555
H3Q C6Q 1_555 1_555
H3H C6H 1_555 1_555
H3A C6A 1_555 1_555
H3L C6L 1_555 1_555
H3B C6B 1_555 1_555
H3N C6N 1_555 1_555
H3V C6V 1_555 1_555
H3F C6F 1_555 1_555
H3J C6J 1_555 1_555
H3R C6R 1_555 1_555
C7K C6K 1_555 1_555
C7S C6S 1_555 1_555
C7M C8 1_555 1_555
C7T C6T 1_555 1_555
C7E C6E 1_555 1_555
C7C C6C 1_555 1_555
C7O C6O 1_555 1_555
C7U C6U 1_555 1_555
C7D C6D 1_555 1_555
C7I C6I 1_555 1_555
C7P C6P 1_555 1_555
C7G C6G 1_555 1_555
C7W C6W 1_555 1_555
C7Q C6Q 1_555 1_555
C7H C6H 1_555 1_555
C7A C6A 1_555 1_555
C7L C6L 1_555 1_555
C7B C6B 1_555 1_555
C7N C6N 1_555 1_555
C7V C6V 1_555 1_555
C7F C6F 1_555 1_555
C7J C6J 1_555 1_555
C7R C6R 1_555 1_555
H4K C7K 1_555 1_555
H4S C7S 1_555 1_555
H4M C7M 1_555 1_555
H4T C7T 1_555 1_555
H4E C7E 1_555 1_555
H4C C7C 1_555 1_555
H4O C7O 1_555 1_555
H4U C7U 1_555 1_555
H4D C7D 1_555 1_555
H4I C7I 1_555 1_555
H4P C7P 1_555 1_555
H4G C7G 1_555 1_555
H4W C7W 1_555 1_555
H4Q C7Q 1_555 1_555
H4H C7H 1_555 1_555
H4A C7A 1_555 1_555
H4L C7L 1_555 1_555
H4B C7B 1_555 1_555
H4N C7N 1_555 1_555
H4V C7V 1_555 1_555
H4F C7F 1_555 1_555
H4J C7J 1_555 1_555
H4R C7R 1_555 1_555
C8K C7K 1_555 1_555
C8E C7T 1_555 1_555
C8C C7C 1_555 1_555
C8D C7U 1_555 1_555
C8I C7I 1_555 1_555
C8G C7G 1_555 1_555
C8H C7Q 1_555 1_555
C8A C7A 1_555 1_555
C8B C7B 1_555 1_555
C8F C7V 1_555 1_555
C8J C7J 1_555 1_555
H5K C8K 1_555 1_555
H5E C8E 1_555 1_555
H5C C8C 1_555 1_555
H5D C8D 1_555 1_555
H5I C8I 1_555 1_555
H5G C8G 1_555 1_555
H5H C8H 1_555 1_555
H5A C8A 1_555 1_555
H5B C8B 1_555 1_555
H5F C8F 1_555 1_555
H5J C8J 1_555 1_555
Fe1K O2S 1_555 1_555
Fe1K O3S 1_555 1_555
S1K O3T 1_555 1_555
S1E O3M 1_555 1_555
S1C O3P 1_555 1_555
S1I O3U 1_555 1_555
S1D O3O 1_555 1_555
S1G O3L 1_555 1_555
S1A O3Q 1_555 1_555
S1H O3W 1_555 1_555
S1B O3R 1_555 1_555
S1J O3V 1_555 1_555
S1F O3N 1_555 1_555
O2M C1E 1_555 1_555
O2U C1I 1_555 1_555
O2O C1D 1_555 1_555
O2P C1C 1_555 1_555
O2Q C1A 1_555 1_555
O2W C1H 1_555 1_555
O2L C1G 1_555 1_555
O2V C1J 1_555 1_555
O2N C1F 1_555 1_555
O2R C1B 1_555 1_555
C3S C4S 1_555 1_555
C4C C5C 1_555 1_555
C4O C5D 1_555 1_555
C4W C5H 1_555 1_555
C4T C5K 1_555 1_555
C4Q C5A 1_555 1_555
C4N C5F 1_555 1_555
C4M C5E 1_555 1_555
C4V C5J 1_555 1_555
C4U C5I 1_555 1_555
C4R C5B 1_555 1_555
C4L C5G 1_555 1_555
C4P C5C 1_555 1_555
C5D C5G 1_555 1_555
C5H C5K 1_555 1_555
C5A C5B 1_555 1_555
C5F C5E 1_555 1_555
C5J C5I 1_555 1_555
C6M C7M 1_555 1_555
C7S C8K 1_555 1_555
C7E C8E 1_555 1_555
C7O C8C 1_555 1_555
C7D C8D 1_555 1_555
C7P C8I 1_555 1_555
C7W C8G 1_555 1_555
C7H C8H 1_555 1_555
C7L C8A 1_555 1_555
C7N C8B 1_555 1_555
C7F C8F 1_555 1_555
C7R C8J 1_555 1_555

#END
