
#######################################################################
#
#                 Cambridge Crystallographic Data Centre
#                                CCDC 
#
#######################################################################
#
# If this CIF has been generated from an entry in the Cambridge 
# Structural Database, then it will include bibliographic, chemical, 
# crystal, experimental, refinement or atomic coordinate data resulting 
# from the CCDC's data processing and validation procedures.
#
#######################################################################

data_NIGDEO
_chemical_formula_moiety         '(C160 H76 Cu12 N2 O58)n'
_chemical_name_systematic        
"catena-(hexakis(\m~8~-5,5'-Naphthalene-2,7-diyldi-isophthalato)-(\m~2~-pyrazine)-decakis(unknown solvent)-dodeca-copper)"
_symmetry_cell_setting           orthorhombic
_symmetry_space_group_name_H-M   'I m m 2'
_symmetry_Int_Tables_number      44
_space_group_name_Hall           'I 2 -2'
loop_
_symmetry_equiv_pos_site_id
_symmetry_equiv_pos_as_xyz
1 x,y,z
2 -x,-y,z
3 -x,y,z
4 x,-y,z
5 1/2+x,1/2+y,1/2+z
6 1/2-x,1/2-y,1/2+z
7 1/2-x,1/2+y,1/2+z
8 1/2+x,1/2-y,1/2+z
_cell_length_a                   27.50(3)
_cell_length_b                   36.65(4)
_cell_length_c                   18.50(2)
_cell_angle_alpha                90
_cell_angle_beta                 90
_cell_angle_gamma                90
_cell_volume                     18645.7
_exptl_crystal_colour            blue
_exptl_crystal_description       Plate
_cell_formula_units_Z            2
loop_
_atom_site_label
_atom_site_type_symbol
_atom_site_fract_x
_atom_site_fract_y
_atom_site_fract_z
Cu1 Cu 0.0000 0.170572(15) 0.89128(5)
Cu2 Cu 0.0000 0.098254(14) 0.88896(4)
Cu3 Cu 0.211830(17) 0.267443(14) 1.12196(3)
Cu4 Cu 0.273642(17) 0.225969(15) 1.19724(3)
O1 O 0.24024(10) 0.19441(8) 0.6318(2)
O2 O 0.18555(8) 0.23015(7) 0.69804(17)
O3 O 0.05028(8) 0.10342(7) 0.81603(12)
O4 O 0.04971(8) 0.16455(6) 0.81756(12)
O5 O 0.04984(8) 0.10451(6) 0.96629(14)
O6 O 0.05026(9) 0.16528(6) 0.96680(16)
O7 O 0.22137(9) 0.19132(8) 1.18537(17)
O8 O 0.16984(8) 0.22392(7) 1.1226(2)
O9 O 0.19029(10) 0.28119(7) 1.21578(17)
O10 O 0.24125(9) 0.24484(9) 1.28237(16)
O11 O 0.20383(9) 0.28412(9) 1.61249(16)
O12 O 0.25401(10) 0.25395(8) 1.53886(16)
O13 O 0.0000 0.22867(10) 0.8948(4)
O14 O 0.16314(10) 0.30264(9) 1.0660(2)
O15 O 0.32191(11) 0.18762(9) 1.2495(2)
N1 N 0.0000 0.03829(7) 0.89203(16)
C1 C 0.06622(8) 0.13520(9) 0.79735(14)
C2 C 0.10494(7) 0.13464(9) 0.74157(12)
C3 C 0.13179(10) 0.16495(11) 0.72753(17)
H1 H 0.1242 0.1863 0.7542
C4 C 0.16933(13) 0.16741(11) 0.6777(2)
C5 C 0.17621(18) 0.13506(12) 0.6365(3)
H2 H 0.1985 0.1356 0.5972
C6 C 0.15162(15) 0.10246(12) 0.6514(3)
C7 C 0.11632(15) 0.10398(13) 0.7014(2)
H3 H 0.0978 0.0825 0.7097
C8 C 0.19996(19) 0.19911(16) 0.6638(3)
C9 C 0.16763(10) 0.06907(13) 0.6175(2)
C10 C 0.15944(9) 0.03510(13) 0.6458(2)
H4 H 0.1450 0.0350 0.6924
C11 C 0.16898(14) 0.0000 0.6166(3)
C12 C 0.1912(2) 0.0000 0.5461(3)
C13 C 0.20112(16) 0.03386(12) 0.5128(2)
H5 H 0.2166 0.0350 0.4670
C14 C 0.1878(3) 0.06490(18) 0.5485(3)
H6 H 0.1929 0.0870 0.5226
C15 C 0.06115(9) 0.13538(10) 0.99139(14)
C16 C 0.09634(6) 0.13429(9) 1.05316(11)
C17 C 0.10219(12) 0.10149(11) 1.09196(16)
H7 H 0.0843 0.0805 1.0778
C18 C 0.13325(17) 0.09939(13) 1.1499(2)
C19 C 0.16137(18) 0.13171(15) 1.1666(3)
H8 H 0.1854 0.1308 1.2034
C20 C 0.15336(16) 0.16408(12) 1.1289(3)
C21 C 0.12035(11) 0.16555(10) 1.0712(2)
H9 H 0.1149 0.1876 1.0455
C22 C 0.18522(14) 0.19575(11) 1.1489(3)
C23 C 0.13423(10) 0.06567(13) 1.1975(2)
C24 C 0.13877(9) 0.06388(18) 1.2730(3)
H10 H 0.1400 0.0863 1.2986
C25 C 0.14156(14) 0.03256(18) 1.3125(3)
H11 H 0.1448 0.0329 1.3637
C26 C 0.1394(3) 0.0000 1.2734(4)
C27 C 0.1352(2) 0.0000 1.1973(4)
C28 C 0.13292(19) 0.03236(11) 1.1569(3)
H12 H 0.1307 0.0322 1.1057
C29 C 0.21030(9) 0.26989(6) 1.27432(18)
C30 C 0.19376(7) 0.28239(5) 1.3464(3)
C31 C 0.15333(12) 0.30619(9) 1.3504(3)
H13 H 0.1379 0.3132 1.3066
C32 C 0.13426(11) 0.32032(10) 1.4174(2)
C33 C 0.15590(12) 0.31049(11) 1.4818(2)
H14 H 0.1447 0.3196 1.5268
C34 C 0.19521(12) 0.28640(11) 1.4773(2)
C35 C 0.21261(14) 0.27412(9) 1.4126(2)
H15 H 0.2402 0.2585 1.4137
C36 C 0.21639(15) 0.27665(12) 1.5503(2)
C37 C 0.08846(14) 0.34261(10) 1.41945(18)
C38 C 0.04560(11) 0.32850(8) 1.39875(14)
H16 H 0.0451 0.3061 1.3731
C39 C 0.0000 0.34671(12) 1.4146(2)
C40 C 0.0000 0.38145(16) 1.4540(3)
C41 C 0.04401(14) 0.39605(12) 1.4765(3)
H17 H 0.0456 0.4181 1.5036
C42 C 0.08461(16) 0.37724(12) 1.4579(3)
H18 H 0.1146 0.3881 1.4718
C43 C 0.0000 0.0209(2) 0.8261(3)
H19 H 0.0000 0.0344 0.7822
C44 C 0.0000 0.01805(16) 0.9556(3)
H20 H 0.0000 0.0306 1.0006
O1C O 0.24024(10) -0.19441(8) 0.6318(2)
O2C O 0.18555(8) -0.23015(7) 0.69804(17)
O3C O 0.05028(8) -0.10342(7) 0.81603(12)
O4C O 0.04971(8) -0.16455(6) 0.81756(12)
C1C C 0.06622(8) -0.13520(9) 0.79735(14)
C2C C 0.10494(7) -0.13464(9) 0.74157(12)
C3C C 0.13179(10) -0.16495(11) 0.72753(17)
H1C H 0.1242 -0.1863 0.7542
C4C C 0.16933(13) -0.16741(11) 0.6777(2)
C5C C 0.17621(18) -0.13506(12) 0.6365(3)
H2C H 0.1985 -0.1356 0.5972
C6C C 0.15162(15) -0.10246(12) 0.6514(3)
C7C C 0.11632(15) -0.10398(13) 0.7014(2)
H3C H 0.0978 -0.0825 0.7097
C8C C 0.19996(19) -0.19911(16) 0.6638(3)
C9C C 0.16763(10) -0.06907(13) 0.6175(2)
C10C C 0.15944(9) -0.03510(13) 0.6458(2)
H4C H 0.1450 -0.0350 0.6924
C13C C 0.20112(16) -0.03386(12) 0.5128(2)
H5C H 0.2166 -0.0350 0.4670
C14C C 0.1878(3) -0.06490(18) 0.5485(3)
H6C H 0.1929 -0.0870 0.5226
O5C O 0.04984(8) -0.10451(6) 0.96629(14)
O6C O 0.05026(9) -0.16528(6) 0.96680(16)
O7C O 0.22137(9) -0.19132(8) 1.18537(17)
O8C O 0.16984(8) -0.22392(7) 1.1226(2)
C15C C 0.06115(9) -0.13538(10) 0.99139(14)
C16C C 0.09634(6) -0.13429(9) 1.05316(11)
C17C C 0.10219(12) -0.10149(11) 1.09196(16)
H7C H 0.0843 -0.0805 1.0778
C18C C 0.13325(17) -0.09939(13) 1.1499(2)
C19C C 0.16137(18) -0.13171(15) 1.1666(3)
H8C H 0.1854 -0.1308 1.2034
C20C C 0.15336(16) -0.16408(12) 1.1289(3)
C21C C 0.12035(11) -0.16555(10) 1.0712(2)
H9C H 0.1149 -0.1876 1.0455
C22C C 0.18522(14) -0.19575(11) 1.1489(3)
C23C C 0.13423(10) -0.06567(13) 1.1975(2)
C24C C 0.13877(9) -0.06388(18) 1.2730(3)
H10C H 0.1400 -0.0863 1.2986
C25C C 0.14156(14) -0.03256(18) 1.3125(3)
H11C H 0.1448 -0.0329 1.3637
C28C C 0.13292(19) -0.03236(11) 1.1569(3)
H12C H 0.1307 -0.0322 1.1057
O9B O -0.19029(10) 0.28119(7) 1.21578(17)
O10B O -0.24125(9) 0.24484(9) 1.28237(16)
O11B O -0.20383(9) 0.28412(9) 1.61249(16)
O12B O -0.25401(10) 0.25395(8) 1.53886(16)
C29B C -0.21030(9) 0.26989(6) 1.27432(18)
C30B C -0.19376(7) 0.28239(5) 1.3464(3)
C31B C -0.15333(12) 0.30619(9) 1.3504(3)
H13B H -0.1379 0.3132 1.3066
C32B C -0.13426(11) 0.32032(10) 1.4174(2)
C33B C -0.15590(12) 0.31049(11) 1.4818(2)
H14B H -0.1447 0.3196 1.5268
C34B C -0.19521(12) 0.28640(11) 1.4773(2)
C35B C -0.21261(14) 0.27412(9) 1.4126(2)
H15B H -0.2402 0.2585 1.4137
C36B C -0.21639(15) 0.27665(12) 1.5503(2)
C37B C -0.08846(14) 0.34261(10) 1.41945(18)
C38B C -0.04560(11) 0.32850(8) 1.39875(14)
H16B H -0.0451 0.3061 1.3731
C41B C -0.04401(14) 0.39605(12) 1.4765(3)
H17B H -0.0456 0.4181 1.5036
C42B C -0.08461(16) 0.37724(12) 1.4579(3)
H18B H -0.1146 0.3881 1.4718
N1A N 0.0000 -0.03829(7) 0.89203(16)
C43A C 0.0000 -0.0209(2) 0.8261(3)
H19A H 0.0000 -0.0344 0.7822
C44A C 0.0000 -0.01805(16) 0.9556(3)
H20A H 0.0000 -0.0306 1.0006
Cu1A Cu 0.0000 -0.170572(15) 0.89128(5)
Cu2A Cu 0.0000 -0.098254(14) 0.88896(4)
Cu3A Cu -0.211830(17) -0.267443(14) 1.12196(3)
Cu4A Cu -0.273642(17) -0.225969(15) 1.19724(3)
O1A O -0.24024(10) -0.19441(8) 0.6318(2)
O2A O -0.18555(8) -0.23015(7) 0.69804(17)
O3A O -0.05028(8) -0.10342(7) 0.81603(12)
O4A O -0.04971(8) -0.16455(6) 0.81756(12)
O5A O -0.04984(8) -0.10451(6) 0.96629(14)
O6A O -0.05026(9) -0.16528(6) 0.96680(16)
O7A O -0.22137(9) -0.19132(8) 1.18537(17)
O8A O -0.16984(8) -0.22392(7) 1.1226(2)
O9A O -0.19029(10) -0.28119(7) 1.21578(17)
O10A O -0.24125(9) -0.24484(9) 1.28237(16)
O11A O -0.20383(9) -0.28412(9) 1.61249(16)
O12A O -0.25401(10) -0.25395(8) 1.53886(16)
O13A O 0.0000 -0.22867(10) 0.8948(4)
O14A O -0.16314(10) -0.30264(9) 1.0660(2)
O15A O -0.32191(11) -0.18762(9) 1.2495(2)
C1A C -0.06622(8) -0.13520(9) 0.79735(14)
C2A C -0.10494(7) -0.13464(9) 0.74157(12)
C3A C -0.13179(10) -0.16495(11) 0.72753(17)
H1A H -0.1242 -0.1863 0.7542
C4A C -0.16933(13) -0.16741(11) 0.6777(2)
C5A C -0.17621(18) -0.13506(12) 0.6365(3)
H2A H -0.1985 -0.1356 0.5972
C6A C -0.15162(15) -0.10246(12) 0.6514(3)
C7A C -0.11632(15) -0.10398(13) 0.7014(2)
H3A H -0.0978 -0.0825 0.7097
C8A C -0.19996(19) -0.19911(16) 0.6638(3)
C9A C -0.16763(10) -0.06907(13) 0.6175(2)
C10A C -0.15944(9) -0.03510(13) 0.6458(2)
H4A H -0.1450 -0.0350 0.6924
C11A C -0.16898(14) 0.0000 0.6166(3)
C12A C -0.1912(2) 0.0000 0.5461(3)
C13A C -0.20112(16) -0.03386(12) 0.5128(2)
H5A H -0.2166 -0.0350 0.4670
C14A C -0.1878(3) -0.06490(18) 0.5485(3)
H6A H -0.1929 -0.0870 0.5226
C15A C -0.06115(9) -0.13538(10) 0.99139(14)
C16A C -0.09634(6) -0.13429(9) 1.05316(11)
C17A C -0.10219(12) -0.10149(11) 1.09196(16)
H7A H -0.0843 -0.0805 1.0778
C18A C -0.13325(17) -0.09939(13) 1.1499(2)
C19A C -0.16137(18) -0.13171(15) 1.1666(3)
H8A H -0.1854 -0.1308 1.2034
C20A C -0.15336(16) -0.16408(12) 1.1289(3)
C21A C -0.12035(11) -0.16555(10) 1.0712(2)
H9A H -0.1149 -0.1876 1.0455
C22A C -0.18522(14) -0.19575(11) 1.1489(3)
C23A C -0.13423(10) -0.06567(13) 1.1975(2)
C24A C -0.13877(9) -0.06388(18) 1.2730(3)
H10A H -0.1400 -0.0863 1.2986
C25A C -0.14156(14) -0.03256(18) 1.3125(3)
H11A H -0.1448 -0.0329 1.3637
C26A C -0.1394(3) 0.0000 1.2734(4)
C27A C -0.1352(2) 0.0000 1.1973(4)
C28A C -0.13292(19) -0.03236(11) 1.1569(3)
H12A H -0.1307 -0.0322 1.1057
C29A C -0.21030(9) -0.26989(6) 1.27432(18)
C30A C -0.19376(7) -0.28239(5) 1.3464(3)
C31A C -0.15333(12) -0.30619(9) 1.3504(3)
H13A H -0.1379 -0.3132 1.3066
C32A C -0.13426(11) -0.32032(10) 1.4174(2)
C33A C -0.15590(12) -0.31049(11) 1.4818(2)
H14A H -0.1447 -0.3196 1.5268
C34A C -0.19521(12) -0.28640(11) 1.4773(2)
C35A C -0.21261(14) -0.27412(9) 1.4126(2)
H15A H -0.2402 -0.2585 1.4137
C36A C -0.21639(15) -0.27665(12) 1.5503(2)
C37A C -0.08846(14) -0.34261(10) 1.41945(18)
C38A C -0.04560(11) -0.32850(8) 1.39875(14)
H16A H -0.0451 -0.3061 1.3731
C39A C 0.0000 -0.34671(12) 1.4146(2)
C40A C 0.0000 -0.38145(16) 1.4540(3)
C41A C -0.04401(14) -0.39605(12) 1.4765(3)
H17A H -0.0456 -0.4181 1.5036
C42A C -0.08461(16) -0.37724(12) 1.4579(3)
H18A H -0.1146 -0.3881 1.4718
O1B O -0.24024(10) 0.19441(8) 0.6318(2)
O2B O -0.18555(8) 0.23015(7) 0.69804(17)
O3B O -0.05028(8) 0.10342(7) 0.81603(12)
O4B O -0.04971(8) 0.16455(6) 0.81756(12)
C1B C -0.06622(8) 0.13520(9) 0.79735(14)
C2B C -0.10494(7) 0.13464(9) 0.74157(12)
C3B C -0.13179(10) 0.16495(11) 0.72753(17)
H1B H -0.1242 0.1863 0.7542
C4B C -0.16933(13) 0.16741(11) 0.6777(2)
C5B C -0.17621(18) 0.13506(12) 0.6365(3)
H2B H -0.1985 0.1356 0.5972
C6B C -0.15162(15) 0.10246(12) 0.6514(3)
C7B C -0.11632(15) 0.10398(13) 0.7014(2)
H3B H -0.0978 0.0825 0.7097
C8B C -0.19996(19) 0.19911(16) 0.6638(3)
C9B C -0.16763(10) 0.06907(13) 0.6175(2)
C10B C -0.15944(9) 0.03510(13) 0.6458(2)
H4B H -0.1450 0.0350 0.6924
C13B C -0.20112(16) 0.03386(12) 0.5128(2)
H5B H -0.2166 0.0350 0.4670
C14B C -0.1878(3) 0.06490(18) 0.5485(3)
H6B H -0.1929 0.0870 0.5226
O5B O -0.04984(8) 0.10451(6) 0.96629(14)
O6B O -0.05026(9) 0.16528(6) 0.96680(16)
O7B O -0.22137(9) 0.19132(8) 1.18537(17)
O8B O -0.16984(8) 0.22392(7) 1.1226(2)
C15B C -0.06115(9) 0.13538(10) 0.99139(14)
C16B C -0.09634(6) 0.13429(9) 1.05316(11)
C17B C -0.10219(12) 0.10149(11) 1.09196(16)
H7B H -0.0843 0.0805 1.0778
C18B C -0.13325(17) 0.09939(13) 1.1499(2)
C19B C -0.16137(18) 0.13171(15) 1.1666(3)
H8B H -0.1854 0.1308 1.2034
C20B C -0.15336(16) 0.16408(12) 1.1289(3)
C21B C -0.12035(11) 0.16555(10) 1.0712(2)
H9B H -0.1149 0.1876 1.0455
C22B C -0.18522(14) 0.19575(11) 1.1489(3)
C23B C -0.13423(10) 0.06567(13) 1.1975(2)
C24B C -0.13877(9) 0.06388(18) 1.2730(3)
H10B H -0.1400 0.0863 1.2986
C25B C -0.14156(14) 0.03256(18) 1.3125(3)
H11B H -0.1448 0.0329 1.3637
C28B C -0.13292(19) 0.03236(11) 1.1569(3)
H12B H -0.1307 0.0322 1.1057
O9C O 0.19029(10) -0.28119(7) 1.21578(17)
O10C O 0.24125(9) -0.24484(9) 1.28237(16)
O11C O 0.20383(9) -0.28412(9) 1.61249(16)
O12C O 0.25401(10) -0.25395(8) 1.53886(16)
C29C C 0.21030(9) -0.26989(6) 1.27432(18)
C30C C 0.19376(7) -0.28239(5) 1.3464(3)
C31C C 0.15333(12) -0.30619(9) 1.3504(3)
H13C H 0.1379 -0.3132 1.3066
C32C C 0.13426(11) -0.32032(10) 1.4174(2)
C33C C 0.15590(12) -0.31049(11) 1.4818(2)
H14C H 0.1447 -0.3196 1.5268
C34C C 0.19521(12) -0.28640(11) 1.4773(2)
C35C C 0.21261(14) -0.27412(9) 1.4126(2)
H15C H 0.2402 -0.2585 1.4137
C36C C 0.21639(15) -0.27665(12) 1.5503(2)
C37C C 0.08846(14) -0.34261(10) 1.41945(18)
C38C C 0.04560(11) -0.32850(8) 1.39875(14)
H16C H 0.0451 -0.3061 1.3731
C41C C 0.04401(14) -0.39605(12) 1.4765(3)
H17C H 0.0456 -0.4181 1.5036
C42C C 0.08461(16) -0.37724(12) 1.4579(3)
H18C H 0.1146 -0.3881 1.4718
Cu3B Cu -0.211830(17) 0.267443(14) 1.12196(3)
Cu4B Cu -0.273642(17) 0.225969(15) 1.19724(3)
O14B O -0.16314(10) 0.30264(9) 1.0660(2)
O15B O -0.32191(11) 0.18762(9) 1.2495(2)
Cu3C Cu 0.211830(17) -0.267443(14) 1.12196(3)
Cu4C Cu 0.273642(17) -0.225969(15) 1.19724(3)
O14C O 0.16314(10) -0.30264(9) 1.0660(2)
O15C O 0.32191(11) -0.18762(9) 1.2495(2)
Cu3D Cu -0.288170(17) -0.232557(14) 0.62196(3)
Cu3D_2 Cu -0.288170(17) -0.232557(14) 1.62196(3)
Cu3E Cu 0.288170(17) 0.232557(14) 0.62196(3)
Cu3E_2 Cu 0.288170(17) 0.232557(14) 1.62196(3)
Cu3F Cu 0.288170(17) -0.232557(14) 0.62196(3)
Cu3F_2 Cu 0.288170(17) -0.232557(14) 1.62196(3)
Cu3G Cu -0.288170(17) 0.232557(14) 0.62196(3)
Cu3G_2 Cu -0.288170(17) 0.232557(14) 1.62196(3)
Cu4D Cu -0.226358(17) -0.274031(15) 0.69724(3)
Cu4D_2 Cu -0.226358(17) -0.274031(15) 1.69724(3)
Cu4E Cu 0.226358(17) 0.274031(15) 0.69724(3)
Cu4E_2 Cu 0.226358(17) 0.274031(15) 1.69724(3)
Cu4F Cu 0.226358(17) -0.274031(15) 0.69724(3)
Cu4F_2 Cu 0.226358(17) -0.274031(15) 1.69724(3)
Cu4G Cu -0.226358(17) 0.274031(15) 0.69724(3)
Cu4G_2 Cu -0.226358(17) 0.274031(15) 1.69724(3)
O1D O -0.25976(10) -0.30559(8) 1.1318(2)
O1E O 0.25976(10) 0.30559(8) 1.1318(2)
O1F O 0.25976(10) -0.30559(8) 1.1318(2)
O1G O -0.25976(10) 0.30559(8) 1.1318(2)
O2D O -0.31445(8) -0.26985(7) 1.19804(17)
O2E O 0.31445(8) 0.26985(7) 1.19804(17)
O2F O 0.31445(8) -0.26985(7) 1.19804(17)
O2G O -0.31445(8) 0.26985(7) 1.19804(17)
O11D O -0.29617(9) -0.21588(9) 1.11249(16)
O11E O 0.29617(9) 0.21588(9) 1.11249(16)
O11F O 0.29617(9) -0.21588(9) 1.11249(16)
O11G O -0.29617(9) 0.21588(9) 1.11249(16)
O12D O -0.24599(10) -0.24605(8) 1.03886(16)
O12E O 0.24599(10) 0.24605(8) 1.03886(16)
O12F O 0.24599(10) -0.24605(8) 1.03886(16)
O12G O -0.24599(10) 0.24605(8) 1.03886(16)
loop_
_geom_bond_atom_site_label_1
_geom_bond_atom_site_label_2
_geom_bond_site_symmetry_1
_geom_bond_site_symmetry_2
Cu1 O4 1_555 1_555
Cu2 O3 1_555 1_555
Cu3 O8 1_555 1_555
Cu4 O7 1_555 1_555
O1 C8 1_555 1_555
O2 C8 1_555 1_555
O3 C1 1_555 1_555
O4 C1 1_555 1_555
O5 Cu2 1_555 1_555
O6 Cu1 1_555 1_555
O7 C22 1_555 1_555
O8 C22 1_555 1_555
O9 Cu3 1_555 1_555
O10 Cu4 1_555 1_555
O11 C36 1_555 1_555
O12 C36 1_555 1_555
O13 Cu1 1_555 1_555
O14 Cu3 1_555 1_555
O15 Cu4 1_555 1_555
N1 Cu2 1_555 1_555
C1 C2 1_555 1_555
C2 C3 1_555 1_555
C3 H1 1_555 1_555
C4 C3 1_555 1_555
C5 C4 1_555 1_555
H2 C5 1_555 1_555
C6 C5 1_555 1_555
C7 C2 1_555 1_555
H3 C7 1_555 1_555
C8 C4 1_555 1_555
C9 C6 1_555 1_555
C10 C9 1_555 1_555
H4 C10 1_555 1_555
C11 C10 1_555 1_555
C12 C11 1_555 1_555
C13 C12 1_555 1_555
H5 C13 1_555 1_555
C14 C9 1_555 1_555
H6 C14 1_555 1_555
C15 O5 1_555 1_555
C16 C15 1_555 1_555
C17 C16 1_555 1_555
H7 C17 1_555 1_555
C18 C17 1_555 1_555
C19 C18 1_555 1_555
H8 C19 1_555 1_555
C20 C19 1_555 1_555
C21 C16 1_555 1_555
H9 C21 1_555 1_555
C22 C20 1_555 1_555
C23 C18 1_555 1_555
C24 C23 1_555 1_555
H10 C24 1_555 1_555
C25 C24 1_555 1_555
H11 C25 1_555 1_555
C26 C25 1_555 1_555
C27 C26 1_555 1_555
C28 C23 1_555 1_555
H12 C28 1_555 1_555
C29 O9 1_555 1_555
C30 C29 1_555 1_555
C31 C30 1_555 1_555
H13 C31 1_555 1_555
C32 C31 1_555 1_555
C33 C32 1_555 1_555
H14 C33 1_555 1_555
C34 C33 1_555 1_555
C35 C30 1_555 1_555
H15 C35 1_555 1_555
C36 C34 1_555 1_555
C37 C32 1_555 1_555
C38 C37 1_555 1_555
H16 C38 1_555 1_555
C39 C38 1_555 1_555
C40 C39 1_555 1_555
C41 C40 1_555 1_555
H17 C41 1_555 1_555
C42 C37 1_555 1_555
H18 C42 1_555 1_555
C43 N1 1_555 1_555
H19 C43 1_555 1_555
C44 N1 1_555 1_555
H20 C44 1_555 1_555
O1C C8C 1_555 1_555
O2C C8C 1_555 1_555
O3C C1C 1_555 1_555
O4C C1C 1_555 1_555
C1C C2C 1_555 1_555
C2C C3C 1_555 1_555
C3C H1C 1_555 1_555
C4C C3C 1_555 1_555
C5C C4C 1_555 1_555
H2C C5C 1_555 1_555
C6C C5C 1_555 1_555
C7C C2C 1_555 1_555
H3C C7C 1_555 1_555
C8C C4C 1_555 1_555
C9C C6C 1_555 1_555
C10C C11 1_555 1_555
H4C C10C 1_555 1_555
C13C C12 1_555 1_555
H5C C13C 1_555 1_555
C14C C9C 1_555 1_555
H6C C14C 1_555 1_555
O5C C15C 1_555 1_555
O6C C15C 1_555 1_555
O7C C22C 1_555 1_555
O8C C22C 1_555 1_555
C15C C16C 1_555 1_555
C16C C17C 1_555 1_555
C17C H7C 1_555 1_555
C18C C17C 1_555 1_555
C19C C18C 1_555 1_555
H8C C19C 1_555 1_555
C20C C19C 1_555 1_555
C21C C16C 1_555 1_555
H9C C21C 1_555 1_555
C22C C20C 1_555 1_555
C23C C18C 1_555 1_555
C24C C23C 1_555 1_555
H10C C24C 1_555 1_555
C25C C26 1_555 1_555
H11C C25C 1_555 1_555
C28C C27 1_555 1_555
H12C C28C 1_555 1_555
O9B C29B 1_555 1_555
O10B C29B 1_555 1_555
O11B C36B 1_555 1_555
O12B C36B 1_555 1_555
C29B C30B 1_555 1_555
C30B C31B 1_555 1_555
C31B H13B 1_555 1_555
C32B C31B 1_555 1_555
C33B C32B 1_555 1_555
H14B C33B 1_555 1_555
C34B C33B 1_555 1_555
C35B C30B 1_555 1_555
H15B C35B 1_555 1_555
C36B C34B 1_555 1_555
C37B C32B 1_555 1_555
C38B C39 1_555 1_555
H16B C38B 1_555 1_555
C41B C40 1_555 1_555
H17B C41B 1_555 1_555
C42B C37B 1_555 1_555
H18B C42B 1_555 1_555
N1A C43A 1_555 1_555
C43A C43 1_555 1_555
H19A C43A 1_555 1_555
C44A C44 1_555 1_555
H20A C44A 1_555 1_555
Cu1A O4C 1_555 1_555
Cu2A O3C 1_555 1_555
Cu3A O8A 1_555 1_555
Cu4A O7A 1_555 1_555
O1A C8A 1_555 1_555
O2A C8A 1_555 1_555
O3A Cu2A 1_555 1_555
O4A Cu1A 1_555 1_555
O5A Cu2A 1_555 1_555
O6A Cu1A 1_555 1_555
O7A C22A 1_555 1_555
O8A C22A 1_555 1_555
O9A Cu3A 1_555 1_555
O10A Cu4A 1_555 1_555
O11A C36A 1_555 1_555
O12A C36A 1_555 1_555
O13A Cu1A 1_555 1_555
O14A Cu3A 1_555 1_555
O15A Cu4A 1_555 1_555
C1A O3A 1_555 1_555
C2A C1A 1_555 1_555
C3A C2A 1_555 1_555
H1A C3A 1_555 1_555
C4A C3A 1_555 1_555
C5A C4A 1_555 1_555
H2A C5A 1_555 1_555
C6A C5A 1_555 1_555
C7A C2A 1_555 1_555
H3A C7A 1_555 1_555
C8A C4A 1_555 1_555
C9A C6A 1_555 1_555
C10A C9A 1_555 1_555
H4A C10A 1_555 1_555
C11A C10A 1_555 1_555
C12A C11A 1_555 1_555
C13A C12A 1_555 1_555
H5A C13A 1_555 1_555
C14A C9A 1_555 1_555
H6A C14A 1_555 1_555
C15A O5A 1_555 1_555
C16A C15A 1_555 1_555
C17A C16A 1_555 1_555
H7A C17A 1_555 1_555
C18A C17A 1_555 1_555
C19A C18A 1_555 1_555
H8A C19A 1_555 1_555
C20A C19A 1_555 1_555
C21A C16A 1_555 1_555
H9A C21A 1_555 1_555
C22A C20A 1_555 1_555
C23A C18A 1_555 1_555
C24A C23A 1_555 1_555
H10A C24A 1_555 1_555
C25A C24A 1_555 1_555
H11A C25A 1_555 1_555
C26A C25A 1_555 1_555
C27A C26A 1_555 1_555
C28A C23A 1_555 1_555
H12A C28A 1_555 1_555
C29A O9A 1_555 1_555
C30A C29A 1_555 1_555
C31A C30A 1_555 1_555
H13A C31A 1_555 1_555
C32A C31A 1_555 1_555
C33A C32A 1_555 1_555
H14A C33A 1_555 1_555
C34A C33A 1_555 1_555
C35A C30A 1_555 1_555
H15A C35A 1_555 1_555
C36A C34A 1_555 1_555
C37A C32A 1_555 1_555
C38A C37A 1_555 1_555
H16A C38A 1_555 1_555
C39A C38A 1_555 1_555
C40A C39A 1_555 1_555
C41A C40A 1_555 1_555
H17A C41A 1_555 1_555
C42A C37A 1_555 1_555
H18A C42A 1_555 1_555
O1B C8B 1_555 1_555
O2B C8B 1_555 1_555
O3B Cu2 1_555 1_555
O4B Cu1 1_555 1_555
C1B O3B 1_555 1_555
C2B C1B 1_555 1_555
C3B C2B 1_555 1_555
H1B C3B 1_555 1_555
C4B C3B 1_555 1_555
C5B C4B 1_555 1_555
H2B C5B 1_555 1_555
C6B C5B 1_555 1_555
C7B C2B 1_555 1_555
H3B C7B 1_555 1_555
C8B C4B 1_555 1_555
C9B C6B 1_555 1_555
C10B C11A 1_555 1_555
H4B C10B 1_555 1_555
C13B C12A 1_555 1_555
H5B C13B 1_555 1_555
C14B C9B 1_555 1_555
H6B C14B 1_555 1_555
O5B Cu2 1_555 1_555
O6B Cu1 1_555 1_555
O7B C22B 1_555 1_555
O8B C22B 1_555 1_555
C15B O5B 1_555 1_555
C16B C15B 1_555 1_555
C17B C16B 1_555 1_555
H7B C17B 1_555 1_555
C18B C17B 1_555 1_555
C19B C18B 1_555 1_555
H8B C19B 1_555 1_555
C20B C19B 1_555 1_555
C21B C16B 1_555 1_555
H9B C21B 1_555 1_555
C22B C20B 1_555 1_555
C23B C18B 1_555 1_555
C24B C23B 1_555 1_555
H10B C24B 1_555 1_555
C25B C26A 1_555 1_555
H11B C25B 1_555 1_555
C28B C27A 1_555 1_555
H12B C28B 1_555 1_555
O9C C29C 1_555 1_555
O10C C29C 1_555 1_555
O11C C36C 1_555 1_555
O12C C36C 1_555 1_555
C29C C30C 1_555 1_555
C30C C31C 1_555 1_555
C31C H13C 1_555 1_555
C32C C31C 1_555 1_555
C33C C32C 1_555 1_555
H14C C33C 1_555 1_555
C34C C33C 1_555 1_555
C35C C30C 1_555 1_555
H15C C35C 1_555 1_555
C36C C34C 1_555 1_555
C37C C32C 1_555 1_555
C38C C39A 1_555 1_555
H16C C38C 1_555 1_555
C41C C40A 1_555 1_555
H17C C41C 1_555 1_555
C42C C37C 1_555 1_555
H18C C42C 1_555 1_555
Cu3B O9B 1_555 1_555
Cu4B O10B 1_555 1_555
O14B Cu3B 1_555 1_555
O15B Cu4B 1_555 1_555
Cu3C O8C 1_555 1_555
Cu4C O7C 1_555 1_555
O14C Cu3C 1_555 1_555
O15C Cu4C 1_555 1_555
Cu3D O1A 1_555 1_555
Cu3D_2 O12A 1_555 1_555
Cu3E O1 1_555 1_555
Cu3E_2 O12 1_555 1_555
Cu3F O1C 1_555 1_555
Cu3F_2 O12C 1_555 1_555
Cu3G O1B 1_555 1_555
Cu3G_2 O12B 1_555 1_555
Cu4D O2A 1_555 1_555
Cu4D_2 O11A 1_555 1_555
Cu4E O2 1_555 1_555
Cu4E_2 O11 1_555 1_555
Cu4F O2C 1_555 1_555
Cu4F_2 O11C 1_555 1_555
Cu4G O2B 1_555 1_555
Cu4G_2 O11B 1_555 1_555
O1D Cu3A 1_555 1_555
O1E Cu3 1_555 1_555
O1F Cu3C 1_555 1_555
O1G Cu3B 1_555 1_555
O2D Cu4A 1_555 1_555
O2E Cu4 1_555 1_555
O2F Cu4C 1_555 1_555
O2G Cu4B 1_555 1_555
O11D Cu4A 1_555 1_555
O11E Cu4 1_555 1_555
O11F Cu4C 1_555 1_555
O11G Cu4B 1_555 1_555
O12D Cu3A 1_555 1_555
O12E Cu3 1_555 1_555
O12F Cu3C 1_555 1_555
O12G Cu3B 1_555 1_555
O6 C15 1_555 1_555
O10 C29 1_555 1_555
C6 C7 1_555 1_555
C13 C14 1_555 1_555
C20 C21 1_555 1_555
C27 C28 1_555 1_555
C34 C35 1_555 1_555
C41 C42 1_555 1_555
C6C C7C 1_555 1_555
C9C C10C 1_555 1_555
C13C C14C 1_555 1_555
O5C Cu2A 1_555 1_555
O6C Cu1A 1_555 1_555
C20C C21C 1_555 1_555
C23C C28C 1_555 1_555
C24C C25C 1_555 1_555
C34B C35B 1_555 1_555
C37B C38B 1_555 1_555
C41B C42B 1_555 1_555
N1A C44A 1_555 1_555
N1A Cu2A 1_555 1_555
O4A C1A 1_555 1_555
O6A C15A 1_555 1_555
O10A C29A 1_555 1_555
C6A C7A 1_555 1_555
C13A C14A 1_555 1_555
C20A C21A 1_555 1_555
C27A C28A 1_555 1_555
C34A C35A 1_555 1_555
C41A C42A 1_555 1_555
O4B C1B 1_555 1_555
C6B C7B 1_555 1_555
C9B C10B 1_555 1_555
C13B C14B 1_555 1_555
O6B C15B 1_555 1_555
O7B Cu4B 1_555 1_555
O8B Cu3B 1_555 1_555
C20B C21B 1_555 1_555
C23B C28B 1_555 1_555
C24B C25B 1_555 1_555
O9C Cu3C 1_555 1_555
O10C Cu4C 1_555 1_555
C34C C35C 1_555 1_555
C37C C38C 1_555 1_555
C41C C42C 1_555 1_555

#END
