
#######################################################################
#
#                 Cambridge Crystallographic Data Centre
#                                CCDC 
#
#######################################################################
#
# If this CIF has been generated from an entry in the Cambridge 
# Structural Database, then it will include bibliographic, chemical, 
# crystal, experimental, refinement or atomic coordinate data resulting 
# from the CCDC's data processing and validation procedures.
#
#######################################################################

data_NIGDOY
_chemical_formula_moiety         'C96 H66 Mo4 N10 O18,2(C4 H9 N1 O1)'
_chemical_name_systematic        
"tetrakis(\m~4~-3,3'-(1,8-Naphthyridine-2,7-diyl)dibenzoato)-bis(dimethylacetamide)-tetra-molybdenum dimethylacetamide solvate"
_symmetry_cell_setting           triclinic
_symmetry_space_group_name_H-M   'P -1'
_symmetry_Int_Tables_number      2
_space_group_name_Hall           '-P 1'
loop_
_symmetry_equiv_pos_site_id
_symmetry_equiv_pos_as_xyz
1 x,y,z
2 -x,-y,-z
_cell_length_a                   12.522(3)
_cell_length_b                   15.062(4)
_cell_length_c                   24.647(7)
_cell_angle_alpha                85.358(3)
_cell_angle_beta                 83.045(3)
_cell_angle_gamma                89.313(3)
_cell_volume                     4599.23
_exptl_crystal_colour            red
_exptl_crystal_description       Block
_cell_formula_units_Z            2
loop_
_atom_site_label
_atom_site_type_symbol
_atom_site_fract_x
_atom_site_fract_y
_atom_site_fract_z
Mo1 Mo 0.53290(3) 0.120658(19) 0.283423(12)
Mo2 Mo 0.54120(3) -0.014236(19) 0.265871(12)
Mo3 Mo 0.53246(3) -0.488331(19) 0.229236(11)
Mo4 Mo 0.54165(3) -0.62274(2) 0.210241(12)
O1 O 0.5707(2) 0.08850(14) 0.36346(9)
O2 O 0.5795(2) -0.05518(14) 0.34575(9)
O3 O 0.5868(2) -0.66739(14) 0.28768(9)
O4 O 0.5747(2) -0.52440(14) 0.30820(9)
O5 O 0.70369(19) -0.61125(14) 0.18257(9)
O6 O 0.69813(19) -0.46971(14) 0.20348(9)
O7 O 0.69629(19) 0.14239(14) 0.25474(9)
O8 O 0.70513(19) -0.00041(14) 0.23716(9)
O9 O 0.4879(2) 0.16319(14) 0.20622(9)
O10 O 0.4952(2) 0.02030(14) 0.18729(9)
O11 O 0.4967(2) -0.58932(14) 0.13192(9)
O12 O 0.48935(19) -0.44600(14) 0.15111(9)
O13 O 0.37359(19) -0.64506(15) 0.23631(9)
O14 O 0.36403(18) -0.50319(15) 0.25666(9)
O15 O 0.36279(19) 0.10932(15) 0.31146(9)
O16 O 0.37350(18) -0.03432(15) 0.29391(9)
O17 O 0.5803(2) -0.15740(16) 0.23168(11)
O18 O 0.4928(2) -0.34860(15) 0.26833(9)
N1 N 0.6324(2) -0.28560(17) 0.50130(11)
N2 N 0.6411(2) -0.43637(17) 0.48719(11)
N3 N 1.0497(3) -0.1423(2) 0.18224(12)
N4 N 1.0474(3) -0.2920(2) 0.17171(13)
N5 N 0.3543(3) -0.0729(2) 0.02298(11)
N6 N 0.3562(3) -0.22325(19) 0.00933(12)
N7 N 0.0242(2) -0.20917(19) 0.32790(12)
N8 N 0.0249(2) -0.36062(19) 0.31608(12)
N9 N 0.6646(4) -0.2207(2) 0.15688(17)
N10 N 0.4035(3) -0.2810(2) 0.33790(13)
C1 C 0.5877(3) 0.0062(2) 0.37863(14)
C2 C 0.6133(3) -0.0166(2) 0.43443(14)
C3 C 0.6437(3) 0.0491(2) 0.46493(15)
H1 H 0.6424 0.1095 0.4505
C4 C 0.6765(3) 0.0288(2) 0.51664(15)
H2 H 0.7013 0.0744 0.5364
C5 C 0.6723(3) -0.0580(2) 0.53865(14)
H3 H 0.6926 -0.0717 0.5743
C6 C 0.6390(3) -0.1264(2) 0.50991(13)
C7 C 0.6092(3) -0.1058(2) 0.45784(13)
H4 H 0.5860 -0.1518 0.4378
C8 C 0.6335(3) -0.2210(2) 0.53503(13)
C9 C 0.6303(3) -0.2379(2) 0.59284(13)
H5 H 0.6237 -0.1900 0.6158
C10 C 0.6366(3) -0.3231(2) 0.61502(14)
H6 H 0.6376 -0.3351 0.6534
C11 C 0.6418(3) -0.3934(2) 0.58060(14)
C12 C 0.6374(3) -0.3723(2) 0.52375(13)
C13 C 0.6526(3) -0.4846(2) 0.59885(14)
H7 H 0.6546 -0.5016 0.6367
C14 C 0.6601(3) -0.5472(2) 0.56204(14)
H8 H 0.6676 -0.6085 0.5736
C15 C 0.6567(3) -0.5192(2) 0.50508(14)
C16 C 0.6661(3) -0.5862(2) 0.46296(13)
C17 C 0.7216(3) -0.6667(2) 0.47170(15)
H9 H 0.7477 -0.6812 0.5060
C18 C 0.7388(3) -0.7254(2) 0.43076(16)
H10 H 0.7797 -0.7780 0.4370
C19 C 0.6985(3) -0.7093(2) 0.38200(15)
H11 H 0.7093 -0.7508 0.3548
C20 C 0.6401(3) -0.6293(2) 0.37270(13)
C21 C 0.6290(3) -0.5675(2) 0.41242(13)
H12 H 0.5954 -0.5118 0.4047
C22 C 0.5987(3) -0.6055(2) 0.32002(13)
C23 C 0.7526(3) -0.5368(2) 0.18384(13)
C24 C 0.8704(3) -0.5258(2) 0.16355(14)
C25 C 0.9187(3) -0.5915(3) 0.13279(15)
H13 H 0.8780 -0.6408 0.1251
C26 C 1.0257(4) -0.5847(3) 0.11347(17)
H14 H 1.0594 -0.6287 0.0916
C27 C 1.0846(4) -0.5137(3) 0.12594(17)
H15 H 1.1594 -0.5104 0.1133
C28 C 1.0373(4) -0.4473(3) 0.15635(16)
C29 C 0.9278(3) -0.4537(2) 0.17482(15)
H16 H 0.8929 -0.4083 0.1951
C30 C 1.1005(4) -0.3686(3) 0.16754(16)
C31 C 1.2123(4) -0.3792(3) 0.17013(18)
H17 H 1.2459 -0.4357 0.1670
C32 C 1.2703(4) -0.3062(3) 0.17726(19)
H18 H 1.3451 -0.3117 0.1801
C33 C 1.2193(3) -0.2217(3) 0.18047(18)
C34 C 1.1074(3) -0.2183(3) 0.17859(16)
C35 C 1.2724(4) -0.1417(3) 0.18706(19)
H19 H 1.3474 -0.1416 0.1899
C36 C 1.2145(4) -0.0650(3) 0.18927(17)
H20 H 1.2488 -0.0102 0.1927
C37 C 1.1040(4) -0.0676(3) 0.18636(16)
C38 C 1.0390(3) 0.0145(2) 0.18947(15)
C39 C 1.0836(4) 0.1002(3) 0.17425(17)
H21 H 1.1581 0.1064 0.1615
C40 C 1.0185(4) 0.1750(3) 0.17799(17)
H22 H 1.0490 0.2316 0.1654
C41 C 0.9109(3) 0.1710(2) 0.19927(16)
H23 H 0.8683 0.2232 0.2034
C42 C 0.8680(3) 0.0850(2) 0.21456(14)
C43 C 0.9292(3) 0.0094(2) 0.20926(15)
H24 H 0.8968 -0.0473 0.2191
C44 C 0.7505(3) 0.0756(2) 0.23628(14)
C45 C 0.4692(3) 0.1022(2) 0.17584(14)
C46 C 0.4118(3) 0.1227(2) 0.12752(14)
C47 C 0.3590(4) 0.2057(3) 0.12232(16)
H25 H 0.3660 0.2494 0.1473
C48 C 0.2964(4) 0.2217(3) 0.07961(16)
H26 H 0.2570 0.2758 0.0769
C49 C 0.2901(3) 0.1604(2) 0.04061(16)
H27 H 0.2490 0.1738 0.0110
C50 C 0.3454(3) 0.0781(2) 0.04547(15)
C51 C 0.4041(3) 0.0614(2) 0.08975(14)
H28 H 0.4400 0.0058 0.0940
C52 C 0.3356(3) 0.0105(2) 0.00602(14)
C53 C 0.3076(3) 0.0361(3) -0.04755(15)
H29 H 0.2957 0.0971 -0.0584
C54 C 0.2980(4) -0.0271(3) -0.08287(16)
H30 H 0.2810 -0.0106 -0.1189
C55 C 0.3134(3) -0.1177(3) -0.06578(14)
C56 C 0.3433(3) -0.1378(3) -0.01225(14)
C57 C 0.3048(3) -0.1882(3) -0.09811(15)
H31 H 0.2904 -0.1770 -0.1350
C58 C 0.3170(3) -0.2730(3) -0.07665(15)
H32 H 0.3091 -0.3218 -0.0979
C59 C 0.3416(3) -0.2875(2) -0.02237(14)
C60 C 0.3508(3) -0.3809(2) 0.00208(14)
C61 C 0.3083(3) -0.4535(2) -0.02089(15)
H33 H 0.2697 -0.4427 -0.0517
C62 C 0.3213(3) -0.5396(3) 0.00031(16)
H34 H 0.2907 -0.5878 -0.0150
C63 C 0.3797(3) -0.5551(2) 0.04443(15)
H35 H 0.3938 -0.6147 0.0574
C64 C 0.4177(3) -0.4861(2) 0.06972(14)
C65 C 0.4038(3) -0.3981(2) 0.04817(14)
H36 H 0.4308 -0.3500 0.0652
C66 C 0.4734(3) -0.5069(2) 0.12006(14)
C67 C 0.3220(3) -0.5780(2) 0.25163(13)
C68 C 0.2075(3) -0.5851(2) 0.26598(14)
C69 C 0.1503(3) -0.6607(2) 0.25818(15)
H37 H 0.1878 -0.7104 0.2437
C70 C 0.0408(4) -0.6647(3) 0.27106(17)
H38 H 0.0040 -0.7169 0.2648
C71 C -0.0179(3) -0.5946(2) 0.29302(16)
H39 H -0.0937 -0.5990 0.3020
C72 C 0.0373(3) -0.5165(2) 0.30189(14)
C73 C 0.1473(3) -0.5136(2) 0.28785(14)
H40 H 0.1844 -0.4610 0.2932
C74 C -0.0217(3) -0.4404(2) 0.32511(15)
C75 C -0.1231(3) -0.4540(3) 0.35881(16)
H41 H -0.1542 -0.5117 0.3645
C76 C -0.1743(3) -0.3848(3) 0.38245(16)
H42 H -0.2399 -0.3939 0.4059
C77 C -0.1295(3) -0.2996(2) 0.37200(15)
C78 C -0.0277(3) -0.2895(2) 0.33873(15)
C79 C -0.1758(3) -0.2232(2) 0.39404(15)
H43 H -0.2431 -0.2271 0.4165
C80 C -0.1245(3) -0.1433(3) 0.38327(15)
H44 H -0.1559 -0.0913 0.3979
C81 C -0.0227(3) -0.1383(3) 0.34966(15)
C82 C 0.0373(3) -0.0528(2) 0.34006(14)
C83 C -0.0217(3) 0.0284(3) 0.34480(16)
H45 H -0.0979 0.0277 0.3522
C84 C 0.0342(3) 0.1084(3) 0.33849(16)
H46 H -0.0048 0.1627 0.3411
C85 C 0.1454(3) 0.1109(2) 0.32849(15)
H47 H 0.1819 0.1663 0.3259
C86 C 0.2047(3) 0.0312(2) 0.32213(14)
C87 C 0.1488(3) -0.0497(2) 0.32834(14)
H48 H 0.1879 -0.1037 0.3244
C88 C 0.3220(3) 0.0338(2) 0.30785(13)
C89 C 0.7653(4) -0.2130(3) 0.2334(2)
H49 H 0.7632 -0.1780 0.2653
H50 H 0.8284 -0.1959 0.2073
H51 H 0.7697 -0.2765 0.2452
C90 C 0.6620(5) -0.1950(3) 0.20550(18)
C91 C 0.7500(5) -0.2718(3) 0.1285(2)
H52 H 0.8191 -0.2567 0.1403
H53 H 0.7526 -0.2575 0.0888
H54 H 0.7361 -0.3356 0.1371
C92 C 0.5600(4) -0.2100(3) 0.1352(2)
H55 H 0.5085 -0.2530 0.1552
H56 H 0.5691 -0.2204 0.0962
H57 H 0.5329 -0.1494 0.1398
C93 C 0.5855(4) -0.3102(3) 0.34394(17)
H58 H 0.6423 -0.3488 0.3278
H59 H 0.5652 -0.3307 0.3825
H60 H 0.6120 -0.2488 0.3414
C94 C 0.4865(4) -0.3136(2) 0.31253(17)
C95 C 0.3975(4) -0.2256(2) 0.38429(15)
H61 H 0.4407 -0.2526 0.4119
H62 H 0.3224 -0.2210 0.4006
H63 H 0.4251 -0.1660 0.3715
C96 C 0.3029(4) -0.2809(3) 0.3101(2)
H64 H 0.2967 -0.2239 0.2885
H65 H 0.2401 -0.2891 0.3378
H66 H 0.3064 -0.3296 0.2859
O19 O -0.0769(6) -0.2677(4) -0.0343(3)
N11 N 0.0177(4) -0.1776(4) 0.0033(2)
C97 C 0.0263(7) -0.3268(5) 0.0328(2)
H67 H 0.1011 -0.3327 0.0165
H68 H -0.0123 -0.3824 0.0305
H69 H 0.0247 -0.3146 0.0714
C98 C -0.0210(7) -0.2597(5) 0.0057(3)
C99 C -0.0124(7) -0.0963(5) -0.0364(3)
H70 H -0.0510 -0.1179 -0.0650
H71 H 0.0535 -0.0658 -0.0534
H72 H -0.0582 -0.0546 -0.0156
C100 C 0.0697(7) -0.1481(5) 0.0470(2)
H73 H 0.1095 -0.1979 0.0633
H74 H 0.0156 -0.1265 0.0751
H75 H 0.1196 -0.0998 0.0328
O20 O 0.8628(3) -0.7825(2) 0.55507(12)
N12 N 0.9970(3) -0.7124(3) 0.49900(18)
C101 C 0.9815(5) -0.8745(4) 0.5013(2)
H76 H 0.9536 -0.9221 0.5286
H77 H 1.0603 -0.8767 0.4964
H78 H 0.9546 -0.8824 0.4663
C102 C 0.9442(4) -0.7841(3) 0.52101(18)
C103 C 1.0837(5) -0.7128(6) 0.4553(3)
H79 H 1.1275 -0.7665 0.4604
H80 H 1.1285 -0.6599 0.4554
H81 H 1.0544 -0.7122 0.4201
C104 C 0.9684(4) -0.6273(4) 0.5194(2)
H82 H 0.9178 -0.6360 0.5530
H83 H 0.9346 -0.5902 0.4916
H84 H 1.0333 -0.5976 0.5274
loop_
_geom_bond_atom_site_label_1
_geom_bond_atom_site_label_2
_geom_bond_site_symmetry_1
_geom_bond_site_symmetry_2
Mo1 O1 1_555 1_555
Mo2 O2 1_555 1_555
Mo3 O4 1_555 1_555
Mo4 O3 1_555 1_555
O1 C1 1_555 1_555
O2 C1 1_555 1_555
O3 C22 1_555 1_555
O4 C22 1_555 1_555
O5 Mo4 1_555 1_555
O6 Mo3 1_555 1_555
O7 Mo1 1_555 1_555
O8 Mo2 1_555 1_555
O9 Mo1 1_555 1_555
O10 Mo2 1_555 1_555
O11 Mo4 1_555 1_555
O12 Mo3 1_555 1_555
O13 Mo4 1_555 1_555
O14 Mo3 1_555 1_555
O15 Mo1 1_555 1_555
O16 Mo2 1_555 1_555
O17 Mo2 1_555 1_555
O18 Mo3 1_555 1_555
N1 C8 1_555 1_555
N2 C12 1_555 1_555
N3 C34 1_555 1_555
N4 C30 1_555 1_555
N5 C52 1_555 1_555
N6 C56 1_555 1_555
N7 C78 1_555 1_555
N8 C74 1_555 1_555
N9 C90 1_555 1_555
N10 C94 1_555 1_555
C1 C2 1_555 1_555
C2 C3 1_555 1_555
C3 H1 1_555 1_555
C4 C3 1_555 1_555
H2 C4 1_555 1_555
C5 C4 1_555 1_555
H3 C5 1_555 1_555
C6 C5 1_555 1_555
C7 C2 1_555 1_555
H4 C7 1_555 1_555
C8 C6 1_555 1_555
C9 C8 1_555 1_555
H5 C9 1_555 1_555
C10 C9 1_555 1_555
H6 C10 1_555 1_555
C11 C10 1_555 1_555
C12 N1 1_555 1_555
C13 C11 1_555 1_555
H7 C13 1_555 1_555
C14 C13 1_555 1_555
H8 C14 1_555 1_555
C15 N2 1_555 1_555
C16 C15 1_555 1_555
C17 C16 1_555 1_555
H9 C17 1_555 1_555
C18 C17 1_555 1_555
H10 C18 1_555 1_555
C19 C18 1_555 1_555
H11 C19 1_555 1_555
C20 C19 1_555 1_555
C21 C16 1_555 1_555
H12 C21 1_555 1_555
C22 C20 1_555 1_555
C23 O5 1_555 1_555
C24 C23 1_555 1_555
C25 C24 1_555 1_555
H13 C25 1_555 1_555
C26 C25 1_555 1_555
H14 C26 1_555 1_555
C27 C26 1_555 1_555
H15 C27 1_555 1_555
C28 C27 1_555 1_555
C29 C24 1_555 1_555
H16 C29 1_555 1_555
C30 C28 1_555 1_555
C31 C30 1_555 1_555
H17 C31 1_555 1_555
C32 C31 1_555 1_555
H18 C32 1_555 1_555
C33 C32 1_555 1_555
C34 N4 1_555 1_555
C35 C33 1_555 1_555
H19 C35 1_555 1_555
C36 C35 1_555 1_555
H20 C36 1_555 1_555
C37 N3 1_555 1_555
C38 C37 1_555 1_555
C39 C38 1_555 1_555
H21 C39 1_555 1_555
C40 C39 1_555 1_555
H22 C40 1_555 1_555
C41 C40 1_555 1_555
H23 C41 1_555 1_555
C42 C41 1_555 1_555
C43 C38 1_555 1_555
H24 C43 1_555 1_555
C44 O7 1_555 1_555
C45 O9 1_555 1_555
C46 C45 1_555 1_555
C47 C46 1_555 1_555
H25 C47 1_555 1_555
C48 C47 1_555 1_555
H26 C48 1_555 1_555
C49 C48 1_555 1_555
H27 C49 1_555 1_555
C50 C49 1_555 1_555
C51 C46 1_555 1_555
H28 C51 1_555 1_555
C52 C50 1_555 1_555
C53 C52 1_555 1_555
H29 C53 1_555 1_555
C54 C53 1_555 1_555
H30 C54 1_555 1_555
C55 C54 1_555 1_555
C56 N5 1_555 1_555
C57 C55 1_555 1_555
H31 C57 1_555 1_555
C58 C57 1_555 1_555
H32 C58 1_555 1_555
C59 N6 1_555 1_555
C60 C59 1_555 1_555
C61 C60 1_555 1_555
H33 C61 1_555 1_555
C62 C61 1_555 1_555
H34 C62 1_555 1_555
C63 C62 1_555 1_555
H35 C63 1_555 1_555
C64 C63 1_555 1_555
C65 C60 1_555 1_555
H36 C65 1_555 1_555
C66 O11 1_555 1_555
C67 O13 1_555 1_555
C68 C67 1_555 1_555
C69 C68 1_555 1_555
H37 C69 1_555 1_555
C70 C69 1_555 1_555
H38 C70 1_555 1_555
C71 C70 1_555 1_555
H39 C71 1_555 1_555
C72 C71 1_555 1_555
C73 C68 1_555 1_555
H40 C73 1_555 1_555
C74 C72 1_555 1_555
C75 C74 1_555 1_555
H41 C75 1_555 1_555
C76 C75 1_555 1_555
H42 C76 1_555 1_555
C77 C76 1_555 1_555
C78 N8 1_555 1_555
C79 C77 1_555 1_555
H43 C79 1_555 1_555
C80 C79 1_555 1_555
H44 C80 1_555 1_555
C81 N7 1_555 1_555
C82 C81 1_555 1_555
C83 C82 1_555 1_555
H45 C83 1_555 1_555
C84 C83 1_555 1_555
H46 C84 1_555 1_555
C85 C84 1_555 1_555
H47 C85 1_555 1_555
C86 C85 1_555 1_555
C87 C82 1_555 1_555
H48 C87 1_555 1_555
C88 O15 1_555 1_555
C89 H49 1_555 1_555
H50 C89 1_555 1_555
H51 C89 1_555 1_555
C90 O17 1_555 1_555
C91 N9 1_555 1_555
H52 C91 1_555 1_555
H53 C91 1_555 1_555
H54 C91 1_555 1_555
C92 N9 1_555 1_555
H55 C92 1_555 1_555
H56 C92 1_555 1_555
H57 C92 1_555 1_555
C93 H58 1_555 1_555
H59 C93 1_555 1_555
H60 C93 1_555 1_555
C94 O18 1_555 1_555
C95 N10 1_555 1_555
H61 C95 1_555 1_555
H62 C95 1_555 1_555
H63 C95 1_555 1_555
C96 N10 1_555 1_555
H64 C96 1_555 1_555
H65 C96 1_555 1_555
H66 C96 1_555 1_555
O19 C98 1_555 1_555
N11 C98 1_555 1_555
C97 H67 1_555 1_555
H68 C97 1_555 1_555
H69 C97 1_555 1_555
C98 C97 1_555 1_555
C99 N11 1_555 1_555
H70 C99 1_555 1_555
H71 C99 1_555 1_555
H72 C99 1_555 1_555
C100 N11 1_555 1_555
H73 C100 1_555 1_555
H74 C100 1_555 1_555
H75 C100 1_555 1_555
O20 C102 1_555 1_555
N12 C102 1_555 1_555
C101 H76 1_555 1_555
H77 C101 1_555 1_555
H78 C101 1_555 1_555
C102 C101 1_555 1_555
C103 N12 1_555 1_555
H79 C103 1_555 1_555
H80 C103 1_555 1_555
H81 C103 1_555 1_555
C104 N12 1_555 1_555
H82 C104 1_555 1_555
H83 C104 1_555 1_555
H84 C104 1_555 1_555
O6 C23 1_555 1_555
O8 C44 1_555 1_555
O10 C45 1_555 1_555
O12 C66 1_555 1_555
O14 C67 1_555 1_555
O16 C88 1_555 1_555
C6 C7 1_555 1_555
C11 C12 1_555 1_555
C14 C15 1_555 1_555
C20 C21 1_555 1_555
C28 C29 1_555 1_555
C33 C34 1_555 1_555
C36 C37 1_555 1_555
C42 C43 1_555 1_555
C42 C44 1_555 1_555
C50 C51 1_555 1_555
C55 C56 1_555 1_555
C58 C59 1_555 1_555
C64 C65 1_555 1_555
C64 C66 1_555 1_555
C72 C73 1_555 1_555
C77 C78 1_555 1_555
C80 C81 1_555 1_555
C86 C87 1_555 1_555
C86 C88 1_555 1_555
C89 C90 1_555 1_555
C93 C94 1_555 1_555

#END
