
#######################################################################
#
#                 Cambridge Crystallographic Data Centre
#                                CCDC 
#
#######################################################################
#
# If this CIF has been generated from an entry in the Cambridge 
# Structural Database, then it will include bibliographic, chemical, 
# crystal, experimental, refinement or atomic coordinate data resulting 
# from the CCDC's data processing and validation procedures.
#
#######################################################################

data_NIGFAM
_chemical_formula_moiety         'C112 H92 Cu4 N4 O20'
_chemical_name_systematic        
tetrakis(\m~4~-3,3'-Naphthalene-2,7-diyldibenzoato)-tetrakis(dimethylacetamide)-tetra-copper
_symmetry_cell_setting           monoclinic
_symmetry_space_group_name_H-M   'C 2/c'
_symmetry_Int_Tables_number      15
_space_group_name_Hall           '-C 2yn'
loop_
_symmetry_equiv_pos_site_id
_symmetry_equiv_pos_as_xyz
1 x,y,z
2 -x,y,1/2-z
3 1/2+x,1/2+y,z
4 1/2-x,1/2+y,1/2-z
5 -x,-y,-z
6 x,-y,1/2+z
7 1/2-x,1/2-y,-z
8 1/2+x,1/2-y,1/2+z
_cell_length_a                   22.203(2)
_cell_length_b                   20.1224(19)
_cell_length_c                   30.441(2)
_cell_angle_alpha                90
_cell_angle_beta                 116.012(5)
_cell_angle_gamma                90
_cell_volume                     12222.7
_exptl_crystal_colour            'blue green'
_exptl_crystal_description       Block
_cell_formula_units_Z            4
loop_
_atom_site_label
_atom_site_type_symbol
_atom_site_fract_x
_atom_site_fract_y
_atom_site_fract_z
Cu1 Cu 0.05433(3) 0.20869(2) 0.086233(19)
Cu2 Cu 0.03122(3) 0.33063(2) 0.054065(19)
O1 O 0.02129(15) 0.19080(14) 0.01551(11)
O2 O -0.01556(15) 0.29354(15) -0.01238(11)
O3 O -0.08527(15) 0.75319(14) -0.15199(11)
O4 O -0.08160(15) 0.64953(14) -0.12348(11)
O5 O 0.03874(14) 0.79059(14) -0.07685(11)
O6 O 0.05023(14) 0.68104(14) -0.06226(11)
O7 O 0.14471(15) 0.22458(15) 0.09158(12)
O8 O 0.11655(16) 0.32033(15) 0.04955(12)
O9 O 0.06698(15) 0.10654(14) 0.11058(11)
O10 O 0.0224(3) 0.4334(2) 0.0375(2)
N1 N 0.0975(3) 0.5261(4) 0.0494(3)
C1 C -0.0087(2) 0.2325(2) -0.01855(15)
C2 C -0.0363(2) 0.2074(2) -0.07007(16)
C3 C -0.0261(2) 0.1425(2) -0.07988(18)
H1 H -0.0013 0.1133 -0.0537
C4 C -0.0515(3) 0.1200(3) -0.12708(19)
H2 H -0.0433 0.0754 -0.1333
C5 C -0.0889(2) 0.1613(2) -0.16555(19)
H3 H -0.1072 0.1446 -0.1980
C6 C -0.1003(2) 0.2277(2) -0.15741(16)
C7 C -0.0732(2) 0.2495(2) -0.10943(16)
H4 H -0.0798 0.2944 -0.1030
C8 C -0.1394(2) 0.2728(2) -0.19857(17)
C9 C -0.1947(3) 0.2480(3) -0.24129(18)
H5 H -0.2044 0.2017 -0.2439
C10 C -0.2340(3) 0.2897(3) -0.27851(18)
H6 H -0.2700 0.2717 -0.3067
C11 C -0.2219(3) 0.3585(3) -0.27568(18)
C12 C -0.2637(3) 0.4041(3) -0.31255(19)
H7 H -0.3004 0.3878 -0.3409
C13 C -0.2514(3) 0.4706(3) -0.3074(2)
H8 H -0.2813 0.5003 -0.3312
C14 C -0.1931(3) 0.4965(3) -0.26606(18)
C15 C -0.1531(3) 0.4533(3) -0.23126(17)
H9 H -0.1152 0.4703 -0.2039
C16 C -0.1653(2) 0.3836(2) -0.23381(16)
C17 C -0.1255(2) 0.3397(2) -0.19650(17)
H10 H -0.0878 0.3567 -0.1690
C18 C -0.1793(3) 0.5690(3) -0.26074(19)
C19 C -0.1983(4) 0.6114(3) -0.3019(2)
H11 H -0.2213 0.5936 -0.3339
C20 C -0.1834(4) 0.6793(3) -0.2956(2)
H12 H -0.1955 0.7072 -0.3234
C21 C -0.1508(3) 0.7065(3) -0.2487(2)
H13 H -0.1420 0.7529 -0.2443
C22 C -0.1316(2) 0.6651(2) -0.20888(17)
C23 C -0.1471(2) 0.5975(2) -0.21547(18)
H14 H -0.1348 0.5702 -0.1874
C24 C -0.0966(2) 0.6921(2) -0.15732(17)
C25 C 0.0714(2) 0.7371(2) -0.06842(14)
C26 C 0.1403(2) 0.7388(2) -0.06595(15)
C27 C 0.1680(2) 0.7981(2) -0.07290(16)
H15 H 0.1431 0.8383 -0.0794
C28 C 0.2315(2) 0.7979(2) -0.07032(18)
H16 H 0.2509 0.8383 -0.0742
C29 C 0.2675(2) 0.7387(2) -0.06201(17)
H17 H 0.3109 0.7389 -0.0610
C30 C 0.2406(2) 0.6792(2) -0.05522(15)
C31 C 0.1766(2) 0.6808(2) -0.05768(15)
H18 H 0.1573 0.6405 -0.0535
C32 C 0.2763(2) 0.6151(2) -0.04731(15)
C33 C 0.3175(2) 0.6001(2) -0.07113(16)
H19 H 0.3258 0.6337 -0.0898
C34 C 0.3449(2) 0.5398(2) -0.06786(16)
H20 H 0.3723 0.5317 -0.0841
C35 C 0.3339(2) 0.4878(2) -0.04083(15)
C36 C 0.3612(2) 0.4243(2) -0.03698(18)
H21 H 0.3879 0.4145 -0.0535
C37 C 0.3500(2) 0.3758(2) -0.00968(18)
H22 H 0.3691 0.3330 -0.0076
C38 C 0.3111(2) 0.3882(2) 0.01506(17)
C39 C 0.2841(2) 0.4504(2) 0.01222(16)
H23 H 0.2581 0.4590 0.0294
C40 C 0.2941(2) 0.5022(2) -0.01546(16)
C41 C 0.2674(2) 0.5655(2) -0.01929(16)
H24 H 0.2418 0.5752 -0.0019
C42 C 0.2980(2) 0.3330(2) 0.04277(18)
C43 C 0.3457(3) 0.2841(2) 0.0664(2)
H25 H 0.3883 0.2867 0.0661
C44 C 0.3323(3) 0.2314(3) 0.0906(2)
H26 H 0.3652 0.1981 0.1059
C45 C 0.2712(3) 0.2275(2) 0.0922(2)
H27 H 0.2623 0.1916 0.1088
C46 C 0.2228(2) 0.2762(2) 0.06958(18)
C47 C 0.2368(2) 0.3287(2) 0.04536(18)
H28 H 0.2039 0.3622 0.0303
C48 C 0.1559(2) 0.2737(2) 0.07040(17)
C49 C -0.0379(3) 0.0523(3) 0.0524(2)
H29 H -0.0798 0.0294 0.0356
H30 H -0.0424 0.0970 0.0404
H31 H -0.0039 0.0298 0.0467
C50 C -0.0643(4) 0.0220(4) 0.1294(4)
H32 H -0.0873 0.0092 0.0956
H33 H -0.0565 -0.0166 0.1497
H34 H -0.0911 0.0533 0.1368
C51 C 0.0533(6) 0.0793(6) 0.1871(3)
H35 H 0.0901 0.0962 0.1819
H36 H 0.0344 0.1145 0.1983
H37 H 0.0690 0.0446 0.2112
C52 C 0.0696(7) 0.4502(7) -0.0230(5)
H38 H 0.0588 0.4031 -0.0308
H39 H 0.1142 0.4594 -0.0209
H40 H 0.0362 0.4777 -0.0488
C53 C 0.0691(4) 0.4662(4) 0.0254(3)
C54 C 0.0957(5) 0.5403(5) 0.0939(3)
H41 H 0.0682 0.5070 0.1002
H42 H 0.0763 0.5845 0.0922
H43 H 0.1413 0.5393 0.1204
C55 C 0.1241(4) 0.5663(5) 0.0231(4)
H44 H 0.1731 0.5662 0.0403
H45 H 0.1076 0.6119 0.0209
H46 H 0.1096 0.5482 -0.0099
N2 N -0.0012(8) 0.0521(7) 0.1384(4)
C56 C 0.0115(6) 0.0731(5) 0.1004(4)
Cu1D Cu -0.05433(3) 0.79131(2) -0.086233(19)
Cu2D Cu -0.03122(3) 0.66937(2) -0.054065(19)
O1D O -0.02129(15) 0.80920(14) -0.01551(11)
O2D O 0.01556(15) 0.70646(15) 0.01238(11)
O3D O 0.08527(15) 0.24681(14) 0.15199(11)
O4D O 0.08160(15) 0.35047(14) 0.12348(11)
O5D O -0.03874(14) 0.20941(14) 0.07685(11)
O6D O -0.05023(14) 0.31896(14) 0.06226(11)
O7D O -0.14471(15) 0.77542(15) -0.09158(12)
O8D O -0.11655(16) 0.67967(15) -0.04955(12)
O9D O -0.06698(15) 0.89346(14) -0.11058(11)
O10D O -0.0224(3) 0.5666(2) -0.0375(2)
N1D N -0.0975(3) 0.4739(4) -0.0494(3)
C1D C 0.0087(2) 0.7675(2) 0.01855(15)
C2D C 0.0363(2) 0.7926(2) 0.07007(16)
C3D C 0.0261(2) 0.8575(2) 0.07988(18)
H1D H 0.0013 0.8867 0.0537
C4D C 0.0515(3) 0.8800(3) 0.12708(19)
H2D H 0.0433 0.9246 0.1333
C5D C 0.0889(2) 0.8387(2) 0.16555(19)
H3D H 0.1072 0.8554 0.1980
C6D C 0.1003(2) 0.7723(2) 0.15741(16)
C7D C 0.0732(2) 0.7505(2) 0.10943(16)
H4D H 0.0798 0.7056 0.1030
C8D C 0.1394(2) 0.7272(2) 0.19857(17)
C9D C 0.1947(3) 0.7520(3) 0.24129(18)
H5D H 0.2044 0.7983 0.2439
C10D C 0.2340(3) 0.7103(3) 0.27851(18)
H6D H 0.2700 0.7283 0.3067
C11D C 0.2219(3) 0.6415(3) 0.27568(18)
C12D C 0.2637(3) 0.5959(3) 0.31255(19)
H7D H 0.3004 0.6122 0.3409
C13D C 0.2514(3) 0.5294(3) 0.3074(2)
H8D H 0.2813 0.4997 0.3312
C14D C 0.1931(3) 0.5035(3) 0.26606(18)
C15D C 0.1531(3) 0.5467(3) 0.23126(17)
H9D H 0.1152 0.5297 0.2039
C16D C 0.1653(2) 0.6164(2) 0.23381(16)
C17D C 0.1255(2) 0.6603(2) 0.19650(17)
H10D H 0.0878 0.6433 0.1690
C18D C 0.1793(3) 0.4310(3) 0.26074(19)
C19D C 0.1983(4) 0.3886(3) 0.3019(2)
H11D H 0.2213 0.4064 0.3339
C20D C 0.1834(4) 0.3207(3) 0.2956(2)
H12D H 0.1955 0.2928 0.3234
C21D C 0.1508(3) 0.2935(3) 0.2487(2)
H13D H 0.1420 0.2471 0.2443
C22D C 0.1316(2) 0.3349(2) 0.20888(17)
C23D C 0.1471(2) 0.4025(2) 0.21547(18)
H14D H 0.1348 0.4298 0.1874
C24D C 0.0966(2) 0.3079(2) 0.15732(17)
C25D C -0.0714(2) 0.2629(2) 0.06842(14)
C26D C -0.1403(2) 0.2612(2) 0.06595(15)
C27D C -0.1680(2) 0.2019(2) 0.07290(16)
H15D H -0.1431 0.1617 0.0794
C28D C -0.2315(2) 0.2021(2) 0.07032(18)
H16D H -0.2509 0.1617 0.0742
C29D C -0.2675(2) 0.2613(2) 0.06201(17)
H17D H -0.3109 0.2611 0.0610
C30D C -0.2406(2) 0.3208(2) 0.05522(15)
C31D C -0.1766(2) 0.3192(2) 0.05768(15)
H18D H -0.1573 0.3595 0.0535
C32D C -0.2763(2) 0.3849(2) 0.04731(15)
C33D C -0.3175(2) 0.3999(2) 0.07113(16)
H19D H -0.3258 0.3663 0.0898
C34D C -0.3449(2) 0.4602(2) 0.06786(16)
H20D H -0.3723 0.4683 0.0841
C35D C -0.3339(2) 0.5122(2) 0.04083(15)
C36D C -0.3612(2) 0.5757(2) 0.03698(18)
H21D H -0.3879 0.5855 0.0535
C37D C -0.3500(2) 0.6242(2) 0.00968(18)
H22D H -0.3691 0.6670 0.0076
C38D C -0.3111(2) 0.6118(2) -0.01506(17)
C39D C -0.2841(2) 0.5496(2) -0.01222(16)
H23D H -0.2581 0.5410 -0.0294
C40D C -0.2941(2) 0.4978(2) 0.01546(16)
C41D C -0.2674(2) 0.4345(2) 0.01929(16)
H24D H -0.2418 0.4248 0.0019
C42D C -0.2980(2) 0.6670(2) -0.04277(18)
C43D C -0.3457(3) 0.7159(2) -0.0664(2)
H25D H -0.3883 0.7133 -0.0661
C44D C -0.3323(3) 0.7686(3) -0.0906(2)
H26D H -0.3652 0.8019 -0.1059
C45D C -0.2712(3) 0.7725(2) -0.0922(2)
H27D H -0.2623 0.8084 -0.1088
C46D C -0.2228(2) 0.7238(2) -0.06958(18)
C47D C -0.2368(2) 0.6713(2) -0.04536(18)
H28D H -0.2039 0.6378 -0.0303
C48D C -0.1559(2) 0.7263(2) -0.07040(17)
C49D C 0.0379(3) 0.9477(3) -0.0524(2)
H29D H 0.0798 0.9706 -0.0356
H30D H 0.0424 0.9030 -0.0404
H31D H 0.0039 0.9702 -0.0467
C50D C 0.0643(4) 0.9780(4) -0.1294(4)
H32D H 0.0873 0.9908 -0.0956
H33D H 0.0565 1.0166 -0.1497
H34D H 0.0911 0.9467 -0.1368
C51D C -0.0533(6) 0.9207(6) -0.1871(3)
H35D H -0.0901 0.9038 -0.1819
H36D H -0.0344 0.8855 -0.1983
H37D H -0.0690 0.9554 -0.2112
C52D C -0.0696(7) 0.5498(7) 0.0230(5)
H38D H -0.0588 0.5969 0.0308
H39D H -0.1142 0.5406 0.0209
H40D H -0.0362 0.5223 0.0488
C53D C -0.0691(4) 0.5338(4) -0.0254(3)
C54D C -0.0957(5) 0.4597(5) -0.0939(3)
H41D H -0.0682 0.4930 -0.1002
H42D H -0.0763 0.4155 -0.0922
H43D H -0.1413 0.4607 -0.1204
C55D C -0.1241(4) 0.4337(5) -0.0231(4)
H44D H -0.1731 0.4338 -0.0403
H45D H -0.1076 0.3881 -0.0209
H46D H -0.1096 0.4518 0.0099
N2D N 0.0012(8) 0.9479(7) -0.1384(4)
C56D C -0.0115(6) 0.9269(5) -0.1004(4)
N3? N -0.0157(7) 0.0540(8) 0.1105(7)
C57? C 0.0383(8) 0.0837(6) 0.1317(7)
loop_
_geom_bond_atom_site_label_1
_geom_bond_atom_site_label_2
_geom_bond_site_symmetry_1
_geom_bond_site_symmetry_2
Cu1 O1 1_555 1_555
Cu2 O2 1_555 1_555
O1 C1 1_555 1_555
O2 C1 1_555 1_555
O3 C24 1_555 1_555
O4 C24 1_555 1_555
O5 C25 1_555 1_555
O6 C25 1_555 1_555
O7 Cu1 1_555 1_555
O8 Cu2 1_555 1_555
O9 Cu1 1_555 1_555
O10 Cu2 1_555 1_555
N1 C53 1_555 1_555
C1 C2 1_555 1_555
C2 C3 1_555 1_555
C3 H1 1_555 1_555
C4 C3 1_555 1_555
H2 C4 1_555 1_555
C5 C4 1_555 1_555
H3 C5 1_555 1_555
C6 C5 1_555 1_555
C7 C2 1_555 1_555
H4 C7 1_555 1_555
C8 C6 1_555 1_555
C9 C8 1_555 1_555
H5 C9 1_555 1_555
C10 C9 1_555 1_555
H6 C10 1_555 1_555
C11 C10 1_555 1_555
C12 C11 1_555 1_555
H7 C12 1_555 1_555
C13 C12 1_555 1_555
H8 C13 1_555 1_555
C14 C13 1_555 1_555
C15 C14 1_555 1_555
H9 C15 1_555 1_555
C16 C11 1_555 1_555
C17 C8 1_555 1_555
H10 C17 1_555 1_555
C18 C14 1_555 1_555
C19 C18 1_555 1_555
H11 C19 1_555 1_555
C20 C19 1_555 1_555
H12 C20 1_555 1_555
C21 C20 1_555 1_555
H13 C21 1_555 1_555
C22 C21 1_555 1_555
C23 C18 1_555 1_555
H14 C23 1_555 1_555
C24 C22 1_555 1_555
C25 C26 1_555 1_555
C26 C27 1_555 1_555
C27 H15 1_555 1_555
C28 C27 1_555 1_555
H16 C28 1_555 1_555
C29 C28 1_555 1_555
H17 C29 1_555 1_555
C30 C29 1_555 1_555
C31 C26 1_555 1_555
H18 C31 1_555 1_555
C32 C30 1_555 1_555
C33 C32 1_555 1_555
H19 C33 1_555 1_555
C34 C33 1_555 1_555
H20 C34 1_555 1_555
C35 C34 1_555 1_555
C36 C35 1_555 1_555
H21 C36 1_555 1_555
C37 C36 1_555 1_555
H22 C37 1_555 1_555
C38 C37 1_555 1_555
C39 C38 1_555 1_555
H23 C39 1_555 1_555
C40 C35 1_555 1_555
C41 C32 1_555 1_555
H24 C41 1_555 1_555
C42 C38 1_555 1_555
C43 C42 1_555 1_555
H25 C43 1_555 1_555
C44 C43 1_555 1_555
H26 C44 1_555 1_555
C45 C44 1_555 1_555
H27 C45 1_555 1_555
C46 C45 1_555 1_555
C47 C42 1_555 1_555
H28 C47 1_555 1_555
C48 O7 1_555 1_555
C49 H29 1_555 1_555
H30 C49 1_555 1_555
H31 C49 1_555 1_555
C50 H32 1_555 1_555
H33 C50 1_555 1_555
H34 C50 1_555 1_555
C51 H35 1_555 1_555
H36 C51 1_555 1_555
H37 C51 1_555 1_555
C52 H38 1_555 1_555
H39 C52 1_555 1_555
H40 C52 1_555 1_555
C53 O10 1_555 1_555
C54 N1 1_555 1_555
H41 C54 1_555 1_555
H42 C54 1_555 1_555
H43 C54 1_555 1_555
C55 N1 1_555 1_555
H44 C55 1_555 1_555
H45 C55 1_555 1_555
H46 C55 1_555 1_555
N2 C50 1_555 1_555
C56 O9 1_555 1_555
Cu1D O3 1_555 1_555
Cu2D O4 1_555 1_555
O1D Cu1D 1_555 1_555
O2D Cu2D 1_555 1_555
O3D Cu1 1_555 1_555
O4D Cu2 1_555 1_555
O5D Cu1 1_555 1_555
O6D Cu2 1_555 1_555
O7D Cu1D 1_555 1_555
O8D Cu2D 1_555 1_555
O9D Cu1D 1_555 1_555
O10D Cu2D 1_555 1_555
N1D C53D 1_555 1_555
C1D O1D 1_555 1_555
C2D C1D 1_555 1_555
C3D C2D 1_555 1_555
H1D C3D 1_555 1_555
C4D C3D 1_555 1_555
H2D C4D 1_555 1_555
C5D C4D 1_555 1_555
H3D C5D 1_555 1_555
C6D C5D 1_555 1_555
C7D C2D 1_555 1_555
H4D C7D 1_555 1_555
C8D C6D 1_555 1_555
C9D C8D 1_555 1_555
H5D C9D 1_555 1_555
C10D C9D 1_555 1_555
H6D C10D 1_555 1_555
C11D C10D 1_555 1_555
C12D C11D 1_555 1_555
H7D C12D 1_555 1_555
C13D C12D 1_555 1_555
H8D C13D 1_555 1_555
C14D C13D 1_555 1_555
C15D C14D 1_555 1_555
H9D C15D 1_555 1_555
C16D C11D 1_555 1_555
C17D C8D 1_555 1_555
H10D C17D 1_555 1_555
C18D C14D 1_555 1_555
C19D C18D 1_555 1_555
H11D C19D 1_555 1_555
C20D C19D 1_555 1_555
H12D C20D 1_555 1_555
C21D C20D 1_555 1_555
H13D C21D 1_555 1_555
C22D C21D 1_555 1_555
C23D C18D 1_555 1_555
H14D C23D 1_555 1_555
C24D O3D 1_555 1_555
C25D O5D 1_555 1_555
C26D C25D 1_555 1_555
C27D C26D 1_555 1_555
H15D C27D 1_555 1_555
C28D C27D 1_555 1_555
H16D C28D 1_555 1_555
C29D C28D 1_555 1_555
H17D C29D 1_555 1_555
C30D C29D 1_555 1_555
C31D C26D 1_555 1_555
H18D C31D 1_555 1_555
C32D C30D 1_555 1_555
C33D C32D 1_555 1_555
H19D C33D 1_555 1_555
C34D C33D 1_555 1_555
H20D C34D 1_555 1_555
C35D C34D 1_555 1_555
C36D C35D 1_555 1_555
H21D C36D 1_555 1_555
C37D C36D 1_555 1_555
H22D C37D 1_555 1_555
C38D C37D 1_555 1_555
C39D C38D 1_555 1_555
H23D C39D 1_555 1_555
C40D C35D 1_555 1_555
C41D C32D 1_555 1_555
H24D C41D 1_555 1_555
C42D C38D 1_555 1_555
C43D C42D 1_555 1_555
H25D C43D 1_555 1_555
C44D C43D 1_555 1_555
H26D C44D 1_555 1_555
C45D C44D 1_555 1_555
H27D C45D 1_555 1_555
C46D C45D 1_555 1_555
C47D C42D 1_555 1_555
H28D C47D 1_555 1_555
C48D O7D 1_555 1_555
C49D H29D 1_555 1_555
H30D C49D 1_555 1_555
H31D C49D 1_555 1_555
C50D H32D 1_555 1_555
H33D C50D 1_555 1_555
H34D C50D 1_555 1_555
C51D H35D 1_555 1_555
H36D C51D 1_555 1_555
H37D C51D 1_555 1_555
C52D H38D 1_555 1_555
H39D C52D 1_555 1_555
H40D C52D 1_555 1_555
C53D O10D 1_555 1_555
C54D N1D 1_555 1_555
H41D C54D 1_555 1_555
H42D C54D 1_555 1_555
H43D C54D 1_555 1_555
C55D N1D 1_555 1_555
H44D C55D 1_555 1_555
H45D C55D 1_555 1_555
H46D C55D 1_555 1_555
N2D C50D 1_555 1_555
C56D O9D 1_555 1_555
O5 Cu1D 1_555 1_555
O6 Cu2D 1_555 1_555
O8 C48 1_555 1_555
C6 C7 1_555 1_555
C15 C16 1_555 1_555
C16 C17 1_555 1_555
C22 C23 1_555 1_555
C30 C31 1_555 1_555
C39 C40 1_555 1_555
C40 C41 1_555 1_555
C46 C47 1_555 1_555
C46 C48 1_555 1_555
C49 C56 1_555 1_555
C51 N2 1_555 1_555
C52 C53 1_555 1_555
N2 C56 1_555 1_555
O2D C1D 1_555 1_555
O4D C24D 1_555 1_555
O6D C25D 1_555 1_555
O8D C48D 1_555 1_555
C6D C7D 1_555 1_555
C15D C16D 1_555 1_555
C16D C17D 1_555 1_555
C22D C23D 1_555 1_555
C22D C24D 1_555 1_555
C30D C31D 1_555 1_555
C39D C40D 1_555 1_555
C40D C41D 1_555 1_555
C46D C47D 1_555 1_555
C46D C48D 1_555 1_555
C49D C56D 1_555 1_555
C51D N2D 1_555 1_555
C52D C53D 1_555 1_555
N2D C56D 1_555 1_555

#END
