
#######################################################################
#
#                 Cambridge Crystallographic Data Centre
#                                CCDC 
#
#######################################################################
#
# If this CIF has been generated from an entry in the Cambridge 
# Structural Database, then it will include bibliographic, chemical, 
# crystal, experimental, refinement or atomic coordinate data resulting 
# from the CCDC's data processing and validation procedures.
#
#######################################################################

data_SAYGIL
_chemical_formula_moiety         'C252 H168 Fe4 N24 8+,8(As1 F6 1-),4(C2 H3 N1)'
_chemical_name_systematic        
"hexakis(\m-N,N'-[chrysene-6,12-diylbis(4,1-phenylene)]bis[1-(pyridin-2-yl)methanimine])-tetra-iron(ii) octakis(hexafluoro-arsenic) acetonitrile solvate"
_symmetry_cell_setting           tetragonal
_symmetry_space_group_name_H-M   'I 41/a'
_symmetry_Int_Tables_number      88
_space_group_name_Hall           '-I 4ad'
loop_
_symmetry_equiv_pos_site_id
_symmetry_equiv_pos_as_xyz
1 x,y,z
2 1/2-x,-y,1/2+z
3 3/4-y,1/4+x,1/4+z
4 3/4+y,3/4-x,3/4+z
5 1/2+x,1/2+y,1/2+z
6 -x,1/2-y,z
7 1/4-y,3/4+x,3/4+z
8 1/4+y,1/4-x,1/4+z
9 -x,-y,-z
10 1/2+x,y,1/2-z
11 1/4+y,3/4-x,3/4-z
12 1/4-y,1/4+x,1/4-z
13 1/2-x,1/2-y,1/2-z
14 x,1/2+y,-z
15 3/4+y,1/4-x,1/4-z
16 3/4-y,3/4+x,3/4-z
_cell_length_a                   24.8124(4)
_cell_length_b                   24.8124(4)
_cell_length_c                   47.8890(16)
_cell_angle_alpha                90
_cell_angle_beta                 90
_cell_angle_gamma                90
_cell_volume                     29483.1
_exptl_crystal_colour            purple
_exptl_crystal_description       block
_cell_formula_units_Z            4
loop_
_atom_site_label
_atom_site_type_symbol
_atom_site_fract_x
_atom_site_fract_y
_atom_site_fract_z
As1 As 0.01916(6) -0.02796(7) 0.42180(3)
F1 F 0.0173(5) 0.0334(4) 0.4336(3)
F2 F 0.0866(4) -0.0267(6) 0.4187(2)
F3 F 0.0238(3) -0.0499(5) 0.45555(16)
F4 F 0.0210(4) -0.0932(3) 0.40964(17)
F5 F -0.0492(3) -0.0326(4) 0.42445(15)
F6 F 0.0121(4) -0.0060(4) 0.38818(17)
As2 As 0.27051(13) -0.12616(19) 0.44620(8)
F7 F 0.2073(10) -0.0982(13) 0.4497(4)
F8 F 0.2486(9) -0.1904(10) 0.4326(6)
F9 F 0.2652(6) -0.1065(5) 0.4104(3)
F10 F 0.3357(5) -0.1458(7) 0.4389(3)
F11 F 0.2988(7) -0.0605(8) 0.4519(4)
F12 F 0.2866(7) -0.1230(8) 0.4858(4)
As3 As 0.5000 0.7500 0.33069(6)
F13 F 0.4351(9) 0.7657(8) 0.3278(4)
F14 F 0.5000 0.7500 0.3606(17)
F13E F 0.5649(9) 0.7343(8) 0.3278(4)
N7 N 0.0820(10) 0.4047(11) 0.3819(5)
C73 C 0.1056(12) 0.4175(12) 0.4015(6)
C74 C 0.1404(13) 0.4297(14) 0.4247(6)
H48 H 0.1582 0.3967 0.4311
H49 H 0.1190 0.4450 0.4400
H50 H 0.1678 0.4559 0.4189
Fe1 Fe 0.16068(5) 0.10168(5) 0.51246(3)
N1 N 0.1785(3) 0.1002(3) 0.55236(15)
N2 N 0.1895(3) 0.1754(3) 0.51626(14)
N3 N 0.3586(3) 0.6121(3) 0.27684(13)
N4 N 0.3821(3) 0.6625(3) 0.23194(15)
N5 N 0.1371(3) 0.0261(3) 0.51248(14)
N6 N 0.2299(3) 0.0671(3) 0.50420(15)
C1 C 0.1745(4) 0.0585(4) 0.56996(18)
H1 H 0.1619 0.0247 0.5633
C2 C 0.1890(5) 0.0642(5) 0.5984(2)
H2 H 0.1856 0.0343 0.6107
C3 C 0.2079(5) 0.1127(5) 0.6084(2)
H3 H 0.2175 0.1168 0.6275
C4 C 0.2126(5) 0.1551(5) 0.5900(2)
H4 H 0.2260 0.1890 0.5962
C5 C 0.1978(4) 0.1480(4) 0.56254(18)
C6 C 0.2036(4) 0.1888(4) 0.54157(19)
H5 H 0.2170 0.2237 0.5459
C7 C 0.1984(4) 0.2150(4) 0.49473(18)
C8 C 0.2509(4) 0.2266(4) 0.48694(19)
H6 H 0.2805 0.2100 0.4961
C9 C 0.2590(4) 0.2631(4) 0.4654(2)
H7 H 0.2949 0.2710 0.4598
C10 C 0.2176(4) 0.2879(4) 0.45177(19)
C11 C 0.1656(4) 0.2764(4) 0.46020(19)
H8 H 0.1363 0.2936 0.4511
C12 C 0.1553(4) 0.2402(4) 0.48168(18)
H9 H 0.1194 0.2329 0.4874
C13 C 0.2294(4) 0.3265(4) 0.4282(2)
C14 C 0.2621(4) 0.3682(4) 0.4336(2)
H10 H 0.2758 0.3720 0.4520
C15 C 0.2774(4) 0.4067(4) 0.41352(19)
C16 C 0.2579(4) 0.4002(4) 0.3858(2)
C17 C 0.2233(5) 0.3547(4) 0.3789(2)
C18 C 0.2085(4) 0.3177(4) 0.4007(2)
C19 C 0.1787(5) 0.2719(5) 0.3933(2)
H11 H 0.1716 0.2454 0.4071
C20 C 0.1592(6) 0.2640(5) 0.3668(3)
H12 H 0.1367 0.2340 0.3628
C21 C 0.1730(7) 0.3013(5) 0.3451(3)
H13 H 0.1603 0.2961 0.3266
C22 C 0.2058(6) 0.3461(5) 0.3519(2)
H14 H 0.2159 0.3706 0.3376
C23 C 0.2720(4) 0.4389(4) 0.3651(2)
H15 H 0.2571 0.4358 0.3469
C24 C 0.3068(4) 0.4806(4) 0.37096(19)
C25 C 0.3289(4) 0.4880(4) 0.39892(19)
C26 C 0.3138(4) 0.4513(4) 0.41988(19)
C27 C 0.3351(5) 0.4572(4) 0.4467(2)
H16 H 0.3264 0.4318 0.4609
C28 C 0.3694(6) 0.5007(5) 0.4528(2)
H17 H 0.3829 0.5054 0.4712
C29 C 0.3837(5) 0.5368(5) 0.4319(2)
H18 H 0.4084 0.5651 0.4358
C30 C 0.3622(4) 0.5317(4) 0.4056(2)
H19 H 0.3701 0.5580 0.3917
C31 C 0.3218(4) 0.5176(4) 0.34737(19)
C32 C 0.3745(4) 0.5257(4) 0.3393(2)
H20 H 0.4028 0.5095 0.3497
C33 C 0.3868(4) 0.5574(4) 0.31619(18)
H21 H 0.4233 0.5630 0.3109
C34 C 0.3461(4) 0.5805(3) 0.30103(17)
C35 C 0.2929(4) 0.5733(4) 0.30863(17)
H22 H 0.2648 0.5900 0.2983
C36 C 0.2809(4) 0.5413(4) 0.33153(18)
H23 H 0.2443 0.5353 0.3365
C37 C 0.3756(4) 0.6611(4) 0.28054(19)
H24 H 0.3778 0.6765 0.2987
C38 C 0.3907(3) 0.6912(4) 0.25618(19)
C39 C 0.4138(4) 0.7411(4) 0.2566(2)
H25 H 0.4187 0.7595 0.2738
C40 C 0.4299(4) 0.7649(4) 0.2318(2)
H26 H 0.4459 0.7997 0.2315
C41 C 0.4219(4) 0.7365(4) 0.2075(2)
H27 H 0.4324 0.7518 0.1902
C42 C 0.3983(4) 0.6852(4) 0.2080(2)
H28 H 0.3938 0.6661 0.1910
C43 C 0.0863(4) 0.0071(4) 0.51602(18)
H29 H 0.0573 0.0317 0.5183
C44 C 0.0759(4) -0.0481(4) 0.5164(2)
H30 H 0.0401 -0.0604 0.5196
C45 C 0.1160(4) -0.0846(4) 0.5124(3)
H31 H 0.1088 -0.1222 0.5127
C46 C 0.1675(4) -0.0656(4) 0.5079(2)
H32 H 0.1964 -0.0900 0.5047
C47 C 0.1767(4) -0.0099(4) 0.50802(19)
C48 C 0.2294(4) 0.0148(4) 0.5031(2)
H33 H 0.2608 -0.0059 0.4993
C49 C 0.2823(3) 0.0903(3) 0.49949(17)
C50 C 0.3099(3) 0.1134(3) 0.52142(18)
H34 H 0.2962 0.1106 0.5399
C51 C 0.3582(3) 0.1408(3) 0.51647(17)
H35 H 0.3772 0.1566 0.5316
C52 C 0.3789(2) 0.1451(2) 0.48946(17)
C53 C 0.3512(3) 0.1213(3) 0.46795(18)
H36 H 0.3650 0.1235 0.4495
C54 C 0.3031(3) 0.0939(3) 0.47280(18)
H37 H 0.2846 0.0775 0.4577
C55 C 0.4311(3) 0.1751(3) 0.48595(18)
C56 C 0.4785(3) 0.1459(4) 0.49775(18)
C57 C 0.4812(5) 0.0912(5) 0.5065(2)
H38 H 0.4491 0.0704 0.5064
C58 C 0.5286(5) 0.0670(6) 0.5151(3)
H39 H 0.5286 0.0302 0.5205
C59 C 0.5760(5) 0.0965(6) 0.5157(3)
H40 H 0.6088 0.0800 0.5213
C60 C 0.5752(5) 0.1494(6) 0.5081(2)
H41 H 0.6078 0.1694 0.5090
C61 C 0.5278(4) 0.1758(5) 0.4990(2)
C62 C 0.5287(5) 0.2311(5) 0.4895(2)
C63 C 0.4333(6) 0.2236(5) 0.4754(3)
H42 H 0.4023 0.2388 0.4669
C64 C 0.4815(5) 0.2537(5) 0.4766(2)
C65 C 0.4797(4) 0.3066(5) 0.4656(2)
C66 C 0.4349(6) 0.3248(7) 0.4497(3)
H43 H 0.4043 0.3022 0.4476
C67 C 0.4355(7) 0.3746(8) 0.4375(4)
H44 H 0.4054 0.3861 0.4268
C68 C 0.4801(8) 0.4086(7) 0.4405(4)
H45 H 0.4802 0.4430 0.4319
C69 C 0.5230(6) 0.3924(6) 0.4559(3)
H46 H 0.5528 0.4161 0.4579
C70 C 0.5248(4) 0.3411(5) 0.4689(2)
C71 C 0.5704(3) 0.3240(4) 0.4832(2)
C72 C 0.5717(6) 0.2678(5) 0.4925(3)
H47 H 0.6037 0.2552 0.5012
N5E N 0.8629(3) 0.4739(3) 0.51248(14)
N6E N 0.7701(3) 0.4329(3) 0.50420(15)
C43E C 0.9137(4) 0.4929(4) 0.51602(18)
H29E H 0.9427 0.4683 0.5183
C44E C 0.9241(4) 0.5481(4) 0.5164(2)
H30E H 0.9599 0.5604 0.5196
C45E C 0.8840(4) 0.5846(4) 0.5124(3)
H31E H 0.8912 0.6222 0.5127
C46E C 0.8325(4) 0.5656(4) 0.5079(2)
H32E H 0.8036 0.5900 0.5047
C47E C 0.8233(4) 0.5099(4) 0.50802(19)
C48E C 0.7706(4) 0.4852(4) 0.5031(2)
H33E H 0.7392 0.5059 0.4993
C49E C 0.7177(3) 0.4097(3) 0.49949(17)
C50E C 0.6901(3) 0.3866(3) 0.52142(18)
H34E H 0.7038 0.3894 0.5399
C51E C 0.6418(3) 0.3592(3) 0.51647(17)
H35E H 0.6228 0.3434 0.5316
C52E C 0.6211(2) 0.3549(2) 0.48946(17)
C53E C 0.6488(3) 0.3787(3) 0.46795(18)
H36E H 0.6350 0.3765 0.4495
C54E C 0.6969(3) 0.4061(3) 0.47280(18)
H37E H 0.7154 0.4225 0.4577
C55E C 0.5689(3) 0.3249(3) 0.48595(18)
C56E C 0.5215(3) 0.3541(4) 0.49775(18)
C57E C 0.5188(5) 0.4088(5) 0.5065(2)
H38E H 0.5509 0.4296 0.5064
C58E C 0.4714(5) 0.4330(6) 0.5151(3)
H39E H 0.4714 0.4698 0.5205
C59E C 0.4240(5) 0.4035(6) 0.5157(3)
H40E H 0.3912 0.4200 0.5213
C60E C 0.4248(5) 0.3506(6) 0.5081(2)
H41E H 0.3922 0.3306 0.5090
C61E C 0.4722(4) 0.3242(5) 0.4990(2)
C62E C 0.4713(5) 0.2689(5) 0.4895(2)
C63E C 0.5667(6) 0.2764(5) 0.4754(3)
H42E H 0.5977 0.2612 0.4669
C64E C 0.5185(5) 0.2463(5) 0.4766(2)
C65E C 0.5203(4) 0.1934(5) 0.4656(2)
C66E C 0.5651(6) 0.1752(7) 0.4497(3)
H43E H 0.5957 0.1978 0.4476
C67E C 0.5645(7) 0.1254(8) 0.4375(4)
H44E H 0.5946 0.1139 0.4268
C68E C 0.5199(8) 0.0914(7) 0.4405(4)
H45E H 0.5198 0.0570 0.4319
C69E C 0.4770(6) 0.1076(6) 0.4559(3)
H46E H 0.4472 0.0839 0.4579
C70E C 0.4752(4) 0.1589(5) 0.4689(2)
C71E C 0.4296(3) 0.1760(4) 0.4832(2)
C72E C 0.4283(6) 0.2322(5) 0.4925(3)
H47E H 0.3963 0.2448 0.5012
Fe1E Fe 0.83932(5) 0.39832(5) 0.51246(3)
N1E N 0.8215(3) 0.3998(3) 0.55236(15)
N2E N 0.8105(3) 0.3246(3) 0.51626(14)
N3E N 0.6414(3) -0.1121(3) 0.27684(13)
N4E N 0.6179(3) -0.1625(3) 0.23194(15)
C1E C 0.8255(4) 0.4415(4) 0.56996(18)
H1E H 0.8381 0.4753 0.5633
C2E C 0.8110(5) 0.4358(5) 0.5984(2)
H2E H 0.8144 0.4657 0.6107
C3E C 0.7921(5) 0.3873(5) 0.6084(2)
H3E H 0.7825 0.3832 0.6275
C4E C 0.7874(5) 0.3449(5) 0.5900(2)
H4E H 0.7740 0.3110 0.5962
C5E C 0.8022(4) 0.3520(4) 0.56254(18)
C6E C 0.7964(4) 0.3112(4) 0.54157(19)
H5E H 0.7830 0.2763 0.5459
C7E C 0.8016(4) 0.2850(4) 0.49473(18)
C8E C 0.7491(4) 0.2734(4) 0.48694(19)
H6E H 0.7195 0.2900 0.4961
C9E C 0.7410(4) 0.2369(4) 0.4654(2)
H7E H 0.7051 0.2290 0.4598
C10E C 0.7824(4) 0.2121(4) 0.45177(19)
C11E C 0.8344(4) 0.2236(4) 0.46020(19)
H8E H 0.8637 0.2064 0.4511
C12E C 0.8447(4) 0.2598(4) 0.48168(18)
H9E H 0.8806 0.2671 0.4874
C13E C 0.7706(4) 0.1735(4) 0.4282(2)
C14E C 0.7379(4) 0.1318(4) 0.4336(2)
H10E H 0.7242 0.1280 0.4520
C15E C 0.7226(4) 0.0933(4) 0.41352(19)
C16E C 0.7421(4) 0.0998(4) 0.3858(2)
C17E C 0.7767(5) 0.1453(4) 0.3789(2)
C18E C 0.7915(4) 0.1823(4) 0.4007(2)
C19E C 0.8213(5) 0.2281(5) 0.3933(2)
H11E H 0.8284 0.2546 0.4071
C20E C 0.8408(6) 0.2360(5) 0.3668(3)
H12E H 0.8633 0.2660 0.3628
C21E C 0.8270(7) 0.1987(5) 0.3451(3)
H13E H 0.8397 0.2039 0.3266
C22E C 0.7942(6) 0.1539(5) 0.3519(2)
H14E H 0.7841 0.1294 0.3376
C23E C 0.7280(4) 0.0611(4) 0.3651(2)
H15E H 0.7429 0.0642 0.3469
C24E C 0.6932(4) 0.0194(4) 0.37096(19)
C25E C 0.6711(4) 0.0120(4) 0.39892(19)
C26E C 0.6862(4) 0.0487(4) 0.41988(19)
C27E C 0.6649(5) 0.0428(4) 0.4467(2)
H16E H 0.6736 0.0682 0.4609
C28E C 0.6306(6) -0.0007(5) 0.4528(2)
H17E H 0.6171 -0.0054 0.4712
C29E C 0.6163(5) -0.0368(5) 0.4319(2)
H18E H 0.5916 -0.0651 0.4358
C30E C 0.6378(4) -0.0317(4) 0.4056(2)
H19E H 0.6299 -0.0580 0.3917
C31E C 0.6782(4) -0.0176(4) 0.34737(19)
C32E C 0.6255(4) -0.0257(4) 0.3393(2)
H20E H 0.5972 -0.0095 0.3497
C33E C 0.6132(4) -0.0574(4) 0.31619(18)
H21E H 0.5767 -0.0630 0.3109
C34E C 0.6539(4) -0.0805(3) 0.30103(17)
C35E C 0.7071(4) -0.0733(4) 0.30863(17)
H22E H 0.7352 -0.0900 0.2983
C36E C 0.7191(4) -0.0413(4) 0.33153(18)
H23E H 0.7557 -0.0353 0.3365
C37E C 0.6244(4) -0.1611(4) 0.28054(19)
H24E H 0.6222 -0.1765 0.2987
C38E C 0.6093(3) -0.1912(4) 0.25618(19)
C39E C 0.5862(4) -0.2411(4) 0.2566(2)
H25E H 0.5813 -0.2595 0.2738
C40E C 0.5701(4) -0.2649(4) 0.2318(2)
H26E H 0.5541 -0.2997 0.2315
C41E C 0.5781(4) -0.2365(4) 0.2075(2)
H27E H 0.5676 -0.2518 0.1902
C42E C 0.6017(4) -0.1852(4) 0.2080(2)
H28E H 0.6062 -0.1661 0.1910
Fe1J Fe 0.35168(5) 0.58932(5) 0.23754(3)
N1J N 0.3502(3) 0.5715(3) 0.19764(15)
N2J N 0.4254(3) 0.5605(3) 0.23374(14)
N3J N 0.8621(3) 0.3914(3) 0.47316(13)
N4J N 0.9125(3) 0.3679(3) 0.51806(15)
N5J N 0.2761(3) 0.6129(3) 0.23752(14)
N6J N 0.3171(3) 0.5201(3) 0.24580(15)
C1J C 0.3085(4) 0.5755(4) 0.18004(18)
H1J H 0.2747 0.5881 0.1867
C2J C 0.3142(5) 0.5610(5) 0.1516(2)
H2J H 0.2843 0.5644 0.1393
C3J C 0.3627(5) 0.5421(5) 0.1416(2)
H3J H 0.3668 0.5325 0.1225
C4J C 0.4051(5) 0.5374(5) 0.1600(2)
H4J H 0.4390 0.5240 0.1538
C5J C 0.3980(4) 0.5522(4) 0.18746(18)
C6J C 0.4388(4) 0.5464(4) 0.20843(19)
H5J H 0.4737 0.5330 0.2041
C7J C 0.4650(4) 0.5516(4) 0.25527(18)
C8J C 0.4766(4) 0.4991(4) 0.26306(19)
H6J H 0.4600 0.4695 0.2539
C9J C 0.5131(4) 0.4910(4) 0.2846(2)
H7J H 0.5210 0.4551 0.2902
C10J C 0.5379(4) 0.5324(4) 0.29823(19)
C11J C 0.5264(4) 0.5844(4) 0.28980(19)
H8J H 0.5436 0.6137 0.2989
C12J C 0.4902(4) 0.5947(4) 0.26832(18)
H9J H 0.4829 0.6306 0.2626
C13J C 0.5765(4) 0.5206(4) 0.3218(2)
C14J C 0.6182(4) 0.4879(4) 0.3164(2)
H10J H 0.6220 0.4742 0.2980
C15J C 0.6567(4) 0.4726(4) 0.33648(19)
C16J C 0.6502(4) 0.4921(4) 0.3642(2)
C17J C 0.6047(4) 0.5267(5) 0.3711(2)
C18J C 0.5677(4) 0.5415(4) 0.3493(2)
C19J C 0.5219(5) 0.5713(5) 0.3567(2)
H11J H 0.4954 0.5784 0.3429
C20J C 0.5140(5) 0.5908(6) 0.3832(3)
H12J H 0.4840 0.6133 0.3872
C21J C 0.5513(5) 0.5770(7) 0.4049(3)
H13J H 0.5461 0.5897 0.4234
C22J C 0.5961(5) 0.5442(6) 0.3981(2)
H14J H 0.6206 0.5341 0.4124
C23J C 0.6889(4) 0.4780(4) 0.3849(2)
H15J H 0.6858 0.4929 0.4031
C24J C 0.7306(4) 0.4432(4) 0.37904(19)
C25J C 0.7380(4) 0.4211(4) 0.35108(19)
C26J C 0.7013(4) 0.4362(4) 0.33012(19)
C27J C 0.7072(4) 0.4149(5) 0.3033(2)
H16J H 0.6818 0.4236 0.2891
C28J C 0.7507(5) 0.3806(6) 0.2972(2)
H17J H 0.7554 0.3671 0.2788
C29J C 0.7868(5) 0.3663(5) 0.3181(2)
H18J H 0.8151 0.3416 0.3142
C30J C 0.7817(4) 0.3878(4) 0.3444(2)
H19J H 0.8080 0.3799 0.3583
C31J C 0.7676(4) 0.4282(4) 0.40263(19)
C32J C 0.7757(4) 0.3755(4) 0.4107(2)
H20J H 0.7595 0.3472 0.4003
C33J C 0.8074(4) 0.3632(4) 0.43381(18)
H21J H 0.8130 0.3267 0.4391
C34J C 0.8305(3) 0.4039(4) 0.44897(17)
C35J C 0.8233(4) 0.4571(4) 0.44137(17)
H22J H 0.8400 0.4852 0.4517
C36J C 0.7913(4) 0.4691(4) 0.41847(18)
H23J H 0.7853 0.5057 0.4135
C37J C 0.9111(4) 0.3744(4) 0.46946(19)
H24J H 0.9265 0.3722 0.4513
C38J C 0.9412(4) 0.3593(3) 0.49382(19)
C39J C 0.9911(4) 0.3362(4) 0.4934(2)
H25J H 1.0095 0.3313 0.4762
C40J C 1.0149(4) 0.3201(4) 0.5182(2)
H26J H 1.0497 0.3041 0.5185
C41J C 0.9865(4) 0.3281(4) 0.5425(2)
H27J H 1.0018 0.3176 0.5598
C42J C 0.9352(4) 0.3517(4) 0.5420(2)
H28J H 0.9161 0.3562 0.5590
C43J C 0.2571(4) 0.6637(4) 0.23398(18)
H29J H 0.2817 0.6927 0.2317
C44J C 0.2019(4) 0.6741(4) 0.2336(2)
H30J H 0.1896 0.7099 0.2304
C45J C 0.1654(4) 0.6340(4) 0.2376(3)
H31J H 0.1278 0.6412 0.2373
C46J C 0.1844(4) 0.5825(4) 0.2421(2)
H32J H 0.1600 0.5536 0.2453
C47J C 0.2401(4) 0.5733(4) 0.24198(19)
C48J C 0.2648(4) 0.5206(4) 0.2469(2)
H33J H 0.2441 0.4892 0.2507
C49J C 0.3403(3) 0.4677(3) 0.25051(17)
C50J C 0.3634(3) 0.4401(3) 0.22858(18)
H34J H 0.3606 0.4538 0.2101
C51J C 0.3908(3) 0.3918(3) 0.23353(17)
H35J H 0.4066 0.3728 0.2184
C52J C 0.3951(2) 0.3711(2) 0.26054(17)
C53J C 0.3713(3) 0.3988(3) 0.28205(18)
H36J H 0.3735 0.3850 0.3005
C54J C 0.3439(3) 0.4469(3) 0.27720(18)
H37J H 0.3275 0.4654 0.2923
C55J C 0.4251(3) 0.3189(3) 0.26405(18)
C56J C 0.3959(4) 0.2715(3) 0.25225(18)
C57J C 0.3412(5) 0.2688(5) 0.2435(2)
H38J H 0.3204 0.3009 0.2436
C58J C 0.3170(6) 0.2214(5) 0.2349(3)
H39J H 0.2802 0.2214 0.2295
C59J C 0.3465(6) 0.1740(5) 0.2343(3)
H40J H 0.3300 0.1412 0.2287
C60J C 0.3994(6) 0.1748(5) 0.2419(2)
H41J H 0.4194 0.1422 0.2410
C61J C 0.4258(5) 0.2222(4) 0.2510(2)
C62J C 0.4811(5) 0.2213(5) 0.2605(2)
C63J C 0.4736(5) 0.3167(6) 0.2746(3)
H42J H 0.4888 0.3477 0.2831
C64J C 0.5037(5) 0.2685(5) 0.2734(2)
C65J C 0.5566(5) 0.2703(4) 0.2844(2)
C66J C 0.5748(7) 0.3151(6) 0.3003(3)
H43J H 0.5522 0.3457 0.3024
C67J C 0.6246(8) 0.3145(7) 0.3125(4)
H44J H 0.6361 0.3446 0.3232
C68J C 0.6586(7) 0.2699(8) 0.3095(4)
H45J H 0.6930 0.2698 0.3181
C69J C 0.6424(6) 0.2270(6) 0.2941(3)
H46J H 0.6661 0.1972 0.2921
C70J C 0.5911(5) 0.2252(4) 0.2811(2)
C71J C 0.5740(4) 0.1796(3) 0.2668(2)
C72J C 0.5178(5) 0.1783(6) 0.2575(3)
H47J H 0.5052 0.1463 0.2488
N5O N 0.7239(3) -0.1129(3) 0.23752(14)
N6O N 0.6829(3) -0.0201(3) 0.24580(15)
C43O C 0.7429(4) -0.1637(4) 0.23398(18)
H29O H 0.7183 -0.1927 0.2317
C44O C 0.7981(4) -0.1741(4) 0.2336(2)
H30O H 0.8104 -0.2099 0.2304
C45O C 0.8346(4) -0.1340(4) 0.2376(3)
H31O H 0.8722 -0.1412 0.2373
C46O C 0.8156(4) -0.0825(4) 0.2421(2)
H32O H 0.8400 -0.0536 0.2453
C47O C 0.7599(4) -0.0733(4) 0.24198(19)
C48O C 0.7352(4) -0.0206(4) 0.2469(2)
H33O H 0.7559 0.0108 0.2507
C49O C 0.6597(3) 0.0323(3) 0.25051(17)
C50O C 0.6366(3) 0.0599(3) 0.22858(18)
H34O H 0.6394 0.0462 0.2101
C51O C 0.6092(3) 0.1082(3) 0.23353(17)
H35O H 0.5934 0.1272 0.2184
C52O C 0.6049(2) 0.1289(2) 0.26054(17)
C53O C 0.6287(3) 0.1012(3) 0.28205(18)
H36O H 0.6265 0.1150 0.3005
C54O C 0.6561(3) 0.0531(3) 0.27720(18)
H37O H 0.6725 0.0346 0.2923
C55O C 0.5749(3) 0.1811(3) 0.26405(18)
C56O C 0.6041(4) 0.2285(3) 0.25225(18)
C57O C 0.6588(5) 0.2312(5) 0.2435(2)
H38O H 0.6796 0.1991 0.2436
C58O C 0.6830(6) 0.2786(5) 0.2349(3)
H39O H 0.7198 0.2786 0.2295
C59O C 0.6535(6) 0.3260(5) 0.2343(3)
H40O H 0.6700 0.3588 0.2287
C60O C 0.6006(6) 0.3252(5) 0.2419(2)
H41O H 0.5806 0.3578 0.2410
C61O C 0.5742(5) 0.2778(4) 0.2510(2)
C62O C 0.5189(5) 0.2787(5) 0.2605(2)
C63O C 0.5264(5) 0.1833(6) 0.2746(3)
H42O H 0.5112 0.1523 0.2831
C64O C 0.4963(5) 0.2315(5) 0.2734(2)
C65O C 0.4434(5) 0.2297(4) 0.2844(2)
C66O C 0.4252(7) 0.1849(6) 0.3003(3)
H43O H 0.4478 0.1543 0.3024
C67O C 0.3754(8) 0.1855(7) 0.3125(4)
H44O H 0.3639 0.1554 0.3232
C68O C 0.3414(7) 0.2301(8) 0.3095(4)
H45O H 0.3070 0.2302 0.3181
C69O C 0.3576(6) 0.2730(6) 0.2941(3)
H46O H 0.3339 0.3028 0.2921
C70O C 0.4089(5) 0.2748(4) 0.2811(2)
C71O C 0.4260(4) 0.3204(3) 0.2668(2)
C72O C 0.4822(5) 0.3217(6) 0.2575(3)
H47O H 0.4948 0.3537 0.2488
Fe1O Fe 0.64832(5) -0.08932(5) 0.23754(3)
N1O N 0.6498(3) -0.0715(3) 0.19764(15)
N2O N 0.5746(3) -0.0605(3) 0.23374(14)
N3O N 0.1379(3) 0.1086(3) 0.47316(13)
N4O N 0.0875(3) 0.1321(3) 0.51806(15)
C1O C 0.6915(4) -0.0755(4) 0.18004(18)
H1O H 0.7253 -0.0881 0.1867
C2O C 0.6858(5) -0.0610(5) 0.1516(2)
H2O H 0.7157 -0.0644 0.1393
C3O C 0.6373(5) -0.0421(5) 0.1416(2)
H3O H 0.6332 -0.0325 0.1225
C4O C 0.5949(5) -0.0374(5) 0.1600(2)
H4O H 0.5610 -0.0240 0.1538
C5O C 0.6020(4) -0.0522(4) 0.18746(18)
C6O C 0.5612(4) -0.0464(4) 0.20843(19)
H5O H 0.5263 -0.0330 0.2041
C7O C 0.5350(4) -0.0516(4) 0.25527(18)
C8O C 0.5234(4) 0.0009(4) 0.26306(19)
H6O H 0.5400 0.0305 0.2539
C9O C 0.4869(4) 0.0090(4) 0.2846(2)
H7O H 0.4790 0.0449 0.2902
C10O C 0.4621(4) -0.0324(4) 0.29823(19)
C11O C 0.4736(4) -0.0844(4) 0.28980(19)
H8O H 0.4564 -0.1137 0.2989
C12O C 0.5098(4) -0.0947(4) 0.26832(18)
H9O H 0.5171 -0.1306 0.2626
C13O C 0.4235(4) -0.0206(4) 0.3218(2)
C14O C 0.3818(4) 0.0121(4) 0.3164(2)
H10O H 0.3780 0.0258 0.2980
C15O C 0.3433(4) 0.0274(4) 0.33648(19)
C16O C 0.3498(4) 0.0079(4) 0.3642(2)
C17O C 0.3953(4) -0.0267(5) 0.3711(2)
C18O C 0.4323(4) -0.0415(4) 0.3493(2)
C19O C 0.4781(5) -0.0713(5) 0.3567(2)
H11O H 0.5046 -0.0784 0.3429
C20O C 0.4860(5) -0.0908(6) 0.3832(3)
H12O H 0.5160 -0.1133 0.3872
C21O C 0.4487(5) -0.0770(7) 0.4049(3)
H13O H 0.4539 -0.0897 0.4234
C22O C 0.4039(5) -0.0442(6) 0.3981(2)
H14O H 0.3794 -0.0341 0.4124
C23O C 0.3111(4) 0.0220(4) 0.3849(2)
H15O H 0.3142 0.0071 0.4031
C24O C 0.2694(4) 0.0568(4) 0.37904(19)
C25O C 0.2620(4) 0.0789(4) 0.35108(19)
C26O C 0.2987(4) 0.0638(4) 0.33012(19)
C27O C 0.2928(4) 0.0851(5) 0.3033(2)
H16O H 0.3182 0.0764 0.2891
C28O C 0.2493(5) 0.1194(6) 0.2972(2)
H17O H 0.2446 0.1329 0.2788
C29O C 0.2132(5) 0.1337(5) 0.3181(2)
H18O H 0.1849 0.1584 0.3142
C30O C 0.2183(4) 0.1122(4) 0.3444(2)
H19O H 0.1920 0.1201 0.3583
C31O C 0.2324(4) 0.0718(4) 0.40263(19)
C32O C 0.2243(4) 0.1245(4) 0.4107(2)
H20O H 0.2405 0.1528 0.4003
C33O C 0.1926(4) 0.1368(4) 0.43381(18)
H21O H 0.1870 0.1733 0.4391
C34O C 0.1695(3) 0.0961(4) 0.44897(17)
C35O C 0.1767(4) 0.0429(4) 0.44137(17)
H22O H 0.1600 0.0148 0.4517
C36O C 0.2087(4) 0.0309(4) 0.41847(18)
H23O H 0.2147 -0.0057 0.4135
C37O C 0.0889(4) 0.1256(4) 0.46946(19)
H24O H 0.0735 0.1278 0.4513
C38O C 0.0588(4) 0.1407(3) 0.49382(19)
C39O C 0.0089(4) 0.1638(4) 0.4934(2)
H25O H -0.0095 0.1687 0.4762
C40O C -0.0149(4) 0.1799(4) 0.5182(2)
H26O H -0.0497 0.1959 0.5185
C41O C 0.0135(4) 0.1719(4) 0.5425(2)
H27O H -0.0018 0.1824 0.5598
C42O C 0.0648(4) 0.1483(4) 0.5420(2)
H28O H 0.0839 0.1438 0.5590
F15? F 0.4964(6) 0.7083(6) 0.3033(3)
F16? F 0.4601(12) 0.6956(11) 0.3329(7)
N8? N 0.096(2) -0.2568(16) 0.4162(11)
C75? C 0.111(2) -0.2245(17) 0.4001(11)
N9? N 0.1108(11) -0.2328(11) 0.4347(5)
C76? C 0.1213(14) -0.2085(13) 0.4149(6)
C77? C 0.1389(12) -0.1748(11) 0.3917(6)
loop_
_geom_bond_atom_site_label_1
_geom_bond_atom_site_label_2
_geom_bond_site_symmetry_1
_geom_bond_site_symmetry_2
Fe1 N1 1_555 1_555
N1 C1 1_555 1_555
N2 Fe1 1_555 1_555
N3 C34 1_555 1_555
N4 C38 1_555 1_555
N5 Fe1 1_555 1_555
N6 Fe1 1_555 1_555
C1 H1 1_555 1_555
C2 C1 1_555 1_555
H2 C2 1_555 1_555
C3 C2 1_555 1_555
H3 C3 1_555 1_555
C4 C3 1_555 1_555
H4 C4 1_555 1_555
C5 N1 1_555 1_555
C6 N2 1_555 1_555
H5 C6 1_555 1_555
C7 N2 1_555 1_555
C8 C7 1_555 1_555
H6 C8 1_555 1_555
C9 C8 1_555 1_555
H7 C9 1_555 1_555
C10 C9 1_555 1_555
C11 C10 1_555 1_555
H8 C11 1_555 1_555
C12 C7 1_555 1_555
H9 C12 1_555 1_555
C13 C10 1_555 1_555
C14 C13 1_555 1_555
H10 C14 1_555 1_555
C15 C14 1_555 1_555
C16 C15 1_555 1_555
C17 C16 1_555 1_555
C18 C13 1_555 1_555
C19 C18 1_555 1_555
H11 C19 1_555 1_555
C20 C19 1_555 1_555
H12 C20 1_555 1_555
C21 C20 1_555 1_555
H13 C21 1_555 1_555
C22 C17 1_555 1_555
H14 C22 1_555 1_555
C23 C16 1_555 1_555
H15 C23 1_555 1_555
C24 C23 1_555 1_555
C25 C24 1_555 1_555
C26 C15 1_555 1_555
C27 C26 1_555 1_555
H16 C27 1_555 1_555
C28 C27 1_555 1_555
H17 C28 1_555 1_555
C29 C28 1_555 1_555
H18 C29 1_555 1_555
C30 C25 1_555 1_555
H19 C30 1_555 1_555
C31 C24 1_555 1_555
C32 C31 1_555 1_555
H20 C32 1_555 1_555
C33 C32 1_555 1_555
H21 C33 1_555 1_555
C34 C33 1_555 1_555
C35 C34 1_555 1_555
H22 C35 1_555 1_555
C36 C31 1_555 1_555
H23 C36 1_555 1_555
C37 N3 1_555 1_555
H24 C37 1_555 1_555
C38 C37 1_555 1_555
C39 C38 1_555 1_555
H25 C39 1_555 1_555
C40 C39 1_555 1_555
H26 C40 1_555 1_555
C41 C40 1_555 1_555
H27 C41 1_555 1_555
C42 N4 1_555 1_555
H28 C42 1_555 1_555
C43 N5 1_555 1_555
H29 C43 1_555 1_555
C44 C43 1_555 1_555
H30 C44 1_555 1_555
C45 C44 1_555 1_555
H31 C45 1_555 1_555
C46 C45 1_555 1_555
H32 C46 1_555 1_555
C47 N5 1_555 1_555
C48 N6 1_555 1_555
H33 C48 1_555 1_555
C49 N6 1_555 1_555
C50 C49 1_555 1_555
H34 C50 1_555 1_555
C51 C50 1_555 1_555
H35 C51 1_555 1_555
C52 C51 1_555 1_555
C53 C52 1_555 1_555
H36 C53 1_555 1_555
C54 C49 1_555 1_555
H37 C54 1_555 1_555
C55 C52 1_555 1_555
C56 C55 1_555 1_555
C57 C56 1_555 1_555
H38 C57 1_555 1_555
C58 C57 1_555 1_555
H39 C58 1_555 1_555
C59 C58 1_555 1_555
H40 C59 1_555 1_555
C60 C59 1_555 1_555
H41 C60 1_555 1_555
C61 C56 1_555 1_555
C62 C61 1_555 1_555
C63 C55 1_555 1_555
H42 C63 1_555 1_555
C64 C62 1_555 1_555
C65 C64 1_555 1_555
C66 C65 1_555 1_555
H43 C66 1_555 1_555
C67 C66 1_555 1_555
H44 C67 1_555 1_555
C68 C67 1_555 1_555
H45 C68 1_555 1_555
C69 C68 1_555 1_555
H46 C69 1_555 1_555
C70 C65 1_555 1_555
C71 C70 1_555 1_555
C72 C62 1_555 1_555
H47 C72 1_555 1_555
As1 F1 1_555 1_555
F2 As1 1_555 1_555
F3 As1 1_555 1_555
F4 As1 1_555 1_555
F5 As1 1_555 1_555
F6 As1 1_555 1_555
As2 F7 1_555 1_555
F8 As2 1_555 1_555
F9 As2 1_555 1_555
F10 As2 1_555 1_555
F11 As2 1_555 1_555
F12 As2 1_555 1_555
As3 F13 1_555 1_555
F14 As3 1_555 1_555
N7 C73 1_555 1_555
C73 C74 1_555 1_555
C74 H48 1_555 1_555
H49 C74 1_555 1_555
H50 C74 1_555 1_555
N5E C43E 1_555 1_555
N6E C48E 1_555 1_555
C43E H29E 1_555 1_555
C44E C43E 1_555 1_555
H30E C44E 1_555 1_555
C45E C44E 1_555 1_555
H31E C45E 1_555 1_555
C46E C45E 1_555 1_555
H32E C46E 1_555 1_555
C47E N5E 1_555 1_555
C48E C47E 1_555 1_555
H33E C48E 1_555 1_555
C49E N6E 1_555 1_555
C50E C49E 1_555 1_555
H34E C50E 1_555 1_555
C51E C50E 1_555 1_555
H35E C51E 1_555 1_555
C52E C71 1_555 1_555
C53E C52E 1_555 1_555
H36E C53E 1_555 1_555
C54E C49E 1_555 1_555
H37E C54E 1_555 1_555
C55E C70 1_555 1_555
C56E C70 1_555 1_555
C57E C56E 1_555 1_555
H38E C57E 1_555 1_555
C58E C57E 1_555 1_555
H39E C58E 1_555 1_555
C59E C58E 1_555 1_555
H40E C59E 1_555 1_555
C60E C59E 1_555 1_555
H41E C60E 1_555 1_555
C61E C65 1_555 1_555
C62E C62 1_555 1_555
C63E C71 1_555 1_555
H42E C63E 1_555 1_555
C64E C62 1_555 1_555
C65E C61 1_555 1_555
C66E C65E 1_555 1_555
H43E C66E 1_555 1_555
C67E C66E 1_555 1_555
H44E C67E 1_555 1_555
C68E C67E 1_555 1_555
H45E C68E 1_555 1_555
C69E C68E 1_555 1_555
H46E C69E 1_555 1_555
C70E C55 1_555 1_555
C71E C52 1_555 1_555
C72E C55 1_555 1_555
H47E C72E 1_555 1_555
Fe1E N5E 1_555 1_555
N1E Fe1E 1_555 1_555
N2E Fe1E 1_555 1_555
N3E C34E 1_555 1_555
N4E C38E 1_555 1_555
C1E N1E 1_555 1_555
H1E C1E 1_555 1_555
C2E C1E 1_555 1_555
H2E C2E 1_555 1_555
C3E C2E 1_555 1_555
H3E C3E 1_555 1_555
C4E C3E 1_555 1_555
H4E C4E 1_555 1_555
C5E N1E 1_555 1_555
C6E N2E 1_555 1_555
H5E C6E 1_555 1_555
C7E N2E 1_555 1_555
C8E C7E 1_555 1_555
H6E C8E 1_555 1_555
C9E C8E 1_555 1_555
H7E C9E 1_555 1_555
C10E C9E 1_555 1_555
C11E C10E 1_555 1_555
H8E C11E 1_555 1_555
C12E C7E 1_555 1_555
H9E C12E 1_555 1_555
C13E C10E 1_555 1_555
C14E C13E 1_555 1_555
H10E C14E 1_555 1_555
C15E C14E 1_555 1_555
C16E C15E 1_555 1_555
C17E C16E 1_555 1_555
C18E C13E 1_555 1_555
C19E C18E 1_555 1_555
H11E C19E 1_555 1_555
C20E C19E 1_555 1_555
H12E C20E 1_555 1_555
C21E C20E 1_555 1_555
H13E C21E 1_555 1_555
C22E C17E 1_555 1_555
H14E C22E 1_555 1_555
C23E C16E 1_555 1_555
H15E C23E 1_555 1_555
C24E C23E 1_555 1_555
C25E C24E 1_555 1_555
C26E C15E 1_555 1_555
C27E C26E 1_555 1_555
H16E C27E 1_555 1_555
C28E C27E 1_555 1_555
H17E C28E 1_555 1_555
C29E C28E 1_555 1_555
H18E C29E 1_555 1_555
C30E C25E 1_555 1_555
H19E C30E 1_555 1_555
C31E C24E 1_555 1_555
C32E C31E 1_555 1_555
H20E C32E 1_555 1_555
C33E C32E 1_555 1_555
H21E C33E 1_555 1_555
C34E C33E 1_555 1_555
C35E C34E 1_555 1_555
H22E C35E 1_555 1_555
C36E C31E 1_555 1_555
H23E C36E 1_555 1_555
C37E N3E 1_555 1_555
H24E C37E 1_555 1_555
C38E C37E 1_555 1_555
C39E C38E 1_555 1_555
H25E C39E 1_555 1_555
C40E C39E 1_555 1_555
H26E C40E 1_555 1_555
C41E C40E 1_555 1_555
H27E C41E 1_555 1_555
C42E N4E 1_555 1_555
H28E C42E 1_555 1_555
Fe1J N3 1_555 1_555
N1J Fe1J 1_555 1_555
N2J Fe1J 1_555 1_555
N3J Fe1E 1_555 1_555
N4J Fe1E 1_555 1_555
N5J Fe1J 1_555 1_555
N6J Fe1J 1_555 1_555
C1J N1J 1_555 1_555
H1J C1J 1_555 1_555
C2J C1J 1_555 1_555
H2J C2J 1_555 1_555
C3J C2J 1_555 1_555
H3J C3J 1_555 1_555
C4J C3J 1_555 1_555
H4J C4J 1_555 1_555
C5J N1J 1_555 1_555
C6J N2J 1_555 1_555
H5J C6J 1_555 1_555
C7J N2J 1_555 1_555
C8J C7J 1_555 1_555
H6J C8J 1_555 1_555
C9J C8J 1_555 1_555
H7J C9J 1_555 1_555
C10J C9J 1_555 1_555
C11J C10J 1_555 1_555
H8J C11J 1_555 1_555
C12J C7J 1_555 1_555
H9J C12J 1_555 1_555
C13J C10J 1_555 1_555
C14J C13J 1_555 1_555
H10J C14J 1_555 1_555
C15J C14J 1_555 1_555
C16J C15J 1_555 1_555
C17J C16J 1_555 1_555
C18J C13J 1_555 1_555
C19J C18J 1_555 1_555
H11J C19J 1_555 1_555
C20J C19J 1_555 1_555
H12J C20J 1_555 1_555
C21J C20J 1_555 1_555
H13J C21J 1_555 1_555
C22J C17J 1_555 1_555
H14J C22J 1_555 1_555
C23J C16J 1_555 1_555
H15J C23J 1_555 1_555
C24J C23J 1_555 1_555
C25J C24J 1_555 1_555
C26J C15J 1_555 1_555
C27J C26J 1_555 1_555
H16J C27J 1_555 1_555
C28J C27J 1_555 1_555
H17J C28J 1_555 1_555
C29J C28J 1_555 1_555
H18J C29J 1_555 1_555
C30J C25J 1_555 1_555
H19J C30J 1_555 1_555
C31J C24J 1_555 1_555
C32J C31J 1_555 1_555
H20J C32J 1_555 1_555
C33J C32J 1_555 1_555
H21J C33J 1_555 1_555
C34J N3J 1_555 1_555
C35J C34J 1_555 1_555
H22J C35J 1_555 1_555
C36J C31J 1_555 1_555
H23J C36J 1_555 1_555
C37J N3J 1_555 1_555
H24J C37J 1_555 1_555
C38J N4J 1_555 1_555
C39J C38J 1_555 1_555
H25J C39J 1_555 1_555
C40J C39J 1_555 1_555
H26J C40J 1_555 1_555
C41J C40J 1_555 1_555
H27J C41J 1_555 1_555
C42J N4J 1_555 1_555
H28J C42J 1_555 1_555
C43J N5J 1_555 1_555
H29J C43J 1_555 1_555
C44J C43J 1_555 1_555
H30J C44J 1_555 1_555
C45J C44J 1_555 1_555
H31J C45J 1_555 1_555
C46J C45J 1_555 1_555
H32J C46J 1_555 1_555
C47J N5J 1_555 1_555
C48J N6J 1_555 1_555
H33J C48J 1_555 1_555
C49J N6J 1_555 1_555
C50J C49J 1_555 1_555
H34J C50J 1_555 1_555
C51J C50J 1_555 1_555
H35J C51J 1_555 1_555
C52J C51J 1_555 1_555
C53J C52J 1_555 1_555
H36J C53J 1_555 1_555
C54J C49J 1_555 1_555
H37J C54J 1_555 1_555
C55J C52J 1_555 1_555
C56J C55J 1_555 1_555
C57J C56J 1_555 1_555
H38J C57J 1_555 1_555
C58J C57J 1_555 1_555
H39J C58J 1_555 1_555
C59J C58J 1_555 1_555
H40J C59J 1_555 1_555
C60J C59J 1_555 1_555
H41J C60J 1_555 1_555
C61J C56J 1_555 1_555
C62J C61J 1_555 1_555
C63J C55J 1_555 1_555
H42J C63J 1_555 1_555
C64J C62J 1_555 1_555
C65J C64J 1_555 1_555
C66J C65J 1_555 1_555
H43J C66J 1_555 1_555
C67J C66J 1_555 1_555
H44J C67J 1_555 1_555
C68J C67J 1_555 1_555
H45J C68J 1_555 1_555
C69J C68J 1_555 1_555
H46J C69J 1_555 1_555
C70J C65J 1_555 1_555
C71J C70J 1_555 1_555
C72J C62J 1_555 1_555
H47J C72J 1_555 1_555
N5O C43O 1_555 1_555
N6O C48O 1_555 1_555
C43O H29O 1_555 1_555
C44O C43O 1_555 1_555
H30O C44O 1_555 1_555
C45O C44O 1_555 1_555
H31O C45O 1_555 1_555
C46O C45O 1_555 1_555
H32O C46O 1_555 1_555
C47O N5O 1_555 1_555
C48O C47O 1_555 1_555
H33O C48O 1_555 1_555
C49O N6O 1_555 1_555
C50O C49O 1_555 1_555
H34O C50O 1_555 1_555
C51O C50O 1_555 1_555
H35O C51O 1_555 1_555
C52O C71J 1_555 1_555
C53O C52O 1_555 1_555
H36O C53O 1_555 1_555
C54O C49O 1_555 1_555
H37O C54O 1_555 1_555
C55O C70J 1_555 1_555
C56O C70J 1_555 1_555
C57O C56O 1_555 1_555
H38O C57O 1_555 1_555
C58O C57O 1_555 1_555
H39O C58O 1_555 1_555
C59O C58O 1_555 1_555
H40O C59O 1_555 1_555
C60O C59O 1_555 1_555
H41O C60O 1_555 1_555
C61O C65J 1_555 1_555
C62O C62J 1_555 1_555
C63O C71J 1_555 1_555
H42O C63O 1_555 1_555
C64O C62J 1_555 1_555
C65O C61J 1_555 1_555
C66O C65O 1_555 1_555
H43O C66O 1_555 1_555
C67O C66O 1_555 1_555
H44O C67O 1_555 1_555
C68O C67O 1_555 1_555
H45O C68O 1_555 1_555
C69O C68O 1_555 1_555
H46O C69O 1_555 1_555
C70O C55J 1_555 1_555
C71O C52J 1_555 1_555
C72O C55J 1_555 1_555
H47O C72O 1_555 1_555
Fe1O N3E 1_555 1_555
N1O Fe1O 1_555 1_555
N2O Fe1O 1_555 1_555
N3O Fe1 1_555 1_555
N4O Fe1 1_555 1_555
C1O N1O 1_555 1_555
H1O C1O 1_555 1_555
C2O C1O 1_555 1_555
H2O C2O 1_555 1_555
C3O C2O 1_555 1_555
H3O C3O 1_555 1_555
C4O C3O 1_555 1_555
H4O C4O 1_555 1_555
C5O N1O 1_555 1_555
C6O N2O 1_555 1_555
H5O C6O 1_555 1_555
C7O N2O 1_555 1_555
C8O C7O 1_555 1_555
H6O C8O 1_555 1_555
C9O C8O 1_555 1_555
H7O C9O 1_555 1_555
C10O C9O 1_555 1_555
C11O C10O 1_555 1_555
H8O C11O 1_555 1_555
C12O C7O 1_555 1_555
H9O C12O 1_555 1_555
C13O C10O 1_555 1_555
C14O C13O 1_555 1_555
H10O C14O 1_555 1_555
C15O C14O 1_555 1_555
C16O C15O 1_555 1_555
C17O C16O 1_555 1_555
C18O C13O 1_555 1_555
C19O C18O 1_555 1_555
H11O C19O 1_555 1_555
C20O C19O 1_555 1_555
H12O C20O 1_555 1_555
C21O C20O 1_555 1_555
H13O C21O 1_555 1_555
C22O C17O 1_555 1_555
H14O C22O 1_555 1_555
C23O C16O 1_555 1_555
H15O C23O 1_555 1_555
C24O C23O 1_555 1_555
C25O C24O 1_555 1_555
C26O C15O 1_555 1_555
C27O C26O 1_555 1_555
H16O C27O 1_555 1_555
C28O C27O 1_555 1_555
H17O C28O 1_555 1_555
C29O C28O 1_555 1_555
H18O C29O 1_555 1_555
C30O C25O 1_555 1_555
H19O C30O 1_555 1_555
C31O C24O 1_555 1_555
C32O C31O 1_555 1_555
H20O C32O 1_555 1_555
C33O C32O 1_555 1_555
H21O C33O 1_555 1_555
C34O N3O 1_555 1_555
C35O C34O 1_555 1_555
H22O C35O 1_555 1_555
C36O C31O 1_555 1_555
H23O C36O 1_555 1_555
C37O N3O 1_555 1_555
H24O C37O 1_555 1_555
C38O N4O 1_555 1_555
C39O C38O 1_555 1_555
H25O C39O 1_555 1_555
C40O C39O 1_555 1_555
H26O C40O 1_555 1_555
C41O C40O 1_555 1_555
H27O C41O 1_555 1_555
C42O N4O 1_555 1_555
H28O C42O 1_555 1_555
F13E As3 1_555 1_555
N4 Fe1J 1_555 1_555
C4 C5 1_555 1_555
C5 C6 1_555 1_555
C11 C12 1_555 1_555
C17 C18 1_555 1_555
C21 C22 1_555 1_555
C25 C26 1_555 1_555
C29 C30 1_555 1_555
C35 C36 1_555 1_555
C41 C42 1_555 1_555
C46 C47 1_555 1_555
C47 C48 1_555 1_555
C53 C54 1_555 1_555
C56 C70E 1_555 1_555
C56 C71E 1_555 1_555
C60 C61 1_555 1_555
C62 C65E 1_555 1_555
C63 C64 1_555 1_555
C63 C71E 1_555 1_555
C63 C72E 1_555 1_555
C64 C62E 1_555 1_555
C64 C64E 1_555 1_555
C65 C62E 1_555 1_555
C69 C70 1_555 1_555
C71 C72 1_555 1_555
C71 C56E 1_555 1_555
C72 C55E 1_555 1_555
C72 C63E 1_555 1_555
N6E Fe1E 1_555 1_555
C46E C47E 1_555 1_555
C51E C52E 1_555 1_555
C52E C55E 1_555 1_555
C53E C54E 1_555 1_555
C55E C56E 1_555 1_555
C55E C63E 1_555 1_555
C56E C61E 1_555 1_555
C60E C61E 1_555 1_555
C61E C62E 1_555 1_555
C62E C64E 1_555 1_555
C62E C72E 1_555 1_555
C63E C64E 1_555 1_555
C64E C65E 1_555 1_555
C65E C70E 1_555 1_555
C69E C70E 1_555 1_555
C70E C71E 1_555 1_555
C71E C72E 1_555 1_555
N4E Fe1O 1_555 1_555
C4E C5E 1_555 1_555
C5E C6E 1_555 1_555
C11E C12E 1_555 1_555
C17E C18E 1_555 1_555
C21E C22E 1_555 1_555
C25E C26E 1_555 1_555
C29E C30E 1_555 1_555
C35E C36E 1_555 1_555
C41E C42E 1_555 1_555
C4J C5J 1_555 1_555
C5J C6J 1_555 1_555
C11J C12J 1_555 1_555
C17J C18J 1_555 1_555
C21J C22J 1_555 1_555
C25J C26J 1_555 1_555
C29J C30J 1_555 1_555
C33J C34J 1_555 1_555
C35J C36J 1_555 1_555
C37J C38J 1_555 1_555
C41J C42J 1_555 1_555
C46J C47J 1_555 1_555
C47J C48J 1_555 1_555
C53J C54J 1_555 1_555
C56J C70O 1_555 1_555
C56J C71O 1_555 1_555
C60J C61J 1_555 1_555
C62J C65O 1_555 1_555
C63J C64J 1_555 1_555
C63J C71O 1_555 1_555
C63J C72O 1_555 1_555
C64J C62O 1_555 1_555
C64J C64O 1_555 1_555
C65J C62O 1_555 1_555
C69J C70J 1_555 1_555
C71J C72J 1_555 1_555
C71J C56O 1_555 1_555
C72J C55O 1_555 1_555
C72J C63O 1_555 1_555
N5O Fe1O 1_555 1_555
N6O Fe1O 1_555 1_555
C46O C47O 1_555 1_555
C51O C52O 1_555 1_555
C52O C55O 1_555 1_555
C53O C54O 1_555 1_555
C55O C56O 1_555 1_555
C55O C63O 1_555 1_555
C56O C61O 1_555 1_555
C60O C61O 1_555 1_555
C61O C62O 1_555 1_555
C62O C64O 1_555 1_555
C62O C72O 1_555 1_555
C63O C64O 1_555 1_555
C64O C65O 1_555 1_555
C65O C70O 1_555 1_555
C69O C70O 1_555 1_555
C70O C71O 1_555 1_555
C71O C72O 1_555 1_555
C4O C5O 1_555 1_555
C5O C6O 1_555 1_555
C11O C12O 1_555 1_555
C17O C18O 1_555 1_555
C21O C22O 1_555 1_555
C25O C26O 1_555 1_555
C29O C30O 1_555 1_555
C33O C34O 1_555 1_555
C35O C36O 1_555 1_555
C37O C38O 1_555 1_555
C41O C42O 1_555 1_555

#END
