
#######################################################################
#
#                 Cambridge Crystallographic Data Centre
#                                CCDC 
#
#######################################################################
#
# If this CIF has been generated from an entry in the Cambridge 
# Structural Database, then it will include bibliographic, chemical, 
# crystal, experimental, refinement or atomic coordinate data resulting 
# from the CCDC's data processing and validation procedures.
#
#######################################################################

data_SUPQAW
_chemical_formula_moiety         '(C66 H40 Cu4 N6 O18)n'
_chemical_name_systematic        
"catena-[tetrakis(\m~4~-9H-Carbazole-3,6-dicarboxylato-O,O',O'',O''')-(\m~2~-4,4'-bipyridine-N,N')-diaqua-tetra-copper unknown solvate]"
_symmetry_cell_setting           cubic
_symmetry_space_group_name_H-M   'I m -3 m'
_symmetry_Int_Tables_number      229
_space_group_name_Hall           '-I 4 2 3'
loop_
_symmetry_equiv_pos_site_id
_symmetry_equiv_pos_as_xyz
1 x,y,z
2 -y,x,z
3 y,-x,z
4 x,-z,y
5 x,z,-y
6 z,y,-x
7 -z,y,x
8 z,x,y
9 y,z,x
10 y,x,-z
11 -x,z,y
12 z,-y,x
13 1/2+x,1/2+y,1/2+z
14 1/2-y,1/2+x,1/2+z
15 1/2+y,1/2-x,1/2+z
16 1/2+x,1/2-z,1/2+y
17 1/2+x,1/2+z,1/2-y
18 1/2+z,1/2+y,1/2-x
19 1/2-z,1/2+y,1/2+x
20 1/2+z,1/2+x,1/2+y
21 1/2+y,1/2+z,1/2+x
22 1/2+y,1/2+x,1/2-z
23 1/2-x,1/2+z,1/2+y
24 1/2+z,1/2-y,1/2+x
25 -x,-y,z
26 x,-y,-z
27 -x,y,-z
28 -y,-z,x
29 z,-x,-y
30 -y,z,-x
31 -z,-x,y
32 -z,x,-y
33 y,-z,-x
34 -y,-x,-z
35 -x,-z,-y
36 -z,-y,-x
37 1/2-x,1/2-y,1/2+z
38 1/2+x,1/2-y,1/2-z
39 1/2-x,1/2+y,1/2-z
40 1/2-y,1/2-z,1/2+x
41 1/2+z,1/2-x,1/2-y
42 1/2-y,1/2+z,1/2-x
43 1/2-z,1/2-x,1/2+y
44 1/2-z,1/2+x,1/2-y
45 1/2+y,1/2-z,1/2-x
46 1/2-y,1/2-x,1/2-z
47 1/2-x,1/2-z,1/2-y
48 1/2-z,1/2-y,1/2-x
49 -x,-y,-z
50 y,-x,-z
51 -y,x,-z
52 -x,z,-y
53 -x,-z,y
54 -z,-y,x
55 z,-y,-x
56 -z,-x,-y
57 -y,-z,-x
58 -y,-x,z
59 x,-z,-y
60 -z,y,-x
61 1/2-x,1/2-y,1/2-z
62 1/2+y,1/2-x,1/2-z
63 1/2-y,1/2+x,1/2-z
64 1/2-x,1/2+z,1/2-y
65 1/2-x,1/2-z,1/2+y
66 1/2-z,1/2-y,1/2+x
67 1/2+z,1/2-y,1/2-x
68 1/2-z,1/2-x,1/2-y
69 1/2-y,1/2-z,1/2-x
70 1/2-y,1/2-x,1/2+z
71 1/2+x,1/2-z,1/2-y
72 1/2-z,1/2+y,1/2-x
73 x,y,-z
74 -x,y,z
75 x,-y,z
76 y,z,-x
77 -z,x,y
78 y,-z,x
79 z,x,-y
80 z,-x,y
81 -y,z,x
82 y,x,z
83 x,z,y
84 z,y,x
85 1/2+x,1/2+y,1/2-z
86 1/2-x,1/2+y,1/2+z
87 1/2+x,1/2-y,1/2+z
88 1/2+y,1/2+z,1/2-x
89 1/2-z,1/2+x,1/2+y
90 1/2+y,1/2-z,1/2+x
91 1/2+z,1/2+x,1/2-y
92 1/2+z,1/2-x,1/2+y
93 1/2-y,1/2+z,1/2+x
94 1/2+y,1/2+x,1/2+z
95 1/2+x,1/2+z,1/2+y
96 1/2+z,1/2+y,1/2+x
_cell_length_a                   30.5521(15)
_cell_length_b                   30.5521(15)
_cell_length_c                   30.5521(15)
_cell_angle_alpha                90
_cell_angle_beta                 90
_cell_angle_gamma                90
_cell_volume                     28518.3
_exptl_crystal_colour            green
_exptl_crystal_description       cubic
_cell_formula_units_Z            6
_chemical_properties_physical    air-sensitive
loop_
_atom_site_label
_atom_site_type_symbol
_atom_site_fract_x
_atom_site_fract_y
_atom_site_fract_z
Cu1 Cu 0.0000 0.22846(2) 0.0000
Cu2 Cu 0.0000 0.31419(2) 0.0000
N1 N 0.0000 0.26545(13) 0.26545(13)
H1 H 0.0000 0.2863 0.2863
N2 N 0.0000 0.38297(11) 0.0000
C1 C 0.0000 0.27237(9) 0.08083(11)
C2 C 0.0000 0.27034(10) 0.12815(15)
C3 C 0.0000 0.23141(10) 0.15356(12)
H2 H 0.0000 0.2042 0.1378
C4 C 0.0000 0.23212(10) 0.19914(13)
C5 C 0.0000 0.27335(16) 0.22407(19)
C6 C 0.0000 0.30904(17) 0.20069(19)
H3 H 0.0000 0.3360 0.2168
C7 C 0.0000 0.31141(13) 0.15539(19)
H4 H 0.0000 0.3390 0.1403
C8 C 0.03488(14) 0.40558(13) 0.0000
H5 H 0.0616 0.3891 0.0000
C9 C 0.0346(2) 0.4511(2) 0.0000
H6 H 0.0630 0.4645 0.0000
C10 C 0.0000 0.47579(16) 0.0000
O1 O 0.0000 0.23485(5) 0.06444(7)
O2 O 0.0000 0.30861(6) 0.06278(9)
O3 O 0.0000 0.15760(11) 0.0000
Cu1C Cu 0.0000 0.0000 0.22846(2)
Cu1B Cu 0.22846(2) 0.0000 0.0000
Cu1A Cu -0.22846(2) 0.0000 0.0000
Cu1D Cu 0.0000 0.0000 -0.22846(2)
Cu2C Cu 0.0000 0.0000 0.31419(2)
Cu2K Cu 0.0000 0.68581(2) 0.0000
Cu2B Cu 0.31419(2) 0.0000 0.0000
Cu2A Cu -0.31419(2) 0.0000 0.0000
Cu2D Cu 0.0000 0.0000 -0.31419(2)
N1E N 0.26545(13) 0.26545(13) 0.0000
N1F N -0.26545(13) 0.26545(13) 0.0000
N1D N 0.0000 0.26545(13) -0.26545(13)
H1E H 0.2863 0.2863 0.0000
H1F H -0.2863 0.2863 0.0000
H1D H 0.0000 0.2863 -0.2863
N2K N 0.0000 0.61703(11) 0.0000
N2C N 0.0000 0.0000 0.38297(11)
C1J C 0.0000 0.08083(11) 0.27237(9)
C1E C 0.08083(11) 0.27237(9) 0.0000
C1H C 0.27237(9) 0.08083(11) 0.0000
C1F C -0.08083(11) 0.27237(9) 0.0000
C1BC C -0.27237(9) 0.08083(11) 0.0000
C1TB C 0.0000 0.27237(9) -0.08083(11)
C1D C 0.0000 0.08083(11) -0.27237(9)
C2J C 0.0000 0.12815(15) 0.27034(10)
C2E C 0.12815(15) 0.27034(10) 0.0000
C2H C 0.27034(10) 0.12815(15) 0.0000
C2F C -0.12815(15) 0.27034(10) 0.0000
C2BC C -0.27034(10) 0.12815(15) 0.0000
C2TB C 0.0000 0.27034(10) -0.12815(15)
C2D C 0.0000 0.12815(15) -0.27034(10)
C3J C 0.0000 0.15356(12) 0.23141(10)
C3E C 0.15356(12) 0.23141(10) 0.0000
C3H C 0.23141(10) 0.15356(12) 0.0000
C3F C -0.15356(12) 0.23141(10) 0.0000
C3BC C -0.23141(10) 0.15356(12) 0.0000
C3TB C 0.0000 0.23141(10) -0.15356(12)
C3D C 0.0000 0.15356(12) -0.23141(10)
H2J H 0.0000 0.1378 0.2042
H2E H 0.1378 0.2042 0.0000
H2H H 0.2042 0.1378 0.0000
H2F H -0.1378 0.2042 0.0000
H2BC H -0.2042 0.1378 0.0000
H2TB H 0.0000 0.2042 -0.1378
H2D H 0.0000 0.1378 -0.2042
C4J C 0.0000 0.19914(13) 0.23212(10)
C4E C 0.19914(13) 0.23212(10) 0.0000
C4H C 0.23212(10) 0.19914(13) 0.0000
C4F C -0.19914(13) 0.23212(10) 0.0000
C4BC C -0.23212(10) 0.19914(13) 0.0000
C4TB C 0.0000 0.23212(10) -0.19914(13)
C4D C 0.0000 0.19914(13) -0.23212(10)
C5J C 0.0000 0.22407(19) 0.27335(16)
C5E C 0.22407(19) 0.27335(16) 0.0000
C5H C 0.27335(16) 0.22407(19) 0.0000
C5F C -0.22407(19) 0.27335(16) 0.0000
C5BC C -0.27335(16) 0.22407(19) 0.0000
C5TB C 0.0000 0.27335(16) -0.22407(19)
C5D C 0.0000 0.22407(19) -0.27335(16)
C6J C 0.0000 0.20069(19) 0.30904(17)
C6E C 0.20069(19) 0.30904(17) 0.0000
C6H C 0.30904(17) 0.20069(19) 0.0000
C6F C -0.20069(19) 0.30904(17) 0.0000
C6BC C -0.30904(17) 0.20069(19) 0.0000
C6TB C 0.0000 0.30904(17) -0.20069(19)
C6D C 0.0000 0.20069(19) -0.30904(17)
H3J H 0.0000 0.2168 0.3360
H3E H 0.2168 0.3360 0.0000
H3H H 0.3360 0.2168 0.0000
H3F H -0.2168 0.3360 0.0000
H3BC H -0.3360 0.2168 0.0000
H3TB H 0.0000 0.3360 -0.2168
H3D H 0.0000 0.2168 -0.3360
C7J C 0.0000 0.15539(19) 0.31141(13)
C7E C 0.15539(19) 0.31141(13) 0.0000
C7H C 0.31141(13) 0.15539(19) 0.0000
C7F C -0.15539(19) 0.31141(13) 0.0000
C7BC C -0.31141(13) 0.15539(19) 0.0000
C7TB C 0.0000 0.31141(13) -0.15539(19)
C7D C 0.0000 0.15539(19) -0.31141(13)
H4J H 0.0000 0.1403 0.3390
H4E H 0.1403 0.3390 0.0000
H4H H 0.3390 0.1403 0.0000
H4F H -0.1403 0.3390 0.0000
H4BC H -0.3390 0.1403 0.0000
H4TB H 0.0000 0.3390 -0.1403
H4D H 0.0000 0.1403 -0.3390
C8F C 0.0000 0.40558(13) 0.03488(14)
C8E C 0.0000 0.40558(13) -0.03488(14)
C8UB C -0.03488(14) 0.40558(13) 0.0000
C8K C 0.0000 0.59442(13) 0.03488(14)
C8VA C -0.03488(14) 0.59442(13) 0.0000
C8BB C 0.0000 0.59442(13) -0.03488(14)
C8VB C 0.03488(14) 0.59442(13) 0.0000
H5E H 0.0000 0.3891 -0.0616
H5UB H -0.0616 0.3891 0.0000
H5VA H -0.0616 0.6109 0.0000
H5BB H 0.0000 0.6109 -0.0616
H5VB H 0.0616 0.6109 0.0000
H5K H 0.0000 0.6109 0.0616
H5F H 0.0000 0.3891 0.0616
C9F C 0.0000 0.4511(2) 0.0346(2)
C9E C 0.0000 0.4511(2) -0.0346(2)
C9UB C -0.0346(2) 0.4511(2) 0.0000
C9K C 0.0000 0.5489(2) 0.0346(2)
C9VA C -0.0346(2) 0.5489(2) 0.0000
C9BB C 0.0000 0.5489(2) -0.0346(2)
C9VB C 0.0346(2) 0.5489(2) 0.0000
H6E H 0.0000 0.4645 -0.0630
H6UB H -0.0630 0.4645 0.0000
H6VA H -0.0630 0.5355 0.0000
H6BB H 0.0000 0.5355 -0.0630
H6VB H 0.0630 0.5355 0.0000
H6K H 0.0000 0.5355 0.0630
H6F H 0.0000 0.4645 0.0630
C10K C 0.0000 0.52421(16) 0.0000
O1J O 0.0000 0.06444(7) 0.23485(5)
O1E O 0.06444(7) 0.23485(5) 0.0000
O1H O 0.23485(5) 0.06444(7) 0.0000
O1F O -0.06444(7) 0.23485(5) 0.0000
O1BC O -0.23485(5) 0.06444(7) 0.0000
O1TB O 0.0000 0.23485(5) -0.06444(7)
O1D O 0.0000 0.06444(7) -0.23485(5)
O1XB O -0.06444(7) 0.0000 0.23485(5)
O1G O 0.06444(7) 0.0000 0.23485(5)
O1C O 0.0000 -0.06444(7) 0.23485(5)
O2J O 0.0000 0.06278(9) 0.30861(6)
O2E O 0.06278(9) 0.30861(6) 0.0000
O2H O 0.30861(6) 0.06278(9) 0.0000
O2F O -0.06278(9) 0.30861(6) 0.0000
O2BC O -0.30861(6) 0.06278(9) 0.0000
O2TB O 0.0000 0.30861(6) -0.06278(9)
O2D O 0.0000 0.06278(9) -0.30861(6)
O2XB O -0.06278(9) 0.0000 0.30861(6)
O2G O 0.06278(9) 0.0000 0.30861(6)
O2C O 0.0000 -0.06278(9) 0.30861(6)
O3C O 0.0000 0.0000 0.15760(11)
H7? H -0.0118(2) 0.1352(2) 0.0118(2)
loop_
_geom_bond_atom_site_label_1
_geom_bond_atom_site_label_2
_geom_bond_site_symmetry_1
_geom_bond_site_symmetry_2
Cu1 Cu2 1_555 1_555
Cu2 N2 1_555 1_555
N1 H1 1_555 1_555
N2 C8 1_555 1_555
C1 C2 1_555 1_555
C2 C3 1_555 1_555
C3 H2 1_555 1_555
C4 C3 1_555 1_555
C5 N1 1_555 1_555
C6 C5 1_555 1_555
H3 C6 1_555 1_555
C7 C2 1_555 1_555
H4 C7 1_555 1_555
C8 H5 1_555 1_555
C9 C8 1_555 1_555
H6 C9 1_555 1_555
C10 C9 1_555 1_555
O1 Cu1 1_555 1_555
O2 Cu2 1_555 1_555
O3 Cu1 1_555 1_555
Cu1C Cu2C 1_555 1_555
Cu1B Cu2B 1_555 1_555
Cu1A Cu2A 1_555 1_555
Cu1D Cu2D 1_555 1_555
Cu2C N2C 1_555 1_555
Cu2K N2K 1_555 1_555
Cu2B O2H 1_555 1_555
Cu2A O2BC 1_555 1_555
Cu2D O2D 1_555 1_555
N1E H1E 1_555 1_555
N1F H1F 1_555 1_555
N1D H1D 1_555 1_555
N2K C8K 1_555 1_555
C1J C2J 1_555 1_555
C1E C2E 1_555 1_555
C1H C2H 1_555 1_555
C1F C2F 1_555 1_555
C1BC C2BC 1_555 1_555
C1TB C2TB 1_555 1_555
C1D C2D 1_555 1_555
C2J C3J 1_555 1_555
C2E C3E 1_555 1_555
C2H C3H 1_555 1_555
C2F C3F 1_555 1_555
C2BC C3BC 1_555 1_555
C2TB C3TB 1_555 1_555
C2D C3D 1_555 1_555
C3J H2J 1_555 1_555
C3E H2E 1_555 1_555
C3H H2H 1_555 1_555
C3F H2F 1_555 1_555
C3BC H2BC 1_555 1_555
C3TB H2TB 1_555 1_555
C3D H2D 1_555 1_555
C4J C4 1_555 1_555
C4E C3E 1_555 1_555
C4H C3H 1_555 1_555
C4F C3F 1_555 1_555
C4BC C3BC 1_555 1_555
C4TB C3TB 1_555 1_555
C4D C3D 1_555 1_555
C5J N1 1_555 1_555
C5E N1E 1_555 1_555
C5H N1E 1_555 1_555
C5F N1F 1_555 1_555
C5BC N1F 1_555 1_555
C5TB N1D 1_555 1_555
C5D N1D 1_555 1_555
C6J C5J 1_555 1_555
C6E C5E 1_555 1_555
C6H C5H 1_555 1_555
C6F C5F 1_555 1_555
C6BC C5BC 1_555 1_555
C6TB C5TB 1_555 1_555
C6D C5D 1_555 1_555
H3J C6J 1_555 1_555
H3E C6E 1_555 1_555
H3H C6H 1_555 1_555
H3F C6F 1_555 1_555
H3BC C6BC 1_555 1_555
H3TB C6TB 1_555 1_555
H3D C6D 1_555 1_555
C7J C2J 1_555 1_555
C7E C2E 1_555 1_555
C7H C2H 1_555 1_555
C7F C2F 1_555 1_555
C7BC C2BC 1_555 1_555
C7TB C2TB 1_555 1_555
C7D C2D 1_555 1_555
H4J C7J 1_555 1_555
H4E C7E 1_555 1_555
H4H C7H 1_555 1_555
H4F C7F 1_555 1_555
H4BC C7BC 1_555 1_555
H4TB C7TB 1_555 1_555
H4D C7D 1_555 1_555
C8F N2 1_555 1_555
C8E N2 1_555 1_555
C8UB N2 1_555 1_555
C8K C8VA 1_555 1_555
C8VA N2K 1_555 1_555
C8BB N2K 1_555 1_555
C8VB N2K 1_555 1_555
H5E C8E 1_555 1_555
H5UB C8UB 1_555 1_555
H5VA C8VA 1_555 1_555
H5BB C8BB 1_555 1_555
H5VB C8VB 1_555 1_555
H5K C8K 1_555 1_555
H5F C8F 1_555 1_555
C9F C9 1_555 1_555
C9E C9 1_555 1_555
C9UB C10 1_555 1_555
C9K C8K 1_555 1_555
C9VA C8VA 1_555 1_555
C9BB C8BB 1_555 1_555
C9VB C8VB 1_555 1_555
H6E C9E 1_555 1_555
H6UB C9UB 1_555 1_555
H6VA C9VA 1_555 1_555
H6BB C9BB 1_555 1_555
H6VB C9VB 1_555 1_555
H6K C9K 1_555 1_555
H6F C9F 1_555 1_555
C10K C10 1_555 1_555
O1J Cu1C 1_555 1_555
O1E Cu1 1_555 1_555
O1H Cu1B 1_555 1_555
O1F Cu1 1_555 1_555
O1BC Cu1A 1_555 1_555
O1TB Cu1 1_555 1_555
O1D Cu1D 1_555 1_555
O1XB Cu1C 1_555 1_555
O1G Cu1C 1_555 1_555
O1C Cu1C 1_555 1_555
O2J Cu2C 1_555 1_555
O2E Cu2 1_555 1_555
O2H C1H 1_555 1_555
O2F Cu2 1_555 1_555
O2BC C1BC 1_555 1_555
O2TB Cu2 1_555 1_555
O2D C1D 1_555 1_555
O2XB Cu2C 1_555 1_555
O2G Cu2C 1_555 1_555
O2C Cu2C 1_555 1_555
O3C Cu1C 1_555 1_555
C1 O1 1_555 1_555
C1 O2 1_555 1_555
C4 C5 1_555 1_555
C6 C7 1_555 1_555
C8 C8F 1_555 1_555
C8 C8E 1_555 1_555
C10 C9F 1_555 1_555
C10 C9E 1_555 1_555
C1J O1J 1_555 1_555
C1J O2J 1_555 1_555
C1E O1E 1_555 1_555
C1E O2E 1_555 1_555
C1H O1H 1_555 1_555
C1F O1F 1_555 1_555
C1F O2F 1_555 1_555
C1BC O1BC 1_555 1_555
C1TB O1TB 1_555 1_555
C1TB O2TB 1_555 1_555
C1D O1D 1_555 1_555
C3J C4J 1_555 1_555
C4J C5J 1_555 1_555
C4E C4H 1_555 1_555
C4E C5E 1_555 1_555
C4H C5H 1_555 1_555
C4F C4BC 1_555 1_555
C4F C5F 1_555 1_555
C4BC C5BC 1_555 1_555
C4TB C4D 1_555 1_555
C4TB C5TB 1_555 1_555
C4D C5D 1_555 1_555
C6J C7J 1_555 1_555
C6E C7E 1_555 1_555
C6H C7H 1_555 1_555
C6F C7F 1_555 1_555
C6BC C7BC 1_555 1_555
C6TB C7TB 1_555 1_555
C6D C7D 1_555 1_555
C8F C8UB 1_555 1_555
C8F C9F 1_555 1_555
C8E C8UB 1_555 1_555
C8E C9E 1_555 1_555
C8UB C9UB 1_555 1_555
C8K C8VB 1_555 1_555
C8VA C8BB 1_555 1_555
C8BB C8VB 1_555 1_555
C9F C9UB 1_555 1_555
C9E C9UB 1_555 1_555
C9K C9VA 1_555 1_555
C9K C9VB 1_555 1_555
C9K C10K 1_555 1_555
C9VA C9BB 1_555 1_555
C9VA C10K 1_555 1_555
C9BB C9VB 1_555 1_555
C9BB C10K 1_555 1_555
C9VB C10K 1_555 1_555

#END
