
#######################################################################
#
#                 Cambridge Crystallographic Data Centre
#                                CCDC 
#
#######################################################################
#
# If this CIF has been generated from an entry in the Cambridge 
# Structural Database, then it will include bibliographic, chemical, 
# crystal, experimental, refinement or atomic coordinate data resulting 
# from the CCDC's data processing and validation procedures.
#
#######################################################################

data_ZIWLUO
_chemical_formula_moiety         '(C126 H72 N42 O27 Zn9)n,n(C3 H7 N1 O1)'
_chemical_name_systematic        
"catena-[tetrakis(\m~3~-4,4',4''-(1,3,5-triazine-2,4,6-triyl)tribenzoato)-hexakis(\m~3~-6-aminopurinyl)-tris(\m~2~-oxido)-nona-zinc N,N-dimethylformamide unknown solvate]"
_symmetry_cell_setting           triclinic
_symmetry_space_group_name_H-M   'P -1'
_symmetry_Int_Tables_number      2
_space_group_name_Hall           '-P 1'
loop_
_symmetry_equiv_pos_site_id
_symmetry_equiv_pos_as_xyz
1 x,y,z
2 -x,-y,-z
_cell_length_a                   19.801(7)
_cell_length_b                   20.162(7)
_cell_length_c                   27.225(9)
_cell_angle_alpha                97.544(5)
_cell_angle_beta                 100.609(5)
_cell_angle_gamma                111.627(5)
_cell_volume                     9692.38
_exptl_crystal_colour            colorless
_exptl_crystal_description       block
_cell_formula_units_Z            2
loop_
_atom_site_label
_atom_site_type_symbol
_atom_site_fract_x
_atom_site_fract_y
_atom_site_fract_z
Zn1 Zn 0.55489(4) 0.26488(4) 0.88037(3)
Zn2 Zn 1.06265(4) 0.66882(3) 1.19364(3)
Zn3 Zn 0.47331(4) -0.03612(4) 0.67530(3)
Zn4 Zn 1.16166(4) 0.76243(4) 1.57125(3)
Zn5 Zn 1.04032(4) 0.89018(4) 1.34986(3)
Zn6 Zn 0.70354(4) 0.36791(4) 1.09631(3)
Zn7 Zn 0.45359(4) 0.11128(4) 0.66828(3)
Zn8 Zn 0.86140(4) 0.35883(4) 1.10011(3)
Zn9 Zn 0.93285(4) 0.78222(4) 1.40667(3)
O1 O 0.5513(2) 0.3382(2) 0.83862(15)
O2 O 0.6388(2) 0.3079(2) 0.81466(17)
O3 O 0.4610(3) 0.8499(3) 0.6865(2)
O4 O 0.5436(3) 0.9192(3) 0.6532(2)
O5 O 1.0727(3) 0.7502(3) 0.5976(2)
O6 O 1.0352(4) 0.6359(4) 0.5635(3)
O7 O 1.1455(3) 0.9429(2) 1.30174(19)
O8 O 1.0578(3) 0.9750(2) 1.32014(18)
O9 O 1.0883(4) 1.5823(4) 1.2468(3)
O10 O 1.1268(3) 1.6148(3) 1.1788(3)
O11 O 1.5872(3) 1.3961(3) 1.0723(2)
O12 O 1.6138(3) 1.3240(3) 1.12013(18)
O13 O 0.4759(2) 0.2605(2) 0.91745(15)
O14 O 0.5076(3) 0.1741(2) 0.94289(18)
O15 O -0.0098(3) 0.3840(3) 1.08519(19)
O16 O -0.0791(3) 0.3046(3) 1.12292(17)
O17 O 0.8439(3) 0.7614(3) 1.4327(2)
O18 O 0.8849(3) 0.6787(3) 1.4545(2)
O19 O 0.2664(4) 0.7586(4) 1.5286(3)
O20 O 0.2121(3) 0.6938(3) 1.5776(3)
O21 O 0.9489(2) 0.8715(2) 1.37746(16)
O22 O 0.1594(3) -0.2235(2) 1.19288(18)
O23 O 0.0424(3) -0.2500(3) 1.1558(2)
O24 O 0.7711(2) 0.3234(2) 1.12821(15)
O25 O 0.5062(2) 0.05205(18) 0.64476(14)
N1 N 0.2392(3) -0.1463(2) 0.6229(2)
N2 N 0.7249(2) 0.5668(2) 0.67073(17)
N3 N 0.6323(2) 0.6044(2) 0.69062(17)
N4 N 0.7204(3) 0.6755(2) 0.65008(17)
N5 N 1.1928(2) 1.2873(2) 1.21863(18)
N6 N 1.2805(3) 1.2423(2) 1.19466(18)
N7 N 1.2751(3) 1.3499(2) 1.17164(19)
N8 N 0.2059(3) 0.1815(2) 1.06096(19)
N9 N 0.1355(3) 0.0989(2) 1.10526(18)
N10 N 0.2388(3) 0.0843(2) 1.08074(19)
N11 N 0.5397(3) 0.6207(2) 1.53961(17)
N12 N 0.4716(2) 0.5306(2) 1.58106(17)
N13 N 0.5802(3) 0.5272(2) 1.55728(17)
N14 N 1.1288(3) 0.7982(3) 1.5088(2)
N15 N 1.0378(3) 0.8073(2) 1.44855(18)
N16 N 1.1204(3) 0.9019(3) 1.4127(2)
N17 N 1.2509(3) 0.9444(3) 1.4537(2)
N18 N 1.2951(3) 0.8986(3) 1.5182(2)
H1 H 1.3407 0.9294 1.5191
H2 H 1.2886 0.8687 1.5395
N19 N 1.0179(3) 0.7896(2) 1.30998(19)
N20 N 1.0340(3) 0.7035(3) 1.25736(19)
N21 N 0.9208(3) 0.7086(3) 1.34401(19)
N22 N 0.8850(4) 0.5824(3) 1.3090(3)
N23 N 0.9472(4) 0.5397(3) 1.2581(2)
H3 H 0.9209 0.4951 1.2609
H4 H 0.9806 0.5471 1.2398
N24 N 0.9632(3) 0.5862(2) 1.15052(19)
N25 N 0.8879(3) 0.4659(2) 1.12178(18)
N26 N 0.7680(3) 0.4750(3) 1.1235(2)
N27 N 0.7792(3) 0.5974(3) 1.1517(3)
N28 N 0.8912(3) 0.6968(3) 1.1708(3)
H5 H 0.8671 0.7248 1.1765
H6 H 0.9400 0.7165 1.1744
N29 N 0.6994(3) 0.3384(2) 1.02235(18)
N30 N 0.6483(3) 0.3030(3) 0.93714(19)
N31 N 0.8139(3) 0.3185(3) 1.02331(19)
N32 N 0.8219(3) 0.2715(3) 0.9402(2)
N33 N 0.7371(3) 0.2564(3) 0.8661(2)
H7 H 0.7654 0.2429 0.8491
H8 H 0.6953 0.2577 0.8494
N34 N 0.5203(3) 0.1718(2) 0.82739(19)
N35 N 0.4818(3) 0.1164(2) 0.74353(18)
N36 N 0.5161(3) 0.0143(3) 0.75061(19)
N37 N 0.5778(3) 0.0173(3) 0.8362(2)
N38 N 0.5914(3) 0.1033(3) 0.9055(2)
H9 H 0.6127 0.0816 0.9253
H10 H 0.5856 0.1424 0.9190
N39 N 0.1177(3) -0.0847(3) 0.6022(2)
H11 H 0.0858 -0.0639 0.5972
H12 H 0.1010 -0.1323 0.5998
N40 N 0.2180(4) 0.0290(3) 0.6172(2)
N41 N 0.3447(3) 0.0450(2) 0.64352(19)
N42 N 0.3614(2) -0.0671(3) 0.65136(18)
C1 C 0.5994(4) 0.3428(3) 0.8125(2)
C2 C 0.6090(3) 0.3956(3) 0.7768(2)
C3 C 0.5779(3) 0.4462(3) 0.7785(2)
H13 H 0.5451 0.4455 0.8001
C4 C 0.5940(3) 0.4978(3) 0.7492(2)
H14 H 0.5721 0.5325 0.7505
C5 C 0.6426(3) 0.4997(3) 0.7175(2)
C6 C 0.6713(3) 0.4465(3) 0.7139(2)
H15 H 0.7027 0.4457 0.6915
C7 C 0.6536(3) 0.3948(3) 0.7434(2)
H16 H 0.6725 0.3578 0.7406
C8 C 0.6676(3) 0.5603(3) 0.6914(2)
C9 C 0.6609(3) 0.6616(3) 0.6696(2)
C10 C 0.7516(3) 0.6272(3) 0.6528(2)
C11 C 0.6229(3) 0.7128(3) 0.6677(2)
C12 C 0.5639(4) 0.7025(3) 0.6902(2)
H17 H 0.5470 0.6622 0.7060
C13 C 0.5521(4) 0.8090(4) 0.6676(3)
C14 C 0.6102(4) 0.8180(3) 0.6449(3)
H18 H 0.6267 0.8584 0.6291
C15 C 0.6457(3) 0.7700(3) 0.6443(2)
H19 H 0.6853 0.7770 0.6277
C16 C 0.5166(5) 0.8625(5) 0.6688(3)
C17 C 0.8203(3) 0.6419(3) 0.6352(2)
C18 C 0.8602(3) 0.7106(3) 0.6267(2)
H20 H 0.8418 0.7478 0.6306
C19 C 0.9277(4) 0.7244(4) 0.6124(3)
H21 H 0.9552 0.7718 0.6075
C20 C 0.9551(4) 0.6721(4) 0.6054(3)
C21 C 0.9143(4) 0.6038(4) 0.6136(3)
H22 H 0.9323 0.5663 0.6091
C22 C 0.8484(4) 0.5896(3) 0.6281(3)
H23 H 0.8215 0.5423 0.6333
C23 C 1.0271(5) 0.6880(6) 0.5888(4)
C24 C 1.1137(4) 0.9845(4) 1.3009(3)
C25 C 1.1405(4) 1.0511(3) 1.2788(2)
C26 C 1.1056(4) 1.0994(3) 1.2786(2)
H24 H 1.0628 1.0905 1.2920
C27 C 1.1336(4) 1.1603(3) 1.2588(2)
H25 H 1.1105 1.1940 1.2593
C28 C 1.1941(3) 1.1733(3) 1.2384(2)
C29 C 1.2289(3) 1.1257(3) 1.2396(2)
H26 H 1.2723 1.1352 1.2268
C30 C 1.2016(4) 1.0646(3) 1.2590(2)
H27 H 1.2253 1.0314 1.2587
C31 C 1.2239(3) 1.2381(3) 1.2157(2)
C32 C 1.2200(3) 1.3423(3) 1.1958(2)
C33 C 1.3059(3) 1.3006(3) 1.1745(2)
C34 C 1.1906(3) 1.3979(3) 1.1963(2)
C35 C 1.1438(3) 1.4027(3) 1.2276(2)
H28 H 1.1268 1.3655 1.2461
C36 C 1.1215(3) 1.4595(3) 1.2327(3)
H29 H 1.0917 1.4628 1.2558
C37 C 1.1423(4) 1.5115(4) 1.2044(3)
C38 C 1.1857(4) 1.5062(3) 1.1708(3)
H30 H 1.1981 1.5411 1.1501
C39 C 1.2116(3) 1.4503(3) 1.1670(3)
H31 H 1.2428 1.4480 1.1447
C40 C 1.1180(4) 1.5764(4) 1.2122(5)
C41 C 1.3715(3) 1.3116(3) 1.1529(2)
C42 C 1.3967(4) 1.3673(3) 1.1272(3)
H32 H 1.3703 1.3978 1.1221
C43 C 1.4587(4) 1.3786(4) 1.1094(3)
H33 H 1.4745 1.4158 1.0908
C44 C 1.4992(3) 1.3360(4) 1.1182(2)
C45 C 1.4743(4) 1.2810(4) 1.1428(3)
H34 H 1.5012 1.2511 1.1482
C46 C 1.4106(3) 1.2680(3) 1.1601(2)
H35 H 1.3936 1.2289 1.1770
C47 C 1.5718(4) 1.3526(4) 1.1019(3)
C48 C 0.4693(4) 0.2106(4) 0.9427(3)
C49 C 0.4127(3) 0.1958(3) 0.9735(2)
C50 C 0.3713(4) 0.2363(4) 0.9783(3)
H36 H 0.3785 0.2760 0.9616
C51 C 0.3187(4) 0.2200(3) 1.0072(3)
H37 H 0.2905 0.2489 1.0101
C52 C 0.3069(3) 0.1631(3) 1.0317(2)
C53 C 0.3484(4) 0.1233(3) 1.0273(3)
H38 H 0.3414 0.0839 1.0442
C54 C 0.4007(4) 0.1392(4) 0.9988(3)
H39 H 0.4291 0.1104 0.9965
C55 C 0.2469(3) 0.1410(3) 1.0594(2)
C56 C 0.1518(3) 0.1576(3) 1.0858(2)
C57 C 0.1809(3) 0.0650(3) 1.1024(2)
C58 C 0.1070(3) 0.2010(3) 1.0904(2)
C59 C 0.1203(4) 0.2632(3) 1.0692(3)
H40 H 0.1587 0.2776 1.0516
C60 C 0.0783(4) 0.3028(3) 1.0738(3)
H41 H 0.0866 0.3436 1.0582
C61 C 0.0240(3) 0.2851(3) 1.1008(2)
C62 C 0.0104(3) 0.2236(3) 1.1229(2)
H42 H -0.0272 0.2102 1.1412
C63 C 0.0522(3) 0.1836(3) 1.1174(2)
H43 H 0.0435 0.1424 1.1327
C64 C -0.0235(4) 0.3280(4) 1.1038(3)
C65 C 0.1660(3) -0.0024(3) 1.1224(2)
C66 C 0.0961(4) -0.0392(4) 1.1290(3)
H44 H 0.0591 -0.0197 1.1232
C67 C 0.0796(4) -0.1052(4) 1.1443(3)
H45 H 0.0307 -0.1308 1.1484
C68 C 0.1312(4) -0.1339(3) 1.1536(2)
C69 C 0.2028(4) -0.0948(3) 1.1493(2)
H46 H 0.2411 -0.1120 1.1580
C70 C 0.2182(3) -0.0308(3) 1.1326(2)
H47 H 0.2669 -0.0056 1.1280
C71 C 0.1104(5) -0.2065(4) 1.1685(3)
C72 C 0.8386(5) 0.7067(5) 1.4529(3)
C73 C 0.7711(4) 0.6744(4) 1.4749(2)
C74 C 0.7209(4) 0.7052(4) 1.4743(3)
H48 H 0.7276 0.7461 1.4590
C75 C 0.6598(4) 0.6788(3) 1.4953(2)
H49 H 0.6255 0.7017 1.4951
C76 C 0.6506(3) 0.6182(3) 1.5165(2)
C77 C 0.7015(3) 0.5865(3) 1.5160(2)
H50 H 0.6957 0.5451 1.5306
C78 C 0.7613(4) 0.6149(4) 1.4942(3)
H51 H 0.7953 0.5920 1.4930
C79 C 0.5862(3) 0.5876(3) 1.5394(2)
C80 C 0.4820(3) 0.5891(3) 1.5603(2)
C81 C 0.5204(3) 0.5017(3) 1.5778(2)
C82 C 0.5089(3) 0.4345(3) 1.5988(2)
C83 C 0.4569(4) 0.4131(3) 1.6269(2)
H52 H 0.4293 0.4416 1.6334
C84 C 0.4446(4) 0.3517(4) 1.6453(3)
H53 H 0.4090 0.3379 1.6652
C85 C 0.4828(4) 0.3094(3) 1.6357(2)
C86 C 0.5353(4) 0.3288(3) 1.6085(2)
H54 H 0.5622 0.2994 1.6021
C87 C 0.5492(4) 0.3937(3) 1.5898(2)
H55 H 0.5862 0.4088 1.5711
C88 C 0.4252(3) 0.6217(3) 1.5602(2)
C89 C 0.4338(4) 0.6840(4) 1.5419(3)
H56 H 0.4768 0.7075 1.5298
C90 C 0.3813(5) 0.7115(4) 1.5411(3)
H57 H 0.3881 0.7544 1.5281
C91 C 0.3198(4) 0.6808(4) 1.5578(3)
C92 C 0.3130(4) 0.6222(5) 1.5787(3)
H58 H 0.2715 0.6021 1.5929
C93 C 0.3649(4) 0.5900(4) 1.5802(3)
H59 H 0.3588 0.5481 1.5944
C94 C 0.2582(6) 0.7111(5) 1.5575(4)
C95 C 1.0568(4) 0.7761(3) 1.4865(2)
H60 H 1.0196 0.7394 1.4969
C96 C 1.1620(4) 0.8507(3) 1.4826(3)
C97 C 1.1067(4) 0.8568(3) 1.4469(2)
C98 C 1.1939(5) 0.9432(4) 1.4207(3)
H61 H 1.2060 0.9766 1.3989
C99 C 1.2366(4) 0.8972(4) 1.4850(3)
C100 C 1.0526(3) 0.7732(3) 1.2764(2)
H62 H 1.0898 0.8105 1.2663
C101 C 0.9702(3) 0.7226(3) 1.3130(2)
C102 C 0.9796(3) 0.6699(3) 1.2822(2)
C103 C 0.9366(4) 0.5956(4) 1.2812(3)
C104 C 0.8799(4) 0.6369(4) 1.3372(3)
H63 H 0.8420 0.6240 1.3554
C105 C 0.9572(3) 0.5191(3) 1.1354(2)
H64 H 1.0001 0.5088 1.1342
C106 C 0.8438(3) 0.5031(3) 1.1309(2)
C107 C 0.8891(3) 0.5764(3) 1.1474(2)
C108 C 0.8540(4) 0.6250(3) 1.1567(3)
C109 C 0.7419(4) 0.5266(4) 1.1359(3)
H65 H 0.6894 0.5090 1.1328
C110 C 0.6420(3) 0.3282(3) 0.9830(3)
H66 H 0.6000 0.3383 0.9875
C111 C 0.7159(3) 0.2958(3) 0.9475(2)
C112 C 0.7467(4) 0.3176(3) 0.9995(3)
C113 C 0.8456(4) 0.2925(4) 0.9899(3)
H67 H 0.8912 0.2889 1.0046
C114 C 0.7576(4) 0.2746(3) 0.9168(3)
C115 C 0.4889(3) 0.1709(3) 0.7799(3)
H68 H 0.4720 0.2077 0.7722
C116 C 0.5113(3) 0.0775(3) 0.7710(2)
C117 C 0.5344(3) 0.1098(3) 0.8214(2)
C118 C 0.5678(4) 0.0771(4) 0.8551(3)
C119 C 0.5506(4) -0.0101(4) 0.7860(3)
H69 H 0.5567 -0.0534 0.7737
C120 C 0.3107(4) -0.1365(3) 0.6398(2)
H70 H 0.3247 -0.1762 0.6435
C121 C 0.3200(4) -0.0272(3) 0.6400(2)
C122 C 0.2905(4) 0.0671(4) 0.6303(3)
H71 H 0.3063 0.1177 0.6303
C123 C 0.1916(4) -0.0442(4) 0.6134(3)
C124 C 0.2455(4) -0.0757(3) 0.6239(2)
C125 C 0.5296(4) 0.7510(4) 0.6896(3)
H72 H 0.4889 0.7433 0.7051
O26 O 0.4995(4) 0.1999(3) 1.6415(2)
O27 O 0.4242(3) 0.2244(3) 1.6822(2)
C126 C 0.4696(5) 0.2390(5) 1.6536(3)
Zn2_2 Zn 0.06265(4) -0.33118(3) 1.19364(3)
Zn2_3 Zn 1.06265(4) 1.66882(3) 1.19364(3)
Zn3_2 Zn 0.47331(4) 0.96388(4) 0.67530(3)
Zn4_2 Zn 0.16166(4) -0.23757(4) 0.57125(3)
Zn4_3 Zn 0.16166(4) 0.76243(4) 1.57125(3)
Zn4_4 Zn 1.16166(4) 0.76243(4) 0.57125(3)
Zn6_2 Zn 1.70354(4) 1.36791(4) 1.09631(3)
Zn7_2 Zn 0.45359(4) 0.11128(4) 1.66828(3)
Zn8_2 Zn -0.13860(4) 0.35883(4) 1.10011(3)
O3_2 O 0.4610(3) -0.1501(3) 0.6865(2)
O4_2 O 0.5436(3) -0.0808(3) 0.6532(2)
O5_2 O 1.0727(3) 0.7502(3) 1.5976(2)
O9_2 O 1.0883(4) 0.5823(4) 1.2468(3)
O10_2 O 1.1268(3) 0.6148(3) 1.1788(3)
O11_2 O 0.5872(3) 0.3961(3) 1.0723(2)
O12_2 O 0.6138(3) 0.3240(3) 1.12013(18)
O15_2 O 0.9902(3) 0.3840(3) 1.08519(19)
O16_2 O 0.9209(3) 0.3046(3) 1.12292(17)
O19_2 O 1.2664(4) 0.7586(4) 1.5286(3)
O20_2 O 1.2121(3) 0.6938(3) 1.5776(3)
O22_2 O 1.1594(3) 0.7765(2) 1.19288(18)
O23_2 O 1.0424(3) 0.7500(3) 1.1558(2)
N1_2 N 1.2392(3) 0.8537(2) 1.6229(2)
O26_2 O 0.4995(4) 0.1999(3) 0.6415(2)
O27_2 O 0.4242(3) 0.2244(3) 0.6822(2)
O28 O 0.4625(3) 0.9643(3) 1.5468(2)
N43 N 0.5062(4) 0.8913(4) 1.5004(3)
C127 C 0.4362(5) 0.8586(5) 1.4598(3)
H73 H 0.3988 0.8746 1.4702
H74 H 0.4172 0.8052 1.4540
H75 H 0.4457 0.8740 1.4282
C128 C 0.5141(5) 0.9418(5) 1.5397(3)
H76 H 0.5610 0.9633 1.5645
C129 C 0.5690(6) 0.8758(5) 1.4950(4)
H77 H 0.6105 0.9019 1.5257
H78 H 0.5847 0.8917 1.4649
H79 H 0.5554 0.8231 1.4908
loop_
_geom_bond_atom_site_label_1
_geom_bond_atom_site_label_2
_geom_bond_site_symmetry_1
_geom_bond_site_symmetry_2
Zn1 O1 1_555 1_555
Zn2 N20 1_555 1_555
Zn3 O25 1_555 1_555
Zn4 N14 1_555 1_555
Zn5 O8 1_555 1_555
Zn6 O24 1_555 1_555
Zn7 O25 1_555 1_555
Zn8 O24 1_555 1_555
Zn9 O17 1_555 1_555
O1 C1 1_555 1_555
O2 C1 1_555 1_555
O3 C16 1_555 1_555
O4 C16 1_555 1_555
O5 C23 1_555 1_555
O6 C23 1_555 1_555
O7 C24 1_555 1_555
O8 C24 1_555 1_555
O9 C40 1_555 1_555
O10 C40 1_555 1_555
O11 C47 1_555 1_555
O12 C47 1_555 1_555
O13 Zn1 1_555 1_555
O14 C48 1_555 1_555
O15 C64 1_555 1_555
O16 C64 1_555 1_555
O17 C72 1_555 1_555
O18 C72 1_555 1_555
O19 C94 1_555 1_555
O20 C94 1_555 1_555
O21 Zn5 1_555 1_555
O22 C71 1_555 1_555
O23 C71 1_555 1_555
N1 C120 1_555 1_555
N2 C8 1_555 1_555
N3 C8 1_555 1_555
N4 C9 1_555 1_555
N5 C31 1_555 1_555
N6 C31 1_555 1_555
N7 C32 1_555 1_555
N8 C55 1_555 1_555
N9 C56 1_555 1_555
N10 C55 1_555 1_555
N11 C79 1_555 1_555
N12 C80 1_555 1_555
N13 C79 1_555 1_555
N14 C95 1_555 1_555
N15 Zn9 1_555 1_555
N16 Zn5 1_555 1_555
N17 C98 1_555 1_555
N18 H1 1_555 1_555
H2 N18 1_555 1_555
N19 Zn5 1_555 1_555
N20 C100 1_555 1_555
N21 Zn9 1_555 1_555
N22 C103 1_555 1_555
N23 H3 1_555 1_555
H4 N23 1_555 1_555
N24 Zn2 1_555 1_555
N25 Zn8 1_555 1_555
N26 Zn6 1_555 1_555
N27 C108 1_555 1_555
N28 H5 1_555 1_555
H6 N28 1_555 1_555
N29 Zn6 1_555 1_555
N30 Zn1 1_555 1_555
N31 Zn8 1_555 1_555
N32 C113 1_555 1_555
N33 H7 1_555 1_555
H8 N33 1_555 1_555
N34 Zn1 1_555 1_555
N35 Zn7 1_555 1_555
N36 Zn3 1_555 1_555
N37 C118 1_555 1_555
N38 H9 1_555 1_555
H10 N38 1_555 1_555
N39 H11 1_555 1_555
H12 N39 1_555 1_555
N40 C122 1_555 1_555
N41 Zn7 1_555 1_555
N42 Zn3 1_555 1_555
C1 C2 1_555 1_555
C2 C3 1_555 1_555
C3 H13 1_555 1_555
C4 C3 1_555 1_555
H14 C4 1_555 1_555
C5 C4 1_555 1_555
C6 C5 1_555 1_555
H15 C6 1_555 1_555
C7 C2 1_555 1_555
H16 C7 1_555 1_555
C8 C5 1_555 1_555
C9 N3 1_555 1_555
C10 N2 1_555 1_555
C11 C9 1_555 1_555
C12 C11 1_555 1_555
H17 C12 1_555 1_555
C13 C14 1_555 1_555
C14 H18 1_555 1_555
C15 C11 1_555 1_555
H19 C15 1_555 1_555
C16 C13 1_555 1_555
C17 C10 1_555 1_555
C18 C17 1_555 1_555
H20 C18 1_555 1_555
C19 C18 1_555 1_555
H21 C19 1_555 1_555
C20 C19 1_555 1_555
C21 C20 1_555 1_555
H22 C21 1_555 1_555
C22 C17 1_555 1_555
H23 C22 1_555 1_555
C23 C20 1_555 1_555
C24 C25 1_555 1_555
C25 C26 1_555 1_555
C26 H24 1_555 1_555
C27 C26 1_555 1_555
H25 C27 1_555 1_555
C28 C27 1_555 1_555
C29 C28 1_555 1_555
H26 C29 1_555 1_555
C30 C25 1_555 1_555
H27 C30 1_555 1_555
C31 C28 1_555 1_555
C32 N5 1_555 1_555
C33 N6 1_555 1_555
C34 C32 1_555 1_555
C35 C34 1_555 1_555
H28 C35 1_555 1_555
C36 C35 1_555 1_555
H29 C36 1_555 1_555
C37 C36 1_555 1_555
C38 C37 1_555 1_555
H30 C38 1_555 1_555
C39 C34 1_555 1_555
H31 C39 1_555 1_555
C40 C37 1_555 1_555
C41 C33 1_555 1_555
C42 C41 1_555 1_555
H32 C42 1_555 1_555
C43 C42 1_555 1_555
H33 C43 1_555 1_555
C44 C43 1_555 1_555
C45 C44 1_555 1_555
H34 C45 1_555 1_555
C46 C41 1_555 1_555
H35 C46 1_555 1_555
C47 C44 1_555 1_555
C48 O13 1_555 1_555
C49 C48 1_555 1_555
C50 C49 1_555 1_555
H36 C50 1_555 1_555
C51 C50 1_555 1_555
H37 C51 1_555 1_555
C52 C51 1_555 1_555
C53 C52 1_555 1_555
H38 C53 1_555 1_555
C54 C49 1_555 1_555
H39 C54 1_555 1_555
C55 C52 1_555 1_555
C56 N8 1_555 1_555
C57 N9 1_555 1_555
C58 C56 1_555 1_555
C59 C58 1_555 1_555
H40 C59 1_555 1_555
C60 C59 1_555 1_555
H41 C60 1_555 1_555
C61 C60 1_555 1_555
C62 C61 1_555 1_555
H42 C62 1_555 1_555
C63 C58 1_555 1_555
H43 C63 1_555 1_555
C64 C61 1_555 1_555
C65 C57 1_555 1_555
C66 C65 1_555 1_555
H44 C66 1_555 1_555
C67 C66 1_555 1_555
H45 C67 1_555 1_555
C68 C67 1_555 1_555
C69 C68 1_555 1_555
H46 C69 1_555 1_555
C70 C65 1_555 1_555
H47 C70 1_555 1_555
C71 C68 1_555 1_555
C72 C73 1_555 1_555
C73 C74 1_555 1_555
C74 H48 1_555 1_555
C75 C74 1_555 1_555
H49 C75 1_555 1_555
C76 C75 1_555 1_555
C77 C76 1_555 1_555
H50 C77 1_555 1_555
C78 C73 1_555 1_555
H51 C78 1_555 1_555
C79 C76 1_555 1_555
C80 N11 1_555 1_555
C81 N12 1_555 1_555
C82 C81 1_555 1_555
C83 C82 1_555 1_555
H52 C83 1_555 1_555
C84 C83 1_555 1_555
H53 C84 1_555 1_555
C85 C84 1_555 1_555
C86 C85 1_555 1_555
H54 C86 1_555 1_555
C87 C82 1_555 1_555
H55 C87 1_555 1_555
C88 C80 1_555 1_555
C89 C88 1_555 1_555
H56 C89 1_555 1_555
C90 C89 1_555 1_555
H57 C90 1_555 1_555
C91 C90 1_555 1_555
C92 C91 1_555 1_555
H58 C92 1_555 1_555
C93 C88 1_555 1_555
H59 C93 1_555 1_555
C94 C91 1_555 1_555
C95 N15 1_555 1_555
H60 C95 1_555 1_555
C96 N14 1_555 1_555
C97 N15 1_555 1_555
C98 N16 1_555 1_555
H61 C98 1_555 1_555
C99 N17 1_555 1_555
C100 N19 1_555 1_555
H62 C100 1_555 1_555
C101 N19 1_555 1_555
C102 N20 1_555 1_555
C103 N23 1_555 1_555
C104 N21 1_555 1_555
H63 C104 1_555 1_555
C105 N24 1_555 1_555
H64 C105 1_555 1_555
C106 N25 1_555 1_555
C107 N24 1_555 1_555
C108 N28 1_555 1_555
C109 N26 1_555 1_555
H65 C109 1_555 1_555
C110 N29 1_555 1_555
H66 C110 1_555 1_555
C111 N30 1_555 1_555
C112 N29 1_555 1_555
C113 N31 1_555 1_555
H67 C113 1_555 1_555
C114 N32 1_555 1_555
C115 N34 1_555 1_555
H68 C115 1_555 1_555
C116 N35 1_555 1_555
C117 N34 1_555 1_555
C118 N38 1_555 1_555
C119 N36 1_555 1_555
H69 C119 1_555 1_555
C120 N42 1_555 1_555
H70 C120 1_555 1_555
C121 N41 1_555 1_555
C122 N41 1_555 1_555
H71 C122 1_555 1_555
C123 N39 1_555 1_555
C124 N1 1_555 1_555
C125 C12 1_555 1_555
H72 C125 1_555 1_555
O26 C126 1_555 1_555
O27 C126 1_555 1_555
C126 C85 1_555 1_555
O28 C128 1_555 1_555
N43 C127 1_555 1_555
C127 H73 1_555 1_555
H74 C127 1_555 1_555
H75 C127 1_555 1_555
C128 N43 1_555 1_555
H76 C128 1_555 1_555
C129 N43 1_555 1_555
H77 C129 1_555 1_555
H78 C129 1_555 1_555
H79 C129 1_555 1_555
Zn2_2 O22 1_555 1_555
Zn2_3 O9 1_555 1_555
Zn3_2 O3 1_555 1_555
Zn4_2 N1 1_555 1_555
Zn4_3 O19 1_555 1_555
Zn4_4 O5 1_555 1_555
Zn6_2 O11 1_555 1_555
Zn7_2 O26 1_555 1_555
Zn8_2 O15 1_555 1_555
O3_2 Zn3 1_555 1_555
O4_2 Zn3 1_555 1_555
O5_2 Zn4 1_555 1_555
O9_2 Zn2 1_555 1_555
O10_2 Zn2 1_555 1_555
O11_2 Zn6 1_555 1_555
O12_2 Zn6 1_555 1_555
O15_2 Zn8 1_555 1_555
O16_2 Zn8 1_555 1_555
O19_2 Zn4 1_555 1_555
O20_2 Zn4 1_555 1_555
O22_2 Zn2 1_555 1_555
O23_2 Zn2 1_555 1_555
N1_2 Zn4 1_555 1_555
O26_2 Zn7 1_555 1_555
O27_2 Zn7 1_555 1_555
Zn9 O21 1_555 1_555
O4 Zn3_2 1_555 1_555
O10 Zn2_3 1_555 1_555
O12 Zn6_2 1_555 1_555
O16 Zn8_2 1_555 1_555
O20 Zn4_3 1_555 1_555
O23 Zn2_2 1_555 1_555
N4 C10 1_555 1_555
N7 C33 1_555 1_555
N10 C57 1_555 1_555
N13 C81 1_555 1_555
N16 C97 1_555 1_555
N18 C99 1_555 1_555
N21 C101 1_555 1_555
N22 C104 1_555 1_555
N25 C105 1_555 1_555
N26 C106 1_555 1_555
N27 C109 1_555 1_555
N30 C110 1_555 1_555
N31 C112 1_555 1_555
N33 C114 1_555 1_555
N35 C115 1_555 1_555
N36 C116 1_555 1_555
N37 C119 1_555 1_555
N40 C123 1_555 1_555
N42 C121 1_555 1_555
C6 C7 1_555 1_555
C13 C125 1_555 1_555
C14 C15 1_555 1_555
C21 C22 1_555 1_555
C29 C30 1_555 1_555
C38 C39 1_555 1_555
C45 C46 1_555 1_555
C53 C54 1_555 1_555
C62 C63 1_555 1_555
C69 C70 1_555 1_555
C77 C78 1_555 1_555
C86 C87 1_555 1_555
C92 C93 1_555 1_555
C96 C97 1_555 1_555
C96 C99 1_555 1_555
C101 C102 1_555 1_555
C102 C103 1_555 1_555
C106 C107 1_555 1_555
C107 C108 1_555 1_555
C111 C112 1_555 1_555
C111 C114 1_555 1_555
C116 C117 1_555 1_555
C117 C118 1_555 1_555
C121 C124 1_555 1_555
C123 C124 1_555 1_555
O27 Zn7_2 1_555 1_555

#END
