
#######################################################################
#
#                 Cambridge Crystallographic Data Centre
#                                CCDC 
#
#######################################################################
#
# If this CIF has been generated from an entry in the Cambridge 
# Structural Database, then it will include bibliographic, chemical, 
# crystal, experimental, refinement or atomic coordinate data resulting 
# from the CCDC's data processing and validation procedures.
#
#######################################################################

data_WOSMUO03
_chemical_formula_moiety         
'C3 H12 N2 2+,6(C1 H1 O2 1-),0.5(H2 O1),2(Mg1 2+)'
_chemical_name_systematic        
'di-magnesium propane-1,3-diammonium hexaformate hemihydrate'
_symmetry_cell_setting           rhombohedral
_symmetry_space_group_name_H-M   'R -3 c'
_symmetry_Int_Tables_number      167
_space_group_name_Hall           '-R 3 2"c'
loop_
_symmetry_equiv_pos_site_id
_symmetry_equiv_pos_as_xyz
1 x,y,z
2 -y,x-y,z
3 -x+y,-x,z
4 y,x,1/2-z
5 x-y,-y,1/2-z
6 -x,-x+y,1/2-z
7 2/3+x,1/3+y,1/3+z
8 2/3-y,1/3+x-y,1/3+z
9 2/3-x+y,1/3-x,1/3+z
10 2/3+y,1/3+x,5/6-z
11 2/3+x-y,1/3-y,5/6-z
12 2/3-x,1/3-x+y,5/6-z
13 1/3+x,2/3+y,2/3+z
14 1/3-y,2/3+x-y,2/3+z
15 1/3-x+y,2/3-x,2/3+z
16 1/3+y,2/3+x,1/6-z
17 1/3+x-y,2/3-y,1/6-z
18 1/3-x,2/3-x+y,1/6-z
19 -x,-y,-z
20 y,-x+y,-z
21 x-y,x,-z
22 -y,-x,1/2+z
23 -x+y,y,1/2+z
24 x,x-y,1/2+z
25 1/3-x,2/3-y,2/3-z
26 1/3+y,2/3-x+y,2/3-z
27 1/3+x-y,2/3+x,2/3-z
28 1/3-y,2/3-x,1/6+z
29 1/3-x+y,2/3+y,1/6+z
30 1/3+x,2/3+x-y,1/6+z
31 2/3-x,1/3-y,1/3-z
32 2/3+y,1/3-x+y,1/3-z
33 2/3+x-y,1/3+x,1/3-z
34 2/3-y,1/3-x,5/6+z
35 2/3-x+y,1/3+y,5/6+z
36 2/3+x,1/3+x-y,5/6+z
_cell_length_a                   28.49150(10)
_cell_length_b                   28.49150(10)
_cell_length_c                   86.6508(7)
_cell_angle_alpha                90
_cell_angle_beta                 90
_cell_angle_gamma                120
_cell_volume                     60916.3
_exptl_crystal_colour            colorless
_exptl_crystal_description       'hexagonal plate'
_cell_formula_units_Z            144
loop_
_atom_site_label
_atom_site_type_symbol
_atom_site_fract_x
_atom_site_fract_y
_atom_site_fract_z
Mg1 Mg 0.5000 0.5000 0.5000
Mg2 Mg 0.66532(2) 0.49646(2) 0.45625(2)
Mg3 Mg 0.50146(2) 0.33621(2) 0.54291(2)
Mg4 Mg 0.33152(2) 0.33218(2) 0.45837(2)
Mg5 Mg 0.49869(2) 0.49719(2) 0.41553(2)
Mg6 Mg 0.6667 0.3333 0.49973(2)
Mg7 Mg 0.34447(2) 0.17327(2) 0.49966(2)
Mg8 Mg 0.6667 0.3333 0.41133(2)
Mg9 Mg 0.6667 0.3333 0.5833
Mg10 Mg 0.3333 0.16515(3) 0.4167
Mg11 Mg 0.17119(2) 0.17336(2) 0.54001(2)
Mg12 Mg 0.0000 0.0000 0.5000
O1 O 0.57346(5) 0.53026(5) 0.48797(2)
O2 O 0.63809(5) 0.52934(5) 0.47406(2)
C1 C 0.59017(7) 0.50917(7) 0.47863(2)
H1 H 0.5645 0.4748 0.4746
O3 O 0.52750(5) 0.46188(5) 0.51360(2)
O4 O 0.53228(5) 0.40414(5) 0.52934(2)
C2 C 0.51455(7) 0.43377(7) 0.52528(2)
H2 H 0.4884 0.4350 0.5318
O5 O 0.46272(5) 0.42871(5) 0.48757(2)
O6 O 0.39661(4) 0.36682(5) 0.47326(2)
C3 C 0.42427(7) 0.41345(7) 0.47820(2)
H3 H 0.4158 0.4398 0.4746
O7 O 0.63505(5) 0.43049(5) 0.47034(2)
O8 O 0.64079(5) 0.37599(5) 0.48710(2)
C4 C 0.65302(7) 0.40140(7) 0.47485(2)
H4 H 0.6782 0.3984 0.4684
O9 O 0.59123(4) 0.46198(5) 0.44552(2)
O10 O 0.52832(5) 0.45915(5) 0.42998(2)
C5 C 0.57414(7) 0.48274(7) 0.43617(2)
H5 H 0.5977 0.5196 0.4335
O11 O 0.69608(5) 0.46368(5) 0.44071(2)
O12 O 0.69880(5) 0.40459(4) 0.42456(2)
C6 C 0.67536(7) 0.41952(7) 0.43396(2)
H6 H 0.6383 0.3946 0.4361
O13 O 0.69590(4) 0.56717(4) 0.44379(2)
O14 O 0.76096(5) 0.63351(5) 0.43006(2)
C7 C 0.74021(6) 0.58893(6) 0.43668(2)
H7 H 0.7595 0.5697 0.4363
O15 O 0.53225(5) 0.30720(5) 0.52586(2)
O16 O 0.59554(5) 0.30282(5) 0.51224(2)
C8 C 0.57979(7) 0.32522(7) 0.52165(2)
H8 H 0.6064 0.3588 0.5259
O17 O 0.43357(5) 0.30410(5) 0.52912(2)
O18 O 0.38447(5) 0.24696(5) 0.51073(2)
C9 C 0.40634(7) 0.25773(7) 0.52368(2)
H9 H 0.4019 0.2283 0.5299
O19 O 0.57364(5) 0.37164(5) 0.55463(2)
O20 O 0.63701(5) 0.37298(5) 0.56967(2)
C10 C 0.59099(7) 0.35025(7) 0.56371(2)
H10 H 0.5672 0.3134 0.5663
O21 O 0.46936(5) 0.26331(4) 0.55521(2)
O22 O 0.40211(5) 0.19717(5) 0.56852(2)
C11 C 0.42536(7) 0.24273(7) 0.56262(2)
H11 H 0.4086 0.2642 0.5638
O23 O 0.46652(5) 0.36686(5) 0.55755(2)
O24 O 0.46698(5) 0.43396(5) 0.57061(2)
C12 C 0.48946(7) 0.41090(7) 0.56459(2)
H12 H 0.5278 0.4284 0.5654
O25 O 0.36407(5) 0.39846(4) 0.44386(2)
O26 O 0.42451(4) 0.45898(5) 0.42763(2)
C13 C 0.41001(7) 0.42466(7) 0.43828(2)
H13 H 0.4371 0.4182 0.4425
O27 O 0.29983(5) 0.26604(5) 0.47297(2)
O28 O 0.30434(5) 0.20182(4) 0.48607(2)
C14 C 0.32450(7) 0.24503(7) 0.47861(2)
H14 H 0.3626 0.2635 0.4771
O29 O 0.37033(4) 0.29828(4) 0.44553(2)
O30 O 0.36889(5) 0.23384(5) 0.43073(2)
C15 C 0.34655(7) 0.25533(7) 0.43774(2)
H15 H 0.3081 0.2378 0.4372
O31 O 0.26015(4) 0.29223(5) 0.44617(2)
O32 O 0.19540(4) 0.29242(5) 0.43214(2)
C16 C 0.24188(7) 0.31508(7) 0.43782(2)
H16 H 0.2650 0.3524 0.4356
O33 O 0.29993(5) 0.36921(5) 0.47277(2)
O34 O 0.24018(4) 0.37809(5) 0.48691(2)
C17 C 0.25307(7) 0.35740(7) 0.47615(2)
H17 H 0.2246 0.3304 0.4701
O35 O 0.27595(5) 0.14368(5) 0.51299(2)
O36 O 0.20805(4) 0.14543(5) 0.52466(2)
C18 C 0.25718(7) 0.16260(7) 0.52244(2)
H18 H 0.2823 0.1926 0.5285
O37 O 0.41529(4) 0.20581(5) 0.48698(2)
O38 O 0.47230(5) 0.20812(5) 0.46928(2)
C19 C 0.42603(7) 0.19328(7) 0.47417(2)
H19 H 0.3964 0.1706 0.4677
O39 O 0.10290(4) 0.13997(4) 0.52524(2)
O40 O 0.03539(5) 0.07118(4) 0.51287(2)
C20 C 0.07735(6) 0.09148(7) 0.52077(2)
H20 H 0.0913 0.0686 0.5237
O41 O 0.23962(5) 0.20756(5) 0.55410(2)
O42 O 0.29948(5) 0.20467(5) 0.56992(2)
C21 C 0.25868(7) 0.18478(7) 0.56193(2)
H21 H 0.2387 0.1463 0.5617
O43 O 0.20550(5) 0.24304(5) 0.52671(2)
O44 O 0.20803(5) 0.31008(5) 0.51303(2)
C22 C 0.18626(7) 0.27084(7) 0.52228(2)
H22 H 0.1516 0.2619 0.5262
O45 O 0.13334(5) 0.20247(5) 0.55406(2)
O46 O 0.13158(5) 0.26050(4) 0.57080(2)
C23 C 0.15439(7) 0.24650(7) 0.56095(2)
H23 H 0.1911 0.2719 0.5585
O47 O 0.13824(4) 0.10036(4) 0.55200(2)
O48 O 0.07062(4) 0.03204(5) 0.56457(2)
C24 C 0.09260(7) 0.07758(7) 0.55862(2)
H24 H 0.0736 0.0971 0.5591
O49 O 0.45929(6) 0.12595(6) 0.5833
H25 H 0.4260(6) 0.1221(7) 0.5858(2)
H25O H 0.4554(7) 0.0927(6) 0.5809(2)
N1 N 0.50694(6) 0.19794(6) 0.50233(2)
H26 H 0.4758 0.1994 0.5020
H27 H 0.5117 0.1850 0.4932
H28 H 0.5355 0.2318 0.5040
N2 N 0.51081(6) 0.19044(6) 0.55829(2)
H29 H 0.5473 0.2103 0.5598
H30 H 0.4950 0.1692 0.5667
H31 H 0.4974 0.2132 0.5569
C25 C 0.49903(8) 0.15554(7) 0.54436(2)
H32 H 0.4608 0.1258 0.5445
H33 H 0.5227 0.1393 0.5442
C26 C 0.50914(8) 0.18999(7) 0.53031(2)
H34 H 0.5462 0.2217 0.5310
H35 H 0.4834 0.2038 0.5304
C27 C 0.50354(7) 0.16138(7) 0.51511(2)
H36 H 0.5328 0.1525 0.5141
H37 H 0.4683 0.1272 0.5147
O50 O 0.50111(5) 0.29371(5) 0.41461(2)
H38 H 0.5303(6) 0.2901(7) 0.4172(2)
H39 H 0.4710(6) 0.2616(6) 0.4124(2)
N3 N 0.48172(6) 0.34229(6) 0.49654(2)
H40 H 0.4762 0.3707 0.4949
H41 H 0.5011 0.3481 0.5054
H42 H 0.4492 0.3112 0.4974
N4 N 0.48588(6) 0.34268(6) 0.44026(2)
H43 H 0.4497 0.3277 0.4419
H44 H 0.4914 0.3274 0.4317
H45 H 0.5009 0.3790 0.4388
C28 C 0.51247(7) 0.33724(7) 0.48328(2)
H46 H 0.5104 0.3015 0.4836
H47 H 0.5511 0.3658 0.4840
C29 C 0.48870(7) 0.34291(7) 0.46832(2)
H48 H 0.4491 0.3174 0.4685
H49 H 0.4943 0.3801 0.4678
C30 C 0.51159(7) 0.33258(7) 0.45390(2)
H50 H 0.5514 0.3570 0.4536
H51 H 0.5040 0.2947 0.4538
N5 N 0.47666(6) 0.28349(6) 0.34228(2)
H52 H 0.4907 0.2663 0.3478
H53 H 0.4789 0.2779 0.3320
H54 H 0.4413 0.2701 0.3449
N6 N 0.51652(6) 0.35860(6) 0.38917(2)
H55 H 0.5501 0.3886 0.3892
H56 H 0.5135 0.3372 0.3973
H57 H 0.4910 0.3687 0.3899
C31 C 0.50769(7) 0.34237(7) 0.34561(2)
H58 H 0.4977 0.3617 0.3380
H59 H 0.5469 0.3554 0.3444
C32 C 0.49768(8) 0.35614(7) 0.36161(2)
H60 H 0.5207 0.3957 0.3631
H61 H 0.4594 0.3474 0.3623
C33 C 0.50840(9) 0.32789(8) 0.37450(2)
H62 H 0.4774 0.2906 0.3756
H63 H 0.5412 0.3255 0.3722
O51 O 0.29677(13) 0.29359(13) 0.58377(4)
H64 H 0.2625(11) 0.2905(17) 0.5861(5)
H65 H 0.2900(17) 0.2591(11) 0.5808(5)
O52 O 0.3742(4) 0.3333 0.5833
H66 H 0.4088(15) 0.3622(17) 0.5865(12)
H66P H 0.3799(23) 0.3045(17) 0.5802(12)
N7? N 0.3264(2) 0.3621(2) 0.50536(7)
H67? H 0.3211 0.3456 0.4960
H68? H 0.3565 0.3956 0.5050
H69? H 0.2971 0.3653 0.5078
N8? N 0.35160(16) 0.36547(16) 0.56023(4)
H70? H 0.3483 0.3472 0.5692
H71? H 0.3280 0.3783 0.5604
H72? H 0.3861 0.3937 0.5593
C34? C 0.3340(3) 0.3289(3) 0.51734(8)
H73? H 0.3660 0.3253 0.5149
H74? H 0.3017 0.2922 0.5178
C35? C 0.3422(3) 0.3580(3) 0.53286(7)
H75? H 0.3783 0.3912 0.5328
H76? H 0.3148 0.3695 0.5338
C36? C 0.3386(2) 0.3268(2) 0.54638(6)
H77? H 0.3650 0.3139 0.5458
H78? H 0.3017 0.2950 0.5474
N9? N 0.3175(3) 0.3680(3) 0.50838(9)
H79? H 0.3281 0.3823 0.4988
H80? H 0.3253 0.3951 0.5153
H81? H 0.2812 0.3443 0.5084
N10? N 0.35245(17) 0.32898(17) 0.55639(5)
H82? H 0.3653 0.3527 0.5644
H83? H 0.3719 0.3117 0.5556
H84? H 0.3170 0.3042 0.5581
C37? C 0.3467(3) 0.3393(3) 0.51280(7)
H85? H 0.3862 0.3649 0.5123
H86? H 0.3380 0.3099 0.5053
C38? C 0.33170(18) 0.31507(17) 0.52902(5)
H87? H 0.3442 0.2885 0.5304
H88? H 0.2918 0.2956 0.5302
C39? C 0.3578(3) 0.3596(2) 0.54158(7)
H89? H 0.3964 0.3851 0.5392
H90? H 0.3384 0.3803 0.5424
N11? N 0.3204(11) 0.3678(11) 0.5084(3)
H91? H 0.3302 0.3717 0.4983
H92? H 0.3305 0.4010 0.5126
H93? H 0.2838 0.3462 0.5092
N12? N 0.3066(4) 0.3211(3) 0.55908(9)
H94? H 0.3325 0.3288 0.5663
H95? H 0.2879 0.2847 0.5573
H96? H 0.2835 0.3321 0.5625
C40? C 0.3481(6) 0.3423(6) 0.51713(15)
H97? H 0.3873 0.3682 0.5185
H98? H 0.3434 0.3094 0.5118
C41? C 0.3168(5) 0.3279(5) 0.53306(12)
H99? H 0.2827 0.3280 0.5311
H100? H 0.3063 0.2897 0.5353
C42? C 0.3333(6) 0.3505(6) 0.54414(14)
H101? H 0.3308 0.3839 0.5437
H102? H 0.3722 0.3618 0.5447
loop_
_geom_bond_atom_site_label_1
_geom_bond_atom_site_label_2
_geom_bond_site_symmetry_1
_geom_bond_site_symmetry_2
O1 C1 1_555 1_555
O2 C1 1_555 1_555
C1 H1 1_555 1_555
O3 C2 1_555 1_555
O4 C2 1_555 1_555
C2 H2 1_555 1_555
O5 C3 1_555 1_555
O6 C3 1_555 1_555
C3 H3 1_555 1_555
O7 C4 1_555 1_555
O8 C4 1_555 1_555
C4 H4 1_555 1_555
O9 C5 1_555 1_555
O10 C5 1_555 1_555
C5 H5 1_555 1_555
O11 C6 1_555 1_555
O12 C6 1_555 1_555
C6 H6 1_555 1_555
O13 C7 1_555 1_555
O14 C7 1_555 1_555
C7 H7 1_555 1_555
O15 C8 1_555 1_555
O16 C8 1_555 1_555
C8 H8 1_555 1_555
O17 C9 1_555 1_555
O18 C9 1_555 1_555
C9 H9 1_555 1_555
O19 C10 1_555 1_555
O20 C10 1_555 1_555
C10 H10 1_555 1_555
O21 C11 1_555 1_555
O22 C11 1_555 1_555
C11 H11 1_555 1_555
O23 C12 1_555 1_555
O24 C12 1_555 1_555
C12 H12 1_555 1_555
O25 C13 1_555 1_555
O26 C13 1_555 1_555
C13 H13 1_555 1_555
O27 C14 1_555 1_555
O28 C14 1_555 1_555
C14 H14 1_555 1_555
O29 C15 1_555 1_555
O30 C15 1_555 1_555
C15 H15 1_555 1_555
O31 C16 1_555 1_555
O32 C16 1_555 1_555
C16 H16 1_555 1_555
O33 C17 1_555 1_555
O34 C17 1_555 1_555
C17 H17 1_555 1_555
O35 C18 1_555 1_555
O36 C18 1_555 1_555
C18 H18 1_555 1_555
O37 C19 1_555 1_555
O38 C19 1_555 1_555
C19 H19 1_555 1_555
O39 C20 1_555 1_555
O40 C20 1_555 1_555
C20 H20 1_555 1_555
O41 C21 1_555 1_555
O42 C21 1_555 1_555
C21 H21 1_555 1_555
O43 C22 1_555 1_555
O44 C22 1_555 1_555
C22 H22 1_555 1_555
O45 C23 1_555 1_555
O46 C23 1_555 1_555
C23 H23 1_555 1_555
O47 C24 1_555 1_555
O48 C24 1_555 1_555
C24 H24 1_555 1_555
O49 H25 1_555 1_555
N1 H26 1_555 1_555
H27 N1 1_555 1_555
H28 N1 1_555 1_555
N2 H29 1_555 1_555
H30 N2 1_555 1_555
H31 N2 1_555 1_555
C25 N2 1_555 1_555
H32 C25 1_555 1_555
H33 C25 1_555 1_555
C26 C25 1_555 1_555
H34 C26 1_555 1_555
H35 C26 1_555 1_555
C27 N1 1_555 1_555
H36 C27 1_555 1_555
H37 C27 1_555 1_555
O50 H38 1_555 1_555
H39 O50 1_555 1_555
N3 H40 1_555 1_555
H41 N3 1_555 1_555
H42 N3 1_555 1_555
N4 H43 1_555 1_555
H44 N4 1_555 1_555
H45 N4 1_555 1_555
C28 N3 1_555 1_555
H46 C28 1_555 1_555
H47 C28 1_555 1_555
C29 C28 1_555 1_555
H48 C29 1_555 1_555
H49 C29 1_555 1_555
C30 N4 1_555 1_555
H50 C30 1_555 1_555
H51 C30 1_555 1_555
N5 H52 1_555 1_555
H53 N5 1_555 1_555
H54 N5 1_555 1_555
N6 H55 1_555 1_555
H56 N6 1_555 1_555
H57 N6 1_555 1_555
C31 N5 1_555 1_555
H58 C31 1_555 1_555
H59 C31 1_555 1_555
C32 C31 1_555 1_555
H60 C32 1_555 1_555
H61 C32 1_555 1_555
C33 N6 1_555 1_555
H62 C33 1_555 1_555
H63 C33 1_555 1_555
O51 H64 1_555 1_555
H65 O51 1_555 1_555
O52 H66 1_555 1_555
H25O O49 1_555 1_555
H66P O52 1_555 1_555
C26 C27 1_555 1_555
C29 C30 1_555 1_555
C32 C33 1_555 1_555

#END
