
#######################################################################
#
#                 Cambridge Crystallographic Data Centre
#                                CCDC 
#
#######################################################################
#
# If this CIF has been generated from an entry in the Cambridge 
# Structural Database, then it will include bibliographic, chemical, 
# crystal, experimental, refinement or atomic coordinate data resulting 
# from the CCDC's data processing and validation procedures.
#
#######################################################################

data_ABAWEI
_chemical_name_common            
'2-((dimethylamino)carbonyl)-5,11,17,23-tetra-t-butyl-25,27-dihydroxy-26-(2-oxo-2-((1-phenylethyl)amino)ethoxy)-28-propoxycalix(4)arene unknown solvate'
_chemical_formula_moiety         'C60 H78 N2 O6'
_chemical_name_systematic        
'5,11,17,23-tetra-t-butyl-25,27-dihydroxy-N,N-dimethyl-28-(2-oxo-2-((1-phenylethyl)amino)ethoxy)-26-propoxypentacyclo[19.3.1.1^3,7^.1^9,13^.1^15,19^]octacosa-1(25),3(28),4,6,9(27),10,12,15(26),16,18,21,23-dodecaene-2-carboxamide unknown solvate'
_symmetry_cell_setting           hexagonal
_symmetry_space_group_name_H-M   'P 65'
_symmetry_Int_Tables_number      170
_space_group_name_Hall           'P 65'
loop_
_symmetry_equiv_pos_site_id
_symmetry_equiv_pos_as_xyz
1 x,y,z
2 x-y,x,5/6+z
3 -y,x-y,2/3+z
4 -x,-y,1/2+z
5 -x+y,-x,1/3+z
6 y,-x+y,1/6+z
_cell_length_a                   20.05720(10)
_cell_length_b                   20.05720(10)
_cell_length_c                   26.92440(10)
_cell_angle_alpha                90
_cell_angle_beta                 90
_cell_angle_gamma                120
_cell_volume                     9380.31
_exptl_crystal_colour            white
_exptl_crystal_description       Rod
_cell_formula_units_Z            6
loop_
_atom_site_label
_atom_site_type_symbol
_atom_site_fract_x
_atom_site_fract_y
_atom_site_fract_z
O1 O 0.34043(9) 0.81735(9) 0.09791(8)
O2 O 0.20763(13) 0.87481(13) 0.06061(11)
O3 O 0.49045(11) 0.90261(10) 0.17077(8)
O4 O 0.44700(12) 0.81566(11) 0.26018(8)
O5 O 0.32513(10) 0.71997(10) 0.19743(8)
O6 O 0.51448(12) 0.89893(10) -0.02044(8)
N1 N 0.30531(12) 0.92288(12) 0.11655(9)
H1 H 0.3422 0.9173 0.1300
N2 N 0.55956(13) 1.01683(12) 0.01143(9)
H2 H 0.3284(3) 0.8187(6) 0.3061(7)
H3 H 0.3846(9) 0.8984(10) 0.3337(3)
C1 C 0.4376(2) 0.5776(2) 0.0101(2)
H4 H 0.4179 0.5893 -0.0200
H5 H 0.3944 0.5444 0.0319
H6 H 0.4658 0.5512 0.0011
C2 C 0.55960(18) 0.69851(17) 0.00285(15)
H7 H 0.5803 0.6659 -0.0083
H8 H 0.5997 0.7432 0.0207
H9 H 0.5427 0.7160 -0.0260
C3 C 0.5184(4) 0.6346(4) 0.08538(17)
H10 H 0.5437 0.6046 0.0783
H11 H 0.4741 0.6048 0.1071
H12 H 0.5550 0.6828 0.1019
C4 C 0.49155(15) 0.65250(15) 0.03728(11)
C5 C 0.44974(13) 0.69675(13) 0.05064(10)
C6 C 0.37458(14) 0.65823(13) 0.06771(10)
H13 H 0.3478 0.6036 0.0685
C7 C 0.33666(13) 0.69648(13) 0.08378(9)
C8 C 0.37616(13) 0.77696(13) 0.08152(9)
C9 C 0.45225(13) 0.81718(12) 0.06578(10)
C10 C 0.48746(14) 0.77594(14) 0.05066(10)
H14 H 0.5395 0.8035 0.0399
C11 C 0.50075(13) 0.90491(13) 0.06843(10)
H15 H 0.4695 0.9255 0.0842
C12 C 0.52555(13) 0.93989(13) 0.01599(10)
C13 C 0.5866(2) 1.05088(17) -0.03745(12)
H16 H 0.6430 1.0786 -0.0380
H17 H 0.5681 1.0869 -0.0446
H18 H 0.5667 1.0101 -0.0626
C14 C 0.5770(2) 1.07089(16) 0.05173(13)
H19 H 0.5488 1.0431 0.0815
H20 H 0.5616 1.1085 0.0424
H21 H 0.6324 1.0977 0.0585
C15 C 0.57051(14) 0.92507(13) 0.10118(10)
C16 C 0.56064(15) 0.91682(13) 0.15240(10)
C17 C 0.61972(16) 0.92317(14) 0.18256(11)
C18 C 0.68849(16) 0.93791(14) 0.16094(11)
H22 H 0.7287 0.9420 0.1817
C19 C 0.70078(15) 0.94693(14) 0.11018(12)
C20 C 0.64104(14) 0.94108(14) 0.08050(11)
H23 H 0.6484 0.9481 0.0456
C21 C 0.77601(16) 0.95788(18) 0.08767(13)
C22 C 0.7831(2) 0.9764(2) 0.03205(15)
H24 H 0.7768 1.0213 0.0265
H25 H 0.7430 0.9321 0.0139
H26 H 0.8338 0.9877 0.0202
C23 C 0.84552(19) 1.0243(3) 0.11389(18)
H27 H 0.8932 1.0323 0.0984
H28 H 0.8452 1.0116 0.1491
H29 H 0.8425 1.0715 0.1110
C24 C 0.7776(3) 0.8824(3) 0.09390(19)
H30 H 0.7392 0.8430 0.0719
H31 H 0.7657 0.8650 0.1284
H32 H 0.8289 0.8912 0.0853
C25 C 0.60824(18) 0.90847(15) 0.23872(11)
H33 H 0.6588 0.9355 0.2557
H34 H 0.5761 0.9292 0.2517
C26 C 0.56943(16) 0.82263(15) 0.24977(11)
C27 C 0.49122(16) 0.77876(15) 0.25989(10)
C28 C 0.45478(16) 0.69965(15) 0.26725(10)
C29 C 0.50004(17) 0.66517(15) 0.26401(11)
H35 H 0.4762 0.6111 0.2685
C30 C 0.57863(17) 0.70674(17) 0.25448(12)
C31 C 0.61234(17) 0.78530(16) 0.24764(11)
H36 H 0.6661 0.8147 0.2413
C32 C 0.6254(2) 0.6652(2) 0.25238(14)
C33 C 0.7103(3) 0.7205(4) 0.2435(3)
H37 H 0.7175 0.7419 0.2099
H38 H 0.7389 0.6931 0.2469
H39 H 0.7292 0.7624 0.2678
C34 C 0.6190(2) 0.6272(2) 0.30326(15)
H40 H 0.6498 0.6016 0.3030
H41 H 0.5650 0.5890 0.3099
H42 H 0.6381 0.6666 0.3293
C35 C 0.5898(4) 0.6015(4) 0.21364(18)
H43 H 0.5950 0.6243 0.1807
H44 H 0.5351 0.5676 0.2212
H45 H 0.6163 0.5717 0.2141
C36 C 0.4400(3) 0.8426(3) 0.30896(14)
H46 H 0.4899 0.8866 0.3196
H47 H 0.4233 0.8009 0.3338
C37 C 0.3774(4) 0.8681(4) 0.30310(19)
C38 C 0.36934(16) 0.65116(16) 0.27727(11)
H48 H 0.3498 0.6850 0.2890
H49 H 0.3609 0.6140 0.3041
C39 C 0.3849(11) 0.9090(12) 0.2582(4)
H50 H 0.4377 0.9522 0.2553
H51 H 0.3489 0.9286 0.2586
H52 H 0.3733 0.8744 0.2298
C40 C 0.32413(14) 0.60741(15) 0.23188(11)
C41 C 0.30602(13) 0.64429(14) 0.19442(10)
C42 C 0.26798(13) 0.60491(14) 0.15184(10)
C43 C 0.24854(13) 0.52815(14) 0.14639(10)
H53 H 0.2228 0.5014 0.1170
C44 C 0.26559(14) 0.48951(15) 0.18258(11)
C45 C 0.30343(14) 0.53078(15) 0.22519(11)
H54 H 0.3155 0.5055 0.2505
C46 C 0.24862(17) 0.40639(16) 0.17596(13)
C47 C 0.1988(3) 0.3671(2) 0.13150(18)
H55 H 0.1478 0.3615 0.1365
H56 H 0.1935 0.3161 0.1274
H57 H 0.2226 0.3981 0.1017
C48 C 0.3255(3) 0.4091(3) 0.1691(3)
H58 H 0.3164 0.3566 0.1652
H59 H 0.3580 0.4330 0.1983
H60 H 0.3514 0.4393 0.1395
C49 C 0.2098(3) 0.3591(2) 0.22251(17)
H61 H 0.1639 0.3626 0.2302
H62 H 0.2458 0.3793 0.2505
H63 H 0.1949 0.3052 0.2167
C50 C 0.25908(13) 0.64999(14) 0.10934(10)
H64 H 0.2203 0.6142 0.0854
H65 H 0.2416 0.6849 0.1223
C51 C 0.28536(15) 0.81677(15) 0.06433(11)
H66 H 0.2394 0.7646 0.0632
H67 H 0.3077 0.8299 0.0305
C52 C 0.26224(15) 0.87436(15) 0.08084(11)
C53 C 0.29328(17) 0.98565(15) 0.13437(13)
C54 C 0.3199(3) 1.0036(2) 0.18783(14)
H68 H 0.2919 0.9569 0.2080
H69 H 0.3098 1.0435 0.2005
H70 H 0.3753 1.0220 0.1896
C55 C 0.33347(17) 1.05494(15) 0.09987(13)
C56 C 0.41200(18) 1.09799(19) 0.09795(15)
H71 H 0.4417 1.0847 0.1189
C57 C 0.4495(2) 1.1603(2) 0.06641(17)
H72 H 0.5041 1.1889 0.0661
C58 C 0.4097(2) 1.1811(2) 0.03603(16)
H73 H 0.4357 1.2253 0.0154
C59 C 0.3309(3) 1.1373(2) 0.03540(19)
H74 H 0.3021 1.1492 0.0126
C60 C 0.2924(2) 1.0750(2) 0.06817(18)
H75 H 0.2378 1.0465 0.0685
H76? H 0.4079(6) 0.9211(6) 0.2899(6)
H77? H 0.3444(6) 0.8343(9) 0.2760(4)
C61? C 0.3334(9) 0.8642(10) 0.3468(4)
H78? H 0.3317 0.8255 0.3697
H79? H 0.2809 0.8501 0.3370
H80? H 0.3579 0.9146 0.3632
loop_
_geom_bond_atom_site_label_1
_geom_bond_atom_site_label_2
_geom_bond_site_symmetry_1
_geom_bond_site_symmetry_2
O1 C8 1_555 1_555
O2 C52 1_555 1_555
O3 C16 1_555 1_555
O4 C27 1_555 1_555
O5 C41 1_555 1_555
O6 C12 1_555 1_555
N1 H1 1_555 1_555
N2 C12 1_555 1_555
H2 C37 1_555 1_555
H3 C37 1_555 1_555
C1 H4 1_555 1_555
H5 C1 1_555 1_555
H6 C1 1_555 1_555
C2 H7 1_555 1_555
H8 C2 1_555 1_555
H9 C2 1_555 1_555
C3 H10 1_555 1_555
H11 C3 1_555 1_555
H12 C3 1_555 1_555
C4 C1 1_555 1_555
C5 C4 1_555 1_555
C6 C5 1_555 1_555
H13 C6 1_555 1_555
C7 C6 1_555 1_555
C8 C7 1_555 1_555
C9 C8 1_555 1_555
C10 C5 1_555 1_555
H14 C10 1_555 1_555
C11 C9 1_555 1_555
H15 C11 1_555 1_555
C12 C11 1_555 1_555
C13 N2 1_555 1_555
H16 C13 1_555 1_555
H17 C13 1_555 1_555
H18 C13 1_555 1_555
C14 N2 1_555 1_555
H19 C14 1_555 1_555
H20 C14 1_555 1_555
H21 C14 1_555 1_555
C15 C11 1_555 1_555
C16 C15 1_555 1_555
C17 C16 1_555 1_555
C18 C17 1_555 1_555
H22 C18 1_555 1_555
C19 C18 1_555 1_555
C20 C15 1_555 1_555
H23 C20 1_555 1_555
C21 C19 1_555 1_555
C22 C21 1_555 1_555
H24 C22 1_555 1_555
H25 C22 1_555 1_555
H26 C22 1_555 1_555
C23 C21 1_555 1_555
H27 C23 1_555 1_555
H28 C23 1_555 1_555
H29 C23 1_555 1_555
C24 C21 1_555 1_555
H30 C24 1_555 1_555
H31 C24 1_555 1_555
H32 C24 1_555 1_555
C25 C17 1_555 1_555
H33 C25 1_555 1_555
H34 C25 1_555 1_555
C26 C25 1_555 1_555
C27 C26 1_555 1_555
C28 C27 1_555 1_555
C29 C28 1_555 1_555
H35 C29 1_555 1_555
C30 C29 1_555 1_555
C31 C26 1_555 1_555
H36 C31 1_555 1_555
C32 C30 1_555 1_555
C33 C32 1_555 1_555
H37 C33 1_555 1_555
H38 C33 1_555 1_555
H39 C33 1_555 1_555
C34 C32 1_555 1_555
H40 C34 1_555 1_555
H41 C34 1_555 1_555
H42 C34 1_555 1_555
C35 C32 1_555 1_555
H43 C35 1_555 1_555
H44 C35 1_555 1_555
H45 C35 1_555 1_555
C36 O4 1_555 1_555
H46 C36 1_555 1_555
H47 C36 1_555 1_555
C37 C36 1_555 1_555
C38 C28 1_555 1_555
H48 C38 1_555 1_555
H49 C38 1_555 1_555
C39 C37 1_555 1_555
H50 C39 1_555 1_555
H51 C39 1_555 1_555
H52 C39 1_555 1_555
C40 C38 1_555 1_555
C41 C40 1_555 1_555
C42 C41 1_555 1_555
C43 C42 1_555 1_555
H53 C43 1_555 1_555
C44 C43 1_555 1_555
C45 C40 1_555 1_555
H54 C45 1_555 1_555
C46 C44 1_555 1_555
C47 C46 1_555 1_555
H55 C47 1_555 1_555
H56 C47 1_555 1_555
H57 C47 1_555 1_555
C48 C46 1_555 1_555
H58 C48 1_555 1_555
H59 C48 1_555 1_555
H60 C48 1_555 1_555
C49 C46 1_555 1_555
H61 C49 1_555 1_555
H62 C49 1_555 1_555
H63 C49 1_555 1_555
C50 C7 1_555 1_555
H64 C50 1_555 1_555
H65 C50 1_555 1_555
C51 O1 1_555 1_555
H66 C51 1_555 1_555
H67 C51 1_555 1_555
C52 N1 1_555 1_555
C53 N1 1_555 1_555
C54 C53 1_555 1_555
H68 C54 1_555 1_555
H69 C54 1_555 1_555
H70 C54 1_555 1_555
C55 C53 1_555 1_555
C56 C55 1_555 1_555
H71 C56 1_555 1_555
C57 C56 1_555 1_555
H72 C57 1_555 1_555
C58 C57 1_555 1_555
H73 C58 1_555 1_555
C59 C58 1_555 1_555
H74 C59 1_555 1_555
C60 C55 1_555 1_555
H75 C60 1_555 1_555
C2 C4 1_555 1_555
C3 C4 1_555 1_555
C9 C10 1_555 1_555
C19 C20 1_555 1_555
C30 C31 1_555 1_555
C42 C50 1_555 1_555
C44 C45 1_555 1_555
C51 C52 1_555 1_555
C59 C60 1_555 1_555

#END
