
#######################################################################
#
#                 Cambridge Crystallographic Data Centre
#                                CCDC 
#
#######################################################################
#
# If this CIF has been generated from an entry in the Cambridge 
# Structural Database, then it will include bibliographic, chemical, 
# crystal, experimental, refinement or atomic coordinate data resulting 
# from the CCDC's data processing and validation procedures.
#
#######################################################################

data_ABEJOI
_chemical_formula_moiety         'C60 H36,C1 H2 Cl2'
_chemical_name_systematic        
'39,40-bis(1-Naphthyl)nonacyclo[27.9.1.1^10,20^.0^1,30^.0^4,9^.0^11,20^.0^14,19^.0^23,28^.0^33,38^]tetraconta-4,6,8,10(40),12,14,16,18,23,25,27,29(39),31,33,35,37-hexadecaene-2,21-diyne dichloromethane solvate'
_symmetry_cell_setting           triclinic
_symmetry_space_group_name_H-M   'P -1'
_symmetry_Int_Tables_number      2
_space_group_name_Hall           '-P 1'
loop_
_symmetry_equiv_pos_site_id
_symmetry_equiv_pos_as_xyz
1 x,y,z
2 -x,-y,-z
_cell_length_a                   10.0288(4)
_cell_length_b                   15.9042(6)
_cell_length_c                   15.9492(6)
_cell_angle_alpha                115.647(2)
_cell_angle_beta                 107.906(2)
_cell_angle_gamma                91.763(2)
_cell_volume                     2142.01
_exptl_crystal_colour            colorless
_exptl_crystal_description       needle
_cell_formula_units_Z            2
loop_
_atom_site_label
_atom_site_type_symbol
_atom_site_fract_x
_atom_site_fract_y
_atom_site_fract_z
C1 C 0.22027(13) 0.00561(8) -0.01421(9)
C2 C 0.13448(15) -0.08399(9) -0.05663(10)
H1 H 0.1028 -0.1236 -0.1265
C3 C 0.09546(14) -0.11536(9) 0.00272(10)
H2 H 0.0368 -0.1761 -0.0266
C4 C 0.14213(14) -0.05800(9) 0.10487(10)
H3 H 0.1145 -0.0792 0.1454
C5 C 0.22925(14) 0.03044(9) 0.14808(10)
H4 H 0.2626 0.0686 0.2183
C6 C 0.26819(13) 0.06383(8) 0.08973(9)
C7 C 0.36242(13) 0.15680(8) 0.13435(9)
C8 C 0.34550(13) 0.24741(8) 0.16552(8)
C9 C 0.22488(13) 0.29754(8) 0.16979(9)
C10 C 0.18481(14) 0.34280(9) 0.11167(10)
H5 H 0.2393 0.3445 0.0729
C11 C 0.06420(15) 0.38667(9) 0.10883(11)
H6 H 0.0382 0.4173 0.0682
C12 C -0.01525(14) 0.38514(9) 0.16439(10)
H7 H -0.0985 0.4124 0.1598
C13 C 0.02539(13) 0.34333(9) 0.22875(10)
C14 C -0.05181(15) 0.34518(10) 0.29060(11)
H8 H -0.1345 0.3730 0.2876
C15 C -0.00793(16) 0.30716(11) 0.35446(11)
H9 H -0.0596 0.3096 0.3961
C16 C 0.11298(16) 0.26452(11) 0.35888(10)
H10 H 0.1422 0.2381 0.4033
C17 C 0.18919(14) 0.26080(9) 0.29958(9)
H11 H 0.2709 0.2319 0.3035
C18 C 0.14761(13) 0.29955(8) 0.23249(9)
C19 C 0.52306(13) 0.17956(8) 0.15975(9)
H12 H 0.5511 0.1531 0.0996
C20 C 0.60949(14) 0.15700(9) 0.23931(10)
H13 H 0.6277 0.0944 0.2207
C21 C 0.66223(14) 0.22072(10) 0.33509(10)
H14 H 0.7121 0.2006 0.3821
C22 C 0.64717(13) 0.32039(9) 0.37148(9)
C23 C 0.70847(15) 0.38445(11) 0.47312(10)
H15 H 0.7572 0.3621 0.5184
C24 C 0.69946(16) 0.47976(11) 0.50888(10)
H16 H 0.7413 0.5222 0.5781
C25 C 0.62917(16) 0.51270(10) 0.44313(10)
H17 H 0.6222 0.5779 0.4673
C26 C 0.56855(14) 0.45057(9) 0.34163(10)
H18 H 0.5214 0.4738 0.2968
C27 C 0.57643(13) 0.35461(8) 0.30523(9)
C28 C 0.50456(13) 0.28700(8) 0.19502(9)
C29 C 0.53276(13) 0.32521(8) 0.13211(9)
C30 C 0.55549(13) 0.35310(8) 0.07827(9)
C31 C 0.58822(12) 0.38651(8) 0.01521(9)
C32 C 0.67416(13) 0.47612(8) 0.05732(9)
H19 H 0.7081 0.5151 0.1274
C33 C 0.71014(13) 0.50831(9) -0.00245(10)
H20 H 0.7685 0.5691 0.0266
C34 C 0.66053(14) 0.45137(9) -0.10515(10)
H21 H 0.6852 0.4733 -0.1462
C35 C 0.57486(14) 0.36240(9) -0.14768(9)
H22 H 0.5423 0.3237 -0.2178
C36 C 0.53608(13) 0.32918(8) -0.08905(9)
C37 C 0.44635(13) 0.23427(8) -0.13425(9)
C38 C 0.49086(13) 0.13799(8) -0.15682(9)
H23 H 0.5496 0.1333 -0.0963
C39 C 0.32540(13) 0.09610(8) -0.19486(9)
C40 C 0.30603(13) 0.19884(8) -0.17159(9)
C41 C 0.17425(13) 0.23739(8) -0.18718(9)
C42 C 0.08062(14) 0.22878(9) -0.14204(10)
H24 H 0.0987 0.1941 -0.1053
C43 C -0.04151(15) 0.27086(10) -0.14978(11)
H25 H -0.1052 0.2638 -0.1188
C44 C -0.06859(14) 0.32167(10) -0.20160(10)
H26 H -0.1488 0.3521 -0.2038
C45 C 0.02143(14) 0.32966(9) -0.25208(9)
C46 C -0.00710(16) 0.37999(10) -0.30867(10)
H27 H -0.0864 0.4112 -0.3110
C47 C 0.07775(17) 0.38429(10) -0.35986(11)
H28 H 0.0585 0.4195 -0.3961
C48 C 0.19400(16) 0.33636(10) -0.35888(10)
H29 H 0.2509 0.3378 -0.3963
C49 C 0.22552(14) 0.28767(9) -0.30441(9)
H30 H 0.3037 0.2554 -0.3048
C50 C 0.14247(13) 0.28498(8) -0.24737(9)
C51 C 0.55536(14) 0.10912(9) -0.23586(10)
H31 H 0.6546 0.1307 -0.2166
C52 C 0.47969(15) 0.05441(9) -0.33224(10)
H32 H 0.5255 0.0440 -0.3790
C53 C 0.32990(14) 0.00975(9) -0.36956(10)
C54 C 0.26037(16) -0.05276(10) -0.47132(10)
H33 H 0.3101 -0.0629 -0.5158
C55 C 0.12052(17) -0.09997(10) -0.50802(10)
H34 H 0.0747 -0.1417 -0.5771
C56 C 0.04833(16) -0.08568(10) -0.44300(10)
H35 H -0.0472 -0.1182 -0.4675
C57 C 0.11529(15) -0.02387(9) -0.34179(10)
H36 H 0.0650 -0.0147 -0.2978
C58 C 0.25528(14) 0.02467(8) -0.30445(9)
C59 C 0.28775(14) 0.06468(8) -0.12970(9)
C60 C 0.25771(14) 0.03866(9) -0.07639(9)
Cl1 Cl 0.33220(7) 0.12553(5) 0.46342(6)
Cl2 Cl 0.59687(6) 0.26470(5) 0.60062(4)
C61 C 0.47649(18) 0.20223(17) 0.47702(5)
H37 H 0.4341 0.2537 0.4537
H38 H 0.5339 0.1597 0.4313
C62? C 0.4951(16) 0.2226(8) 0.4952(4)
Cl3? Cl 0.3625(4) 0.1399(3) 0.4850(3)
Cl4? Cl 0.5731(3) 0.3173(2) 0.6165(2)
H39? H 0.4462 0.2518 0.4456
H40? H 0.5785 0.1858 0.4751
loop_
_geom_bond_atom_site_label_1
_geom_bond_atom_site_label_2
_geom_bond_site_symmetry_1
_geom_bond_site_symmetry_2
C1 C2 1_555 1_555
C2 H1 1_555 1_555
C3 C2 1_555 1_555
H2 C3 1_555 1_555
C4 C3 1_555 1_555
H3 C4 1_555 1_555
C5 C4 1_555 1_555
H4 C5 1_555 1_555
C6 C1 1_555 1_555
C7 C6 1_555 1_555
C8 C7 1_555 1_555
C9 C8 1_555 1_555
C10 C9 1_555 1_555
H5 C10 1_555 1_555
C11 C10 1_555 1_555
H6 C11 1_555 1_555
C12 C11 1_555 1_555
H7 C12 1_555 1_555
C13 C12 1_555 1_555
C14 C13 1_555 1_555
H8 C14 1_555 1_555
C15 C14 1_555 1_555
H9 C15 1_555 1_555
C16 C15 1_555 1_555
H10 C16 1_555 1_555
C17 C16 1_555 1_555
H11 C17 1_555 1_555
C18 C9 1_555 1_555
C19 C7 1_555 1_555
H12 C19 1_555 1_555
C20 C19 1_555 1_555
H13 C20 1_555 1_555
C21 C20 1_555 1_555
H14 C21 1_555 1_555
C22 C21 1_555 1_555
C23 C22 1_555 1_555
H15 C23 1_555 1_555
C24 C23 1_555 1_555
H16 C24 1_555 1_555
C25 C24 1_555 1_555
H17 C25 1_555 1_555
C26 C25 1_555 1_555
H18 C26 1_555 1_555
C27 C22 1_555 1_555
C28 C8 1_555 1_555
C29 C28 1_555 1_555
C30 C29 1_555 1_555
C31 C30 1_555 1_555
C32 C31 1_555 1_555
H19 C32 1_555 1_555
C33 C32 1_555 1_555
H20 C33 1_555 1_555
C34 C33 1_555 1_555
H21 C34 1_555 1_555
C35 C34 1_555 1_555
H22 C35 1_555 1_555
C36 C31 1_555 1_555
C37 C36 1_555 1_555
C38 C37 1_555 1_555
H23 C38 1_555 1_555
C39 C38 1_555 1_555
C40 C37 1_555 1_555
C41 C40 1_555 1_555
C42 C41 1_555 1_555
H24 C42 1_555 1_555
C43 C42 1_555 1_555
H25 C43 1_555 1_555
C44 C43 1_555 1_555
H26 C44 1_555 1_555
C45 C44 1_555 1_555
C46 C45 1_555 1_555
H27 C46 1_555 1_555
C47 C46 1_555 1_555
H28 C47 1_555 1_555
C48 C47 1_555 1_555
H29 C48 1_555 1_555
C49 C48 1_555 1_555
H30 C49 1_555 1_555
C50 C41 1_555 1_555
C51 C38 1_555 1_555
H31 C51 1_555 1_555
C52 C51 1_555 1_555
H32 C52 1_555 1_555
C53 C52 1_555 1_555
C54 C53 1_555 1_555
H33 C54 1_555 1_555
C55 C54 1_555 1_555
H34 C55 1_555 1_555
C56 C55 1_555 1_555
H35 C56 1_555 1_555
C57 C56 1_555 1_555
H36 C57 1_555 1_555
C58 C39 1_555 1_555
C59 C39 1_555 1_555
C60 C1 1_555 1_555
Cl1 C61 1_555 1_555
Cl2 C61 1_555 1_555
C61 H37 1_555 1_555
H38 C61 1_555 1_555
C5 C6 1_555 1_555
C13 C18 1_555 1_555
C17 C18 1_555 1_555
C19 C28 1_555 1_555
C26 C27 1_555 1_555
C27 C28 1_555 1_555
C35 C36 1_555 1_555
C39 C40 1_555 1_555
C45 C50 1_555 1_555
C49 C50 1_555 1_555
C53 C58 1_555 1_555
C57 C58 1_555 1_555
C59 C60 1_555 1_555

#END
