
#######################################################################
#
#                 Cambridge Crystallographic Data Centre
#                                CCDC 
#
#######################################################################
#
# If this CIF has been generated from an entry in the Cambridge 
# Structural Database, then it will include bibliographic, chemical, 
# crystal, experimental, refinement or atomic coordinate data resulting 
# from the CCDC's data processing and validation procedures.
#
#######################################################################

data_ABILUV
_chemical_name_common            
'TCC2-R 1-methylpyrrolidin-2-one methanol solvate'
_chemical_formula_moiety         'C102 H102 N12,4.33(C5 H9 N1 O1),4(C1 H4 O1)'
_chemical_name_systematic        
'(R)-5,7,11,13,19,21,25,27,30,32,36,38-dodecaaza-6,12,20,26,31,37(1,2)-hexacyclohexana-1,3,9,15,17,23(1,3,5),2,16,24(1,4)-nonabenzenatetracyclo[15.11.5.5^3,15^.1^9,23^]nonatriacontaphane-4,7,10,13,18,21,24,27,29,32,35,38-dodecane 1-methylpyrrolidin-2-one methanol solvate'
_symmetry_cell_setting           trigonal
_symmetry_space_group_name_H-M   'P 31 2 1'
_symmetry_Int_Tables_number      152
_space_group_name_Hall           'P 31 2"'
loop_
_symmetry_equiv_pos_site_id
_symmetry_equiv_pos_as_xyz
1 x,y,z
2 -y,x-y,1/3+z
3 -x+y,-x,2/3+z
4 x-y,-y,2/3-z
5 -x,-x+y,1/3-z
6 y,x,-z
_cell_length_a                   19.5496(10)
_cell_length_b                   19.5496(10)
_cell_length_c                   26.3286(14)
_cell_angle_alpha                90
_cell_angle_beta                 90
_cell_angle_gamma                120
_cell_volume                     8714.33
_exptl_crystal_colour            colorless
_exptl_crystal_description       block
_cell_formula_units_Z            3
loop_
_atom_site_label
_atom_site_type_symbol
_atom_site_fract_x
_atom_site_fract_y
_atom_site_fract_z
N1 N 0.3019(2) 0.62169(19) 0.62455(11)
N2 N 0.36562(19) 0.78044(18) 0.59372(12)
N3 N 0.5167(2) 0.5544(2) 0.77995(11)
N4 N 0.6838(2) 0.6568(2) 0.79763(12)
N5 N 0.8158(2) 1.0046(2) 0.70341(13)
N6 N 0.7338(2) 1.0379(2) 0.62464(13)
C1 C 0.7324(3) 0.7828(3) 0.29005(15)
H1 H 0.6782 0.7661 0.2847
C2 C 0.7696(3) 0.8290(3) 0.33088(16)
C3 C 0.7271(3) 0.8463(3) 0.37094(16)
C4 C 0.6537(3) 0.7849(3) 0.38753(15)
H2 H 0.6305 0.7348 0.3712
C5 C 0.6152(3) 0.7969(3) 0.42751(16)
H3 H 0.5646 0.7555 0.4375
C6 C 0.6492(3) 0.8686(3) 0.45341(14)
C7 C 0.7197(3) 0.9301(3) 0.43550(17)
H4 H 0.7414 0.9805 0.4512
C8 C 0.7596(3) 0.9204(4) 0.39538(17)
H5 H 0.8086 0.9633 0.3843
C9 C 0.6089(3) 0.8775(3) 0.50007(14)
C10 C 0.5278(3) 0.8289(3) 0.50614(15)
H6 H 0.4972 0.7937 0.4798
C11 C 0.4914(3) 0.8321(3) 0.55124(15)
C12 C 0.5361(3) 0.8843(3) 0.58892(15)
H7 H 0.5111 0.8870 0.6192
C13 C 0.6161(2) 0.9326(3) 0.58356(16)
C14 C 0.6540(3) 0.9298(3) 0.53838(16)
H8 H 0.7094 0.9631 0.5343
C15 C 0.4038(2) 0.7799(2) 0.55565(15)
H9 H 0.3761 0.7449 0.5285
C16 C 0.6605(3) 0.9862(3) 0.62553(16)
H10 H 0.6323 0.9821 0.6558
C17 C 0.8545(3) 0.8505(3) 0.66224(16)
H11 H 0.8894 0.8786 0.6351
C18 C 0.8295(3) 0.8892(3) 0.69457(17)
C19 C 0.8494(3) 0.9709(3) 0.68285(16)
H12 H 0.8897 0.9996 0.6585
C20 C 0.7818(3) 0.8490(3) 0.73629(16)
H13 H 0.7653 0.8759 0.7589
C21 C 0.7585(3) 0.7711(3) 0.74494(16)
C22 C 0.7064(3) 0.7284(2) 0.78701(15)
H14 H 0.6881 0.7557 0.8078
C23 C 0.4579(6) 0.4915(6) 0.4594(3)
H15 H 0.4235 0.4845 0.4320
C24 C 0.4823(3) 0.5155(3) 0.54919(15)
C25 C 0.4406(6) 0.5113(4) 0.5064(3)
H16 H 0.3986 0.5222 0.5089
C26 C 0.4644(3) 0.5381(3) 0.59966(14)
C27 C 0.5023(3) 0.5303(3) 0.64295(14)
H17 H 0.5377 0.5106 0.6395
C28 C 0.4881(3) 0.5515(2) 0.69105(14)
C29 C 0.4371(2) 0.5811(2) 0.69560(14)
H18 H 0.4282 0.5966 0.7280
C30 C 0.3989(2) 0.5884(2) 0.65331(13)
C31 C 0.4127(3) 0.5660(2) 0.60548(14)
H19 H 0.3859 0.5701 0.5766
C32 C 0.5291(3) 0.5420(2) 0.73489(14)
H20 H 0.5667 0.5257 0.7289
C33 C 0.3454(2) 0.6220(2) 0.65925(14)
H21 H 0.3446 0.6448 0.6910
C34 C 0.6284(3) 0.6187(2) 0.83887(14)
H22 H 0.6074 0.6534 0.8504
C35 C 0.6702(3) 0.6038(3) 0.88338(16)
H23 H 0.6949 0.5733 0.8710
H24 H 0.7127 0.6550 0.8964
C36 C 0.6142(3) 0.5593(3) 0.92573(16)
H25 H 0.5926 0.5914 0.9399
H26 H 0.6430 0.5496 0.9532
C37 C 0.5456(3) 0.4794(3) 0.90667(16)
H27 H 0.5665 0.4453 0.8949
H28 H 0.5079 0.4520 0.9347
C38 C 0.5038(3) 0.4947(3) 0.86313(15)
H29 H 0.4791 0.5249 0.8760
H30 H 0.4612 0.4436 0.8499
C39 C 0.5608(3) 0.5410(2) 0.81966(14)
H31 H 0.5829 0.5086 0.8053
C40 C 0.2593(2) 0.6641(2) 0.63404(14)
H32 H 0.2763 0.6917 0.6676
C41 C 0.1695(2) 0.6074(3) 0.63490(17)
H33 H 0.1526 0.5784 0.6023
H34 H 0.1561 0.5682 0.6625
C42 C 0.1258(3) 0.6518(3) 0.64314(18)
H35 H 0.1386 0.6763 0.6773
H36 H 0.0682 0.6143 0.6418
C43 C 0.1477(3) 0.7158(3) 0.60306(18)
H37 H 0.1287 0.6907 0.5694
H38 H 0.1212 0.7463 0.6111
C44 C 0.2360(2) 0.7711(2) 0.60081(17)
H39 H 0.2541 0.8014 0.6329
H40 H 0.2486 0.8090 0.5726
C45 C 0.2796(2) 0.7249(2) 0.59273(14)
H41 H 0.2645 0.6978 0.5590
C46 C 0.7661(3) 1.0867(2) 0.66897(16)
H42 H 0.7254 1.0658 0.6965
C47 C 0.7874(3) 1.1716(3) 0.6569(2)
H43 H 0.7393 1.1727 0.6465
H44 H 0.8254 1.1918 0.6283
C48 C 0.8244(4) 1.2248(3) 0.7041(2)
H45 H 0.8390 1.2798 0.6956
H46 H 0.7851 1.2065 0.7319
C49 C 0.8955(4) 1.2229(3) 0.7214(2)
H47 H 0.9167 1.2556 0.7524
H48 H 0.9367 1.2457 0.6948
C50 C 0.8761(3) 1.1395(3) 0.7327(2)
H49 H 0.8392 1.1190 0.7618
H50 H 0.9251 1.1397 0.7425
C51 C 0.8393(3) 1.0854(2) 0.68764(16)
H51 H 0.8788 1.1020 0.6595
N1E N 0.62169(19) 0.3019(2) 0.37545(11)
N2E N 0.78044(18) 0.36562(19) 0.40628(12)
N3E N 0.5544(2) 0.5167(2) 0.22005(11)
N4E N 0.6568(2) 0.6838(2) 0.20237(12)
N5E N 1.0046(2) 0.8158(2) 0.29659(13)
N6E N 1.0379(2) 0.7338(2) 0.37536(13)
C1E C 0.7828(3) 0.7324(3) 0.70995(15)
H1E H 0.7661 0.6782 0.7153
C2E C 0.8290(3) 0.7696(3) 0.66912(16)
C3E C 0.8463(3) 0.7271(3) 0.62906(16)
C4E C 0.7849(3) 0.6537(3) 0.61247(15)
H2E H 0.7348 0.6305 0.6288
C5E C 0.7969(3) 0.6152(3) 0.57249(16)
H3E H 0.7555 0.5646 0.5625
C6E C 0.8686(3) 0.6492(3) 0.54659(14)
C7E C 0.9301(3) 0.7197(3) 0.56450(17)
H4E H 0.9805 0.7414 0.5488
C8E C 0.9204(4) 0.7596(3) 0.60462(17)
H5E H 0.9633 0.8086 0.6157
C9E C 0.8775(3) 0.6089(3) 0.49993(14)
C10E C 0.8289(3) 0.5278(3) 0.49386(15)
H6E H 0.7937 0.4972 0.5202
C11E C 0.8321(3) 0.4914(3) 0.44876(15)
C12E C 0.8843(3) 0.5361(3) 0.41108(15)
H7E H 0.8870 0.5111 0.3808
C13E C 0.9326(3) 0.6161(2) 0.41644(16)
C14E C 0.9298(3) 0.6540(3) 0.46162(16)
H8E H 0.9631 0.7094 0.4657
C15E C 0.7799(2) 0.4038(2) 0.44435(15)
H9E H 0.7449 0.3761 0.4715
C16E C 0.9862(3) 0.6605(3) 0.37447(16)
H10E H 0.9821 0.6323 0.3442
C17E C 0.8505(3) 0.8545(3) 0.33776(16)
H11E H 0.8786 0.8894 0.3649
C18E C 0.8892(3) 0.8295(3) 0.30543(17)
C19E C 0.9709(3) 0.8494(3) 0.31715(16)
H12E H 0.9996 0.8897 0.3415
C20E C 0.8490(3) 0.7818(3) 0.26371(16)
H13E H 0.8759 0.7653 0.2411
C21E C 0.7711(3) 0.7585(3) 0.25506(16)
C22E C 0.7284(2) 0.7064(3) 0.21299(15)
H14E H 0.7557 0.6881 0.1922
C23E C 0.4915(6) 0.4579(6) 0.5406(3)
H15E H 0.4845 0.4235 0.5680
C24E C 0.5155(3) 0.4823(3) 0.45081(15)
C25E C 0.5113(4) 0.4406(6) 0.4936(3)
H16E H 0.5222 0.3986 0.4911
C26E C 0.5381(3) 0.4644(3) 0.40034(14)
C27E C 0.5303(3) 0.5023(3) 0.35705(14)
H17E H 0.5106 0.5377 0.3605
C28E C 0.5515(2) 0.4881(3) 0.30895(14)
C29E C 0.5811(2) 0.4371(2) 0.30440(14)
H18E H 0.5966 0.4282 0.2720
C30E C 0.5884(2) 0.3989(2) 0.34669(13)
C31E C 0.5660(2) 0.4127(3) 0.39452(14)
H19E H 0.5701 0.3859 0.4234
C32E C 0.5420(2) 0.5291(3) 0.26511(14)
H20E H 0.5257 0.5667 0.2711
C33E C 0.6220(2) 0.3454(2) 0.34075(14)
H21E H 0.6448 0.3446 0.3090
C34E C 0.6187(2) 0.6284(3) 0.16113(14)
H22E H 0.6534 0.6074 0.1496
C35E C 0.6038(3) 0.6702(3) 0.11662(16)
H23E H 0.5733 0.6949 0.1290
H24E H 0.6550 0.7127 0.1036
C36E C 0.5593(3) 0.6142(3) 0.07427(16)
H25E H 0.5914 0.5926 0.0601
H26E H 0.5496 0.6430 0.0468
C37E C 0.4794(3) 0.5456(3) 0.09333(16)
H27E H 0.4453 0.5665 0.1051
H28E H 0.4520 0.5079 0.0653
C38E C 0.4947(3) 0.5038(3) 0.13687(15)
H29E H 0.5249 0.4791 0.1240
H30E H 0.4436 0.4612 0.1501
C39E C 0.5410(2) 0.5608(3) 0.18034(14)
H31E H 0.5086 0.5829 0.1947
C40E C 0.6641(2) 0.2593(2) 0.36596(14)
H32E H 0.6917 0.2763 0.3324
C41E C 0.6074(3) 0.1695(2) 0.36510(17)
H33E H 0.5784 0.1526 0.3977
H34E H 0.5682 0.1561 0.3375
C42E C 0.6518(3) 0.1258(3) 0.35686(18)
H35E H 0.6763 0.1386 0.3227
H36E H 0.6143 0.0682 0.3582
C43E C 0.7158(3) 0.1477(3) 0.39694(18)
H37E H 0.6907 0.1287 0.4306
H38E H 0.7463 0.1212 0.3889
C44E C 0.7711(2) 0.2360(2) 0.39919(17)
H39E H 0.8014 0.2541 0.3671
H40E H 0.8090 0.2486 0.4274
C45E C 0.7249(2) 0.2796(2) 0.40727(14)
H41E H 0.6978 0.2645 0.4410
C46E C 1.0867(2) 0.7661(3) 0.33103(16)
H42E H 1.0658 0.7254 0.3035
C47E C 1.1716(3) 0.7874(3) 0.3431(2)
H43E H 1.1727 0.7393 0.3535
H44E H 1.1918 0.8254 0.3717
C48E C 1.2248(3) 0.8244(4) 0.2959(2)
H45E H 1.2798 0.8390 0.3044
H46E H 1.2065 0.7851 0.2681
C49E C 1.2229(3) 0.8955(4) 0.2786(2)
H47E H 1.2556 0.9167 0.2476
H48E H 1.2457 0.9367 0.3052
C50E C 1.1395(3) 0.8761(3) 0.2673(2)
H49E H 1.1190 0.8392 0.2382
H50E H 1.1397 0.9251 0.2575
C51E C 1.0854(2) 0.8393(3) 0.31236(16)
H51E H 1.1020 0.8788 0.3405
H52? H 0.6517 0.6884 0.4811
C52? C 0.7139(6) 0.7594(6) 0.5367(4)
H53? H 0.6748 0.7774 0.5335
H54? H 0.7123 0.7403 0.5717
C53? C 0.7883(7) 0.8181(7) 0.5239(4)
H55? H 0.8246 0.8301 0.5530
H56? H 0.7874 0.8668 0.5148
C54? C 0.5440(4) 0.4984(3) 0.5423(3)
H57? H 0.5748 0.5005 0.5708
C55? C 0.5610(5) 0.4788(5) 0.4955(3)
H58? H 0.5999 0.4636 0.4918
O1? O 0.8168(7) 0.8862(8) 0.5461(5)
N7? N 0.7139(6) 0.7594(6) 0.5367(4)
C56? C 0.7002(8) 0.7002(8) 0.5000
H59? H 0.6517 0.6884 0.4811
C57? C 0.7883(7) 0.8181(7) 0.5239(4)
C58? C 0.6671(11) 0.7594(11) 0.5787(8)
H60? H 0.6970 0.8084 0.5981
H61? H 0.6543 0.7141 0.6007
H62? H 0.6183 0.7556 0.5659
loop_
_geom_bond_atom_site_label_1
_geom_bond_atom_site_label_2
_geom_bond_site_symmetry_1
_geom_bond_site_symmetry_2
N1 C33 1_555 1_555
N2 C15 1_555 1_555
N3 C32 1_555 1_555
N4 C22 1_555 1_555
N5 C19 1_555 1_555
N6 C16 1_555 1_555
C1 H1 1_555 1_555
C2 C1 1_555 1_555
C3 C2 1_555 1_555
C4 C3 1_555 1_555
H2 C4 1_555 1_555
C5 C4 1_555 1_555
H3 C5 1_555 1_555
C6 C5 1_555 1_555
C7 C6 1_555 1_555
H4 C7 1_555 1_555
C8 C3 1_555 1_555
H5 C8 1_555 1_555
C9 C6 1_555 1_555
C10 C9 1_555 1_555
H6 C10 1_555 1_555
C11 C10 1_555 1_555
C12 C11 1_555 1_555
H7 C12 1_555 1_555
C13 C12 1_555 1_555
C14 C9 1_555 1_555
H8 C14 1_555 1_555
C15 C11 1_555 1_555
H9 C15 1_555 1_555
C16 C13 1_555 1_555
H10 C16 1_555 1_555
C17 H11 1_555 1_555
C18 C17 1_555 1_555
C19 C18 1_555 1_555
H12 C19 1_555 1_555
C20 C18 1_555 1_555
H13 C20 1_555 1_555
C21 C20 1_555 1_555
C22 C21 1_555 1_555
H14 C22 1_555 1_555
C23 H15 1_555 1_555
C24 C25 1_555 1_555
C25 C23 1_555 1_555
H16 C25 1_555 1_555
C26 C24 1_555 1_555
C27 C26 1_555 1_555
H17 C27 1_555 1_555
C28 C27 1_555 1_555
C29 C28 1_555 1_555
H18 C29 1_555 1_555
C30 C29 1_555 1_555
C31 C26 1_555 1_555
H19 C31 1_555 1_555
C32 C28 1_555 1_555
H20 C32 1_555 1_555
C33 C30 1_555 1_555
H21 C33 1_555 1_555
C34 N4 1_555 1_555
H22 C34 1_555 1_555
C35 C34 1_555 1_555
H23 C35 1_555 1_555
H24 C35 1_555 1_555
C36 C35 1_555 1_555
H25 C36 1_555 1_555
H26 C36 1_555 1_555
C37 C36 1_555 1_555
H27 C37 1_555 1_555
H28 C37 1_555 1_555
C38 C37 1_555 1_555
H29 C38 1_555 1_555
H30 C38 1_555 1_555
C39 N3 1_555 1_555
H31 C39 1_555 1_555
C40 N1 1_555 1_555
H32 C40 1_555 1_555
C41 C40 1_555 1_555
H33 C41 1_555 1_555
H34 C41 1_555 1_555
C42 C41 1_555 1_555
H35 C42 1_555 1_555
H36 C42 1_555 1_555
C43 C42 1_555 1_555
H37 C43 1_555 1_555
H38 C43 1_555 1_555
C44 C43 1_555 1_555
H39 C44 1_555 1_555
H40 C44 1_555 1_555
C45 N2 1_555 1_555
H41 C45 1_555 1_555
C46 N6 1_555 1_555
H42 C46 1_555 1_555
C47 C46 1_555 1_555
H43 C47 1_555 1_555
H44 C47 1_555 1_555
C48 C47 1_555 1_555
H45 C48 1_555 1_555
H46 C48 1_555 1_555
C49 C48 1_555 1_555
H47 C49 1_555 1_555
H48 C49 1_555 1_555
C50 C49 1_555 1_555
H49 C50 1_555 1_555
H50 C50 1_555 1_555
C51 N5 1_555 1_555
H51 C51 1_555 1_555
N1E C33E 1_555 1_555
N2E C15E 1_555 1_555
N3E C32E 1_555 1_555
N4E C22E 1_555 1_555
N5E C19E 1_555 1_555
N6E C16E 1_555 1_555
C1E C21 1_555 1_555
H1E C1E 1_555 1_555
C2E C17 1_555 1_555
C3E C2E 1_555 1_555
C4E C3E 1_555 1_555
H2E C4E 1_555 1_555
C5E C4E 1_555 1_555
H3E C5E 1_555 1_555
C6E C5E 1_555 1_555
C7E C6E 1_555 1_555
H4E C7E 1_555 1_555
C8E C3E 1_555 1_555
H5E C8E 1_555 1_555
C9E C6E 1_555 1_555
C10E C9E 1_555 1_555
H6E C10E 1_555 1_555
C11E C10E 1_555 1_555
C12E C11E 1_555 1_555
H7E C12E 1_555 1_555
C13E C12E 1_555 1_555
C14E C9E 1_555 1_555
H8E C14E 1_555 1_555
C15E C11E 1_555 1_555
H9E C15E 1_555 1_555
C16E C13E 1_555 1_555
H10E C16E 1_555 1_555
C17E C2 1_555 1_555
H11E C17E 1_555 1_555
C18E C17E 1_555 1_555
C19E C18E 1_555 1_555
H12E C19E 1_555 1_555
C20E C18E 1_555 1_555
H13E C20E 1_555 1_555
C21E C1 1_555 1_555
C22E C21E 1_555 1_555
H14E C22E 1_555 1_555
C23E C24 1_555 1_555
H15E C23E 1_555 1_555
C24E C23 1_555 1_555
C25E C23E 1_555 1_555
H16E C25E 1_555 1_555
C26E C24E 1_555 1_555
C27E C26E 1_555 1_555
H17E C27E 1_555 1_555
C28E C27E 1_555 1_555
C29E C28E 1_555 1_555
H18E C29E 1_555 1_555
C30E C29E 1_555 1_555
C31E C26E 1_555 1_555
H19E C31E 1_555 1_555
C32E C28E 1_555 1_555
H20E C32E 1_555 1_555
C33E C30E 1_555 1_555
H21E C33E 1_555 1_555
C34E N4E 1_555 1_555
H22E C34E 1_555 1_555
C35E C34E 1_555 1_555
H23E C35E 1_555 1_555
H24E C35E 1_555 1_555
C36E C35E 1_555 1_555
H25E C36E 1_555 1_555
H26E C36E 1_555 1_555
C37E C36E 1_555 1_555
H27E C37E 1_555 1_555
H28E C37E 1_555 1_555
C38E C37E 1_555 1_555
H29E C38E 1_555 1_555
H30E C38E 1_555 1_555
C39E N3E 1_555 1_555
H31E C39E 1_555 1_555
C40E N1E 1_555 1_555
H32E C40E 1_555 1_555
C41E C40E 1_555 1_555
H33E C41E 1_555 1_555
H34E C41E 1_555 1_555
C42E C41E 1_555 1_555
H35E C42E 1_555 1_555
H36E C42E 1_555 1_555
C43E C42E 1_555 1_555
H37E C43E 1_555 1_555
H38E C43E 1_555 1_555
C44E C43E 1_555 1_555
H39E C44E 1_555 1_555
H40E C44E 1_555 1_555
C45E N2E 1_555 1_555
H41E C45E 1_555 1_555
C46E N6E 1_555 1_555
H42E C46E 1_555 1_555
C47E C46E 1_555 1_555
H43E C47E 1_555 1_555
H44E C47E 1_555 1_555
C48E C47E 1_555 1_555
H45E C48E 1_555 1_555
H46E C48E 1_555 1_555
C49E C48E 1_555 1_555
H47E C49E 1_555 1_555
H48E C49E 1_555 1_555
C50E C49E 1_555 1_555
H49E C50E 1_555 1_555
H50E C50E 1_555 1_555
C51E N5E 1_555 1_555
H51E C51E 1_555 1_555
C7 C8 1_555 1_555
C13 C14 1_555 1_555
C30 C31 1_555 1_555
C34 C39 1_555 1_555
C38 C39 1_555 1_555
C40 C45 1_555 1_555
C44 C45 1_555 1_555
C46 C51 1_555 1_555
C50 C51 1_555 1_555
C1E C2E 1_555 1_555
C7E C8E 1_555 1_555
C13E C14E 1_555 1_555
C20E C21E 1_555 1_555
C24E C25E 1_555 1_555
C30E C31E 1_555 1_555
C34E C39E 1_555 1_555
C38E C39E 1_555 1_555
C40E C45E 1_555 1_555
C44E C45E 1_555 1_555
C46E C51E 1_555 1_555
C50E C51E 1_555 1_555

#END
