
#######################################################################
#
#                 Cambridge Crystallographic Data Centre
#                                CCDC 
#
#######################################################################
#
# If this CIF has been generated from an entry in the Cambridge 
# Structural Database, then it will include bibliographic, chemical, 
# crystal, experimental, refinement or atomic coordinate data resulting 
# from the CCDC's data processing and validation procedures.
#
#######################################################################

data_ABILEF
_chemical_name_common            'TCC2-R bis(CC3-S)'
_chemical_formula_moiety         'C102 H102 N12,2(C72 H84 N12)'
_chemical_name_systematic        
'(R)-5,7,11,13,19,21,25,27,30,32,36,38-dodecaaza-6,12,20,26,31,37(1,2)-hexacyclohexana-1,3,9,15,17,23(1,3,5),2,16,24(1,4)-nonabenzenatetracyclo[15.11.5.5^3,15^.1^9,23^]nonatriacontaphane-4,7,10,13,18,21,24,27,29,32,35,38-dodecane bis((S)-3,5,9,11,15,17,21,23,26,28,31,33-dodecaaza-4,10,16,22,27,32(1,2)-hexacyclohexana-1,7,13,19(1,3,5)-tetrabenzenatricyclo[11.11.5.5^7,19^]tetratriacontaphane-2,5,8,11,14,17,20,23,25,28,30,33-dodecaene)'
_symmetry_cell_setting           hexagonal
_symmetry_space_group_name_H-M   'P 63 2 2'
_symmetry_Int_Tables_number      182
_space_group_name_Hall           "P 6c 2'c"
loop_
_symmetry_equiv_pos_site_id
_symmetry_equiv_pos_as_xyz
1 x,y,z
2 x-y,x,1/2+z
3 -y,x-y,z
4 -x,-y,1/2+z
5 -x+y,-x,z
6 y,-x+y,1/2+z
7 -y,-x,1/2-z
8 x-y,-y,-z
9 x,x-y,1/2-z
10 y,x,-z
11 -x+y,y,1/2-z
12 -x,-x+y,-z
_cell_length_a                   17.316(6)
_cell_length_b                   17.316(6)
_cell_length_c                   121.63(5)
_cell_angle_alpha                90
_cell_angle_beta                 90
_cell_angle_gamma                120
_cell_volume                     31584
_exptl_crystal_colour            colorless
_exptl_crystal_description       hexagonal
_cell_formula_units_Z            4
loop_
_atom_site_label
_atom_site_type_symbol
_atom_site_fract_x
_atom_site_fract_y
_atom_site_fract_z
C1 C 0.5780(5) 0.3131(4) 0.60534(6)
H1 H 0.5188 0.2997 0.6054
C2 C 0.5978(4) 0.2443(4) 0.60533(6)
C3 C 0.5253(4) 0.1508(4) 0.60521(6)
H2 H 0.4666 0.1387 0.6056
C4 C 0.4634(4) -0.0014(4) 0.60377(5)
H3 H 0.4093 0.0031 0.6041
C5 C 0.4669(6) -0.0410(5) 0.59282(7)
H4 H 0.4646 -0.0045 0.5869
H5 H 0.5229 -0.0408 0.5922
C6 C 0.3919(7) -0.1333(7) 0.59162(9)
H6 H 0.3359 -0.1333 0.5918
H7 H 0.3963 -0.1572 0.5846
C7 C 0.3934(7) -0.1899(6) 0.60052(9)
H8 H 0.4484 -0.1918 0.6002
H9 H 0.3440 -0.2502 0.5996
C8 C 0.3864(5) -0.1537(5) 0.61179(8)
H10 H 0.3301 -0.1546 0.6123
H11 H 0.3885 -0.1912 0.6176
C9 C 0.4636(4) -0.0582(4) 0.61318(6)
H12 H 0.5203 -0.0580 0.6133
C10 C 0.5136(5) 0.0053(5) 0.63053(6)
H13 H 0.5648 0.0039 0.6286
C11 C 0.5115(4) 0.0396(5) 0.64147(6)
C12 C 0.4438(4) 0.0578(5) 0.64463(7)
H14 H 0.4004 0.0499 0.6395
C13 C 0.4402(4) 0.0866(5) 0.65496(6)
C14 C 0.5076(5) 0.0993(5) 0.66275(6)
H15 H 0.5061 0.1188 0.6698
C15 C 0.5749(4) 0.0826(5) 0.65974(6)
C16 C 0.5766(5) 0.0544(5) 0.64907(6)
H16 H 0.6231 0.0453 0.6470
C17 C 0.6418(5) 0.0953(5) 0.66790(6)
H17 H 0.6400 0.1168 0.6748
C18 C 0.3685(4) 0.1043(5) 0.65819(7)
H18 H 0.3292 0.1020 0.6528
C19 C 0.2834(4) 0.1392(5) 0.66966(6)
H19 H 0.2515 0.1330 0.6628
C20 C 0.2203(5) 0.0704(5) 0.67803(8)
H20 H 0.1938 0.0112 0.6748
H21 H 0.2540 0.0716 0.6845
C21 C 0.1471(5) 0.0892(6) 0.68145(8)
H22 H 0.1102 0.0827 0.6751
H23 H 0.1096 0.0457 0.6869
C22 C 0.1838(5) 0.1815(6) 0.68614(8)
H24 H 0.2159 0.1870 0.6929
H25 H 0.1353 0.1925 0.6878
C23 C 0.2464(5) 0.2493(5) 0.67771(7)
H26 H 0.2121 0.2471 0.6713
H27 H 0.2721 0.3086 0.6808
C24 C 0.3212(4) 0.2332(4) 0.67414(6)
H28 H 0.3594 0.2410 0.6805
N1 N 0.5401(3) 0.0860(3) 0.60458(4)
N2 N 0.4514(4) -0.0226(4) 0.62358(5)
N3 N 0.3579(4) 0.1222(4) 0.66771(6)
N4 N 0.3743(4) 0.2971(4) 0.66558(5)
C1B C 0.6869(4) 0.2649(6) 0.60534(6)
H1B H 0.7003 0.2191 0.6054
C2B C 0.7557(4) 0.3535(6) 0.60533(6)
C3B C 0.8492(4) 0.3745(6) 0.60521(6)
H2B H 0.8613 0.3279 0.6056
C4B C 1.0014(4) 0.4648(6) 0.60377(5)
H3B H 0.9969 0.4062 0.6041
C5B C 1.0410(5) 0.5079(8) 0.59282(7)
H4B H 1.0045 0.4691 0.5869
H5B H 1.0408 0.5637 0.5922
C6B C 1.1333(7) 0.5252(10) 0.59162(9)
H6B H 1.1333 0.4692 0.5918
H7B H 1.1572 0.5535 0.5846
C7B C 1.1899(6) 0.5833(9) 0.60052(9)
H8B H 1.1918 0.6402 0.6002
H9B H 1.2502 0.5942 0.5996
C8B C 1.1537(5) 0.5401(7) 0.61179(8)
H10B H 1.1546 0.4847 0.6123
H11B H 1.1912 0.5797 0.6176
C9B C 1.0582(4) 0.5218(6) 0.61318(6)
H12B H 1.0580 0.5783 0.6133
C10B C 0.9947(5) 0.5083(7) 0.63053(6)
H13B H 0.9961 0.5609 0.6286
C11B C 0.9604(5) 0.4719(6) 0.64147(6)
C12B C 0.9422(5) 0.3860(6) 0.64463(7)
H14B H 0.9501 0.3505 0.6395
C13B C 0.9134(5) 0.3536(6) 0.65496(6)
C14B C 0.9007(5) 0.4083(7) 0.66275(6)
H15B H 0.8812 0.3873 0.6698
C15B C 0.9174(5) 0.4923(6) 0.65974(6)
C16B C 0.9456(5) 0.5222(7) 0.64907(6)
H16B H 0.9547 0.5778 0.6470
C17B C 0.9047(5) 0.5465(7) 0.66790(6)
H17B H 0.8832 0.5232 0.6748
C18B C 0.8957(5) 0.2642(6) 0.65819(7)
H18B H 0.8980 0.2272 0.6528
C19B C 0.8608(5) 0.1442(6) 0.66966(6)
H19B H 0.8670 0.1185 0.6628
C20B C 0.9296(5) 0.1499(7) 0.67803(8)
H20B H 0.9888 0.1826 0.6748
H21B H 0.9284 0.1824 0.6845
C21B C 0.9108(6) 0.0579(8) 0.68145(8)
H22B H 0.9173 0.0275 0.6751
H23B H 0.9543 0.0639 0.6869
C22B C 0.8185(6) 0.0023(8) 0.68614(8)
H24B H 0.8130 0.0289 0.6929
H25B H 0.8075 -0.0572 0.6878
C23B C 0.7507(5) -0.0029(7) 0.67771(7)
H26B H 0.7529 -0.0350 0.6713
H27B H 0.6914 -0.0365 0.6808
C24B C 0.7668(4) 0.0880(6) 0.67414(6)
H28B H 0.7590 0.1184 0.6805
N1B N 0.9140(3) 0.4541(4) 0.60458(4)
N2B N 1.0226(4) 0.4740(6) 0.62358(5)
N3B N 0.8778(4) 0.2357(6) 0.66771(6)
N4B N 0.7029(4) 0.0772(6) 0.66558(5)
C1D C 0.7351(6) 0.4220(5) 0.60534(6)
H1D H 0.7809 0.4812 0.6054
C2D C 0.6465(6) 0.4022(4) 0.60533(6)
C3D C 0.6255(6) 0.4747(4) 0.60521(6)
H2D H 0.6721 0.5334 0.6056
C4D C 0.5352(6) 0.5366(4) 0.60377(5)
H3D H 0.5938 0.5907 0.6041
C5D C 0.4921(8) 0.5331(6) 0.59282(7)
H4D H 0.5309 0.5354 0.5869
H5D H 0.4363 0.4771 0.5922
C6D C 0.4748(10) 0.6081(7) 0.59162(9)
H6D H 0.5308 0.6641 0.5918
H7D H 0.4465 0.6037 0.5846
C7D C 0.4167(9) 0.6066(7) 0.60052(9)
H8D H 0.3598 0.5516 0.6002
H9D H 0.4058 0.6560 0.5996
C8D C 0.4599(7) 0.6136(5) 0.61179(8)
H10D H 0.5153 0.6699 0.6123
H11D H 0.4203 0.6115 0.6176
C9D C 0.4782(6) 0.5364(4) 0.61318(6)
H12D H 0.4217 0.4797 0.6133
C10D C 0.4917(7) 0.4864(5) 0.63053(6)
H13D H 0.4391 0.4352 0.6286
C11D C 0.5281(6) 0.4885(4) 0.64147(6)
C12D C 0.6140(6) 0.5562(4) 0.64463(7)
H14D H 0.6495 0.5996 0.6395
C13D C 0.6464(6) 0.5598(4) 0.65496(6)
C14D C 0.5917(7) 0.4924(5) 0.66275(6)
H15D H 0.6127 0.4939 0.6698
C15D C 0.5077(6) 0.4251(4) 0.65974(6)
C16D C 0.4778(7) 0.4234(5) 0.64907(6)
H16D H 0.4222 0.3769 0.6470
C17D C 0.4535(7) 0.3582(5) 0.66790(6)
H17D H 0.4768 0.3600 0.6748
C18D C 0.7358(6) 0.6315(4) 0.65819(7)
H18D H 0.7728 0.6708 0.6528
C19D C 0.8558(6) 0.7166(4) 0.66966(6)
H19D H 0.8815 0.7485 0.6628
C20D C 0.8501(7) 0.7797(5) 0.67803(8)
H20D H 0.8174 0.8062 0.6748
H21D H 0.8176 0.7460 0.6845
C21D C 0.9421(8) 0.8529(5) 0.68145(8)
H22D H 0.9725 0.8898 0.6751
H23D H 0.9361 0.8904 0.6869
C22D C 0.9977(8) 0.8162(5) 0.68614(8)
H24D H 0.9711 0.7841 0.6929
H25D H 1.0572 0.8647 0.6878
C23D C 1.0029(7) 0.7536(5) 0.67771(7)
H26D H 1.0350 0.7879 0.6713
H27D H 1.0365 0.7279 0.6808
C24D C 0.9120(6) 0.6788(4) 0.67414(6)
H28D H 0.8816 0.6406 0.6805
N1D N 0.5459(4) 0.4599(3) 0.60458(4)
N2D N 0.5260(6) 0.5486(4) 0.62358(5)
N3D N 0.7643(6) 0.6421(4) 0.66771(6)
N4D N 0.9228(6) 0.6257(4) 0.66558(5)
C25 C 0.1710(4) -0.1121(4) 0.60327(5)
H29 H 0.2186 -0.0812 0.6081
C26 C 0.1762(4) -0.0803(4) 0.59283(5)
C27 C 0.1044(4) -0.1260(4) 0.58562(5)
H30 H 0.1074 -0.1043 0.5785
C28 C 0.2599(4) -0.0004(4) 0.58917(6)
H31 H 0.3019 0.0326 0.5945
C29 C 0.3659(4) 0.1004(4) 0.57746(5)
H32 H 0.4018 0.1124 0.5841
C30 C 0.4108(5) 0.0765(5) 0.56799(6)
H33 H 0.4142 0.0241 0.5700
H34 H 0.3749 0.0628 0.5614
C31 C 0.5034(5) 0.1533(5) 0.56576(7)
H35 H 0.5300 0.1379 0.5597
H36 H 0.5404 0.1645 0.5722
C32 C 0.4999(5) 0.2364(5) 0.56285(7)
H37 H 0.4662 0.2263 0.5561
H38 H 0.5599 0.2853 0.5616
C33 C 0.4568(4) 0.2614(5) 0.57200(7)
H39 H 0.4529 0.3133 0.5698
H40 H 0.4931 0.2764 0.5786
C34 C 0.3624(4) 0.1828(4) 0.57445(5)
H41 H 0.3258 0.1703 0.5678
C35 C 0.2515(4) 0.2073(4) 0.58103(5)
H42 H 0.2280 0.1906 0.5740
C36 C 0.2035(4) 0.2321(4) 0.58900(5)
C37 C 0.2352(4) 0.2599(4) 0.59960(5)
H43 H 0.2872 0.2612 0.6018
C38 C 0.1911(4) 0.2857(4) 0.60694(5)
C39 C 0.2253(4) 0.3170(4) 0.61789(5)
H44 H 0.2734 0.3117 0.6203
C40 C 0.2344(4) 0.3845(4) 0.63502(5)
H45 H 0.2840 0.3730 0.6360
C41 C 0.2709(5) 0.4850(4) 0.63519(6)
H46 H 0.3161 0.5132 0.6295
H47 H 0.2232 0.4972 0.6336
C42 C 0.3110(5) 0.5236(4) 0.64628(7)
H48 H 0.3621 0.5159 0.6475
H49 H 0.3319 0.5871 0.6463
C43 C 0.2457(6) 0.4804(5) 0.65541(6)
H50 H 0.1971 0.4926 0.6546
H51 H 0.2746 0.5046 0.6624
C44 C 0.2093(5) 0.3802(4) 0.65517(5)
H52 H 0.2574 0.3684 0.6567
H53 H 0.1649 0.3523 0.6609
C45 C 0.1677(4) 0.3390(3) 0.64415(5)
H54 H 0.1148 0.3445 0.6429
C46 C 0.0620(4) 0.1881(4) 0.64339(6)
H55 H 0.0207 0.2072 0.6428
C47 C 0.0299(4) 0.0903(4) 0.64342(6)
C48 C 0.0901(4) 0.0596(4) 0.64357(6)
H56 H 0.1510 0.1000 0.6438
N5 N 0.2782(3) 0.0257(3) 0.57947(5)
N6 N 0.3223(3) 0.2075(3) 0.58325(4)
N7 N 0.1936(3) 0.3509(4) 0.62431(4)
N8 N 0.1430(3) 0.2449(3) 0.64418(4)
C25B C 0.1121(4) 0.2831(6) 0.60327(5)
H29B H 0.0812 0.2998 0.6081
C26B C 0.0803(4) 0.2565(6) 0.59283(5)
C27B C 0.1260(4) 0.2304(6) 0.58562(5)
H30B H 0.1043 0.2117 0.5785
C28B C 0.0004(4) 0.2603(6) 0.58917(6)
H31B H -0.0326 0.2693 0.5945
C29B C -0.1004(4) 0.2655(6) 0.57746(5)
H32B H -0.1124 0.2894 0.5841
C30B C -0.0765(5) 0.3343(7) 0.56799(6)
H33B H -0.0241 0.3901 0.5700
H34B H -0.0628 0.3121 0.5614
C31B C -0.1533(5) 0.3501(7) 0.56576(7)
H35B H -0.1379 0.3921 0.5597
H36B H -0.1645 0.3759 0.5722
C32B C -0.2364(5) 0.2635(7) 0.56285(7)
H37B H -0.2263 0.2399 0.5561
H38B H -0.2853 0.2746 0.5616
C33B C -0.2614(5) 0.1954(6) 0.57200(7)
H39B H -0.3133 0.1396 0.5698
H40B H -0.2764 0.2167 0.5786
C34B C -0.1828(4) 0.1796(6) 0.57445(5)
H41B H -0.1703 0.1555 0.5678
C35B C -0.2073(4) 0.0442(6) 0.58103(5)
H42B H -0.1906 0.0374 0.5740
C36B C -0.2321(4) -0.0286(6) 0.58900(5)
C37B C -0.2599(4) -0.0247(6) 0.59960(5)
H43B H -0.2612 0.0260 0.6018
C38B C -0.2857(4) -0.0946(6) 0.60694(5)
C39B C -0.3170(4) -0.0917(6) 0.61789(5)
H44B H -0.3117 -0.0383 0.6203
C40B C -0.3845(4) -0.1501(6) 0.63502(5)
H45B H -0.3730 -0.0890 0.6360
C41B C -0.4850(4) -0.2141(6) 0.63519(6)
H46B H -0.5132 -0.1971 0.6295
H47B H -0.4972 -0.2740 0.6336
C42B C -0.5236(4) -0.2126(6) 0.64628(7)
H48B H -0.5159 -0.1538 0.6475
H49B H -0.5871 -0.2552 0.6463
C43B C -0.4804(5) -0.2347(8) 0.65541(6)
H50B H -0.4926 -0.2955 0.6546
H51B H -0.5046 -0.2300 0.6624
C44B C -0.3802(4) -0.1709(6) 0.65517(5)
H52B H -0.3684 -0.1110 0.6567
H53B H -0.3523 -0.1874 0.6609
C45B C -0.3390(3) -0.1713(5) 0.64415(5)
H54B H -0.3445 -0.2297 0.6429
C46B C -0.1881(4) -0.1261(6) 0.64339(6)
H55B H -0.2072 -0.1865 0.6428
C47B C -0.0903(4) -0.0604(6) 0.64342(6)
C48B C -0.0596(4) 0.0305(6) 0.64357(6)
H56B H -0.1000 0.0510 0.6438
N5B N -0.0257(3) 0.2525(4) 0.57947(5)
N6B N -0.2075(3) 0.1148(4) 0.58325(4)
N7B N -0.3509(4) -0.1573(5) 0.62431(4)
N8B N -0.2449(3) -0.1019(4) 0.64418(4)
C25D C -0.2831(6) -0.1710(4) 0.60327(5)
H29D H -0.2998 -0.2186 0.6081
C26D C -0.2565(6) -0.1762(4) 0.59283(5)
C27D C -0.2304(6) -0.1044(4) 0.58562(5)
H30D H -0.2117 -0.1074 0.5785
C28D C -0.2603(6) -0.2599(4) 0.58917(6)
H31D H -0.2693 -0.3019 0.5945
C29D C -0.2655(6) -0.3659(4) 0.57746(5)
H32D H -0.2894 -0.4018 0.5841
C30D C -0.3343(7) -0.4108(5) 0.56799(6)
H33D H -0.3901 -0.4142 0.5700
H34D H -0.3121 -0.3749 0.5614
C31D C -0.3501(7) -0.5034(5) 0.56576(7)
H35D H -0.3921 -0.5300 0.5597
H36D H -0.3759 -0.5404 0.5722
C32D C -0.2635(7) -0.4999(5) 0.56285(7)
H37D H -0.2399 -0.4662 0.5561
H38D H -0.2746 -0.5599 0.5616
C33D C -0.1954(6) -0.4568(4) 0.57200(7)
H39D H -0.1396 -0.4529 0.5698
H40D H -0.2167 -0.4931 0.5786
C34D C -0.1796(6) -0.3624(4) 0.57445(5)
H41D H -0.1555 -0.3258 0.5678
C35D C -0.0442(6) -0.2515(4) 0.58103(5)
H42D H -0.0374 -0.2280 0.5740
C36D C 0.0286(6) -0.2035(4) 0.58900(5)
C37D C 0.0247(6) -0.2352(4) 0.59960(5)
H43D H -0.0260 -0.2872 0.6018
C38D C 0.0946(6) -0.1911(4) 0.60694(5)
C39D C 0.0917(6) -0.2253(4) 0.61789(5)
H44D H 0.0383 -0.2734 0.6203
C40D C 0.1501(6) -0.2344(4) 0.63502(5)
H45D H 0.0890 -0.2840 0.6360
C41D C 0.2141(6) -0.2709(5) 0.63519(6)
H46D H 0.1971 -0.3161 0.6295
H47D H 0.2740 -0.2232 0.6336
C42D C 0.2126(6) -0.3110(5) 0.64628(7)
H48D H 0.1538 -0.3621 0.6475
H49D H 0.2552 -0.3319 0.6463
C43D C 0.2347(8) -0.2457(6) 0.65541(6)
H50D H 0.2955 -0.1971 0.6546
H51D H 0.2300 -0.2746 0.6624
C44D C 0.1709(6) -0.2093(5) 0.65517(5)
H52D H 0.1110 -0.2574 0.6567
H53D H 0.1874 -0.1649 0.6609
C45D C 0.1713(5) -0.1677(4) 0.64415(5)
H54D H 0.2297 -0.1148 0.6429
C46D C 0.1261(6) -0.0620(4) 0.64339(6)
H55D H 0.1865 -0.0207 0.6428
C47D C 0.0604(6) -0.0299(4) 0.64342(6)
C48D C -0.0305(6) -0.0901(4) 0.64357(6)
H56D H -0.0510 -0.1510 0.6438
N5D N -0.2525(4) -0.2782(3) 0.57947(5)
N6D N -0.1148(4) -0.3223(3) 0.58325(4)
N7D N 0.1573(5) -0.1936(3) 0.62431(4)
N8D N 0.1019(4) -0.1430(3) 0.64418(4)
C49 C 0.2619(5) 0.2492(4) 0.54064(6)
H57 H 0.2700 0.2895 0.5351
C50 C 0.2882(4) 0.3659(4) 0.55222(6)
H58 H 0.3044 0.3980 0.5452
C51 C 0.3624(5) 0.4158(5) 0.56039(7)
H59 H 0.4172 0.4209 0.5576
H60 H 0.3478 0.3831 0.5673
C52 C 0.3756(6) 0.5100(5) 0.56242(8)
H61 H 0.4240 0.5423 0.5676
H62 H 0.3907 0.5432 0.5556
C53 C 0.2900(6) 0.5005(6) 0.56702(9)
H63 H 0.2976 0.5590 0.5684
H64 H 0.2757 0.4682 0.5739
C54 C 0.2138(6) 0.4503(5) 0.55888(7)
H65 H 0.1593 0.4446 0.5619
H66 H 0.2270 0.4840 0.5521
C55 C 0.2002(5) 0.3581(4) 0.55648(5)
H67 H 0.1813 0.3220 0.5632
C56 C 0.0615(4) 0.2450(5) 0.55052(5)
H68 H 0.0518 0.2264 0.5578
C57 C -0.0073(4) 0.1919(4) 0.54221(5)
C58 C -0.0916(4) 0.1306(5) 0.54538(5)
H69 H -0.1057 0.1219 0.5528
C59 C -0.1574(4) 0.0805(5) 0.53753(5)
C60 C -0.1348(4) 0.0933(5) 0.52654(5)
H70 H -0.1782 0.0610 0.5213
C61 C -0.0474(4) 0.1542(5) 0.52311(5)
C62 C 0.0146(5) 0.2027(5) 0.53102(5)
H71 H 0.0726 0.2438 0.5289
C63 C -0.0240(4) 0.1637(5) 0.51131(5)
C64 C 0.0455(11) 0.2435(10) 0.50734(11)
H72 H 0.0749 0.2912 0.5122
C65 C 0.0729(12) 0.2548(12) 0.49641(10)
H73 H 0.1237 0.3069 0.4942
N9 N 0.1327(4) 0.3145(4) 0.54796(4)
N10 N 0.2721(4) 0.2756(3) 0.55050(5)
C49B C -0.2492(4) 0.0127(6) 0.54064(6)
H57B H -0.2895 -0.0195 0.5351
C50B C -0.3659(4) -0.0777(6) 0.55222(6)
H58B H -0.3980 -0.0936 0.5452
C51B C -0.4158(5) -0.0534(7) 0.56039(7)
H59B H -0.4209 -0.0037 0.5576
H60B H -0.3831 -0.0353 0.5673
C52B C -0.5100(5) -0.1344(8) 0.56242(8)
H61B H -0.5423 -0.1183 0.5676
H62B H -0.5432 -0.1525 0.5556
C53B C -0.5005(6) -0.2105(8) 0.56702(9)
H63B H -0.5590 -0.2614 0.5684
H64B H -0.4682 -0.1925 0.5739
C54B C -0.4503(5) -0.2365(8) 0.55888(7)
H65B H -0.4446 -0.2853 0.5619
H66B H -0.4840 -0.2570 0.5521
C55B C -0.3581(4) -0.1579(6) 0.55648(5)
H67B H -0.3220 -0.1407 0.5632
C56B C -0.2450(5) -0.1835(6) 0.55052(5)
H68B H -0.2264 -0.1746 0.5578
C57B C -0.1919(4) -0.1992(6) 0.54221(5)
C58B C -0.1306(5) -0.2222(6) 0.54538(5)
H69B H -0.1219 -0.2276 0.5528
C59B C -0.0805(5) -0.2379(6) 0.53753(5)
C60B C -0.0933(5) -0.2281(6) 0.52654(5)
H70B H -0.0610 -0.2392 0.5213
C61B C -0.1542(5) -0.2016(6) 0.52311(5)
C62B C -0.2027(5) -0.1881(7) 0.53102(5)
H71B H -0.2438 -0.1712 0.5289
C63B C -0.1637(5) -0.1877(6) 0.51131(5)
C64B C -0.2435(10) -0.1980(15) 0.50734(11)
H72B H -0.2912 -0.2163 0.5122
C65B C -0.2548(12) -0.1819(17) 0.49641(10)
H73B H -0.3069 -0.1832 0.4942
N9B N -0.3145(4) -0.1818(6) 0.54796(4)
N10B N -0.2756(3) -0.0035(5) 0.55050(5)
C49D C -0.0127(6) -0.2619(5) 0.54064(6)
H57D H 0.0195 -0.2700 0.5351
C50D C 0.0777(6) -0.2882(4) 0.55222(6)
H58D H 0.0936 -0.3044 0.5452
C51D C 0.0534(7) -0.3624(5) 0.56039(7)
H59D H 0.0037 -0.4172 0.5576
H60D H 0.0353 -0.3478 0.5673
C52D C 0.1344(8) -0.3756(6) 0.56242(8)
H61D H 0.1183 -0.4240 0.5676
H62D H 0.1525 -0.3907 0.5556
C53D C 0.2105(8) -0.2900(6) 0.56702(9)
H63D H 0.2614 -0.2976 0.5684
H64D H 0.1925 -0.2757 0.5739
C54D C 0.2365(8) -0.2138(6) 0.55888(7)
H65D H 0.2853 -0.1593 0.5619
H66D H 0.2570 -0.2270 0.5521
C55D C 0.1579(6) -0.2002(5) 0.55648(5)
H67D H 0.1407 -0.1813 0.5632
C56D C 0.1835(6) -0.0615(4) 0.55052(5)
H68D H 0.1746 -0.0518 0.5578
C57D C 0.1992(6) 0.0073(4) 0.54221(5)
C58D C 0.2222(6) 0.0916(4) 0.54538(5)
H69D H 0.2276 0.1057 0.5528
C59D C 0.2379(6) 0.1574(4) 0.53753(5)
C60D C 0.2281(6) 0.1348(4) 0.52654(5)
H70D H 0.2392 0.1782 0.5213
C61D C 0.2016(6) 0.0474(4) 0.52311(5)
C62D C 0.1881(7) -0.0146(5) 0.53102(5)
H71D H 0.1712 -0.0726 0.5289
C63D C 0.1877(6) 0.0240(4) 0.51131(5)
C64D C 0.1980(15) -0.0455(11) 0.50734(11)
H72D H 0.2163 -0.0749 0.5122
C65D C 0.1819(17) -0.0729(12) 0.49641(10)
H73D H 0.1832 -0.1237 0.4942
N9D N 0.1818(6) -0.1327(4) 0.54796(4)
N10D N 0.0035(5) -0.2721(4) 0.55050(5)
C49I C 0.2492(4) 0.2619(5) 0.45936(6)
H57I H 0.2895 0.2700 0.4649
C50I C 0.3659(4) 0.2882(4) 0.44778(6)
H58I H 0.3980 0.3044 0.4548
C51I C 0.4158(5) 0.3624(5) 0.43961(7)
H59I H 0.4209 0.4172 0.4424
H60I H 0.3831 0.3478 0.4327
C52I C 0.5100(5) 0.3756(6) 0.43758(8)
H61I H 0.5423 0.4240 0.4324
H62I H 0.5432 0.3907 0.4444
C53I C 0.5005(6) 0.2900(6) 0.43298(9)
H63I H 0.5590 0.2976 0.4316
H64I H 0.4682 0.2757 0.4261
C54I C 0.4503(5) 0.2138(6) 0.44112(7)
H65I H 0.4446 0.1593 0.4381
H66I H 0.4840 0.2270 0.4479
C55I C 0.3581(4) 0.2002(5) 0.44352(5)
H67I H 0.3220 0.1813 0.4368
C56I C 0.2450(5) 0.0615(4) 0.44948(5)
H68I H 0.2264 0.0518 0.4422
C57I C 0.1919(4) -0.0073(4) 0.45779(5)
C58I C 0.1306(5) -0.0916(4) 0.45462(5)
H69I H 0.1219 -0.1057 0.4472
C59I C 0.0805(5) -0.1574(4) 0.46247(5)
C60I C 0.0933(5) -0.1348(4) 0.47346(5)
H70I H 0.0610 -0.1782 0.4787
C61I C 0.1542(5) -0.0474(4) 0.47689(5)
C62I C 0.2027(5) 0.0146(5) 0.46898(5)
H71I H 0.2438 0.0726 0.4711
C63I C 0.1637(5) -0.0240(4) 0.48869(5)
C64I C 0.2435(10) 0.0455(11) 0.49266(11)
H72I H 0.2912 0.0749 0.4878
C65I C 0.2548(12) 0.0729(12) 0.50359(10)
H73I H 0.3069 0.1237 0.5058
N9I N 0.3145(4) 0.1327(4) 0.45204(4)
N10I N 0.2756(3) 0.2721(4) 0.44950(5)
C49K C -0.2619(5) -0.0127(6) 0.45936(6)
H57K H -0.2700 0.0195 0.4649
C50K C -0.2882(4) 0.0777(6) 0.44778(6)
H58K H -0.3044 0.0936 0.4548
C51K C -0.3624(5) 0.0534(7) 0.43961(7)
H59K H -0.4172 0.0037 0.4424
H60K H -0.3478 0.0353 0.4327
C52K C -0.3756(6) 0.1344(8) 0.43758(8)
H61K H -0.4240 0.1183 0.4324
H62K H -0.3907 0.1525 0.4444
C53K C -0.2900(6) 0.2105(8) 0.43298(9)
H63K H -0.2976 0.2614 0.4316
H64K H -0.2757 0.1925 0.4261
C54K C -0.2138(6) 0.2365(8) 0.44112(7)
H65K H -0.1593 0.2853 0.4381
H66K H -0.2270 0.2570 0.4479
C55K C -0.2002(5) 0.1579(6) 0.44352(5)
H67K H -0.1813 0.1407 0.4368
C56K C -0.0615(4) 0.1835(6) 0.44948(5)
H68K H -0.0518 0.1746 0.4422
C57K C 0.0073(4) 0.1992(6) 0.45779(5)
C58K C 0.0916(4) 0.2222(6) 0.45462(5)
H69K H 0.1057 0.2276 0.4472
C59K C 0.1574(4) 0.2379(6) 0.46247(5)
C60K C 0.1348(4) 0.2281(6) 0.47346(5)
H70K H 0.1782 0.2392 0.4787
C61K C 0.0474(4) 0.2016(6) 0.47689(5)
C62K C -0.0146(5) 0.1881(7) 0.46898(5)
H71K H -0.0726 0.1712 0.4711
C63K C 0.0240(4) 0.1877(6) 0.48869(5)
C64K C -0.0455(11) 0.1980(15) 0.49266(11)
H72K H -0.0749 0.2163 0.4878
C65K C -0.0729(12) 0.1819(17) 0.50359(10)
H73K H -0.1237 0.1832 0.5058
N9K N -0.1327(4) 0.1818(6) 0.45204(4)
N10K N -0.2721(4) 0.0035(5) 0.44950(5)
C49G C 0.0127(6) -0.2492(4) 0.45936(6)
H57G H -0.0195 -0.2895 0.4649
C50G C -0.0777(6) -0.3659(4) 0.44778(6)
H58G H -0.0936 -0.3980 0.4548
C51G C -0.0534(7) -0.4158(5) 0.43961(7)
H59G H -0.0037 -0.4209 0.4424
H60G H -0.0353 -0.3831 0.4327
C52G C -0.1344(8) -0.5100(5) 0.43758(8)
H61G H -0.1183 -0.5423 0.4324
H62G H -0.1525 -0.5432 0.4444
C53G C -0.2105(8) -0.5005(6) 0.43298(9)
H63G H -0.2614 -0.5590 0.4316
H64G H -0.1925 -0.4682 0.4261
C54G C -0.2365(8) -0.4503(5) 0.44112(7)
H65G H -0.2853 -0.4446 0.4381
H66G H -0.2570 -0.4840 0.4479
C55G C -0.1579(6) -0.3581(4) 0.44352(5)
H67G H -0.1407 -0.3220 0.4368
C56G C -0.1835(6) -0.2450(5) 0.44948(5)
H68G H -0.1746 -0.2264 0.4422
C57G C -0.1992(6) -0.1919(4) 0.45779(5)
C58G C -0.2222(6) -0.1306(5) 0.45462(5)
H69G H -0.2276 -0.1219 0.4472
C59G C -0.2379(6) -0.0805(5) 0.46247(5)
C60G C -0.2281(6) -0.0933(5) 0.47346(5)
H70G H -0.2392 -0.0610 0.4787
C61G C -0.2016(6) -0.1542(5) 0.47689(5)
C62G C -0.1881(7) -0.2027(5) 0.46898(5)
H71G H -0.1712 -0.2438 0.4711
C63G C -0.1877(6) -0.1637(5) 0.48869(5)
C64G C -0.1980(15) -0.2435(10) 0.49266(11)
H72G H -0.2163 -0.2912 0.4878
C65G C -0.1819(17) -0.2548(12) 0.50359(10)
H73G H -0.1832 -0.3069 0.5058
N9G N -0.1818(6) -0.3145(4) 0.45204(4)
N10G N -0.0035(5) -0.2756(3) 0.44950(5)
C66 C 0.4609(8) 0.4243(7) 0.70764(8)
H74 H 0.4579 0.4614 0.7129
C67 C 0.4522(9) 0.3382(7) 0.71122(7)
C68 C 0.4500(12) 0.3233(8) 0.72214(8)
H75 H 0.4550 0.3669 0.7270
C69 C 0.4401(12) 0.2417(8) 0.72633(7)
C70 C 0.4313(11) 0.1791(8) 0.71877(8)
H76 H 0.4231 0.1248 0.7213
C71 C 0.4341(8) 0.1934(6) 0.70774(7)
C72 C 0.4461(7) 0.2752(6) 0.70382(7)
H77 H 0.4500 0.2866 0.6963
C73 C 0.4244(7) 0.1252(6) 0.69967(7)
H78 H 0.4369 0.1423 0.6923
C74 C 0.4000(6) -0.0098(6) 0.69310(7)
H79 H 0.4221 0.0256 0.6864
C75 C 0.3049(7) -0.0858(7) 0.69131(8)
H80 H 0.2669 -0.0615 0.6894
H81 H 0.2824 -0.1195 0.6981
C76 C 0.3021(8) -0.1481(7) 0.68202(9)
H82 H 0.2418 -0.1979 0.6813
H83 H 0.3188 -0.1158 0.6751
C77 C 0.3643(7) -0.1827(6) 0.68442(10)
H84 H 0.3651 -0.2170 0.6782
H85 H 0.3420 -0.2225 0.6907
C78 C 0.4575(7) -0.1097(6) 0.68677(8)
H86 H 0.4828 -0.0742 0.6802
H87 H 0.4939 -0.1356 0.6888
C79 C 0.4590(6) -0.0500(5) 0.69605(7)
H88 H 0.4366 -0.0853 0.7028
C80 C 0.4442(8) 0.2316(9) 0.73835(10)
C81 C 0.3962(15) 0.1406(13) 0.75462(15)
H89 H 0.3648 0.0840 0.7577
C82 C 0.3922(14) 0.1479(12) 0.74303(16)
H90 H 0.3561 0.0983 0.7387
N11 N 0.4007(5) 0.0464(5) 0.70203(5)
N12 N 0.5507(5) 0.0228(5) 0.69785(6)
C66B C 0.5757(7) 0.0366(11) 0.70764(8)
H74B H 0.5386 -0.0035 0.7129
C67B C 0.6618(7) 0.1140(11) 0.71122(7)
C68B C 0.6767(8) 0.1267(14) 0.72214(8)
H75B H 0.6331 0.0881 0.7270
C69B C 0.7583(8) 0.1984(14) 0.72633(7)
C70B C 0.8209(8) 0.2522(14) 0.71877(8)
H76B H 0.8752 0.2983 0.7213
C71B C 0.8066(6) 0.2407(10) 0.70774(7)
C72B C 0.7248(6) 0.1709(9) 0.70382(7)
H77B H 0.7134 0.1634 0.6963
C73B C 0.8748(6) 0.2992(9) 0.69967(7)
H78B H 0.8577 0.2946 0.6923
C74B C 1.0098(6) 0.4098(8) 0.69310(7)
H79B H 0.9744 0.3965 0.6864
C75B C 1.0858(7) 0.3907(10) 0.69131(8)
H80B H 1.0615 0.3284 0.6894
H81B H 1.1195 0.4019 0.6981
C76B C 1.1481(7) 0.4502(11) 0.68202(9)
H82B H 1.1979 0.4397 0.6813
H83B H 1.1158 0.4346 0.6751
C77B C 1.1827(6) 0.5470(9) 0.68442(10)
H84B H 1.2170 0.5821 0.6782
H85B H 1.2225 0.5645 0.6907
C78B C 1.1097(6) 0.5672(9) 0.68677(8)
H86B H 1.0742 0.5570 0.6802
H87B H 1.1356 0.6295 0.6888
C79B C 1.0500(5) 0.5090(8) 0.69605(7)
H88B H 1.0853 0.5219 0.7028
C80B C 0.7684(9) 0.2126(12) 0.73835(10)
C81B C 0.8594(13) 0.2556(20) 0.75462(15)
H89B H 0.9160 0.2808 0.7577
C82B C 0.8521(12) 0.2443(18) 0.74303(16)
H90B H 0.9017 0.2578 0.7387
N11B N 0.9536(5) 0.3543(7) 0.70203(5)
N12B N 0.9772(5) 0.5279(7) 0.69785(6)
C66D C 0.9634(11) 0.5391(8) 0.70764(8)
H74D H 1.0035 0.5421 0.7129
C67D C 0.8860(11) 0.5478(9) 0.71122(7)
C68D C 0.8733(14) 0.5500(12) 0.72214(8)
H75D H 0.9119 0.5450 0.7270
C69D C 0.8016(14) 0.5599(12) 0.72633(7)
C70D C 0.7478(14) 0.5687(11) 0.71877(8)
H76D H 0.7017 0.5769 0.7213
C71D C 0.7593(10) 0.5659(8) 0.70774(7)
C72D C 0.8291(9) 0.5539(7) 0.70382(7)
H77D H 0.8366 0.5500 0.6963
C73D C 0.7008(9) 0.5756(7) 0.69967(7)
H78D H 0.7054 0.5631 0.6923
C74D C 0.5902(8) 0.6000(6) 0.69310(7)
H79D H 0.6035 0.5779 0.6864
C75D C 0.6093(10) 0.6951(7) 0.69131(8)
H80D H 0.6716 0.7331 0.6894
H81D H 0.5981 0.7176 0.6981
C76D C 0.5498(11) 0.6979(8) 0.68202(9)
H82D H 0.5603 0.7582 0.6813
H83D H 0.5654 0.6812 0.6751
C77D C 0.4530(9) 0.6357(7) 0.68442(10)
H84D H 0.4179 0.6349 0.6782
H85D H 0.4355 0.6580 0.6907
C78D C 0.4328(9) 0.5425(7) 0.68677(8)
H86D H 0.4430 0.5172 0.6802
H87D H 0.3705 0.5061 0.6888
C79D C 0.4910(8) 0.5410(6) 0.69605(7)
H88D H 0.4781 0.5634 0.7028
C80D C 0.7874(12) 0.5558(8) 0.73835(10)
C81D C 0.7444(20) 0.6038(15) 0.75462(15)
H89D H 0.7192 0.6352 0.7577
C82D C 0.7557(18) 0.6078(14) 0.74303(16)
H90D H 0.7422 0.6439 0.7387
N11D N 0.6457(7) 0.5993(5) 0.70203(5)
N12D N 0.4721(7) 0.4493(5) 0.69785(6)
C66H C 0.4609(8) 0.0366(11) 0.79236(8)
H74H H 0.4579 -0.0035 0.7871
C67H C 0.4522(9) 0.1140(11) 0.78878(7)
C68H C 0.4500(12) 0.1267(14) 0.77786(8)
H75H H 0.4550 0.0881 0.7730
C69H C 0.4401(12) 0.1984(14) 0.77367(7)
C70H C 0.4313(11) 0.2522(14) 0.78123(8)
H76H H 0.4231 0.2983 0.7787
C71H C 0.4341(8) 0.2407(10) 0.79226(7)
C72H C 0.4461(7) 0.1709(9) 0.79618(7)
H77H H 0.4500 0.1634 0.8037
C73H C 0.4244(7) 0.2992(9) 0.80033(7)
H78H H 0.4369 0.2946 0.8077
C74H C 0.4000(6) 0.4098(8) 0.80690(7)
H79H H 0.4221 0.3965 0.8136
C75H C 0.3049(7) 0.3907(10) 0.80869(8)
H80H H 0.2669 0.3284 0.8106
H81H H 0.2824 0.4019 0.8019
C76H C 0.3021(8) 0.4502(11) 0.81798(9)
H82H H 0.2418 0.4397 0.8187
H83H H 0.3188 0.4346 0.8249
C77H C 0.3643(7) 0.5470(9) 0.81558(10)
H84H H 0.3651 0.5821 0.8218
H85H H 0.3420 0.5645 0.8093
C78H C 0.4575(7) 0.5672(9) 0.81323(8)
H86H H 0.4828 0.5570 0.8198
H87H H 0.4939 0.6295 0.8112
C79H C 0.4590(6) 0.5090(8) 0.80395(7)
H88H H 0.4366 0.5219 0.7972
C80H C 0.4442(8) 0.2126(12) 0.76165(10)
C81H C 0.3962(15) 0.2556(20) 0.74538(15)
H89H H 0.3648 0.2808 0.7423
C82H C 0.3922(14) 0.2443(18) 0.75697(16)
H90H H 0.3561 0.2578 0.7613
N11H N 0.4007(5) 0.3543(7) 0.79797(5)
N12H N 0.5507(5) 0.5279(7) 0.80215(6)
C66F C 0.5757(7) 0.5391(8) 0.79236(8)
H74F H 0.5386 0.5421 0.7871
C67F C 0.6618(7) 0.5478(9) 0.78878(7)
C68F C 0.6767(8) 0.5500(12) 0.77786(8)
H75F H 0.6331 0.5450 0.7730
C69F C 0.7583(8) 0.5599(12) 0.77367(7)
C70F C 0.8209(8) 0.5687(11) 0.78123(8)
H76F H 0.8752 0.5769 0.7787
C71F C 0.8066(6) 0.5659(8) 0.79226(7)
C72F C 0.7248(6) 0.5539(7) 0.79618(7)
H77F H 0.7134 0.5500 0.8037
C73F C 0.8748(6) 0.5756(7) 0.80033(7)
H78F H 0.8577 0.5631 0.8077
C74F C 1.0098(6) 0.6000(6) 0.80690(7)
H79F H 0.9744 0.5779 0.8136
C75F C 1.0858(7) 0.6951(7) 0.80869(8)
H80F H 1.0615 0.7331 0.8106
H81F H 1.1195 0.7176 0.8019
C76F C 1.1481(7) 0.6979(8) 0.81798(9)
H82F H 1.1979 0.7582 0.8187
H83F H 1.1158 0.6812 0.8249
C77F C 1.1827(6) 0.6357(7) 0.81558(10)
H84F H 1.2170 0.6349 0.8218
H85F H 1.2225 0.6580 0.8093
C78F C 1.1097(6) 0.5425(7) 0.81323(8)
H86F H 1.0742 0.5172 0.8198
H87F H 1.1356 0.5061 0.8112
C79F C 1.0500(5) 0.5410(6) 0.80395(7)
H88F H 1.0853 0.5634 0.7972
C80F C 0.7684(9) 0.5558(8) 0.76165(10)
C81F C 0.8594(13) 0.6038(15) 0.74538(15)
H89F H 0.9160 0.6352 0.7423
C82F C 0.8521(12) 0.6078(14) 0.75697(16)
H90F H 0.9017 0.6439 0.7613
N11F N 0.9536(5) 0.5993(5) 0.79797(5)
N12F N 0.9772(5) 0.4493(5) 0.80215(6)
C66J C 0.9634(11) 0.4243(7) 0.79236(8)
H74J H 1.0035 0.4614 0.7871
C67J C 0.8860(11) 0.3382(7) 0.78878(7)
C68J C 0.8733(14) 0.3233(8) 0.77786(8)
H75J H 0.9119 0.3669 0.7730
C69J C 0.8016(14) 0.2417(8) 0.77367(7)
C70J C 0.7478(14) 0.1791(8) 0.78123(8)
H76J H 0.7017 0.1248 0.7787
C71J C 0.7593(10) 0.1934(6) 0.79226(7)
C72J C 0.8291(9) 0.2752(6) 0.79618(7)
H77J H 0.8366 0.2866 0.8037
C73J C 0.7008(9) 0.1252(6) 0.80033(7)
H78J H 0.7054 0.1423 0.8077
C74J C 0.5902(8) -0.0098(6) 0.80690(7)
H79J H 0.6035 0.0256 0.8136
C75J C 0.6093(10) -0.0858(7) 0.80869(8)
H80J H 0.6716 -0.0615 0.8106
H81J H 0.5981 -0.1195 0.8019
C76J C 0.5498(11) -0.1481(7) 0.81798(9)
H82J H 0.5603 -0.1979 0.8187
H83J H 0.5654 -0.1158 0.8249
C77J C 0.4530(9) -0.1827(6) 0.81558(10)
H84J H 0.4179 -0.2170 0.8218
H85J H 0.4355 -0.2225 0.8093
C78J C 0.4328(9) -0.1097(6) 0.81323(8)
H86J H 0.4430 -0.0742 0.8198
H87J H 0.3705 -0.1356 0.8112
C79J C 0.4910(8) -0.0500(5) 0.80395(7)
H88J H 0.4781 -0.0853 0.7972
C80J C 0.7874(12) 0.2316(9) 0.76165(10)
C81J C 0.7444(20) 0.1406(13) 0.74538(15)
H89J H 0.7192 0.0840 0.7423
C82J C 0.7557(18) 0.1479(12) 0.75697(16)
H90J H 0.7422 0.0983 0.7613
N11J N 0.6457(7) 0.0464(5) 0.79797(5)
N12J N 0.4721(7) 0.0228(5) 0.80215(6)
C83? C -0.0413(9) 0.1079(9) 0.49289(9)
H91? H -0.0711 0.0603 0.4881
C84? C -0.0651(9) 0.0943(9) 0.50385(9)
H92? H -0.1088 0.0382 0.5062
C85? C 0.5010(18) 0.2943(15) 0.7564(2)
H93? H 0.5408 0.3423 0.7607
C86? C 0.5003(16) 0.3066(15) 0.74488(18)
H94? H 0.5357 0.3624 0.7417
loop_
_geom_bond_atom_site_label_1
_geom_bond_atom_site_label_2
_geom_bond_site_symmetry_1
_geom_bond_site_symmetry_2
C1 H1 1_555 1_555
C2 C1 1_555 1_555
C3 C2 1_555 1_555
H2 C3 1_555 1_555
C4 H3 1_555 1_555
C5 C4 1_555 1_555
H4 C5 1_555 1_555
H5 C5 1_555 1_555
C6 C5 1_555 1_555
H6 C6 1_555 1_555
H7 C6 1_555 1_555
C7 C6 1_555 1_555
H8 C7 1_555 1_555
H9 C7 1_555 1_555
C8 C7 1_555 1_555
H10 C8 1_555 1_555
H11 C8 1_555 1_555
C9 C4 1_555 1_555
H12 C9 1_555 1_555
C10 H13 1_555 1_555
C11 C10 1_555 1_555
C12 C11 1_555 1_555
H14 C12 1_555 1_555
C13 C12 1_555 1_555
C14 C13 1_555 1_555
H15 C14 1_555 1_555
C15 C14 1_555 1_555
C16 C11 1_555 1_555
H16 C16 1_555 1_555
C17 C15 1_555 1_555
H17 C17 1_555 1_555
C18 C13 1_555 1_555
H18 C18 1_555 1_555
C19 H19 1_555 1_555
C20 C19 1_555 1_555
H20 C20 1_555 1_555
H21 C20 1_555 1_555
C21 C20 1_555 1_555
H22 C21 1_555 1_555
H23 C21 1_555 1_555
C22 C21 1_555 1_555
H24 C22 1_555 1_555
H25 C22 1_555 1_555
C23 C22 1_555 1_555
H26 C23 1_555 1_555
H27 C23 1_555 1_555
C24 C19 1_555 1_555
H28 C24 1_555 1_555
N1 C3 1_555 1_555
N2 C9 1_555 1_555
N3 C18 1_555 1_555
N4 C24 1_555 1_555
C25 H29 1_555 1_555
C26 C25 1_555 1_555
C27 C26 1_555 1_555
H30 C27 1_555 1_555
C28 C26 1_555 1_555
H31 C28 1_555 1_555
C29 H32 1_555 1_555
C30 C29 1_555 1_555
H33 C30 1_555 1_555
H34 C30 1_555 1_555
C31 C30 1_555 1_555
H35 C31 1_555 1_555
H36 C31 1_555 1_555
C32 C31 1_555 1_555
H37 C32 1_555 1_555
H38 C32 1_555 1_555
C33 C32 1_555 1_555
H39 C33 1_555 1_555
H40 C33 1_555 1_555
C34 C29 1_555 1_555
H41 C34 1_555 1_555
C35 H42 1_555 1_555
C36 C35 1_555 1_555
C37 C36 1_555 1_555
H43 C37 1_555 1_555
C38 C37 1_555 1_555
C39 C38 1_555 1_555
H44 C39 1_555 1_555
C40 H45 1_555 1_555
C41 C40 1_555 1_555
H46 C41 1_555 1_555
H47 C41 1_555 1_555
C42 C41 1_555 1_555
H48 C42 1_555 1_555
H49 C42 1_555 1_555
C43 C42 1_555 1_555
H50 C43 1_555 1_555
H51 C43 1_555 1_555
C44 C43 1_555 1_555
H52 C44 1_555 1_555
H53 C44 1_555 1_555
C45 C40 1_555 1_555
H54 C45 1_555 1_555
C46 H55 1_555 1_555
C47 C46 1_555 1_555
C48 C47 1_555 1_555
H56 C48 1_555 1_555
N5 C28 1_555 1_555
N6 C34 1_555 1_555
N7 C39 1_555 1_555
N8 C45 1_555 1_555
C49 H57 1_555 1_555
C50 H58 1_555 1_555
C51 C50 1_555 1_555
H59 C51 1_555 1_555
H60 C51 1_555 1_555
C52 C51 1_555 1_555
H61 C52 1_555 1_555
H62 C52 1_555 1_555
C53 C52 1_555 1_555
H63 C53 1_555 1_555
H64 C53 1_555 1_555
C54 C53 1_555 1_555
H65 C54 1_555 1_555
H66 C54 1_555 1_555
C55 C50 1_555 1_555
H67 C55 1_555 1_555
C56 H68 1_555 1_555
C57 C56 1_555 1_555
C58 C57 1_555 1_555
H69 C58 1_555 1_555
C59 C58 1_555 1_555
C60 C59 1_555 1_555
H70 C60 1_555 1_555
C61 C60 1_555 1_555
C62 C57 1_555 1_555
H71 C62 1_555 1_555
C63 C61 1_555 1_555
C64 C63 1_555 1_555
H72 C64 1_555 1_555
C65 C64 1_555 1_555
H73 C65 1_555 1_555
N9 C55 1_555 1_555
N10 C49 1_555 1_555
C66 H74 1_555 1_555
C67 C66 1_555 1_555
C68 C67 1_555 1_555
H75 C68 1_555 1_555
C69 C68 1_555 1_555
C70 C69 1_555 1_555
H76 C70 1_555 1_555
C71 C70 1_555 1_555
C72 C67 1_555 1_555
H77 C72 1_555 1_555
C73 C71 1_555 1_555
H78 C73 1_555 1_555
C74 H79 1_555 1_555
C75 C74 1_555 1_555
H80 C75 1_555 1_555
H81 C75 1_555 1_555
C76 C75 1_555 1_555
H82 C76 1_555 1_555
H83 C76 1_555 1_555
C77 C76 1_555 1_555
H84 C77 1_555 1_555
H85 C77 1_555 1_555
C78 C77 1_555 1_555
H86 C78 1_555 1_555
H87 C78 1_555 1_555
C79 C74 1_555 1_555
H88 C79 1_555 1_555
C80 C69 1_555 1_555
C81 H89 1_555 1_555
C82 C80 1_555 1_555
H90 C82 1_555 1_555
N11 C73 1_555 1_555
N12 C79 1_555 1_555
C1B C2 1_555 1_555
H1B C1B 1_555 1_555
C2B C1B 1_555 1_555
C3B C2B 1_555 1_555
H2B C3B 1_555 1_555
C4B H3B 1_555 1_555
C5B C4B 1_555 1_555
H4B C5B 1_555 1_555
H5B C5B 1_555 1_555
C6B C5B 1_555 1_555
H6B C6B 1_555 1_555
H7B C6B 1_555 1_555
C7B C6B 1_555 1_555
H8B C7B 1_555 1_555
H9B C7B 1_555 1_555
C8B C7B 1_555 1_555
H10B C8B 1_555 1_555
H11B C8B 1_555 1_555
C9B C4B 1_555 1_555
H12B C9B 1_555 1_555
C10B H13B 1_555 1_555
C11B C10B 1_555 1_555
C12B C11B 1_555 1_555
H14B C12B 1_555 1_555
C13B C12B 1_555 1_555
C14B C13B 1_555 1_555
H15B C14B 1_555 1_555
C15B C14B 1_555 1_555
C16B C11B 1_555 1_555
H16B C16B 1_555 1_555
C17B C15B 1_555 1_555
H17B C17B 1_555 1_555
C18B C13B 1_555 1_555
H18B C18B 1_555 1_555
C19B H19B 1_555 1_555
C20B C19B 1_555 1_555
H20B C20B 1_555 1_555
H21B C20B 1_555 1_555
C21B C20B 1_555 1_555
H22B C21B 1_555 1_555
H23B C21B 1_555 1_555
C22B C21B 1_555 1_555
H24B C22B 1_555 1_555
H25B C22B 1_555 1_555
C23B C22B 1_555 1_555
H26B C23B 1_555 1_555
H27B C23B 1_555 1_555
C24B C19B 1_555 1_555
H28B C24B 1_555 1_555
N1B C3B 1_555 1_555
N2B C9B 1_555 1_555
N3B C18B 1_555 1_555
N4B C17 1_555 1_555
C1D C2B 1_555 1_555
H1D C1D 1_555 1_555
C2D C1 1_555 1_555
C3D C2D 1_555 1_555
H2D C3D 1_555 1_555
C4D H3D 1_555 1_555
C5D C4D 1_555 1_555
H4D C5D 1_555 1_555
H5D C5D 1_555 1_555
C6D C5D 1_555 1_555
H6D C6D 1_555 1_555
H7D C6D 1_555 1_555
C7D C6D 1_555 1_555
H8D C7D 1_555 1_555
H9D C7D 1_555 1_555
C8D C7D 1_555 1_555
H10D C8D 1_555 1_555
H11D C8D 1_555 1_555
C9D C4D 1_555 1_555
H12D C9D 1_555 1_555
C10D H13D 1_555 1_555
C11D C10D 1_555 1_555
C12D C11D 1_555 1_555
H14D C12D 1_555 1_555
C13D C12D 1_555 1_555
C14D C13D 1_555 1_555
H15D C14D 1_555 1_555
C15D C14D 1_555 1_555
C16D C11D 1_555 1_555
H16D C16D 1_555 1_555
C17D N4 1_555 1_555
H17D C17D 1_555 1_555
C18D C13D 1_555 1_555
H18D C18D 1_555 1_555
C19D H19D 1_555 1_555
C20D C19D 1_555 1_555
H20D C20D 1_555 1_555
H21D C20D 1_555 1_555
C21D C20D 1_555 1_555
H22D C21D 1_555 1_555
H23D C21D 1_555 1_555
C22D C21D 1_555 1_555
H24D C22D 1_555 1_555
H25D C22D 1_555 1_555
C23D C22D 1_555 1_555
H26D C23D 1_555 1_555
H27D C23D 1_555 1_555
C24D C19D 1_555 1_555
H28D C24D 1_555 1_555
N1D C3D 1_555 1_555
N2D C9D 1_555 1_555
N3D C18D 1_555 1_555
N4D C17B 1_555 1_555
C25B C38 1_555 1_555
H29B C25B 1_555 1_555
C26B C25B 1_555 1_555
C27B C36 1_555 1_555
H30B C27B 1_555 1_555
C28B C26B 1_555 1_555
H31B C28B 1_555 1_555
C29B H32B 1_555 1_555
C30B C29B 1_555 1_555
H33B C30B 1_555 1_555
H34B C30B 1_555 1_555
C31B C30B 1_555 1_555
H35B C31B 1_555 1_555
H36B C31B 1_555 1_555
C32B C31B 1_555 1_555
H37B C32B 1_555 1_555
H38B C32B 1_555 1_555
C33B C32B 1_555 1_555
H39B C33B 1_555 1_555
H40B C33B 1_555 1_555
C34B C29B 1_555 1_555
H41B C34B 1_555 1_555
C35B H42B 1_555 1_555
C36B C35B 1_555 1_555
C37B C36B 1_555 1_555
H43B C37B 1_555 1_555
C38B C37B 1_555 1_555
C39B C38B 1_555 1_555
H44B C39B 1_555 1_555
C40B H45B 1_555 1_555
C41B C40B 1_555 1_555
H46B C41B 1_555 1_555
H47B C41B 1_555 1_555
C42B C41B 1_555 1_555
H48B C42B 1_555 1_555
H49B C42B 1_555 1_555
C43B C42B 1_555 1_555
H50B C43B 1_555 1_555
H51B C43B 1_555 1_555
C44B C43B 1_555 1_555
H52B C44B 1_555 1_555
H53B C44B 1_555 1_555
C45B C40B 1_555 1_555
H54B C45B 1_555 1_555
C46B H55B 1_555 1_555
C47B C46B 1_555 1_555
C48B C47 1_555 1_555
H56B C48B 1_555 1_555
N5B C28B 1_555 1_555
N6B C34B 1_555 1_555
N7B C39B 1_555 1_555
N8B C45B 1_555 1_555
C25D C38B 1_555 1_555
H29D C25D 1_555 1_555
C26D C25D 1_555 1_555
C27D C36B 1_555 1_555
H30D C27D 1_555 1_555
C28D C26D 1_555 1_555
H31D C28D 1_555 1_555
C29D H32D 1_555 1_555
C30D C29D 1_555 1_555
H33D C30D 1_555 1_555
H34D C30D 1_555 1_555
C31D C30D 1_555 1_555
H35D C31D 1_555 1_555
H36D C31D 1_555 1_555
C32D C31D 1_555 1_555
H37D C32D 1_555 1_555
H38D C32D 1_555 1_555
C33D C32D 1_555 1_555
H39D C33D 1_555 1_555
H40D C33D 1_555 1_555
C34D C29D 1_555 1_555
H41D C34D 1_555 1_555
C35D H42D 1_555 1_555
C36D C27 1_555 1_555
C37D C36D 1_555 1_555
H43D C37D 1_555 1_555
C38D C25 1_555 1_555
C39D C38D 1_555 1_555
H44D C39D 1_555 1_555
C40D H45D 1_555 1_555
C41D C40D 1_555 1_555
H46D C41D 1_555 1_555
H47D C41D 1_555 1_555
C42D C41D 1_555 1_555
H48D C42D 1_555 1_555
H49D C42D 1_555 1_555
C43D C42D 1_555 1_555
H50D C43D 1_555 1_555
H51D C43D 1_555 1_555
C44D C43D 1_555 1_555
H52D C44D 1_555 1_555
H53D C44D 1_555 1_555
C45D C40D 1_555 1_555
H54D C45D 1_555 1_555
C46D H55D 1_555 1_555
C47D C48 1_555 1_555
C48D C47B 1_555 1_555
H56D C48D 1_555 1_555
N5D C28D 1_555 1_555
N6D C34D 1_555 1_555
N7D C39D 1_555 1_555
N8D C45D 1_555 1_555
C49B C59 1_555 1_555
H57B C49B 1_555 1_555
C50B H58B 1_555 1_555
C51B C50B 1_555 1_555
H59B C51B 1_555 1_555
H60B C51B 1_555 1_555
C52B C51B 1_555 1_555
H61B C52B 1_555 1_555
H62B C52B 1_555 1_555
C53B C52B 1_555 1_555
H63B C53B 1_555 1_555
H64B C53B 1_555 1_555
C54B C53B 1_555 1_555
H65B C54B 1_555 1_555
H66B C54B 1_555 1_555
C55B C50B 1_555 1_555
H67B C55B 1_555 1_555
C56B H68B 1_555 1_555
C57B C56B 1_555 1_555
C58B C57B 1_555 1_555
H69B C58B 1_555 1_555
C59B C58B 1_555 1_555
C60B C59B 1_555 1_555
H70B C60B 1_555 1_555
C61B C60B 1_555 1_555
C62B C57B 1_555 1_555
H71B C62B 1_555 1_555
C63B C61B 1_555 1_555
C64B C63B 1_555 1_555
H72B C64B 1_555 1_555
C65B C64B 1_555 1_555
H73B C65B 1_555 1_555
N9B C55B 1_555 1_555
N10B C49B 1_555 1_555
C49D C59B 1_555 1_555
H57D C49D 1_555 1_555
C50D H58D 1_555 1_555
C51D C50D 1_555 1_555
H59D C51D 1_555 1_555
H60D C51D 1_555 1_555
C52D C51D 1_555 1_555
H61D C52D 1_555 1_555
H62D C52D 1_555 1_555
C53D C52D 1_555 1_555
H63D C53D 1_555 1_555
H64D C53D 1_555 1_555
C54D C53D 1_555 1_555
H65D C54D 1_555 1_555
H66D C54D 1_555 1_555
C55D C50D 1_555 1_555
H67D C55D 1_555 1_555
C56D H68D 1_555 1_555
C57D C56D 1_555 1_555
C58D C57D 1_555 1_555
H69D C58D 1_555 1_555
C59D C49 1_555 1_555
C60D C59D 1_555 1_555
H70D C60D 1_555 1_555
C61D C60D 1_555 1_555
C62D C57D 1_555 1_555
H71D C62D 1_555 1_555
C63D C61D 1_555 1_555
C64D C63D 1_555 1_555
H72D C64D 1_555 1_555
C65D C64D 1_555 1_555
H73D C65D 1_555 1_555
N9D C55D 1_555 1_555
N10D C49D 1_555 1_555
C49I H57I 1_555 1_555
C50I H58I 1_555 1_555
C51I C50I 1_555 1_555
H59I C51I 1_555 1_555
H60I C51I 1_555 1_555
C52I C51I 1_555 1_555
H61I C52I 1_555 1_555
H62I C52I 1_555 1_555
C53I C52I 1_555 1_555
H63I C53I 1_555 1_555
H64I C53I 1_555 1_555
C54I C53I 1_555 1_555
H65I C54I 1_555 1_555
H66I C54I 1_555 1_555
C55I C50I 1_555 1_555
H67I C55I 1_555 1_555
C56I H68I 1_555 1_555
C57I C56I 1_555 1_555
C58I C57I 1_555 1_555
H69I C58I 1_555 1_555
C59I C58I 1_555 1_555
C60I C59I 1_555 1_555
H70I C60I 1_555 1_555
C61I C60I 1_555 1_555
C62I C57I 1_555 1_555
H71I C62I 1_555 1_555
C63I C65D 1_555 1_555
C64I C63I 1_555 1_555
H72I C64I 1_555 1_555
C65I C63D 1_555 1_555
H73I C65I 1_555 1_555
N9I C55I 1_555 1_555
N10I C49I 1_555 1_555
C49K H57K 1_555 1_555
C50K H58K 1_555 1_555
C51K C50K 1_555 1_555
H59K C51K 1_555 1_555
H60K C51K 1_555 1_555
C52K C51K 1_555 1_555
H61K C52K 1_555 1_555
H62K C52K 1_555 1_555
C53K C52K 1_555 1_555
H63K C53K 1_555 1_555
H64K C53K 1_555 1_555
C54K C53K 1_555 1_555
H65K C54K 1_555 1_555
H66K C54K 1_555 1_555
C55K C50K 1_555 1_555
H67K C55K 1_555 1_555
C56K H68K 1_555 1_555
C57K C56K 1_555 1_555
C58K C57K 1_555 1_555
H69K C58K 1_555 1_555
C59K C49I 1_555 1_555
C60K C59K 1_555 1_555
H70K C60K 1_555 1_555
C61K C60K 1_555 1_555
C62K C57K 1_555 1_555
H71K C62K 1_555 1_555
C63K C65 1_555 1_555
C64K C63K 1_555 1_555
H72K C64K 1_555 1_555
C65K C63 1_555 1_555
H73K C65K 1_555 1_555
N9K C55K 1_555 1_555
N10K C49K 1_555 1_555
C49G C59I 1_555 1_555
H57G C49G 1_555 1_555
C50G H58G 1_555 1_555
C51G C50G 1_555 1_555
H59G C51G 1_555 1_555
H60G C51G 1_555 1_555
C52G C51G 1_555 1_555
H61G C52G 1_555 1_555
H62G C52G 1_555 1_555
C53G C52G 1_555 1_555
H63G C53G 1_555 1_555
H64G C53G 1_555 1_555
C54G C53G 1_555 1_555
H65G C54G 1_555 1_555
H66G C54G 1_555 1_555
C55G C50G 1_555 1_555
H67G C55G 1_555 1_555
C56G H68G 1_555 1_555
C57G C56G 1_555 1_555
C58G C57G 1_555 1_555
H69G C58G 1_555 1_555
C59G C49K 1_555 1_555
C60G C59G 1_555 1_555
H70G C60G 1_555 1_555
C61G C60G 1_555 1_555
C62G C57G 1_555 1_555
H71G C62G 1_555 1_555
C63G C65B 1_555 1_555
C64G C63G 1_555 1_555
H72G C64G 1_555 1_555
C65G C63B 1_555 1_555
H73G C65G 1_555 1_555
N9G C55G 1_555 1_555
N10G C49G 1_555 1_555
C66B N12 1_555 1_555
H74B C66B 1_555 1_555
C67B C66B 1_555 1_555
C68B C67B 1_555 1_555
H75B C68B 1_555 1_555
C69B C68B 1_555 1_555
C70B C69B 1_555 1_555
H76B C70B 1_555 1_555
C71B C70B 1_555 1_555
C72B C67B 1_555 1_555
H77B C72B 1_555 1_555
C73B C71B 1_555 1_555
H78B C73B 1_555 1_555
C74B H79B 1_555 1_555
C75B C74B 1_555 1_555
H80B C75B 1_555 1_555
H81B C75B 1_555 1_555
C76B C75B 1_555 1_555
H82B C76B 1_555 1_555
H83B C76B 1_555 1_555
C77B C76B 1_555 1_555
H84B C77B 1_555 1_555
H85B C77B 1_555 1_555
C78B C77B 1_555 1_555
H86B C78B 1_555 1_555
H87B C78B 1_555 1_555
C79B C74B 1_555 1_555
H88B C79B 1_555 1_555
C80B C69B 1_555 1_555
C81B H89B 1_555 1_555
C82B C80B 1_555 1_555
H90B C82B 1_555 1_555
N11B C73B 1_555 1_555
N12B C79B 1_555 1_555
C66D N12B 1_555 1_555
H74D C66D 1_555 1_555
C67D C66D 1_555 1_555
C68D C67D 1_555 1_555
H75D C68D 1_555 1_555
C69D C68D 1_555 1_555
C70D C69D 1_555 1_555
H76D C70D 1_555 1_555
C71D C70D 1_555 1_555
C72D C67D 1_555 1_555
H77D C72D 1_555 1_555
C73D C71D 1_555 1_555
H78D C73D 1_555 1_555
C74D H79D 1_555 1_555
C75D C74D 1_555 1_555
H80D C75D 1_555 1_555
H81D C75D 1_555 1_555
C76D C75D 1_555 1_555
H82D C76D 1_555 1_555
H83D C76D 1_555 1_555
C77D C76D 1_555 1_555
H84D C77D 1_555 1_555
H85D C77D 1_555 1_555
C78D C77D 1_555 1_555
H86D C78D 1_555 1_555
H87D C78D 1_555 1_555
C79D C74D 1_555 1_555
H88D C79D 1_555 1_555
C80D C69D 1_555 1_555
C81D H89D 1_555 1_555
C82D C80D 1_555 1_555
H90D C82D 1_555 1_555
N11D C73D 1_555 1_555
N12D C66 1_555 1_555
C66H H74H 1_555 1_555
C67H C66H 1_555 1_555
C68H C67H 1_555 1_555
H75H C68H 1_555 1_555
C69H C68H 1_555 1_555
C70H C69H 1_555 1_555
H76H C70H 1_555 1_555
C71H C70H 1_555 1_555
C72H C67H 1_555 1_555
H77H C72H 1_555 1_555
C73H C71H 1_555 1_555
H78H C73H 1_555 1_555
C74H H79H 1_555 1_555
C75H C74H 1_555 1_555
H80H C75H 1_555 1_555
H81H C75H 1_555 1_555
C76H C75H 1_555 1_555
H82H C76H 1_555 1_555
H83H C76H 1_555 1_555
C77H C76H 1_555 1_555
H84H C77H 1_555 1_555
H85H C77H 1_555 1_555
C78H C77H 1_555 1_555
H86H C78H 1_555 1_555
H87H C78H 1_555 1_555
C79H C74H 1_555 1_555
H88H C79H 1_555 1_555
C80H C81 1_555 1_555
C81H C80 1_555 1_555
H89H C81H 1_555 1_555
C82H C80H 1_555 1_555
H90H C82H 1_555 1_555
N11H C73H 1_555 1_555
N12H C79H 1_555 1_555
C66F N12H 1_555 1_555
H74F C66F 1_555 1_555
C67F C66F 1_555 1_555
C68F C67F 1_555 1_555
H75F C68F 1_555 1_555
C69F C68F 1_555 1_555
C70F C69F 1_555 1_555
H76F C70F 1_555 1_555
C71F C70F 1_555 1_555
C72F C67F 1_555 1_555
H77F C72F 1_555 1_555
C73F C71F 1_555 1_555
H78F C73F 1_555 1_555
C74F H79F 1_555 1_555
C75F C74F 1_555 1_555
H80F C75F 1_555 1_555
H81F C75F 1_555 1_555
C76F C75F 1_555 1_555
H82F C76F 1_555 1_555
H83F C76F 1_555 1_555
C77F C76F 1_555 1_555
H84F C77F 1_555 1_555
H85F C77F 1_555 1_555
C78F C77F 1_555 1_555
H86F C78F 1_555 1_555
H87F C78F 1_555 1_555
C79F C74F 1_555 1_555
H88F C79F 1_555 1_555
C80F C81D 1_555 1_555
C81F C80D 1_555 1_555
H89F C81F 1_555 1_555
C82F C80F 1_555 1_555
H90F C82F 1_555 1_555
N11F C73F 1_555 1_555
N12F C79F 1_555 1_555
C66J N12F 1_555 1_555
H74J C66J 1_555 1_555
C67J C66J 1_555 1_555
C68J C67J 1_555 1_555
H75J C68J 1_555 1_555
C69J C68J 1_555 1_555
C70J C69J 1_555 1_555
H76J C70J 1_555 1_555
C71J C70J 1_555 1_555
C72J C67J 1_555 1_555
H77J C72J 1_555 1_555
C73J C71J 1_555 1_555
H78J C73J 1_555 1_555
C74J H79J 1_555 1_555
C75J C74J 1_555 1_555
H80J C75J 1_555 1_555
H81J C75J 1_555 1_555
C76J C75J 1_555 1_555
H82J C76J 1_555 1_555
H83J C76J 1_555 1_555
C77J C76J 1_555 1_555
H84J C77J 1_555 1_555
H85J C77J 1_555 1_555
C78J C77J 1_555 1_555
H86J C78J 1_555 1_555
H87J C78J 1_555 1_555
C79J C74J 1_555 1_555
H88J C79J 1_555 1_555
C80J C81B 1_555 1_555
C81J C80B 1_555 1_555
H89J C81J 1_555 1_555
C82J C80J 1_555 1_555
H90J C82J 1_555 1_555
N11J C73J 1_555 1_555
N12J C66H 1_555 1_555
C4 N1 1_555 1_555
C8 C9 1_555 1_555
C10 N2 1_555 1_555
C15 C16 1_555 1_555
C19 N3 1_555 1_555
C23 C24 1_555 1_555
C29 N5 1_555 1_555
C33 C34 1_555 1_555
C35 N6 1_555 1_555
C40 N7 1_555 1_555
C44 C45 1_555 1_555
C46 N8 1_555 1_555
C50 N10 1_555 1_555
C54 C55 1_555 1_555
C56 N9 1_555 1_555
C61 C62 1_555 1_555
C71 C72 1_555 1_555
C74 N11 1_555 1_555
C78 C79 1_555 1_555
C81 C82 1_555 1_555
C4B N1B 1_555 1_555
C8B C9B 1_555 1_555
C10B N2B 1_555 1_555
C15B C16B 1_555 1_555
C19B N3B 1_555 1_555
C23B C24B 1_555 1_555
C24B N4B 1_555 1_555
C1D C2D 1_555 1_555
C4D N1D 1_555 1_555
C8D C9D 1_555 1_555
C10D N2D 1_555 1_555
C15D C16D 1_555 1_555
C15D C17D 1_555 1_555
C19D N3D 1_555 1_555
C23D C24D 1_555 1_555
C24D N4D 1_555 1_555
C26B C27B 1_555 1_555
C29B N5B 1_555 1_555
C33B C34B 1_555 1_555
C35B N6B 1_555 1_555
C40B N7B 1_555 1_555
C44B C45B 1_555 1_555
C46B N8B 1_555 1_555
C47B C48B 1_555 1_555
C26D C27D 1_555 1_555
C29D N5D 1_555 1_555
C33D C34D 1_555 1_555
C35D C36D 1_555 1_555
C35D N6D 1_555 1_555
C37D C38D 1_555 1_555
C40D N7D 1_555 1_555
C44D C45D 1_555 1_555
C46D C47D 1_555 1_555
C46D N8D 1_555 1_555
C47D C48D 1_555 1_555
C50B N10B 1_555 1_555
C54B C55B 1_555 1_555
C56B N9B 1_555 1_555
C61B C62B 1_555 1_555
C50D N10D 1_555 1_555
C54D C55D 1_555 1_555
C56D N9D 1_555 1_555
C58D C59D 1_555 1_555
C61D C62D 1_555 1_555
C50I N10I 1_555 1_555
C54I C55I 1_555 1_555
C56I N9I 1_555 1_555
C61I C62I 1_555 1_555
C61I C63I 1_555 1_555
C64I C65I 1_555 1_555
C50K N10K 1_555 1_555
C54K C55K 1_555 1_555
C56K N9K 1_555 1_555
C58K C59K 1_555 1_555
C61K C62K 1_555 1_555
C61K C63K 1_555 1_555
C64K C65K 1_555 1_555
C50G N10G 1_555 1_555
C54G C55G 1_555 1_555
C56G N9G 1_555 1_555
C58G C59G 1_555 1_555
C61G C62G 1_555 1_555
C61G C63G 1_555 1_555
C64G C65G 1_555 1_555
C71B C72B 1_555 1_555
C74B N11B 1_555 1_555
C78B C79B 1_555 1_555
C81B C82B 1_555 1_555
C71D C72D 1_555 1_555
C74D N11D 1_555 1_555
C78D C79D 1_555 1_555
C79D N12D 1_555 1_555
C81D C82D 1_555 1_555
C69H C80H 1_555 1_555
C71H C72H 1_555 1_555
C74H N11H 1_555 1_555
C78H C79H 1_555 1_555
C81H C82H 1_555 1_555
C69F C80F 1_555 1_555
C71F C72F 1_555 1_555
C74F N11F 1_555 1_555
C78F C79F 1_555 1_555
C81F C82F 1_555 1_555
C69J C80J 1_555 1_555
C71J C72J 1_555 1_555
C74J N11J 1_555 1_555
C78J C79J 1_555 1_555
C79J N12J 1_555 1_555
C81J C82J 1_555 1_555

#END
