
#######################################################################
#
#                 Cambridge Crystallographic Data Centre
#                                CCDC 
#
#######################################################################
#
# If this CIF has been generated from an entry in the Cambridge 
# Structural Database, then it will include bibliographic, chemical, 
# crystal, experimental, refinement or atomic coordinate data resulting 
# from the CCDC's data processing and validation procedures.
#
#######################################################################

data_ABIMIK
_chemical_name_common            
'rac-TCC2 acetone dichloromethane solvate hydrate'
_chemical_formula_moiety         
'C102 H102 N12,3.46(C3 H6 O1),2.88(C1 H2 Cl2),3.25(H2 O1)'
_chemical_name_systematic        
'rac-5,7,11,13,19,21,25,27,30,32,36,38-dodecaaza-6,12,20,26,31,37(1,2)-hexacyclohexana-1,3,9,15,17,23(1,3,5),2,16,24(1,4)-nonabenzenatetracyclo[15.11.5.5^3,15^.1^9,23^]nonatriacontaphane-4,7,10,13,18,21,24,27,29,32,35,38-dodecane acetone dichloromethane solvate hydrate'
_symmetry_cell_setting           monoclinic
_symmetry_space_group_name_H-M   'C c'
_symmetry_Int_Tables_number      9
_space_group_name_Hall           'C -2yc'
loop_
_symmetry_equiv_pos_site_id
_symmetry_equiv_pos_as_xyz
1 x,y,z
2 x,-y,1/2+z
3 1/2+x,1/2+y,z
4 1/2+x,1/2-y,1/2+z
_cell_length_a                   28.157(4)
_cell_length_b                   22.837(3)
_cell_length_c                   18.131(2)
_cell_angle_alpha                90
_cell_angle_beta                 94.162(3)
_cell_angle_gamma                90
_cell_volume                     11627.9
_exptl_crystal_colour            colorless
_exptl_crystal_description       needle
_cell_formula_units_Z            4
loop_
_atom_site_label
_atom_site_type_symbol
_atom_site_fract_x
_atom_site_fract_y
_atom_site_fract_z
N1 N 0.7075(6) 0.9606(3) 0.5382(10)
N2 N 0.6511(6) 0.9286(3) 0.6556(10)
N3 N 0.6257(6) 0.6668(3) 0.7665(10)
N4 N 0.6512(6) 0.5780(3) 0.6676(10)
N5 N 0.7673(6) 0.6483(3) 0.3841(10)
N6 N 0.7692(6) 0.7616(3) 0.3172(10)
N7 N 0.3631(6) 0.9500(3) 0.0702(10)
N8 N 0.3072(6) 0.9610(3) 0.1951(10)
N9 N 0.2424(6) 0.7588(3) 0.4110(10)
N10 N 0.2440(6) 0.6424(3) 0.3604(10)
N11 N 0.3866(6) 0.6796(3) -0.0217(10)
N12 N 0.3695(6) 0.5907(3) 0.0856(10)
C1 C 0.7172(6) 0.8308(3) 0.3716(10)
C2 C 0.6791(6) 0.8270(3) 0.3182(10)
H1 H 0.6796 0.7976 0.2812
C3 C 0.6405(6) 0.8649(3) 0.3174(10)
C4 C 0.3250(7) 0.5201(5) -0.0954(11)
H2 H 0.3203 0.4785 -0.1094
H3 H 0.2938 0.5401 -0.1024
C5 C 0.6401(6) 0.9071(4) 0.3736(10)
H4 H 0.6143 0.9338 0.3742
C6 C 0.6772(6) 0.9102(3) 0.4288(10)
C7 C 0.7152(6) 0.8716(3) 0.4275(10)
H5 H 0.7402 0.8733 0.4657
C8 C 0.6001(6) 0.8618(4) 0.2588(10)
C9 C 0.6055(6) 0.8330(4) 0.1916(11)
H6 H 0.6359 0.8190 0.1803
C10 C 0.5662(6) 0.8250(4) 0.1414(11)
H7 H 0.5700 0.8039 0.0971
C11 C 0.5215(6) 0.8472(4) 0.1545(11)
C12 C 0.5176(6) 0.8774(4) 0.2191(11)
H8 H 0.4876 0.8936 0.2289
C13 C 0.5557(6) 0.8853(4) 0.2706(11)
H9 H 0.5516 0.9071 0.3144
C14 C 0.4789(6) 0.8324(4) 0.1047(11)
C15 C 0.4734(6) 0.7776(4) 0.0718(10)
H10 H 0.4993 0.7508 0.0761
C16 C 0.4310(6) 0.7607(4) 0.0328(10)
C17 C 0.3949(6) 0.8008(4) 0.0238(10)
H11 H 0.3659 0.7899 -0.0026
C18 C 0.4000(6) 0.8581(4) 0.0530(10)
C19 C 0.4418(6) 0.8722(4) 0.0945(11)
H12 H 0.4451 0.9099 0.1164
C20 C 0.7594(6) 0.7927(4) 0.3714(10)
H13 H 0.7805 0.7915 0.4147
C21 C 0.6747(6) 0.9541(3) 0.4876(10)
H14 H 0.6474 0.9785 0.4876
C22 C 0.4258(6) 0.6995(4) 0.0077(10)
H15 H 0.4525 0.6742 0.0136
C23 C 0.3597(6) 0.8981(4) 0.0468(10)
H16 H 0.3301 0.8848 0.0246
C24 C 0.6177(6) 0.8336(4) 0.6619(10)
C25 C 0.5772(6) 0.8441(4) 0.6144(11)
H17 H 0.5742 0.8804 0.5888
C26 C 0.5413(6) 0.8031(4) 0.6038(10)
C27 C 0.5454(6) 0.7495(4) 0.6406(10)
H18 H 0.5206 0.7213 0.6335
C28 C 0.5851(6) 0.7371(4) 0.6871(10)
C29 C 0.6212(6) 0.7787(4) 0.6968(10)
H19 H 0.6489 0.7696 0.7278
C30 C 0.4986(6) 0.8146(4) 0.5517(10)
C31 C 0.5039(6) 0.8386(4) 0.4823(11)
H20 H 0.5348 0.8482 0.4683
C32 C 0.4649(6) 0.8488(4) 0.4336(11)
H21 H 0.4695 0.8650 0.3864
C33 C 0.4194(6) 0.8358(4) 0.4518(10)
C34 C 0.4140(6) 0.8127(4) 0.5222(11)
H22 H 0.3831 0.8040 0.5369
C35 C 0.4533(6) 0.8026(5) 0.5701(11)
H23 H 0.4489 0.7867 0.6175
C36 C 0.3770(6) 0.8458(4) 0.3992(10)
C37 C 0.3776(6) 0.8912(4) 0.3465(10)
H24 H 0.4051 0.9152 0.3454
C38 C 0.3388(6) 0.9017(3) 0.2963(10)
C39 C 0.2987(6) 0.8655(3) 0.2984(10)
H25 H 0.2726 0.8707 0.2628
C40 C 0.2965(6) 0.8225(4) 0.3515(10)
C41 C 0.3366(6) 0.8131(4) 0.4012(10)
H26 H 0.3355 0.7830 0.4373
C42 C 0.6558(6) 0.8754(4) 0.6729(11)
H27 H 0.6857 0.8622 0.6940
C43 C 0.5905(6) 0.6791(4) 0.7209(10)
H28 H 0.5673 0.6499 0.7085
C44 C 0.3408(6) 0.9499(3) 0.2431(10)
H29 H 0.3685 0.9738 0.2449
C45 C 0.2530(6) 0.7874(4) 0.3543(10)
H30 H 0.2315 0.7861 0.3114
C46 C 0.6653(6) 0.6064(4) 0.5437(10)
C47 C 0.6175(6) 0.6025(4) 0.5172(11)
H31 H 0.5939 0.5933 0.5503
C48 C 0.6043(6) 0.6120(5) 0.4427(11)
C49 C 0.6393(7) 0.6231(5) 0.3962(11)
H32 H 0.6306 0.6274 0.3449
C50 C 0.6873(6) 0.6286(4) 0.4204(11)
C51 C 0.6994(6) 0.6197(4) 0.4965(11)
H33 H 0.7317 0.6230 0.5152
C52 C 0.4586(6) 0.6068(3) 0.3566(10)
C53 C 0.4718(6) 0.6401(4) 0.4189(10)
H34 H 0.4487 0.6628 0.4417
C54 C 0.5189(6) 0.6401(4) 0.4480(10)
H35 H 0.5279 0.6629 0.4906
C55 C 0.5528(6) 0.6069(3) 0.4147(10)
C56 C 0.5396(6) 0.5736(3) 0.3524(10)
H36 H 0.5627 0.5509 0.3296
C57 C 0.4925(6) 0.5736(3) 0.3233(10)
H37 H 0.4835 0.5508 0.2807
C58 C 0.4087(6) 0.6100(4) 0.3207(11)
C59 C 0.3717(6) 0.6233(5) 0.3649(11)
H38 H 0.3788 0.6296 0.4163
C60 C 0.3245(6) 0.6277(4) 0.3357(11)
C61 C 0.3153(6) 0.6208(4) 0.2575(11)
H39 H 0.2837 0.6246 0.2360
C62 C 0.3519(6) 0.6086(4) 0.2126(10)
C63 C 0.3994(6) 0.6037(4) 0.2436(11)
H40 H 0.4246 0.5964 0.2128
C64 C 0.2877(6) 0.6387(4) 0.3820(11)
H41 H 0.2961 0.6437 0.4333
C65 C 0.3404(6) 0.6034(4) 0.1323(11)
H42 H 0.3084 0.6102 0.1144
C66 C 0.6783(6) 0.5986(4) 0.6237(11)
H43 H 0.7094 0.6101 0.6423
C67 C 0.7228(7) 0.6415(4) 0.3680(11)
H44 H 0.7118 0.6453 0.3174
C68 C 0.6934(6) 0.9660(4) 0.6670(10)
H45 H 0.7219 0.9404 0.6766
C69 C 0.6892(6) 1.0059(5) 0.7341(10)
H46 H 0.6603 1.0305 0.7265
H47 H 0.6862 0.9818 0.7789
C70 C 0.7322(7) 1.0442(5) 0.7448(11)
H48 H 0.7609 1.0194 0.7537
H49 H 0.7294 1.0691 0.7891
C71 C 0.7381(6) 1.0832(4) 0.6780(11)
H50 H 0.7671 1.1076 0.6865
H51 H 0.7103 1.1096 0.6700
C72 C 0.7424(6) 1.0430(4) 0.6084(11)
H52 H 0.7443 1.0678 0.5639
H53 H 0.7720 1.0196 0.6148
C73 C 0.7000(6) 1.0022(4) 0.5973(10)
H54 H 0.6705 1.0255 0.5842
C74 C 0.8130(6) 0.7261(4) 0.3265(10)
H55 H 0.8297 0.7349 0.3759
C75 C 0.8455(7) 0.7393(5) 0.2681(11)
H56 H 0.8553 0.7809 0.2714
H57 H 0.8287 0.7327 0.2189
C76 C 0.8901(7) 0.6995(7) 0.2773(11)
H58 H 0.9111 0.7076 0.2371
H59 H 0.9081 0.7083 0.3250
C77 C 0.8758(7) 0.6354(5) 0.2753(11)
H60 H 0.8609 0.6258 0.2256
H61 H 0.9047 0.6109 0.2839
C78 C 0.8425(7) 0.6218(5) 0.3312(11)
H62 H 0.8588 0.6274 0.3809
H63 H 0.8331 0.5801 0.3265
C79 C 0.7972(6) 0.6601(4) 0.3245(10)
H64 H 0.7790 0.6518 0.2762
C80 C 0.6678(6) 0.5772(4) 0.7461(11)
H65 H 0.6978 0.6007 0.7529
C81 C 0.6785(7) 0.5138(5) 0.7719(12)
H66 H 0.7034 0.4963 0.7429
H67 H 0.6494 0.4894 0.7652
C82 C 0.6962(7) 0.5172(5) 0.8558(12)
H68 H 0.7054 0.4777 0.8741
H69 H 0.7245 0.5429 0.8620
C83 C 0.6576(7) 0.5410(6) 0.8999(12)
H70 H 0.6685 0.5415 0.9531
H71 H 0.6290 0.5158 0.8933
C84 C 0.6452(6) 0.6038(4) 0.8733(11)
H72 H 0.6187 0.6192 0.9007
H73 H 0.6732 0.6296 0.8840
C85 C 0.6308(6) 0.6048(4) 0.7901(10)
H74 H 0.5998 0.5840 0.7802
C86 C 0.3140(6) 1.0093(3) 0.1438(10)
H75 H 0.3435 1.0309 0.1613
C87 C 0.2723(6) 1.0511(4) 0.1437(11)
H76 H 0.2425 1.0292 0.1312
H77 H 0.2707 1.0675 0.1940
C88 C 0.2760(7) 1.1009(5) 0.0891(11)
H78 H 0.2469 1.1252 0.0882
H79 H 0.3036 1.1260 0.1047
C89 C 0.2819(7) 1.0765(6) 0.0128(11)
H80 H 0.2528 1.0547 -0.0043
H81 H 0.2857 1.1094 -0.0219
C90 C 0.3240(7) 1.0367(5) 0.0113(11)
H82 H 0.3536 1.0591 0.0240
H83 H 0.3257 1.0206 -0.0392
C91 C 0.3203(6) 0.9861(4) 0.0665(10)
H84 H 0.2922 0.9612 0.0504
C92 C 0.3849(6) 0.6178(4) -0.0408(10)
H85 H 0.4175 0.6006 -0.0323
C93 C 0.3678(7) 0.6109(5) -0.1225(11)
H86 H 0.3382 0.6337 -0.1328
H87 H 0.3923 0.6271 -0.1535
C94 C 0.3586(7) 0.5473(5) -0.1434(11)
H88 H 0.3455 0.5451 -0.1955
H89 H 0.3890 0.5254 -0.1391
C95 C 0.3432(7) 0.5240(4) -0.0144(11)
H90 H 0.3198 0.5058 0.0167
H91 H 0.3735 0.5020 -0.0068
C96 C 0.3513(6) 0.5867(4) 0.0088(11)
H92 H 0.3199 0.6073 0.0037
C97 C 0.2115(6) 0.6590(4) 0.4141(11)
H93 H 0.2279 0.6541 0.4645
C98 C 0.1672(7) 0.6192(6) 0.4079(11)
H94 H 0.1765 0.5784 0.4203
H95 H 0.1526 0.6199 0.3565
C99 C 0.1309(7) 0.6408(7) 0.4610(12)
H96 H 0.1015 0.6171 0.4533
H97 H 0.1440 0.6344 0.5125
C100 C 0.1182(7) 0.7044(8) 0.4510(12)
H98 H 0.0963 0.7162 0.4886
H99 H 0.1017 0.7104 0.4015
C101 C 0.1637(7) 0.7430(6) 0.4588(11)
H100 H 0.1550 0.7845 0.4498
H101 H 0.1788 0.7396 0.5097
C102 C 0.1987(6) 0.7232(4) 0.4030(10)
H102 H 0.1835 0.7285 0.3519
O1 O 0.3436(8) 0.6378(7) 0.5736(13)
C103 C 0.3853(10) 0.5666(10) 0.6570(16)
H103 H 0.3544 0.5571 0.6755
H104 H 0.4085 0.5744 0.6988
H105 H 0.3963 0.5336 0.6282
C104 C 0.3801(9) 0.6224(10) 0.6064(16)
C105 C 0.4290(9) 0.6432(12) 0.5982(17)
H106 H 0.4458 0.6150 0.5687
H107 H 0.4459 0.6472 0.6471
H108 H 0.4279 0.6813 0.5732
O3 O 0.4700(8) 0.6671(8) 0.7640(13)
C109 C 0.5086(11) 0.7214(9) 0.8632(16)
H115 H 0.4813 0.7481 0.8616
H116 H 0.5346 0.7396 0.8382
H117 H 0.5193 0.7131 0.9147
C110 C 0.4942(8) 0.6655(8) 0.8248(13)
C111 C 0.5069(12) 0.6054(9) 0.8625(18)
H118 H 0.5210 0.6122 0.9128
H119 H 0.5298 0.5845 0.8339
H120 H 0.4779 0.5819 0.8646
O5 O 0.4925(8) 0.6779(5) 0.1913(11)
C112 C 0.4432(9) 0.7443(7) 0.2505(14)
H121 H 0.4220 0.7386 0.2057
H122 H 0.4483 0.7862 0.2590
H123 H 0.4286 0.7271 0.2929
C113 C 0.4905(9) 0.7147(6) 0.2409(13)
C114 C 0.5324(10) 0.7271(8) 0.2946(15)
H124 H 0.5583 0.7000 0.2857
H125 H 0.5231 0.7221 0.3453
H126 H 0.5432 0.7675 0.2879
O6 O 0.5330(7) 0.9822(5) 0.4059(11)
C115 C 0.4619(8) 1.0281(8) 0.4333(14)
H127 H 0.4527 1.0197 0.3812
H128 H 0.4609 1.0705 0.4416
H129 H 0.4397 1.0086 0.4646
C116 C 0.5108(8) 1.0061(6) 0.4522(13)
C117 C 0.5321(8) 1.0167(8) 0.5264(13)
H130 H 0.5154 0.9935 0.5619
H131 H 0.5295 1.0584 0.5383
H132 H 0.5658 1.0054 0.5290
Cl1 Cl 0.5312(6) 1.1206(2) 0.2970(10)
Cl2 Cl 0.4782(6) 1.0399(2) 0.1999(10)
C118 C 0.5337(8) 1.0528(6) 0.2477(13)
H133 H 0.5589 1.0548 0.2123
H134 H 0.5416 1.0204 0.2828
Cl3 Cl 0.3027(6) 0.7853(4) 0.1506(10)
Cl4 Cl 0.2266(6) 0.7204(4) 0.0795(10)
C119 C 0.2796(8) 0.7532(8) 0.0694(13)
H135 H 0.2754 0.7835 0.0304
H136 H 0.3024 0.7238 0.0531
Cl5 Cl 0.4958(7) 0.4885(4) 0.5127(10)
Cl6 Cl 0.5201(6) 0.5127(4) 0.6624(10)
C120 C 0.4940(9) 0.4611(9) 0.5989(12)
H137 H 0.5117 0.4237 0.6030
H138 H 0.4606 0.4535 0.6098
Cl7 Cl 0.5838(6) 0.6648(3) 0.0531(10)
Cl8 Cl 0.6407(7) 0.6041(5) 0.1676(12)
C121 C 0.6130(10) 0.6693(9) 0.1407(14)
H139 H 0.6371 0.7008 0.1410
H140 H 0.5897 0.6798 0.1769
O11 O 0.7200(6) 0.7481(4) 0.1674(10)
H141 H 0.7335 0.7415 0.2099
H142 H 0.7405 0.7468 0.1352
O12 O 0.2903(6) 0.7437(4) 0.5591(10)
H143 H 0.2885 0.7085 0.5738
H144 H 0.3189 0.7558 0.5666
O2? O 0.5020(6) 0.6060(11) 0.8419(13)
C106? C 0.4951(8) 0.7131(11) 0.8415(18)
H109? H 0.4939 0.7432 0.8798
H110? H 0.4636 0.7089 0.8153
H111? H 0.5183 0.7245 0.8064
C107? C 0.5347(7) 0.6541(15) 0.9562(10)
H112? H 0.5230 0.6214 0.9848
H113? H 0.5275 0.6911 0.9803
H114? H 0.5692 0.6505 0.9535
C108? C 0.51043(2) 0.6531(11) 0.87837(2)
O4? O 0.4332(11) 0.6621(12) 0.6853(18)
O7? O 0.2471(19) 0.740(2) 0.182(3)
O8? O 0.3341(13) 0.7593(14) 0.183(2)
O9? O 0.6314(17) 0.634(2) 0.130(3)
O10? O 0.6313(13) 0.5818(16) 0.084(2)
loop_
_geom_bond_atom_site_label_1
_geom_bond_atom_site_label_2
_geom_bond_site_symmetry_1
_geom_bond_site_symmetry_2
N1 C21 1_555 1_555
N2 C42 1_555 1_555
N3 C43 1_555 1_555
N4 C66 1_555 1_555
N5 C67 1_555 1_555
N6 C20 1_555 1_555
N7 C23 1_555 1_555
N8 C44 1_555 1_555
N9 C45 1_555 1_555
N10 C64 1_555 1_555
N11 C22 1_555 1_555
N12 C65 1_555 1_555
C1 C2 1_555 1_555
C2 H1 1_555 1_555
C3 C2 1_555 1_555
C4 H2 1_555 1_555
H3 C4 1_555 1_555
C5 C3 1_555 1_555
H4 C5 1_555 1_555
C6 C5 1_555 1_555
C7 C1 1_555 1_555
H5 C7 1_555 1_555
C8 C3 1_555 1_555
C9 C8 1_555 1_555
H6 C9 1_555 1_555
C10 C9 1_555 1_555
H7 C10 1_555 1_555
C11 C10 1_555 1_555
C12 C11 1_555 1_555
H8 C12 1_555 1_555
C13 C8 1_555 1_555
H9 C13 1_555 1_555
C14 C11 1_555 1_555
C15 C14 1_555 1_555
H10 C15 1_555 1_555
C16 C15 1_555 1_555
C17 C16 1_555 1_555
H11 C17 1_555 1_555
C18 C17 1_555 1_555
C19 C14 1_555 1_555
H12 C19 1_555 1_555
C20 C1 1_555 1_555
H13 C20 1_555 1_555
C21 C6 1_555 1_555
H14 C21 1_555 1_555
C22 C16 1_555 1_555
H15 C22 1_555 1_555
C23 C18 1_555 1_555
H16 C23 1_555 1_555
C24 C25 1_555 1_555
C25 H17 1_555 1_555
C26 C25 1_555 1_555
C27 C26 1_555 1_555
H18 C27 1_555 1_555
C28 C27 1_555 1_555
C29 C24 1_555 1_555
H19 C29 1_555 1_555
C30 C26 1_555 1_555
C31 C30 1_555 1_555
H20 C31 1_555 1_555
C32 C31 1_555 1_555
H21 C32 1_555 1_555
C33 C32 1_555 1_555
C34 C33 1_555 1_555
H22 C34 1_555 1_555
C35 C30 1_555 1_555
H23 C35 1_555 1_555
C36 C33 1_555 1_555
C37 C36 1_555 1_555
H24 C37 1_555 1_555
C38 C37 1_555 1_555
C39 C38 1_555 1_555
H25 C39 1_555 1_555
C40 C39 1_555 1_555
C41 C36 1_555 1_555
H26 C41 1_555 1_555
C42 C24 1_555 1_555
H27 C42 1_555 1_555
C43 C28 1_555 1_555
H28 C43 1_555 1_555
C44 C38 1_555 1_555
H29 C44 1_555 1_555
C45 C40 1_555 1_555
H30 C45 1_555 1_555
C46 C47 1_555 1_555
C47 H31 1_555 1_555
C48 C47 1_555 1_555
C49 C48 1_555 1_555
H32 C49 1_555 1_555
C50 C49 1_555 1_555
C51 C46 1_555 1_555
H33 C51 1_555 1_555
C52 C53 1_555 1_555
C53 H34 1_555 1_555
C54 C53 1_555 1_555
H35 C54 1_555 1_555
C55 C48 1_555 1_555
C56 C55 1_555 1_555
H36 C56 1_555 1_555
C57 C52 1_555 1_555
H37 C57 1_555 1_555
C58 C52 1_555 1_555
C59 C58 1_555 1_555
H38 C59 1_555 1_555
C60 C59 1_555 1_555
C61 C60 1_555 1_555
H39 C61 1_555 1_555
C62 C61 1_555 1_555
C63 C58 1_555 1_555
H40 C63 1_555 1_555
C64 C60 1_555 1_555
H41 C64 1_555 1_555
C65 C62 1_555 1_555
H42 C65 1_555 1_555
C66 C46 1_555 1_555
H43 C66 1_555 1_555
C67 C50 1_555 1_555
H44 C67 1_555 1_555
C68 N2 1_555 1_555
H45 C68 1_555 1_555
C69 C68 1_555 1_555
H46 C69 1_555 1_555
H47 C69 1_555 1_555
C70 C69 1_555 1_555
H48 C70 1_555 1_555
H49 C70 1_555 1_555
C71 C70 1_555 1_555
H50 C71 1_555 1_555
H51 C71 1_555 1_555
C72 C71 1_555 1_555
H52 C72 1_555 1_555
H53 C72 1_555 1_555
C73 N1 1_555 1_555
H54 C73 1_555 1_555
C74 N6 1_555 1_555
H55 C74 1_555 1_555
C75 C74 1_555 1_555
H56 C75 1_555 1_555
H57 C75 1_555 1_555
C76 C75 1_555 1_555
H58 C76 1_555 1_555
H59 C76 1_555 1_555
C77 C76 1_555 1_555
H60 C77 1_555 1_555
H61 C77 1_555 1_555
C78 C77 1_555 1_555
H62 C78 1_555 1_555
H63 C78 1_555 1_555
C79 N5 1_555 1_555
H64 C79 1_555 1_555
C80 N4 1_555 1_555
H65 C80 1_555 1_555
C81 C80 1_555 1_555
H66 C81 1_555 1_555
H67 C81 1_555 1_555
C82 C81 1_555 1_555
H68 C82 1_555 1_555
H69 C82 1_555 1_555
C83 C82 1_555 1_555
H70 C83 1_555 1_555
H71 C83 1_555 1_555
C84 C83 1_555 1_555
H72 C84 1_555 1_555
H73 C84 1_555 1_555
C85 N3 1_555 1_555
H74 C85 1_555 1_555
C86 N8 1_555 1_555
H75 C86 1_555 1_555
C87 C86 1_555 1_555
H76 C87 1_555 1_555
H77 C87 1_555 1_555
C88 C87 1_555 1_555
H78 C88 1_555 1_555
H79 C88 1_555 1_555
C89 C88 1_555 1_555
H80 C89 1_555 1_555
H81 C89 1_555 1_555
C90 C89 1_555 1_555
H82 C90 1_555 1_555
H83 C90 1_555 1_555
C91 N7 1_555 1_555
H84 C91 1_555 1_555
C92 N11 1_555 1_555
H85 C92 1_555 1_555
C93 C92 1_555 1_555
H86 C93 1_555 1_555
H87 C93 1_555 1_555
C94 C4 1_555 1_555
H88 C94 1_555 1_555
H89 C94 1_555 1_555
C95 C4 1_555 1_555
H90 C95 1_555 1_555
H91 C95 1_555 1_555
C96 N12 1_555 1_555
H92 C96 1_555 1_555
C97 N10 1_555 1_555
H93 C97 1_555 1_555
C98 C97 1_555 1_555
H94 C98 1_555 1_555
H95 C98 1_555 1_555
C99 C98 1_555 1_555
H96 C99 1_555 1_555
H97 C99 1_555 1_555
C100 C99 1_555 1_555
H98 C100 1_555 1_555
H99 C100 1_555 1_555
C101 C100 1_555 1_555
H100 C101 1_555 1_555
H101 C101 1_555 1_555
C102 N9 1_555 1_555
H102 C102 1_555 1_555
O1 C104 1_555 1_555
C103 H103 1_555 1_555
H104 C103 1_555 1_555
H105 C103 1_555 1_555
C104 C103 1_555 1_555
C105 C104 1_555 1_555
H106 C105 1_555 1_555
H107 C105 1_555 1_555
H108 C105 1_555 1_555
O3 C110 1_555 1_555
C109 H115 1_555 1_555
H116 C109 1_555 1_555
H117 C109 1_555 1_555
C110 C109 1_555 1_555
C111 C110 1_555 1_555
H118 C111 1_555 1_555
H119 C111 1_555 1_555
H120 C111 1_555 1_555
O5 C113 1_555 1_555
C112 H121 1_555 1_555
H122 C112 1_555 1_555
H123 C112 1_555 1_555
C113 C112 1_555 1_555
C114 C113 1_555 1_555
H124 C114 1_555 1_555
H125 C114 1_555 1_555
H126 C114 1_555 1_555
O6 C116 1_555 1_555
C115 H127 1_555 1_555
H128 C115 1_555 1_555
H129 C115 1_555 1_555
C116 C115 1_555 1_555
C117 C116 1_555 1_555
H130 C117 1_555 1_555
H131 C117 1_555 1_555
H132 C117 1_555 1_555
Cl1 C118 1_555 1_555
Cl2 C118 1_555 1_555
C118 H133 1_555 1_555
H134 C118 1_555 1_555
Cl3 C119 1_555 1_555
Cl4 C119 1_555 1_555
C119 H135 1_555 1_555
H136 C119 1_555 1_555
Cl5 C120 1_555 1_555
Cl6 C120 1_555 1_555
C120 H137 1_555 1_555
H138 C120 1_555 1_555
Cl7 C121 1_555 1_555
Cl8 C121 1_555 1_555
C121 H139 1_555 1_555
H140 C121 1_555 1_555
O11 H141 1_555 1_555
H142 O11 1_555 1_555
O12 H143 1_555 1_555
H144 O12 1_555 1_555
C6 C7 1_555 1_555
C12 C13 1_555 1_555
C18 C19 1_555 1_555
C28 C29 1_555 1_555
C34 C35 1_555 1_555
C40 C41 1_555 1_555
C50 C51 1_555 1_555
C54 C55 1_555 1_555
C56 C57 1_555 1_555
C62 C63 1_555 1_555
C68 C73 1_555 1_555
C72 C73 1_555 1_555
C74 C79 1_555 1_555
C78 C79 1_555 1_555
C80 C85 1_555 1_555
C84 C85 1_555 1_555
C86 C91 1_555 1_555
C90 C91 1_555 1_555
C92 C96 1_555 1_555
C93 C94 1_555 1_555
C95 C96 1_555 1_555
C97 C102 1_555 1_555
C101 C102 1_555 1_555

#END
