
#######################################################################
#
#                 Cambridge Crystallographic Data Centre
#                                CCDC 
#
#######################################################################
#
# If this CIF has been generated from an entry in the Cambridge 
# Structural Database, then it will include bibliographic, chemical, 
# crystal, experimental, refinement or atomic coordinate data resulting 
# from the CCDC's data processing and validation procedures.
#
#######################################################################

data_ABIMAC
_chemical_name_common            'TCC2-R 1-methylpyrrolidin-2-one solvate'
_chemical_formula_moiety         'C102 H102 N12,1.76(C5 H9 N1 O1)'
_chemical_name_systematic        
'(R)-5,7,11,13,19,21,25,27,30,32,36,38-dodecaaza-6,12,20,26,31,37(1,2)-hexacyclohexana-1,3,9,15,17,23(1,3,5),2,16,24(1,4)-nonabenzenatetracyclo[15.11.5.5^3,15^.1^9,23^]nonatriacontaphane-4,7,10,13,18,21,24,27,29,32,35,38-dodecane 1-methylpyrrolidin-2-one solvate'
_symmetry_cell_setting           trigonal
_symmetry_space_group_name_H-M   'P 31 2 1'
_symmetry_Int_Tables_number      152
_space_group_name_Hall           'P 31 2"'
loop_
_symmetry_equiv_pos_site_id
_symmetry_equiv_pos_as_xyz
1 x,y,z
2 -y,x-y,1/3+z
3 -x+y,-x,2/3+z
4 x-y,-y,2/3-z
5 -x,-x+y,1/3-z
6 y,x,-z
_cell_length_a                   19.6140(8)
_cell_length_b                   19.6140(8)
_cell_length_c                   26.1798(12)
_cell_angle_alpha                90
_cell_angle_beta                 90
_cell_angle_gamma                120
_cell_volume                     8722.27
_exptl_crystal_colour            colorless
_exptl_crystal_description       block
_cell_formula_units_Z            3
loop_
_atom_site_label
_atom_site_type_symbol
_atom_site_fract_x
_atom_site_fract_y
_atom_site_fract_z
C1 C 0.9320(3) 0.4433(4) 0.47633(19)
C2 C 0.8532(3) 0.4160(4) 0.4721(2)
H1 H 0.8299 0.4033 0.4399
C3 C 0.8070(3) 0.4067(4) 0.5145(2)
C4 C 0.8434(3) 0.4265(4) 0.5626(2)
H2 H 0.8134 0.4212 0.5913
C5 C 0.9219(3) 0.4531(4) 0.56803(19)
C6 C 0.9837(4) 0.4540(4) 0.4321(2)
H3 H 1.0368 0.4723 0.4379
C7 C 0.7218(3) 0.3741(4) 0.5085(2)
H4 H 0.6995 0.3542 0.4768
C8 C 0.9725(11) 0.4429(10) 0.7043(5)
H5 H 0.9537 0.4042 0.7294
C9 C 0.9612(3) 0.4749(4) 0.6192(2)
C10 C 0.9320(10) 0.4268(11) 0.6577(5)
H6 H 0.8834 0.3811 0.6543
C11 C 0.6500(4) 0.1170(4) 0.5814(2)
H7 H 0.6201 0.1126 0.5527
C12 C 0.6607(3) 0.1713(4) 0.6192(2)
C13 C 0.7054(4) 0.1774(4) 0.6623(3)
H8 H 0.7128 0.2137 0.6877
C14 C 0.7387(4) 0.1301(4) 0.6676(3)
C15 C 0.7271(4) 0.0763(5) 0.6302(3)
H9 H 0.7486 0.0437 0.6342
C16 C 0.6830(4) 0.0694(4) 0.5857(2)
C17 C 0.6257(3) 0.2221(4) 0.6149(2)
H10 H 0.6368 0.2599 0.6399
C18 C 0.6698(4) 0.0146(4) 0.5447(3)
H11 H 0.6403 0.0149 0.5169
C19 C 0.7884(5) 0.1383(5) 0.7136(3)
C20 C 0.8276(5) 0.2088(5) 0.7385(3)
H12 H 0.8209 0.2504 0.7282
C21 C 0.7958(5) 0.0780(5) 0.7331(3)
H13 H 0.7655 0.0279 0.7192
C22 C 0.9242(5) 0.1482(4) 0.4314(3)
H14 H 0.8829 0.1215 0.4085
C23 C 0.9296(5) 0.1088(4) 0.4734(3)
C24 C 0.9926(6) 0.1489(4) 0.5063(3)
H15 H 0.9975 0.1228 0.5345
C25 C 1.0483(6) 0.2266(5) 0.4983(3)
C26 C 1.0414(5) 0.2655(4) 0.4571(3)
H16 H 1.0785 0.3183 0.4520
C27 C 0.9788(5) 0.2265(4) 0.4224(3)
C28 C 0.8669(5) 0.0274(4) 0.4862(3)
H17 H 0.8754 0.0012 0.5129
C29 C 0.9722(4) 0.2697(4) 0.3787(2)
H18 H 0.9285 0.2440 0.3575
C30 C 1.1087(6) 0.2711(5) 0.5388(3)
C31 C 1.1533(6) 0.2413(5) 0.5604(3)
H19 H 1.1490 0.1947 0.5484
C32 C 1.1235(5) 0.3419(5) 0.5551(3)
H20 H 1.0990 0.3657 0.5383
C33 C 1.0072(4) 0.3783(4) 0.3268(2)
H21 H 0.9532 0.3448 0.3146
C34 C 1.0637(5) 0.3953(5) 0.2829(3)
H22 H 1.1172 0.4247 0.2958
H23 H 1.0559 0.3459 0.2694
C35 C 1.0543(6) 0.4404(5) 0.2411(2)
H24 H 1.0028 0.4091 0.2256
H25 H 1.0938 0.4516 0.2151
C36 C 1.0628(5) 0.5167(5) 0.2606(3)
H26 H 1.0524 0.5433 0.2331
H27 H 1.1163 0.5507 0.2723
C37 C 1.0056(5) 0.5013(4) 0.3045(2)
H28 H 1.0142 0.5512 0.3177
H29 H 0.9520 0.4722 0.2918
C38 C 1.0159(4) 0.4550(4) 0.3474(2)
H30 H 1.0687 0.4866 0.3620
C39 C 0.9670(3) 0.4630(4) 0.52452(19)
H31 H 1.0210 0.4830 0.5277
C40 C 0.6745(4) -0.0850(4) 0.5001(3)
H32 H 0.6540 -0.0654 0.4732
C41 C 0.6093(5) -0.1686(4) 0.5150(3)
H33 H 0.6271 -0.1875 0.5434
H34 H 0.5628 -0.1670 0.5258
C42 C 0.5886(6) -0.2246(5) 0.4700(4)
H35 H 0.5495 -0.2772 0.4807
H36 H 0.5660 -0.2085 0.4429
C43 C 0.6582(6) -0.2258(4) 0.4505(4)
H37 H 0.6432 -0.2605 0.4211
H38 H 0.6779 -0.2466 0.4766
C44 C 0.7245(6) -0.1428(4) 0.4348(3)
H39 H 0.7707 -0.1453 0.4243
H40 H 0.7072 -0.1240 0.4060
C45 C 0.7452(5) -0.0863(4) 0.4796(3)
H41 H 0.7683 -0.1023 0.5069
C46 C 0.5521(3) 0.2713(3) 0.5769(2)
H42 H 0.5638 0.2991 0.6097
C47 C 0.4633(3) 0.2273(4) 0.5682(3)
H43 H 0.4375 0.1896 0.5955
H44 H 0.4514 0.1986 0.5362
C48 C 0.4319(4) 0.2848(5) 0.5666(3)
H45 H 0.3757 0.2563 0.5600
H46 H 0.4408 0.3114 0.5992
C49 C 0.4742(4) 0.3451(5) 0.5244(3)
H47 H 0.4609 0.3188 0.4915
H48 H 0.4565 0.3833 0.5244
C50 C 0.5618(4) 0.3870(4) 0.5316(3)
H49 H 0.5753 0.4175 0.5629
H50 H 0.5870 0.4233 0.5035
C51 C 0.5930(3) 0.3304(4) 0.5342(2)
H51 H 0.5822 0.3021 0.5017
N1 N 0.6777(3) 0.3716(3) 0.54362(17)
N2 N 0.5805(3) 0.2161(3) 0.5779(2)
N3 N 0.9582(3) 0.4391(3) 0.38697(17)
N4 N 1.0222(3) 0.3387(3) 0.36866(18)
N5 N 0.6947(3) -0.0335(3) 0.5433(2)
N6 N 0.8032(4) -0.0071(3) 0.4625(2)
C1D C 1.0680(3) 0.5113(5) 0.85700(19)
C2D C 1.1468(3) 0.5628(5) 0.8612(2)
H1D H 1.1701 0.5734 0.8934
C3D C 1.1930(3) 0.5997(5) 0.8188(2)
C4D C 1.1566(3) 0.5831(5) 0.7707(2)
H2D H 1.1866 0.6078 0.7420
C5D C 1.0781(3) 0.5312(5) 0.76530(19)
C6D C 1.0163(4) 0.4703(6) 0.9012(2)
H3D H 0.9632 0.4355 0.8954
C7D C 1.2782(3) 0.6523(5) 0.8248(2)
H4D H 1.3005 0.6547 0.8565
C8D C 1.0275(11) 0.4704(15) 0.6290(5)
H5D H 1.0463 0.4505 0.6039
C9D C 1.0388(3) 0.5137(5) 0.7141(2)
C10D C 1.0680(10) 0.4948(15) 0.6756(5)
H6D H 1.1166 0.4977 0.6790
C11D C 1.3500(4) 0.4670(6) 0.7519(2)
H7D H 1.3799 0.4925 0.7806
C12D C 1.3393(3) 0.5106(5) 0.7141(2)
C13D C 1.2946(4) 0.4720(6) 0.6710(3)
H8D H 1.2872 0.5009 0.6456
C14D C 1.2613(4) 0.3914(6) 0.6657(3)
C15D C 1.2729(4) 0.3492(6) 0.7031(3)
H9D H 1.2514 0.2951 0.6991
C16D C 1.3170(4) 0.3864(6) 0.7476(2)
C17D C 1.3743(3) 0.5964(5) 0.7184(2)
H10D H 1.3632 0.6231 0.6934
C18D C 1.3302(4) 0.3448(6) 0.7886(3)
H11D H 1.3597 0.3746 0.8164
C19D C 1.2116(5) 0.3499(7) 0.6197(3)
C20D C 1.1724(5) 0.3812(7) 0.5948(3)
H12D H 1.1791 0.4295 0.6051
C21D C 1.2042(5) 0.2822(7) 0.6002(3)
H13D H 1.2345 0.2624 0.6141
C22D C 1.0758(5) 0.2240(6) 0.9019(3)
H14D H 1.1171 0.2386 0.9248
C23D C 1.0704(5) 0.1792(6) 0.8599(3)
C24D C 1.0074(6) 0.1563(7) 0.8270(3)
H15D H 1.0025 0.1253 0.7988
C25D C 0.9517(6) 0.1783(8) 0.8350(3)
C26D C 0.9586(5) 0.2241(6) 0.8762(3)
H16D H 0.9215 0.2398 0.8813
C27D C 1.0212(5) 0.2477(6) 0.9109(3)
C28D C 1.1331(5) 0.1605(6) 0.8471(3)
H17D H 1.1246 0.1258 0.8204
C29D C 1.0278(4) 0.2975(6) 0.9546(2)
H18D H 1.0715 0.3155 0.9758
C30D C 0.8913(6) 0.1624(8) 0.7945(3)
C31D C 0.8467(6) 0.0880(8) 0.7729(3)
H19D H 0.8510 0.0457 0.7849
C32D C 0.8765(5) 0.2184(7) 0.7782(3)
H20D H 0.9010 0.2667 0.7950
C33D C 0.9928(4) 0.3711(6) 1.0065(2)
H21D H 1.0468 0.3916 1.0187
C34D C 0.9363(5) 0.3316(7) 1.0504(3)
H22D H 0.8828 0.3075 1.0375
H23D H 0.9441 0.2900 1.0639
C35D C 0.9457(6) 0.3861(8) 1.0922(2)
H24D H 0.9972 0.4063 1.1077
H25D H 0.9062 0.3578 1.1182
C36D C 0.9372(5) 0.4539(7) 1.0727(3)
H26D H 0.9476 0.4909 1.1002
H27D H 0.8837 0.4344 1.0610
C37D C 0.9944(5) 0.4957(6) 1.0288(2)
H28D H 0.9858 0.5370 1.0156
H29D H 1.0480 0.5202 1.0415
C38D C 0.9841(4) 0.4391(6) 0.9859(2)
H30D H 0.9313 0.4179 0.9713
C39D C 1.0330(3) 0.4960(5) 0.80881(19)
H31D H 0.9790 0.4620 0.8056
C40D C 1.3255(4) 0.2405(6) 0.8332(3)
H32D H 1.3460 0.2806 0.8601
C41D C 1.3907(5) 0.2221(6) 0.8183(3)
H33D H 1.3729 0.1854 0.7899
H34D H 1.4372 0.2702 0.8075
C42D C 1.4114(6) 0.1868(8) 0.8633(4)
H35D H 1.4505 0.1733 0.8526
H36D H 1.4340 0.2255 0.8904
C43D C 1.3418(6) 0.1160(7) 0.8828(4)
H37D H 1.3568 0.0963 0.9122
H38D H 1.3221 0.0755 0.8567
C44D C 1.2755(6) 0.1327(7) 0.8985(3)
H39D H 1.2293 0.0840 0.9090
H40D H 1.2928 0.1688 0.9273
C45D C 1.2548(5) 0.1685(6) 0.8537(3)
H41D H 1.2317 0.1294 0.8264
C46D C 1.4479(3) 0.7192(4) 0.7564(2)
H42D H 1.4362 0.7353 0.7236
C47D C 1.5367(3) 0.7640(5) 0.7651(3)
H43D H 1.5625 0.7521 0.7378
H44D H 1.5486 0.7472 0.7971
C48D C 1.5681(4) 0.8529(6) 0.7667(3)
H45D H 1.6243 0.8806 0.7733
H46D H 1.5592 0.8706 0.7341
C49D C 1.5258(4) 0.8709(6) 0.8089(3)
H47D H 1.5391 0.8579 0.8418
H48D H 1.5435 0.9268 0.8089
C50D C 1.4382(4) 0.8252(6) 0.8017(3)
H49D H 1.4247 0.8422 0.7704
H50D H 1.4130 0.8363 0.8298
C51D C 1.4070(3) 0.7374(5) 0.7991(2)
H51D H 1.4178 0.7199 0.8316
N1D N 1.3223(3) 0.6939(4) 0.78971(17)
N2D N 1.4195(3) 0.6356(4) 0.7554(2)
N3D N 1.0418(3) 0.4809(4) 0.94636(17)
N4D N 0.9778(3) 0.3165(4) 0.96467(18)
N5D N 1.3053(3) 0.2718(4) 0.7900(2)
N6D N 1.1968(4) 0.1897(5) 0.8708(2)
C52 C 0.7660(8) 0.4263(8) 0.7348(5)
C53 C 0.8219(11) 0.4708(11) 0.7786(6)
H52 H 0.8047 0.4413 0.8102
H53 H 0.8752 0.4828 0.7710
C54 C 0.8163(16) 0.5389(16) 0.7807(9)
H54 H 0.8685 0.5840 0.7851
H55 H 0.7852 0.5360 0.8103
C55 C 0.7802(9) 0.5508(9) 0.7346(6)
H56 H 0.7403 0.5644 0.7430
H57 H 0.8191 0.5903 0.7121
C56 C 0.6967(9) 0.4525(9) 0.6708(5)
H58 H 0.6834 0.4011 0.6588
H59 H 0.7232 0.4904 0.6442
H60 H 0.6494 0.4527 0.6802
N7 N 0.7462(6) 0.4720(7) 0.7134(4)
O1 O 0.7417(6) 0.3597(7) 0.7224(4)
C57? C 0.025(3) 0.197(3) 0.6879(17)
H61? H 0.0723 0.1953 0.6794
H62? H -0.0010 0.1602 0.7157
N8? N 0.049(3) 0.279(3) 0.7063(18)
C58? C 0.087(5) 0.308(5) 0.741(3)
H63? H 0.1059 0.2748 0.7535
H64? H 0.1305 0.3580 0.7309
H65? H 0.0565 0.3154 0.7665
C59? C 0.0000 0.287(3) 0.6667
H66? H 0.0357 0.3344 0.6483
O2? O 0.058(4) 0.166(4) 0.713(3)
C60? C 0.049(3) 0.279(3) 0.7063(18)
H67? H 0.0309 0.2805 0.7407
H68? H 0.1043 0.3166 0.7026
C61? C 1.0541(11) 0.5669(11) 0.6784(6)
H69? H 1.0914 0.6192 0.6847
C62? C 1.0160(11) 0.5465(11) 0.6319(6)
H70? H 1.0299 0.5862 0.6079
loop_
_geom_bond_atom_site_label_1
_geom_bond_atom_site_label_2
_geom_bond_site_symmetry_1
_geom_bond_site_symmetry_2
C1 C2 1_555 1_555
C2 H1 1_555 1_555
C3 C2 1_555 1_555
C4 C3 1_555 1_555
H2 C4 1_555 1_555
C5 C4 1_555 1_555
C6 C1 1_555 1_555
H3 C6 1_555 1_555
C7 C3 1_555 1_555
H4 C7 1_555 1_555
C8 H5 1_555 1_555
C9 C5 1_555 1_555
C10 C8 1_555 1_555
H6 C10 1_555 1_555
C11 H7 1_555 1_555
C12 C11 1_555 1_555
C13 C12 1_555 1_555
H8 C13 1_555 1_555
C14 C13 1_555 1_555
C15 C14 1_555 1_555
H9 C15 1_555 1_555
C16 C11 1_555 1_555
C17 C12 1_555 1_555
H10 C17 1_555 1_555
C18 C16 1_555 1_555
H11 C18 1_555 1_555
C19 C14 1_555 1_555
C20 C19 1_555 1_555
H12 C20 1_555 1_555
C21 C19 1_555 1_555
H13 C21 1_555 1_555
C22 H14 1_555 1_555
C23 C22 1_555 1_555
C24 C23 1_555 1_555
H15 C24 1_555 1_555
C25 C24 1_555 1_555
C26 C25 1_555 1_555
H16 C26 1_555 1_555
C27 C22 1_555 1_555
C28 C23 1_555 1_555
H17 C28 1_555 1_555
C29 C27 1_555 1_555
H18 C29 1_555 1_555
C30 C25 1_555 1_555
C31 C30 1_555 1_555
H19 C31 1_555 1_555
C32 C30 1_555 1_555
H20 C32 1_555 1_555
C33 H21 1_555 1_555
C34 C33 1_555 1_555
H22 C34 1_555 1_555
H23 C34 1_555 1_555
C35 C34 1_555 1_555
H24 C35 1_555 1_555
H25 C35 1_555 1_555
C36 C35 1_555 1_555
H26 C36 1_555 1_555
H27 C36 1_555 1_555
C37 C36 1_555 1_555
H28 C37 1_555 1_555
H29 C37 1_555 1_555
C38 C33 1_555 1_555
H30 C38 1_555 1_555
C39 C1 1_555 1_555
H31 C39 1_555 1_555
C40 H32 1_555 1_555
C41 C40 1_555 1_555
H33 C41 1_555 1_555
H34 C41 1_555 1_555
C42 C41 1_555 1_555
H35 C42 1_555 1_555
H36 C42 1_555 1_555
C43 C42 1_555 1_555
H37 C43 1_555 1_555
H38 C43 1_555 1_555
C44 C43 1_555 1_555
H39 C44 1_555 1_555
H40 C44 1_555 1_555
C45 C40 1_555 1_555
H41 C45 1_555 1_555
C46 H42 1_555 1_555
C47 C46 1_555 1_555
H43 C47 1_555 1_555
H44 C47 1_555 1_555
C48 C47 1_555 1_555
H45 C48 1_555 1_555
H46 C48 1_555 1_555
C49 C48 1_555 1_555
H47 C49 1_555 1_555
H48 C49 1_555 1_555
C50 C49 1_555 1_555
H49 C50 1_555 1_555
H50 C50 1_555 1_555
C51 C46 1_555 1_555
H51 C51 1_555 1_555
N1 C7 1_555 1_555
N2 C17 1_555 1_555
N3 C6 1_555 1_555
N4 C29 1_555 1_555
N5 C18 1_555 1_555
N6 C28 1_555 1_555
C52 C53 1_555 1_555
C53 H52 1_555 1_555
H53 C53 1_555 1_555
C54 C53 1_555 1_555
H54 C54 1_555 1_555
H55 C54 1_555 1_555
C55 C54 1_555 1_555
H56 C55 1_555 1_555
H57 C55 1_555 1_555
C56 H58 1_555 1_555
H59 C56 1_555 1_555
H60 C56 1_555 1_555
N7 C52 1_555 1_555
O1 C52 1_555 1_555
C1D C2D 1_555 1_555
C2D H1D 1_555 1_555
C3D C2D 1_555 1_555
C4D C3D 1_555 1_555
H2D C4D 1_555 1_555
C5D C4D 1_555 1_555
C6D C1D 1_555 1_555
H3D C6D 1_555 1_555
C7D C3D 1_555 1_555
H4D C7D 1_555 1_555
C8D C9 1_555 1_555
H5D C8D 1_555 1_555
C9D C8 1_555 1_555
C10D C8D 1_555 1_555
H6D C10D 1_555 1_555
C11D H7D 1_555 1_555
C12D C11D 1_555 1_555
C13D C12D 1_555 1_555
H8D C13D 1_555 1_555
C14D C13D 1_555 1_555
C15D C14D 1_555 1_555
H9D C15D 1_555 1_555
C16D C11D 1_555 1_555
C17D C12D 1_555 1_555
H10D C17D 1_555 1_555
C18D C16D 1_555 1_555
H11D C18D 1_555 1_555
C19D C14D 1_555 1_555
C20D C32 1_555 1_555
H12D C20D 1_555 1_555
C21D C31 1_555 1_555
H13D C21D 1_555 1_555
C22D H14D 1_555 1_555
C23D C22D 1_555 1_555
C24D C23D 1_555 1_555
H15D C24D 1_555 1_555
C25D C24D 1_555 1_555
C26D C25D 1_555 1_555
H16D C26D 1_555 1_555
C27D C22D 1_555 1_555
C28D C23D 1_555 1_555
H17D C28D 1_555 1_555
C29D C27D 1_555 1_555
H18D C29D 1_555 1_555
C30D C25D 1_555 1_555
C31D C21 1_555 1_555
H19D C31D 1_555 1_555
C32D C20 1_555 1_555
H20D C32D 1_555 1_555
C33D H21D 1_555 1_555
C34D C33D 1_555 1_555
H22D C34D 1_555 1_555
H23D C34D 1_555 1_555
C35D C34D 1_555 1_555
H24D C35D 1_555 1_555
H25D C35D 1_555 1_555
C36D C35D 1_555 1_555
H26D C36D 1_555 1_555
H27D C36D 1_555 1_555
C37D C36D 1_555 1_555
H28D C37D 1_555 1_555
H29D C37D 1_555 1_555
C38D C33D 1_555 1_555
H30D C38D 1_555 1_555
C39D C1D 1_555 1_555
H31D C39D 1_555 1_555
C40D H32D 1_555 1_555
C41D C40D 1_555 1_555
H33D C41D 1_555 1_555
H34D C41D 1_555 1_555
C42D C41D 1_555 1_555
H35D C42D 1_555 1_555
H36D C42D 1_555 1_555
C43D C42D 1_555 1_555
H37D C43D 1_555 1_555
H38D C43D 1_555 1_555
C44D C43D 1_555 1_555
H39D C44D 1_555 1_555
H40D C44D 1_555 1_555
C45D C40D 1_555 1_555
H41D C45D 1_555 1_555
C46D H42D 1_555 1_555
C47D C46D 1_555 1_555
H43D C47D 1_555 1_555
H44D C47D 1_555 1_555
C48D C47D 1_555 1_555
H45D C48D 1_555 1_555
H46D C48D 1_555 1_555
C49D C48D 1_555 1_555
H47D C49D 1_555 1_555
H48D C49D 1_555 1_555
C50D C49D 1_555 1_555
H49D C50D 1_555 1_555
H50D C50D 1_555 1_555
C51D C46D 1_555 1_555
H51D C51D 1_555 1_555
N1D C7D 1_555 1_555
N2D C17D 1_555 1_555
N3D C6D 1_555 1_555
N4D C29D 1_555 1_555
N5D C18D 1_555 1_555
N6D C28D 1_555 1_555
C5 C39 1_555 1_555
C9 C10 1_555 1_555
C15 C16 1_555 1_555
C26 C27 1_555 1_555
C33 N4 1_555 1_555
C37 C38 1_555 1_555
C38 N3 1_555 1_555
C40 N5 1_555 1_555
C44 C45 1_555 1_555
C45 N6 1_555 1_555
C46 N2 1_555 1_555
C50 C51 1_555 1_555
C51 N1 1_555 1_555
C55 N7 1_555 1_555
C56 N7 1_555 1_555
C5D C9D 1_555 1_555
C5D C39D 1_555 1_555
C9D C10D 1_555 1_555
C15D C16D 1_555 1_555
C19D C20D 1_555 1_555
C19D C21D 1_555 1_555
C26D C27D 1_555 1_555
C30D C31D 1_555 1_555
C30D C32D 1_555 1_555
C33D N4D 1_555 1_555
C37D C38D 1_555 1_555
C38D N3D 1_555 1_555
C40D N5D 1_555 1_555
C44D C45D 1_555 1_555
C45D N6D 1_555 1_555
C46D N2D 1_555 1_555
C50D C51D 1_555 1_555
C51D N1D 1_555 1_555

#END
