
#######################################################################
#
#                 Cambridge Crystallographic Data Centre
#                                CCDC 
#
#######################################################################
#
# If this CIF has been generated from an entry in the Cambridge 
# Structural Database, then it will include bibliographic, chemical, 
# crystal, experimental, refinement or atomic coordinate data resulting 
# from the CCDC's data processing and validation procedures.
#
#######################################################################

data_ABINAD
_chemical_name_common            rac-TCC2
_chemical_formula_moiety         'C102 H102 N12'
_chemical_name_systematic        
rac-5,7,11,13,19,21,25,27,30,32,36,38-dodecaaza-6,12,20,26,31,37(1,2)-hexacyclohexana-1,3,9,15,17,23(1,3,5),2,16,24(1,4)-nonabenzenatetracyclo[15.11.5.5^3,15^.1^9,23^]nonatriacontaphane-4,7,10,13,18,21,24,27,29,32,35,38-dodecane
_symmetry_cell_setting           rhombohedral
_symmetry_space_group_name_H-M   'R -3'
_symmetry_Int_Tables_number      148
_space_group_name_Hall           '-R 3'
loop_
_symmetry_equiv_pos_site_id
_symmetry_equiv_pos_as_xyz
1 x,y,z
2 -y,x-y,z
3 -x+y,-x,z
4 2/3+x,1/3+y,1/3+z
5 2/3-y,1/3+x-y,1/3+z
6 2/3-x+y,1/3-x,1/3+z
7 1/3+x,2/3+y,2/3+z
8 1/3-y,2/3+x-y,2/3+z
9 1/3-x+y,2/3-x,2/3+z
10 -x,-y,-z
11 y,-x+y,-z
12 x-y,x,-z
13 1/3-x,2/3-y,2/3-z
14 1/3+y,2/3-x+y,2/3-z
15 1/3+x-y,2/3+x,2/3-z
16 2/3-x,1/3-y,1/3-z
17 2/3+y,1/3-x+y,1/3-z
18 2/3+x-y,1/3+x,1/3-z
_cell_length_a                   22.729(5)
_cell_length_b                   22.729(5)
_cell_length_c                   31.814(7)
_cell_angle_alpha                90
_cell_angle_beta                 90
_cell_angle_gamma                120
_cell_volume                     14233.4
_exptl_crystal_colour            colorless
_exptl_crystal_description       needle
_cell_formula_units_Z            6
_exptl_crystal_preparation       
'Solvated crystal was heated from 150 K to 350 K under dry nitrogen at 50 K/hr'
loop_
_atom_site_label
_atom_site_type_symbol
_atom_site_fract_x
_atom_site_fract_y
_atom_site_fract_z
N1 N 0.5735(3) 0.4769(3) 0.39445(16)
N2 N 0.7145(3) 0.5609(3) 0.40094(15)
N3 N 0.5332(3) 0.4377(3) 0.77581(16)
N4 N 0.4451(3) 0.2981(3) 0.76309(16)
C1 C 0.8120(4) 0.4751(4) 0.41134(19)
H1 H 0.8235 0.4743 0.3834
C2 C 0.7692(4) 0.4998(4) 0.42222(18)
C3 C 0.7497(4) 0.4983(3) 0.46387(17)
H2 H 0.7200 0.5139 0.4706
C4 C 0.7735(3) 0.4741(3) 0.49528(18)
C5 C 0.8171(3) 0.4499(3) 0.48410(18)
H3 H 0.8329 0.4323 0.5048
C6 C 0.8371(4) 0.4516(3) 0.44254(19)
C7 C 0.7540(3) 0.4753(3) 0.53994(16)
C8 C 0.7263(4) 0.5148(4) 0.55174(19)
H4 H 0.7201 0.5407 0.5315
C9 C 0.7075(5) 0.5168(4) 0.59292(19)
H5 H 0.6878 0.5431 0.5993
C10 C 0.7169(3) 0.4819(4) 0.62423(17)
C11 C 0.7437(4) 0.4414(4) 0.61252(19)
H6 H 0.7506 0.4162 0.6329
C12 C 0.7604(4) 0.4377(4) 0.57101(18)
H7 H 0.7765 0.4085 0.5642
C13 C 0.7010(3) 0.4859(3) 0.66920(17)
C14 C 0.6356(3) 0.4682(4) 0.68198(18)
H8 H 0.6015 0.4560 0.6621
C15 C 0.6211(3) 0.4688(3) 0.72444(18)
C16 C 0.6710(4) 0.4850(4) 0.75391(19)
H9 H 0.6603 0.4819 0.7823
C17 C 0.7374(4) 0.5060(4) 0.74162(18)
C18 C 0.7505(4) 0.5041(3) 0.69924(16)
H10 H 0.7942 0.5155 0.6909
C19 C 0.7390(4) 0.5249(4) 0.39022(19)
H11 H 0.7384 0.5136 0.3621
C20 C 0.8843(4) 0.4264(4) 0.4317(2)
H12 H 0.9003 0.4101 0.4531
C21 C 0.5498(4) 0.4441(4) 0.73791(19)
H13 H 0.5166 0.4331 0.7175
C22 C 0.4746(4) 0.2656(4) 0.77263(19)
H14 H 0.4845 0.2634 0.8008
C23 C 0.6772(4) 0.5772(4) 0.36993(18)
H15 H 0.6742 0.5536 0.3435
C24 C 0.7126(4) 0.6524(4) 0.3621(2)
H16 H 0.7567 0.6672 0.3495
H17 H 0.7197 0.6761 0.3886
C25 C 0.6709(5) 0.6705(5) 0.3330(3)
H18 H 0.6935 0.7194 0.3296
H19 H 0.6677 0.6505 0.3055
C26 C 0.6012(5) 0.6452(5) 0.3502(3)
H20 H 0.5749 0.6550 0.3303
H21 H 0.6044 0.6690 0.3761
C27 C 0.5643(5) 0.5682(4) 0.3588(3)
H22 H 0.5205 0.5543 0.3717
H23 H 0.5563 0.5439 0.3325
C28 C 0.6062(4) 0.5505(4) 0.3877(2)
H24 H 0.6103 0.5723 0.4150
C29 C 0.4599(4) 0.4069(4) 0.7846(2)
H25 H 0.4369 0.4094 0.7592
C30 C 0.4470(4) 0.4441(4) 0.8202(2)
H26 H 0.4634 0.4909 0.8121
H27 H 0.4715 0.4440 0.8451
C31 C 0.3709(5) 0.4093(5) 0.8299(3)
H28 H 0.3638 0.4319 0.8537
H29 H 0.3473 0.4140 0.8059
C32 C 0.3417(4) 0.3357(5) 0.8399(3)
H30 H 0.2930 0.3150 0.8438
H31 H 0.3611 0.3311 0.8659
C33 C 0.3558(4) 0.2988(4) 0.8050(2)
H32 H 0.3389 0.2518 0.8131
H33 H 0.3324 0.2990 0.7796
C34 C 0.4309(4) 0.3327(4) 0.79664(18)
H34 H 0.4536 0.3305 0.8223
N1A N 0.5231(3) 0.0966(4) 0.39445(16)
N2A N 0.4391(3) 0.1536(4) 0.40094(15)
N3A N 0.5623(3) 0.0955(4) 0.77581(16)
N4A N 0.7019(3) 0.1470(4) 0.76309(16)
C1A C 0.5249(4) 0.3369(6) 0.41134(19)
H1A H 0.5257 0.3492 0.3834
C2A C 0.5002(4) 0.2694(6) 0.42222(18)
C3A C 0.5017(3) 0.2514(5) 0.46387(17)
H2A H 0.4861 0.2061 0.4706
C4A C 0.5259(3) 0.2994(4) 0.49528(18)
C5A C 0.5501(3) 0.3672(4) 0.48410(18)
H3A H 0.5677 0.4006 0.5048
C6A C 0.5484(3) 0.3855(5) 0.44254(19)
C7A C 0.5247(3) 0.2787(4) 0.53994(16)
C8A C 0.4852(4) 0.2115(6) 0.55174(19)
H4A H 0.4593 0.1794 0.5315
C9A C 0.4832(4) 0.1907(6) 0.59292(19)
H5A H 0.4569 0.1447 0.5993
C10A C 0.5181(4) 0.2350(5) 0.62423(17)
C11A C 0.5586(4) 0.3023(6) 0.61252(19)
H6A H 0.5838 0.3344 0.6329
C12A C 0.5623(4) 0.3227(6) 0.57101(18)
H7A H 0.5915 0.3680 0.5642
C13A C 0.5141(3) 0.2151(4) 0.66920(17)
C14A C 0.5318(4) 0.1674(5) 0.68198(18)
H8A H 0.5440 0.1455 0.6621
C15A C 0.5312(3) 0.1523(4) 0.72444(18)
C16A C 0.5150(4) 0.1860(6) 0.75391(19)
H9A H 0.5181 0.1784 0.7823
C17A C 0.4940(4) 0.2314(6) 0.74162(18)
C18A C 0.4959(3) 0.2464(5) 0.69924(16)
H10A H 0.4845 0.2787 0.6909
C19A C 0.4751(4) 0.2141(6) 0.39022(19)
H11A H 0.4864 0.2248 0.3621
C20A C 0.5736(4) 0.4579(6) 0.4317(2)
H12A H 0.5899 0.4902 0.4531
C21A C 0.5559(4) 0.1057(6) 0.73791(19)
H13A H 0.5669 0.0835 0.7175
C22A C 0.7344(4) 0.2090(6) 0.77263(19)
H14A H 0.7366 0.2211 0.8008
C23A C 0.4228(4) 0.1000(6) 0.36993(18)
H15A H 0.4464 0.1206 0.3435
C24A C 0.3476(4) 0.0602(6) 0.3621(2)
H16A H 0.3328 0.0895 0.3495
H17A H 0.3239 0.0436 0.3886
C25A C 0.3295(5) 0.0004(7) 0.3330(3)
H18A H 0.2806 -0.0259 0.3296
H19A H 0.3495 0.0172 0.3055
C26A C 0.3548(5) -0.0440(7) 0.3502(3)
H20A H 0.3450 -0.0801 0.3303
H21A H 0.3310 -0.0646 0.3761
C27A C 0.4318(4) -0.0039(6) 0.3588(3)
H22A H 0.4457 -0.0338 0.3717
H23A H 0.4561 0.0124 0.3325
C28A C 0.4495(4) 0.0557(6) 0.3877(2)
H24A H 0.4277 0.0380 0.4150
C29A C 0.5931(4) 0.0530(6) 0.7846(2)
H25A H 0.5906 0.0275 0.7592
C30A C 0.5559(4) 0.0029(6) 0.8202(2)
H26A H 0.5091 -0.0275 0.8121
H27A H 0.5560 0.0275 0.8451
C31A C 0.5907(5) -0.0384(7) 0.8299(3)
H28A H 0.5681 -0.0681 0.8537
H29A H 0.5860 -0.0667 0.8059
C32A C 0.6643(5) 0.0060(6) 0.8399(3)
H30A H 0.6850 -0.0220 0.8438
H31A H 0.6689 0.0300 0.8659
C33A C 0.7012(4) 0.0570(6) 0.8050(2)
H32A H 0.7482 0.0871 0.8131
H33A H 0.7010 0.0334 0.7796
C34A C 0.6673(4) 0.0982(6) 0.79664(18)
H34A H 0.6695 0.1231 0.8223
N1B N 0.9034(4) 0.4265(3) 0.39445(16)
N2B N 0.8464(4) 0.2855(3) 0.40094(15)
N3B N 0.9045(4) 0.4668(3) 0.77581(16)
N4B N 0.8530(4) 0.5549(3) 0.76309(16)
C1B C 0.6631(6) 0.1880(4) 0.41134(19)
H1B H 0.6508 0.1765 0.3834
C2B C 0.7306(6) 0.2308(4) 0.42222(18)
C3B C 0.7486(5) 0.2503(4) 0.46387(17)
H2B H 0.7939 0.2800 0.4706
C4B C 0.7006(4) 0.2265(3) 0.49528(18)
C5B C 0.6328(4) 0.1829(3) 0.48410(18)
H3B H 0.5994 0.1671 0.5048
C6B C 0.6145(5) 0.1629(4) 0.44254(19)
C7B C 0.7213(4) 0.2460(3) 0.53994(16)
C8B C 0.7885(6) 0.2737(4) 0.55174(19)
H4B H 0.8206 0.2799 0.5315
C9B C 0.8093(6) 0.2925(5) 0.59292(19)
H5B H 0.8553 0.3122 0.5993
C10B C 0.7650(5) 0.2831(3) 0.62423(17)
C11B C 0.6977(6) 0.2563(4) 0.61252(19)
H6B H 0.6656 0.2494 0.6329
C12B C 0.6773(6) 0.2396(4) 0.57101(18)
H7B H 0.6320 0.2235 0.5642
C13B C 0.7849(4) 0.2990(3) 0.66920(17)
C14B C 0.8326(5) 0.3644(3) 0.68198(18)
H8B H 0.8545 0.3985 0.6621
C15B C 0.8477(4) 0.3789(3) 0.72444(18)
C16B C 0.8140(6) 0.3290(4) 0.75391(19)
H9B H 0.8216 0.3397 0.7823
C17B C 0.7686(6) 0.2626(4) 0.74162(18)
C18B C 0.7536(5) 0.2495(4) 0.69924(16)
H10B H 0.7213 0.2058 0.6909
C19B C 0.7859(6) 0.2610(4) 0.39022(19)
H11B H 0.7752 0.2616 0.3621
C20B C 0.5421(6) 0.1157(4) 0.4317(2)
H12B H 0.5098 0.0997 0.4531
C21B C 0.8943(6) 0.4502(4) 0.73791(19)
H13B H 0.9165 0.4834 0.7175
C22B C 0.7910(6) 0.5254(4) 0.77263(19)
H14B H 0.7789 0.5155 0.8008
C23B C 0.9000(6) 0.3228(4) 0.36993(18)
H15B H 0.8794 0.3258 0.3435
C24B C 0.9398(6) 0.2874(4) 0.3621(2)
H16B H 0.9105 0.2433 0.3495
H17B H 0.9564 0.2803 0.3886
C25B C 0.9996(7) 0.3291(5) 0.3330(3)
H18B H 1.0259 0.3065 0.3296
H19B H 0.9828 0.3323 0.3055
C26B C 1.0440(7) 0.3988(5) 0.3502(3)
H20B H 1.0801 0.4251 0.3303
H21B H 1.0646 0.3956 0.3761
C27B C 1.0039(6) 0.4357(5) 0.3588(3)
H22B H 1.0338 0.4795 0.3717
H23B H 0.9876 0.4437 0.3325
C28B C 0.9443(6) 0.3938(4) 0.3877(2)
H24B H 0.9620 0.3897 0.4150
C29B C 0.9470(6) 0.5401(4) 0.7846(2)
H25B H 0.9725 0.5631 0.7592
C30B C 0.9971(6) 0.5530(4) 0.8202(2)
H26B H 1.0275 0.5366 0.8121
H27B H 0.9725 0.5285 0.8451
C31B C 1.0384(7) 0.6291(5) 0.8299(3)
H28B H 1.0681 0.6362 0.8537
H29B H 1.0667 0.6527 0.8059
C32B C 0.9940(6) 0.6583(4) 0.8399(3)
H30B H 1.0220 0.7070 0.8438
H31B H 0.9700 0.6389 0.8659
C33B C 0.9430(6) 0.6442(4) 0.8050(2)
H32B H 0.9129 0.6611 0.8131
H33B H 0.9666 0.6676 0.7796
C34B C 0.9018(6) 0.5691(4) 0.79664(18)
H34B H 0.8769 0.5464 0.8223
loop_
_geom_bond_atom_site_label_1
_geom_bond_atom_site_label_2
_geom_bond_site_symmetry_1
_geom_bond_site_symmetry_2
N1 C28 1_555 1_555
N2 C19 1_555 1_555
N3 C21 1_555 1_555
N4 C22 1_555 1_555
C1 H1 1_555 1_555
C2 C1 1_555 1_555
C3 C2 1_555 1_555
H2 C3 1_555 1_555
C4 C3 1_555 1_555
C5 C4 1_555 1_555
H3 C5 1_555 1_555
C6 C1 1_555 1_555
C7 C4 1_555 1_555
C8 C7 1_555 1_555
H4 C8 1_555 1_555
C9 C8 1_555 1_555
H5 C9 1_555 1_555
C10 C9 1_555 1_555
C11 C10 1_555 1_555
H6 C11 1_555 1_555
C12 C7 1_555 1_555
H7 C12 1_555 1_555
C13 C10 1_555 1_555
C14 C13 1_555 1_555
H8 C14 1_555 1_555
C15 C14 1_555 1_555
C16 C15 1_555 1_555
H9 C16 1_555 1_555
C17 C16 1_555 1_555
C18 C13 1_555 1_555
H10 C18 1_555 1_555
C19 C2 1_555 1_555
H11 C19 1_555 1_555
C20 C6 1_555 1_555
H12 C20 1_555 1_555
C21 C15 1_555 1_555
H13 C21 1_555 1_555
C22 H14 1_555 1_555
C23 N2 1_555 1_555
H15 C23 1_555 1_555
C24 C23 1_555 1_555
H16 C24 1_555 1_555
H17 C24 1_555 1_555
C25 C24 1_555 1_555
H18 C25 1_555 1_555
H19 C25 1_555 1_555
C26 C25 1_555 1_555
H20 C26 1_555 1_555
H21 C26 1_555 1_555
C27 C26 1_555 1_555
H22 C27 1_555 1_555
H23 C27 1_555 1_555
C28 C23 1_555 1_555
H24 C28 1_555 1_555
C29 N3 1_555 1_555
H25 C29 1_555 1_555
C30 C29 1_555 1_555
H26 C30 1_555 1_555
H27 C30 1_555 1_555
C31 C30 1_555 1_555
H28 C31 1_555 1_555
H29 C31 1_555 1_555
C32 C31 1_555 1_555
H30 C32 1_555 1_555
H31 C32 1_555 1_555
C33 C32 1_555 1_555
H32 C33 1_555 1_555
H33 C33 1_555 1_555
C34 N4 1_555 1_555
H34 C34 1_555 1_555
N1A C28A 1_555 1_555
N2A C19A 1_555 1_555
N3A C21A 1_555 1_555
N4A C22A 1_555 1_555
C1A H1A 1_555 1_555
C2A C1A 1_555 1_555
C3A C2A 1_555 1_555
H2A C3A 1_555 1_555
C4A C3A 1_555 1_555
C5A C4A 1_555 1_555
H3A C5A 1_555 1_555
C6A C1A 1_555 1_555
C7A C4A 1_555 1_555
C8A C7A 1_555 1_555
H4A C8A 1_555 1_555
C9A C8A 1_555 1_555
H5A C9A 1_555 1_555
C10A C9A 1_555 1_555
C11A C10A 1_555 1_555
H6A C11A 1_555 1_555
C12A C7A 1_555 1_555
H7A C12A 1_555 1_555
C13A C10A 1_555 1_555
C14A C13A 1_555 1_555
H8A C14A 1_555 1_555
C15A C14A 1_555 1_555
C16A C15A 1_555 1_555
H9A C16A 1_555 1_555
C17A C22 1_555 1_555
C18A C13A 1_555 1_555
H10A C18A 1_555 1_555
C19A C2A 1_555 1_555
H11A C19A 1_555 1_555
C20A N1 1_555 1_555
H12A C20A 1_555 1_555
C21A C15A 1_555 1_555
H13A C21A 1_555 1_555
C22A H14A 1_555 1_555
C23A N2A 1_555 1_555
H15A C23A 1_555 1_555
C24A C23A 1_555 1_555
H16A C24A 1_555 1_555
H17A C24A 1_555 1_555
C25A C24A 1_555 1_555
H18A C25A 1_555 1_555
H19A C25A 1_555 1_555
C26A C25A 1_555 1_555
H20A C26A 1_555 1_555
H21A C26A 1_555 1_555
C27A C26A 1_555 1_555
H22A C27A 1_555 1_555
H23A C27A 1_555 1_555
C28A C23A 1_555 1_555
H24A C28A 1_555 1_555
C29A N3A 1_555 1_555
H25A C29A 1_555 1_555
C30A C29A 1_555 1_555
H26A C30A 1_555 1_555
H27A C30A 1_555 1_555
C31A C30A 1_555 1_555
H28A C31A 1_555 1_555
H29A C31A 1_555 1_555
C32A C31A 1_555 1_555
H30A C32A 1_555 1_555
H31A C32A 1_555 1_555
C33A C32A 1_555 1_555
H32A C33A 1_555 1_555
H33A C33A 1_555 1_555
C34A N4A 1_555 1_555
H34A C34A 1_555 1_555
N1B C20 1_555 1_555
N2B C19B 1_555 1_555
N3B C21B 1_555 1_555
N4B C22B 1_555 1_555
C1B H1B 1_555 1_555
C2B C1B 1_555 1_555
C3B C2B 1_555 1_555
H2B C3B 1_555 1_555
C4B C3B 1_555 1_555
C5B C4B 1_555 1_555
H3B C5B 1_555 1_555
C6B C1B 1_555 1_555
C7B C4B 1_555 1_555
C8B C7B 1_555 1_555
H4B C8B 1_555 1_555
C9B C8B 1_555 1_555
H5B C9B 1_555 1_555
C10B C9B 1_555 1_555
C11B C10B 1_555 1_555
H6B C11B 1_555 1_555
C12B C7B 1_555 1_555
H7B C12B 1_555 1_555
C13B C10B 1_555 1_555
C14B C13B 1_555 1_555
H8B C14B 1_555 1_555
C15B C14B 1_555 1_555
C16B C15B 1_555 1_555
H9B C16B 1_555 1_555
C17B C22A 1_555 1_555
C18B C13B 1_555 1_555
H10B C18B 1_555 1_555
C19B C2B 1_555 1_555
H11B C19B 1_555 1_555
C20B N1A 1_555 1_555
H12B C20B 1_555 1_555
C21B C15B 1_555 1_555
H13B C21B 1_555 1_555
C22B C17 1_555 1_555
H14B C22B 1_555 1_555
C23B N2B 1_555 1_555
H15B C23B 1_555 1_555
C24B C23B 1_555 1_555
H16B C24B 1_555 1_555
H17B C24B 1_555 1_555
C25B C24B 1_555 1_555
H18B C25B 1_555 1_555
H19B C25B 1_555 1_555
C26B C25B 1_555 1_555
H20B C26B 1_555 1_555
H21B C26B 1_555 1_555
C27B C26B 1_555 1_555
H22B C27B 1_555 1_555
H23B C27B 1_555 1_555
C28B N1B 1_555 1_555
H24B C28B 1_555 1_555
C29B N3B 1_555 1_555
H25B C29B 1_555 1_555
C30B C29B 1_555 1_555
H26B C30B 1_555 1_555
H27B C30B 1_555 1_555
C31B C30B 1_555 1_555
H28B C31B 1_555 1_555
H29B C31B 1_555 1_555
C32B C31B 1_555 1_555
H30B C32B 1_555 1_555
H31B C32B 1_555 1_555
C33B C32B 1_555 1_555
H32B C33B 1_555 1_555
H33B C33B 1_555 1_555
C34B N4B 1_555 1_555
H34B C34B 1_555 1_555
C5 C6 1_555 1_555
C11 C12 1_555 1_555
C17 C18 1_555 1_555
C27 C28 1_555 1_555
C29 C34 1_555 1_555
C33 C34 1_555 1_555
C5A C6A 1_555 1_555
C6A C20A 1_555 1_555
C11A C12A 1_555 1_555
C16A C17A 1_555 1_555
C17A C18A 1_555 1_555
C27A C28A 1_555 1_555
C29A C34A 1_555 1_555
C33A C34A 1_555 1_555
C5B C6B 1_555 1_555
C6B C20B 1_555 1_555
C11B C12B 1_555 1_555
C16B C17B 1_555 1_555
C17B C18B 1_555 1_555
C23B C28B 1_555 1_555
C27B C28B 1_555 1_555
C29B C34B 1_555 1_555
C33B C34B 1_555 1_555

#END
