
#######################################################################
#
#                 Cambridge Crystallographic Data Centre
#                                CCDC 
#
#######################################################################
#
# If this CIF has been generated from an entry in the Cambridge 
# Structural Database, then it will include bibliographic, chemical, 
# crystal, experimental, refinement or atomic coordinate data resulting 
# from the CCDC's data processing and validation procedures.
#
#######################################################################

data_ABOJOR
_chemical_name_common            
19$5!,20$4!-dinitro-1,4,14,17-tetraoxa-7,11-diaza-9(1,3)-pyridina-19,20(1,2)-dibenzenaicosaphane-8,10,18,21-tetraone
_chemical_formula_moiety         'C29 H27 N5 O12,H2 O1'
_chemical_name_systematic        
'2,7-Dinitro-11,12,15,16,25,26,28,29-octahydro-18,22-(azeno)dibenzo[w,y][1,4,18,21,7,15]tetraoxadiazacycloheptacosine-9,17,23,31(14H,24H)-tetraone monohydrate'
_symmetry_cell_setting           triclinic
_symmetry_space_group_name_H-M   'P -1'
_symmetry_Int_Tables_number      2
_space_group_name_Hall           '-P 1'
loop_
_symmetry_equiv_pos_site_id
_symmetry_equiv_pos_as_xyz
1 x,y,z
2 -x,-y,-z
_cell_length_a                   8.2192(11)
_cell_length_b                   14.0690(19)
_cell_length_c                   14.852(2)
_cell_angle_alpha                84.510(14)
_cell_angle_beta                 89.147(18)
_cell_angle_gamma                74.540(14)
_cell_volume                     1647.59
_exptl_crystal_colour            colorless
_exptl_crystal_description       block
_cell_formula_units_Z            2
_exptl_crystal_recrystallization_method acetonitrile
loop_
_atom_site_label
_atom_site_type_symbol
_atom_site_fract_x
_atom_site_fract_y
_atom_site_fract_z
O1 O 0.3420(6) 0.8802(3) 0.9213(2)
O2 O 0.4129(5) 1.0358(3) 0.8606(2)
O3 O 0.3556(4) 0.7585(3) 0.1553(2)
O4 O 0.0698(5) 0.8810(3) 0.1599(2)
O5 O 0.2490(3) 0.68318(17) 0.57082(16)
O6 O 0.3887(3) 0.63083(15) 0.70297(15)
O7 O 0.6762(3) 0.45863(18) 0.68526(16)
O8 O 1.2179(4) 0.2776(2) 0.8181(3)
O9 O 0.6998(3) 0.67155(18) 0.44324(18)
O10 O 0.6710(2) 0.80503(15) 0.51806(14)
O11 O 0.8183(3) 0.80699(15) 0.70095(14)
O12 O 1.0931(4) 0.7412(2) 0.98784(19)
N1 N 0.3871(4) 0.9400(2) 0.84564(18)
N2 N 0.2337(3) 0.8322(2) 0.20233(17)
N3 N 1.1061(3) 0.52184(19) 0.88544(17)
N4 N 1.0152(3) 0.4122(2) 0.7640(2)
H1 H 0.9650 0.4752 0.7678
N5 N 0.9341(4) 0.7128(2) 0.87529(18)
H2 H 0.9205 0.6682 0.8405
C1 C 0.3390(3) 0.8006(2) 0.65134(19)
C2 C 0.3343(3) 0.87099(19) 0.57741(18)
C3 C 0.3505(4) 0.9633(2) 0.59621(19)
H3 H 0.3502 1.0120 0.5472
C4 C 0.3671(4) 0.9870(2) 0.6834(2)
H4 H 0.3771 1.0510 0.6928
C5 C 0.3691(4) 0.9172(2) 0.75809(19)
C6 C 0.3555(4) 0.8237(2) 0.73986(19)
H5 H 0.3575 0.7747 0.7888
C7 C 0.4416(3) 0.80040(19) 0.42768(18)
C8 C 0.3140(3) 0.85454(19) 0.48023(18)
C9 C 0.1583(4) 0.8972(2) 0.4372(2)
H6 H 0.0680 0.9330 0.4715
C10 C 0.1293(4) 0.8899(2) 0.3472(2)
H7 H 0.0210 0.9207 0.3211
C11 C 0.2586(3) 0.8372(2) 0.29360(19)
C12 C 0.4142(3) 0.7909(2) 0.33655(19)
H8 H 0.5029 0.7523 0.3031
C13 C 1.1815(4) 0.4247(2) 0.8923(2)
C14 C 1.2949(4) 0.3779(3) 0.9626(3)
H9 H 1.3455 0.3086 0.9663
C15 C 1.3316(5) 0.4340(3) 1.0261(3)
H10 H 1.4086 0.4040 1.0742
C16 C 1.2554(4) 0.5346(3) 1.0193(2)
H11 H 1.2791 0.5747 1.0626
C17 C 1.1433(4) 0.5763(2) 0.9479(2)
C18 C 0.3190(4) 0.7008(2) 0.6352(2)
C19 C 0.3806(5) 0.5313(2) 0.6896(3)
H12 H 0.2726 0.5343 0.6594
H13 H 0.3849 0.4922 0.7490
C20 C 0.5262(5) 0.4816(3) 0.6325(3)
H14 H 0.5073 0.4202 0.6125
H15 H 0.5358 0.5263 0.5782
C21 C 0.8253(5) 0.4227(3) 0.6338(3)
H16 H 0.8620 0.4794 0.6039
H17 H 0.8004 0.3837 0.5862
C22 C 0.9622(5) 0.3597(3) 0.6942(3)
H18 H 0.9233 0.3037 0.7239
H19 H 1.0611 0.3316 0.6570
C23 C 1.1386(4) 0.3648(3) 0.8213(3)
C24 C 0.6156(3) 0.7503(2) 0.46347(18)
C25 C 0.8464(4) 0.7712(2) 0.5469(2)
H20 H 0.9213 0.7741 0.4944
H21 H 0.8723 0.7019 0.5745
C26 C 0.8730(4) 0.8383(2) 0.6148(2)
H22 H 0.9941 0.8363 0.6180
H23 H 0.8084 0.9074 0.5962
C27 C 0.8529(4) 0.8633(2) 0.7696(2)
H24 H 0.7775 0.9314 0.7620
H25 H 0.9713 0.8673 0.7654
C28 C 0.8240(4) 0.8124(2) 0.8604(2)
H26 H 0.8439 0.8518 0.9089
H27 H 0.7050 0.8095 0.8639
C29 C 1.0553(4) 0.6849(2) 0.9392(2)
O13 O 0.7667(4) 0.6199(2) 0.7510(2)
H28 H 0.774(5) 0.683(3) 0.718(3)
H29 H 0.687(5) 0.599(3) 0.737(3)
loop_
_geom_bond_atom_site_label_1
_geom_bond_atom_site_label_2
_geom_bond_site_symmetry_1
_geom_bond_site_symmetry_2
O1 N1 1_555 1_555
O2 N1 1_555 1_555
O3 N2 1_555 1_555
O4 N2 1_555 1_555
O5 C18 1_555 1_555
O6 C18 1_555 1_555
O7 C20 1_555 1_555
O8 C23 1_555 1_555
O9 C24 1_555 1_555
O10 C24 1_555 1_555
O11 C26 1_555 1_555
O12 C29 1_555 1_555
O13 H28 1_555 1_555
N1 C5 1_555 1_555
N2 C11 1_555 1_555
N3 C13 1_555 1_555
N4 H1 1_555 1_555
N5 H2 1_555 1_555
C1 C2 1_555 1_555
C2 C3 1_555 1_555
C3 H3 1_555 1_555
C4 C3 1_555 1_555
H4 C4 1_555 1_555
C5 C4 1_555 1_555
C6 C1 1_555 1_555
H5 C6 1_555 1_555
C7 C8 1_555 1_555
C8 C2 1_555 1_555
C9 C8 1_555 1_555
H6 C9 1_555 1_555
C10 C9 1_555 1_555
H7 C10 1_555 1_555
C11 C10 1_555 1_555
C12 C7 1_555 1_555
H8 C12 1_555 1_555
C13 C14 1_555 1_555
C14 H9 1_555 1_555
C15 C14 1_555 1_555
H10 C15 1_555 1_555
C16 C15 1_555 1_555
H11 C16 1_555 1_555
C17 N3 1_555 1_555
C18 C1 1_555 1_555
C19 O6 1_555 1_555
H12 C19 1_555 1_555
H13 C19 1_555 1_555
C20 C19 1_555 1_555
H14 C20 1_555 1_555
H15 C20 1_555 1_555
C21 O7 1_555 1_555
H16 C21 1_555 1_555
H17 C21 1_555 1_555
C22 N4 1_555 1_555
H18 C22 1_555 1_555
H19 C22 1_555 1_555
C23 N4 1_555 1_555
C24 C7 1_555 1_555
C25 O10 1_555 1_555
H20 C25 1_555 1_555
H21 C25 1_555 1_555
C26 C25 1_555 1_555
H22 C26 1_555 1_555
H23 C26 1_555 1_555
C27 O11 1_555 1_555
H24 C27 1_555 1_555
H25 C27 1_555 1_555
C28 N5 1_555 1_555
H26 C28 1_555 1_555
H27 C28 1_555 1_555
C29 N5 1_555 1_555
H29 O13 1_555 1_555
C5 C6 1_555 1_555
C11 C12 1_555 1_555
C13 C23 1_555 1_555
C16 C17 1_555 1_555
C17 C29 1_555 1_555
C21 C22 1_555 1_555
C27 C28 1_555 1_555

#END
