
#######################################################################
#
#                 Cambridge Crystallographic Data Centre
#                                CCDC 
#
#######################################################################
#
# If this CIF has been generated from an entry in the Cambridge 
# Structural Database, then it will include bibliographic, chemical, 
# crystal, experimental, refinement or atomic coordinate data resulting 
# from the CCDC's data processing and validation procedures.
#
#######################################################################

data_ABOLUY
_chemical_formula_moiety         'C33 H27 N11 O6,2(C1 H4 O1),H2 O1'
_chemical_name_systematic        
'2,6-bis((6-(6-Acetylaminopyridin-2-ylcarbamoyl)pyridine-2-carbonyl)amino)pyridine methanol solvate monohydrate'
_symmetry_cell_setting           monoclinic
_symmetry_space_group_name_H-M   'C 2/c'
_symmetry_Int_Tables_number      15
_space_group_name_Hall           '-C 2yn'
loop_
_symmetry_equiv_pos_site_id
_symmetry_equiv_pos_as_xyz
1 x,y,z
2 1/2+x,1/2+y,z
3 x,-y,1/2+z
4 1/2+x,1/2-y,1/2+z
5 -x,-y,-z
6 1/2-x,1/2-y,-z
7 -x,y,1/2-z
8 1/2-x,1/2+y,1/2-z
_cell_length_a                   16.250(3)
_cell_length_b                   24.110(5)
_cell_length_c                   18.070(4)
_cell_angle_alpha                90.00
_cell_angle_beta                 91.78(3)
_cell_angle_gamma                90.00
_cell_volume                     7076.18
_exptl_crystal_colour            colorless
_chemical_melting_point          'above 260deg.C'
_cell_formula_units_Z            8
_exptl_crystal_recrystallization_method dmso/methanol
loop_
_atom_site_label
_atom_site_type_symbol
_atom_site_fract_x
_atom_site_fract_y
_atom_site_fract_z
O7 O 0.65263(18) -0.08114(14) -0.0750(2)
H28 H 0.644(5) -0.115(3) -0.101(5)
H29 H 0.616(6) -0.084(4) -0.014(6)
O1 O 0.0563(2) 0.01862(15) 0.1166(2)
O2 O 0.16655(18) 0.32940(14) 0.0629(2)
O3 O 0.59222(17) 0.32112(12) 0.02263(19)
O4 O 0.62689(16) -0.00970(11) 0.04793(17)
O5 O 0.28901(19) -0.06228(11) 0.27189(18)
O6 O 0.1618(2) 0.25543(14) 0.3341(2)
N1 N 0.17425(19) 0.06987(14) 0.11845(19)
H1 H 0.2269 0.0666 0.1168
N2 N 0.20011(16) 0.16299(13) 0.11246(16)
N3 N 0.24137(17) 0.25413(12) 0.10147(17)
H2 H 0.2911 0.2423 0.1070
N4 N 0.38015(17) 0.30764(11) 0.05885(16)
N5 N 0.51156(18) 0.24482(12) 0.0404(2)
H3 H 0.4614 0.2356 0.0481
N6 N 0.53542(15) 0.15254(11) 0.06007(17)
N7 N 0.54254(16) 0.05969(11) 0.08496(16)
H4 H 0.4983 0.0657 0.1086
N8 N 0.45166(16) -0.01502(11) 0.16016(15)
N9 N 0.33250(17) 0.02559(12) 0.24465(17)
H5 H 0.3698 0.0431 0.2213
N10 N 0.29351(18) 0.11327(12) 0.27471(17)
N11 N 0.2711(2) 0.20473(13) 0.2962(2)
H6 H 0.3192 0.2082 0.2782
C1 C 0.1832(3) -0.0283(2) 0.0918(3)
H7 H 0.2397 -0.0169 0.0891
H8 H 0.1649 -0.0432 0.0449
H9 H 0.1786 -0.0562 0.1294
C2 C 0.1301(3) 0.02161(19) 0.1110(3)
C3 C 0.1446(2) 0.12384(17) 0.1284(2)
C4 C 0.0655(2) 0.1373(2) 0.1516(3)
H10 H 0.0277 0.1099 0.1630
C5 C 0.0464(2) 0.1919(2) 0.1566(3)
H11 H -0.0057 0.2020 0.1717
C6 C 0.1011(2) 0.2322(2) 0.1404(3)
H12 H 0.0873 0.2695 0.1437
C7 C 0.1781(2) 0.21562(17) 0.1186(2)
C8 C 0.2327(2) 0.30702(16) 0.0776(2)
C9 C 0.3120(2) 0.33858(14) 0.0684(2)
C10 C 0.3124(3) 0.39518(16) 0.0692(2)
H13 H 0.2643 0.4149 0.0769
C11 C 0.3853(3) 0.42250(17) 0.0583(3)
H14 H 0.3874 0.4610 0.0601
C12 C 0.4548(3) 0.39253(16) 0.0449(2)
H15 H 0.5041 0.4102 0.0348
C13 C 0.4499(2) 0.33451(15) 0.0466(2)
C14 C 0.5250(2) 0.30005(15) 0.0349(2)
C15 C 0.5665(2) 0.20039(15) 0.0355(2)
C16 C 0.6456(2) 0.20516(17) 0.0082(2)
H16 H 0.6663 0.2389 -0.0078
C17 C 0.6917(2) 0.15659(17) 0.0061(2)
H17 H 0.7446 0.1578 -0.0121
C18 C 0.6612(2) 0.10741(17) 0.0301(2)
H18 H 0.6926 0.0752 0.0288
C19 C 0.5814(2) 0.10683(15) 0.05683(19)
C20 C 0.5657(2) 0.00585(15) 0.0797(2)
C21 C 0.51062(19) -0.03516(13) 0.11757(19)
C22 C 0.5233(2) -0.09176(15) 0.1065(2)
H19 H 0.5651 -0.1044 0.0768
C23 C 0.4719(3) -0.12830(16) 0.1410(3)
H20 H 0.4783 -0.1663 0.1341
C24 C 0.4120(2) -0.10913(14) 0.1849(2)
H21 H 0.3775 -0.1336 0.2088
C25 C 0.4033(2) -0.05228(14) 0.1936(2)
C26 C 0.3367(2) -0.03038(15) 0.2411(2)
C27 C 0.2756(2) 0.05939(15) 0.2811(2)
C28 C 0.2074(2) 0.03995(18) 0.3181(2)
H22 H 0.1964 0.0022 0.3219
C29 C 0.1573(2) 0.0788(2) 0.3484(2)
H23 H 0.1110 0.0672 0.3730
C30 C 0.1737(2) 0.13492(19) 0.3436(2)
H24 H 0.1400 0.1613 0.3649
C31 C 0.2438(2) 0.15012(16) 0.3048(2)
C32 C 0.2327(3) 0.25298(18) 0.3121(3)
C33 C 0.2846(4) 0.3042(2) 0.2977(4)
H25 H 0.3375 0.2930 0.2808
H26 H 0.2915 0.3251 0.3426
H27 H 0.2574 0.3267 0.2605
O8? O 0.5000 0.3206(16) 0.2500
O9? O 0.5086(5) 0.3698(3) 0.2286(4)
C34? C 0.5641(8) 0.4153(6) 0.2506(7)
O10? O 0.3891(4) 0.1884(3) 0.1589(4)
O11? O 0.4021(7) 0.2210(5) 0.1923(7)
C35? C 0.4804(6) 0.2029(4) 0.2137(5)
loop_
_geom_bond_atom_site_label_1
_geom_bond_atom_site_label_2
_geom_bond_site_symmetry_1
_geom_bond_site_symmetry_2
O1 C2 1_555 1_555
O2 C8 1_555 1_555
O3 C14 1_555 1_555
O4 C20 1_555 1_555
O5 C26 1_555 1_555
O6 C32 1_555 1_555
N1 H1 1_555 1_555
N2 C3 1_555 1_555
N3 H2 1_555 1_555
N4 C9 1_555 1_555
N5 H3 1_555 1_555
N6 C15 1_555 1_555
N7 H4 1_555 1_555
N8 C21 1_555 1_555
N9 H5 1_555 1_555
N10 C27 1_555 1_555
N11 H6 1_555 1_555
C1 H7 1_555 1_555
H8 C1 1_555 1_555
H9 C1 1_555 1_555
C2 N1 1_555 1_555
C3 N1 1_555 1_555
C4 C3 1_555 1_555
H10 C4 1_555 1_555
C5 C4 1_555 1_555
H11 C5 1_555 1_555
C6 C5 1_555 1_555
H12 C6 1_555 1_555
C7 N2 1_555 1_555
C8 N3 1_555 1_555
C9 C8 1_555 1_555
C10 C9 1_555 1_555
H13 C10 1_555 1_555
C11 C10 1_555 1_555
H14 C11 1_555 1_555
C12 C11 1_555 1_555
H15 C12 1_555 1_555
C13 N4 1_555 1_555
C14 N5 1_555 1_555
C15 N5 1_555 1_555
C16 C15 1_555 1_555
H16 C16 1_555 1_555
C17 C16 1_555 1_555
H17 C17 1_555 1_555
C18 C17 1_555 1_555
H18 C18 1_555 1_555
C19 N6 1_555 1_555
C20 N7 1_555 1_555
C21 C20 1_555 1_555
C22 C21 1_555 1_555
H19 C22 1_555 1_555
C23 C22 1_555 1_555
H20 C23 1_555 1_555
C24 C23 1_555 1_555
H21 C24 1_555 1_555
C25 N8 1_555 1_555
C26 N9 1_555 1_555
C27 N9 1_555 1_555
C28 C27 1_555 1_555
H22 C28 1_555 1_555
C29 C28 1_555 1_555
H23 C29 1_555 1_555
C30 C29 1_555 1_555
H24 C30 1_555 1_555
C31 N10 1_555 1_555
C32 N11 1_555 1_555
C33 C32 1_555 1_555
H25 C33 1_555 1_555
H26 C33 1_555 1_555
H27 C33 1_555 1_555
O7 H28 1_555 1_555
H29 O7 1_555 1_555
N3 C7 1_555 1_555
N7 C19 1_555 1_555
N11 C31 1_555 1_555
C1 C2 1_555 1_555
C6 C7 1_555 1_555
C12 C13 1_555 1_555
C13 C14 1_555 1_555
C18 C19 1_555 1_555
C24 C25 1_555 1_555
C25 C26 1_555 1_555
C30 C31 1_555 1_555

#END
