
#######################################################################
#
#                 Cambridge Crystallographic Data Centre
#                                CCDC 
#
#######################################################################
#
# If this CIF has been generated from an entry in the Cambridge 
# Structural Database, then it will include bibliographic, chemical, 
# crystal, experimental, refinement or atomic coordinate data resulting 
# from the CCDC's data processing and validation procedures.
#
#######################################################################

data_ABOMEJ
_chemical_formula_moiety         'C65 H47 N23 O10,0.5(C1 H4 O1),1.5(H2 O1)'
_chemical_name_systematic        
'2,6-bis(6-((6-(6-((6-(6-Aminopyridin-2-ylcarbamoyl)pyridine-2-carbonyl)amino)pyridin-2-ylcarbamoyl)pyridine-2-carbonyl)amino)pyridin-2-ylcarbamoyl)pyridine methanol solvate sesquihydrate'
_symmetry_cell_setting           monoclinic
_symmetry_space_group_name_H-M   'C 2/c'
_symmetry_Int_Tables_number      15
_space_group_name_Hall           '-C 2yn'
loop_
_symmetry_equiv_pos_site_id
_symmetry_equiv_pos_as_xyz
1 x,y,z
2 1/2+x,1/2+y,z
3 x,-y,1/2+z
4 1/2+x,1/2-y,1/2+z
5 -x,-y,-z
6 1/2-x,1/2-y,-z
7 -x,y,1/2-z
8 1/2-x,1/2+y,1/2-z
_cell_length_a                   17.451(4)
_cell_length_b                   27.226(5)
_cell_length_c                   13.123(3)
_cell_angle_alpha                90
_cell_angle_beta                 102.59(3)
_cell_angle_gamma                90
_cell_volume                     6085.09
_exptl_crystal_colour            colorless
_exptl_crystal_description       diamond
_chemical_melting_point          'above 260deg.C'
_cell_formula_units_Z            4
_exptl_crystal_recrystallization_method dmso/methanol
loop_
_atom_site_label
_atom_site_type_symbol
_atom_site_fract_x
_atom_site_fract_y
_atom_site_fract_z
O6 O 0.0000 0.4215(2) 0.7500
C34 C 0.0944(19) 0.4249(13) 0.774(3)
C34F C -0.0944(19) 0.4249(13) 0.726(3)
O7 O 0.0799(5) 0.2099(3) 0.2591(6)
O1 O 0.2940(2) 0.46160(10) 0.6450(2)
O2 O 0.31755(16) 0.31930(10) 1.09526(19)
O3 O 0.39589(19) 0.05804(10) 0.8650(2)
O4 O 0.40118(19) 0.14037(10) 0.3601(2)
O5 O 0.50593(18) 0.42142(10) 0.4844(2)
N1 N 0.2212(2) 0.27172(14) 0.3611(3)
H1 H 0.2092 0.2508 0.4064
H2 H 0.2124 0.2639 0.2945
N2 N 0.26531(18) 0.32566(11) 0.4970(2)
N3 N 0.29720(18) 0.37804(11) 0.6366(2)
H3 H 0.3033 0.3516 0.6761
N4 N 0.30749(17) 0.37415(10) 0.8476(2)
N5 N 0.34167(17) 0.28727(10) 0.9441(2)
H4 H 0.3441 0.2956 0.8801
N6 N 0.37219(17) 0.21119(10) 0.8916(2)
N7 N 0.40131(17) 0.13905(10) 0.8203(2)
H5 H 0.4113 0.1579 0.7702
N8 N 0.40634(16) 0.11509(10) 0.6259(2)
N9 N 0.42185(17) 0.19085(10) 0.5030(2)
H6 H 0.4238 0.1906 0.5706
N10 N 0.45471(16) 0.27200(10) 0.5314(2)
N11 N 0.48814(18) 0.35209(10) 0.5760(2)
H7 H 0.4936 0.3412 0.6403
N12 N 0.5000 0.40475(14) 0.7500
C1 C 0.2534(2) 0.31613(15) 0.3942(3)
C2 C 0.2706(2) 0.34995(16) 0.3224(3)
H8 H 0.2633 0.3418 0.2505
C3 C 0.2982(2) 0.39507(15) 0.3582(3)
H9 H 0.3107 0.4186 0.3108
C4 C 0.3082(2) 0.40695(14) 0.4632(3)
H10 H 0.3263 0.4384 0.4890
C5 C 0.2905(2) 0.37064(13) 0.5288(3)
C6 C 0.2953(2) 0.42151(13) 0.6860(3)
C7 C 0.2941(2) 0.41789(13) 0.8006(3)
C8 C 0.2788(3) 0.46023(14) 0.8516(3)
H11 H 0.2692 0.4905 0.8151
C9 C 0.2780(3) 0.45748(14) 0.9568(3)
H12 H 0.2673 0.4858 0.9936
C10 C 0.2930(2) 0.41307(14) 1.0070(3)
H13 H 0.2936 0.4101 1.0793
C11 C 0.3074(2) 0.37271(13) 0.9498(3)
C12 C 0.3225(2) 0.32380(13) 1.0043(3)
C13 C 0.35811(19) 0.23806(12) 0.9707(2)
C14 C 0.3603(2) 0.21882(13) 1.0699(3)
H14 H 0.3495 0.2387 1.1246
C15 C 0.3787(2) 0.16955(13) 1.0853(3)
H15 H 0.3815 0.1554 1.1522
C16 C 0.3929(2) 0.14066(13) 1.0049(3)
H16 H 0.4050 0.1067 1.0146
C17 C 0.38874(19) 0.16366(12) 0.9091(3)
C18 C 0.4000(2) 0.09003(13) 0.8015(3)
C19 C 0.4040(2) 0.07734(13) 0.6913(3)
C20 C 0.4039(2) 0.02847(14) 0.6606(3)
H17 H 0.4033 0.0027 0.7092
C21 C 0.4048(3) 0.01829(13) 0.5574(3)
H18 H 0.4056 -0.0148 0.5344
C22 C 0.4046(2) 0.05642(14) 0.4884(3)
H19 H 0.4036 0.0502 0.4168
C23 C 0.4060(2) 0.10435(13) 0.5262(3)
C24 C 0.4088(2) 0.14673(13) 0.4539(3)
C25 C 0.4325(2) 0.23667(12) 0.4599(3)
C26 C 0.4215(2) 0.24447(14) 0.3533(3)
H20 H 0.4042 0.2188 0.3045
C27 C 0.4366(2) 0.29085(14) 0.3208(3)
H21 H 0.4289 0.2976 0.2483
C28 C 0.4630(2) 0.32794(14) 0.3925(3)
H22 H 0.4763 0.3595 0.3708
C29 C 0.4691(2) 0.31692(12) 0.4967(3)
C30 C 0.4992(2) 0.40127(13) 0.5650(3)
C31 C 0.5011(2) 0.43024(13) 0.6629(3)
C32 C 0.5019(3) 0.48105(14) 0.6600(3)
H23 H 0.5037 0.4979 0.5973
C33 C 0.5000 0.5066(2) 0.7500
H24 H 0.5000 0.5415 0.7500
C31F C 0.4989(2) 0.43024(13) 0.8371(3)
C30F C 0.5008(2) 0.40127(13) 0.9350(3)
O5F O 0.49407(18) 0.42142(10) 1.0156(2)
N11F N 0.51186(18) 0.35209(10) 0.9240(2)
H7F H 0.5064 0.3412 0.8597
C29F C 0.5309(2) 0.31692(12) 1.0033(3)
N10F N 0.54529(16) 0.27200(10) 0.9686(2)
C25F C 0.5675(2) 0.23667(12) 1.0401(3)
N9F N 0.57815(17) 0.19085(10) 0.9970(2)
H6F H 0.5762 0.1906 0.9294
C24F C 0.5912(2) 0.14673(13) 1.0461(3)
O4F O 0.59882(19) 0.14037(10) 1.1399(2)
C23F C 0.5940(2) 0.10435(13) 0.9738(3)
N8F N 0.59366(16) 0.11509(10) 0.8741(2)
C19F C 0.5960(2) 0.07734(13) 0.8087(3)
C18F C 0.6000(2) 0.09003(13) 0.6985(3)
O3F O 0.60411(19) 0.05804(10) 0.6350(2)
N7F N 0.59869(17) 0.13905(10) 0.6797(2)
H5F H 0.5887 0.1579 0.7298
C17F C 0.61126(19) 0.16366(12) 0.5909(3)
N6F N 0.62781(17) 0.21119(10) 0.6084(2)
C13F C 0.64189(19) 0.23806(12) 0.5293(2)
N5F N 0.65833(17) 0.28727(10) 0.5559(2)
H4F H 0.6559 0.2956 0.6199
C12F C 0.6775(2) 0.32380(13) 0.4957(3)
O2F O 0.68245(16) 0.31930(10) 0.40474(19)
C11F C 0.6926(2) 0.37271(13) 0.5502(3)
N4F N 0.69251(17) 0.37415(10) 0.6524(2)
C7F C 0.7059(2) 0.41789(13) 0.6994(3)
C6F C 0.7047(2) 0.42151(13) 0.8140(3)
O1F O 0.7060(2) 0.46160(10) 0.8550(2)
N3F N 0.70280(18) 0.37804(11) 0.8634(2)
H3F H 0.6967 0.3516 0.8239
C5F C 0.7095(2) 0.37064(13) 0.9712(3)
N2F N 0.73469(18) 0.32566(11) 1.0030(2)
C1F C 0.7466(2) 0.31613(15) 1.1058(3)
N1F N 0.7788(2) 0.27172(14) 1.1389(3)
H1F H 0.7908 0.2508 1.0936
H2F H 0.7876 0.2639 1.2055
C2F C 0.7294(2) 0.34995(16) 1.1776(3)
H8F H 0.7367 0.3418 1.2495
C3F C 0.7018(2) 0.39507(15) 1.1418(3)
H9F H 0.6893 0.4186 1.1892
C4F C 0.6918(2) 0.40695(14) 1.0368(3)
H10F H 0.6737 0.4384 1.0110
C8F C 0.7212(3) 0.46023(14) 0.6484(3)
H11F H 0.7308 0.4905 0.6849
C9F C 0.7220(3) 0.45748(14) 0.5432(3)
H12F H 0.7327 0.4858 0.5064
C10F C 0.7070(2) 0.41307(14) 0.4930(3)
H13F H 0.7064 0.4101 0.4207
C14F C 0.6397(2) 0.21882(13) 0.4301(3)
H14F H 0.6505 0.2387 0.3754
C15F C 0.6213(2) 0.16955(13) 0.4147(3)
H15F H 0.6185 0.1554 0.3478
C16F C 0.6071(2) 0.14066(13) 0.4951(3)
H16F H 0.5950 0.1067 0.4854
C20F C 0.5961(2) 0.02847(14) 0.8394(3)
H17F H 0.5967 0.0027 0.7908
C21F C 0.5952(3) 0.01829(13) 0.9426(3)
H18F H 0.5944 -0.0148 0.9656
C22F C 0.5954(2) 0.05642(14) 1.0116(3)
H19F H 0.5964 0.0502 1.0832
C26F C 0.5785(2) 0.24447(14) 1.1467(3)
H20F H 0.5958 0.2188 1.1955
C27F C 0.5634(2) 0.29085(14) 1.1792(3)
H21F H 0.5711 0.2976 1.2517
C28F C 0.5370(2) 0.32794(14) 1.1075(3)
H22F H 0.5237 0.3595 1.1292
C32F C 0.4981(3) 0.48105(14) 0.8400(3)
H23F H 0.4963 0.4979 0.9027
O8? O 0.0330(6) 0.2794(4) 0.2697(9)
loop_
_geom_bond_atom_site_label_1
_geom_bond_atom_site_label_2
_geom_bond_site_symmetry_1
_geom_bond_site_symmetry_2
O1 C6 1_555 1_555
O2 C12 1_555 1_555
O3 C18 1_555 1_555
O4 C24 1_555 1_555
O5 C30 1_555 1_555
N1 H1 1_555 1_555
H2 N1 1_555 1_555
N2 C1 1_555 1_555
N3 H3 1_555 1_555
N4 C7 1_555 1_555
N5 H4 1_555 1_555
N6 C13 1_555 1_555
N7 H5 1_555 1_555
N8 C19 1_555 1_555
N9 H6 1_555 1_555
N10 C25 1_555 1_555
N11 H7 1_555 1_555
N12 C31 1_555 1_555
C1 N1 1_555 1_555
C2 C1 1_555 1_555
H8 C2 1_555 1_555
C3 C2 1_555 1_555
H9 C3 1_555 1_555
C4 C3 1_555 1_555
H10 C4 1_555 1_555
C5 N2 1_555 1_555
C6 N3 1_555 1_555
C7 C6 1_555 1_555
C8 C7 1_555 1_555
H11 C8 1_555 1_555
C9 C8 1_555 1_555
H12 C9 1_555 1_555
C10 C9 1_555 1_555
H13 C10 1_555 1_555
C11 N4 1_555 1_555
C12 N5 1_555 1_555
C13 N5 1_555 1_555
C14 C13 1_555 1_555
H14 C14 1_555 1_555
C15 C14 1_555 1_555
H15 C15 1_555 1_555
C16 C15 1_555 1_555
H16 C16 1_555 1_555
C17 N6 1_555 1_555
C18 N7 1_555 1_555
C19 C18 1_555 1_555
C20 C19 1_555 1_555
H17 C20 1_555 1_555
C21 C20 1_555 1_555
H18 C21 1_555 1_555
C22 C21 1_555 1_555
H19 C22 1_555 1_555
C23 N8 1_555 1_555
C24 N9 1_555 1_555
C25 N9 1_555 1_555
C26 C25 1_555 1_555
H20 C26 1_555 1_555
C27 C26 1_555 1_555
H21 C27 1_555 1_555
C28 C27 1_555 1_555
H22 C28 1_555 1_555
C29 N10 1_555 1_555
C30 N11 1_555 1_555
C31 C30 1_555 1_555
C32 C31 1_555 1_555
H23 C32 1_555 1_555
C33 C32 1_555 1_555
H24 C33 1_555 1_555
O6 C34 1_555 1_555
C31F N12 1_555 1_555
C30F C31F 1_555 1_555
O5F C30F 1_555 1_555
N11F C30F 1_555 1_555
H7F N11F 1_555 1_555
C29F N11F 1_555 1_555
N10F C29F 1_555 1_555
C25F N10F 1_555 1_555
N9F C25F 1_555 1_555
H6F N9F 1_555 1_555
C24F N9F 1_555 1_555
O4F C24F 1_555 1_555
C23F C24F 1_555 1_555
N8F C23F 1_555 1_555
C19F N8F 1_555 1_555
C18F C19F 1_555 1_555
O3F C18F 1_555 1_555
N7F C18F 1_555 1_555
H5F N7F 1_555 1_555
C17F N7F 1_555 1_555
N6F C17F 1_555 1_555
C13F N6F 1_555 1_555
N5F C13F 1_555 1_555
H4F N5F 1_555 1_555
C12F N5F 1_555 1_555
O2F C12F 1_555 1_555
C11F C12F 1_555 1_555
N4F C11F 1_555 1_555
C7F N4F 1_555 1_555
C6F C7F 1_555 1_555
O1F C6F 1_555 1_555
N3F C6F 1_555 1_555
H3F N3F 1_555 1_555
C5F N3F 1_555 1_555
N2F C5F 1_555 1_555
C1F N2F 1_555 1_555
N1F C1F 1_555 1_555
H1F N1F 1_555 1_555
H2F N1F 1_555 1_555
C2F C1F 1_555 1_555
H8F C2F 1_555 1_555
C3F C2F 1_555 1_555
H9F C3F 1_555 1_555
C4F C5F 1_555 1_555
H10F C4F 1_555 1_555
C8F C7F 1_555 1_555
H11F C8F 1_555 1_555
C9F C8F 1_555 1_555
H12F C9F 1_555 1_555
C10F C11F 1_555 1_555
H13F C10F 1_555 1_555
C14F C13F 1_555 1_555
H14F C14F 1_555 1_555
C15F C14F 1_555 1_555
H15F C15F 1_555 1_555
C16F C17F 1_555 1_555
H16F C16F 1_555 1_555
C20F C19F 1_555 1_555
H17F C20F 1_555 1_555
C21F C20F 1_555 1_555
H18F C21F 1_555 1_555
C22F C23F 1_555 1_555
H19F C22F 1_555 1_555
C26F C25F 1_555 1_555
H20F C26F 1_555 1_555
C27F C26F 1_555 1_555
H21F C27F 1_555 1_555
C28F C29F 1_555 1_555
H22F C28F 1_555 1_555
C32F C33 1_555 1_555
H23F C32F 1_555 1_555
C34F O6 1_555 1_555
N3 C5 1_555 1_555
N7 C17 1_555 1_555
N11 C29 1_555 1_555
C4 C5 1_555 1_555
C10 C11 1_555 1_555
C11 C12 1_555 1_555
C16 C17 1_555 1_555
C22 C23 1_555 1_555
C23 C24 1_555 1_555
C28 C29 1_555 1_555
C31F C32F 1_555 1_555
C3F C4F 1_555 1_555
C9F C10F 1_555 1_555
C15F C16F 1_555 1_555
C21F C22F 1_555 1_555
C27F C28F 1_555 1_555

#END
