
#######################################################################
#
#                 Cambridge Crystallographic Data Centre
#                                CCDC 
#
#######################################################################
#
# If this CIF has been generated from an entry in the Cambridge 
# Structural Database, then it will include bibliographic, chemical, 
# crystal, experimental, refinement or atomic coordinate data resulting 
# from the CCDC's data processing and validation procedures.
#
#######################################################################

data_ABOMIN
_chemical_formula_moiety         
'C51 H47 N15 O10,2(C2 H6 O1 S1),1.5(C2 H3 N1),2(H2 O1)'
_chemical_name_systematic        
'2,6-bis(6-((6-(6-t-Butoxycarbonylaminopyridin-2-ylcarbamoyl)-pyridine-2-carbonyl)amino)pyridin-2-ylcarbamoyl)pyridine dimethylsulfoxide acetonitrile solvate dihydrate'
_symmetry_cell_setting           monoclinic
_symmetry_space_group_name_H-M   'C 2/c'
_symmetry_Int_Tables_number      15
_space_group_name_Hall           '-C 2yn'
loop_
_symmetry_equiv_pos_site_id
_symmetry_equiv_pos_as_xyz
1 x,y,z
2 1/2+x,1/2+y,z
3 x,-y,1/2+z
4 1/2+x,1/2-y,1/2+z
5 -x,-y,-z
6 1/2-x,1/2-y,-z
7 -x,y,1/2-z
8 1/2-x,1/2+y,1/2-z
_cell_length_a                   33.952(7)
_cell_length_b                   13.510(3)
_cell_length_c                   27.970(6)
_cell_angle_alpha                90
_cell_angle_beta                 97.75(3)
_cell_angle_gamma                90
_cell_volume                     12712.4
_exptl_crystal_colour            colorless
_exptl_crystal_description       prism
_chemical_melting_point          'above 250deg.C'
_cell_formula_units_Z            8
loop_
_atom_site_label
_atom_site_type_symbol
_atom_site_fract_x
_atom_site_fract_y
_atom_site_fract_z
S1 S 0.04745(4) 0.76964(8) 0.36604(4)
O11 O 0.08147(9) 0.8404(2) 0.36364(11)
C52 C 0.01604(19) 0.8267(5) 0.4041(3)
H48 H 0.0292 0.8259 0.4375
H49 H -0.0091 0.7903 0.4020
H50 H 0.0108 0.8953 0.3938
C53 C 0.0156(2) 0.7825(6) 0.3109(2)
H51 H 0.0283 0.7538 0.2847
H52 H 0.0102 0.8528 0.3044
H53 H -0.0095 0.7478 0.3131
S2 S 0.22589(4) 0.78605(8) 0.41093(5)
O12 O 0.18915(10) 0.7230(2) 0.39798(12)
C54 C 0.24474(17) 0.8119(4) 0.35554(19)
H54 H 0.2269 0.8583 0.3363
H55 H 0.2463 0.7502 0.3374
H56 H 0.2713 0.8413 0.3625
C55 C 0.26486(18) 0.7030(4) 0.4351(2)
H57 H 0.2596 0.6788 0.4666
H58 H 0.2904 0.7380 0.4387
H59 H 0.2659 0.6469 0.4131
N16 N -0.0014(5) 0.5115(13) 0.3560(7)
C56 C -0.0020(6) 0.4769(15) 0.3130(8)
C57 C 0.0000 0.502(3) 0.2500
C56F C 0.0020(6) 0.4769(15) 0.1870(8)
N16F N 0.0014(5) 0.5115(13) 0.1440(7)
O13 O 0.13681(10) 0.7789(2) 0.29210(11)
O14 O 0.15535(15) 1.2835(3) 0.16632(15)
O1 O 0.05197(9) 1.0731(2) 0.40730(10)
O2 O 0.03663(10) 1.1941(2) 0.35118(11)
O3 O 0.08397(12) 0.9193(3) 0.11447(12)
O4 O 0.10580(13) 0.4340(3) 0.20486(15)
O5 O 0.09440(12) 0.5281(3) 0.48320(14)
O6 O 0.15082(11) 1.0293(3) 0.49893(12)
O7 O 0.18639(12) 1.1200(3) 0.22665(13)
O8 O 0.20967(12) 0.6290(3) 0.15240(12)
O9 O 0.21750(10) 0.3638(2) 0.40918(12)
O10 O 0.20360(9) 0.4944(2) 0.45548(10)
N1 N 0.06168(11) 1.0428(3) 0.33188(12)
H1 H 0.0690 0.9848 0.3444
N2 N 0.07433(10) 0.9737(3) 0.26105(12)
N3 N 0.08869(11) 0.8857(3) 0.19547(12)
H2 H 0.0950 0.8385 0.2168
N4 N 0.10006(11) 0.6918(3) 0.17825(13)
N5 N 0.10819(11) 0.5673(3) 0.25643(14)
H3 H 0.1100 0.6323 0.2574
N6 N 0.11105(11) 0.5808(3) 0.33872(14)
N7 N 0.11451(11) 0.6137(3) 0.41986(13)
H4 H 0.1243 0.6711 0.4124
N8 N 0.12417(11) 0.7787(3) 0.47389(13)
N9 N 0.14541(11) 0.9415(3) 0.42810(12)
H5 H 0.1400 0.8820 0.4162
N10 N 0.16060(11) 0.9747(3) 0.35248(13)
N11 N 0.17411(11) 0.9891(3) 0.27523(12)
H6 H 0.1717 0.9242 0.2753
N12 N 0.19110(10) 0.8613(3) 0.20519(12)
N13 N 0.20167(11) 0.6694(3) 0.23015(13)
H7 H 0.1971 0.7202 0.2483
N14 N 0.20416(10) 0.5852(3) 0.30152(12)
N15 N 0.20430(10) 0.5188(2) 0.37695(12)
H8 H 0.1991 0.5799 0.3851
C1 C 0.04808(16) 1.0642(4) 0.49007(16)
H9 H 0.0325 1.0032 0.4848
H10 H 0.0418 1.0970 0.5194
H11 H 0.0765 1.0482 0.4937
C2 C 0.06161(17) 1.2275(4) 0.45514(18)
H12 H 0.0551 1.2709 0.4271
H13 H 0.0901 1.2121 0.4592
H14 H 0.0550 1.2608 0.4841
C3 C -0.00638(15) 1.1487(4) 0.43569(18)
H15 H -0.0198 1.0845 0.4312
H16 H -0.0120 1.1876 0.4060
H17 H -0.0161 1.1843 0.4623
C4 C 0.03796(14) 1.1326(3) 0.44731(15)
C5 C 0.04891(14) 1.1120(3) 0.36231(16)
C6 C 0.06411(13) 1.0565(3) 0.28257(15)
C7 C 0.05780(17) 1.1467(4) 0.25831(18)
H18 H 0.0505 1.2045 0.2744
C8 C 0.06259(19) 1.1487(4) 0.21027(19)
H19 H 0.0590 1.2091 0.1929
C9 C 0.07262(18) 1.0639(4) 0.18694(17)
H20 H 0.0754 1.0645 0.1536
C10 C 0.07846(13) 0.9779(3) 0.21410(15)
C11 C 0.08994(14) 0.8611(4) 0.14825(16)
C12 C 0.09806(14) 0.7531(4) 0.14030(16)
C13 C 0.10151(15) 0.7208(5) 0.09386(18)
H21 H 0.0994 0.7661 0.0677
C14 C 0.10797(17) 0.6214(5) 0.0866(2)
H22 H 0.1107 0.5972 0.0553
C15 C 0.11037(16) 0.5581(5) 0.1252(2)
H23 H 0.1149 0.4894 0.1210
C16 C 0.10613(14) 0.5954(4) 0.17055(18)
C17 C 0.10667(15) 0.5252(4) 0.2124(2)
C18 C 0.10713(13) 0.5188(3) 0.30119(18)
C19 C 0.10192(16) 0.4170(4) 0.3059(2)
H24 H 0.0999 0.3743 0.2787
C20 C 0.09980(16) 0.3813(4) 0.3512(2)
H25 H 0.0960 0.3124 0.3554
C21 C 0.10308(15) 0.4429(3) 0.3909(2)
H26 H 0.1011 0.4181 0.4223
C22 C 0.10936(13) 0.5431(3) 0.38284(18)
C23 C 0.10622(14) 0.6047(4) 0.46577(18)
C24 C 0.11198(14) 0.6976(4) 0.49536(17)
C25 C 0.10400(16) 0.6978(4) 0.54329(19)
H27 H 0.0959 0.6390 0.5578
C26 C 0.10815(17) 0.7858(5) 0.56901(19)
H28 H 0.1024 0.7884 0.6013
C27 C 0.12079(15) 0.8695(4) 0.54725(17)
H29 H 0.1240 0.9304 0.5643
C28 C 0.12873(13) 0.8626(4) 0.49978(16)
C29 C 0.14294(13) 0.9532(4) 0.47590(16)
C30 C 0.15559(13) 1.0130(3) 0.39559(15)
C31 C 0.15858(14) 1.1136(3) 0.40600(18)
H30 H 0.1548 1.1385 0.4368
C32 C 0.16713(16) 1.1753(4) 0.3701(2)
H31 H 0.1696 1.2444 0.3761
C33 C 0.17232(15) 1.1388(3) 0.32493(19)
H32 H 0.1779 1.1816 0.2997
C34 C 0.16907(13) 1.0376(3) 0.31825(16)
C35 C 0.18232(13) 1.0306(4) 0.23313(16)
C36 C 0.18663(13) 0.9574(4) 0.19336(16)
C37 C 0.18674(15) 0.9929(4) 0.14687(17)
H33 H 0.1833 1.0614 0.1400
C38 C 0.19199(15) 0.9267(4) 0.11090(17)
H34 H 0.1915 0.9490 0.0786
C39 C 0.19799(15) 0.8279(4) 0.12198(16)
H35 H 0.2027 0.7813 0.0979
C40 C 0.19692(13) 0.7983(4) 0.16993(16)
C41 C 0.20338(14) 0.6904(4) 0.18255(16)
C42 C 0.20624(13) 0.5771(3) 0.25410(15)
C43 C 0.21066(14) 0.4881(4) 0.23066(16)
H36 H 0.2117 0.4854 0.1969
C44 C 0.21343(14) 0.4036(4) 0.25867(17)
H37 H 0.2167 0.3413 0.2440
C45 C 0.21150(13) 0.4081(3) 0.30788(17)
H38 H 0.2132 0.3500 0.3272
C46 C 0.20687(12) 0.5019(3) 0.32785(15)
C47 C 0.20913(13) 0.4499(3) 0.41360(17)
C48 C 0.20886(14) 0.4360(3) 0.50119(16)
C49 C 0.17969(15) 0.3506(3) 0.49746(18)
H39 H 0.1525 0.3762 0.4904
H40 H 0.1826 0.3143 0.5281
H41 H 0.1851 0.3060 0.4715
C50 C 0.25190(15) 0.4027(5) 0.5126(2)
H42 H 0.2694 0.4606 0.5141
H43 H 0.2583 0.3577 0.4874
H44 H 0.2557 0.3685 0.5438
C51 C 0.19867(17) 0.5110(4) 0.53796(17)
H45 H 0.1709 0.5317 0.5298
H46 H 0.2161 0.5687 0.5377
H47 H 0.2024 0.4809 0.5701
N17? N -0.0127(6) 0.4164(16) 0.3631(7)
N18? N 0.0013(8) 0.523(2) 0.5163(9)
C58? C -0.0004(7) 0.5777(18) 0.4750(9)
C59? C -0.0050(12) 0.512(3) 0.4087(15)
loop_
_geom_bond_atom_site_label_1
_geom_bond_atom_site_label_2
_geom_bond_site_symmetry_1
_geom_bond_site_symmetry_2
O1 C4 1_555 1_555
O2 C5 1_555 1_555
O3 C11 1_555 1_555
O4 C17 1_555 1_555
O5 C23 1_555 1_555
O6 C29 1_555 1_555
O7 C35 1_555 1_555
O8 C41 1_555 1_555
O9 C47 1_555 1_555
O10 C47 1_555 1_555
N1 H1 1_555 1_555
N2 C6 1_555 1_555
N3 H2 1_555 1_555
N4 C12 1_555 1_555
N5 H3 1_555 1_555
N6 C18 1_555 1_555
N7 H4 1_555 1_555
N8 C24 1_555 1_555
N9 H5 1_555 1_555
N10 C30 1_555 1_555
N11 H6 1_555 1_555
N12 C36 1_555 1_555
N13 H7 1_555 1_555
N14 C42 1_555 1_555
N15 H8 1_555 1_555
C1 H9 1_555 1_555
H10 C1 1_555 1_555
H11 C1 1_555 1_555
C2 H12 1_555 1_555
H13 C2 1_555 1_555
H14 C2 1_555 1_555
C3 H15 1_555 1_555
H16 C3 1_555 1_555
H17 C3 1_555 1_555
C4 C1 1_555 1_555
C5 O1 1_555 1_555
C6 N1 1_555 1_555
C7 C6 1_555 1_555
H18 C7 1_555 1_555
C8 C7 1_555 1_555
H19 C8 1_555 1_555
C9 C8 1_555 1_555
H20 C9 1_555 1_555
C10 N2 1_555 1_555
C11 N3 1_555 1_555
C12 C11 1_555 1_555
C13 C12 1_555 1_555
H21 C13 1_555 1_555
C14 C13 1_555 1_555
H22 C14 1_555 1_555
C15 C14 1_555 1_555
H23 C15 1_555 1_555
C16 N4 1_555 1_555
C17 N5 1_555 1_555
C18 N5 1_555 1_555
C19 C18 1_555 1_555
H24 C19 1_555 1_555
C20 C19 1_555 1_555
H25 C20 1_555 1_555
C21 C20 1_555 1_555
H26 C21 1_555 1_555
C22 N6 1_555 1_555
C23 N7 1_555 1_555
C24 C23 1_555 1_555
C25 C24 1_555 1_555
H27 C25 1_555 1_555
C26 C25 1_555 1_555
H28 C26 1_555 1_555
C27 C26 1_555 1_555
H29 C27 1_555 1_555
C28 N8 1_555 1_555
C29 N9 1_555 1_555
C30 N9 1_555 1_555
C31 C30 1_555 1_555
H30 C31 1_555 1_555
C32 C31 1_555 1_555
H31 C32 1_555 1_555
C33 C32 1_555 1_555
H32 C33 1_555 1_555
C34 N10 1_555 1_555
C35 N11 1_555 1_555
C36 C35 1_555 1_555
C37 C36 1_555 1_555
H33 C37 1_555 1_555
C38 C37 1_555 1_555
H34 C38 1_555 1_555
C39 C38 1_555 1_555
H35 C39 1_555 1_555
C40 N12 1_555 1_555
C41 N13 1_555 1_555
C42 N13 1_555 1_555
C43 C42 1_555 1_555
H36 C43 1_555 1_555
C44 C43 1_555 1_555
H37 C44 1_555 1_555
C45 C44 1_555 1_555
H38 C45 1_555 1_555
C46 N14 1_555 1_555
C47 N15 1_555 1_555
C48 O10 1_555 1_555
C49 C48 1_555 1_555
H39 C49 1_555 1_555
H40 C49 1_555 1_555
H41 C49 1_555 1_555
C50 C48 1_555 1_555
H42 C50 1_555 1_555
H43 C50 1_555 1_555
H44 C50 1_555 1_555
C51 C48 1_555 1_555
H45 C51 1_555 1_555
H46 C51 1_555 1_555
H47 C51 1_555 1_555
S1 O11 1_555 1_555
C52 S1 1_555 1_555
H48 C52 1_555 1_555
H49 C52 1_555 1_555
H50 C52 1_555 1_555
C53 S1 1_555 1_555
H51 C53 1_555 1_555
H52 C53 1_555 1_555
H53 C53 1_555 1_555
S2 O12 1_555 1_555
C54 S2 1_555 1_555
H54 C54 1_555 1_555
H55 C54 1_555 1_555
H56 C54 1_555 1_555
C55 S2 1_555 1_555
H57 C55 1_555 1_555
H58 C55 1_555 1_555
H59 C55 1_555 1_555
N16 C56 1_555 1_555
C56 C57 1_555 1_555
C57 C56F 1_555 1_555
C56F N16F 1_555 1_555
N1 C5 1_555 1_555
N3 C10 1_555 1_555
N7 C22 1_555 1_555
N11 C34 1_555 1_555
N15 C46 1_555 1_555
C2 C4 1_555 1_555
C3 C4 1_555 1_555
C9 C10 1_555 1_555
C15 C16 1_555 1_555
C16 C17 1_555 1_555
C21 C22 1_555 1_555
C27 C28 1_555 1_555
C28 C29 1_555 1_555
C33 C34 1_555 1_555
C39 C40 1_555 1_555
C40 C41 1_555 1_555
C45 C46 1_555 1_555

#END
