
#######################################################################
#
#                 Cambridge Crystallographic Data Centre
#                                CCDC 
#
#######################################################################
#
# If this CIF has been generated from an entry in the Cambridge 
# Structural Database, then it will include bibliographic, chemical, 
# crystal, experimental, refinement or atomic coordinate data resulting 
# from the CCDC's data processing and validation procedures.
#
#######################################################################

data_ACAVAE
_chemical_formula_moiety         'C164 H140,6(C2 H3 N1)'
_chemical_name_systematic        
'42,44,47,50-tetrakis(10-(3,5-di-t-butylphenyl)anthracen-9-yl)tridecacyclo[35.3.1.1^2,6^.1^3,40^.1^7,11^.1^10,13^.1^12,16^.1^17,21^.1^20,23^.1^22,26^.1^27,31^.1^30,33^.1^32,36^]dopentaconta-1(41),2(52),3,5,7(51),8,10,12(49),13,15,17(48),18,20,22(46),23,25,27(45),28,30,32(43),33,35,37,39-tetracosaene tetra-radical acetonitrile solvate'
_symmetry_cell_setting           orthorhombic
_symmetry_space_group_name_H-M   'F d d d'
_symmetry_Int_Tables_number      70
_space_group_name_Hall           '-F 2uv 2vw'
loop_
_symmetry_equiv_pos_site_id
_symmetry_equiv_pos_as_xyz
1 x,y,z
2 1/4-x,1/4-y,z
3 x,1/4-y,1/4-z
4 1/4-x,y,1/4-z
5 x,1/2+y,1/2+z
6 1/4-x,3/4-y,1/2+z
7 x,3/4-y,3/4-z
8 1/4-x,1/2+y,3/4-z
9 1/2+x,y,1/2+z
10 3/4-x,1/4-y,1/2+z
11 1/2+x,1/4-y,3/4-z
12 3/4-x,y,3/4-z
13 1/2+x,1/2+y,z
14 3/4-x,3/4-y,z
15 1/2+x,3/4-y,1/4-z
16 3/4-x,1/2+y,1/4-z
17 -x,-y,-z
18 3/4+x,3/4+y,-z
19 -x,3/4+y,3/4+z
20 3/4+x,-y,3/4+z
21 -x,1/2-y,1/2-z
22 3/4+x,1/4+y,1/2-z
23 -x,1/4+y,1/4+z
24 3/4+x,1/2-y,1/4+z
25 1/2-x,-y,1/2-z
26 1/4+x,3/4+y,1/2-z
27 1/2-x,3/4+y,1/4+z
28 1/4+x,-y,1/4+z
29 1/2-x,1/2-y,-z
30 1/4+x,1/4+y,-z
31 1/2-x,1/4+y,3/4+z
32 1/4+x,1/2-y,3/4+z
_cell_length_a                   21.096(6)
_cell_length_b                   36.965(10)
_cell_length_c                   44.576(13)
_cell_angle_alpha                90
_cell_angle_beta                 90
_cell_angle_gamma                90
_cell_volume                     34761
_exptl_crystal_colour            black
_exptl_crystal_description       prism
_cell_formula_units_Z            8
loop_
_atom_site_label
_atom_site_type_symbol
_atom_site_fract_x
_atom_site_fract_y
_atom_site_fract_z
C1 C 0.38539(14) 0.60053(7) 0.04804(6)
C2 C 0.0248(5) 0.4720(4) -0.1028(3)
H1 H -0.0162 0.4619 -0.0967
H2 H 0.0500 0.4531 -0.1126
H3 H 0.0178 0.4919 -0.1170
C3 C 0.33061(14) 0.59750(7) 0.06515(7)
H4 H 0.2925 0.5888 0.0564
C4 C 0.0815(5) 0.4518(2) -0.0574(3)
H5 H 0.1049 0.4589 -0.0393
H6 H 0.1087 0.4370 -0.0702
H7 H 0.0438 0.4379 -0.0516
C5 C 0.33195(14) 0.60720(8) 0.09502(7)
H8 H 0.2941 0.6053 0.1065
C6 C 0.0254(4) 0.5099(3) -0.0568(3)
H9 H 0.0512 0.5178 -0.0397
H10 H -0.0125 0.4974 -0.0494
H11 H 0.0127 0.5310 -0.0687
C7 C 0.38761(13) 0.61979(7) 0.10917(6)
C8 C 0.44361(13) 0.62254(7) 0.09156(6)
H12 H 0.4819 0.6308 0.1005
C9 C 0.44250(13) 0.61330(7) 0.06173(6)
C10 C 0.46304(14) 0.60024(7) 0.01141(6)
C11 C 0.49889(15) 0.59807(8) -0.01501(7)
H13 H 0.4800 0.5899 -0.0331
C12 C 0.56140(15) 0.60792(8) -0.01440(7)
H14 H 0.5855 0.6066 -0.0324
C13 C 0.59129(14) 0.62008(7) 0.01215(6)
C14 C 0.55464(13) 0.62248(7) 0.03857(6)
H15 H 0.5737 0.6306 0.0567
C15 C 0.49176(14) 0.61314(7) 0.03837(6)
C16 C 0.39770(14) 0.59223(7) 0.01728(7)
C17 C 0.40449(16) 0.51796(8) -0.00355(7)
H16 H 0.4337 0.5266 0.0110
C18 C 0.40916(18) 0.48312(9) -0.01320(9)
H17 H 0.4415 0.4678 -0.0056
C19 C 0.36558(19) 0.46987(9) -0.03467(9)
H18 H 0.3691 0.4456 -0.0414
C20 C 0.31952(18) 0.49096(8) -0.04560(8)
H19 H 0.2906 0.4812 -0.0598
C21 C 0.26471(14) 0.55050(7) -0.04784(7)
C22 C 0.21365(18) 0.61054(9) -0.04955(9)
H20 H 0.1845 0.6022 -0.0643
C23 C 0.2100(2) 0.64517(10) -0.03985(11)
H21 H 0.1781 0.6607 -0.0477
C24 C 0.2527(2) 0.65848(10) -0.01833(11)
H22 H 0.2493 0.6829 -0.0118
C25 C 0.29812(17) 0.63706(9) -0.00695(9)
H23 H 0.3269 0.6466 0.0074
C26 C 0.35190(14) 0.57782(7) -0.00482(6)
C27 C 0.35699(14) 0.54175(7) -0.01472(6)
C28 C 0.31275(15) 0.52800(8) -0.03647(7)
C29 C 0.26020(15) 0.58649(8) -0.03814(7)
C30 C 0.30369(15) 0.60030(8) -0.01612(7)
C31 C 0.22057(15) 0.53536(7) -0.07093(7)
C32 C 0.24056(18) 0.53287(8) -0.10062(8)
H24 H 0.2804 0.5429 -0.1061
C33 C 0.2039(2) 0.51618(9) -0.12251(8)
C34 C 0.14601(19) 0.50190(9) -0.11339(9)
H25 H 0.1205 0.4901 -0.1280
C35 C 0.12323(17) 0.50398(8) -0.08390(9)
C36 C 0.16230(15) 0.52123(7) -0.06272(8)
H26 H 0.1485 0.5232 -0.0425
C37 C 0.2254(3) 0.51246(12) -0.15531(9)
C38 C 0.2871(3) 0.53156(11) -0.16162(10)
H27 H 0.2833 0.5571 -0.1560
H28 H 0.2970 0.5297 -0.1830
H29 H 0.3211 0.5203 -0.1499
C39 C 0.2281(4) 0.47396(14) -0.16368(14)
H30 H 0.2599 0.4616 -0.1514
H31 H 0.2396 0.4718 -0.1849
H32 H 0.1865 0.4628 -0.1604
C40 C 0.1754(4) 0.53058(16) -0.17662(12)
H33 H 0.1351 0.5176 -0.1751
H34 H 0.1907 0.5296 -0.1974
H35 H 0.1693 0.5559 -0.1707
C41 C 0.06071(18) 0.48631(10) -0.07479(10)
C1A C 0.86461(14) 0.64947(7) 0.04804(6)
C2A C 1.2252(5) 0.7780(4) -0.1028(3)
H1A H 1.2662 0.7881 -0.0967
H2A H 1.2000 0.7969 -0.1126
H3A H 1.2322 0.7581 -0.1170
C3A C 0.91939(14) 0.65250(7) 0.06515(7)
H4A H 0.9575 0.6612 0.0564
C4A C 1.1685(5) 0.7982(2) -0.0574(3)
H5A H 1.1451 0.7911 -0.0393
H6A H 1.1413 0.8130 -0.0702
H7A H 1.2062 0.8121 -0.0516
C5A C 0.91805(14) 0.64280(8) 0.09502(7)
H8A H 0.9559 0.6447 0.1065
C6A C 1.2246(4) 0.7401(3) -0.0568(3)
H9A H 1.1988 0.7322 -0.0397
H10A H 1.2625 0.7526 -0.0494
H11A H 1.2373 0.7190 -0.0687
C7A C 0.86239(13) 0.63021(7) 0.10917(6)
C8A C 0.80639(13) 0.62746(7) 0.09156(6)
H12A H 0.7681 0.6192 0.1005
C9A C 0.80750(13) 0.63670(7) 0.06173(6)
C10A C 0.78696(14) 0.64976(7) 0.01141(6)
C11A C 0.75111(15) 0.65193(8) -0.01501(7)
H13A H 0.7700 0.6601 -0.0331
C12A C 0.68860(15) 0.64208(8) -0.01440(7)
H14A H 0.6645 0.6434 -0.0324
C13A C 0.65871(14) 0.62992(7) 0.01215(6)
C14A C 0.69536(13) 0.62752(7) 0.03857(6)
H15A H 0.6763 0.6194 0.0567
C15A C 0.75824(14) 0.63686(7) 0.03837(6)
C16A C 0.85230(14) 0.65777(7) 0.01728(7)
C17A C 0.84551(16) 0.73204(8) -0.00355(7)
H16A H 0.8163 0.7234 0.0110
C18A C 0.84084(18) 0.76688(9) -0.01320(9)
H17A H 0.8085 0.7822 -0.0056
C19A C 0.88442(19) 0.78013(9) -0.03467(9)
H18A H 0.8809 0.8044 -0.0414
C20A C 0.93048(18) 0.75904(8) -0.04560(8)
H19A H 0.9594 0.7688 -0.0598
C21A C 0.98529(14) 0.69950(7) -0.04784(7)
C22A C 1.03635(18) 0.63946(9) -0.04955(9)
H20A H 1.0655 0.6478 -0.0643
C23A C 1.0400(2) 0.60483(10) -0.03985(11)
H21A H 1.0719 0.5893 -0.0477
C24A C 0.9973(2) 0.59152(10) -0.01833(11)
H22A H 1.0007 0.5671 -0.0118
C25A C 0.95188(17) 0.61294(9) -0.00695(9)
H23A H 0.9231 0.6034 0.0074
C26A C 0.89810(14) 0.67218(7) -0.00482(6)
C27A C 0.89301(14) 0.70825(7) -0.01472(6)
C28A C 0.93725(15) 0.72200(8) -0.03647(7)
C29A C 0.98980(15) 0.66351(8) -0.03814(7)
C30A C 0.94631(15) 0.64970(8) -0.01612(7)
C31A C 1.02943(15) 0.71464(7) -0.07093(7)
C32A C 1.00944(18) 0.71713(8) -0.10062(8)
H24A H 0.9696 0.7071 -0.1061
C33A C 1.0461(2) 0.73382(9) -0.12251(8)
C34A C 1.10399(19) 0.74810(9) -0.11339(9)
H25A H 1.1295 0.7599 -0.1280
C35A C 1.12677(17) 0.74602(8) -0.08390(9)
C36A C 1.08770(15) 0.72877(7) -0.06272(8)
H26A H 1.1015 0.7268 -0.0425
C37A C 1.0246(3) 0.73754(12) -0.15531(9)
C38A C 0.9629(3) 0.71844(11) -0.16162(10)
H27A H 0.9667 0.6929 -0.1560
H28A H 0.9530 0.7203 -0.1830
H29A H 0.9289 0.7297 -0.1499
C39A C 1.0219(4) 0.77604(14) -0.16368(14)
H30A H 0.9901 0.7884 -0.1514
H31A H 1.0104 0.7782 -0.1849
H32A H 1.0635 0.7872 -0.1604
C40A C 1.0746(4) 0.71942(16) -0.17662(12)
H33A H 1.1149 0.7324 -0.1751
H34A H 1.0593 0.7204 -0.1974
H35A H 1.0807 0.6941 -0.1707
C41A C 1.18929(18) 0.76369(10) -0.07479(10)
C1B C 0.38539(14) 0.64947(7) 0.20196(6)
C2B C 0.0248(5) 0.7780(4) 0.3528(3)
H1B H -0.0162 0.7881 0.3467
H2B H 0.0500 0.7969 0.3626
H3B H 0.0178 0.7581 0.3670
C3B C 0.33061(14) 0.65250(7) 0.18485(7)
H4B H 0.2925 0.6612 0.1936
C4B C 0.0815(5) 0.7982(2) 0.3074(3)
H5B H 0.1049 0.7911 0.2893
H6B H 0.1087 0.8130 0.3202
H7B H 0.0438 0.8121 0.3016
C5B C 0.33195(14) 0.64280(8) 0.15498(7)
H8B H 0.2941 0.6447 0.1435
C6B C 0.0254(4) 0.7401(3) 0.3068(3)
H9B H 0.0512 0.7322 0.2897
H10B H -0.0125 0.7526 0.2994
H11B H 0.0127 0.7190 0.3187
C7B C 0.38761(13) 0.63021(7) 0.14083(6)
C8B C 0.44361(13) 0.62746(7) 0.15844(6)
H12B H 0.4819 0.6192 0.1495
C9B C 0.44250(13) 0.63670(7) 0.18827(6)
C10B C 0.46304(14) 0.64976(7) 0.23859(6)
C11B C 0.49889(15) 0.65193(8) 0.26501(7)
H13B H 0.4800 0.6601 0.2831
C12B C 0.56140(15) 0.64208(8) 0.26440(7)
H14B H 0.5855 0.6434 0.2824
C13B C 0.59129(14) 0.62992(7) 0.23785(6)
C14B C 0.55464(13) 0.62752(7) 0.21143(6)
H15B H 0.5737 0.6194 0.1933
C15B C 0.49176(14) 0.63686(7) 0.21163(6)
C16B C 0.39770(14) 0.65777(7) 0.23272(7)
C17B C 0.40449(16) 0.73204(8) 0.25355(7)
H16B H 0.4337 0.7234 0.2390
C18B C 0.40916(18) 0.76688(9) 0.26320(9)
H17B H 0.4415 0.7822 0.2556
C19B C 0.36558(19) 0.78013(9) 0.28467(9)
H18B H 0.3691 0.8044 0.2914
C20B C 0.31952(18) 0.75904(8) 0.29560(8)
H19B H 0.2906 0.7688 0.3098
C21B C 0.26471(14) 0.69950(7) 0.29784(7)
C22B C 0.21365(18) 0.63946(9) 0.29955(9)
H20B H 0.1845 0.6478 0.3143
C23B C 0.2100(2) 0.60483(10) 0.28985(11)
H21B H 0.1781 0.5893 0.2977
C24B C 0.2527(2) 0.59152(10) 0.26833(11)
H22B H 0.2493 0.5671 0.2618
C25B C 0.29812(17) 0.61294(9) 0.25695(9)
H23B H 0.3269 0.6034 0.2426
C26B C 0.35190(14) 0.67218(7) 0.25482(6)
C27B C 0.35699(14) 0.70825(7) 0.26472(6)
C28B C 0.31275(15) 0.72200(8) 0.28647(7)
C29B C 0.26020(15) 0.66351(8) 0.28814(7)
C30B C 0.30369(15) 0.64970(8) 0.26612(7)
C31B C 0.22057(15) 0.71464(7) 0.32093(7)
C32B C 0.24056(18) 0.71713(8) 0.35062(8)
H24B H 0.2804 0.7071 0.3561
C33B C 0.2039(2) 0.73382(9) 0.37251(8)
C34B C 0.14601(19) 0.74810(9) 0.36339(9)
H25B H 0.1205 0.7599 0.3780
C35B C 0.12323(17) 0.74602(8) 0.33390(9)
C36B C 0.16230(15) 0.72877(7) 0.31272(8)
H26B H 0.1485 0.7268 0.2925
C37B C 0.2254(3) 0.73754(12) 0.40531(9)
C38B C 0.2871(3) 0.71844(11) 0.41162(10)
H27B H 0.2833 0.6929 0.4060
H28B H 0.2970 0.7203 0.4330
H29B H 0.3211 0.7297 0.3999
C39B C 0.2281(4) 0.77604(14) 0.41368(14)
H30B H 0.2599 0.7884 0.4014
H31B H 0.2396 0.7782 0.4349
H32B H 0.1865 0.7872 0.4104
C40B C 0.1754(4) 0.71942(16) 0.42662(12)
H33B H 0.1351 0.7324 0.4251
H34B H 0.1907 0.7204 0.4474
H35B H 0.1693 0.6941 0.4207
C41B C 0.06071(18) 0.76369(10) 0.32479(10)
C1C C 0.86461(14) 0.60053(7) 0.20196(6)
C2C C 1.2252(5) 0.4720(4) 0.3528(3)
H1C H 1.2662 0.4619 0.3467
H2C H 1.2000 0.4531 0.3626
H3C H 1.2322 0.4919 0.3670
C3C C 0.91939(14) 0.59750(7) 0.18485(7)
H4C H 0.9575 0.5888 0.1936
C4C C 1.1685(5) 0.4518(2) 0.3074(3)
H5C H 1.1451 0.4589 0.2893
H6C H 1.1413 0.4370 0.3202
H7C H 1.2062 0.4379 0.3016
C5C C 0.91805(14) 0.60720(8) 0.15498(7)
H8C H 0.9559 0.6053 0.1435
C6C C 1.2246(4) 0.5099(3) 0.3068(3)
H9C H 1.1988 0.5178 0.2897
H10C H 1.2625 0.4974 0.2994
H11C H 1.2373 0.5310 0.3187
C7C C 0.86239(13) 0.61979(7) 0.14083(6)
C8C C 0.80639(13) 0.62254(7) 0.15844(6)
H12C H 0.7681 0.6308 0.1495
C9C C 0.80750(13) 0.61330(7) 0.18827(6)
C10C C 0.78696(14) 0.60024(7) 0.23859(6)
C11C C 0.75111(15) 0.59807(8) 0.26501(7)
H13C H 0.7700 0.5899 0.2831
C12C C 0.68860(15) 0.60792(8) 0.26440(7)
H14C H 0.6645 0.6066 0.2824
C13C C 0.65871(14) 0.62008(7) 0.23785(6)
C14C C 0.69536(13) 0.62248(7) 0.21143(6)
H15C H 0.6763 0.6306 0.1933
C15C C 0.75824(14) 0.61314(7) 0.21163(6)
C16C C 0.85230(14) 0.59223(7) 0.23272(7)
C17C C 0.84551(16) 0.51796(8) 0.25355(7)
H16C H 0.8163 0.5266 0.2390
C18C C 0.84084(18) 0.48312(9) 0.26320(9)
H17C H 0.8085 0.4678 0.2556
C19C C 0.88442(19) 0.46987(9) 0.28467(9)
H18C H 0.8809 0.4456 0.2914
C20C C 0.93048(18) 0.49096(8) 0.29560(8)
H19C H 0.9594 0.4812 0.3098
C21C C 0.98529(14) 0.55050(7) 0.29784(7)
C22C C 1.03635(18) 0.61054(9) 0.29955(9)
H20C H 1.0655 0.6022 0.3143
C23C C 1.0400(2) 0.64517(10) 0.28985(11)
H21C H 1.0719 0.6607 0.2977
C24C C 0.9973(2) 0.65848(10) 0.26833(11)
H22C H 1.0007 0.6829 0.2618
C25C C 0.95188(17) 0.63706(9) 0.25695(9)
H23C H 0.9231 0.6466 0.2426
C26C C 0.89810(14) 0.57782(7) 0.25482(6)
C27C C 0.89301(14) 0.54175(7) 0.26472(6)
C28C C 0.93725(15) 0.52800(8) 0.28647(7)
C29C C 0.98980(15) 0.58649(8) 0.28814(7)
C30C C 0.94631(15) 0.60030(8) 0.26612(7)
C31C C 1.02943(15) 0.53536(7) 0.32093(7)
C32C C 1.00944(18) 0.53287(8) 0.35062(8)
H24C H 0.9696 0.5429 0.3561
C33C C 1.0461(2) 0.51618(9) 0.37251(8)
C34C C 1.10399(19) 0.50190(9) 0.36339(9)
H25C H 1.1295 0.4901 0.3780
C35C C 1.12677(17) 0.50398(8) 0.33390(9)
C36C C 1.08770(15) 0.52123(7) 0.31272(8)
H26C H 1.1015 0.5232 0.2925
C37C C 1.0246(3) 0.51246(12) 0.40531(9)
C38C C 0.9629(3) 0.53156(11) 0.41162(10)
H27C H 0.9667 0.5571 0.4060
H28C H 0.9530 0.5297 0.4330
H29C H 0.9289 0.5203 0.3999
C39C C 1.0219(4) 0.47396(14) 0.41368(14)
H30C H 0.9901 0.4616 0.4014
H31C H 1.0104 0.4718 0.4349
H32C H 1.0635 0.4628 0.4104
C40C C 1.0746(4) 0.53058(16) 0.42662(12)
H33C H 1.1149 0.5176 0.4251
H34C H 1.0593 0.5296 0.4474
H35C H 1.0807 0.5559 0.4207
C41C C 1.18929(18) 0.48631(10) 0.32479(10)
C42? C 0.0582(5) 0.4479(2) -0.0808(3)
H36? H 0.0697 0.4434 -0.1017
H37? H 0.0152 0.4390 -0.0770
H38? H 0.0881 0.4353 -0.0676
C43? C 0.0040(4) 0.5076(3) -0.0912(3)
H39? H 0.0078 0.5045 -0.1130
H40? H 0.0063 0.5333 -0.0862
H41? H -0.0368 0.4978 -0.0845
C44? C 0.0445(5) 0.4901(2) -0.0395(2)
H42? H 0.0016 0.4810 -0.0358
H43? H 0.0471 0.5156 -0.0336
H44? H 0.0750 0.4759 -0.0278
C45? C 0.1769(8) 0.5387(4) 0.0383(5)
C46? C 0.1452(7) 0.5750(5) 0.0470(5)
N1? N 0.1400(6) 0.6071(4) 0.0453(4)
N2? N 0.2090(16) 0.4493(6) 0.0129(8)
C47? C 0.2016(19) 0.4771(8) 0.0249(9)
C48? C 0.1784(15) 0.5131(8) 0.0380(9)
C49? C 0.396(2) 0.3774(16) 0.1125(7)
N3? N 0.3498(15) 0.3904(9) 0.1224(7)
C50? C 0.4589(16) 0.3564(11) 0.1088(8)
C51? C 0.060(3) 0.4195(19) 0.1696(16)
N4? N 0.134(3) 0.3730(13) 0.1391(9)
C52? C 0.103(3) 0.3902(16) 0.1559(11)
C53? C -0.006(2) 0.4620(12) 0.2140(10)
N5? N 0.079(2) 0.4206(13) 0.1851(10)
C54? C 0.035(2) 0.4374(14) 0.1934(10)
loop_
_geom_bond_atom_site_label_1
_geom_bond_atom_site_label_2
_geom_bond_site_symmetry_1
_geom_bond_site_symmetry_2
C1 C3 1_555 1_555
C2 H1 1_555 1_555
H2 C2 1_555 1_555
H3 C2 1_555 1_555
C3 H4 1_555 1_555
C4 H5 1_555 1_555
H6 C4 1_555 1_555
H7 C4 1_555 1_555
C5 C3 1_555 1_555
H8 C5 1_555 1_555
C6 H9 1_555 1_555
H10 C6 1_555 1_555
H11 C6 1_555 1_555
C7 C5 1_555 1_555
C8 C7 1_555 1_555
H12 C8 1_555 1_555
C9 C1 1_555 1_555
C10 C11 1_555 1_555
C11 H13 1_555 1_555
C12 C11 1_555 1_555
H14 C12 1_555 1_555
C13 C12 1_555 1_555
C14 C13 1_555 1_555
H15 C14 1_555 1_555
C15 C9 1_555 1_555
C16 C1 1_555 1_555
C17 H16 1_555 1_555
C18 C17 1_555 1_555
H17 C18 1_555 1_555
C19 C18 1_555 1_555
H18 C19 1_555 1_555
C20 C19 1_555 1_555
H19 C20 1_555 1_555
C21 C28 1_555 1_555
C22 H20 1_555 1_555
C23 C22 1_555 1_555
H21 C23 1_555 1_555
C24 C23 1_555 1_555
H22 C24 1_555 1_555
C25 C24 1_555 1_555
H23 C25 1_555 1_555
C26 C16 1_555 1_555
C27 C17 1_555 1_555
C28 C20 1_555 1_555
C29 C21 1_555 1_555
C30 C25 1_555 1_555
C31 C21 1_555 1_555
C32 C31 1_555 1_555
H24 C32 1_555 1_555
C33 C32 1_555 1_555
C34 C33 1_555 1_555
H25 C34 1_555 1_555
C35 C34 1_555 1_555
C36 C31 1_555 1_555
H26 C36 1_555 1_555
C37 C33 1_555 1_555
C38 C37 1_555 1_555
H27 C38 1_555 1_555
H28 C38 1_555 1_555
H29 C38 1_555 1_555
C39 C37 1_555 1_555
H30 C39 1_555 1_555
H31 C39 1_555 1_555
H32 C39 1_555 1_555
C40 C37 1_555 1_555
H33 C40 1_555 1_555
H34 C40 1_555 1_555
H35 C40 1_555 1_555
C41 C2 1_555 1_555
C1A C3A 1_555 1_555
C2A H1A 1_555 1_555
H2A C2A 1_555 1_555
H3A C2A 1_555 1_555
C3A H4A 1_555 1_555
C4A H5A 1_555 1_555
H6A C4A 1_555 1_555
H7A C4A 1_555 1_555
C5A C3A 1_555 1_555
H8A C5A 1_555 1_555
C6A H9A 1_555 1_555
H10A C6A 1_555 1_555
H11A C6A 1_555 1_555
C7A C5A 1_555 1_555
C8A C7A 1_555 1_555
H12A C8A 1_555 1_555
C9A C1A 1_555 1_555
C10A C11A 1_555 1_555
C11A H13A 1_555 1_555
C12A C11A 1_555 1_555
H14A C12A 1_555 1_555
C13A C13 1_555 1_555
C14A C13A 1_555 1_555
H15A C14A 1_555 1_555
C15A C9A 1_555 1_555
C16A C1A 1_555 1_555
C17A H16A 1_555 1_555
C18A C17A 1_555 1_555
H17A C18A 1_555 1_555
C19A C18A 1_555 1_555
H18A C19A 1_555 1_555
C20A C19A 1_555 1_555
H19A C20A 1_555 1_555
C21A C28A 1_555 1_555
C22A H20A 1_555 1_555
C23A C22A 1_555 1_555
H21A C23A 1_555 1_555
C24A C23A 1_555 1_555
H22A C24A 1_555 1_555
C25A C24A 1_555 1_555
H23A C25A 1_555 1_555
C26A C16A 1_555 1_555
C27A C17A 1_555 1_555
C28A C20A 1_555 1_555
C29A C21A 1_555 1_555
C30A C25A 1_555 1_555
C31A C21A 1_555 1_555
C32A C31A 1_555 1_555
H24A C32A 1_555 1_555
C33A C32A 1_555 1_555
C34A C33A 1_555 1_555
H25A C34A 1_555 1_555
C35A C34A 1_555 1_555
C36A C31A 1_555 1_555
H26A C36A 1_555 1_555
C37A C33A 1_555 1_555
C38A C37A 1_555 1_555
H27A C38A 1_555 1_555
H28A C38A 1_555 1_555
H29A C38A 1_555 1_555
C39A C37A 1_555 1_555
H30A C39A 1_555 1_555
H31A C39A 1_555 1_555
H32A C39A 1_555 1_555
C40A C37A 1_555 1_555
H33A C40A 1_555 1_555
H34A C40A 1_555 1_555
H35A C40A 1_555 1_555
C41A C2A 1_555 1_555
C1B C3B 1_555 1_555
C2B H1B 1_555 1_555
H2B C2B 1_555 1_555
H3B C2B 1_555 1_555
C3B H4B 1_555 1_555
C4B H5B 1_555 1_555
H6B C4B 1_555 1_555
H7B C4B 1_555 1_555
C5B C3B 1_555 1_555
H8B C5B 1_555 1_555
C6B H9B 1_555 1_555
H10B C6B 1_555 1_555
H11B C6B 1_555 1_555
C7B C7 1_555 1_555
C8B C7B 1_555 1_555
H12B C8B 1_555 1_555
C9B C1B 1_555 1_555
C10B C11B 1_555 1_555
C11B H13B 1_555 1_555
C12B C11B 1_555 1_555
H14B C12B 1_555 1_555
C13B C12B 1_555 1_555
C14B C13B 1_555 1_555
H15B C14B 1_555 1_555
C15B C9B 1_555 1_555
C16B C1B 1_555 1_555
C17B H16B 1_555 1_555
C18B C17B 1_555 1_555
H17B C18B 1_555 1_555
C19B C18B 1_555 1_555
H18B C19B 1_555 1_555
C20B C19B 1_555 1_555
H19B C20B 1_555 1_555
C21B C28B 1_555 1_555
C22B H20B 1_555 1_555
C23B C22B 1_555 1_555
H21B C23B 1_555 1_555
C24B C23B 1_555 1_555
H22B C24B 1_555 1_555
C25B C24B 1_555 1_555
H23B C25B 1_555 1_555
C26B C16B 1_555 1_555
C27B C17B 1_555 1_555
C28B C20B 1_555 1_555
C29B C21B 1_555 1_555
C30B C25B 1_555 1_555
C31B C21B 1_555 1_555
C32B C31B 1_555 1_555
H24B C32B 1_555 1_555
C33B C32B 1_555 1_555
C34B C33B 1_555 1_555
H25B C34B 1_555 1_555
C35B C34B 1_555 1_555
C36B C31B 1_555 1_555
H26B C36B 1_555 1_555
C37B C33B 1_555 1_555
C38B C37B 1_555 1_555
H27B C38B 1_555 1_555
H28B C38B 1_555 1_555
H29B C38B 1_555 1_555
C39B C37B 1_555 1_555
H30B C39B 1_555 1_555
H31B C39B 1_555 1_555
H32B C39B 1_555 1_555
C40B C37B 1_555 1_555
H33B C40B 1_555 1_555
H34B C40B 1_555 1_555
H35B C40B 1_555 1_555
C41B C2B 1_555 1_555
C1C C3C 1_555 1_555
C2C H1C 1_555 1_555
H2C C2C 1_555 1_555
H3C C2C 1_555 1_555
C3C H4C 1_555 1_555
C4C H5C 1_555 1_555
H6C C4C 1_555 1_555
H7C C4C 1_555 1_555
C5C C3C 1_555 1_555
H8C C5C 1_555 1_555
C6C H9C 1_555 1_555
H10C C6C 1_555 1_555
H11C C6C 1_555 1_555
C7C C7A 1_555 1_555
C8C C7C 1_555 1_555
H12C C8C 1_555 1_555
C9C C1C 1_555 1_555
C10C C11C 1_555 1_555
C11C H13C 1_555 1_555
C12C C11C 1_555 1_555
H14C C12C 1_555 1_555
C13C C13B 1_555 1_555
C14C C13C 1_555 1_555
H15C C14C 1_555 1_555
C15C C9C 1_555 1_555
C16C C1C 1_555 1_555
C17C H16C 1_555 1_555
C18C C17C 1_555 1_555
H17C C18C 1_555 1_555
C19C C18C 1_555 1_555
H18C C19C 1_555 1_555
C20C C19C 1_555 1_555
H19C C20C 1_555 1_555
C21C C28C 1_555 1_555
C22C H20C 1_555 1_555
C23C C22C 1_555 1_555
H21C C23C 1_555 1_555
C24C C23C 1_555 1_555
H22C C24C 1_555 1_555
C25C C24C 1_555 1_555
H23C C25C 1_555 1_555
C26C C16C 1_555 1_555
C27C C17C 1_555 1_555
C28C C20C 1_555 1_555
C29C C21C 1_555 1_555
C30C C25C 1_555 1_555
C31C C21C 1_555 1_555
C32C C31C 1_555 1_555
H24C C32C 1_555 1_555
C33C C32C 1_555 1_555
C34C C33C 1_555 1_555
H25C C34C 1_555 1_555
C35C C34C 1_555 1_555
C36C C31C 1_555 1_555
H26C C36C 1_555 1_555
C37C C33C 1_555 1_555
C38C C37C 1_555 1_555
H27C C38C 1_555 1_555
H28C C38C 1_555 1_555
H29C C38C 1_555 1_555
C39C C37C 1_555 1_555
H30C C39C 1_555 1_555
H31C C39C 1_555 1_555
H32C C39C 1_555 1_555
C40C C37C 1_555 1_555
H33C C40C 1_555 1_555
H34C C40C 1_555 1_555
H35C C40C 1_555 1_555
C41C C2C 1_555 1_555
C4 C41 1_555 1_555
C6 C41 1_555 1_555
C8 C9 1_555 1_555
C10 C15 1_555 1_555
C10 C16 1_555 1_555
C14 C15 1_555 1_555
C22 C29 1_555 1_555
C26 C27 1_555 1_555
C26 C30 1_555 1_555
C27 C28 1_555 1_555
C29 C30 1_555 1_555
C35 C36 1_555 1_555
C35 C41 1_555 1_555
C4A C41A 1_555 1_555
C6A C41A 1_555 1_555
C8A C9A 1_555 1_555
C10A C15A 1_555 1_555
C10A C16A 1_555 1_555
C12A C13A 1_555 1_555
C14A C15A 1_555 1_555
C22A C29A 1_555 1_555
C26A C27A 1_555 1_555
C26A C30A 1_555 1_555
C27A C28A 1_555 1_555
C29A C30A 1_555 1_555
C35A C36A 1_555 1_555
C35A C41A 1_555 1_555
C4B C41B 1_555 1_555
C5B C7B 1_555 1_555
C6B C41B 1_555 1_555
C8B C9B 1_555 1_555
C10B C15B 1_555 1_555
C10B C16B 1_555 1_555
C14B C15B 1_555 1_555
C22B C29B 1_555 1_555
C26B C27B 1_555 1_555
C26B C30B 1_555 1_555
C27B C28B 1_555 1_555
C29B C30B 1_555 1_555
C35B C36B 1_555 1_555
C35B C41B 1_555 1_555
C4C C41C 1_555 1_555
C5C C7C 1_555 1_555
C6C C41C 1_555 1_555
C8C C9C 1_555 1_555
C10C C15C 1_555 1_555
C10C C16C 1_555 1_555
C12C C13C 1_555 1_555
C14C C15C 1_555 1_555
C22C C29C 1_555 1_555
C26C C27C 1_555 1_555
C26C C30C 1_555 1_555
C27C C28C 1_555 1_555
C29C C30C 1_555 1_555
C35C C36C 1_555 1_555
C35C C41C 1_555 1_555

#END
