
#######################################################################
#
#                 Cambridge Crystallographic Data Centre
#                                CCDC 
#
#######################################################################
#
# If this CIF has been generated from an entry in the Cambridge 
# Structural Database, then it will include bibliographic, chemical, 
# crystal, experimental, refinement or atomic coordinate data resulting 
# from the CCDC's data processing and validation procedures.
#
#######################################################################

data_ACEPAB
_chemical_formula_moiety         'C64 Cl8'
_chemical_name_systematic        octachloro-C64fullerene
_symmetry_cell_setting           monoclinic
_symmetry_space_group_name_H-M   'P 21/c'
_symmetry_Int_Tables_number      14
_space_group_name_Hall           '-P 2ybc'
loop_
_symmetry_equiv_pos_site_id
_symmetry_equiv_pos_as_xyz
1 x,y,z
2 -x,1/2+y,1/2-z
3 -x,-y,-z
4 x,1/2-y,1/2+z
_cell_length_a                   18.456(4)
_cell_length_b                   12.846(3)
_cell_length_c                   15.538(3)
_cell_angle_alpha                90
_cell_angle_beta                 106.55(3)
_cell_angle_gamma                90
_cell_volume                     3531.22
_exptl_crystal_colour            'brown red'
_exptl_crystal_description       block
_cell_formula_units_Z            4
loop_
_atom_site_label
_atom_site_type_symbol
_atom_site_fract_x
_atom_site_fract_y
_atom_site_fract_z
Cl1 Cl 0.03597(11) 0.30421(16) 0.04359(14)
Cl2 Cl 0.14019(11) 0.08300(15) 0.25444(14)
Cl3 Cl 0.33882(12) 0.06315(16) 0.33117(14)
Cl4 Cl 0.38712(12) 0.47614(17) 0.05741(15)
Cl5 Cl 0.49133(12) 0.18255(17) 0.39624(16)
Cl6 Cl 0.18489(13) 0.50888(16) -0.03166(14)
Cl7 Cl 0.52128(12) 0.43385(18) 0.22838(16)
Cl8 Cl 0.45628(12) 0.20552(17) 0.18360(16)
C1 C 0.2614(4) 0.5922(6) 0.1397(5)
C2 C 0.0645(4) 0.3489(6) 0.2250(6)
C3 C 0.2161(5) 0.7748(6) 0.3012(6)
C4 C 0.1745(5) 0.4203(6) 0.5366(5)
C5 C 0.1308(4) 0.5547(6) 0.1109(5)
C6 C 0.0914(4) 0.3723(6) 0.1432(5)
C7 C 0.4245(4) 0.4415(6) 0.3272(6)
C8 C 0.1019(4) 0.3036(6) 0.3813(6)
C9 C 0.2327(5) 0.7386(6) 0.4624(6)
C10 C 0.1762(5) 0.2734(6) 0.4379(5)
C11 C 0.4139(4) 0.3615(6) 0.3808(6)
C12 C 0.1657(4) 0.2186(6) 0.2863(5)
C13 C 0.3620(4) 0.4600(7) 0.1611(6)
C14 C 0.3042(4) 0.4537(7) 0.5683(5)
C15 C 0.4001(4) 0.4799(7) 0.4911(6)
C16 C 0.1397(5) 0.7555(6) 0.2826(6)
C17 C 0.2194(4) 0.2286(5) 0.3832(5)
C18 C 0.2598(5) 0.7359(6) 0.2444(6)
C19 C 0.2324(5) 0.4992(6) 0.5726(5)
C20 C 0.2957(4) 0.2377(6) 0.4036(6)
C21 C 0.3325(4) 0.3108(6) 0.4748(5)
C22 C 0.2228(5) 0.4086(6) 0.1287(5)
C23 C 0.1739(4) 0.3440(6) 0.1608(5)
C24 C 0.2228(5) 0.6768(6) 0.1683(6)
C25 C 0.0793(4) 0.4897(6) 0.1314(6)
C26 C 0.0373(4) 0.5270(6) 0.1901(6)
C27 C 0.2998(4) 0.3841(6) 0.1512(5)
C28 C 0.3320(4) 0.7023(6) 0.2969(6)
C29 C 0.3573(5) 0.5191(7) 0.5495(6)
C30 C 0.3910(4) 0.3781(6) 0.4581(5)
C31 C 0.0993(4) 0.2808(6) 0.2896(5)
C32 C 0.2907(4) 0.3503(6) 0.5295(5)
C33 C 0.2062(4) 0.2636(6) 0.2230(5)
C34 C 0.2646(4) 0.7684(6) 0.3921(6)
C35 C 0.2731(5) 0.6690(6) 0.5320(6)
C36 C 0.3254(4) 0.2952(6) 0.1976(5)
C37 C 0.1018(5) 0.6938(6) 0.2023(6)
C38 C 0.1040(4) 0.4492(6) 0.4841(6)
C39 C 0.3322(5) 0.2042(6) 0.3322(6)
C40 C 0.0881(4) 0.5574(6) 0.4648(5)
C41 C 0.3406(5) 0.6278(6) 0.5292(6)
C42 C 0.1435(4) 0.6561(6) 0.1470(6)
C43 C 0.4094(4) 0.5647(6) 0.4342(6)
C44 C 0.0479(4) 0.6275(6) 0.2240(6)
C45 C 0.0659(5) 0.3892(6) 0.4038(6)
C46 C 0.2827(5) 0.2437(6) 0.2426(6)
C47 C 0.1075(5) 0.7252(6) 0.3525(6)
C48 C 0.3736(5) 0.6551(6) 0.4580(6)
C49 C 0.0506(4) 0.6466(6) 0.3181(6)
C50 C 0.2117(4) 0.3302(6) 0.5117(5)
C51 C 0.1532(5) 0.7164(6) 0.4419(6)
C52 C 0.0407(4) 0.5652(6) 0.3723(6)
C53 C 0.2167(5) 0.6026(6) 0.5531(6)
C54 C 0.3338(5) 0.5646(6) 0.1878(6)
C55 C 0.4088(4) 0.2911(6) 0.2382(6)
C56 C 0.2001(5) 0.5151(6) 0.0884(6)
C57 C 0.3689(5) 0.6152(6) 0.2731(6)
C58 C 0.0280(4) 0.4416(6) 0.2468(6)
C59 C 0.4116(5) 0.2564(6) 0.3386(6)
C60 C 0.1426(5) 0.6342(7) 0.4976(6)
C61 C 0.3359(5) 0.7234(6) 0.3900(6)
C62 C 0.4113(4) 0.5466(7) 0.3469(6)
C63 C 0.0282(4) 0.4610(6) 0.3364(6)
C64 C 0.4305(4) 0.4073(7) 0.2371(6)
loop_
_geom_bond_atom_site_label_1
_geom_bond_atom_site_label_2
_geom_bond_site_symmetry_1
_geom_bond_site_symmetry_2
Cl1 C6 1_555 1_555
Cl2 C12 1_555 1_555
Cl3 C39 1_555 1_555
Cl4 C13 1_555 1_555
Cl5 C59 1_555 1_555
Cl6 C56 1_555 1_555
Cl7 C64 1_555 1_555
Cl8 C55 1_555 1_555
C1 C24 1_555 1_555
C2 C6 1_555 1_555
C3 C16 1_555 1_555
C4 C19 1_555 1_555
C5 C25 1_555 1_555
C6 C23 1_555 1_555
C7 C11 1_555 1_555
C8 C10 1_555 1_555
C9 C34 1_555 1_555
C10 C17 1_555 1_555
C11 C30 1_555 1_555
C12 C17 1_555 1_555
C13 C27 1_555 1_555
C14 C19 1_555 1_555
C15 C29 1_555 1_555
C16 C37 1_555 1_555
C17 C20 1_555 1_555
C18 C3 1_555 1_555
C19 C53 1_555 1_555
C20 C21 1_555 1_555
C21 C30 1_555 1_555
C22 C23 1_555 1_555
C23 C33 1_555 1_555
C24 C18 1_555 1_555
C25 C6 1_555 1_555
C26 C25 1_555 1_555
C27 C22 1_555 1_555
C28 C18 1_555 1_555
C29 C14 1_555 1_555
C30 C15 1_555 1_555
C31 C2 1_555 1_555
C32 C14 1_555 1_555
C33 C12 1_555 1_555
C34 C3 1_555 1_555
C35 C9 1_555 1_555
C36 C27 1_555 1_555
C37 C42 1_555 1_555
C38 C4 1_555 1_555
C39 C20 1_555 1_555
C40 C38 1_555 1_555
C41 C29 1_555 1_555
C42 C5 1_555 1_555
C43 C15 1_555 1_555
C44 C26 1_555 1_555
C45 C8 1_555 1_555
C46 C33 1_555 1_555
C47 C16 1_555 1_555
C48 C41 1_555 1_555
C49 C44 1_555 1_555
C50 C4 1_555 1_555
C51 C9 1_555 1_555
C52 C40 1_555 1_555
C53 C35 1_555 1_555
C54 C1 1_555 1_555
C55 C36 1_555 1_555
C56 C1 1_555 1_555
C57 C28 1_555 1_555
C58 C2 1_555 1_555
C59 C11 1_555 1_555
C60 C40 1_555 1_555
C61 C28 1_555 1_555
C62 C7 1_555 1_555
C63 C45 1_555 1_555
C64 C7 1_555 1_555
C5 C56 1_555 1_555
C8 C31 1_555 1_555
C10 C50 1_555 1_555
C12 C31 1_555 1_555
C13 C54 1_555 1_555
C13 C64 1_555 1_555
C21 C32 1_555 1_555
C22 C56 1_555 1_555
C24 C42 1_555 1_555
C26 C58 1_555 1_555
C32 C50 1_555 1_555
C34 C61 1_555 1_555
C35 C41 1_555 1_555
C36 C46 1_555 1_555
C37 C44 1_555 1_555
C38 C45 1_555 1_555
C39 C46 1_555 1_555
C39 C59 1_555 1_555
C43 C48 1_555 1_555
C43 C62 1_555 1_555
C47 C49 1_555 1_555
C47 C51 1_555 1_555
C48 C61 1_555 1_555
C49 C52 1_555 1_555
C51 C60 1_555 1_555
C52 C63 1_555 1_555
C53 C60 1_555 1_555
C54 C57 1_555 1_555
C55 C59 1_555 1_555
C55 C64 1_555 1_555
C57 C62 1_555 1_555
C58 C63 1_555 1_555

#END
