
#######################################################################
#
#                 Cambridge Crystallographic Data Centre
#                                CCDC 
#
#######################################################################
#
# If this CIF has been generated from an entry in the Cambridge 
# Structural Database, then it will include bibliographic, chemical, 
# crystal, experimental, refinement or atomic coordinate data resulting 
# from the CCDC's data processing and validation procedures.
#
#######################################################################

data_ACEVUB
_chemical_formula_moiety         'C33 H40 Br2 N2 O4,0.5(C6 H14)'
_chemical_name_systematic        
'(7-(((4-Bromophenyl)carbamoyl)oxy)-5-(cyclohept-1-en-1-yl)-2,3a-dimethyloctahydro-1H-inden-1-yl)methyl (4-bromophenyl)carbamate n-hexane solvate'
_symmetry_cell_setting           triclinic
_symmetry_space_group_name_H-M   'P -1'
_symmetry_Int_Tables_number      2
_space_group_name_Hall           '-P 1'
loop_
_symmetry_equiv_pos_site_id
_symmetry_equiv_pos_as_xyz
1 x,y,z
2 -x,-y,-z
_cell_length_a                   15.101(3)
_cell_length_b                   16.486(3)
_cell_length_c                   17.881(4)
_cell_angle_alpha                114.93(3)
_cell_angle_beta                 107.64(3)
_cell_angle_gamma                91.10(3)
_cell_volume                     3790.96
_cell_formula_units_Z            4
loop_
_atom_site_label
_atom_site_type_symbol
_atom_site_fract_x
_atom_site_fract_y
_atom_site_fract_z
Br1 Br 0.34702(5) 0.02947(4) 1.15039(4)
Br2 Br -0.00387(10) 0.29306(10) 0.41747(9)
O1 O 0.5820(3) 0.4051(2) 1.1578(2)
O2 O 0.5940(3) 0.3825(2) 1.0275(2)
O3 O 0.5039(3) 0.4095(3) 0.8192(3)
O4 O 0.4376(4) 0.2743(3) 0.6997(3)
N1 N 0.5261(3) 0.2688(3) 1.0343(3)
H1 H 0.5237 0.2415 0.9806
N2 N 0.3715(4) 0.4038(3) 0.7207(3)
H2 H 0.3831 0.4610 0.7555
C1 C 0.4721(4) 0.2528(4) 1.1462(4)
H5 H 0.4913 0.3145 1.1841
C2 C 0.4303(4) 0.1969(4) 1.1702(4)
H6 H 0.4213 0.2214 1.2241
C3 C 0.4015(4) 0.1051(4) 1.1152(4)
C4 C 0.4130(5) 0.0679(4) 1.0339(4)
H7 H 0.3928 0.0062 0.9964
C5 C 0.4551(4) 0.1237(4) 1.0092(4)
H8 H 0.4631 0.0989 0.9548
C6 C 0.4857(4) 0.2172(4) 1.0655(4)
C7 C 0.5681(4) 0.3570(3) 1.0804(4)
C8 C 0.6504(4) 0.4742(4) 1.0697(4)
H9 H 0.6256 0.5147 1.1141
C9 C 0.7518(4) 0.4700(4) 1.1160(4)
H10 H 0.7765 0.4274 1.0736
H11 H 0.7534 0.4486 1.1592
C10 C 0.8143(4) 0.5648(4) 1.1620(4)
H12 H 0.7889 0.6059 1.2057
C11 C 0.8044(4) 0.6000(4) 1.0921(5)
H13 H 0.8310 0.5610 1.0493
H14 H 0.8411 0.6605 1.1208
C12 C 0.7006(4) 0.6032(4) 1.0428(4)
C13 C 0.6968(5) 0.6153(4) 0.9616(4)
H15 H 0.7538 0.6539 0.9738
H16 H 0.6432 0.6434 0.9453
C14 C 0.6876(5) 0.5191(4) 0.8855(5)
H17 H 0.6330 0.5116 0.8350
C15 C 0.6634(4) 0.4506(4) 0.9185(4)
H18 H 0.7206 0.4265 0.9367
C16 C 0.6380(4) 0.5078(4) 1.0010(4)
H19 H 0.5719 0.5150 0.9811
C17 C 0.9147(4) 0.5630(4) 1.2098(4)
C18 C 0.9670(5) 0.4960(5) 1.1589(6)
H20 H 0.9324 0.4736 1.0967
H21 H 1.0282 0.5281 1.1712
C19 C 0.9816(7) 0.4173(6) 1.1780(6)
H22 H 0.9942 0.3689 1.1298
H23 H 0.9244 0.3950 1.1824
C20 C 1.0641(7) 0.4415(7) 1.2640(7)
H24 H 1.0714 0.3869 1.2716
H25 H 1.1214 0.4603 1.2572
C21 C 1.0560(6) 0.5152(6) 1.3473(6)
H26 H 1.0003 0.4956 1.3557
H27 H 1.1103 0.5215 1.3966
C22 C 1.0498(6) 0.6056(6) 1.3490(6)
H28 H 1.0983 0.6198 1.3290
H29 H 1.0636 0.6505 1.4093
C23 C 0.9558(5) 0.6145(5) 1.2938(5)
H30 H 0.9252 0.6600 1.3218
C24 C 0.6611(4) 0.6776(4) 1.1034(4)
H31 H 0.6884 0.7358 1.1132
H32 H 0.6761 0.6751 1.1584
H33 H 0.5938 0.6686 1.0766
C25 C 0.7731(6) 0.5036(6) 0.8556(6)
H34 H 0.7849 0.5483 0.8371
H35 H 0.7609 0.4441 0.8075
H36 H 0.8273 0.5085 0.9034
C26 C 0.5879(5) 0.3725(4) 0.8479(4)
H37 H 0.6089 0.3388 0.7990
H38 H 0.5736 0.3316 0.8706
C27 C 0.4367(5) 0.3550(4) 0.7422(4)
C28 C 0.2864(5) 0.3725(4) 0.6477(4)
C29 C 0.2402(6) 0.4392(5) 0.6289(5)
H39 H 0.2678 0.4999 0.6634
C30 C 0.1559(6) 0.4169(6) 0.5615(5)
H40 H 0.1262 0.4617 0.5505
C31 C 0.1157(5) 0.3249(6) 0.5096(4)
C32 C 0.1614(6) 0.2589(5) 0.5262(5)
H41 H 0.1353 0.1980 0.4899
C33 C 0.2460(6) 0.2820(5) 0.5964(4)
H42 H 0.2745 0.2372 0.6084
Br3 Br 0.9687(3) 0.3501(3) 0.9186(4)
Br4 Br 0.7263(2) 0.3204(3) 0.42762(19)
O5 O 0.5156(3) 0.1650(3) 0.8535(2)
O6 O 0.4386(3) 0.0494(3) 0.7176(2)
O7 O 0.3533(3) 0.0593(3) 0.5359(3)
O8 O 0.4172(3) 0.0095(3) 0.4283(3)
N3 N 0.5824(3) 0.1119(3) 0.7460(3)
H3 H 0.5714 0.0723 0.6926
N4 N 0.4436(4) 0.1597(3) 0.5285(3)
H4 H 0.4275 0.1965 0.5713
C34 C 0.7149(4) 0.2076(4) 0.8818(4)
H43 H 0.6854 0.1964 0.9160
C35 C 0.8029(4) 0.2620(4) 0.9206(4)
H44 H 0.8325 0.2878 0.9811
C36 C 0.8463(4) 0.2778(4) 0.8693(5)
C37 C 0.8043(5) 0.2418(4) 0.7799(5)
H45 H 0.8346 0.2533 0.7463
C38 C 0.7165(4) 0.1880(4) 0.7405(4)
H46 H 0.6871 0.1637 0.6800
C39 C 0.6712(4) 0.1699(4) 0.7907(4)
C40 C 0.5133(4) 0.1136(4) 0.7802(4)
C41 C 0.3503(4) 0.0493(4) 0.7361(4)
H47 H 0.3550 0.1062 0.7875
C42 C 0.3368(4) -0.0305(4) 0.7571(4)
H48 H 0.3359 -0.0872 0.7082
H49 H 0.3885 -0.0233 0.8086
C43 C 0.2432(5) -0.0321(4) 0.7738(4)
H50 H 0.2462 0.0265 0.8226
C44 C 0.1627(4) -0.0410(4) 0.6920(4)
H51 H 0.1588 -0.0988 0.6431
H52 H 0.1036 -0.0416 0.7030
C45 C 0.1737(4) 0.0351(4) 0.6655(4)
C46 C 0.1067(4) 0.0071(5) 0.5718(4)
H53 H 0.0514 -0.0344 0.5586
H54 H 0.0862 0.0601 0.5657
C47 C 0.1595(5) -0.0390(5) 0.5093(4)
H55 H 0.1632 -0.0036 0.4776
C48 C 0.2596(4) -0.0361(4) 0.5663(4)
H56 H 0.2599 -0.0917 0.5737
C49 C 0.2721(4) 0.0451(4) 0.6575(3)
H57 H 0.2826 0.1017 0.6534
C50 C 0.2220(5) -0.1057(5) 0.7986(5)
C51 C 0.2705(5) -0.1725(5) 0.7954(5)
H58 H 0.3223 -0.1738 0.7774
C52 C 0.2482(6) -0.2465(5) 0.8187(5)
H59 H 0.1862 -0.2810 0.7791
H60 H 0.2934 -0.2874 0.8096
C53 C 0.2502(6) -0.2124(5) 0.9106(5)
H61 H 0.3068 -0.1675 0.9489
H62 H 0.2553 -0.2625 0.9257
C54 C 0.1651(6) -0.1698(5) 0.9301(5)
H63 H 0.1086 -0.2152 0.8937
H64 H 0.1729 -0.1533 0.9909
C55 C 0.1507(6) -0.0856(5) 0.9146(5)
H65 H 0.0993 -0.0607 0.9335
H66 H 0.2072 -0.0402 0.9510
C56 C 0.1297(6) -0.1031(6) 0.8223(6)
H67 H 0.0980 -0.0559 0.8128
H68 H 0.0875 -0.1607 0.7838
C57 C 0.1560(4) 0.1238(4) 0.7314(4)
H69 H 0.1687 0.1722 0.7177
H70 H 0.1967 0.1376 0.7897
H71 H 0.0915 0.1170 0.7282
C58 C 0.1134(5) -0.1373(6) 0.4421(5)
H72 H 0.1066 -0.1719 0.4723
H73 H 0.1524 -0.1636 0.4075
H74 H 0.0525 -0.1377 0.4044
C59 C 0.3340(4) -0.0325(4) 0.5259(4)
H75 H 0.3913 -0.0485 0.5550
H76 H 0.3115 -0.0755 0.4641
C60 C 0.4067(4) 0.0707(4) 0.4916(4)
C61 C 0.5061(5) 0.1969(4) 0.5026(4)
C62 C 0.4954(5) 0.1689(4) 0.4144(4)
H77 H 0.4453 0.1239 0.3705
C63 C 0.5588(5) 0.2077(5) 0.3921(4)
H78 H 0.5519 0.1884 0.3334
C64 C 0.6323(5) 0.2749(5) 0.4568(5)
C65 C 0.6446(6) 0.3027(5) 0.5453(5)
H79 H 0.6960 0.3459 0.5892
C66 C 0.5799(5) 0.2652(5) 0.5661(4)
H80 H 0.5858 0.2863 0.6248
C67 C 0.8400(10) -0.0167(9) 0.6980(8)
H81 H 0.8378 0.0306 0.6799
H82 H 0.7775 -0.0498 0.6771
H83 H 0.8799 -0.0572 0.6741
C68 C 0.8788(8) 0.0245(7) 0.7966(7)
H84 H 0.8341 0.0598 0.8193
H85 H 0.8830 -0.0243 0.8136
C69 C 0.9690(7) 0.0815(7) 0.8379(7)
H86 H 0.9630 0.1334 0.8254
H87 H 1.0120 0.0481 0.8107
C70 C 1.0127(7) 0.1158(6) 0.9344(7)
H88 H 1.0125 0.0640 0.9469
H89 H 0.9722 0.1539 0.9615
C71 C 1.1107(8) 0.1685(8) 0.9787(9)
H90 H 1.1520 0.1306 0.9526
H91 H 1.1117 0.2206 0.9666
C72 C 1.1477(9) 0.1993(9) 1.0691(9)
H92 H 1.1229 0.2525 1.0976
H93 H 1.2152 0.2138 1.0886
H94 H 1.1306 0.1528 1.0835
Br5? Br 0.0522(10) 0.2687(7) 0.3854(6)
Br6? Br 0.9674(7) 0.3543(9) 0.940(2)
Br7? Br 0.6942(15) 0.3462(11) 0.4172(6)
C73? C 0.8098(16) 0.7653(14) 0.7000(16)
C74? C 0.7561(16) 0.6682(13) 0.6501(14)
C75? C 0.6686(14) 0.6610(12) 0.5771(13)
C76? C 0.6285(16) 0.5615(12) 0.5106(13)
C77? C 0.5467(16) 0.5577(13) 0.4340(13)
C78? C 0.5062(16) 0.4617(14) 0.3630(12)
H95? H 0.8601 0.7701 0.6789
H96? H 0.8355 0.7812 0.7615
H97? H 0.7674 0.8056 0.6912
H98? H 0.7962 0.6271 0.6257
H99? H 0.7386 0.6510 0.6899
H100? H 0.6839 0.6939 0.5474
H101? H 0.6215 0.6884 0.6017
H102? H 0.6772 0.5321 0.4897
H103? H 0.6070 0.5296 0.5385
H104? H 0.4975 0.5850 0.4553
H105? H 0.5681 0.5930 0.4091
H106? H 0.5512 0.4379 0.3347
H107? H 0.4493 0.4617 0.3205
H108? H 0.4926 0.4244 0.3887
loop_
_geom_bond_atom_site_label_1
_geom_bond_atom_site_label_2
_geom_bond_site_symmetry_1
_geom_bond_site_symmetry_2
Br1 C3 1_555 1_555
Br2 C31 1_555 1_555
Br3 C36 1_555 1_555
Br4 C64 1_555 1_555
O1 C7 1_555 1_555
O2 C7 1_555 1_555
O3 C26 1_555 1_555
O4 C27 1_555 1_555
O5 C40 1_555 1_555
O6 C40 1_555 1_555
O7 C59 1_555 1_555
O8 C60 1_555 1_555
N1 H1 1_555 1_555
N2 H2 1_555 1_555
N3 H3 1_555 1_555
N4 H4 1_555 1_555
C1 H5 1_555 1_555
C2 C1 1_555 1_555
H6 C2 1_555 1_555
C3 C2 1_555 1_555
C4 C3 1_555 1_555
H7 C4 1_555 1_555
C5 C4 1_555 1_555
H8 C5 1_555 1_555
C6 N1 1_555 1_555
C7 N1 1_555 1_555
C8 O2 1_555 1_555
H9 C8 1_555 1_555
C9 C8 1_555 1_555
H10 C9 1_555 1_555
H11 C9 1_555 1_555
C10 C9 1_555 1_555
H12 C10 1_555 1_555
C11 C10 1_555 1_555
H13 C11 1_555 1_555
H14 C11 1_555 1_555
C12 C11 1_555 1_555
C13 C12 1_555 1_555
H15 C13 1_555 1_555
H16 C13 1_555 1_555
C14 C13 1_555 1_555
H17 C14 1_555 1_555
C15 C14 1_555 1_555
H18 C15 1_555 1_555
C16 C8 1_555 1_555
H19 C16 1_555 1_555
C17 C10 1_555 1_555
C18 C17 1_555 1_555
H20 C18 1_555 1_555
H21 C18 1_555 1_555
C19 C18 1_555 1_555
H22 C19 1_555 1_555
H23 C19 1_555 1_555
C20 C19 1_555 1_555
H24 C20 1_555 1_555
H25 C20 1_555 1_555
C21 C20 1_555 1_555
H26 C21 1_555 1_555
H27 C21 1_555 1_555
C22 C21 1_555 1_555
H28 C22 1_555 1_555
H29 C22 1_555 1_555
C23 C17 1_555 1_555
H30 C23 1_555 1_555
C24 C12 1_555 1_555
H31 C24 1_555 1_555
H32 C24 1_555 1_555
H33 C24 1_555 1_555
C25 C14 1_555 1_555
H34 C25 1_555 1_555
H35 C25 1_555 1_555
H36 C25 1_555 1_555
C26 C15 1_555 1_555
H37 C26 1_555 1_555
H38 C26 1_555 1_555
C27 O3 1_555 1_555
C28 N2 1_555 1_555
C29 C28 1_555 1_555
H39 C29 1_555 1_555
C30 C29 1_555 1_555
H40 C30 1_555 1_555
C31 C30 1_555 1_555
C32 C31 1_555 1_555
H41 C32 1_555 1_555
C33 C28 1_555 1_555
H42 C33 1_555 1_555
C34 H43 1_555 1_555
C35 C34 1_555 1_555
H44 C35 1_555 1_555
C36 C35 1_555 1_555
C37 C36 1_555 1_555
H45 C37 1_555 1_555
C38 C37 1_555 1_555
H46 C38 1_555 1_555
C39 N3 1_555 1_555
C40 N3 1_555 1_555
C41 O6 1_555 1_555
H47 C41 1_555 1_555
C42 C41 1_555 1_555
H48 C42 1_555 1_555
H49 C42 1_555 1_555
C43 C42 1_555 1_555
H50 C43 1_555 1_555
C44 C43 1_555 1_555
H51 C44 1_555 1_555
H52 C44 1_555 1_555
C45 C44 1_555 1_555
C46 C45 1_555 1_555
H53 C46 1_555 1_555
H54 C46 1_555 1_555
C47 C46 1_555 1_555
H55 C47 1_555 1_555
C48 C47 1_555 1_555
H56 C48 1_555 1_555
C49 C41 1_555 1_555
H57 C49 1_555 1_555
C50 C43 1_555 1_555
C51 C50 1_555 1_555
H58 C51 1_555 1_555
C52 C51 1_555 1_555
H59 C52 1_555 1_555
H60 C52 1_555 1_555
C53 C52 1_555 1_555
H61 C53 1_555 1_555
H62 C53 1_555 1_555
C54 C53 1_555 1_555
H63 C54 1_555 1_555
H64 C54 1_555 1_555
C55 C54 1_555 1_555
H65 C55 1_555 1_555
H66 C55 1_555 1_555
C56 C50 1_555 1_555
H67 C56 1_555 1_555
H68 C56 1_555 1_555
C57 C45 1_555 1_555
H69 C57 1_555 1_555
H70 C57 1_555 1_555
H71 C57 1_555 1_555
C58 C47 1_555 1_555
H72 C58 1_555 1_555
H73 C58 1_555 1_555
H74 C58 1_555 1_555
C59 C48 1_555 1_555
H75 C59 1_555 1_555
H76 C59 1_555 1_555
C60 O7 1_555 1_555
C61 N4 1_555 1_555
C62 C61 1_555 1_555
H77 C62 1_555 1_555
C63 C62 1_555 1_555
H78 C63 1_555 1_555
C64 C63 1_555 1_555
C65 C64 1_555 1_555
H79 C65 1_555 1_555
C66 C61 1_555 1_555
H80 C66 1_555 1_555
C67 H81 1_555 1_555
H82 C67 1_555 1_555
H83 C67 1_555 1_555
C68 C67 1_555 1_555
H84 C68 1_555 1_555
H85 C68 1_555 1_555
C69 C68 1_555 1_555
H86 C69 1_555 1_555
H87 C69 1_555 1_555
C70 C69 1_555 1_555
H88 C70 1_555 1_555
H89 C70 1_555 1_555
C71 C70 1_555 1_555
H90 C71 1_555 1_555
H91 C71 1_555 1_555
C72 C71 1_555 1_555
H92 C72 1_555 1_555
H93 C72 1_555 1_555
H94 C72 1_555 1_555
N2 C27 1_555 1_555
N4 C60 1_555 1_555
C1 C6 1_555 1_555
C5 C6 1_555 1_555
C12 C16 1_555 1_555
C15 C16 1_555 1_555
C22 C23 1_555 1_555
C32 C33 1_555 1_555
C34 C39 1_555 1_555
C38 C39 1_555 1_555
C45 C49 1_555 1_555
C48 C49 1_555 1_555
C55 C56 1_555 1_555
C65 C66 1_555 1_555

#END
