
#######################################################################
#
#                 Cambridge Crystallographic Data Centre
#                                CCDC 
#
#######################################################################
#
# If this CIF has been generated from an entry in the Cambridge 
# Structural Database, then it will include bibliographic, chemical, 
# crystal, experimental, refinement or atomic coordinate data resulting 
# from the CCDC's data processing and validation procedures.
#
#######################################################################

data_ACIYOC
_chemical_formula_moiety         'C175 H140 N30 O10,C2 H3 N1,2(C1 H2 Cl2)'
_chemical_name_systematic        
'4,9,14,19,24,26,28,30,32,34-decakis((1-(Naphthalen-2-ylmethyl)-1H-1,2,3-triazol-4-yl)methoxy)pillar[5]arene acetonitrile dichloromethane solvate'
_symmetry_cell_setting           monoclinic
_symmetry_space_group_name_H-M   'P 21/c'
_symmetry_Int_Tables_number      14
_space_group_name_Hall           '-P 2ybc'
loop_
_symmetry_equiv_pos_site_id
_symmetry_equiv_pos_as_xyz
1 x,y,z
2 -x,1/2+y,1/2-z
3 -x,-y,-z
4 x,1/2-y,1/2+z
_cell_length_a                   29.5600(5)
_cell_length_b                   25.2228(4)
_cell_length_c                   20.8507(3)
_cell_angle_alpha                90
_cell_angle_beta                 105.1692(16)
_cell_angle_gamma                90
_cell_volume                     15004.3
_exptl_crystal_colour            colorless
_exptl_crystal_description       block
_cell_formula_units_Z            4
loop_
_atom_site_label
_atom_site_type_symbol
_atom_site_fract_x
_atom_site_fract_y
_atom_site_fract_z
Cl1 Cl 0.1419(2) 0.4224(3) 0.2538(3)
Cl4 Cl 0.0843(3) 0.3513(4) 0.2938(7)
C168 C 0.0834(7) 0.3784(9) 0.2359(9)
H137 H 0.0559 0.4009 0.2233
H138 H 0.0826 0.3536 0.2000
Cl2 Cl 0.09904(6) 0.68294(7) 0.81732(7)
Cl3 Cl 0.03539(7) 0.60230(6) 0.74647(8)
C1 C 0.0402(3) 0.6603(3) 0.7925(3)
H1 H 0.0289 0.6541 0.8316
H2 H 0.0206 0.6875 0.7660
O1 O -0.07458(12) 0.54766(14) 0.27232(18)
O2 O -0.06478(12) 0.38098(13) 0.39957(16)
O3 O -0.06088(13) 0.20764(17) 0.3113(2)
O4 O -0.08349(14) 0.23996(15) 0.05223(17)
O5 O -0.09186(13) 0.44066(15) 0.06084(18)
O6 O 0.06994(12) 0.36742(14) 0.05815(17)
O7 O 0.09233(14) 0.2113(2) 0.2067(2)
O8 O 0.07858(12) 0.53829(13) 0.16881(17)
O9 O 0.10506(13) 0.27466(17) 0.4683(2)
O10 O 0.09283(13) 0.46357(17) 0.4224(2)
N1 N -0.18979(17) 0.58277(19) 0.2767(2)
N3 N -0.20201(16) 0.43467(17) 0.2785(2)
N4 N -0.1886(3) 0.2220(3) 0.0698(3)
N5 N 0.1817(2) 0.4302(3) -0.0076(3)
N6 N 0.14931(19) 0.3932(2) -0.0108(2)
N7 N -0.16286(18) 0.42031(19) 0.3786(2)
N8 N 0.19945(16) 0.4420(2) 0.0566(2)
N9 N -0.19776(18) 0.44790(19) 0.3429(2)
N10 N -0.21962(17) 0.3622(3) 0.0029(3)
N11 N -0.1983(2) 0.3983(3) 0.0972(3)
N12 N -0.2290(2) 0.3657(3) 0.0619(3)
N13 N 0.18896(18) 0.5783(2) 0.1544(2)
N14 N -0.20335(18) 0.2542(2) 0.2603(3)
N15 N -0.21556(19) 0.1588(3) 0.0015(3)
N16 N -0.1559(2) 0.2170(3) 0.3441(2)
N17 N 0.1789(2) 0.2772(2) 0.2098(2)
N18 N -0.1925(2) 0.2486(3) 0.3262(3)
N19 N -0.2194(2) 0.1837(3) 0.0576(3)
N20 N 0.21466(15) 0.58963(18) 0.2583(2)
N21 N -0.20894(18) 0.60345(19) 0.1736(2)
N22 N -0.22239(17) 0.60615(19) 0.2300(3)
N23 N 0.22344(17) 0.6001(2) 0.2006(2)
N24 N 0.22360(18) 0.4159(3) 0.5480(3)
N25 N 0.2300(2) 0.3936(3) 0.4931(3)
N26 N 0.1996(2) 0.4138(3) 0.4442(4)
N27 N 0.2160(2) 0.3126(3) 0.2996(3)
N28 N 0.2071(2) 0.3161(3) 0.2345(3)
N29 N 0.23979(17) 0.2151(2) 0.5700(3)
N30 N 0.2135(2) 0.2483(3) 0.4741(3)
N31 N 0.2465(2) 0.2181(3) 0.5088(3)
C2 C 0.03640(17) 0.51329(18) 0.1401(2)
C3 C 0.02990(17) 0.47705(19) 0.0887(2)
H3 H 0.0552 0.4686 0.0720
C4 C -0.02318(17) 0.3530(2) 0.4183(2)
C5 C -0.01303(17) 0.45269(19) 0.0611(2)
C6 C 0.03245(18) 0.3348(2) 0.0596(2)
C7 C -0.02280(18) 0.20417(18) 0.2839(3)
C8 C -0.01964(17) 0.2993(2) 0.4058(2)
H4 H -0.0466 0.2801 0.3861
C9 C -0.05036(18) 0.4665(2) 0.0876(2)
C10 C 0.01137(18) 0.4748(2) 0.4043(2)
C11 C 0.02085(17) 0.21028(18) 0.3287(2)
C12 C 0.01671(18) 0.3820(2) 0.4505(2)
C13 C 0.04901(18) 0.5147(2) 0.3260(2)
H5 H 0.0761 0.5208 0.3124
C14 C 0.06349(18) 0.3020(2) 0.4529(3)
C15 C -0.00110(18) 0.5271(2) 0.1661(2)
C16 C -0.01208(17) 0.3561(2) 0.0326(2)
C17 C 0.02358(17) 0.2737(2) 0.4221(2)
C18 C 0.06005(18) 0.2133(2) 0.3031(3)
H6 H 0.0896 0.2185 0.3318
C19 C -0.03109(18) 0.49593(19) 0.3667(2)
H7 H -0.0583 0.4899 0.3801
C20 C -0.03361(18) 0.5256(2) 0.3099(2)
C21 C 0.05219(19) 0.4847(2) 0.3836(3)
C22 C 0.00690(18) 0.53572(19) 0.2884(2)
C23 C -0.02741(19) 0.20002(19) 0.2167(3)
H8 H -0.0571 0.1963 0.1879
C24 C -0.0457(2) 0.2728(2) 0.0544(2)
C25 C 0.0132(2) 0.4409(2) 0.4642(2)
H9 H -0.0149 0.4472 0.4791
H10 H 0.0400 0.4514 0.4998
C26 C 0.05515(19) 0.2085(2) 0.2356(3)
C27 C -0.04411(18) 0.5034(2) 0.1384(2)
H11 H -0.0696 0.5126 0.1544
C28 C -0.01811(17) 0.4122(2) 0.0066(2)
H12 H 0.0051 0.4193 -0.0177
H13 H -0.0489 0.4158 -0.0241
C29 C -0.0014(2) 0.2525(2) 0.0844(2)
C30 C 0.05899(19) 0.3561(2) 0.4678(3)
H14 H 0.0856 0.3747 0.4901
C31 C 0.0377(2) 0.2837(2) 0.0857(2)
H15 H 0.0676 0.2704 0.1042
C32 C 0.02676(19) 0.2160(2) 0.4030(2)
H16 H 0.0026 0.1958 0.4158
H17 H 0.0570 0.2018 0.4269
C33 C -0.05043(19) 0.3240(2) 0.0304(2)
H18 H -0.0803 0.3374 0.0122
C34 C 0.01145(19) 0.20133(19) 0.1914(3)
C35 C 0.00477(19) 0.5651(2) 0.2242(3)
H19 H 0.0334 0.5854 0.2291
H20 H -0.0213 0.5897 0.2152
C36 C 0.0056(3) 0.1980(2) 0.1165(3)
H21 H 0.0331 0.1816 0.1081
H22 H -0.0213 0.1759 0.0966
C37 C 0.1389(2) 0.2010(3) 0.2452(3)
H23 H 0.1535 0.1760 0.2213
H24 H 0.1376 0.1844 0.2866
C38 C -0.14271(18) 0.2030(2) 0.2884(3)
C39 C -0.10489(17) 0.3523(2) 0.3625(2)
H25 H -0.1138 0.3259 0.3908
H26 H -0.0974 0.3341 0.3256
C40 C -0.0992(2) 0.1724(2) 0.2916(3)
H27 H -0.0961 0.1437 0.3235
H28 H -0.1003 0.1573 0.2485
C41 C 0.11463(18) 0.3421(2) 0.0658(3)
H29 H 0.1116 0.3127 0.0350
H30 H 0.1261 0.3286 0.1106
C42 C 0.1468(2) 0.3026(3) 0.4910(4)
H31 H 0.1449 0.3251 0.5279
H32 H 0.1518 0.3251 0.4557
C43 C 0.1865(2) 0.2657(2) 0.5125(3)
C44 C -0.14410(18) 0.3891(2) 0.3373(3)
C45 C -0.1157(2) 0.5361(3) 0.2934(4)
H33 H -0.1115 0.5475 0.3390
H34 H -0.1216 0.4982 0.2911
C46 C -0.16898(18) 0.3989(2) 0.2736(3)
H35 H -0.1643 0.3842 0.2350
C47 C -0.1289(2) 0.2612(3) 0.0207(3)
H36 H -0.1302 0.2705 -0.0249
H37 H -0.1341 0.2931 0.0436
C48 C 0.11775(18) 0.5247(2) 0.1438(3)
H38 H 0.1116 0.5346 0.0974
H39 H 0.1234 0.4869 0.1476
C49 C 0.2030(2) 0.2441(2) 0.5743(3)
H40 H 0.1912 0.2486 0.6112
C50 C -0.2392(2) 0.4581(3) 0.2255(3)
H41 H -0.2303 0.4560 0.1840
H42 H -0.2426 0.4952 0.2353
C51 C 0.14733(19) 0.3817(2) 0.0522(3)
C52 C -0.18208(19) 0.3908(3) 0.0008(3)
H43 H -0.1684 0.3940 -0.0344
C53 C -0.1561(2) 0.5647(2) 0.2491(3)
C54 C -0.12959(18) 0.4519(2) 0.0899(3)
H44 H -0.1402 0.4881 0.0801
H45 H -0.1192 0.4477 0.1377
C55 C -0.16828(19) 0.4144(3) 0.0616(3)
C56 C 0.17917(19) 0.4119(2) 0.0953(3)
H46 H 0.1857 0.4120 0.1415
C57 C -0.2980(2) 0.3481(4) -0.0754(4)
C58 C -0.3102(3) 0.3856(5) -0.1208(4)
H47 H -0.2873 0.4007 -0.1383
C59 C -0.2476(2) 0.3276(4) -0.0499(4)
H48 H -0.2481 0.2919 -0.0326
H49 H -0.2330 0.3260 -0.0865
C60 C 0.1687(2) 0.2487(3) 0.2605(3)
C61 C 0.15898(18) 0.5538(2) 0.1834(2)
C62 C 0.17525(18) 0.5618(2) 0.2508(3)
H50 H 0.1617 0.5503 0.2839
C63 C -0.1846(2) 0.1830(2) -0.0234(3)
H51 H -0.1771 0.1752 -0.0629
C64 C -0.17325(19) 0.2270(2) 0.2358(3)
H52 H -0.1730 0.2248 0.1914
C65 C -0.1656(2) 0.2225(3) 0.0215(3)
C66 C 0.1937(3) 0.2726(3) 0.3183(3)
H53 H 0.1946 0.2626 0.3616
C67 C 0.2355(2) 0.4831(3) 0.0748(4)
H54 H 0.2220 0.5143 0.0897
H55 H 0.2455 0.4929 0.0356
C68 C 0.2783(2) 0.4658(2) 0.1292(4)
C69 C 0.2475(2) 0.6089(2) 0.3202(3)
H56 H 0.2297 0.6205 0.3507
H57 H 0.2646 0.6392 0.3101
C70 C -0.1679(2) 0.5781(2) 0.1838(3)
H58 H -0.1511 0.5712 0.1528
C71 C 0.2820(2) 0.5666(2) 0.3535(3)
C72 C 0.3618(2) 0.5340(3) 0.3928(4)
C73 C 0.1743(3) 0.4523(3) 0.4663(5)
C74 C -0.2469(3) 0.1143(3) -0.0264(4)
H59 H -0.2353 0.0968 -0.0603
H60 H -0.2466 0.0888 0.0084
C75 C 0.2666(2) 0.5218(3) 0.3822(3)
H61 H 0.2347 0.5177 0.3787
C76 C -0.2952(3) 0.1320(4) -0.0555(4)
C77 C 0.1892(2) 0.4517(3) 0.5356(5)
H62 H 0.1778 0.4715 0.5657
C78 C 0.3287(2) 0.5719(3) 0.3592(3)
H63 H 0.3392 0.6013 0.3404
C79 C 0.3455(2) 0.4898(3) 0.4219(4)
C80 C 0.2972(2) 0.4843(3) 0.4150(4)
H64 H 0.2860 0.4548 0.4329
C81 C -0.3319(3) 0.1117(5) -0.0402(4)
H65 H -0.3276 0.0841 -0.0095
C82 C 0.3173(3) 0.4498(3) 0.1130(5)
H66 H 0.3172 0.4478 0.0685
C83 C 0.2782(3) 0.4701(3) 0.1962(4)
H67 H 0.2518 0.4823 0.2078
C84 C 0.1368(3) 0.4809(5) 0.4209(7)
H68 H 0.1396 0.5183 0.4320
H69 H 0.1401 0.4770 0.3761
C85 C 0.3590(3) 0.4356(4) 0.1629(6)
C86 C -0.2380(3) 0.6264(3) 0.1121(3)
H70 H -0.2201 0.6288 0.0795
H71 H -0.2476 0.6619 0.1208
C87 C -0.2811(3) 0.5923(4) 0.0852(4)
C88 C -0.2425(3) 0.2881(3) 0.2258(6)
H72 H -0.2332 0.3077 0.1912
H73 H -0.2487 0.3136 0.2572
C89 C -0.2862(2) 0.2586(3) 0.1955(4)
C90 C 0.2961(3) 0.3293(3) 0.3712(5)
C91 C 0.2730(2) 0.1868(3) 0.6238(4)
H74 H 0.2888 0.1597 0.6048
H75 H 0.2558 0.1693 0.6516
C92 C 0.4415(3) 0.5022(4) 0.4335(5)
H76 H 0.4734 0.5059 0.4374
C93 C -0.2762(3) 0.5360(3) 0.0745(4)
H77 H -0.2465 0.5209 0.0861
C94 C 0.3786(3) 0.4522(3) 0.4565(4)
H78 H 0.3682 0.4226 0.4750
C95 C 0.4104(2) 0.5398(3) 0.3987(5)
H79 H 0.4214 0.5686 0.3794
C96 C 0.2532(3) 0.3966(4) 0.6086(4)
H80 H 0.2578 0.3589 0.6042
H81 H 0.2375 0.4015 0.6436
C97 C 0.3002(3) 0.4230(5) 0.6291(5)
C98 C 0.2485(4) 0.3516(3) 0.3414(5)
H82 H 0.2352 0.3636 0.3769
H83 H 0.2512 0.3822 0.3145
C99 C -0.2862(3) 0.4302(4) 0.2174(5)
C100 C 0.3567(3) 0.2899(5) 0.4570(5)
C101 C -0.3234(3) 0.6139(5) 0.0712(5)
H84 H -0.3267 0.6500 0.0781
C102 C -0.2970(4) 0.2500(4) 0.1294(6)
H85 H -0.2753 0.2605 0.1067
C103 C -0.3159(4) 0.2401(3) 0.2302(5)
H86 H -0.3082 0.2426 0.2763
C104 C 0.4249(3) 0.4584(4) 0.4630(5)
H87 H 0.4460 0.4337 0.4870
C105 C 0.3269(6) 0.3301(5) 0.3319(6)
H88 H 0.3171 0.3431 0.2888
C106 C 0.3871(4) 0.2908(4) 0.4185(5)
C107 C -0.3878(4) 0.3883(8) -0.1172(7)
C108 C -0.3805(4) 0.3475(7) -0.0775(11)
C109 C -0.3338(4) 0.3268(6) -0.0522(6)
H89 H -0.3279 0.2997 -0.0208
C110 C 0.3107(3) 0.3106(5) 0.4316(5)
H90 H 0.2903 0.3109 0.4588
C111 C 0.3589(4) 0.4404(4) 0.2279(6)
C112 C -0.3791(4) 0.1307(6) -0.0696(6)
C113 C -0.3062(4) 0.1841(4) -0.0878(6)
H91 H -0.2896 0.2103 -0.0561
C114 C 0.3996(3) 0.4201(6) 0.1465(8)
H93 H 0.3995 0.4153 0.1022
C115 C -0.3555(3) 0.4031(7) -0.1431(6)
H94 H -0.3629 0.4266 -0.1786
C116 C 0.3170(4) 0.4560(4) 0.2436(5)
H95 H 0.3162 0.4567 0.2879
C117 C -0.3079(4) 0.4041(4) 0.1675(6)
H96 H -0.2934 0.3964 0.1341
C118 C 0.4387(5) 0.4123(8) 0.1946(10)
H97 H 0.4661 0.4050 0.1824
C119 C -0.3603(3) 0.2163(3) 0.1938(6)
C120 C -0.3689(3) 0.2134(3) 0.1256(5)
C121 C -0.3581(4) 0.3848(4) 0.1610(5)
C122 C -0.3655(3) 0.5804(5) 0.0445(5)
C123 C -0.3592(4) 0.5258(5) 0.0331(5)
C124 C -0.3138(3) 0.5052(4) 0.0480(5)
H98 H -0.3094 0.4696 0.0397
C125 C -0.3359(5) 0.2280(4) 0.0950(6)
H99 H -0.3408 0.2225 0.0496
C126 C -0.4103(4) 0.6035(6) 0.0305(8)
H100 H -0.4133 0.6392 0.0395
C127 C -0.3731(4) 0.3796(5) 0.2177(7)
C128 C -0.3994(4) 0.4947(6) 0.0041(7)
H101 H -0.3967 0.4586 -0.0037
C129 C -0.3521(5) 0.2030(6) -0.1123(7)
H102 H -0.3574 0.2367 -0.1306
C130 C -0.3064(3) 0.4230(5) 0.2770(7)
H103 H -0.2883 0.4346 0.3180
C131 C -0.3884(5) 0.1719(6) -0.1091(10)
C132 C -0.3918(7) 0.1983(7) 0.2260(9)
H104 H -0.3854 0.1977 0.2721
C133 C 0.3723(7) 0.3118(5) 0.3557(8)
H105 H 0.3929 0.3137 0.3289
C134 C -0.3803(5) 0.3642(7) 0.0996(11)
H106 H -0.3677 0.3647 0.0632
C135 C -0.4371(7) 0.1798(8) 0.1823(14)
H107 H -0.4605 0.1688 0.2016
C136 C -0.4499(4) 0.5734(7) 0.0034(8)
H108 H -0.4798 0.5877 -0.0042
C137 C -0.4429(5) 0.5195(7) -0.0123(9)
H109 H -0.4688 0.4999 -0.0348
C138 C 0.4014(5) 0.4284(5) 0.2746(8)
H110 H 0.4029 0.4303 0.3197
C139 C 0.4406(5) 0.4140(6) 0.2554(10)
H111 H 0.4683 0.4057 0.2870
C140 C 0.4353(4) 0.2707(6) 0.4438(9)
H112 H 0.4567 0.2717 0.4181
C141 C 0.4471(5) 0.2507(10) 0.5067(9)
H113 H 0.4787 0.2447 0.5264
C142 C 0.4132(6) 0.2376(12) 0.5469(9)
H114 H 0.4196 0.2156 0.5839
C143 C 0.3698(5) 0.2638(10) 0.5200(7)
H115 H 0.3483 0.2640 0.5454
C144 C -0.4684(6) 0.1618(8) -0.1158(15)
H116 H -0.4985 0.1759 -0.1282
C145 C -0.4378(6) 0.1870(9) -0.1293(13)
H117 H -0.4460 0.2179 -0.1540
C146 C -0.4183(4) 0.1008(8) -0.0565(7)
H118 H -0.4127 0.0714 -0.0287
C147 C -0.4631(7) 0.1166(12) -0.0854(11)
H119 H -0.4887 0.0959 -0.0834
C148 C -0.4283(5) 0.3403(6) 0.0980(11)
H120 H -0.4466 0.3238 0.0602
C149 C -0.4200(5) 0.3564(6) 0.2108(9)
H121 H -0.4333 0.3512 0.2461
C150 C -0.3475(5) 0.4016(7) 0.2750(8)
H122 H -0.3588 0.4017 0.3127
C151 C -0.4411(8) 0.3439(10) 0.1475(12)
H123 H -0.4728 0.3362 0.1408
C152 C -0.4411(6) 0.4075(16) -0.1551(19)
H124 H -0.4542 0.4143 -0.2000
C153 C -0.450(2) 0.4089(12) -0.131(2)
C154 C -0.4210(11) 0.3313(11) -0.0641(15)
H126 H -0.4215 0.3017 -0.0376
C155 C -0.4682(6) 0.3649(15) -0.0954(18)
H127 H -0.4985 0.3585 -0.0924
C156 C -0.4453(5) 0.1783(6) 0.1167(14)
H128 H -0.4744 0.1665 0.0914
C157 C -0.4140(5) 0.1927(5) 0.0870(10)
H129 H -0.4202 0.1900 0.0410
C158 C 0.3088(3) 0.2229(5) 0.6660(5)
C159 C 0.3841(5) 0.4259(11) 0.6319(7)
H130 H 0.4089 0.4149 0.6153
C160 C 0.3601(5) 0.4561(6) 0.7336(7)
C161 C 0.3877(5) 0.4700(8) 0.6890(7)
C162 C 0.3162(4) 0.4341(5) 0.7050(6)
H131 H 0.2963 0.4259 0.7315
C163 C 0.3348(6) 0.4051(12) 0.6092(8)
H132 H 0.3291 0.3774 0.5787
C164 C 0.4191(6) 0.4891(8) 0.8255(10)
H133 H 0.4295 0.4948 0.8710
C165 C 0.3756(6) 0.4681(6) 0.8011(7)
H134 H 0.3563 0.4620 0.8292
C166 C 0.4333(5) 0.4915(9) 0.7172(8)
H135 H 0.4532 0.4986 0.6903
C167 C 0.4483(5) 0.5022(9) 0.7872(11)
H136 H 0.4773 0.5177 0.8059
C169 C 0.3890(3) 0.2581(8) 0.7196(7)
C170 C 0.2943(5) 0.2656(5) 0.7002(5)
H139 H 0.2619 0.2679 0.6911
C171 C 0.3564(7) 0.2991(7) 0.7453(10)
C172 C 0.3166(6) 0.3048(7) 0.7441(6)
H140 H 0.3034 0.3295 0.7669
C173 C 0.3565(4) 0.2145(6) 0.6717(6)
H141 H 0.3681 0.1872 0.6505
C174 C 0.4713(5) 0.2850(13) 0.7671(11)
H142 H 0.5037 0.2880 0.7784
C175 C 0.4373(7) 0.2373(13) 0.7196(13)
C176 C 0.3985(10) 0.3382(11) 0.7959(10)
H143 H 0.3953 0.3662 0.8234
C177 C 0.4437(9) 0.314(2) 0.7826(19)
N2 N -0.1339(3) 0.1154(3) 0.1286(3)
C178 C -0.1140(3) 0.1116(3) 0.0882(3)
C179 C -0.0891(3) 0.1055(3) 0.0374(4)
H144 H -0.1088 0.0874 -0.0001
H145 H -0.0611 0.0852 0.0549
H146 H -0.0810 0.1398 0.0239
H92? H -0.2920 0.1846 -0.1247
H125? H -0.4535 0.4429 -0.1149
C180? C 0.3801(9) 0.4773(7) 0.6336(12)
C181? C 0.4722(6) 0.4679(14) 0.6616(15)
C182? C 0.3084(10) 0.4727(12) 0.6219(16)
C183? C 0.4694(8) 0.4173(10) 0.6423(15)
C184? C 0.3462(11) 0.5037(11) 0.6340(13)
C185? C 0.4367(14) 0.4995(15) 0.6533(16)
C186? C 0.4287(9) 0.3887(13) 0.6327(11)
H147? H 0.5017 0.4813 0.6824
H148? H 0.2811 0.4916 0.6036
H149? H 0.4958 0.4010 0.6351
H150? H 0.3464 0.5400 0.6417
H151? H 0.4422 0.5357 0.6583
H152? H 0.4270 0.3521 0.6274
loop_
_geom_bond_atom_site_label_1
_geom_bond_atom_site_label_2
_geom_bond_site_symmetry_1
_geom_bond_site_symmetry_2
Cl1 C168 1_555 1_555
Cl2 C1 1_555 1_555
Cl3 C1 1_555 1_555
Cl4 C168 1_555 1_555
O1 C20 1_555 1_555
O2 C4 1_555 1_555
O3 C7 1_555 1_555
O4 C24 1_555 1_555
O5 C9 1_555 1_555
O6 C6 1_555 1_555
O7 C26 1_555 1_555
O8 C2 1_555 1_555
O9 C14 1_555 1_555
O10 C21 1_555 1_555
N1 N22 1_555 1_555
N2 C178 1_555 1_555
N3 N9 1_555 1_555
N4 N19 1_555 1_555
N5 N6 1_555 1_555
N6 C51 1_555 1_555
N7 N9 1_555 1_555
N8 N5 1_555 1_555
N10 N12 1_555 1_555
N11 N12 1_555 1_555
N13 N23 1_555 1_555
N14 N18 1_555 1_555
N15 N19 1_555 1_555
N16 N18 1_555 1_555
N17 N28 1_555 1_555
N20 N23 1_555 1_555
N21 N22 1_555 1_555
N24 N25 1_555 1_555
N25 N26 1_555 1_555
N26 C73 1_555 1_555
N27 N28 1_555 1_555
N29 N31 1_555 1_555
N30 N31 1_555 1_555
C1 H1 1_555 1_555
H2 C1 1_555 1_555
C2 C3 1_555 1_555
C3 H3 1_555 1_555
C4 C8 1_555 1_555
C5 C3 1_555 1_555
C6 C16 1_555 1_555
C7 C11 1_555 1_555
C8 H4 1_555 1_555
C9 C5 1_555 1_555
C10 C19 1_555 1_555
C11 C18 1_555 1_555
C12 C4 1_555 1_555
C13 H5 1_555 1_555
C14 C17 1_555 1_555
C15 C2 1_555 1_555
C16 C28 1_555 1_555
C17 C8 1_555 1_555
C18 H6 1_555 1_555
C19 H7 1_555 1_555
C20 C19 1_555 1_555
C21 C10 1_555 1_555
C22 C13 1_555 1_555
C23 C7 1_555 1_555
H8 C23 1_555 1_555
C24 C29 1_555 1_555
C25 C10 1_555 1_555
H9 C25 1_555 1_555
H10 C25 1_555 1_555
C26 C18 1_555 1_555
C27 C9 1_555 1_555
H11 C27 1_555 1_555
C28 C5 1_555 1_555
H12 C28 1_555 1_555
H13 C28 1_555 1_555
C29 C31 1_555 1_555
C30 C12 1_555 1_555
H14 C30 1_555 1_555
C31 C6 1_555 1_555
H15 C31 1_555 1_555
C32 C11 1_555 1_555
H16 C32 1_555 1_555
H17 C32 1_555 1_555
C33 C16 1_555 1_555
H18 C33 1_555 1_555
C34 C23 1_555 1_555
C35 C15 1_555 1_555
H19 C35 1_555 1_555
H20 C35 1_555 1_555
C36 C29 1_555 1_555
H21 C36 1_555 1_555
H22 C36 1_555 1_555
C37 O7 1_555 1_555
H23 C37 1_555 1_555
H24 C37 1_555 1_555
C38 N16 1_555 1_555
C39 O2 1_555 1_555
H25 C39 1_555 1_555
H26 C39 1_555 1_555
C40 O3 1_555 1_555
H27 C40 1_555 1_555
H28 C40 1_555 1_555
C41 O6 1_555 1_555
H29 C41 1_555 1_555
H30 C41 1_555 1_555
C42 O9 1_555 1_555
H31 C42 1_555 1_555
H32 C42 1_555 1_555
C43 N30 1_555 1_555
C44 N7 1_555 1_555
C45 O1 1_555 1_555
H33 C45 1_555 1_555
H34 C45 1_555 1_555
C46 N3 1_555 1_555
H35 C46 1_555 1_555
C47 O4 1_555 1_555
H36 C47 1_555 1_555
H37 C47 1_555 1_555
C48 O8 1_555 1_555
H38 C48 1_555 1_555
H39 C48 1_555 1_555
C49 N29 1_555 1_555
H40 C49 1_555 1_555
C50 N3 1_555 1_555
H41 C50 1_555 1_555
H42 C50 1_555 1_555
C51 C41 1_555 1_555
C52 N10 1_555 1_555
H43 C52 1_555 1_555
C53 N1 1_555 1_555
C54 O5 1_555 1_555
H44 C54 1_555 1_555
H45 C54 1_555 1_555
C55 N11 1_555 1_555
C56 N8 1_555 1_555
H46 C56 1_555 1_555
C57 C58 1_555 1_555
C58 H47 1_555 1_555
C59 N10 1_555 1_555
H48 C59 1_555 1_555
H49 C59 1_555 1_555
C60 N17 1_555 1_555
C61 N13 1_555 1_555
C62 N20 1_555 1_555
H50 C62 1_555 1_555
C63 N15 1_555 1_555
H51 C63 1_555 1_555
C64 N14 1_555 1_555
H52 C64 1_555 1_555
C65 N4 1_555 1_555
C66 N27 1_555 1_555
H53 C66 1_555 1_555
C67 N8 1_555 1_555
H54 C67 1_555 1_555
H55 C67 1_555 1_555
C68 C67 1_555 1_555
C69 N20 1_555 1_555
H56 C69 1_555 1_555
H57 C69 1_555 1_555
C70 N21 1_555 1_555
H58 C70 1_555 1_555
C71 C69 1_555 1_555
C72 C78 1_555 1_555
C73 C77 1_555 1_555
C74 N15 1_555 1_555
H59 C74 1_555 1_555
H60 C74 1_555 1_555
C75 C71 1_555 1_555
H61 C75 1_555 1_555
C76 C74 1_555 1_555
C77 N24 1_555 1_555
H62 C77 1_555 1_555
C78 C71 1_555 1_555
H63 C78 1_555 1_555
C79 C72 1_555 1_555
C80 C75 1_555 1_555
H64 C80 1_555 1_555
C81 C76 1_555 1_555
H65 C81 1_555 1_555
C82 C68 1_555 1_555
H66 C82 1_555 1_555
C83 C68 1_555 1_555
H67 C83 1_555 1_555
C84 O10 1_555 1_555
H68 C84 1_555 1_555
H69 C84 1_555 1_555
C85 C82 1_555 1_555
C86 N21 1_555 1_555
H70 C86 1_555 1_555
H71 C86 1_555 1_555
C87 C86 1_555 1_555
C88 N14 1_555 1_555
H72 C88 1_555 1_555
H73 C88 1_555 1_555
C89 C88 1_555 1_555
C90 C98 1_555 1_555
C91 N29 1_555 1_555
H74 C91 1_555 1_555
H75 C91 1_555 1_555
C92 H76 1_555 1_555
C93 C87 1_555 1_555
H77 C93 1_555 1_555
C94 C79 1_555 1_555
H78 C94 1_555 1_555
C95 C72 1_555 1_555
H79 C95 1_555 1_555
C96 N24 1_555 1_555
H80 C96 1_555 1_555
H81 C96 1_555 1_555
C97 C96 1_555 1_555
C98 N27 1_555 1_555
H82 C98 1_555 1_555
H83 C98 1_555 1_555
C99 C50 1_555 1_555
C100 C106 1_555 1_555
C101 C87 1_555 1_555
H84 C101 1_555 1_555
C102 C89 1_555 1_555
H85 C102 1_555 1_555
C103 C89 1_555 1_555
H86 C103 1_555 1_555
C104 C92 1_555 1_555
H87 C104 1_555 1_555
C105 C90 1_555 1_555
H88 C105 1_555 1_555
C106 C133 1_555 1_555
C107 C108 1_555 1_555
C108 C109 1_555 1_555
C109 C57 1_555 1_555
H89 C109 1_555 1_555
C110 C90 1_555 1_555
H90 C110 1_555 1_555
C111 C85 1_555 1_555
C112 C81 1_555 1_555
C113 C76 1_555 1_555
H91 C113 1_555 1_555
C114 C85 1_555 1_555
H93 C114 1_555 1_555
C115 C58 1_555 1_555
H94 C115 1_555 1_555
C116 C83 1_555 1_555
H95 C116 1_555 1_555
C117 C99 1_555 1_555
H96 C117 1_555 1_555
C118 C114 1_555 1_555
H97 C118 1_555 1_555
C119 C103 1_555 1_555
C120 C119 1_555 1_555
C121 C117 1_555 1_555
C122 C101 1_555 1_555
C123 C122 1_555 1_555
C124 C93 1_555 1_555
H98 C124 1_555 1_555
C125 C102 1_555 1_555
H99 C125 1_555 1_555
C126 C122 1_555 1_555
H100 C126 1_555 1_555
C127 C121 1_555 1_555
C128 C123 1_555 1_555
H101 C128 1_555 1_555
C129 C113 1_555 1_555
H102 C129 1_555 1_555
C130 C99 1_555 1_555
H103 C130 1_555 1_555
C131 C112 1_555 1_555
C132 C119 1_555 1_555
H104 C132 1_555 1_555
C133 C105 1_555 1_555
H105 C133 1_555 1_555
C134 C121 1_555 1_555
H106 C134 1_555 1_555
C135 C132 1_555 1_555
H107 C135 1_555 1_555
C136 C126 1_555 1_555
H108 C136 1_555 1_555
C137 C128 1_555 1_555
H109 C137 1_555 1_555
C138 C111 1_555 1_555
H110 C138 1_555 1_555
C139 C118 1_555 1_555
H111 C139 1_555 1_555
C140 C106 1_555 1_555
H112 C140 1_555 1_555
C141 C140 1_555 1_555
H113 C141 1_555 1_555
C142 C141 1_555 1_555
H114 C142 1_555 1_555
C143 C100 1_555 1_555
H115 C143 1_555 1_555
C144 H116 1_555 1_555
C145 C131 1_555 1_555
H117 C145 1_555 1_555
C146 C112 1_555 1_555
H118 C146 1_555 1_555
C147 C144 1_555 1_555
H119 C147 1_555 1_555
C148 C134 1_555 1_555
H120 C148 1_555 1_555
C149 C127 1_555 1_555
H121 C149 1_555 1_555
C150 C127 1_555 1_555
H122 C150 1_555 1_555
C151 C148 1_555 1_555
H123 C151 1_555 1_555
C152 C107 1_555 1_555
H124 C152 1_555 1_555
C153 C152 1_555 1_555
C154 C108 1_555 1_555
H126 C154 1_555 1_555
C155 C153 1_555 1_555
H127 C155 1_555 1_555
C156 C135 1_555 1_555
H128 C156 1_555 1_555
C157 C120 1_555 1_555
H129 C157 1_555 1_555
C158 C91 1_555 1_555
C159 H130 1_555 1_555
C160 C161 1_555 1_555
C161 C159 1_555 1_555
C162 C97 1_555 1_555
H131 C162 1_555 1_555
C163 C97 1_555 1_555
H132 C163 1_555 1_555
C164 H133 1_555 1_555
C165 C160 1_555 1_555
H134 C165 1_555 1_555
C166 C161 1_555 1_555
H135 C166 1_555 1_555
C167 C164 1_555 1_555
H136 C167 1_555 1_555
C168 H137 1_555 1_555
H138 C168 1_555 1_555
C169 C171 1_555 1_555
C170 C158 1_555 1_555
H139 C170 1_555 1_555
C171 C172 1_555 1_555
C172 C170 1_555 1_555
H140 C172 1_555 1_555
C173 C158 1_555 1_555
H141 C173 1_555 1_555
C174 H142 1_555 1_555
C175 C169 1_555 1_555
C176 C171 1_555 1_555
H143 C176 1_555 1_555
C177 C174 1_555 1_555
C178 C179 1_555 1_555
C179 H144 1_555 1_555
H145 C179 1_555 1_555
H146 C179 1_555 1_555
C12 C25 1_555 1_555
C13 C21 1_555 1_555
C14 C30 1_555 1_555
C15 C27 1_555 1_555
C17 C32 1_555 1_555
C20 C22 1_555 1_555
C22 C35 1_555 1_555
C24 C33 1_555 1_555
C26 C34 1_555 1_555
C34 C36 1_555 1_555
C37 C60 1_555 1_555
C38 C40 1_555 1_555
C38 C64 1_555 1_555
C39 C44 1_555 1_555
C42 C43 1_555 1_555
C43 C49 1_555 1_555
C44 C46 1_555 1_555
C45 C53 1_555 1_555
C47 C65 1_555 1_555
C48 C61 1_555 1_555
C51 C56 1_555 1_555
C52 C55 1_555 1_555
C53 C70 1_555 1_555
C54 C55 1_555 1_555
C57 C59 1_555 1_555
C60 C66 1_555 1_555
C61 C62 1_555 1_555
C63 C65 1_555 1_555
C73 C84 1_555 1_555
C79 C80 1_555 1_555
C92 C95 1_555 1_555
C94 C104 1_555 1_555
C100 C110 1_555 1_555
C107 C115 1_555 1_555
C111 C116 1_555 1_555
C120 C125 1_555 1_555
C123 C124 1_555 1_555
C129 C131 1_555 1_555
C130 C150 1_555 1_555
C136 C137 1_555 1_555
C138 C139 1_555 1_555
C142 C143 1_555 1_555
C144 C145 1_555 1_555
C146 C147 1_555 1_555
C149 C151 1_555 1_555
C154 C155 1_555 1_555
C156 C157 1_555 1_555
C159 C163 1_555 1_555
C160 C162 1_555 1_555
C164 C165 1_555 1_555
C166 C167 1_555 1_555
C169 C173 1_555 1_555
C174 C175 1_555 1_555
C176 C177 1_555 1_555

#END
