
#######################################################################
#
#                 Cambridge Crystallographic Data Centre
#                                CCDC 
#
#######################################################################
#
# If this CIF has been generated from an entry in the Cambridge 
# Structural Database, then it will include bibliographic, chemical, 
# crystal, experimental, refinement or atomic coordinate data resulting 
# from the CCDC's data processing and validation procedures.
#
#######################################################################

data_ACOQIS
_chemical_formula_moiety         'C23 H22 N6 O5'
_chemical_name_systematic        
N-((6'-deoxy-2',3'-O-isopropylidene-5',6'-didehydroadenosinyl)methyl)phthalimide
_symmetry_cell_setting           monoclinic
_symmetry_space_group_name_H-M   'P 21'
_symmetry_Int_Tables_number      4
_space_group_name_Hall           'P 2yb'
loop_
_symmetry_equiv_pos_site_id
_symmetry_equiv_pos_as_xyz
1 x,y,z
2 -x,1/2+y,-z
_cell_length_a                   6.933(5)
_cell_length_b                   8.123(10)
_cell_length_c                   19.479(47)
_cell_angle_alpha                90
_cell_angle_beta                 91.86(14)
_cell_angle_gamma                90
_cell_volume                     1096.42
_exptl_crystal_colour            colorless
_exptl_crystal_description       prism
_cell_formula_units_Z            2
_exptl_crystal_recrystallization_method acetonitrile
loop_
_atom_site_label
_atom_site_type_symbol
_atom_site_fract_x
_atom_site_fract_y
_atom_site_fract_z
N1 N 0.1061(9) 0.8678(7) 0.5756(3)
C1 C 0.2953(11) 0.5035(9) 0.7844(4)
H1 H 0.4303(11) 0.5395(9) 0.7853(4)
C2 C -0.3523(11) -0.1674(10) 0.6314(4)
C3 C 0.1847(11) 0.6071(9) 0.8330(4)
H2 H 0.0811(11) 0.6690(9) 0.8093(4)
C4 C -0.3799(12) -0.1903(10) 0.5631(4)
H3 H -0.3986(12) -0.1020(10) 0.5332(4)
C5 C 0.1499(11) 0.9012(10) 0.6410(4)
H4 H 0.1529(11) 1.0130(10) 0.6512(4)
N2 N 0.1903(10) 0.8039(7) 0.6947(3)
C6 C 0.1060(12) 0.4859(11) 0.8861(4)
H5 H -0.0285(12) 0.5089(11) 0.8969(4)
C7 C -0.3792(12) -0.3549(12) 0.5392(5)
H6 H -0.3972(12) -0.3768(12) 0.4925(5)
C8 C 0.1875(11) 0.6450(9) 0.6735(4)
C9 C 0.1307(12) 0.3176(9) 0.8525(4)
H7 H 0.1706(12) 0.2391(9) 0.8885(4)
C10 C -0.3519(11) -0.4811(11) 0.5844(5)
H8 H -0.3537(11) -0.5883(11) 0.5675(5)
C11 C 0.1442(11) 0.5902(9) 0.6074(4)
C12 C -0.3218(12) -0.4574(10) 0.6542(5)
H9 H -0.3029(12) -0.5454(10) 0.6842(5)
C13 C -0.0538(13) 0.2580(11) 0.8203(4)
H10 H -0.1265(13) 0.3337(11) 0.7946(4)
C14 C -0.3212(10) -0.2954(10) 0.6774(4)
C15 C 0.1035(10) 0.7072(10) 0.5560(4)
C16 C -0.1230(15) 0.1084(12) 0.8247(4)
H11 H -0.0441(15) 0.0301(12) 0.8462(4)
N3 N 0.1502(10) 0.4195(8) 0.6053(3)
C17 C -0.2938(11) -0.2310(10) 0.7462(5)
C18 C -0.3145(13) 0.0524(11) 0.7987(5)
H12 H -0.3790(13) -0.0025(11) 0.8358(5)
H13 H -0.3908(13) 0.1483(11) 0.7858(5)
O1 O 0.2860(7) 0.3361(6) 0.8074(3)
N4 N -0.3109(10) -0.0577(8) 0.7406(4)
C19 C 0.1976(12) 0.3798(10) 0.6688(4)
H14 H 0.2157(12) 0.2710(10) 0.6824(4)
N5 N 0.2187(8) 0.5072(7) 0.7138(3)
C20 C -0.3529(11) -0.0112(12) 0.6736(5)
O2 O 0.3096(9) 0.7115(7) 0.8728(3)
O3 O 0.2332(8) 0.5059(7) 0.9438(3)
N6 N 0.0611(8) 0.6728(8) 0.4916(3)
H15 H 0.0358(8) 0.7509(8) 0.4629(3)
H16 H 0.0585(8) 0.5721(8) 0.4780(3)
O4 O -0.3796(11) 0.1262(7) 0.6542(4)
O5 O -0.2621(8) -0.2991(8) 0.8008(3)
C21 C 0.3000(12) 0.6753(10) 0.9424(4)
C22 C 0.1542(18) 0.7830(13) 0.9767(5)
H17 H 0.1507(18) 0.7553(13) 1.0246(5)
H18 H 0.0289(18) 0.7656(13) 0.9555(5)
H19 H 0.1901(18) 0.8964(13) 0.9719(5)
C23 C 0.4941(16) 0.6804(14) 0.9760(5)
H20 H 0.4844(16) 0.6552(14) 1.0239(5)
H21 H 0.5481(16) 0.7884(14) 0.9710(5)
H22 H 0.5758(16) 0.6009(14) 0.9549(5)
loop_
_geom_bond_atom_site_label_1
_geom_bond_atom_site_label_2
_geom_bond_site_symmetry_1
_geom_bond_site_symmetry_2
N1 C5 1_555 1_555
C1 H1 1_555 1_555
C2 C4 1_555 1_555
C3 C1 1_555 1_555
H2 C3 1_555 1_555
C4 H3 1_555 1_555
C5 H4 1_555 1_555
N2 C5 1_555 1_555
C6 C3 1_555 1_555
H5 C6 1_555 1_555
C7 C4 1_555 1_555
H6 C7 1_555 1_555
C8 N2 1_555 1_555
C9 C6 1_555 1_555
H7 C9 1_555 1_555
C10 C7 1_555 1_555
H8 C10 1_555 1_555
C11 C8 1_555 1_555
C12 C10 1_555 1_555
H9 C12 1_555 1_555
C13 C9 1_555 1_555
H10 C13 1_555 1_555
C14 C2 1_555 1_555
C15 N1 1_555 1_555
C16 C13 1_555 1_555
H11 C16 1_555 1_555
N3 C11 1_555 1_555
C17 C14 1_555 1_555
C18 C16 1_555 1_555
H12 C18 1_555 1_555
H13 C18 1_555 1_555
O1 C1 1_555 1_555
N4 C17 1_555 1_555
C19 N3 1_555 1_555
H14 C19 1_555 1_555
N5 C1 1_555 1_555
C20 C2 1_555 1_555
O2 C3 1_555 1_555
O3 C6 1_555 1_555
N6 C15 1_555 1_555
H15 N6 1_555 1_555
H16 N6 1_555 1_555
O4 C20 1_555 1_555
O5 C17 1_555 1_555
C21 O2 1_555 1_555
C22 C21 1_555 1_555
H17 C22 1_555 1_555
H18 C22 1_555 1_555
H19 C22 1_555 1_555
C23 C21 1_555 1_555
H20 C23 1_555 1_555
H21 C23 1_555 1_555
H22 C23 1_555 1_555
C8 N5 1_555 1_555
C9 O1 1_555 1_555
C11 C15 1_555 1_555
C12 C14 1_555 1_555
C18 N4 1_555 1_555
N4 C20 1_555 1_555
C19 N5 1_555 1_555
O3 C21 1_555 1_555

#END
