
#######################################################################
#
#                 Cambridge Crystallographic Data Centre
#                                CCDC 
#
#######################################################################
#
# If this CIF has been generated from an entry in the Cambridge 
# Structural Database, then it will include bibliographic, chemical, 
# crystal, experimental, refinement or atomic coordinate data resulting 
# from the CCDC's data processing and validation procedures.
#
#######################################################################

data_ADELUT
_chemical_formula_moiety         'C25 H12 F10 N2 O2'
_chemical_name_systematic        
(5-{2-[5-(2,3,4,5,6-pentafluorobenzene-1-carbonyl)-1H-pyrrol-3-yl]propan-2-yl}-1H-pyrrol-2-yl)(pentafluorophenyl)methanone
_symmetry_cell_setting           triclinic
_symmetry_space_group_name_H-M   'P -1'
_symmetry_Int_Tables_number      2
_space_group_name_Hall           '-P 1'
loop_
_symmetry_equiv_pos_site_id
_symmetry_equiv_pos_as_xyz
1 x,y,z
2 -x,-y,-z
_cell_length_a                   9.8387(3)
_cell_length_b                   9.9746(3)
_cell_length_c                   12.8952(3)
_cell_angle_alpha                72.828(2)
_cell_angle_beta                 74.855(2)
_cell_angle_gamma                68.577(3)
_cell_volume                     1108.68
_exptl_crystal_colour            colorless
_exptl_crystal_description       block
_cell_formula_units_Z            2
loop_
_atom_site_label
_atom_site_type_symbol
_atom_site_fract_x
_atom_site_fract_y
_atom_site_fract_z
F1 F 0.39963(12) 0.46025(11) -0.30548(8)
F2 F 0.33349(13) 0.60148(13) -0.50664(8)
F3 F 0.18422(12) 0.89515(13) -0.54867(8)
F4 F 0.12104(13) 1.05119(12) -0.39234(9)
F5 F 0.19025(12) 0.91339(11) -0.19137(8)
F6 F 0.15827(10) 0.04185(11) 0.23918(8)
F7 F 0.16361(11) -0.05287(12) 0.06504(8)
F8 F 0.42591(11) -0.20246(11) -0.04540(8)
F9 F 0.68235(11) -0.25790(11) 0.02328(8)
F10 F 0.68132(10) -0.15866(11) 0.19557(8)
O1 O 0.46669(12) 0.52168(13) -0.12533(9)
O2 O 0.49946(13) -0.09675(13) 0.39303(9)
N1 N 0.25197(14) 0.55660(14) 0.06974(10)
H1 H 0.3413 0.5150 0.0869
N2 N 0.36720(15) 0.19827(14) 0.41207(10)
H2 H 0.4156 0.1448 0.4666
C1 C 0.22144(17) 0.61167(17) -0.03617(12)
C2 C 0.06863(18) 0.66570(18) -0.02790(13)
H3 H 0.0152 0.7105 -0.0875
C3 C 0.00760(18) 0.64221(19) 0.08391(13)
H4 H -0.0951 0.6669 0.1142
C4 C 0.12358(17) 0.57635(17) 0.14321(12)
C5 C 0.11915(17) 0.53980(17) 0.26612(12)
C6 C 0.22713(17) 0.38970(17) 0.30407(12)
C7 C 0.28887(17) 0.34279(18) 0.39957(13)
H5 H 0.2775 0.4032 0.4480
C8 C 0.27355(17) 0.26604(17) 0.25791(12)
H6 H 0.2503 0.2637 0.1916
C9 C 0.35957(17) 0.14736(17) 0.32612(12)
C10 C 0.33682(17) 0.59813(17) -0.12952(12)
C11 C 0.29488(17) 0.68176(18) -0.24117(12)
C12 C 0.33303(18) 0.60655(18) -0.32475(13)
C13 C 0.2979(2) 0.6777(2) -0.42845(13)
C14 C 0.22369(19) 0.8267(2) -0.44984(13)
C15 C 0.18888(19) 0.90581(19) -0.36988(14)
C16 C 0.22449(19) 0.83261(19) -0.26659(13)
C17 C -0.03788(19) 0.5387(2) 0.32584(14)
H7 H -0.0404 0.5113 0.4057
H8 H -0.0647 0.4668 0.3039
H9 H -0.1086 0.6372 0.3060
C18 C 0.1555(2) 0.66092(18) 0.29504(14)
H10 H 0.2591 0.6552 0.2642
H11 H 0.1398 0.6464 0.3753
H12 H 0.0905 0.7581 0.2640
C19 C 0.42951(18) -0.00477(17) 0.32213(12)
C20 C 0.42051(18) -0.05472(16) 0.22463(12)
C21 C 0.29073(18) -0.02976(17) 0.18743(13)
C22 C 0.29091(18) -0.07974(18) 0.09806(13)
C23 C 0.42282(19) -0.15691(17) 0.04303(12)
C24 C 0.55349(18) -0.18509(17) 0.07814(13)
C25 C 0.55104(18) -0.13428(17) 0.16742(13)
loop_
_geom_bond_atom_site_label_1
_geom_bond_atom_site_label_2
_geom_bond_site_symmetry_1
_geom_bond_site_symmetry_2
F1 C12 1_555 1_555
F2 C13 1_555 1_555
F3 C14 1_555 1_555
F4 C15 1_555 1_555
F5 C16 1_555 1_555
F6 C21 1_555 1_555
F7 C22 1_555 1_555
F8 C23 1_555 1_555
F9 C24 1_555 1_555
F10 C25 1_555 1_555
O1 C10 1_555 1_555
O2 C19 1_555 1_555
N1 H1 1_555 1_555
N2 H2 1_555 1_555
C1 N1 1_555 1_555
C2 C1 1_555 1_555
H3 C2 1_555 1_555
C3 C2 1_555 1_555
H4 C3 1_555 1_555
C4 N1 1_555 1_555
C5 C4 1_555 1_555
C6 C5 1_555 1_555
C7 N2 1_555 1_555
H5 C7 1_555 1_555
C8 C6 1_555 1_555
H6 C8 1_555 1_555
C9 N2 1_555 1_555
C10 C1 1_555 1_555
C11 C10 1_555 1_555
C12 C11 1_555 1_555
C13 C12 1_555 1_555
C14 C13 1_555 1_555
C15 C14 1_555 1_555
C16 C11 1_555 1_555
C17 C5 1_555 1_555
H7 C17 1_555 1_555
H8 C17 1_555 1_555
H9 C17 1_555 1_555
C18 C5 1_555 1_555
H10 C18 1_555 1_555
H11 C18 1_555 1_555
H12 C18 1_555 1_555
C19 C9 1_555 1_555
C20 C19 1_555 1_555
C21 C20 1_555 1_555
C22 C21 1_555 1_555
C23 C22 1_555 1_555
C24 C23 1_555 1_555
C25 C20 1_555 1_555
C3 C4 1_555 1_555
C6 C7 1_555 1_555
C8 C9 1_555 1_555
C15 C16 1_555 1_555
C24 C25 1_555 1_555

#END
