
#######################################################################
#
#                 Cambridge Crystallographic Data Centre
#                                CCDC 
#
#######################################################################
#
# If this CIF has been generated from an entry in the Cambridge 
# Structural Database, then it will include bibliographic, chemical, 
# crystal, experimental, refinement or atomic coordinate data resulting 
# from the CCDC's data processing and validation procedures.
#
#######################################################################

data_ADOQAO
_chemical_formula_moiety         '2(K1 1+),C74 H80 N4 O4 S2 2-,3(C2 H3 N1)'
_chemical_name_systematic        
"bis(potassium) (5,5'-([1^1^,2^1^:2^4^,3^1^-terphenyl]-1^4^,3^4^-diyl)bis(1,3-bis(2,6-di-isopropylphenyl)-6-oxo-2-sulfanylidene-1,2,3,6-tetrahydropyrimidin-4-olate)) acetonitrile solvate"
_symmetry_cell_setting           monoclinic
_symmetry_space_group_name_H-M   'P 21/c'
_symmetry_Int_Tables_number      14
_space_group_name_Hall           '-P 2ybc'
loop_
_symmetry_equiv_pos_site_id
_symmetry_equiv_pos_as_xyz
1 x,y,z
2 -x,1/2+y,1/2-z
3 -x,-y,-z
4 x,1/2-y,1/2+z
_cell_length_a                   12.3149(10)
_cell_length_b                   18.8123(16)
_cell_length_c                   18.4296(16)
_cell_angle_alpha                90
_cell_angle_beta                 109.037(3)
_cell_angle_gamma                90
_cell_volume                     4036.1
_exptl_crystal_colour            yellow
_exptl_crystal_description       block
_cell_formula_units_Z            2
loop_
_atom_site_label
_atom_site_type_symbol
_atom_site_fract_x
_atom_site_fract_y
_atom_site_fract_z
K1 K 0.68874(5) 0.26582(3) 0.50839(3)
S1 S 0.42108(5) 0.44905(3) 0.13169(3)
O1 O 0.58501(14) 0.31112(9) 0.36954(9)
O2 O 0.67480(16) 0.24337(9) 0.14913(9)
N1 N 0.55672(16) 0.33653(10) 0.14842(10)
N2 N 0.50227(16) 0.36493(10) 0.25396(10)
C1 C 0.49619(19) 0.38064(12) 0.18023(12)
C2 C 0.58025(19) 0.31392(11) 0.30137(12)
C3 C 0.64097(19) 0.27149(11) 0.26509(12)
C4 C 0.62799(19) 0.27929(12) 0.18699(12)
C5 C 0.71957(19) 0.21592(12) 0.31033(12)
C6 C 0.8054(2) 0.23279(12) 0.37934(13)
H1 H 0.8160 0.2809 0.3959
C7 C 0.87514(19) 0.18056(12) 0.42387(12)
H2 H 0.9323 0.1933 0.4707
C8 C 0.86293(18) 0.10928(12) 0.40100(12)
C9 C 0.77951(19) 0.09271(12) 0.33091(12)
H3 H 0.7707 0.0449 0.3134
C10 C 0.70953(19) 0.14509(12) 0.28672(12)
H4 H 0.6535 0.1325 0.2393
C11 C 0.93400(18) 0.05295(11) 0.45052(12)
C12 C 1.04440(19) 0.06716(12) 0.50027(13)
H5 H 1.0759 0.1133 0.5008
C13 C 1.10890(19) 0.01559(12) 0.54871(13)
H6 H 1.1837 0.0270 0.5821
C14 C 0.4318(2) 0.40505(13) 0.28874(13)
C15 C 0.3166(2) 0.38452(15) 0.27205(15)
C16 C 0.2509(3) 0.42340(19) 0.30730(17)
H7 H 0.1726 0.4112 0.2976
C17 C 0.2981(3) 0.4791(2) 0.35585(19)
H8 H 0.2522 0.5047 0.3795
C18 C 0.4110(3) 0.49814(17) 0.37049(17)
H9 H 0.4420 0.5368 0.4040
C19 C 0.4806(2) 0.46145(14) 0.33671(15)
C20 C 0.2645(2) 0.32513(16) 0.21553(17)
H10 H 0.2959 0.3301 0.1721
C21 C 0.2987(3) 0.25158(18) 0.2502(2)
H11 H 0.2681 0.2444 0.2925
H12 H 0.3827 0.2478 0.2696
H13 H 0.2675 0.2153 0.2107
C22 C 0.1341(3) 0.3283(2) 0.1811(2)
H14 H 0.1078 0.2937 0.1394
H15 H 0.1107 0.3762 0.1610
H16 H 0.0998 0.3173 0.2209
C23 C 0.6038(3) 0.48501(15) 0.35126(17)
H17 H 0.6403 0.4503 0.3253
C24 C 0.6725(4) 0.4842(2) 0.4370(2)
H18 H 0.6366 0.5163 0.4643
H19 H 0.7514 0.4998 0.4446
H20 H 0.6737 0.4358 0.4570
C25 C 0.6085(4) 0.55793(19) 0.3167(2)
H21 H 0.5658 0.5568 0.2616
H22 H 0.6887 0.5707 0.3246
H23 H 0.5742 0.5933 0.3417
C26 C 0.5540(2) 0.35069(12) 0.07082(12)
C27 C 0.4696(2) 0.31735(14) 0.01045(14)
C28 C 0.4719(3) 0.33067(16) -0.06363(14)
H24 H 0.4150 0.3099 -0.1063
C29 C 0.5554(3) 0.37350(15) -0.07625(15)
H25 H 0.5561 0.3811 -0.1271
C30 C 0.6373(2) 0.40522(15) -0.01533(16)
H26 H 0.6941 0.4346 -0.0247
C31 C 0.6385(2) 0.39488(13) 0.06009(14)
C32 C 0.3801(2) 0.26839(16) 0.02313(16)
H27 H 0.3887 0.2695 0.0790
C33 C 0.2592(3) 0.2940(2) -0.0219(3)
H28 H 0.2534 0.3452 -0.0137
H29 H 0.2031 0.2686 -0.0042
H30 H 0.2435 0.2848 -0.0767
C34 C 0.3986(3) 0.19159(18) 0.0017(2)
H31 H 0.3982 0.1900 -0.0515
H32 H 0.3367 0.1615 0.0070
H33 H 0.4726 0.1742 0.0359
C35 C 0.7290(2) 0.43118(14) 0.12612(16)
H34 H 0.7107 0.4212 0.1741
C36 C 0.7267(3) 0.51161(17) 0.1150(2)
H35 H 0.7445 0.5229 0.0682
H36 H 0.7839 0.5338 0.1593
H37 H 0.6502 0.5298 0.1104
C37 C 0.8476(3) 0.4004(2) 0.1360(2)
H38 H 0.8480 0.3495 0.1476
H39 H 0.9052 0.4248 0.1783
H40 H 0.8658 0.4071 0.0885
S1B S 1.57892(5) -0.44905(3) 0.86831(3)
O1B O 1.41499(14) -0.31112(9) 0.63046(9)
O2B O 1.32520(16) -0.24337(9) 0.85087(9)
N1B N 1.44328(16) -0.33653(10) 0.85158(10)
N2B N 1.49773(16) -0.36493(10) 0.74604(10)
C1B C 1.50381(19) -0.38064(12) 0.81977(12)
C2B C 1.41975(19) -0.31392(11) 0.69863(12)
C3B C 1.35903(19) -0.27149(11) 0.73491(12)
C4B C 1.37201(19) -0.27929(12) 0.81301(12)
C5B C 1.28043(19) -0.21592(12) 0.68967(12)
C6B C 1.1946(2) -0.23279(12) 0.62066(13)
H1B H 1.1840 -0.2809 0.6041
C7B C 1.12486(19) -0.18056(12) 0.57613(12)
H2B H 1.0677 -0.1933 0.5293
C8B C 1.13707(18) -0.10928(12) 0.59900(12)
C9B C 1.22049(19) -0.09271(12) 0.66909(12)
H3B H 1.2293 -0.0449 0.6866
C10B C 1.29047(19) -0.14509(12) 0.71328(12)
H4B H 1.3465 -0.1325 0.7607
C11B C 1.06600(18) -0.05295(11) 0.54948(12)
C12B C 0.95560(19) -0.06716(12) 0.49973(13)
H5B H 0.9241 -0.1133 0.4992
C13B C 0.89110(19) -0.01559(12) 0.45129(13)
H6B H 0.8163 -0.0270 0.4179
C14B C 1.5682(2) -0.40505(13) 0.71126(13)
C15B C 1.6834(2) -0.38452(15) 0.72795(15)
C16B C 1.7491(3) -0.42340(19) 0.69270(17)
H7B H 1.8274 -0.4112 0.7024
C17B C 1.7019(3) -0.4791(2) 0.64415(19)
H8B H 1.7478 -0.5047 0.6205
C18B C 1.5890(3) -0.49814(17) 0.62951(17)
H9B H 1.5580 -0.5368 0.5960
C19B C 1.5194(2) -0.46145(14) 0.66329(15)
C20B C 1.7355(2) -0.32513(16) 0.78447(17)
H10B H 1.7041 -0.3301 0.8279
C21B C 1.7013(3) -0.25158(18) 0.7498(2)
H11B H 1.7319 -0.2444 0.7075
H12B H 1.6173 -0.2478 0.7304
H13B H 1.7325 -0.2153 0.7893
C22B C 1.8659(3) -0.3283(2) 0.8189(2)
H14B H 1.8922 -0.2937 0.8606
H15B H 1.8893 -0.3762 0.8390
H16B H 1.9002 -0.3173 0.7791
C23B C 1.3962(3) -0.48501(15) 0.64874(17)
H17B H 1.3597 -0.4503 0.6747
C24B C 1.3275(4) -0.4842(2) 0.5630(2)
H18B H 1.3634 -0.5163 0.5357
H19B H 1.2486 -0.4998 0.5554
H20B H 1.3263 -0.4358 0.5430
C25B C 1.3915(4) -0.55793(19) 0.6833(2)
H21B H 1.4342 -0.5568 0.7384
H22B H 1.3113 -0.5707 0.6754
H23B H 1.4258 -0.5933 0.6583
C26B C 1.4460(2) -0.35069(12) 0.92918(12)
C27B C 1.5304(2) -0.31735(14) 0.98955(14)
C28B C 1.5281(3) -0.33067(16) 1.06363(14)
H24B H 1.5850 -0.3099 1.1063
C29B C 1.4446(3) -0.37350(15) 1.07625(15)
H25B H 1.4439 -0.3811 1.1271
C30B C 1.3627(2) -0.40522(15) 1.01533(16)
H26B H 1.3059 -0.4346 1.0247
C31B C 1.3615(2) -0.39488(13) 0.93991(14)
C32B C 1.6199(2) -0.26839(16) 0.97687(16)
H27B H 1.6113 -0.2695 0.9210
C33B C 1.7408(3) -0.2940(2) 1.0219(3)
H28B H 1.7466 -0.3452 1.0137
H29B H 1.7969 -0.2686 1.0042
H30B H 1.7565 -0.2848 1.0767
C34B C 1.6014(3) -0.19159(18) 0.9983(2)
H31B H 1.6018 -0.1900 1.0515
H32B H 1.6633 -0.1615 0.9930
H33B H 1.5274 -0.1742 0.9641
C35B C 1.2710(2) -0.43118(14) 0.87388(16)
H34B H 1.2893 -0.4212 0.8259
C36B C 1.2733(3) -0.51161(17) 0.8850(2)
H35B H 1.2555 -0.5229 0.9318
H36B H 1.2161 -0.5338 0.8407
H37B H 1.3498 -0.5298 0.8896
C37B C 1.1524(3) -0.4004(2) 0.8640(2)
H38B H 1.1520 -0.3495 0.8524
H39B H 1.0948 -0.4248 0.8217
H40B H 1.1342 -0.4071 0.9115
N3 N 0.8983(5) 0.3272(3) 0.5851(4)
C38 C 0.9299(5) 0.3328(4) 0.6513(5)
C39 C 0.9671(5) 0.3350(5) 0.7354(4)
H41 H 0.9000 0.3303 0.7526
H42 H 1.0056 0.3803 0.7535
H43 H 1.0205 0.2958 0.7564
loop_
_geom_bond_atom_site_label_1
_geom_bond_atom_site_label_2
_geom_bond_site_symmetry_1
_geom_bond_site_symmetry_2
S1 C1 1_555 1_555
O1 C2 1_555 1_555
O2 C4 1_555 1_555
N1 C1 1_555 1_555
N2 C1 1_555 1_555
C2 N2 1_555 1_555
C3 C2 1_555 1_555
C4 N1 1_555 1_555
C5 C3 1_555 1_555
C6 C5 1_555 1_555
H1 C6 1_555 1_555
C7 C6 1_555 1_555
H2 C7 1_555 1_555
C8 C7 1_555 1_555
C9 C8 1_555 1_555
H3 C9 1_555 1_555
C10 C5 1_555 1_555
H4 C10 1_555 1_555
C11 C8 1_555 1_555
C12 C11 1_555 1_555
H5 C12 1_555 1_555
C13 C12 1_555 1_555
H6 C13 1_555 1_555
C14 N2 1_555 1_555
C15 C14 1_555 1_555
C16 C15 1_555 1_555
H7 C16 1_555 1_555
C17 C16 1_555 1_555
H8 C17 1_555 1_555
C18 C17 1_555 1_555
H9 C18 1_555 1_555
C19 C14 1_555 1_555
C20 C15 1_555 1_555
H10 C20 1_555 1_555
C21 C20 1_555 1_555
H11 C21 1_555 1_555
H12 C21 1_555 1_555
H13 C21 1_555 1_555
C22 C20 1_555 1_555
H14 C22 1_555 1_555
H15 C22 1_555 1_555
H16 C22 1_555 1_555
C23 C19 1_555 1_555
H17 C23 1_555 1_555
C24 C23 1_555 1_555
H18 C24 1_555 1_555
H19 C24 1_555 1_555
H20 C24 1_555 1_555
C25 C23 1_555 1_555
H21 C25 1_555 1_555
H22 C25 1_555 1_555
H23 C25 1_555 1_555
C26 N1 1_555 1_555
C27 C26 1_555 1_555
C28 C27 1_555 1_555
H24 C28 1_555 1_555
C29 C28 1_555 1_555
H25 C29 1_555 1_555
C30 C29 1_555 1_555
H26 C30 1_555 1_555
C31 C26 1_555 1_555
C32 C27 1_555 1_555
H27 C32 1_555 1_555
C33 C32 1_555 1_555
H28 C33 1_555 1_555
H29 C33 1_555 1_555
H30 C33 1_555 1_555
C34 C32 1_555 1_555
H31 C34 1_555 1_555
H32 C34 1_555 1_555
H33 C34 1_555 1_555
C35 C31 1_555 1_555
H34 C35 1_555 1_555
C36 C35 1_555 1_555
H35 C36 1_555 1_555
H36 C36 1_555 1_555
H37 C36 1_555 1_555
C37 C35 1_555 1_555
H38 C37 1_555 1_555
H39 C37 1_555 1_555
H40 C37 1_555 1_555
N3 C38 1_555 1_555
C38 C39 1_555 1_555
C39 H41 1_555 1_555
H42 C39 1_555 1_555
H43 C39 1_555 1_555
S1B C1B 1_555 1_555
O1B C2B 1_555 1_555
O2B C4B 1_555 1_555
N1B C1B 1_555 1_555
N2B C1B 1_555 1_555
C2B N2B 1_555 1_555
C3B C2B 1_555 1_555
C4B N1B 1_555 1_555
C5B C3B 1_555 1_555
C6B C5B 1_555 1_555
H1B C6B 1_555 1_555
C7B C6B 1_555 1_555
H2B C7B 1_555 1_555
C8B C7B 1_555 1_555
C9B C8B 1_555 1_555
H3B C9B 1_555 1_555
C10B C5B 1_555 1_555
H4B C10B 1_555 1_555
C11B C13 1_555 1_555
C12B C11B 1_555 1_555
H5B C12B 1_555 1_555
C13B C11 1_555 1_555
H6B C13B 1_555 1_555
C14B N2B 1_555 1_555
C15B C14B 1_555 1_555
C16B C15B 1_555 1_555
H7B C16B 1_555 1_555
C17B C16B 1_555 1_555
H8B C17B 1_555 1_555
C18B C17B 1_555 1_555
H9B C18B 1_555 1_555
C19B C14B 1_555 1_555
C20B C15B 1_555 1_555
H10B C20B 1_555 1_555
C21B C20B 1_555 1_555
H11B C21B 1_555 1_555
H12B C21B 1_555 1_555
H13B C21B 1_555 1_555
C22B C20B 1_555 1_555
H14B C22B 1_555 1_555
H15B C22B 1_555 1_555
H16B C22B 1_555 1_555
C23B C19B 1_555 1_555
H17B C23B 1_555 1_555
C24B C23B 1_555 1_555
H18B C24B 1_555 1_555
H19B C24B 1_555 1_555
H20B C24B 1_555 1_555
C25B C23B 1_555 1_555
H21B C25B 1_555 1_555
H22B C25B 1_555 1_555
H23B C25B 1_555 1_555
C26B N1B 1_555 1_555
C27B C26B 1_555 1_555
C28B C27B 1_555 1_555
H24B C28B 1_555 1_555
C29B C28B 1_555 1_555
H25B C29B 1_555 1_555
C30B C29B 1_555 1_555
H26B C30B 1_555 1_555
C31B C26B 1_555 1_555
C32B C27B 1_555 1_555
H27B C32B 1_555 1_555
C33B C32B 1_555 1_555
H28B C33B 1_555 1_555
H29B C33B 1_555 1_555
H30B C33B 1_555 1_555
C34B C32B 1_555 1_555
H31B C34B 1_555 1_555
H32B C34B 1_555 1_555
H33B C34B 1_555 1_555
C35B C31B 1_555 1_555
H34B C35B 1_555 1_555
C36B C35B 1_555 1_555
H35B C36B 1_555 1_555
H36B C36B 1_555 1_555
H37B C36B 1_555 1_555
C37B C35B 1_555 1_555
H38B C37B 1_555 1_555
H39B C37B 1_555 1_555
H40B C37B 1_555 1_555
C3 C4 1_555 1_555
C9 C10 1_555 1_555
C18 C19 1_555 1_555
C30 C31 1_555 1_555
C3B C4B 1_555 1_555
C8B C11B 1_555 1_555
C9B C10B 1_555 1_555
C12B C13B 1_555 1_555
C18B C19B 1_555 1_555
C30B C31B 1_555 1_555

#END
