
#######################################################################
#
#                 Cambridge Crystallographic Data Centre
#                                CCDC 
#
#######################################################################
#
# If this CIF has been generated from an entry in the Cambridge 
# Structural Database, then it will include bibliographic, chemical, 
# crystal, experimental, refinement or atomic coordinate data resulting 
# from the CCDC's data processing and validation procedures.
#
#######################################################################

data_ADOSIY
_chemical_formula_moiety         'C84 H84 B3 F6 N9,C60,C1 H2 Cl2,0.5(C6 H14)'
_chemical_name_systematic        
'(3,4,10,11,19,20,26,27,35,36,42,43-dodecaethyl-7,7,23,23,39,39-hexafluoro-50,52,54-triphenyl-6\l^5^,8,22\l^5^,24,38,40\l^5^,49,51,53-nonaaza-7\l^5^,23\l^5^,39\l^5^-triboratridecacyclo[43.3.1.1^5,9^.1^13,17^.1^21,25^.1^29,33^.1^37,41^.0^2,6^.0^8,12^.0^18,22^.0^24,28^.0^34,38^.0^40,44^]tetrapentaconta-1(49),2(6),3,5(54),9,11,13(53),14,16,18(22),19,21(52),25,27,29(51),30,32,34,36,40(44),41(50),42,45,47-tetracosaene) C60fullerene clathrate dichloromethane n-hexane solvate'
_symmetry_cell_setting           triclinic
_symmetry_space_group_name_H-M   'P -1'
_symmetry_Int_Tables_number      2
_space_group_name_Hall           '-P 1'
loop_
_symmetry_equiv_pos_site_id
_symmetry_equiv_pos_as_xyz
1 x,y,z
2 -x,-y,-z
_cell_length_a                   14.3058(6)
_cell_length_b                   14.5681(5)
_cell_length_c                   28.6607(12)
_cell_angle_alpha                89.927(3)
_cell_angle_beta                 79.223(4)
_cell_angle_gamma                64.790(4)
_cell_volume                     5288.21
_exptl_crystal_colour            red
_exptl_crystal_description       plate
_cell_formula_units_Z            2
_exptl_crystal_recrystallization_method dichloromethane/n-heptane/toluene
loop_
_atom_site_label
_atom_site_type_symbol
_atom_site_fract_x
_atom_site_fract_y
_atom_site_fract_z
F1A F 0.8403(3) -0.3368(3) 0.66572(12)
F2A F 0.9111(3) -0.2944(3) 0.59621(14)
F3A F 0.7291(2) -0.2099(2) 0.82083(10)
F4A F 0.7155(2) -0.0760(2) 0.86736(11)
F5A F 0.9918(2) -0.5546(2) 0.78266(11)
F6A F 1.1524(2) -0.6674(2) 0.79498(11)
N1A N 0.8544(4) -0.4276(4) 0.59194(16)
N2A N 0.7256(4) -0.2438(4) 0.61335(16)
N3A N 0.6167(4) -0.0850(3) 0.71837(16)
N4A N 0.5593(3) -0.0631(3) 0.84248(15)
N5A N 0.6353(3) -0.1809(3) 0.90288(15)
N6A N 0.8421(3) -0.4284(3) 0.90462(14)
N7A N 0.9989(3) -0.6663(3) 0.84602(15)
N8A N 1.0487(3) -0.7328(3) 0.76089(15)
N9A N 1.0031(4) -0.6263(3) 0.65355(15)
B1A B 0.8374(5) -0.3253(5) 0.6188(2)
B2A B 0.6656(4) -0.1353(4) 0.85669(19)
B3A B 1.0469(4) -0.6491(4) 0.7957(2)
C1A C 0.9300(5) -0.5220(5) 0.5930(2)
C2A C 0.9241(6) -0.5882(5) 0.5594(2)
C3A C 0.8438(6) -0.5324(5) 0.5364(2)
C4A C 0.7974(5) -0.4315(5) 0.5578(2)
C5A C 0.7085(5) -0.3446(5) 0.5512(2)
C6A C 0.6711(5) -0.2538(5) 0.5791(2)
C7A C 0.5787(5) -0.1587(5) 0.5819(2)
C8A C 0.5779(5) -0.0971(5) 0.6181(2)
C9A C 0.6679(5) -0.1508(4) 0.6375(2)
C10A C 0.6919(5) -0.1133(4) 0.67944(19)
C11A C 0.7865(5) -0.1026(4) 0.6768(2)
H1A H 0.839293 -0.123139 0.648354
C12A C 0.7990(4) -0.0611(4) 0.7170(2)
H2A H 0.860059 -0.049990 0.716144
C13A C 0.7230(4) -0.0356(4) 0.7589(2)
H3A H 0.732188 -0.009613 0.787212
C14A C 0.6328(4) -0.0494(4) 0.75782(18)
C15A C 0.5463(4) -0.0234(4) 0.80037(18)
C16A C 0.4385(4) 0.0455(4) 0.80399(18)
C17A C 0.3850(4) 0.0502(3) 0.85013(19)
C18A C 0.4600(4) -0.0218(4) 0.87470(18)
C19A C 0.4509(4) -0.0614(4) 0.91744(18)
C20A C 0.5347(4) -0.1422(3) 0.93237(17)
C21A C 0.5367(4) -0.2015(4) 0.97190(17)
C22A C 0.6398(4) -0.2779(4) 0.96535(17)
C23A C 0.6988(4) -0.2625(4) 0.92315(17)
C24A C 0.8127(4) -0.3290(4) 0.90248(17)
C25A C 0.8830(4) -0.2901(4) 0.88265(18)
H4A H 0.859545 -0.218920 0.880605
C26A C 0.9893(4) -0.3577(4) 0.86566(19)
H5A H 1.039654 -0.332702 0.853532
C27A C 1.0193(4) -0.4598(4) 0.86679(19)
H6A H 1.090386 -0.507201 0.854577
C28A C 0.9444(4) -0.4929(4) 0.88605(17)
C29A C 0.9652(4) -0.6014(4) 0.88653(18)
C30A C 0.9437(4) -0.6514(4) 0.92752(19)
C31A C 0.9594(4) -0.7463(4) 0.91032(19)
C32A C 0.9947(4) -0.7564(4) 0.85963(19)
C33A C 1.0173(4) -0.8339(4) 0.82417(19)
C34A C 1.0412(4) -0.8225(4) 0.77560(19)
C35A C 1.0548(4) -0.8843(4) 0.73359(19)
C36A C 1.0667(5) -0.8310(4) 0.6951(2)
C37A C 1.0634(4) -0.7383(4) 0.71287(19)
C38A C 1.0700(4) -0.6568(4) 0.68361(19)
C39A C 1.1414(4) -0.6155(4) 0.6876(2)
H7A H 1.187275 -0.638704 0.709507
C40A C 1.1423(5) -0.5401(5) 0.6585(2)
H8A H 1.191025 -0.512043 0.659419
C41A C 1.0716(5) -0.5050(4) 0.6279(2)
H9A H 1.069257 -0.451117 0.608701
C42A C 1.0042(5) -0.5514(4) 0.6262(2)
C43A C 0.9954(10) -0.7001(11) 0.5480(6)
H10A H 1.000998 -0.733964 0.577960
H11A H 0.964031 -0.730588 0.528348
C44A C 1.1052(11) -0.7192(12) 0.5212(6)
H12A H 1.136478 -0.688976 0.540487
H13A H 1.149519 -0.792719 0.515079
H14A H 1.100304 -0.688241 0.490865
C45A C 0.8144(7) -0.5792(6) 0.4978(3)
H15A H 0.772850 -0.525251 0.479055
H16A H 0.879151 -0.628028 0.475964
C46A C 0.7478(7) -0.6355(7) 0.5209(4)
H17A H 0.675097 -0.585463 0.533762
H18A H 0.747882 -0.682932 0.496667
H19A H 0.778723 -0.673293 0.546706
C47A C 0.6475(6) -0.3515(5) 0.5152(2)
C48A C 0.6692(8) -0.3265(7) 0.4683(3)
H20A H 0.724340 -0.306619 0.457876
C49A C 0.6054(9) -0.3322(8) 0.4374(3)
H21A H 0.618158 -0.315557 0.405545
C50A C 0.5268(8) -0.3604(8) 0.4517(3)
H22A H 0.486092 -0.364240 0.429768
C51A C 0.5061(7) -0.3827(7) 0.4962(3)
H23A H 0.448662 -0.399534 0.506333
C52A C 0.5683(6) -0.3817(6) 0.5285(3)
H24A H 0.555560 -0.402023 0.559668
C53A C 0.4818(13) -0.1361(12) 0.5608(5)
H25A H 0.447666 -0.062585 0.556249
H26A H 0.504266 -0.174453 0.529057
C54A C 0.3982(10) -0.1662(12) 0.5939(5)
H27A H 0.434208 -0.235921 0.602570
H28A H 0.365494 -0.119231 0.622928
H29A H 0.343636 -0.161787 0.576683
C55A C 0.4986(6) 0.0131(6) 0.6347(3)
H30A H 0.470853 0.017924 0.669399
H31A H 0.438471 0.031525 0.618506
C56A C 0.5431(9) 0.0870(6) 0.6253(3)
H32A H 0.565682 0.086727 0.590829
H33A H 0.489431 0.155150 0.638365
H34A H 0.604019 0.068314 0.640454
C57A C 0.3899(4) 0.1036(4) 0.7648(2)
H35A H 0.342841 0.175209 0.777137
H36A H 0.446287 0.103611 0.738758
C58A C 0.3268(5) 0.0564(5) 0.7451(2)
H37A H 0.267947 0.060873 0.770271
H38A H 0.299263 0.093244 0.718416
H39A H 0.372766 -0.015218 0.734021
C59A C 0.2721(4) 0.1245(4) 0.8697(2)
H40A H 0.233354 0.142353 0.843308
H41A H 0.238445 0.091357 0.892811
C60A C 0.2625(4) 0.2218(4) 0.8943(2)
H42A H 0.300876 0.251856 0.872469
H43A H 0.187935 0.270318 0.903327
H44A H 0.292703 0.205642 0.922944
C61A C 0.3424(4) -0.0221(3) 0.94902(17)
C62A C 0.2719(4) -0.0592(4) 0.94022(19)
H45A H 0.292660 -0.109236 0.914373
C63A C 0.1720(4) -0.0242(4) 0.96866(19)
H46A H 0.124898 -0.051080 0.962805
C64A C 0.1409(4) 0.0503(5) 1.0057(2)
H47A H 0.071574 0.076212 1.024772
C65A C 0.2109(4) 0.0870(4) 1.0149(2)
H48A H 0.190102 0.136366 1.041024
C66A C 0.3113(4) 0.0524(4) 0.98638(18)
H49A H 0.358278 0.079356 0.992330
C67A C 0.4510(4) -0.1904(4) 1.01345(19)
H50A H 0.382053 -0.157365 1.003707
H51A H 0.460744 -0.259004 1.022575
C68A C 0.4486(4) -0.1281(4) 1.05672(19)
H52A H 0.438541 -0.059880 1.048032
H53A H 0.390221 -0.122384 1.082493
H54A H 0.515466 -0.161843 1.067437
C69A C 0.6779(4) -0.3582(4) 0.99912(17)
H55A H 0.754595 -0.380900 0.996665
H56A H 0.641863 -0.328167 1.032157
C70A C 0.6577(4) -0.4517(4) 0.98916(19)
H57A H 0.700748 -0.487300 0.958203
H58A H 0.676602 -0.497920 1.014250
H59A H 0.582811 -0.429131 0.988698
C71A C 0.9187(5) -0.6086(4) 0.9778(2)
H60A H 0.877369 -0.533763 0.979807
H61A H 0.875067 -0.636969 0.998000
C72A C 1.0213(5) -0.6343(5) 0.9966(2)
H62A H 1.062638 -0.602990 0.977740
H63A H 1.002880 -0.607793 1.030131
H64A H 1.063090 -0.708349 0.993891
C73A C 0.9285(4) -0.8149(4) 0.9424(2)
H65A H 0.966046 -0.885816 0.927579
H66A H 0.949830 -0.813137 0.973229
C74A C 0.8089(5) -0.7814(5) 0.9514(3)
H67A H 0.789176 -0.791784 0.921527
H68A H 0.789521 -0.821848 0.975240
H69A H 0.771645 -0.709095 0.962990
C75A C 1.0118(4) -0.9293(4) 0.84008(19)
C76A C 0.9178(4) -0.9392(4) 0.8480(2)
H70A H 0.855939 -0.885909 0.841195
C77A C 0.9138(5) -1.0259(4) 0.8656(2)
H71A H 0.849267 -1.032110 0.871078
C78A C 1.0041(5) -1.1041(4) 0.8752(2)
H72A H 1.001161 -1.163622 0.887456
C79A C 1.0973(5) -1.0959(4) 0.8673(2)
H73A H 1.158482 -1.149621 0.874375
C80A C 1.1037(4) -1.0101(4) 0.84886(19)
H74A H 1.169293 -1.005919 0.842279
C81A C 1.0536(5) -0.9861(4) 0.7303(2)
H75A H 1.012977 -0.994539 0.760558
H76A H 1.017353 -0.989010 0.704468
C82A C 1.1634(6) -1.0726(5) 0.7204(2)
H77A H 1.199231 -1.070811 0.746100
H78A H 1.158636 -1.137584 0.718562
H79A H 1.203495 -1.065465 0.690011
C83A C 1.0867(6) -0.8656(5) 0.6438(2)
H80A H 1.034385 -0.812433 0.628496
H81A H 1.075857 -0.928049 0.641449
C84A C 1.1946(8) -0.8872(7) 0.6172(3)
H82A H 1.246971 -0.936338 0.633376
H83A H 1.204818 -0.915563 0.584683
H84A H 1.203125 -0.823900 0.616084
C89 C 0.2346(5) 0.4863(5) 0.2789(3)
C90 C 0.1927(4) 0.5745(5) 0.2556(2)
C91 C 0.2123(6) 0.5736(8) 0.2052(3)
C92 C 0.2660(7) 0.4921(8) 0.1775(3)
C93 C 0.3038(6) 0.4009(6) 0.1976(3)
C94 C 0.2954(5) 0.3905(5) 0.2467(3)
C95 C 0.2793(5) 0.4851(6) 0.3189(3)
C96 C 0.2810(6) 0.5682(7) 0.3367(3)
C97 C 0.2390(5) 0.6616(5) 0.3152(3)
C98 C 0.1942(5) 0.6639(5) 0.2741(3)
C99 C 0.2166(5) 0.7232(4) 0.2370(2)
C100 C 0.2307(6) 0.6737(6) 0.1913(3)
C101 C 0.3025(7) 0.6712(7) 0.1529(3)
C102 C 0.3622(8) 0.5731(8) 0.1223(3)
C103 C 0.3416(6) 0.4966(7) 0.1337(3)
C104 C 0.4291(7) 0.3934(7) 0.1290(3)
C105 C 0.4075(7) 0.3363(6) 0.1674(3)
C106 C 0.4920(7) 0.2706(5) 0.1866(3)
C107 C 0.4765(6) 0.2652(5) 0.2384(4)
C108 C 0.3822(6) 0.3238(6) 0.2667(3)
C109 C 0.3771(8) 0.3757(7) 0.3118(3)
C110 C 0.4600(9) 0.3709(7) 0.3277(3)
C111 C 0.4638(9) 0.4603(7) 0.3470(3)
C112 C 0.3822(6) 0.5584(6) 0.3518(2)
C113 C 0.3982(6) 0.6444(6) 0.3404(2)
C114 C 0.3082(6) 0.7097(6) 0.3187(3)
C115 C 0.3271(7) 0.7646(5) 0.2829(3)
C116 C 0.2783(5) 0.7718(4) 0.2422(3)
C117 C 0.3551(5) 0.7698(5) 0.2002(3)
C118 C 0.3651(7) 0.7187(6) 0.1568(3)
C119 C 0.4716(9) 0.6517(6) 0.1266(3)
C120 C 0.4687(8) 0.5633(6) 0.1059(2)
C121 C 0.5486(6) 0.4698(6) 0.1014(2)
C122 C 0.5337(6) 0.3800(6) 0.1128(2)
C123 C 0.6228(7) 0.3144(5) 0.1357(3)
C124 C 0.6038(7) 0.2607(5) 0.1715(3)
C125 C 0.6518(5) 0.2531(4) 0.2117(2)
C126 C 0.5743(6) 0.2546(4) 0.2543(3)
C127 C 0.5683(8) 0.3059(6) 0.2963(3)
C128 C 0.6303(8) 0.3548(7) 0.2995(3)
C129 C 0.5685(8) 0.4516(7) 0.3306(3)
C130 C 0.5885(6) 0.5318(8) 0.3200(3)
C131 C 0.5003(7) 0.6339(7) 0.3238(3)
C132 C 0.5202(7) 0.6906(7) 0.2861(3)
C133 C 0.4384(7) 0.7544(5) 0.2663(3)
C134 C 0.4526(6) 0.7593(5) 0.2144(3)
C135 C 0.5495(6) 0.6993(6) 0.1857(3)
C136 C 0.5546(7) 0.6447(7) 0.1403(3)
C137 C 0.6499(5) 0.5411(6) 0.1334(3)
C138 C 0.6478(6) 0.4556(6) 0.1163(3)
C139 C 0.6926(5) 0.3637(5) 0.1388(2)
C140 C 0.7368(4) 0.3595(5) 0.1795(3)
C141 C 0.7156(4) 0.3010(4) 0.2172(2)
C142 C 0.7012(6) 0.3513(6) 0.2624(3)
C143 C 0.7217(6) 0.4497(8) 0.2478(3)
C144 C 0.6679(7) 0.5306(8) 0.2745(3)
C145 C 0.6248(6) 0.6270(6) 0.2549(3)
C146 C 0.6352(5) 0.6339(5) 0.2047(3)
C147 C 0.6949(5) 0.5404(5) 0.1739(2)
C148 C 0.7379(4) 0.4500(5) 0.1975(2)
Cl1 Cl -0.0696(2) 0.27854(18) 0.32686(10)
Cl2 Cl 0.00404(16) 0.20922(14) 0.22555(8)
C149 C -0.0017(9) 0.2941(6) 0.2713(4)
H95 H -0.038185 0.365061 0.263222
H96 H 0.070926 0.281346 0.273713
F1 F 0.1597(3) 0.3368(3) 0.33428(12)
F2 F 0.0889(3) 0.2944(3) 0.40379(14)
F3 F 0.2709(2) 0.2099(2) 0.17917(10)
F4 F 0.2845(2) 0.0760(2) 0.13264(11)
F5 F 0.0082(2) 0.5546(2) 0.21734(11)
F6 F -0.1524(2) 0.6674(2) 0.20502(11)
N1 N 0.1456(4) 0.4276(4) 0.40806(16)
N2 N 0.2744(4) 0.2438(4) 0.38665(16)
N3 N 0.3833(4) 0.0850(3) 0.28163(16)
N4 N 0.4407(3) 0.0631(3) 0.15752(15)
N5 N 0.3647(3) 0.1809(3) 0.09712(15)
N6 N 0.1579(3) 0.4284(3) 0.09538(14)
N7 N 0.0011(3) 0.6663(3) 0.15398(15)
N8 N -0.0487(3) 0.7328(3) 0.23911(15)
N9 N -0.0031(4) 0.6263(3) 0.34645(15)
B1 B 0.1626(5) 0.3253(5) 0.3812(2)
B2 B 0.3344(4) 0.1353(4) 0.14331(19)
B3 B -0.0469(4) 0.6491(4) 0.2043(2)
C1 C 0.0700(5) 0.5220(5) 0.4070(2)
C2 C 0.0759(6) 0.5882(5) 0.4406(2)
C3 C 0.1562(6) 0.5324(5) 0.4636(2)
C4 C 0.2026(5) 0.4315(5) 0.4422(2)
C5 C 0.2915(5) 0.3446(5) 0.4488(2)
C6 C 0.3289(5) 0.2538(5) 0.4209(2)
C7 C 0.4213(5) 0.1587(5) 0.4181(2)
C8 C 0.4221(5) 0.0971(5) 0.3819(2)
C9 C 0.3321(5) 0.1508(4) 0.3625(2)
C10 C 0.3081(5) 0.1133(4) 0.32056(19)
C11 C 0.2135(5) 0.1026(4) 0.3232(2)
H1 H 0.160707 0.123139 0.351646
C12 C 0.2010(4) 0.0611(4) 0.2830(2)
H2 H 0.139941 0.049990 0.283856
C13 C 0.2770(4) 0.0356(4) 0.2411(2)
H3 H 0.267812 0.009613 0.212788
C14 C 0.3672(4) 0.0494(4) 0.24218(18)
C15 C 0.4537(4) 0.0234(4) 0.19963(18)
C16 C 0.5615(4) -0.0455(4) 0.19601(18)
C17 C 0.6150(4) -0.0502(3) 0.14987(19)
C18 C 0.5400(4) 0.0218(4) 0.12530(18)
C19 C 0.5491(4) 0.0614(4) 0.08256(18)
C20 C 0.4653(4) 0.1422(3) 0.06763(17)
C21 C 0.4633(4) 0.2015(4) 0.02810(17)
C22 C 0.3602(4) 0.2779(4) 0.03465(17)
C23 C 0.3012(4) 0.2625(4) 0.07685(17)
C24 C 0.1873(4) 0.3290(4) 0.09752(17)
C25 C 0.1170(4) 0.2901(4) 0.11735(18)
H4 H 0.140455 0.218920 0.119395
C26 C 0.0107(4) 0.3577(4) 0.13434(19)
H5 H -0.039654 0.332702 0.146468
C27 C -0.0193(4) 0.4598(4) 0.13321(19)
H6 H -0.090386 0.507201 0.145423
C28 C 0.0556(4) 0.4929(4) 0.11395(17)
C29 C 0.0348(4) 0.6014(4) 0.11347(18)
C30 C 0.0563(4) 0.6514(4) 0.07248(19)
C31 C 0.0406(4) 0.7463(4) 0.08968(19)
C32 C 0.0053(4) 0.7564(4) 0.14037(19)
C33 C -0.0173(4) 0.8339(4) 0.17583(19)
C34 C -0.0412(4) 0.8225(4) 0.22440(19)
C35 C -0.0548(4) 0.8843(4) 0.26641(19)
C36 C -0.0667(5) 0.8310(4) 0.3049(2)
C37 C -0.0634(4) 0.7383(4) 0.28713(19)
C38 C -0.0700(4) 0.6568(4) 0.31639(19)
C39 C -0.1414(4) 0.6155(4) 0.3124(2)
H7 H -0.187275 0.638704 0.290493
C40 C -0.1423(5) 0.5401(5) 0.3415(2)
H8 H -0.191025 0.512043 0.340581
C41 C -0.0716(5) 0.5050(4) 0.3721(2)
H9 H -0.069257 0.451117 0.391299
C42 C -0.0042(5) 0.5514(4) 0.3738(2)
C43 C 0.0046(10) 0.7001(11) 0.4520(6)
H10 H -0.000998 0.733964 0.422040
H11 H 0.035969 0.730588 0.471652
C44 C -0.1052(11) 0.7192(12) 0.4788(6)
H12 H -0.136478 0.688976 0.459513
H13 H -0.149519 0.792719 0.484921
H14 H -0.100304 0.688241 0.509135
C45 C 0.1856(7) 0.5792(6) 0.5022(3)
H15 H 0.227150 0.525251 0.520945
H16 H 0.120849 0.628028 0.524036
C46 C 0.2522(7) 0.6355(7) 0.4791(4)
H17 H 0.324903 0.585463 0.466238
H18 H 0.252118 0.682932 0.503333
H19 H 0.221277 0.673293 0.453294
C47 C 0.3525(6) 0.3515(5) 0.4848(2)
C48 C 0.3308(8) 0.3265(7) 0.5317(3)
H20 H 0.275660 0.306619 0.542124
C49 C 0.3946(9) 0.3322(8) 0.5626(3)
H21 H 0.381842 0.315557 0.594455
C50 C 0.4732(8) 0.3604(8) 0.5483(3)
H22 H 0.513908 0.364240 0.570232
C51 C 0.4939(7) 0.3827(7) 0.5038(3)
H23 H 0.551338 0.399534 0.493667
C52 C 0.4317(6) 0.3817(6) 0.4715(3)
H24 H 0.444440 0.402023 0.440332
C53 C 0.5182(13) 0.1361(12) 0.4392(5)
H25 H 0.552334 0.062585 0.443751
H26 H 0.495734 0.174453 0.470943
C54 C 0.6018(10) 0.1662(12) 0.4061(5)
H27 H 0.565792 0.235921 0.397430
H28 H 0.634506 0.119231 0.377072
H29 H 0.656364 0.161787 0.423317
C55 C 0.5014(6) -0.0131(6) 0.3653(3)
H30 H 0.529147 -0.017924 0.330601
H31 H 0.561529 -0.031525 0.381494
C56 C 0.4569(9) -0.0870(6) 0.3747(3)
H32 H 0.434318 -0.086727 0.409171
H33 H 0.510569 -0.155150 0.361635
H34 H 0.395981 -0.068314 0.359546
C57 C 0.6101(4) -0.1036(4) 0.2352(2)
H35 H 0.657159 -0.175209 0.222863
H36 H 0.553713 -0.103611 0.261242
C58 C 0.6732(5) -0.0564(5) 0.2549(2)
H37 H 0.732053 -0.060873 0.229729
H38 H 0.700737 -0.093244 0.281584
H39 H 0.627234 0.015218 0.265979
C59 C 0.7279(4) -0.1245(4) 0.1303(2)
H40 H 0.766646 -0.142353 0.156692
H41 H 0.761555 -0.091357 0.107189
C60 C 0.7375(4) -0.2218(4) 0.1057(2)
H42 H 0.699124 -0.251856 0.127531
H43 H 0.812065 -0.270318 0.096673
H44 H 0.707297 -0.205642 0.077056
C61 C 0.6576(4) 0.0221(3) 0.05098(17)
C62 C 0.7281(4) 0.0592(4) 0.05978(19)
H45 H 0.707340 0.109236 0.085627
C63 C 0.8280(4) 0.0242(4) 0.03134(19)
H46 H 0.875102 0.051080 0.037195
C64 C 0.8591(4) -0.0503(5) -0.0057(2)
H47 H 0.928426 -0.076212 -0.024772
C65 C 0.7891(4) -0.0870(4) -0.0149(2)
H48 H 0.809898 -0.136366 -0.041024
C66 C 0.6887(4) -0.0524(4) 0.01362(18)
H49 H 0.641722 -0.079356 0.007670
C67 C 0.5490(4) 0.1904(4) -0.01345(19)
H50 H 0.617947 0.157365 -0.003707
H51 H 0.539256 0.259004 -0.022575
C68 C 0.5514(4) 0.1281(4) -0.05672(19)
H52 H 0.561459 0.059880 -0.048032
H53 H 0.609779 0.122384 -0.082493
H54 H 0.484534 0.161843 -0.067437
C69 C 0.3221(4) 0.3582(4) 0.00088(17)
H55 H 0.245405 0.380900 0.003335
H56 H 0.358137 0.328167 -0.032157
C70 C 0.3423(4) 0.4517(4) 0.01084(19)
H57 H 0.299252 0.487300 0.041797
H58 H 0.323398 0.497920 -0.014250
H59 H 0.417189 0.429131 0.011302
C71 C 0.0813(5) 0.6086(4) 0.0222(2)
H60 H 0.122631 0.533763 0.020193
H61 H 0.124933 0.636969 0.002000
C72 C -0.0213(5) 0.6343(5) 0.0034(2)
H62 H -0.062638 0.602990 0.022260
H63 H -0.002880 0.607793 -0.030131
H64 H -0.063090 0.708349 0.006109
C73 C 0.0715(4) 0.8149(4) 0.0576(2)
H65 H 0.033954 0.885816 0.072421
H66 H 0.050170 0.813137 0.026771
C74 C 0.1911(5) 0.7814(5) 0.0486(3)
H67 H 0.210824 0.791784 0.078473
H68 H 0.210479 0.821848 0.024760
H69 H 0.228355 0.709095 0.037010
C75 C -0.0118(4) 0.9293(4) 0.15992(19)
C76 C 0.0822(4) 0.9392(4) 0.1520(2)
H70 H 0.144061 0.885909 0.158805
C77 C 0.0862(5) 1.0259(4) 0.1344(2)
H71 H 0.150733 1.032110 0.128922
C78 C -0.0041(5) 1.1041(4) 0.1248(2)
H72 H -0.001161 1.163622 0.112544
C79 C -0.0973(5) 1.0959(4) 0.1327(2)
H73 H -0.158482 1.149621 0.125625
C80 C -0.1037(4) 1.0101(4) 0.15114(19)
H74 H -0.169293 1.005919 0.157721
C81 C -0.0536(5) 0.9861(4) 0.2697(2)
H75 H -0.012977 0.994539 0.239442
H76 H -0.017353 0.989010 0.295532
C82 C -0.1634(6) 1.0726(5) 0.2796(2)
H77 H -0.199231 1.070811 0.253900
H78 H -0.158636 1.137584 0.281438
H79 H -0.203495 1.065465 0.309989
C83 C -0.0867(6) 0.8656(5) 0.3562(2)
H80 H -0.034385 0.812433 0.371504
H81 H -0.075857 0.928049 0.358551
C84 C -0.1946(8) 0.8872(7) 0.3828(3)
H82 H -0.246971 0.936338 0.366624
H83 H -0.204818 0.915563 0.415317
H84 H -0.203125 0.823900 0.383916
C85? C -0.027(3) 0.698(3) 0.4581(18)
H85? H -0.077948 0.712339 0.436806
H86? H -0.063219 0.697581 0.491098
C86? C 0.018(3) 0.775(2) 0.4553(11)
H87? H 0.094797 0.740557 0.444249
H88? H 0.001252 0.810605 0.487016
H89? H -0.012948 0.824933 0.433013
C87? C 0.4985(16) 0.1192(13) 0.4523(6)
H90? H 0.569822 0.077881 0.432817
H91? H 0.500627 0.178911 0.467676
C88? C 0.4779(13) 0.0581(10) 0.4901(5)
H92? H 0.531463 0.039746 0.508701
H93? H 0.409862 0.096646 0.510301
H94? H 0.479763 -0.002454 0.475902
loop_
_geom_bond_atom_site_label_1
_geom_bond_atom_site_label_2
_geom_bond_site_symmetry_1
_geom_bond_site_symmetry_2
F1 B1 1_555 1_555
F2 B1 1_555 1_555
F3 B2 1_555 1_555
F4 B2 1_555 1_555
F5 B3 1_555 1_555
F6 B3 1_555 1_555
N1 B1 1_555 1_555
N2 B1 1_555 1_555
N3 C10 1_555 1_555
N4 B2 1_555 1_555
N5 B2 1_555 1_555
N6 C24 1_555 1_555
N7 B3 1_555 1_555
N8 B3 1_555 1_555
N9 C38 1_555 1_555
C1 N1 1_555 1_555
C2 C1 1_555 1_555
C3 C2 1_555 1_555
C4 N1 1_555 1_555
C5 C4 1_555 1_555
C6 N2 1_555 1_555
C7 C6 1_555 1_555
C8 C7 1_555 1_555
C9 N2 1_555 1_555
C10 C9 1_555 1_555
C11 C10 1_555 1_555
H1 C11 1_555 1_555
C12 C11 1_555 1_555
H2 C12 1_555 1_555
C13 C12 1_555 1_555
H3 C13 1_555 1_555
C14 N3 1_555 1_555
C15 N4 1_555 1_555
C16 C15 1_555 1_555
C17 C16 1_555 1_555
C18 N4 1_555 1_555
C19 C18 1_555 1_555
C20 N5 1_555 1_555
C21 C20 1_555 1_555
C22 C21 1_555 1_555
C23 N5 1_555 1_555
C24 C23 1_555 1_555
C25 C24 1_555 1_555
H4 C25 1_555 1_555
C26 C25 1_555 1_555
H5 C26 1_555 1_555
C27 C26 1_555 1_555
H6 C27 1_555 1_555
C28 N6 1_555 1_555
C29 N7 1_555 1_555
C30 C29 1_555 1_555
C31 C30 1_555 1_555
C32 N7 1_555 1_555
C33 C32 1_555 1_555
C34 N8 1_555 1_555
C35 C34 1_555 1_555
C36 C35 1_555 1_555
C37 N8 1_555 1_555
C38 C37 1_555 1_555
C39 C38 1_555 1_555
H7 C39 1_555 1_555
C40 C39 1_555 1_555
H8 C40 1_555 1_555
C41 C40 1_555 1_555
H9 C41 1_555 1_555
C42 N9 1_555 1_555
C43 C2 1_555 1_555
H10 C43 1_555 1_555
H11 C43 1_555 1_555
C44 C43 1_555 1_555
H12 C44 1_555 1_555
H13 C44 1_555 1_555
H14 C44 1_555 1_555
C45 C3 1_555 1_555
H15 C45 1_555 1_555
H16 C45 1_555 1_555
C46 C45 1_555 1_555
H17 C46 1_555 1_555
H18 C46 1_555 1_555
H19 C46 1_555 1_555
C47 C5 1_555 1_555
C48 C47 1_555 1_555
H20 C48 1_555 1_555
C49 C48 1_555 1_555
H21 C49 1_555 1_555
C50 C49 1_555 1_555
H22 C50 1_555 1_555
C51 C50 1_555 1_555
H23 C51 1_555 1_555
C52 C47 1_555 1_555
H24 C52 1_555 1_555
C53 C7 1_555 1_555
H25 C53 1_555 1_555
H26 C53 1_555 1_555
C54 C53 1_555 1_555
H27 C54 1_555 1_555
H28 C54 1_555 1_555
H29 C54 1_555 1_555
C55 C8 1_555 1_555
H30 C55 1_555 1_555
H31 C55 1_555 1_555
C56 C55 1_555 1_555
H32 C56 1_555 1_555
H33 C56 1_555 1_555
H34 C56 1_555 1_555
C57 C16 1_555 1_555
H35 C57 1_555 1_555
H36 C57 1_555 1_555
C58 C57 1_555 1_555
H37 C58 1_555 1_555
H38 C58 1_555 1_555
H39 C58 1_555 1_555
C59 C17 1_555 1_555
H40 C59 1_555 1_555
H41 C59 1_555 1_555
C60 C59 1_555 1_555
H42 C60 1_555 1_555
H43 C60 1_555 1_555
H44 C60 1_555 1_555
C61 C19 1_555 1_555
C62 C61 1_555 1_555
H45 C62 1_555 1_555
C63 C62 1_555 1_555
H46 C63 1_555 1_555
C64 C63 1_555 1_555
H47 C64 1_555 1_555
C65 C64 1_555 1_555
H48 C65 1_555 1_555
C66 C61 1_555 1_555
H49 C66 1_555 1_555
C67 C21 1_555 1_555
H50 C67 1_555 1_555
H51 C67 1_555 1_555
C68 C67 1_555 1_555
H52 C68 1_555 1_555
H53 C68 1_555 1_555
H54 C68 1_555 1_555
C69 C22 1_555 1_555
H55 C69 1_555 1_555
H56 C69 1_555 1_555
C70 C69 1_555 1_555
H57 C70 1_555 1_555
H58 C70 1_555 1_555
H59 C70 1_555 1_555
C71 C30 1_555 1_555
H60 C71 1_555 1_555
H61 C71 1_555 1_555
C72 C71 1_555 1_555
H62 C72 1_555 1_555
H63 C72 1_555 1_555
H64 C72 1_555 1_555
C73 C31 1_555 1_555
H65 C73 1_555 1_555
H66 C73 1_555 1_555
C74 C73 1_555 1_555
H67 C74 1_555 1_555
H68 C74 1_555 1_555
H69 C74 1_555 1_555
C75 C33 1_555 1_555
C76 C75 1_555 1_555
H70 C76 1_555 1_555
C77 C76 1_555 1_555
H71 C77 1_555 1_555
C78 C77 1_555 1_555
H72 C78 1_555 1_555
C79 C78 1_555 1_555
H73 C79 1_555 1_555
C80 C75 1_555 1_555
H74 C80 1_555 1_555
C81 C35 1_555 1_555
H75 C81 1_555 1_555
H76 C81 1_555 1_555
C82 C81 1_555 1_555
H77 C82 1_555 1_555
H78 C82 1_555 1_555
H79 C82 1_555 1_555
C83 C36 1_555 1_555
H80 C83 1_555 1_555
H81 C83 1_555 1_555
C84 C83 1_555 1_555
H82 C84 1_555 1_555
H83 C84 1_555 1_555
H84 C84 1_555 1_555
C89 C90 1_555 1_555
C90 C91 1_555 1_555
C91 C92 1_555 1_555
C92 C93 1_555 1_555
C93 C94 1_555 1_555
C94 C89 1_555 1_555
C95 C89 1_555 1_555
C96 C95 1_555 1_555
C97 C96 1_555 1_555
C98 C90 1_555 1_555
C99 C98 1_555 1_555
C100 C91 1_555 1_555
C101 C100 1_555 1_555
C102 C101 1_555 1_555
C103 C92 1_555 1_555
C104 C103 1_555 1_555
C105 C93 1_555 1_555
C106 C105 1_555 1_555
C107 C106 1_555 1_555
C108 C94 1_555 1_555
C109 C95 1_555 1_555
C110 C109 1_555 1_555
C111 C110 1_555 1_555
C112 C96 1_555 1_555
C113 C112 1_555 1_555
C114 C97 1_555 1_555
C115 C114 1_555 1_555
C116 C99 1_555 1_555
C117 C116 1_555 1_555
C118 C101 1_555 1_555
C119 C118 1_555 1_555
C120 C102 1_555 1_555
C121 C120 1_555 1_555
C122 C104 1_555 1_555
C123 C122 1_555 1_555
C124 C106 1_555 1_555
C125 C124 1_555 1_555
C126 C107 1_555 1_555
C127 C110 1_555 1_555
C128 C127 1_555 1_555
C129 C111 1_555 1_555
C130 C129 1_555 1_555
C131 C113 1_555 1_555
C132 C131 1_555 1_555
C133 C115 1_555 1_555
C134 C117 1_555 1_555
C135 C134 1_555 1_555
C136 C119 1_555 1_555
C137 C136 1_555 1_555
C138 C121 1_555 1_555
C139 C123 1_555 1_555
C140 C139 1_555 1_555
C141 C125 1_555 1_555
C142 C128 1_555 1_555
C143 C142 1_555 1_555
C144 C130 1_555 1_555
C145 C132 1_555 1_555
C146 C135 1_555 1_555
C147 C137 1_555 1_555
C148 C140 1_555 1_555
Cl1 C149 1_555 1_555
Cl2 C149 1_555 1_555
C149 H95 1_555 1_555
H96 C149 1_555 1_555
F1A B1A 1_555 1_555
F2A B1A 1_555 1_555
F3A B2A 1_555 1_555
F4A B2A 1_555 1_555
F5A B3A 1_555 1_555
F6A B3A 1_555 1_555
N1A B1A 1_555 1_555
N2A B1A 1_555 1_555
N3A C10A 1_555 1_555
N4A B2A 1_555 1_555
N5A B2A 1_555 1_555
N6A C24A 1_555 1_555
N7A B3A 1_555 1_555
N8A B3A 1_555 1_555
N9A C38A 1_555 1_555
C1A N1A 1_555 1_555
C2A C1A 1_555 1_555
C3A C2A 1_555 1_555
C4A N1A 1_555 1_555
C5A C4A 1_555 1_555
C6A N2A 1_555 1_555
C7A C6A 1_555 1_555
C8A C7A 1_555 1_555
C9A N2A 1_555 1_555
C10A C9A 1_555 1_555
C11A C10A 1_555 1_555
H1A C11A 1_555 1_555
C12A C11A 1_555 1_555
H2A C12A 1_555 1_555
C13A C12A 1_555 1_555
H3A C13A 1_555 1_555
C14A N3A 1_555 1_555
C15A N4A 1_555 1_555
C16A C15A 1_555 1_555
C17A C16A 1_555 1_555
C18A N4A 1_555 1_555
C19A C18A 1_555 1_555
C20A N5A 1_555 1_555
C21A C20A 1_555 1_555
C22A C21A 1_555 1_555
C23A N5A 1_555 1_555
C24A C23A 1_555 1_555
C25A C24A 1_555 1_555
H4A C25A 1_555 1_555
C26A C25A 1_555 1_555
H5A C26A 1_555 1_555
C27A C26A 1_555 1_555
H6A C27A 1_555 1_555
C28A N6A 1_555 1_555
C29A N7A 1_555 1_555
C30A C29A 1_555 1_555
C31A C30A 1_555 1_555
C32A N7A 1_555 1_555
C33A C32A 1_555 1_555
C34A N8A 1_555 1_555
C35A C34A 1_555 1_555
C36A C35A 1_555 1_555
C37A N8A 1_555 1_555
C38A C37A 1_555 1_555
C39A C38A 1_555 1_555
H7A C39A 1_555 1_555
C40A C39A 1_555 1_555
H8A C40A 1_555 1_555
C41A C40A 1_555 1_555
H9A C41A 1_555 1_555
C42A N9A 1_555 1_555
C43A C2A 1_555 1_555
H10A C43A 1_555 1_555
H11A C43A 1_555 1_555
C44A C43A 1_555 1_555
H12A C44A 1_555 1_555
H13A C44A 1_555 1_555
H14A C44A 1_555 1_555
C45A C3A 1_555 1_555
H15A C45A 1_555 1_555
H16A C45A 1_555 1_555
C46A C45A 1_555 1_555
H17A C46A 1_555 1_555
H18A C46A 1_555 1_555
H19A C46A 1_555 1_555
C47A C5A 1_555 1_555
C48A C47A 1_555 1_555
H20A C48A 1_555 1_555
C49A C48A 1_555 1_555
H21A C49A 1_555 1_555
C50A C49A 1_555 1_555
H22A C50A 1_555 1_555
C51A C50A 1_555 1_555
H23A C51A 1_555 1_555
C52A C47A 1_555 1_555
H24A C52A 1_555 1_555
C53A C7A 1_555 1_555
H25A C53A 1_555 1_555
H26A C53A 1_555 1_555
C54A C53A 1_555 1_555
H27A C54A 1_555 1_555
H28A C54A 1_555 1_555
H29A C54A 1_555 1_555
C55A C8A 1_555 1_555
H30A C55A 1_555 1_555
H31A C55A 1_555 1_555
C56A C55A 1_555 1_555
H32A C56A 1_555 1_555
H33A C56A 1_555 1_555
H34A C56A 1_555 1_555
C57A C16A 1_555 1_555
H35A C57A 1_555 1_555
H36A C57A 1_555 1_555
C58A C57A 1_555 1_555
H37A C58A 1_555 1_555
H38A C58A 1_555 1_555
H39A C58A 1_555 1_555
C59A C17A 1_555 1_555
H40A C59A 1_555 1_555
H41A C59A 1_555 1_555
C60A C59A 1_555 1_555
H42A C60A 1_555 1_555
H43A C60A 1_555 1_555
H44A C60A 1_555 1_555
C61A C19A 1_555 1_555
C62A C61A 1_555 1_555
H45A C62A 1_555 1_555
C63A C62A 1_555 1_555
H46A C63A 1_555 1_555
C64A C63A 1_555 1_555
H47A C64A 1_555 1_555
C65A C64A 1_555 1_555
H48A C65A 1_555 1_555
C66A C61A 1_555 1_555
H49A C66A 1_555 1_555
C67A C21A 1_555 1_555
H50A C67A 1_555 1_555
H51A C67A 1_555 1_555
C68A C67A 1_555 1_555
H52A C68A 1_555 1_555
H53A C68A 1_555 1_555
H54A C68A 1_555 1_555
C69A C22A 1_555 1_555
H55A C69A 1_555 1_555
H56A C69A 1_555 1_555
C70A C69A 1_555 1_555
H57A C70A 1_555 1_555
H58A C70A 1_555 1_555
H59A C70A 1_555 1_555
C71A C30A 1_555 1_555
H60A C71A 1_555 1_555
H61A C71A 1_555 1_555
C72A C71A 1_555 1_555
H62A C72A 1_555 1_555
H63A C72A 1_555 1_555
H64A C72A 1_555 1_555
C73A C31A 1_555 1_555
H65A C73A 1_555 1_555
H66A C73A 1_555 1_555
C74A C73A 1_555 1_555
H67A C74A 1_555 1_555
H68A C74A 1_555 1_555
H69A C74A 1_555 1_555
C75A C33A 1_555 1_555
C76A C75A 1_555 1_555
H70A C76A 1_555 1_555
C77A C76A 1_555 1_555
H71A C77A 1_555 1_555
C78A C77A 1_555 1_555
H72A C78A 1_555 1_555
C79A C78A 1_555 1_555
H73A C79A 1_555 1_555
C80A C75A 1_555 1_555
H74A C80A 1_555 1_555
C81A C35A 1_555 1_555
H75A C81A 1_555 1_555
H76A C81A 1_555 1_555
C82A C81A 1_555 1_555
H77A C82A 1_555 1_555
H78A C82A 1_555 1_555
H79A C82A 1_555 1_555
C83A C36A 1_555 1_555
H80A C83A 1_555 1_555
H81A C83A 1_555 1_555
C84A C83A 1_555 1_555
H82A C84A 1_555 1_555
H83A C84A 1_555 1_555
H84A C84A 1_555 1_555
C1 C42 1_555 1_555
C3 C4 1_555 1_555
C5 C6 1_555 1_555
C8 C9 1_555 1_555
C13 C14 1_555 1_555
C14 C15 1_555 1_555
C17 C18 1_555 1_555
C19 C20 1_555 1_555
C22 C23 1_555 1_555
C27 C28 1_555 1_555
C28 C29 1_555 1_555
C31 C32 1_555 1_555
C33 C34 1_555 1_555
C36 C37 1_555 1_555
C41 C42 1_555 1_555
C51 C52 1_555 1_555
C65 C66 1_555 1_555
C79 C80 1_555 1_555
C97 C98 1_555 1_555
C99 C100 1_555 1_555
C102 C103 1_555 1_555
C104 C105 1_555 1_555
C107 C108 1_555 1_555
C108 C109 1_555 1_555
C111 C112 1_555 1_555
C113 C114 1_555 1_555
C115 C116 1_555 1_555
C117 C118 1_555 1_555
C119 C120 1_555 1_555
C121 C122 1_555 1_555
C123 C124 1_555 1_555
C125 C126 1_555 1_555
C126 C127 1_555 1_555
C128 C129 1_555 1_555
C130 C131 1_555 1_555
C132 C133 1_555 1_555
C133 C134 1_555 1_555
C135 C136 1_555 1_555
C137 C138 1_555 1_555
C138 C139 1_555 1_555
C140 C141 1_555 1_555
C141 C142 1_555 1_555
C143 C144 1_555 1_555
C143 C148 1_555 1_555
C144 C145 1_555 1_555
C145 C146 1_555 1_555
C146 C147 1_555 1_555
C147 C148 1_555 1_555
C1A C42A 1_555 1_555
C3A C4A 1_555 1_555
C5A C6A 1_555 1_555
C8A C9A 1_555 1_555
C13A C14A 1_555 1_555
C14A C15A 1_555 1_555
C17A C18A 1_555 1_555
C19A C20A 1_555 1_555
C22A C23A 1_555 1_555
C27A C28A 1_555 1_555
C28A C29A 1_555 1_555
C31A C32A 1_555 1_555
C33A C34A 1_555 1_555
C36A C37A 1_555 1_555
C41A C42A 1_555 1_555
C51A C52A 1_555 1_555
C65A C66A 1_555 1_555
C79A C80A 1_555 1_555

#END
