
#######################################################################
#
#                 Cambridge Crystallographic Data Centre
#                                CCDC 
#
#######################################################################
#
# If this CIF has been generated from an entry in the Cambridge 
# Structural Database, then it will include bibliographic, chemical, 
# crystal, experimental, refinement or atomic coordinate data resulting 
# from the CCDC's data processing and validation procedures.
#
#######################################################################

data_ADUVEC
_chemical_formula_moiety         '2.5(C1 S2),C69 H8'
_chemical_name_systematic        'Indan-C60fullerene carbon disulfide solvate'
_symmetry_cell_setting           triclinic
_symmetry_space_group_name_H-M   'P -1'
_symmetry_Int_Tables_number      2
_space_group_name_Hall           '-P 1'
loop_
_symmetry_equiv_pos_site_id
_symmetry_equiv_pos_as_xyz
1 x,y,z
2 -x,-y,-z
_cell_length_a                   9.875(2)
_cell_length_b                   14.021(3)
_cell_length_c                   14.292(3)
_cell_angle_alpha                89.90(3)
_cell_angle_beta                 87.03(3)
_cell_angle_gamma                84.22(3)
_cell_volume                     1966.12
_exptl_crystal_colour            black
_exptl_crystal_description       plate
_cell_formula_units_Z            2
_chemical_properties_physical    air-sensitive
loop_
_atom_site_label
_atom_site_type_symbol
_atom_site_fract_x
_atom_site_fract_y
_atom_site_fract_z
C1 C 0.4230(2) 0.65476(15) 0.04423(14)
C2 C 0.4293(2) 0.53333(14) 0.16923(15)
C3 C 0.2923(2) 0.89754(15) 0.12704(15)
C4 C 0.4103(2) 0.94107(15) 0.10722(15)
C5 C 0.85989(18) 0.75185(14) 0.34776(14)
C6 C 0.82111(19) 0.84806(14) 0.33690(14)
C7 C 0.6971(2) 0.96172(14) 0.24474(15)
C8 C 0.6177(2) 0.97427(14) 0.16731(15)
C9 C 0.5700(2) 0.63748(15) 0.03048(13)
C10 C 0.5949(2) 0.51109(13) 0.32686(15)
C11 C 0.7088(2) 0.89705(14) 0.39613(14)
C12 C 0.17609(19) 0.81122(15) 0.24101(15)
C13 C 0.5207(2) 0.89258(15) 0.04870(14)
C14 C 0.9351(2) 0.86292(16) 0.56559(15)
H1 H 0.8725 0.9049 0.5329
C15 C 0.2926(2) 0.91037(15) 0.38447(15)
C16 C 0.6421(2) 0.56973(15) 0.08511(14)
C17 C 0.2423(2) 0.82284(16) 0.40385(15)
C18 C 0.4216(2) 0.93105(14) 0.42063(14)
C19 C 0.9239(2) 0.76522(15) 0.56734(14)
C20 C 0.6844(2) 0.74705(14) 0.49251(13)
C21 C 0.4424(2) 0.77214(15) 0.49485(13)
C22 C 0.4927(2) 0.98410(14) 0.35099(15)
C23 C 0.3054(2) 0.65889(15) 0.42296(14)
C24 C 0.18286(19) 0.77250(16) 0.33065(15)
C25 C 0.2793(2) 0.80289(15) 0.08922(14)
C26 C 0.9784(2) 0.60193(16) 0.61262(16)
H2 H 0.9900 0.5697 0.6738
H3 H 1.0341 0.5641 0.5635
C27 C 0.5705(2) 0.51647(14) 0.15605(14)
C28 C 0.8425(2) 0.83080(15) 0.16430(14)
C29 C 0.6486(2) 0.91340(15) 0.08531(14)
C30 C 0.3544(2) 0.60350(15) 0.11261(14)
C31 C 0.5079(2) 0.80209(16) 0.01175(14)
C32 C 0.4707(2) 0.99154(14) 0.18068(15)
C33 C 0.6222(2) 0.72873(16) 0.01083(13)
C34 C 0.4480(2) 0.52823(14) 0.34046(14)
C35 C 0.7582(2) 0.84335(15) 0.08424(14)
C36 C 0.2076(2) 0.74982(16) 0.15947(15)
C37 C 0.3182(2) 0.75265(16) 0.46042(14)
C38 C 0.4173(2) 0.58925(15) 0.42200(14)
C39 C 0.8202(2) 0.67856(16) 0.10291(14)
C40 C 0.7451(2) 0.74868(16) 0.04605(14)
C41 C 0.2216(2) 0.67039(16) 0.34281(15)
C42 C 0.87933(19) 0.72956(15) 0.17608(14)
C43 C 0.8182(2) 0.70657(15) 0.52973(14)
C44 C 0.5445(2) 0.61028(14) 0.45985(13)
C45 C 0.80646(19) 0.69328(14) 0.42499(14)
C46 C 0.5560(2) 0.69908(15) 0.49770(13)
C47 C 0.8125(2) 0.88869(15) 0.24345(14)
C48 C 0.7700(2) 0.59114(15) 0.12163(14)
C49 C 0.2520(2) 0.61197(15) 0.26458(15)
C50 C 1.0161(2) 0.70346(16) 0.61606(14)
C51 C 0.4097(2) 0.99644(14) 0.27074(16)
C52 C 0.6546(2) 0.50471(14) 0.23619(14)
C53 C 0.2282(2) 0.90257(15) 0.22099(16)
C54 C 0.2857(2) 0.95098(15) 0.29116(15)
C55 C 0.7766(2) 0.55101(14) 0.21510(14)
C56 C 0.88544(19) 0.69129(15) 0.26595(14)
C57 C 0.2445(2) 0.65240(15) 0.17119(14)
C58 C 0.4944(2) 0.86313(15) 0.47495(14)
C59 C 0.3672(2) 0.53905(14) 0.26359(15)
C60 C 0.8269(2) 0.61542(15) 0.58898(14)
H4 H 0.8020 0.5601 0.5530
H5 H 0.7667 0.6239 0.6465
C61 C 0.83240(19) 0.60039(14) 0.28554(14)
C62 C 0.6414(2) 0.84794(14) 0.46513(13)
C63 C 0.6557(2) 0.56113(14) 0.39996(14)
C64 C 1.0397(2) 0.89886(18) 0.61244(16)
H6 H 1.0481 0.9658 0.6120
C65 C 1.1208(2) 0.73891(18) 0.66100(16)
H7 H 1.1848 0.6968 0.6924
C66 C 1.1317(2) 0.83695(19) 0.65983(17)
H8 H 1.2026 0.8620 0.6916
C67 C 0.6339(2) 0.96651(14) 0.33840(15)
C68 C 0.3841(2) 0.75640(16) 0.03323(14)
C69 C 0.7741(2) 0.60353(14) 0.37966(14)
S1 S 1.11124(7) 0.45278(5) 0.12050(5)
S2 S 0.88475(7) 0.32653(5) 0.07529(5)
C70 C 0.9984(2) 0.38941(16) 0.09866(15)
S3 S 0.78169(8) 0.79967(6) 0.79551(5)
S4 S 0.49785(11) 0.73793(7) 0.75798(7)
C71 C 0.6400(3) 0.76894(18) 0.77716(17)
S5 S 0.96279(10) 0.06595(6) 0.08508(7)
C72 C 1.0000 0.0000 0.0000
S5A S 1.03721(10) -0.06595(6) -0.08508(7)
loop_
_geom_bond_atom_site_label_1
_geom_bond_atom_site_label_2
_geom_bond_site_symmetry_1
_geom_bond_site_symmetry_2
C1 C9 1_555 1_555
C2 C27 1_555 1_555
C3 C4 1_555 1_555
C4 C13 1_555 1_555
C5 C6 1_555 1_555
C6 C11 1_555 1_555
C7 C8 1_555 1_555
C8 C29 1_555 1_555
C9 C16 1_555 1_555
C10 C34 1_555 1_555
C11 C62 1_555 1_555
C12 C24 1_555 1_555
C13 C29 1_555 1_555
C14 H1 1_555 1_555
C15 C17 1_555 1_555
C16 C27 1_555 1_555
C17 C24 1_555 1_555
C18 C15 1_555 1_555
C19 C14 1_555 1_555
C20 C43 1_555 1_555
C21 C37 1_555 1_555
C22 C18 1_555 1_555
C23 C37 1_555 1_555
C24 C41 1_555 1_555
C25 C3 1_555 1_555
C26 H2 1_555 1_555
H3 C26 1_555 1_555
C27 C52 1_555 1_555
C28 C35 1_555 1_555
C29 C35 1_555 1_555
C30 C1 1_555 1_555
C31 C13 1_555 1_555
C32 C4 1_555 1_555
C33 C9 1_555 1_555
C34 C38 1_555 1_555
C35 C40 1_555 1_555
C36 C12 1_555 1_555
C37 C17 1_555 1_555
C38 C23 1_555 1_555
C39 C40 1_555 1_555
C40 C33 1_555 1_555
C41 C23 1_555 1_555
C42 C28 1_555 1_555
C43 C19 1_555 1_555
C44 C38 1_555 1_555
C45 C5 1_555 1_555
C46 C20 1_555 1_555
C47 C6 1_555 1_555
C48 C16 1_555 1_555
C49 C41 1_555 1_555
C50 C19 1_555 1_555
C51 C22 1_555 1_555
C52 C10 1_555 1_555
C53 C3 1_555 1_555
C54 C15 1_555 1_555
C55 C48 1_555 1_555
C56 C5 1_555 1_555
C57 C30 1_555 1_555
C58 C18 1_555 1_555
C59 C2 1_555 1_555
C60 C26 1_555 1_555
H4 C60 1_555 1_555
H5 C60 1_555 1_555
C61 C55 1_555 1_555
C62 C20 1_555 1_555
C63 C10 1_555 1_555
C64 C14 1_555 1_555
H6 C64 1_555 1_555
C65 C50 1_555 1_555
H7 C65 1_555 1_555
C66 C64 1_555 1_555
H8 C66 1_555 1_555
C67 C7 1_555 1_555
C68 C1 1_555 1_555
C69 C45 1_555 1_555
S1 C70 1_555 1_555
S2 C70 1_555 1_555
S3 C71 1_555 1_555
S4 C71 1_555 1_555
S5 C72 1_555 1_555
C72 S5A 1_555 1_555
C2 C30 1_555 1_555
C7 C47 1_555 1_555
C8 C32 1_555 1_555
C11 C67 1_555 1_555
C12 C53 1_555 1_555
C20 C45 1_555 1_555
C21 C46 1_555 1_555
C21 C58 1_555 1_555
C22 C67 1_555 1_555
C25 C36 1_555 1_555
C25 C68 1_555 1_555
C26 C50 1_555 1_555
C28 C47 1_555 1_555
C31 C33 1_555 1_555
C31 C68 1_555 1_555
C32 C51 1_555 1_555
C34 C59 1_555 1_555
C36 C57 1_555 1_555
C39 C42 1_555 1_555
C39 C48 1_555 1_555
C42 C56 1_555 1_555
C43 C45 1_555 1_555
C43 C60 1_555 1_555
C44 C46 1_555 1_555
C44 C63 1_555 1_555
C49 C57 1_555 1_555
C49 C59 1_555 1_555
C51 C54 1_555 1_555
C52 C55 1_555 1_555
C53 C54 1_555 1_555
C56 C61 1_555 1_555
C58 C62 1_555 1_555
C61 C69 1_555 1_555
C63 C69 1_555 1_555
C65 C66 1_555 1_555

#END
