
#######################################################################
#
#                 Cambridge Crystallographic Data Centre
#                                CCDC 
#
#######################################################################
#
# If this CIF has been generated from an entry in the Cambridge 
# Structural Database, then it will include bibliographic, chemical, 
# crystal, experimental, refinement or atomic coordinate data resulting 
# from the CCDC's data processing and validation procedures.
#
#######################################################################

data_ADUWAZ
_chemical_formula_moiety         'C32 H39 N1 O5 S2'
_chemical_name_systematic        
5-Methyl-4-(2-(2-methyl-5-(4-(1,4,7,10-tetraoxa-13-azacyclopentadecan-13-yl)phenyl)-3-thienyl)cyclopent-1-en-1-yl)thiophene-2-carbaldehyde
_symmetry_cell_setting           orthorhombic
_symmetry_space_group_name_H-M   'P c a 21'
_symmetry_Int_Tables_number      29
_space_group_name_Hall           'P 2c -2ac'
loop_
_symmetry_equiv_pos_site_id
_symmetry_equiv_pos_as_xyz
1 x,y,z
2 -x,-y,1/2+z
3 1/2-x,y,1/2+z
4 1/2+x,-y,z
_cell_length_a                   14.249(3)
_cell_length_b                   15.131(3)
_cell_length_c                   14.177(3)
_cell_angle_alpha                90
_cell_angle_beta                 90
_cell_angle_gamma                90
_cell_volume                     3056.58
_exptl_crystal_colour            green
_exptl_crystal_description       block
_cell_formula_units_Z            4
_chemical_properties_physical    light-sensitive
loop_
_atom_site_label
_atom_site_type_symbol
_atom_site_fract_x
_atom_site_fract_y
_atom_site_fract_z
S1 S 0.28956(7) 0.63272(6) 0.59855(7)
S2 S 0.42459(9) 0.40727(6) 0.89243(8)
N1 N 0.6979(2) 0.0435(2) 0.8493(2)
O1 O 0.2111(2) 0.82371(17) 0.6007(2)
O2 O 0.8745(2) 0.07088(17) 0.7452(2)
O3 O 0.98677(19) -0.00722(18) 0.6066(2)
O4 O 0.8334(2) -0.11697(18) 0.5415(2)
O5 O 0.6721(2) -0.13866(16) 0.67802(19)
C1 C 0.1655(3) 0.7691(3) 0.6426(3)
H1 H 0.1106 0.7887 0.6743
C2 C 0.1881(3) 0.6756(2) 0.6483(3)
C3 C 0.1365(3) 0.6099(2) 0.6886(3)
H2 H 0.0782 0.6205 0.7192
C4 C 0.1766(3) 0.5252(2) 0.6813(3)
C5 C 0.2594(3) 0.5267(2) 0.6317(3)
C6 C 0.3196(3) 0.4502(2) 0.6015(4)
H3 H 0.3603 0.4325 0.6539
H4 H 0.3582 0.4678 0.5475
H5 H 0.2794 0.4004 0.5835
C7 C 0.1315(3) 0.4463(2) 0.7218(3)
C8 C 0.0290(4) 0.4284(3) 0.7055(4)
H6 H -0.0101 0.4721 0.7395
H7 H 0.0139 0.4314 0.6374
C9 C 0.0122(4) 0.3392(3) 0.7421(5)
H8 H 0.0070 0.2965 0.6895
H9 H -0.0467 0.3376 0.7791
C10 C 0.0968(3) 0.3161(3) 0.8054(4)
H10 H 0.0802 0.3210 0.8730
H11 H 0.1196 0.2554 0.7926
C11 C 0.1699(3) 0.3844(3) 0.7780(3)
C12 C 0.2664(3) 0.3776(3) 0.8145(3)
C13 C 0.3156(3) 0.4448(3) 0.8584(3)
C14 C 0.2864(3) 0.5378(2) 0.8774(3)
H12 H 0.3073 0.5758 0.8255
H13 H 0.3149 0.5580 0.9365
H14 H 0.2179 0.5407 0.8826
C15 C 0.3180(3) 0.2967(2) 0.8097(3)
H15 H 0.2931 0.2443 0.7827
C16 C 0.4057(3) 0.3011(2) 0.8472(3)
C17 C 0.4802(3) 0.2348(2) 0.8513(3)
C18 C 0.5677(3) 0.2508(2) 0.8917(3)
H16 H 0.5784 0.3065 0.9208
C19 C 0.6392(3) 0.1901(2) 0.8914(3)
H17 H 0.6975 0.2047 0.9199
C20 C 0.6273(3) 0.1061(2) 0.8493(3)
C21 C 0.5397(3) 0.0889(2) 0.8077(3)
H18 H 0.5293 0.0338 0.7774
C22 C 0.4680(3) 0.1513(2) 0.8099(3)
H19 H 0.4091 0.1370 0.7827
C23 C 0.7895(3) 0.0639(3) 0.8884(3)
H20 H 0.8234 0.0079 0.9002
H21 H 0.7808 0.0937 0.9500
C24 C 0.8498(3) 0.1222(3) 0.8260(3)
H22 H 0.8145 0.1756 0.8068
H23 H 0.9069 0.1410 0.8603
C25 C 0.9237(3) 0.1209(3) 0.6759(3)
H24 H 0.9874 0.1354 0.6991
H25 H 0.8900 0.1769 0.6633
C26 C 0.9301(3) 0.0679(3) 0.5881(3)
H26 H 0.8668 0.0491 0.5677
H27 H 0.9584 0.1037 0.5370
C27 C 0.9927(3) -0.0673(3) 0.5286(3)
H28 H 1.0581 -0.0886 0.5227
H29 H 0.9766 -0.0354 0.4698
C28 C 0.9286(3) -0.1450(3) 0.5393(3)
H30 H 0.9380 -0.1863 0.4860
H31 H 0.9437 -0.1767 0.5985
C29 C 0.7695(3) -0.1888(3) 0.5473(3)
H32 H 0.7937 -0.2337 0.5919
H33 H 0.7629 -0.2169 0.4845
C30 C 0.6757(3) -0.1560(3) 0.5803(3)
H34 H 0.6601 -0.1011 0.5457
H35 H 0.6274 -0.2006 0.5646
C31 C 0.6982(3) -0.0500(2) 0.7051(3)
H36 H 0.6588 -0.0061 0.6717
H37 H 0.7649 -0.0386 0.6896
C32 C 0.6827(3) -0.0444(2) 0.8093(3)
H38 H 0.6175 -0.0630 0.8233
H39 H 0.7254 -0.0867 0.8410
loop_
_geom_bond_atom_site_label_1
_geom_bond_atom_site_label_2
_geom_bond_site_symmetry_1
_geom_bond_site_symmetry_2
S1 C2 1_555 1_555
S2 C13 1_555 1_555
N1 C20 1_555 1_555
O1 C1 1_555 1_555
O2 C24 1_555 1_555
O3 C26 1_555 1_555
O4 C28 1_555 1_555
O5 C30 1_555 1_555
C1 H1 1_555 1_555
C2 C1 1_555 1_555
C3 C2 1_555 1_555
H2 C3 1_555 1_555
C4 C3 1_555 1_555
C5 S1 1_555 1_555
C6 C5 1_555 1_555
H3 C6 1_555 1_555
H4 C6 1_555 1_555
H5 C6 1_555 1_555
C7 C4 1_555 1_555
C8 C7 1_555 1_555
H6 C8 1_555 1_555
H7 C8 1_555 1_555
C9 C8 1_555 1_555
H8 C9 1_555 1_555
H9 C9 1_555 1_555
C10 C9 1_555 1_555
H10 C10 1_555 1_555
H11 C10 1_555 1_555
C11 C7 1_555 1_555
C12 C11 1_555 1_555
C13 C12 1_555 1_555
C14 C13 1_555 1_555
H12 C14 1_555 1_555
H13 C14 1_555 1_555
H14 C14 1_555 1_555
C15 C12 1_555 1_555
H15 C15 1_555 1_555
C16 S2 1_555 1_555
C17 C16 1_555 1_555
C18 C17 1_555 1_555
H16 C18 1_555 1_555
C19 C18 1_555 1_555
H17 C19 1_555 1_555
C20 C19 1_555 1_555
C21 C20 1_555 1_555
H18 C21 1_555 1_555
C22 C17 1_555 1_555
H19 C22 1_555 1_555
C23 N1 1_555 1_555
H20 C23 1_555 1_555
H21 C23 1_555 1_555
C24 C23 1_555 1_555
H22 C24 1_555 1_555
H23 C24 1_555 1_555
C25 O2 1_555 1_555
H24 C25 1_555 1_555
H25 C25 1_555 1_555
C26 C25 1_555 1_555
H26 C26 1_555 1_555
H27 C26 1_555 1_555
C27 O3 1_555 1_555
H28 C27 1_555 1_555
H29 C27 1_555 1_555
C28 C27 1_555 1_555
H30 C28 1_555 1_555
H31 C28 1_555 1_555
C29 O4 1_555 1_555
H32 C29 1_555 1_555
H33 C29 1_555 1_555
C30 C29 1_555 1_555
H34 C30 1_555 1_555
H35 C30 1_555 1_555
C31 O5 1_555 1_555
H36 C31 1_555 1_555
H37 C31 1_555 1_555
C32 N1 1_555 1_555
H38 C32 1_555 1_555
H39 C32 1_555 1_555
C4 C5 1_555 1_555
C10 C11 1_555 1_555
C15 C16 1_555 1_555
C21 C22 1_555 1_555
C31 C32 1_555 1_555

#END
