
#######################################################################
#
#                 Cambridge Crystallographic Data Centre
#                                CCDC 
#
#######################################################################
#
# If this CIF has been generated from an entry in the Cambridge 
# Structural Database, then it will include bibliographic, chemical, 
# crystal, experimental, refinement or atomic coordinate data resulting 
# from the CCDC's data processing and validation procedures.
#
#######################################################################

data_AFEFUM
_chemical_formula_moiety         'C40 H45 N4 O8 1+,Cl1 1-,3(H2 O1)'
_chemical_name_systematic        
'25,26,27,28-tetrakis((N-Methylamido)methoxy)calix(4)arene hydrochloride trihydrate'
_symmetry_cell_setting           orthorhombic
_symmetry_space_group_name_H-M   'F d d d'
_symmetry_Int_Tables_number      70
_space_group_name_Hall           '-F 2uv 2vw'
loop_
_symmetry_equiv_pos_site_id
_symmetry_equiv_pos_as_xyz
1 x,y,z
2 x,1/2+y,1/2+z
3 x,1/4-y,1/4-z
4 1/2+x,y,1/2+z
5 1/4-x,y,1/4-z
6 1/2+x,1/2+y,z
7 1/4-x,1/4-y,z
8 1/4+x,1/4+y,-z
9 1/4+x,-y,1/4+z
10 -x,1/4+y,1/4+z
11 1/4+x,3/4+y,1/2-z
12 1/4+x,1/2-y,3/4+z
13 3/4+x,1/4+y,1/2-z
14 1/2-x,1/4+y,3/4+z
15 3/4+x,1/2-y,1/4+z
16 1/2-x,3/4+y,1/4+z
17 -x,-y,-z
18 -x,1/2-y,1/2-z
19 -x,3/4+y,3/4+z
20 1/2-x,-y,1/2-z
21 3/4+x,-y,3/4+z
22 1/2-x,1/2-y,-z
23 3/4+x,3/4+y,-z
24 3/4-x,3/4-y,z
25 3/4-x,y,3/4-z
26 x,3/4-y,3/4-z
27 3/4-x,1/4-y,1/2+z
28 3/4-x,1/2+y,1/4-z
29 1/4-x,3/4-y,1/2+z
30 1/2+x,3/4-y,1/4-z
31 1/4-x,1/2+y,3/4-z
32 1/2+x,1/4-y,3/4-z
_cell_length_a                   20.9026(7)
_cell_length_b                   26.5756(9)
_cell_length_c                   27.7713(10)
_cell_angle_alpha                90
_cell_angle_beta                 90
_cell_angle_gamma                90
_cell_volume                     15426.9
_exptl_crystal_colour            colorless
_exptl_crystal_description       plate
_cell_formula_units_Z            16
_exptl_crystal_recrystallization_method dichloromethane/tetrahydrofuran
loop_
_atom_site_label
_atom_site_type_symbol
_atom_site_fract_x
_atom_site_fract_y
_atom_site_fract_z
C1 C 0.6250 0.1250 0.45565(16)
H1 H 0.6140(13) 0.1023(11) 0.4760(10)
C2 C 0.68272(13) 0.11006(10) 0.42628(10)
C3 C 0.73947(14) 0.13733(12) 0.42909(11)
H2 H 0.7413(14) 0.1655(13) 0.4489(11)
C4 C 0.79209(15) 0.12344(12) 0.40213(12)
H3 H 0.8310(19) 0.1380(13) 0.4062(13)
C5 C 0.78778(14) 0.08426(12) 0.36996(12)
H4 H 0.8207(16) 0.0773(11) 0.3544(11)
C6 C 0.73172(12) 0.05705(10) 0.36463(10)
C7 C 0.72617(15) 0.01635(11) 0.32664(11)
H5 H 0.7650(15) 0.0111(10) 0.3140(10)
H6 H 0.7181(13) -0.0156(11) 0.3420(10)
C8 C 0.67801(13) 0.02475(10) 0.28653(10)
C9 C 0.64073(15) -0.01595(12) 0.27068(12)
H7 H 0.6475(18) -0.0508(15) 0.2922(15)
C10 C 0.60118(17) -0.01097(14) 0.23160(13)
H8 H 0.576(2) -0.0349(15) 0.2246(14)
C11 C 0.59620(15) 0.03389(14) 0.20727(12)
H9 H 0.5716(15) 0.0407(11) 0.1780(12)
C12 C 0.63044(14) 0.07596(11) 0.22226(10)
C13 C 0.6250 0.1250 0.19487(16)
H10 H 0.6624(15) 0.1263(11) 0.1742(11)
C14 C 0.67127(13) 0.07013(10) 0.26187(10)
O1 O 0.70171(9) 0.11273(7) 0.27977(6)
C15 C 0.76262(15) 0.12528(11) 0.26019(11)
H11 H 0.7593 0.1295 0.2249
H12 H 0.7937 0.0980 0.2669
C16 C 0.78475(15) 0.17358(11) 0.28302(11)
O2 O 0.83994(11) 0.18856(9) 0.27556(9)
C17 C 0.7572(2) 0.24502(15) 0.33339(16)
H13 H 0.7852 0.2389 0.3610
H14 H 0.7172 0.2605 0.3445
H15 H 0.7786 0.2677 0.3107
N1 N 0.74309(12) 0.19776(9) 0.30972(9)
H16 H 0.7048 0.1846 0.3134
O3 O 0.62674(9) 0.03825(7) 0.39512(7)
C18 C 0.68124(12) 0.06899(10) 0.39494(10)
C19 C 0.63884(17) -0.00338(12) 0.42745(14)
H17 H 0.6554 0.0096 0.4585
H18 H 0.6717 -0.0258 0.4133
C20 C 0.57841(17) -0.03263(12) 0.43608(13)
O4 O 0.53148(12) -0.01124(10) 0.45360(10)
N2 N 0.58092(14) -0.08069(10) 0.42604(11)
C21 C 0.5291(2) -0.11536(15) 0.43853(18)
H20 H 0.5236 -0.1161 0.4736
H21 H 0.5397 -0.1492 0.4270
H22 H 0.4893 -0.1040 0.4234
H23 H 0.5620 -0.0922 0.4000
H1F H 0.6360(13) 0.1477(11) 0.4760(10)
C12F C 0.61956(14) 0.17404(11) 0.22226(10)
C11F C 0.65380(15) 0.21611(14) 0.20727(12)
C10F C 0.64882(17) 0.26097(14) 0.23160(13)
C9F C 0.60927(15) 0.26595(12) 0.27068(12)
C8F C 0.57199(13) 0.22525(10) 0.28653(10)
C7F C 0.52383(15) 0.23365(11) 0.32664(11)
C6F C 0.51828(12) 0.19295(10) 0.36463(10)
C5F C 0.46222(14) 0.16574(12) 0.36996(12)
C4F C 0.45791(15) 0.12656(12) 0.40213(12)
C3F C 0.51053(14) 0.11267(12) 0.42909(11)
C2F C 0.56728(13) 0.13994(10) 0.42628(10)
C18F C 0.56876(12) 0.18101(10) 0.39494(10)
O3F O 0.62326(9) 0.21175(7) 0.39512(7)
C19F C 0.61116(17) 0.25338(12) 0.42745(14)
H17F H 0.5946 0.2404 0.4585
H18F H 0.5783 0.2758 0.4133
C20F C 0.67159(17) 0.28263(12) 0.43608(13)
O4F O 0.71852(12) 0.26124(10) 0.45360(10)
N2F N 0.66908(14) 0.33069(10) 0.42604(11)
C21F C 0.7209(2) 0.36536(15) 0.43853(18)
H20F H 0.7264 0.3661 0.4736
H21F H 0.7103 0.3992 0.4270
H22F H 0.7607 0.3540 0.4234
H23F H 0.6880 0.3422 0.4000
H2F H 0.5087(14) 0.0845(13) 0.4489(11)
H3F H 0.4190(19) 0.1120(13) 0.4062(13)
H4F H 0.4293(16) 0.1727(11) 0.3544(11)
H5F H 0.4850(15) 0.2389(10) 0.3140(10)
H6F H 0.5319(13) 0.2656(11) 0.3420(10)
C14F C 0.57873(13) 0.17987(10) 0.26187(10)
O1F O 0.54829(9) 0.13727(7) 0.27977(6)
C15F C 0.48738(15) 0.12472(11) 0.26019(11)
H11F H 0.4907 0.1205 0.2249
H12F H 0.4563 0.1520 0.2669
C16F C 0.46525(15) 0.07642(11) 0.28302(11)
O2F O 0.41006(11) 0.06144(9) 0.27556(9)
N1F N 0.50691(12) 0.05224(9) 0.30972(9)
C17F C 0.4928(2) 0.00498(15) 0.33339(16)
H13F H 0.4648 0.0111 0.3610
H14F H 0.5328 -0.0105 0.3445
H15F H 0.4714 -0.0177 0.3107
H16F H 0.5452 0.0654 0.3134
H7F H 0.6025(18) 0.3008(15) 0.2922(15)
H8F H 0.674(2) 0.2849(15) 0.2246(14)
H9F H 0.6784(15) 0.2093(11) 0.1780(12)
H10F H 0.5876(15) 0.1237(11) 0.1742(11)
Cl1 Cl 0.45604(5) 0.1250 0.1250
O5 O 0.6250 0.07811(15) 0.6250
H27 H 0.616(7) 0.105(3) 0.650(3)
H27D H 0.634(7) 0.105(3) 0.600(3)
O6 O 0.40712(14) -0.02077(12) 0.45169(11)
H29 H 0.464(3) -0.0214(17) 0.4493(16)
H30 H 0.388(3) 0.021(3) 0.448(3)
H19? H 0.6150 -0.0926 0.4113
N3? N 0.58092(14) -0.08069(10) 0.42604(11)
C22? C 0.6146(12) -0.1149(9) 0.4574(9)
H24? H 0.6415 -0.1374 0.4381
H25? H 0.5836 -0.1349 0.4757
H26? H 0.6414 -0.0957 0.4797
H28? H 0.629(4) 0.054(2) 0.647(2)
loop_
_geom_bond_atom_site_label_1
_geom_bond_atom_site_label_2
_geom_bond_site_symmetry_1
_geom_bond_site_symmetry_2
C1 H1 1_555 1_555
C2 C1 1_555 1_555
C3 C2 1_555 1_555
H2 C3 1_555 1_555
C4 C3 1_555 1_555
H3 C4 1_555 1_555
C5 C4 1_555 1_555
H4 C5 1_555 1_555
C6 C5 1_555 1_555
C7 C6 1_555 1_555
H5 C7 1_555 1_555
H6 C7 1_555 1_555
C8 C7 1_555 1_555
C9 C8 1_555 1_555
H7 C9 1_555 1_555
C10 C9 1_555 1_555
H8 C10 1_555 1_555
C11 C10 1_555 1_555
H9 C11 1_555 1_555
C12 C11 1_555 1_555
C13 C12 1_555 1_555
H10 C13 1_555 1_555
C14 C8 1_555 1_555
O1 C14 1_555 1_555
C15 O1 1_555 1_555
H11 C15 1_555 1_555
H12 C15 1_555 1_555
C16 C15 1_555 1_555
O2 C16 1_555 1_555
C17 H13 1_555 1_555
H14 C17 1_555 1_555
H15 C17 1_555 1_555
N1 C16 1_555 1_555
H16 N1 1_555 1_555
O3 C18 1_555 1_555
C18 C2 1_555 1_555
C19 O3 1_555 1_555
H17 C19 1_555 1_555
H18 C19 1_555 1_555
C20 C19 1_555 1_555
O4 C20 1_555 1_555
N2 C20 1_555 1_555
C21 N2 1_555 1_555
H20 C21 1_555 1_555
H21 C21 1_555 1_555
H22 C21 1_555 1_555
H23 N2 1_555 1_555
O5 H27 1_555 1_555
O6 H29 1_555 1_555
H30 O6 1_555 1_555
H1F C1 1_555 1_555
C12F C13 1_555 1_555
C11F C12F 1_555 1_555
C10F C11F 1_555 1_555
C9F C10F 1_555 1_555
C8F C9F 1_555 1_555
C7F C8F 1_555 1_555
C6F C7F 1_555 1_555
C5F C6F 1_555 1_555
C4F C5F 1_555 1_555
C3F C4F 1_555 1_555
C2F C1 1_555 1_555
C18F C6F 1_555 1_555
O3F C18F 1_555 1_555
C19F O3F 1_555 1_555
H17F C19F 1_555 1_555
H18F C19F 1_555 1_555
C20F C19F 1_555 1_555
O4F C20F 1_555 1_555
N2F C20F 1_555 1_555
C21F N2F 1_555 1_555
H20F C21F 1_555 1_555
H21F C21F 1_555 1_555
H22F C21F 1_555 1_555
H23F N2F 1_555 1_555
H2F C3F 1_555 1_555
H3F C4F 1_555 1_555
H4F C5F 1_555 1_555
H5F C7F 1_555 1_555
H6F C7F 1_555 1_555
C14F C12F 1_555 1_555
O1F C14F 1_555 1_555
C15F O1F 1_555 1_555
H11F C15F 1_555 1_555
H12F C15F 1_555 1_555
C16F C15F 1_555 1_555
O2F C16F 1_555 1_555
N1F C16F 1_555 1_555
C17F N1F 1_555 1_555
H13F C17F 1_555 1_555
H14F C17F 1_555 1_555
H15F C17F 1_555 1_555
H16F N1F 1_555 1_555
H7F C9F 1_555 1_555
H8F C10F 1_555 1_555
H9F C11F 1_555 1_555
H10F C13 1_555 1_555
H27D O5 1_555 1_555
C6 C18 1_555 1_555
C12 C14 1_555 1_555
C17 N1 1_555 1_555
C8F C14F 1_555 1_555
C3F C2F 1_555 1_555
C2F C18F 1_555 1_555

#END
