
#######################################################################
#
#                 Cambridge Crystallographic Data Centre
#                                CCDC 
#
#######################################################################
#
# If this CIF has been generated from an entry in the Cambridge 
# Structural Database, then it will include bibliographic, chemical, 
# crystal, experimental, refinement or atomic coordinate data resulting 
# from the CCDC's data processing and validation procedures.
#
#######################################################################

data_AFEGAT
_chemical_formula_moiety         'C40 H45 N4 O8 1+,Cl1 1-,C1 H2 Cl2,H2 O1'
_chemical_name_systematic        
'25,26,27,28-tetrakis((N-Methylamido)methoxy)calix(4)arene hydrochloride dichloromethane solvate monohydrate'
_symmetry_cell_setting           monoclinic
_symmetry_space_group_name_H-M   'P 21/n'
_symmetry_Int_Tables_number      14
_space_group_name_Hall           '-P 2yn'
loop_
_symmetry_equiv_pos_site_id
_symmetry_equiv_pos_as_xyz
1 x,y,z
2 1/2+x,1/2-y,1/2+z
3 -x,-y,-z
4 1/2-x,1/2+y,1/2-z
_cell_length_a                   10.1237(3)
_cell_length_b                   22.7400(7)
_cell_length_c                   17.7902(6)
_cell_angle_alpha                90
_cell_angle_beta                 97.0700(10)
_cell_angle_gamma                90
_cell_volume                     4064.39
_exptl_crystal_colour            colorless
_exptl_crystal_description       plate
_cell_formula_units_Z            4
loop_
_atom_site_label
_atom_site_type_symbol
_atom_site_fract_x
_atom_site_fract_y
_atom_site_fract_z
C1 C -0.10566(17) 0.19673(8) 0.15733(10)
C2 C -0.08090(19) 0.23657(9) 0.22557(11)
H1 H -0.157(2) 0.2636(9) 0.2251(12)
H2 H -0.0769(19) 0.2125(9) 0.2686(12)
C3 C 0.04464(18) 0.27449(8) 0.23145(10)
C4 C 0.0399(2) 0.33107(9) 0.26188(11)
H3 H -0.044(2) 0.3446(10) 0.2765(14)
C5 C 0.1534(2) 0.36601(9) 0.27301(12)
H4 H 0.1512(19) 0.4047(9) 0.2943(11)
C6 C 0.2726(2) 0.34487(9) 0.25403(11)
H5 H 0.352(2) 0.3674(9) 0.2601(11)
C7 C 0.28234(18) 0.28898(8) 0.22371(10)
C8 C 0.41722(19) 0.26579(9) 0.20821(11)
H6 H 0.478(2) 0.2991(9) 0.2105(11)
H7 H 0.453(2) 0.2405(9) 0.2487(12)
C9 C 0.42926(17) 0.23284(8) 0.13575(11)
C10 C 0.51058(18) 0.18296(9) 0.13738(13)
H8 H 0.552(2) 0.1673(9) 0.1839(13)
C11 C 0.53194(19) 0.15431(9) 0.07161(13)
H9 H 0.588(2) 0.1199(10) 0.0741(12)
C12 C 0.47356(18) 0.17523(8) 0.00193(12)
H10 H 0.4899(18) 0.1571(8) -0.0449(11)
C13 C 0.39119(16) 0.22480(8) -0.00273(10)
C14 C 0.33753(18) 0.24974(9) -0.07979(11)
H11 H 0.3899(19) 0.2839(9) -0.0880(10)
H12 H 0.3540(19) 0.2213(9) -0.1183(12)
C15 C 0.19316(18) 0.26870(8) -0.09052(10)
C16 C 0.1602(2) 0.32663(8) -0.11093(11)
H13 H 0.228(2) 0.3511(9) -0.1232(11)
C17 C 0.0307(2) 0.34677(9) -0.11370(11)
H14 H 0.009(2) 0.3869(10) -0.1269(12)
C18 C -0.0674(2) 0.30923(9) -0.09493(10)
H15 H -0.155(2) 0.3251(9) -0.0937(12)
C19 C -0.04119(18) 0.25033(8) -0.07716(10)
C20 C -0.15141(19) 0.20919(10) -0.05977(11)
H16 H -0.1561(19) 0.1768(9) -0.0943(12)
H17 H -0.235(2) 0.2299(8) -0.0707(11)
C21 C -0.13598(17) 0.18442(8) 0.02001(10)
C22 C -0.13132(18) 0.12369(9) 0.03092(12)
H18 H -0.140(2) 0.0988(9) -0.0139(12)
C23 C -0.11995(18) 0.09952(9) 0.10256(12)
H19 H -0.117(2) 0.0577(10) 0.1089(12)
C24 C -0.10518(18) 0.13611(9) 0.16556(12)
H20 H -0.0950(18) 0.1197(8) 0.2155(11)
C25 C -0.12764(16) 0.22025(8) 0.08423(10)
O1 O -0.14086(11) 0.28137(5) 0.07733(7)
C26 C 0.08929(17) 0.23056(8) -0.07802(9)
O2 O 0.11537(12) 0.17120(5) -0.06300(7)
C27 C 0.37011(16) 0.25228(8) 0.06465(10)
O3 O 0.28198(11) 0.29963(5) 0.06198(7)
C28 C 0.16641(18) 0.25490(8) 0.21245(9)
O4 O 0.17412(12) 0.20020(5) 0.17727(7)
C29 C -0.2785(2) 0.29914(10) 0.06823(14)
H21 H -0.323(3) 0.2746(13) 0.0944(16)
H22 H -0.314(2) 0.2995(10) 0.0106(13)
C30 C -0.29143(18) 0.35921(9) 0.10334(11)
N1 N -0.33249(16) 0.40153(7) 0.05409(10)
H23 H -0.357(3) 0.3942(11) 0.0074(15)
O5 O -0.26636(16) 0.36767(7) 0.17257(8)
C31 C -0.3546(3) 0.46219(11) 0.07403(15)
H24 H -0.456(4) 0.4683(15) 0.0798(19)
H25 H -0.330(3) 0.4907(13) 0.0350(17)
H26 H -0.309(3) 0.4698(12) 0.1195(18)
C32 C 0.1642(2) 0.13957(9) -0.12362(12)
H27 H 0.252(2) 0.1233(8) -0.1071(11)
H28 H 0.1676(19) 0.1651(9) -0.1687(12)
C33 C 0.07450(18) 0.08794(8) -0.14886(11)
N2 N 0.08233(17) 0.06995(7) -0.21972(9)
H29 H 0.131(2) 0.0872(10) -0.2473(13)
O6 O 0.00417(16) 0.06406(7) -0.10704(8)
C34 C 0.0064(3) 0.01971(10) -0.25168(14)
H30 H 0.066(3) -0.0139(14) -0.2623(17)
H31 H -0.050(3) 0.0320(12) -0.2972(18)
H32 H -0.052(3) 0.0021(13) -0.2167(17)
C35 C 0.34096(18) 0.35622(8) 0.06361(11)
H33 H 0.3785(19) 0.3656(9) 0.0166(12)
H34 H 0.413(2) 0.3613(8) 0.1095(11)
C36 C 0.23816(18) 0.40213(8) 0.07309(10)
N3 N 0.11359(16) 0.38481(8) 0.07150(10)
H35 H 0.099(2) 0.3482(10) 0.0676(12)
O7 O 0.27542(14) 0.45421(6) 0.08116(8)
C37 C 0.0039(2) 0.42475(12) 0.07743(19)
H36 H -0.045(3) 0.4104(15) 0.115(2)
H37 H -0.065(4) 0.4218(15) 0.030(2)
H38 H 0.031(3) 0.4652(16) 0.0695(18)
C38 C 0.2190(2) 0.15373(8) 0.22711(11)
H39 H 0.1567(19) 0.1461(8) 0.2626(11)
H40 H 0.302(2) 0.1625(8) 0.2547(12)
C39 C 0.23468(17) 0.09878(8) 0.18197(11)
N4 N 0.20792(16) 0.10026(8) 0.10853(10)
H41 H 0.183(2) 0.1308(10) 0.0889(13)
O8 O 0.27305(13) 0.05180(6) 0.21691(8)
C40 C 0.2126(3) 0.04917(11) 0.05983(15)
H42 H 0.295(3) 0.0449(12) 0.0435(16)
H43 H 0.160(3) 0.0550(13) 0.0179(19)
H44 H 0.195(3) 0.0161(13) 0.0821(16)
Cl1 Cl 0.03405(5) 0.11701(2) 0.38430(3)
O9 O 0.22757(15) 0.55129(7) 0.14564(8)
H45 H 0.291(3) 0.5708(13) 0.1345(16)
H46 H 0.238(3) 0.5163(14) 0.1252(16)
Cl2 Cl 0.4248(4) 0.02136(19) -0.1180(2)
Cl3 Cl 0.34552(9) -0.04899(4) -0.25223(5)
C41 C 0.4209(11) 0.0140(4) -0.2268(6)
H48 H 0.3715 0.0474 -0.2527
H49 H 0.5126 0.0141 -0.2407
H47? H 0.231(3) 0.5520(13) 0.2122(18)
C42? C 0.4388(8) 0.0125(4) -0.2054(5)
H50? H 0.5342 0.0069 -0.2106
H51? H 0.4095 0.0491 -0.2326
C43? C 0.4162(13) -0.0293(6) -0.1744(7)
H52? H 0.4960 -0.0547 -0.1707
H53? H 0.3385 -0.0550 -0.1706
Cl4? Cl 0.3963(4) 0.0037(2) -0.2640(3)
Cl5? Cl 0.433(2) 0.0194(10) -0.0956(10)
loop_
_geom_bond_atom_site_label_1
_geom_bond_atom_site_label_2
_geom_bond_site_symmetry_1
_geom_bond_site_symmetry_2
C1 C2 1_555 1_555
C2 H1 1_555 1_555
H2 C2 1_555 1_555
C3 C2 1_555 1_555
C4 C3 1_555 1_555
H3 C4 1_555 1_555
C5 C4 1_555 1_555
H4 C5 1_555 1_555
C6 C5 1_555 1_555
H5 C6 1_555 1_555
C7 C6 1_555 1_555
C8 C7 1_555 1_555
H6 C8 1_555 1_555
H7 C8 1_555 1_555
C9 C8 1_555 1_555
C10 C9 1_555 1_555
H8 C10 1_555 1_555
C11 C10 1_555 1_555
H9 C11 1_555 1_555
C12 C11 1_555 1_555
H10 C12 1_555 1_555
C13 C12 1_555 1_555
C14 C13 1_555 1_555
H11 C14 1_555 1_555
H12 C14 1_555 1_555
C15 C14 1_555 1_555
C16 C15 1_555 1_555
H13 C16 1_555 1_555
C17 C16 1_555 1_555
H14 C17 1_555 1_555
C18 C17 1_555 1_555
H15 C18 1_555 1_555
C19 C18 1_555 1_555
C20 C19 1_555 1_555
H16 C20 1_555 1_555
H17 C20 1_555 1_555
C21 C20 1_555 1_555
C22 C21 1_555 1_555
H18 C22 1_555 1_555
C23 C22 1_555 1_555
H19 C23 1_555 1_555
C24 C1 1_555 1_555
H20 C24 1_555 1_555
C25 C1 1_555 1_555
O1 C25 1_555 1_555
C26 C15 1_555 1_555
O2 C26 1_555 1_555
C27 C9 1_555 1_555
O3 C27 1_555 1_555
C28 C3 1_555 1_555
O4 C28 1_555 1_555
C29 O1 1_555 1_555
H21 C29 1_555 1_555
H22 C29 1_555 1_555
C30 C29 1_555 1_555
N1 C30 1_555 1_555
H23 N1 1_555 1_555
O5 C30 1_555 1_555
C31 N1 1_555 1_555
H24 C31 1_555 1_555
H25 C31 1_555 1_555
H26 C31 1_555 1_555
C32 O2 1_555 1_555
H27 C32 1_555 1_555
H28 C32 1_555 1_555
C33 C32 1_555 1_555
N2 C33 1_555 1_555
H29 N2 1_555 1_555
O6 C33 1_555 1_555
C34 N2 1_555 1_555
H30 C34 1_555 1_555
H31 C34 1_555 1_555
H32 C34 1_555 1_555
C35 O3 1_555 1_555
H33 C35 1_555 1_555
H34 C35 1_555 1_555
C36 C35 1_555 1_555
N3 C36 1_555 1_555
H35 N3 1_555 1_555
O7 C36 1_555 1_555
C37 N3 1_555 1_555
H36 C37 1_555 1_555
H37 C37 1_555 1_555
H38 C37 1_555 1_555
C38 O4 1_555 1_555
H39 C38 1_555 1_555
H40 C38 1_555 1_555
C39 C38 1_555 1_555
N4 C39 1_555 1_555
H41 N4 1_555 1_555
O8 C39 1_555 1_555
C40 N4 1_555 1_555
H42 C40 1_555 1_555
H43 C40 1_555 1_555
H44 C40 1_555 1_555
O9 H45 1_555 1_555
H46 O9 1_555 1_555
Cl2 C41 1_555 1_555
Cl3 C41 1_555 1_555
C41 H48 1_555 1_555
H49 C41 1_555 1_555
C7 C28 1_555 1_555
C13 C27 1_555 1_555
C19 C26 1_555 1_555
C21 C25 1_555 1_555
C23 C24 1_555 1_555

#END
