
#######################################################################
#
#                 Cambridge Crystallographic Data Centre
#                                CCDC 
#
#######################################################################
#
# If this CIF has been generated from an entry in the Cambridge 
# Structural Database, then it will include bibliographic, chemical, 
# crystal, experimental, refinement or atomic coordinate data resulting 
# from the CCDC's data processing and validation procedures.
#
#######################################################################

data_AFISUE
_chemical_formula_moiety         'C40 H24 B2 F12 N2 O4,C28 H40 O10,3(C7 H8)'
_chemical_name_systematic        
"[2]-(4,4'-(E)-Ethene-1,2-diylbis(1-(2-(3,5-bis(trifluoromethyl)phenyl)1,3,2-benzodioxaborol-2-yl)pyridinium))-(2,5,8,11,14,16,19,22,25,28-deca-oxa-1,15(1,4)-dibenzenacyclo-octacosaphane)-rotaxane toluene solvate"
_symmetry_cell_setting           triclinic
_symmetry_space_group_name_H-M   'P -1'
_symmetry_Int_Tables_number      2
_space_group_name_Hall           '-P 1'
loop_
_symmetry_equiv_pos_site_id
_symmetry_equiv_pos_as_xyz
1 x,y,z
2 -x,-y,-z
_cell_length_a                   13.4013(9)
_cell_length_b                   14.5562(10)
_cell_length_c                   22.3107(17)
_cell_angle_alpha                96.487(6)
_cell_angle_beta                 107.062(6)
_cell_angle_gamma                92.798(6)
_cell_volume                     4118.59
_exptl_crystal_colour            yellow
_exptl_crystal_description       prismatic
_cell_formula_units_Z            2
_exptl_crystal_recrystallization_method pentane/toluene
loop_
_atom_site_label
_atom_site_type_symbol
_atom_site_fract_x
_atom_site_fract_y
_atom_site_fract_z
F1 F -0.2330(9) 0.5310(8) -0.1716(4)
F2 F -0.1083(8) 0.5247(8) -0.2112(5)
F3 F -0.2273(7) 0.6110(7) -0.2449(4)
F4 F -0.1409(17) 0.9429(14) -0.1621(7)
F5 F 0.0090(10) 0.9744(10) -0.0899(9)
F6 F -0.1253(13) 0.9568(11) -0.0644(8)
O1 O 0.1321(6) 0.7572(6) 0.0740(4)
O2 O 0.0327(5) 0.6124(5) 0.0534(4)
N1 N 0.1906(7) 0.6220(6) 0.0164(4)
B1 B 0.0932(10) 0.6772(11) 0.0282(7)
C1 C 0.0914(8) 0.7464(9) 0.1236(5)
C2 C 0.0992(9) 0.8068(9) 0.1756(5)
H1 H 0.1394 0.8649 0.1834
C3 C 0.0475(10) 0.7821(10) 0.2167(6)
H2 H 0.0522 0.8236 0.2537
C4 C -0.0127(11) 0.6956(11) 0.2051(6)
H3 H -0.0483 0.6798 0.2341
C5 C -0.0203(9) 0.6325(10) 0.1503(6)
H4 H -0.0603 0.5743 0.1418
C6 C 0.0325(9) 0.6590(9) 0.1099(5)
C7 C 0.1902(9) 0.5300(9) 0.0129(6)
H5 H 0.1296 0.4959 0.0154
C8 C 0.2725(9) 0.4817(9) 0.0060(5)
H6 H 0.2679 0.4159 0.0021
C9 C 0.3631(8) 0.5319(8) 0.0048(5)
C10 C 0.3619(9) 0.6257(8) 0.0071(5)
H7 H 0.4217 0.6614 0.0049
C11 C 0.2764(9) 0.6700(8) 0.0125(5)
H8 H 0.2778 0.7355 0.0136
C12 C 0.4542(8) 0.4803(8) 0.0013(5)
H9 H 0.4476 0.4149 0.0007
C13 C 0.0222(9) 0.7047(9) -0.0395(6)
C14 C -0.0388(9) 0.6360(9) -0.0877(6)
H10 H -0.0318 0.5724 -0.0828
C15 C -0.1072(9) 0.6585(10) -0.1409(6)
C16 C -0.1242(10) 0.7503(11) -0.1495(7)
H11 H -0.1747 0.7651 -0.1862
C17 C -0.0653(10) 0.8194(10) -0.1030(7)
C18 C 0.0046(9) 0.7939(9) -0.0502(6)
H12 H 0.0439 0.8422 -0.0186
C19 C -0.1704(12) 0.5839(12) -0.1913(7)
C20 C -0.0837(10) 0.9190(10) -0.1121(7)
F1A F 1.2330(9) 0.4690(8) 0.1716(4)
F2A F 1.1083(8) 0.4753(8) 0.2112(5)
F3A F 1.2273(7) 0.3890(7) 0.2449(4)
F4A F 1.1409(17) 0.0571(14) 0.1621(7)
F5A F 0.9910(10) 0.0256(10) 0.0899(9)
F6A F 1.1253(13) 0.0432(11) 0.0644(8)
O1A O 0.8679(6) 0.2428(6) -0.0740(4)
O2A O 0.9673(5) 0.3876(5) -0.0534(4)
N1A N 0.8094(7) 0.3780(6) -0.0164(4)
B1A B 0.9068(10) 0.3228(11) -0.0282(7)
C1A C 0.9086(8) 0.2536(9) -0.1236(5)
C2A C 0.9008(9) 0.1932(9) -0.1756(5)
H1A H 0.8606 0.1351 -0.1834
C3A C 0.9525(10) 0.2179(10) -0.2167(6)
H2A H 0.9478 0.1764 -0.2537
C4A C 1.0127(11) 0.3044(11) -0.2051(6)
H3A H 1.0483 0.3202 -0.2341
C5A C 1.0203(9) 0.3675(10) -0.1503(6)
H4A H 1.0603 0.4257 -0.1418
C6A C 0.9675(9) 0.3410(9) -0.1099(5)
C7A C 0.8098(9) 0.4700(9) -0.0129(6)
H5A H 0.8704 0.5041 -0.0154
C8A C 0.7275(9) 0.5183(9) -0.0060(5)
H6A H 0.7321 0.5841 -0.0021
C9A C 0.6369(8) 0.4681(8) -0.0048(5)
C10A C 0.6381(9) 0.3743(8) -0.0071(5)
H7A H 0.5783 0.3386 -0.0049
C11A C 0.7236(9) 0.3300(8) -0.0125(5)
H8A H 0.7222 0.2645 -0.0136
C12A C 0.5458(8) 0.5197(8) -0.0013(5)
H9A H 0.5524 0.5851 -0.0007
C13A C 0.9778(9) 0.2953(9) 0.0395(6)
C14A C 1.0388(9) 0.3640(9) 0.0877(6)
H10A H 1.0318 0.4276 0.0828
C15A C 1.1072(9) 0.3415(10) 0.1409(6)
C16A C 1.1242(10) 0.2497(11) 0.1495(7)
H11A H 1.1747 0.2349 0.1862
C17A C 1.0653(10) 0.1806(10) 0.1030(7)
C18A C 0.9954(9) 0.2061(9) 0.0502(6)
H12A H 0.9561 0.1578 0.0186
C19A C 1.1704(12) 0.4161(12) 0.1913(7)
C20A C 1.0837(10) 0.0810(10) 0.1121(7)
F10 F 0.5398(9) 0.5631(7) 0.6932(5)
F11 F 0.5785(9) 0.6816(9) 0.7614(5)
F12 F 0.4254(8) 0.6564(8) 0.7016(5)
F13 F 0.6590(10) 0.9957(9) 0.6873(6)
F14 F 0.4945(9) 0.9886(8) 0.6533(7)
F15 F 0.5868(11) 1.0081(8) 0.5914(6)
O3 O 0.4821(7) 0.5950(7) 0.4555(5)
O4 O 0.5570(7) 0.7362(7) 0.4411(4)
N2 N 0.6781(7) 0.6196(7) 0.4931(6)
B2 B 0.5698(13) 0.6731(12) 0.4858(8)
C21 C 0.4253(12) 0.6318(10) 0.4057(7)
C22 C 0.3206(12) 0.5881(11) 0.3659(7)
H13 H 0.2901 0.5323 0.3739
C23 C 0.2714(13) 0.6348(11) 0.3167(8)
H14 H 0.2078 0.6072 0.2868
C24 C 0.3120(13) 0.7218(11) 0.3092(8)
H15 H 0.2738 0.7541 0.2763
C25 C 0.4079(11) 0.7608(10) 0.3497(7)
H16 H 0.4362 0.8206 0.3466
C26 C 0.4604(13) 0.7077(11) 0.3950(7)
C27 C 0.7659(10) 0.6666(9) 0.4937(6)
H17 H 0.7652 0.7312 0.4908
C28 C 0.8584(9) 0.6255(9) 0.4985(5)
H18 H 0.9202 0.6627 0.5011
C29 C 0.8618(9) 0.5317(9) 0.4996(5)
C30 C 0.7697(9) 0.4823(10) 0.4996(6)
H19 H 0.7678 0.4173 0.5012
C31 C 0.6816(10) 0.5288(10) 0.4974(6)
H20 H 0.6204 0.4946 0.4990
C32 C 0.9552(8) 0.4818(8) 0.5016(5)
H21 H 0.9503 0.4175 0.5055
C33 C 0.5820(13) 0.7149(12) 0.5548(8)
C34 C 0.5557(11) 0.6640(12) 0.5996(7)
H22 H 0.5434 0.5985 0.5893
C35 C 0.5469(13) 0.7013(13) 0.6547(9)
C36 C 0.5632(13) 0.7981(13) 0.6714(9)
H23 H 0.5673 0.8250 0.7130
C37 C 0.5732(14) 0.8536(13) 0.6269(10)
C38 C 0.5837(13) 0.8074(12) 0.5669(8)
H24 H 0.5920 0.8444 0.5359
C39 C 0.5209(12) 0.6542(12) 0.7012(8)
C40 C 0.5809(14) 0.9605(14) 0.6383(9)
F10A F 1.4602(9) 0.4369(7) 0.3068(5)
F11A F 1.4215(9) 0.3184(9) 0.2386(5)
F12A F 1.5746(8) 0.3436(8) 0.2984(5)
F13A F 1.3410(10) 0.0043(9) 0.3127(6)
F14A F 1.5055(9) 0.0114(8) 0.3467(7)
F15A F 1.4132(11) -0.0081(8) 0.4086(6)
O3A O 1.5179(7) 0.4050(7) 0.5445(5)
O4A O 1.4430(7) 0.2638(7) 0.5589(4)
N2A N 1.3219(7) 0.3804(7) 0.5069(6)
B2A B 1.4302(13) 0.3269(12) 0.5142(8)
C21A C 1.5747(12) 0.3682(10) 0.5943(7)
C22A C 1.6794(12) 0.4119(11) 0.6341(7)
H13A H 1.7099 0.4677 0.6261
C23A C 1.7286(13) 0.3652(11) 0.6833(8)
H14A H 1.7922 0.3928 0.7132
C24A C 1.6880(13) 0.2782(11) 0.6908(8)
H15A H 1.7262 0.2459 0.7237
C25A C 1.5921(11) 0.2392(10) 0.6503(7)
H16A H 1.5638 0.1794 0.6534
C26A C 1.5396(13) 0.2923(11) 0.6050(7)
C27A C 1.2341(10) 0.3334(9) 0.5063(6)
H17A H 1.2348 0.2688 0.5092
C28A C 1.1416(9) 0.3745(9) 0.5015(5)
H18A H 1.0798 0.3373 0.4989
C29A C 1.1382(9) 0.4683(9) 0.5004(5)
C30A C 1.2303(9) 0.5177(10) 0.5004(6)
H19A H 1.2322 0.5827 0.4988
C31A C 1.3184(10) 0.4712(10) 0.5026(6)
H20A H 1.3796 0.5054 0.5010
C32A C 1.0448(8) 0.5182(8) 0.4984(5)
H21A H 1.0497 0.5825 0.4945
C33A C 1.4180(13) 0.2851(12) 0.4452(8)
C34A C 1.4443(11) 0.3360(12) 0.4004(7)
H22A H 1.4566 0.4015 0.4107
C35A C 1.4531(13) 0.2987(13) 0.3453(9)
C36A C 1.4368(13) 0.2019(13) 0.3286(9)
H23A H 1.4327 0.1750 0.2870
C37A C 1.4268(14) 0.1464(13) 0.3731(10)
C38A C 1.4163(13) 0.1926(12) 0.4331(8)
H24A H 1.4080 0.1556 0.4641
C39A C 1.4791(12) 0.3458(12) 0.2988(8)
C40A C 1.4191(14) 0.0395(14) 0.3617(9)
O5 O 0.5190(6) 0.7227(5) 0.1644(4)
O6 O 0.6924(6) 0.3864(6) 0.1676(3)
O7 O 0.7588(6) 0.2248(5) 0.1159(4)
O8 O 0.7168(6) 0.0953(5) 0.0050(4)
O9 O 0.6108(6) 0.1442(6) -0.1163(4)
C41 C 0.4206(8) 0.7288(9) 0.1750(6)
H25 H 0.4228 0.7074 0.2159
H26 H 0.3660 0.6891 0.1409
C42 C 0.5558(9) 0.6363(9) 0.1638(5)
C43 C 0.5049(9) 0.5573(8) 0.1700(5)
H27 H 0.4365 0.5587 0.1743
C44 C 0.5524(9) 0.4724(9) 0.1702(5)
H28 H 0.5157 0.4170 0.1740
C45 C 0.6514(9) 0.4706(9) 0.1648(5)
C46 C 0.7047(9) 0.5517(8) 0.1595(5)
H29 H 0.7743 0.5508 0.1571
C47 C 0.6577(9) 0.6335(9) 0.1575(5)
H30 H 0.6936 0.6882 0.1520
C48 C 0.7971(9) 0.3817(9) 0.1648(6)
H31 H 0.8459 0.4243 0.2001
H32 H 0.8023 0.4004 0.1244
C49 C 0.8252(8) 0.2833(8) 0.1696(6)
H33 H 0.8994 0.2791 0.1712
H34 H 0.8159 0.2635 0.2088
C50 C 0.7856(9) 0.1332(8) 0.1184(6)
H35 H 0.7819 0.1132 0.1587
H36 H 0.8583 0.1295 0.1167
C51 C 0.7120(9) 0.0703(9) 0.0639(6)
H37 H 0.7303 0.0055 0.0669
H38 H 0.6396 0.0734 0.0662
C52 C 0.6578(10) 0.0300(8) -0.0470(5)
H39 H 0.5836 0.0240 -0.0477
H40 H 0.6856 -0.0315 -0.0434
C53 C 0.6662(9) 0.0636(8) -0.1053(5)
H41 H 0.7409 0.0786 -0.1014
H42 H 0.6369 0.0143 -0.1416
C54 C 0.3964(9) 0.8259(9) 0.1758(6)
H43 H 0.4520 0.8653 0.2095
H44 H 0.3292 0.8325 0.1853
O5A O 0.4810(6) 0.2773(5) -0.1644(4)
O6A O 0.3076(6) 0.6136(6) -0.1676(3)
O7A O 0.2412(6) 0.7752(5) -0.1159(4)
O8A O 0.2832(6) 0.9047(5) -0.0050(4)
O9A O 0.3892(6) 0.8558(6) 0.1163(4)
C41A C 0.5794(8) 0.2712(9) -0.1750(6)
H25A H 0.5772 0.2926 -0.2159
H26A H 0.6340 0.3109 -0.1409
C42A C 0.4442(9) 0.3637(9) -0.1638(5)
C43A C 0.4951(9) 0.4427(8) -0.1700(5)
H27A H 0.5635 0.4413 -0.1743
C44A C 0.4476(9) 0.5276(9) -0.1702(5)
H28A H 0.4843 0.5830 -0.1740
C45A C 0.3486(9) 0.5294(9) -0.1648(5)
C46A C 0.2953(9) 0.4483(8) -0.1595(5)
H29A H 0.2257 0.4492 -0.1571
C47A C 0.3423(9) 0.3665(9) -0.1575(5)
H30A H 0.3064 0.3118 -0.1520
C48A C 0.2029(9) 0.6183(9) -0.1648(6)
H31A H 0.1541 0.5757 -0.2001
H32A H 0.1977 0.5996 -0.1244
C49A C 0.1748(8) 0.7167(8) -0.1696(6)
H33A H 0.1006 0.7209 -0.1712
H34A H 0.1841 0.7365 -0.2088
C50A C 0.2144(9) 0.8668(8) -0.1184(6)
H35A H 0.2181 0.8868 -0.1587
H36A H 0.1417 0.8705 -0.1167
C51A C 0.2880(9) 0.9297(9) -0.0639(6)
H37A H 0.2697 0.9945 -0.0669
H38A H 0.3604 0.9266 -0.0662
C52A C 0.3422(10) 0.9700(8) 0.0470(5)
H39A H 0.4164 0.9760 0.0477
H40A H 0.3144 1.0315 0.0434
C53A C 0.3338(9) 0.9364(8) 0.1053(5)
H41A H 0.2591 0.9214 0.1014
H42A H 0.3631 0.9857 0.1416
C54A C 0.6036(9) 0.1741(9) -0.1758(6)
H43A H 0.5480 0.1347 -0.2095
H44A H 0.6708 0.1675 -0.1853
O10 O 0.9894(7) 0.2868(6) 0.3376(4)
O11 O 0.8237(6) 0.6277(6) 0.3263(4)
O12 O 0.7520(6) 0.7908(6) 0.3748(4)
O13 O 0.7892(6) 0.9078(6) 0.4924(4)
O14 O 0.8901(6) 0.8516(6) 0.6115(4)
C55 C 1.0908(10) 0.2748(10) 0.3303(6)
H45 H 1.1450 0.3133 0.3653
H46 H 1.0939 0.2948 0.2899
C56 C 0.9527(9) 0.3754(9) 0.3369(5)
C57 C 1.0092(10) 0.4544(9) 0.3329(5)
H47 H 1.0794 0.4517 0.3320
C58 C 0.9643(9) 0.5376(9) 0.3302(5)
H48 H 1.0047 0.5920 0.3282
C59 C 0.8622(9) 0.5437(9) 0.3303(5)
C60 C 0.8065(9) 0.4624(9) 0.3337(5)
H49 H 0.7362 0.4642 0.3346
C61 C 0.8513(9) 0.3799(9) 0.3356(5)
H50 H 0.8106 0.3249 0.3361
C62 C 0.7195(10) 0.6328(9) 0.3259(6)
H51 H 0.7106 0.6133 0.3652
H52 H 0.6726 0.5908 0.2895
C63 C 0.6915(10) 0.7323(9) 0.3211(6)
H53 H 0.7040 0.7527 0.2829
H54 H 0.6162 0.7357 0.3171
C64 C 0.7101(10) 0.8765(8) 0.3811(6)
H55 H 0.6418 0.8670 0.3891
H56 H 0.6982 0.9040 0.3412
C65 C 0.7829(10) 0.9415(8) 0.4343(5)
H57 H 0.8533 0.9465 0.4285
H58 H 0.7569 1.0040 0.4348
C66 C 0.8578(10) 0.9696(10) 0.5428(5)
H59 H 0.8370 1.0337 0.5404
H60 H 0.9306 0.9686 0.5407
C67 C 0.8505(11) 0.9372(10) 0.6045(6)
H61 H 0.8904 0.9833 0.6408
H62 H 0.7763 0.9327 0.6041
C68 C 1.1102(11) 0.1778(9) 0.3309(7)
H63 H 1.1788 0.1686 0.3239
H64 H 1.0555 0.1398 0.2959
O10A O 1.0106(7) 0.7132(6) 0.6624(4)
O11A O 1.1763(6) 0.3723(6) 0.6737(4)
O12A O 1.2480(6) 0.2092(6) 0.6252(4)
O13A O 1.2108(6) 0.0922(6) 0.5076(4)
O14A O 1.1099(6) 0.1484(6) 0.3885(4)
C55A C 0.9092(10) 0.7252(10) 0.6697(6)
H45A H 0.8550 0.6867 0.6347
H46A H 0.9061 0.7052 0.7101
C56A C 1.0473(9) 0.6246(9) 0.6631(5)
C57A C 0.9908(10) 0.5456(9) 0.6671(5)
H47A H 0.9206 0.5483 0.6680
C58A C 1.0357(9) 0.4624(9) 0.6698(5)
H48A H 0.9953 0.4080 0.6718
C59A C 1.1378(9) 0.4563(9) 0.6697(5)
C60A C 1.1935(9) 0.5376(9) 0.6663(5)
H49A H 1.2638 0.5358 0.6654
C61A C 1.1487(9) 0.6201(9) 0.6644(5)
H50A H 1.1894 0.6751 0.6639
C62A C 1.2805(10) 0.3672(9) 0.6741(6)
H51A H 1.2894 0.3867 0.6348
H52A H 1.3274 0.4092 0.7105
C63A C 1.3085(10) 0.2677(9) 0.6789(6)
H53A H 1.2960 0.2473 0.7171
H54A H 1.3838 0.2643 0.6829
C64A C 1.2899(10) 0.1235(8) 0.6189(6)
H55A H 1.3582 0.1330 0.6109
H56A H 1.3018 0.0960 0.6588
C65A C 1.2171(10) 0.0585(8) 0.5657(5)
H57A H 1.1467 0.0535 0.5715
H58A H 1.2431 -0.0040 0.5652
C66A C 1.1422(10) 0.0304(10) 0.4572(5)
H59A H 1.1630 -0.0337 0.4596
H60A H 1.0694 0.0314 0.4593
C67A C 1.1495(11) 0.0628(10) 0.3955(6)
H61A H 1.1096 0.0167 0.3592
H62A H 1.2237 0.0673 0.3959
C68A C 0.8898(11) 0.8222(9) 0.6691(7)
H63A H 0.8212 0.8314 0.6761
H64A H 0.9445 0.8602 0.7041
C69 C 0.2813(10) 0.2013(9) -0.0240(6)
C70 C 0.3728(10) 0.1810(8) -0.0387(6)
H65 H 0.3693 0.1567 -0.0807
C71 C 0.4666(11) 0.1960(9) 0.0071(7)
H66 H 0.5287 0.1850 -0.0040
C72 C 0.4744(11) 0.2272(9) 0.0699(7)
H67 H 0.5398 0.2352 0.1023
C73 C 0.3826(12) 0.2455(9) 0.0823(7)
H68 H 0.3847 0.2684 0.1243
C74 C 0.2867(11) 0.2318(9) 0.0356(7)
H69 H 0.2245 0.2443 0.0460
C75 C 0.1779(10) 0.1822(10) -0.0781(7)
H70 H 0.1204 0.1687 -0.0608
H71 H 0.1827 0.1288 -0.1078
H72 H 0.1647 0.2369 -0.1003
C76 C 1.2053(12) 0.7856(10) 0.5155(7)
C77 C 1.1083(11) 0.8046(9) 0.5272(7)
H73 H 1.1035 0.8167 0.5690
C78 C 1.0232(11) 0.8045(9) 0.4755(7)
H74 H 0.9579 0.8152 0.4824
C79 C 1.0255(12) 0.7897(10) 0.4133(7)
H75 H 0.9644 0.7926 0.3789
C80 C 1.1164(12) 0.7713(10) 0.4034(7)
H76 H 1.1196 0.7579 0.3614
C81 C 1.2076(11) 0.7714(9) 0.4549(6)
H77 H 1.2723 0.7613 0.4469
C82 C 1.3037(13) 0.7832(11) 0.5705(8)
H78 H 1.3653 0.7865 0.5554
H79 H 1.3001 0.7254 0.5887
H80 H 1.3091 0.8362 0.6029
C83 C 0.7844(9) 0.0064(10) 0.2624(7)
C84 C 0.7031(12) -0.0475(8) 0.2165(7)
H81 H 0.7105 -0.1108 0.2044
C85 C 0.6110(10) -0.0086(10) 0.1883(6)
H82 H 0.5554 -0.0454 0.1569
C86 C 0.6002(10) 0.0841(11) 0.2060(7)
H83 H 0.5372 0.1107 0.1867
C87 C 0.6815(12) 0.1380(8) 0.2520(7)
H84 H 0.6741 0.2014 0.2641
C88 C 0.7736(10) 0.0992(10) 0.2802(6)
H85 H 0.8291 0.1360 0.3116
C89 C 0.8846(19) -0.0306(18) 0.2915(12)
H86 H 0.8729 -0.0975 0.2919
H87 H 0.9148 0.0003 0.3350
H88 H 0.9328 -0.0194 0.2670
F7? F -0.1877(11) 0.9199(13) -0.1434(9)
F8? F -0.0410(14) 0.9417(12) -0.1573(9)
F9? F -0.0570(19) 0.9764(15) -0.0640(8)
C90? C 0.681(2) 0.039(2) 0.2368(16)
C91? C 0.682(2) -0.053(2) 0.2115(14)
H89? H 0.6212 -0.0832 0.1806
C92? C 0.771(3) -0.0995(19) 0.2316(16)
H90? H 0.7715 -0.1621 0.2143
C93? C 0.860(2) -0.055(2) 0.2768(17)
H91? H 0.9210 -0.0867 0.2905
C94? C 0.860(2) 0.037(2) 0.3021(15)
H92? H 0.9203 0.0677 0.3330
C95? C 0.770(3) 0.0840(19) 0.2820(16)
H93? H 0.7700 0.1466 0.2993
C96? C 0.585(4) 0.081(4) 0.212(3)
H94? H 0.5539 0.0573 0.1672
H95? H 0.5999 0.1487 0.2169
H96? H 0.5364 0.0661 0.2355
loop_
_geom_bond_atom_site_label_1
_geom_bond_atom_site_label_2
_geom_bond_site_symmetry_1
_geom_bond_site_symmetry_2
F1 C19 1_555 1_555
F2 C19 1_555 1_555
F3 C19 1_555 1_555
F4 C20 1_555 1_555
F5 C20 1_555 1_555
F6 C20 1_555 1_555
F10 C39 1_555 1_555
F11 C39 1_555 1_555
F12 C39 1_555 1_555
F13 C40 1_555 1_555
F14 C40 1_555 1_555
F15 C40 1_555 1_555
O1 B1 1_555 1_555
O2 B1 1_555 1_555
O3 B2 1_555 1_555
O4 B2 1_555 1_555
O5 C41 1_555 1_555
O6 C45 1_555 1_555
O7 C49 1_555 1_555
O8 C51 1_555 1_555
O9 C53 1_555 1_555
O10 C55 1_555 1_555
O11 C59 1_555 1_555
O12 C63 1_555 1_555
O13 C65 1_555 1_555
O14 C67 1_555 1_555
N1 B1 1_555 1_555
N2 B2 1_555 1_555
B1 C13 1_555 1_555
B2 C33 1_555 1_555
C1 O1 1_555 1_555
C2 C1 1_555 1_555
H1 C2 1_555 1_555
C3 C2 1_555 1_555
H2 C3 1_555 1_555
C4 C3 1_555 1_555
H3 C4 1_555 1_555
C5 C4 1_555 1_555
H4 C5 1_555 1_555
C6 O2 1_555 1_555
C7 N1 1_555 1_555
H5 C7 1_555 1_555
C8 C7 1_555 1_555
H6 C8 1_555 1_555
C9 C8 1_555 1_555
C10 C9 1_555 1_555
H7 C10 1_555 1_555
C11 N1 1_555 1_555
H8 C11 1_555 1_555
C12 C9 1_555 1_555
H9 C12 1_555 1_555
C13 C14 1_555 1_555
C14 H10 1_555 1_555
C15 C14 1_555 1_555
C16 C15 1_555 1_555
H11 C16 1_555 1_555
C17 C16 1_555 1_555
C18 C13 1_555 1_555
H12 C18 1_555 1_555
C19 C15 1_555 1_555
C20 C17 1_555 1_555
C21 O3 1_555 1_555
C22 C21 1_555 1_555
H13 C22 1_555 1_555
C23 C22 1_555 1_555
H14 C23 1_555 1_555
C24 C23 1_555 1_555
H15 C24 1_555 1_555
C25 C24 1_555 1_555
H16 C25 1_555 1_555
C26 O4 1_555 1_555
C27 N2 1_555 1_555
H17 C27 1_555 1_555
C28 C27 1_555 1_555
H18 C28 1_555 1_555
C29 C28 1_555 1_555
C30 C29 1_555 1_555
H19 C30 1_555 1_555
C31 N2 1_555 1_555
H20 C31 1_555 1_555
C32 C29 1_555 1_555
H21 C32 1_555 1_555
C33 C34 1_555 1_555
C34 H22 1_555 1_555
C35 C34 1_555 1_555
C36 C35 1_555 1_555
H23 C36 1_555 1_555
C37 C36 1_555 1_555
C38 C33 1_555 1_555
H24 C38 1_555 1_555
C39 C35 1_555 1_555
C40 C37 1_555 1_555
C41 H25 1_555 1_555
H26 C41 1_555 1_555
C42 O5 1_555 1_555
C43 C42 1_555 1_555
H27 C43 1_555 1_555
C44 C43 1_555 1_555
H28 C44 1_555 1_555
C45 C44 1_555 1_555
C46 C45 1_555 1_555
H29 C46 1_555 1_555
C47 C42 1_555 1_555
H30 C47 1_555 1_555
C48 O6 1_555 1_555
H31 C48 1_555 1_555
H32 C48 1_555 1_555
C49 C48 1_555 1_555
H33 C49 1_555 1_555
H34 C49 1_555 1_555
C50 O7 1_555 1_555
H35 C50 1_555 1_555
H36 C50 1_555 1_555
C51 C50 1_555 1_555
H37 C51 1_555 1_555
H38 C51 1_555 1_555
C52 O8 1_555 1_555
H39 C52 1_555 1_555
H40 C52 1_555 1_555
C53 C52 1_555 1_555
H41 C53 1_555 1_555
H42 C53 1_555 1_555
C54 C41 1_555 1_555
H43 C54 1_555 1_555
H44 C54 1_555 1_555
C55 H45 1_555 1_555
H46 C55 1_555 1_555
C56 O10 1_555 1_555
C57 C56 1_555 1_555
H47 C57 1_555 1_555
C58 C57 1_555 1_555
H48 C58 1_555 1_555
C59 C58 1_555 1_555
C60 C59 1_555 1_555
H49 C60 1_555 1_555
C61 C56 1_555 1_555
H50 C61 1_555 1_555
C62 O11 1_555 1_555
H51 C62 1_555 1_555
H52 C62 1_555 1_555
C63 C62 1_555 1_555
H53 C63 1_555 1_555
H54 C63 1_555 1_555
C64 O12 1_555 1_555
H55 C64 1_555 1_555
H56 C64 1_555 1_555
C65 C64 1_555 1_555
H57 C65 1_555 1_555
H58 C65 1_555 1_555
C66 O13 1_555 1_555
H59 C66 1_555 1_555
H60 C66 1_555 1_555
C67 C66 1_555 1_555
H61 C67 1_555 1_555
H62 C67 1_555 1_555
C68 C55 1_555 1_555
H63 C68 1_555 1_555
H64 C68 1_555 1_555
C69 C70 1_555 1_555
C70 H65 1_555 1_555
C71 C70 1_555 1_555
H66 C71 1_555 1_555
C72 C71 1_555 1_555
H67 C72 1_555 1_555
C73 C72 1_555 1_555
H68 C73 1_555 1_555
C74 C69 1_555 1_555
H69 C74 1_555 1_555
C75 C69 1_555 1_555
H70 C75 1_555 1_555
H71 C75 1_555 1_555
H72 C75 1_555 1_555
C76 C77 1_555 1_555
C77 H73 1_555 1_555
C78 C77 1_555 1_555
H74 C78 1_555 1_555
C79 C78 1_555 1_555
H75 C79 1_555 1_555
C80 C79 1_555 1_555
H76 C80 1_555 1_555
C81 C76 1_555 1_555
H77 C81 1_555 1_555
C82 C76 1_555 1_555
H78 C82 1_555 1_555
H79 C82 1_555 1_555
H80 C82 1_555 1_555
C83 C84 1_555 1_555
C84 H81 1_555 1_555
C85 C84 1_555 1_555
H82 C85 1_555 1_555
C86 C85 1_555 1_555
H83 C86 1_555 1_555
C87 C86 1_555 1_555
H84 C87 1_555 1_555
C88 C83 1_555 1_555
H85 C88 1_555 1_555
C89 C83 1_555 1_555
H86 C89 1_555 1_555
H87 C89 1_555 1_555
H88 C89 1_555 1_555
F1A C19A 1_555 1_555
F2A C19A 1_555 1_555
F3A C19A 1_555 1_555
F4A C20A 1_555 1_555
F5A C20A 1_555 1_555
F6A C20A 1_555 1_555
F10A C39A 1_555 1_555
F11A C39A 1_555 1_555
F12A C39A 1_555 1_555
F13A C40A 1_555 1_555
F14A C40A 1_555 1_555
F15A C40A 1_555 1_555
O1A B1A 1_555 1_555
O2A B1A 1_555 1_555
O3A B2A 1_555 1_555
O4A B2A 1_555 1_555
O5A C41A 1_555 1_555
O6A C45A 1_555 1_555
O7A C49A 1_555 1_555
O8A C51A 1_555 1_555
O9A C54 1_555 1_555
O10A C55A 1_555 1_555
O11A C59A 1_555 1_555
O12A C63A 1_555 1_555
O13A C65A 1_555 1_555
O14A C68 1_555 1_555
N1A B1A 1_555 1_555
N2A B2A 1_555 1_555
B1A C13A 1_555 1_555
B2A C33A 1_555 1_555
C1A O1A 1_555 1_555
C2A C1A 1_555 1_555
H1A C2A 1_555 1_555
C3A C2A 1_555 1_555
H2A C3A 1_555 1_555
C4A C3A 1_555 1_555
H3A C4A 1_555 1_555
C5A C4A 1_555 1_555
H4A C5A 1_555 1_555
C6A O2A 1_555 1_555
C7A N1A 1_555 1_555
H5A C7A 1_555 1_555
C8A C7A 1_555 1_555
H6A C8A 1_555 1_555
C9A C8A 1_555 1_555
C10A C9A 1_555 1_555
H7A C10A 1_555 1_555
C11A N1A 1_555 1_555
H8A C11A 1_555 1_555
C12A C12 1_555 1_555
H9A C12A 1_555 1_555
C13A C14A 1_555 1_555
C14A H10A 1_555 1_555
C15A C14A 1_555 1_555
C16A C15A 1_555 1_555
H11A C16A 1_555 1_555
C17A C16A 1_555 1_555
C18A C13A 1_555 1_555
H12A C18A 1_555 1_555
C19A C15A 1_555 1_555
C20A C17A 1_555 1_555
C21A O3A 1_555 1_555
C22A C21A 1_555 1_555
H13A C22A 1_555 1_555
C23A C22A 1_555 1_555
H14A C23A 1_555 1_555
C24A C23A 1_555 1_555
H15A C24A 1_555 1_555
C25A C24A 1_555 1_555
H16A C25A 1_555 1_555
C26A O4A 1_555 1_555
C27A N2A 1_555 1_555
H17A C27A 1_555 1_555
C28A C27A 1_555 1_555
H18A C28A 1_555 1_555
C29A C28A 1_555 1_555
C30A C29A 1_555 1_555
H19A C30A 1_555 1_555
C31A N2A 1_555 1_555
H20A C31A 1_555 1_555
C32A C32 1_555 1_555
H21A C32A 1_555 1_555
C33A C34A 1_555 1_555
C34A H22A 1_555 1_555
C35A C34A 1_555 1_555
C36A C35A 1_555 1_555
H23A C36A 1_555 1_555
C37A C36A 1_555 1_555
C38A C33A 1_555 1_555
H24A C38A 1_555 1_555
C39A C35A 1_555 1_555
C40A C37A 1_555 1_555
C41A H25A 1_555 1_555
H26A C41A 1_555 1_555
C42A O5A 1_555 1_555
C43A C42A 1_555 1_555
H27A C43A 1_555 1_555
C44A C43A 1_555 1_555
H28A C44A 1_555 1_555
C45A C44A 1_555 1_555
C46A C45A 1_555 1_555
H29A C46A 1_555 1_555
C47A C42A 1_555 1_555
H30A C47A 1_555 1_555
C48A O6A 1_555 1_555
H31A C48A 1_555 1_555
H32A C48A 1_555 1_555
C49A C48A 1_555 1_555
H33A C49A 1_555 1_555
H34A C49A 1_555 1_555
C50A O7A 1_555 1_555
H35A C50A 1_555 1_555
H36A C50A 1_555 1_555
C51A C50A 1_555 1_555
H37A C51A 1_555 1_555
H38A C51A 1_555 1_555
C52A O8A 1_555 1_555
H39A C52A 1_555 1_555
H40A C52A 1_555 1_555
C53A O9A 1_555 1_555
H41A C53A 1_555 1_555
H42A C53A 1_555 1_555
C54A O9 1_555 1_555
H43A C54A 1_555 1_555
H44A C54A 1_555 1_555
C55A H45A 1_555 1_555
H46A C55A 1_555 1_555
C56A O10A 1_555 1_555
C57A C56A 1_555 1_555
H47A C57A 1_555 1_555
C58A C57A 1_555 1_555
H48A C58A 1_555 1_555
C59A C58A 1_555 1_555
C60A C59A 1_555 1_555
H49A C60A 1_555 1_555
C61A C56A 1_555 1_555
H50A C61A 1_555 1_555
C62A O11A 1_555 1_555
H51A C62A 1_555 1_555
H52A C62A 1_555 1_555
C63A C62A 1_555 1_555
H53A C63A 1_555 1_555
H54A C63A 1_555 1_555
C64A O12A 1_555 1_555
H55A C64A 1_555 1_555
H56A C64A 1_555 1_555
C65A C64A 1_555 1_555
H57A C65A 1_555 1_555
H58A C65A 1_555 1_555
C66A O13A 1_555 1_555
H59A C66A 1_555 1_555
H60A C66A 1_555 1_555
C67A O14A 1_555 1_555
H61A C67A 1_555 1_555
H62A C67A 1_555 1_555
C68A O14 1_555 1_555
H63A C68A 1_555 1_555
H64A C68A 1_555 1_555
C1 C6 1_555 1_555
C5 C6 1_555 1_555
C10 C11 1_555 1_555
C17 C18 1_555 1_555
C21 C26 1_555 1_555
C25 C26 1_555 1_555
C30 C31 1_555 1_555
C37 C38 1_555 1_555
C46 C47 1_555 1_555
C60 C61 1_555 1_555
C73 C74 1_555 1_555
C80 C81 1_555 1_555
C87 C88 1_555 1_555
C1A C6A 1_555 1_555
C5A C6A 1_555 1_555
C9A C12A 1_555 1_555
C10A C11A 1_555 1_555
C17A C18A 1_555 1_555
C21A C26A 1_555 1_555
C25A C26A 1_555 1_555
C29A C32A 1_555 1_555
C30A C31A 1_555 1_555
C37A C38A 1_555 1_555
C41A C54A 1_555 1_555
C46A C47A 1_555 1_555
C52A C53A 1_555 1_555
C55A C68A 1_555 1_555
C60A C61A 1_555 1_555
C66A C67A 1_555 1_555

#END
