
#######################################################################
#
#                 Cambridge Crystallographic Data Centre
#                                CCDC 
#
#######################################################################
#
# If this CIF has been generated from an entry in the Cambridge 
# Structural Database, then it will include bibliographic, chemical, 
# crystal, experimental, refinement or atomic coordinate data resulting 
# from the CCDC's data processing and validation procedures.
#
#######################################################################

data_AFITAL
_chemical_formula_moiety         'C38 H22 B2 F12 N2 O4,C28 H40 O10,C7 H8'
_chemical_name_systematic        
"[2]-(1,1'-bis(2-(3,5-bis(trifluoromethyl)phenyl)1,3,2-benzodioxaborol-2-yl)-4,4'-bipyridinium)-(2,5,8,11,14,16,19,22,25,28-deca-oxa-1,15(1,2)-dibenzenacyclo-octacosaphane)-pseudorotaxane toluene solvate"
_symmetry_cell_setting           monoclinic
_symmetry_space_group_name_H-M   'P 21/c'
_symmetry_Int_Tables_number      14
_space_group_name_Hall           '-P 2ybc'
loop_
_symmetry_equiv_pos_site_id
_symmetry_equiv_pos_as_xyz
1 x,y,z
2 -x,1/2+y,1/2-z
3 -x,-y,-z
4 x,1/2-y,1/2+z
_cell_length_a                   14.0418(4)
_cell_length_b                   22.0219(6)
_cell_length_c                   22.2997(6)
_cell_angle_alpha                90
_cell_angle_beta                 96.386(3)
_cell_angle_gamma                90
_cell_volume                     6852.89
_exptl_crystal_colour            yellow
_exptl_crystal_description       prismatic
_cell_formula_units_Z            4
loop_
_atom_site_label
_atom_site_type_symbol
_atom_site_fract_x
_atom_site_fract_y
_atom_site_fract_z
F1 F 0.2323(3) 0.1309(2) 0.0577(2)
F2 F 0.0902(3) 0.15643(15) 0.06295(15)
F3 F 0.1204(3) 0.09536(16) -0.00224(13)
F4 F 0.1018(2) -0.11849(13) 0.03892(12)
F5 F 0.0422(3) -0.13999(16) 0.11935(18)
F6 F 0.1917(3) -0.14250(14) 0.11778(16)
F7 F -0.7354(2) 0.30791(16) 0.42194(15)
F8 F -0.6593(3) 0.22732(14) 0.40978(16)
F9 F -0.6385(2) 0.27541(16) 0.49352(13)
F10 F -0.3029(2) 0.41440(18) 0.48330(15)
F11 F -0.4276(2) 0.45017(15) 0.51664(12)
F12 F -0.3740(3) 0.48934(15) 0.43958(14)
O1 O 0.10198(18) -0.01580(12) 0.30540(12)
O2 O 0.20255(18) 0.06952(12) 0.30165(12)
O3 O -0.42242(18) 0.38951(12) 0.23147(11)
O4 O -0.53377(18) 0.30911(12) 0.22032(11)
N1 N 0.0273(2) 0.08471(14) 0.27569(14)
N2 N -0.3643(2) 0.28586(14) 0.26197(13)
B1 B 0.1178(3) 0.0390(2) 0.2704(2)
B2 B -0.4543(3) 0.3350(2) 0.2607(2)
C1 C 0.1596(3) -0.00924(17) 0.35857(17)
C2 C 0.1626(3) -0.04513(18) 0.40881(18)
H1 H 0.1216 -0.0793 0.4100
C3 C 0.2277(3) -0.0297(2) 0.45806(19)
H2 H 0.2321 -0.0542 0.4933
C4 C 0.2860(3) 0.0206(2) 0.45648(19)
H3 H 0.3299 0.0301 0.4907
C5 C 0.2818(3) 0.05778(19) 0.40548(18)
H4 H 0.3207 0.0930 0.4046
C6 C 0.2188(3) 0.04128(17) 0.35668(17)
C7 C 0.1235(3) 0.02573(18) 0.20037(18)
C8 C 0.1336(3) 0.07142(19) 0.15823(18)
H5 H 0.1379 0.1125 0.1714
C9 C 0.1374(3) 0.05861(19) 0.09764(18)
C10 C 0.1311(3) -0.0005(2) 0.0772(2)
H6 H 0.1340 -0.0095 0.0357
C11 C 0.1205(3) -0.04639(19) 0.11811(19)
C12 C 0.1170(3) -0.03348(19) 0.17870(19)
H7 H 0.1099 -0.0659 0.2060
C13 C 0.1478(4) 0.1094(2) 0.0545(2)
C14 C 0.1120(4) -0.1110(2) 0.0979(2)
C15 C 0.0405(3) 0.14445(18) 0.28453(19)
H8 H 0.1039 0.1598 0.2917
C16 C -0.0353(3) 0.18399(19) 0.2835(2)
H9 H -0.0237 0.2261 0.2900
C17 C -0.1289(3) 0.16278(17) 0.27299(16)
C18 C -0.1411(3) 0.10053(18) 0.26600(17)
H10 H -0.2038 0.0837 0.2603
C19 C -0.0626(3) 0.06326(18) 0.26739(17)
H11 H -0.0723 0.0208 0.2623
C20 C -0.2112(3) 0.20533(17) 0.26846(16)
C21 C -0.1991(3) 0.26688(18) 0.25906(19)
H12 H -0.1370 0.2823 0.2547
C22 C -0.2756(3) 0.30593(19) 0.25594(18)
H13 H -0.2657 0.3480 0.2494
C23 C -0.3786(3) 0.22671(18) 0.27016(17)
H14 H -0.4416 0.2126 0.2740
C24 C -0.3044(3) 0.18547(19) 0.27319(17)
H15 H -0.3168 0.1435 0.2785
C25 C -0.4628(3) 0.38513(17) 0.17306(17)
C26 C -0.4432(3) 0.41987(19) 0.12468(19)
H16 H -0.3958 0.4508 0.1290
C27 C -0.4956(3) 0.4081(2) 0.0690(2)
H17 H -0.4842 0.4317 0.0349
C28 C -0.5639(3) 0.3626(2) 0.06268(19)
H18 H -0.5988 0.3556 0.0243
C29 C -0.5824(3) 0.32666(19) 0.11203(18)
H19 H -0.6292 0.2953 0.1079
C30 C -0.5299(3) 0.33868(17) 0.16665(17)
C31 C -0.4787(3) 0.34410(17) 0.32868(17)
C32 C -0.5505(3) 0.31095(18) 0.35183(18)
H20 H -0.5863 0.2824 0.3266
C33 C -0.5712(3) 0.31851(19) 0.41101(18)
C34 C -0.5210(3) 0.36035(19) 0.44805(18)
H21 H -0.5356 0.3662 0.4882
C35 C -0.4489(3) 0.39389(19) 0.42604(18)
C36 C -0.4276(3) 0.38542(18) 0.36702(18)
H22 H -0.3773 0.4082 0.3527
C37 C -0.6498(3) 0.2823(2) 0.4339(2)
C38 C -0.3890(4) 0.4368(2) 0.4660(2)
O5 O -0.37644(19) 0.16019(12) 0.12390(13)
O6 O -0.5233(2) 0.12349(14) 0.19934(15)
O7 O -0.4648(4) 0.08722(19) 0.31331(17)
O8 O -0.3964(2) 0.17998(15) 0.39778(14)
O9 O -0.2000(2) 0.17041(13) 0.44324(15)
O10 O -0.1258(2) 0.06772(13) 0.42080(15)
O11 O -0.2077(2) -0.01921(16) 0.33287(17)
O12 O -0.2752(4) -0.0400(3) 0.2009(3)
O13 O -0.1974(5) 0.0039(3) 0.0753(2)
O15 O -0.2055(2) 0.11929(13) 0.12283(14)
C39 C -0.3087(3) 0.20293(18) 0.11586(17)
C40 C -0.2148(3) 0.18052(18) 0.11546(17)
C41 C -0.1409(3) 0.2204(2) 0.10902(19)
H23 H -0.0772 0.2056 0.1095
C42 C -0.1594(3) 0.2817(2) 0.1018(2)
H24 H -0.1083 0.3090 0.0973
C43 C -0.2516(3) 0.3036(2) 0.1012(2)
H25 H -0.2639 0.3458 0.0960
C44 C -0.3261(3) 0.26398(18) 0.10829(18)
H26 H -0.3895 0.2791 0.1079
C45 C -0.4734(3) 0.18046(19) 0.11954(19)
H27 H -0.4947 0.1942 0.0779
H28 H -0.4796 0.2148 0.1475
C46 C -0.5326(3) 0.1280(2) 0.1359(2)
H29 H -0.6005 0.1343 0.1202
H30 H -0.5100 0.0901 0.1182
C47 C -0.5570(4) 0.0697(2) 0.2223(3)
H31 H -0.5182 0.0352 0.2099
H32 H -0.6242 0.0630 0.2048
C48 C -0.5527(5) 0.0709(3) 0.2861(3)
H33 H -0.6011 0.0999 0.2979
H34 H -0.5691 0.0301 0.3006
C49 C -0.4612(6) 0.0846(4) 0.3764(3)
H35 H -0.5241 0.0979 0.3877
H36 H -0.4526 0.0416 0.3888
C50 C -0.3923(6) 0.1177(3) 0.4086(3)
H37 H -0.3290 0.1026 0.3997
H38 H -0.3968 0.1108 0.4521
C51 C -0.3517(4) 0.2164(2) 0.4449(2)
H39 H -0.3588 0.1964 0.4839
H40 H -0.3854 0.2559 0.4446
C52 C -0.2473(4) 0.2278(2) 0.4409(2)
H41 H -0.2386 0.2489 0.4027
H42 H -0.2203 0.2537 0.4750
C53 C -0.1020(3) 0.1704(2) 0.4457(2)
C54 C -0.0439(4) 0.2203(2) 0.4576(2)
H43 H -0.0714 0.2590 0.4633
C55 C 0.0551(4) 0.2140(3) 0.4612(3)
H44 H 0.0951 0.2486 0.4689
C56 C 0.0955(4) 0.1581(2) 0.4537(3)
H45 H 0.1633 0.1538 0.4572
C57 C 0.0372(3) 0.1079(2) 0.4411(2)
H46 H 0.0653 0.0693 0.4359
C58 C -0.0609(3) 0.11335(19) 0.43603(19)
C59 C -0.0888(3) 0.00819(18) 0.4136(2)
H47 H -0.0554 -0.0065 0.4523
H48 H -0.0426 0.0085 0.3831
C60 C -0.1718(4) -0.0322(2) 0.3934(2)
H49 H -0.1512 -0.0752 0.3968
H50 H -0.2231 -0.0261 0.4199
C61 C -0.2913(4) -0.0541(3) 0.3079(4)
H51 H -0.3437 -0.0504 0.3339
H52 H -0.2747 -0.0976 0.3044
C62 C -0.3227(5) -0.0253(5) 0.2424(3)
H53 H -0.3904 -0.0365 0.2302
H54 H -0.3203 0.0195 0.2464
C63 C -0.3137(6) -0.0233(4) 0.1438(3)
H55 H -0.3228 0.0213 0.1424
H56 H -0.3773 -0.0426 0.1346
C64 C -0.2541(6) -0.0405(4) 0.0997(6)
H57 H -0.2105 -0.0727 0.1175
H58 H -0.2954 -0.0592 0.0658
C65 C -0.1294(11) 0.0253(7) 0.1222(6)
H59 H -0.0677 0.0038 0.1214
H60 H -0.1527 0.0182 0.1619
C67 C -0.1162(3) 0.09285(19) 0.1121(2)
H63 H -0.0633 0.1092 0.1405
H64 H -0.1022 0.1009 0.0703
C68 C 0.1989(4) 0.2592(3) 0.2213(4)
C69 C 0.1691(4) 0.2884(3) 0.2696(3)
H65 H 0.1952 0.2784 0.3095
C70 C 0.0946(6) 0.3363(4) 0.2585(5)
H66 H 0.0739 0.3588 0.2910
C71 C 0.0569(5) 0.3470(4) 0.2009(6)
H67 H 0.0083 0.3767 0.1919
C72 C 0.0920(7) 0.3128(5) 0.1545(5)
H68 H 0.0650 0.3204 0.1143
C73 C 0.1575(6) 0.2725(4) 0.1629(4)
H69 H 0.1781 0.2516 0.1293
C74 C 0.2726(5) 0.2141(3) 0.2272(5)
H70 H 0.3352 0.2339 0.2349
H71 H 0.2699 0.1904 0.1899
H72 H 0.2630 0.1870 0.2609
O14? O -0.1611(6) -0.0055(4) 0.1443(3)
C66? C -0.1307(16) 0.0264(10) 0.0956(7)
H61? H -0.1792 0.0226 0.0601
H62? H -0.0698 0.0089 0.0850
loop_
_geom_bond_atom_site_label_1
_geom_bond_atom_site_label_2
_geom_bond_site_symmetry_1
_geom_bond_site_symmetry_2
F1 C13 1_555 1_555
F2 C13 1_555 1_555
F3 C13 1_555 1_555
F4 C14 1_555 1_555
F5 C14 1_555 1_555
F6 C14 1_555 1_555
F7 C37 1_555 1_555
F8 C37 1_555 1_555
F9 C37 1_555 1_555
F10 C38 1_555 1_555
F11 C38 1_555 1_555
F12 C38 1_555 1_555
O1 B1 1_555 1_555
O2 B1 1_555 1_555
O3 B2 1_555 1_555
O4 B2 1_555 1_555
N1 B1 1_555 1_555
N2 B2 1_555 1_555
B1 C7 1_555 1_555
B2 C31 1_555 1_555
C1 O1 1_555 1_555
C2 C1 1_555 1_555
H1 C2 1_555 1_555
C3 C2 1_555 1_555
H2 C3 1_555 1_555
C4 C3 1_555 1_555
H3 C4 1_555 1_555
C5 C4 1_555 1_555
H4 C5 1_555 1_555
C6 O2 1_555 1_555
C7 C8 1_555 1_555
C8 H5 1_555 1_555
C9 C8 1_555 1_555
C10 C9 1_555 1_555
H6 C10 1_555 1_555
C11 C10 1_555 1_555
C12 C7 1_555 1_555
H7 C12 1_555 1_555
C13 C9 1_555 1_555
C14 C11 1_555 1_555
C15 N1 1_555 1_555
H8 C15 1_555 1_555
C16 C15 1_555 1_555
H9 C16 1_555 1_555
C17 C16 1_555 1_555
C18 C17 1_555 1_555
H10 C18 1_555 1_555
C19 N1 1_555 1_555
H11 C19 1_555 1_555
C20 C17 1_555 1_555
C21 C20 1_555 1_555
H12 C21 1_555 1_555
C22 N2 1_555 1_555
H13 C22 1_555 1_555
C23 N2 1_555 1_555
H14 C23 1_555 1_555
C24 C20 1_555 1_555
H15 C24 1_555 1_555
C25 O3 1_555 1_555
C26 C25 1_555 1_555
H16 C26 1_555 1_555
C27 C26 1_555 1_555
H17 C27 1_555 1_555
C28 C27 1_555 1_555
H18 C28 1_555 1_555
C29 C28 1_555 1_555
H19 C29 1_555 1_555
C30 O4 1_555 1_555
C31 C32 1_555 1_555
C32 H20 1_555 1_555
C33 C32 1_555 1_555
C34 C33 1_555 1_555
H21 C34 1_555 1_555
C35 C34 1_555 1_555
C36 C31 1_555 1_555
H22 C36 1_555 1_555
C37 C33 1_555 1_555
C38 C35 1_555 1_555
O5 C39 1_555 1_555
O6 C46 1_555 1_555
O7 C48 1_555 1_555
O8 C50 1_555 1_555
O9 C52 1_555 1_555
O10 C58 1_555 1_555
O11 C60 1_555 1_555
O12 C62 1_555 1_555
O13 C64 1_555 1_555
O15 C40 1_555 1_555
C39 C40 1_555 1_555
C40 C41 1_555 1_555
C41 H23 1_555 1_555
C42 C41 1_555 1_555
H24 C42 1_555 1_555
C43 C42 1_555 1_555
H25 C43 1_555 1_555
C44 C39 1_555 1_555
H26 C44 1_555 1_555
C45 O5 1_555 1_555
H27 C45 1_555 1_555
H28 C45 1_555 1_555
C46 C45 1_555 1_555
H29 C46 1_555 1_555
H30 C46 1_555 1_555
C47 O6 1_555 1_555
H31 C47 1_555 1_555
H32 C47 1_555 1_555
C48 C47 1_555 1_555
H33 C48 1_555 1_555
H34 C48 1_555 1_555
C49 O7 1_555 1_555
H35 C49 1_555 1_555
H36 C49 1_555 1_555
C50 C49 1_555 1_555
H37 C50 1_555 1_555
H38 C50 1_555 1_555
C51 O8 1_555 1_555
H39 C51 1_555 1_555
H40 C51 1_555 1_555
C52 C51 1_555 1_555
H41 C52 1_555 1_555
H42 C52 1_555 1_555
C53 O9 1_555 1_555
C54 C53 1_555 1_555
H43 C54 1_555 1_555
C55 C54 1_555 1_555
H44 C55 1_555 1_555
C56 C55 1_555 1_555
H45 C56 1_555 1_555
C57 C56 1_555 1_555
H46 C57 1_555 1_555
C58 C53 1_555 1_555
C59 O10 1_555 1_555
H47 C59 1_555 1_555
H48 C59 1_555 1_555
C60 C59 1_555 1_555
H49 C60 1_555 1_555
H50 C60 1_555 1_555
C61 O11 1_555 1_555
H51 C61 1_555 1_555
H52 C61 1_555 1_555
C62 C61 1_555 1_555
H53 C62 1_555 1_555
H54 C62 1_555 1_555
C63 O12 1_555 1_555
H55 C63 1_555 1_555
H56 C63 1_555 1_555
C64 C63 1_555 1_555
H57 C64 1_555 1_555
H58 C64 1_555 1_555
C65 O13 1_555 1_555
H59 C65 1_555 1_555
H60 C65 1_555 1_555
C67 O15 1_555 1_555
H63 C67 1_555 1_555
H64 C67 1_555 1_555
C68 C69 1_555 1_555
C69 H65 1_555 1_555
C70 C69 1_555 1_555
H66 C70 1_555 1_555
C71 C70 1_555 1_555
H67 C71 1_555 1_555
C72 C71 1_555 1_555
H68 C72 1_555 1_555
C73 C68 1_555 1_555
H69 C73 1_555 1_555
C74 C68 1_555 1_555
H70 C74 1_555 1_555
H71 C74 1_555 1_555
H72 C74 1_555 1_555
C1 C6 1_555 1_555
C5 C6 1_555 1_555
C11 C12 1_555 1_555
C18 C19 1_555 1_555
C21 C22 1_555 1_555
C23 C24 1_555 1_555
C25 C30 1_555 1_555
C29 C30 1_555 1_555
C35 C36 1_555 1_555
C43 C44 1_555 1_555
C57 C58 1_555 1_555
C65 C67 1_555 1_555
C72 C73 1_555 1_555

#END
