
#######################################################################
#
#                 Cambridge Crystallographic Data Centre
#                                CCDC 
#
#######################################################################
#
# If this CIF has been generated from an entry in the Cambridge 
# Structural Database, then it will include bibliographic, chemical, 
# crystal, experimental, refinement or atomic coordinate data resulting 
# from the CCDC's data processing and validation procedures.
#
#######################################################################

data_AFITUH
_chemical_formula_moiety         'C73 H16 N2 O2,2.5(C1 S2)'
_chemical_name_systematic        
'bis(2-hydroxy-5-methylphenyl)-diaza-C59fullerene carbon disulfide solvate'
_symmetry_cell_setting           monoclinic
_symmetry_space_group_name_H-M   'P 21/n'
_symmetry_Int_Tables_number      14
_space_group_name_Hall           '-P 2yn'
loop_
_symmetry_equiv_pos_site_id
_symmetry_equiv_pos_as_xyz
1 x,y,z
2 1/2-x,1/2+y,1/2-z
3 -x,-y,-z
4 1/2+x,1/2-y,1/2+z
_cell_length_a                   10.4065(3)
_cell_length_b                   17.3240(6)
_cell_length_c                   24.9685(9)
_cell_angle_alpha                90
_cell_angle_beta                 99.208(3)
_cell_angle_gamma                90
_cell_volume                     4443.37
_cell_formula_units_Z            4
loop_
_atom_site_label
_atom_site_type_symbol
_atom_site_fract_x
_atom_site_fract_y
_atom_site_fract_z
C1 C 0.4843(4) 0.8432(2) 0.52220(16)
C2 C 0.4126(4) 0.8456(3) 0.56437(17)
H1 H 0.4053 0.8915 0.5829
C3 C 0.3526(4) 0.7804(3) 0.57872(17)
H2 H 0.3033 0.7829 0.6066
C4 C 0.3632(4) 0.7106(2) 0.55270(17)
C5 C 0.4319(3) 0.7106(2) 0.50898(16)
H3 H 0.4376 0.6648 0.4901
C6 C 0.4915(3) 0.7754(2) 0.49260(15)
C7 C 0.3048(4) 0.6386(2) 0.57097(18)
H4 H 0.3602 0.6183 0.6022
H5 H 0.2956 0.6011 0.5423
H6 H 0.2207 0.6500 0.5802
C8 C 0.3920(4) 0.9737(2) 0.36138(16)
C9 C 0.4089(3) 0.9116(2) 0.32792(16)
C10 C 0.3402(3) 0.9128(2) 0.27535(16)
H7 H 0.3518 0.8725 0.2520
C11 C 0.2542(3) 0.9727(2) 0.25648(17)
C12 C 0.2398(4) 1.0325(2) 0.29115(19)
H8 H 0.1828 1.0726 0.2794
C13 C 0.3084(4) 1.0338(2) 0.34279(18)
H9 H 0.2990 1.0753 0.3655
C14 C 0.1776(4) 0.9685(3) 0.19956(17)
H10 H 0.0971 0.9417 0.2004
H11 H 0.2275 0.9413 0.1764
H12 H 0.1596 1.0198 0.1858
C15 C 0.5532(3) 0.7764(2) 0.44033(15)
C16 C 0.5029(3) 0.8452(2) 0.34959(16)
C17 C 0.6417(3) 0.8767(2) 0.35877(16)
C18 C 0.7237(3) 0.8682(2) 0.41059(17)
C19 C 0.6897(3) 0.8122(2) 0.44857(16)
C20 C 0.5460(4) 0.6610(2) 0.37079(18)
C21 C 0.5163(3) 0.6969(2) 0.32177(18)
C22 C 0.4894(4) 0.7795(2) 0.30739(17)
H13 H 0.3978 0.7807 0.2904
C23 C 0.5638(4) 0.7899(3) 0.26203(17)
C24 C 0.5892(4) 0.7175(3) 0.23967(17)
C25 C 0.5560(4) 0.6580(3) 0.27480(18)
C26 C 0.6207(4) 0.5880(3) 0.2785(2)
C27 C 0.6496(4) 0.5510(2) 0.3298(2)
C28 C 0.6121(4) 0.5867(2) 0.3743(2)
C29 C 0.6930(4) 0.5831(2) 0.4253(2)
C30 C 0.6729(4) 0.6521(2) 0.45324(18)
C31 C 0.7747(4) 0.6891(3) 0.48695(18)
C32 C 0.7854(4) 0.7718(3) 0.48018(17)
C33 C 0.9209(4) 0.7902(3) 0.48049(18)
C34 C 0.9552(4) 0.8482(3) 0.44936(19)
C35 C 0.8567(4) 0.8875(2) 0.41355(18)
C36 C 0.9083(4) 0.9085(2) 0.3652(2)
C37 C 0.8303(4) 0.9077(2) 0.31547(19)
C38 C 0.6947(4) 0.8923(2) 0.31270(18)
C39 C 0.6516(4) 0.8489(3) 0.26221(17)
C40 C 0.7656(4) 0.8379(3) 0.23582(18)
C41 C 0.7853(4) 0.7695(3) 0.21104(17)
C42 C 0.6939(4) 0.7074(3) 0.21232(18)
C43 C 0.7669(4) 0.6355(3) 0.21781(19)
C44 C 0.7308(4) 0.5770(3) 0.2496(2)
C45 C 0.8263(4) 0.5334(3) 0.2845(2)
C46 C 0.7776(4) 0.5155(2) 0.3351(2)
C47 C 0.8590(4) 0.5158(2) 0.3840(2)
C48 C 0.8177(4) 0.5496(2) 0.4318(2)
C49 C 0.9248(4) 0.5873(3) 0.46414(19)
C50 C 0.9043(4) 0.6561(3) 0.48912(19)
C51 C 0.9956(4) 0.7185(3) 0.48754(17)
C52 C 1.1029(4) 0.7107(3) 0.46052(18)
C53 C 1.1385(4) 0.7729(3) 0.42815(19)
C54 C 1.0676(4) 0.8408(3) 0.4218(2)
C55 C 1.0397(4) 0.8782(2) 0.3708(2)
C56 C 1.0818(4) 0.8465(2) 0.3256(2)
C57 C 0.9992(4) 0.8458(3) 0.2739(2)
C58 C 0.8746(4) 0.8765(2) 0.26854(19)
C59 C 1.0200(4) 0.7737(3) 0.24736(19)
C60 C 0.9159(4) 0.7363(3) 0.21673(18)
C61 C 0.9030(4) 0.6538(3) 0.22007(18)
C62 C 0.9959(4) 0.6121(3) 0.25367(19)
C63 C 0.9562(4) 0.5495(3) 0.2867(2)
C64 C 1.0419(4) 0.5499(2) 0.3389(2)
C65 C 0.9943(4) 0.5335(2) 0.3866(2)
C66 C 1.0359(4) 0.5782(3) 0.4354(2)
C67 C 1.1235(4) 0.6379(3) 0.43435(19)
C68 C 1.1720(4) 0.6552(3) 0.3845(2)
C69 C 1.1329(4) 0.6122(3) 0.33781(19)
C70 C 1.1045(4) 0.6509(3) 0.28581(18)
C71 C 1.1168(4) 0.7302(2) 0.28267(19)
C72 C 1.1550(4) 0.7745(3) 0.3309(2)
C73 C 1.1826(3) 0.7384(3) 0.3808(2)
N1 N 0.4676(3) 0.82132(18) 0.40156(13)
H14 H 0.3930 0.8347 0.4091
N2 N 0.5706(3) 0.69432(19) 0.42394(14)
O1 O 0.5461(3) 0.90740(15) 0.50718(12)
H15 H 0.5451 0.9413 0.5300
O2 O 0.4592(3) 0.98150(16) 0.41351(12)
H16 H 0.4780 0.9386 0.4264
C74 C 0.0797(5) 0.0588(3) 0.4329(2)
S1 S 0.16970(12) 0.00781(8) 0.47311(6)
S2 S -0.00829(18) 0.10947(9) 0.39249(7)
C75 C 0.8225(5) 0.7033(3) 0.6292(2)
S3 S 0.95175(12) 0.66134(8) 0.62698(5)
S4 S 0.69141(15) 0.74324(10) 0.63014(7)
C76 C 0.5000 0.5000 0.5000
S5 S 0.39282(11) 0.49161(7) 0.44967(5)
S5B S 0.60718(11) 0.50839(7) 0.55033(5)
loop_
_geom_bond_atom_site_label_1
_geom_bond_atom_site_label_2
_geom_bond_site_symmetry_1
_geom_bond_site_symmetry_2
C1 C2 1_555 1_555
C2 H1 1_555 1_555
C3 C2 1_555 1_555
H2 C3 1_555 1_555
C4 C3 1_555 1_555
C5 C4 1_555 1_555
H3 C5 1_555 1_555
C6 C1 1_555 1_555
C7 C4 1_555 1_555
H4 C7 1_555 1_555
H5 C7 1_555 1_555
H6 C7 1_555 1_555
C8 C9 1_555 1_555
C9 C10 1_555 1_555
C10 H7 1_555 1_555
C11 C10 1_555 1_555
C12 C11 1_555 1_555
H8 C12 1_555 1_555
C13 C8 1_555 1_555
H9 C13 1_555 1_555
C14 C11 1_555 1_555
H10 C14 1_555 1_555
H11 C14 1_555 1_555
H12 C14 1_555 1_555
C15 C6 1_555 1_555
C16 C9 1_555 1_555
C17 C16 1_555 1_555
C18 C17 1_555 1_555
C19 C15 1_555 1_555
C20 C21 1_555 1_555
C21 C22 1_555 1_555
C22 C16 1_555 1_555
H13 C22 1_555 1_555
C23 C22 1_555 1_555
C24 C23 1_555 1_555
C25 C21 1_555 1_555
C26 C25 1_555 1_555
C27 C26 1_555 1_555
C28 C20 1_555 1_555
C29 C28 1_555 1_555
C30 C29 1_555 1_555
C31 C30 1_555 1_555
C32 C19 1_555 1_555
C33 C32 1_555 1_555
C34 C33 1_555 1_555
C35 C18 1_555 1_555
C36 C35 1_555 1_555
C37 C36 1_555 1_555
C38 C17 1_555 1_555
C39 C23 1_555 1_555
C40 C39 1_555 1_555
C41 C40 1_555 1_555
C42 C24 1_555 1_555
C43 C42 1_555 1_555
C44 C26 1_555 1_555
C45 C44 1_555 1_555
C46 C27 1_555 1_555
C47 C46 1_555 1_555
C48 C29 1_555 1_555
C49 C48 1_555 1_555
C50 C31 1_555 1_555
C51 C33 1_555 1_555
C52 C51 1_555 1_555
C53 C52 1_555 1_555
C54 C34 1_555 1_555
C55 C36 1_555 1_555
C56 C55 1_555 1_555
C57 C56 1_555 1_555
C58 C37 1_555 1_555
C59 C57 1_555 1_555
C60 C41 1_555 1_555
C61 C43 1_555 1_555
C62 C61 1_555 1_555
C63 C45 1_555 1_555
C64 C63 1_555 1_555
C65 C47 1_555 1_555
C66 C49 1_555 1_555
C67 C52 1_555 1_555
C68 C67 1_555 1_555
C69 C64 1_555 1_555
C70 C62 1_555 1_555
C71 C59 1_555 1_555
C72 C56 1_555 1_555
C73 C53 1_555 1_555
N1 C15 1_555 1_555
H14 N1 1_555 1_555
N2 C15 1_555 1_555
O1 C1 1_555 1_555
H15 O1 1_555 1_555
O2 C8 1_555 1_555
H16 O2 1_555 1_555
C74 S1 1_555 1_555
S2 C74 1_555 1_555
C75 S3 1_555 1_555
S4 C75 1_555 1_555
C76 S5 1_555 1_555
S5B C76 1_555 1_555
C5 C6 1_555 1_555
C12 C13 1_555 1_555
C16 N1 1_555 1_555
C18 C19 1_555 1_555
C20 N2 1_555 1_555
C24 C25 1_555 1_555
C27 C28 1_555 1_555
C30 N2 1_555 1_555
C31 C32 1_555 1_555
C34 C35 1_555 1_555
C37 C38 1_555 1_555
C38 C39 1_555 1_555
C40 C58 1_555 1_555
C41 C42 1_555 1_555
C43 C44 1_555 1_555
C45 C46 1_555 1_555
C47 C48 1_555 1_555
C49 C50 1_555 1_555
C50 C51 1_555 1_555
C53 C54 1_555 1_555
C54 C55 1_555 1_555
C57 C58 1_555 1_555
C59 C60 1_555 1_555
C60 C61 1_555 1_555
C62 C63 1_555 1_555
C64 C65 1_555 1_555
C65 C66 1_555 1_555
C66 C67 1_555 1_555
C68 C69 1_555 1_555
C68 C73 1_555 1_555
C69 C70 1_555 1_555
C70 C71 1_555 1_555
C71 C72 1_555 1_555
C72 C73 1_555 1_555

#END
