
#######################################################################
#
#                 Cambridge Crystallographic Data Centre
#                                CCDC 
#
#######################################################################
#
# If this CIF has been generated from an entry in the Cambridge 
# Structural Database, then it will include bibliographic, chemical, 
# crystal, experimental, refinement or atomic coordinate data resulting 
# from the CCDC's data processing and validation procedures.
#
#######################################################################

data_AFOGOU05
_chemical_formula_moiety         
'3(C1 H6 N3 1+),C24 H15 O9 S3 3-,3.7(C9 H14 O1),5.4(C1 H4 O1)'
_chemical_name_systematic        
'tris(Guanidinium) 1,3,5-tris(4-sulfonatophenyl)benzene tetrakis(isophorone) clathrate methanol solvate'
_symmetry_cell_setting           monoclinic
_symmetry_space_group_name_H-M   'P 21'
_symmetry_Int_Tables_number      4
_space_group_name_Hall           'P 2yb'
loop_
_symmetry_equiv_pos_site_id
_symmetry_equiv_pos_as_xyz
1 x,y,z
2 -x,1/2+y,-z
_cell_length_a                   23.138(3)
_cell_length_b                   7.4965(9)
_cell_length_c                   24.249(3)
_cell_angle_alpha                90
_cell_angle_beta                 117.9133(19)
_cell_angle_gamma                90
_cell_volume                     3716.74
_exptl_crystal_colour            colorless
_exptl_crystal_description       needle
_cell_formula_units_Z            2
loop_
_atom_site_label
_atom_site_type_symbol
_atom_site_fract_x
_atom_site_fract_y
_atom_site_fract_z
N1 N 0.8396(3) 0.9248(13) 0.6932(3)
H24 H 0.849604 1.026547 0.681738
H25 H 0.849778 0.823226 0.681758
N2 N 0.7920(4) 0.7703(11) 0.7437(4)
H26 H 0.770602 0.769393 0.765616
H27 H 0.802351 0.669144 0.732112
N3 N 0.7933(4) 1.0759(10) 0.7454(4)
H28 H 0.771925 1.075185 0.767322
H29 H 0.804454 1.177904 0.735051
C37 C 0.8087(3) 0.9244(15) 0.7281(3)
N4 N 0.2644(3) 0.9270(14) 0.1256(3)
H30 H 0.274237 1.028894 0.146020
H31 H 0.272870 0.825626 0.146282
N5 N 0.2242(5) 0.7702(11) 0.0334(4)
H32 H 0.207314 0.770313 -0.007501
H33 H 0.232621 0.668517 0.053857
N6 N 0.2245(5) 1.0751(12) 0.0339(4)
H34 H 0.234180 1.177590 0.053911
H35 H 0.206145 1.073472 -0.007152
C38 C 0.2372(4) 0.9262(17) 0.0649(4)
N7 N 0.8804(3) 0.9250(13) 0.1523(3)
H36 H 0.858539 1.025194 0.138102
H37 H 0.861130 0.822098 0.137254
N8 N 0.9736(4) 0.7758(10) 0.2175(4)
H38 H 1.014499 0.776189 0.247047
H39 H 0.953668 0.674029 0.201910
N9 N 0.9723(4) 1.0812(11) 0.2198(4)
H40 H 0.951431 1.182974 0.206324
H41 H 1.013326 1.080656 0.249031
C39 C 0.9419(3) 0.9292(16) 0.1962(3)
O10 O 0.4538(3) 0.0523(13) 0.5467(4)
C40 C 0.5071(5) 0.1190(16) 0.5592(5)
C41 C 0.5429(5) 0.2293(18) 0.6140(5)
H42 H 0.523763 0.256532 0.640100
C42 C 0.6031(5) 0.2944(15) 0.6288(5)
C43 C 0.6352(6) 0.2508(16) 0.5910(6)
H43 H 0.682599 0.236762 0.619423
H44 H 0.630066 0.353952 0.563588
C44 C 0.6118(5) 0.0857(14) 0.5505(5)
C45 C 0.5384(5) 0.0955(15) 0.5174(5)
H45 H 0.521160 -0.015155 0.492844
H46 H 0.525028 0.196389 0.487598
C46 C 0.6393(6) 0.405(2) 0.6849(6)
H47 H 0.681521 0.439387 0.687862
H48 H 0.613868 0.512304 0.682001
H49 H 0.646575 0.336667 0.722040
C47 C 0.6351(6) 0.080(2) 0.5010(6)
H50 H 0.682949 0.073144 0.521500
H51 H 0.616702 -0.025659 0.474518
H52 H 0.620562 0.187534 0.475253
C48 C 0.6333(4) -0.083(2) 0.5891(5)
H53 H 0.681138 -0.089065 0.610632
H54 H 0.617074 -0.081793 0.619864
H55 H 0.615533 -0.186686 0.561711
O11 O 1.0975(4) 0.9915(12) 0.5699(4)
C49 C 1.0625(6) 0.8769(17) 0.5740(5)
C50 C 1.0874(6) 0.709(2) 0.6081(6)
H56 H 1.132830 0.684490 0.624924
C51 C 1.0501(6) 0.5883(18) 0.6169(5)
C52 C 0.9785(6) 0.6126(17) 0.5926(6)
H57 H 0.966093 0.564982 0.623695
H58 H 0.955266 0.541348 0.554015
C53 C 0.9550(5) 0.8096(15) 0.5781(5)
C54 C 0.9876(5) 0.898(2) 0.5412(5)
H59 H 0.969263 0.843595 0.499171
H60 H 0.976622 1.026558 0.535834
C55 C 1.0742(6) 0.414(3) 0.6476(6)
H61 H 1.038215 0.348035 0.648839
H62 H 1.091266 0.344853 0.624022
H63 H 1.109149 0.432615 0.690251
C56 C 0.8828(5) 0.8168(16) 0.5410(5)
H64 H 0.868954 0.750707 0.501999
H65 H 0.863002 0.763139 0.565033
H66 H 0.868760 0.941362 0.531602
C57 C 0.9767(4) 0.9141(19) 0.6397(4)
H67 H 1.024431 0.909527 0.664266
H68 H 0.962561 1.038606 0.630174
H69 H 0.956802 0.860383 0.663605
O12 O 0.5464(16) 0.560(6) 0.0948(16)
C58 C 0.580(2) 0.589(7) 0.0662(18)
C59 C 0.621(2) 0.746(7) 0.0761(18)
H70 H 0.635900 0.810977 0.113985
C60 C 0.637(3) 0.800(7) 0.0314(19)
C61 C 0.610(2) 0.726(6) -0.0293(18)
H71 H 0.647430 0.709916 -0.038545
H72 H 0.581805 0.818391 -0.058328
C62 C 0.5725(18) 0.557(6) -0.0478(16)
C63 C 0.5513(19) 0.523(6) 0.0013(16)
H73 H 0.504971 0.561123 -0.018023
H74 H 0.550725 0.391525 0.004818
C64 C 0.6854(17) 0.930(6) 0.0361(16)
H75 H 0.685445 0.939295 -0.004195
H76 H 0.674983 1.046035 0.047602
H77 H 0.728741 0.891294 0.068085
C65 C 0.5085(19) 0.560(8) -0.1124(17)
H78 H 0.487323 0.442593 -0.120207
H79 H 0.478607 0.650848 -0.111592
H80 H 0.519850 0.587292 -0.145705
C66 C 0.605(2) 0.385(6) -0.049(2)
H81 H 0.573344 0.288139 -0.062074
H82 H 0.623205 0.395903 -0.078247
H83 H 0.640843 0.360209 -0.007024
O13 O 0.8709(9) 0.919(4) 0.0105(9)
C67 C 0.9209(12) 0.929(3) 0.0062(12)
C68 C 0.9267(12) 0.962(4) -0.0492(12)
H84 H 0.889689 0.972226 -0.089204
C69 C 0.9905(13) 0.976(5) -0.0403(12)
C70 C 1.0504(12) 0.940(5) 0.0145(11)
H85 H 1.086070 1.006444 0.011970
H86 H 1.060249 0.811317 0.015683
C71 C 1.0495(13) 0.989(4) 0.0729(12)
C72 C 0.9843(11) 0.910(5) 0.0615(12)
H87 H 0.991876 0.779408 0.067298
H88 H 0.977497 0.950975 0.096840
C73 C 1.0094(15) 1.003(5) -0.0876(13)
H89 H 1.057194 1.008440 -0.068608
H90 H 0.993249 0.904128 -0.117384
H91 H 0.990736 1.115419 -0.109326
C74 C 1.1052(13) 0.905(5) 0.1303(12)
H92 H 1.102286 0.941898 0.167701
H93 H 1.102099 0.774832 0.126533
H94 H 1.147134 0.944296 0.133651
C75 C 1.0409(15) 1.182(4) 0.0850(15)
H95 H 1.041325 1.192400 0.125491
H96 H 1.076650 1.252555 0.085391
H97 H 0.999021 1.225597 0.052025
S1 S 0.85206(8) 0.4243(3) 0.66964(8)
S2 S 0.29777(8) 0.4266(4) 0.16506(8)
S3 S 0.84121(9) 0.4302(4) 0.13784(8)
O1 O 0.8918(3) 0.5838(7) 0.6870(3)
O2 O 0.8060(2) 0.4233(10) 0.6947(2)
O3 O 0.8923(3) 0.2628(8) 0.6849(3)
O4 O 0.2762(3) 0.5883(8) 0.1848(3)
O5 O 0.2773(2) 0.4260(10) 0.0986(2)
O6 O 0.2797(3) 0.2662(8) 0.1867(3)
O7 O 0.8229(3) 0.5922(8) 0.0986(3)
O8 O 0.9107(2) 0.4287(10) 0.1831(2)
O9 O 0.8204(3) 0.2697(8) 0.1010(3)
C1 C 0.6968(4) 0.4505(17) 0.3898(3)
C2 C 0.6280(4) 0.4559(16) 0.3594(4)
H1 H 0.605269 0.460250 0.383453
C3 C 0.5929(3) 0.4550(17) 0.2946(4)
C4 C 0.6276(4) 0.4568(16) 0.2601(4)
H2 H 0.603833 0.458061 0.215840
C5 C 0.6944(4) 0.4570(15) 0.2882(4)
C6 C 0.7282(4) 0.4568(15) 0.3528(4)
H3 H 0.774632 0.461044 0.372759
C7 C 0.7344(4) 0.4466(16) 0.4584(3)
C8 C 0.7922(4) 0.3482(13) 0.4872(4)
H4 H 0.807969 0.288116 0.462495
C9 C 0.8263(4) 0.3376(13) 0.5510(4)
H5 H 0.864894 0.267178 0.570266
C10 C 0.8044(3) 0.4303(14) 0.5875(3)
C11 C 0.7484(4) 0.5285(12) 0.5604(4)
H6 H 0.733563 0.590346 0.585574
C12 C 0.7130(4) 0.5378(12) 0.4956(4)
H7 H 0.674090 0.606732 0.476623
C13 C 0.5203(4) 0.458(2) 0.2644(6)
C14 C 0.4861(6) 0.371(2) 0.2908(6)
H8 H 0.509715 0.321308 0.331334
C15 C 0.4197(6) 0.355(2) 0.2601(6)
H9 H 0.397895 0.286651 0.277745
C16 C 0.3850(5) 0.437(3) 0.2045(6)
C17 C 0.4156(6) 0.5378(19) 0.1793(6)
H10 H 0.390681 0.601808 0.141684
C18 C 0.4846(6) 0.5464(19) 0.2095(5)
H11 H 0.506274 0.613929 0.191524
C19 C 0.7298(5) 0.452(3) 0.2504(5)
C20 C 0.7041(5) 0.3738(16) 0.1930(5)
H12 H 0.660672 0.329149 0.174658
C21 C 0.7395(6) 0.3585(18) 0.1611(5)
H13 H 0.721417 0.293771 0.122958
C22 C 0.7993(6) 0.433(3) 0.1822(5)
C23 C 0.8246(6) 0.5290(18) 0.2364(5)
H14 H 0.864883 0.590810 0.250364
C24 C 0.7901(5) 0.5353(18) 0.2716(5)
H15 H 0.808439 0.597602 0.310192
C25? C 0.5202(6) 0.431(5) 0.2588(11)
C26? C 0.4873(10) 0.498(5) 0.2899(9)
H16? H 0.511336 0.545576 0.330803
C27? C 0.4194(10) 0.495(5) 0.2612(12)
H17? H 0.396948 0.540853 0.282430
C28? C 0.3843(6) 0.426(5) 0.2014(12)
C29? C 0.4171(9) 0.359(4) 0.1703(9)
H18? H 0.393150 0.311632 0.129391
C30? C 0.4851(9) 0.362(4) 0.1990(11)
H19? H 0.507538 0.316355 0.177763
C31? C 0.7301(17) 0.470(7) 0.2506(16)
C32? C 0.7920(17) 0.393(6) 0.2765(12)
H20? H 0.812241 0.354180 0.318698
C33? C 0.8241(14) 0.374(6) 0.2408(16)
H21? H 0.866372 0.321184 0.258469
C34? C 0.7944(19) 0.431(8) 0.1791(15)
C35? C 0.7326(18) 0.508(7) 0.1531(12)
H22? H 0.712316 0.546979 0.110976
C36? C 0.7004(14) 0.527(6) 0.1889(16)
H23? H 0.658182 0.579975 0.171203
loop_
_geom_bond_atom_site_label_1
_geom_bond_atom_site_label_2
_geom_bond_site_symmetry_1
_geom_bond_site_symmetry_2
S1 O1 1_555 1_555
S2 O4 1_555 1_555
S3 O7 1_555 1_555
O2 S1 1_555 1_555
O3 S1 1_555 1_555
O5 S2 1_555 1_555
O6 S2 1_555 1_555
O8 S3 1_555 1_555
O9 S3 1_555 1_555
C1 C2 1_555 1_555
C2 H1 1_555 1_555
C3 C2 1_555 1_555
C4 C3 1_555 1_555
H2 C4 1_555 1_555
C5 C4 1_555 1_555
C6 C1 1_555 1_555
H3 C6 1_555 1_555
C7 C1 1_555 1_555
C8 C7 1_555 1_555
H4 C8 1_555 1_555
C9 C8 1_555 1_555
H5 C9 1_555 1_555
C10 S1 1_555 1_555
C11 C10 1_555 1_555
H6 C11 1_555 1_555
C12 C7 1_555 1_555
H7 C12 1_555 1_555
C13 C3 1_555 1_555
C14 C13 1_555 1_555
H8 C14 1_555 1_555
C15 C14 1_555 1_555
H9 C15 1_555 1_555
C16 S2 1_555 1_555
C17 C16 1_555 1_555
H10 C17 1_555 1_555
C18 C13 1_555 1_555
H11 C18 1_555 1_555
C19 C5 1_555 1_555
C20 C19 1_555 1_555
H12 C20 1_555 1_555
C21 C20 1_555 1_555
H13 C21 1_555 1_555
C22 S3 1_555 1_555
C23 C22 1_555 1_555
H14 C23 1_555 1_555
C24 C19 1_555 1_555
H15 C24 1_555 1_555
N1 H24 1_555 1_555
H25 N1 1_555 1_555
N2 H26 1_555 1_555
H27 N2 1_555 1_555
N3 H28 1_555 1_555
H29 N3 1_555 1_555
C37 N1 1_555 1_555
N4 H30 1_555 1_555
H31 N4 1_555 1_555
N5 H32 1_555 1_555
H33 N5 1_555 1_555
N6 H34 1_555 1_555
H35 N6 1_555 1_555
C38 N4 1_555 1_555
N7 H36 1_555 1_555
H37 N7 1_555 1_555
N8 H38 1_555 1_555
H39 N8 1_555 1_555
N9 H40 1_555 1_555
H41 N9 1_555 1_555
C39 N7 1_555 1_555
O10 C40 1_555 1_555
C40 C41 1_555 1_555
C41 H42 1_555 1_555
C42 C41 1_555 1_555
C43 C42 1_555 1_555
H43 C43 1_555 1_555
H44 C43 1_555 1_555
C44 C43 1_555 1_555
C45 C40 1_555 1_555
H45 C45 1_555 1_555
H46 C45 1_555 1_555
C46 C42 1_555 1_555
H47 C46 1_555 1_555
H48 C46 1_555 1_555
H49 C46 1_555 1_555
C47 C44 1_555 1_555
H50 C47 1_555 1_555
H51 C47 1_555 1_555
H52 C47 1_555 1_555
C48 C44 1_555 1_555
H53 C48 1_555 1_555
H54 C48 1_555 1_555
H55 C48 1_555 1_555
O11 C49 1_555 1_555
C49 C50 1_555 1_555
C50 H56 1_555 1_555
C51 C50 1_555 1_555
C52 C51 1_555 1_555
H57 C52 1_555 1_555
H58 C52 1_555 1_555
C53 C52 1_555 1_555
C54 C49 1_555 1_555
H59 C54 1_555 1_555
H60 C54 1_555 1_555
C55 C51 1_555 1_555
H61 C55 1_555 1_555
H62 C55 1_555 1_555
H63 C55 1_555 1_555
C56 C53 1_555 1_555
H64 C56 1_555 1_555
H65 C56 1_555 1_555
H66 C56 1_555 1_555
C57 C53 1_555 1_555
H67 C57 1_555 1_555
H68 C57 1_555 1_555
H69 C57 1_555 1_555
O12 C58 1_555 1_555
C58 C59 1_555 1_555
C59 H70 1_555 1_555
C60 C59 1_555 1_555
C61 C60 1_555 1_555
H71 C61 1_555 1_555
H72 C61 1_555 1_555
C62 C61 1_555 1_555
C63 C58 1_555 1_555
H73 C63 1_555 1_555
H74 C63 1_555 1_555
C64 C60 1_555 1_555
H75 C64 1_555 1_555
H76 C64 1_555 1_555
H77 C64 1_555 1_555
C65 C62 1_555 1_555
H78 C65 1_555 1_555
H79 C65 1_555 1_555
H80 C65 1_555 1_555
C66 C62 1_555 1_555
H81 C66 1_555 1_555
H82 C66 1_555 1_555
H83 C66 1_555 1_555
O13 C67 1_555 1_555
C67 C68 1_555 1_555
C68 H84 1_555 1_555
C69 C68 1_555 1_555
C70 C69 1_555 1_555
H85 C70 1_555 1_555
H86 C70 1_555 1_555
C71 C70 1_555 1_555
C72 C67 1_555 1_555
H87 C72 1_555 1_555
H88 C72 1_555 1_555
C73 C69 1_555 1_555
H89 C73 1_555 1_555
H90 C73 1_555 1_555
H91 C73 1_555 1_555
C74 C71 1_555 1_555
H92 C74 1_555 1_555
H93 C74 1_555 1_555
H94 C74 1_555 1_555
C75 C71 1_555 1_555
H95 C75 1_555 1_555
H96 C75 1_555 1_555
H97 C75 1_555 1_555
C5 C6 1_555 1_555
C9 C10 1_555 1_555
C11 C12 1_555 1_555
C15 C16 1_555 1_555
C17 C18 1_555 1_555
C21 C22 1_555 1_555
C23 C24 1_555 1_555
N2 C37 1_555 1_555
N3 C37 1_555 1_555
N5 C38 1_555 1_555
N6 C38 1_555 1_555
N8 C39 1_555 1_555
N9 C39 1_555 1_555
C44 C45 1_555 1_555
C53 C54 1_555 1_555
C62 C63 1_555 1_555
C71 C72 1_555 1_555

#END
