
#######################################################################
#
#                 Cambridge Crystallographic Data Centre
#                                CCDC 
#
#######################################################################
#
# If this CIF has been generated from an entry in the Cambridge 
# Structural Database, then it will include bibliographic, chemical, 
# crystal, experimental, refinement or atomic coordinate data resulting 
# from the CCDC's data processing and validation procedures.
#
#######################################################################

data_AFOGOU06
_chemical_formula_moiety         
'3(C1 H6 N3 1+),C24 H15 O9 S3 3-,3.7(C9 H14 O1),5.4(C1 H4 O1)'
_chemical_name_systematic        
'tris(Guanidinium) 1,3,5-tris(4-sulfonatophenyl)benzene tetrakis(isophorone) clathrate methanol solvate'
_symmetry_cell_setting           monoclinic
_symmetry_space_group_name_H-M   'P 21'
_symmetry_Int_Tables_number      4
_space_group_name_Hall           'P 2yb'
loop_
_symmetry_equiv_pos_site_id
_symmetry_equiv_pos_as_xyz
1 x,y,z
2 -x,1/2+y,-z
_cell_length_a                   23.210(7)
_cell_length_b                   7.505(2)
_cell_length_c                   24.290(7)
_cell_angle_alpha                90
_cell_angle_beta                 118.069(6)
_cell_angle_gamma                90
_cell_volume                     3733.45
_exptl_crystal_colour            colorless
_exptl_crystal_description       needle
_cell_formula_units_Z            2
loop_
_atom_site_label
_atom_site_type_symbol
_atom_site_fract_x
_atom_site_fract_y
_atom_site_fract_z
N1 N 0.1630(6) 0.077(3) 0.3082(5)
H16 H 0.151516 0.175546 0.320237
H17 H 0.154243 -0.027240 0.318980
N2 N 0.2078(7) 0.232(2) 0.2566(6)
H18 H 0.197270 0.334156 0.267568
H19 H 0.228160 0.232096 0.233866
N3 N 0.2095(9) -0.0764(19) 0.2529(7)
H20 H 0.228508 -0.073223 0.228968
H21 H 0.200256 -0.179439 0.264153
C25 C 0.1938(7) 0.086(3) 0.2737(6)
N4 N 0.7355(6) 0.085(2) 0.8749(5)
H22 H 0.724442 0.185922 0.854241
H23 H 0.728883 -0.016727 0.854598
N5 N 0.7727(8) 0.226(2) 0.9681(7)
H24 H 0.762211 0.328952 0.948839
H25 H 0.790475 0.221163 1.009092
N6 N 0.7774(8) -0.081(2) 0.9661(7)
H26 H 0.794509 -0.089071 1.006898
H27 H 0.769656 -0.178265 0.943388
C26 C 0.7624(8) 0.085(3) 0.9374(6)
N7 N 0.1180(5) 0.073(2) 0.8472(5)
H28 H 0.138617 0.174383 0.862559
H29 H 0.138372 -0.028639 0.860947
N8 N 0.0253(7) 0.2229(19) 0.7823(7)
H30 H 0.044874 0.325642 0.796956
H31 H -0.015694 0.220550 0.753134
N9 N 0.0245(8) -0.085(2) 0.7772(7)
H32 H -0.016003 -0.082383 0.746970
H33 H 0.044694 -0.187068 0.790762
C27 C 0.0570(6) 0.075(3) 0.8038(6)
O10 O 0.5465(6) 0.955(2) 0.4532(7)
C28 C 0.4957(10) 0.884(3) 0.4419(8)
C29 C 0.4576(10) 0.777(3) 0.3844(9)
H34 H 0.476185 0.753553 0.357694
C30 C 0.4009(10) 0.715(3) 0.3698(8)
C31 C 0.3659(9) 0.749(3) 0.4078(10)
H35 H 0.371264 0.642959 0.433933
H36 H 0.318732 0.762469 0.378809
C32 C 0.3888(8) 0.913(3) 0.4504(9)
C33 C 0.4606(8) 0.911(3) 0.4848(10)
H37 H 0.474732 0.814486 0.516068
H38 H 0.475770 1.025377 0.507708
C34 C 0.3616(10) 0.597(3) 0.3127(9)
H39 H 0.319758 0.565534 0.310851
H40 H 0.353792 0.660841 0.274672
H41 H 0.386335 0.487499 0.316120
C35 C 0.3649(9) 0.918(3) 0.4974(9)
H42 H 0.317091 0.919022 0.476023
H43 H 0.380625 0.812059 0.524054
H44 H 0.381370 1.025226 0.522997
C36 C 0.3675(10) 1.091(3) 0.4107(8)
H45 H 0.319724 1.096624 0.387196
H46 H 0.383753 1.194028 0.438798
H47 H 0.385769 1.093079 0.381695
O11 O -0.0987(7) 0.003(2) 0.4297(6)
C37 C -0.0626(12) 0.124(3) 0.4265(9)
C38 C -0.0879(11) 0.293(3) 0.3916(9)
H48 H -0.133074 0.318953 0.375264
C39 C -0.0505(10) 0.410(3) 0.3819(9)
C40 C 0.0233(11) 0.388(3) 0.4081(10)
H49 H 0.045889 0.459775 0.446771
H50 H 0.036312 0.435448 0.377516
C41 C 0.0457(10) 0.190(3) 0.4230(9)
C42 C 0.0143(9) 0.094(4) 0.4587(8)
H51 H 0.034248 0.139482 0.502074
H52 H 0.023488 -0.035120 0.460473
C43 C -0.0746(11) 0.599(4) 0.3517(10)
H53 H -0.038748 0.661529 0.349263
H54 H -0.111208 0.585087 0.309587
H55 H -0.088811 0.668346 0.377298
C44 C 0.1170(10) 0.183(3) 0.4618(11)
H56 H 0.138002 0.243071 0.440039
H57 H 0.129249 0.243431 0.501575
H58 H 0.131359 0.058697 0.469670
C45 C 0.0254(9) 0.087(3) 0.3607(7)
H59 H -0.022190 0.092078 0.335095
H60 H 0.046197 0.142125 0.337970
H61 H 0.039291 -0.037472 0.369898
O12 O 0.458(2) 0.443(7) 0.9104(16)
C46 C 0.436(2) 0.405(7) 0.9463(16)
C47 C 0.379(2) 0.282(7) 0.9272(17)
H62 H 0.353530 0.258814 0.883832
C48 C 0.363(2) 0.205(7) 0.9640(16)
C49 C 0.398(2) 0.236(6) 1.0346(16)
H63 H 0.364914 0.247896 1.048705
H64 H 0.424496 0.128606 1.054862
C50 C 0.4436(18) 0.398(5) 1.0585(16)
C51 C 0.4787(19) 0.408(7) 1.0215(15)
H65 H 0.509769 0.307444 1.033885
H66 H 0.504777 0.519243 1.033352
C52 C 0.305(2) 0.079(9) 0.947(2)
H67 H 0.304140 0.039324 0.985085
H68 H 0.263974 0.143308 0.920533
H69 H 0.308372 -0.024022 0.924178
C53 C 0.5014(19) 0.390(7) 1.1214(15)
H70 H 0.486865 0.382111 1.153236
H71 H 0.527705 0.284803 1.124152
H72 H 0.527817 0.497605 1.128346
C54 C 0.407(2) 0.575(7) 1.059(2)
H73 H 0.384470 0.557218 1.084000
H74 H 0.438006 0.672422 1.075882
H75 H 0.374128 0.603946 1.015660
O13 O 0.1300(14) 0.082(6) 0.9908(14)
C55 C 0.0794(16) 0.077(4) 0.9937(16)
C56 C 0.0717(17) 0.035(5) 1.0494(15)
H76 H 0.110064 0.013620 1.087518
C57 C 0.0175(18) 0.027(6) 1.0496(15)
C58 C -0.0459(17) 0.069(7) 0.9923(14)
H77 H -0.055504 0.197231 0.992718
H78 H -0.081399 0.001244 0.994482
C59 C -0.0468(16) 0.025(6) 0.9301(14)
C60 C 0.0106(15) 0.117(6) 0.9336(16)
H79 H 0.002568 0.246580 0.931825
H80 H 0.014547 0.084672 0.895928
C61 C 0.008(2) -0.008(7) 1.1074(17)
H81 H -0.039070 -0.007455 1.094979
H82 H 0.026407 -0.123774 1.125496
H83 H 0.029550 0.085953 1.138495
C62 C -0.1002(18) 0.103(8) 0.8716(16)
H84 H -0.142126 0.051619 0.863905
H85 H -0.101374 0.232517 0.876242
H86 H -0.092019 0.075908 0.836437
C63 C -0.044(3) -0.182(6) 0.920(2)
H87 H -0.083321 -0.238351 0.918346
H88 H -0.042522 -0.204549 0.881477
H89 H -0.005249 -0.232331 0.955503
S1 S 0.14950(15) 0.5756(7) 0.33177(14)
S2 S 0.70176(16) 0.5737(8) 0.83537(14)
S3 S 0.15680(18) 0.5678(8) 0.86199(14)
O1 O 0.1085(5) 0.4169(14) 0.3138(5)
O2 O 0.1967(4) 0.5793(19) 0.3071(4)
O3 O 0.1090(5) 0.7394(15) 0.3164(5)
O4 O 0.7240(6) 0.4120(16) 0.8144(5)
O5 O 0.7225(4) 0.5686(19) 0.9029(4)
O6 O 0.7207(6) 0.7318(15) 0.8147(5)
O7 O 0.1757(6) 0.4074(16) 0.9024(5)
O8 O 0.0881(5) 0.5696(19) 0.8166(4)
O9 O 0.1770(6) 0.7334(15) 0.8992(5)
C1 C 0.3020(7) 0.541(3) 0.6105(8)
C2 C 0.3729(7) 0.534(2) 0.6426(7)
H1 H 0.396190 0.526215 0.619324
C3 C 0.4070(7) 0.539(3) 0.7081(8)
C4 C 0.3721(10) 0.546(4) 0.7380(8)
H2 H 0.395405 0.554553 0.782150
C5 C 0.3045(8) 0.542(4) 0.7110(7)
C6 C 0.2729(8) 0.542(3) 0.6496(8)
H3 H 0.226506 0.541470 0.630235
C7 C 0.2672(7) 0.553(3) 0.5433(7)
C8 C 0.2091(7) 0.649(2) 0.5132(7)
H4 H 0.193268 0.709034 0.537739
C9 C 0.1745(8) 0.659(2) 0.4503(7)
H5 H 0.136146 0.730356 0.431579
C10 C 0.1953(6) 0.565(3) 0.4126(6)
C11 C 0.2537(7) 0.471(2) 0.4406(7)
H6 H 0.269856 0.413162 0.415886
C12 C 0.2883(7) 0.463(2) 0.5057(7)
H7 H 0.327225 0.394505 0.524932
C13 C 0.4807(7) 0.544(3) 0.7385(7)
C14 C 0.5137(8) 0.631(2) 0.7112(8)
H8 H 0.489147 0.681371 0.670915
C15 C 0.5801(8) 0.647(3) 0.7402(8)
H9 H 0.601014 0.711272 0.720835
C16 C 0.6162(7) 0.570(4) 0.7974(7)
C17 C 0.5864(8) 0.469(3) 0.8278(8)
H10 H 0.610240 0.416968 0.868016
C18 C 0.5136(9) 0.455(3) 0.7893(8)
H11 H 0.490727 0.376665 0.802995
C19 C 0.2699(9) 0.532(3) 0.7491(7)
C20 C 0.2961(11) 0.630(3) 0.8086(9)
H12 H 0.337716 0.685459 0.824861
C21 C 0.2608(11) 0.643(3) 0.8406(10)
H13 H 0.278596 0.706315 0.879016
C22 C 0.2003(6) 0.566(3) 0.8182(6)
C23 C 0.1724(11) 0.477(3) 0.7635(9)
H14 H 0.130742 0.422657 0.748989
C24 C 0.2084(10) 0.464(3) 0.7265(9)
H15 H 0.188215 0.409035 0.686688
loop_
_geom_bond_atom_site_label_1
_geom_bond_atom_site_label_2
_geom_bond_site_symmetry_1
_geom_bond_site_symmetry_2
S1 O1 1_555 1_555
S2 O4 1_555 1_555
S3 O7 1_555 1_555
O2 S1 1_555 1_555
O3 S1 1_555 1_555
O5 S2 1_555 1_555
O6 S2 1_555 1_555
O8 S3 1_555 1_555
O9 S3 1_555 1_555
C1 C2 1_555 1_555
C2 H1 1_555 1_555
C3 C2 1_555 1_555
C4 C3 1_555 1_555
H2 C4 1_555 1_555
C5 C4 1_555 1_555
C6 C1 1_555 1_555
H3 C6 1_555 1_555
C7 C1 1_555 1_555
C8 C7 1_555 1_555
H4 C8 1_555 1_555
C9 C8 1_555 1_555
H5 C9 1_555 1_555
C10 S1 1_555 1_555
C11 C10 1_555 1_555
H6 C11 1_555 1_555
C12 C7 1_555 1_555
H7 C12 1_555 1_555
C13 C3 1_555 1_555
C14 C13 1_555 1_555
H8 C14 1_555 1_555
C15 C14 1_555 1_555
H9 C15 1_555 1_555
C16 S2 1_555 1_555
C17 C16 1_555 1_555
H10 C17 1_555 1_555
C18 C13 1_555 1_555
H11 C18 1_555 1_555
C19 C5 1_555 1_555
C20 C19 1_555 1_555
H12 C20 1_555 1_555
C21 C20 1_555 1_555
H13 C21 1_555 1_555
C22 S3 1_555 1_555
C23 C22 1_555 1_555
H14 C23 1_555 1_555
C24 C19 1_555 1_555
H15 C24 1_555 1_555
N1 H16 1_555 1_555
H17 N1 1_555 1_555
N2 H18 1_555 1_555
H19 N2 1_555 1_555
N3 H20 1_555 1_555
H21 N3 1_555 1_555
C25 N1 1_555 1_555
N4 H22 1_555 1_555
H23 N4 1_555 1_555
N5 H24 1_555 1_555
H25 N5 1_555 1_555
N6 H26 1_555 1_555
H27 N6 1_555 1_555
C26 N4 1_555 1_555
N7 H28 1_555 1_555
H29 N7 1_555 1_555
N8 H30 1_555 1_555
H31 N8 1_555 1_555
N9 H32 1_555 1_555
H33 N9 1_555 1_555
C27 N7 1_555 1_555
O10 C28 1_555 1_555
C28 C29 1_555 1_555
C29 H34 1_555 1_555
C30 C29 1_555 1_555
C31 C30 1_555 1_555
H35 C31 1_555 1_555
H36 C31 1_555 1_555
C32 C31 1_555 1_555
C33 C28 1_555 1_555
H37 C33 1_555 1_555
H38 C33 1_555 1_555
C34 C30 1_555 1_555
H39 C34 1_555 1_555
H40 C34 1_555 1_555
H41 C34 1_555 1_555
C35 C32 1_555 1_555
H42 C35 1_555 1_555
H43 C35 1_555 1_555
H44 C35 1_555 1_555
C36 C32 1_555 1_555
H45 C36 1_555 1_555
H46 C36 1_555 1_555
H47 C36 1_555 1_555
O11 C37 1_555 1_555
C37 C38 1_555 1_555
C38 H48 1_555 1_555
C39 C38 1_555 1_555
C40 C39 1_555 1_555
H49 C40 1_555 1_555
H50 C40 1_555 1_555
C41 C40 1_555 1_555
C42 C37 1_555 1_555
H51 C42 1_555 1_555
H52 C42 1_555 1_555
C43 C39 1_555 1_555
H53 C43 1_555 1_555
H54 C43 1_555 1_555
H55 C43 1_555 1_555
C44 C41 1_555 1_555
H56 C44 1_555 1_555
H57 C44 1_555 1_555
H58 C44 1_555 1_555
C45 C41 1_555 1_555
H59 C45 1_555 1_555
H60 C45 1_555 1_555
H61 C45 1_555 1_555
O12 C46 1_555 1_555
C46 C47 1_555 1_555
C47 H62 1_555 1_555
C48 C47 1_555 1_555
C49 C48 1_555 1_555
H63 C49 1_555 1_555
H64 C49 1_555 1_555
C50 C49 1_555 1_555
C51 C46 1_555 1_555
H65 C51 1_555 1_555
H66 C51 1_555 1_555
C52 C48 1_555 1_555
H67 C52 1_555 1_555
H68 C52 1_555 1_555
H69 C52 1_555 1_555
C53 C50 1_555 1_555
H70 C53 1_555 1_555
H71 C53 1_555 1_555
H72 C53 1_555 1_555
C54 C50 1_555 1_555
H73 C54 1_555 1_555
H74 C54 1_555 1_555
H75 C54 1_555 1_555
O13 C55 1_555 1_555
C55 C56 1_555 1_555
C56 H76 1_555 1_555
C57 C56 1_555 1_555
C58 C57 1_555 1_555
H77 C58 1_555 1_555
H78 C58 1_555 1_555
C59 C58 1_555 1_555
C60 C55 1_555 1_555
H79 C60 1_555 1_555
H80 C60 1_555 1_555
C61 C57 1_555 1_555
H81 C61 1_555 1_555
H82 C61 1_555 1_555
H83 C61 1_555 1_555
C62 C59 1_555 1_555
H84 C62 1_555 1_555
H85 C62 1_555 1_555
H86 C62 1_555 1_555
C63 C59 1_555 1_555
H87 C63 1_555 1_555
H88 C63 1_555 1_555
H89 C63 1_555 1_555
C5 C6 1_555 1_555
C9 C10 1_555 1_555
C11 C12 1_555 1_555
C15 C16 1_555 1_555
C17 C18 1_555 1_555
C21 C22 1_555 1_555
C23 C24 1_555 1_555
N2 C25 1_555 1_555
N3 C25 1_555 1_555
N5 C26 1_555 1_555
N6 C26 1_555 1_555
N8 C27 1_555 1_555
N9 C27 1_555 1_555
C32 C33 1_555 1_555
C41 C42 1_555 1_555
C50 C51 1_555 1_555
C59 C60 1_555 1_555

#END
