
#######################################################################
#
#                 Cambridge Crystallographic Data Centre
#                                CCDC 
#
#######################################################################
#
# If this CIF has been generated from an entry in the Cambridge 
# Structural Database, then it will include bibliographic, chemical, 
# crystal, experimental, refinement or atomic coordinate data resulting 
# from the CCDC's data processing and validation procedures.
#
#######################################################################

data_AFOHEJ
_chemical_formula_moiety         'C14 H13 N1 O1'
_chemical_name_systematic        2-(p-Tolyl)benzamide
_symmetry_cell_setting           monoclinic
_symmetry_space_group_name_H-M   'P 21/c'
_symmetry_Int_Tables_number      14
_space_group_name_Hall           '-P 2ybc'
loop_
_symmetry_equiv_pos_site_id
_symmetry_equiv_pos_as_xyz
1 x,y,z
2 -x,1/2+y,1/2-z
3 -x,-y,-z
4 x,1/2-y,1/2+z
_cell_length_a                   15.746(14)
_cell_length_b                   5.145(5)
_cell_length_c                   15.746(14)
_cell_angle_alpha                90.00
_cell_angle_beta                 109.22
_cell_angle_gamma                90.00
_cell_volume                     1204.53
_cell_formula_units_Z            4
loop_
_atom_site_label
_atom_site_type_symbol
_atom_site_fract_x
_atom_site_fract_y
_atom_site_fract_z
C1 C 0.27418(15) 0.6802(5) 0.22517(15)
C2 C 0.32481(18) 0.9026(5) 0.26079(17)
H1 H 0.3193 0.9778 0.3124
C3 C 0.3830(2) 1.0142(6) 0.2211(2)
H2 H 0.4157 1.1615 0.2467
C4 C 0.39296(18) 0.9087(6) 0.1440(2)
C5 C 0.34116(19) 0.6943(6) 0.10723(19)
H3 H 0.3452 0.6235 0.0544
C6 C 0.28313(18) 0.5807(5) 0.14657(16)
H4 H 0.2497 0.4357 0.1198
C7 C 0.22167(16) 0.5400(5) 0.27416(15)
C8 C 0.13901(16) 0.4106(4) 0.23087(15)
C9 C 0.10025(18) 0.2558(5) 0.28133(18)
H5 H 0.0474 0.1660 0.2523
C10 C 0.1388(2) 0.2339(6) 0.3732(2)
H6 H 0.1121 0.1321 0.4061
C11 C 0.2182(2) 0.3660(6) 0.41575(19)
H7 H 0.2446 0.3543 0.4778
C12 C 0.2584(2) 0.5146(5) 0.36676(17)
H8 H 0.3118 0.6006 0.3968
C13 C 0.08671(15) 0.4512(4) 0.13370(16)
C14 C 0.4586(2) 1.0262(8) 0.1022(3)
H9 H 0.4568 0.9287 0.0496
H10 H 0.5184 1.0207 0.1449
H11 H 0.4421 1.2034 0.0856
O1 O 0.06984(11) 0.6738(3) 0.10155(11)
N1 N 0.05625(16) 0.2401(4) 0.08519(14)
H12 H 0.0237 0.2541 0.0296
H13 H 0.0690 0.0888 0.1093
loop_
_geom_bond_atom_site_label_1
_geom_bond_atom_site_label_2
_geom_bond_site_symmetry_1
_geom_bond_site_symmetry_2
C1 C2 1_555 1_555
C2 H1 1_555 1_555
C3 C2 1_555 1_555
H2 C3 1_555 1_555
C4 C3 1_555 1_555
C5 C4 1_555 1_555
H3 C5 1_555 1_555
C6 C1 1_555 1_555
H4 C6 1_555 1_555
C7 C1 1_555 1_555
C8 C7 1_555 1_555
C9 C8 1_555 1_555
H5 C9 1_555 1_555
C10 C9 1_555 1_555
H6 C10 1_555 1_555
C11 C10 1_555 1_555
H7 C11 1_555 1_555
C12 C7 1_555 1_555
H8 C12 1_555 1_555
C13 C8 1_555 1_555
C14 C4 1_555 1_555
H9 C14 1_555 1_555
H10 C14 1_555 1_555
H11 C14 1_555 1_555
O1 C13 1_555 1_555
N1 C13 1_555 1_555
H12 N1 1_555 1_555
H13 N1 1_555 1_555
C5 C6 1_555 1_555
C11 C12 1_555 1_555

#END
