
#######################################################################
#
#                 Cambridge Crystallographic Data Centre
#                                CCDC 
#
#######################################################################
#
# If this CIF has been generated from an entry in the Cambridge 
# Structural Database, then it will include bibliographic, chemical, 
# crystal, experimental, refinement or atomic coordinate data resulting 
# from the CCDC's data processing and validation procedures.
#
#######################################################################

data_AFOHAH
_chemical_formula_moiety         
'3(C1 H6 N3 1+),C24 H15 O9 S3 3-,3.1(C9 H14 O1),2(C6 F6),2(C1 H4 O1)'
_chemical_name_systematic        
'tris(Guanidinium) 1,3,5-tris(4-sulfonatophenyl)benzene tris(isophorone) bis(hexafluorobenzene) clathrate methanol solvate'
_symmetry_cell_setting           hexagonal
_symmetry_space_group_name_H-M   'P 63'
_symmetry_Int_Tables_number      173
_space_group_name_Hall           'P 6c'
loop_
_symmetry_equiv_pos_site_id
_symmetry_equiv_pos_as_xyz
1 x,y,z
2 -y,x-y,z
3 -x+y,-x,z
4 -x,-y,1/2+z
5 y,-x+y,1/2+z
6 x-y,x,1/2+z
_cell_length_a                   24.1573(19)
_cell_length_b                   24.1573(19)
_cell_length_c                   7.3306(6)
_cell_angle_alpha                90
_cell_angle_beta                 90
_cell_angle_gamma                120
_cell_volume                     3704.82
_exptl_crystal_colour            colorless
_exptl_crystal_description       rod
_cell_formula_units_Z            2
_exptl_crystal_preparation       
'The crystal was immersed in neat hexafluorobenzene liquid for 24 hours prior to data collection.'
loop_
_atom_site_label
_atom_site_type_symbol
_atom_site_fract_x
_atom_site_fract_y
_atom_site_fract_z
N1 N 0.14580(12) 0.28706(13) 0.9117(5)
H6 H 0.131497 0.293737 0.808382
H7 H 0.132527 0.294101 1.016284
N2 N 0.20777(16) 0.25556(18) 0.7542(4)
H8 H 0.235889 0.242524 0.753543
H9 H 0.193062 0.261480 0.650613
N3 N 0.20959(17) 0.25741(19) 1.0673(4)
H10 H 0.237718 0.244386 1.068048
H11 H 0.195894 0.264650 1.170878
C9 C 0.18779(14) 0.26616(15) 0.9096(6)
O4 O 0.43031(12) 0.52590(12) 0.5023(4)
C10 C 0.42312(13) 0.48678(13) 0.3843(5)
C11 C 0.38693(15) 0.47955(14) 0.2160(5)
H12 H 0.370728 0.507691 0.196221
C12 C 0.37584(14) 0.43560(15) 0.0907(4)
C13 C 0.39930(15) 0.38877(15) 0.1142(4)
H13 H 0.438917 0.403840 0.042020
H14 H 0.366845 0.346950 0.063792
C14 C 0.41297(15) 0.37917(14) 0.3118(5)
C15 C 0.45304(12) 0.44522(13) 0.3995(5)
H15 H 0.459442 0.439586 0.530143
H16 H 0.495620 0.467326 0.340662
C16 C 0.34173(15) 0.43126(15) -0.0857(6)
H17 H 0.304204 0.388480 -0.097382
H18 H 0.370728 0.439222 -0.188469
H19 H 0.328112 0.463264 -0.085839
C17 C 0.34956(13) 0.34031(13) 0.4149(5)
H20 H 0.325964 0.363555 0.413656
H21 H 0.358327 0.333865 0.541239
H22 H 0.323940 0.298721 0.355420
C18 C 0.45008(17) 0.34320(16) 0.3168(5)
H23 H 0.423862 0.300556 0.263921
H24 H 0.460544 0.339153 0.443486
H25 H 0.489620 0.366853 0.246278
F1 F 0.60403(11) 0.39987(11) 0.4458(5)
F2 F 0.73320(12) 0.46278(10) 0.4443(5)
C19 C 0.63492(18) 0.36720(18) 0.4437(6)
C20 C 0.70023(18) 0.39897(17) 0.4455(5)
F1A F 0.60013(11) 0.20416(16) 0.4458(5)
F2A F 0.53722(10) 0.27042(16) 0.4443(5)
C19A C 0.63280(18) 0.26772(25) 0.4437(6)
C20A C 0.60103(17) 0.30126(25) 0.4455(5)
F1B F 0.79584(16) 0.39597(11) 0.4458(5)
F2B F 0.72958(16) 0.26680(12) 0.4443(5)
C19B C 0.73228(25) 0.36508(18) 0.4437(6)
C20B C 0.69874(25) 0.29977(18) 0.4455(5)
S1 S 0.12749(3) 0.31297(3) 0.41284(13)
O1 O 0.08835(11) 0.29557(11) 0.5776(3)
O2 O 0.17038(8) 0.28665(9) 0.4120(4)
O3 O 0.08887(11) 0.29789(11) 0.2486(3)
C1 C 0.29441(13) 0.59985(13) 0.4483(3)
C2 C 0.36092(13) 0.62788(13) 0.4489(4)
H1 H 0.379744 0.601507 0.449642
C3 C 0.25281(13) 0.52921(12) 0.4417(4)
C4 C 0.19462(14) 0.50117(15) 0.3485(4)
H2 H 0.180761 0.527502 0.291759
C5 C 0.15696(14) 0.43533(16) 0.3379(5)
H3 H 0.117400 0.416640 0.274410
C6 C 0.17696(11) 0.39686(12) 0.4198(5)
C7 C 0.23433(15) 0.42352(15) 0.5160(5)
H4 H 0.247548 0.396852 0.573895
C8 C 0.27203(14) 0.48974(14) 0.5262(4)
H5 H 0.311260 0.508296 0.591378
S1A S 0.68703(3) 0.81452(4) 0.41284(13)
O1A O 0.70443(11) 0.79278(16) 0.5776(3)
O2A O 0.71335(9) 0.88373(12) 0.4120(4)
O3A O 0.70211(11) 0.79098(16) 0.2486(3)
C1A C 0.40015(13) 0.69456(18) 0.4483(3)
C2A C 0.37212(13) 0.73304(18) 0.4489(4)
H1A H 0.398493 0.778237 0.449642
C3A C 0.47079(12) 0.72360(18) 0.4417(4)
C4A C 0.49883(15) 0.69345(21) 0.3485(4)
H2A H 0.472498 0.653259 0.291759
C5A C 0.56467(16) 0.72163(21) 0.3379(5)
H3A H 0.583360 0.700760 0.274410
C6A C 0.60314(12) 0.78010(16) 0.4198(5)
C7A C 0.57648(15) 0.81081(21) 0.5160(5)
H4A H 0.603148 0.850696 0.573895
C8A C 0.51026(14) 0.78229(20) 0.5262(4)
H5A H 0.491704 0.802964 0.591378
S1B S 0.18548(4) 0.87251(3) 0.41284(13)
O1B O 0.20722(16) 0.91165(11) 0.5776(3)
O2B O 0.11627(12) 0.82962(8) 0.4120(4)
O3B O 0.20902(16) 0.91113(11) 0.2486(3)
C1B C 0.30544(18) 0.70559(13) 0.4483(3)
C2B C 0.26696(18) 0.63908(13) 0.4489(4)
H1B H 0.221763 0.620256 0.449642
C3B C 0.27640(18) 0.74719(13) 0.4417(4)
C4B C 0.30655(21) 0.80538(14) 0.3485(4)
H2B H 0.346741 0.819239 0.291759
C5B C 0.27837(21) 0.84304(14) 0.3379(5)
H3B H 0.299240 0.882600 0.274410
C6B C 0.21990(16) 0.82304(11) 0.4198(5)
C7B C 0.18919(21) 0.76567(15) 0.5160(5)
H4B H 0.149304 0.752452 0.573895
C8B C 0.21771(20) 0.72797(14) 0.5262(4)
H5B H 0.197036 0.688740 0.591378
loop_
_geom_bond_atom_site_label_1
_geom_bond_atom_site_label_2
_geom_bond_site_symmetry_1
_geom_bond_site_symmetry_2
S1 O1 1_555 1_555
O2 S1 1_555 1_555
O3 S1 1_555 1_555
C1 C2 1_555 1_555
C2 H1 1_555 1_555
C3 C1 1_555 1_555
C4 C3 1_555 1_555
H2 C4 1_555 1_555
C5 C4 1_555 1_555
H3 C5 1_555 1_555
C6 S1 1_555 1_555
C7 C6 1_555 1_555
H4 C7 1_555 1_555
C8 C3 1_555 1_555
H5 C8 1_555 1_555
N1 H6 1_555 1_555
H7 N1 1_555 1_555
N2 H8 1_555 1_555
H9 N2 1_555 1_555
N3 H10 1_555 1_555
H11 N3 1_555 1_555
C9 N1 1_555 1_555
O4 C10 1_555 1_555
C10 C11 1_555 1_555
C11 H12 1_555 1_555
C12 C11 1_555 1_555
C13 C12 1_555 1_555
H13 C13 1_555 1_555
H14 C13 1_555 1_555
C14 C13 1_555 1_555
C15 C10 1_555 1_555
H15 C15 1_555 1_555
H16 C15 1_555 1_555
C16 C12 1_555 1_555
H17 C16 1_555 1_555
H18 C16 1_555 1_555
H19 C16 1_555 1_555
C17 C14 1_555 1_555
H20 C17 1_555 1_555
H21 C17 1_555 1_555
H22 C17 1_555 1_555
C18 C14 1_555 1_555
H23 C18 1_555 1_555
H24 C18 1_555 1_555
H25 C18 1_555 1_555
F1 C19 1_555 1_555
F2 C20 1_555 1_555
C19 C20 1_555 1_555
C20 C19B 1_555 1_555
S1A O1A 1_555 1_555
O2A S1A 1_555 1_555
O3A S1A 1_555 1_555
C1A C2 1_555 1_555
C2A C1A 1_555 1_555
H1A C2A 1_555 1_555
C3A C1A 1_555 1_555
C4A C3A 1_555 1_555
H2A C4A 1_555 1_555
C5A C4A 1_555 1_555
H3A C5A 1_555 1_555
C6A S1A 1_555 1_555
C7A C6A 1_555 1_555
H4A C7A 1_555 1_555
C8A C3A 1_555 1_555
H5A C8A 1_555 1_555
S1B O1B 1_555 1_555
O2B S1B 1_555 1_555
O3B S1B 1_555 1_555
C1B C2A 1_555 1_555
C2B C1 1_555 1_555
H1B C2B 1_555 1_555
C3B C1B 1_555 1_555
C4B C3B 1_555 1_555
H2B C4B 1_555 1_555
C5B C4B 1_555 1_555
H3B C5B 1_555 1_555
C6B S1B 1_555 1_555
C7B C6B 1_555 1_555
H4B C7B 1_555 1_555
C8B C3B 1_555 1_555
H5B C8B 1_555 1_555
F1A C19A 1_555 1_555
F2A C20A 1_555 1_555
C19A C20A 1_555 1_555
C20A C19 1_555 1_555
F1B C19B 1_555 1_555
F2B C20B 1_555 1_555
C19B C20B 1_555 1_555
C20B C19A 1_555 1_555
C5 C6 1_555 1_555
C7 C8 1_555 1_555
N2 C9 1_555 1_555
N3 C9 1_555 1_555
C14 C15 1_555 1_555
C5A C6A 1_555 1_555
C7A C8A 1_555 1_555
C1B C2B 1_555 1_555
C5B C6B 1_555 1_555
C7B C8B 1_555 1_555

#END
