
#######################################################################
#
#                 Cambridge Crystallographic Data Centre
#                                CCDC 
#
#######################################################################
#
# If this CIF has been generated from an entry in the Cambridge 
# Structural Database, then it will include bibliographic, chemical, 
# crystal, experimental, refinement or atomic coordinate data resulting 
# from the CCDC's data processing and validation procedures.
#
#######################################################################

data_AFOHOV
_chemical_formula_moiety         'C70 H80 O4'
_chemical_name_systematic        
8,16-bis(4-t-butyl-2,6-bis(methoxymethyl)phenyl)-5,13-dihexylpyranthrene
_symmetry_cell_setting           triclinic
_symmetry_space_group_name_H-M   'P -1'
_symmetry_Int_Tables_number      2
_space_group_name_Hall           '-P 1'
loop_
_symmetry_equiv_pos_site_id
_symmetry_equiv_pos_as_xyz
1 x,y,z
2 -x,-y,-z
_cell_length_a                   17.612(2)
_cell_length_b                   17.855(2)
_cell_length_c                   18.518(2)
_cell_angle_alpha                103.889(6)
_cell_angle_beta                 97.137(6)
_cell_angle_gamma                91.927(6)
_cell_volume                     5596.97
_exptl_crystal_colour            orange
_exptl_crystal_description       Rod
_cell_formula_units_Z            4
loop_
_atom_site_label
_atom_site_type_symbol
_atom_site_fract_x
_atom_site_fract_y
_atom_site_fract_z
O1 O 0.7415(4) 1.1771(4) 0.7651(4)
O2 O 0.3771(3) 1.0077(3) 0.5629(3)
O3 O 0.4526(3) 0.7691(3) 1.1034(3)
O4 O 0.7862(3) 0.6150(3) 1.0500(3)
C1 C 0.5733(4) 0.9823(4) 0.7798(4)
C2 C 0.5481(5) 1.0472(5) 0.8343(4)
H1 H 0.517400 1.083903 0.817404
C3 C 0.5685(6) 1.0550(5) 0.9088(5)
H2 H 0.568519 1.104283 0.942631
C4 C 0.5906(4) 0.9885(4) 0.9378(4)
C5 C 0.5932(4) 0.9171(4) 0.8839(4)
C6 C 0.5903(4) 0.9131(4) 0.8058(4)
C7 C 0.6036(4) 0.8438(4) 0.7549(4)
C8 C 0.6219(4) 0.8506(4) 0.6821(4)
C9 C 0.6091(4) 0.9194(4) 0.6589(4)
C10 C 0.5802(4) 0.9845(4) 0.7080(4)
C11 C 0.6291(4) 0.9261(4) 0.5894(4)
H3 H 0.618644 0.971597 0.572898
C12 C 0.6632(5) 0.8686(5) 0.5457(4)
H4 H 0.675125 0.873636 0.498398
C13 C 0.6811(4) 0.8011(4) 0.5696(4)
H5 H 0.706678 0.761624 0.539646
C14 C 0.6613(5) 0.7936(4) 0.6360(4)
H6 H 0.674232 0.748596 0.652423
C15 C 0.6061(4) 0.9941(4) 1.0141(4)
C16 C 0.6223(4) 0.9252(4) 1.0387(4)
C17 C 0.6087(4) 0.8524(4) 0.9866(4)
C18 C 0.5992(4) 0.8480(4) 0.9078(4)
C19 C 0.5930(4) 0.7754(4) 0.8530(4)
C20 C 0.5978(4) 0.7720(4) 0.7774(4)
C21 C 0.5812(5) 0.7076(4) 0.8801(4)
H7 H 0.572555 0.658773 0.844916
C22 C 0.5818(5) 0.7108(4) 0.9540(4)
H8 H 0.567098 0.665722 0.968915
C23 C 0.6047(4) 0.7821(4) 1.0105(4)
C24 C 0.6176(4) 0.7824(4) 1.0856(4)
C25 C 0.6417(4) 0.8542(4) 1.1395(4)
C26 C 0.6479(4) 0.9246(4) 1.1164(4)
C27 C 0.6830(5) 0.9905(5) 1.1706(4)
H9 H 0.693601 1.036302 1.155132
C28 C 0.7021(5) 0.9903(5) 1.2444(5)
H10 H 0.724524 1.035827 1.279651
C29 C 0.6884(5) 0.9231(5) 1.2676(4)
H11 H 0.698201 0.923859 1.319414
C30 C 0.6611(5) 0.8559(4) 1.2164(4)
H12 H 0.655111 0.809764 1.232684
C31 C 0.5653(4) 1.0560(4) 0.6809(4)
C32 C 0.6159(4) 1.1217(4) 0.7062(4)
C33 C 0.6036(4) 1.1884(4) 0.6797(4)
H13 H 0.639512 1.231892 0.696945
C34 C 0.5404(4) 1.1914(4) 0.6293(4)
C35 C 0.4897(5) 1.1256(4) 0.6041(4)
H14 H 0.446100 1.126722 0.568611
C36 C 0.5006(4) 1.0588(4) 0.6289(4)
C37 C 0.6813(5) 1.1255(5) 0.7686(5)
H15 H 0.662339 1.142081 0.817705
H16 H 0.700438 1.073327 0.764560
C38 C 0.7880(6) 1.2003(6) 0.8364(6)
H17 H 0.828232 1.238896 0.834560
H18 H 0.811675 1.155256 0.848686
H19 H 0.756209 1.222832 0.874841
C39 C 0.4452(5) 0.9878(4) 0.6001(5)
H20 H 0.468928 0.947298 0.565132
H21 H 0.433479 0.966915 0.642720
C40 C 0.3264(5) 0.9413(5) 0.5310(5)
H22 H 0.277616 0.956959 0.509331
H23 H 0.317217 0.914852 0.570026
H24 H 0.349297 0.906209 0.491476
C41 C 0.5239(4) 1.2637(4) 0.6001(4)
C42 C 0.4429(5) 1.2868(4) 0.6144(5)
H25 H 0.430535 1.330979 0.593369
H26 H 0.440765 1.301049 0.668614
H27 H 0.405780 1.243127 0.590451
C43 C 0.5793(5) 1.3334(4) 0.6408(5)
H28 H 0.563680 1.379000 0.623392
H29 H 0.631400 1.322408 0.629794
H30 H 0.578282 1.343370 0.695012
C44 C 0.5298(5) 1.2473(5) 0.5164(5)
H31 H 0.520441 1.294158 0.498851
H32 H 0.491580 1.205860 0.488869
H33 H 0.581262 1.231257 0.507674
C45 C 0.6135(5) 0.7090(4) 1.1116(4)
C46 C 0.5526(4) 0.6908(4) 1.1468(4)
C47 C 0.5526(4) 0.6224(4) 1.1714(4)
H34 H 0.510748 0.610377 1.195407
C48 C 0.6098(4) 0.5718(4) 1.1627(4)
C49 C 0.6684(4) 0.5904(4) 1.1248(4)
H35 H 0.708091 0.555981 1.116125
C50 C 0.6711(5) 0.6581(4) 1.0987(4)
C51 C 0.4882(5) 0.7436(4) 1.1655(4)
H36 H 0.448940 0.715770 1.185006
H37 H 0.509075 0.789305 1.205972
C52 C 0.4069(6) 0.7077(5) 1.0513(5)
H38 H 0.383598 0.726240 1.008507
H39 H 0.366372 0.689282 1.075903
H40 H 0.439037 0.665158 1.033605
C53 C 0.7377(5) 0.6753(4) 1.0586(4)
H41 H 0.717519 0.682877 1.008687
H42 H 0.766768 0.723700 1.088029
C54 C 0.8445(5) 0.6274(5) 1.0078(5)
H43 H 0.874401 0.581631 0.997715
H44 H 0.878289 0.672330 1.036153
H45 H 0.821498 0.637006 0.960140
C55 C 0.6100(5) 0.4968(4) 1.1893(5)
C56 C 0.5471(5) 0.4913(5) 1.2371(5)
H46 H 0.549633 0.443086 1.253422
H47 H 0.497023 0.492065 1.207534
H48 H 0.553819 0.535378 1.281176
C57 C 0.6871(6) 0.4926(6) 1.2364(6)
H49 H 0.685128 0.447085 1.257164
H50 H 0.697428 0.539357 1.277504
H51 H 0.728022 0.488624 1.204575
C58 C 0.5986(6) 0.4284(5) 1.1210(5)
H52 H 0.596548 0.380167 1.137393
H53 H 0.641355 0.429005 1.091980
H54 H 0.550378 0.431881 1.089602
C59 C 0.5956(5) 1.0708(4) 1.0678(4)
H55 H 0.590445 1.060917 1.117368
H56 H 0.546608 1.090041 1.049597
C60 C 0.6588(5) 1.1356(4) 1.0794(4)
H57 H 0.708445 1.117208 1.097152
H58 H 0.663252 1.147887 1.030619
C61 C 0.6429(5) 1.2088(4) 1.1359(5)
H59 H 0.682782 1.249866 1.137561
H60 H 0.592829 1.226468 1.118247
C62 C 0.6415(6) 1.1985(5) 1.2144(5)
H61 H 0.600080 1.159150 1.213143
H62 H 0.690743 1.178571 1.231184
C63 C 0.6293(6) 1.2719(5) 1.2709(5)
H63 H 0.673150 1.309795 1.275960
H64 H 0.582345 1.294418 1.252352
C64 C 0.6214(8) 1.2577(6) 1.3468(6)
H65 H 0.614331 1.306754 1.382035
H66 H 0.667800 1.235587 1.365398
H67 H 0.576876 1.221643 1.342312
C65 C 0.5874(5) 0.6931(4) 0.7221(4)
H68 H 0.575421 0.700784 0.670839
H69 H 0.542303 0.664585 0.732287
C66 C 0.6557(5) 0.6422(4) 0.7232(5)
H70 H 0.701543 0.670701 0.714690
H71 H 0.666353 0.631608 0.773463
C67 C 0.6418(5) 0.5651(4) 0.6637(4)
H72 H 0.680948 0.529776 0.675542
H73 H 0.590918 0.541281 0.666058
C68 C 0.6449(6) 0.5735(5) 0.5840(5)
H74 H 0.606497 0.609605 0.572229
H75 H 0.696224 0.596191 0.581060
C69 C 0.6294(7) 0.4964(5) 0.5256(5)
H76 H 0.667410 0.460073 0.537554
H77 H 0.577771 0.474020 0.527917
C70 C 0.6336(9) 0.5055(7) 0.4471(6)
H78 H 0.627104 0.454491 0.411633
H79 H 0.683611 0.530287 0.445327
H80 H 0.592853 0.537588 0.433342
O5 O 1.0534(3) 0.3688(4) 0.8253(3)
O6 O 0.6524(3) 0.4330(3) 0.8581(3)
O7 O 1.1222(4) 0.8786(4) 0.5012(4)
O8 O 0.7292(3) 0.7853(4) 0.3484(3)
C71 C 0.8562(5) 0.5095(5) 0.7285(4)
C72 C 0.8733(5) 0.5708(5) 0.7964(4)
H81 H 0.879546 0.557902 0.843556
C73 C 0.8805(6) 0.6458(5) 0.7946(5)
H82 H 0.888445 0.684160 0.840795
C74 C 0.8768(5) 0.6701(4) 0.7253(4)
C75 C 0.8715(4) 0.6086(4) 0.6580(4)
C76 C 0.8579(4) 0.5297(4) 0.6585(4)
C77 C 0.8480(4) 0.4705(4) 0.5904(4)
C78 C 0.8194(4) 0.3941(4) 0.5934(4)
C79 C 0.8204(4) 0.3748(4) 0.6636(4)
C80 C 0.8425(5) 0.4337(4) 0.7316(4)
C81 C 0.7972(5) 0.2992(5) 0.6669(5)
H83 H 0.802561 0.285920 0.713866
C82 C 0.7671(5) 0.2449(5) 0.6033(4)
H84 H 0.752570 0.193930 0.605676
C83 C 0.7582(5) 0.2655(5) 0.5351(5)
H85 H 0.733982 0.229275 0.491248
C84 C 0.7837(5) 0.3368(5) 0.5302(4)
H86 H 0.777344 0.348527 0.482545
C85 C 0.8781(4) 0.7471(5) 0.7229(4)
C86 C 0.8777(4) 0.7674(4) 0.6526(4)
C87 C 0.8886(4) 0.7076(4) 0.5880(4)
C88 C 0.8814(4) 0.6283(4) 0.5904(4)
C89 C 0.8857(5) 0.5666(5) 0.5248(4)
C90 C 0.8697(5) 0.4901(5) 0.5245(4)
C91 C 0.9097(6) 0.5892(5) 0.4604(5)
H87 H 0.914827 0.550374 0.416480
C92 C 0.9249(5) 0.6643(5) 0.4617(5)
H88 H 0.948049 0.676269 0.421846
C93 C 0.9072(4) 0.7274(5) 0.5219(4)
C94 C 0.9087(4) 0.8030(4) 0.5160(4)
C95 C 0.8867(4) 0.8627(4) 0.5751(4)
C96 C 0.8679(4) 0.8441(5) 0.6412(4)
C97 C 0.8340(5) 0.9031(5) 0.6907(5)
H89 H 0.818021 0.892304 0.734456
C98 C 0.8235(5) 0.9744(5) 0.6781(5)
H90 H 0.799421 1.011360 0.712348
C99 C 0.8476(5) 0.9935(5) 0.6160(5)
H91 H 0.842699 1.044154 0.608826
C100 C 0.8787(5) 0.9383(5) 0.5652(5)
H92 H 0.895139 0.951057 0.522400
C101 C 0.8505(5) 0.4126(5) 0.8068(4)
C102 C 0.9203(5) 0.3918(4) 0.8346(4)
C103 C 0.9309(5) 0.3767(5) 0.9045(4)
H93 H 0.979241 0.361409 0.922875
C104 C 0.8712(5) 0.3835(4) 0.9491(4)
C105 C 0.8014(5) 0.4025(4) 0.9196(4)
H94 H 0.759647 0.404546 0.947775
C106 C 0.7899(5) 0.4189(5) 0.8487(4)
C107 C 0.9848(5) 0.3851(6) 0.7869(5)
H95 H 0.970289 0.343492 0.740529
H96 H 0.992639 0.434179 0.772019
C108 C 1.1131(5) 0.3629(7) 0.7794(5)
H97 H 1.159736 0.348401 0.806117
H98 H 1.123239 0.412833 0.768023
H99 H 1.097478 0.323397 0.732558
C109 C 0.7120(5) 0.4385(6) 0.8156(5)
H100 H 0.716524 0.491936 0.809353
H101 H 0.697981 0.403507 0.765070
C110 C 0.6443(6) 0.5018(6) 0.9117(6)
H102 H 0.595660 0.498112 0.931511
H103 H 0.644821 0.545417 0.888051
H104 H 0.686885 0.509950 0.952761
C111 C 0.8847(5) 0.3687(5) 1.0277(4)
C112 C 0.9470(10) 0.4300(9) 1.0752(8)
H105 H 0.991225 0.430400 1.048022
H106 H 0.963071 0.417233 1.123220
H107 H 0.926119 0.481090 1.084591
C113 C 0.8129(9) 0.3756(11) 1.0661(8)
H108 H 0.796647 0.428602 1.073395
H109 H 0.823829 0.363187 1.114893
H110 H 0.771810 0.339573 1.034628
C114 C 0.9152(10) 0.2889(9) 1.0222(9)
H111 H 0.873579 0.249150 0.999842
H112 H 0.935092 0.283909 1.072507
H113 H 0.956403 0.282401 0.990661
C115 C 0.9250(5) 0.8228(4) 0.4445(4)
C116 C 0.9991(5) 0.8262(5) 0.4243(5)
C117 C 1.0097(5) 0.8433(5) 0.3569(5)
H114 H 1.060385 0.847158 0.345051
C118 C 0.9493(5) 0.8550(5) 0.3062(5)
C119 C 0.8770(5) 0.8490(5) 0.3261(4)
H115 H 0.834591 0.857227 0.292547
C120 C 0.8626(5) 0.8316(5) 0.3923(4)
C121 C 1.0682(5) 0.8132(6) 0.4756(5)
H116 H 1.050707 0.799266 0.519678
H117 H 1.094353 0.768887 0.448589
C122 C 1.0984(7) 0.9332(6) 0.5611(6)
H118 H 1.134571 0.978852 0.575424
H119 H 1.096858 0.910389 0.604066
H120 H 1.047153 0.948363 0.545458
C123 C 0.7817(5) 0.8283(6) 0.4099(5)
H121 H 0.780317 0.804776 0.452962
H122 H 0.765210 0.881689 0.424929
C124 C 0.7374(5) 0.7048(6) 0.3355(6)
H123 H 0.703082 0.677714 0.290282
H124 H 0.724106 0.686940 0.378706
H125 H 0.790545 0.694076 0.328644
C125 C 0.9603(5) 0.8765(5) 0.2327(5)
C126 C 0.9579(7) 0.9640(6) 0.2455(6)
H126 H 0.967294 0.979127 0.199717
H127 H 0.997532 0.989529 0.286916
H128 H 0.907405 0.979553 0.258093
C127 C 1.0370(7) 0.8514(6) 0.2074(6)
H129 H 1.042438 0.865620 0.160284
H130 H 1.038766 0.795312 0.199751
H131 H 1.079058 0.877352 0.246091
C128 C 0.8966(7) 0.8359(7) 0.1695(5)
H132 H 0.908123 0.844605 0.121645
H133 H 0.847413 0.857041 0.180300
H134 H 0.893584 0.780333 0.166450
C129 C 0.8866(5) 0.8084(5) 0.7978(4)
H135 H 0.928752 0.795248 0.832327
H136 H 0.901547 0.858972 0.788874
C130 C 0.8146(7) 0.8165(6) 0.8363(5)
H137 H 0.775903 0.839625 0.806222
H138 H 0.793719 0.764073 0.835345
C131 C 0.8243(16) 0.8644(8) 0.9164(8)
H139 H 0.776047 0.859030 0.937555
H140 H 0.865196 0.843570 0.946278
C132 C 0.8444(15) 0.9491(8) 0.9246(9)
H141 H 0.806339 0.968769 0.890884
H142 H 0.895268 0.954944 0.908427
C133 C 0.8462(15) 0.9982(8) 1.0051(9)
H143 H 0.797755 0.988020 1.024203
H144 H 0.889099 0.984164 1.038170
C134 C 0.8563(14) 1.0837(8) 1.0065(11)
H145 H 0.902623 1.093012 0.984752
H146 H 0.861079 1.114708 1.058446
H147 H 0.811578 1.098412 0.977078
C135 C 0.8857(5) 0.4283(5) 0.4559(4)
H148 H 0.937217 0.440858 0.444166
H149 H 0.887314 0.377993 0.469666
C136 C 0.8281(5) 0.4186(5) 0.3848(4)
H150 H 0.815976 0.470281 0.377550
H151 H 0.779969 0.392039 0.391033
C137 C 0.8592(6) 0.3719(5) 0.3150(5)
H152 H 0.822264 0.371988 0.270092
H153 H 0.907934 0.398285 0.309967
C138 C 0.8735(6) 0.2889(5) 0.3156(5)
H154 H 0.915438 0.288647 0.356480
H155 H 0.826764 0.264210 0.327090
C139 C 0.8944(7) 0.2413(6) 0.2430(6)
H156 H 0.941111 0.265887 0.231415
H157 H 0.852414 0.241146 0.202148
C140 C 0.9088(8) 0.1587(6) 0.2448(7)
H158 H 0.923787 0.131245 0.196698
H159 H 0.861873 0.133001 0.253344
H160 H 0.950001 0.158322 0.285417
C141? C 0.897(2) 0.446(2) 1.0842(17)
H161? H 0.939886 0.476238 1.073627
H162? H 0.907851 0.438523 1.134929
H163? H 0.850211 0.474643 1.080583
C142? C 0.814(2) 0.324(2) 1.0443(18)
H164? H 0.826501 0.311585 1.092791
H165? H 0.801541 0.276737 1.004632
H166? H 0.770536 0.356906 1.045831
C143? C 0.950(2) 0.316(2) 1.0382(18)
H167? H 0.998743 0.347803 1.055474
H168? H 0.954010 0.279416 0.990259
H169? H 0.940227 0.287795 1.075567
H170? H 0.801303 0.767373 0.849026
H171? H 0.771343 0.827075 0.801379
C144? C 0.827(4) 0.884(3) 0.910(3)
H172? H 0.793050 0.871753 0.944959
H173? H 0.880525 0.884179 0.934293
C145? C 0.815(3) 0.9580(16) 0.904(3)
H174? H 0.761432 0.958666 0.881006
H175? H 0.848911 0.970939 0.869833
C146? C 0.829(4) 1.025(3) 0.982(3)
H176? H 0.803605 1.072100 0.973886
H177? H 0.805943 1.007905 1.021449
C147? C 0.912(3) 1.045(3) 1.006(3)
H178? H 0.940703 0.999798 0.986635
H179? H 0.922347 1.059573 1.060834
H180? H 0.928631 1.088099 0.986073
loop_
_geom_bond_atom_site_label_1
_geom_bond_atom_site_label_2
_geom_bond_site_symmetry_1
_geom_bond_site_symmetry_2
O1 C37 1_555 1_555
O2 C39 1_555 1_555
O3 C51 1_555 1_555
O4 C53 1_555 1_555
C1 C2 1_555 1_555
C2 H1 1_555 1_555
C3 C2 1_555 1_555
H2 C3 1_555 1_555
C4 C3 1_555 1_555
C5 C4 1_555 1_555
C6 C1 1_555 1_555
C7 C6 1_555 1_555
C8 C7 1_555 1_555
C9 C8 1_555 1_555
C10 C1 1_555 1_555
C11 C9 1_555 1_555
H3 C11 1_555 1_555
C12 C11 1_555 1_555
H4 C12 1_555 1_555
C13 C12 1_555 1_555
H5 C13 1_555 1_555
C14 C8 1_555 1_555
H6 C14 1_555 1_555
C15 C4 1_555 1_555
C16 C15 1_555 1_555
C17 C16 1_555 1_555
C18 C5 1_555 1_555
C19 C18 1_555 1_555
C20 C7 1_555 1_555
C21 C19 1_555 1_555
H7 C21 1_555 1_555
C22 C21 1_555 1_555
H8 C22 1_555 1_555
C23 C17 1_555 1_555
C24 C23 1_555 1_555
C25 C24 1_555 1_555
C26 C16 1_555 1_555
C27 C26 1_555 1_555
H9 C27 1_555 1_555
C28 C27 1_555 1_555
H10 C28 1_555 1_555
C29 C28 1_555 1_555
H11 C29 1_555 1_555
C30 C25 1_555 1_555
H12 C30 1_555 1_555
C31 C10 1_555 1_555
C32 C31 1_555 1_555
C33 C32 1_555 1_555
H13 C33 1_555 1_555
C34 C33 1_555 1_555
C35 C34 1_555 1_555
H14 C35 1_555 1_555
C36 C31 1_555 1_555
C37 C32 1_555 1_555
H15 C37 1_555 1_555
H16 C37 1_555 1_555
C38 O1 1_555 1_555
H17 C38 1_555 1_555
H18 C38 1_555 1_555
H19 C38 1_555 1_555
C39 C36 1_555 1_555
H20 C39 1_555 1_555
H21 C39 1_555 1_555
C40 O2 1_555 1_555
H22 C40 1_555 1_555
H23 C40 1_555 1_555
H24 C40 1_555 1_555
C41 C34 1_555 1_555
C42 C41 1_555 1_555
H25 C42 1_555 1_555
H26 C42 1_555 1_555
H27 C42 1_555 1_555
C43 C41 1_555 1_555
H28 C43 1_555 1_555
H29 C43 1_555 1_555
H30 C43 1_555 1_555
C44 C41 1_555 1_555
H31 C44 1_555 1_555
H32 C44 1_555 1_555
H33 C44 1_555 1_555
C45 C24 1_555 1_555
C46 C45 1_555 1_555
C47 C46 1_555 1_555
H34 C47 1_555 1_555
C48 C47 1_555 1_555
C49 C48 1_555 1_555
H35 C49 1_555 1_555
C50 C45 1_555 1_555
C51 C46 1_555 1_555
H36 C51 1_555 1_555
H37 C51 1_555 1_555
C52 O3 1_555 1_555
H38 C52 1_555 1_555
H39 C52 1_555 1_555
H40 C52 1_555 1_555
C53 C50 1_555 1_555
H41 C53 1_555 1_555
H42 C53 1_555 1_555
C54 O4 1_555 1_555
H43 C54 1_555 1_555
H44 C54 1_555 1_555
H45 C54 1_555 1_555
C55 C48 1_555 1_555
C56 C55 1_555 1_555
H46 C56 1_555 1_555
H47 C56 1_555 1_555
H48 C56 1_555 1_555
C57 C55 1_555 1_555
H49 C57 1_555 1_555
H50 C57 1_555 1_555
H51 C57 1_555 1_555
C58 C55 1_555 1_555
H52 C58 1_555 1_555
H53 C58 1_555 1_555
H54 C58 1_555 1_555
C59 C15 1_555 1_555
H55 C59 1_555 1_555
H56 C59 1_555 1_555
C60 C59 1_555 1_555
H57 C60 1_555 1_555
H58 C60 1_555 1_555
C61 C60 1_555 1_555
H59 C61 1_555 1_555
H60 C61 1_555 1_555
C62 C61 1_555 1_555
H61 C62 1_555 1_555
H62 C62 1_555 1_555
C63 C62 1_555 1_555
H63 C63 1_555 1_555
H64 C63 1_555 1_555
C64 C63 1_555 1_555
H65 C64 1_555 1_555
H66 C64 1_555 1_555
H67 C64 1_555 1_555
C65 C20 1_555 1_555
H68 C65 1_555 1_555
H69 C65 1_555 1_555
C66 C65 1_555 1_555
H70 C66 1_555 1_555
H71 C66 1_555 1_555
C67 C66 1_555 1_555
H72 C67 1_555 1_555
H73 C67 1_555 1_555
C68 C67 1_555 1_555
H74 C68 1_555 1_555
H75 C68 1_555 1_555
C69 C68 1_555 1_555
H76 C69 1_555 1_555
H77 C69 1_555 1_555
C70 C69 1_555 1_555
H78 C70 1_555 1_555
H79 C70 1_555 1_555
H80 C70 1_555 1_555
O5 C107 1_555 1_555
O6 C109 1_555 1_555
O7 C121 1_555 1_555
O8 C123 1_555 1_555
C71 C72 1_555 1_555
C72 H81 1_555 1_555
C73 C72 1_555 1_555
H82 C73 1_555 1_555
C74 C73 1_555 1_555
C75 C74 1_555 1_555
C76 C71 1_555 1_555
C77 C76 1_555 1_555
C78 C77 1_555 1_555
C79 C78 1_555 1_555
C80 C71 1_555 1_555
C81 C79 1_555 1_555
H83 C81 1_555 1_555
C82 C81 1_555 1_555
H84 C82 1_555 1_555
C83 C82 1_555 1_555
H85 C83 1_555 1_555
C84 C78 1_555 1_555
H86 C84 1_555 1_555
C85 C74 1_555 1_555
C86 C85 1_555 1_555
C87 C86 1_555 1_555
C88 C75 1_555 1_555
C89 C88 1_555 1_555
C90 C77 1_555 1_555
C91 C89 1_555 1_555
H87 C91 1_555 1_555
C92 C91 1_555 1_555
H88 C92 1_555 1_555
C93 C87 1_555 1_555
C94 C93 1_555 1_555
C95 C94 1_555 1_555
C96 C86 1_555 1_555
C97 C96 1_555 1_555
H89 C97 1_555 1_555
C98 C97 1_555 1_555
H90 C98 1_555 1_555
C99 C98 1_555 1_555
H91 C99 1_555 1_555
C100 C95 1_555 1_555
H92 C100 1_555 1_555
C101 C80 1_555 1_555
C102 C101 1_555 1_555
C103 C102 1_555 1_555
H93 C103 1_555 1_555
C104 C103 1_555 1_555
C105 C104 1_555 1_555
H94 C105 1_555 1_555
C106 C101 1_555 1_555
C107 C102 1_555 1_555
H95 C107 1_555 1_555
H96 C107 1_555 1_555
C108 O5 1_555 1_555
H97 C108 1_555 1_555
H98 C108 1_555 1_555
H99 C108 1_555 1_555
C109 C106 1_555 1_555
H100 C109 1_555 1_555
H101 C109 1_555 1_555
C110 O6 1_555 1_555
H102 C110 1_555 1_555
H103 C110 1_555 1_555
H104 C110 1_555 1_555
C111 C104 1_555 1_555
C112 C111 1_555 1_555
H105 C112 1_555 1_555
H106 C112 1_555 1_555
H107 C112 1_555 1_555
C113 C111 1_555 1_555
H108 C113 1_555 1_555
H109 C113 1_555 1_555
H110 C113 1_555 1_555
C114 C111 1_555 1_555
H111 C114 1_555 1_555
H112 C114 1_555 1_555
H113 C114 1_555 1_555
C115 C94 1_555 1_555
C116 C115 1_555 1_555
C117 C116 1_555 1_555
H114 C117 1_555 1_555
C118 C117 1_555 1_555
C119 C118 1_555 1_555
H115 C119 1_555 1_555
C120 C115 1_555 1_555
C121 C116 1_555 1_555
H116 C121 1_555 1_555
H117 C121 1_555 1_555
C122 O7 1_555 1_555
H118 C122 1_555 1_555
H119 C122 1_555 1_555
H120 C122 1_555 1_555
C123 C120 1_555 1_555
H121 C123 1_555 1_555
H122 C123 1_555 1_555
C124 O8 1_555 1_555
H123 C124 1_555 1_555
H124 C124 1_555 1_555
H125 C124 1_555 1_555
C125 C118 1_555 1_555
C126 C125 1_555 1_555
H126 C126 1_555 1_555
H127 C126 1_555 1_555
H128 C126 1_555 1_555
C127 C125 1_555 1_555
H129 C127 1_555 1_555
H130 C127 1_555 1_555
H131 C127 1_555 1_555
C128 C125 1_555 1_555
H132 C128 1_555 1_555
H133 C128 1_555 1_555
H134 C128 1_555 1_555
C129 C85 1_555 1_555
H135 C129 1_555 1_555
H136 C129 1_555 1_555
C130 C129 1_555 1_555
H137 C130 1_555 1_555
H138 C130 1_555 1_555
C131 C130 1_555 1_555
H139 C131 1_555 1_555
H140 C131 1_555 1_555
C132 C131 1_555 1_555
H141 C132 1_555 1_555
H142 C132 1_555 1_555
C133 C132 1_555 1_555
H143 C133 1_555 1_555
H144 C133 1_555 1_555
C134 C133 1_555 1_555
H145 C134 1_555 1_555
H146 C134 1_555 1_555
H147 C134 1_555 1_555
C135 C90 1_555 1_555
H148 C135 1_555 1_555
H149 C135 1_555 1_555
C136 C135 1_555 1_555
H150 C136 1_555 1_555
H151 C136 1_555 1_555
C137 C136 1_555 1_555
H152 C137 1_555 1_555
H153 C137 1_555 1_555
C138 C137 1_555 1_555
H154 C138 1_555 1_555
H155 C138 1_555 1_555
C139 C138 1_555 1_555
H156 C139 1_555 1_555
H157 C139 1_555 1_555
C140 C139 1_555 1_555
H158 C140 1_555 1_555
H159 C140 1_555 1_555
H160 C140 1_555 1_555
C5 C6 1_555 1_555
C9 C10 1_555 1_555
C13 C14 1_555 1_555
C17 C18 1_555 1_555
C19 C20 1_555 1_555
C22 C23 1_555 1_555
C25 C26 1_555 1_555
C29 C30 1_555 1_555
C35 C36 1_555 1_555
C49 C50 1_555 1_555
C75 C76 1_555 1_555
C79 C80 1_555 1_555
C83 C84 1_555 1_555
C87 C88 1_555 1_555
C89 C90 1_555 1_555
C92 C93 1_555 1_555
C95 C96 1_555 1_555
C99 C100 1_555 1_555
C105 C106 1_555 1_555
C119 C120 1_555 1_555

#END
