
#######################################################################
#
#                 Cambridge Crystallographic Data Centre
#                                CCDC 
#
#######################################################################
#
# If this CIF has been generated from an entry in the Cambridge 
# Structural Database, then it will include bibliographic, chemical, 
# crystal, experimental, refinement or atomic coordinate data resulting 
# from the CCDC's data processing and validation procedures.
#
#######################################################################

data_AFOJAJ
_chemical_formula_moiety         'C50 H44 N4 O2 4+,4(F6 P1 1-),0.25(H2 O1)'
_chemical_name_systematic        
'2^2^,2^5^-dimethoxy-1,7(1,4),3,9(4,1)-tetrapyridinia-2,8(1,4),5,11(1,3)-tetrabenzenacyclododecaphane tetrakis(hexafluorophosphate) hydrate'
_symmetry_cell_setting           triclinic
_symmetry_space_group_name_H-M   'P -1'
_symmetry_Int_Tables_number      2
_space_group_name_Hall           '-P 1'
loop_
_symmetry_equiv_pos_site_id
_symmetry_equiv_pos_as_xyz
1 x,y,z
2 -x,-y,-z
_cell_length_a                   8.4372(4)
_cell_length_b                   9.7417(5)
_cell_length_c                   17.5976(8)
_cell_angle_alpha                103.786(3)
_cell_angle_beta                 103.714(3)
_cell_angle_gamma                91.567(3)
_cell_volume                     1359.28
_exptl_crystal_colour            yellow
_exptl_crystal_description       plate
_cell_formula_units_Z            1
loop_
_atom_site_label
_atom_site_type_symbol
_atom_site_fract_x
_atom_site_fract_y
_atom_site_fract_z
P1 P 0.26009(12) 0.99576(11) 0.13198(6)
F1 F 0.4076(3) 1.0221(3) 0.09237(15)
F2 F 0.1131(3) 0.9678(3) 0.17114(16)
F3 F 0.1505(3) 0.9177(3) 0.04424(15)
F4 F 0.1965(3) 1.1437(3) 0.12204(14)
F5 F 0.3728(3) 1.0704(3) 0.21951(14)
F6 F 0.3272(3) 0.8470(3) 0.14222(16)
P2 P 0.67210(16) 0.43755(14) 0.71597(8)
F7 F 0.5656(4) 0.4203(3) 0.7771(2)
F8 F 0.7831(6) 0.4556(4) 0.6571(3)
F9 F 0.8354(4) 0.4333(4) 0.7817(2)
F10 F 0.6621(4) 0.2682(3) 0.6842(2)
F11 F 0.5085(5) 0.4423(4) 0.6503(2)
F12 F 0.6805(4) 0.6052(3) 0.7481(2)
O2 O 1.503000 0.000000 0.500000
N1 N 1.2138(4) 0.1557(3) 0.75549(17)
N2 N 0.7096(3) 0.3028(3) 0.12946(17)
C1 C 1.2657(5) 0.1384(4) 0.8395(2)
H1 H 1.380155 0.112808 0.850083
H2 H 1.195638 0.059823 0.844798
C2 C 1.052(2) 0.168(3) 0.7221(13)
H3 H 0.973498 0.165974 0.752749
C3 C 1.004(3) 0.184(4) 0.6458(12)
H4 H 0.890732 0.189028 0.622893
C4 C 1.1140(5) 0.1923(4) 0.6011(2)
C5 C 1.276(2) 0.180(3) 0.6329(10)
H5 H 1.354743 0.185381 0.602791
C6 C 1.322(2) 0.160(3) 0.7100(9)
H6 H 1.433710 0.149529 0.731961
C7 C 1.0514(19) 0.215(2) 0.5196(9)
C8 C 0.9325(8) 0.3038(9) 0.5058(3)
H7 H 0.892076 0.352633 0.549825
C9 C 0.8681(8) 0.3260(8) 0.4304(3)
C10 C 0.926(2) 0.256(3) 0.3638(10)
C11 C 0.8444(4) 0.2722(4) 0.2819(2)
C12 C 0.6856(4) 0.2906(5) 0.2565(2)
H8 H 0.617862 0.292999 0.292869
C13 C 0.6182(4) 0.3055(4) 0.1831(2)
H9 H 0.504802 0.318150 0.168143
C14 C 0.8687(4) 0.2814(5) 0.1504(2)
H10 H 0.932616 0.276383 0.112251
C15 C 0.9401(4) 0.2667(4) 0.2260(2)
H11 H 1.053218 0.252872 0.240617
C16 C 0.6385(4) 0.3287(4) 0.0488(2)
H12 H 0.517619 0.322152 0.038130
H13 H 0.668399 0.254629 0.006562
C17 C 0.7001(4) 0.4734(4) 0.0447(2)
C18 C 0.6918(4) 0.5950(4) 0.1035(2)
H14 H 0.648416 0.587290 0.147552
C19 C 0.7463(4) 0.7276(4) 0.0984(2)
C20 C 0.8075(4) 0.7386(4) 0.0332(2)
H15 H 0.847013 0.828617 0.029807
C21 C 0.8108(5) 0.6179(4) -0.0267(2)
H16 H 0.848242 0.626564 -0.072372
C22 C 0.7602(4) 0.4843(4) -0.0211(2)
H17 H 0.766397 0.401755 -0.061523
C23 C 1.0536(7) 0.1758(7) 0.3780(3)
H18 H 1.098301 0.132442 0.334395
C24 C 1.1213(7) 0.1548(7) 0.4542(3)
O1 O 0.7402(16) 0.4044(17) 0.4186(5)
C25 C 0.678(3) 0.468(3) 0.4856(8)
H19 H 0.767238 0.491887 0.534908
H20 H 0.594624 0.401674 0.491284
H21 H 0.628404 0.554742 0.476841
N1A N 0.7862(4) 0.8443(3) 0.24451(17)
N2A N 1.2904(3) 0.6972(3) 0.87054(17)
C1A C 0.7343(5) 0.8616(4) 0.1605(2)
H1A H 0.619845 0.887192 0.149917
H2A H 0.804362 0.940177 0.155202
C2A C 0.948(2) 0.832(3) 0.2779(13)
H3A H 1.026502 0.834026 0.247251
C3A C 0.996(3) 0.816(4) 0.3542(12)
H4A H 1.109268 0.810972 0.377107
C4A C 0.8860(5) 0.8077(4) 0.3989(2)
C5A C 0.724(2) 0.820(3) 0.3671(10)
H5A H 0.645257 0.814619 0.397209
C6A C 0.678(2) 0.840(3) 0.2900(9)
H6A H 0.566290 0.850471 0.268039
C7A C 0.9486(19) 0.785(2) 0.4804(9)
C8A C 1.0675(8) 0.6962(9) 0.4942(3)
H7A H 1.107924 0.647367 0.450175
C9A C 1.1319(8) 0.6740(8) 0.5696(3)
C10A C 1.074(2) 0.744(3) 0.6362(10)
C11A C 1.1556(4) 0.7278(4) 0.7181(2)
C12A C 1.3144(4) 0.7094(5) 0.7435(2)
H8A H 1.382138 0.707001 0.707131
C13A C 1.3818(4) 0.6945(4) 0.8169(2)
H9A H 1.495198 0.681850 0.831857
C14A C 1.1313(4) 0.7186(5) 0.8496(2)
H10A H 1.067384 0.723617 0.887749
C15A C 1.0599(4) 0.7333(4) 0.7740(2)
H11A H 0.946782 0.747128 0.759383
C16A C 1.3615(4) 0.6713(4) 0.9512(2)
H12A H 1.482381 0.677848 0.961870
H13A H 1.331601 0.745371 0.993438
C17A C 1.2999(4) 0.5266(4) 0.9553(2)
C18A C 1.3082(4) 0.4050(4) 0.8965(2)
H14A H 1.351584 0.412710 0.852448
C19A C 1.2537(4) 0.2724(4) 0.9016(2)
C20A C 1.1925(4) 0.2614(4) 0.9668(2)
H15A H 1.152987 0.171383 0.970193
C21A C 1.1892(5) 0.3821(4) 1.0267(2)
H16A H 1.151758 0.373436 1.072372
C22A C 1.2398(4) 0.5157(4) 1.0211(2)
H17A H 1.233603 0.598245 1.061523
C23A C 0.9464(7) 0.8242(7) 0.6220(3)
H18A H 0.901699 0.867558 0.665605
C24A C 0.8787(7) 0.8452(7) 0.5458(3)
O1A O 1.2598(16) 0.5956(17) 0.5814(5)
C25A C 1.322(3) 0.532(3) 0.5144(8)
H19A H 1.232762 0.508113 0.465092
H20A H 1.405376 0.598326 0.508716
H21A H 1.371596 0.445258 0.523159
O3? O 0.640(2) 0.194(4) 0.3792(16)
O4? O 1.315(3) 0.211(4) 0.4850(18)
C26? C 1.069(3) 0.200(4) 0.7342(17)
H22? H 1.002479 0.217670 0.771293
C27? C 1.013(3) 0.222(4) 0.6572(15)
H23? H 0.908223 0.255122 0.641927
C28? C 1.270(3) 0.143(4) 0.6314(15)
H24? H 1.342510 0.122259 0.597229
C29? C 1.316(3) 0.124(5) 0.7084(15)
H25? H 1.418601 0.090334 0.727307
C30? C 0.907(8) 0.253(12) 0.367(4)
C31? C 0.8128(18) 0.198(2) 0.4069(11)
H26? H 0.694720 0.185680 0.396370
C32? C 0.879(2) 0.177(2) 0.4815(11)
H27? H 0.809540 0.139320 0.509930
C33? C 1.069(9) 0.213(11) 0.517(4)
C34? C 1.150(2) 0.260(4) 0.4796(15)
H28? H 1.257150 0.233640 0.492740
C35? C 1.073(3) 0.284(4) 0.4016(17)
H29? H 1.15(4) 0.32(3) 0.389(17)
H30? H 1.217050 0.103330 0.460640
C36? C 0.516(3) 0.161(4) 0.4171(17)
H31? H 0.566456 0.130813 0.465801
H32? H 0.437461 0.084676 0.379404
H33? H 0.458185 0.245711 0.431808
H34? H 1.399528 0.155088 0.399296
C37? C 1.442(6) 0.186(7) 0.441(3)
H35? H 1.535250 0.151073 0.473753
H36? H 1.477001 0.274921 0.430750
O5? O 1.2695(9) 0.0887(10) 0.4657(4)
C38? C 1.3695(17) 0.0648(18) 0.4098(8)
H37? H 1.468920 0.023710 0.432639
H38? H 1.308790 -0.000842 0.359162
H39? H 1.398272 0.115285 0.389843
H40? H 0.789840 0.393470 0.422950
loop_
_geom_bond_atom_site_label_1
_geom_bond_atom_site_label_2
_geom_bond_site_symmetry_1
_geom_bond_site_symmetry_2
N1 C1 1_555 1_555
N2 C13 1_555 1_555
C1 H1 1_555 1_555
H2 C1 1_555 1_555
C2 N1 1_555 1_555
H3 C2 1_555 1_555
C3 C2 1_555 1_555
H4 C3 1_555 1_555
C4 C3 1_555 1_555
C5 C4 1_555 1_555
H5 C5 1_555 1_555
C6 N1 1_555 1_555
H6 C6 1_555 1_555
C7 C4 1_555 1_555
C8 C7 1_555 1_555
H7 C8 1_555 1_555
C9 C8 1_555 1_555
C10 C9 1_555 1_555
C11 C10 1_555 1_555
C12 C11 1_555 1_555
H8 C12 1_555 1_555
C13 C12 1_555 1_555
H9 C13 1_555 1_555
C14 N2 1_555 1_555
H10 C14 1_555 1_555
C15 C11 1_555 1_555
H11 C15 1_555 1_555
C16 N2 1_555 1_555
H12 C16 1_555 1_555
H13 C16 1_555 1_555
C17 C16 1_555 1_555
C18 C17 1_555 1_555
H14 C18 1_555 1_555
C19 C18 1_555 1_555
C20 C19 1_555 1_555
H15 C20 1_555 1_555
C21 C20 1_555 1_555
H16 C21 1_555 1_555
C22 C17 1_555 1_555
H17 C22 1_555 1_555
C23 C10 1_555 1_555
H18 C23 1_555 1_555
C24 C7 1_555 1_555
O1 C9 1_555 1_555
C25 O1 1_555 1_555
H19 C25 1_555 1_555
H20 C25 1_555 1_555
H21 C25 1_555 1_555
P1 F1 1_555 1_555
F2 P1 1_555 1_555
F3 P1 1_555 1_555
F4 P1 1_555 1_555
F5 P1 1_555 1_555
F6 P1 1_555 1_555
P2 F7 1_555 1_555
F8 P2 1_555 1_555
F9 P2 1_555 1_555
F10 P2 1_555 1_555
F11 P2 1_555 1_555
F12 P2 1_555 1_555
N1A C1A 1_555 1_555
N2A C13A 1_555 1_555
C1A C19 1_555 1_555
H1A C1A 1_555 1_555
H2A C1A 1_555 1_555
C2A N1A 1_555 1_555
H3A C2A 1_555 1_555
C3A C2A 1_555 1_555
H4A C3A 1_555 1_555
C4A C3A 1_555 1_555
C5A C4A 1_555 1_555
H5A C5A 1_555 1_555
C6A N1A 1_555 1_555
H6A C6A 1_555 1_555
C7A C4A 1_555 1_555
C8A C7A 1_555 1_555
H7A C8A 1_555 1_555
C9A C8A 1_555 1_555
C10A C9A 1_555 1_555
C11A C10A 1_555 1_555
C12A C11A 1_555 1_555
H8A C12A 1_555 1_555
C13A C12A 1_555 1_555
H9A C13A 1_555 1_555
C14A N2A 1_555 1_555
H10A C14A 1_555 1_555
C15A C11A 1_555 1_555
H11A C15A 1_555 1_555
C16A N2A 1_555 1_555
H12A C16A 1_555 1_555
H13A C16A 1_555 1_555
C17A C16A 1_555 1_555
C18A C17A 1_555 1_555
H14A C18A 1_555 1_555
C19A C1 1_555 1_555
C20A C19A 1_555 1_555
H15A C20A 1_555 1_555
C21A C20A 1_555 1_555
H16A C21A 1_555 1_555
C22A C17A 1_555 1_555
H17A C22A 1_555 1_555
C23A C10A 1_555 1_555
H18A C23A 1_555 1_555
C24A C7A 1_555 1_555
O1A C9A 1_555 1_555
C25A O1A 1_555 1_555
H19A C25A 1_555 1_555
H20A C25A 1_555 1_555
H21A C25A 1_555 1_555
C5 C6 1_555 1_555
C14 C15 1_555 1_555
C21 C22 1_555 1_555
C23 C24 1_555 1_555
C5A C6A 1_555 1_555
C14A C15A 1_555 1_555
C18A C19A 1_555 1_555
C21A C22A 1_555 1_555
C23A C24A 1_555 1_555

#END
