
#######################################################################
#
#                 Cambridge Crystallographic Data Centre
#                                CCDC 
#
#######################################################################
#
# If this CIF has been generated from an entry in the Cambridge 
# Structural Database, then it will include bibliographic, chemical, 
# crystal, experimental, refinement or atomic coordinate data resulting 
# from the CCDC's data processing and validation procedures.
#
#######################################################################

data_AFOLUD
_chemical_formula_moiety         'C10 H10 N2 O4,2(H2 O1)'
_chemical_name_systematic        
'N-(2-Propionic acid)salicyloyl hydrazone dihydrate'
_symmetry_cell_setting           orthorhombic
_symmetry_space_group_name_H-M   'F d d 2'
_symmetry_Int_Tables_number      43
_space_group_name_Hall           'F 2 -2d'
loop_
_symmetry_equiv_pos_site_id
_symmetry_equiv_pos_as_xyz
1 x,y,z
2 -x,-y,z
3 1/4-x,1/4+y,1/4+z
4 3/4+x,3/4-y,1/4+z
5 x,1/2+y,1/2+z
6 -x,1/2-y,1/2+z
7 1/4-x,3/4+y,3/4+z
8 3/4+x,1/4-y,3/4+z
9 1/2+x,y,1/2+z
10 1/2-x,-y,1/2+z
11 3/4-x,1/4+y,3/4+z
12 1/4+x,3/4-y,3/4+z
13 1/2+x,1/2+y,z
14 1/2-x,1/2-y,z
15 3/4-x,3/4+y,1/4+z
16 1/4+x,1/4-y,1/4+z
_cell_length_a                   28.887(9)
_cell_length_b                   32.733(10)
_cell_length_c                   4.9281(14)
_cell_angle_alpha                90
_cell_angle_beta                 90
_cell_angle_gamma                90
_cell_volume                     4659.81
_exptl_crystal_colour            colorless
_cell_formula_units_Z            16
loop_
_atom_site_label
_atom_site_type_symbol
_atom_site_fract_x
_atom_site_fract_y
_atom_site_fract_z
N1 N 0.43039(7) 0.11461(7) 0.5429(5)
H1 H 0.4024 0.1220 0.5773
N2 N 0.43897(7) 0.08694(7) 0.3420(5)
O1 O 0.37297(6) 0.16053(7) 0.8148(5)
H2 H 0.3489 0.1694 0.8804
O2 O 0.50610(6) 0.11844(7) 0.6570(5)
O3 O 0.38562(9) 0.02910(9) -0.1528(7)
O4 O 0.45983(8) 0.03695(8) -0.0443(6)
H3 H 0.4635 0.0182 -0.1525
C1 C 0.49135(9) 0.17926(8) 1.0375(7)
H4 H 0.5212 0.1699 1.0052
C2 C 0.48475(10) 0.20888(9) 1.2265(7)
H5 H 0.5100 0.2201 1.3171
C3 C 0.44073(10) 0.22234(9) 1.2838(8)
H6 H 0.4362 0.2422 1.4158
C4 C 0.40360(10) 0.20653(9) 1.1471(7)
H7 H 0.3740 0.2158 1.1873
C5 C 0.40960(9) 0.17662(9) 0.9482(7)
C6 C 0.45451(9) 0.16228(8) 0.8889(6)
C7 C 0.46621(8) 0.13061(8) 0.6895(7)
C8 C 0.40371(9) 0.07220(9) 0.2183(7)
C9 C 0.41506(12) 0.04349(10) -0.0090(7)
C10 C 0.35403(9) 0.08123(11) 0.2749(9)
H8 H 0.3491 0.0822 0.4675
H9 H 0.3350 0.0602 0.1970
H10 H 0.3460 0.1071 0.1966
O5 O 0.28968(6) 0.18034(7) 1.0014(5)
O6 O 0.5000 0.0000 0.5347(8)
loop_
_geom_bond_atom_site_label_1
_geom_bond_atom_site_label_2
_geom_bond_site_symmetry_1
_geom_bond_site_symmetry_2
N1 H1 1_555 1_555
N2 N1 1_555 1_555
O1 H2 1_555 1_555
O2 C7 1_555 1_555
O3 C9 1_555 1_555
O4 H3 1_555 1_555
C1 H4 1_555 1_555
C2 C1 1_555 1_555
H5 C2 1_555 1_555
C3 C2 1_555 1_555
H6 C3 1_555 1_555
C4 C3 1_555 1_555
H7 C4 1_555 1_555
C5 O1 1_555 1_555
C6 C1 1_555 1_555
C7 N1 1_555 1_555
C8 N2 1_555 1_555
C9 O4 1_555 1_555
C10 C8 1_555 1_555
H8 C10 1_555 1_555
H9 C10 1_555 1_555
H10 C10 1_555 1_555
C4 C5 1_555 1_555
C5 C6 1_555 1_555
C6 C7 1_555 1_555
C8 C9 1_555 1_555

#END
