
#######################################################################
#
#                 Cambridge Crystallographic Data Centre
#                                CCDC 
#
#######################################################################
#
# If this CIF has been generated from an entry in the Cambridge 
# Structural Database, then it will include bibliographic, chemical, 
# crystal, experimental, refinement or atomic coordinate data resulting 
# from the CCDC's data processing and validation procedures.
#
#######################################################################

data_AFOLIS
_chemical_formula_moiety         'C18 H13 N3 O2,H2 O1'
_chemical_name_systematic        
'8-[(3-Phenyl-1,2,4-oxadiazol-5-yl)methoxy]quinoline monohydrate'
_symmetry_cell_setting           monoclinic
_symmetry_space_group_name_H-M   'P 21/n'
_symmetry_Int_Tables_number      14
_space_group_name_Hall           '-P 2yn'
loop_
_symmetry_equiv_pos_site_id
_symmetry_equiv_pos_as_xyz
1 x,y,z
2 1/2-x,1/2+y,1/2-z
3 -x,-y,-z
4 1/2+x,1/2-y,1/2+z
_cell_length_a                   7.0430(14)
_cell_length_b                   7.5800(15)
_cell_length_c                   29.114(6)
_cell_angle_alpha                90
_cell_angle_beta                 95.33(3)
_cell_angle_gamma                90
_cell_volume                     1547.56
_exptl_crystal_colour            colorless
_exptl_crystal_description       block
_chemical_melting_point          '438 K'
_cell_formula_units_Z            4
loop_
_atom_site_label
_atom_site_type_symbol
_atom_site_fract_x
_atom_site_fract_y
_atom_site_fract_z
O1 O 0.1455(2) 0.5455(3) 0.39671(7)
O2 O 0.4113(2) 0.7022(2) 0.49830(6)
N1 N 0.2012(3) 0.5612(3) 0.35162(8)
N2 N 0.4312(3) 0.6622(3) 0.40388(7)
N3 N 0.7080(3) 0.8663(3) 0.54211(7)
C1 C 0.3907(5) 0.7139(5) 0.27655(11)
H1 H 0.2625 0.6855 0.2702
C2 C 0.4931(7) 0.7816(5) 0.24221(11)
H2 H 0.4325 0.8006 0.2129
C3 C 0.6821(6) 0.8209(5) 0.25099(12)
H3 H 0.7491 0.8687 0.2279
C4 C 0.7724(5) 0.7900(5) 0.29354(11)
H4 H 0.9022 0.8128 0.2991
C5 C 0.6733(4) 0.7253(4) 0.32851(10)
H5 H 0.7360 0.7061 0.3576
C6 C 0.4811(4) 0.6888(3) 0.32043(9)
C7 C 0.3704(4) 0.6317(4) 0.35832(9)
C8 C 0.2890(3) 0.6098(3) 0.42497(9)
C9 C 0.2552(3) 0.6131(4) 0.47439(9)
H6 H 0.1371 0.6743 0.4785
H7 H 0.2462 0.4937 0.4860
C10 C 0.4014(3) 0.7312(3) 0.54418(9)
C11 C 0.5607(3) 0.8199(3) 0.56692(9)
C12 C 0.8557(4) 0.9462(4) 0.56418(10)
H8 H 0.9559 0.9794 0.5474
C13 C 0.8705(4) 0.9839(4) 0.61116(11)
H9 H 0.9782 1.0402 0.6251
C14 C 0.7261(4) 0.9374(4) 0.63636(10)
H10 H 0.7340 0.9610 0.6678
C15 C 0.5641(4) 0.8531(3) 0.61456(9)
C16 C 0.4096(4) 0.7993(4) 0.63873(10)
H11 H 0.4103 0.8221 0.6701
C17 C 0.2598(4) 0.7139(4) 0.61586(10)
H12 H 0.1585 0.6781 0.6320
C18 C 0.2546(4) 0.6787(3) 0.56860(10)
H13 H 0.1508 0.6194 0.5537
O3 O 0.8011(3) 0.7785(4) 0.45314(8)
H14 H 0.709(6) 0.747(5) 0.4376(13)
H15 H 0.770(5) 0.810(5) 0.4781(14)
loop_
_geom_bond_atom_site_label_1
_geom_bond_atom_site_label_2
_geom_bond_site_symmetry_1
_geom_bond_site_symmetry_2
O1 N1 1_555 1_555
O2 C9 1_555 1_555
N1 C7 1_555 1_555
N2 C7 1_555 1_555
N3 C11 1_555 1_555
C1 H1 1_555 1_555
C2 C1 1_555 1_555
H2 C2 1_555 1_555
C3 C2 1_555 1_555
H3 C3 1_555 1_555
C4 C3 1_555 1_555
H4 C4 1_555 1_555
C5 C4 1_555 1_555
H5 C5 1_555 1_555
C6 C1 1_555 1_555
C7 C6 1_555 1_555
C8 O1 1_555 1_555
C9 C8 1_555 1_555
H6 C9 1_555 1_555
H7 C9 1_555 1_555
C10 O2 1_555 1_555
C11 C10 1_555 1_555
C12 N3 1_555 1_555
H8 C12 1_555 1_555
C13 C12 1_555 1_555
H9 C13 1_555 1_555
C14 C13 1_555 1_555
H10 C14 1_555 1_555
C15 C11 1_555 1_555
C16 C15 1_555 1_555
H11 C16 1_555 1_555
C17 C16 1_555 1_555
H12 C17 1_555 1_555
C18 C10 1_555 1_555
H13 C18 1_555 1_555
O3 H14 1_555 1_555
H15 O3 1_555 1_555
N2 C8 1_555 1_555
C5 C6 1_555 1_555
C14 C15 1_555 1_555
C17 C18 1_555 1_555

#END
