
#######################################################################
#
#                 Cambridge Crystallographic Data Centre
#                                CCDC 
#
#######################################################################
#
# If this CIF has been generated from an entry in the Cambridge 
# Structural Database, then it will include bibliographic, chemical, 
# crystal, experimental, refinement or atomic coordinate data resulting 
# from the CCDC's data processing and validation procedures.
#
#######################################################################

data_AFOQUK
_chemical_formula_moiety         'C26 H32 Br1 N3 O4'
_chemical_name_systematic        
N^2^-[(4-bromophenyl)acetyl]-N-cyclohexyl-N^2^-(4-nitrophenyl)norleucinamide
_symmetry_cell_setting           triclinic
_symmetry_space_group_name_H-M   'P 1'
_symmetry_Int_Tables_number      1
_space_group_name_Hall           'P 1'
loop_
_symmetry_equiv_pos_site_id
_symmetry_equiv_pos_as_xyz
1 x,y,z
_cell_length_a                   9.5285(9)
_cell_length_b                   11.2177(10)
_cell_length_c                   12.8480(12)
_cell_angle_alpha                79.832(4)
_cell_angle_beta                 70.753(4)
_cell_angle_gamma                79.190(4)
_cell_volume                     1263.75
_exptl_crystal_colour            colorless
_exptl_crystal_description       block
_cell_formula_units_Z            2
loop_
_atom_site_label
_atom_site_type_symbol
_atom_site_fract_x
_atom_site_fract_y
_atom_site_fract_z
Br1 Br 0.45041(5) 0.85214(4) 1.00481(3)
O1 O 0.7912(3) 0.5105(2) 0.6144(2)
O2 O 0.7126(3) 0.4850(3) 0.3496(2)
O3 O 0.3375(4) -0.0704(3) 0.6512(3)
O4 O 0.2382(4) 0.0585(3) 0.5412(3)
N1 N 0.7366(3) 0.3533(3) 0.5535(2)
N2 N 0.3299(4) 0.0265(3) 0.5920(3)
N3 N 0.9368(3) 0.5444(3) 0.3165(2)
H1 H 1.0200 0.5345 0.3346
C1 C 0.6252(4) 0.5228(4) 0.8765(3)
H2 H 0.6964 0.4541 0.8875
C2 C 0.5990(5) 0.6210(4) 0.9359(4)
H3 H 0.6526 0.6204 0.9866
C3 C 0.4942(5) 0.7192(4) 0.9201(4)
C4 C 0.4175(5) 0.7233(4) 0.8447(4)
H4 H 0.3469 0.7925 0.8336
C5 C 0.4452(5) 0.6249(4) 0.7859(3)
H5 H 0.3928 0.6267 0.7341
C6 C 0.5485(4) 0.5236(4) 0.8013(3)
C7 C 0.5784(4) 0.4173(4) 0.7359(3)
H6 H 0.4875 0.4122 0.7166
H7 H 0.6011 0.3403 0.7822
C8 C 0.7099(4) 0.4317(3) 0.6298(3)
C9 C 0.6339(4) 0.2699(3) 0.5628(3)
C10 C 0.6360(5) 0.1594(3) 0.6316(3)
H8 H 0.7062 0.1386 0.6721
C11 C 0.5372(5) 0.0798(4) 0.6415(4)
H9 H 0.5379 0.0047 0.6891
C12 C 0.4371(4) 0.1111(3) 0.5810(3)
C13 C 0.4340(4) 0.2195(4) 0.5110(3)
H10 H 0.3649 0.2393 0.4695
C14 C 0.5328(4) 0.2985(4) 0.5025(3)
H11 H 0.5317 0.3734 0.4547
C15 C 0.8708(4) 0.3671(3) 0.4548(3)
H12 H 0.9495 0.3908 0.4798
C16 C 0.9356(4) 0.2474(3) 0.4043(3)
H13 H 0.8706 0.2314 0.3634
H14 H 0.9375 0.1790 0.4643
C17 C 1.0952(4) 0.2542(4) 0.3247(4)
H15 H 1.0895 0.3104 0.2571
H16 H 1.1525 0.2892 0.3608
C18 C 1.1806(4) 0.1301(3) 0.2904(3)
H17 H 1.2883 0.1379 0.2552
H18 H 1.1713 0.0698 0.3577
C19 C 1.1243(5) 0.0828(4) 0.2107(4)
H19 H 1.1379 0.1400 0.1421
H20 H 1.0176 0.0751 0.2448
H21 H 1.1811 0.0026 0.1933
C20 C 0.8325(4) 0.4713(3) 0.3693(3)
C21 C 0.9130(4) 0.6411(3) 0.2285(3)
H22 H 0.8050 0.6778 0.2529
C22 C 1.0071(4) 0.7428(3) 0.2137(3)
H23 H 0.9803 0.7774 0.2846
H24 H 1.1148 0.7086 0.1934
C23 C 0.9800(5) 0.8437(3) 0.1231(3)
H25 H 1.0456 0.9066 0.1120
H26 H 0.8744 0.8833 0.1470
C24 C 1.0120(5) 0.7929(4) 0.0135(3)
H27 H 0.9903 0.8596 -0.0430
H28 H 1.1194 0.7588 -0.0135
C25 C 0.9149(5) 0.6929(4) 0.0300(3)
H29 H 0.8077 0.7287 0.0519
H30 H 0.9385 0.6592 -0.0409
C26 C 0.9421(4) 0.5903(4) 0.1193(3)
H31 H 1.0471 0.5496 0.0945
H32 H 0.8748 0.5286 0.1308
Br2 Br 0.53181(4) 0.14315(3) -0.00479(3)
O5 O 0.2095(3) 0.5150(2) 0.3872(2)
O6 O 0.3294(3) 0.5085(3) 0.6199(2)
O7 O 0.8112(3) 0.9528(3) 0.4242(2)
O8 O 0.7266(3) 1.0717(3) 0.3007(3)
N4 N 0.2968(3) 0.6673(3) 0.4291(2)
N5 N 0.0906(3) 0.4772(3) 0.6557(3)
H33 H 0.0052 0.5003 0.6406
N6 N 0.7272(3) 0.9790(3) 0.3669(3)
C27 C 0.3571(4) 0.4651(4) 0.1352(4)
H34 H 0.2752 0.5281 0.1352
C28 C 0.3787(5) 0.3679(4) 0.0758(4)
H35 H 0.3133 0.3637 0.0349
C29 C 0.4983(5) 0.2771(4) 0.0779(3)
C30 C 0.5939(5) 0.2803(4) 0.1365(3)
H36 H 0.6749 0.2165 0.1367
C31 C 0.5705(4) 0.3784(4) 0.1957(3)
H37 H 0.6357 0.3814 0.2371
C32 C 0.4525(4) 0.4724(4) 0.1947(3)
C33 C 0.4336(4) 0.5824(4) 0.2537(3)
H38 H 0.4169 0.6575 0.2032
H39 H 0.5278 0.5837 0.2700
C34 C 0.3043(4) 0.5843(3) 0.3615(3)
C35 C 0.4122(4) 0.7430(3) 0.4081(3)
C36 C 0.4176(4) 0.8470(3) 0.3308(3)
H40 H 0.3496 0.8654 0.2883
C37 C 0.5231(4) 0.9241(3) 0.3160(3)
H41 H 0.5288 0.9952 0.2630
C38 C 0.6190(4) 0.8955(3) 0.3795(3)
C39 C 0.6172(4) 0.7909(3) 0.4551(3)
H42 H 0.6863 0.7722 0.4967
C40 C 0.5130(4) 0.7146(3) 0.4690(3)
H43 H 0.5102 0.6422 0.5204
C41 C 0.1796(4) 0.6663(3) 0.5388(3)
H44 H 0.2028 0.7268 0.5772
C42 C 0.0215(4) 0.7146(3) 0.5311(3)
H45 H -0.0164 0.6503 0.5082
H46 H 0.0272 0.7858 0.4728
C43 C -0.0900(4) 0.7532(3) 0.6405(3)
H47 H -0.1930 0.7615 0.6355
H48 H -0.0813 0.6870 0.7011
C44 C -0.0697(4) 0.8714(3) 0.6715(3)
H49 H -0.0797 0.9388 0.6121
H50 H 0.0323 0.8640 0.6780
C45 C -0.1865(4) 0.9015(4) 0.7818(3)
H51 H -0.2876 0.9081 0.7756
H52 H -0.1726 0.9794 0.7990
H53 H -0.1741 0.8364 0.8412
C46 C 0.2045(4) 0.5418(3) 0.6074(3)
C47 C 0.1083(4) 0.3674(3) 0.7343(3)
H54 H 0.2164 0.3308 0.7112
C48 C 0.0163(5) 0.2722(4) 0.7313(3)
H55 H 0.0479 0.2484 0.6555
H56 H -0.0912 0.3070 0.7506
C49 C 0.0383(6) 0.1597(4) 0.8138(4)
H57 H -0.0242 0.0990 0.8127
H58 H 0.1447 0.1218 0.7909
C50 C -0.0040(5) 0.1925(4) 0.9305(4)
H59 H 0.0152 0.1184 0.9813
H60 H -0.1125 0.2237 0.9560
C51 C 0.0856(5) 0.2889(4) 0.9348(3)
H61 H 0.1928 0.2538 0.9187
H62 H 0.0504 0.3135 1.0105
C52 C 0.0696(5) 0.4011(4) 0.8513(3)
H63 H 0.1367 0.4586 0.8513
H64 H -0.0349 0.4432 0.8740
loop_
_geom_bond_atom_site_label_1
_geom_bond_atom_site_label_2
_geom_bond_site_symmetry_1
_geom_bond_site_symmetry_2
Br1 C3 1_555 1_555
O1 C8 1_555 1_555
O2 C20 1_555 1_555
O3 N2 1_555 1_555
O4 N2 1_555 1_555
N1 C8 1_555 1_555
N2 C12 1_555 1_555
N3 H1 1_555 1_555
C1 H2 1_555 1_555
C2 C1 1_555 1_555
H3 C2 1_555 1_555
C3 C2 1_555 1_555
C4 C3 1_555 1_555
H4 C4 1_555 1_555
C5 C4 1_555 1_555
H5 C5 1_555 1_555
C6 C1 1_555 1_555
C7 C6 1_555 1_555
H6 C7 1_555 1_555
H7 C7 1_555 1_555
C8 C7 1_555 1_555
C9 N1 1_555 1_555
C10 C9 1_555 1_555
H8 C10 1_555 1_555
C11 C10 1_555 1_555
H9 C11 1_555 1_555
C12 C11 1_555 1_555
C13 C12 1_555 1_555
H10 C13 1_555 1_555
C14 C9 1_555 1_555
H11 C14 1_555 1_555
C15 N1 1_555 1_555
H12 C15 1_555 1_555
C16 C15 1_555 1_555
H13 C16 1_555 1_555
H14 C16 1_555 1_555
C17 C16 1_555 1_555
H15 C17 1_555 1_555
H16 C17 1_555 1_555
C18 C17 1_555 1_555
H17 C18 1_555 1_555
H18 C18 1_555 1_555
C19 C18 1_555 1_555
H19 C19 1_555 1_555
H20 C19 1_555 1_555
H21 C19 1_555 1_555
C20 N3 1_555 1_555
C21 N3 1_555 1_555
H22 C21 1_555 1_555
C22 C21 1_555 1_555
H23 C22 1_555 1_555
H24 C22 1_555 1_555
C23 C22 1_555 1_555
H25 C23 1_555 1_555
H26 C23 1_555 1_555
C24 C23 1_555 1_555
H27 C24 1_555 1_555
H28 C24 1_555 1_555
C25 C24 1_555 1_555
H29 C25 1_555 1_555
H30 C25 1_555 1_555
C26 C21 1_555 1_555
H31 C26 1_555 1_555
H32 C26 1_555 1_555
Br2 C29 1_555 1_555
O5 C34 1_555 1_555
O6 C46 1_555 1_555
O7 N6 1_555 1_555
O8 N6 1_555 1_555
N4 C34 1_555 1_555
N5 H33 1_555 1_555
N6 C38 1_555 1_555
C27 H34 1_555 1_555
C28 C27 1_555 1_555
H35 C28 1_555 1_555
C29 C28 1_555 1_555
C30 C29 1_555 1_555
H36 C30 1_555 1_555
C31 C30 1_555 1_555
H37 C31 1_555 1_555
C32 C27 1_555 1_555
C33 C32 1_555 1_555
H38 C33 1_555 1_555
H39 C33 1_555 1_555
C34 C33 1_555 1_555
C35 N4 1_555 1_555
C36 C35 1_555 1_555
H40 C36 1_555 1_555
C37 C36 1_555 1_555
H41 C37 1_555 1_555
C38 C37 1_555 1_555
C39 C38 1_555 1_555
H42 C39 1_555 1_555
C40 C35 1_555 1_555
H43 C40 1_555 1_555
C41 N4 1_555 1_555
H44 C41 1_555 1_555
C42 C41 1_555 1_555
H45 C42 1_555 1_555
H46 C42 1_555 1_555
C43 C42 1_555 1_555
H47 C43 1_555 1_555
H48 C43 1_555 1_555
C44 C43 1_555 1_555
H49 C44 1_555 1_555
H50 C44 1_555 1_555
C45 C44 1_555 1_555
H51 C45 1_555 1_555
H52 C45 1_555 1_555
H53 C45 1_555 1_555
C46 N5 1_555 1_555
C47 N5 1_555 1_555
H54 C47 1_555 1_555
C48 C47 1_555 1_555
H55 C48 1_555 1_555
H56 C48 1_555 1_555
C49 C48 1_555 1_555
H57 C49 1_555 1_555
H58 C49 1_555 1_555
C50 C49 1_555 1_555
H59 C50 1_555 1_555
H60 C50 1_555 1_555
C51 C50 1_555 1_555
H61 C51 1_555 1_555
H62 C51 1_555 1_555
C52 C47 1_555 1_555
H63 C52 1_555 1_555
H64 C52 1_555 1_555
C5 C6 1_555 1_555
C13 C14 1_555 1_555
C15 C20 1_555 1_555
C25 C26 1_555 1_555
C31 C32 1_555 1_555
C39 C40 1_555 1_555
C41 C46 1_555 1_555
C51 C52 1_555 1_555

#END
