
#######################################################################
#
#                 Cambridge Crystallographic Data Centre
#                                CCDC 
#
#######################################################################
#
# If this CIF has been generated from an entry in the Cambridge 
# Structural Database, then it will include bibliographic, chemical, 
# crystal, experimental, refinement or atomic coordinate data resulting 
# from the CCDC's data processing and validation procedures.
#
#######################################################################

data_AFUCIN
_chemical_formula_moiety         'C29 H25 B1 N1 P1,0.5(C7 H8)'
_chemical_name_systematic        
'1-(N-(Triphenylphosphonio)anilino)-1-boratabenzene toluene solvate'
_symmetry_cell_setting           triclinic
_symmetry_space_group_name_H-M   'P -1'
_symmetry_Int_Tables_number      2
_space_group_name_Hall           '-P 1'
loop_
_symmetry_equiv_pos_site_id
_symmetry_equiv_pos_as_xyz
1 x,y,z
2 -x,-y,-z
_cell_length_a                   9.217(2)
_cell_length_b                   12.037(5)
_cell_length_c                   12.448(3)
_cell_angle_alpha                81.27(2)
_cell_angle_beta                 83.57(2)
_cell_angle_gamma                74.77(2)
_cell_volume                     1313.33
_exptl_crystal_colour            brown-yellow
_exptl_crystal_description       platelet
_cell_formula_units_Z            2
_chemical_properties_physical    'air- and moisture-sensitive'
loop_
_atom_site_label
_atom_site_type_symbol
_atom_site_fract_x
_atom_site_fract_y
_atom_site_fract_z
P1 P 0.42607(6) 0.79982(5) 0.30627(4)
N1 N 0.3399(2) 0.71029(15) 0.38265(15)
B1 B 0.3109(3) 0.7074(2) 0.5066(2)
C1 C 0.3613(3) 0.7846(2) 0.57143(19)
C2 C 0.3338(3) 0.7707(2) 0.6841(2)
C3 C 0.2595(3) 0.6893(2) 0.7403(2)
C4 C 0.2064(3) 0.6192(2) 0.6825(2)
C5 C 0.2268(2) 0.62406(19) 0.57006(18)
C6 C 0.5969(2) 0.79634(19) 0.36471(18)
C7 C 0.6872(3) 0.6882(2) 0.4040(2)
C8 C 0.8209(3) 0.6809(2) 0.4471(2)
C9 C 0.8664(3) 0.7805(2) 0.4541(2)
C10 C 0.7752(3) 0.8883(2) 0.4184(2)
C11 C 0.6406(3) 0.8973(2) 0.37358(19)
C12 C 0.4704(2) 0.75435(19) 0.17283(18)
C13 C 0.3790(3) 0.8076(2) 0.0883(2)
C14 C 0.4032(3) 0.7630(3) -0.0106(2)
C15 C 0.5162(3) 0.6640(2) -0.0251(2)
C16 C 0.6084(4) 0.6110(3) 0.0578(2)
C17 C 0.5853(3) 0.6558(2) 0.1562(2)
C18 C 0.3117(2) 0.94595(18) 0.29071(18)
C19 C 0.3629(3) 1.0334(2) 0.2223(2)
C20 C 0.2748(3) 1.1471(2) 0.2142(2)
C21 C 0.1354(3) 1.1727(2) 0.2715(2)
C22 C 0.0814(3) 1.0863(2) 0.3364(2)
C23 C 0.1699(2) 0.9732(2) 0.34718(19)
C24 C 0.2820(2) 0.63318(19) 0.32919(18)
C25 C 0.3535(3) 0.5152(2) 0.33974(19)
C26 C 0.2980(3) 0.4408(2) 0.2895(2)
C27 C 0.1745(3) 0.4836(2) 0.2288(2)
C28 C 0.1043(3) 0.6013(2) 0.2178(2)
C29 C 0.1577(3) 0.6758(2) 0.2692(2)
H1 H 0.419(3) 0.843(2) 0.540(2)
H2 H 0.365(3) 0.816(2) 0.727(2)
H3 H 0.241(3) 0.682(2) 0.817(2)
H4 H 0.149(3) 0.568(2) 0.729(2)
H5 H 0.189(3) 0.570(2) 0.538(2)
H6 H 0.657(3) 0.621(2) 0.403(2)
H7 H 0.882(3) 0.608(2) 0.475(2)
H8 H 0.959(3) 0.775(2) 0.481(2)
H9 H 0.801(3) 0.956(3) 0.427(3)
H10 H 0.576(3) 0.974(2) 0.348(2)
H11 H 0.294(4) 0.875(3) 0.094(3)
H12 H 0.339(4) 0.799(3) -0.069(3)
H13 H 0.527(3) 0.631(3) -0.092(2)
H14 H 0.695(4) 0.537(3) 0.050(3)
H15 H 0.649(4) 0.623(3) 0.207(3)
H16 H 0.462(3) 1.016(2) 0.179(2)
H17 H 0.312(3) 1.204(3) 0.166(2)
H18 H 0.071(3) 1.252(3) 0.262(3)
H19 H -0.017(3) 1.106(2) 0.372(2)
H20 H 0.138(3) 0.915(2) 0.396(2)
H21 H 0.441(3) 0.484(2) 0.381(2)
H22 H 0.346(3) 0.359(2) 0.299(2)
H23 H 0.137(3) 0.431(2) 0.195(2)
H24 H 0.019(3) 0.635(2) 0.171(2)
H25 H 0.105(3) 0.761(2) 0.261(2)
C30? C -0.0531(7) 0.9806(7) 1.0328(6)
C31? C 0.0171(14) 0.9521(11) 0.9341(8)
H26? H 0.0007 0.8829 0.9098
C32? C 0.1050(7) 1.0085(6) 0.8677(5)
H27? H 0.1441 0.9869 0.7952
C33? C 0.137(3) 1.0975(17) 0.9069(15)
H28? H 0.2104 1.1364 0.8655
C34? C 0.0695(9) 1.1341(7) 1.0020(7)
H29? H 0.0832 1.2053 1.0238
C35? C -0.0161(11) 1.0726(9) 1.0663(7)
H30? H -0.0533 1.0938 1.1392
C36? C -0.1455(14) 0.9037(10) 1.1030(9)
H31? H -0.2528 0.9439 1.1039
H32? H -0.1138 0.8874 1.1776
H33? H -0.1289 0.8305 1.0725
loop_
_geom_bond_atom_site_label_1
_geom_bond_atom_site_label_2
_geom_bond_site_symmetry_1
_geom_bond_site_symmetry_2
P1 N1 1_555 1_555
N1 B1 1_555 1_555
B1 C1 1_555 1_555
C1 C2 1_555 1_555
C2 C3 1_555 1_555
C3 C4 1_555 1_555
C4 C5 1_555 1_555
C5 B1 1_555 1_555
C6 P1 1_555 1_555
C7 C6 1_555 1_555
C8 C7 1_555 1_555
C9 C8 1_555 1_555
C10 C9 1_555 1_555
C11 C6 1_555 1_555
C12 P1 1_555 1_555
C13 C12 1_555 1_555
C14 C13 1_555 1_555
C15 C14 1_555 1_555
C16 C15 1_555 1_555
C17 C12 1_555 1_555
C18 P1 1_555 1_555
C19 C18 1_555 1_555
C20 C19 1_555 1_555
C21 C20 1_555 1_555
C22 C21 1_555 1_555
C23 C18 1_555 1_555
C24 N1 1_555 1_555
C25 C24 1_555 1_555
C26 C25 1_555 1_555
C27 C26 1_555 1_555
C28 C27 1_555 1_555
C29 C24 1_555 1_555
H1 C1 1_555 1_555
H2 C2 1_555 1_555
H3 C3 1_555 1_555
H4 C4 1_555 1_555
H5 C5 1_555 1_555
H6 C7 1_555 1_555
H7 C8 1_555 1_555
H8 C9 1_555 1_555
H9 C10 1_555 1_555
H10 C11 1_555 1_555
H11 C13 1_555 1_555
H12 C14 1_555 1_555
H13 C15 1_555 1_555
H14 C16 1_555 1_555
H15 C17 1_555 1_555
H16 C19 1_555 1_555
H17 C20 1_555 1_555
H18 C21 1_555 1_555
H19 C22 1_555 1_555
H20 C23 1_555 1_555
H21 C25 1_555 1_555
H22 C26 1_555 1_555
H23 C27 1_555 1_555
H24 C28 1_555 1_555
H25 C29 1_555 1_555
C10 C11 1_555 1_555
C16 C17 1_555 1_555
C22 C23 1_555 1_555
C28 C29 1_555 1_555

#END
