
#######################################################################
#
#                 Cambridge Crystallographic Data Centre
#                                CCDC 
#
#######################################################################
#
# If this CIF has been generated from an entry in the Cambridge 
# Structural Database, then it will include bibliographic, chemical, 
# crystal, experimental, refinement or atomic coordinate data resulting 
# from the CCDC's data processing and validation procedures.
#
#######################################################################

data_AFUCUC
_chemical_formula_moiety         'C23 H19 N1 O2'
_chemical_name_systematic        
2-(3,5-diphenyl-1,2-oxazol-4-yl)-1-phenylethan-1-ol
_symmetry_cell_setting           orthorhombic
_symmetry_space_group_name_H-M   'P 21 21 21'
_symmetry_Int_Tables_number      19
_space_group_name_Hall           'P 2ac 2ab'
loop_
_symmetry_equiv_pos_site_id
_symmetry_equiv_pos_as_xyz
1 x,y,z
2 1/2+x,1/2-y,-z
3 -x,1/2+y,1/2-z
4 1/2-x,-y,1/2+z
_cell_length_a                   7.7082(3)
_cell_length_b                   21.1740(10)
_cell_length_c                   22.6742(14)
_cell_angle_alpha                90
_cell_angle_beta                 90
_cell_angle_gamma                90
_cell_volume                     3700.73
_cell_formula_units_Z            8
loop_
_atom_site_label
_atom_site_type_symbol
_atom_site_fract_x
_atom_site_fract_y
_atom_site_fract_z
C1 C 0.9609(10) 0.1133(4) 0.3461(4)
C2 C 1.0544(10) 0.0697(3) 0.3136(4)
H1 H 1.1030 0.0808 0.2775
C3 C 1.0747(12) 0.0082(4) 0.3363(5)
H2 H 1.1386 -0.0216 0.3154
C4 C 1.0007(14) -0.0076(5) 0.3887(6)
H3 H 1.0141 -0.0484 0.4032
C5 C 0.9071(14) 0.0353(5) 0.4207(5)
H4 H 0.8586 0.0239 0.4567
C6 C 0.8851(12) 0.0965(4) 0.3986(4)
H5 H 0.8192 0.1257 0.4195
C7 C 0.9364(10) 0.1799(3) 0.3226(4)
H6 H 0.9143 0.2083 0.3559
C8 C 0.7806(10) 0.1831(3) 0.2799(4)
H7 H 0.8068 0.1588 0.2448
H8 H 0.6801 0.1642 0.2987
C9 C 0.7384(9) 0.2501(4) 0.2626(4)
C10 C 0.6513(10) 0.2935(4) 0.3009(4)
C11 C 0.5737(11) 0.2834(4) 0.3589(4)
C12 C 0.4531(11) 0.2351(4) 0.3689(4)
H9 H 0.4211 0.2089 0.3379
C13 C 0.3808(14) 0.2256(5) 0.4236(5)
H10 H 0.3016 0.1931 0.4295
C14 C 0.4269(13) 0.2648(5) 0.4701(4)
H11 H 0.3806 0.2580 0.5074
C15 C 0.5408(12) 0.3137(5) 0.4610(4)
H12 H 0.5694 0.3405 0.4920
C16 C 0.6129(11) 0.3232(4) 0.4061(4)
H13 H 0.6890 0.3567 0.4004
C17 C 0.8590(10) 0.2719(3) 0.1577(4)
C18 C 0.8130(11) 0.3096(4) 0.1088(4)
H14 H 0.7364 0.3431 0.1138
C19 C 0.8800(11) 0.2973(4) 0.0539(4)
H15 H 0.8499 0.3232 0.0224
C20 C 0.9908(11) 0.2474(4) 0.0448(4)
H16 H 1.0327 0.2388 0.0072
C21 C 1.0396(11) 0.2100(4) 0.0925(4)
H17 H 1.1166 0.1768 0.0868
C22 C 0.9748(10) 0.2219(3) 0.1478(4)
H18 H 1.0082 0.1964 0.1792
C23 C 0.7819(11) 0.2848(4) 0.2148(4)
O1 O 0.6472(9) 0.3504(3) 0.2751(4)
O2 O 1.0892(7) 0.1995(2) 0.2940(3)
H19 H 1.0927 0.2382 0.2931
N1 N 0.7300(7) 0.3454(2) 0.2210(3)
C24 C 0.4724(9) 0.5718(3) 0.3335(4)
C25 C 0.4021(11) 0.5929(4) 0.3857(4)
H20 H 0.3393 0.5655 0.4096
C26 C 0.4255(11) 0.6555(4) 0.4023(4)
H21 H 0.3770 0.6703 0.4372
C27 C 0.5205(11) 0.6954(4) 0.3671(5)
H22 H 0.5361 0.7371 0.3786
C28 C 0.5913(11) 0.6751(4) 0.3163(5)
H23 H 0.6562 0.7027 0.2932
C29 C 0.5673(10) 0.6125(4) 0.2983(4)
H24 H 0.6147 0.5984 0.2629
C30 C 0.4424(10) 0.5040(3) 0.3140(4)
H25 H 0.4258 0.4775 0.3490
C31 C 0.2797(10) 0.4995(3) 0.2748(4)
H26 H 0.1834 0.5204 0.2942
H27 H 0.3011 0.5210 0.2377
C32 C 0.2326(10) 0.4316(4) 0.2628(4)
C33 C 0.2731(11) 0.3924(3) 0.2163(4)
C34 C 0.3481(11) 0.4011(4) 0.1588(4)
C35 C 0.4694(12) 0.4479(4) 0.1462(5)
H28 H 0.5093 0.4738 0.1764
C36 C 0.5310(13) 0.4564(4) 0.0901(5)
H29 H 0.6135 0.4875 0.0827
C37 C 0.4705(12) 0.4187(4) 0.0442(4)
H30 H 0.5103 0.4250 0.0059
C38 C 0.3508(12) 0.3720(4) 0.0562(5)
H31 H 0.3113 0.3462 0.0258
C39 C 0.2895(11) 0.3630(4) 0.1120(5)
H32 H 0.2082 0.3315 0.1193
C40 C 0.0636(12) 0.4091(4) 0.3598(5)
C41 C -0.0580(13) 0.4566(4) 0.3632(5)
H33 H -0.0869 0.4791 0.3294
C42 C -0.1374(17) 0.4715(5) 0.4157(6)
H34 H -0.2206 0.5032 0.4169
C43 C -0.095(2) 0.4398(8) 0.4660(7)
H35 H -0.1471 0.4507 0.5016
C44 C 0.0254(19) 0.3919(7) 0.4642(6)
H36 H 0.0525 0.3695 0.4983
C45 C 0.1066(14) 0.3769(5) 0.4110(5)
H37 H 0.1900 0.3452 0.4099
C46 C 0.1428(11) 0.3916(4) 0.3034(4)
O3 O 0.5922(7) 0.4830(2) 0.2831(3)
H38 H 0.6025 0.4447 0.2872
N2 N 0.1331(9) 0.3329(3) 0.2840(4)
O4 O 0.2145(7) 0.3334(2) 0.2289(3)
loop_
_geom_bond_atom_site_label_1
_geom_bond_atom_site_label_2
_geom_bond_site_symmetry_1
_geom_bond_site_symmetry_2
C1 C2 1_555 1_555
C2 H1 1_555 1_555
C3 C2 1_555 1_555
H2 C3 1_555 1_555
C4 C3 1_555 1_555
H3 C4 1_555 1_555
C5 C4 1_555 1_555
H4 C5 1_555 1_555
C6 C1 1_555 1_555
H5 C6 1_555 1_555
C7 C1 1_555 1_555
H6 C7 1_555 1_555
C8 C7 1_555 1_555
H7 C8 1_555 1_555
H8 C8 1_555 1_555
C9 C8 1_555 1_555
C10 C9 1_555 1_555
C11 C10 1_555 1_555
C12 C11 1_555 1_555
H9 C12 1_555 1_555
C13 C12 1_555 1_555
H10 C13 1_555 1_555
C14 C13 1_555 1_555
H11 C14 1_555 1_555
C15 C14 1_555 1_555
H12 C15 1_555 1_555
C16 C11 1_555 1_555
H13 C16 1_555 1_555
C17 C18 1_555 1_555
C18 H14 1_555 1_555
C19 C18 1_555 1_555
H15 C19 1_555 1_555
C20 C19 1_555 1_555
H16 C20 1_555 1_555
C21 C20 1_555 1_555
H17 C21 1_555 1_555
C22 C17 1_555 1_555
H18 C22 1_555 1_555
C23 C9 1_555 1_555
O1 C10 1_555 1_555
O2 C7 1_555 1_555
H19 O2 1_555 1_555
N1 C23 1_555 1_555
C24 C25 1_555 1_555
C25 H20 1_555 1_555
C26 C25 1_555 1_555
H21 C26 1_555 1_555
C27 C26 1_555 1_555
H22 C27 1_555 1_555
C28 C27 1_555 1_555
H23 C28 1_555 1_555
C29 C24 1_555 1_555
H24 C29 1_555 1_555
C30 C24 1_555 1_555
H25 C30 1_555 1_555
C31 C30 1_555 1_555
H26 C31 1_555 1_555
H27 C31 1_555 1_555
C32 C31 1_555 1_555
C33 C32 1_555 1_555
C34 C33 1_555 1_555
C35 C34 1_555 1_555
H28 C35 1_555 1_555
C36 C35 1_555 1_555
H29 C36 1_555 1_555
C37 C36 1_555 1_555
H30 C37 1_555 1_555
C38 C37 1_555 1_555
H31 C38 1_555 1_555
C39 C34 1_555 1_555
H32 C39 1_555 1_555
C40 C41 1_555 1_555
C41 H33 1_555 1_555
C42 C41 1_555 1_555
H34 C42 1_555 1_555
C43 C42 1_555 1_555
H35 C43 1_555 1_555
C44 C43 1_555 1_555
H36 C44 1_555 1_555
C45 C40 1_555 1_555
H37 C45 1_555 1_555
C46 C32 1_555 1_555
O3 C30 1_555 1_555
H38 O3 1_555 1_555
N2 C46 1_555 1_555
O4 C33 1_555 1_555
C5 C6 1_555 1_555
C15 C16 1_555 1_555
C17 C23 1_555 1_555
C21 C22 1_555 1_555
O1 N1 1_555 1_555
C28 C29 1_555 1_555
C38 C39 1_555 1_555
C40 C46 1_555 1_555
C44 C45 1_555 1_555
N2 O4 1_555 1_555

#END
