
#######################################################################
#
#                 Cambridge Crystallographic Data Centre
#                                CCDC 
#
#######################################################################
#
# If this CIF has been generated from an entry in the Cambridge 
# Structural Database, then it will include bibliographic, chemical, 
# crystal, experimental, refinement or atomic coordinate data resulting 
# from the CCDC's data processing and validation procedures.
#
#######################################################################

data_AFUDAJ
_chemical_formula_moiety         'C23 H18 Cl1 N1 O2'
_chemical_name_systematic        
1-(4-chlorophenyl)-2-(3,5-diphenyl-1,2-oxazol-4-yl)ethan-1-ol
_symmetry_cell_setting           orthorhombic
_symmetry_space_group_name_H-M   'P n a 21'
_symmetry_Int_Tables_number      33
_space_group_name_Hall           'P 2c -2n'
loop_
_symmetry_equiv_pos_site_id
_symmetry_equiv_pos_as_xyz
1 x,y,z
2 -x,-y,1/2+z
3 1/2-x,1/2+y,1/2+z
4 1/2+x,1/2-y,z
_cell_length_a                   13.457(4)
_cell_length_b                   10.154(3)
_cell_length_c                   13.737(4)
_cell_angle_alpha                90
_cell_angle_beta                 90
_cell_angle_gamma                90
_cell_volume                     1877.06
_cell_formula_units_Z            4
loop_
_atom_site_label
_atom_site_type_symbol
_atom_site_fract_x
_atom_site_fract_y
_atom_site_fract_z
Cl1 Cl 0.14754(10) 1.17094(18) 0.0333(2)
O1 O 0.5380(3) 0.7557(5) -0.0177(5)
H1 H 0.5048 0.7639 -0.0674
C1 C 0.3474(4) 1.1546(6) 0.0242(9)
H2 H 0.3469 1.2459 0.0197
C2 C 0.2138(4) 1.0390(7) 0.3014(8)
H3 H 0.1650 1.1035 0.3063
O2 O 0.5205(3) 1.1269(5) 0.3046(6)
N1 N 0.6231(3) 1.1406(5) 0.2837(4)
C3 C 0.9259(5) 1.0439(7) 0.2610(8)
H4 H 0.9711 1.0617 0.3105
C4 C 0.9600(4) 1.0062(7) 0.1724(9)
H5 H 1.0280 0.9974 0.1624
C5 C 0.8943(4) 0.9804(6) 0.0960(8)
H6 H 0.9178 0.9562 0.0349
C6 C 0.3605(4) 0.8472(6) 0.2936(7)
H7 H 0.4094 0.7826 0.2927
C7 C 0.2646(4) 0.8132(7) 0.3130(8)
H8 H 0.2488 0.7255 0.3247
C8 C 0.2594(4) 1.0836(6) 0.0312(9)
C9 C 0.4368(4) 1.0840(6) 0.0244(8)
H9 H 0.4965 1.1296 0.0204
C10 C 0.1890(4) 0.9093(7) 0.3157(7)
H10 H 0.1233 0.8852 0.3269
C11 C 0.3474(4) 0.8798(6) 0.0343(8)
H11 H 0.3471 0.7882 0.0362
C12 C 0.8234(4) 1.0568(6) 0.2796(8)
H12 H 0.8003 1.0823 0.3406
C13 C 0.7918(4) 0.9918(7) 0.1136(7)
H13 H 0.7470 0.9732 0.0639
C14 C 0.4384(4) 0.9480(6) 0.0303(8)
C15 C 0.5374(3) 0.8760(5) 0.0349(8)
H14 H 0.5891 0.9336 0.0081
C16 C 0.5655(4) 0.8404(6) 0.1413(6)
H15 H 0.5171 0.7786 0.1667
H16 H 0.6299 0.7974 0.1416
C17 C 0.5694(4) 0.9580(6) 0.2062(6)
C18 C 0.4906(4) 1.0190(6) 0.2585(7)
C19 C 0.3862(4) 0.9782(7) 0.2752(6)
C20 C 0.3108(4) 1.0752(6) 0.2797(7)
H17 H 0.3262 1.1631 0.2682
C21 C 0.2576(4) 0.9485(6) 0.0352(9)
H18 H 0.1975 0.9035 0.0386
C22 C 0.6496(4) 1.0399(7) 0.2272(7)
C23 C 0.7573(4) 1.0300(6) 0.2031(7)
loop_
_geom_bond_atom_site_label_1
_geom_bond_atom_site_label_2
_geom_bond_site_symmetry_1
_geom_bond_site_symmetry_2
Cl1 C8 1_555 1_555
O1 H1 1_555 1_555
C1 H2 1_555 1_555
C2 H3 1_555 1_555
O2 N1 1_555 1_555
N1 C22 1_555 1_555
C3 H4 1_555 1_555
C4 C3 1_555 1_555
H5 C4 1_555 1_555
C5 C4 1_555 1_555
H6 C5 1_555 1_555
C6 H7 1_555 1_555
C7 C6 1_555 1_555
H8 C7 1_555 1_555
C8 C1 1_555 1_555
C9 C1 1_555 1_555
H9 C9 1_555 1_555
C10 C2 1_555 1_555
H10 C10 1_555 1_555
C11 H11 1_555 1_555
C12 C3 1_555 1_555
H12 C12 1_555 1_555
C13 C5 1_555 1_555
H13 C13 1_555 1_555
C14 C9 1_555 1_555
C15 O1 1_555 1_555
H14 C15 1_555 1_555
C16 C15 1_555 1_555
H15 C16 1_555 1_555
H16 C16 1_555 1_555
C17 C16 1_555 1_555
C18 O2 1_555 1_555
C19 C6 1_555 1_555
C20 C2 1_555 1_555
H17 C20 1_555 1_555
C21 C8 1_555 1_555
H18 C21 1_555 1_555
C22 C17 1_555 1_555
C23 C12 1_555 1_555
C7 C10 1_555 1_555
C11 C14 1_555 1_555
C11 C21 1_555 1_555
C13 C23 1_555 1_555
C14 C15 1_555 1_555
C17 C18 1_555 1_555
C18 C19 1_555 1_555
C19 C20 1_555 1_555
C22 C23 1_555 1_555

#END
