
#######################################################################
#
#                 Cambridge Crystallographic Data Centre
#                                CCDC 
#
#######################################################################
#
# If this CIF has been generated from an entry in the Cambridge 
# Structural Database, then it will include bibliographic, chemical, 
# crystal, experimental, refinement or atomic coordinate data resulting 
# from the CCDC's data processing and validation procedures.
#
#######################################################################

data_AFUHOZ
_chemical_formula_moiety         'C20 H19 N3 O2 S1'
_chemical_name_systematic        
2-(3,4-Methylenedioxy)phenyl-3-(N-t-butylamino)benzo(d)imidazo(2,1-b)thiazole
_symmetry_cell_setting           monoclinic
_symmetry_space_group_name_H-M   'P 21/c'
_symmetry_Int_Tables_number      14
_space_group_name_Hall           '-P 2ybc'
loop_
_symmetry_equiv_pos_site_id
_symmetry_equiv_pos_as_xyz
1 x,y,z
2 -x,1/2+y,1/2-z
3 -x,-y,-z
4 x,1/2-y,1/2+z
_cell_length_a                   7.8170(10)
_cell_length_b                   18.943(2)
_cell_length_c                   12.4468(16)
_cell_angle_alpha                90
_cell_angle_beta                 107.696(3)
_cell_angle_gamma                90
_cell_volume                     1755.88
_exptl_crystal_colour            brown
_exptl_crystal_description       block
_chemical_melting_point          '181-183 deg.C'
_cell_formula_units_Z            4
loop_
_atom_site_label
_atom_site_type_symbol
_atom_site_fract_x
_atom_site_fract_y
_atom_site_fract_z
S1 S 0.41237(11) 0.56502(4) 1.19720(7)
O1 O 0.7960(4) 0.98110(14) 0.9640(2)
O2 O 0.6814(4) 0.96846(14) 1.1142(2)
N1 N 0.3696(3) 0.61662(13) 0.9971(2)
N2 N 0.5265(4) 0.69356(14) 1.1275(2)
N3 N 0.3340(3) 0.67610(14) 0.8191(2)
H1 H 0.398(6) 0.694(2) 0.775(4)
C1 C 0.4446(4) 0.63178(17) 1.1099(2)
C2 C 0.4028(4) 0.67451(16) 0.9372(2)
C3 C 0.5023(4) 0.71983(16) 1.0188(2)
C4 C 0.2937(4) 0.54876(16) 0.9761(3)
C5 C 0.2215(4) 0.51553(17) 0.8740(3)
H2 H 0.2178 0.5380 0.8061
C6 C 0.1541(5) 0.44773(18) 0.8744(3)
H3 H 0.1026 0.4243 0.8055
C7 C 0.1613(5) 0.41406(19) 0.9745(4)
H4 H 0.1133 0.3684 0.9725
C8 C 0.2380(5) 0.44658(17) 1.0768(3)
H5 H 0.2450 0.4232 1.1447
C9 C 0.3045(4) 0.51427(16) 1.0779(3)
C10 C 0.1565(4) 0.71245(18) 0.7684(3)
C11 C 0.0135(5) 0.6766(2) 0.8088(3)
H6 H 0.0093 0.6268 0.7905
H7 H -0.1024 0.6979 0.7719
H8 H 0.0422 0.6824 0.8898
C12 C 0.1156(5) 0.7036(3) 0.6429(3)
H9 H 0.2077 0.7269 0.6183
H10 H -0.0004 0.7245 0.6048
H11 H 0.1131 0.6538 0.6247
C13 C 0.1660(5) 0.7904(2) 0.8004(4)
H12 H 0.1856 0.7948 0.8809
H13 H 0.0541 0.8133 0.7598
H14 H 0.2644 0.8125 0.7808
C14 C 0.5828(4) 0.78781(16) 1.0020(2)
C15 C 0.6579(4) 0.79556(17) 0.9152(3)
H15 H 0.6579 0.7569 0.8679
C16 C 0.7340(4) 0.85950(19) 0.8958(3)
H16 H 0.7828 0.8646 0.8360
C17 C 0.7341(4) 0.91333(18) 0.9666(3)
C18 C 0.6641(4) 0.90624(18) 1.0554(3)
C19 C 0.5869(4) 0.84445(17) 1.0750(3)
H17 H 0.5385 0.8403 1.1352
C20 C 0.7833(6) 1.0138(2) 1.0655(4)
H18 H 0.9036 1.0210 1.1185
H19 H 0.7243 1.0598 1.0481
loop_
_geom_bond_atom_site_label_1
_geom_bond_atom_site_label_2
_geom_bond_site_symmetry_1
_geom_bond_site_symmetry_2
S1 C1 1_555 1_555
O1 C17 1_555 1_555
O2 C18 1_555 1_555
N1 C1 1_555 1_555
N2 C1 1_555 1_555
N3 H1 1_555 1_555
C2 N1 1_555 1_555
C3 N2 1_555 1_555
C4 N1 1_555 1_555
C5 C4 1_555 1_555
H2 C5 1_555 1_555
C6 C5 1_555 1_555
H3 C6 1_555 1_555
C7 C6 1_555 1_555
H4 C7 1_555 1_555
C8 C7 1_555 1_555
H5 C8 1_555 1_555
C9 S1 1_555 1_555
C10 N3 1_555 1_555
C11 C10 1_555 1_555
H6 C11 1_555 1_555
H7 C11 1_555 1_555
H8 C11 1_555 1_555
C12 C10 1_555 1_555
H9 C12 1_555 1_555
H10 C12 1_555 1_555
H11 C12 1_555 1_555
C13 C10 1_555 1_555
H12 C13 1_555 1_555
H13 C13 1_555 1_555
H14 C13 1_555 1_555
C14 C3 1_555 1_555
C15 C14 1_555 1_555
H15 C15 1_555 1_555
C16 C15 1_555 1_555
H16 C16 1_555 1_555
C17 C16 1_555 1_555
C18 C17 1_555 1_555
C19 C14 1_555 1_555
H17 C19 1_555 1_555
C20 O1 1_555 1_555
H18 C20 1_555 1_555
H19 C20 1_555 1_555
O2 C20 1_555 1_555
N3 C2 1_555 1_555
C2 C3 1_555 1_555
C4 C9 1_555 1_555
C8 C9 1_555 1_555
C18 C19 1_555 1_555

#END
