
#######################################################################
#
#                 Cambridge Crystallographic Data Centre
#                                CCDC 
#
#######################################################################
#
# If this CIF has been generated from an entry in the Cambridge 
# Structural Database, then it will include bibliographic, chemical, 
# crystal, experimental, refinement or atomic coordinate data resulting 
# from the CCDC's data processing and validation procedures.
#
#######################################################################

data_AFUHUF
_chemical_formula_moiety         'C20 H33 N1 O4 S1 Si1'
_chemical_name_systematic        
2-(1-Hydroxy-2-propenyl)-4-(t-butyl(dimethyl)silanyloxy)-1-(p-toluenesulfonyl)pyrrolidine
_symmetry_cell_setting           triclinic
_symmetry_space_group_name_H-M   'P 1'
_symmetry_Int_Tables_number      1
_space_group_name_Hall           'P 1'
loop_
_symmetry_equiv_pos_site_id
_symmetry_equiv_pos_as_xyz
1 x,y,z
_cell_length_a                   6.299(3)
_cell_length_b                   7.116(3)
_cell_length_c                   12.730(5)
_cell_angle_alpha                90.535(6)
_cell_angle_beta                 92.354(6)
_cell_angle_gamma                97.549(5)
_cell_volume                     565.12
_exptl_crystal_colour            colorless
_exptl_crystal_description       columnar
_cell_formula_units_Z            2
loop_
_atom_site_label
_atom_site_type_symbol
_atom_site_fract_x
_atom_site_fract_y
_atom_site_fract_z
C1 C 0.6230(13) 0.7284(12) 0.1437(7)
H1 H 0.7248 0.6698 0.1049
H2 H 0.6974 0.8108 0.1972
H3 H 0.5434 0.8007 0.0968
C2 C 0.4721(11) 0.5781(9) 0.1939(5)
C3 C 0.5152(10) 0.3985(9) 0.2050(5)
H4 H 0.6395 0.3647 0.1773
C4 C 0.3806(10) 0.2620(8) 0.2565(5)
H5 H 0.4153 0.1396 0.2637
C5 C 0.1937(10) 0.3107(8) 0.2969(5)
C6 C 0.1465(10) 0.4931(8) 0.2878(5)
H6 H 0.0247 0.5279 0.3175
C7 C 0.2817(11) 0.6252(8) 0.2340(5)
H7 H 0.2454 0.7466 0.2243
C8 C 0.1344(10) 0.3331(8) 0.5520(5)
H8 H -0.0069 0.3364 0.5789
H9 H 0.1696 0.4431 0.5085
C9 C 0.2976(9) 0.3297(7) 0.6400(5)
C10 C 0.4697(9) 0.2314(7) 0.5902(5)
H10 H 0.5460 0.1661 0.6432
H11 H 0.5719 0.3234 0.5568
C11 C 0.3559(8) 0.0894(6) 0.5084(4)
C12 C 0.3320(10) -0.1229(7) 0.5420(5)
C13 C 0.5437(13) -0.1849(9) 0.5465(9)
H12 H 0.6261 -0.1588 0.6143
C14 C 0.641(2) -0.267(2) 0.4958(13)
H13 H 0.5853 -0.3075 0.4299
H14 H 0.7801 -0.2969 0.5167
C15 C -0.0729(11) 0.4798(8) 0.7946(6)
H15 H -0.0164 0.5675 0.7426
H16 H -0.1074 0.5487 0.8554
H17 H -0.2000 0.4042 0.7660
C16 C 0.3666(10) 0.4688(10) 0.9000(6)
H18 H 0.4812 0.3933 0.9103
H19 H 0.3262 0.5126 0.9669
H20 H 0.4134 0.5756 0.8573
C17 C 0.0149(10) 0.1226(8) 0.9174(5)
C18 C -0.0627(13) 0.2073(10) 1.0176(6)
H21 H -0.1161 0.1069 1.0633
H22 H -0.1751 0.2817 0.9996
H23 H 0.0544 0.2864 1.0529
C19 C 0.1850(14) -0.0048(11) 0.9460(7)
H24 H 0.1222 -0.1101 0.9859
H25 H 0.2997 0.0665 0.9872
H26 H 0.2402 -0.0508 0.8829
C20 C -0.1757(12) 0.0054(9) 0.8606(6)
H27 H -0.1279 -0.0560 0.8001
H28 H -0.2787 0.0868 0.8387
H29 H -0.2406 -0.0885 0.9072
N1 N 0.1415(7) 0.1566(5) 0.4913(4)
O1 O -0.1701(6) 0.2070(6) 0.3790(4)
O2 O 0.0507(7) -0.0426(5) 0.3321(4)
O3 O 0.2414(8) -0.1518(6) 0.6406(4)
H30 H 0.1224 -0.1168 0.6390
O4 O 0.2089(7) 0.2182(5) 0.7256(3)
S1 S 0.03327(19) 0.14352(17) 0.37219(12)
Si1 Si 0.1315(2) 0.32247(18) 0.83274(13)
C21? C 0.658(4) -0.246(3) 0.602(3)
loop_
_geom_bond_atom_site_label_1
_geom_bond_atom_site_label_2
_geom_bond_site_symmetry_1
_geom_bond_site_symmetry_2
C1 H1 1_555 1_555
H2 C1 1_555 1_555
H3 C1 1_555 1_555
C2 C1 1_555 1_555
C3 C2 1_555 1_555
H4 C3 1_555 1_555
C4 C3 1_555 1_555
H5 C4 1_555 1_555
C5 C4 1_555 1_555
C6 C5 1_555 1_555
H6 C6 1_555 1_555
C7 C2 1_555 1_555
H7 C7 1_555 1_555
C8 H8 1_555 1_555
H9 C8 1_555 1_555
C9 C8 1_555 1_555
C10 C9 1_555 1_555
H10 C10 1_555 1_555
H11 C10 1_555 1_555
C11 C10 1_555 1_555
C12 C11 1_555 1_555
C13 C12 1_555 1_555
H12 C13 1_555 1_555
C14 C13 1_555 1_555
H13 C14 1_555 1_555
H14 C14 1_555 1_555
C15 H15 1_555 1_555
H16 C15 1_555 1_555
H17 C15 1_555 1_555
C16 H18 1_555 1_555
H19 C16 1_555 1_555
H20 C16 1_555 1_555
C17 C18 1_555 1_555
C18 H21 1_555 1_555
H22 C18 1_555 1_555
H23 C18 1_555 1_555
C19 C17 1_555 1_555
H24 C19 1_555 1_555
H25 C19 1_555 1_555
H26 C19 1_555 1_555
C20 C17 1_555 1_555
H27 C20 1_555 1_555
H28 C20 1_555 1_555
H29 C20 1_555 1_555
N1 C8 1_555 1_555
O1 S1 1_555 1_555
O2 S1 1_555 1_555
O3 C12 1_555 1_555
H30 O3 1_555 1_555
O4 C9 1_555 1_555
S1 C5 1_555 1_555
Si1 C15 1_555 1_555
C6 C7 1_555 1_555
C11 N1 1_555 1_555
C16 Si1 1_555 1_555
C17 Si1 1_555 1_555
N1 S1 1_555 1_555
O4 Si1 1_555 1_555

#END
