
#######################################################################
#
#                 Cambridge Crystallographic Data Centre
#                                CCDC 
#
#######################################################################
#
# If this CIF has been generated from an entry in the Cambridge 
# Structural Database, then it will include bibliographic, chemical, 
# crystal, experimental, refinement or atomic coordinate data resulting 
# from the CCDC's data processing and validation procedures.
#
#######################################################################

data_AFUHIU
_chemical_formula_moiety         'C9 H9 N2 S1 1+,C11 H7 O3 1-'
_chemical_name_systematic        
'2-Amino-4-phenyl-1,3-thiazol-3-ium 3-hydroxy-2-naphthoate'
_symmetry_cell_setting           monoclinic
_symmetry_space_group_name_H-M   'P 21/n'
_symmetry_Int_Tables_number      14
_space_group_name_Hall           '-P 2yn'
loop_
_symmetry_equiv_pos_site_id
_symmetry_equiv_pos_as_xyz
1 x,y,z
2 1/2-x,1/2+y,1/2-z
3 -x,-y,-z
4 1/2+x,1/2-y,1/2+z
_cell_length_a                   10.289(7)
_cell_length_b                   11.820(8)
_cell_length_c                   14.340(9)
_cell_angle_alpha                90
_cell_angle_beta                 100.233(10)
_cell_angle_gamma                90
_cell_volume                     1716.23
_exptl_crystal_colour            colorless
_exptl_crystal_description       block
_cell_formula_units_Z            4
loop_
_atom_site_label
_atom_site_type_symbol
_atom_site_fract_x
_atom_site_fract_y
_atom_site_fract_z
S1 S -0.18279(18) 0.53316(16) 0.20480(11)
N1 N -0.0955(5) 0.6300(4) 0.3586(3)
H1 H -0.0889 0.6751 0.4063
N2 N -0.2967(5) 0.7011(4) 0.2844(3)
H2 H -0.2993 0.7474 0.3303
H3 H -0.3602 0.6998 0.2365
C1 C -0.1964(7) 0.6329(5) 0.2875(4)
C2 C 0.0001(6) 0.5482(5) 0.3503(4)
C3 C -0.0312(6) 0.4876(6) 0.2694(4)
H4 H 0.0202 0.4300 0.2508
C4 C 0.1203(6) 0.5386(5) 0.4225(4)
C5 C 0.1520(6) 0.6183(6) 0.4914(4)
H5 H 0.0953 0.6790 0.4943
C6 C 0.2673(7) 0.6098(7) 0.5567(5)
H6 H 0.2896 0.6654 0.6026
C7 C 0.3472(7) 0.5204(7) 0.5534(5)
H7 H 0.4240 0.5131 0.5983
C8 C 0.3161(8) 0.4400(6) 0.4844(6)
H8 H 0.3734 0.3797 0.4817
C9 C 0.2024(7) 0.4471(5) 0.4198(5)
H9 H 0.1804 0.3909 0.3744
O1 O 0.8103(5) 0.3484(3) 1.0664(3)
O2 O 0.6037(5) 0.2919(4) 1.0128(3)
O3 O 0.4638(4) 0.3863(4) 0.8785(3)
H10 H 0.4871 0.3387 0.9197
C10 C 0.7011(8) 0.3569(6) 1.0144(4)
C11 C 0.7808(6) 0.5306(5) 0.9425(4)
H11 H 0.8590 0.5238 0.9860
C12 C 0.6824(6) 0.4528(5) 0.9431(3)
C13 C 0.5630(7) 0.4656(6) 0.8798(4)
C14 C 0.5476(7) 0.5516(6) 0.8175(4)
H12 H 0.4683 0.5580 0.7751
C15 C 0.6448(7) 0.6301(5) 0.8142(4)
C16 C 0.7658(7) 0.6212(5) 0.8770(4)
C17 C 0.8629(7) 0.7011(6) 0.8743(5)
H13 H 0.9420 0.6955 0.9171
C18 C 0.8464(8) 0.7870(6) 0.8115(6)
H14 H 0.9140 0.8388 0.8099
C19 C 0.7265(10) 0.7973(6) 0.7487(6)
H15 H 0.7135 0.8572 0.7060
C20 C 0.6302(7) 0.7216(6) 0.7497(4)
H16 H 0.5516 0.7293 0.7067
loop_
_geom_bond_atom_site_label_1
_geom_bond_atom_site_label_2
_geom_bond_site_symmetry_1
_geom_bond_site_symmetry_2
S1 C1 1_555 1_555
N1 H1 1_555 1_555
N2 H2 1_555 1_555
H3 N2 1_555 1_555
C1 N1 1_555 1_555
C2 N1 1_555 1_555
C3 S1 1_555 1_555
H4 C3 1_555 1_555
C4 C2 1_555 1_555
C5 C4 1_555 1_555
H5 C5 1_555 1_555
C6 C5 1_555 1_555
H6 C6 1_555 1_555
C7 C6 1_555 1_555
H7 C7 1_555 1_555
C8 C7 1_555 1_555
H8 C8 1_555 1_555
C9 C4 1_555 1_555
H9 C9 1_555 1_555
O1 C10 1_555 1_555
O2 C10 1_555 1_555
O3 H10 1_555 1_555
C10 C12 1_555 1_555
C11 H11 1_555 1_555
C12 C11 1_555 1_555
C13 O3 1_555 1_555
C14 C13 1_555 1_555
H12 C14 1_555 1_555
C15 C14 1_555 1_555
C16 C11 1_555 1_555
C17 C16 1_555 1_555
H13 C17 1_555 1_555
C18 C17 1_555 1_555
H14 C18 1_555 1_555
C19 C18 1_555 1_555
H15 C19 1_555 1_555
C20 C15 1_555 1_555
H16 C20 1_555 1_555
N2 C1 1_555 1_555
C2 C3 1_555 1_555
C8 C9 1_555 1_555
C12 C13 1_555 1_555
C15 C16 1_555 1_555
C19 C20 1_555 1_555

#END
