
#######################################################################
#
#                 Cambridge Crystallographic Data Centre
#                                CCDC 
#
#######################################################################
#
# If this CIF has been generated from an entry in the Cambridge 
# Structural Database, then it will include bibliographic, chemical, 
# crystal, experimental, refinement or atomic coordinate data resulting 
# from the CCDC's data processing and validation procedures.
#
#######################################################################

data_AFUHAM
_chemical_formula_moiety         'C9 H9 N2 S1 1+,C2 H1 O4 1-,H2 O1'
_chemical_name_systematic        
'2-Amino-4-phenyl-1,3-thiazol-3-ium hydrogen oxalate monohydrate'
_symmetry_cell_setting           monoclinic
_symmetry_space_group_name_H-M   'P 21/n'
_symmetry_Int_Tables_number      14
_space_group_name_Hall           '-P 2yn'
loop_
_symmetry_equiv_pos_site_id
_symmetry_equiv_pos_as_xyz
1 x,y,z
2 1/2-x,1/2+y,1/2-z
3 -x,-y,-z
4 1/2+x,1/2-y,1/2+z
_cell_length_a                   7.1982(6)
_cell_length_b                   18.6928(17)
_cell_length_c                   9.2649(7)
_cell_angle_alpha                90
_cell_angle_beta                 105.0440(10)
_cell_angle_gamma                90
_cell_volume                     1203.91
_exptl_crystal_colour            colorless
_exptl_crystal_description       block
_cell_formula_units_Z            4
loop_
_atom_site_label
_atom_site_type_symbol
_atom_site_fract_x
_atom_site_fract_y
_atom_site_fract_z
N1 N 0.2985(4) 0.57533(15) 0.6023(3)
H1 H 0.3628 0.5575 0.6859
N2 N 0.3229(5) 0.69280(17) 0.6843(3)
H2 H 0.3896 0.6806 0.7719
H3 H 0.2955 0.7371 0.6642
S1 S 0.12946(15) 0.66203(5) 0.40503(11)
C1 C 0.2653(5) 0.64569(19) 0.5850(4)
C2 C 0.2235(5) 0.53285(19) 0.4783(4)
C3 C 0.1289(5) 0.57305(19) 0.3639(4)
H4 H 0.0683 0.5544 0.2705
C4 C 0.2532(5) 0.45530(18) 0.4835(4)
C5 C 0.1710(6) 0.4153(2) 0.3567(4)
H5 H 0.0973 0.4379 0.2715
C6 C 0.1982(7) 0.3425(2) 0.3565(5)
H6 H 0.1440 0.3160 0.2710
C7 C 0.3051(6) 0.3089(2) 0.4823(5)
H7 H 0.3236 0.2597 0.4818
C8 C 0.3847(6) 0.3475(2) 0.6086(5)
H8 H 0.4562 0.3246 0.6941
C9 C 0.3586(5) 0.4205(2) 0.6085(4)
H9 H 0.4132 0.4466 0.6945
O1 O 0.8218(4) 0.52345(14) 0.0500(3)
H10 H 0.8118 0.4829 0.0153
O2 O 0.5516(4) 0.54182(14) -0.1251(3)
O3 O 0.5498(4) 0.67510(15) -0.0046(3)
O4 O 0.8671(4) 0.66563(14) 0.0739(3)
C10 C 0.6826(6) 0.5630(2) -0.0271(4)
C11 C 0.7042(6) 0.6425(2) 0.0194(4)
O5 O 0.8001(5) 0.39297(16) 0.9944(4)
H11 H 0.7050 0.3658 0.9931
H12 H 0.8880 0.3684 0.9720
loop_
_geom_bond_atom_site_label_1
_geom_bond_atom_site_label_2
_geom_bond_site_symmetry_1
_geom_bond_site_symmetry_2
N1 H1 1_555 1_555
N2 H2 1_555 1_555
H3 N2 1_555 1_555
S1 C1 1_555 1_555
C1 N1 1_555 1_555
C2 N1 1_555 1_555
C3 S1 1_555 1_555
H4 C3 1_555 1_555
C4 C2 1_555 1_555
C5 C4 1_555 1_555
H5 C5 1_555 1_555
C6 C5 1_555 1_555
H6 C6 1_555 1_555
C7 C6 1_555 1_555
H7 C7 1_555 1_555
C8 C7 1_555 1_555
H8 C8 1_555 1_555
C9 C4 1_555 1_555
H9 C9 1_555 1_555
O1 H10 1_555 1_555
O2 C10 1_555 1_555
O3 C11 1_555 1_555
O4 C11 1_555 1_555
C10 O1 1_555 1_555
C11 C10 1_555 1_555
O5 H11 1_555 1_555
H12 O5 1_555 1_555
N2 C1 1_555 1_555
C2 C3 1_555 1_555
C8 C9 1_555 1_555

#END
