
#######################################################################
#
#                 Cambridge Crystallographic Data Centre
#                                CCDC 
#
#######################################################################
#
# If this CIF has been generated from an entry in the Cambridge 
# Structural Database, then it will include bibliographic, chemical, 
# crystal, experimental, refinement or atomic coordinate data resulting 
# from the CCDC's data processing and validation procedures.
#
#######################################################################

data_AFUJAO
_chemical_formula_moiety         'C13 H9 N2 O3 1-,C9 H9 N2 S1 1+'
_chemical_name_systematic        
'2-Amino-4-phenyl-1,3-thiazol-3-ium 2-hydroxy-5-(phenyldiazenyl)benzoate'
_symmetry_cell_setting           monoclinic
_symmetry_space_group_name_H-M   'C 2/c'
_symmetry_Int_Tables_number      15
_space_group_name_Hall           '-C 2yn'
loop_
_symmetry_equiv_pos_site_id
_symmetry_equiv_pos_as_xyz
1 x,y,z
2 -x,y,1/2-z
3 1/2+x,1/2+y,z
4 1/2-x,1/2+y,1/2-z
5 -x,-y,-z
6 x,-y,1/2+z
7 1/2-x,1/2-y,-z
8 1/2+x,1/2-y,1/2+z
_cell_length_a                   45.782(4)
_cell_length_b                   5.5309(9)
_cell_length_c                   16.8908(16)
_cell_angle_alpha                90
_cell_angle_beta                 104.179(2)
_cell_angle_gamma                90
_cell_volume                     4146.72
_exptl_crystal_colour            colorless
_exptl_crystal_description       block
_cell_formula_units_Z            8
loop_
_atom_site_label
_atom_site_type_symbol
_atom_site_fract_x
_atom_site_fract_y
_atom_site_fract_z
N1 N 0.57908(7) 0.8674(5) 0.36339(17)
H1 H 0.5834 0.9859 0.3352
N2 N 0.52806(7) 0.9660(6) 0.3399(2)
H2 H 0.5302 1.0900 0.3112
H3 H 0.5106 0.9317 0.3477
S1 S 0.55028(2) 0.5801(2) 0.43287(7)
C1 C 0.55120(10) 0.8299(7) 0.3718(2)
C2 C 0.60084(9) 0.7030(7) 0.4031(2)
C3 C 0.58818(8) 0.5374(7) 0.4432(2)
H4 H 0.5990 0.4120 0.4736
C4 C 0.63249(8) 0.7230(7) 0.3987(2)
C5 C 0.65333(11) 0.5577(8) 0.4381(3)
H5 H 0.6472 0.4347 0.4680
C6 C 0.68328(11) 0.5686(9) 0.4346(3)
H6 H 0.6970 0.4541 0.4619
C7 C 0.69254(10) 0.7485(9) 0.3910(3)
H7 H 0.7126 0.7572 0.3885
C8 C 0.67228(10) 0.9153(9) 0.3510(3)
H8 H 0.6785 1.0374 0.3210
C9 C 0.64239(9) 0.9031(8) 0.3550(3)
H9 H 0.6288 1.0183 0.3278
N3 N 0.36132(8) 0.8336(6) 0.3809(2)
N4 N 0.34212(7) 0.6838(6) 0.3458(2)
O1 O 0.41465(5) 0.2282(5) 0.23159(15)
O2 O 0.46350(5) 0.3226(5) 0.27381(16)
O3 O 0.47975(5) 0.6753(5) 0.36647(18)
H10 H 0.4815 0.5458 0.3444
C10 C 0.43564(10) 0.3553(7) 0.2724(2)
C11 C 0.42795(8) 0.5554(7) 0.3229(2)
C12 C 0.45038(8) 0.7102(7) 0.3670(2)
C13 C 0.44313(9) 0.9031(7) 0.4118(2)
H11 H 0.4581 1.0056 0.4408
C14 C 0.41334(9) 0.9389(7) 0.4125(2)
H12 H 0.4082 1.0697 0.4409
C15 C 0.39089(8) 0.7839(7) 0.3715(2)
C16 C 0.39829(8) 0.5952(7) 0.3260(2)
H13 H 0.3832 0.4939 0.2972
C17 C 0.31221(8) 0.7269(8) 0.3567(2)
C18 C 0.29067(9) 0.5610(8) 0.3201(3)
H14 H 0.2958 0.4357 0.2893
C19 C 0.26164(9) 0.5796(9) 0.3289(3)
H15 H 0.2472 0.4676 0.3039
C20 C 0.25407(10) 0.7644(9) 0.3747(3)
H16 H 0.2345 0.7761 0.3811
C21 C 0.27528(11) 0.9310(9) 0.4109(3)
H17 H 0.2700 1.0565 0.4413
C22 C 0.30476(9) 0.9139(8) 0.4026(2)
H18 H 0.3192 1.0264 0.4275
loop_
_geom_bond_atom_site_label_1
_geom_bond_atom_site_label_2
_geom_bond_site_symmetry_1
_geom_bond_site_symmetry_2
N1 H1 1_555 1_555
N2 H2 1_555 1_555
H3 N2 1_555 1_555
S1 C1 1_555 1_555
C1 N1 1_555 1_555
C2 N1 1_555 1_555
C3 S1 1_555 1_555
H4 C3 1_555 1_555
C4 C2 1_555 1_555
C5 C4 1_555 1_555
H5 C5 1_555 1_555
C6 C5 1_555 1_555
H6 C6 1_555 1_555
C7 C6 1_555 1_555
H7 C7 1_555 1_555
C8 C7 1_555 1_555
H8 C8 1_555 1_555
C9 C4 1_555 1_555
H9 C9 1_555 1_555
N3 N4 1_555 1_555
N4 C17 1_555 1_555
O1 C10 1_555 1_555
O2 C10 1_555 1_555
O3 H10 1_555 1_555
C10 C11 1_555 1_555
C11 C12 1_555 1_555
C12 O3 1_555 1_555
C13 C12 1_555 1_555
H11 C13 1_555 1_555
C14 C13 1_555 1_555
H12 C14 1_555 1_555
C15 N3 1_555 1_555
C16 C11 1_555 1_555
H13 C16 1_555 1_555
C17 C18 1_555 1_555
C18 H14 1_555 1_555
C19 C18 1_555 1_555
H15 C19 1_555 1_555
C20 C19 1_555 1_555
H16 C20 1_555 1_555
C21 C20 1_555 1_555
H17 C21 1_555 1_555
C22 C17 1_555 1_555
H18 C22 1_555 1_555
N2 C1 1_555 1_555
C2 C3 1_555 1_555
C8 C9 1_555 1_555
C14 C15 1_555 1_555
C15 C16 1_555 1_555
C21 C22 1_555 1_555

#END
