
#######################################################################
#
#                 Cambridge Crystallographic Data Centre
#                                CCDC 
#
#######################################################################
#
# If this CIF has been generated from an entry in the Cambridge 
# Structural Database, then it will include bibliographic, chemical, 
# crystal, experimental, refinement or atomic coordinate data resulting 
# from the CCDC's data processing and validation procedures.
#
#######################################################################

data_AFUJES
_chemical_formula_moiety         'C9 H9 N2 S1 1+,C7 H4 N1 O5 1-'
_chemical_name_systematic        
'2-Amino-4-phenyl-1,3-thiazol-3-ium 5-nitrosalicylate'
_symmetry_cell_setting           orthorhombic
_symmetry_space_group_name_H-M   'P n a 21'
_symmetry_Int_Tables_number      33
_space_group_name_Hall           'P 2c -2n'
loop_
_symmetry_equiv_pos_site_id
_symmetry_equiv_pos_as_xyz
1 x,y,z
2 -x,-y,1/2+z
3 1/2+x,1/2-y,z
4 1/2-x,1/2+y,1/2+z
_cell_length_a                   17.3895(17)
_cell_length_b                   16.7036(15)
_cell_length_c                   5.6662(5)
_cell_angle_alpha                90
_cell_angle_beta                 90
_cell_angle_gamma                90
_cell_volume                     1645.85
_exptl_crystal_colour            colorless
_exptl_crystal_description       block
_cell_formula_units_Z            4
loop_
_atom_site_label
_atom_site_type_symbol
_atom_site_fract_x
_atom_site_fract_y
_atom_site_fract_z
S1 S 0.37014(5) 0.16535(5) 0.1817(2)
N1 N 0.31840(13) 0.28143(14) -0.0567(5)
H1 H 0.2942 0.3085 -0.1623
N2 N 0.27170(15) 0.15759(14) -0.1876(6)
H2 H 0.2452 0.1797 -0.2980
H3 H 0.2709 0.1064 -0.1704
C1 C 0.31369(18) 0.20238(19) -0.0439(7)
C2 C 0.36565(17) 0.3184(2) 0.1141(6)
C3 C 0.39739(18) 0.2625(2) 0.2569(7)
H4 H 0.4302 0.2747 0.3816
C4 C 0.37562(16) 0.40509(19) 0.1192(6)
C5 C 0.41514(19) 0.4408(2) 0.3050(8)
H5 H 0.4347 0.4090 0.4257
C6 C 0.4258(2) 0.5230(3) 0.3132(9)
H6 H 0.4531 0.5457 0.4376
C7 C 0.3966(2) 0.5710(2) 0.1399(9)
H7 H 0.4033 0.6261 0.1463
C8 C 0.3575(2) 0.5371(2) -0.0420(8)
H8 H 0.3374 0.5692 -0.1609
C9 C 0.3476(2) 0.4556(2) -0.0511(7)
H9 H 0.3209 0.4338 -0.1778
N3 N 0.02106(16) 0.3171(2) -0.2482(6)
O1 O 0.19356(13) 0.23708(13) 0.4466(5)
O2 O 0.23570(12) 0.35403(13) 0.5936(4)
O3 O 0.19823(12) 0.48387(12) 0.4066(4)
H10 H 0.2191 0.4532 0.4996
O4 O -0.01121(15) 0.35616(17) -0.4030(5)
O5 O 0.01305(13) 0.24398(16) -0.2287(5)
C10 C 0.19675(19) 0.3115(2) 0.4455(7)
C11 C 0.15388(16) 0.35726(17) 0.2586(6)
C12 C 0.15647(18) 0.44088(19) 0.2469(6)
C13 C 0.11674(19) 0.48284(19) 0.0746(7)
H11 H 0.1200 0.5384 0.0687
C14 C 0.07206(18) 0.4421(2) -0.0889(7)
H12 H 0.0449 0.4699 -0.2041
C15 C 0.06873(17) 0.3594(2) -0.0774(7)
C16 C 0.10855(17) 0.31678(19) 0.0945(7)
H13 H 0.1049 0.2613 0.1000
loop_
_geom_bond_atom_site_label_1
_geom_bond_atom_site_label_2
_geom_bond_site_symmetry_1
_geom_bond_site_symmetry_2
S1 C1 1_555 1_555
N1 H1 1_555 1_555
N2 H2 1_555 1_555
H3 N2 1_555 1_555
C1 N1 1_555 1_555
C2 N1 1_555 1_555
C3 S1 1_555 1_555
H4 C3 1_555 1_555
C4 C2 1_555 1_555
C5 C4 1_555 1_555
H5 C5 1_555 1_555
C6 C5 1_555 1_555
H6 C6 1_555 1_555
C7 C6 1_555 1_555
H7 C7 1_555 1_555
C8 C7 1_555 1_555
H8 C8 1_555 1_555
C9 C4 1_555 1_555
H9 C9 1_555 1_555
N3 O4 1_555 1_555
O1 C10 1_555 1_555
O2 C10 1_555 1_555
O3 H10 1_555 1_555
O5 N3 1_555 1_555
C10 C11 1_555 1_555
C11 C12 1_555 1_555
C12 O3 1_555 1_555
C13 C12 1_555 1_555
H11 C13 1_555 1_555
C14 C13 1_555 1_555
H12 C14 1_555 1_555
C15 N3 1_555 1_555
C16 C11 1_555 1_555
H13 C16 1_555 1_555
N2 C1 1_555 1_555
C2 C3 1_555 1_555
C8 C9 1_555 1_555
C14 C15 1_555 1_555
C15 C16 1_555 1_555

#END
