
#######################################################################
#
#                 Cambridge Crystallographic Data Centre
#                                CCDC 
#
#######################################################################
#
# If this CIF has been generated from an entry in the Cambridge 
# Structural Database, then it will include bibliographic, chemical, 
# crystal, experimental, refinement or atomic coordinate data resulting 
# from the CCDC's data processing and validation procedures.
#
#######################################################################

data_AFUJIW
_chemical_formula_moiety         'C9 H9 N2 S1 1+,C7 H4 N1 O4 1-'
_chemical_name_systematic        
'2-Amino-4-phenyl-1,3-thiazol-3-ium 4-nitrobenzoate'
_symmetry_cell_setting           monoclinic
_symmetry_space_group_name_H-M   'P 21'
_symmetry_Int_Tables_number      4
_space_group_name_Hall           'P 2yb'
loop_
_symmetry_equiv_pos_site_id
_symmetry_equiv_pos_as_xyz
1 x,y,z
2 -x,1/2+y,-z
_cell_length_a                   8.0606(6)
_cell_length_b                   6.4342(4)
_cell_length_c                   15.5200(13)
_cell_angle_alpha                90
_cell_angle_beta                 97.9810(10)
_cell_angle_gamma                90
_cell_volume                     797.125
_exptl_crystal_colour            colorless
_exptl_crystal_description       block
_cell_formula_units_Z            2
loop_
_atom_site_label
_atom_site_type_symbol
_atom_site_fract_x
_atom_site_fract_y
_atom_site_fract_z
N1 N 0.4348(3) 0.5148(5) 0.28409(17)
H1 H 0.3740 0.6245 0.2750
N2 N 0.5107(4) 0.5791(5) 0.43196(18)
H2 H 0.4526 0.6916 0.4289
H3 H 0.5656 0.5407 0.4809
S1 S 0.62688(11) 0.23891(17) 0.35917(6)
C1 C 0.5158(4) 0.4659(6) 0.3618(2)
C2 C 0.4562(4) 0.3739(6) 0.2188(2)
C3 C 0.5580(4) 0.2194(7) 0.2496(2)
H4 H 0.5887 0.1117 0.2151
C4 C 0.3715(4) 0.4065(7) 0.1296(2)
C5 C 0.2826(5) 0.5824(8) 0.1051(2)
H5 H 0.2759 0.6872 0.1457
C6 C 0.2022(6) 0.6081(9) 0.0207(3)
H6 H 0.1424 0.7291 0.0053
C7 C 0.2109(6) 0.4562(10) -0.0391(3)
H7 H 0.1564 0.4720 -0.0956
C8 C 0.2995(6) 0.2815(10) -0.0159(3)
H8 H 0.3078 0.1784 -0.0571
C9 C 0.3776(5) 0.2549(9) 0.0680(3)
H9 H 0.4354 0.1322 0.0832
N3 N -0.1375(3) 0.7226(6) 0.3045(2)
O1 O 0.2415(3) -0.1415(4) 0.27908(14)
O2 O 0.3000(3) -0.0848(4) 0.42146(14)
O3 O -0.1442(4) 0.8322(4) 0.36858(17)
O4 O -0.2123(3) 0.7644(6) 0.23276(17)
C10 C 0.2351(4) -0.0351(6) 0.3454(2)
C11 C 0.1399(4) 0.1670(5) 0.33525(19)
C12 C 0.1280(4) 0.2948(5) 0.40560(19)
H10 H 0.1804 0.2558 0.4604
C13 C 0.0400(4) 0.4788(5) 0.3962(2)
H11 H 0.0332 0.5645 0.4439
C14 C -0.0373(4) 0.5326(6) 0.3149(2)
C15 C -0.0260(4) 0.4102(6) 0.2436(2)
H12 H -0.0774 0.4507 0.1888
C16 C 0.0622(4) 0.2269(6) 0.25400(19)
H13 H 0.0697 0.1426 0.2060
loop_
_geom_bond_atom_site_label_1
_geom_bond_atom_site_label_2
_geom_bond_site_symmetry_1
_geom_bond_site_symmetry_2
N1 H1 1_555 1_555
N2 H2 1_555 1_555
H3 N2 1_555 1_555
S1 C1 1_555 1_555
C1 N1 1_555 1_555
C2 N1 1_555 1_555
C3 S1 1_555 1_555
H4 C3 1_555 1_555
C4 C2 1_555 1_555
C5 C4 1_555 1_555
H5 C5 1_555 1_555
C6 C5 1_555 1_555
H6 C6 1_555 1_555
C7 C6 1_555 1_555
H7 C7 1_555 1_555
C8 C7 1_555 1_555
H8 C8 1_555 1_555
C9 C4 1_555 1_555
H9 C9 1_555 1_555
N3 O3 1_555 1_555
O1 C10 1_555 1_555
O2 C10 1_555 1_555
O4 N3 1_555 1_555
C10 C11 1_555 1_555
C11 C12 1_555 1_555
C12 H10 1_555 1_555
C13 C12 1_555 1_555
H11 C13 1_555 1_555
C14 N3 1_555 1_555
C15 C14 1_555 1_555
H12 C15 1_555 1_555
C16 C11 1_555 1_555
H13 C16 1_555 1_555
N2 C1 1_555 1_555
C2 C3 1_555 1_555
C8 C9 1_555 1_555
C13 C14 1_555 1_555
C15 C16 1_555 1_555

#END
