
#######################################################################
#
#                 Cambridge Crystallographic Data Centre
#                                CCDC 
#
#######################################################################
#
# If this CIF has been generated from an entry in the Cambridge 
# Structural Database, then it will include bibliographic, chemical, 
# crystal, experimental, refinement or atomic coordinate data resulting 
# from the CCDC's data processing and validation procedures.
#
#######################################################################

data_AFUKAQ
_chemical_name_common            
2-ethyl-8-hydroxy-5,7-dimethyl-8,8a-dihydroindeno[1,2-c]pyrrole-1,3(2H,3aH)-dione
_chemical_formula_moiety         'C15 H17 N1 O3'
_chemical_name_systematic        
(3aS,8R,8aR)-2-ethyl-8-hydroxy-5,7-dimethyl-8,8a-dihydroindeno[1,2-c]pyrrole-1,3(2H,3aH)-dione
_symmetry_cell_setting           triclinic
_symmetry_space_group_name_H-M   'P -1'
_symmetry_Int_Tables_number      2
_space_group_name_Hall           '-P 1'
loop_
_symmetry_equiv_pos_site_id
_symmetry_equiv_pos_as_xyz
1 x,y,z
2 -x,-y,-z
_cell_length_a                   4.7242(14)
_cell_length_b                   11.413(4)
_cell_length_c                   12.185(4)
_cell_angle_alpha                90.874(6)
_cell_angle_beta                 98.268(6)
_cell_angle_gamma                93.887(7)
_cell_volume                     648.45
_exptl_crystal_colour            colorless
_exptl_crystal_description       block
_cell_formula_units_Z            2
_exptl_crystal_recrystallization_method 'ethyl acetate'
loop_
_atom_site_label
_atom_site_type_symbol
_atom_site_fract_x
_atom_site_fract_y
_atom_site_fract_z
O1 O 0.4488(4) 0.59857(17) 0.07246(13)
H1 H 0.3335 0.5752 0.0162
O2 O 0.0183(4) 0.38525(17) 0.09780(14)
O3 O 0.7301(4) 0.41524(17) 0.39235(15)
N1 N 0.3896(4) 0.37648(19) 0.23980(16)
C1 C 0.5131(5) 0.7195(2) 0.23326(19)
C2 C 0.5618(5) 0.6650(2) 0.33525(19)
C3 C 0.5226(5) 0.4448(2) 0.33049(19)
C4 C 0.7770(6) 0.7094(2) 0.4184(2)
H2 H 0.8112 0.6709 0.4871
C5 C 0.1692(5) 0.4318(2) 0.17781(19)
C6 C 0.3675(5) 0.5553(2) 0.33579(19)
H3 H 0.2587 0.5556 0.4004
C7 C 0.8860(6) 0.8658(2) 0.2982(2)
H4 H 0.9975 0.9356 0.2863
C8 C 0.6725(6) 0.8219(2) 0.2132(2)
C9 C 0.2959(5) 0.6488(2) 0.15144(19)
H5 H 0.1458 0.6990 0.1149
C10 C 0.9415(6) 0.8109(2) 0.3997(2)
C11 C 0.1644(5) 0.5542(2) 0.22489(19)
H6 H -0.0338 0.5717 0.2366
C12 C 0.4796(6) 0.2624(2) 0.2094(2)
H7 H 0.6788 0.2547 0.2455
H8 H 0.4787 0.2582 0.1281
C13 C 1.1813(6) 0.8601(3) 0.4875(2)
H9 H 1.1086 0.9194 0.5331
H10 H 1.3372 0.8963 0.4516
H11 H 1.2533 0.7966 0.5345
C14 C 0.2896(7) 0.1607(3) 0.2423(3)
H12 H 0.0990 0.1607 0.1982
H13 H 0.2727 0.1688 0.3213
H14 H 0.3741 0.0866 0.2289
C15 C 0.6280(8) 0.8808(3) 0.1026(2)
H15 H 0.7116 0.8354 0.0480
H16 H 0.7214 0.9604 0.1101
H17 H 0.4222 0.8848 0.0778
loop_
_geom_bond_atom_site_label_1
_geom_bond_atom_site_label_2
_geom_bond_site_symmetry_1
_geom_bond_site_symmetry_2
O1 H1 1_555 1_555
O2 C5 1_555 1_555
O3 C3 1_555 1_555
N1 C3 1_555 1_555
C1 C2 1_555 1_555
C2 C4 1_555 1_555
C3 C6 1_555 1_555
C4 H2 1_555 1_555
C5 N1 1_555 1_555
C6 C2 1_555 1_555
H3 C6 1_555 1_555
C7 H4 1_555 1_555
C8 C1 1_555 1_555
C9 O1 1_555 1_555
H5 C9 1_555 1_555
C10 C4 1_555 1_555
C11 C5 1_555 1_555
H6 C11 1_555 1_555
C12 N1 1_555 1_555
H7 C12 1_555 1_555
H8 C12 1_555 1_555
C13 C10 1_555 1_555
H9 C13 1_555 1_555
H10 C13 1_555 1_555
H11 C13 1_555 1_555
C14 C12 1_555 1_555
H12 C14 1_555 1_555
H13 C14 1_555 1_555
H14 C14 1_555 1_555
C15 C8 1_555 1_555
H15 C15 1_555 1_555
H16 C15 1_555 1_555
H17 C15 1_555 1_555
C1 C9 1_555 1_555
C6 C11 1_555 1_555
C7 C8 1_555 1_555
C7 C10 1_555 1_555
C9 C11 1_555 1_555

#END
