
#######################################################################
#
#                 Cambridge Crystallographic Data Centre
#                                CCDC 
#
#######################################################################
#
# If this CIF has been generated from an entry in the Cambridge 
# Structural Database, then it will include bibliographic, chemical, 
# crystal, experimental, refinement or atomic coordinate data resulting 
# from the CCDC's data processing and validation procedures.
#
#######################################################################

data_AFUPIC
_chemical_formula_moiety         'C8 H10 N6 O2'
_chemical_name_systematic        1,4-bis(2-diazoacetyl)piperazine
_symmetry_cell_setting           monoclinic
_symmetry_space_group_name_H-M   'P 21/c'
_symmetry_Int_Tables_number      14
_space_group_name_Hall           '-P 2ybc'
loop_
_symmetry_equiv_pos_site_id
_symmetry_equiv_pos_as_xyz
1 x,y,z
2 -x,1/2+y,1/2-z
3 -x,-y,-z
4 x,1/2-y,1/2+z
_cell_length_a                   4.0630(7)
_cell_length_b                   9.0941(15)
_cell_length_c                   13.230(2)
_cell_angle_alpha                90
_cell_angle_beta                 94.453(2)
_cell_angle_gamma                90
_cell_volume                     487.364
_exptl_crystal_colour            yellow
_exptl_crystal_description       needle
_chemical_melting_point          '382 K'
_cell_formula_units_Z            2
loop_
_atom_site_label
_atom_site_type_symbol
_atom_site_fract_x
_atom_site_fract_y
_atom_site_fract_z
C1 C 0.1936(3) 0.09488(12) 0.31650(8)
C2 C 0.2433(3) -0.01250(13) 0.23807(8)
H1 H 0.165(3) -0.1064(14) 0.2306(11)
C3 C -0.0658(3) -0.10152(12) 0.41721(8)
H2 H 0.016(3) -0.1708(14) 0.3686(10)
H3 H -0.308(3) -0.1005(15) 0.4067(10)
C4 C -0.0370(3) 0.15403(11) 0.47597(8)
H4 H -0.2791 0.1688 0.4685
H5 H 0.0701 0.2495 0.4638
N1 N 0.0575(2) 0.04673(10) 0.40139(7)
N2 N 0.4038(2) 0.03769(10) 0.16317(7)
N3 N 0.5432(3) 0.08327(13) 0.10006(8)
O1 O 0.2787(2) 0.22436(9) 0.30680(6)
C1B C -0.1936(3) -0.09488(12) 0.68350(8)
C2B C -0.2433(3) 0.01250(13) 0.76193(8)
H1B H -0.165(3) 0.1064(14) 0.7694(11)
C3B C 0.0658(3) 0.10152(12) 0.58279(8)
H2B H -0.016(3) 0.1708(14) 0.6314(10)
H3B H 0.308(3) 0.1005(15) 0.5933(10)
C4B C 0.0370(3) -0.15403(11) 0.52403(8)
H4B H 0.2791 -0.1688 0.5315
H5B H -0.0701 -0.2495 0.5362
N1B N -0.0575(2) -0.04673(10) 0.59861(7)
N2B N -0.4038(2) -0.03769(10) 0.83683(7)
N3B N -0.5432(3) -0.08327(13) 0.89994(8)
O1B O -0.2787(2) -0.22436(9) 0.69320(6)
loop_
_geom_bond_atom_site_label_1
_geom_bond_atom_site_label_2
_geom_bond_site_symmetry_1
_geom_bond_site_symmetry_2
C1 C2 1_555 1_555
C2 H1 1_555 1_555
C3 H2 1_555 1_555
H3 C3 1_555 1_555
C4 H4 1_555 1_555
H5 C4 1_555 1_555
N1 C1 1_555 1_555
N2 C2 1_555 1_555
N3 N2 1_555 1_555
O1 C1 1_555 1_555
C1B C2B 1_555 1_555
C2B H1B 1_555 1_555
C3B C4 1_555 1_555
H2B C3B 1_555 1_555
H3B C3B 1_555 1_555
C4B C3 1_555 1_555
H4B C4B 1_555 1_555
H5B C4B 1_555 1_555
N1B C1B 1_555 1_555
N2B C2B 1_555 1_555
N3B N2B 1_555 1_555
O1B C1B 1_555 1_555
C3 N1 1_555 1_555
C4 N1 1_555 1_555
C3B N1B 1_555 1_555
C4B N1B 1_555 1_555

#END
