
#######################################################################
#
#                 Cambridge Crystallographic Data Centre
#                                CCDC 
#
#######################################################################
#
# If this CIF has been generated from an entry in the Cambridge 
# Structural Database, then it will include bibliographic, chemical, 
# crystal, experimental, refinement or atomic coordinate data resulting 
# from the CCDC's data processing and validation procedures.
#
#######################################################################

data_AFUROK
_chemical_name_common            
3-(2-Bromophenyl)-2-nitro-3,5,6,7-tetrahydro-1-benzofuran-4(2H)-one
_chemical_formula_moiety         'C14 H12 Br1 N1 O4'
_chemical_name_systematic        
(2S,3R)-3-(2-Bromophenyl)-2-nitro-2,3,6,7-tetrahydro-1-benzofuran-4(5H)-one
_symmetry_cell_setting           orthorhombic
_symmetry_space_group_name_H-M   'P 21 21 21'
_symmetry_Int_Tables_number      19
_space_group_name_Hall           'P 2ac 2ab'
loop_
_symmetry_equiv_pos_site_id
_symmetry_equiv_pos_as_xyz
1 x,y,z
2 1/2-x,-y,1/2+z
3 1/2+x,1/2-y,-z
4 -x,1/2+y,1/2-z
_cell_length_a                   7.2162(8)
_cell_length_b                   7.3372(8)
_cell_length_c                   25.9727(13)
_cell_angle_alpha                90
_cell_angle_beta                 90
_cell_angle_gamma                90
_cell_volume                     1375.17
_exptl_crystal_colour            colorless
_exptl_crystal_description       needle
_cell_formula_units_Z            4
loop_
_atom_site_label
_atom_site_type_symbol
_atom_site_fract_x
_atom_site_fract_y
_atom_site_fract_z
C1 C 0.7398(10) 0.3494(8) 0.5784(2)
H1 H 0.8610 0.3377 0.5952
C2 C 0.5793(7) 0.3053(8) 0.6169(2)
H2 H 0.5270 0.1847 0.6098
C3 C 0.4449(7) 0.4531(9) 0.6016(2)
C4 C 0.2478(9) 0.4690(8) 0.6141(2)
C5 C 0.1536(9) 0.6322(9) 0.5902(2)
H3 H 0.0550 0.6715 0.6131
H4 H 0.0968 0.5944 0.5581
C6 C 0.2792(9) 0.7952(8) 0.5794(2)
H5 H 0.3187 0.8488 0.6117
H6 H 0.2102 0.8867 0.5604
C7 C 0.4499(9) 0.7389(9) 0.5482(2)
H7 H 0.4154 0.7167 0.5126
H8 H 0.5416 0.8355 0.5489
C8 C 0.5265(8) 0.5737(9) 0.5708(2)
C9 C 0.6438(8) 0.3183(8) 0.6723(2)
C10 C 0.6320(9) 0.4785(10) 0.7000(3)
H9 H 0.5734 0.5781 0.6850
C11 C 0.7034(10) 0.4972(12) 0.7491(3)
H10 H 0.6976 0.6076 0.7666
C12 C 0.7845(11) 0.3438(16) 0.7712(3)
H11 H 0.8302 0.3514 0.8046
C13 C 0.7987(11) 0.1840(14) 0.7455(4)
H12 H 0.8524 0.0836 0.7615
C14 C 0.7336(10) 0.1696(8) 0.6957(3)
N1 N 0.7257(12) 0.2243(10) 0.5319(3)
O1 O 0.1679(6) 0.3594(7) 0.64055(19)
O2 O 0.7098(5) 0.5307(6) 0.56089(15)
O3 O 0.7909(12) 0.0725(9) 0.5383(3)
O4 O 0.6648(14) 0.2703(15) 0.4940(3)
Br1 Br 0.75326(16) -0.05596(11) 0.66299(5)
loop_
_geom_bond_atom_site_label_1
_geom_bond_atom_site_label_2
_geom_bond_site_symmetry_1
_geom_bond_site_symmetry_2
C1 H1 1_555 1_555
C2 C1 1_555 1_555
H2 C2 1_555 1_555
C3 C2 1_555 1_555
C4 C3 1_555 1_555
C5 C4 1_555 1_555
H3 C5 1_555 1_555
H4 C5 1_555 1_555
C6 C5 1_555 1_555
H5 C6 1_555 1_555
H6 C6 1_555 1_555
C7 C6 1_555 1_555
H7 C7 1_555 1_555
H8 C7 1_555 1_555
C8 C3 1_555 1_555
C9 C2 1_555 1_555
C10 C9 1_555 1_555
H9 C10 1_555 1_555
C11 C10 1_555 1_555
H10 C11 1_555 1_555
C12 C11 1_555 1_555
H11 C12 1_555 1_555
C13 C12 1_555 1_555
H12 C13 1_555 1_555
C14 C9 1_555 1_555
N1 C1 1_555 1_555
O1 C4 1_555 1_555
O2 C1 1_555 1_555
O3 N1 1_555 1_555
O4 N1 1_555 1_555
Br1 C14 1_555 1_555
C7 C8 1_555 1_555
C8 O2 1_555 1_555
C13 C14 1_555 1_555

#END
