
#######################################################################
#
#                 Cambridge Crystallographic Data Centre
#                                CCDC 
#
#######################################################################
#
# If this CIF has been generated from an entry in the Cambridge 
# Structural Database, then it will include bibliographic, chemical, 
# crystal, experimental, refinement or atomic coordinate data resulting 
# from the CCDC's data processing and validation procedures.
#
#######################################################################

data_AFUROJ
_chemical_compound_source        'fungus Pestalotiopsis adusta'
_chemical_formula_moiety         'C21 H20 Cl2 O5,C1 H4 O1'
_chemical_name_systematic        'Pestalachloride C methanol solvate'
_chemical_properties_biological  
'antifungal activity against Fusarium culmorum, Giberella zeae and Verticullium albo-atrum'
_symmetry_cell_setting           triclinic
_symmetry_space_group_name_H-M   'P -1'
_symmetry_Int_Tables_number      2
_space_group_name_Hall           '-P 1'
loop_
_symmetry_equiv_pos_site_id
_symmetry_equiv_pos_as_xyz
1 x,y,z
2 -x,-y,-z
_cell_length_a                   9.0692(18)
_cell_length_b                   10.129(2)
_cell_length_c                   12.381(3)
_cell_angle_alpha                68.50(3)
_cell_angle_beta                 82.20(3)
_cell_angle_gamma                87.07(3)
_cell_volume                     1048.41
_exptl_crystal_colour            colorless
_exptl_crystal_description       platelet
_chemical_melting_point          '280-282 deg.C'
_cell_formula_units_Z            2
_exptl_crystal_recrystallization_method methanol
loop_
_atom_site_label
_atom_site_type_symbol
_atom_site_fract_x
_atom_site_fract_y
_atom_site_fract_z
Cl1 Cl 0.30537(6) 0.18774(6) 0.39069(5)
Cl2 Cl -0.18194(7) 0.52920(6) 0.34454(5)
O1 O -0.25361(16) 0.36827(14) 0.59226(13)
O2 O -0.32835(17) -0.29454(16) 0.98688(14)
H1 H -0.3075 -0.3803 1.0212
O3 O 0.18349(16) -0.23087(15) 1.00575(13)
H2 H 0.2487 -0.1671 0.9796
O4 O 0.29589(16) 0.01496(16) 0.88556(14)
O5 O 0.17219(15) 0.05905(14) 0.63039(12)
C1 C 0.1405(2) 0.2457(2) 0.44859(18)
C2 C 0.0626(2) 0.3594(2) 0.37700(18)
C3 C -0.0719(2) 0.3949(2) 0.42869(18)
C4 C -0.1234(2) 0.3255(2) 0.54600(18)
C5 C -0.3650(2) 0.2573(2) 0.66357(19)
C6 C -0.2810(2) 0.1177(2) 0.71386(18)
H4 H -0.2636 0.0775 0.6505
C7 C -0.3494(2) -0.0019(2) 0.82357(19)
H5 H -0.4077 0.0357 0.8797
H6 H -0.4137 -0.0638 0.8039
C8 C -0.2118(2) -0.0791(2) 0.87069(18)
C9 C -0.2026(2) -0.2171(2) 0.95280(18)
C10 C -0.0681(2) -0.2678(2) 0.99527(18)
H7 H -0.0606 -0.3624 1.0488
C11 C 0.0543(2) -0.1793(2) 0.95875(17)
C12 C 0.0492(2) -0.0402(2) 0.87596(17)
C13 C -0.0863(2) 0.00462(19) 0.82884(16)
C14 C -0.1244(2) 0.1462(2) 0.73862(17)
H8 H -0.1351 0.2184 0.7767
C15 C -0.0413(2) 0.21359(19) 0.61722(17)
C16 C 0.0896(2) 0.1717(2) 0.56621(17)
C17 C 0.1159(3) 0.4345(2) 0.2493(2)
H9 H 0.0458 0.5103 0.2148
H10 H 0.1224 0.3667 0.2092
H11 H 0.2144 0.4754 0.2408
C18 C -0.4726(3) 0.2491(2) 0.5822(2)
H12 H -0.5236 0.3405 0.5515
H13 H -0.5462 0.1745 0.6255
H14 H -0.4175 0.2271 0.5171
C19 C -0.4405(3) 0.3133(2) 0.7550(2)
H15 H -0.4911 0.4028 0.7165
H16 H -0.3658 0.3294 0.7990
H17 H -0.5135 0.2438 0.8086
C20 C 0.1759(2) 0.0522(2) 0.84671(18)
H18 H 0.1666 0.1473 0.7945
C21 C 0.1323(3) -0.0745(2) 0.6258(2)
H19 H 0.1944 -0.1502 0.6726
H20 H 0.1481 -0.0693 0.5444
H21 H 0.0273 -0.0948 0.6571
O6 O 0.7181(2) 0.42933(16) 0.09849(17)
H3 H 0.7426 0.3829 0.0549
C22 C 0.5935(3) 0.3587(3) 0.1760(3)
H22 H 0.5865 0.3794 0.2479
H23 H 0.6047 0.2562 0.1950
H24 H 0.5029 0.3915 0.1388
loop_
_geom_bond_atom_site_label_1
_geom_bond_atom_site_label_2
_geom_bond_site_symmetry_1
_geom_bond_site_symmetry_2
Cl1 C1 1_555 1_555
Cl2 C3 1_555 1_555
O1 C4 1_555 1_555
O2 H1 1_555 1_555
O3 H2 1_555 1_555
O4 C20 1_555 1_555
O5 C16 1_555 1_555
O6 H3 1_555 1_555
C1 C2 1_555 1_555
C2 C3 1_555 1_555
C3 C4 1_555 1_555
C4 C15 1_555 1_555
C5 O1 1_555 1_555
C6 C5 1_555 1_555
H4 C6 1_555 1_555
C7 C6 1_555 1_555
H5 C7 1_555 1_555
H6 C7 1_555 1_555
C8 C7 1_555 1_555
C9 O2 1_555 1_555
C10 C9 1_555 1_555
H7 C10 1_555 1_555
C11 O3 1_555 1_555
C12 C11 1_555 1_555
C13 C8 1_555 1_555
C14 C6 1_555 1_555
H8 C14 1_555 1_555
C15 C14 1_555 1_555
C16 C1 1_555 1_555
C17 C2 1_555 1_555
H9 C17 1_555 1_555
H10 C17 1_555 1_555
H11 C17 1_555 1_555
C18 C5 1_555 1_555
H12 C18 1_555 1_555
H13 C18 1_555 1_555
H14 C18 1_555 1_555
C19 C5 1_555 1_555
H15 C19 1_555 1_555
H16 C19 1_555 1_555
H17 C19 1_555 1_555
C20 C12 1_555 1_555
H18 C20 1_555 1_555
C21 O5 1_555 1_555
H19 C21 1_555 1_555
H20 C21 1_555 1_555
H21 C21 1_555 1_555
C22 O6 1_555 1_555
H22 C22 1_555 1_555
H23 C22 1_555 1_555
H24 C22 1_555 1_555
C8 C9 1_555 1_555
C10 C11 1_555 1_555
C12 C13 1_555 1_555
C13 C14 1_555 1_555
C15 C16 1_555 1_555

#END
