
#######################################################################
#
#                 Cambridge Crystallographic Data Centre
#                                CCDC 
#
#######################################################################
#
# If this CIF has been generated from an entry in the Cambridge 
# Structural Database, then it will include bibliographic, chemical, 
# crystal, experimental, refinement or atomic coordinate data resulting 
# from the CCDC's data processing and validation procedures.
#
#######################################################################

data_AFUVAB
_chemical_formula_moiety         'C11 H13 N3 S1'
_chemical_name_systematic        
4-(4-methylphenyl)-1-[(methylsulfanyl)methyl]-1H-1,2,3-triazole
_symmetry_cell_setting           monoclinic
_symmetry_space_group_name_H-M   'P 21/n'
_symmetry_Int_Tables_number      14
_space_group_name_Hall           '-P 2yn'
loop_
_symmetry_equiv_pos_site_id
_symmetry_equiv_pos_as_xyz
1 x,y,z
2 1/2-x,1/2+y,1/2-z
3 -x,-y,-z
4 1/2+x,1/2-y,1/2+z
_cell_length_a                   5.5177(7)
_cell_length_b                   13.6285(18)
_cell_length_c                   15.016(2)
_cell_angle_alpha                90
_cell_angle_beta                 93.267(2)
_cell_angle_gamma                90
_cell_volume                     1127.34
_exptl_crystal_colour            colorless
_exptl_crystal_description       block
_cell_formula_units_Z            4
loop_
_atom_site_label
_atom_site_type_symbol
_atom_site_fract_x
_atom_site_fract_y
_atom_site_fract_z
S1 S 0.02873(10) 0.92576(4) 0.88527(3)
N1 N 0.4923(3) 1.09209(15) 0.81811(11)
N2 N 0.2542(3) 1.07655(11) 0.80286(10)
N3 N 0.5806(3) 1.11100(14) 0.73997(11)
C1 C 0.4351(3) 1.12592(13) 0.58106(11)
C2 C 0.5328(5) 1.17495(18) 0.30112(14)
H1 H 0.5088 1.1139 0.2699
H2 H 0.6941 1.1985 0.2933
H3 H 0.4169 1.2223 0.2778
C3 C 0.4991(4) 1.15943(15) 0.39919(13)
C4 C 0.1896(3) 1.08469(13) 0.71627(12)
H4 H 0.0352 1.0767 0.6890
C5 C 0.2956(4) 1.11091(16) 0.42694(13)
H5 H 0.1779 1.0892 0.3847
C6 C 0.3088(4) 0.88049(17) 0.93590(15)
H6 H 0.4399 0.8978 0.8995
H7 H 0.3005 0.8104 0.9412
H8 H 0.3362 0.9090 0.9941
C7 C 0.6673(4) 1.19169(15) 0.46442(13)
H9 H 0.8045 1.2250 0.4475
C8 C 0.1006(4) 1.05328(15) 0.87595(12)
H10 H -0.0495 1.0901 0.8677
H11 H 0.1820 1.0748 0.9315
C9 C 0.3985(3) 1.10732(13) 0.67613(11)
C10 C 0.6373(3) 1.17578(14) 0.55440(13)
H12 H 0.7531 1.1986 0.5968
C11 C 0.2650(4) 1.09425(14) 0.51661(13)
H13 H 0.1276 1.0612 0.5336
loop_
_geom_bond_atom_site_label_1
_geom_bond_atom_site_label_2
_geom_bond_site_symmetry_1
_geom_bond_site_symmetry_2
S1 C6 1_555 1_555
N1 N2 1_555 1_555
N2 C4 1_555 1_555
N3 N1 1_555 1_555
C1 C9 1_555 1_555
C2 H1 1_555 1_555
H2 C2 1_555 1_555
H3 C2 1_555 1_555
C3 C2 1_555 1_555
C4 H4 1_555 1_555
C5 C3 1_555 1_555
H5 C5 1_555 1_555
C6 H6 1_555 1_555
H7 C6 1_555 1_555
H8 C6 1_555 1_555
C7 C3 1_555 1_555
H9 C7 1_555 1_555
C8 S1 1_555 1_555
H10 C8 1_555 1_555
H11 C8 1_555 1_555
C9 N3 1_555 1_555
C10 C1 1_555 1_555
H12 C10 1_555 1_555
C11 C1 1_555 1_555
H13 C11 1_555 1_555
N2 C8 1_555 1_555
C4 C9 1_555 1_555
C5 C11 1_555 1_555
C7 C10 1_555 1_555

#END
