
#######################################################################
#
#                 Cambridge Crystallographic Data Centre
#                                CCDC 
#
#######################################################################
#
# If this CIF has been generated from an entry in the Cambridge 
# Structural Database, then it will include bibliographic, chemical, 
# crystal, experimental, refinement or atomic coordinate data resulting 
# from the CCDC's data processing and validation procedures.
#
#######################################################################

data_AFUZOT
_chemical_formula_moiety         'C12 H14 N2 O3 S1'
_chemical_name_systematic        
2,5-dimethyl-4-((4-methylphenyl)sulfonyl)-1,2-dihydro-3H-pyrazol-3-one
_symmetry_cell_setting           monoclinic
_symmetry_space_group_name_H-M   'P 21/c'
_symmetry_Int_Tables_number      14
_space_group_name_Hall           '-P 2ybc'
loop_
_symmetry_equiv_pos_site_id
_symmetry_equiv_pos_as_xyz
1 x,y,z
2 -x,1/2+y,1/2-z
3 -x,-y,-z
4 x,1/2-y,1/2+z
_cell_length_a                   14.7479(19)
_cell_length_b                   11.0315(15)
_cell_length_c                   8.1194(11)
_cell_angle_alpha                90
_cell_angle_beta                 104.988(2)
_cell_angle_gamma                90
_cell_volume                     1276.02
_exptl_crystal_colour            colorless
_exptl_crystal_description       block
_cell_formula_units_Z            4
loop_
_atom_site_label
_atom_site_type_symbol
_atom_site_fract_x
_atom_site_fract_y
_atom_site_fract_z
S1 S 0.23868(4) 0.96006(5) 1.04911(7)
O1 O 0.19926(13) 1.06295(17) 1.1137(2)
O2 O 0.30025(12) 0.88125(17) 1.1672(2)
O3 O 0.04444(11) 1.03087(13) 0.7680(3)
N1 N 0.01678(12) 0.82612(15) 0.7364(2)
N2 N 0.06321(12) 0.72268(15) 0.8004(2)
H1 H 0.0439 0.6504 0.7705
C1 C 0.06781(14) 0.92399(18) 0.8100(3)
C2 C 0.14862(14) 0.87426(17) 0.9277(3)
C3 C 0.14245(14) 0.74920(18) 0.9155(2)
C4 C 0.20543(19) 0.6505(2) 1.0025(3)
H2 H 0.1787 0.5735 0.9612
H3 H 0.2125 0.6554 1.1233
H4 H 0.2657 0.6588 0.9794
C5 C 0.29979(13) 1.01444(19) 0.9043(3)
C6 C 0.26837(16) 1.1160(2) 0.8078(3)
H5 H 0.2144 1.1556 0.8181
C7 C 0.31693(18) 1.1587(2) 0.6960(3)
H6 H 0.2948 1.2266 0.6299
C8 C 0.39760(17) 1.1028(2) 0.6806(3)
C9 C 0.42710(17) 0.9999(3) 0.7760(3)
H7 H 0.4807 0.9599 0.7649
C10 C 0.37892(16) 0.9548(2) 0.8877(3)
H8 H 0.3997 0.8852 0.9509
C11 C 0.4530(2) 1.1532(3) 0.5641(5)
H9 H 0.4300 1.1190 0.4523
H10 H 0.5180 1.1326 0.6081
H11 H 0.4464 1.2397 0.5576
C12 C -0.07096(15) 0.8260(2) 0.6071(3)
H12 H -0.0803 0.7483 0.5520
H13 H -0.0697 0.8877 0.5244
H14 H -0.1214 0.8420 0.6588
loop_
_geom_bond_atom_site_label_1
_geom_bond_atom_site_label_2
_geom_bond_site_symmetry_1
_geom_bond_site_symmetry_2
S1 O1 1_555 1_555
O2 S1 1_555 1_555
O3 C1 1_555 1_555
N1 N2 1_555 1_555
N2 H1 1_555 1_555
C1 N1 1_555 1_555
C2 S1 1_555 1_555
C3 N2 1_555 1_555
C4 C3 1_555 1_555
H2 C4 1_555 1_555
H3 C4 1_555 1_555
H4 C4 1_555 1_555
C5 S1 1_555 1_555
C6 C5 1_555 1_555
H5 C6 1_555 1_555
C7 C6 1_555 1_555
H6 C7 1_555 1_555
C8 C7 1_555 1_555
C9 C8 1_555 1_555
H7 C9 1_555 1_555
C10 C5 1_555 1_555
H8 C10 1_555 1_555
C11 C8 1_555 1_555
H9 C11 1_555 1_555
H10 C11 1_555 1_555
H11 C11 1_555 1_555
C12 N1 1_555 1_555
H12 C12 1_555 1_555
H13 C12 1_555 1_555
H14 C12 1_555 1_555
C1 C2 1_555 1_555
C2 C3 1_555 1_555
C9 C10 1_555 1_555

#END
