
#######################################################################
#
#                 Cambridge Crystallographic Data Centre
#                                CCDC 
#
#######################################################################
#
# If this CIF has been generated from an entry in the Cambridge 
# Structural Database, then it will include bibliographic, chemical, 
# crystal, experimental, refinement or atomic coordinate data resulting 
# from the CCDC's data processing and validation procedures.
#
#######################################################################

data_AGADIX
_chemical_formula_moiety         'C22 H22 F1 N3 O1'
_chemical_name_systematic        
5-Fluoro-N'-(4-methylcyclohexylidene)-3-phenyl-1H-indole-2-carbohydrazide
_symmetry_cell_setting           triclinic
_symmetry_space_group_name_H-M   'P -1'
_symmetry_Int_Tables_number      2
_space_group_name_Hall           '-P 1'
loop_
_symmetry_equiv_pos_site_id
_symmetry_equiv_pos_as_xyz
1 x,y,z
2 -x,-y,-z
_cell_length_a                   11.6630(6)
_cell_length_b                   13.5320(7)
_cell_length_c                   14.7754(8)
_cell_angle_alpha                112.967(4)
_cell_angle_beta                 95.936(4)
_cell_angle_gamma                111.385(4)
_cell_volume                     1915.38
_exptl_crystal_colour            colorless
_exptl_crystal_description       prism
_cell_formula_units_Z            4
loop_
_atom_site_label
_atom_site_type_symbol
_atom_site_fract_x
_atom_site_fract_y
_atom_site_fract_z
F1 F 0.33494(17) -0.02996(12) 0.06230(14)
O1 O 0.68124(14) 0.68746(12) 0.28626(9)
N1 N 0.52435(14) 0.45358(13) 0.24287(11)
N2 N 0.70784(16) 0.62496(14) 0.12738(12)
N3 N 0.78349(15) 0.73959(13) 0.14306(11)
C1 C 0.46778(18) 0.33259(17) 0.20839(13)
C2 C 0.3836(2) 0.2633(2) 0.24439(16)
C3 C 0.3400(2) 0.1422(2) 0.19316(18)
C4 C 0.3792(2) 0.09106(19) 0.10798(19)
C5 C 0.4602(2) 0.15512(18) 0.06997(16)
C6 C 0.50520(18) 0.27986(16) 0.12087(13)
C7 C 0.58613(17) 0.37471(16) 0.10276(12)
C8 C 0.64165(17) 0.35989(15) 0.01471(12)
C9 C 0.56439(19) 0.32276(19) -0.08081(14)
C10 C 0.6149(2) 0.3174(2) -0.16231(14)
C11 C 0.7423(2) 0.34579(18) -0.15024(14)
C12 C 0.8187(2) 0.3774(2) -0.05808(16)
C13 C 0.7693(2) 0.3848(2) 0.02451(14)
C14 C 0.59506(17) 0.47922(16) 0.17903(12)
C15 C 0.66499(16) 0.60585(16) 0.20329(12)
C16 C 0.81127(17) 0.74851(16) 0.06423(14)
C17 C 0.7672(2) 0.6516(2) -0.04384(15)
C18 C 0.8715(3) 0.66082(19) -0.09684(16)
C19 C 0.9486(3) 0.7848(2) -0.08349(18)
C20 C 1.0026(2) 0.87295(18) 0.02981(17)
C21 C 0.8962(2) 0.87190(18) 0.08106(17)
C22 C 1.0472(3) 0.7915(3) -0.1398(3)
H1 H 0.51700 0.50530 0.29580
H2 H 0.35810 0.29860 0.30130
H3 H 0.688(2) 0.563(2) 0.0781(14)
H4 H 0.28380 0.09360 0.21520
H5 H 0.48450 0.11810 0.01300
H6 H 0.47700 0.30100 -0.09040
H7 H 0.56190 0.29450 -0.22550
H8 H 0.77660 0.34350 -0.20470
H9 H 0.90490 0.39420 -0.05030
H10 H 0.82280 0.40670 0.08710
H11 H 0.69710 0.65430 -0.08270
H12 H 0.73410 0.57470 -0.04360
H13 H 0.92920 0.63560 -0.07030
H14 H 0.83270 0.60620 -0.16950
H15 H 0.88800 0.80630 -0.11310
H16 H 1.05170 0.95280 0.03810
H17 H 1.06030 0.85250 0.06290
H18 H 0.93390 0.92490 0.15410
H19 H 0.84470 0.90180 0.05370
H20 H 1.10930 0.77190 -0.11260
H21 H 1.08940 0.87120 -0.13210
H22 H 1.00660 0.73590 -0.21130
F2 F 0.95169(12) 1.23386(12) 0.77835(10)
O2 O 0.39600(13) 0.58695(12) 0.35468(10)
N4 N 0.62682(15) 0.79327(14) 0.47138(11)
N5 N 0.28375(16) 0.68606(16) 0.42914(13)
N6 N 0.16405(16) 0.59508(15) 0.36881(11)
C23 C 0.72321(18) 0.90083(16) 0.54295(13)
C24 C 0.85522(19) 0.95099(19) 0.55570(15)
C25 C 0.9302(2) 1.0619(2) 0.63591(16)
C26 C 0.8732(2) 1.12177(18) 0.70176(15)
C27 C 0.74541(18) 1.07482(17) 0.69316(14)
C28 C 0.66725(17) 0.96119(15) 0.61105(12)
C29 C 0.53239(17) 0.88540(15) 0.57767(12)
C30 C 0.43961(16) 0.91430(15) 0.63207(12)
C31 C 0.4100(2) 1.00510(18) 0.63397(15)
C32 C 0.3272(2) 1.0345(2) 0.68837(18)
C33 C 0.2746(2) 0.9750(2) 0.74062(18)
C34 C 0.3030(2) 0.8843(2) 0.73919(18)
C35 C 0.3847(2) 0.85356(19) 0.68489(15)
C36 C 0.51112(17) 0.78338(16) 0.49088(12)
C37 C 0.39356(18) 0.67621(16) 0.41905(13)
C38 C 0.06794(19) 0.61469(18) 0.38764(14)
C39 C 0.0688(2) 0.7241(2) 0.46963(18)
C40 C -0.0321(2) 0.6933(2) 0.52374(18)
C41 C -0.1642(2) 0.6026(2) 0.45358(19)
C42 C -0.1578(2) 0.4916(2) 0.3791(2)
C43 C -0.0627(2) 0.5196(2) 0.31960(18)
C44 C -0.2606(3) 0.5777(4) 0.5126(3)
H23 H 0.63670 0.73980 0.42170
H24 H 0.2992(17) 0.750(2) 0.4704(16)
H25 H 0.89120 0.91000 0.51080
H26 H 1.01860 1.09750 0.64670
H27 H 0.71140 1.11640 0.73980
H28 H 0.44570 1.04670 0.59870
H29 H 0.30760 1.09540 0.68900
H30 H 0.21960 0.99550 0.77720
H31 H 0.26700 0.84340 0.77490
H32 H 0.40290 0.79170 0.68390
H33 H 0.05350 0.77160 0.43910
H34 H 0.15300 0.77220 0.51960
H35 H -0.00490 0.66310 0.56740
H36 H -0.03670 0.76600 0.56770
H37 H -0.19180 0.63690 0.41320
H38 H -0.24240 0.43520 0.33140
H39 H -0.13290 0.45420 0.41660
H40 H -0.05610 0.44730 0.27760
H41 H -0.09490 0.54540 0.27410
H42 H -0.26420 0.65070 0.55500
H43 H -0.23490 0.54640 0.55490
H44 H -0.34390 0.52030 0.46520
loop_
_geom_bond_atom_site_label_1
_geom_bond_atom_site_label_2
_geom_bond_site_symmetry_1
_geom_bond_site_symmetry_2
F1 C4 1_555 1_555
O1 C15 1_555 1_555
N1 C1 1_555 1_555
N2 N3 1_555 1_555
N3 C16 1_555 1_555
C1 C2 1_555 1_555
C2 C3 1_555 1_555
C3 C4 1_555 1_555
C4 C5 1_555 1_555
C5 C6 1_555 1_555
C6 C1 1_555 1_555
C7 C6 1_555 1_555
C8 C7 1_555 1_555
C9 C8 1_555 1_555
C10 C9 1_555 1_555
C11 C10 1_555 1_555
C12 C11 1_555 1_555
C13 C8 1_555 1_555
C14 N1 1_555 1_555
C15 N2 1_555 1_555
C16 C17 1_555 1_555
C17 C18 1_555 1_555
C18 C19 1_555 1_555
C19 C20 1_555 1_555
C20 C21 1_555 1_555
C21 C16 1_555 1_555
C22 C19 1_555 1_555
H1 N1 1_555 1_555
H2 C2 1_555 1_555
H3 N2 1_555 1_555
H4 C3 1_555 1_555
H5 C5 1_555 1_555
H6 C9 1_555 1_555
H7 C10 1_555 1_555
H8 C11 1_555 1_555
H9 C12 1_555 1_555
H10 C13 1_555 1_555
H11 C17 1_555 1_555
H12 C17 1_555 1_555
H13 C18 1_555 1_555
H14 C18 1_555 1_555
H15 C19 1_555 1_555
H16 C20 1_555 1_555
H17 C20 1_555 1_555
H18 C21 1_555 1_555
H19 C21 1_555 1_555
H20 C22 1_555 1_555
H21 C22 1_555 1_555
H22 C22 1_555 1_555
F2 C26 1_555 1_555
O2 C37 1_555 1_555
N4 C23 1_555 1_555
N5 N6 1_555 1_555
N6 C38 1_555 1_555
C23 C24 1_555 1_555
C24 C25 1_555 1_555
C25 C26 1_555 1_555
C26 C27 1_555 1_555
C27 C28 1_555 1_555
C28 C23 1_555 1_555
C29 C28 1_555 1_555
C30 C29 1_555 1_555
C31 C30 1_555 1_555
C32 C31 1_555 1_555
C33 C32 1_555 1_555
C34 C33 1_555 1_555
C35 C30 1_555 1_555
C36 N4 1_555 1_555
C37 N5 1_555 1_555
C38 C39 1_555 1_555
C39 C40 1_555 1_555
C40 C41 1_555 1_555
C41 C42 1_555 1_555
C42 C43 1_555 1_555
C43 C38 1_555 1_555
C44 C41 1_555 1_555
H23 N4 1_555 1_555
H24 N5 1_555 1_555
H25 C24 1_555 1_555
H26 C25 1_555 1_555
H27 C27 1_555 1_555
H28 C31 1_555 1_555
H29 C32 1_555 1_555
H30 C33 1_555 1_555
H31 C34 1_555 1_555
H32 C35 1_555 1_555
H33 C39 1_555 1_555
H34 C39 1_555 1_555
H35 C40 1_555 1_555
H36 C40 1_555 1_555
H37 C41 1_555 1_555
H38 C42 1_555 1_555
H39 C42 1_555 1_555
H40 C43 1_555 1_555
H41 C43 1_555 1_555
H42 C44 1_555 1_555
H43 C44 1_555 1_555
H44 C44 1_555 1_555
C7 C14 1_555 1_555
C12 C13 1_555 1_555
C14 C15 1_555 1_555
C29 C36 1_555 1_555
C34 C35 1_555 1_555
C36 C37 1_555 1_555

#END
