
#######################################################################
#
#                 Cambridge Crystallographic Data Centre
#                                CCDC 
#
#######################################################################
#
# If this CIF has been generated from an entry in the Cambridge 
# Structural Database, then it will include bibliographic, chemical, 
# crystal, experimental, refinement or atomic coordinate data resulting 
# from the CCDC's data processing and validation procedures.
#
#######################################################################

data_AGAFUM
_chemical_formula_moiety         'C11 H9 F1 O2'
_chemical_name_systematic        5-fluoro-7-methoxynaphthalen-2-ol
_symmetry_cell_setting           orthorhombic
_symmetry_space_group_name_H-M   'P 21 21 21'
_symmetry_Int_Tables_number      19
_space_group_name_Hall           'P 2ac 2ab'
loop_
_symmetry_equiv_pos_site_id
_symmetry_equiv_pos_as_xyz
1 x,y,z
2 1/2-x,-y,1/2+z
3 -x,1/2+y,1/2-z
4 1/2+x,1/2-y,-z
_cell_length_a                   4.9693(3)
_cell_length_b                   5.8579(3)
_cell_length_c                   31.3863(17)
_cell_angle_alpha                90
_cell_angle_beta                 90
_cell_angle_gamma                90
_cell_volume                     913.645
_exptl_crystal_colour            colorless
_exptl_crystal_description       plate
_cell_formula_units_Z            4
loop_
_atom_site_label
_atom_site_type_symbol
_atom_site_fract_x
_atom_site_fract_y
_atom_site_fract_z
C1 C 0.2684(6) 0.4479(4) 0.14537(9)
C2 C 0.0966(6) 0.4193(4) 0.17800(9)
H1 H 0.0901 0.5245 0.2002
C3 C -0.0734(5) 0.2270(4) 0.17793(8)
C4 C -0.0682(5) 0.0753(4) 0.14466(7)
H2 H -0.1823 -0.0506 0.1448
C5 C 0.1106(5) 0.1100(4) 0.11015(8)
C6 C 0.1219(5) -0.0435(4) 0.07521(7)
H3 H 0.0075 -0.1692 0.0744
C7 C 0.3000(5) -0.0074(4) 0.04273(7)
C8 C 0.4777(5) 0.1784(5) 0.04318(8)
H4 H 0.6000 0.1984 0.0211
C9 C 0.4706(5) 0.3297(5) 0.07619(9)
H5 H 0.5879 0.4534 0.0764
C10 C 0.2871(5) 0.3005(4) 0.11003(8)
C11 C -0.4045(7) 0.0136(5) 0.21546(9)
H6 H -0.5239 0.0124 0.1914
H7 H -0.5078 0.0195 0.2413
H8 H -0.2968 -0.1224 0.2153
F1 F 0.4397(4) 0.6295(3) 0.14581(6)
O1 O -0.2340(4) 0.2084(4) 0.21311(6)
O2 O 0.3180(4) -0.1498(3) 0.00781(6)
H9 H 0.1735 -0.2146 0.0042
loop_
_geom_bond_atom_site_label_1
_geom_bond_atom_site_label_2
_geom_bond_site_symmetry_1
_geom_bond_site_symmetry_2
C1 C2 1_555 1_555
C2 H1 1_555 1_555
C3 C2 1_555 1_555
C4 C3 1_555 1_555
H2 C4 1_555 1_555
C5 C4 1_555 1_555
C6 C5 1_555 1_555
H3 C6 1_555 1_555
C7 C6 1_555 1_555
C8 C7 1_555 1_555
H4 C8 1_555 1_555
C9 C8 1_555 1_555
H5 C9 1_555 1_555
C10 C1 1_555 1_555
C11 H6 1_555 1_555
H7 C11 1_555 1_555
H8 C11 1_555 1_555
F1 C1 1_555 1_555
O1 C3 1_555 1_555
O2 C7 1_555 1_555
H9 O2 1_555 1_555
C5 C10 1_555 1_555
C9 C10 1_555 1_555
C11 O1 1_555 1_555

#END
