
#######################################################################
#
#                 Cambridge Crystallographic Data Centre
#                                CCDC 
#
#######################################################################
#
# If this CIF has been generated from an entry in the Cambridge 
# Structural Database, then it will include bibliographic, chemical, 
# crystal, experimental, refinement or atomic coordinate data resulting 
# from the CCDC's data processing and validation procedures.
#
#######################################################################

data_AGAHOI
_chemical_name_common            
"5,10:15,20-bis(2,2'-[ethane-1,2-diylbis(oxy)]bis(5-t-butylphenylene))porphyrin unknown solvate"
_chemical_formula_moiety         'C64 H66 N4 O4'
_chemical_name_systematic        
'9,20,31,42-tetra-t-butyl-13,16,35,38-tetraoxa-49,50,55,56-tetraazaundecacyclo[26.16.4.4^6,23^.1^2,5^.1^24,27^.1^45,48^.1^51,54^.0^7,12^.0^17,22^.0^29,34^.0^39,44^]hexapentaconta-1(45),2,4,6(54),7,9,11,17,19,21,23,25,27,29,31,33,39,41,43,46,48,51(56),52-tricosaene unknown solvate'
_symmetry_cell_setting           tetragonal
_symmetry_space_group_name_H-M   'I 41'
_symmetry_Int_Tables_number      80
_space_group_name_Hall           'I 4bw'
loop_
_symmetry_equiv_pos_site_id
_symmetry_equiv_pos_as_xyz
1 x,y,z
2 1/2-x,1/2-y,1/2+z
3 -y,1/2+x,1/4+z
4 1/2+y,-x,3/4+z
5 1/2+x,1/2+y,1/2+z
6 -x,-y,z
7 1/2-y,x,3/4+z
8 y,1/2-x,1/4+z
_cell_length_a                   18.3696(16)
_cell_length_b                   18.3696(16)
_cell_length_c                   21.910(3)
_cell_angle_alpha                90
_cell_angle_beta                 90
_cell_angle_gamma                90
_cell_volume                     7393.36
_exptl_crystal_colour            purple
_exptl_crystal_description       Block
_cell_formula_units_Z            4
_chemical_properties_physical    Photo-sensitive
_exptl_crystal_recrystallization_method chloroform/methanol
_exptl_crystal_preparation       Luminescent
loop_
_atom_site_label
_atom_site_type_symbol
_atom_site_fract_x
_atom_site_fract_y
_atom_site_fract_z
N1 N 0.5078(3) 0.1045(3) 0.2182(3)
N2 N 0.6141(3) -0.0067(4) 0.2049(2)
H1 H 0.572738 -0.002214 0.222947
O1 O 0.5711(3) -0.2253(4) 0.1158(3)
O2 O 0.4140(3) -0.2181(3) 0.1108(3)
C1 C 0.4505(4) 0.1502(5) 0.2258(3)
C2 C 0.4799(6) 0.2202(5) 0.2469(4)
H2 H 0.453497 0.260546 0.259865
C3 C 0.5537(5) 0.2142(6) 0.2435(4)
H3 H 0.587318 0.249986 0.253841
C4 C 0.5694(4) 0.1455(5) 0.2222(3)
C5 C 0.6342(5) 0.1217(5) 0.1963(3)
C6 C 0.6576(4) 0.0485(6) 0.1866(3)
C7 C 0.7204(4) 0.0177(6) 0.1619(4)
H4 H 0.759614 0.043400 0.145948
C8 C 0.7153(5) -0.0510(6) 0.1646(4)
H5 H 0.750752 -0.083857 0.151924
C9 C 0.6466(4) -0.0698(5) 0.1900(3)
C10 C 0.6198(4) -0.1403(5) 0.2060(3)
C11 C 0.6590(4) -0.2074(5) 0.1883(4)
C12 C 0.7233(4) -0.2301(5) 0.2189(5)
H6 H 0.743372 -0.200259 0.248803
C13 C 0.7568(5) -0.2954(6) 0.2054(6)
C14 C 0.7268(6) -0.3367(7) 0.1587(5)
H7 H 0.749072 -0.380382 0.148011
C15 C 0.6667(6) -0.3160(6) 0.1282(5)
H8 H 0.649238 -0.344214 0.096108
C16 C 0.6311(4) -0.2532(5) 0.1445(4)
C17 C 0.8283(7) -0.3155(8) 0.2435(7)
C18 C 0.8076(10) -0.3375(10) 0.3082(8)
H9 H 0.775201 -0.378424 0.306792
H10 H 0.850720 -0.350450 0.330467
H11 H 0.783913 -0.297423 0.328099
C19 C 0.8656(8) -0.3796(10) 0.2141(10)
H12 H 0.831019 -0.418135 0.208182
H13 H 0.885220 -0.365141 0.175314
H14 H 0.904291 -0.396307 0.239974
C20 C 0.8766(7) -0.2540(10) 0.2543(8)
H15 H 0.849756 -0.215114 0.273081
H16 H 0.915528 -0.268690 0.280880
H17 H 0.896457 -0.237525 0.216220
C21 C 0.5225(8) -0.2600(14) 0.0740(11)
H18 H 0.514968 -0.227252 0.039827
H19 H 0.546492 -0.303088 0.058233
C22 C 0.4531(10) -0.2811(12) 0.0963(12)
H20 H 0.427355 -0.308925 0.065549
H21 H 0.458697 -0.311295 0.132347
C23 C 0.3402(4) -0.2319(5) 0.1349(4)
C24 C 0.3153(4) -0.1845(5) 0.1749(4)
C25 C 0.2441(5) -0.1912(6) 0.1962(5)
H22 H 0.227602 -0.157190 0.224362
C26 C 0.1980(5) -0.2437(7) 0.1786(6)
C27 C 0.2288(6) -0.2936(6) 0.1353(6)
H23 H 0.199417 -0.330320 0.119545
C28 C 0.3003(5) -0.2895(6) 0.1159(5)
H24 H 0.320209 -0.324980 0.090708
C29 C 0.1206(5) -0.2519(8) 0.1987(6)
C30 C 0.0731(9) -0.2422(15) 0.1420(8)
H25 H 0.022804 -0.247107 0.153117
H26 H 0.081267 -0.194771 0.124983
H27 H 0.085486 -0.278678 0.112412
C31 C 0.0986(9) -0.1947(13) 0.2458(11)
H28 H 0.048681 -0.202068 0.257298
H29 H 0.129077 -0.198997 0.281159
H30 H 0.104050 -0.146990 0.228454
C32 C 0.1177(12) -0.3319(10) 0.2195(16)
H31 H 0.069537 -0.343211 0.233642
H32 H 0.129887 -0.363080 0.185875
H33 H 0.151906 -0.339371 0.252082
N1E N 0.4922(3) -0.1045(3) 0.2182(3)
N2E N 0.3859(3) 0.0067(4) 0.2049(2)
H1E H 0.427262 0.002214 0.222947
O1E O 0.4289(3) 0.2253(4) 0.1158(3)
O2E O 0.5860(3) 0.2181(3) 0.1108(3)
C1E C 0.5495(4) -0.1502(5) 0.2258(3)
C2E C 0.5201(6) -0.2202(5) 0.2469(4)
H2E H 0.546503 -0.260546 0.259865
C3E C 0.4463(5) -0.2142(6) 0.2435(4)
H3E H 0.412682 -0.249986 0.253841
C4E C 0.4306(4) -0.1455(5) 0.2222(3)
C5E C 0.3658(5) -0.1217(5) 0.1963(3)
C6E C 0.3424(4) -0.0485(6) 0.1866(3)
C7E C 0.2796(4) -0.0177(6) 0.1619(4)
H4E H 0.240386 -0.043400 0.145948
C8E C 0.2847(5) 0.0510(6) 0.1646(4)
H5E H 0.249248 0.083857 0.151924
C9E C 0.3534(4) 0.0698(5) 0.1900(3)
C10E C 0.3802(4) 0.1403(5) 0.2060(3)
C11E C 0.3410(4) 0.2074(5) 0.1883(4)
C12E C 0.2767(4) 0.2301(5) 0.2189(5)
H6E H 0.256628 0.200259 0.248803
C13E C 0.2432(5) 0.2954(6) 0.2054(6)
C14E C 0.2732(6) 0.3367(7) 0.1587(5)
H7E H 0.250928 0.380382 0.148011
C15E C 0.3333(6) 0.3160(6) 0.1282(5)
H8E H 0.350762 0.344214 0.096108
C16E C 0.3689(4) 0.2532(5) 0.1445(4)
C17E C 0.1717(7) 0.3155(8) 0.2435(7)
C18E C 0.1924(10) 0.3375(10) 0.3082(8)
H9E H 0.224799 0.378424 0.306792
H10E H 0.149280 0.350450 0.330467
H11E H 0.216087 0.297423 0.328099
C19E C 0.1344(8) 0.3796(10) 0.2141(10)
H12E H 0.168981 0.418135 0.208182
H13E H 0.114780 0.365141 0.175314
H14E H 0.095709 0.396307 0.239974
C20E C 0.1234(7) 0.2540(10) 0.2543(8)
H15E H 0.150244 0.215114 0.273081
H16E H 0.084472 0.268690 0.280880
H17E H 0.103543 0.237525 0.216220
C21E C 0.4775(8) 0.2600(14) 0.0740(11)
H18E H 0.485032 0.227252 0.039827
H19E H 0.453508 0.303088 0.058233
C22E C 0.5469(10) 0.2811(12) 0.0963(12)
H20E H 0.572645 0.308925 0.065549
H21E H 0.541303 0.311295 0.132347
C23E C 0.6598(4) 0.2319(5) 0.1349(4)
C24E C 0.6847(4) 0.1845(5) 0.1749(4)
C25E C 0.7559(5) 0.1912(6) 0.1962(5)
H22E H 0.772398 0.157190 0.224362
C26E C 0.8020(5) 0.2437(7) 0.1786(6)
C27E C 0.7712(6) 0.2936(6) 0.1353(6)
H23E H 0.800583 0.330320 0.119545
C28E C 0.6997(5) 0.2895(6) 0.1159(5)
H24E H 0.679791 0.324980 0.090708
C29E C 0.8794(5) 0.2519(8) 0.1987(6)
C30E C 0.9269(9) 0.2422(15) 0.1420(8)
H25E H 0.977196 0.247107 0.153117
H26E H 0.918733 0.194771 0.124983
H27E H 0.914514 0.278678 0.112412
C31E C 0.9014(9) 0.1947(13) 0.2458(11)
H28E H 0.951319 0.202068 0.257298
H29E H 0.870923 0.198997 0.281159
H30E H 0.895950 0.146990 0.228454
C32E C 0.8823(12) 0.3319(10) 0.2195(16)
H31E H 0.930463 0.343211 0.233642
H32E H 0.870113 0.363080 0.185875
H33E H 0.848094 0.339371 0.252082
C33? C 0.5233(14) -0.296(2) 0.1062(19)
H34? H 0.508316 -0.318006 0.144456
H35? H 0.547275 -0.331972 0.080736
C34? C 0.4539(17) -0.254(2) 0.0699(18)
H36? H 0.472953 -0.220222 0.039814
H37? H 0.424033 -0.289619 0.048963
C35? C 0.0719(19) -0.1850(15) 0.190(2)
H38? H 0.023674 -0.195745 0.204371
H39? H 0.091424 -0.144882 0.213004
H40? H 0.070114 -0.172310 0.147649
C36? C 0.138(2) -0.265(2) 0.2653(9)
H41? H 0.094034 -0.272089 0.287766
H42? H 0.168245 -0.307728 0.268913
H43? H 0.163989 -0.223803 0.281389
C37? C 0.090(2) -0.3214(17) 0.1688(18)
H44? H 0.040351 -0.328082 0.180944
H45? H 0.092631 -0.316849 0.125183
H46? H 0.118362 -0.362677 0.181553
loop_
_geom_bond_atom_site_label_1
_geom_bond_atom_site_label_2
_geom_bond_site_symmetry_1
_geom_bond_site_symmetry_2
N1 C1 1_555 1_555
N2 H1 1_555 1_555
O1 C16 1_555 1_555
O2 C22 1_555 1_555
C1 C2 1_555 1_555
C2 H2 1_555 1_555
C3 C2 1_555 1_555
H3 C3 1_555 1_555
C4 N1 1_555 1_555
C5 C4 1_555 1_555
C6 N2 1_555 1_555
C7 C6 1_555 1_555
H4 C7 1_555 1_555
C8 C7 1_555 1_555
H5 C8 1_555 1_555
C9 N2 1_555 1_555
C10 C9 1_555 1_555
C11 C10 1_555 1_555
C12 C11 1_555 1_555
H6 C12 1_555 1_555
C13 C12 1_555 1_555
C14 C13 1_555 1_555
H7 C14 1_555 1_555
C15 C14 1_555 1_555
H8 C15 1_555 1_555
C16 C11 1_555 1_555
C17 C13 1_555 1_555
C18 C17 1_555 1_555
H9 C18 1_555 1_555
H10 C18 1_555 1_555
H11 C18 1_555 1_555
C19 C17 1_555 1_555
H12 C19 1_555 1_555
H13 C19 1_555 1_555
H14 C19 1_555 1_555
C20 C17 1_555 1_555
H15 C20 1_555 1_555
H16 C20 1_555 1_555
H17 C20 1_555 1_555
C21 O1 1_555 1_555
H18 C21 1_555 1_555
H19 C21 1_555 1_555
C22 C21 1_555 1_555
H20 C22 1_555 1_555
H21 C22 1_555 1_555
C23 O2 1_555 1_555
C24 C23 1_555 1_555
C25 C24 1_555 1_555
H22 C25 1_555 1_555
C26 C25 1_555 1_555
C27 C26 1_555 1_555
H23 C27 1_555 1_555
C28 C23 1_555 1_555
H24 C28 1_555 1_555
C29 C26 1_555 1_555
C30 C29 1_555 1_555
H25 C30 1_555 1_555
H26 C30 1_555 1_555
H27 C30 1_555 1_555
C31 C29 1_555 1_555
H28 C31 1_555 1_555
H29 C31 1_555 1_555
H30 C31 1_555 1_555
C32 C29 1_555 1_555
H31 C32 1_555 1_555
H32 C32 1_555 1_555
H33 C32 1_555 1_555
N1E C1E 1_555 1_555
N2E H1E 1_555 1_555
O1E C16E 1_555 1_555
O2E C22E 1_555 1_555
C1E C10 1_555 1_555
C2E C1E 1_555 1_555
H2E C2E 1_555 1_555
C3E C2E 1_555 1_555
H3E C3E 1_555 1_555
C4E N1E 1_555 1_555
C5E C24 1_555 1_555
C6E N2E 1_555 1_555
C7E C6E 1_555 1_555
H4E C7E 1_555 1_555
C8E C7E 1_555 1_555
H5E C8E 1_555 1_555
C9E N2E 1_555 1_555
C10E C1 1_555 1_555
C11E C10E 1_555 1_555
C12E C11E 1_555 1_555
H6E C12E 1_555 1_555
C13E C12E 1_555 1_555
C14E C13E 1_555 1_555
H7E C14E 1_555 1_555
C15E C14E 1_555 1_555
H8E C15E 1_555 1_555
C16E C11E 1_555 1_555
C17E C13E 1_555 1_555
C18E C17E 1_555 1_555
H9E C18E 1_555 1_555
H10E C18E 1_555 1_555
H11E C18E 1_555 1_555
C19E C17E 1_555 1_555
H12E C19E 1_555 1_555
H13E C19E 1_555 1_555
H14E C19E 1_555 1_555
C20E C17E 1_555 1_555
H15E C20E 1_555 1_555
H16E C20E 1_555 1_555
H17E C20E 1_555 1_555
C21E O1E 1_555 1_555
H18E C21E 1_555 1_555
H19E C21E 1_555 1_555
C22E C21E 1_555 1_555
H20E C22E 1_555 1_555
H21E C22E 1_555 1_555
C23E O2E 1_555 1_555
C24E C5 1_555 1_555
C25E C24E 1_555 1_555
H22E C25E 1_555 1_555
C26E C25E 1_555 1_555
C27E C26E 1_555 1_555
H23E C27E 1_555 1_555
C28E C23E 1_555 1_555
H24E C28E 1_555 1_555
C29E C26E 1_555 1_555
C30E C29E 1_555 1_555
H25E C30E 1_555 1_555
H26E C30E 1_555 1_555
H27E C30E 1_555 1_555
C31E C29E 1_555 1_555
H28E C31E 1_555 1_555
H29E C31E 1_555 1_555
H30E C31E 1_555 1_555
C32E C29E 1_555 1_555
H31E C32E 1_555 1_555
H32E C32E 1_555 1_555
H33E C32E 1_555 1_555
C3 C4 1_555 1_555
C5 C6 1_555 1_555
C8 C9 1_555 1_555
C15 C16 1_555 1_555
C27 C28 1_555 1_555
C3E C4E 1_555 1_555
C4E C5E 1_555 1_555
C5E C6E 1_555 1_555
C8E C9E 1_555 1_555
C9E C10E 1_555 1_555
C15E C16E 1_555 1_555
C23E C24E 1_555 1_555
C27E C28E 1_555 1_555

#END
