
#######################################################################
#
#                 Cambridge Crystallographic Data Centre
#                                CCDC 
#
#######################################################################
#
# If this CIF has been generated from an entry in the Cambridge 
# Structural Database, then it will include bibliographic, chemical, 
# crystal, experimental, refinement or atomic coordinate data resulting 
# from the CCDC's data processing and validation procedures.
#
#######################################################################

data_AGAJAT
_chemical_formula_moiety         'C45 H54 N6 O14 S1,C3 H6 O1,0.5(C1 H1 Cl3)'
_chemical_name_systematic        
'Methyl 3\a-(p-nitrobenzenesulfonylamido)-7\a,12\a-bis(p-nitrophenylaminocarbonyloxy)-5\b-cholan-24-oate acetone chloroform solvate'
_symmetry_cell_setting           orthorhombic
_symmetry_space_group_name_H-M   'P 2 21 21'
_symmetry_Int_Tables_number      18
_space_group_name_Hall           'P 2bc 2'
loop_
_symmetry_equiv_pos_site_id
_symmetry_equiv_pos_as_xyz
1 x,y,z
2 x,-y,-z
3 -x,1/2+y,1/2-z
4 -x,1/2-y,1/2+z
_cell_length_a                   13.8288(5)
_cell_length_b                   14.6236(4)
_cell_length_c                   25.6859(9)
_cell_angle_alpha                90
_cell_angle_beta                 90
_cell_angle_gamma                90
_cell_volume                     5194.38
_exptl_crystal_colour            colorless
_exptl_crystal_description       block
_cell_formula_units_Z            4
loop_
_atom_site_label
_atom_site_type_symbol
_atom_site_fract_x
_atom_site_fract_y
_atom_site_fract_z
C1 C 0.0214(4) 1.0343(4) 0.3402(3)
H1 H -0.0327 1.0002 0.3564
H2 H -0.0023 1.0591 0.3067
C2 C 0.1038(4) 0.9675(4) 0.3292(2)
H3 H 0.0803 0.9169 0.3070
H4 H 0.1566 0.9993 0.3104
C3 C 0.1411(4) 0.9301(3) 0.3798(2)
H5 H 0.0875 0.8969 0.3978
C4 C 0.1755(4) 1.0072(3) 0.4144(2)
H6 H 0.2295 1.0397 0.3971
H7 H 0.2000 0.9816 0.4475
C5 C 0.0950(4) 1.0744(3) 0.4257(2)
H8 H 0.0430 1.0388 0.4437
C6 C 0.1257(4) 1.1494(3) 0.4635(2)
H9 H 0.1583 1.1209 0.4937
H10 H 0.0672 1.1810 0.4765
C7 C 0.1935(4) 1.2203(3) 0.4396(2)
H11 H 0.2014 1.2718 0.4649
C8 C 0.1525(4) 1.2589(3) 0.38862(18)
H12 H 0.0928 1.2942 0.3976
C9 C 0.1222(4) 1.1820(3) 0.3508(2)
H13 H 0.1817 1.1457 0.3428
C10 C 0.0485(4) 1.1154(3) 0.3762(2)
C11 C 0.0858(4) 1.2229(3) 0.2985(2)
H14 H 0.0778 1.1723 0.2732
H15 H 0.0213 1.2502 0.3043
C12 C 0.1503(4) 1.2944(3) 0.2743(2)
H16 H 0.1157 1.3225 0.2441
C13 C 0.1793(4) 1.3701(3) 0.31199(19)
C14 C 0.2216(4) 1.3244(3) 0.36194(18)
H17 H 0.2786 1.2874 0.3505
C15 C 0.2614(4) 1.4048(3) 0.3929(2)
H18 H 0.3149 1.3851 0.4159
H19 H 0.2101 1.4332 0.4144
C16 C 0.2980(4) 1.4721(3) 0.35123(19)
H20 H 0.3694 1.4766 0.3525
H21 H 0.2704 1.5337 0.3572
C17 C 0.2648(4) 1.4344(3) 0.29730(18)
H22 H 0.3182 1.3945 0.2842
C18 C -0.0478(4) 1.1631(4) 0.3902(3)
H23 H -0.0773 1.1881 0.3586
H24 H -0.0353 1.2128 0.4149
H25 H -0.0919 1.1186 0.4060
C19 C 0.0881(4) 1.4284(3) 0.3238(2)
H26 H 0.0628 1.4539 0.2912
H27 H 0.1052 1.4783 0.3475
H28 H 0.0386 1.3898 0.3400
C20 C 0.2497(4) 1.5103(3) 0.2563(2)
H29 H 0.1956 1.5506 0.2681
C21 C 0.2231(5) 1.4694(4) 0.2031(2)
H30 H 0.2200 1.5183 0.1771
H31 H 0.1599 1.4392 0.2055
H32 H 0.2722 1.4246 0.1928
C22 C 0.3415(4) 1.5678(3) 0.2521(2)
H33 H 0.3957 1.5279 0.2413
H34 H 0.3573 1.5928 0.2869
C23 C 0.3328(4) 1.6477(4) 0.2131(2)
H35 H 0.3178 1.6228 0.1782
H36 H 0.2783 1.6874 0.2237
C24 C 0.4228(4) 1.7044(3) 0.2097(2)
C25 C 0.1297(4) 0.7074(3) 0.3892(2)
C26 C 0.5025(5) 1.8146(5) 0.1595(3)
H37 H 0.4997 1.8658 0.1841
H38 H 0.5015 1.8383 0.1238
H39 H 0.5621 1.7799 0.1651
C27 C 0.0314(5) 0.7163(4) 0.3820(2)
H40 H 0.0066 0.7452 0.3517
C28 C -0.0301(5) 0.6830(4) 0.4193(3)
H41 H -0.0981 0.6902 0.4157
C29 C 0.0078(4) 0.6394(4) 0.4615(2)
C30 C 0.3511(5) 1.1718(3) 0.4684(2)
C31 C 0.1047(4) 0.6257(3) 0.4681(2)
H42 H 0.1282 0.5924 0.4973
C32 C 0.1674(4) 0.6607(3) 0.4320(2)
H43 H 0.2352 0.6534 0.4360
C33 C 0.5258(5) 1.1385(4) 0.4762(2)
C34 C 0.6112(5) 1.1539(5) 0.4475(3)
H44 H 0.6074 1.1734 0.4123
C35 C 0.7002(6) 1.1405(6) 0.4704(3)
H45 H 0.7578 1.1475 0.4506
C36 C 0.7049(5) 1.1174(6) 0.5215(3)
C37 C 0.6224(6) 1.1029(7) 0.5506(3)
H46 H 0.6275 1.0851 0.5861
C38 C 0.5333(5) 1.1142(6) 0.5283(3)
H47 H 0.4765 1.1053 0.5485
C39 C 0.2443(4) 1.2317(4) 0.2044(2)
C40 C 0.3746(4) 1.1841(4) 0.1428(2)
C41 C 0.4732(4) 1.1695(4) 0.1393(2)
H48 H 0.5120 1.1764 0.1695
C42 C 0.5158(5) 1.1459(5) 0.0942(2)
H49 H 0.5837 1.1363 0.0930
C43 C 0.4622(5) 1.1356(4) 0.0506(2)
C44 C 0.3635(6) 1.1480(7) 0.0523(3)
H50 H 0.3255 1.1387 0.0220
C45 C 0.3200(5) 1.1741(7) 0.0987(3)
H51 H 0.2523 1.1850 0.0998
O1 O 0.3023(3) 0.7210(2) 0.34989(17)
O2 O 0.1615(4) 0.7736(3) 0.29784(15)
O3 O -0.0240(4) 0.5774(3) 0.5433(2)
O4 O -0.1462(4) 0.6158(6) 0.4953(3)
O5 O 0.8723(5) 1.1226(8) 0.5209(3)
O6 O 0.8052(5) 1.0699(8) 0.5879(2)
O7 O 0.2892(3) 1.1825(2) 0.42807(12)
O8 O 0.5973(6) 1.1061(5) 0.0016(2)
O9 O 0.4603(6) 1.0984(5) -0.0367(2)
O10 O 0.2401(2) 1.2514(2) 0.25532(12)
O11 O 0.4894(3) 1.7047(3) 0.23924(15)
O12 O 0.4213(3) 1.7565(3) 0.16737(14)
O13 O 0.3297(3) 1.1839(3) 0.51405(14)
O14 O 0.1772(3) 1.2355(4) 0.17447(16)
N1 N 0.2243(4) 0.8657(3) 0.37245(18)
H52 H 0.2825 0.8828 0.3823
N2 N -0.0593(5) 0.6087(4) 0.5023(3)
N3 N 0.4381(4) 1.1462(3) 0.44965(18)
H53 H 0.4398 1.1326 0.4163
N4 N 0.7998(5) 1.1022(7) 0.5456(3)
N5 N 0.3369(3) 1.2090(3) 0.19166(16)
H54 H 0.3787 1.2100 0.2175
N6 N 0.5090(6) 1.1129(4) 0.0016(3)
S1 S 0.20973(12) 0.76454(9) 0.34656(6)
C46 C 0.4386(6) 0.9961(5) 0.3226(3)
C47 C 0.3688(7) 1.0316(10) 0.2906(6)
H55 H 0.3995 1.0669 0.2627
H56 H 0.3262 1.0717 0.3108
H57 H 0.3309 0.9817 0.2755
O15 O 0.4780(8) 1.0433(4) 0.3561(3)
C48 C 0.4752(6) 0.8991(5) 0.3181(3)
H58 H 0.4594 0.8749 0.2835
H59 H 0.4444 0.8611 0.3448
H60 H 0.5455 0.8983 0.3230
C50 C 0.2532(16) 1.9348(19) 0.1688(7)
H62 H 0.2139 1.9921 0.1703
Cl2 Cl 0.3628(18) 1.965(2) 0.1967(8)
Cl3 Cl 0.1794(3) 1.8539(3) 0.19190(16)
Cl4 Cl 0.2864(4) 1.9266(3) 0.1061(2)
C49? C 0.1834(12) 1.9285(10) 0.1428(6)
H61? H 0.1308 1.9088 0.1186
Cl1? Cl 0.1497(3) 2.0378(3) 0.16351(18)
loop_
_geom_bond_atom_site_label_1
_geom_bond_atom_site_label_2
_geom_bond_site_symmetry_1
_geom_bond_site_symmetry_2
C1 H1 1_555 1_555
H2 C1 1_555 1_555
C2 C1 1_555 1_555
H3 C2 1_555 1_555
H4 C2 1_555 1_555
C3 C2 1_555 1_555
H5 C3 1_555 1_555
C4 C3 1_555 1_555
H6 C4 1_555 1_555
H7 C4 1_555 1_555
C5 C4 1_555 1_555
H8 C5 1_555 1_555
C6 C5 1_555 1_555
H9 C6 1_555 1_555
H10 C6 1_555 1_555
C7 C6 1_555 1_555
H11 C7 1_555 1_555
C8 C7 1_555 1_555
H12 C8 1_555 1_555
C9 C8 1_555 1_555
H13 C9 1_555 1_555
C10 C1 1_555 1_555
C11 C9 1_555 1_555
H14 C11 1_555 1_555
H15 C11 1_555 1_555
C12 C11 1_555 1_555
H16 C12 1_555 1_555
C13 C12 1_555 1_555
C14 C8 1_555 1_555
H17 C14 1_555 1_555
C15 C14 1_555 1_555
H18 C15 1_555 1_555
H19 C15 1_555 1_555
C16 C15 1_555 1_555
H20 C16 1_555 1_555
H21 C16 1_555 1_555
C17 C13 1_555 1_555
H22 C17 1_555 1_555
C18 C10 1_555 1_555
H23 C18 1_555 1_555
H24 C18 1_555 1_555
H25 C18 1_555 1_555
C19 C13 1_555 1_555
H26 C19 1_555 1_555
H27 C19 1_555 1_555
H28 C19 1_555 1_555
C20 C17 1_555 1_555
H29 C20 1_555 1_555
C21 C20 1_555 1_555
H30 C21 1_555 1_555
H31 C21 1_555 1_555
H32 C21 1_555 1_555
C22 C20 1_555 1_555
H33 C22 1_555 1_555
H34 C22 1_555 1_555
C23 C22 1_555 1_555
H35 C23 1_555 1_555
H36 C23 1_555 1_555
C24 C23 1_555 1_555
C25 C27 1_555 1_555
C26 H37 1_555 1_555
H38 C26 1_555 1_555
H39 C26 1_555 1_555
C27 H40 1_555 1_555
C28 C27 1_555 1_555
H41 C28 1_555 1_555
C29 C28 1_555 1_555
C30 O7 1_555 1_555
C31 C29 1_555 1_555
H42 C31 1_555 1_555
C32 C25 1_555 1_555
H43 C32 1_555 1_555
C33 C34 1_555 1_555
C34 H44 1_555 1_555
C35 C34 1_555 1_555
H45 C35 1_555 1_555
C36 C35 1_555 1_555
C37 C36 1_555 1_555
H46 C37 1_555 1_555
C38 C33 1_555 1_555
H47 C38 1_555 1_555
C39 O10 1_555 1_555
C40 C41 1_555 1_555
C41 H48 1_555 1_555
C42 C41 1_555 1_555
H49 C42 1_555 1_555
C43 C42 1_555 1_555
C44 C43 1_555 1_555
H50 C44 1_555 1_555
C45 C40 1_555 1_555
H51 C45 1_555 1_555
O1 S1 1_555 1_555
O2 S1 1_555 1_555
O3 N2 1_555 1_555
O4 N2 1_555 1_555
O5 N4 1_555 1_555
O6 N4 1_555 1_555
O7 C7 1_555 1_555
O8 N6 1_555 1_555
O9 N6 1_555 1_555
O10 C12 1_555 1_555
O11 C24 1_555 1_555
O12 C24 1_555 1_555
O13 C30 1_555 1_555
O14 C39 1_555 1_555
N1 C3 1_555 1_555
H52 N1 1_555 1_555
N2 C29 1_555 1_555
N3 C30 1_555 1_555
H53 N3 1_555 1_555
N4 C36 1_555 1_555
N5 C39 1_555 1_555
H54 N5 1_555 1_555
N6 C43 1_555 1_555
S1 C25 1_555 1_555
C46 C47 1_555 1_555
C47 H55 1_555 1_555
H56 C47 1_555 1_555
H57 C47 1_555 1_555
O15 C46 1_555 1_555
C48 C46 1_555 1_555
H58 C48 1_555 1_555
H59 C48 1_555 1_555
H60 C48 1_555 1_555
C50 H62 1_555 1_555
Cl2 C50 1_555 1_555
Cl3 C50 1_555 1_555
Cl4 C50 1_555 1_555
C5 C10 1_555 1_555
C9 C10 1_555 1_555
C13 C14 1_555 1_555
C16 C17 1_555 1_555
C26 O12 1_555 1_555
C31 C32 1_555 1_555
C33 N3 1_555 1_555
C37 C38 1_555 1_555
C40 N5 1_555 1_555
C44 C45 1_555 1_555
N1 S1 1_555 1_555

#END
