
#######################################################################
#
#                 Cambridge Crystallographic Data Centre
#                                CCDC 
#
#######################################################################
#
# If this CIF has been generated from an entry in the Cambridge 
# Structural Database, then it will include bibliographic, chemical, 
# crystal, experimental, refinement or atomic coordinate data resulting 
# from the CCDC's data processing and validation procedures.
#
#######################################################################

data_AGAJIE
_chemical_name_common            
"5,10:15,20-bis(2,2'-[ethane-1,2-diylbis(oxy)]bis(5-t-butylphenylene))porphyrin acetonitrile dichloromethane solvate"
_chemical_formula_moiety         'C64 H66 N4 O4,2(C2 H3 N1),C1 H2 Cl2'
_chemical_name_systematic        
'9,20,31,42-tetra-t-butyl-13,16,35,38-tetraoxa-49,50,55,56-tetraazaundecacyclo[26.16.4.4^6,23^.1^2,5^.1^24,27^.1^45,48^.1^51,54^.0^7,12^.0^17,22^.0^29,34^.0^39,44^]hexapentaconta-1(45),2,4,6(54),7,9,11,17,19,21,23,25,27,29,31,33,39,41,43,46,48,51(56),52-tricosaene dichloromethane acetonitrile solvate'
_symmetry_cell_setting           monoclinic
_symmetry_space_group_name_H-M   'C 2/c'
_symmetry_Int_Tables_number      15
_space_group_name_Hall           '-C 2yn'
loop_
_symmetry_equiv_pos_site_id
_symmetry_equiv_pos_as_xyz
1 x,y,z
2 -x,y,1/2-z
3 1/2+x,1/2+y,z
4 1/2-x,1/2+y,1/2-z
5 -x,-y,-z
6 x,-y,1/2+z
7 1/2-x,1/2-y,-z
8 1/2+x,1/2-y,1/2+z
_cell_length_a                   27.129(17)
_cell_length_b                   18.648(17)
_cell_length_c                   12.694(9)
_cell_angle_alpha                90
_cell_angle_beta                 113.879(12)
_cell_angle_gamma                90
_cell_volume                     5872.21
_exptl_crystal_colour            colorless
_exptl_crystal_description       block
_cell_formula_units_Z            4
_chemical_properties_physical    Photo-sensitive
_exptl_crystal_recrystallization_method chloroform/methanol
_exptl_crystal_preparation       Luminescent
loop_
_atom_site_label
_atom_site_type_symbol
_atom_site_fract_x
_atom_site_fract_y
_atom_site_fract_z
N3 N 0.7916(3) 0.1421(3) 0.1609(5)
C33 C 0.7830(3) 0.1808(4) 0.2187(5)
C34 C 0.7719(3) 0.2294(4) 0.2932(6)
H34 H 0.734560 0.246278 0.255374
H35 H 0.796459 0.270440 0.310159
H36 H 0.776923 0.204905 0.365142
O1 O 0.78646(16) 0.4318(2) 0.2724(3)
O2 O 0.68207(16) 0.3559(2) 0.1506(3)
N1 N 0.72430(19) 0.3399(2) 0.4303(4)
N2 N 0.82861(19) 0.2929(2) 0.5927(4)
H1 H 0.796879 0.273486 0.553125
C1 C 0.7453(3) 0.4518(3) 0.1642(5)
H2 H 0.761682 0.477002 0.117560
H3 H 0.719725 0.484949 0.176616
C2 C 0.7159(3) 0.3867(4) 0.1008(5)
H4 H 0.693484 0.399877 0.019833
H5 H 0.742390 0.350367 0.100345
C3 C 0.6274(2) 0.3625(3) 0.1035(4)
C4 C 0.5998(2) 0.3383(3) 0.1689(4)
C5 C 0.6345(2) 0.3103(3) 0.2859(5)
C6 C 0.6743(2) 0.3570(3) 0.3533(4)
C7 C 0.7522(2) 0.4020(3) 0.4490(4)
C8 C 0.8083(2) 0.4085(3) 0.4994(4)
C9 C 0.8439(2) 0.3594(3) 0.5722(4)
C10 C 0.8688(2) 0.2607(3) 0.6823(4)
C11 C 0.9119(2) 0.3095(3) 0.7200(5)
H6 H 0.945401 0.302918 0.783998
C12 C 0.8979(2) 0.3673(3) 0.6501(5)
H7 H 0.920634 0.406624 0.653089
C13 C 0.8285(2) 0.4754(3) 0.4639(5)
C14 C 0.8129(2) 0.4860(3) 0.3464(5)
C15 C 0.8249(2) 0.5514(3) 0.3099(5)
H8 H 0.814337 0.559829 0.229934
C16 C 0.8516(2) 0.6035(3) 0.3868(5)
H9 H 0.860078 0.647218 0.359381
C17 C 0.8669(2) 0.5944(3) 0.5046(5)
C18 C 0.8555(2) 0.5292(3) 0.5408(5)
H10 H 0.866585 0.520856 0.620963
C19 C 0.8929(3) 0.6550(3) 0.5885(5)
C20 C 0.9102(3) 0.6322(3) 0.7112(6)
H11 H 0.878832 0.614976 0.723603
H12 H 0.926323 0.673029 0.762029
H13 H 0.936804 0.593516 0.728318
C21 C 0.8513(3) 0.7156(3) 0.5636(7)
H14 H 0.840433 0.732119 0.484083
H15 H 0.867410 0.755560 0.616640
H16 H 0.819688 0.697818 0.574352
C22 C 0.9415(3) 0.6850(3) 0.5719(6)
H17 H 0.969083 0.647711 0.589268
H18 H 0.956227 0.725822 0.623919
H19 H 0.930367 0.700891 0.492009
C23 C 0.7169(2) 0.4617(3) 0.3953(4)
H20 H 0.726481 0.511044 0.401645
C24 C 0.6691(2) 0.4345(3) 0.3363(4)
H21 H 0.637312 0.460124 0.291189
C25 C 0.5447(2) 0.3407(3) 0.1241(5)
H22 H 0.526633 0.324389 0.169881
C26 C 0.5140(2) 0.3665(3) 0.0126(5)
C27 C 0.5428(3) 0.3898(3) -0.0487(5)
H23 H 0.523312 0.407659 -0.124391
C28 C 0.5973(3) 0.3887(3) -0.0071(5)
H24 H 0.615044 0.405801 -0.053068
C29 C 0.4535(3) 0.3684(4) -0.0325(6)
C30 C 0.4359(3) 0.4096(5) 0.0515(7)
H25 H 0.449231 0.384716 0.125807
H26 H 0.396427 0.412039 0.019840
H27 H 0.450728 0.458267 0.062215
C31 C 0.4305(3) 0.2938(5) -0.0401(8)
H28 H 0.437902 0.265881 -0.097442
H29 H 0.391432 0.296897 -0.063008
H30 H 0.447185 0.270292 0.035178
C32 C 0.4273(3) 0.4067(7) -0.1470(7)
H31 H 0.439325 0.456733 -0.138087
H32 H 0.388018 0.405106 -0.173043
H33 H 0.437602 0.382986 -0.203961
O1F O 0.71354(16) 0.0682(2) 0.7276(3)
O2F O 0.81793(16) 0.1441(2) 0.8494(3)
N1F N 0.77570(19) 0.1601(2) 0.5697(4)
N2F N 0.67139(19) 0.2071(2) 0.4073(4)
H1F H 0.703121 0.226514 0.446875
C1F C 0.7547(3) 0.0482(3) 0.8358(5)
H2F H 0.738318 0.022998 0.882440
H3F H 0.780275 0.015051 0.823384
C2F C 0.7841(3) 0.1133(4) 0.8992(5)
H4F H 0.806516 0.100123 0.980167
H5F H 0.757610 0.149633 0.899655
C3F C 0.8726(2) 0.1375(3) 0.8965(4)
C4F C 0.9002(2) 0.1617(3) 0.8311(4)
C5F C 0.8655(2) 0.1897(3) 0.7141(5)
C6F C 0.8257(2) 0.1430(3) 0.6467(4)
C7F C 0.7478(2) 0.0980(3) 0.5510(4)
C8F C 0.6917(2) 0.0915(3) 0.5006(4)
C9F C 0.6561(2) 0.1406(3) 0.4278(4)
C10F C 0.6312(2) 0.2393(3) 0.3177(4)
C11F C 0.5881(2) 0.1905(3) 0.2800(5)
H6F H 0.554599 0.197082 0.216002
C12F C 0.6021(2) 0.1327(3) 0.3499(5)
H7F H 0.579366 0.093376 0.346911
C13F C 0.6715(2) 0.0246(3) 0.5361(5)
C14F C 0.6871(2) 0.0140(3) 0.6536(5)
C15F C 0.6751(2) -0.0514(3) 0.6901(5)
H8F H 0.685663 -0.059829 0.770066
C16F C 0.6484(2) -0.1035(3) 0.6132(5)
H9F H 0.639922 -0.147218 0.640619
C17F C 0.6331(2) -0.0944(3) 0.4954(5)
C18F C 0.6445(2) -0.0292(3) 0.4592(5)
H10F H 0.633415 -0.020856 0.379037
C19F C 0.6071(3) -0.1550(3) 0.4115(5)
C20F C 0.5898(3) -0.1322(3) 0.2888(6)
H11F H 0.621168 -0.114976 0.276397
H12F H 0.573677 -0.173029 0.237971
H13F H 0.563196 -0.093516 0.271682
C21F C 0.6487(3) -0.2156(3) 0.4364(7)
H14F H 0.659567 -0.232119 0.515917
H15F H 0.632590 -0.255560 0.383360
H16F H 0.680312 -0.197818 0.425648
C22F C 0.5585(3) -0.1850(3) 0.4281(6)
H17F H 0.530917 -0.147711 0.410732
H18F H 0.543773 -0.225822 0.376081
H19F H 0.569633 -0.200891 0.507991
C23F C 0.7831(2) 0.0383(3) 0.6047(4)
H20F H 0.773519 -0.011044 0.598355
C24F C 0.8309(2) 0.0655(3) 0.6637(4)
H21F H 0.862688 0.039876 0.708811
C25F C 0.9553(2) 0.1593(3) 0.8759(5)
H22F H 0.973367 0.175611 0.830119
C26F C 0.9860(2) 0.1335(3) 0.9874(5)
C27F C 0.9572(3) 0.1102(3) 1.0487(5)
H23F H 0.976688 0.092341 1.124391
C28F C 0.9027(3) 0.1113(3) 1.0071(5)
H24F H 0.884956 0.094199 1.053068
C29F C 1.0465(3) 0.1316(4) 1.0325(6)
C30F C 1.0641(3) 0.0904(5) 0.9485(7)
H25F H 1.050769 0.115284 0.874193
H26F H 1.103573 0.087961 0.980160
H27F H 1.049272 0.041733 0.937785
C31F C 1.0695(3) 0.2062(5) 1.0401(8)
H28F H 1.062098 0.234119 1.097442
H29F H 1.108568 0.203103 1.063008
H30F H 1.052815 0.229708 0.964822
C32F C 1.0727(3) 0.0933(7) 1.1470(7)
H31F H 1.060675 0.043267 1.138087
H32F H 1.111982 0.094894 1.173043
H33F H 1.062398 0.117014 1.203961
Cl1? Cl 0.99195(13) 0.46790(18) 0.8918(3)
C35? C 1.0282(7) 0.4835(10) 1.0222(15)
H37? H 1.061421 0.506644 1.024128
H38? H 1.039248 0.436184 1.059888
loop_
_geom_bond_atom_site_label_1
_geom_bond_atom_site_label_2
_geom_bond_site_symmetry_1
_geom_bond_site_symmetry_2
O1 C1 1_555 1_555
O2 C2 1_555 1_555
N1 C6 1_555 1_555
N2 H1 1_555 1_555
C1 H2 1_555 1_555
H3 C1 1_555 1_555
C2 C1 1_555 1_555
H4 C2 1_555 1_555
H5 C2 1_555 1_555
C3 O2 1_555 1_555
C4 C3 1_555 1_555
C5 C4 1_555 1_555
C6 C5 1_555 1_555
C7 N1 1_555 1_555
C8 C7 1_555 1_555
C9 N2 1_555 1_555
C10 N2 1_555 1_555
C11 C10 1_555 1_555
H6 C11 1_555 1_555
C12 C9 1_555 1_555
H7 C12 1_555 1_555
C13 C8 1_555 1_555
C14 O1 1_555 1_555
C15 C14 1_555 1_555
H8 C15 1_555 1_555
C16 C15 1_555 1_555
H9 C16 1_555 1_555
C17 C16 1_555 1_555
C18 C13 1_555 1_555
H10 C18 1_555 1_555
C19 C17 1_555 1_555
C20 C19 1_555 1_555
H11 C20 1_555 1_555
H12 C20 1_555 1_555
H13 C20 1_555 1_555
C21 C19 1_555 1_555
H14 C21 1_555 1_555
H15 C21 1_555 1_555
H16 C21 1_555 1_555
C22 C19 1_555 1_555
H17 C22 1_555 1_555
H18 C22 1_555 1_555
H19 C22 1_555 1_555
C23 C7 1_555 1_555
H20 C23 1_555 1_555
C24 C6 1_555 1_555
H21 C24 1_555 1_555
C25 C4 1_555 1_555
H22 C25 1_555 1_555
C26 C25 1_555 1_555
C27 C26 1_555 1_555
H23 C27 1_555 1_555
C28 C3 1_555 1_555
H24 C28 1_555 1_555
C29 C26 1_555 1_555
C30 C29 1_555 1_555
H25 C30 1_555 1_555
H26 C30 1_555 1_555
H27 C30 1_555 1_555
C31 C29 1_555 1_555
H28 C31 1_555 1_555
H29 C31 1_555 1_555
H30 C31 1_555 1_555
C32 C29 1_555 1_555
H31 C32 1_555 1_555
H32 C32 1_555 1_555
H33 C32 1_555 1_555
N3 C33 1_555 1_555
C33 C34 1_555 1_555
C34 H34 1_555 1_555
H35 C34 1_555 1_555
H36 C34 1_555 1_555
O1F C1F 1_555 1_555
O2F C2F 1_555 1_555
N1F C6F 1_555 1_555
N2F H1F 1_555 1_555
C1F H2F 1_555 1_555
H3F C1F 1_555 1_555
C2F C1F 1_555 1_555
H4F C2F 1_555 1_555
H5F C2F 1_555 1_555
C3F O2F 1_555 1_555
C4F C3F 1_555 1_555
C5F C10 1_555 1_555
C6F C5F 1_555 1_555
C7F N1F 1_555 1_555
C8F C7F 1_555 1_555
C9F N2F 1_555 1_555
C10F C5 1_555 1_555
C11F C10F 1_555 1_555
H6F C11F 1_555 1_555
C12F C9F 1_555 1_555
H7F C12F 1_555 1_555
C13F C8F 1_555 1_555
C14F O1F 1_555 1_555
C15F C14F 1_555 1_555
H8F C15F 1_555 1_555
C16F C15F 1_555 1_555
H9F C16F 1_555 1_555
C17F C16F 1_555 1_555
C18F C13F 1_555 1_555
H10F C18F 1_555 1_555
C19F C17F 1_555 1_555
C20F C19F 1_555 1_555
H11F C20F 1_555 1_555
H12F C20F 1_555 1_555
H13F C20F 1_555 1_555
C21F C19F 1_555 1_555
H14F C21F 1_555 1_555
H15F C21F 1_555 1_555
H16F C21F 1_555 1_555
C22F C19F 1_555 1_555
H17F C22F 1_555 1_555
H18F C22F 1_555 1_555
H19F C22F 1_555 1_555
C23F C7F 1_555 1_555
H20F C23F 1_555 1_555
C24F C6F 1_555 1_555
H21F C24F 1_555 1_555
C25F C4F 1_555 1_555
H22F C25F 1_555 1_555
C26F C25F 1_555 1_555
C27F C26F 1_555 1_555
H23F C27F 1_555 1_555
C28F C3F 1_555 1_555
H24F C28F 1_555 1_555
C29F C26F 1_555 1_555
C30F C29F 1_555 1_555
H25F C30F 1_555 1_555
H26F C30F 1_555 1_555
H27F C30F 1_555 1_555
C31F C29F 1_555 1_555
H28F C31F 1_555 1_555
H29F C31F 1_555 1_555
H30F C31F 1_555 1_555
C32F C29F 1_555 1_555
H31F C32F 1_555 1_555
H32F C32F 1_555 1_555
H33F C32F 1_555 1_555
C8 C9 1_555 1_555
C11 C12 1_555 1_555
C13 C14 1_555 1_555
C17 C18 1_555 1_555
C23 C24 1_555 1_555
C27 C28 1_555 1_555
N2F C10F 1_555 1_555
C4F C5F 1_555 1_555
C8F C9F 1_555 1_555
C11F C12F 1_555 1_555
C13F C14F 1_555 1_555
C17F C18F 1_555 1_555
C23F C24F 1_555 1_555
C27F C28F 1_555 1_555

#END
