
#######################################################################
#
#                 Cambridge Crystallographic Data Centre
#                                CCDC 
#
#######################################################################
#
# If this CIF has been generated from an entry in the Cambridge 
# Structural Database, then it will include bibliographic, chemical, 
# crystal, experimental, refinement or atomic coordinate data resulting 
# from the CCDC's data processing and validation procedures.
#
#######################################################################

data_AGAKUR
_chemical_name_common            
"5,15:10,20-bis(2,2'-[hexane-1,6-diylbis(oxy)]bis(5-t-butylphenylene))porphyrin chloroform solvate"
_chemical_formula_moiety         'C72 H84 N4 O4,C1 H1 Cl3'
_chemical_name_systematic        
'9,24,35,50-tetra-t-butyl-13,20,39,46-tetraoxa-57\l^5^,62,63,64\l^5^-tetraazaundecacyclo[25.25.4.4^6,32^.1^2,5^.1^28,31^.1^53,56^.1^58,61^.0^7,12^.0^21,26^.0^33,38^.0^47,52^]tetrahexaconta-1(53),2,4,6(61),7,9,11,21,23,25,27,29,31,33,35,37,47,49,51,54,56,58(64),59-tricosaene chloroform solvate'
_symmetry_cell_setting           monoclinic
_symmetry_space_group_name_H-M   'P 21/c'
_symmetry_Int_Tables_number      14
_space_group_name_Hall           '-P 2ybc'
loop_
_symmetry_equiv_pos_site_id
_symmetry_equiv_pos_as_xyz
1 x,y,z
2 -x,1/2+y,1/2-z
3 -x,-y,-z
4 x,1/2-y,1/2+z
_cell_length_a                   15.965(3)
_cell_length_b                   27.529(4)
_cell_length_c                   15.694(3)
_cell_angle_alpha                90
_cell_angle_beta                 96.929(4)
_cell_angle_gamma                90
_cell_volume                     6847.14
_exptl_crystal_colour            purple
_exptl_crystal_description       Prism
_cell_formula_units_Z            4
_chemical_properties_physical    Photo-sensitive
_exptl_crystal_recrystallization_method chloroform/methanol
_exptl_crystal_preparation       Luminescent
loop_
_atom_site_label
_atom_site_type_symbol
_atom_site_fract_x
_atom_site_fract_y
_atom_site_fract_z
N1 N 0.98212(17) 0.36648(11) 0.0653(2)
H1 H 0.9300 0.3753 0.0704
N2 N 0.88760(14) 0.38661(9) 0.20707(16)
H2 H 0.8746 0.3866 0.1510
N3 N 0.73942(14) 0.40285(9) 0.09273(14)
H3 H 0.7921 0.3955 0.0873
N4 N 0.83380(16) 0.38468(11) -0.04732(17)
H4 H 0.8483 0.3869 0.0084
O1 O 0.73354(13) 0.51577(9) -0.12956(13)
O2 O 0.64457(13) 0.30385(7) 0.23016(13)
C1 C 1.0092(2) 0.34739(12) -0.0077(2)
C2 C 1.0983(2) 0.33736(14) 0.0111(3)
H5 H 1.1333 0.3229 -0.0267
C3 C 1.1228(2) 0.35241(13) 0.0922(3)
H6 H 1.1788 0.3518 0.1206
C4 C 1.0486(2) 0.36971(12) 0.1288(2)
C5 C 0.96726(17) 0.38783(11) 0.2502(2)
C6 C 0.96106(19) 0.38929(11) 0.3411(2)
H7 H 1.0068 0.3920 0.3856
C7 C 0.87829(18) 0.38612(11) 0.35146(19)
H8 H 0.8551 0.3846 0.4044
C8 C 0.83189(17) 0.38546(10) 0.26643(18)
C9 C 0.74375(16) 0.38677(10) 0.24745(17)
C10 C 0.70214(17) 0.39875(11) 0.16640(17)
C11 C 0.61607(16) 0.41398(10) 0.14803(17)
H9 H 0.5749 0.4136 0.1870
C12 C 0.60354(17) 0.42918(11) 0.06489(17)
H10 H 0.5534 0.4429 0.0361
C13 C 0.68146(18) 0.42030(11) 0.02894(18)
C14 C 0.69391(18) 0.42436(12) -0.05741(18)
C15 C 0.7622(2) 0.40295(13) -0.09261(19)
C16 C 0.7633(2) 0.39244(14) -0.1823(2)
H11 H 0.7222 0.4021 -0.2280
C17 C 0.8337(3) 0.36619(14) -0.1894(2)
H12 H 0.8501 0.3528 -0.2406
C18 C 0.8787(2) 0.36229(13) -0.1055(2)
C19 C 0.96315(18) 0.52193(11) 0.11025(19)
H13 H 0.9966 0.5366 0.0704
H14 H 0.9702 0.4874 0.1068
C20 C 0.87048(17) 0.53437(11) 0.08282(19)
H15 H 0.8346 0.5157 0.1183
H16 H 0.8612 0.5694 0.0928
C21 C 0.84454(17) 0.52268(11) -0.01182(19)
H17 H 0.8794 0.5423 -0.0470
H18 H 0.8566 0.4880 -0.0219
C22 C 0.75200(19) 0.53248(12) -0.04150(19)
H19 H 0.7162 0.5150 -0.0043
H20 H 0.7401 0.5677 -0.0381
C23 C 0.65433(18) 0.49569(11) -0.15201(18)
C24 C 0.63141(18) 0.45110(11) -0.11847(17)
C25 C 0.55194(19) 0.43235(11) -0.14518(17)
H21 H 0.5363 0.4025 -0.1212
C26 C 0.49384(19) 0.45535(11) -0.20573(17)
C27 C 0.51992(19) 0.49893(11) -0.24015(18)
H22 H 0.4829 0.5152 -0.2828
C28 C 0.59886(19) 0.51907(11) -0.21353(18)
H23 H 0.6147 0.5489 -0.2376
C29 C 0.4061(2) 0.43299(12) -0.22979(19)
C30 C 0.3565(3) 0.46002(17) -0.3053(3)
H24 H 0.3886 0.4595 -0.3547
H25 H 0.3473 0.4937 -0.2887
H26 H 0.3019 0.4440 -0.3207
C31 C 0.3572(2) 0.43657(16) -0.1522(2)
H27 H 0.3013 0.4219 -0.1662
H28 H 0.3509 0.4708 -0.1370
H29 H 0.3880 0.4193 -0.1035
C32 C 0.4130(2) 0.37962(13) -0.2546(2)
H30 H 0.4403 0.3613 -0.2054
H31 H 0.4466 0.3769 -0.3026
H32 H 0.3564 0.3665 -0.2717
C33 C 0.64504(16) 0.32945(10) 0.30624(17)
C34 C 0.69061(16) 0.37296(10) 0.31566(16)
C35 C 0.68741(16) 0.39977(10) 0.39065(16)
H33 H 0.7168 0.4298 0.3968
C36 C 0.64283(16) 0.38430(10) 0.45716(17)
C37 C 0.59923(17) 0.34054(11) 0.44517(17)
H34 H 0.5687 0.3288 0.4893
C38 C 0.59933(17) 0.31367(11) 0.37007(18)
H35 H 0.5678 0.2844 0.3628
C39 C 0.64615(18) 0.41438(11) 0.53952(17)
C40 C 0.7377(2) 0.41621(12) 0.58254(19)
H36 H 0.7575 0.3832 0.5967
H37 H 0.7405 0.4356 0.6352
H38 H 0.7735 0.4310 0.5432
C41 C 0.5916(2) 0.39224(15) 0.6036(2)
H39 H 0.6121 0.3595 0.6195
H40 H 0.5328 0.3904 0.5772
H41 H 0.5950 0.4126 0.6551
C42 C 0.6158(3) 0.46651(13) 0.5185(2)
H42 H 0.6156 0.4850 0.5719
H43 H 0.5586 0.4656 0.4879
H44 H 0.6539 0.4822 0.4823
O3 O 1.0814(3) 0.46887(18) 0.2228(3)
C43 C 1.1399(2) 0.43906(13) 0.2675(3)
C44 C 1.1203(3) 0.38996(14) 0.2593(3)
C45 C 1.1738(4) 0.35554(10) 0.3016(4)
H45 H 1.1604 0.3220 0.2960
C46 C 1.2470(3) 0.37022(13) 0.3521(3)
C47 C 1.2666(2) 0.41932(15) 0.3603(3)
H46 H 1.3166 0.4294 0.3948
C48 C 1.2130(2) 0.45374(11) 0.3180(3)
H47 H 1.2264 0.4873 0.3236
C49 C 1.0384(4) 0.3811(11) 0.2112(7)
C50 C 0.9567(2) 0.33817(19) -0.0890(2)
C51 C 0.7355(7) 0.2780(4) 0.0872(5)
H48 H 0.7663 0.3064 0.1138
H49 H 0.6790 0.2901 0.0637
C52 C 0.6900(6) 0.2583(3) 0.2422(6)
H50 H 0.6522 0.2321 0.2579
H51 H 0.7380 0.2614 0.2881
C53 C 0.7211(6) 0.2475(3) 0.1570(5)
H52 H 0.7756 0.2307 0.1726
H53 H 0.6819 0.2222 0.1308
C54 C 0.7774(3) 0.26624(17) 0.0126(3)
H54 H 0.8135 0.2944 0.0025
H55 H 0.7329 0.2646 -0.0371
C55 C 0.8317(3) 0.22104(17) 0.0086(4)
H56 H 0.7960 0.1929 -0.0115
H57 H 0.8611 0.2134 0.0662
C56 C 0.8969(6) 0.2315(4) -0.0549(7)
H58 H 0.9358 0.2561 -0.0264
H59 H 0.9303 0.2013 -0.0568
C57 C 0.94447(17) 0.26414(10) -0.1852(2)
C58 C 0.9844(2) 0.30794(10) -0.16262(19)
C59 C 1.0466(2) 0.32539(11) -0.2094(3)
H60 H 1.0739 0.3553 -0.1940
C60 C 1.0689(2) 0.29903(14) -0.2788(3)
C61 C 1.0289(2) 0.25523(14) -0.3014(2)
H61 H 1.0441 0.2372 -0.3489
C62 C 0.96670(19) 0.23779(10) -0.2546(3)
H62 H 0.9394 0.2079 -0.2701
O4 O 0.87846(18) 0.24724(11) -0.1434(2)
C63 C 1.0845(4) 0.5206(2) 0.2306(6)
H63 H 1.1256 0.5344 0.1947
H64 H 1.1013 0.5302 0.2910
C64 C 0.9959(4) 0.5385(3) 0.1999(4)
H65 H 0.9571 0.5268 0.2401
H66 H 0.9957 0.5744 0.2015
C65 C 1.3046(5) 0.3292(3) 0.3946(5)
C66 C 1.3575(8) 0.3178(5) 0.3199(7)
H67 H 1.3207 0.3184 0.2652
H68 H 1.3832 0.2856 0.3286
H69 H 1.4020 0.3423 0.3190
C67 C 1.3569(6) 0.3484(4) 0.4746(5)
H70 H 1.3953 0.3737 0.4586
H71 H 1.3897 0.3218 0.5036
H72 H 1.3194 0.3622 0.5134
C68 C 1.2557(13) 0.2826(6) 0.4147(7)
H73 H 1.2111 0.2911 0.4499
H74 H 1.2947 0.2595 0.4461
H75 H 1.2304 0.2677 0.3609
C69 C 1.1327(5) 0.3184(4) -0.3365(4)
C70 C 1.1661(10) 0.3697(4) -0.3107(8)
H76 H 1.1188 0.3926 -0.3144
H77 H 1.2062 0.3801 -0.3497
H78 H 1.1944 0.3689 -0.2517
C71 C 1.2098(9) 0.2842(6) -0.3322(10)
H79 H 1.2368 0.2822 -0.2728
H80 H 1.2502 0.2970 -0.3688
H81 H 1.1912 0.2518 -0.3521
C72 C 1.0927(6) 0.3214(4) -0.4310(5)
H82 H 1.0729 0.2892 -0.4506
H83 H 1.1349 0.3330 -0.4667
H84 H 1.0449 0.3440 -0.4356
C103 C 0.4818(2) 0.31177(13) 0.0900(2)
H127 H 0.5347 0.3229 0.1253
Cl1 Cl 0.44844(7) 0.25749(4) 0.13502(7)
Cl2 Cl 0.40530(7) 0.35716(5) 0.09202(8)
Cl3 Cl 0.50437(10) 0.30191(5) -0.01564(8)
H85? H 0.9977 0.5470 0.0904
H86? H 0.9764 0.4921 0.0831
O5? O 1.0859(3) 0.47891(16) 0.3193(3)
C73? C 1.0484(4) 0.3843(13) 0.2183(7)
C74? C 0.9644(5) 0.3547(4) -0.0828(5)
C75? C 1.0763(5) 0.4993(4) 0.2336(5)
H87? H 1.0906 0.4744 0.1921
H88? H 1.1155 0.5270 0.2313
C76? C 0.9854(5) 0.5165(3) 0.2094(4)
H89? H 0.9776 0.5482 0.2372
H90? H 0.9463 0.4929 0.2311
C77? C 1.3126(6) 0.3217(3) 0.3982(6)
C78? C 1.3649(7) 0.3073(5) 0.3251(6)
H91? H 1.3269 0.2959 0.2754
H92? H 1.4045 0.2814 0.3450
H93? H 1.3964 0.3357 0.3085
C79? C 1.3781(5) 0.3289(4) 0.4773(4)
H94? H 1.4194 0.3533 0.4646
H95? H 1.4071 0.2980 0.4920
H96? H 1.3497 0.3398 0.5259
C80? C 1.2668(14) 0.2759(7) 0.4204(8)
H97? H 1.2351 0.2824 0.4689
H98? H 1.3080 0.2500 0.4360
H99? H 1.2278 0.2656 0.3707
C81? C 1.1399(2) 0.43944(14) 0.3341(3)
C82? C 1.1250(3) 0.39522(17) 0.2922(3)
C83? C 1.1791(4) 0.35626(14) 0.3127(4)
H100? H 1.1688 0.3260 0.2841
C84? C 1.2481(3) 0.36151(14) 0.3751(4)
C85? C 1.2630(2) 0.40573(16) 0.4169(3)
H101? H 1.3101 0.4093 0.4596
C86? C 1.2089(3) 0.44469(13) 0.3964(3)
H102? H 1.2191 0.4749 0.4250
C87? C 0.6676(7) 0.2531(3) 0.2295(9)
H103? H 0.6239 0.2355 0.1912
H104? H 0.6670 0.2399 0.2881
C88? C 0.7534(6) 0.2423(5) 0.2005(7)
H105? H 0.7720 0.2088 0.2160
H106? H 0.7967 0.2655 0.2258
C89? C 0.7354(6) 0.2486(4) 0.1017(7)
H107? H 0.6915 0.2255 0.0769
H108? H 0.7165 0.2821 0.0867
C90? C 0.8211(5) 0.2377(4) 0.0685(5)
H109? H 0.8644 0.2610 0.0938
H110? H 0.8400 0.2044 0.0854
C91? C 0.8095(5) 0.2423(4) -0.0291(5)
H111? H 0.8067 0.2770 -0.0459
H112? H 0.7564 0.2263 -0.0534
C92? C 0.8852(10) 0.2178(6) -0.0629(13)
H113? H 0.9140 0.1939 -0.0222
H114? H 0.8712 0.2030 -0.1204
O6? O 0.9284(4) 0.2616(2) -0.0646(4)
C93? C 1.1213(10) 0.3122(7) -0.3314(8)
C94? C 1.1508(17) 0.3655(7) -0.3236(12)
H115? H 1.1015 0.3870 -0.3272
H116? H 1.1842 0.3732 -0.3703
H117? H 1.1854 0.3703 -0.2683
C95? C 1.2003(17) 0.2799(11) -0.328(2)
H118? H 1.2351 0.2841 -0.2730
H119? H 1.2330 0.2892 -0.3748
H120? H 1.1832 0.2458 -0.3353
C96? C 1.0699(9) 0.3061(5) -0.4206(8)
H121? H 1.0601 0.2714 -0.4324
H122? H 1.1014 0.3201 -0.4645
H123? H 1.0157 0.3228 -0.4214
C97? C 0.9726(4) 0.27096(18) -0.1335(4)
C98? C 1.0035(4) 0.31813(17) -0.1348(4)
C99? C 1.0530(5) 0.33199(19) -0.1977(5)
H124? H 1.0741 0.3642 -0.1986
C100? C 1.0715(5) 0.2987(3) -0.2593(4)
C101? C 1.0406(4) 0.2515(2) -0.2580(4)
H125? H 1.0533 0.2288 -0.3001
C102? C 0.9911(4) 0.23767(15) -0.1951(4)
H126? H 0.9700 0.2054 -0.1942
loop_
_geom_bond_atom_site_label_1
_geom_bond_atom_site_label_2
_geom_bond_site_symmetry_1
_geom_bond_site_symmetry_2
N1 H1 1_555 1_555
N2 H2 1_555 1_555
N3 H3 1_555 1_555
N4 H4 1_555 1_555
O1 C22 1_555 1_555
O2 C33 1_555 1_555
C1 N1 1_555 1_555
C2 C1 1_555 1_555
H5 C2 1_555 1_555
C3 C2 1_555 1_555
H6 C3 1_555 1_555
C4 N1 1_555 1_555
C5 N2 1_555 1_555
C6 C5 1_555 1_555
H7 C6 1_555 1_555
C7 C6 1_555 1_555
H8 C7 1_555 1_555
C8 N2 1_555 1_555
C9 C8 1_555 1_555
C10 N3 1_555 1_555
C11 C10 1_555 1_555
H9 C11 1_555 1_555
C12 C11 1_555 1_555
H10 C12 1_555 1_555
C13 N3 1_555 1_555
C14 C13 1_555 1_555
C15 N4 1_555 1_555
C16 C15 1_555 1_555
H11 C16 1_555 1_555
C17 C16 1_555 1_555
H12 C17 1_555 1_555
C18 N4 1_555 1_555
C19 H13 1_555 1_555
H14 C19 1_555 1_555
C20 C19 1_555 1_555
H15 C20 1_555 1_555
H16 C20 1_555 1_555
C21 C20 1_555 1_555
H17 C21 1_555 1_555
H18 C21 1_555 1_555
C22 C21 1_555 1_555
H19 C22 1_555 1_555
H20 C22 1_555 1_555
C23 O1 1_555 1_555
C24 C14 1_555 1_555
C25 C24 1_555 1_555
H21 C25 1_555 1_555
C26 C25 1_555 1_555
C27 C26 1_555 1_555
H22 C27 1_555 1_555
C28 C23 1_555 1_555
H23 C28 1_555 1_555
C29 C26 1_555 1_555
C30 C29 1_555 1_555
H24 C30 1_555 1_555
H25 C30 1_555 1_555
H26 C30 1_555 1_555
C31 C29 1_555 1_555
H27 C31 1_555 1_555
H28 C31 1_555 1_555
H29 C31 1_555 1_555
C32 C29 1_555 1_555
H30 C32 1_555 1_555
H31 C32 1_555 1_555
H32 C32 1_555 1_555
C33 C34 1_555 1_555
C34 C9 1_555 1_555
C35 C34 1_555 1_555
H33 C35 1_555 1_555
C36 C35 1_555 1_555
C37 C36 1_555 1_555
H34 C37 1_555 1_555
C38 C33 1_555 1_555
H35 C38 1_555 1_555
C39 C36 1_555 1_555
C40 C39 1_555 1_555
H36 C40 1_555 1_555
H37 C40 1_555 1_555
H38 C40 1_555 1_555
C41 C39 1_555 1_555
H39 C41 1_555 1_555
H40 C41 1_555 1_555
H41 C41 1_555 1_555
C42 C39 1_555 1_555
H42 C42 1_555 1_555
H43 C42 1_555 1_555
H44 C42 1_555 1_555
O3 C43 1_555 1_555
C43 C44 1_555 1_555
C44 C45 1_555 1_555
C45 H45 1_555 1_555
C46 C45 1_555 1_555
C47 C46 1_555 1_555
H46 C47 1_555 1_555
C48 C43 1_555 1_555
H47 C48 1_555 1_555
C49 C4 1_555 1_555
C50 C1 1_555 1_555
C51 H48 1_555 1_555
H49 C51 1_555 1_555
C52 O2 1_555 1_555
H50 C52 1_555 1_555
H51 C52 1_555 1_555
C53 C51 1_555 1_555
H52 C53 1_555 1_555
H53 C53 1_555 1_555
C54 C51 1_555 1_555
H54 C54 1_555 1_555
H55 C54 1_555 1_555
C55 C54 1_555 1_555
H56 C55 1_555 1_555
H57 C55 1_555 1_555
C56 C55 1_555 1_555
H58 C56 1_555 1_555
H59 C56 1_555 1_555
C57 C58 1_555 1_555
C58 C50 1_555 1_555
C59 C58 1_555 1_555
H60 C59 1_555 1_555
C60 C59 1_555 1_555
C61 C60 1_555 1_555
H61 C61 1_555 1_555
C62 C57 1_555 1_555
H62 C62 1_555 1_555
O4 C56 1_555 1_555
C63 O3 1_555 1_555
H63 C63 1_555 1_555
H64 C63 1_555 1_555
C64 C19 1_555 1_555
H65 C64 1_555 1_555
H66 C64 1_555 1_555
C65 C46 1_555 1_555
C66 C65 1_555 1_555
H67 C66 1_555 1_555
H68 C66 1_555 1_555
H69 C66 1_555 1_555
C67 C65 1_555 1_555
H70 C67 1_555 1_555
H71 C67 1_555 1_555
H72 C67 1_555 1_555
C68 C65 1_555 1_555
H73 C68 1_555 1_555
H74 C68 1_555 1_555
H75 C68 1_555 1_555
C69 C60 1_555 1_555
C70 C69 1_555 1_555
H76 C70 1_555 1_555
H77 C70 1_555 1_555
H78 C70 1_555 1_555
C71 C69 1_555 1_555
H79 C71 1_555 1_555
H80 C71 1_555 1_555
H81 C71 1_555 1_555
C72 C69 1_555 1_555
H82 C72 1_555 1_555
H83 C72 1_555 1_555
H84 C72 1_555 1_555
C103 H127 1_555 1_555
Cl1 C103 1_555 1_555
Cl2 C103 1_555 1_555
Cl3 C103 1_555 1_555
C3 C4 1_555 1_555
C5 C49 1_555 1_555
C7 C8 1_555 1_555
C9 C10 1_555 1_555
C12 C13 1_555 1_555
C14 C15 1_555 1_555
C17 C18 1_555 1_555
C18 C50 1_555 1_555
C23 C24 1_555 1_555
C27 C28 1_555 1_555
C37 C38 1_555 1_555
C44 C49 1_555 1_555
C47 C48 1_555 1_555
C52 C53 1_555 1_555
C57 O4 1_555 1_555
C61 C62 1_555 1_555
C63 C64 1_555 1_555

#END
