
#######################################################################
#
#                 Cambridge Crystallographic Data Centre
#                                CCDC 
#
#######################################################################
#
# If this CIF has been generated from an entry in the Cambridge 
# Structural Database, then it will include bibliographic, chemical, 
# crystal, experimental, refinement or atomic coordinate data resulting 
# from the CCDC's data processing and validation procedures.
#
#######################################################################

data_AGAKAX
_chemical_name_common            
"5,10:15,20-bis(2,2'-[pentane-1,5-diylbis(oxy)]bis(5-t-butylphenylene))porphyrin chloroform solvate"
_chemical_formula_moiety         'C70 H78 N4 O4,C1 H1 Cl3'
_chemical_name_systematic        
'9,23,34,48-tetra-t-butyl-13,19,38,44-tetraoxa-55,56,61,62-tetraazaundecacyclo[29.19.4.4^6,26^.1^2,5^.1^27,30^.1^51,54^.1^57,60^.0^7,12^.0^20,25^.0^32,37^.0^45,50^]dohexaconta-1(51),2,4,6(60),7,9,11,20,22,24,26,28,30,32,34,36,45,47,49,52,54,57(62),58-tricosaene chloroform unknown solvate'
_symmetry_cell_setting           triclinic
_symmetry_space_group_name_H-M   'P -1'
_symmetry_Int_Tables_number      2
_space_group_name_Hall           '-P 1'
loop_
_symmetry_equiv_pos_site_id
_symmetry_equiv_pos_as_xyz
1 x,y,z
2 -x,-y,-z
_cell_length_a                   14.0704(7)
_cell_length_b                   15.4579(8)
_cell_length_c                   16.7918(7)
_cell_angle_alpha                94.439(4)
_cell_angle_beta                 104.380(4)
_cell_angle_gamma                95.483(4)
_cell_volume                     3502.17
_exptl_crystal_colour            purple
_exptl_crystal_description       Block
_cell_formula_units_Z            2
_chemical_properties_physical    Photo-sensitive
_exptl_crystal_recrystallization_method chloroform/methanol
_exptl_crystal_preparation       Luminescent
loop_
_atom_site_label
_atom_site_type_symbol
_atom_site_fract_x
_atom_site_fract_y
_atom_site_fract_z
Cl1 Cl 0.55416(12) 0.66986(14) 0.81842(17)
Cl2 Cl 0.35143(15) 0.60575(14) 0.8004(2)
Cl3 Cl 0.4059(2) 0.78486(15) 0.7914(3)
C1 C 0.4339(4) 0.6788(4) 0.7696(5)
H1 H 0.428013 0.670650 0.710087
N1 N 1.0270(2) 0.96466(17) 0.38706(17)
H2 H 1.016223 0.979591 0.434159
N2 N 0.8733(2) 1.04744(18) 0.44138(17)
O1 O 1.18196(18) 0.72813(15) 0.45790(16)
O2 O 0.8922(2) 1.18166(17) 0.25283(16)
C2 C 1.2553(3) 0.7607(2) 0.4240(2)
C3 C 1.3266(3) 0.7134(2) 0.4038(2)
H3 H 1.325791 0.654453 0.411476
C4 C 1.3985(3) 0.7542(2) 0.3724(2)
H4 H 1.446434 0.721861 0.360041
C5 C 1.4025(3) 0.8420(2) 0.3584(2)
C6 C 1.3293(3) 0.8880(2) 0.3788(2)
H5 H 1.329495 0.946771 0.370445
C7 C 1.2565(2) 0.8485(2) 0.4110(2)
C8 C 1.1808(2) 0.8993(2) 0.4357(2)
C9 C 1.1035(2) 0.9227(2) 0.3739(2)
C10 C 1.0948(3) 0.9084(2) 0.2862(2)
H6 H 1.136721 0.880066 0.260895
C11 C 1.0143(3) 0.9442(2) 0.2483(2)
H7 H 0.990907 0.946401 0.191655
C12 C 0.9709(3) 0.9784(2) 0.3116(2)
C13 C 0.8825(3) 1.0165(2) 0.2969(2)
C14 C 0.8375(3) 1.0457(2) 0.3575(2)
C15 C 0.7443(3) 1.0799(2) 0.3419(2)
H8 H 0.702924 1.084547 0.290198
C16 C 0.7268(3) 1.1041(2) 0.4158(2)
H9 H 0.672086 1.129416 0.423805
C17 C 0.8077(2) 1.0839(2) 0.4793(2)
C18 C 0.8342(3) 1.0339(2) 0.2112(2)
C19 C 0.8386(3) 1.1212(3) 0.1915(2)
C20 C 0.7898(3) 1.1386(3) 0.1135(2)
H10 H 0.793033 1.195661 0.099518
C21 C 0.7350(4) 1.0705(3) 0.0550(2)
H11 H 0.701983 1.083731 0.002997
C22 C 0.7288(3) 0.9850(3) 0.0721(3)
C23 C 0.7799(3) 0.9686(3) 0.1518(2)
H12 H 0.777048 0.911293 0.165196
C24 C 0.8899(3) 1.2729(3) 0.2425(2)
H13 H 0.822879 1.284235 0.217875
H14 H 0.930927 1.290359 0.206410
C25 C 0.9283(3) 1.3233(3) 0.3264(3)
H15 H 0.987622 1.360014 0.341850
C26 C 0.8615(3) 1.3088(3) 0.3839(3)
H16 H 0.861191 1.248762 0.396974
H17 H 0.794622 1.316284 0.354472
C27 C 0.8897(3) 1.3692(2) 0.4654(2)
H18 H 0.953385 1.357408 0.498165
H19 H 0.896340 1.429479 0.453108
C28 C 0.8156(3) 1.3578(2) 0.5146(3)
H20 H 0.831535 1.401931 0.561794
H21 H 0.750154 1.363711 0.480933
C29 C 1.4864(3) 0.8866(3) 0.3274(3)
C30 C 1.5852(3) 0.8800(4) 0.3881(4)
H22 H 1.586336 0.908780 0.441191
H23 H 1.637730 0.907430 0.368352
H24 H 1.593636 0.819588 0.393178
C31 C 1.4851(4) 0.8390(4) 0.2424(3)
H25 H 1.537144 0.866629 0.222141
H26 H 1.422601 0.841797 0.204043
H27 H 1.494804 0.778937 0.248492
C32 C 1.4765(3) 0.9825(3) 0.3151(3)
H28 H 1.482439 1.015055 0.367458
H29 H 1.413122 0.987101 0.278687
H30 H 1.527670 1.005566 0.291246
C33 C 0.6688(4) 0.9099(4) 0.0098(3)
C34 C 0.614(2) 0.9360(11) -0.0725(8)
H31 H 0.587679 0.884540 -0.110239
H32 H 0.659179 0.971874 -0.094483
H33 H 0.561500 0.968221 -0.065251
C35 C 0.5864(14) 0.8709(16) 0.0447(14)
H34 H 0.539528 0.912042 0.045200
H35 H 0.613707 0.857584 0.100085
H36 H 0.553793 0.818259 0.010887
C36 C 0.7285(5) 0.8347(4) 0.0057(4)
H37 H 0.749001 0.815195 0.059571
H38 H 0.785758 0.853346 -0.012815
H39 H 0.688976 0.787580 -0.032304
N1A N 0.9730(2) 1.03534(17) 0.61294(17)
H2A H 0.983777 1.020409 0.565841
N2A N 1.1267(2) 0.95256(18) 0.55862(17)
O1A O 0.81804(18) 1.27187(15) 0.54210(16)
O2A O 1.1078(2) 0.81834(17) 0.74717(16)
C2A C 0.7447(3) 1.2393(2) 0.5760(2)
C3A C 0.6734(3) 1.2866(2) 0.5962(2)
H3A H 0.674209 1.345547 0.588524
C4A C 0.6015(3) 1.2458(2) 0.6276(2)
H4A H 0.553566 1.278139 0.639959
C5A C 0.5975(3) 1.1580(2) 0.6416(2)
C6A C 0.6707(3) 1.1120(2) 0.6212(2)
H5A H 0.670505 1.053229 0.629555
C7A C 0.7435(2) 1.1515(2) 0.5890(2)
C8A C 0.8192(2) 1.1007(2) 0.5643(2)
C9A C 0.8965(2) 1.0773(2) 0.6261(2)
C10A C 0.9052(3) 1.0916(2) 0.7138(2)
H6A H 0.863279 1.119934 0.739105
C11A C 0.9857(3) 1.0558(2) 0.7517(2)
H7A H 1.009093 1.053599 0.808345
C12A C 1.0291(3) 1.0216(2) 0.6884(2)
C13A C 1.1175(3) 0.9835(2) 0.7031(2)
C14A C 1.1625(3) 0.9543(2) 0.6425(2)
C15A C 1.2557(3) 0.9201(2) 0.6581(2)
H8A H 1.297076 0.915453 0.709802
C16A C 1.2732(3) 0.8959(2) 0.5842(2)
H9A H 1.327914 0.870584 0.576195
C17A C 1.1923(2) 0.9161(2) 0.5207(2)
C18A C 1.1658(3) 0.9661(2) 0.7888(2)
C19A C 1.1614(3) 0.8788(3) 0.8085(2)
C20A C 1.2102(3) 0.8614(3) 0.8865(2)
H10A H 1.206967 0.804339 0.900482
C21A C 1.2650(4) 0.9295(3) 0.9450(2)
H11A H 1.298017 0.916269 0.997003
C22A C 1.2712(3) 1.0150(3) 0.9279(3)
C23A C 1.2201(3) 1.0314(3) 0.8482(2)
H12A H 1.222952 1.088707 0.834804
C24A C 1.1101(3) 0.7271(3) 0.7575(2)
H13A H 1.177121 0.715765 0.782125
H14A H 1.069073 0.709641 0.793590
C25A C 1.0717(3) 0.6767(3) 0.6736(3)
H15A H 1.012378 0.639986 0.658150
C26A C 1.1385(3) 0.6912(3) 0.6161(3)
H16A H 1.138809 0.751238 0.603026
H17A H 1.205378 0.683716 0.645528
C27A C 1.1103(3) 0.6308(2) 0.5346(2)
H18A H 1.046615 0.642592 0.501835
H19A H 1.103660 0.570521 0.546892
C28A C 1.1844(3) 0.6422(2) 0.4854(3)
H20A H 1.168465 0.598069 0.438206
H21A H 1.249846 0.636289 0.519067
C29A C 0.5136(3) 1.1134(3) 0.6726(3)
C30A C 0.4148(3) 1.1200(4) 0.6119(4)
H22A H 0.413664 1.091220 0.558809
H23A H 0.362270 1.092570 0.631648
H24A H 0.406364 1.180412 0.606822
C31A C 0.5149(4) 1.1610(4) 0.7576(3)
H25A H 0.462856 1.133371 0.777859
H26A H 0.577399 1.158203 0.795957
H27A H 0.505196 1.221063 0.751508
C32A C 0.5235(3) 1.0175(3) 0.6849(3)
H28A H 0.517561 0.984945 0.632542
H29A H 0.586878 1.012899 0.721313
H30A H 0.472330 0.994434 0.708754
C33A C 1.3312(4) 1.0901(4) 0.9902(3)
C34A C 1.386(2) 1.0640(11) 1.0725(8)
H31A H 1.412321 1.115460 1.110239
H32A H 1.340821 1.028126 1.094483
H33A H 1.438500 1.031779 1.065251
C35A C 1.4136(14) 1.1291(16) 0.9553(14)
H34A H 1.460472 1.087958 0.954800
H35A H 1.386293 1.142416 0.899915
H36A H 1.446207 1.181741 0.989113
C36A C 1.2715(5) 1.1653(4) 0.9943(4)
H37A H 1.250999 1.184805 0.940429
H38A H 1.214242 1.146654 1.012815
H39A H 1.311024 1.212420 1.032304
N3 N 0.6467(2) 0.54227(18) 0.55213(17)
N4 N 0.4876(2) 0.45967(18) 0.61188(17)
O3 O 0.76073(19) 0.65446(17) 0.78564(15)
O4 O 0.77831(19) 0.76227(16) 0.50505(16)
C37 C 0.7794(3) 0.5801(2) 0.8216(2)
C38 C 0.8423(3) 0.5765(3) 0.8994(2)
H40 H 0.876385 0.627891 0.929873
C39 C 0.8549(3) 0.4972(3) 0.9322(2)
H41 H 0.897165 0.496568 0.984369
C40 C 0.8052(3) 0.4182(3) 0.8882(2)
C41 C 0.7445(2) 0.4234(2) 0.8111(2)
H42 H 0.711379 0.371664 0.780659
C42 C 0.7296(2) 0.5007(2) 0.7760(2)
C43 C 0.6598(2) 0.5013(2) 0.6928(2)
C44 C 0.6987(2) 0.5321(2) 0.6300(2)
C45 C 0.8024(2) 0.5568(2) 0.6371(2)
H43 H 0.854356 0.554555 0.683306
C46 C 0.8099(2) 0.5835(2) 0.5643(2)
H44 H 0.867956 0.603453 0.551060
C47 C 0.7123(2) 0.5758(2) 0.5110(2)
C48 C 0.5612(2) 0.4675(2) 0.6838(2)
C49 C 0.5221(3) 0.4313(2) 0.7473(2)
H45 H 0.556103 0.430130 0.802187
C50 C 0.4263(3) 0.3991(2) 0.7119(2)
H46 H 0.383467 0.370044 0.737822
C51 C 0.4029(2) 0.4180(2) 0.6267(2)
C52 C 0.3107(2) 0.4003(2) 0.5706(2)
C53 C 0.2293(2) 0.3526(2) 0.5979(2)
C54 C 0.1968(2) 0.3877(2) 0.6639(2)
H47 H 0.223812 0.443552 0.688410
C55 C 0.1255(3) 0.3425(2) 0.6947(2)
C56 C 0.0861(3) 0.2598(3) 0.6549(2)
H48 H 0.038287 0.227939 0.673862
C57 C 0.1151(3) 0.2231(3) 0.5881(2)
H49 H 0.086164 0.168039 0.562594
C58 C 0.1871(3) 0.2686(2) 0.5597(2)
C59 C 0.8177(4) 0.7348(3) 0.8237(2)
H50 H 0.887553 0.729546 0.832343
H51 H 0.804885 0.749997 0.876853
C60 C 0.7885(4) 0.8047(3) 0.7669(3)
H52 H 0.717529 0.805437 0.754939
H53 H 0.819671 0.861225 0.795154
C61 C 0.8175(3) 0.7908(2) 0.6862(3)
H54 H 0.788474 0.733166 0.659441
H55 H 0.888761 0.791870 0.698552
C62 C 0.7865(3) 0.8577(2) 0.6259(3)
H56 H 0.714949 0.853315 0.609387
H57 H 0.811122 0.915857 0.653631
C63 C 0.8245(3) 0.8453(2) 0.5495(3)
H58 H 0.808142 0.892098 0.515056
H59 H 0.895757 0.846015 0.565039
C64 C 0.8111(3) 0.3301(3) 0.9240(2)
C65 C 0.7150(3) 0.3059(4) 0.9504(3)
H60 H 0.658974 0.306011 0.904074
H61 H 0.710978 0.347798 0.994346
H62 H 0.715289 0.248750 0.969104
C66 C 0.8201(3) 0.2582(3) 0.8603(3)
H63 H 0.878377 0.272963 0.841852
H64 H 0.762996 0.252146 0.814044
H65 H 0.824577 0.204140 0.884700
C67 C 0.8993(3) 0.3330(3) 0.9989(3)
H66 H 0.900779 0.276615 1.019049
H67 H 0.893412 0.375650 1.041579
H68 H 0.959279 0.348692 0.983144
C68 C 0.0906(3) 0.3806(3) 0.7680(2)
C69 C 0.1029(3) 0.3157(3) 0.8345(3)
H69 H 0.170253 0.303302 0.849564
H70 H 0.060113 0.262533 0.812836
H71 H 0.086027 0.341102 0.882427
C70 C -0.0172(3) 0.3953(4) 0.7390(3)
H72 H -0.037875 0.422205 0.784298
H73 H -0.056870 0.340235 0.718881
H74 H -0.024886 0.432781 0.695369
C71 C 0.1504(4) 0.4672(3) 0.8085(3)
H75 H 0.219179 0.459684 0.825077
H76 H 0.128765 0.486518 0.856071
H77 H 0.140754 0.510120 0.769681
N3A N 0.3533(2) 0.45773(18) 0.44787(17)
N4A N 0.5124(2) 0.54033(18) 0.38812(17)
O3A O 0.23927(19) 0.34554(17) 0.21436(15)
O4A O 0.22169(19) 0.23773(16) 0.49495(16)
C37A C 0.2206(3) 0.4199(2) 0.1784(2)
C38A C 0.1577(3) 0.4235(3) 0.1006(2)
H40A H 0.123615 0.372109 0.070127
C39A C 0.1451(3) 0.5028(3) 0.0678(2)
H41A H 0.102835 0.503432 0.015631
C40A C 0.1948(3) 0.5818(3) 0.1118(2)
C41A C 0.2555(2) 0.5766(2) 0.1889(2)
H42A H 0.288621 0.628336 0.219341
C42A C 0.2704(2) 0.4993(2) 0.2240(2)
C43A C 0.3402(2) 0.4987(2) 0.3072(2)
C44A C 0.3013(2) 0.4679(2) 0.3700(2)
C45A C 0.1976(2) 0.4432(2) 0.3629(2)
H43A H 0.145644 0.445445 0.316694
C46A C 0.1901(2) 0.4165(2) 0.4357(2)
H44A H 0.132044 0.396547 0.448940
C47A C 0.2877(2) 0.4242(2) 0.4890(2)
C48A C 0.4388(2) 0.5325(2) 0.3162(2)
C49A C 0.4779(3) 0.5687(2) 0.2527(2)
H45A H 0.443897 0.569870 0.197813
C50A C 0.5737(3) 0.6009(2) 0.2881(2)
H46A H 0.616533 0.629956 0.262178
C51A C 0.5971(2) 0.5820(2) 0.3733(2)
C52A C 0.6893(2) 0.5997(2) 0.4294(2)
C53A C 0.7707(2) 0.6474(2) 0.4021(2)
C54A C 0.8032(2) 0.6123(2) 0.3361(2)
H47A H 0.776188 0.556448 0.311590
C55A C 0.8745(3) 0.6575(2) 0.3053(2)
C56A C 0.9139(3) 0.7402(3) 0.3451(2)
H48A H 0.961713 0.772061 0.326138
C57A C 0.8849(3) 0.7769(3) 0.4119(2)
H49A H 0.913836 0.831961 0.437406
C58A C 0.8129(3) 0.7314(2) 0.4403(2)
C59A C 0.1823(4) 0.2652(3) 0.1763(2)
H50A H 0.112447 0.270454 0.167657
H51A H 0.195115 0.250003 0.123147
C60A C 0.2115(4) 0.1953(3) 0.2331(3)
H52A H 0.282471 0.194563 0.245061
H53A H 0.180329 0.138775 0.204846
C61A C 0.1825(3) 0.2092(2) 0.3138(3)
H54A H 0.211526 0.266834 0.340559
H55A H 0.111239 0.208130 0.301448
C62A C 0.2135(3) 0.1423(2) 0.3741(3)
H56A H 0.285051 0.146685 0.390613
H57A H 0.188878 0.084143 0.346369
C63A C 0.1755(3) 0.1547(2) 0.4505(3)
H58A H 0.191858 0.107902 0.484944
H59A H 0.104243 0.153985 0.434961
C64A C 0.1889(3) 0.6699(3) 0.0760(2)
C65A C 0.2850(3) 0.6941(4) 0.0496(3)
H60A H 0.341026 0.693989 0.095926
H61A H 0.289022 0.652202 0.005654
H62A H 0.284711 0.751250 0.030896
C66A C 0.1799(3) 0.7418(3) 0.1397(3)
H63A H 0.121623 0.727037 0.158148
H64A H 0.237004 0.747854 0.185956
H65A H 0.175423 0.795860 0.115300
C67A C 0.1007(3) 0.6670(3) 0.0011(3)
H66A H 0.099221 0.723385 -0.019049
H67A H 0.106588 0.624350 -0.041579
H68A H 0.040721 0.651308 0.016856
C68A C 0.9094(3) 0.6194(3) 0.2320(2)
C69A C 0.8971(3) 0.6843(3) 0.1655(3)
H69A H 0.829747 0.696698 0.150436
H70A H 0.939887 0.737467 0.187164
H71A H 0.913973 0.658898 0.117573
C70A C 1.0172(3) 0.6047(4) 0.2610(3)
H72A H 1.037875 0.577795 0.215702
H73A H 1.056870 0.659765 0.281119
H74A H 1.024886 0.567219 0.304631
C71A C 0.8496(4) 0.5328(3) 0.1915(3)
H75A H 0.780821 0.540316 0.174923
H76A H 0.871235 0.513482 0.143929
H77A H 0.859246 0.489880 0.230319
Cl4? Cl 0.4650(7) 0.6686(6) 0.5990(3)
Cl5? Cl 0.3839(6) 0.6159(4) 0.7116(6)
Cl6? Cl 0.4881(10) 0.7932(6) 0.7460(7)
C72? C 0.4872(11) 0.6858(7) 0.7056(7)
H78? H 0.548781 0.663675 0.732833
C73? C 0.667(2) 0.9343(13) -0.0777(9)
H79? H 0.639164 0.884672 -0.117351
H80? H 0.733824 0.951687 -0.080519
H81? H 0.628678 0.981757 -0.089734
C74? C 0.5688(15) 0.8943(18) 0.0297(18)
H82? H 0.556782 0.946156 0.059207
H83? H 0.568959 0.846710 0.063215
H84? H 0.517652 0.880262 -0.020759
H85? H 0.583957 0.529917 0.532265
loop_
_geom_bond_atom_site_label_1
_geom_bond_atom_site_label_2
_geom_bond_site_symmetry_1
_geom_bond_site_symmetry_2
Cl1 C1 1_555 1_555
Cl2 C1 1_555 1_555
Cl3 C1 1_555 1_555
C1 H1 1_555 1_555
N1 H2 1_555 1_555
N2 C14 1_555 1_555
O1 C2 1_555 1_555
O2 C19 1_555 1_555
C2 C3 1_555 1_555
C3 H3 1_555 1_555
C4 C3 1_555 1_555
H4 C4 1_555 1_555
C5 C4 1_555 1_555
C6 C5 1_555 1_555
H5 C6 1_555 1_555
C7 C2 1_555 1_555
C8 C7 1_555 1_555
C9 N1 1_555 1_555
C10 C9 1_555 1_555
H6 C10 1_555 1_555
C11 C10 1_555 1_555
H7 C11 1_555 1_555
C12 N1 1_555 1_555
C13 C12 1_555 1_555
C14 C13 1_555 1_555
C15 C14 1_555 1_555
H8 C15 1_555 1_555
C16 C15 1_555 1_555
H9 C16 1_555 1_555
C17 N2 1_555 1_555
C18 C13 1_555 1_555
C19 C18 1_555 1_555
C20 C19 1_555 1_555
H10 C20 1_555 1_555
C21 C20 1_555 1_555
H11 C21 1_555 1_555
C22 C21 1_555 1_555
C23 C18 1_555 1_555
H12 C23 1_555 1_555
C24 O2 1_555 1_555
H13 C24 1_555 1_555
H14 C24 1_555 1_555
C25 C24 1_555 1_555
H15 C25 1_555 1_555
C26 C25 1_555 1_555
H16 C26 1_555 1_555
H17 C26 1_555 1_555
C27 C26 1_555 1_555
H18 C27 1_555 1_555
H19 C27 1_555 1_555
C28 C27 1_555 1_555
H20 C28 1_555 1_555
H21 C28 1_555 1_555
C29 C5 1_555 1_555
C30 C29 1_555 1_555
H22 C30 1_555 1_555
H23 C30 1_555 1_555
H24 C30 1_555 1_555
C31 C29 1_555 1_555
H25 C31 1_555 1_555
H26 C31 1_555 1_555
H27 C31 1_555 1_555
C32 C29 1_555 1_555
H28 C32 1_555 1_555
H29 C32 1_555 1_555
H30 C32 1_555 1_555
C33 C22 1_555 1_555
C34 C33 1_555 1_555
H31 C34 1_555 1_555
H32 C34 1_555 1_555
H33 C34 1_555 1_555
C35 C33 1_555 1_555
H34 C35 1_555 1_555
H35 C35 1_555 1_555
H36 C35 1_555 1_555
C36 C33 1_555 1_555
H37 C36 1_555 1_555
H38 C36 1_555 1_555
H39 C36 1_555 1_555
N3 C44 1_555 1_555
N4 C48 1_555 1_555
O3 C37 1_555 1_555
O4 C63 1_555 1_555
C37 C38 1_555 1_555
C38 H40 1_555 1_555
C39 C38 1_555 1_555
H41 C39 1_555 1_555
C40 C39 1_555 1_555
C41 C40 1_555 1_555
H42 C41 1_555 1_555
C42 C37 1_555 1_555
C43 C42 1_555 1_555
C44 C43 1_555 1_555
C45 C44 1_555 1_555
H43 C45 1_555 1_555
C46 C45 1_555 1_555
H44 C46 1_555 1_555
C47 N3 1_555 1_555
C48 C43 1_555 1_555
C49 C48 1_555 1_555
H45 C49 1_555 1_555
C50 C49 1_555 1_555
H46 C50 1_555 1_555
C51 N4 1_555 1_555
C52 C51 1_555 1_555
C53 C52 1_555 1_555
C54 C53 1_555 1_555
H47 C54 1_555 1_555
C55 C54 1_555 1_555
C56 C55 1_555 1_555
H48 C56 1_555 1_555
C57 C56 1_555 1_555
H49 C57 1_555 1_555
C58 C53 1_555 1_555
C59 O3 1_555 1_555
H50 C59 1_555 1_555
H51 C59 1_555 1_555
C60 C59 1_555 1_555
H52 C60 1_555 1_555
H53 C60 1_555 1_555
C61 C60 1_555 1_555
H54 C61 1_555 1_555
H55 C61 1_555 1_555
C62 C61 1_555 1_555
H56 C62 1_555 1_555
H57 C62 1_555 1_555
C63 C62 1_555 1_555
H58 C63 1_555 1_555
H59 C63 1_555 1_555
C64 C40 1_555 1_555
C65 C64 1_555 1_555
H60 C65 1_555 1_555
H61 C65 1_555 1_555
H62 C65 1_555 1_555
C66 C64 1_555 1_555
H63 C66 1_555 1_555
H64 C66 1_555 1_555
H65 C66 1_555 1_555
C67 C64 1_555 1_555
H66 C67 1_555 1_555
H67 C67 1_555 1_555
H68 C67 1_555 1_555
C68 C55 1_555 1_555
C69 C68 1_555 1_555
H69 C69 1_555 1_555
H70 C69 1_555 1_555
H71 C69 1_555 1_555
C70 C68 1_555 1_555
H72 C70 1_555 1_555
H73 C70 1_555 1_555
H74 C70 1_555 1_555
C71 C68 1_555 1_555
H75 C71 1_555 1_555
H76 C71 1_555 1_555
H77 C71 1_555 1_555
N1A H2A 1_555 1_555
N2A C14A 1_555 1_555
O1A C28 1_555 1_555
O2A C19A 1_555 1_555
C2A O1A 1_555 1_555
C3A C2A 1_555 1_555
H3A C3A 1_555 1_555
C4A C3A 1_555 1_555
H4A C4A 1_555 1_555
C5A C4A 1_555 1_555
C6A C5A 1_555 1_555
H5A C6A 1_555 1_555
C7A C2A 1_555 1_555
C8A C17 1_555 1_555
C9A N1A 1_555 1_555
C10A C9A 1_555 1_555
H6A C10A 1_555 1_555
C11A C10A 1_555 1_555
H7A C11A 1_555 1_555
C12A N1A 1_555 1_555
C13A C12A 1_555 1_555
C14A C13A 1_555 1_555
C15A C14A 1_555 1_555
H8A C15A 1_555 1_555
C16A C15A 1_555 1_555
H9A C16A 1_555 1_555
C17A C8 1_555 1_555
C18A C13A 1_555 1_555
C19A C18A 1_555 1_555
C20A C19A 1_555 1_555
H10A C20A 1_555 1_555
C21A C20A 1_555 1_555
H11A C21A 1_555 1_555
C22A C21A 1_555 1_555
C23A C18A 1_555 1_555
H12A C23A 1_555 1_555
C24A O2A 1_555 1_555
H13A C24A 1_555 1_555
H14A C24A 1_555 1_555
C25A C24A 1_555 1_555
H15A C25A 1_555 1_555
C26A C25A 1_555 1_555
H16A C26A 1_555 1_555
H17A C26A 1_555 1_555
C27A C26A 1_555 1_555
H18A C27A 1_555 1_555
H19A C27A 1_555 1_555
C28A O1 1_555 1_555
H20A C28A 1_555 1_555
H21A C28A 1_555 1_555
C29A C5A 1_555 1_555
C30A C29A 1_555 1_555
H22A C30A 1_555 1_555
H23A C30A 1_555 1_555
H24A C30A 1_555 1_555
C31A C29A 1_555 1_555
H25A C31A 1_555 1_555
H26A C31A 1_555 1_555
H27A C31A 1_555 1_555
C32A C29A 1_555 1_555
H28A C32A 1_555 1_555
H29A C32A 1_555 1_555
H30A C32A 1_555 1_555
C33A C22A 1_555 1_555
C34A C33A 1_555 1_555
H31A C34A 1_555 1_555
H32A C34A 1_555 1_555
H33A C34A 1_555 1_555
C35A C33A 1_555 1_555
H34A C35A 1_555 1_555
H35A C35A 1_555 1_555
H36A C35A 1_555 1_555
C36A C33A 1_555 1_555
H37A C36A 1_555 1_555
H38A C36A 1_555 1_555
H39A C36A 1_555 1_555
N3A C44A 1_555 1_555
N4A C48A 1_555 1_555
O3A C37A 1_555 1_555
O4A C58 1_555 1_555
C37A C38A 1_555 1_555
C38A H40A 1_555 1_555
C39A C38A 1_555 1_555
H41A C39A 1_555 1_555
C40A C39A 1_555 1_555
C41A C40A 1_555 1_555
H42A C41A 1_555 1_555
C42A C37A 1_555 1_555
C43A C42A 1_555 1_555
C44A C43A 1_555 1_555
C45A C44A 1_555 1_555
H43A C45A 1_555 1_555
C46A C45A 1_555 1_555
H44A C46A 1_555 1_555
C47A C52 1_555 1_555
C48A C43A 1_555 1_555
C49A C48A 1_555 1_555
H45A C49A 1_555 1_555
C50A C49A 1_555 1_555
H46A C50A 1_555 1_555
C51A N4A 1_555 1_555
C52A C47 1_555 1_555
C53A C52A 1_555 1_555
C54A C53A 1_555 1_555
H47A C54A 1_555 1_555
C55A C54A 1_555 1_555
C56A C55A 1_555 1_555
H48A C56A 1_555 1_555
C57A C56A 1_555 1_555
H49A C57A 1_555 1_555
C58A O4 1_555 1_555
C59A O3A 1_555 1_555
H50A C59A 1_555 1_555
H51A C59A 1_555 1_555
C60A C59A 1_555 1_555
H52A C60A 1_555 1_555
H53A C60A 1_555 1_555
C61A C60A 1_555 1_555
H54A C61A 1_555 1_555
H55A C61A 1_555 1_555
C62A C61A 1_555 1_555
H56A C62A 1_555 1_555
H57A C62A 1_555 1_555
C63A O4A 1_555 1_555
H58A C63A 1_555 1_555
H59A C63A 1_555 1_555
C64A C40A 1_555 1_555
C65A C64A 1_555 1_555
H60A C65A 1_555 1_555
H61A C65A 1_555 1_555
H62A C65A 1_555 1_555
C66A C64A 1_555 1_555
H63A C66A 1_555 1_555
H64A C66A 1_555 1_555
H65A C66A 1_555 1_555
C67A C64A 1_555 1_555
H66A C67A 1_555 1_555
H67A C67A 1_555 1_555
H68A C67A 1_555 1_555
C68A C55A 1_555 1_555
C69A C68A 1_555 1_555
H69A C69A 1_555 1_555
H70A C69A 1_555 1_555
H71A C69A 1_555 1_555
C70A C68A 1_555 1_555
H72A C70A 1_555 1_555
H73A C70A 1_555 1_555
H74A C70A 1_555 1_555
C71A C68A 1_555 1_555
H75A C71A 1_555 1_555
H76A C71A 1_555 1_555
H77A C71A 1_555 1_555
C6 C7 1_555 1_555
C8 C9 1_555 1_555
C11 C12 1_555 1_555
C16 C17 1_555 1_555
C22 C23 1_555 1_555
C41 C42 1_555 1_555
C46 C47 1_555 1_555
C50 C51 1_555 1_555
C57 C58 1_555 1_555
N2A C17A 1_555 1_555
C6A C7A 1_555 1_555
C7A C8A 1_555 1_555
C8A C9A 1_555 1_555
C11A C12A 1_555 1_555
C16A C17A 1_555 1_555
C22A C23A 1_555 1_555
C27A C28A 1_555 1_555
N3A C47A 1_555 1_555
C41A C42A 1_555 1_555
C46A C47A 1_555 1_555
C50A C51A 1_555 1_555
C51A C52A 1_555 1_555
C53A C58A 1_555 1_555
C57A C58A 1_555 1_555
C62A C63A 1_555 1_555

#END
