
#######################################################################
#
#                 Cambridge Crystallographic Data Centre
#                                CCDC 
#
#######################################################################
#
# If this CIF has been generated from an entry in the Cambridge 
# Structural Database, then it will include bibliographic, chemical, 
# crystal, experimental, refinement or atomic coordinate data resulting 
# from the CCDC's data processing and validation procedures.
#
#######################################################################

data_AGALIF
_chemical_formula_moiety         'C16 H10 N2 O2'
_chemical_name_systematic        2-Methylindolo[2,1-b]quinazoline-6,12-dione
_symmetry_cell_setting           monoclinic
_symmetry_space_group_name_H-M   'P 21/n'
_symmetry_Int_Tables_number      14
_space_group_name_Hall           '-P 2yn'
loop_
_symmetry_equiv_pos_site_id
_symmetry_equiv_pos_as_xyz
1 x,y,z
2 1/2-x,1/2+y,1/2-z
3 -x,-y,-z
4 1/2+x,1/2-y,1/2+z
_cell_length_a                   7.4900(9)
_cell_length_b                   14.7964(11)
_cell_length_c                   11.4720(12)
_cell_angle_alpha                90
_cell_angle_beta                 107.785(11)
_cell_angle_gamma                90
_cell_volume                     1210.62
_exptl_crystal_colour            yellow
_exptl_crystal_description       needle
_cell_formula_units_Z            4
loop_
_atom_site_label
_atom_site_type_symbol
_atom_site_fract_x
_atom_site_fract_y
_atom_site_fract_z
O1 O 0.1436(2) 0.09280(9) 0.17184(12)
O2 O 0.20748(19) -0.09747(8) 0.62384(12)
N1 N 0.19074(19) -0.02290(9) 0.44640(12)
N2 N 0.3213(2) 0.12331(9) 0.43892(13)
C1 C 0.0543(2) -0.05055(12) 0.24087(16)
C2 C -0.0402(3) -0.10109(14) 0.13817(18)
H1 H -0.0632 -0.0776 0.0598
C3 C -0.0984(3) -0.18664(14) 0.15577(19)
H2 H -0.1600 -0.2219 0.0883
C4 C -0.0669(3) -0.22104(14) 0.27225(19)
H3 H -0.1087 -0.2790 0.2813
C5 C 0.0255(3) -0.17175(12) 0.37643(17)
H4 H 0.0453 -0.1949 0.4547
C6 C 0.0863(2) -0.08673(11) 0.35746(16)
C7 C 0.2278(2) 0.05396(11) 0.38734(16)
C8 C 0.1382(3) 0.03929(12) 0.25111(16)
C9 C 0.3927(2) 0.11952(11) 0.56699(16)
C10 C 0.4961(3) 0.19287(12) 0.62923(17)
H5 H 0.5168 0.2427 0.5856
C11 C 0.5675(3) 0.19178(13) 0.75456(18)
H6 H 0.6355 0.2413 0.7947
C12 C 0.5402(3) 0.11795(12) 0.82309(17)
C13 C 0.4378(2) 0.04526(12) 0.76147(16)
H7 H 0.4189 -0.0045 0.8058
C14 C 0.3626(2) 0.04503(11) 0.63460(15)
C15 C 0.2508(2) -0.03197(11) 0.57317(16)
C16 C 0.6199(3) 0.11769(15) 0.96137(18)
H8 H 0.5191 0.1166 0.9967
H9 H 0.6940 0.1711 0.9878
H10 H 0.6971 0.0652 0.9872
loop_
_geom_bond_atom_site_label_1
_geom_bond_atom_site_label_2
_geom_bond_site_symmetry_1
_geom_bond_site_symmetry_2
O1 C8 1_555 1_555
O2 C15 1_555 1_555
N1 C6 1_555 1_555
N2 C7 1_555 1_555
C1 C2 1_555 1_555
C2 H1 1_555 1_555
C3 C2 1_555 1_555
H2 C3 1_555 1_555
C4 C3 1_555 1_555
H3 C4 1_555 1_555
C5 C4 1_555 1_555
H4 C5 1_555 1_555
C6 C1 1_555 1_555
C7 N1 1_555 1_555
C8 C1 1_555 1_555
C9 N2 1_555 1_555
C10 C9 1_555 1_555
H5 C10 1_555 1_555
C11 C10 1_555 1_555
H6 C11 1_555 1_555
C12 C11 1_555 1_555
C13 C12 1_555 1_555
H7 C13 1_555 1_555
C14 C9 1_555 1_555
C15 N1 1_555 1_555
C16 C12 1_555 1_555
H8 C16 1_555 1_555
H9 C16 1_555 1_555
H10 C16 1_555 1_555
C5 C6 1_555 1_555
C7 C8 1_555 1_555
C13 C14 1_555 1_555
C14 C15 1_555 1_555

#END
