
#######################################################################
#
#                 Cambridge Crystallographic Data Centre
#                                CCDC 
#
#######################################################################
#
# If this CIF has been generated from an entry in the Cambridge 
# Structural Database, then it will include bibliographic, chemical, 
# crystal, experimental, refinement or atomic coordinate data resulting 
# from the CCDC's data processing and validation procedures.
#
#######################################################################

data_AGALAM10
_chemical_name_common            'PDB Chemical Component code: A2G'
_chemical_formula_moiety         'C8 H15 N1 O6'
_chemical_name_systematic        N-Acetyl-\a-D-galactosamine
_symmetry_cell_setting           monoclinic
_symmetry_space_group_name_H-M   'P 21'
_symmetry_Int_Tables_number      4
_space_group_name_Hall           'P 2yb'
loop_
_symmetry_equiv_pos_site_id
_symmetry_equiv_pos_as_xyz
1 x,y,z
2 -x,1/2+y,-z
_cell_length_a                   9.159(4)
_cell_length_b                   6.320(2)
_cell_length_c                   9.208(4)
_cell_angle_alpha                90
_cell_angle_beta                 107.88(6)
_cell_angle_gamma                90
_cell_volume                     507.261
_cell_formula_units_Z            2
loop_
_atom_site_label
_atom_site_type_symbol
_atom_site_fract_x
_atom_site_fract_y
_atom_site_fract_z
C1 C 0.14020 0.26160 0.10420
C2 C 0.24680 0.32140 0.01280
C3 C 0.41350 0.31930 0.11530
C4 C 0.43110 0.46170 0.25110
C5 C 0.31790 0.39700 0.33380
C6 C 0.32190 0.53480 0.47020
C7 C 0.11910 0.20140 -0.24770
C8 C 0.11850 0.04000 -0.36780
H1 H 0.01400 0.25200 0.04400
H2 H 0.11800 -0.07900 -0.33900
H3 H 0.29100 0.07700 -0.10200
H4 H 0.08300 -0.01100 0.18800
H5 H 0.52400 0.30100 -0.01200
H6 H 0.36000 0.72500 0.23700
H7 H 0.18500 0.76300 0.39800
H8 H 0.22500 0.46000 -0.02400
H9 H 0.43900 0.16300 0.15100
H10 H 0.53400 0.43200 0.32200
H11 H 0.34900 0.26100 0.37400
H12 H 0.43000 0.52000 0.54900
H13 H 0.25500 0.46800 0.52600
H14 H 0.02500 0.02700 -0.45400
H15 H 0.18600 0.03100 -0.40600
N1 N 0.22840 0.18130 -0.11680
O1 O 0.16930 0.05130 0.15070
O2 O 0.51620 0.38810 0.03800
O3 O 0.41280 0.67440 0.19730
O4 O 0.16340 0.40000 0.23310
O5 O 0.28940 0.75090 0.43020
O6 O 0.02190 0.34450 -0.27590
loop_
_geom_bond_atom_site_label_1
_geom_bond_atom_site_label_2
_geom_bond_site_symmetry_1
_geom_bond_site_symmetry_2
C1 C2 1_555 1_555
C2 C3 1_555 1_555
C3 C4 1_555 1_555
C4 C5 1_555 1_555
C5 C6 1_555 1_555
C6 H12 1_555 1_555
C7 C8 1_555 1_555
C8 H2 1_555 1_555
H1 C1 1_555 1_555
H3 N1 1_555 1_555
H4 O1 1_555 1_555
H5 O2 1_555 1_555
H6 O3 1_555 1_555
H7 O5 1_555 1_555
H8 C2 1_555 1_555
H9 C3 1_555 1_555
H10 C4 1_555 1_555
H11 C5 1_555 1_555
H13 C6 1_555 1_555
H14 C8 1_555 1_555
H15 C8 1_555 1_555
N1 C2 1_555 1_555
O1 C1 1_555 1_555
O2 C3 1_555 1_555
O3 C4 1_555 1_555
O4 C1 1_555 1_555
O5 C6 1_555 1_555
O6 C7 1_555 1_555
C5 O4 1_555 1_555
C7 N1 1_555 1_555

#END
