
#######################################################################
#
#                 Cambridge Crystallographic Data Centre
#                                CCDC 
#
#######################################################################
#
# If this CIF has been generated from an entry in the Cambridge 
# Structural Database, then it will include bibliographic, chemical, 
# crystal, experimental, refinement or atomic coordinate data resulting 
# from the CCDC's data processing and validation procedures.
#
#######################################################################

data_AGANUT
_chemical_formula_moiety         'C27 H27 N1 O5'
_chemical_name_systematic        
'17-(Cyclopropylmethyl)-14-hydroxy-6-oxo-4,5-epoxymorphinan-3-yl benzoate'
_symmetry_cell_setting           monoclinic
_symmetry_space_group_name_H-M   'P 21'
_symmetry_Int_Tables_number      4
_space_group_name_Hall           'P 2yb'
loop_
_symmetry_equiv_pos_site_id
_symmetry_equiv_pos_as_xyz
1 x,y,z
2 -x,1/2+y,-z
_cell_length_a                   7.8890(16)
_cell_length_b                   8.6620(17)
_cell_length_c                   16.629(3)
_cell_angle_alpha                90
_cell_angle_beta                 102.24(3)
_cell_angle_gamma                90
_cell_volume                     1110.5
_exptl_crystal_colour            colorless
_exptl_crystal_description       block
_cell_formula_units_Z            2
loop_
_atom_site_label
_atom_site_type_symbol
_atom_site_fract_x
_atom_site_fract_y
_atom_site_fract_z
N1 N 0.2654(5) 0.1880(4) 0.6679(2)
O1 O 0.3797(4) 0.2516(4) 0.53015(19)
H1 H 0.284(7) 0.255(8) 0.544(4)
O2 O 0.9546(5) 0.4322(5) 0.5720(2)
O3 O 0.8160(4) 0.5154(3) 0.7024(2)
O4 O 1.0794(4) 0.4753(4) 0.8555(2)
O5 O 0.9070(5) 0.6447(5) 0.8988(3)
C1 C 0.6515(6) 0.1322(5) 0.5711(3)
H2 H 0.6060 0.0460 0.5358
H3 H 0.7364 0.0922 0.6173
C2 C 0.7392(7) 0.2459(6) 0.5232(3)
H4 H 0.8310 0.1930 0.5036
H5 H 0.6550 0.2812 0.4754
C3 C 0.8144(7) 0.3834(6) 0.5732(3)
C4 C 0.7009(6) 0.4580(6) 0.6267(3)
H6 H 0.6374 0.5451 0.5969
C5 C 0.5727(6) 0.3498(5) 0.6553(3)
C6 C 0.5069(5) 0.2075(5) 0.6020(3)
C7 C 0.4182(6) 0.1033(5) 0.6559(3)
H7 H 0.3753 0.0126 0.6226
C8 C 0.5416(6) 0.0425(5) 0.7345(3)
H8 H 0.4735 0.0151 0.7746
H9 H 0.5975 -0.0507 0.7208
C9 C 0.6798(6) 0.1565(5) 0.7733(3)
C10 C 0.6907(5) 0.2929(5) 0.7329(3)
C11 C 0.8196(6) 0.3975(5) 0.7578(3)
C12 C 0.9405(6) 0.3749(6) 0.8295(3)
C13 C 0.9307(6) 0.2405(6) 0.8727(3)
H10 H 1.0107 0.2228 0.9215
C14 C 0.8052(6) 0.1324(6) 0.8448(3)
H11 H 0.8038 0.0413 0.8743
C15 C 0.4194(6) 0.4364(5) 0.6763(3)
H12 H 0.4620 0.5205 0.7137
H13 H 0.3495 0.4804 0.6265
C16 C 0.3093(6) 0.3310(5) 0.7155(3)
H14 H 0.3710 0.3053 0.7707
H15 H 0.2032 0.3841 0.7197
C17 C 0.1400(6) 0.0976(5) 0.7005(3)
H16 H 0.0418 0.1631 0.7035
H17 H 0.1929 0.0660 0.7561
C18 C 0.0748(6) -0.0432(5) 0.6513(3)
H18 H 0.0414 -0.0291 0.5915
C19 C -0.0330(7) -0.1532(6) 0.6878(4)
H19 H -0.0513 -0.1308 0.7425
H20 H -0.1307 -0.2015 0.6512
C20 C 0.1424(7) -0.1989(6) 0.6801(4)
H21 H 0.1524 -0.2752 0.6386
H22 H 0.2318 -0.2044 0.7300
C21 C 1.0464(7) 0.6142(6) 0.8869(3)
C22 C 1.2002(6) 0.7137(6) 0.9061(3)
C23 C 1.3556(6) 0.6722(6) 0.8883(3)
H23 H 1.3666 0.5779 0.8632
C24 C 1.4963(7) 0.7707(7) 0.9079(3)
H24 H 1.6025 0.7417 0.8968
C25 C 1.4796(8) 0.9124(8) 0.9439(4)
H25 H 1.5730 0.9803 0.9555
C26 C 1.3254(8) 0.9509(8) 0.9622(4)
H26 H 1.3145 1.0444 0.9881
C27 C 1.1857(7) 0.8539(6) 0.9430(3)
H27 H 1.0802 0.8829 0.9549
loop_
_geom_bond_atom_site_label_1
_geom_bond_atom_site_label_2
_geom_bond_site_symmetry_1
_geom_bond_site_symmetry_2
N1 C7 1_555 1_555
O1 H1 1_555 1_555
O2 C3 1_555 1_555
O3 C4 1_555 1_555
O4 C12 1_555 1_555
O5 C21 1_555 1_555
C1 H2 1_555 1_555
H3 C1 1_555 1_555
C2 C1 1_555 1_555
H4 C2 1_555 1_555
H5 C2 1_555 1_555
C3 C2 1_555 1_555
C4 C3 1_555 1_555
H6 C4 1_555 1_555
C5 C4 1_555 1_555
C6 O1 1_555 1_555
C7 C6 1_555 1_555
H7 C7 1_555 1_555
C8 C7 1_555 1_555
H8 C8 1_555 1_555
H9 C8 1_555 1_555
C9 C8 1_555 1_555
C10 C5 1_555 1_555
C11 O3 1_555 1_555
C12 C11 1_555 1_555
C13 C12 1_555 1_555
H10 C13 1_555 1_555
C14 C9 1_555 1_555
H11 C14 1_555 1_555
C15 C5 1_555 1_555
H12 C15 1_555 1_555
H13 C15 1_555 1_555
C16 N1 1_555 1_555
H14 C16 1_555 1_555
H15 C16 1_555 1_555
C17 N1 1_555 1_555
H16 C17 1_555 1_555
H17 C17 1_555 1_555
C18 C17 1_555 1_555
H18 C18 1_555 1_555
C19 C18 1_555 1_555
H19 C19 1_555 1_555
H20 C19 1_555 1_555
C20 C18 1_555 1_555
H21 C20 1_555 1_555
H22 C20 1_555 1_555
C21 O4 1_555 1_555
C22 C21 1_555 1_555
C23 C22 1_555 1_555
H23 C23 1_555 1_555
C24 C23 1_555 1_555
H24 C24 1_555 1_555
C25 C24 1_555 1_555
H25 C25 1_555 1_555
C26 C25 1_555 1_555
H26 C26 1_555 1_555
C27 C22 1_555 1_555
H27 C27 1_555 1_555
C1 C6 1_555 1_555
C5 C6 1_555 1_555
C9 C10 1_555 1_555
C10 C11 1_555 1_555
C13 C14 1_555 1_555
C15 C16 1_555 1_555
C19 C20 1_555 1_555
C26 C27 1_555 1_555

#END
