
#######################################################################
#
#                 Cambridge Crystallographic Data Centre
#                                CCDC 
#
#######################################################################
#
# If this CIF has been generated from an entry in the Cambridge 
# Structural Database, then it will include bibliographic, chemical, 
# crystal, experimental, refinement or atomic coordinate data resulting 
# from the CCDC's data processing and validation procedures.
#
#######################################################################

data_AGAREI
_chemical_formula_moiety         'C12 H10 N2 O2 S1'
_chemical_name_systematic        
'3,7-diamino-5H-dibenzo[b,d]thiophene 5,5-dioxide'
_symmetry_cell_setting           triclinic
_symmetry_space_group_name_H-M   'P -1'
_symmetry_Int_Tables_number      2
_space_group_name_Hall           '-P 1'
loop_
_symmetry_equiv_pos_site_id
_symmetry_equiv_pos_as_xyz
1 x,y,z
2 -x,-y,-z
_cell_length_a                   7.4654(4)
_cell_length_b                   8.3783(4)
_cell_length_c                   17.0551(8)
_cell_angle_alpha                97.595(4)
_cell_angle_beta                 100.424(4)
_cell_angle_gamma                90.636(4)
_cell_volume                     1039.27
_exptl_crystal_colour            'light yellow'
_exptl_crystal_description       plate
_cell_formula_units_Z            4
loop_
_atom_site_label
_atom_site_type_symbol
_atom_site_fract_x
_atom_site_fract_y
_atom_site_fract_z
S1 S 0.63594(10) 0.28703(9) 0.40757(5)
O1 O 0.4452(3) 0.2399(3) 0.38284(14)
O2 O 0.7594(3) 0.1946(3) 0.36372(14)
N1 N 0.8046(4) 0.0676(4) 0.68331(19)
N2 N 0.6751(5) 0.8268(4) 0.2891(2)
C1 C 0.7080(3) 0.2956(2) 0.51027(9)
C2 C 0.7838(3) 0.44642(19) 0.54499(11)
C3 C 0.8638(3) 0.47221(18) 0.62601(11)
H1 H 0.9155 0.5753 0.6497
C4 C 0.8680(3) 0.3472(2) 0.67231(9)
H2 H 0.9226 0.3648 0.7277
C5 C 0.7922(3) 0.19638(19) 0.63759(11)
C6 C 0.7123(3) 0.17059(18) 0.55657(11)
H3 H 0.6605 0.0675 0.5328
C7 C 0.6745(3) 0.49062(17) 0.40845(12)
C8 C 0.6427(3) 0.5783(2) 0.34390(9)
H4 H 0.5799 0.5287 0.2929
C9 C 0.7025(3) 0.7387(2) 0.35402(10)
C10 C 0.7943(3) 0.81132(17) 0.42871(12)
H5 H 0.8352 0.9209 0.4356
C11 C 0.8262(3) 0.7236(2) 0.49326(9)
H6 H 0.8889 0.7732 0.5443
C12 C 0.7663(3) 0.5632(2) 0.48314(10)
H7 H 0.701(6) 0.926(6) 0.302(3)
H8 H 0.831(6) 0.086(5) 0.737(3)
H9 H 0.738(5) -0.014(5) 0.666(2)
H10 H 0.606(6) 0.796(5) 0.247(3)
S2 S 0.77777(11) 0.29305(9) 0.90684(5)
O3 O 0.9412(3) 0.2474(3) 0.87605(14)
O4 O 0.6126(3) 0.2023(3) 0.86573(14)
N3 N 0.6309(5) 0.8409(4) 0.7998(2)
N4 N 0.8693(5) 0.0602(4) 1.1804(2)
C13 C 0.7409(3) 0.49681(17) 0.91181(11)
C14 C 0.7087(3) 0.5878(2) 0.84851(9)
H11 H 0.7213 0.5413 0.7960
C15 C 0.6579(3) 0.7467(2) 0.86207(10)
C16 C 0.6394(3) 0.81471(17) 0.93893(12)
H12 H 0.6047 0.9234 0.9482
C17 C 0.6716(3) 0.7237(2) 1.00224(9)
H13 H 0.6589 0.7702 1.0548
C18 C 0.7223(3) 0.5648(2) 0.98868(10)
C19 C 0.8035(3) 0.2957(2) 1.01021(8)
C20 C 0.7662(3) 0.44544(19) 1.04836(11)
C21 C 0.7684(3) 0.46790(18) 1.13075(11)
H14 H 0.7429 0.5702 1.1568
C22 C 0.8078(3) 0.3406(2) 1.17499(8)
H15 H 0.8093 0.3560 1.2313
C23 C 0.8451(3) 0.1909(2) 1.13684(11)
C24 C 0.8430(3) 0.16845(18) 1.05445(11)
H16 H 0.8684 0.0661 1.0284
H17 H 0.883(6) 0.079(5) 1.234(3)
H18 H 0.596(7) 0.939(6) 0.810(3)
H19 H 0.617(6) 0.808(5) 0.748(3)
H20 H 0.919(6) -0.012(6) 1.161(3)
loop_
_geom_bond_atom_site_label_1
_geom_bond_atom_site_label_2
_geom_bond_site_symmetry_1
_geom_bond_site_symmetry_2
S1 O1 1_555 1_555
O2 S1 1_555 1_555
N1 C5 1_555 1_555
N2 C9 1_555 1_555
C1 S1 1_555 1_555
C2 C1 1_555 1_555
C3 C2 1_555 1_555
H1 C3 1_555 1_555
C4 C3 1_555 1_555
H2 C4 1_555 1_555
C5 C4 1_555 1_555
C6 C1 1_555 1_555
H3 C6 1_555 1_555
C7 S1 1_555 1_555
C8 C7 1_555 1_555
H4 C8 1_555 1_555
C9 C8 1_555 1_555
C10 C9 1_555 1_555
H5 C10 1_555 1_555
C11 C10 1_555 1_555
H6 C11 1_555 1_555
C12 C2 1_555 1_555
H7 N2 1_555 1_555
H8 N1 1_555 1_555
H9 N1 1_555 1_555
H10 N2 1_555 1_555
S2 O3 1_555 1_555
O4 S2 1_555 1_555
N3 C15 1_555 1_555
N4 C23 1_555 1_555
C13 S2 1_555 1_555
C14 C13 1_555 1_555
H11 C14 1_555 1_555
C15 C14 1_555 1_555
C16 C15 1_555 1_555
H12 C16 1_555 1_555
C17 C16 1_555 1_555
H13 C17 1_555 1_555
C18 C13 1_555 1_555
C19 S2 1_555 1_555
C20 C18 1_555 1_555
C21 C20 1_555 1_555
H14 C21 1_555 1_555
C22 C21 1_555 1_555
H15 C22 1_555 1_555
C23 C22 1_555 1_555
C24 C19 1_555 1_555
H16 C24 1_555 1_555
H17 N4 1_555 1_555
H18 N3 1_555 1_555
H19 N3 1_555 1_555
H20 N4 1_555 1_555
C5 C6 1_555 1_555
C7 C12 1_555 1_555
C11 C12 1_555 1_555
C17 C18 1_555 1_555
C19 C20 1_555 1_555
C23 C24 1_555 1_555

#END
