
#######################################################################
#
#                 Cambridge Crystallographic Data Centre
#                                CCDC 
#
#######################################################################
#
# If this CIF has been generated from an entry in the Cambridge 
# Structural Database, then it will include bibliographic, chemical, 
# crystal, experimental, refinement or atomic coordinate data resulting 
# from the CCDC's data processing and validation procedures.
#
#######################################################################

data_AGASOS
_chemical_formula_moiety         'C15 H10 N4,2(C10 H10 N2)'
_chemical_name_systematic        
'Naphthalene-1,8-diamine - 2-(pyrimidin-2-yl)-1H-perimidine'
_symmetry_cell_setting           monoclinic
_symmetry_space_group_name_H-M   'P 21/c'
_symmetry_Int_Tables_number      14
_space_group_name_Hall           '-P 2ybc'
loop_
_symmetry_equiv_pos_site_id
_symmetry_equiv_pos_as_xyz
1 x,y,z
2 -x,1/2+y,1/2-z
3 -x,-y,-z
4 x,1/2-y,1/2+z
_cell_length_a                   17.083(2)
_cell_length_b                   12.139(3)
_cell_length_c                   13.597(2)
_cell_angle_alpha                90
_cell_angle_beta                 90.760(10)
_cell_angle_gamma                90
_cell_volume                     2819.37
_exptl_crystal_colour            orange
_exptl_crystal_description       block
_cell_formula_units_Z            4
loop_
_atom_site_label
_atom_site_type_symbol
_atom_site_fract_x
_atom_site_fract_y
_atom_site_fract_z
N1 N -0.06299(14) 0.0273(2) 0.36212(17)
H1 H -0.0848(16) -0.037(2) 0.365(2)
N2 N 0.05732(13) 0.12080(19) 0.37659(16)
N3 N 0.13410(14) -0.0767(2) 0.38241(18)
N4 N 0.00939(14) -0.16518(19) 0.37372(17)
C1 C -0.10821(16) 0.1228(2) 0.3582(2)
C2 C -0.18822(16) 0.1208(3) 0.3468(2)
H2 H -0.2158 0.0532 0.3403
C3 C -0.22799(18) 0.2222(3) 0.3449(2)
H3 H -0.2833 0.2224 0.3367
C4 C -0.18985(19) 0.3200(3) 0.3547(2)
H4 H -0.2190 0.3867 0.3543
C5 C -0.10814(17) 0.3240(2) 0.3652(2)
C6 C -0.0637(2) 0.4223(2) 0.3748(2)
H5 H -0.0895 0.4916 0.3748
C7 C 0.0159(2) 0.4181(2) 0.3840(2)
H6 H 0.0444 0.4849 0.3906
C8 C 0.05660(18) 0.3185(2) 0.3841(2)
H7 H 0.1121 0.3181 0.3898
C9 C 0.01606(17) 0.2209(2) 0.3757(2)
C10 C -0.06663(16) 0.2226(2) 0.36614(19)
C11 C 0.01603(16) 0.0311(2) 0.3711(2)
C12 C 0.05592(16) -0.0776(2) 0.37559(19)
C13 C 0.16700(19) -0.1763(3) 0.3871(2)
H8 H 0.2225 -0.1807 0.3915
C14 C 0.12521(19) -0.2720(3) 0.3860(2)
H9 H 0.1502 -0.3418 0.3899
C15 C 0.04540(19) -0.2627(2) 0.3789(2)
H10 H 0.0146 -0.3278 0.3776
N5 N 0.17020(18) 0.3184(3) 0.7032(2)
H11 H 0.1574(19) 0.358(3) 0.753(3)
H12 H 0.1615(19) 0.244(3) 0.7159(19)
N6 N 0.16490(15) 0.1606(2) 0.5578(2)
H13 H 0.1462(18) 0.126(3) 0.502(2)
H14 H 0.1347(18) 0.216(3) 0.5700(19)
C16 C 0.24650(19) 0.3402(3) 0.6713(2)
C17 C 0.2866(2) 0.4285(3) 0.7099(2)
H15 H 0.2626 0.4724 0.7588
C18 C 0.3619(2) 0.4554(3) 0.6791(3)
H16 H 0.3874 0.5183 0.7058
C19 C 0.39903(19) 0.3927(3) 0.6114(3)
H17 H 0.4507 0.4110 0.5921
C20 C 0.36083(17) 0.3002(2) 0.5698(2)
C21 C 0.40047(18) 0.2335(3) 0.5023(2)
H18 H 0.4532 0.2496 0.4864
C22 C 0.36393(19) 0.1463(3) 0.4595(2)
H19 H 0.3919 0.1002 0.4157
C23 C 0.28593(18) 0.1239(3) 0.4792(2)
H20 H 0.2610 0.0635 0.4472
C24 C 0.24415(16) 0.1870(2) 0.5438(2)
C25 C 0.28182(16) 0.2759(2) 0.5957(2)
N7 N 0.44606(19) 0.9546(3) 0.6366(2)
H21 H 0.430(2) 1.011(3) 0.588(3)
H22 H 0.4405(19) 0.878(3) 0.615(2)
N8 N 0.48654(19) 0.7540(3) 0.7084(3)
H23 H 0.5269(19) 0.805(3) 0.702(3)
H24 H 0.509(2) 0.686(3) 0.709(3)
C26 C 0.40270(18) 0.9666(3) 0.7235(3)
C27 C 0.3652(2) 1.0638(3) 0.7392(3)
H25 H 0.3690 1.1203 0.6912
C28 C 0.3216(2) 1.0833(3) 0.8226(3)
H26 H 0.2972 1.1529 0.8315
C29 C 0.3137(2) 1.0033(3) 0.8918(3)
H27 H 0.2829 1.0162 0.9482
C30 C 0.35172(18) 0.9003(3) 0.8793(3)
C31 C 0.3421(2) 0.8162(4) 0.9495(3)
H28 H 0.3122 0.8297 1.0067
C32 C 0.3754(2) 0.7156(3) 0.9355(3)
H29 H 0.3661 0.6581 0.9813
C33 C 0.4223(2) 0.6962(3) 0.8556(3)
H30 H 0.4454 0.6256 0.8478
C34 C 0.43639(18) 0.7761(3) 0.7875(3)
C35 C 0.39817(17) 0.8811(3) 0.7954(2)
loop_
_geom_bond_atom_site_label_1
_geom_bond_atom_site_label_2
_geom_bond_site_symmetry_1
_geom_bond_site_symmetry_2
N1 H1 1_555 1_555
N2 C9 1_555 1_555
N3 C12 1_555 1_555
N4 C12 1_555 1_555
C1 N1 1_555 1_555
C2 C1 1_555 1_555
H2 C2 1_555 1_555
C3 C2 1_555 1_555
H3 C3 1_555 1_555
C4 C3 1_555 1_555
H4 C4 1_555 1_555
C5 C4 1_555 1_555
C6 C5 1_555 1_555
H5 C6 1_555 1_555
C7 C6 1_555 1_555
H6 C7 1_555 1_555
C8 C7 1_555 1_555
H7 C8 1_555 1_555
C9 C8 1_555 1_555
C10 C1 1_555 1_555
C11 N1 1_555 1_555
C12 C11 1_555 1_555
C13 N3 1_555 1_555
H8 C13 1_555 1_555
C14 C13 1_555 1_555
H9 C14 1_555 1_555
C15 N4 1_555 1_555
H10 C15 1_555 1_555
N5 H11 1_555 1_555
H12 N5 1_555 1_555
N6 H13 1_555 1_555
H14 N6 1_555 1_555
C16 N5 1_555 1_555
C17 C16 1_555 1_555
H15 C17 1_555 1_555
C18 C17 1_555 1_555
H16 C18 1_555 1_555
C19 C18 1_555 1_555
H17 C19 1_555 1_555
C20 C19 1_555 1_555
C21 C20 1_555 1_555
H18 C21 1_555 1_555
C22 C21 1_555 1_555
H19 C22 1_555 1_555
C23 C22 1_555 1_555
H20 C23 1_555 1_555
C24 N6 1_555 1_555
C25 C16 1_555 1_555
N7 H21 1_555 1_555
H22 N7 1_555 1_555
N8 H23 1_555 1_555
H24 N8 1_555 1_555
C26 N7 1_555 1_555
C27 C26 1_555 1_555
H25 C27 1_555 1_555
C28 C27 1_555 1_555
H26 C28 1_555 1_555
C29 C28 1_555 1_555
H27 C29 1_555 1_555
C30 C29 1_555 1_555
C31 C30 1_555 1_555
H28 C31 1_555 1_555
C32 C31 1_555 1_555
H29 C32 1_555 1_555
C33 C32 1_555 1_555
H30 C33 1_555 1_555
C34 N8 1_555 1_555
C35 C26 1_555 1_555
N2 C11 1_555 1_555
C5 C10 1_555 1_555
C9 C10 1_555 1_555
C14 C15 1_555 1_555
C20 C25 1_555 1_555
C23 C24 1_555 1_555
C24 C25 1_555 1_555
C30 C35 1_555 1_555
C33 C34 1_555 1_555
C34 C35 1_555 1_555

#END
