
#######################################################################
#
#                 Cambridge Crystallographic Data Centre
#                                CCDC 
#
#######################################################################
#
# If this CIF has been generated from an entry in the Cambridge 
# Structural Database, then it will include bibliographic, chemical, 
# crystal, experimental, refinement or atomic coordinate data resulting 
# from the CCDC's data processing and validation procedures.
#
#######################################################################

data_AGATIM
_chemical_formula_moiety         'C60 Cl8,C7 H8'
_chemical_name_systematic        
'Octachloro-C~2v~-(1809)-iso-C60fullerene toluene solvate'
_symmetry_cell_setting           triclinic
_symmetry_space_group_name_H-M   'P -1'
_symmetry_Int_Tables_number      2
_space_group_name_Hall           '-P 1'
loop_
_symmetry_equiv_pos_site_id
_symmetry_equiv_pos_as_xyz
1 x,y,z
2 -x,-y,-z
_cell_length_a                   9.7864(18)
_cell_length_b                   11.733(2)
_cell_length_c                   17.774(3)
_cell_angle_alpha                90.510(3)
_cell_angle_beta                 100.921(3)
_cell_angle_gamma                104.349(3)
_cell_volume                     1938.05
_exptl_crystal_colour            red
_exptl_crystal_description       block
_cell_formula_units_Z            2
_exptl_crystal_recrystallization_method toluene
loop_
_atom_site_label
_atom_site_type_symbol
_atom_site_fract_x
_atom_site_fract_y
_atom_site_fract_z
Cl1 Cl 0.18622(6) 0.01793(5) 0.01566(3)
Cl2 Cl 0.10110(6) 0.25630(5) 0.02004(3)
Cl3 Cl 0.24205(6) 0.56718(4) 0.13033(3)
Cl4 Cl 0.32281(6) 0.57393(5) 0.37021(3)
Cl5 Cl 0.24815(6) 0.26621(5) 0.46330(3)
Cl6 Cl 0.33302(6) 0.03044(4) 0.45630(3)
Cl7 Cl 0.56868(6) -0.12145(4) 0.34887(3)
Cl8 Cl 0.48980(6) -0.12781(4) 0.11972(3)
C1 C 0.3269(2) 0.09818(16) 0.15952(11)
C2 C 0.5585(2) 0.11030(17) 0.08800(11)
C3 C 0.4610(2) 0.05239(16) 0.27877(11)
C4 C 0.3911(2) 0.34039(18) 0.06147(11)
C5 C 0.3157(2) 0.27814(17) 0.32195(11)
C6 C 0.6601(2) 0.11874(17) 0.39272(11)
C7 C 0.3413(2) 0.38292(17) 0.28694(11)
C8 C 0.2628(2) 0.27393(17) 0.16341(11)
C9 C 0.3799(2) 0.10231(16) 0.31781(11)
C10 C 0.4340(2) 0.49141(17) 0.33527(11)
C11 C 0.7051(2) 0.17170(19) 0.09518(12)
C12 C 0.4913(2) 0.28378(18) 0.03896(11)
C13 C 0.4175(2) 0.14035(17) 0.40126(11)
C14 C 0.5092(2) 0.56392(16) 0.21280(12)
C15 C 0.8035(2) 0.17958(19) 0.39034(11)
C16 C 0.3744(2) 0.26117(17) 0.40442(11)
C17 C 0.5774(2) 0.17345(18) 0.42554(11)
C18 C 0.6818(2) 0.51983(17) 0.39825(12)
C19 C 0.3762(2) 0.48712(17) 0.16266(11)
C20 C 0.7168(2) 0.06149(18) 0.27844(12)
C21 C 0.3138(2) 0.38063(17) 0.20469(11)
C22 C 0.4338(2) 0.05015(16) 0.19698(11)
C23 C 0.7876(2) 0.13854(19) 0.16294(12)
C24 C 0.6279(2) 0.29426(18) 0.45066(11)
C25 C 0.5833(2) 0.51225(18) 0.10384(12)
C26 C 0.7683(2) 0.35453(18) 0.44863(11)
C27 C 0.2958(2) 0.17253(17) 0.27943(11)
C28 C 0.6339(2) 0.34372(19) 0.04571(11)
C29 C 0.6908(2) 0.05892(17) 0.20076(12)
C30 C 0.5421(2) 0.02584(17) 0.15223(11)
C31 C 0.8603(2) 0.29526(19) 0.41983(12)
C32 C 0.9896(2) 0.3405(2) 0.31483(14)
C33 C 0.6807(2) 0.46228(19) 0.07666(12)
C34 C 0.7971(2) 0.47169(18) 0.42416(12)
C35 C 0.8401(2) 0.14299(19) 0.32139(12)
C36 C 0.5387(2) 0.45735(17) 0.40093(11)
C37 C 0.6273(2) 0.58413(17) 0.17364(13)
C38 C 0.8683(2) 0.55209(19) 0.18662(14)
C39 C 0.26939(19) 0.17048(17) 0.20078(11)
C40 C 0.3101(2) 0.13174(17) 0.07781(11)
C41 C 0.9455(2) 0.3377(2) 0.18160(13)
C42 C 0.4373(2) 0.44933(18) 0.09666(11)
C43 C 0.9519(2) 0.3778(2) 0.37972(13)
C44 C 0.5353(2) 0.56602(17) 0.29032(12)
C45 C 0.9348(2) 0.2201(2) 0.28561(13)
C46 C 0.4543(2) 0.16335(18) 0.05701(11)
C47 C 0.2667(2) 0.25297(17) 0.08048(11)
C48 C 0.7680(2) 0.60641(18) 0.21336(13)
C49 C 0.6802(2) 0.58779(17) 0.33214(12)
C50 C 0.5137(2) 0.35011(18) 0.43013(11)
C51 C 0.8252(2) 0.48019(19) 0.12022(13)
C52 C 0.9075(2) 0.2176(2) 0.20395(13)
C53 C 0.7444(2) 0.2857(2) 0.07226(12)
C54 C 0.9125(2) 0.55514(19) 0.32009(14)
C55 C 0.5987(2) 0.02994(17) 0.32375(11)
C56 C 0.7946(2) 0.60806(17) 0.29482(13)
C57 C 0.9557(2) 0.5192(2) 0.25286(14)
C58 C 0.9123(2) 0.48745(19) 0.38259(13)
C59 C 0.9935(2) 0.4130(2) 0.24999(14)
C60 C 0.8643(2) 0.3706(2) 0.11753(13)
C61 C 0.1455(3) 0.8104(2) 0.31821(15)
H1 H 0.1971 0.7881 0.3641
C62 C 0.1878(3) 0.7970(2) 0.25027(16)
H2 H 0.2678 0.7651 0.2494
C63 C 0.1156(3) 0.8293(2) 0.18375(17)
H3 H 0.1452 0.8200 0.1367
C64 C 0.0011(4) 0.8749(2) 0.18520(18)
H4 H -0.0495 0.8976 0.1391
C65 C -0.0415(3) 0.8882(2) 0.25410(18)
H5 H -0.1213 0.9205 0.2547
C66 C 0.0292(3) 0.8558(2) 0.32134(15)
C67 C -0.0190(3) 0.8685(3) 0.39515(19)
H6 H -0.1025 0.9021 0.3859
H7 H 0.0594 0.9207 0.4319
H8 H -0.0456 0.7909 0.4161
loop_
_geom_bond_atom_site_label_1
_geom_bond_atom_site_label_2
_geom_bond_site_symmetry_1
_geom_bond_site_symmetry_2
Cl1 C40 1_555 1_555
Cl2 C47 1_555 1_555
Cl3 C19 1_555 1_555
Cl4 C10 1_555 1_555
Cl5 C16 1_555 1_555
Cl6 C13 1_555 1_555
Cl7 C55 1_555 1_555
Cl8 C30 1_555 1_555
C1 C22 1_555 1_555
C2 C11 1_555 1_555
C3 C9 1_555 1_555
C4 C12 1_555 1_555
C5 C7 1_555 1_555
C6 C15 1_555 1_555
C7 C10 1_555 1_555
C8 C21 1_555 1_555
C9 C13 1_555 1_555
C10 C36 1_555 1_555
C11 C23 1_555 1_555
C12 C28 1_555 1_555
C13 C16 1_555 1_555
C14 C19 1_555 1_555
C15 C31 1_555 1_555
C16 C5 1_555 1_555
C17 C6 1_555 1_555
C18 C34 1_555 1_555
C19 C21 1_555 1_555
C20 C29 1_555 1_555
C21 C7 1_555 1_555
C22 C3 1_555 1_555
C23 C29 1_555 1_555
C24 C17 1_555 1_555
C25 C33 1_555 1_555
C26 C24 1_555 1_555
C27 C5 1_555 1_555
C28 C33 1_555 1_555
C29 C30 1_555 1_555
C30 C2 1_555 1_555
C31 C26 1_555 1_555
C32 C43 1_555 1_555
C33 C51 1_555 1_555
C34 C26 1_555 1_555
C35 C15 1_555 1_555
C36 C18 1_555 1_555
C37 C14 1_555 1_555
C38 C48 1_555 1_555
C39 C1 1_555 1_555
C40 C1 1_555 1_555
C41 C52 1_555 1_555
C42 C4 1_555 1_555
C43 C31 1_555 1_555
C44 C10 1_555 1_555
C45 C32 1_555 1_555
C46 C2 1_555 1_555
C47 C4 1_555 1_555
C48 C37 1_555 1_555
C49 C18 1_555 1_555
C50 C16 1_555 1_555
C51 C38 1_555 1_555
C52 C23 1_555 1_555
C53 C11 1_555 1_555
C54 C56 1_555 1_555
C55 C3 1_555 1_555
C56 C48 1_555 1_555
C57 C38 1_555 1_555
C58 C34 1_555 1_555
C59 C32 1_555 1_555
C60 C41 1_555 1_555
C61 H1 1_555 1_555
C62 C61 1_555 1_555
H2 C62 1_555 1_555
C63 C62 1_555 1_555
H3 C63 1_555 1_555
C64 C63 1_555 1_555
H4 C64 1_555 1_555
C65 C64 1_555 1_555
H5 C65 1_555 1_555
C66 C61 1_555 1_555
C67 C66 1_555 1_555
H6 C67 1_555 1_555
H7 C67 1_555 1_555
H8 C67 1_555 1_555
C6 C55 1_555 1_555
C8 C39 1_555 1_555
C8 C47 1_555 1_555
C9 C27 1_555 1_555
C12 C46 1_555 1_555
C13 C17 1_555 1_555
C14 C44 1_555 1_555
C19 C42 1_555 1_555
C20 C35 1_555 1_555
C20 C55 1_555 1_555
C22 C30 1_555 1_555
C24 C50 1_555 1_555
C25 C37 1_555 1_555
C25 C42 1_555 1_555
C27 C39 1_555 1_555
C28 C53 1_555 1_555
C35 C45 1_555 1_555
C36 C50 1_555 1_555
C40 C46 1_555 1_555
C40 C47 1_555 1_555
C41 C59 1_555 1_555
C43 C58 1_555 1_555
C44 C49 1_555 1_555
C45 C52 1_555 1_555
C49 C56 1_555 1_555
C51 C60 1_555 1_555
C53 C60 1_555 1_555
C54 C57 1_555 1_555
C54 C58 1_555 1_555
C57 C59 1_555 1_555
C65 C66 1_555 1_555

#END
