
#######################################################################
#
#                 Cambridge Crystallographic Data Centre
#                                CCDC 
#
#######################################################################
#
# If this CIF has been generated from an entry in the Cambridge 
# Structural Database, then it will include bibliographic, chemical, 
# crystal, experimental, refinement or atomic coordinate data resulting 
# from the CCDC's data processing and validation procedures.
#
#######################################################################

data_AGAVEK
_chemical_formula_moiety         'C21 H31 F1 O3'
_chemical_name_systematic        3\b-Acetoxy-6\a-fluoro-5\a-androstan-17-one
_symmetry_cell_setting           monoclinic
_symmetry_space_group_name_H-M   'P 21'
_symmetry_Int_Tables_number      4
_space_group_name_Hall           'P 2yb'
loop_
_symmetry_equiv_pos_site_id
_symmetry_equiv_pos_as_xyz
1 x,y,z
2 -x,1/2+y,-z
_cell_length_a                   9.9996(19)
_cell_length_b                   8.0776(16)
_cell_length_c                   11.778(2)
_cell_angle_alpha                90
_cell_angle_beta                 90.60(3)
_cell_angle_gamma                90
_cell_volume                     951.29
_exptl_crystal_colour            colorless
_exptl_crystal_description       block
_cell_formula_units_Z            2
loop_
_atom_site_label
_atom_site_type_symbol
_atom_site_fract_x
_atom_site_fract_y
_atom_site_fract_z
O1 O 0.44741(10) 0.12709(14) 0.13400(8)
O2 O 0.62414(12) 0.29932(17) 0.12765(10)
O3 O 0.17735(12) 0.37844(19) 1.01100(9)
F1 F 0.30306(14) -0.23828(14) 0.45811(11)
C1 C 0.35110(15) 0.35625(17) 0.40363(12)
H1 H 0.3106 0.4667 0.4152
H2 H 0.4383 0.3548 0.4442
C2 C 0.37542(15) 0.33115(18) 0.27607(12)
H3 H 0.2899 0.3424 0.2336
H4 H 0.4376 0.4171 0.2483
C3 C 0.43435(14) 0.16071(18) 0.25532(11)
H5 H 0.5245 0.1538 0.2926
C4 C 0.34525(15) 0.02447(19) 0.30201(12)
H6 H 0.3882 -0.0845 0.2904
H7 H 0.2585 0.0244 0.2608
C5 C 0.32179(14) 0.05239(17) 0.42890(12)
H8 H 0.4119 0.0506 0.4664
C6 C 0.24137(16) -0.08687(19) 0.48265(13)
H9 H 0.1489 -0.0868 0.4495
C7 C 0.23309(15) -0.06921(18) 0.61055(12)
H10 H 0.3234 -0.0838 0.6444
H11 H 0.1748 -0.1574 0.6409
C8 C 0.17760(13) 0.10029(18) 0.64530(11)
H12 H 0.0823 0.1082 0.6194
C9 C 0.25876(14) 0.24130(17) 0.58842(11)
H13 H 0.3536 0.2256 0.6139
C10 C 0.25933(13) 0.22423(17) 0.45624(11)
C11 C 0.21732(17) 0.41434(19) 0.63070(12)
H14 H 0.2773 0.4984 0.5974
H15 H 0.1251 0.4384 0.6041
C12 C 0.22359(18) 0.4280(2) 0.76114(12)
H16 H 0.1837 0.5360 0.7817
H17 H 0.3177 0.4215 0.7878
C13 C 0.13695(14) 0.2945(2) 0.81362(12)
C14 C 0.18345(13) 0.12166(18) 0.77419(11)
H18 H 0.2800 0.1127 0.7965
C15 C 0.10732(15) 0.0023(2) 0.85233(13)
H19 H 0.1496 -0.1085 0.8543
H20 H 0.0126 -0.0091 0.8283
C16 C 0.12007(17) 0.0909(2) 0.96870(13)
H21 H 0.0361 0.0801 1.0119
H22 H 0.1941 0.0425 1.0142
C17 C 0.14848(14) 0.2719(2) 0.94219(12)
C18 C -0.01353(16) 0.3252(3) 0.78953(13)
H23 H -0.0349 0.2938 0.7111
H24 H -0.0338 0.4428 0.8006
H25 H -0.0671 0.2586 0.8417
C19 C 0.11668(14) 0.2439(2) 0.40596(12)
H26 H 0.0862 0.3581 0.4168
H27 H 0.0558 0.1679 0.4445
H28 H 0.1177 0.2182 0.3247
C20 C 0.54778(15) 0.2060(2) 0.08062(12)
C21 C 0.55380(18) 0.1614(3) -0.04290(13)
H29 H 0.4732 0.0995 -0.0645
H30 H 0.6329 0.0929 -0.0564
H31 H 0.5592 0.2627 -0.0884
F2? F 0.3488(13) 0.3960(19) 0.7989(11)
loop_
_geom_bond_atom_site_label_1
_geom_bond_atom_site_label_2
_geom_bond_site_symmetry_1
_geom_bond_site_symmetry_2
O1 C3 1_555 1_555
O2 C20 1_555 1_555
O3 C17 1_555 1_555
F1 C6 1_555 1_555
C1 H1 1_555 1_555
H2 C1 1_555 1_555
C2 C1 1_555 1_555
H3 C2 1_555 1_555
H4 C2 1_555 1_555
C3 C2 1_555 1_555
H5 C3 1_555 1_555
C4 C3 1_555 1_555
H6 C4 1_555 1_555
H7 C4 1_555 1_555
C5 C4 1_555 1_555
H8 C5 1_555 1_555
C6 C5 1_555 1_555
H9 C6 1_555 1_555
C7 C6 1_555 1_555
H10 C7 1_555 1_555
H11 C7 1_555 1_555
C8 C7 1_555 1_555
H12 C8 1_555 1_555
C9 C8 1_555 1_555
H13 C9 1_555 1_555
C10 C1 1_555 1_555
C11 C9 1_555 1_555
H14 C11 1_555 1_555
H15 C11 1_555 1_555
C12 C11 1_555 1_555
H16 C12 1_555 1_555
H17 C12 1_555 1_555
C13 C12 1_555 1_555
C14 C8 1_555 1_555
H18 C14 1_555 1_555
C15 C14 1_555 1_555
H19 C15 1_555 1_555
H20 C15 1_555 1_555
C16 C15 1_555 1_555
H21 C16 1_555 1_555
H22 C16 1_555 1_555
C17 C13 1_555 1_555
C18 C13 1_555 1_555
H23 C18 1_555 1_555
H24 C18 1_555 1_555
H25 C18 1_555 1_555
C19 C10 1_555 1_555
H26 C19 1_555 1_555
H27 C19 1_555 1_555
H28 C19 1_555 1_555
C20 O1 1_555 1_555
C21 C20 1_555 1_555
H29 C21 1_555 1_555
H30 C21 1_555 1_555
H31 C21 1_555 1_555
C5 C10 1_555 1_555
C9 C10 1_555 1_555
C13 C14 1_555 1_555
C16 C17 1_555 1_555

#END
