
#######################################################################
#
#                 Cambridge Crystallographic Data Centre
#                                CCDC 
#
#######################################################################
#
# If this CIF has been generated from an entry in the Cambridge 
# Structural Database, then it will include bibliographic, chemical, 
# crystal, experimental, refinement or atomic coordinate data resulting 
# from the CCDC's data processing and validation procedures.
#
#######################################################################

data_AGAVOW
_chemical_formula_moiety         'C65 H16 N4 O6,0.54(C1 S2),0.46(C6 H4 Cl2)'
_chemical_name_systematic        
'(4-methylpiperidin-1-yl)-tetra-oxa-triaza-dioxa-open-cage-C60fullerene carbon disulfide 1,2-dichlorobenzene solvate'
_symmetry_cell_setting           monoclinic
_symmetry_space_group_name_H-M   'P 21/c'
_symmetry_Int_Tables_number      14
_space_group_name_Hall           '-P 2ybc'
loop_
_symmetry_equiv_pos_site_id
_symmetry_equiv_pos_as_xyz
1 x,y,z
2 -x,1/2+y,1/2-z
3 -x,-y,-z
4 x,1/2-y,1/2+z
_cell_length_a                   19.5814(10)
_cell_length_b                   21.8999(11)
_cell_length_c                   10.3860(5)
_cell_angle_alpha                90
_cell_angle_beta                 105.3580(10)
_cell_angle_gamma                90
_cell_volume                     4294.79
_exptl_crystal_colour            brown
_exptl_crystal_description       rectangular
_cell_formula_units_Z            4
_exptl_crystal_recrystallization_method 
'carbon disulfide/acetonitrile/1,2-dichlorobenzene'
loop_
_atom_site_label
_atom_site_type_symbol
_atom_site_fract_x
_atom_site_fract_y
_atom_site_fract_z
S1 S 0.9993(4) 0.7092(4) 0.6986(16)
S2 S 0.8736(5) 0.7987(6) 0.6081(17)
C72 C 0.9280(8) 0.7485(10) 0.689(3)
C1 C 0.2986(3) 0.2679(3) 0.7839(8)
H1 H 0.285044 0.231690 0.727514
H2 H 0.275274 0.304006 0.735872
H3 H 0.283851 0.262750 0.866376
N1 N 0.4990(2) 0.35033(19) 0.8044(4)
N2 N 0.6710(2) 0.28155(18) 0.6972(4)
O1 O 0.55300(15) 0.39352(14) 0.4003(3)
O2 O 0.72242(19) 0.34040(17) 0.9602(3)
N3 N 0.54662(18) 0.40196(17) 0.6561(3)
C2 C 0.5243(2) 0.4024(2) 0.7655(4)
O3 O 0.67592(19) 0.4138(2) 1.0549(3)
O4 O 0.5662(2) 0.53560(19) 0.9694(4)
O5 O 0.61092(17) 0.26818(15) 0.4764(4)
O6 O 0.57008(18) 0.33154(16) 0.2415(3)
N4 N 0.52023(19) 0.45381(19) 0.8446(4)
H4 H 0.480464 0.458693 0.867685
C3 C 0.5715(3) 0.4969(2) 0.8892(5)
C4 C 0.6329(2) 0.4943(2) 0.8246(5)
C5 C 0.6034(2) 0.5042(2) 0.6761(5)
C6 C 0.5695(2) 0.4524(2) 0.6012(4)
C7 C 0.5738(2) 0.4480(2) 0.4679(4)
C8 C 0.5933(2) 0.3709(2) 0.3207(4)
C9 C 0.6621(2) 0.4024(2) 0.3315(4)
C10 C 0.6550(2) 0.4682(2) 0.3294(4)
C11 C 0.6100(2) 0.4913(2) 0.4098(5)
C12 C 0.6282(3) 0.5469(2) 0.4769(5)
C13 C 0.6249(2) 0.5525(2) 0.6116(5)
C14 C 0.6819(3) 0.5933(2) 0.6813(5)
C15 C 0.7180(3) 0.5824(2) 0.8108(5)
C16 C 0.6963(3) 0.5354(2) 0.9003(5)
C17 C 0.7670(3) 0.5013(2) 0.9595(4)
C18 C 0.7802(2) 0.4401(2) 0.9868(4)
C19 C 0.7231(3) 0.3993(3) 1.0040(4)
C20 C 0.7684(3) 0.3238(2) 0.8841(5)
C21 C 0.8380(2) 0.3512(2) 0.9136(5)
C22 C 0.8443(3) 0.4118(3) 0.9722(5)
C23 C 0.7418(2) 0.2926(2) 0.7685(5)
C24 C 0.6648(2) 0.28018(19) 0.5605(5)
C25 C 0.7378(2) 0.29450(19) 0.5444(5)
C26 C 0.7833(2) 0.28769(19) 0.6748(5)
C27 C 0.8535(2) 0.3042(2) 0.7121(6)
C28 C 0.7624(2) 0.3260(2) 0.4494(5)
C29 C 0.7288(2) 0.3766(2) 0.3525(4)
C30 C 0.8396(3) 0.3388(2) 0.4852(5)
C31 C 0.8524(2) 0.3923(2) 0.4147(5)
C32 C 0.7859(3) 0.4152(2) 0.3374(4)
C33 C 0.7773(3) 0.4772(2) 0.3150(4)
C34 C 0.7113(3) 0.5053(2) 0.3144(4)
C35 C 0.7260(3) 0.5642(2) 0.3764(5)
C36 C 0.6859(3) 0.5837(2) 0.4605(5)
C37 C 0.7190(3) 0.6129(2) 0.5843(5)
C38 C 0.7925(3) 0.6224(2) 0.6225(5)
C39 C 0.8301(3) 0.6103(2) 0.7569(5)
C40 C 0.7934(3) 0.5883(2) 0.8480(5)
C41 C 0.8226(3) 0.5391(2) 0.9361(4)
C42 C 0.8886(3) 0.5141(2) 0.9397(5)
C43 C 0.9000(2) 0.4502(3) 0.9547(5)
C44 C 0.8826(3) 0.3346(2) 0.8346(6)
C45 C 0.9371(2) 0.3760(2) 0.8137(6)
C46 C 0.9463(2) 0.4312(3) 0.8743(5)
C47 C 0.9386(2) 0.3699(2) 0.6740(6)
C48 C 0.8839(2) 0.3274(2) 0.6102(6)
C49 C 0.9512(2) 0.4220(2) 0.6057(5)
C50 C 0.9079(3) 0.4320(2) 0.4703(5)
C51 C 0.8973(3) 0.4979(2) 0.4525(5)
C52 C 0.8348(3) 0.5193(2) 0.3747(5)
C53 C 0.8026(3) 0.5734(2) 0.4157(5)
C54 C 0.9325(3) 0.5275(2) 0.5785(5)
C55 C 0.9644(2) 0.4799(3) 0.6716(5)
C56 C 0.9617(2) 0.4848(3) 0.8048(5)
C57 C 0.9272(3) 0.5367(2) 0.8455(5)
C58 C 0.8974(3) 0.5824(2) 0.7571(5)
C59 C 0.9007(3) 0.5777(2) 0.6197(5)
C60 C 0.8340(3) 0.6021(2) 0.5348(5)
C61 C 0.3789(3) 0.2762(2) 0.8181(5)
H5 H 0.401697 0.239429 0.868568
C62 C 0.4020(3) 0.3319(2) 0.9054(5)
H6 H 0.389596 0.326532 0.991071
H7 H 0.376987 0.368514 0.860371
C63 C 0.4036(3) 0.2814(2) 0.6909(5)
H8 H 0.375628 0.313480 0.633279
H9 H 0.394060 0.242221 0.641670
C64 C 0.4825(3) 0.2966(2) 0.7170(5)
H10 H 0.511406 0.261351 0.759984
H11 H 0.493952 0.305039 0.631375
C65 C 0.4821(3) 0.3410(2) 0.9321(5)
H12 H 0.497314 0.376885 0.990611
H13 H 0.507415 0.304600 0.977736
H14 H 0.681(2) 0.553(2) 0.980(5)
H15 H 0.645(3) 0.454(2) 0.850(5)
H16 H 0.636(3) 0.270(3) 0.735(6)
C66? C 0.9026(10) 0.7949(9) 0.585(2)
H17? H 0.888632 0.810629 0.497013
C67? C 0.9499(10) 0.7463(10) 0.616(3)
C68? C 0.9703(7) 0.7233(9) 0.745(3)
C69? C 0.9435(10) 0.7488(10) 0.844(2)
H18? H 0.957425 0.733042 0.932162
C70? C 0.8962(10) 0.7973(10) 0.814(3)
H19? H 0.877837 0.814773 0.881269
C71? C 0.8758(8) 0.8204(8) 0.684(3)
H20? H 0.843439 0.853567 0.663695
Cl1? Cl 1.0443(2) 0.6725(2) 0.7710(6)
Cl2? Cl 0.9737(4) 0.7398(8) 0.4786(16)
loop_
_geom_bond_atom_site_label_1
_geom_bond_atom_site_label_2
_geom_bond_site_symmetry_1
_geom_bond_site_symmetry_2
C1 H1 1_555 1_555
H2 C1 1_555 1_555
H3 C1 1_555 1_555
N1 C2 1_555 1_555
N2 C23 1_555 1_555
O1 C7 1_555 1_555
O2 C19 1_555 1_555
N3 C2 1_555 1_555
C2 N4 1_555 1_555
O3 C19 1_555 1_555
O4 C3 1_555 1_555
O5 C24 1_555 1_555
O6 C8 1_555 1_555
N4 H4 1_555 1_555
C3 N4 1_555 1_555
C4 C3 1_555 1_555
C5 C4 1_555 1_555
C6 N3 1_555 1_555
C7 C6 1_555 1_555
C8 O1 1_555 1_555
C9 C8 1_555 1_555
C10 C9 1_555 1_555
C11 C7 1_555 1_555
C12 C11 1_555 1_555
C13 C5 1_555 1_555
C14 C13 1_555 1_555
C15 C14 1_555 1_555
C16 C4 1_555 1_555
C17 C16 1_555 1_555
C18 C17 1_555 1_555
C19 C18 1_555 1_555
C20 O2 1_555 1_555
C21 C20 1_555 1_555
C22 C18 1_555 1_555
C23 C20 1_555 1_555
C24 N2 1_555 1_555
C25 C24 1_555 1_555
C26 C23 1_555 1_555
C27 C26 1_555 1_555
C28 C25 1_555 1_555
C29 C9 1_555 1_555
C30 C28 1_555 1_555
C31 C30 1_555 1_555
C32 C29 1_555 1_555
C33 C32 1_555 1_555
C34 C10 1_555 1_555
C35 C34 1_555 1_555
C36 C12 1_555 1_555
C37 C14 1_555 1_555
C38 C37 1_555 1_555
C39 C38 1_555 1_555
C40 C15 1_555 1_555
C41 C17 1_555 1_555
C42 C41 1_555 1_555
C43 C22 1_555 1_555
C44 C21 1_555 1_555
C45 C44 1_555 1_555
C46 C43 1_555 1_555
C47 C45 1_555 1_555
C48 C27 1_555 1_555
C49 C47 1_555 1_555
C50 C31 1_555 1_555
C51 C50 1_555 1_555
C52 C33 1_555 1_555
C53 C35 1_555 1_555
C54 C51 1_555 1_555
C55 C49 1_555 1_555
C56 C46 1_555 1_555
C57 C42 1_555 1_555
C58 C39 1_555 1_555
C59 C54 1_555 1_555
C60 C38 1_555 1_555
C61 C1 1_555 1_555
H5 C61 1_555 1_555
C62 C61 1_555 1_555
H6 C62 1_555 1_555
H7 C62 1_555 1_555
C63 C61 1_555 1_555
H8 C63 1_555 1_555
H9 C63 1_555 1_555
C64 N1 1_555 1_555
H10 C64 1_555 1_555
H11 C64 1_555 1_555
C65 N1 1_555 1_555
H12 C65 1_555 1_555
H13 C65 1_555 1_555
H14 C16 1_555 1_555
H15 C4 1_555 1_555
H16 N2 1_555 1_555
S1 C72 1_555 1_555
S2 C72 1_555 1_555
C5 C6 1_555 1_555
C10 C11 1_555 1_555
C12 C13 1_555 1_555
C15 C16 1_555 1_555
C21 C22 1_555 1_555
C25 C26 1_555 1_555
C27 C44 1_555 1_555
C28 C29 1_555 1_555
C30 C48 1_555 1_555
C31 C32 1_555 1_555
C33 C34 1_555 1_555
C35 C36 1_555 1_555
C36 C37 1_555 1_555
C39 C40 1_555 1_555
C40 C41 1_555 1_555
C42 C43 1_555 1_555
C45 C46 1_555 1_555
C47 C48 1_555 1_555
C49 C50 1_555 1_555
C51 C52 1_555 1_555
C52 C53 1_555 1_555
C53 C60 1_555 1_555
C54 C55 1_555 1_555
C55 C56 1_555 1_555
C56 C57 1_555 1_555
C57 C58 1_555 1_555
C58 C59 1_555 1_555
C59 C60 1_555 1_555
C62 C65 1_555 1_555
C63 C64 1_555 1_555

#END
