
#######################################################################
#
#                 Cambridge Crystallographic Data Centre
#                                CCDC 
#
#######################################################################
#
# If this CIF has been generated from an entry in the Cambridge 
# Structural Database, then it will include bibliographic, chemical, 
# crystal, experimental, refinement or atomic coordinate data resulting 
# from the CCDC's data processing and validation procedures.
#
#######################################################################

data_AGAWUD
_chemical_formula_moiety         'C14 H14 F2 N2 O3'
_chemical_name_systematic        
2,2-difluoro-2-(3-methyl-1,2-benzoxazol-4-yl)-1-(morpholin-4-yl)ethan-1-one
_symmetry_cell_setting           monoclinic
_symmetry_space_group_name_H-M   'P 21/c'
_symmetry_Int_Tables_number      14
_space_group_name_Hall           '-P 2ybc'
loop_
_symmetry_equiv_pos_site_id
_symmetry_equiv_pos_as_xyz
1 x,y,z
2 -x,1/2+y,1/2-z
3 -x,-y,-z
4 x,1/2-y,1/2+z
_cell_length_a                   10.326(2)
_cell_length_b                   10.601(2)
_cell_length_c                   12.337(3)
_cell_angle_alpha                90
_cell_angle_beta                 102.10(3)
_cell_angle_gamma                90
_cell_volume                     1320.48
_exptl_crystal_colour            colorless
_cell_formula_units_Z            4
loop_
_atom_site_label
_atom_site_type_symbol
_atom_site_fract_x
_atom_site_fract_y
_atom_site_fract_z
C1 C 0.36352(13) 0.88830(12) 0.44144(10)
C2 C 0.28407(14) 0.92241(14) 0.34079(10)
H1 H 0.2994 0.8927 0.2737
C3 C 0.18137(14) 1.00280(13) 0.34617(11)
H2 H 0.1263 1.0295 0.2806
C4 C 0.15675(13) 1.04603(13) 0.44782(10)
H3 H 0.0852 1.0993 0.4480
C5 C 0.23684(12) 1.01076(11) 0.54721(10)
C6 C 0.34432(12) 0.92945(11) 0.54384(9)
C7 C 0.45050(12) 0.86928(12) 0.62166(10)
C8 C 0.48611(14) 0.87583(13) 0.74510(10)
H4 H 0.5613 0.8227 0.7719
H5 H 0.4125 0.8477 0.7751
H6 H 0.5075 0.9613 0.7677
C9 C 0.21123(12) 1.05832(11) 0.65580(10)
C10 C 0.16557(12) 0.95476(11) 0.72834(10)
C11 C 0.16798(14) 1.10987(12) 0.88522(10)
H7 H 0.0817 1.1410 0.8921
H8 H 0.2054 1.1691 0.8402
C12 C 0.25754(14) 1.09900(12) 0.99867(11)
H9 H 0.3457 1.0751 0.9906
H10 H 0.2638 1.1805 1.0352
C13 C 0.20395(14) 0.88631(12) 1.01411(11)
H11 H 0.1740 0.8242 1.0611
H12 H 0.2921 0.8624 1.0059
C14 C 0.11153(13) 0.88688(12) 0.90188(10)
H13 H 0.1126 0.8049 0.8671
H14 H 0.0218 0.9039 0.9102
F1 F 0.32483(7) 1.11544(7) 0.71345(6)
F2 F 0.11684(8) 1.15145(7) 0.63809(6)
N1 N 0.52364(11) 0.79990(11) 0.57048(9)
N2 N 0.15400(11) 0.98472(9) 0.83178(8)
O1 O 0.47025(9) 0.81002(9) 0.45456(7)
O2 O 0.14204(9) 0.84964(8) 0.68716(7)
O3 O 0.20931(10) 1.00772(9) 1.06579(7)
loop_
_geom_bond_atom_site_label_1
_geom_bond_atom_site_label_2
_geom_bond_site_symmetry_1
_geom_bond_site_symmetry_2
C1 C2 1_555 1_555
C2 H1 1_555 1_555
C3 C2 1_555 1_555
H2 C3 1_555 1_555
C4 C3 1_555 1_555
H3 C4 1_555 1_555
C5 C4 1_555 1_555
C6 C1 1_555 1_555
C7 C6 1_555 1_555
C8 C7 1_555 1_555
H4 C8 1_555 1_555
H5 C8 1_555 1_555
H6 C8 1_555 1_555
C9 C5 1_555 1_555
C10 C9 1_555 1_555
C11 H7 1_555 1_555
H8 C11 1_555 1_555
C12 C11 1_555 1_555
H9 C12 1_555 1_555
H10 C12 1_555 1_555
C13 H11 1_555 1_555
H12 C13 1_555 1_555
C14 C13 1_555 1_555
H13 C14 1_555 1_555
H14 C14 1_555 1_555
F1 C9 1_555 1_555
F2 C9 1_555 1_555
N1 C7 1_555 1_555
N2 C10 1_555 1_555
O1 C1 1_555 1_555
O2 C10 1_555 1_555
O3 C12 1_555 1_555
C5 C6 1_555 1_555
C11 N2 1_555 1_555
C13 O3 1_555 1_555
C14 N2 1_555 1_555
N1 O1 1_555 1_555

#END
