
#######################################################################
#
#                 Cambridge Crystallographic Data Centre
#                                CCDC 
#
#######################################################################
#
# If this CIF has been generated from an entry in the Cambridge 
# Structural Database, then it will include bibliographic, chemical, 
# crystal, experimental, refinement or atomic coordinate data resulting 
# from the CCDC's data processing and validation procedures.
#
#######################################################################

data_AGAYEO
_chemical_formula_moiety         'C16 H18 Cl1 N3 O1'
_chemical_name_systematic        
5-Chloro-N'-cyclohexylidene-3-methyl-1H-indole-2-carbohydrazide
_symmetry_cell_setting           triclinic
_symmetry_space_group_name_H-M   'P -1'
_symmetry_Int_Tables_number      2
_space_group_name_Hall           '-P 1'
loop_
_symmetry_equiv_pos_site_id
_symmetry_equiv_pos_as_xyz
1 x,y,z
2 -x,-y,-z
_cell_length_a                   5.2727(5)
_cell_length_b                   9.7977(9)
_cell_length_c                   15.2380(15)
_cell_angle_alpha                102.229(7)
_cell_angle_beta                 95.732(8)
_cell_angle_gamma                92.332(7)
_cell_volume                     763.941
_exptl_crystal_colour            colorless
_exptl_crystal_description       plate
_cell_formula_units_Z            2
loop_
_atom_site_label
_atom_site_type_symbol
_atom_site_fract_x
_atom_site_fract_y
_atom_site_fract_z
Cl1 Cl 0.5891(2) 0.46594(11) 0.20802(7)
O1 O 0.1519(4) 0.0786(2) 0.61618(12)
N1 N 0.2262(4) 0.1409(2) 0.45351(13)
N2 N 0.5585(5) 0.1489(3) 0.67430(15)
N3 N 0.5305(4) 0.1037(2) 0.75354(15)
C1 C 0.2826(5) 0.2059(3) 0.38687(17)
C2 C 0.1513(6) 0.1988(3) 0.30110(18)
C3 C 0.2502(6) 0.2795(3) 0.24870(19)
C4 C 0.4744(6) 0.3636(3) 0.27889(19)
C5 C 0.6043(5) 0.3719(3) 0.3623(2)
C6 C 0.5060(4) 0.2920(3) 0.41855(17)
C7 C 0.5838(4) 0.2775(3) 0.50912(16)
C8 C 0.4070(5) 0.1827(3) 0.52722(16)
C9 C 0.8061(5) 0.3606(3) 0.5689(2)
C10 C 0.3624(5) 0.1311(3) 0.60883(17)
C11 C 0.7122(5) 0.1360(3) 0.81721(18)
C12 C 0.9530(6) 0.2231(4) 0.8204(2)
C13 C 1.0168(7) 0.3247(4) 0.9086(2)
C14 C 1.0052(7) 0.2603(4) 0.9900(2)
C15 C 0.7463(6) 0.1875(4) 0.9862(2)
C16 C 0.6818(6) 0.0800(4) 0.9003(2)
H1 H 0.09730 0.08260 0.45020
H2 H 0.00300 0.14140 0.28090
H3 H 0.701(5) 0.174(3) 0.6650(17)
H4 H 0.16670 0.27840 0.19180
H5 H 0.75350 0.42900 0.38110
H6 H 0.85040 0.44140 0.54590
H7 H 0.94970 0.30360 0.56980
H8 H 0.76010 0.39010 0.62910
H9 H 0.93570 0.27410 0.77230
H10 H 1.09240 0.16220 0.80990
H11 H 0.89910 0.39870 0.91220
H12 H 1.18740 0.36690 0.91050
H13 H 1.13590 0.19360 0.99100
H14 H 1.03740 0.33270 1.04480
H15 H 0.74350 0.14270 1.03710
H16 H 0.61810 0.25620 0.99110
H17 H 0.50660 0.04370 0.89750
H18 H 0.79110 0.00290 0.90090
loop_
_geom_bond_atom_site_label_1
_geom_bond_atom_site_label_2
_geom_bond_site_symmetry_1
_geom_bond_site_symmetry_2
Cl1 C4 1_555 1_555
O1 C10 1_555 1_555
N1 C1 1_555 1_555
N2 N3 1_555 1_555
N3 C11 1_555 1_555
C1 C2 1_555 1_555
C2 C3 1_555 1_555
C3 C4 1_555 1_555
C4 C5 1_555 1_555
C5 C6 1_555 1_555
C6 C1 1_555 1_555
C7 C6 1_555 1_555
C8 N1 1_555 1_555
C9 C7 1_555 1_555
C10 N2 1_555 1_555
C11 C12 1_555 1_555
C12 C13 1_555 1_555
C13 C14 1_555 1_555
C14 C15 1_555 1_555
C15 C16 1_555 1_555
C16 C11 1_555 1_555
H1 N1 1_555 1_555
H2 C2 1_555 1_555
H3 N2 1_555 1_555
H4 C3 1_555 1_555
H5 C5 1_555 1_555
H6 C9 1_555 1_555
H7 C9 1_555 1_555
H8 C9 1_555 1_555
H9 C12 1_555 1_555
H10 C12 1_555 1_555
H11 C13 1_555 1_555
H12 C13 1_555 1_555
H13 C14 1_555 1_555
H14 C14 1_555 1_555
H15 C15 1_555 1_555
H16 C15 1_555 1_555
H17 C16 1_555 1_555
H18 C16 1_555 1_555
C7 C8 1_555 1_555
C8 C10 1_555 1_555

#END
