
#######################################################################
#
#                 Cambridge Crystallographic Data Centre
#                                CCDC 
#
#######################################################################
#
# If this CIF has been generated from an entry in the Cambridge 
# Structural Database, then it will include bibliographic, chemical, 
# crystal, experimental, refinement or atomic coordinate data resulting 
# from the CCDC's data processing and validation procedures.
#
#######################################################################

data_AGEJAZ
_chemical_formula_moiety         'C33 H26 N1'
_chemical_name_systematic        
1-Methyl-3-(2-(4-methylphenyl)-4,5-diphenylcyclopenta-1,4-dien-1-yl)-1H-indole
_symmetry_cell_setting           triclinic
_symmetry_space_group_name_H-M   'P -1'
_symmetry_Int_Tables_number      2
_space_group_name_Hall           '-P 1'
loop_
_symmetry_equiv_pos_site_id
_symmetry_equiv_pos_as_xyz
1 x,y,z
2 -x,-y,-z
_cell_length_a                   10.1773(5)
_cell_length_b                   10.6007(6)
_cell_length_c                   11.9185(6)
_cell_angle_alpha                69.317(5)
_cell_angle_beta                 81.261(4)
_cell_angle_gamma                88.310(4)
_cell_volume                     1188.6
_exptl_crystal_colour            'light yellow'
_exptl_crystal_description       block
_cell_formula_units_Z            2
loop_
_atom_site_label
_atom_site_type_symbol
_atom_site_fract_x
_atom_site_fract_y
_atom_site_fract_z
N1 N 0.49415(14) 0.87532(14) 0.40988(12)
C1 C 0.61655(16) 0.87226(15) 0.44609(14)
C2 C 0.64962(19) 0.83556(17) 0.56287(15)
H1 H 0.5851 0.8065 0.6314
C3 C 0.7821(2) 0.8444(2) 0.57174(16)
H2 H 0.8075 0.8201 0.6482
C4 C 0.87986(19) 0.8892(2) 0.46875(17)
H3 H 0.9685 0.8934 0.4782
C5 C 0.84653(17) 0.92708(18) 0.35330(15)
H4 H 0.9116 0.9581 0.2853
C6 C 0.71345(16) 0.91782(15) 0.34082(13)
C7 C 0.64382(15) 0.94806(15) 0.23825(13)
C8 C 0.51156(16) 0.92170(16) 0.28538(14)
H5 H 0.4432 0.9337 0.2393
C9 C 0.70339(14) 0.99337(15) 0.10955(13)
C10 C 0.67175(14) 1.12286(15) 0.01941(14)
C11 C 0.74145(14) 1.13782(15) -0.09122(13)
C12 C 0.82677(14) 1.01632(15) -0.07762(13)
H6 H 0.8871 0.9996 -0.1373
C13 C 0.79297(14) 0.92799(15) 0.05354(13)
C14 C 0.57938(14) 1.21685(14) 0.05710(13)
C15 C 0.44579(15) 1.21843(16) 0.04219(14)
H7 H 0.4154 1.1623 0.0062
C16 C 0.35761(16) 1.30306(17) 0.08048(15)
H8 H 0.2688 1.3031 0.0704
C17 C 0.40254(16) 1.38728(16) 0.13374(14)
H9 H 0.3440 1.4444 0.1590
C18 C 0.53468(16) 1.38634(16) 0.14925(14)
H10 H 0.5647 1.4429 0.1849
C19 C 0.62273(15) 1.30102(16) 0.11172(13)
H11 H 0.7111 1.3003 0.1232
C20 C 0.74711(16) 1.25102(15) -0.20748(13)
C21 C 0.64075(18) 1.33715(17) -0.23714(15)
H12 H 0.5619 1.3222 -0.1829
C22 C 0.6517(2) 1.44488(18) -0.34686(15)
H13 H 0.5805 1.5019 -0.3646
C23 C 0.7674(2) 1.46819(18) -0.43002(15)
H14 H 0.7751 1.5417 -0.5023
C24 C 0.8711(2) 1.38086(19) -0.40409(16)
H15 H 0.9478 1.3936 -0.4607
C25 C 0.86157(17) 1.27432(18) -0.29425(15)
H16 H 0.9328 1.2171 -0.2779
C26 C 0.84304(14) 0.79061(15) 0.10111(13)
C27 C 0.95993(14) 0.75371(16) 0.04224(14)
H17 H 1.0074 0.8179 -0.0258
C28 C 1.00584(15) 0.62292(17) 0.08400(14)
H18 H 1.0843 0.6017 0.0439
C29 C 0.93738(16) 0.52340(16) 0.18398(14)
C30 C 0.81925(16) 0.55883(16) 0.24105(14)
H19 H 0.7703 0.4934 0.3071
C31 C 0.77347(15) 0.68927(16) 0.20135(14)
H20 H 0.6952 0.7099 0.2420
C32 C 0.9896(2) 0.38252(19) 0.23361(17)
H21 H 1.0506 0.3802 0.2883
H22 H 1.0346 0.3578 0.1679
H23 H 0.9168 0.3202 0.2762
C33 C 0.36957(18) 0.82511(19) 0.49045(17)
H24 H 0.3730 0.7292 0.5298
H25 H 0.2973 0.8460 0.4442
H26 H 0.3563 0.8671 0.5505
loop_
_geom_bond_atom_site_label_1
_geom_bond_atom_site_label_2
_geom_bond_site_symmetry_1
_geom_bond_site_symmetry_2
N1 C1 1_555 1_555
C1 C2 1_555 1_555
C2 H1 1_555 1_555
C3 C2 1_555 1_555
H2 C3 1_555 1_555
C4 C3 1_555 1_555
H3 C4 1_555 1_555
C5 C4 1_555 1_555
H4 C5 1_555 1_555
C6 C1 1_555 1_555
C7 C6 1_555 1_555
C8 N1 1_555 1_555
H5 C8 1_555 1_555
C9 C7 1_555 1_555
C10 C9 1_555 1_555
C11 C10 1_555 1_555
C12 C11 1_555 1_555
H6 C12 1_555 1_555
C13 C9 1_555 1_555
C14 C10 1_555 1_555
C15 C14 1_555 1_555
H7 C15 1_555 1_555
C16 C15 1_555 1_555
H8 C16 1_555 1_555
C17 C16 1_555 1_555
H9 C17 1_555 1_555
C18 C17 1_555 1_555
H10 C18 1_555 1_555
C19 C14 1_555 1_555
H11 C19 1_555 1_555
C20 C11 1_555 1_555
C21 C20 1_555 1_555
H12 C21 1_555 1_555
C22 C21 1_555 1_555
H13 C22 1_555 1_555
C23 C22 1_555 1_555
H14 C23 1_555 1_555
C24 C23 1_555 1_555
H15 C24 1_555 1_555
C25 C20 1_555 1_555
H16 C25 1_555 1_555
C26 C13 1_555 1_555
C27 C26 1_555 1_555
H17 C27 1_555 1_555
C28 C27 1_555 1_555
H18 C28 1_555 1_555
C29 C28 1_555 1_555
C30 C29 1_555 1_555
H19 C30 1_555 1_555
C31 C26 1_555 1_555
H20 C31 1_555 1_555
C32 C29 1_555 1_555
H21 C32 1_555 1_555
H22 C32 1_555 1_555
H23 C32 1_555 1_555
C33 N1 1_555 1_555
H24 C33 1_555 1_555
H25 C33 1_555 1_555
H26 C33 1_555 1_555
C5 C6 1_555 1_555
C7 C8 1_555 1_555
C12 C13 1_555 1_555
C18 C19 1_555 1_555
C24 C25 1_555 1_555
C30 C31 1_555 1_555

#END
