
#######################################################################
#
#                 Cambridge Crystallographic Data Centre
#                                CCDC 
#
#######################################################################
#
# If this CIF has been generated from an entry in the Cambridge 
# Structural Database, then it will include bibliographic, chemical, 
# crystal, experimental, refinement or atomic coordinate data resulting 
# from the CCDC's data processing and validation procedures.
#
#######################################################################

data_AGEPIL
_chemical_name_common            bis(2-methyl-1,4-naphthylene)-22-crown-6
_chemical_formula_moiety         'C30 H32 O6'
_chemical_name_systematic        
2,3:11,12-bis(2-Methyl-1,4-naphthylene)-18-crown-6
_symmetry_cell_setting           monoclinic
_symmetry_space_group_name_H-M   'C 2/c'
_symmetry_Int_Tables_number      15
_space_group_name_Hall           '-C 2yn'
loop_
_symmetry_equiv_pos_site_id
_symmetry_equiv_pos_as_xyz
1 x,y,z
2 x,-y,1/2+z
3 1/2+x,1/2+y,z
4 1/2+x,1/2-y,1/2+z
5 -x,-y,-z
6 -x,y,1/2-z
7 1/2-x,1/2-y,-z
8 1/2-x,1/2+y,1/2-z
_cell_length_a                   20.549(4)
_cell_length_b                   7.4560(10)
_cell_length_c                   16.856(3)
_cell_angle_alpha                90
_cell_angle_beta                 105.30(3)
_cell_angle_gamma                90
_cell_volume                     2491.03
_exptl_crystal_colour            colorless
_exptl_crystal_description       block
_chemical_melting_point          '187-188 deg.C'
_cell_formula_units_Z            4
loop_
_atom_site_label
_atom_site_type_symbol
_atom_site_fract_x
_atom_site_fract_y
_atom_site_fract_z
O1 O 0.30352(8) 0.6954(2) 0.34765(10)
O2 O 0.56868(8) 0.7967(3) 0.52793(11)
O3 O 0.71259(8) 0.6819(3) 0.59694(13)
C1 C 0.45520(11) 0.7359(3) 0.52234(14)
C2 C 0.47107(13) 0.7311(4) 0.60924(15)
H1 H 0.5153 0.7695 0.6394
C3 C 0.42179(16) 0.6998(4) 0.64806(16)
H2 H 0.4345 0.6830 0.7066
C4 C 0.35433(14) 0.6723(4) 0.60263(17)
H3 H 0.3210 0.6528 0.6323
C5 C 0.33806(11) 0.6739(3) 0.51881(15)
H4 H 0.2918 0.6577 0.4886
C6 C 0.38750(11) 0.7067(3) 0.47665(14)
C7 C 0.37098(11) 0.7192(3) 0.38930(13)
C8 C 0.41845(12) 0.7631(3) 0.34955(14)
C9 C 0.48632(12) 0.7870(3) 0.39588(15)
H5 H 0.5200 0.8144 0.3677
C10 C 0.50474(11) 0.7726(3) 0.47965(14)
C11 C 0.62188(11) 0.8200(3) 0.48903(16)
H6 H 0.6139 0.9232 0.4537
H7 H 0.6254 0.7162 0.4567
C12 C 0.68743(12) 0.8418(3) 0.5550(2)
H8 H 0.7218 0.8928 0.5330
H9 H 0.6788 0.9242 0.5948
C13 C 0.68134(13) 0.6336(4) 0.65875(18)
H10 H 0.6341 0.6117 0.6355
H11 H 0.6866 0.7287 0.6984
C14 C 0.28727(13) 0.5353(4) 0.29945(17)
H12 H 0.2396 0.5173 0.2901
H13 H 0.2961 0.5522 0.2468
C15 C 0.40174(14) 0.7928(5) 0.25780(17)
H14 H 0.3542 0.7868 0.2321
H15 H 0.4248 0.7058 0.2331
H16 H 0.4181 0.9106 0.2504
C14D C 0.71273(13) 0.4647(4) 0.70055(17)
O1D O 0.69648(8) 0.3046(2) 0.65235(10)
C7D C 0.62902(11) 0.2808(3) 0.61070(13)
C6D C 0.61250(11) 0.2933(3) 0.52335(14)
C1D C 0.54480(11) 0.2641(3) 0.47766(14)
C2D C 0.52893(13) 0.2689(4) 0.39076(15)
H1D H 0.4847 0.2305 0.3606
C3D C 0.57821(16) 0.3002(4) 0.35194(16)
H2D H 0.5655 0.3170 0.2934
C4D C 0.64567(14) 0.3277(4) 0.39737(17)
H3D H 0.6790 0.3472 0.3677
C5D C 0.66194(11) 0.3261(3) 0.48119(15)
H4D H 0.7082 0.3423 0.5114
C10D C 0.49526(11) 0.2274(3) 0.52035(14)
O2D O 0.43132(8) 0.2033(3) 0.47207(11)
C11D C 0.37812(11) 0.1800(3) 0.51097(16)
H6D H 0.3861 0.0768 0.5463
H7D H 0.3746 0.2838 0.5433
C12D C 0.31257(12) 0.1582(3) 0.4450(2)
O3D O 0.28741(8) 0.3181(3) 0.40306(13)
C13D C 0.31866(13) 0.3664(4) 0.34125(18)
H10D H 0.3659 0.3883 0.3645
H11D H 0.3134 0.2713 0.3016
H8D H 0.2782 0.1072 0.4670
H9D H 0.3212 0.0758 0.4052
C9D C 0.51368(12) 0.2130(3) 0.60412(15)
C8D C 0.58155(12) 0.2369(3) 0.65045(14)
C15D C 0.59826(14) 0.2072(5) 0.74220(17)
H14D H 0.6458 0.2132 0.7679
H15D H 0.5752 0.2942 0.7669
H16D H 0.5819 0.0894 0.7496
H5D H 0.4800 0.1856 0.6323
H12D H 0.7604 0.4827 0.7099
H13D H 0.7039 0.4478 0.7532
loop_
_geom_bond_atom_site_label_1
_geom_bond_atom_site_label_2
_geom_bond_site_symmetry_1
_geom_bond_site_symmetry_2
O1 C7 1_555 1_555
O2 C10 1_555 1_555
O3 C12 1_555 1_555
C1 C2 1_555 1_555
C2 H1 1_555 1_555
C3 C2 1_555 1_555
H2 C3 1_555 1_555
C4 C3 1_555 1_555
H3 C4 1_555 1_555
C5 C4 1_555 1_555
H4 C5 1_555 1_555
C6 C1 1_555 1_555
C7 C6 1_555 1_555
C8 C7 1_555 1_555
C9 C8 1_555 1_555
H5 C9 1_555 1_555
C10 C1 1_555 1_555
C11 O2 1_555 1_555
H6 C11 1_555 1_555
H7 C11 1_555 1_555
C12 C11 1_555 1_555
H8 C12 1_555 1_555
H9 C12 1_555 1_555
C13 O3 1_555 1_555
H10 C13 1_555 1_555
H11 C13 1_555 1_555
C14 O1 1_555 1_555
H12 C14 1_555 1_555
H13 C14 1_555 1_555
C15 C8 1_555 1_555
H14 C15 1_555 1_555
H15 C15 1_555 1_555
H16 C15 1_555 1_555
C14D C13 1_555 1_555
O1D C14D 1_555 1_555
C7D O1D 1_555 1_555
C6D C7D 1_555 1_555
C1D C6D 1_555 1_555
C2D C1D 1_555 1_555
H1D C2D 1_555 1_555
C3D C2D 1_555 1_555
H2D C3D 1_555 1_555
C4D C3D 1_555 1_555
H3D C4D 1_555 1_555
C5D C6D 1_555 1_555
H4D C5D 1_555 1_555
C10D C1D 1_555 1_555
O2D C10D 1_555 1_555
C11D O2D 1_555 1_555
H6D C11D 1_555 1_555
H7D C11D 1_555 1_555
C12D C11D 1_555 1_555
O3D C12D 1_555 1_555
C13D C14 1_555 1_555
H10D C13D 1_555 1_555
H11D C13D 1_555 1_555
H8D C12D 1_555 1_555
H9D C12D 1_555 1_555
C9D C10D 1_555 1_555
C8D C7D 1_555 1_555
C15D C8D 1_555 1_555
H14D C15D 1_555 1_555
H15D C15D 1_555 1_555
H16D C15D 1_555 1_555
H5D C9D 1_555 1_555
H12D C14D 1_555 1_555
H13D C14D 1_555 1_555
C5 C6 1_555 1_555
C9 C10 1_555 1_555
C4D C5D 1_555 1_555
O3D C13D 1_555 1_555
C9D C8D 1_555 1_555

#END
