
#######################################################################
#
#                 Cambridge Crystallographic Data Centre
#                                CCDC 
#
#######################################################################
#
# If this CIF has been generated from an entry in the Cambridge 
# Structural Database, then it will include bibliographic, chemical, 
# crystal, experimental, refinement or atomic coordinate data resulting 
# from the CCDC's data processing and validation procedures.
#
#######################################################################

data_AGETOX
_chemical_formula_moiety         'C25 H25 N7 O1,H2 O1'
_chemical_name_systematic        
'2,8,14,20-Tetramethyl-2,8,14,20,25,26,27-heptaazapentacyclo[19.3.1.1^3,7^.1^9,13^.1^15,19^]octacosa-1(25),3(28),4,6,9(27),10,12,15(26),16,18,21,23-dodecaen-28-ol monohydrate'
_symmetry_cell_setting           monoclinic
_symmetry_space_group_name_H-M   'C 2/c'
_symmetry_Int_Tables_number      15
_space_group_name_Hall           '-C 2yn'
loop_
_symmetry_equiv_pos_site_id
_symmetry_equiv_pos_as_xyz
1 x,y,z
2 -x,y,1/2-z
3 1/2+x,1/2+y,z
4 1/2-x,1/2+y,1/2-z
5 -x,-y,-z
6 x,-y,1/2+z
7 1/2-x,1/2-y,-z
8 1/2+x,1/2-y,1/2+z
_cell_length_a                   24.129(9)
_cell_length_b                   11.202(4)
_cell_length_c                   19.595(7)
_cell_angle_alpha                90
_cell_angle_beta                 119.366(5)
_cell_angle_gamma                90
_cell_volume                     4615.83
_exptl_crystal_colour            'light yellow'
_exptl_crystal_description       block
_cell_formula_units_Z            8
loop_
_atom_site_label
_atom_site_type_symbol
_atom_site_fract_x
_atom_site_fract_y
_atom_site_fract_z
O1 O 0.46119(9) 0.03571(15) 0.58323(11)
H1 H 0.5007 0.0276 0.6029
N1 N 0.54790(9) 0.22800(18) 0.62324(11)
N2 N 0.50478(8) 0.28599(17) 0.49507(11)
N3 N 0.45321(9) 0.3456(2) 0.36590(11)
N4 N 0.35699(9) 0.25848(18) 0.34080(10)
N5 N 0.26459(9) 0.15641(19) 0.31759(12)
N6 N 0.30155(9) 0.10032(17) 0.44626(12)
N7 N 0.34504(10) 0.05931(18) 0.57720(13)
C1 C 0.44588(12) 0.1461(2) 0.59792(13)
C2 C 0.38641(12) 0.1608(2) 0.59272(14)
C3 C 0.36764(13) 0.2727(2) 0.60376(15)
H2 H 0.3268 0.2829 0.5990
C4 C 0.40793(14) 0.3700(2) 0.62167(16)
H3 H 0.3950 0.4464 0.6297
C5 C 0.46691(13) 0.3552(2) 0.62780(14)
H4 H 0.4946 0.4218 0.6402
C6 C 0.48631(11) 0.2446(2) 0.61619(13)
C7 C 0.60193(14) 0.2093(3) 0.70143(16)
H5 H 0.6291 0.2805 0.7176
H6 H 0.6265 0.1402 0.7007
H7 H 0.5865 0.1948 0.7385
C8 C 0.55699(10) 0.25176(19) 0.56081(13)
C9 C 0.61612(11) 0.2400(2) 0.56429(15)
H8 H 0.6526 0.2136 0.6107
C10 C 0.61942(11) 0.2681(2) 0.49826(16)
H9 H 0.6590 0.2610 0.4992
C11 C 0.56698(11) 0.3061(2) 0.43078(15)
H10 H 0.5697 0.3275 0.3856
C12 C 0.50987(10) 0.3118(2) 0.43183(13)
C13 C 0.44481(14) 0.3202(4) 0.28879(16)
H11 H 0.4616 0.2406 0.2887
H12 H 0.4677 0.3799 0.2755
H13 H 0.3994 0.3229 0.2500
C14 C 0.39781(10) 0.3490(2) 0.37392(12)
C15 C 0.38920(11) 0.4397(2) 0.41534(13)
H14 H 0.4192 0.5027 0.4375
C16 C 0.33556(11) 0.4361(2) 0.42356(14)
H15 H 0.3285 0.4963 0.4526
C17 C 0.29247(11) 0.3447(2) 0.38949(14)
H16 H 0.2546 0.3422 0.3930
C18 C 0.30562(10) 0.2563(2) 0.34981(13)
C19 C 0.25558(14) 0.1092(3) 0.24344(16)
H17 H 0.2862 0.0448 0.2537
H18 H 0.2622 0.1730 0.2140
H19 H 0.2123 0.0778 0.2128
C20 C 0.26274(10) 0.0758(2) 0.37111(15)
C21 C 0.22261(12) -0.0240(2) 0.34653(19)
H20 H 0.1964 -0.0420 0.2926
C22 C 0.22299(13) -0.0946(2) 0.4041(2)
H21 H 0.1956 -0.1620 0.3895
C23 C 0.26177(12) -0.0707(2) 0.48217(18)
H22 H 0.2614 -0.1195 0.5216
C24 C 0.30218(11) 0.0291(2) 0.50143(16)
C25 C 0.36318(16) -0.0277(2) 0.63989(17)
H23 H 0.3274 -0.0409 0.6495
H24 H 0.3998 0.0024 0.6877
H25 H 0.3746 -0.1032 0.6246
O2 O 0.42517(10) 0.02900(17) 0.40548(13)
H26 H 0.4082 0.0937 0.3834
H27 H 0.4195 0.0385 0.4441
loop_
_geom_bond_atom_site_label_1
_geom_bond_atom_site_label_2
_geom_bond_site_symmetry_1
_geom_bond_site_symmetry_2
O1 H1 1_555 1_555
N1 C6 1_555 1_555
N2 C8 1_555 1_555
N3 C12 1_555 1_555
N4 C14 1_555 1_555
N5 C18 1_555 1_555
N6 C20 1_555 1_555
N7 C2 1_555 1_555
C1 O1 1_555 1_555
C2 C1 1_555 1_555
C3 C2 1_555 1_555
H2 C3 1_555 1_555
C4 C3 1_555 1_555
H3 C4 1_555 1_555
C5 C4 1_555 1_555
H4 C5 1_555 1_555
C6 C1 1_555 1_555
C7 N1 1_555 1_555
H5 C7 1_555 1_555
H6 C7 1_555 1_555
H7 C7 1_555 1_555
C8 N1 1_555 1_555
C9 C8 1_555 1_555
H8 C9 1_555 1_555
C10 C9 1_555 1_555
H9 C10 1_555 1_555
C11 C10 1_555 1_555
H10 C11 1_555 1_555
C12 N2 1_555 1_555
C13 N3 1_555 1_555
H11 C13 1_555 1_555
H12 C13 1_555 1_555
H13 C13 1_555 1_555
C14 N3 1_555 1_555
C15 C14 1_555 1_555
H14 C15 1_555 1_555
C16 C15 1_555 1_555
H15 C16 1_555 1_555
C17 C16 1_555 1_555
H16 C17 1_555 1_555
C18 N4 1_555 1_555
C19 N5 1_555 1_555
H17 C19 1_555 1_555
H18 C19 1_555 1_555
H19 C19 1_555 1_555
C20 N5 1_555 1_555
C21 C20 1_555 1_555
H20 C21 1_555 1_555
C22 C21 1_555 1_555
H21 C22 1_555 1_555
C23 C22 1_555 1_555
H22 C23 1_555 1_555
C24 N6 1_555 1_555
C25 N7 1_555 1_555
H23 C25 1_555 1_555
H24 C25 1_555 1_555
H25 C25 1_555 1_555
O2 H26 1_555 1_555
H27 O2 1_555 1_555
N7 C24 1_555 1_555
C5 C6 1_555 1_555
C11 C12 1_555 1_555
C17 C18 1_555 1_555
C23 C24 1_555 1_555

#END
