
#######################################################################
#
#                 Cambridge Crystallographic Data Centre
#                                CCDC 
#
#######################################################################
#
# If this CIF has been generated from an entry in the Cambridge 
# Structural Database, then it will include bibliographic, chemical, 
# crystal, experimental, refinement or atomic coordinate data resulting 
# from the CCDC's data processing and validation procedures.
#
#######################################################################

data_AGEYAO
_chemical_formula_moiety         'C14 H14 Cl1 N1 O2'
_chemical_name_systematic        2-(Butylamino)-3-chloro-1,4-naphthoquinone
_symmetry_cell_setting           monoclinic
_symmetry_space_group_name_H-M   'P 21'
_symmetry_Int_Tables_number      4
_space_group_name_Hall           'P 2yb'
loop_
_symmetry_equiv_pos_site_id
_symmetry_equiv_pos_as_xyz
1 x,y,z
2 -x,1/2+y,-z
_cell_length_a                   7.3733(13)
_cell_length_b                   4.5915(8)
_cell_length_c                   18.024(3)
_cell_angle_alpha                90
_cell_angle_beta                 90.853(3)
_cell_angle_gamma                90
_cell_volume                     610.126
_exptl_crystal_colour            red
_exptl_crystal_description       needle
_cell_formula_units_Z            2
loop_
_atom_site_label
_atom_site_type_symbol
_atom_site_fract_x
_atom_site_fract_y
_atom_site_fract_z
O1 O 1.04040(12) 0.5452(2) 0.25161(5)
C1 C 0.88615(17) 0.5168(3) 0.22576(7)
Cl1 Cl 0.78926(4) 0.90847(8) 0.327648(16)
C2 C 0.73322(17) 0.6798(3) 0.25413(7)
C3 C 0.56031(17) 0.6603(3) 0.22496(7)
O2 O 0.38124(12) 0.4673(2) 0.12678(5)
C4 C 0.52983(16) 0.4676(3) 0.15728(7)
C5 C 0.68078(17) 0.2871(3) 0.12988(7)
C6 C 0.65197(18) 0.0988(3) 0.07013(7)
H1 H 0.5357 0.0868 0.0469
C7 C 0.79438(16) -0.0715(3) 0.04464(6)
H2 H 0.7755 -0.2001 0.0040
C8 C 0.96475(17) -0.0531(3) 0.07894(7)
H3 H 1.0614 -0.1714 0.0620
C9 C 0.99379(18) 0.1377(3) 0.13784(8)
H4 H 1.1106 0.1514 0.1606
C10 C 0.85221(17) 0.3084(3) 0.16353(7)
N1 N 0.40652(15) 0.7936(3) 0.24415(6)
H5 H 0.320(2) 0.736(4) 0.2194(10)
C11 C 0.36353(17) 0.9749(3) 0.30862(7)
H6 H 0.2527 1.0892 0.2973
H7 H 0.4641 1.1141 0.3176
C12 C 0.33381(17) 0.7975(3) 0.37887(7)
H8 H 0.4500 0.7078 0.3950
H9 H 0.2465 0.6388 0.3681
C13 C 0.26150(18) 0.9871(3) 0.44135(7)
H10 H 0.3507 1.1423 0.4529
H11 H 0.1476 1.0818 0.4244
C14 C 0.2252(2) 0.8133(4) 0.51153(8)
H12 H 0.1386 0.6570 0.5002
H13 H 0.1745 0.9423 0.5493
H14 H 0.3390 0.7288 0.5303
loop_
_geom_bond_atom_site_label_1
_geom_bond_atom_site_label_2
_geom_bond_site_symmetry_1
_geom_bond_site_symmetry_2
O1 C1 1_555 1_555
C1 C2 1_555 1_555
Cl1 C2 1_555 1_555
C2 C3 1_555 1_555
C3 C4 1_555 1_555
O2 C4 1_555 1_555
C4 C5 1_555 1_555
C5 C6 1_555 1_555
C6 H1 1_555 1_555
C7 C6 1_555 1_555
H2 C7 1_555 1_555
C8 C7 1_555 1_555
H3 C8 1_555 1_555
C9 C8 1_555 1_555
H4 C9 1_555 1_555
C10 C1 1_555 1_555
N1 C3 1_555 1_555
H5 N1 1_555 1_555
C11 N1 1_555 1_555
H6 C11 1_555 1_555
H7 C11 1_555 1_555
C12 C11 1_555 1_555
H8 C12 1_555 1_555
H9 C12 1_555 1_555
C13 C12 1_555 1_555
H10 C13 1_555 1_555
H11 C13 1_555 1_555
C14 C13 1_555 1_555
H12 C14 1_555 1_555
H13 C14 1_555 1_555
H14 C14 1_555 1_555
C5 C10 1_555 1_555
C9 C10 1_555 1_555

#END
