
#######################################################################
#
#                 Cambridge Crystallographic Data Centre
#                                CCDC 
#
#######################################################################
#
# If this CIF has been generated from an entry in the Cambridge 
# Structural Database, then it will include bibliographic, chemical, 
# crystal, experimental, refinement or atomic coordinate data resulting 
# from the CCDC's data processing and validation procedures.
#
#######################################################################

data_AGEYER
_chemical_formula_moiety         'C9 H15 N2 O2 1+,Cl1 1-,0.5(H2 O1)'
_chemical_name_systematic        
'4-Dimethylamino-2,6-bis(hydroxymethyl)pyridinium chloride hemihydrate'
_symmetry_cell_setting           orthorhombic
_symmetry_space_group_name_H-M   'A b a 2'
_symmetry_Int_Tables_number      41
_space_group_name_Hall           'A 2 -2ab'
loop_
_symmetry_equiv_pos_site_id
_symmetry_equiv_pos_as_xyz
1 x,y,z
2 -x,-y,z
3 1/2+x,1/2-y,z
4 1/2-x,1/2+y,z
5 x,1/2+y,1/2+z
6 -x,1/2-y,1/2+z
7 1/2+x,-y,1/2+z
8 1/2-x,y,1/2+z
_cell_length_a                   17.2179(14)
_cell_length_b                   17.6332(15)
_cell_length_c                   7.2068(6)
_cell_angle_alpha                90
_cell_angle_beta                 90
_cell_angle_gamma                90
_cell_volume                     2188.03
_exptl_crystal_colour            colorless
_exptl_crystal_description       needle
_chemical_melting_point          '191.8 deg.C'
_cell_formula_units_Z            8
_exptl_crystal_recrystallization_method water
loop_
_atom_site_label
_atom_site_type_symbol
_atom_site_fract_x
_atom_site_fract_y
_atom_site_fract_z
Cl1 Cl 0.12290(3) 0.39512(3) 0.38410(14)
N1 N 0.39911(11) 0.57567(10) 0.4169(3)
C1 C 0.33676(12) 0.52954(11) 0.3968(4)
C2 C 0.26339(12) 0.55756(12) 0.4125(4)
H1 H 0.2209 0.5256 0.3970
C3 C 0.25174(13) 0.63589(12) 0.4526(4)
C4 C 0.31917(12) 0.68121(13) 0.4794(4)
H2 H 0.3142 0.7323 0.5095
C5 C 0.39128(13) 0.64967(13) 0.4609(4)
C6 C 0.35463(14) 0.44632(12) 0.3675(5)
H3 H 0.3530 0.4202 0.4859
H4 H 0.3153 0.4241 0.2879
C7 C 0.46598(13) 0.69355(12) 0.4897(4)
H5 H 0.5027 0.6619 0.5562
H6 H 0.4884 0.7054 0.3697
C8 C 0.11108(14) 0.61875(15) 0.4411(5)
H7 H 0.1103 0.5985 0.3175
H8 H 0.0655 0.6491 0.4609
H9 H 0.1119 0.5778 0.5290
C9 C 0.16776(15) 0.74681(16) 0.4925(6)
H10 H 0.1752 0.7593 0.6210
H11 H 0.1158 0.7597 0.4563
H12 H 0.2040 0.7748 0.4182
N2 N 0.18032(11) 0.66559(11) 0.4654(4)
O1 O 0.42903(10) 0.43607(10) 0.2854(3)
H13 H 0.4239 0.4274 0.1743
O2 O 0.45482(11) 0.76131(10) 0.5894(3)
H14 H 0.4357(18) 0.7892(18) 0.520(5)
H16 H 0.4448(18) 0.5562(16) 0.421(5)
O3 O 0.0000 0.5000 0.1736(5)
H15 H 0.0277(19) 0.4758(19) 0.226(5)
H15A H -0.0277(19) 0.5242(19) 0.226(5)
loop_
_geom_bond_atom_site_label_1
_geom_bond_atom_site_label_2
_geom_bond_site_symmetry_1
_geom_bond_site_symmetry_2
N1 C1 1_555 1_555
C1 C2 1_555 1_555
C2 H1 1_555 1_555
C3 C2 1_555 1_555
C4 C3 1_555 1_555
H2 C4 1_555 1_555
C5 N1 1_555 1_555
C6 C1 1_555 1_555
H3 C6 1_555 1_555
H4 C6 1_555 1_555
C7 C5 1_555 1_555
H5 C7 1_555 1_555
H6 C7 1_555 1_555
C8 H7 1_555 1_555
H8 C8 1_555 1_555
H9 C8 1_555 1_555
C9 H10 1_555 1_555
H11 C9 1_555 1_555
H12 C9 1_555 1_555
N2 C3 1_555 1_555
O1 C6 1_555 1_555
H13 O1 1_555 1_555
O2 C7 1_555 1_555
O3 H15 1_555 1_555
H14 O2 1_555 1_555
H16 N1 1_555 1_555
H15A O3 1_555 1_555
C4 C5 1_555 1_555
C8 N2 1_555 1_555
C9 N2 1_555 1_555

#END
