
#######################################################################
#
#                 Cambridge Crystallographic Data Centre
#                                CCDC 
#
#######################################################################
#
# If this CIF has been generated from an entry in the Cambridge 
# Structural Database, then it will include bibliographic, chemical, 
# crystal, experimental, refinement or atomic coordinate data resulting 
# from the CCDC's data processing and validation procedures.
#
#######################################################################

data_AGEYIW
_chemical_formula_moiety         'C16 H18 Cl1 N1 O2'
_chemical_name_systematic        2-Chloro-3-(hexylamino)-1,4-naphthoquinone
_symmetry_cell_setting           monoclinic
_symmetry_space_group_name_H-M   'P 21/c'
_symmetry_Int_Tables_number      14
_space_group_name_Hall           '-P 2ybc'
loop_
_symmetry_equiv_pos_site_id
_symmetry_equiv_pos_as_xyz
1 x,y,z
2 -x,1/2+y,1/2-z
3 -x,-y,-z
4 x,1/2-y,1/2+z
_cell_length_a                   5.5123(8)
_cell_length_b                   13.2630(18)
_cell_length_c                   19.213(3)
_cell_angle_alpha                90
_cell_angle_beta                 93.246(2)
_cell_angle_gamma                90
_cell_volume                     1402.4
_exptl_crystal_description       'rectangular plate'
_cell_formula_units_Z            4
loop_
_atom_site_label
_atom_site_type_symbol
_atom_site_fract_x
_atom_site_fract_y
_atom_site_fract_z
C1 C 0.2105(4) 0.50179(15) 0.32199(10)
C2 C 0.3178(4) 0.57556(14) 0.37054(10)
C3 C 0.5275(3) 0.55885(14) 0.41088(9)
C4 C 0.6567(3) 0.45882(14) 0.40426(10)
C5 C 0.6716(4) 0.29204(16) 0.34626(11)
C6 C 0.5708(4) 0.21999(17) 0.30109(12)
C7 C 0.3520(4) 0.23821(17) 0.26478(11)
C8 C 0.2346(4) 0.32903(16) 0.27164(11)
C9 C 0.3353(4) 0.40293(14) 0.31603(9)
C10 C 0.5538(3) 0.38348(14) 0.35406(9)
C11 C 0.5973(4) 0.72524(16) 0.47233(12)
C12 C 0.7855(4) 0.76879(16) 0.52431(11)
C13 C 0.7283(4) 0.87857(16) 0.53991(12)
C14 C 0.9126(4) 0.92886(17) 0.59023(12)
C15 C 0.8521(5) 1.03749(17) 0.60788(13)
C16 C 0.6356(5) 1.0479(2) 0.65187(13)
Cl1 Cl 0.15159(10) 0.68655(4) 0.37279(3)
H1 H 0.814(4) 0.2796(15) 0.3716(10)
H2 H 0.651(4) 0.1557(18) 0.2970(11)
H3 H 0.088(4) 0.3443(15) 0.2469(11)
N1 N 0.6414(3) 0.61912(12) 0.45862(9)
O1 O 0.8414(3) 0.44309(11) 0.44024(8)
O2 O 0.0233(3) 0.51971(12) 0.28667(8)
H4 H 0.930(4) 0.8892(19) 0.6325(13)
H5 H 1.064(4) 0.9252(16) 0.5709(11)
H6 H 0.426(4) 0.7332(16) 0.4894(11)
H7 H 0.772(4) 0.5945(17) 0.4758(11)
H8 H 0.574(4) 0.8823(18) 0.5577(12)
H9 H 0.788(4) 0.7302(18) 0.5681(12)
H10 H 0.605(4) 0.7627(18) 0.4289(12)
H11 H 0.955(4) 0.7640(16) 0.5074(11)
H12 H 0.824(4) 1.0754(19) 0.5641(13)
H13 H 0.286(4) 0.1893(18) 0.2368(12)
H14 H 0.989(4) 1.0685(17) 0.6312(12)
H15 H 0.483(5) 1.0207(19) 0.6284(13)
H16 H 0.721(4) 0.9170(19) 0.4970(12)
H17 H 0.612(5) 1.117(2) 0.6647(13)
H18 H 0.661(5) 1.012(2) 0.6966(15)
loop_
_geom_bond_atom_site_label_1
_geom_bond_atom_site_label_2
_geom_bond_site_symmetry_1
_geom_bond_site_symmetry_2
C1 C2 1_555 1_555
C2 C3 1_555 1_555
C3 C4 1_555 1_555
C4 C10 1_555 1_555
C5 C6 1_555 1_555
C6 C7 1_555 1_555
C7 C8 1_555 1_555
C8 C9 1_555 1_555
C9 C1 1_555 1_555
C10 C5 1_555 1_555
C11 C12 1_555 1_555
C12 C13 1_555 1_555
C13 C14 1_555 1_555
C14 C15 1_555 1_555
C15 C16 1_555 1_555
C16 H15 1_555 1_555
Cl1 C2 1_555 1_555
H1 C5 1_555 1_555
H2 C6 1_555 1_555
H3 C8 1_555 1_555
N1 C3 1_555 1_555
O1 C4 1_555 1_555
O2 C1 1_555 1_555
H4 C14 1_555 1_555
H5 C14 1_555 1_555
H6 C11 1_555 1_555
H7 N1 1_555 1_555
H8 C13 1_555 1_555
H9 C12 1_555 1_555
H10 C11 1_555 1_555
H11 C12 1_555 1_555
H12 C15 1_555 1_555
H13 C7 1_555 1_555
H14 C15 1_555 1_555
H16 C13 1_555 1_555
H17 C16 1_555 1_555
H18 C16 1_555 1_555
C9 C10 1_555 1_555
C11 N1 1_555 1_555

#END
