
#######################################################################
#
#                 Cambridge Crystallographic Data Centre
#                                CCDC 
#
#######################################################################
#
# If this CIF has been generated from an entry in the Cambridge 
# Structural Database, then it will include bibliographic, chemical, 
# crystal, experimental, refinement or atomic coordinate data resulting 
# from the CCDC's data processing and validation procedures.
#
#######################################################################

data_AGIDOL
_chemical_name_common            Naphthoquinones
_chemical_formula_moiety         'C11 H8 Cl1 N1 O2'
_chemical_name_systematic        2-Chloro-3-(methylamino)-1,4-naphthoquinone
_symmetry_cell_setting           triclinic
_symmetry_space_group_name_H-M   'P -1'
_symmetry_Int_Tables_number      2
_space_group_name_Hall           '-P 1'
loop_
_symmetry_equiv_pos_site_id
_symmetry_equiv_pos_as_xyz
1 x,y,z
2 -x,-y,-z
_cell_length_a                   7.1438(8)
_cell_length_b                   7.4626(8)
_cell_length_c                   9.1504(10)
_cell_angle_alpha                84.839(2)
_cell_angle_beta                 76.708(2)
_cell_angle_gamma                86.574(2)
_cell_volume                     472.443
_exptl_crystal_colour            red
_exptl_crystal_description       plate
_cell_formula_units_Z            2
loop_
_atom_site_label
_atom_site_type_symbol
_atom_site_fract_x
_atom_site_fract_y
_atom_site_fract_z
Cl1 Cl 0.01933(14) 0.65373(13) 0.64667(10)
O1 O -0.2980(4) 0.8066(4) 0.8530(3)
O2 O 0.3003(4) 0.6591(4) 1.1073(3)
N1 N 0.3573(4) 0.6053(4) 0.8253(4)
H1 H 0.4333 0.5861 0.8860
C1 C -0.1587(5) 0.7738(4) 0.9106(4)
C2 C 0.0203(5) 0.6964(4) 0.8287(4)
C3 C 0.1808(5) 0.6656(4) 0.8887(4)
C4 C 0.1641(5) 0.7001(4) 1.0503(4)
C5 C -0.0294(6) 0.8214(5) 1.2817(4)
H2 H 0.0755 0.7986 1.3259
C6 C -0.2000(6) 0.8962(5) 1.3628(5)
H3 H -0.2107 0.9223 1.4620
C7 C -0.3532(6) 0.9314(5) 1.2954(5)
H4 H -0.4671 0.9826 1.3496
C8 C -0.3411(5) 0.8926(5) 1.1503(4)
H5 H -0.4462 0.9174 1.1067
C9 C -0.1715(5) 0.8160(4) 1.0676(4)
C10 C -0.0159(5) 0.7810(4) 1.1357(4)
C11 C 0.4424(6) 0.5669(6) 0.6729(5)
H6 H 0.3770 0.4704 0.6461
H7 H 0.5759 0.5323 0.6641
H8 H 0.4311 0.6723 0.6067
loop_
_geom_bond_atom_site_label_1
_geom_bond_atom_site_label_2
_geom_bond_site_symmetry_1
_geom_bond_site_symmetry_2
Cl1 C2 1_555 1_555
O1 C1 1_555 1_555
O2 C4 1_555 1_555
N1 H1 1_555 1_555
C1 C2 1_555 1_555
C2 C3 1_555 1_555
C3 N1 1_555 1_555
C4 C3 1_555 1_555
C5 H2 1_555 1_555
C6 C5 1_555 1_555
H3 C6 1_555 1_555
C7 C6 1_555 1_555
H4 C7 1_555 1_555
C8 C7 1_555 1_555
H5 C8 1_555 1_555
C9 C1 1_555 1_555
C10 C4 1_555 1_555
C11 N1 1_555 1_555
H6 C11 1_555 1_555
H7 C11 1_555 1_555
H8 C11 1_555 1_555
C5 C10 1_555 1_555
C8 C9 1_555 1_555
C9 C10 1_555 1_555

#END
