
#######################################################################
#
#                 Cambridge Crystallographic Data Centre
#                                CCDC 
#
#######################################################################
#
# If this CIF has been generated from an entry in the Cambridge 
# Structural Database, then it will include bibliographic, chemical, 
# crystal, experimental, refinement or atomic coordinate data resulting 
# from the CCDC's data processing and validation procedures.
#
#######################################################################

data_AGIMUA
_chemical_formula_moiety         'C33 H27 N9 O3'
_chemical_name_systematic        
4,4',4''-((2,4,6-Triethylbenzene-1,3,5-triyl)tri-1,3,4-oxadiazole-5,2-diyl)tripyridine
_symmetry_cell_setting           monoclinic
_symmetry_space_group_name_H-M   'P 21/n'
_symmetry_Int_Tables_number      14
_space_group_name_Hall           '-P 2yn'
loop_
_symmetry_equiv_pos_site_id
_symmetry_equiv_pos_as_xyz
1 x,y,z
2 1/2-x,1/2+y,1/2-z
3 -x,-y,-z
4 1/2+x,1/2-y,1/2+z
_cell_length_a                   16.032(4)
_cell_length_b                   11.544(3)
_cell_length_c                   32.695(7)
_cell_angle_alpha                90
_cell_angle_beta                 90.772(4)
_cell_angle_gamma                90
_cell_volume                     6050.43
_exptl_crystal_colour            colorless
_exptl_crystal_description       block
_cell_formula_units_Z            8
loop_
_atom_site_label
_atom_site_type_symbol
_atom_site_fract_x
_atom_site_fract_y
_atom_site_fract_z
C1 C 0.7933(2) 0.3275(3) 0.19491(11)
H1 H 0.7757 0.2562 0.2048
C2 C 0.7334(2) 0.4032(3) 0.18094(10)
H2 H 0.6773 0.3826 0.1810
C3 C 0.75777(18) 0.5104(3) 0.16678(9)
C4 C 0.84204(19) 0.5366(3) 0.16763(10)
H3 H 0.8612 0.6086 0.1591
C5 C 0.8966(2) 0.4528(4) 0.18147(11)
H4 H 0.9533 0.4701 0.1812
C6 C 0.69789(18) 0.5932(3) 0.14942(9)
C7 C 0.58010(18) 0.6557(2) 0.12803(9)
C8 C 0.48953(18) 0.6537(2) 0.11924(8)
C9 C 0.43667(19) 0.7303(2) 0.13926(9)
C10 C 0.4712(2) 0.8139(2) 0.17075(9)
H5 H 0.4306 0.8747 0.1751
H6 H 0.5211 0.8497 0.1600
C11 C 0.4926(2) 0.7584(3) 0.21155(10)
H7 H 0.4434 0.7240 0.2227
H8 H 0.5137 0.8163 0.2300
H9 H 0.5342 0.6997 0.2077
C12 C 0.35123(19) 0.7271(2) 0.12962(9)
C13 C 0.29391(19) 0.8025(3) 0.15248(9)
C14 C 0.23434(18) 0.8678(3) 0.20568(10)
C15 C 0.21417(18) 0.8750(3) 0.24886(10)
C16 C 0.2486(2) 0.8012(4) 0.27667(11)
H10 H 0.2857 0.7439 0.2685
C17 C 0.2278(3) 0.8126(5) 0.31703(13)
H11 H 0.2517 0.7610 0.3356
C18 C 0.1431(3) 0.9616(4) 0.30390(15)
H12 H 0.1056 1.0171 0.3129
C19 C 0.1599(2) 0.9586(3) 0.26311(13)
H13 H 0.1353 1.0117 0.2452
C20 C 0.31921(19) 0.6510(3) 0.09965(9)
C21 C 0.2267(2) 0.6498(3) 0.08837(12)
H14 H 0.2057 0.7285 0.0890
H15 H 0.2202 0.6214 0.0606
C22 C 0.1760(3) 0.5773(5) 0.11576(17)
H16 H 0.1968 0.4993 0.1156
H17 H 0.1190 0.5779 0.1064
H18 H 0.1794 0.6077 0.1431
C23 C 0.37445(18) 0.5759(2) 0.08067(9)
C24 C 0.34306(18) 0.4955(3) 0.04863(9)
C25 C 0.28575(18) 0.3446(3) 0.02333(10)
C26 C 0.24440(18) 0.2327(3) 0.02270(10)
C27 C 0.2264(2) 0.1735(3) 0.05806(12)
H19 H 0.2406 0.2046 0.0834
C28 C 0.1868(3) 0.0669(3) 0.05534(15)
H20 H 0.1758 0.0273 0.0795
C29 C 0.1817(2) 0.0767(3) -0.01364(15)
H21 H 0.1661 0.0442 -0.0386
C30 C 0.2221(2) 0.1826(3) -0.01413(11)
H22 H 0.2340 0.2191 -0.0387
C31 C 0.46012(18) 0.5749(2) 0.08980(8)
C32 C 0.5177(2) 0.4902(3) 0.06965(10)
H23 H 0.5738 0.5217 0.0700
H24 H 0.5005 0.4804 0.0413
C33 C 0.5187(2) 0.3717(3) 0.09070(12)
H25 H 0.5334 0.3812 0.1191
H26 H 0.5589 0.3226 0.0778
H27 H 0.4644 0.3370 0.0884
N1 N 0.1761(2) 0.8916(4) 0.33146(11)
N2 N 0.2078(2) 0.9288(3) 0.17572(10)
N3 N 0.2477(2) 0.8867(3) 0.14057(9)
N4 N 0.3476(2) 0.5054(2) 0.00965(9)
N5 N 0.3096(2) 0.4056(3) -0.00699(9)
N6 N 0.1636(2) 0.0184(3) 0.02017(14)
N7 N 0.63398(17) 0.7346(2) 0.11979(9)
N8 N 0.71200(16) 0.6928(2) 0.13364(9)
N9 N 0.8745(2) 0.3492(3) 0.19520(10)
O1 O 0.61591(12) 0.56285(15) 0.14728(6)
O2 O 0.30470(12) 0.39510(17) 0.05983(6)
O3 O 0.28842(12) 0.78402(16) 0.19351(6)
C34 C 0.7659(3) 0.3413(3) 0.06939(13)
H28 H 0.7343 0.3568 0.0935
H29 H 0.7400 0.3788 0.0463
H30 H 0.8216 0.3701 0.0731
C35 C 0.76861(18) 0.2129(2) 0.06203(9)
H31 H 0.8007 0.1982 0.0376
H32 H 0.7123 0.1854 0.0569
C36 C 0.80632(17) 0.1447(2) 0.09713(8)
C37 C 0.75521(16) 0.0805(2) 0.12286(8)
C38 C 0.66465(17) 0.0728(2) 0.11379(8)
C39 C 0.55509(17) 0.0079(3) 0.08468(9)
C40 C 0.50445(18) -0.0622(3) 0.05643(9)
C41 C 0.5383(2) -0.1463(3) 0.03286(11)
H33 H 0.5950 -0.1625 0.0347
C42 C 0.4876(3) -0.2075(3) 0.00612(13)
H34 H 0.5122 -0.2648 -0.0097
C43 C 0.3747(2) -0.1122(4) 0.02567(14)
H35 H 0.3174 -0.1002 0.0239
C44 C 0.4195(2) -0.0462(3) 0.05355(11)
H36 H 0.3928 0.0078 0.0700
C45 C 0.78654(17) 0.0205(2) 0.15717(8)
C46 C 0.72864(18) -0.0459(3) 0.18453(10)
H37 H 0.7595 -0.1086 0.1974
H38 H 0.6845 -0.0799 0.1679
C47 C 0.6895(2) 0.0284(3) 0.21769(10)
H39 H 0.7324 0.0568 0.2359
H40 H 0.6506 -0.0174 0.2328
H41 H 0.6608 0.0927 0.2053
C48 C 0.87272(17) 0.0264(2) 0.16470(8)
C49 C 0.90574(16) -0.0329(2) 0.20167(9)
C50 C 0.96678(17) -0.1631(3) 0.23738(9)
C51 C 1.01511(17) -0.2667(2) 0.24667(10)
C52 C 1.0516(2) -0.3329(3) 0.21681(10)
H42 H 1.0448 -0.3139 0.1893
C53 C 1.0984(2) -0.4283(3) 0.22857(12)
H43 H 1.1227 -0.4727 0.2082
C54 C 1.0746(2) -0.3953(3) 0.29503(12)
H44 H 1.0822 -0.4162 0.3223
C55 C 1.02645(19) -0.2994(3) 0.28688(10)
H45 H 1.0022 -0.2576 0.3079
C56 C 0.92671(17) 0.0863(2) 0.13934(8)
C57 C 1.02027(17) 0.0860(3) 0.14765(9)
H46 H 1.0365 0.0104 0.1580
H47 H 1.0489 0.0982 0.1221
C58 C 1.0483(2) 0.1775(3) 0.17802(11)
H48 H 1.0400 0.2530 0.1663
H49 H 1.1064 0.1668 0.1845
H50 H 1.0162 0.1709 0.2025
C59 C 0.89266(17) 0.1471(2) 0.10578(8)
C60 C 0.94761(17) 0.2161(3) 0.07975(9)
C61 C 1.00077(18) 0.2747(3) 0.02398(10)
C62 C 1.01435(18) 0.2814(3) -0.01998(10)
C63 C 0.9841(2) 0.1988(3) -0.04643(11)
H51 H 0.9550 0.1349 -0.0368
C64 C 0.9981(3) 0.2127(3) -0.08788(12)
H52 H 0.9767 0.1568 -0.1056
C65 C 1.0681(3) 0.3776(4) -0.07771(13)
H53 H 1.0973 0.4404 -0.0882
C66 C 1.0579(2) 0.3728(3) -0.03613(11)
H54 H 1.0800 0.4302 -0.0192
N10 N 0.60349(15) 0.1242(2) 0.13047(8)
N11 N 0.53020(15) 0.0814(2) 0.11111(8)
N12 N 0.4072(2) -0.1904(3) 0.00154(11)
N13 N 0.89943(16) -0.0015(2) 0.23884(8)
N14 N 0.93958(16) -0.0871(2) 0.26254(8)
N15 N 1.11081(19) -0.4601(2) 0.26714(11)
N16 N 0.99363(17) 0.3036(2) 0.08912(8)
N17 N 1.02878(17) 0.3422(2) 0.05200(9)
N18 N 1.0396(2) 0.2999(3) -0.10396(10)
O4 O 0.94979(12) 0.19150(16) 0.03888(6)
O5 O 0.94833(12) -0.13515(15) 0.19757(6)
O6 O 0.63943(11) -0.00282(15) 0.08379(6)
loop_
_geom_bond_atom_site_label_1
_geom_bond_atom_site_label_2
_geom_bond_site_symmetry_1
_geom_bond_site_symmetry_2
C1 H1 1_555 1_555
C2 C1 1_555 1_555
H2 C2 1_555 1_555
C3 C2 1_555 1_555
C4 C3 1_555 1_555
H3 C4 1_555 1_555
C5 C4 1_555 1_555
H4 C5 1_555 1_555
C6 C3 1_555 1_555
C7 C8 1_555 1_555
C8 C9 1_555 1_555
C9 C10 1_555 1_555
C10 H5 1_555 1_555
H6 C10 1_555 1_555
C11 C10 1_555 1_555
H7 C11 1_555 1_555
H8 C11 1_555 1_555
H9 C11 1_555 1_555
C12 C9 1_555 1_555
C13 C12 1_555 1_555
C14 C15 1_555 1_555
C15 C16 1_555 1_555
C16 H10 1_555 1_555
C17 C16 1_555 1_555
H11 C17 1_555 1_555
C18 H12 1_555 1_555
C19 C15 1_555 1_555
H13 C19 1_555 1_555
C20 C12 1_555 1_555
C21 C20 1_555 1_555
H14 C21 1_555 1_555
H15 C21 1_555 1_555
C22 C21 1_555 1_555
H16 C22 1_555 1_555
H17 C22 1_555 1_555
H18 C22 1_555 1_555
C23 C20 1_555 1_555
C24 C23 1_555 1_555
C25 C26 1_555 1_555
C26 C27 1_555 1_555
C27 H19 1_555 1_555
C28 C27 1_555 1_555
H20 C28 1_555 1_555
C29 H21 1_555 1_555
C30 C26 1_555 1_555
H22 C30 1_555 1_555
C31 C8 1_555 1_555
C32 C31 1_555 1_555
H23 C32 1_555 1_555
H24 C32 1_555 1_555
C33 C32 1_555 1_555
H25 C33 1_555 1_555
H26 C33 1_555 1_555
H27 C33 1_555 1_555
N1 C17 1_555 1_555
N2 C14 1_555 1_555
N3 C13 1_555 1_555
N4 C24 1_555 1_555
N5 C25 1_555 1_555
N6 C28 1_555 1_555
N7 C7 1_555 1_555
N8 C6 1_555 1_555
N9 C1 1_555 1_555
O1 C6 1_555 1_555
O2 C24 1_555 1_555
O3 C13 1_555 1_555
C34 H28 1_555 1_555
H29 C34 1_555 1_555
H30 C34 1_555 1_555
C35 C34 1_555 1_555
H31 C35 1_555 1_555
H32 C35 1_555 1_555
C36 C35 1_555 1_555
C37 C36 1_555 1_555
C38 C37 1_555 1_555
C39 C40 1_555 1_555
C40 C41 1_555 1_555
C41 H33 1_555 1_555
C42 C41 1_555 1_555
H34 C42 1_555 1_555
C43 H35 1_555 1_555
C44 C40 1_555 1_555
H36 C44 1_555 1_555
C45 C37 1_555 1_555
C46 C45 1_555 1_555
H37 C46 1_555 1_555
H38 C46 1_555 1_555
C47 C46 1_555 1_555
H39 C47 1_555 1_555
H40 C47 1_555 1_555
H41 C47 1_555 1_555
C48 C45 1_555 1_555
C49 C48 1_555 1_555
C50 C51 1_555 1_555
C51 C52 1_555 1_555
C52 H42 1_555 1_555
C53 C52 1_555 1_555
H43 C53 1_555 1_555
C54 H44 1_555 1_555
C55 C51 1_555 1_555
H45 C55 1_555 1_555
C56 C48 1_555 1_555
C57 C56 1_555 1_555
H46 C57 1_555 1_555
H47 C57 1_555 1_555
C58 C57 1_555 1_555
H48 C58 1_555 1_555
H49 C58 1_555 1_555
H50 C58 1_555 1_555
C59 C36 1_555 1_555
C60 C59 1_555 1_555
C61 C62 1_555 1_555
C62 C63 1_555 1_555
C63 H51 1_555 1_555
C64 C63 1_555 1_555
H52 C64 1_555 1_555
C65 H53 1_555 1_555
C66 C62 1_555 1_555
H54 C66 1_555 1_555
N10 C38 1_555 1_555
N11 C39 1_555 1_555
N12 C42 1_555 1_555
N13 C49 1_555 1_555
N14 C50 1_555 1_555
N15 C53 1_555 1_555
N16 C60 1_555 1_555
N17 C61 1_555 1_555
N18 C64 1_555 1_555
O4 C60 1_555 1_555
O5 C49 1_555 1_555
O6 C38 1_555 1_555
C5 N9 1_555 1_555
C7 O1 1_555 1_555
C14 O3 1_555 1_555
C18 C19 1_555 1_555
C18 N1 1_555 1_555
C23 C31 1_555 1_555
C25 O2 1_555 1_555
C29 C30 1_555 1_555
C29 N6 1_555 1_555
N2 N3 1_555 1_555
N4 N5 1_555 1_555
N7 N8 1_555 1_555
C39 O6 1_555 1_555
C43 C44 1_555 1_555
C43 N12 1_555 1_555
C50 O5 1_555 1_555
C54 C55 1_555 1_555
C54 N15 1_555 1_555
C56 C59 1_555 1_555
C61 O4 1_555 1_555
C65 C66 1_555 1_555
C65 N18 1_555 1_555
N10 N11 1_555 1_555
N13 N14 1_555 1_555
N16 N17 1_555 1_555

#END
