
#######################################################################
#
#                 Cambridge Crystallographic Data Centre
#                                CCDC 
#
#######################################################################
#
# If this CIF has been generated from an entry in the Cambridge 
# Structural Database, then it will include bibliographic, chemical, 
# crystal, experimental, refinement or atomic coordinate data resulting 
# from the CCDC's data processing and validation procedures.
#
#######################################################################

data_AGINUC
_chemical_formula_moiety         'C33 H26 N2'
_chemical_name_systematic        
N,N'-(propane-1,3-diyl)bis[1-(anthracen-9-yl)methanimine]
_symmetry_cell_setting           orthorhombic
_symmetry_space_group_name_H-M   'P n a 21'
_symmetry_Int_Tables_number      33
_space_group_name_Hall           'P 2c -2n'
loop_
_symmetry_equiv_pos_site_id
_symmetry_equiv_pos_as_xyz
1 x,y,z
2 -x,-y,1/2+z
3 1/2+x,1/2-y,z
4 1/2-x,1/2+y,1/2+z
_cell_length_a                   31.1558(6)
_cell_length_b                   4.35820(10)
_cell_length_c                   34.4041(7)
_cell_angle_alpha                90
_cell_angle_beta                 90
_cell_angle_gamma                90
_cell_volume                     4671.5
_exptl_crystal_colour            'light yellow'
_exptl_crystal_description       needle
_cell_formula_units_Z            8
loop_
_atom_site_label
_atom_site_type_symbol
_atom_site_fract_x
_atom_site_fract_y
_atom_site_fract_z
N1 N -0.55078(6) -0.4420(4) -0.60105(5)
N2 N -0.67308(6) -0.4294(4) -0.69076(6)
C1 C -0.51477(7) -0.4176(5) -0.53870(6)
C2 C -0.74782(7) -0.3802(5) -0.70849(7)
C3 C -0.52817(7) -0.3380(5) -0.50081(7)
C4 C -0.61512(7) -0.3995(5) -0.64214(7)
H1 H -0.6344 -0.3452 -0.6211
H2 H -0.6138 -0.6216 -0.6435
C5 C -0.78285(8) -0.0916(5) -0.65453(7)
H3 H -0.7563 -0.0194 -0.6462
C6 C -0.75150(7) -0.5760(5) -0.74105(7)
C7 C -0.78492(7) -0.2859(5) -0.68768(7)
C8 C -0.53812(7) -0.2830(5) -0.57223(7)
H4 H -0.5437 -0.0734 -0.5722
C9 C -0.45584(8) -0.7245(5) -0.51136(7)
C10 C -0.82623(7) -0.3929(5) -0.69985(7)
C11 C -0.41929(7) -0.9163(5) -0.51711(7)
H5 H -0.4043 -0.9897 -0.4957
C12 C -0.70564(7) -0.2600(5) -0.69596(6)
H6 H -0.7029 -0.0502 -0.6917
C13 C -0.57073(7) -0.2757(5) -0.63317(7)
H7 H -0.5528 -0.2935 -0.6561
H8 H -0.5728 -0.0600 -0.6265
C14 C -0.79340(8) -0.6815(5) -0.75260(7)
C15 C -0.46948(8) -0.6448(5) -0.47429(7)
H9 H -0.4545 -0.7198 -0.4529
C16 C -0.50490(8) -0.4562(5) -0.46800(7)
C17 C -0.47874(7) -0.6103(5) -0.54453(7)
C18 C -0.63297(7) -0.2758(5) -0.68007(7)
H10 H -0.6381 -0.0572 -0.6775
H11 H -0.6120 -0.3055 -0.7006
C19 C -0.46312(7) -0.6965(5) -0.58214(7)
H12 H -0.4771 -0.6236 -0.6042
C20 C -0.71579(8) -0.6663(5) -0.76413(7)
H13 H -0.6884 -0.5995 -0.7574
C21 C -0.82929(7) -0.5895(5) -0.73180(7)
H14 H -0.8562 -0.6608 -0.7393
C22 C -0.81898(8) -0.0088(6) -0.63471(7)
H15 H -0.8168 0.1180 -0.6131
C23 C -0.42857(8) -0.8812(6) -0.58636(8)
H16 H -0.4194 -0.9357 -0.6112
C24 C -0.85943(8) -0.1142(6) -0.64690(8)
H17 H -0.8839 -0.0561 -0.6332
C25 C -0.56412(8) -0.1471(6) -0.49331(7)
H18 H -0.5794 -0.0660 -0.5141
C26 C -0.86329(8) -0.2987(6) -0.67820(7)
H19 H -0.8904 -0.3656 -0.6858
C27 C -0.79697(8) -0.8771(6) -0.78560(7)
H20 H -0.8238 -0.9515 -0.7927
C28 C -0.51956(8) -0.3822(6) -0.42987(7)
H21 H -0.5050 -0.4604 -0.4085
C29 C -0.76222(9) -0.9575(6) -0.80695(8)
H22 H -0.7653 -1.0827 -0.8287
C30 C -0.40610(8) -0.9930(6) -0.55341(8)
H23 H -0.3823 -1.1191 -0.5567
C31 C -0.57679(8) -0.0796(6) -0.45639(7)
H24 H -0.6004 0.0467 -0.4523
C32 C -0.55413(9) -0.2009(6) -0.42422(8)
H25 H -0.5631 -0.1556 -0.3991
C33 C -0.72100(9) -0.8494(6) -0.79598(8)
H26 H -0.6972 -0.9041 -0.8107
N3 N -0.57835(6) -0.7209(4) -0.31566(6)
N4 N -0.69756(7) -0.7027(5) -0.40773(7)
C34 C -0.54262(7) -0.8570(5) -0.31294(7)
H27 H -0.5410 -1.0611 -0.3207
C35 C -0.61442(7) -0.9007(5) -0.33094(7)
H28 H -0.6355 -0.9317 -0.3106
H29 H -0.6043 -1.1003 -0.3393
C36 C -0.46493(7) -0.3925(5) -0.24965(7)
C37 C -0.74249(8) -0.5609(5) -0.54143(7)
C38 C -0.50307(7) -0.7069(5) -0.29790(7)
C39 C -0.54147(7) -0.4994(5) -0.23942(7)
H30 H -0.5672 -0.5880 -0.2474
C40 C -0.54024(8) -0.3401(5) -0.20563(7)
H31 H -0.5649 -0.3268 -0.1904
C41 C -0.63501(7) -0.7345(5) -0.36498(7)
H32 H -0.6446 -0.5340 -0.3564
H33 H -0.6136 -0.7037 -0.3851
C42 C -0.73060(7) -0.6375(5) -0.47120(7)
C43 C -0.50388(7) -0.5339(5) -0.26306(6)
C44 C -0.70646(8) -0.8009(6) -0.44056(7)
H34 H -0.6970 -0.9976 -0.4465
C45 C -0.42546(7) -0.6122(5) -0.30406(7)
C46 C -0.46559(8) -0.2193(5) -0.21445(7)
H35 H -0.4407 -0.1228 -0.2060
C47 C -0.79024(7) -0.3121(5) -0.49465(7)
C48 C -0.77779(8) -0.3764(5) -0.53270(7)
H36 H -0.7936 -0.2932 -0.5530
C49 C -0.71848(7) -0.6929(5) -0.51006(7)
C50 C -0.78030(8) -0.3744(6) -0.42455(7)
H37 H -0.7657 -0.4570 -0.4034
C51 C -0.42724(8) -0.4329(5) -0.27058(7)
H38 H -0.4023 -0.3369 -0.2620
C52 C -0.46425(7) -0.7495(5) -0.31807(7)
C53 C -0.50219(8) -0.1932(5) -0.19300(7)
H39 H -0.5022 -0.0793 -0.1701
C54 C -0.81452(8) -0.1885(6) -0.41838(8)
H40 H -0.8227 -0.1453 -0.3930
C55 C -0.46152(8) -0.9263(5) -0.35335(7)
H41 H -0.4863 -1.0138 -0.3635
C56 C -0.76642(7) -0.4447(5) -0.46297(7)
C57 C -0.38659(8) -0.6598(6) -0.32498(7)
H42 H -0.3614 -0.5701 -0.3159
C58 C -0.72973(8) -0.6197(6) -0.58046(7)
H43 H -0.7456 -0.5359 -0.6007
C59 C -0.67277(8) -0.9065(6) -0.38215(7)
H44 H -0.6625 -1.0815 -0.3969
H45 H -0.6911 -0.9817 -0.3614
C60 C -0.69522(9) -0.7939(6) -0.58868(8)
H46 H -0.6877 -0.8322 -0.6144
C61 C -0.38530(8) -0.8325(6) -0.35777(8)
H47 H -0.3595 -0.8619 -0.3708
C62 C -0.83799(8) -0.0589(6) -0.44928(8)
H48 H -0.8615 0.0662 -0.4443
C63 C -0.68130(8) -0.8718(6) -0.52039(8)
H49 H -0.6644 -0.9570 -0.5009
C64 C -0.82577(8) -0.1192(6) -0.48636(8)
H50 H -0.8410 -0.0321 -0.5068
C65 C -0.42363(8) -0.9683(6) -0.37214(7)
H51 H -0.4228 -1.0870 -0.3946
C66 C -0.67049(8) -0.9181(6) -0.55813(8)
H52 H -0.6463 -1.0340 -0.5640
loop_
_geom_bond_atom_site_label_1
_geom_bond_atom_site_label_2
_geom_bond_site_symmetry_1
_geom_bond_site_symmetry_2
N1 C8 1_555 1_555
N2 C12 1_555 1_555
C1 C3 1_555 1_555
C2 C6 1_555 1_555
C3 C16 1_555 1_555
C4 H1 1_555 1_555
H2 C4 1_555 1_555
C5 H3 1_555 1_555
C6 C14 1_555 1_555
C7 C2 1_555 1_555
C8 C1 1_555 1_555
H4 C8 1_555 1_555
C9 C11 1_555 1_555
C10 C7 1_555 1_555
C11 H5 1_555 1_555
C12 C2 1_555 1_555
H6 C12 1_555 1_555
C13 N1 1_555 1_555
H7 C13 1_555 1_555
H8 C13 1_555 1_555
C14 C21 1_555 1_555
C15 C9 1_555 1_555
H9 C15 1_555 1_555
C16 C15 1_555 1_555
C17 C1 1_555 1_555
C18 N2 1_555 1_555
H10 C18 1_555 1_555
H11 C18 1_555 1_555
C19 C17 1_555 1_555
H12 C19 1_555 1_555
C20 C6 1_555 1_555
H13 C20 1_555 1_555
C21 C10 1_555 1_555
H14 C21 1_555 1_555
C22 C5 1_555 1_555
H15 C22 1_555 1_555
C23 C19 1_555 1_555
H16 C23 1_555 1_555
C24 C22 1_555 1_555
H17 C24 1_555 1_555
C25 C3 1_555 1_555
H18 C25 1_555 1_555
C26 C10 1_555 1_555
H19 C26 1_555 1_555
C27 C14 1_555 1_555
H20 C27 1_555 1_555
C28 C16 1_555 1_555
H21 C28 1_555 1_555
C29 C27 1_555 1_555
H22 C29 1_555 1_555
C30 C11 1_555 1_555
H23 C30 1_555 1_555
C31 C25 1_555 1_555
H24 C31 1_555 1_555
C32 C28 1_555 1_555
H25 C32 1_555 1_555
C33 C20 1_555 1_555
H26 C33 1_555 1_555
N3 C34 1_555 1_555
N4 C44 1_555 1_555
C34 H27 1_555 1_555
C35 N3 1_555 1_555
H28 C35 1_555 1_555
H29 C35 1_555 1_555
C36 C43 1_555 1_555
C37 C48 1_555 1_555
C38 C34 1_555 1_555
C39 H30 1_555 1_555
C40 C39 1_555 1_555
H31 C40 1_555 1_555
C41 C35 1_555 1_555
H32 C41 1_555 1_555
H33 C41 1_555 1_555
C42 C44 1_555 1_555
C43 C38 1_555 1_555
C44 H34 1_555 1_555
C45 C51 1_555 1_555
C46 C36 1_555 1_555
H35 C46 1_555 1_555
C47 C48 1_555 1_555
C48 H36 1_555 1_555
C49 C37 1_555 1_555
C50 H37 1_555 1_555
C51 C36 1_555 1_555
H38 C51 1_555 1_555
C52 C38 1_555 1_555
C53 C40 1_555 1_555
H39 C53 1_555 1_555
C54 C50 1_555 1_555
H40 C54 1_555 1_555
C55 C52 1_555 1_555
H41 C55 1_555 1_555
C56 C42 1_555 1_555
C57 C45 1_555 1_555
H42 C57 1_555 1_555
C58 C37 1_555 1_555
H43 C58 1_555 1_555
C59 N4 1_555 1_555
H44 C59 1_555 1_555
H45 C59 1_555 1_555
C60 C58 1_555 1_555
H46 C60 1_555 1_555
C61 C57 1_555 1_555
H47 C61 1_555 1_555
C62 C54 1_555 1_555
H48 C62 1_555 1_555
C63 C49 1_555 1_555
H49 C63 1_555 1_555
C64 C47 1_555 1_555
H50 C64 1_555 1_555
C65 C55 1_555 1_555
H51 C65 1_555 1_555
C66 C60 1_555 1_555
H52 C66 1_555 1_555
C4 C13 1_555 1_555
C4 C18 1_555 1_555
C5 C7 1_555 1_555
C9 C17 1_555 1_555
C23 C30 1_555 1_555
C24 C26 1_555 1_555
C29 C33 1_555 1_555
C31 C32 1_555 1_555
C39 C43 1_555 1_555
C41 C59 1_555 1_555
C42 C49 1_555 1_555
C45 C52 1_555 1_555
C46 C53 1_555 1_555
C47 C56 1_555 1_555
C50 C56 1_555 1_555
C61 C65 1_555 1_555
C62 C64 1_555 1_555
C63 C66 1_555 1_555

#END
