
#######################################################################
#
#                 Cambridge Crystallographic Data Centre
#                                CCDC 
#
#######################################################################
#
# If this CIF has been generated from an entry in the Cambridge 
# Structural Database, then it will include bibliographic, chemical, 
# crystal, experimental, refinement or atomic coordinate data resulting 
# from the CCDC's data processing and validation procedures.
#
#######################################################################

data_AGINEM
_chemical_formula_moiety         'C37 H34 N2,2.33(H2 O1)'
_chemical_name_systematic        
"N,N'-(heptane-1,7-diyl)bis[1-(anthracen-9-yl)methanimine] hydrate"
_symmetry_cell_setting           monoclinic
_symmetry_space_group_name_H-M   'P 1 1 21/n'
_symmetry_Int_Tables_number      14
_space_group_name_Hall           '-P 2n'
loop_
_symmetry_equiv_pos_site_id
_symmetry_equiv_pos_as_xyz
1 x,y,z
2 1/2-x,1/2-y,1/2+z
3 -x,-y,-z
4 1/2+x,1/2+y,1/2-z
_cell_length_a                   3.97751(18)
_cell_length_b                   16.2762(6)
_cell_length_c                   46.4208(18)
_cell_angle_alpha                90
_cell_angle_beta                 90
_cell_angle_gamma                90.00
_cell_volume                     3005.22
_exptl_crystal_colour            'light yellow'
_exptl_crystal_description       needle
_cell_formula_units_Z            4
loop_
_atom_site_label
_atom_site_type_symbol
_atom_site_fract_x
_atom_site_fract_y
_atom_site_fract_z
N1 N 0.0843(6) 0.61560(16) 0.14873(5)
N2 N 0.9156(6) 0.61544(16) 0.35129(5)
C1 C -0.0313(7) 0.75954(18) 0.10764(6)
C2 C 1.0318(7) 0.75945(18) 0.39244(6)
C3 C 0.8831(7) 0.68224(18) 0.39760(6)
C4 C 0.1169(7) 0.68210(18) 0.10239(6)
C5 C 0.9819(7) 0.69958(18) 0.44971(6)
C6 C 0.0180(7) 0.69982(18) 0.05031(6)
C7 C 1.0648(7) 0.79438(19) 0.36420(7)
H1 H 0.9880 0.7650 0.3483
C8 C 1.1239(7) 0.77624(19) 0.44411(6)
H2 H 1.2018 0.8077 0.4594
C9 C -0.0642(7) 0.79438(19) 0.13575(7)
H3 H 0.0128 0.7650 0.1516
C10 C -0.1232(7) 0.77617(19) 0.05591(6)
H4 H -0.2011 0.8075 0.0405
C11 C 0.6997(7) 0.5443(2) 0.45997(7)
H5 H 0.6069 0.4929 0.4636
C12 C 0.2997(7) 0.5441(2) 0.04001(6)
H6 H 0.3911 0.4926 0.0364
C13 C 0.3099(8) 0.6167(2) 0.19771(6)
H7 H 0.4832 0.6569 0.1936
H8 H 0.1060 0.6463 0.2026
C14 C 0.8546(7) 0.65167(18) 0.42591(6)
C15 C 0.1456(7) 0.65158(18) 0.07403(6)
C16 C 1.1528(7) 0.80714(18) 0.41620(6)
C17 C 0.0382(7) 0.6669(2) 0.02190(6)
H9 H -0.0440 0.6975 0.0065
C18 C -0.1523(7) 0.80754(18) 0.08368(6)
C19 C 0.6904(8) 0.6167(2) 0.30229(6)
H10 H 0.8949 0.6460 0.2974
H11 H 0.5179 0.6571 0.3064
C20 C 0.1746(7) 0.5919(2) 0.01679(7)
H12 H 0.1860 0.5718 -0.0019
C21 C 0.5003(8) 0.6164(2) 0.24995(7)
H13 H 0.3104 0.6518 0.2542
H14 H 0.6910 0.6514 0.2456
C22 C 0.9619(7) 0.6672(2) 0.47816(7)
H15 H 1.0433 0.6979 0.4935
C23 C 0.8253(8) 0.5918(2) 0.48314(7)
H16 H 0.8145 0.5715 0.5018
C24 C -0.2050(8) 0.8693(2) 0.13979(7)
H17 H -0.2218 0.8905 0.1583
C25 C 0.4178(8) 0.5656(2) 0.22346(7)
H18 H 0.2389 0.5275 0.2282
H19 H 0.6141 0.5336 0.2182
C26 C -0.3274(8) 0.9160(2) 0.11618(7)
H20 H -0.4254 0.9671 0.1193
C27 C 0.5816(8) 0.5657(2) 0.27655(7)
H21 H 0.3845 0.5340 0.2818
H22 H 0.7595 0.5272 0.2718
C28 C 1.2057(8) 0.8693(2) 0.36019(7)
H23 H 1.2237 0.8903 0.3416
C29 C 1.3268(8) 0.9164(2) 0.38387(7)
H24 H 1.4229 0.9678 0.3808
C30 C 0.2873(7) 0.57309(18) 0.06752(6)
H25 H 0.3730 0.5410 0.0824
C31 C 0.7133(7) 0.57316(18) 0.43253(6)
H26 H 0.6285 0.5410 0.4177
C32 C 1.3004(8) 0.88558(19) 0.41098(7)
H27 H 1.3803 0.9162 0.4264
C33 C -0.3006(7) 0.88562(19) 0.08914(7)
H28 H -0.3809 0.9165 0.0738
C34 C 0.2465(8) 0.56534(19) 0.17080(6)
H29 H 0.4581 0.5442 0.1635
H30 H 0.1038 0.5190 0.1756
C35 C 0.2529(7) 0.63121(18) 0.12630(6)
H31 H 0.4694 0.6101 0.1247
C36 C 0.7526(8) 0.56566(19) 0.32908(6)
H32 H 0.5405 0.5447 0.3363
H33 H 0.8945 0.5191 0.3243
C37 C 0.7475(7) 0.63114(18) 0.37374(6)
H34 H 0.5312 0.6099 0.3754
O1 O 0.260(3) 0.3379(8) 0.2705(3)
O2 O 0.727(4) 0.3378(9) 0.2307(3)
O3? O 0.399(5) 0.3367(12) 0.2366(4)
O4? O 0.921(5) 0.3383(12) 0.2776(4)
O5? O 1.073(5) 0.3374(13) 0.2226(4)
O6? O 0.586(5) 0.3369(12) 0.2657(4)
loop_
_geom_bond_atom_site_label_1
_geom_bond_atom_site_label_2
_geom_bond_site_symmetry_1
_geom_bond_site_symmetry_2
N1 C34 1_555 1_555
N2 C36 1_555 1_555
C1 C4 1_555 1_555
C2 C3 1_555 1_555
C3 C14 1_555 1_555
C4 C15 1_555 1_555
C5 C8 1_555 1_555
C6 C10 1_555 1_555
C7 C2 1_555 1_555
H1 C7 1_555 1_555
C8 H2 1_555 1_555
C9 C1 1_555 1_555
H3 C9 1_555 1_555
C10 H4 1_555 1_555
C11 H5 1_555 1_555
C12 H6 1_555 1_555
C13 H7 1_555 1_555
H8 C13 1_555 1_555
C14 C5 1_555 1_555
C15 C6 1_555 1_555
C16 C2 1_555 1_555
C17 C6 1_555 1_555
H9 C17 1_555 1_555
C18 C1 1_555 1_555
C19 H10 1_555 1_555
H11 C19 1_555 1_555
C20 C12 1_555 1_555
H12 C20 1_555 1_555
C21 H13 1_555 1_555
H14 C21 1_555 1_555
C22 C5 1_555 1_555
H15 C22 1_555 1_555
C23 C11 1_555 1_555
H16 C23 1_555 1_555
C24 C9 1_555 1_555
H17 C24 1_555 1_555
C25 C13 1_555 1_555
H18 C25 1_555 1_555
H19 C25 1_555 1_555
C26 C24 1_555 1_555
H20 C26 1_555 1_555
C27 C19 1_555 1_555
H21 C27 1_555 1_555
H22 C27 1_555 1_555
C28 C7 1_555 1_555
H23 C28 1_555 1_555
C29 C28 1_555 1_555
H24 C29 1_555 1_555
C30 C12 1_555 1_555
H25 C30 1_555 1_555
C31 C11 1_555 1_555
H26 C31 1_555 1_555
C32 C16 1_555 1_555
H27 C32 1_555 1_555
C33 C18 1_555 1_555
H28 C33 1_555 1_555
C34 C13 1_555 1_555
H29 C34 1_555 1_555
H30 C34 1_555 1_555
C35 N1 1_555 1_555
H31 C35 1_555 1_555
C36 C19 1_555 1_555
H32 C36 1_555 1_555
H33 C36 1_555 1_555
C37 N2 1_555 1_555
H34 C37 1_555 1_555
C3 C37 1_555 1_555
C4 C35 1_555 1_555
C8 C16 1_555 1_555
C10 C18 1_555 1_555
C14 C31 1_555 1_555
C15 C30 1_555 1_555
C17 C20 1_555 1_555
C21 C25 1_555 1_555
C21 C27 1_555 1_555
C22 C23 1_555 1_555
C26 C33 1_555 1_555
C29 C32 1_555 1_555

#END
