
#######################################################################
#
#                 Cambridge Crystallographic Data Centre
#                                CCDC 
#
#######################################################################
#
# If this CIF has been generated from an entry in the Cambridge 
# Structural Database, then it will include bibliographic, chemical, 
# crystal, experimental, refinement or atomic coordinate data resulting 
# from the CCDC's data processing and validation procedures.
#
#######################################################################

data_AGIPAJ
_chemical_formula_moiety         'C22 H21 N1 O4'
_chemical_name_systematic        
'(E)-Ethyl 3-(3-ethoxy-3-oxoprop-1-en-1-yl)-7-phenylindolizine-1-carboxylate'
_symmetry_cell_setting           triclinic
_symmetry_space_group_name_H-M   'P -1'
_symmetry_Int_Tables_number      2
_space_group_name_Hall           '-P 1'
loop_
_symmetry_equiv_pos_site_id
_symmetry_equiv_pos_as_xyz
1 x,y,z
2 -x,-y,-z
_cell_length_a                   7.5360(5)
_cell_length_b                   8.5400(6)
_cell_length_c                   15.3432(11)
_cell_angle_alpha                74.7452(7)
_cell_angle_beta                 77.1894(8)
_cell_angle_gamma                83.1256(8)
_cell_volume                     926.966
_exptl_crystal_colour            yellow
_exptl_crystal_description       prism
_chemical_melting_point          '149-150 deg.C'
_cell_formula_units_Z            2
_exptl_crystal_recrystallization_method 'ethyl acetate/petroleum ether'
loop_
_atom_site_label
_atom_site_type_symbol
_atom_site_fract_x
_atom_site_fract_y
_atom_site_fract_z
C1 C 0.2527(2) -0.35584(17) 0.52655(10)
H1 H 0.1875 -0.4019 0.5850
C2 C 0.3096(2) -0.44948(19) 0.46347(11)
H2 H 0.2818 -0.5579 0.4796
C3 C 0.4070(2) -0.3839(2) 0.37690(10)
H3 H 0.4448 -0.4475 0.3345
C4 C 0.4480(2) -0.2241(2) 0.35349(10)
H4 H 0.5151 -0.1796 0.2953
C5 C 0.3901(2) -0.12900(18) 0.41594(9)
H5 H 0.4173 -0.0204 0.3990
C6 C 0.29163(17) -0.19355(16) 0.50386(8)
C7 C 0.22588(17) -0.09047(15) 0.56978(8)
C8 C 0.16267(19) 0.07415(16) 0.53703(9)
H6 H 0.1689 0.1167 0.4741
C9 C 0.09408(19) 0.16906(16) 0.59569(9)
H7 H 0.0510 0.2755 0.5731
C10 C 0.21734(18) -0.14893(15) 0.66284(8)
H8 H 0.2574 -0.2562 0.6856
C11 C 0.14911(17) -0.04959(15) 0.72446(8)
C12 C 0.12096(19) -0.06956(16) 0.82059(8)
C13 C 0.1524(2) -0.21616(16) 0.89105(9)
C14 C 0.2684(2) -0.49169(17) 0.92107(10)
H9 H 0.1545 -0.5310 0.9599
H10 H 0.3464 -0.4758 0.9601
C15 C 0.3591(3) -0.6107(2) 0.86711(12)
H11 H 0.2859 -0.6176 0.8246
H12 H 0.3730 -0.7156 0.9083
H13 H 0.4769 -0.5757 0.8337
C16 C 0.04397(19) 0.07746(16) 0.84020(9)
H14 H 0.0121 0.0969 0.8987
C17 C 0.02236(19) 0.18935(16) 0.75962(9)
C18 C -0.05150(19) 0.35492(16) 0.74123(9)
H15 H -0.0542 0.4053 0.6799
C19 C -0.1165(2) 0.44491(16) 0.80152(10)
H16 H -0.1147 0.4026 0.8637
C20 C -0.1911(2) 0.61153(16) 0.76880(10)
C21 C -0.3361(2) 0.84787(17) 0.81190(11)
H17 H -0.4372 0.8485 0.7822
H18 H -0.2462 0.9180 0.7692
C22 C -0.4016(3) 0.9068(2) 0.89819(12)
H19 H -0.4931 0.8385 0.9391
H20 H -0.4527 1.0167 0.8828
H21 H -0.3011 0.9030 0.9278
N1 N 0.08730(15) 0.11005(12) 0.68834(7)
O1 O 0.11037(18) -0.22716(13) 0.97279(6)
O2 O 0.23453(14) -0.34032(11) 0.85564(6)
O3 O -0.25571(15) 0.68383(11) 0.83816(7)
O4 O -0.19716(17) 0.67743(12) 0.68970(7)
loop_
_geom_bond_atom_site_label_1
_geom_bond_atom_site_label_2
_geom_bond_site_symmetry_1
_geom_bond_site_symmetry_2
C1 H1 1_555 1_555
C2 C1 1_555 1_555
H2 C2 1_555 1_555
C3 C2 1_555 1_555
H3 C3 1_555 1_555
C4 C3 1_555 1_555
H4 C4 1_555 1_555
C5 C4 1_555 1_555
H5 C5 1_555 1_555
C6 C1 1_555 1_555
C7 C6 1_555 1_555
C8 C7 1_555 1_555
H6 C8 1_555 1_555
C9 C8 1_555 1_555
H7 C9 1_555 1_555
C10 C7 1_555 1_555
H8 C10 1_555 1_555
C11 C10 1_555 1_555
C12 C11 1_555 1_555
C13 C12 1_555 1_555
C14 H9 1_555 1_555
H10 C14 1_555 1_555
C15 C14 1_555 1_555
H11 C15 1_555 1_555
H12 C15 1_555 1_555
H13 C15 1_555 1_555
C16 C12 1_555 1_555
H14 C16 1_555 1_555
C17 C16 1_555 1_555
C18 C17 1_555 1_555
H15 C18 1_555 1_555
C19 C18 1_555 1_555
H16 C19 1_555 1_555
C20 C19 1_555 1_555
C21 H17 1_555 1_555
H18 C21 1_555 1_555
C22 C21 1_555 1_555
H19 C22 1_555 1_555
H20 C22 1_555 1_555
H21 C22 1_555 1_555
N1 C9 1_555 1_555
O1 C13 1_555 1_555
O2 C13 1_555 1_555
O3 C20 1_555 1_555
O4 C20 1_555 1_555
C5 C6 1_555 1_555
C11 N1 1_555 1_555
C14 O2 1_555 1_555
C17 N1 1_555 1_555
C21 O3 1_555 1_555

#END
