
#######################################################################
#
#                 Cambridge Crystallographic Data Centre
#                                CCDC 
#
#######################################################################
#
# If this CIF has been generated from an entry in the Cambridge 
# Structural Database, then it will include bibliographic, chemical, 
# crystal, experimental, refinement or atomic coordinate data resulting 
# from the CCDC's data processing and validation procedures.
#
#######################################################################

data_AGISOA
_chemical_formula_moiety         'C27 H22 F3 N1 O4 S1'
_chemical_name_systematic        
'Methyl 3-benzylidene-4-(((4-methylphenyl)sulfonyl)amino)-2-phenyl-4-(trifluoromethyl)cyclobut-1-ene-1-carboxylate'
_symmetry_cell_setting           monoclinic
_symmetry_space_group_name_H-M   'P 21/c'
_symmetry_Int_Tables_number      14
_space_group_name_Hall           '-P 2ybc'
loop_
_symmetry_equiv_pos_site_id
_symmetry_equiv_pos_as_xyz
1 x,y,z
2 -x,1/2+y,1/2-z
3 -x,-y,-z
4 x,1/2-y,1/2+z
_cell_length_a                   8.6095(18)
_cell_length_b                   31.705(6)
_cell_length_c                   27.597(5)
_cell_angle_alpha                90
_cell_angle_beta                 92.899(3)
_cell_angle_gamma                90
_cell_volume                     7523.35
_exptl_crystal_colour            colorless
_exptl_crystal_description       block
_cell_formula_units_Z            12
loop_
_atom_site_label
_atom_site_type_symbol
_atom_site_fract_x
_atom_site_fract_y
_atom_site_fract_z
S1 S 0.25158(13) 0.81321(4) 0.08001(3)
O1 O 0.4391(4) 0.80704(10) 0.22720(10)
O2 O 0.5399(4) 0.76037(10) 0.17729(10)
O3 O 0.2391(4) 0.78811(10) 0.12220(9)
O4 O 0.1708(4) 0.80086(10) 0.03546(9)
N1 N 0.4334(4) 0.81408(11) 0.06644(11)
H1 H 0.4560 0.8053 0.0382
F1 F 0.7372(4) 0.81511(10) 0.03924(9)
F2 F 0.8319(3) 0.81936(11) 0.11215(11)
F3 F 0.7031(4) 0.76514(9) 0.08853(11)
C1 C 0.5606(5) 0.82874(13) 0.09917(13)
C2 C 0.5359(5) 0.83060(14) 0.15367(13)
C3 C 0.4989(5) 0.79893(14) 0.19000(14)
C4 C 0.5845(5) 0.87659(13) 0.10424(13)
C5 C 0.5955(5) 0.90208(14) 0.19699(14)
C6 C 0.5684(5) 0.87257(14) 0.15675(13)
C7 C 0.5989(6) 0.90534(15) 0.06968(15)
H2 H 0.6099 0.8945 0.0387
C8 C 0.7088(6) 0.80669(15) 0.08504(15)
C9 C 0.1736(5) 0.87602(17) 0.14169(15)
H3 H 0.1893 0.8563 0.1664
C10 C 0.1928(5) 0.86459(15) 0.09411(14)
C11 C 0.7178(6) 0.93051(16) 0.19534(18)
H4 H 0.7798 0.9308 0.1687
C12 C 0.1315(6) 0.91645(19) 0.15237(18)
H5 H 0.1196 0.9238 0.1846
C13 C 0.5041(6) 0.90231(16) 0.23684(16)
H6 H 0.4221 0.8833 0.2385
C14 C 0.1672(8) 0.89380(18) 0.05806(18)
H7 H 0.1797 0.8864 0.0259
C15 C 0.7473(7) 0.95831(19) 0.2332(2)
H8 H 0.8301 0.9771 0.2322
C16 C 0.1065(8) 0.9461(2) 0.1174(2)
C17 C 0.6551(8) 0.9583(2) 0.2724(2)
H9 H 0.6750 0.9772 0.2978
C18 C 0.5222(9) 0.97255(19) 0.1067(2)
H10 H 0.4672 0.9575 0.1292
C19 C 0.6000(8) 0.95113(18) 0.07300(19)
C20 C 0.5054(9) 0.72720(18) 0.21074(19)
H11 H 0.5394 0.7007 0.1983
H12 H 0.3953 0.7262 0.2147
H13 H 0.5585 0.7326 0.2415
C21 C 0.5343(7) 0.93061(18) 0.27412(18)
H14 H 0.4718 0.9308 0.3006
C22 C 0.1232(9) 0.9340(2) 0.0695(2)
H15 H 0.1040 0.9535 0.0448
C23 C 0.0622(11) 0.9909(2) 0.1295(3)
H16 H 0.0562 0.9937 0.1640
H17 H -0.0371 0.9975 0.1139
H18 H 0.1393 1.0100 0.1183
C24 C 0.5221(12) 1.0164(3) 0.1088(3)
H19 H 0.4669 1.0308 0.1317
C25 C 0.6813(13) 0.9739(3) 0.0403(3)
H20 H 0.7341 0.9599 0.0164
C26 C 0.6042(18) 1.0370(3) 0.0766(5)
H21 H 0.6056 1.0663 0.0776
C27 C 0.685(2) 1.0175(4) 0.0427(5)
H22 H 0.7419 1.0330 0.0213
S2 S 0.34670(14) 0.66443(4) 0.42184(3)
O5 O 0.1652(4) 0.65549(11) 0.27570(10)
O6 O 0.0878(4) 0.60679(11) 0.32791(10)
O7 O 0.3668(4) 0.63831(10) 0.38088(10)
O8 O 0.4334(4) 0.65553(11) 0.46630(10)
N2 N 0.1659(4) 0.66156(11) 0.43642(11)
H23 H 0.1482 0.6542 0.4656
F4 F -0.0602(4) 0.60033(10) 0.41442(11)
F5 F -0.2251(4) 0.64621(12) 0.38752(12)
F6 F -0.1380(4) 0.64722(10) 0.46185(10)
C28 C 0.1093(5) 0.64617(16) 0.31327(14)
C29 C 0.0037(5) 0.71661(15) 0.34816(14)
C30 C 0.0561(5) 0.67607(15) 0.34936(13)
C31 C -0.0557(5) 0.74207(15) 0.43754(14)
H24 H -0.0621 0.7284 0.4672
C32 C -0.0201(5) 0.71726(14) 0.40105(14)
C33 C -0.0867(5) 0.78750(15) 0.43873(14)
C34 C -0.0298(5) 0.74768(15) 0.30992(14)
C35 C 0.4084(6) 0.72564(16) 0.35668(14)
H25 H 0.4067 0.7042 0.3337
C36 C 0.3847(5) 0.71649(14) 0.40455(13)
C37 C 0.0316(5) 0.67064(14) 0.40349(13)
C38 C 0.4342(6) 0.76633(17) 0.34305(16)
H26 H 0.4489 0.7722 0.3106
C39 C 0.4392(6) 0.79864(15) 0.37563(16)
C40 C 0.3868(6) 0.74836(16) 0.43842(15)
H27 H 0.3696 0.7425 0.4707
C41 C -0.0980(6) 0.64072(18) 0.41655(17)
C42 C 0.0559(6) 0.74946(17) 0.26893(16)
H28 H 0.1371 0.7305 0.2654
C43 C -0.0395(7) 0.85933(19) 0.41620(18)
H29 H 0.0164 0.8787 0.3988
C44 C -0.0056(6) 0.81681(18) 0.41339(16)
H30 H 0.0734 0.8079 0.3940
C45 C -0.1994(6) 0.80218(17) 0.46861(18)
H31 H -0.2523 0.7832 0.4874
C46 C 0.0224(7) 0.77901(18) 0.23313(17)
H32 H 0.0818 0.7802 0.2059
C47 C -0.1853(6) 0.80539(18) 0.27795(18)
H33 H -0.2669 0.8243 0.2809
C48 C -0.1516(5) 0.77594(16) 0.31423(16)
H34 H -0.2107 0.7751 0.3415
C49 C 0.4148(7) 0.78899(17) 0.42383(17)
H35 H 0.4174 0.8105 0.4467
C50 C -0.0982(7) 0.80657(18) 0.23773(18)
H36 H -0.1213 0.8262 0.2134
C51 C 0.1569(7) 0.57373(17) 0.30031(19)
H37 H 0.1336 0.5469 0.3143
H38 H 0.2676 0.5776 0.3009
H39 H 0.1155 0.5747 0.2674
C52 C 0.4709(8) 0.84317(18) 0.3602(2)
H40 H 0.4853 0.8438 0.3259
H41 H 0.5633 0.8533 0.3773
H42 H 0.3845 0.8608 0.3674
C53 C -0.2339(8) 0.8444(2) 0.4708(2)
H43 H -0.3118 0.8535 0.4904
C54 C -0.1555(8) 0.8729(2) 0.4446(2)
H44 H -0.1804 0.9014 0.4460
S3 S 1.06188(13) 0.50139(4) 0.08250(4)
O9 O 1.1066(4) 0.47918(12) 0.12579(10)
O10 O 1.1470(4) 0.49494(11) 0.04001(10)
O11 O 0.8905(5) 0.47355(12) 0.22841(10)
O12 O 0.8513(4) 0.42513(11) 0.17041(10)
N3 N 0.8847(4) 0.48777(11) 0.06603(11)
H45 H 0.8683 0.4779 0.0372
F7 F 0.5115(3) 0.45651(10) 0.10569(10)
F8 F 0.6933(4) 0.41948(9) 0.07639(10)
F9 F 0.5821(3) 0.46768(8) 0.03333(8)
C55 C 0.6170(5) 0.56044(14) 0.06787(14)
H46 H 0.6090 0.5491 0.0367
C56 C 0.6763(5) 0.53472(13) 0.10222(13)
C57 C 0.6345(6) 0.45818(15) 0.07868(15)
C58 C 0.5626(5) 0.60402(14) 0.07218(14)
C59 C 0.6431(6) 0.63282(15) 0.10212(15)
H47 H 0.7291 0.6240 0.1212
C60 C 0.8475(5) 0.46424(16) 0.18786(14)
C61 C 0.7803(5) 0.49410(14) 0.15177(13)
C62 C 0.7515(5) 0.49114(14) 0.09659(13)
C63 C 1.0618(5) 0.55529(16) 0.09620(15)
C64 C 0.5223(5) 0.58099(15) 0.19081(15)
H48 H 0.4587 0.5787 0.1627
C65 C 0.7070(5) 0.53150(14) 0.15517(13)
C66 C 1.0313(6) 0.58429(17) 0.05984(18)
H49 H 1.0122 0.5753 0.0280
C67 C 0.6608(5) 0.55851(14) 0.19510(14)
C68 C 0.7528(6) 0.56242(18) 0.23738(16)
H50 H 0.8456 0.5475 0.2410
C69 C 0.4349(5) 0.61801(16) 0.04401(15)
H51 H 0.3810 0.5993 0.0234
C70 C 0.4784(6) 0.60669(17) 0.22789(18)
H52 H 0.3855 0.6217 0.2247
C71 C 0.5960(7) 0.67397(18) 0.1035(2)
H53 H 0.6511 0.6931 0.1232
C72 C 0.3874(7) 0.65944(19) 0.0464(2)
H54 H 0.3004 0.6686 0.0280
C73 C 0.5717(7) 0.61023(19) 0.26963(19)
H55 H 0.5419 0.6276 0.2947
C74 C 0.4696(8) 0.68716(18) 0.0763(2)
H56 H 0.4383 0.7152 0.0778
C75 C 1.0884(6) 0.5690(2) 0.14360(18)
H57 H 1.1080 0.5496 0.1685
C76 C 1.0290(6) 0.6266(2) 0.0707(2)
H58 H 1.0084 0.6461 0.0460
C77 C 1.0530(9) 0.6874(2) 0.1295(3)
H59 H 1.0752 0.6915 0.1636
H60 H 0.9516 0.6984 0.1206
H61 H 1.1295 0.7018 0.1115
C78 C 0.7075(7) 0.5884(2) 0.27418(18)
H62 H 0.7705 0.5910 0.3024
C79 C 0.9212(8) 0.39327(19) 0.20230(18)
H63 H 0.9177 0.3664 0.1862
H64 H 0.8648 0.3916 0.2314
H65 H 1.0275 0.4007 0.2105
C80 C 1.0571(7) 0.6407(2) 0.1180(3)
C81 C 1.0854(7) 0.6114(2) 0.1535(2)
H66 H 1.1032 0.6205 0.1854
loop_
_geom_bond_atom_site_label_1
_geom_bond_atom_site_label_2
_geom_bond_site_symmetry_1
_geom_bond_site_symmetry_2
S1 O3 1_555 1_555
O1 C3 1_555 1_555
O2 C3 1_555 1_555
O4 S1 1_555 1_555
N1 S1 1_555 1_555
H1 N1 1_555 1_555
F1 C8 1_555 1_555
F2 C8 1_555 1_555
F3 C8 1_555 1_555
C1 N1 1_555 1_555
C2 C1 1_555 1_555
C3 C2 1_555 1_555
C4 C1 1_555 1_555
C5 C6 1_555 1_555
C6 C2 1_555 1_555
C7 C4 1_555 1_555
H2 C7 1_555 1_555
C8 C1 1_555 1_555
C9 H3 1_555 1_555
C10 S1 1_555 1_555
C11 C5 1_555 1_555
H4 C11 1_555 1_555
C12 C9 1_555 1_555
H5 C12 1_555 1_555
C13 C5 1_555 1_555
H6 C13 1_555 1_555
C14 C10 1_555 1_555
H7 C14 1_555 1_555
C15 C11 1_555 1_555
H8 C15 1_555 1_555
C16 C12 1_555 1_555
C17 C15 1_555 1_555
H9 C17 1_555 1_555
C18 H10 1_555 1_555
C19 C7 1_555 1_555
C20 O2 1_555 1_555
H11 C20 1_555 1_555
H12 C20 1_555 1_555
H13 C20 1_555 1_555
C21 C13 1_555 1_555
H14 C21 1_555 1_555
C22 C14 1_555 1_555
H15 C22 1_555 1_555
C23 C16 1_555 1_555
H16 C23 1_555 1_555
H17 C23 1_555 1_555
H18 C23 1_555 1_555
C24 C18 1_555 1_555
H19 C24 1_555 1_555
C25 C19 1_555 1_555
H20 C25 1_555 1_555
C26 C24 1_555 1_555
H21 C26 1_555 1_555
C27 C25 1_555 1_555
H22 C27 1_555 1_555
S2 O7 1_555 1_555
O5 C28 1_555 1_555
O6 C28 1_555 1_555
O8 S2 1_555 1_555
N2 S2 1_555 1_555
H23 N2 1_555 1_555
F4 C41 1_555 1_555
F5 C41 1_555 1_555
F6 C41 1_555 1_555
C28 C30 1_555 1_555
C29 C30 1_555 1_555
C30 C37 1_555 1_555
C31 H24 1_555 1_555
C32 C29 1_555 1_555
C33 C31 1_555 1_555
C34 C29 1_555 1_555
C35 H25 1_555 1_555
C36 S2 1_555 1_555
C37 N2 1_555 1_555
C38 C35 1_555 1_555
H26 C38 1_555 1_555
C39 C38 1_555 1_555
C40 C36 1_555 1_555
H27 C40 1_555 1_555
C41 C37 1_555 1_555
C42 C34 1_555 1_555
H28 C42 1_555 1_555
C43 H29 1_555 1_555
C44 C33 1_555 1_555
H30 C44 1_555 1_555
C45 C33 1_555 1_555
H31 C45 1_555 1_555
C46 C42 1_555 1_555
H32 C46 1_555 1_555
C47 H33 1_555 1_555
C48 C34 1_555 1_555
H34 C48 1_555 1_555
C49 C39 1_555 1_555
H35 C49 1_555 1_555
C50 C46 1_555 1_555
H36 C50 1_555 1_555
C51 O6 1_555 1_555
H37 C51 1_555 1_555
H38 C51 1_555 1_555
H39 C51 1_555 1_555
C52 C39 1_555 1_555
H40 C52 1_555 1_555
H41 C52 1_555 1_555
H42 C52 1_555 1_555
C53 C45 1_555 1_555
H43 C53 1_555 1_555
C54 C43 1_555 1_555
H44 C54 1_555 1_555
S3 O9 1_555 1_555
O10 S3 1_555 1_555
O11 C60 1_555 1_555
O12 C60 1_555 1_555
N3 S3 1_555 1_555
H45 N3 1_555 1_555
F7 C57 1_555 1_555
F8 C57 1_555 1_555
F9 C57 1_555 1_555
C55 H46 1_555 1_555
C56 C55 1_555 1_555
C57 C62 1_555 1_555
C58 C55 1_555 1_555
C59 C58 1_555 1_555
H47 C59 1_555 1_555
C60 C61 1_555 1_555
C61 C62 1_555 1_555
C62 N3 1_555 1_555
C63 S3 1_555 1_555
C64 H48 1_555 1_555
C65 C56 1_555 1_555
C66 C63 1_555 1_555
H49 C66 1_555 1_555
C67 C64 1_555 1_555
C68 C67 1_555 1_555
H50 C68 1_555 1_555
C69 C58 1_555 1_555
H51 C69 1_555 1_555
C70 C64 1_555 1_555
H52 C70 1_555 1_555
C71 C59 1_555 1_555
H53 C71 1_555 1_555
C72 C69 1_555 1_555
H54 C72 1_555 1_555
C73 C70 1_555 1_555
H55 C73 1_555 1_555
C74 C71 1_555 1_555
H56 C74 1_555 1_555
C75 C63 1_555 1_555
H57 C75 1_555 1_555
C76 C66 1_555 1_555
H58 C76 1_555 1_555
C77 H59 1_555 1_555
H60 C77 1_555 1_555
H61 C77 1_555 1_555
C78 C68 1_555 1_555
H62 C78 1_555 1_555
C79 O12 1_555 1_555
H63 C79 1_555 1_555
H64 C79 1_555 1_555
H65 C79 1_555 1_555
C80 C76 1_555 1_555
C81 C75 1_555 1_555
H66 C81 1_555 1_555
C4 C6 1_555 1_555
C9 C10 1_555 1_555
C16 C22 1_555 1_555
C17 C21 1_555 1_555
C18 C19 1_555 1_555
C26 C27 1_555 1_555
C31 C32 1_555 1_555
C32 C37 1_555 1_555
C35 C36 1_555 1_555
C40 C49 1_555 1_555
C43 C44 1_555 1_555
C47 C48 1_555 1_555
C47 C50 1_555 1_555
C53 C54 1_555 1_555
C56 C62 1_555 1_555
C61 C65 1_555 1_555
C65 C67 1_555 1_555
C72 C74 1_555 1_555
C73 C78 1_555 1_555
C77 C80 1_555 1_555
C80 C81 1_555 1_555

#END
