
#######################################################################
#
#                 Cambridge Crystallographic Data Centre
#                                CCDC 
#
#######################################################################
#
# If this CIF has been generated from an entry in the Cambridge 
# Structural Database, then it will include bibliographic, chemical, 
# crystal, experimental, refinement or atomic coordinate data resulting 
# from the CCDC's data processing and validation procedures.
#
#######################################################################

data_AGIVAQ02
_chemical_formula_moiety         'C27 H22 N1 O2 P1'
_chemical_name_systematic        
(Z)-N-[2-(diphenylphosphoryl)-2-phenylethenyl]benzamide
_symmetry_cell_setting           monoclinic
_symmetry_space_group_name_H-M   'P 21'
_symmetry_Int_Tables_number      4
_space_group_name_Hall           'P 2yb'
loop_
_symmetry_equiv_pos_site_id
_symmetry_equiv_pos_as_xyz
1 x,y,z
2 -x,1/2+y,-z
_cell_length_a                   7.8836(5)
_cell_length_b                   12.2399(8)
_cell_length_c                   11.1988(8)
_cell_angle_alpha                90
_cell_angle_beta                 90.174(2)
_cell_angle_gamma                90
_cell_volume                     1080.62
_exptl_crystal_colour            'light colorless'
_exptl_crystal_description       block
_cell_formula_units_Z            2
loop_
_atom_site_label
_atom_site_type_symbol
_atom_site_fract_x
_atom_site_fract_y
_atom_site_fract_z
P1 P 0.16993(7) 0.86376(5) 0.73213(5)
O1 O 0.1315(2) 0.96343(17) 0.80441(16)
N1 N 0.4477(3) 1.03735(18) 0.77257(17)
H1 H 0.343114 1.044654 0.798640
O2 O 0.6986(2) 1.12327(18) 0.74096(16)
C1 C 0.0946(3) 0.7424(2) 0.8055(2)
C2 C 0.4961(3) 0.9384(2) 0.7244(2)
H2 H 0.611868 0.930971 0.702574
C3 C 0.3959(3) 0.8520(2) 0.70538(19)
C4 C -0.0785(3) 0.5814(2) 0.8197(2)
H3 H -0.155860 0.531390 0.784232
C5 C 0.0706(3) 0.8695(2) 0.5869(2)
C6 C 0.5553(3) 1.1244(2) 0.78149(19)
C7 C 0.4705(3) 0.7534(2) 0.6481(2)
C8 C 0.6438(4) 0.6772(3) 0.4900(2)
H4 H 0.709367 0.687274 0.419858
C9 C 0.5772(3) 1.3176(2) 0.8436(2)
H5 H 0.676841 1.322283 0.796314
C10 C 0.0266(3) 0.8071(3) 0.3852(2)
H6 H 0.050564 0.756737 0.322928
C11 C 0.3802(4) 1.4025(3) 0.9764(2)
H7 H 0.344281 1.464305 1.020964
C12 C 0.1506(3) 0.7247(3) 0.9227(2)
H8 H 0.230460 0.773246 0.957887
C13 C -0.0436(3) 0.9544(2) 0.5670(2)
H9 H -0.067707 1.005049 0.628988
C14 C 0.4876(3) 1.2214(2) 0.8470(2)
C15 C 0.5244(4) 1.4076(2) 0.9080(2)
H10 H 0.588074 1.473400 0.904910
C16 C 0.6270(3) 0.5746(3) 0.5386(2)
H11 H 0.681001 0.513818 0.502126
C17 C -0.0211(3) 0.6709(2) 0.7549(2)
H12 H -0.061189 0.683026 0.675884
C18 C 0.5313(3) 0.5601(2) 0.6407(2)
H13 H 0.517871 0.488954 0.673327
C19 C 0.1054(3) 0.7956(2) 0.4949(2)
H14 H 0.183161 0.737513 0.507897
C20 C -0.0232(3) 0.5651(3) 0.9355(2)
H15 H -0.063273 0.504180 0.979769
C21 C 0.5650(3) 0.7661(2) 0.5433(2)
H16 H 0.575333 0.836406 0.508204
C22 C 0.0905(4) 0.6373(3) 0.9871(2)
H17 H 0.127084 0.626394 1.067133
C23 C 0.4547(3) 0.6487(3) 0.6957(2)
H18 H 0.390897 0.637959 0.766557
C24 C -0.0876(4) 0.8918(3) 0.3655(2)
H19 H -0.141480 0.899622 0.289955
C25 C -0.1221(4) 0.9649(3) 0.4569(3)
H20 H -0.200288 1.022769 0.443741
C26 C 0.3411(5) 1.2166(3) 0.9157(3)
H21 H 0.276767 1.151011 0.918761
C27 C 0.2891(5) 1.3076(3) 0.9797(3)
H22 H 0.188854 1.303905 1.026333
loop_
_geom_bond_atom_site_label_1
_geom_bond_atom_site_label_2
_geom_bond_site_symmetry_1
_geom_bond_site_symmetry_2
P1 O1 1_555 1_555
N1 H1 1_555 1_555
O2 C6 1_555 1_555
C1 P1 1_555 1_555
C2 N1 1_555 1_555
H2 C2 1_555 1_555
C3 P1 1_555 1_555
C4 H3 1_555 1_555
C5 P1 1_555 1_555
C6 N1 1_555 1_555
C7 C3 1_555 1_555
C8 H4 1_555 1_555
C9 H5 1_555 1_555
C10 H6 1_555 1_555
C11 H7 1_555 1_555
C12 C1 1_555 1_555
H8 C12 1_555 1_555
C13 C5 1_555 1_555
H9 C13 1_555 1_555
C14 C6 1_555 1_555
C15 C9 1_555 1_555
H10 C15 1_555 1_555
C16 C8 1_555 1_555
H11 C16 1_555 1_555
C17 C1 1_555 1_555
H12 C17 1_555 1_555
C18 C16 1_555 1_555
H13 C18 1_555 1_555
C19 C5 1_555 1_555
H14 C19 1_555 1_555
C20 C4 1_555 1_555
H15 C20 1_555 1_555
C21 C7 1_555 1_555
H16 C21 1_555 1_555
C22 C12 1_555 1_555
H17 C22 1_555 1_555
C23 C7 1_555 1_555
H18 C23 1_555 1_555
C24 C10 1_555 1_555
H19 C24 1_555 1_555
C25 C13 1_555 1_555
H20 C25 1_555 1_555
C26 C14 1_555 1_555
H21 C26 1_555 1_555
C27 C11 1_555 1_555
H22 C27 1_555 1_555
C2 C3 1_555 1_555
C4 C17 1_555 1_555
C8 C21 1_555 1_555
C9 C14 1_555 1_555
C10 C19 1_555 1_555
C11 C15 1_555 1_555
C18 C23 1_555 1_555
C20 C22 1_555 1_555
C24 C25 1_555 1_555
C26 C27 1_555 1_555

#END
