
#######################################################################
#
#                 Cambridge Crystallographic Data Centre
#                                CCDC 
#
#######################################################################
#
# If this CIF has been generated from an entry in the Cambridge 
# Structural Database, then it will include bibliographic, chemical, 
# crystal, experimental, refinement or atomic coordinate data resulting 
# from the CCDC's data processing and validation procedures.
#
#######################################################################

data_AGIVAO
_chemical_formula_moiety         'C21 H34 B10 N1 P1'
_chemical_name_systematic        
1-(Di-isopropylamino(9H-fluoren-9-yl)phosphino)-1,2-dicarbadodecaborane(11)
_symmetry_cell_setting           monoclinic
_symmetry_space_group_name_H-M   'P 21/n'
_symmetry_Int_Tables_number      14
_space_group_name_Hall           '-P 2yn'
loop_
_symmetry_equiv_pos_site_id
_symmetry_equiv_pos_as_xyz
1 x,y,z
2 1/2-x,1/2+y,1/2-z
3 -x,-y,-z
4 1/2+x,1/2-y,1/2+z
_cell_length_a                   11.2939(5)
_cell_length_b                   11.0589(5)
_cell_length_c                   20.992(1)
_cell_angle_alpha                90
_cell_angle_beta                 104.995(1)
_cell_angle_gamma                90
_cell_volume                     2532.58
_exptl_crystal_colour            colorless
_exptl_crystal_description       needle
_cell_formula_units_Z            4
_exptl_crystal_recrystallization_method n-hexane
loop_
_atom_site_label
_atom_site_type_symbol
_atom_site_fract_x
_atom_site_fract_y
_atom_site_fract_z
P1 P 0.86042(5) 0.34702(5) 0.20910(3)
N1 N 0.88554(15) 0.30362(15) 0.13795(8)
C1 C 1.01254(18) 0.38963(18) 0.26884(10)
C2 C 1.0551(2) 0.2813(2) 0.32559(10)
H1 H 1.0012 0.1975 0.3218
C3 C 0.94413(18) 0.37310(19) 0.09414(10)
H2 H 0.9719 0.4500 0.1162
C4 C 1.0568(2) 0.3092(2) 0.08272(12)
H3 H 1.1131 0.2913 0.1244
H4 H 1.0961 0.3608 0.0576
H5 H 1.0322 0.2354 0.0589
C5 C 0.8539(2) 0.4030(2) 0.02826(11)
H6 H 0.7840 0.4439 0.0361
H7 H 0.8278 0.3296 0.0043
H8 H 0.8931 0.4543 0.0030
C6 C 0.8361(2) 0.18250(19) 0.11314(11)
H9 H 0.8542 0.1712 0.0703
C7 C 0.8994(3) 0.0804(2) 0.15719(15)
H10 H 0.9864 0.0870 0.1637
H11 H 0.8718 0.0042 0.1367
H12 H 0.8800 0.0852 0.1990
C8 C 0.6979(2) 0.1755(2) 0.10083(13)
H13 H 0.6607 0.2408 0.0726
H14 H 0.6763 0.1813 0.1421
H15 H 0.6692 0.0998 0.0801
C9 C 0.78008(18) 0.49804(18) 0.19762(10)
H16 H 0.7933 0.5360 0.2411
C10 C 0.79806(19) 0.59445(18) 0.14916(10)
C11 C 0.9002(2) 0.66251(19) 0.14730(11)
H17 H 0.9739 0.6513 0.1791
C12 C 0.8916(2) 0.7474(2) 0.09767(12)
H18 H 0.9600 0.7931 0.0962
C13 C 0.7823(2) 0.7650(2) 0.05020(12)
H19 H 0.7782 0.8218 0.0171
C14 C 0.6798(2) 0.6992(2) 0.05162(12)
H20 H 0.6063 0.7119 0.0199
C15 C 0.68727(19) 0.61352(19) 0.10103(11)
C16 C 0.59341(19) 0.53405(19) 0.11477(11)
C17 C 0.4707(2) 0.5182(2) 0.08199(12)
H21 H 0.4365 0.5596 0.0430
C18 C 0.4005(2) 0.4402(2) 0.10812(14)
H22 H 0.3183 0.4293 0.0865
C19 C 0.4501(2) 0.3783(2) 0.16576(14)
H23 H 0.4009 0.3269 0.1829
C20 C 0.5727(2) 0.3917(2) 0.19846(12)
H24 H 0.6063 0.3492 0.2371
C21 C 0.64446(18) 0.46948(19) 0.17260(11)
B1 B 1.1389(2) 0.3017(3) 0.26992(13)
H25 H 1.1430 0.2374 0.2306
B2 B 1.1409(2) 0.4602(3) 0.25855(14)
H26 H 1.1480 0.5002 0.2117
B3 B 1.0495(2) 0.5263(2) 0.30638(13)
H27 H 0.9969 0.6095 0.2905
B4 B 0.9911(2) 0.4088(2) 0.34697(12)
H28 H 0.9003 0.4134 0.3570
B5 B 1.2087(3) 0.2703(3) 0.35457(14)
H29 H 1.2593 0.1858 0.3702
B6 B 1.1180(3) 0.3368(3) 0.40210(13)
H30 H 1.1100 0.2955 0.4485
B7 B 1.1182(3) 0.4956(3) 0.39075(14)
H31 H 1.1108 0.5589 0.4300
B8 B 1.2112(3) 0.5271(3) 0.33619(14)
H32 H 1.2650 0.6110 0.3401
B9 B 1.2666(3) 0.3874(3) 0.31307(14)
H33 H 1.3562 0.3800 0.3018
B10 B 1.2533(3) 0.4099(3) 0.39533(14)
H34 H 1.3343 0.4176 0.4375
loop_
_geom_bond_atom_site_label_1
_geom_bond_atom_site_label_2
_geom_bond_site_symmetry_1
_geom_bond_site_symmetry_2
P1 N1 1_555 1_555
N1 C3 1_555 1_555
C1 P1 1_555 1_555
C2 C1 1_555 1_555
H1 C2 1_555 1_555
C3 H2 1_555 1_555
C4 C3 1_555 1_555
H3 C4 1_555 1_555
H4 C4 1_555 1_555
H5 C4 1_555 1_555
C5 C3 1_555 1_555
H6 C5 1_555 1_555
H7 C5 1_555 1_555
H8 C5 1_555 1_555
C6 N1 1_555 1_555
H9 C6 1_555 1_555
C7 C6 1_555 1_555
H10 C7 1_555 1_555
H11 C7 1_555 1_555
H12 C7 1_555 1_555
C8 C6 1_555 1_555
H13 C8 1_555 1_555
H14 C8 1_555 1_555
H15 C8 1_555 1_555
C9 P1 1_555 1_555
H16 C9 1_555 1_555
C10 C9 1_555 1_555
C11 C10 1_555 1_555
H17 C11 1_555 1_555
C12 C11 1_555 1_555
H18 C12 1_555 1_555
C13 C12 1_555 1_555
H19 C13 1_555 1_555
C14 C13 1_555 1_555
H20 C14 1_555 1_555
C15 C10 1_555 1_555
C16 C15 1_555 1_555
C17 C16 1_555 1_555
H21 C17 1_555 1_555
C18 C17 1_555 1_555
H22 C18 1_555 1_555
C19 C18 1_555 1_555
H23 C19 1_555 1_555
C20 C19 1_555 1_555
H24 C20 1_555 1_555
C21 C9 1_555 1_555
B1 C1 1_555 1_555
H25 B1 1_555 1_555
B2 C1 1_555 1_555
H26 B2 1_555 1_555
B3 C1 1_555 1_555
H27 B3 1_555 1_555
B4 C1 1_555 1_555
H28 B4 1_555 1_555
B5 C2 1_555 1_555
H29 B5 1_555 1_555
B6 C2 1_555 1_555
H30 B6 1_555 1_555
B7 B3 1_555 1_555
H31 B7 1_555 1_555
B8 B2 1_555 1_555
H32 B8 1_555 1_555
B9 B1 1_555 1_555
H33 B9 1_555 1_555
B10 B5 1_555 1_555
H34 B10 1_555 1_555
C2 B1 1_555 1_555
C2 B4 1_555 1_555
C14 C15 1_555 1_555
C16 C21 1_555 1_555
C20 C21 1_555 1_555
B1 B2 1_555 1_555
B1 B5 1_555 1_555
B2 B3 1_555 1_555
B2 B9 1_555 1_555
B3 B4 1_555 1_555
B3 B8 1_555 1_555
B4 B6 1_555 1_555
B4 B7 1_555 1_555
B5 B6 1_555 1_555
B5 B9 1_555 1_555
B6 B7 1_555 1_555
B6 B10 1_555 1_555
B7 B8 1_555 1_555
B7 B10 1_555 1_555
B8 B9 1_555 1_555
B8 B10 1_555 1_555
B9 B10 1_555 1_555

#END
