
#######################################################################
#
#                 Cambridge Crystallographic Data Centre
#                                CCDC 
#
#######################################################################
#
# If this CIF has been generated from an entry in the Cambridge 
# Structural Database, then it will include bibliographic, chemical, 
# crystal, experimental, refinement or atomic coordinate data resulting 
# from the CCDC's data processing and validation procedures.
#
#######################################################################

data_AGIYEX
_chemical_formula_moiety         'C32 H24 N2'
_chemical_name_systematic        
N,N'-(ethane-1,2-diyl)bis[1-(anthracen-9-yl)methanimine]
_symmetry_cell_setting           monoclinic
_symmetry_space_group_name_H-M   'P 21/n'
_symmetry_Int_Tables_number      14
_space_group_name_Hall           '-P 2yn'
loop_
_symmetry_equiv_pos_site_id
_symmetry_equiv_pos_as_xyz
1 x,y,z
2 1/2-x,1/2+y,1/2-z
3 -x,-y,-z
4 1/2+x,1/2-y,1/2+z
_cell_length_a                   16.0565(4)
_cell_length_b                   3.96606(11)
_cell_length_c                   17.5395(4)
_cell_angle_alpha                90
_cell_angle_beta                 105.519(2)
_cell_angle_gamma                90
_cell_volume                     1076.21
_exptl_crystal_colour            'light yellow'
_exptl_crystal_description       needle
_cell_formula_units_Z            2
loop_
_atom_site_label
_atom_site_type_symbol
_atom_site_fract_x
_atom_site_fract_y
_atom_site_fract_z
N1 N 0.90019(5) 0.7422(2) 0.46685(5)
C1 C 0.65218(7) 0.3982(3) 0.51023(6)
C2 C 0.73515(7) 0.5335(3) 0.50943(6)
C3 C 0.59005(7) 0.5986(3) 0.37583(6)
C4 C 0.74399(7) 0.7049(3) 0.44125(6)
C5 C 0.80470(7) 0.4901(3) 0.57952(6)
H1 H 0.8590 0.5759 0.5810
C6 C 0.58227(7) 0.4343(3) 0.44360(7)
H2 H 0.5289 0.3459 0.4445
C7 C 0.67224(7) 0.7369(3) 0.37402(6)
C8 C 0.97393(6) 0.9424(3) 0.45905(6)
H3 H 0.9537 1.1370 0.4257
H4 H 1.0101 0.8080 0.4345
C9 C 0.67792(7) 0.8955(3) 0.30226(7)
H5 H 0.7306 0.9831 0.2991
C10 C 0.64292(7) 0.2291(3) 0.57933(7)
H6 H 0.5894 0.1412 0.5798
C11 C 0.60776(7) 0.9208(3) 0.23856(7)
H7 H 0.6131 1.0270 0.1928
C12 C 0.82581(7) 0.8687(3) 0.43784(6)
H8 H 0.8225 1.0772 0.4129
C13 C 0.51809(7) 0.6311(3) 0.30735(7)
H9 H 0.4647 0.5435 0.3084
C14 C 0.79286(7) 0.3259(3) 0.64396(7)
H10 H 0.8393 0.2998 0.6884
C15 C 0.71089(8) 0.1939(3) 0.64450(7)
H11 H 0.7037 0.0839 0.6891
C16 C 0.52649(7) 0.7870(3) 0.24110(7)
H12 H 0.4790 0.8065 0.1972
N1B N 1.09981(5) 1.2578(2) 0.53315(5)
C1B C 1.34782(7) 1.6018(3) 0.48977(6)
C2B C 1.26485(7) 1.4665(3) 0.49057(6)
C3B C 1.40995(7) 1.4014(3) 0.62417(6)
C4B C 1.25601(7) 1.2951(3) 0.55875(6)
C5B C 1.19530(7) 1.5099(3) 0.42048(6)
H1B H 1.1410 1.4241 0.4190
C6B C 1.41773(7) 1.5657(3) 0.55640(7)
H2B H 1.4711 1.6541 0.5555
C7B C 1.32776(7) 1.2631(3) 0.62598(6)
C8B C 1.02607(6) 1.0576(3) 0.54095(6)
H3B H 1.0463 0.8630 0.5743
H4B H 0.9899 1.1920 0.5655
C9B C 1.32208(7) 1.1045(3) 0.69774(7)
H5B H 1.2694 1.0169 0.7009
C10B C 1.35708(7) 1.7709(3) 0.42067(7)
H6B H 1.4106 1.8588 0.4202
C11B C 1.39224(7) 1.0792(3) 0.76144(7)
H7B H 1.3869 0.9730 0.8072
C12B C 1.17419(7) 1.1313(3) 0.56216(6)
H8B H 1.1775 0.9228 0.5871
C13B C 1.48191(7) 1.3689(3) 0.69265(7)
H9B H 1.5353 1.4565 0.6916
C14B C 1.20714(7) 1.6741(3) 0.35604(7)
H10B H 1.1607 1.7002 0.3116
C15B C 1.28911(8) 1.8061(3) 0.35550(7)
H11B H 1.2963 1.9161 0.3109
C16B C 1.47351(7) 1.2130(3) 0.75890(7)
H12B H 1.5210 1.1935 0.8028
loop_
_geom_bond_atom_site_label_1
_geom_bond_atom_site_label_2
_geom_bond_site_symmetry_1
_geom_bond_site_symmetry_2
N1 C8 1_555 1_555
C1 C2 1_555 1_555
C2 C4 1_555 1_555
C3 C6 1_555 1_555
C4 C7 1_555 1_555
C5 C2 1_555 1_555
H1 C5 1_555 1_555
C6 C1 1_555 1_555
H2 C6 1_555 1_555
C7 C3 1_555 1_555
C8 H3 1_555 1_555
H4 C8 1_555 1_555
C9 C7 1_555 1_555
H5 C9 1_555 1_555
C10 C1 1_555 1_555
H6 C10 1_555 1_555
C11 C9 1_555 1_555
H7 C11 1_555 1_555
C12 N1 1_555 1_555
H8 C12 1_555 1_555
C13 C3 1_555 1_555
H9 C13 1_555 1_555
C14 C5 1_555 1_555
H10 C14 1_555 1_555
C15 C10 1_555 1_555
H11 C15 1_555 1_555
C16 C11 1_555 1_555
H12 C16 1_555 1_555
N1B C8B 1_555 1_555
C1B C2B 1_555 1_555
C2B C4B 1_555 1_555
C3B C6B 1_555 1_555
C4B C7B 1_555 1_555
C5B C2B 1_555 1_555
H1B C5B 1_555 1_555
C6B C1B 1_555 1_555
H2B C6B 1_555 1_555
C7B C3B 1_555 1_555
C8B C8 1_555 1_555
H3B C8B 1_555 1_555
H4B C8B 1_555 1_555
C9B C7B 1_555 1_555
H5B C9B 1_555 1_555
C10B C1B 1_555 1_555
H6B C10B 1_555 1_555
C11B C9B 1_555 1_555
H7B C11B 1_555 1_555
C12B N1B 1_555 1_555
H8B C12B 1_555 1_555
C13B C3B 1_555 1_555
H9B C13B 1_555 1_555
C14B C5B 1_555 1_555
H10B C14B 1_555 1_555
C15B C10B 1_555 1_555
H11B C15B 1_555 1_555
C16B C11B 1_555 1_555
H12B C16B 1_555 1_555
C4 C12 1_555 1_555
C13 C16 1_555 1_555
C14 C15 1_555 1_555
C4B C12B 1_555 1_555
C13B C16B 1_555 1_555
C14B C15B 1_555 1_555

#END
