
#######################################################################
#
#                 Cambridge Crystallographic Data Centre
#                                CCDC 
#
#######################################################################
#
# If this CIF has been generated from an entry in the Cambridge 
# Structural Database, then it will include bibliographic, chemical, 
# crystal, experimental, refinement or atomic coordinate data resulting 
# from the CCDC's data processing and validation procedures.
#
#######################################################################

data_AGIYIB
_chemical_formula_moiety         'C34 H28 N2'
_chemical_name_systematic        
N,N'-(butane-1,4-diyl)bis[1-(anthracen-9-yl)methanimine]
_symmetry_cell_setting           orthorhombic
_symmetry_space_group_name_H-M   'P 21 21 21'
_symmetry_Int_Tables_number      19
_space_group_name_Hall           'P 2ac 2ab'
loop_
_symmetry_equiv_pos_site_id
_symmetry_equiv_pos_as_xyz
1 x,y,z
2 1/2-x,-y,1/2+z
3 1/2+x,1/2-y,-z
4 -x,1/2+y,1/2-z
_cell_length_a                   4.4479(4)
_cell_length_b                   17.2701(15)
_cell_length_c                   31.944(2)
_cell_angle_alpha                90
_cell_angle_beta                 90
_cell_angle_gamma                90
_cell_volume                     2453.8
_exptl_crystal_colour            'light yellow'
_cell_formula_units_Z            4
loop_
_atom_site_label
_atom_site_type_symbol
_atom_site_fract_x
_atom_site_fract_y
_atom_site_fract_z
C1 C -0.2419(8) -0.12449(18) -0.07689(9)
C2 C 0.0776(8) -0.14046(19) -0.13883(10)
C3 C -0.5513(8) 0.27624(19) -0.15941(10)
C4 C -0.0483(7) -0.09173(18) -0.10725(9)
C5 C -0.5855(8) 0.2500(2) -0.23480(10)
C6 C -0.7362(8) 0.34152(19) -0.16427(10)
C7 C 0.0063(8) -0.2193(2) -0.13976(11)
H1 H 0.0878 -0.2503 -0.1606
C8 C 0.0296(8) -0.0114(2) -0.10843(11)
H2 H -0.0496 0.0220 -0.0884
C9 C -0.3134(8) -0.20399(19) -0.07830(9)
C10 C -0.1829(8) -0.25205(19) -0.11028(10)
C11 C -0.5605(10) -0.3185(2) -0.05040(12)
H3 H -0.6862 -0.3411 -0.0306
C12 C -0.8474(8) 0.36076(19) -0.20530(10)
C13 C -0.2769(9) 0.1650(2) -0.19125(11)
H4 H -0.1989 0.1513 -0.1653
C14 C -0.5021(8) -0.2415(2) -0.04823(10)
H5 H -0.5866 -0.2125 -0.0267
N1 N -0.2591(7) -0.02605(16) -0.02236(8)
C15 C -0.7680(9) 0.3136(2) -0.23903(10)
H6 H -0.8417 0.3258 -0.2655
C16 C -0.4408(10) 0.01639(19) 0.00860(10)
H7 H -0.3771 0.0023 0.0366
H8 H -0.6507 0.0022 0.0055
C17 C -1.0388(9) 0.4263(2) -0.20979(12)
H9 H -1.1141 0.4385 -0.2361
C18 C -0.3914(9) -0.07616(19) -0.04434(10)
H10 H -0.5961 -0.0835 -0.0399
C19 C 0.2181(9) 0.0169(2) -0.13840(11)
H11 H 0.2666 0.0693 -0.1383
C20 C -0.4664(8) 0.23040(19) -0.19410(10)
C21 C -0.4524(10) 0.2149(2) -0.04833(10)
H12 H -0.5187 0.2472 -0.0253
H13 H -0.2365 0.2208 -0.0512
C22 C -0.5053(9) 0.2015(2) -0.26944(11)
H14 H -0.5822 0.2130 -0.2958
C23 C -0.3220(10) 0.1397(2) -0.26514(12)
H15 H -0.2731 0.1094 -0.2882
C24 C -0.2049(10) 0.1215(2) -0.22513(12)
H16 H -0.0772 0.0792 -0.2220
C25 C 0.2711(8) -0.1077(2) -0.16993(10)
H17 H 0.3502 -0.1393 -0.1908
N2 N -0.6000(8) 0.23936(17) -0.08674(9)
C26 C -0.4318(9) 0.25414(19) -0.11789(10)
H18 H -0.2246 0.2509 -0.1144
C27 C -0.2536(9) -0.3329(2) -0.11109(11)
H19 H -0.1731 -0.3639 -0.1321
C28 C -0.4344(10) -0.3648(2) -0.08206(13)
H20 H -0.4760 -0.4176 -0.0829
C29 C -0.4058(10) 0.10270(19) 0.00260(10)
H21 H -0.1944 0.1160 0.0045
H22 H -0.5104 0.1294 0.0250
C30 C 0.3409(9) -0.0314(2) -0.16951(11)
H23 H 0.4692 -0.0110 -0.1897
C31 C -0.5275(10) 0.13085(19) -0.03918(10)
H24 H -0.4457 0.0987 -0.0613
H25 H -0.7442 0.1246 -0.0394
C32 C -1.0001(10) 0.4538(2) -0.13654(13)
H26 H -1.0481 0.4858 -0.1141
C33 C -0.8221(10) 0.3912(2) -0.13032(11)
H27 H -0.7540 0.3802 -0.1034
C34 C -1.1138(10) 0.4711(2) -0.17691(14)
H28 H -1.2403 0.5134 -0.1807
loop_
_geom_bond_atom_site_label_1
_geom_bond_atom_site_label_2
_geom_bond_site_symmetry_1
_geom_bond_site_symmetry_2
C1 C4 1_555 1_555
C2 C4 1_555 1_555
C3 C6 1_555 1_555
C4 C8 1_555 1_555
C5 C15 1_555 1_555
C6 C12 1_555 1_555
C7 C2 1_555 1_555
H1 C7 1_555 1_555
C8 H2 1_555 1_555
C9 C1 1_555 1_555
C10 C7 1_555 1_555
C11 H3 1_555 1_555
C12 C15 1_555 1_555
C13 H4 1_555 1_555
C14 C9 1_555 1_555
H5 C14 1_555 1_555
N1 C16 1_555 1_555
C15 H6 1_555 1_555
C16 H7 1_555 1_555
H8 C16 1_555 1_555
C17 C12 1_555 1_555
H9 C17 1_555 1_555
C18 C1 1_555 1_555
H10 C18 1_555 1_555
C19 C8 1_555 1_555
H11 C19 1_555 1_555
C20 C3 1_555 1_555
C21 H12 1_555 1_555
H13 C21 1_555 1_555
C22 C5 1_555 1_555
H14 C22 1_555 1_555
C23 C22 1_555 1_555
H15 C23 1_555 1_555
C24 C13 1_555 1_555
H16 C24 1_555 1_555
C25 C2 1_555 1_555
H17 C25 1_555 1_555
N2 C21 1_555 1_555
C26 C3 1_555 1_555
H18 C26 1_555 1_555
C27 C10 1_555 1_555
H19 C27 1_555 1_555
C28 C11 1_555 1_555
H20 C28 1_555 1_555
C29 C16 1_555 1_555
H21 C29 1_555 1_555
H22 C29 1_555 1_555
C30 C19 1_555 1_555
H23 C30 1_555 1_555
C31 C21 1_555 1_555
H24 C31 1_555 1_555
H25 C31 1_555 1_555
C32 H26 1_555 1_555
C33 C6 1_555 1_555
H27 C33 1_555 1_555
C34 C17 1_555 1_555
H28 C34 1_555 1_555
C5 C20 1_555 1_555
C9 C10 1_555 1_555
C11 C14 1_555 1_555
C13 C20 1_555 1_555
N1 C18 1_555 1_555
C23 C24 1_555 1_555
C25 C30 1_555 1_555
N2 C26 1_555 1_555
C27 C28 1_555 1_555
C29 C31 1_555 1_555
C32 C33 1_555 1_555
C32 C34 1_555 1_555

#END
