
#######################################################################
#
#                 Cambridge Crystallographic Data Centre
#                                CCDC 
#
#######################################################################
#
# If this CIF has been generated from an entry in the Cambridge 
# Structural Database, then it will include bibliographic, chemical, 
# crystal, experimental, refinement or atomic coordinate data resulting 
# from the CCDC's data processing and validation procedures.
#
#######################################################################

data_AGIZEY
_chemical_formula_moiety         'C24 H14 F3 N1 O1'
_chemical_name_systematic        
phenyl[3-(trifluoromethyl)-11H-benzo[a]carbazol-5-yl]methanone
_symmetry_cell_setting           monoclinic
_symmetry_space_group_name_H-M   'P 21/c'
_symmetry_Int_Tables_number      14
_space_group_name_Hall           '-P 2ybc'
loop_
_symmetry_equiv_pos_site_id
_symmetry_equiv_pos_as_xyz
1 x,y,z
2 -x,1/2+y,1/2-z
3 -x,-y,-z
4 x,1/2-y,1/2+z
_cell_length_a                   4.60755(5)
_cell_length_b                   22.0094(2)
_cell_length_c                   17.7791(2)
_cell_angle_alpha                90
_cell_angle_beta                 95.6916(10)
_cell_angle_gamma                90
_cell_volume                     1794.08
_exptl_crystal_colour            colorless
_exptl_crystal_description       needle
_cell_formula_units_Z            4
loop_
_atom_site_label
_atom_site_type_symbol
_atom_site_fract_x
_atom_site_fract_y
_atom_site_fract_z
F1 F 0.8775(3) 0.93416(7) 0.38548(12)
F2 F 1.2565(3) 0.91568(6) 0.46153(7)
F3 F 1.1973(3) 0.87154(6) 0.35539(7)
O1 O 0.4514(3) 0.74142(6) 0.26469(7)
N1 N 0.2866(3) 0.70571(7) 0.61380(8)
H1 H 0.3402 0.7300 0.6505
C1 C 0.0997(4) 0.65689(8) 0.61728(10)
C2 C -0.0454(4) 0.63708(9) 0.67799(10)
H2 H -0.0226 0.6569 0.7244
C3 C -0.2241(4) 0.58698(9) 0.66638(11)
H3 H -0.3252 0.5730 0.7057
C4 C -0.2571(4) 0.55658(9) 0.59679(11)
H4 H -0.3773 0.5226 0.5909
C5 C -0.1127(4) 0.57649(8) 0.53650(10)
H5 H -0.1346 0.5562 0.4904
C6 C 0.0663(4) 0.62770(8) 0.54647(9)
C7 C 0.2412(4) 0.66209(8) 0.49840(9)
C8 C 0.2938(4) 0.65726(8) 0.42228(9)
H6 H 0.2177 0.6245 0.3938
C9 C 0.4571(4) 0.70046(8) 0.38896(9)
C10 C 0.5915(4) 0.74971(8) 0.43355(9)
C11 C 0.7655(4) 0.79467(8) 0.40319(10)
H7 H 0.7958 0.7933 0.3523
C12 C 0.8905(4) 0.84043(8) 0.44811(10)
C13 C 0.8541(4) 0.84331(8) 0.52566(10)
H8 H 0.9388 0.8747 0.5552
C14 C 0.6934(4) 0.79968(8) 0.55720(10)
H9 H 0.6748 0.8007 0.6088
C15 C 0.5553(4) 0.75303(8) 0.51232(9)
C16 C 0.3725(4) 0.70913(8) 0.54234(9)
C17 C 1.0518(4) 0.89054(8) 0.41348(11)
C18 C 0.4654(4) 0.69629(8) 0.30565(9)
C19 C 0.4897(4) 0.63454(8) 0.27143(9)
C20 C 0.6543(4) 0.58887(8) 0.30951(10)
H10 H 0.7332 0.5952 0.3591
C21 C 0.7014(4) 0.53414(9) 0.27410(11)
H11 H 0.8157 0.5043 0.2994
C22 C 0.5779(4) 0.52405(8) 0.20099(11)
H12 H 0.6098 0.4874 0.1771
C23 C 0.4069(4) 0.56842(9) 0.16334(10)
H13 H 0.3204 0.5611 0.1147
C24 C 0.3642(4) 0.62378(8) 0.19805(10)
H14 H 0.2517 0.6537 0.1723
loop_
_geom_bond_atom_site_label_1
_geom_bond_atom_site_label_2
_geom_bond_site_symmetry_1
_geom_bond_site_symmetry_2
F1 C17 1_555 1_555
F2 C17 1_555 1_555
F3 C17 1_555 1_555
O1 C18 1_555 1_555
N1 H1 1_555 1_555
C1 N1 1_555 1_555
C2 C1 1_555 1_555
H2 C2 1_555 1_555
C3 C2 1_555 1_555
H3 C3 1_555 1_555
C4 C3 1_555 1_555
H4 C4 1_555 1_555
C5 C4 1_555 1_555
H5 C5 1_555 1_555
C6 C1 1_555 1_555
C7 C6 1_555 1_555
C8 C7 1_555 1_555
H6 C8 1_555 1_555
C9 C8 1_555 1_555
C10 C9 1_555 1_555
C11 C10 1_555 1_555
H7 C11 1_555 1_555
C12 C11 1_555 1_555
C13 C12 1_555 1_555
H8 C13 1_555 1_555
C14 C13 1_555 1_555
H9 C14 1_555 1_555
C15 C10 1_555 1_555
C16 N1 1_555 1_555
C17 C12 1_555 1_555
C18 C9 1_555 1_555
C19 C18 1_555 1_555
C20 C19 1_555 1_555
H10 C20 1_555 1_555
C21 C20 1_555 1_555
H11 C21 1_555 1_555
C22 C21 1_555 1_555
H12 C22 1_555 1_555
C23 C22 1_555 1_555
H13 C23 1_555 1_555
C24 C19 1_555 1_555
H14 C24 1_555 1_555
C5 C6 1_555 1_555
C7 C16 1_555 1_555
C14 C15 1_555 1_555
C15 C16 1_555 1_555
C23 C24 1_555 1_555

#END
