
#######################################################################
#
#                 Cambridge Crystallographic Data Centre
#                                CCDC 
#
#######################################################################
#
# If this CIF has been generated from an entry in the Cambridge 
# Structural Database, then it will include bibliographic, chemical, 
# crystal, experimental, refinement or atomic coordinate data resulting 
# from the CCDC's data processing and validation procedures.
#
#######################################################################

data_AGOBUW
_chemical_formula_moiety         'C80 H82 N4 O12'
_chemical_name_systematic        
'[3,6-bis{5-[4-(diethylamino)phenyl]furan-2-yl}-1,4-dioxopyrrolo[3,4-c]pyrrole-2,5(1H,4H)-diyl]bis(hexane-6,1-diyl) bis[(5,6-dimethyl-9-oxo-9H-xanthen-4-yl)acetate]'
_symmetry_cell_setting           monoclinic
_symmetry_space_group_name_H-M   'P 21/n'
_symmetry_Int_Tables_number      14
_space_group_name_Hall           '-P 2yn'
loop_
_symmetry_equiv_pos_site_id
_symmetry_equiv_pos_as_xyz
1 x,y,z
2 1/2-x,1/2+y,1/2-z
3 -x,-y,-z
4 1/2+x,1/2-y,1/2+z
_cell_length_a                   19.8493(18)
_cell_length_b                   8.1399(7)
_cell_length_c                   21.694(2)
_cell_angle_alpha                90
_cell_angle_beta                 103.224(3)
_cell_angle_gamma                90
_cell_volume                     3412.18
_exptl_crystal_colour            green
_exptl_crystal_description       plate
_cell_formula_units_Z            2
_exptl_crystal_recrystallization_method dichloromethane/ethanol
loop_
_atom_site_label
_atom_site_type_symbol
_atom_site_fract_x
_atom_site_fract_y
_atom_site_fract_z
O1 O 0.80991(7) 0.55044(18) -0.12850(6)
O2 O 0.95949(8) 0.1883(2) 0.05026(8)
O3 O 0.63445(8) 0.3818(2) 0.16100(7)
O4 O 0.66284(12) 0.1760(3) 0.22926(11)
O5 O 0.60122(8) 0.09880(18) 0.05669(7)
O6 O 0.51327(12) 0.2273(3) -0.12650(9)
N1 N 0.90459(9) 0.3696(2) -0.02778(8)
N2 N 0.49906(10) 0.5540(3) -0.29606(9)
C1 C 0.96141(11) 0.3153(3) 0.02063(10)
C2 C 0.92022(10) 0.5172(3) -0.05416(9)
C3 C 0.98672(11) 0.5602(3) -0.02296(10)
C4 C 0.87660(10) 0.6041(3) -0.10419(10)
C5 C 0.88734(12) 0.7447(3) -0.13441(12)
H1 H 0.927995 0.805837 -0.127077
C6 C 0.82570(12) 0.7805(3) -0.17868(12)
H2 H 0.817879 0.869935 -0.206059
C7 C 0.77937(11) 0.6601(3) -0.17423(10)
C8 C 0.70774(11) 0.6304(3) -0.20509(10)
C9 C 0.67601(13) 0.7213(3) -0.25808(11)
H3 H 0.701455 0.800785 -0.273608
C10 C 0.60797(13) 0.6963(3) -0.28800(12)
H4 H 0.588502 0.758719 -0.323520
C11 C 0.56709(11) 0.5788(3) -0.26626(10)
C12 C 0.59921(11) 0.4882(3) -0.21242(10)
H5 H 0.573927 0.409393 -0.196360
C13 C 0.66751(11) 0.5144(3) -0.18306(10)
H6 H 0.687332 0.452695 -0.147455
C14 C 0.46907(14) 0.6288(3) -0.35741(12)
H7 H 0.431857 0.559267 -0.380053
H8 H 0.504173 0.633374 -0.381985
C15 C 0.44122(18) 0.7992(4) -0.35272(16)
H9 H 0.403224 0.794340 -0.332212
H10 H 0.425568 0.844277 -0.394428
H11 H 0.477093 0.867549 -0.328512
C16 C 0.45473(13) 0.4442(4) -0.26946(13)
H12 H 0.407204 0.481301 -0.283164
H13 H 0.467619 0.452539 -0.223665
C17 C 0.45836(17) 0.2672(4) -0.28771(15)
H14 H 0.446937 0.257728 -0.333023
H15 H 0.426108 0.204279 -0.270484
H16 H 0.504349 0.226454 -0.271315
C18 C 0.83959(11) 0.2777(3) -0.04276(10)
H17 H 0.848570 0.165176 -0.028544
H18 H 0.822299 0.275671 -0.088350
C19 C 0.78403(11) 0.3494(3) -0.01253(10)
H19 H 0.776107 0.462850 -0.025936
H20 H 0.741231 0.289796 -0.028220
C20 C 0.80133(11) 0.3438(3) 0.05936(10)
H21 H 0.842749 0.408223 0.075424
H22 H 0.811155 0.231205 0.073121
C21 C 0.74308(12) 0.4094(3) 0.08734(11)
H23 H 0.734995 0.523687 0.075288
H24 H 0.701080 0.348914 0.069312
C22 C 0.75764(12) 0.3966(3) 0.15881(11)
H25 H 0.765457 0.282122 0.170786
H26 H 0.799854 0.456300 0.176765
C23 C 0.70019(13) 0.4625(3) 0.18705(12)
H27 H 0.712430 0.446657 0.232565
H28 H 0.695267 0.579568 0.178905
C24 C 0.62213(14) 0.2401(3) 0.18717(12)
C25 C 0.55055(13) 0.1741(3) 0.16022(12)
H29 H 0.553349 0.055179 0.159812
H30 H 0.521556 0.203565 0.188943
C26 C 0.51482(12) 0.2296(3) 0.09517(11)
C27 C 0.45422(13) 0.3183(3) 0.08305(15)
H31 H 0.434900 0.346472 0.116825
C28 C 0.42088(14) 0.3673(3) 0.02290(16)
H32 H 0.380070 0.427517 0.016756
C29 C 0.44800(14) 0.3271(3) -0.02765(15)
H33 H 0.425734 0.360465 -0.068184
C30 C 0.50956(12) 0.2352(3) -0.01842(11)
C31 C 0.54133(11) 0.1889(3) 0.04250(11)
C32 C 0.54013(14) 0.1898(3) -0.07117(12)
C33 C 0.60493(13) 0.0978(3) -0.05344(11)
C34 C 0.63283(12) 0.0555(3) 0.00906(11)
C35 C 0.69466(13) -0.0316(3) 0.02881(13)
C36 C 0.72968(15) -0.0763(3) -0.01760(16)
C37 C 0.70139(18) -0.0356(4) -0.08083(16)
H34 H 0.724741 -0.066815 -0.111550
C38 C 0.64071(16) 0.0482(4) -0.09884(13)
H35 H 0.623028 0.072501 -0.141356
C39 C 0.72053(15) -0.0735(3) 0.09718(14)
H36 H 0.737022 0.024217 0.120566
H37 H 0.757627 -0.151490 0.101670
H38 H 0.683563 -0.120285 0.113241
C40 C 0.79825(17) -0.1634(4) 0.00043(19)
H39 H 0.830830 -0.095765 0.028987
H40 H 0.815094 -0.184377 -0.036917
H41 H 0.792557 -0.265579 0.020741
O1B O 1.19009(7) 0.44956(18) 0.12850(6)
O2B O 1.04051(8) 0.8117(2) -0.05026(8)
O3B O 1.36555(8) 0.6182(2) -0.16100(7)
O4B O 1.33716(12) 0.8240(3) -0.22926(11)
O5B O 1.39878(8) 0.90120(18) -0.05669(7)
O6B O 1.48673(12) 0.7727(3) 0.12650(9)
N1B N 1.09541(9) 0.6304(2) 0.02778(8)
N2B N 1.50094(10) 0.4460(3) 0.29606(9)
C1B C 1.03859(11) 0.6847(3) -0.02063(10)
C2B C 1.07978(10) 0.4828(3) 0.05416(9)
C3B C 1.01328(11) 0.4398(3) 0.02296(10)
C4B C 1.12340(10) 0.3959(3) 0.10419(10)
C5B C 1.11266(12) 0.2553(3) 0.13441(12)
H1B H 1.072005 0.194163 0.127077
C6B C 1.17430(12) 0.2195(3) 0.17868(12)
H2B H 1.182121 0.130065 0.206059
C7B C 1.22063(11) 0.3399(3) 0.17423(10)
C8B C 1.29226(11) 0.3696(3) 0.20509(10)
C9B C 1.32399(13) 0.2787(3) 0.25808(11)
H3B H 1.298545 0.199215 0.273608
C10B C 1.39203(13) 0.3037(3) 0.28800(12)
H4B H 1.411498 0.241281 0.323520
C11B C 1.43291(11) 0.4212(3) 0.26626(10)
C12B C 1.40079(11) 0.5118(3) 0.21242(10)
H5B H 1.426073 0.590607 0.196360
C13B C 1.33249(11) 0.4856(3) 0.18306(10)
H6B H 1.312668 0.547305 0.147455
C14B C 1.53093(14) 0.3712(3) 0.35741(12)
H7B H 1.568143 0.440733 0.380053
H8B H 1.495827 0.366626 0.381985
C15B C 1.55878(18) 0.2008(4) 0.35272(16)
H9B H 1.596776 0.205660 0.332212
H10B H 1.574432 0.155723 0.394428
H11B H 1.522907 0.132451 0.328512
C16B C 1.54527(13) 0.5558(4) 0.26946(13)
H12B H 1.592796 0.518699 0.283164
H13B H 1.532381 0.547461 0.223665
C17B C 1.54164(17) 0.7328(4) 0.28771(15)
H14B H 1.553063 0.742272 0.333023
H15B H 1.573892 0.795721 0.270484
H16B H 1.495651 0.773546 0.271315
C18B C 1.16041(11) 0.7223(3) 0.04276(10)
H17B H 1.151430 0.834824 0.028544
H18B H 1.177701 0.724329 0.088350
C19B C 1.21597(11) 0.6506(3) 0.01253(10)
H19B H 1.223893 0.537150 0.025936
H20B H 1.258769 0.710204 0.028220
C20B C 1.19867(11) 0.6562(3) -0.05936(10)
H21B H 1.157251 0.591777 -0.075424
H22B H 1.188845 0.768795 -0.073121
C21B C 1.25692(12) 0.5906(3) -0.08734(11)
H23B H 1.265005 0.476313 -0.075288
H24B H 1.298920 0.651086 -0.069312
C22B C 1.24236(12) 0.6034(3) -0.15881(11)
H25B H 1.234543 0.717878 -0.170786
H26B H 1.200146 0.543700 -0.176765
C23B C 1.29981(13) 0.5375(3) -0.18705(12)
H27B H 1.287570 0.553343 -0.232565
H28B H 1.304733 0.420432 -0.178905
C24B C 1.37787(14) 0.7599(3) -0.18717(12)
C25B C 1.44945(13) 0.8259(3) -0.16022(12)
H29B H 1.446651 0.944821 -0.159812
H30B H 1.478444 0.796435 -0.188943
C26B C 1.48518(12) 0.7704(3) -0.09517(11)
C27B C 1.54578(13) 0.6817(3) -0.08305(15)
H31B H 1.565100 0.653528 -0.116825
C28B C 1.57912(14) 0.6327(3) -0.02290(16)
H32B H 1.619930 0.572483 -0.016756
C29B C 1.55200(14) 0.6729(3) 0.02765(15)
H33B H 1.574266 0.639535 0.068184
C30B C 1.49044(12) 0.7648(3) 0.01842(11)
C31B C 1.45867(11) 0.8111(3) -0.04250(11)
C32B C 1.45987(14) 0.8102(3) 0.07117(12)
C33B C 1.39507(13) 0.9022(3) 0.05344(11)
C34B C 1.36717(12) 0.9445(3) -0.00906(11)
C35B C 1.30534(13) 1.0316(3) -0.02881(13)
C36B C 1.27032(15) 1.0763(3) 0.01760(16)
C37B C 1.29861(18) 1.0356(4) 0.08083(16)
H34B H 1.275259 1.066815 0.111550
C38B C 1.35929(16) 0.9518(4) 0.09884(13)
H35B H 1.376972 0.927499 0.141356
C39B C 1.27947(15) 1.0735(3) -0.09718(14)
H36B H 1.262978 0.975783 -0.120566
H37B H 1.242373 1.151490 -0.101670
H38B H 1.316437 1.120285 -0.113241
C40B C 1.20175(17) 1.1634(4) -0.00043(19)
H39B H 1.169170 1.095765 -0.028987
H40B H 1.184906 1.184377 0.036917
H41B H 1.207443 1.265579 -0.020741
loop_
_geom_bond_atom_site_label_1
_geom_bond_atom_site_label_2
_geom_bond_site_symmetry_1
_geom_bond_site_symmetry_2
O1 C4 1_555 1_555
O2 C1 1_555 1_555
O3 C23 1_555 1_555
O4 C24 1_555 1_555
O5 C31 1_555 1_555
O6 C32 1_555 1_555
N1 C1 1_555 1_555
N2 C11 1_555 1_555
C1 C3B 1_555 1_555
C2 N1 1_555 1_555
C3 C2 1_555 1_555
C4 C2 1_555 1_555
C5 C4 1_555 1_555
H1 C5 1_555 1_555
C6 C5 1_555 1_555
H2 C6 1_555 1_555
C7 O1 1_555 1_555
C8 C7 1_555 1_555
C9 C8 1_555 1_555
H3 C9 1_555 1_555
C10 C9 1_555 1_555
H4 C10 1_555 1_555
C11 C10 1_555 1_555
C12 C11 1_555 1_555
H5 C12 1_555 1_555
C13 C8 1_555 1_555
H6 C13 1_555 1_555
C14 N2 1_555 1_555
H7 C14 1_555 1_555
H8 C14 1_555 1_555
C15 C14 1_555 1_555
H9 C15 1_555 1_555
H10 C15 1_555 1_555
H11 C15 1_555 1_555
C16 N2 1_555 1_555
H12 C16 1_555 1_555
H13 C16 1_555 1_555
C17 C16 1_555 1_555
H14 C17 1_555 1_555
H15 C17 1_555 1_555
H16 C17 1_555 1_555
C18 N1 1_555 1_555
H17 C18 1_555 1_555
H18 C18 1_555 1_555
C19 C18 1_555 1_555
H19 C19 1_555 1_555
H20 C19 1_555 1_555
C20 C19 1_555 1_555
H21 C20 1_555 1_555
H22 C20 1_555 1_555
C21 C20 1_555 1_555
H23 C21 1_555 1_555
H24 C21 1_555 1_555
C22 C21 1_555 1_555
H25 C22 1_555 1_555
H26 C22 1_555 1_555
C23 C22 1_555 1_555
H27 C23 1_555 1_555
H28 C23 1_555 1_555
C24 O3 1_555 1_555
C25 C24 1_555 1_555
H29 C25 1_555 1_555
H30 C25 1_555 1_555
C26 C25 1_555 1_555
C27 C26 1_555 1_555
H31 C27 1_555 1_555
C28 C27 1_555 1_555
H32 C28 1_555 1_555
C29 C28 1_555 1_555
H33 C29 1_555 1_555
C30 C29 1_555 1_555
C31 C26 1_555 1_555
C32 C30 1_555 1_555
C33 C32 1_555 1_555
C34 O5 1_555 1_555
C35 C34 1_555 1_555
C36 C35 1_555 1_555
C37 C36 1_555 1_555
H34 C37 1_555 1_555
C38 C33 1_555 1_555
H35 C38 1_555 1_555
C39 C35 1_555 1_555
H36 C39 1_555 1_555
H37 C39 1_555 1_555
H38 C39 1_555 1_555
C40 C36 1_555 1_555
H39 C40 1_555 1_555
H40 C40 1_555 1_555
H41 C40 1_555 1_555
O1B C4B 1_555 1_555
O2B C1B 1_555 1_555
O3B C23B 1_555 1_555
O4B C24B 1_555 1_555
O5B C31B 1_555 1_555
O6B C32B 1_555 1_555
N1B C1B 1_555 1_555
N2B C11B 1_555 1_555
C1B C3 1_555 1_555
C2B N1B 1_555 1_555
C3B C3 1_555 1_555
C4B C2B 1_555 1_555
C5B C4B 1_555 1_555
H1B C5B 1_555 1_555
C6B C5B 1_555 1_555
H2B C6B 1_555 1_555
C7B O1B 1_555 1_555
C8B C7B 1_555 1_555
C9B C8B 1_555 1_555
H3B C9B 1_555 1_555
C10B C9B 1_555 1_555
H4B C10B 1_555 1_555
C11B C10B 1_555 1_555
C12B C11B 1_555 1_555
H5B C12B 1_555 1_555
C13B C8B 1_555 1_555
H6B C13B 1_555 1_555
C14B N2B 1_555 1_555
H7B C14B 1_555 1_555
H8B C14B 1_555 1_555
C15B C14B 1_555 1_555
H9B C15B 1_555 1_555
H10B C15B 1_555 1_555
H11B C15B 1_555 1_555
C16B N2B 1_555 1_555
H12B C16B 1_555 1_555
H13B C16B 1_555 1_555
C17B C16B 1_555 1_555
H14B C17B 1_555 1_555
H15B C17B 1_555 1_555
H16B C17B 1_555 1_555
C18B N1B 1_555 1_555
H17B C18B 1_555 1_555
H18B C18B 1_555 1_555
C19B C18B 1_555 1_555
H19B C19B 1_555 1_555
H20B C19B 1_555 1_555
C20B C19B 1_555 1_555
H21B C20B 1_555 1_555
H22B C20B 1_555 1_555
C21B C20B 1_555 1_555
H23B C21B 1_555 1_555
H24B C21B 1_555 1_555
C22B C21B 1_555 1_555
H25B C22B 1_555 1_555
H26B C22B 1_555 1_555
C23B C22B 1_555 1_555
H27B C23B 1_555 1_555
H28B C23B 1_555 1_555
C24B O3B 1_555 1_555
C25B C24B 1_555 1_555
H29B C25B 1_555 1_555
H30B C25B 1_555 1_555
C26B C25B 1_555 1_555
C27B C26B 1_555 1_555
H31B C27B 1_555 1_555
C28B C27B 1_555 1_555
H32B C28B 1_555 1_555
C29B C28B 1_555 1_555
H33B C29B 1_555 1_555
C30B C29B 1_555 1_555
C31B C26B 1_555 1_555
C32B C30B 1_555 1_555
C33B C32B 1_555 1_555
C34B O5B 1_555 1_555
C35B C34B 1_555 1_555
C36B C35B 1_555 1_555
C37B C36B 1_555 1_555
H34B C37B 1_555 1_555
C38B C33B 1_555 1_555
H35B C38B 1_555 1_555
C39B C35B 1_555 1_555
H36B C39B 1_555 1_555
H37B C39B 1_555 1_555
H38B C39B 1_555 1_555
C40B C36B 1_555 1_555
H39B C40B 1_555 1_555
H40B C40B 1_555 1_555
H41B C40B 1_555 1_555
C6 C7 1_555 1_555
C12 C13 1_555 1_555
C30 C31 1_555 1_555
C33 C34 1_555 1_555
C37 C38 1_555 1_555
C2B C3B 1_555 1_555
C6B C7B 1_555 1_555
C12B C13B 1_555 1_555
C30B C31B 1_555 1_555
C33B C34B 1_555 1_555
C37B C38B 1_555 1_555

#END
