
#######################################################################
#
#                 Cambridge Crystallographic Data Centre
#                                CCDC 
#
#######################################################################
#
# If this CIF has been generated from an entry in the Cambridge 
# Structural Database, then it will include bibliographic, chemical, 
# crystal, experimental, refinement or atomic coordinate data resulting 
# from the CCDC's data processing and validation procedures.
#
#######################################################################

data_AGOBAB
_chemical_formula_moiety         'C20 H23 Cl1 O5,0.5(C3 H6 O1)'
_chemical_name_systematic        
"7-Chloro-1-(3-furyl)-6-hydroxy-5a,6,9b-trimethyloctahydro-1H-naphtho[2',1':1,3]cyclopropa[1,2-c]furan-3,4(5H)-dione acetone solvate"
_symmetry_cell_setting           orthorhombic
_symmetry_space_group_name_H-M   'P 21 21 21'
_symmetry_Int_Tables_number      19
_space_group_name_Hall           'P 2ac 2ab'
loop_
_symmetry_equiv_pos_site_id
_symmetry_equiv_pos_as_xyz
1 x,y,z
2 1/2+x,1/2-y,-z
3 -x,1/2+y,1/2-z
4 1/2-x,-y,1/2+z
_cell_length_a                   11.0308(2)
_cell_length_b                   11.6168(2)
_cell_length_c                   30.5185(4)
_cell_angle_alpha                90
_cell_angle_beta                 90
_cell_angle_gamma                90
_cell_volume                     3910.72
_exptl_crystal_colour            colorless
_exptl_crystal_description       block
_cell_formula_units_Z            8
loop_
_atom_site_label
_atom_site_type_symbol
_atom_site_fract_x
_atom_site_fract_y
_atom_site_fract_z
Cl1 Cl 0.27855(5) -0.21450(4) 0.890969(15)
O1 O 0.47728(11) -0.12052(11) 0.95270(4)
H1 H 0.4456 -0.1863 0.9530
O2 O 0.64777(13) 0.24291(13) 1.00367(4)
O3 O 0.72704(11) 0.40772(12) 0.93519(4)
O4 O 0.55959(11) 0.51421(10) 0.93013(4)
O5 O 0.37967(12) 0.68321(11) 1.03171(4)
C1 C 0.34252(16) 0.12708(15) 0.86349(5)
H2 H 0.4141 0.1162 0.8444
H3 H 0.2894 0.1855 0.8497
C2 C 0.27353(17) 0.01298(15) 0.86750(5)
H4 H 0.1989 0.0245 0.8850
H5 H 0.2498 -0.0147 0.8380
C3 C 0.35384(16) -0.07514(14) 0.88951(5)
H6 H 0.4291 -0.0834 0.8715
C4 C 0.39180(15) -0.03868(14) 0.93606(5)
C5 C 0.46071(14) 0.07859(14) 0.93296(5)
C6 C 0.48390(15) 0.12448(15) 0.97981(5)
H7 H 0.4054 0.1433 0.9938
H8 H 0.5237 0.0638 0.9975
C7 C 0.56271(15) 0.23001(15) 0.97918(5)
C8 C 0.53023(14) 0.31870(14) 0.94612(5)
C9 C 0.44621(14) 0.28959(14) 0.90617(5)
C10 C 0.38374(14) 0.16995(13) 0.90852(5)
H9 H 0.3084 0.1808 0.9263
C11 C 0.40542(14) 0.37320(14) 0.94016(5)
H10 H 0.3389 0.3493 0.9605
C12 C 0.42877(14) 0.50116(14) 0.93399(5)
H11 H 0.3884 0.5286 0.9066
C13 C 0.38621(14) 0.57110(13) 0.97225(5)
C14 C 0.26193(15) 0.58716(16) 0.98504(6)
H12 H 0.1923 0.5560 0.9711
C15 C 0.26368(17) 0.65504(15) 1.02068(6)
H13 H 0.1936 0.6800 1.0361
C16 C 0.45254(16) 0.63014(15) 1.00130(6)
H14 H 0.5385 0.6347 1.0009
C17 C 0.61914(15) 0.41272(15) 0.93713(5)
C18 C 0.28328(17) -0.03430(16) 0.96730(6)
H15 H 0.2386 -0.1071 0.9657
H16 H 0.2297 0.0293 0.9589
H17 H 0.3121 -0.0223 0.9973
C19 C 0.58481(15) 0.06084(14) 0.91036(5)
H18 H 0.6248 0.1355 0.9065
H19 H 0.5726 0.0248 0.8817
H20 H 0.6357 0.0109 0.9286
C20 C 0.48712(15) 0.33113(15) 0.86131(5)
H21 H 0.4171 0.3348 0.8416
H22 H 0.5473 0.2775 0.8494
H23 H 0.5233 0.4078 0.8640
Cl2 Cl 0.56276(4) 0.86043(4) 0.772339(17)
O6 O 0.78354(11) 0.74111(9) 0.72919(4)
H24 H 0.8037 0.8103 0.7325
O7 O 1.09899(11) 0.45416(10) 0.76608(4)
O8 O 1.22980(11) 0.48115(11) 0.85139(4)
O9 O 1.11199(10) 0.36875(10) 0.89259(4)
O10 O 0.97840(14) 0.03850(12) 0.85250(5)
C21 C 0.75617(15) 0.69148(14) 0.86840(5)
H25 H 0.8166 0.7517 0.8754
H26 H 0.7270 0.6581 0.8963
C22 C 0.64941(15) 0.74588(14) 0.84393(6)
H27 H 0.5844 0.6880 0.8401
H28 H 0.6163 0.8104 0.8614
C23 C 0.68981(15) 0.79013(14) 0.79916(6)
H29 H 0.7542 0.8494 0.8040
C24 C 0.74374(14) 0.69515(13) 0.77011(5)
C25 C 0.85580(13) 0.64240(13) 0.79538(5)
C26 C 0.90320(14) 0.53948(13) 0.76855(5)
H30 H 0.8385 0.4807 0.7663
H31 H 0.9228 0.5658 0.7385
C27 C 1.01335(14) 0.48586(12) 0.78843(5)
C28 C 1.01379(13) 0.47145(13) 0.83668(5)
C29 C 0.91977(13) 0.53545(13) 0.86604(5)
C30 C 0.81660(13) 0.59718(12) 0.84100(5)
H32 H 0.7529 0.5377 0.8355
C31 C 0.91618(14) 0.40744(13) 0.86274(5)
H33 H 0.8478 0.3712 0.8462
C32 C 0.98489(15) 0.33406(14) 0.89581(5)
H34 H 0.9542 0.3508 0.9260
C33 C 0.97313(15) 0.20808(15) 0.88670(5)
C34 C 0.9205(2) 0.12351(19) 0.91418(7)
H35 H 0.8884 0.1350 0.9427
C35 C 0.9251(2) 0.02359(17) 0.89191(7)
H36 H 0.8949 -0.0478 0.9025
C36 C 1.00716(18) 0.15234(15) 0.84988(7)
H37 H 1.0458 0.1876 0.8255
C37 C 1.13109(14) 0.44376(14) 0.85907(5)
C38 C 0.64884(15) 0.60471(14) 0.75764(6)
H38 H 0.5778 0.6430 0.7450
H39 H 0.6245 0.5618 0.7838
H40 H 0.6835 0.5515 0.7361
C39 C 0.95906(13) 0.73117(13) 0.79941(5)
H41 H 1.0244 0.6990 0.8174
H42 H 0.9280 0.8014 0.8132
H43 H 0.9904 0.7495 0.7702
C40 C 0.96795(16) 0.59307(15) 0.90710(5)
H44 H 0.9023 0.6010 0.9285
H45 H 0.9996 0.6694 0.8997
H46 H 1.0330 0.5461 0.9196
C41 C 0.7222(2) 0.12156(18) 0.80160(7)
H47 H 0.7407 0.1522 0.8308
H48 H 0.7844 0.0654 0.7932
H49 H 0.6427 0.0839 0.8021
C42 C 0.72047(15) 0.21783(16) 0.76911(6)
C43 C 0.7008(2) 0.1859(2) 0.72258(7)
H50 H 0.6174 0.1586 0.7187
H51 H 0.7574 0.1247 0.7143
H52 H 0.7144 0.2534 0.7039
O11 O 0.73243(18) 0.31633(13) 0.78154(6)
loop_
_geom_bond_atom_site_label_1
_geom_bond_atom_site_label_2
_geom_bond_site_symmetry_1
_geom_bond_site_symmetry_2
Cl1 C3 1_555 1_555
O1 H1 1_555 1_555
O2 C7 1_555 1_555
O3 C17 1_555 1_555
O4 C12 1_555 1_555
O5 C15 1_555 1_555
C1 H2 1_555 1_555
H3 C1 1_555 1_555
C2 C1 1_555 1_555
H4 C2 1_555 1_555
H5 C2 1_555 1_555
C3 C2 1_555 1_555
H6 C3 1_555 1_555
C4 O1 1_555 1_555
C5 C4 1_555 1_555
C6 C5 1_555 1_555
H7 C6 1_555 1_555
H8 C6 1_555 1_555
C7 C6 1_555 1_555
C8 C7 1_555 1_555
C9 C8 1_555 1_555
C10 C1 1_555 1_555
H9 C10 1_555 1_555
C11 C8 1_555 1_555
H10 C11 1_555 1_555
C12 C11 1_555 1_555
H11 C12 1_555 1_555
C13 C12 1_555 1_555
C14 C13 1_555 1_555
H12 C14 1_555 1_555
C15 C14 1_555 1_555
H13 C15 1_555 1_555
C16 O5 1_555 1_555
H14 C16 1_555 1_555
C17 O4 1_555 1_555
C18 C4 1_555 1_555
H15 C18 1_555 1_555
H16 C18 1_555 1_555
H17 C18 1_555 1_555
C19 C5 1_555 1_555
H18 C19 1_555 1_555
H19 C19 1_555 1_555
H20 C19 1_555 1_555
C20 C9 1_555 1_555
H21 C20 1_555 1_555
H22 C20 1_555 1_555
H23 C20 1_555 1_555
Cl2 C23 1_555 1_555
O6 H24 1_555 1_555
O7 C27 1_555 1_555
O8 C37 1_555 1_555
O9 C32 1_555 1_555
O10 C35 1_555 1_555
C21 H25 1_555 1_555
H26 C21 1_555 1_555
C22 C21 1_555 1_555
H27 C22 1_555 1_555
H28 C22 1_555 1_555
C23 C22 1_555 1_555
H29 C23 1_555 1_555
C24 O6 1_555 1_555
C25 C24 1_555 1_555
C26 C25 1_555 1_555
H30 C26 1_555 1_555
H31 C26 1_555 1_555
C27 C26 1_555 1_555
C28 C27 1_555 1_555
C29 C28 1_555 1_555
C30 C21 1_555 1_555
H32 C30 1_555 1_555
C31 C28 1_555 1_555
H33 C31 1_555 1_555
C32 C31 1_555 1_555
H34 C32 1_555 1_555
C33 C32 1_555 1_555
C34 C33 1_555 1_555
H35 C34 1_555 1_555
C35 C34 1_555 1_555
H36 C35 1_555 1_555
C36 O10 1_555 1_555
H37 C36 1_555 1_555
C37 O9 1_555 1_555
C38 C24 1_555 1_555
H38 C38 1_555 1_555
H39 C38 1_555 1_555
H40 C38 1_555 1_555
C39 C25 1_555 1_555
H41 C39 1_555 1_555
H42 C39 1_555 1_555
H43 C39 1_555 1_555
C40 C29 1_555 1_555
H44 C40 1_555 1_555
H45 C40 1_555 1_555
H46 C40 1_555 1_555
C41 H47 1_555 1_555
H48 C41 1_555 1_555
H49 C41 1_555 1_555
C42 C41 1_555 1_555
C43 C42 1_555 1_555
H50 C43 1_555 1_555
H51 C43 1_555 1_555
H52 C43 1_555 1_555
O11 C42 1_555 1_555
C3 C4 1_555 1_555
C5 C10 1_555 1_555
C8 C17 1_555 1_555
C9 C10 1_555 1_555
C9 C11 1_555 1_555
C13 C16 1_555 1_555
C23 C24 1_555 1_555
C25 C30 1_555 1_555
C28 C37 1_555 1_555
C29 C30 1_555 1_555
C29 C31 1_555 1_555
C33 C36 1_555 1_555

#END
