
#######################################################################
#
#                 Cambridge Crystallographic Data Centre
#                                CCDC 
#
#######################################################################
#
# If this CIF has been generated from an entry in the Cambridge 
# Structural Database, then it will include bibliographic, chemical, 
# crystal, experimental, refinement or atomic coordinate data resulting 
# from the CCDC's data processing and validation procedures.
#
#######################################################################

data_AGOCOR
_chemical_formula_moiety         'C15 H24 O3'
_chemical_name_systematic        
7-hydroxy-7-(hydroxymethyl)-4-methyl-1-(propan-2-yl)-4,4a,5,6,7,8-hexahydronaphthalen-2(3H)-one
_symmetry_cell_setting           monoclinic
_symmetry_space_group_name_H-M   'P 21'
_symmetry_Int_Tables_number      4
_space_group_name_Hall           'P 2yb'
loop_
_symmetry_equiv_pos_site_id
_symmetry_equiv_pos_as_xyz
1 x,y,z
2 -x,1/2+y,-z
_cell_length_a                   6.13450(10)
_cell_length_b                   17.43090(10)
_cell_length_c                   13.21640(10)
_cell_angle_alpha                90
_cell_angle_beta                 96.9660(10)
_cell_angle_gamma                90
_cell_volume                     1402.8
_exptl_crystal_colour            colorless
_exptl_crystal_description       block
_cell_formula_units_Z            4
loop_
_atom_site_label
_atom_site_type_symbol
_atom_site_fract_x
_atom_site_fract_y
_atom_site_fract_z
O1 O 0.07254(19) 0.09322(7) 0.81929(9)
H1 H 0.0882 0.0819 0.7604
O2 O -0.34839(18) 0.03441(7) 0.72822(8)
H2 H -0.4797 0.0409 0.7102
C1 C -0.3728(2) 0.12986(9) 0.86038(11)
H3 H -0.2825 0.1663 0.8288
H4 H -0.5244 0.1379 0.8320
C2 C -0.3025(2) 0.04747(9) 0.83653(11)
C3 C -0.0548(3) 0.03627(10) 0.86094(12)
H5 H -0.0174 0.0358 0.9344
H6 H -0.0160 -0.0134 0.8354
O3 O -0.0658(3) 0.24268(9) 1.18585(11)
C4 C -0.4060(3) 0.00507(9) 1.00915(12)
H7 H -0.2552 -0.0003 1.0402
H8 H -0.4954 -0.0313 1.0414
C5 C -0.2200(3) 0.19788(9) 1.02346(12)
C6 C -0.3490(2) 0.14344(9) 0.97393(11)
C7 C -0.4204(3) -0.01231(9) 0.89490(12)
H9 H -0.3565 -0.0623 0.8857
H10 H -0.5737 -0.0144 0.8665
C8 C -0.1139(3) 0.26263(9) 0.96957(13)
H11 H -0.1590 0.2558 0.8964
C9 C -0.4865(3) 0.08711(9) 1.02598(12)
H12 H -0.6356 0.0903 0.9899
C10 C -0.5045(3) 0.10867(9) 1.13727(12)
H13 H -0.5939 0.1553 1.1362
C11 C -0.1799(3) 0.19520(10) 1.13678(13)
C12 C -0.2774(3) 0.12887(11) 1.19016(12)
H14 H -0.2879 0.1426 1.2605
H15 H -0.1819 0.0845 1.1899
C13 C -0.2043(4) 0.34042(11) 0.9983(2)
H16 H -0.3618 0.3394 0.9870
H17 H -0.1505 0.3798 0.9570
H18 H -0.1572 0.3508 1.0689
C14 C -0.6215(3) 0.04711(11) 1.19333(14)
H19 H -0.7610 0.0356 1.1552
H20 H -0.6437 0.0656 1.2597
H21 H -0.5331 0.0015 1.2002
C15 C 0.1369(3) 0.26250(12) 0.98424(18)
H22 H 0.1888 0.2703 1.0550
H23 H 0.1901 0.3030 0.9446
H24 H 0.1895 0.2141 0.9624
O4 O -1.19939(18) -0.43934(6) 1.37215(8)
H25 H -1.1698 -0.4793 1.4037
O5 O -0.78901(19) -0.34739(7) 1.39024(9)
H26 H -0.7690 -0.3855 1.3562
O6 O -0.9318(2) -0.06072(7) 1.50440(11)
C16 C -1.1558(2) -0.37448(8) 1.44026(11)
C17 C -1.2728(3) -0.38499(9) 1.53495(12)
H27 H -1.2027 -0.4263 1.5760
H28 H -1.4240 -0.3998 1.5140
C18 C -1.0093(3) -0.15635(9) 1.32860(12)
H29 H -1.0551 -0.1994 1.2833
C19 C -1.2251(2) -0.23423(8) 1.44516(11)
C20 C -1.2461(2) -0.30432(8) 1.37794(11)
H30 H -1.1643 -0.2969 1.3203
H31 H -1.3990 -0.3127 1.3521
C21 C -1.1014(3) -0.17174(9) 1.42889(12)
C22 C -1.3555(3) -0.24270(9) 1.53477(12)
H32 H -1.5057 -0.2557 1.5059
C23 C -1.0534(3) -0.11597(9) 1.51304(13)
C24 C -1.2698(3) -0.31209(9) 1.60005(12)
H33 H -1.1209 -0.3020 1.6309
H34 H -1.3607 -0.3197 1.6543
C25 C -0.9076(2) -0.36812(9) 1.47137(12)
H35 H -0.8804 -0.3302 1.5251
H36 H -0.8531 -0.4170 1.4988
C26 C -0.7597(3) -0.15186(12) 1.33543(15)
H37 H -0.7080 -0.1088 1.3768
H38 H -0.7173 -0.1458 1.2683
H39 H -0.6965 -0.1982 1.3655
C27 C -1.3716(3) -0.16724(9) 1.59288(13)
H40 H -1.4656 -0.1326 1.5483
C28 C -1.1453(3) -0.13022(9) 1.61186(13)
H41 H -1.1560 -0.0820 1.6475
H42 H -1.0468 -0.1636 1.6547
C29 C -1.4773(3) -0.17660(11) 1.69099(14)
H43 H -1.6092 -0.2064 1.6774
H44 H -1.5123 -0.1270 1.7161
H45 H -1.3768 -0.2023 1.7412
C30 C -1.1160(4) -0.08434(13) 1.27830(17)
H46 H -1.2727 -0.0882 1.2755
H47 H -1.0768 -0.0797 1.2104
H48 H -1.0654 -0.0400 1.3174
loop_
_geom_bond_atom_site_label_1
_geom_bond_atom_site_label_2
_geom_bond_site_symmetry_1
_geom_bond_site_symmetry_2
O1 H1 1_555 1_555
O2 H2 1_555 1_555
C1 H3 1_555 1_555
H4 C1 1_555 1_555
C2 O2 1_555 1_555
C3 O1 1_555 1_555
H5 C3 1_555 1_555
H6 C3 1_555 1_555
O3 C11 1_555 1_555
C4 H7 1_555 1_555
H8 C4 1_555 1_555
C5 C6 1_555 1_555
C6 C1 1_555 1_555
C7 C2 1_555 1_555
H9 C7 1_555 1_555
H10 C7 1_555 1_555
C8 C5 1_555 1_555
H11 C8 1_555 1_555
C9 C4 1_555 1_555
H12 C9 1_555 1_555
C10 C9 1_555 1_555
H13 C10 1_555 1_555
C11 C5 1_555 1_555
C12 C10 1_555 1_555
H14 C12 1_555 1_555
H15 C12 1_555 1_555
C13 C8 1_555 1_555
H16 C13 1_555 1_555
H17 C13 1_555 1_555
H18 C13 1_555 1_555
C14 C10 1_555 1_555
H19 C14 1_555 1_555
H20 C14 1_555 1_555
H21 C14 1_555 1_555
C15 C8 1_555 1_555
H22 C15 1_555 1_555
H23 C15 1_555 1_555
H24 C15 1_555 1_555
O4 H25 1_555 1_555
O5 H26 1_555 1_555
O6 C23 1_555 1_555
C16 O4 1_555 1_555
C17 C16 1_555 1_555
H27 C17 1_555 1_555
H28 C17 1_555 1_555
C18 H29 1_555 1_555
C19 C20 1_555 1_555
C20 C16 1_555 1_555
H30 C20 1_555 1_555
H31 C20 1_555 1_555
C21 C18 1_555 1_555
C22 C19 1_555 1_555
H32 C22 1_555 1_555
C23 C21 1_555 1_555
C24 C17 1_555 1_555
H33 C24 1_555 1_555
H34 C24 1_555 1_555
C25 O5 1_555 1_555
H35 C25 1_555 1_555
H36 C25 1_555 1_555
C26 C18 1_555 1_555
H37 C26 1_555 1_555
H38 C26 1_555 1_555
H39 C26 1_555 1_555
C27 C22 1_555 1_555
H40 C27 1_555 1_555
C28 C23 1_555 1_555
H41 C28 1_555 1_555
H42 C28 1_555 1_555
C29 C27 1_555 1_555
H43 C29 1_555 1_555
H44 C29 1_555 1_555
H45 C29 1_555 1_555
C30 C18 1_555 1_555
H46 C30 1_555 1_555
H47 C30 1_555 1_555
H48 C30 1_555 1_555
C1 C2 1_555 1_555
C2 C3 1_555 1_555
C4 C7 1_555 1_555
C6 C9 1_555 1_555
C11 C12 1_555 1_555
C16 C25 1_555 1_555
C19 C21 1_555 1_555
C22 C24 1_555 1_555
C27 C28 1_555 1_555

#END
