
#######################################################################
#
#                 Cambridge Crystallographic Data Centre
#                                CCDC 
#
#######################################################################
#
# If this CIF has been generated from an entry in the Cambridge 
# Structural Database, then it will include bibliographic, chemical, 
# crystal, experimental, refinement or atomic coordinate data resulting 
# from the CCDC's data processing and validation procedures.
#
#######################################################################

data_AGODEH
_chemical_formula_moiety         'C17 H17 N1 O5'
_chemical_name_systematic        
'3-Ethyl 4-methyl 1-benzyl-6-oxo-1,6-dihydropyridine-3,4-dicarboxylate'
_symmetry_cell_setting           triclinic
_symmetry_space_group_name_H-M   'P -1'
_symmetry_Int_Tables_number      2
_space_group_name_Hall           '-P 1'
loop_
_symmetry_equiv_pos_site_id
_symmetry_equiv_pos_as_xyz
1 x,y,z
2 -x,-y,-z
_cell_length_a                   7.9151(13)
_cell_length_b                   10.1402(17)
_cell_length_c                   10.6377(17)
_cell_angle_alpha                71.748(10)
_cell_angle_beta                 82.952(9)
_cell_angle_gamma                75.932(10)
_cell_volume                     785.509
_exptl_crystal_colour            colorless
_exptl_crystal_description       block
_cell_formula_units_Z            2
loop_
_atom_site_label
_atom_site_type_symbol
_atom_site_fract_x
_atom_site_fract_y
_atom_site_fract_z
N1 N 0.2734(2) 0.39006(16) 0.34948(14)
C1 C 0.2529(2) 0.36392(18) 0.48274(17)
H1 H 0.3381 0.3775 0.5274
C2 C 0.1125(2) 0.31861(18) 0.55302(17)
C3 C 0.0010(3) 0.3265(2) 0.34953(19)
H2 H -0.0854 0.3141 0.3051
C4 C 0.4277(3) 0.4372(2) 0.27760(19)
H3 H 0.4841 0.4710 0.3337
H4 H 0.3919 0.5163 0.1997
C5 C -0.0184(2) 0.29951(19) 0.48277(19)
O1 O 0.1758(2) 0.3975(2) 0.15465(14)
C6 C -0.1751(3) 0.2471(2) 0.5534(2)
O2 O -0.0440(2) 0.28093(19) 0.75962(14)
C7 C 0.0892(3) 0.2984(2) 0.69658(18)
O3 O -0.32023(19) 0.32031(18) 0.55025(17)
C8 C 0.1491(3) 0.3734(2) 0.27463(19)
C9 C 0.5568(2) 0.3215(2) 0.23527(18)
O4 O -0.1335(2) 0.10877(16) 0.61313(17)
O5 O 0.2315(2) 0.3012(2) 0.74800(14)
C10 C 0.6539(3) 0.3539(3) 0.1170(2)
H5 H 0.6360 0.4471 0.0621
C11 C 0.5880(3) 0.1821(2) 0.3153(2)
H6 H 0.5244 0.1581 0.3955
C12 C 0.7774(3) 0.2488(3) 0.0796(2)
H7 H 0.8411 0.2718 -0.0007
C13 C 0.2222(4) 0.2868(4) 0.8895(2)
H8 H 0.1922 0.3802 0.9029
H9 H 0.1325 0.2357 0.9344
C14 C -0.2693(5) 0.0453(4) 0.6941(4)
H10 H -0.2247 -0.0548 0.7321
H11 H -0.3650 0.0594 0.6406
H12 H -0.3087 0.0888 0.7637
C15 C 0.8066(4) 0.1124(4) 0.1593(3)
H13 H 0.8903 0.0423 0.1338
C16 C 0.7124(4) 0.0783(3) 0.2774(3)
H14 H 0.7323 -0.0151 0.3321
C17 C 0.3875(5) 0.2111(4) 0.9426(3)
H15 H 0.3827 0.2026 1.0354
H16 H 0.4757 0.2618 0.8973
H17 H 0.4151 0.1180 0.9310
loop_
_geom_bond_atom_site_label_1
_geom_bond_atom_site_label_2
_geom_bond_site_symmetry_1
_geom_bond_site_symmetry_2
N1 C1 1_555 1_555
C1 H1 1_555 1_555
C2 C1 1_555 1_555
C3 H2 1_555 1_555
C4 N1 1_555 1_555
H3 C4 1_555 1_555
H4 C4 1_555 1_555
C5 C2 1_555 1_555
O1 C8 1_555 1_555
C6 C5 1_555 1_555
O2 C7 1_555 1_555
C7 C2 1_555 1_555
O3 C6 1_555 1_555
C8 N1 1_555 1_555
C9 C4 1_555 1_555
O4 C6 1_555 1_555
O5 C7 1_555 1_555
C10 C9 1_555 1_555
H5 C10 1_555 1_555
C11 C9 1_555 1_555
H6 C11 1_555 1_555
C12 C10 1_555 1_555
H7 C12 1_555 1_555
C13 O5 1_555 1_555
H8 C13 1_555 1_555
H9 C13 1_555 1_555
C14 O4 1_555 1_555
H10 C14 1_555 1_555
H11 C14 1_555 1_555
H12 C14 1_555 1_555
C15 C12 1_555 1_555
H13 C15 1_555 1_555
C16 C11 1_555 1_555
H14 C16 1_555 1_555
C17 C13 1_555 1_555
H15 C17 1_555 1_555
H16 C17 1_555 1_555
H17 C17 1_555 1_555
C3 C5 1_555 1_555
C3 C8 1_555 1_555
C15 C16 1_555 1_555

#END
