
#######################################################################
#
#                 Cambridge Crystallographic Data Centre
#                                CCDC 
#
#######################################################################
#
# If this CIF has been generated from an entry in the Cambridge 
# Structural Database, then it will include bibliographic, chemical, 
# crystal, experimental, refinement or atomic coordinate data resulting 
# from the CCDC's data processing and validation procedures.
#
#######################################################################

data_AGOLIR
_chemical_formula_moiety         'C16 H15 N1 O3'
_chemical_name_systematic        
1-Acetyl-1,2-dihydro-2-oxotrispiro(indole-3,2'-oxetane-3',1'';4',1'''-dicyclopropane)
_symmetry_cell_setting           monoclinic
_symmetry_space_group_name_H-M   'P 21/c'
_symmetry_Int_Tables_number      14
_space_group_name_Hall           '-P 2ybc'
loop_
_symmetry_equiv_pos_site_id
_symmetry_equiv_pos_as_xyz
1 x,y,z
2 -x,1/2+y,1/2-z
3 -x,-y,-z
4 x,1/2-y,1/2+z
_cell_length_a                   10.45840(10)
_cell_length_b                   9.2661(2)
_cell_length_c                   13.7923(3)
_cell_angle_alpha                90
_cell_angle_beta                 90.3290(10)
_cell_angle_gamma                90
_cell_volume                     1336.57
_exptl_crystal_colour            colorless
_exptl_crystal_description       block
_chemical_melting_point          410.0K
_cell_formula_units_Z            4
_exptl_crystal_recrystallization_method 'acetone-petroleum ether'
loop_
_atom_site_label
_atom_site_type_symbol
_atom_site_fract_x
_atom_site_fract_y
_atom_site_fract_z
O1 O 0.42348(16) 0.40961(16) 0.61325(15)
O2 O 0.73563(16) 0.13267(19) 0.60286(15)
O3 O 0.24733(14) 0.23422(17) 0.73731(12)
N1 N 0.52489(16) 0.18522(18) 0.61536(12)
C1 C 0.4204(2) 0.2797(2) 0.62129(17)
C2 C 0.3012(2) 0.1902(2) 0.64355(16)
C3 C 0.3496(2) 0.0397(2) 0.64152(16)
C4 C 0.2826(2) -0.0881(2) 0.65425(18)
H1 H 0.1947 -0.0880 0.6642
C5 C 0.3517(3) -0.2167(2) 0.65154(19)
H2 H 0.3093 -0.3043 0.6585
C6 C 0.4815(3) -0.2156(2) 0.63883(18)
H3 H 0.5256 -0.3027 0.6379
C7 C 0.5485(2) -0.0882(2) 0.62727(17)
H4 H 0.6368 -0.0885 0.6195
C8 C 0.4805(2) 0.0394(2) 0.62758(14)
C9 C 0.1767(2) 0.2367(2) 0.59336(18)
C10 C 0.1349(2) 0.2905(2) 0.69025(18)
C11 C 0.0797(3) 0.4301(3) 0.7173(2)
H5 H 0.1183 0.4818 0.7712
H6 H 0.0457 0.4907 0.6659
C12 C 0.0099(3) 0.2883(3) 0.7393(2)
H7 H 0.0074 0.2558 0.8061
H8 H -0.0651 0.2647 0.7008
C13 C 0.1573(3) 0.2996(3) 0.49436(19)
H9 H 0.2301 0.3016 0.4511
H10 H 0.0994 0.3808 0.4879
C14 C 0.1011(3) 0.1553(3) 0.5191(2)
H11 H 0.0093 0.1495 0.5275
H12 H 0.1400 0.0703 0.4906
C15 C 0.6532(2) 0.2242(3) 0.60118(17)
C16 C 0.6844(3) 0.3794(3) 0.5834(2)
H13 H 0.7748 0.3895 0.5736
H14 H 0.6591 0.4358 0.6384
H15 H 0.6394 0.4124 0.5268
loop_
_geom_bond_atom_site_label_1
_geom_bond_atom_site_label_2
_geom_bond_site_symmetry_1
_geom_bond_site_symmetry_2
O1 C1 1_555 1_555
O2 C15 1_555 1_555
O3 C2 1_555 1_555
N1 C1 1_555 1_555
C1 C2 1_555 1_555
C2 C3 1_555 1_555
C3 C4 1_555 1_555
C4 H1 1_555 1_555
C5 C4 1_555 1_555
H2 C5 1_555 1_555
C6 C5 1_555 1_555
H3 C6 1_555 1_555
C7 C6 1_555 1_555
H4 C7 1_555 1_555
C8 N1 1_555 1_555
C9 C2 1_555 1_555
C10 O3 1_555 1_555
C11 C10 1_555 1_555
H5 C11 1_555 1_555
H6 C11 1_555 1_555
C12 C10 1_555 1_555
H7 C12 1_555 1_555
H8 C12 1_555 1_555
C13 C9 1_555 1_555
H9 C13 1_555 1_555
H10 C13 1_555 1_555
C14 C9 1_555 1_555
H11 C14 1_555 1_555
H12 C14 1_555 1_555
C15 N1 1_555 1_555
C16 C15 1_555 1_555
H13 C16 1_555 1_555
H14 C16 1_555 1_555
H15 C16 1_555 1_555
C3 C8 1_555 1_555
C7 C8 1_555 1_555
C9 C10 1_555 1_555
C11 C12 1_555 1_555
C13 C14 1_555 1_555

#END
