
#######################################################################
#
#                 Cambridge Crystallographic Data Centre
#                                CCDC 
#
#######################################################################
#
# If this CIF has been generated from an entry in the Cambridge 
# Structural Database, then it will include bibliographic, chemical, 
# crystal, experimental, refinement or atomic coordinate data resulting 
# from the CCDC's data processing and validation procedures.
#
#######################################################################

data_AGOLUD
_chemical_formula_moiety         'C28 H19 N1 O4'
_chemical_name_systematic        
2-Benzoyl-3-(1,2-dioxo-2-phenylethyl)-3-phenyl-2-(pyridin-2-yl)oxirane
_symmetry_cell_setting           monoclinic
_symmetry_space_group_name_H-M   'P 21/c'
_symmetry_Int_Tables_number      14
_space_group_name_Hall           '-P 2ybc'
loop_
_symmetry_equiv_pos_site_id
_symmetry_equiv_pos_as_xyz
1 x,y,z
2 x,1/2-y,1/2+z
3 -x,-y,-z
4 -x,1/2+y,1/2-z
_cell_length_a                   13.1513(4)
_cell_length_b                   9.7358(3)
_cell_length_c                   16.9960(5)
_cell_angle_alpha                90
_cell_angle_beta                 95.8590(10)
_cell_angle_gamma                90
_cell_volume                     2164.77
_exptl_crystal_colour            colorless
_exptl_crystal_description       slab
_chemical_melting_point          416.0K
_cell_formula_units_Z            4
_exptl_crystal_recrystallization_method 'petroleum ether-ethyl acetate'
loop_
_atom_site_label
_atom_site_type_symbol
_atom_site_fract_x
_atom_site_fract_y
_atom_site_fract_z
O1 O 0.83526(14) 0.90749(16) 0.20400(11)
O2 O 0.92115(12) 0.66777(17) 0.33075(9)
O3 O 0.67590(11) 0.71080(14) 0.22032(8)
O4 O 0.49983(11) 0.61336(17) 0.27233(10)
N1 N 0.81182(13) 0.49306(18) 0.19663(10)
C1 C 0.9665(2) 0.8357(3) 0.09045(15)
H1 H 0.9237 0.9109 0.0797
C2 C 1.0363(2) 0.7997(3) 0.03841(17)
H2 H 1.0387 0.8487 -0.0083
C3 C 1.1024(2) 0.6912(3) 0.05578(16)
H3 H 1.1501 0.6685 0.0211
C4 C 1.09795(19) 0.6166(3) 0.12394(14)
H4 H 1.1428 0.5438 0.1355
C5 C 1.02657(17) 0.6497(2) 0.17546(13)
H5 H 1.0230 0.5983 0.2212
C6 C 0.96051(16) 0.7591(2) 0.15902(12)
C7 C 0.88147(17) 0.7990(2) 0.21090(13)
C8 C 0.85547(17) 0.7092(2) 0.28065(12)
C9 C 0.74207(15) 0.7085(2) 0.29277(11)
C10 C 0.71388(16) 0.7979(2) 0.35897(12)
C11 C 0.76665(17) 0.7884(2) 0.43381(12)
H6 H 0.8193 0.7249 0.4434
C12 C 0.7411(2) 0.8733(2) 0.49448(14)
H7 H 0.7761 0.8652 0.5447
C13 C 0.6650(2) 0.9688(3) 0.48098(15)
H8 H 0.6489 1.0260 0.5218
C14 C 0.6119(2) 0.9804(3) 0.40648(16)
H9 H 0.5600 1.0450 0.3974
C15 C 0.63636(18) 0.8950(2) 0.34505(14)
H10 H 0.6010 0.9029 0.2950
C16 C 0.67753(15) 0.5858(2) 0.26576(12)
C17 C 0.72551(15) 0.4641(2) 0.22897(11)
C18 C 0.85871(17) 0.3884(2) 0.16420(13)
H11 H 0.9178 0.4070 0.1403
C19 C 0.82440(17) 0.2545(2) 0.16420(13)
H12 H 0.8609 0.1845 0.1427
C20 C 0.73523(18) 0.2268(2) 0.19662(13)
H13 H 0.7098 0.1377 0.1968
C21 C 0.68369(17) 0.3330(2) 0.22905(12)
H14 H 0.6224 0.3171 0.2504
C22 C 0.57872(15) 0.5610(2) 0.30276(12)
C23 C 0.57974(16) 0.4714(2) 0.37314(12)
C24 C 0.66999(18) 0.4470(2) 0.42211(13)
H15 H 0.7316 0.4828 0.4090
C25 C 0.6673(2) 0.3698(3) 0.48981(14)
H16 H 0.7271 0.3555 0.5230
C26 C 0.5767(2) 0.3136(3) 0.50886(15)
H17 H 0.5755 0.2625 0.5550
C27 C 0.4878(2) 0.3332(3) 0.45943(16)
H18 H 0.4272 0.2924 0.4712
C28 C 0.48887(19) 0.4135(2) 0.39230(14)
H19 H 0.4286 0.4288 0.3599
loop_
_geom_bond_atom_site_label_1
_geom_bond_atom_site_label_2
_geom_bond_site_symmetry_1
_geom_bond_site_symmetry_2
O1 C7 1_555 1_555
O2 C8 1_555 1_555
O3 C9 1_555 1_555
O4 C22 1_555 1_555
N1 C17 1_555 1_555
C1 H1 1_555 1_555
C2 C1 1_555 1_555
H2 C2 1_555 1_555
C3 C2 1_555 1_555
H3 C3 1_555 1_555
C4 C3 1_555 1_555
H4 C4 1_555 1_555
C5 C4 1_555 1_555
H5 C5 1_555 1_555
C6 C1 1_555 1_555
C7 C6 1_555 1_555
C8 C7 1_555 1_555
C9 C8 1_555 1_555
C10 C9 1_555 1_555
C11 C10 1_555 1_555
H6 C11 1_555 1_555
C12 C11 1_555 1_555
H7 C12 1_555 1_555
C13 C12 1_555 1_555
H8 C13 1_555 1_555
C14 C13 1_555 1_555
H9 C14 1_555 1_555
C15 C10 1_555 1_555
H10 C15 1_555 1_555
C16 O3 1_555 1_555
C17 C16 1_555 1_555
C18 N1 1_555 1_555
H11 C18 1_555 1_555
C19 C18 1_555 1_555
H12 C19 1_555 1_555
C20 C19 1_555 1_555
H13 C20 1_555 1_555
C21 C17 1_555 1_555
H14 C21 1_555 1_555
C22 C16 1_555 1_555
C23 C22 1_555 1_555
C24 C23 1_555 1_555
H15 C24 1_555 1_555
C25 C24 1_555 1_555
H16 C25 1_555 1_555
C26 C25 1_555 1_555
H17 C26 1_555 1_555
C27 C26 1_555 1_555
H18 C27 1_555 1_555
C28 C23 1_555 1_555
H19 C28 1_555 1_555
C5 C6 1_555 1_555
C9 C16 1_555 1_555
C14 C15 1_555 1_555
C20 C21 1_555 1_555
C27 C28 1_555 1_555

#END
