
#######################################################################
#
#                 Cambridge Crystallographic Data Centre
#                                CCDC 
#
#######################################################################
#
# If this CIF has been generated from an entry in the Cambridge 
# Structural Database, then it will include bibliographic, chemical, 
# crystal, experimental, refinement or atomic coordinate data resulting 
# from the CCDC's data processing and validation procedures.
#
#######################################################################

data_AGOMOA01
_chemical_name_common            4-Hydroxy-3-methylbenzophenone
_chemical_formula_moiety         'C14 H12 O2'
_chemical_name_systematic        (4-hydroxy-3-methylphenyl)(phenyl)methanone
_symmetry_cell_setting           orthorhombic
_symmetry_space_group_name_H-M   'P b c a'
_symmetry_Int_Tables_number      61
_space_group_name_Hall           '-P 2ac 2ab'
loop_
_symmetry_equiv_pos_site_id
_symmetry_equiv_pos_as_xyz
1 x,y,z
2 1/2+x,1/2-y,-z
3 -x,1/2+y,1/2-z
4 1/2-x,-y,1/2+z
5 -x,-y,-z
6 1/2-x,1/2+y,z
7 x,1/2-y,1/2+z
8 1/2+x,y,1/2-z
_cell_length_a                   7.5565(3)
_cell_length_b                   16.3552(4)
_cell_length_c                   17.6239(6)
_cell_angle_alpha                90
_cell_angle_beta                 90
_cell_angle_gamma                90
_cell_volume                     2178.1
_exptl_crystal_colour            colorless
_exptl_crystal_description       Tabular
_cell_formula_units_Z            8
loop_
_atom_site_label
_atom_site_type_symbol
_atom_site_fract_x
_atom_site_fract_y
_atom_site_fract_z
C1 C 0.25319(18) 0.47776(8) -0.06131(7)
C2 C 0.35854(19) 0.54582(9) -0.07701(9)
H1 H 0.4034 0.5781 -0.0365
C3 C 0.3978(2) 0.56650(10) -0.15113(10)
H2 H 0.4729 0.6117 -0.1616
C4 C 0.3274(2) 0.52100(10) -0.21018(9)
H3 H 0.3525 0.5359 -0.2611
C5 C 0.2204(2) 0.45376(10) -0.19555(8)
H4 H 0.1716 0.4232 -0.2363
C6 C 0.18499(19) 0.43150(9) -0.12126(8)
H5 H 0.1143 0.3848 -0.1110
C7 C 0.20658(17) 0.45973(8) 0.01889(8)
C8 C 0.18760(17) 0.37425(7) 0.04499(7)
C9 C 0.28109(17) 0.31026(8) 0.01136(7)
H6 H 0.3504 0.3203 -0.0326
C10 C 0.27361(17) 0.23231(8) 0.04151(7)
H7 H 0.3398 0.1893 0.0191
C11 C 0.16867(17) 0.21711(8) 0.10490(7)
C12 C 0.07021(17) 0.28002(8) 0.13938(7)
C13 C 0.08322(17) 0.35772(7) 0.10901(7)
H8 H 0.0196 0.4012 0.1322
C14 C -0.04548(19) 0.26141(8) 0.20696(8)
H9 H -0.1117 0.3106 0.2213
H10 H 0.0286 0.2440 0.2496
H11 H -0.1286 0.2176 0.1939
O1 O 0.18560(12) 0.51647(5) 0.06434(5)
O2 O 0.15270(14) 0.14162(5) 0.13602(5)
H12 H 0.2083 0.1076 0.1095
loop_
_geom_bond_atom_site_label_1
_geom_bond_atom_site_label_2
_geom_bond_site_symmetry_1
_geom_bond_site_symmetry_2
C1 C2 1_555 1_555
C2 H1 1_555 1_555
C3 C2 1_555 1_555
H2 C3 1_555 1_555
C4 C3 1_555 1_555
H3 C4 1_555 1_555
C5 C4 1_555 1_555
H4 C5 1_555 1_555
C6 C1 1_555 1_555
H5 C6 1_555 1_555
C7 C1 1_555 1_555
C8 C7 1_555 1_555
C9 C8 1_555 1_555
H6 C9 1_555 1_555
C10 C9 1_555 1_555
H7 C10 1_555 1_555
C11 C10 1_555 1_555
C12 C11 1_555 1_555
C13 C8 1_555 1_555
H8 C13 1_555 1_555
C14 C12 1_555 1_555
H9 C14 1_555 1_555
H10 C14 1_555 1_555
H11 C14 1_555 1_555
O1 C7 1_555 1_555
O2 C11 1_555 1_555
H12 O2 1_555 1_555
C5 C6 1_555 1_555
C12 C13 1_555 1_555

#END
