
#######################################################################
#
#                 Cambridge Crystallographic Data Centre
#                                CCDC 
#
#######################################################################
#
# If this CIF has been generated from an entry in the Cambridge 
# Structural Database, then it will include bibliographic, chemical, 
# crystal, experimental, refinement or atomic coordinate data resulting 
# from the CCDC's data processing and validation procedures.
#
#######################################################################

data_AGONOC
_chemical_formula_moiety         'C15 H18 N2 O4'
_chemical_name_systematic        
'ethyl 2-[methyl(methylcarbamoyl)carbamoyl]-3-phenylprop-2-enoate'
_symmetry_cell_setting           monoclinic
_symmetry_space_group_name_H-M   'C 2/c'
_symmetry_Int_Tables_number      15
_space_group_name_Hall           '-C 2yn'
loop_
_symmetry_equiv_pos_site_id
_symmetry_equiv_pos_as_xyz
1 x,y,z
2 -x,y,1/2-z
3 1/2+x,1/2+y,z
4 1/2-x,1/2+y,1/2-z
5 -x,-y,-z
6 x,-y,1/2+z
7 1/2-x,1/2-y,-z
8 1/2+x,1/2-y,1/2+z
_cell_length_a                   12.3362(9)
_cell_length_b                   13.5401(9)
_cell_length_c                   18.9711(14)
_cell_angle_alpha                90
_cell_angle_beta                 107.665(7)
_cell_angle_gamma                90
_cell_volume                     3019.39
_exptl_crystal_colour            colorless
_exptl_crystal_description       'rectangular prism'
_cell_formula_units_Z            8
loop_
_atom_site_label
_atom_site_type_symbol
_atom_site_fract_x
_atom_site_fract_y
_atom_site_fract_z
O1 O 0.65692(12) 0.73717(12) 0.54181(8)
O2 O 0.43079(17) 0.54372(14) 0.61434(9)
O3 O 0.41139(17) 0.59998(13) 0.50096(9)
N1 N 0.48942(14) 0.82309(12) 0.51151(9)
O4 O 0.42451(16) 0.93133(16) 0.41578(11)
N2 N 0.59786(18) 0.86439(15) 0.43275(11)
H1 H 0.65195(18) 0.83039(15) 0.46194(11)
C1 C 0.56437(16) 0.75285(14) 0.54992(10)
C2 C 0.52795(16) 0.68828(14) 0.60330(10)
C3 C 0.64357(17) 0.77025(15) 0.72176(10)
C4 C 0.57150(17) 0.69355(15) 0.67700(11)
H2 H 0.55340(17) 0.64131(15) 0.70321(11)
C5 C 0.44998(17) 0.60658(14) 0.56672(11)
C6 C 0.50196(19) 0.87755(15) 0.44952(11)
C7 C 0.6399(2) 0.86871(16) 0.69997(12)
H3 H 0.5913(2) 0.88754(16) 0.65410(12)
C8 C 0.7167(2) 0.74470(18) 0.79131(11)
H4 H 0.7194(2) 0.67967(18) 0.80750(11)
C9 C 0.38349(19) 0.84293(18) 0.52839(14)
H5 H 0.3208(3) 0.8154(15) 0.4903(7)
H6 H 0.3869(8) 0.8135(14) 0.5750(6)
H7 H 0.3732(10) 0.91298(19) 0.5310(12)
C10 C 0.7852(2) 0.8149(2) 0.83630(13)
H8 H 0.8345(2) 0.7967(2) 0.88210(13)
C11 C 0.7076(2) 0.93888(18) 0.74575(14)
H9 H 0.7038(2) 1.00450(18) 0.73070(14)
C12 C 0.7808(2) 0.9118(2) 0.81359(14)
H10 H 0.8270(2) 0.9589(2) 0.84396(14)
C13 C 0.3555(2) 0.4600(2) 0.58626(15)
H11 H 0.2775(2) 0.4775(2) 0.58170(15)
H12 H 0.3597(2) 0.4405(2) 0.53793(15)
C14 C 0.3936(2) 0.3784(2) 0.63945(19)
H13 H 0.3397(12) 0.3252(8) 0.6264(9)
H14 H 0.4667(11) 0.3554(13) 0.6383(11)
H15 H 0.399(2) 0.4014(6) 0.6883(3)
C15 C 0.6130(3) 0.9063(2) 0.36615(18)
H16 H 0.5614(19) 0.8752(16) 0.32363(19)
H17 H 0.598(2) 0.9759(5) 0.3647(8)
H18 H 0.6898(8) 0.896(2) 0.3659(8)
loop_
_geom_bond_atom_site_label_1
_geom_bond_atom_site_label_2
_geom_bond_site_symmetry_1
_geom_bond_site_symmetry_2
O1 C1 1_555 1_555
O2 C5 1_555 1_555
O3 C5 1_555 1_555
N1 C1 1_555 1_555
O4 C6 1_555 1_555
N2 H1 1_555 1_555
C1 C2 1_555 1_555
C2 C4 1_555 1_555
C3 C4 1_555 1_555
C4 H2 1_555 1_555
C5 C2 1_555 1_555
C6 N1 1_555 1_555
C7 C3 1_555 1_555
H3 C7 1_555 1_555
C8 C3 1_555 1_555
H4 C8 1_555 1_555
C9 N1 1_555 1_555
H5 C9 1_555 1_555
H6 C9 1_555 1_555
H7 C9 1_555 1_555
C10 C8 1_555 1_555
H8 C10 1_555 1_555
C11 C7 1_555 1_555
H9 C11 1_555 1_555
C12 C10 1_555 1_555
H10 C12 1_555 1_555
C13 O2 1_555 1_555
H11 C13 1_555 1_555
H12 C13 1_555 1_555
C14 C13 1_555 1_555
H13 C14 1_555 1_555
H14 C14 1_555 1_555
H15 C14 1_555 1_555
C15 N2 1_555 1_555
H16 C15 1_555 1_555
H17 C15 1_555 1_555
H18 C15 1_555 1_555
N2 C6 1_555 1_555
C11 C12 1_555 1_555

#END
