
#######################################################################
#
#                 Cambridge Crystallographic Data Centre
#                                CCDC 
#
#######################################################################
#
# If this CIF has been generated from an entry in the Cambridge 
# Structural Database, then it will include bibliographic, chemical, 
# crystal, experimental, refinement or atomic coordinate data resulting 
# from the CCDC's data processing and validation procedures.
#
#######################################################################

data_AGONUI
_chemical_formula_moiety         'C17 H22 N2 O4'
_chemical_name_systematic        
'ethyl 1,3-diethyl-2,4-dioxo-6-phenylhexahydropyrimidine-5-carboxylate'
_symmetry_cell_setting           monoclinic
_symmetry_space_group_name_H-M   'P 21/c'
_symmetry_Int_Tables_number      14
_space_group_name_Hall           '-P 2ybc'
loop_
_symmetry_equiv_pos_site_id
_symmetry_equiv_pos_as_xyz
1 x,y,z
2 -x,1/2+y,1/2-z
3 -x,-y,-z
4 x,1/2-y,1/2+z
_cell_length_a                   8.6966(7)
_cell_length_b                   9.7010(7)
_cell_length_c                   20.643(16)
_cell_angle_alpha                90
_cell_angle_beta                 96.83(2)
_cell_angle_gamma                90
_cell_volume                     1729.2
_exptl_crystal_colour            colorless
_exptl_crystal_description       'rectangular prism'
_cell_formula_units_Z            4
loop_
_atom_site_label
_atom_site_type_symbol
_atom_site_fract_x
_atom_site_fract_y
_atom_site_fract_z
O1 O 0.1705(3) 0.3100(2) 0.54015(10)
N1 N 0.3893(2) 0.4128(2) 0.58838(11)
N2 N 0.1480(2) 0.4534(2) 0.62532(11)
O2 O 0.6095(2) 0.4879(2) 0.64663(14)
O3 O 0.4058(3) 0.2792(2) 0.73066(12)
C1 C 0.2148(3) 0.5601(2) 0.66927(12)
O4 O 0.3181(5) 0.4328(3) 0.79613(13)
C2 C 0.2085(3) 0.7028(2) 0.63806(12)
C3 C 0.2288(3) 0.3879(2) 0.58249(12)
C4 C 0.3780(3) 0.5154(2) 0.69626(12)
C5 C 0.4713(3) 0.4733(2) 0.64190(14)
C6 C 0.1554(4) 0.7241(3) 0.57250(14)
C7 C 0.3712(4) 0.3937(3) 0.74221(14)
C8 C 0.2494(3) 0.8163(3) 0.67749(16)
C9 C 0.4768(4) 0.3456(3) 0.53938(17)
C10 C -0.0186(3) 0.4249(3) 0.62298(17)
C11 C 0.1442(4) 0.8547(4) 0.54635(18)
C12 C 0.2383(4) 0.9476(3) 0.6508(2)
C13 C 0.5240(4) 0.2008(3) 0.5596(2)
C14 C 0.1858(4) 0.9658(3) 0.5846(2)
C15 C -0.0505(5) 0.3055(5) 0.6637(3)
C16 C 0.3107(11) 0.3224(6) 0.8426(3)
C17 C 0.2149(10) 0.3763(7) 0.8953(3)
H1 H 0.2840(3) 0.8042(3) 0.72151(16)
H2 H 0.2658(4) 1.0238(3) 0.6770(2)
H3 H 0.1794(4) 1.0540(3) 0.5668(2)
H4 H 0.1082(4) 0.8670(4) 0.50248(18)
H5 H 0.1269(4) 0.6487(3) 0.54591(14)
H6 H 0.1534(3) 0.5639(2) 0.70607(12)
H7 H 0.4303(3) 0.5924(2) 0.72043(12)
H8 H 0.4130(4) 0.3431(3) 0.49754(17)
H9 H 0.5686(4) 0.3994(3) 0.53431(17)
H10 H -0.0700(3) 0.5056(3) 0.63787(17)
H11 H -0.0612(3) 0.4072(3) 0.57816(17)
H12 H 0.578(3) 0.1595(12) 0.5266(8)
H13 H 0.590(3) 0.2034(4) 0.6002(8)
H14 H 0.4333(5) 0.1475(10) 0.5648(15)
H15 H 0.009(4) 0.2278(12) 0.6524(14)
H16 H -0.023(4) 0.3279(15) 0.7089(3)
H17 H -0.1587(9) 0.283(3) 0.6563(15)
H18 H 0.116(3) 0.408(7) 0.8750(5)
H19 H 0.200(7) 0.303(2) 0.925(2)
H20 H 0.269(4) 0.451(5) 0.918(2)
H21 H 0.2617(11) 0.2418(6) 0.8213(3)
H22 H 0.4140(11) 0.2972(6) 0.8620(3)
loop_
_geom_bond_atom_site_label_1
_geom_bond_atom_site_label_2
_geom_bond_site_symmetry_1
_geom_bond_site_symmetry_2
O1 C3 1_555 1_555
N1 C3 1_555 1_555
N2 C1 1_555 1_555
O2 C5 1_555 1_555
O3 C7 1_555 1_555
C1 C2 1_555 1_555
O4 C7 1_555 1_555
C2 C6 1_555 1_555
C3 N2 1_555 1_555
C4 C1 1_555 1_555
C5 N1 1_555 1_555
C6 C11 1_555 1_555
C7 C4 1_555 1_555
C8 C2 1_555 1_555
C9 N1 1_555 1_555
C10 N2 1_555 1_555
C11 C14 1_555 1_555
C12 C8 1_555 1_555
C13 C9 1_555 1_555
C14 C12 1_555 1_555
C15 C10 1_555 1_555
C16 O4 1_555 1_555
C17 C16 1_555 1_555
H1 C8 1_555 1_555
H2 C12 1_555 1_555
H3 C14 1_555 1_555
H4 C11 1_555 1_555
H5 C6 1_555 1_555
H6 C1 1_555 1_555
H7 C4 1_555 1_555
H8 C9 1_555 1_555
H9 C9 1_555 1_555
H10 C10 1_555 1_555
H11 C10 1_555 1_555
H12 C13 1_555 1_555
H13 C13 1_555 1_555
H14 C13 1_555 1_555
H15 C15 1_555 1_555
H16 C15 1_555 1_555
H17 C15 1_555 1_555
H18 C17 1_555 1_555
H19 C17 1_555 1_555
H20 C17 1_555 1_555
H21 C16 1_555 1_555
H22 C16 1_555 1_555
C4 C5 1_555 1_555

#END
