
#######################################################################
#
#                 Cambridge Crystallographic Data Centre
#                                CCDC 
#
#######################################################################
#
# If this CIF has been generated from an entry in the Cambridge 
# Structural Database, then it will include bibliographic, chemical, 
# crystal, experimental, refinement or atomic coordinate data resulting 
# from the CCDC's data processing and validation procedures.
#
#######################################################################

data_AGOPAQ
_chemical_formula_moiety         'C15 H18 N2 O3 S1'
_chemical_name_systematic        
'ethyl 1,3-dimethyl-2-oxo-4-phenyl-6-sulfanylidenehexahydropyrimidine-5-carboxylate'
_symmetry_cell_setting           monoclinic
_symmetry_space_group_name_H-M   'P 21/n'
_symmetry_Int_Tables_number      14
_space_group_name_Hall           '-P 2yn'
loop_
_symmetry_equiv_pos_site_id
_symmetry_equiv_pos_as_xyz
1 x,y,z
2 1/2-x,1/2+y,1/2-z
3 -x,-y,-z
4 1/2+x,1/2-y,1/2+z
_cell_length_a                   9.6204(8)
_cell_length_b                   15.632(1)
_cell_length_c                   10.9177(9)
_cell_angle_alpha                90
_cell_angle_beta                 108.797(9)
_cell_angle_gamma                90
_cell_volume                     1554.3
_exptl_crystal_colour            'light yellow'
_exptl_crystal_description       hexagonal
_cell_formula_units_Z            4
loop_
_atom_site_label
_atom_site_type_symbol
_atom_site_fract_x
_atom_site_fract_y
_atom_site_fract_z
S1 S 0.68709(9) 0.48040(4) 0.76302(7)
O1 O 0.86127(18) 0.46670(10) 0.52481(16)
O2 O 0.72876(18) 0.54286(11) 0.35399(15)
O3 O 1.04197(15) 0.70607(10) 0.75304(17)
N1 N 0.83423(16) 0.70048(10) 0.58147(16)
N2 N 0.87032(18) 0.60555(10) 0.75611(16)
C1 C 0.68461(19) 0.66846(11) 0.52635(18)
H1 H 0.65222(19) 0.67815(11) 0.43268(18)
C2 C 0.57534(19) 0.71097(11) 0.58150(19)
C3 C 0.7738(2) 0.52119(12) 0.47767(19)
C4 C 0.6907(2) 0.57219(11) 0.55098(19)
H2 H 0.5893(2) 0.55118(11) 0.52287(19)
C5 C 0.9229(2) 0.67417(12) 0.6970(2)
C6 C 0.6166(2) 0.76798(13) 0.6835(2)
H3 H 0.7149(2) 0.78306(13) 0.7197(2)
C7 C 0.7541(2) 0.55536(12) 0.6933(2)
C8 C 0.4277(2) 0.69017(14) 0.5287(2)
H4 H 0.3977(2) 0.65287(14) 0.4587(2)
C9 C 0.8769(3) 0.77675(14) 0.5243(2)
H5 H 0.8063(10) 0.7871(6) 0.4407(7)
H6 H 0.8804(18) 0.8252(2) 0.5793(8)
H7 H 0.9720(8) 0.7680(4) 0.5155(15)
C10 C 0.5131(3) 0.80298(15) 0.7326(2)
H8 H 0.5420(3) 0.84184(15) 0.8006(2)
C11 C 0.3250(2) 0.72405(16) 0.5786(3)
H9 H 0.2268(2) 0.70882(16) 0.5430(3)
C12 C 0.3675(3) 0.78030(15) 0.6807(3)
H10 H 0.2983(3) 0.80294(15) 0.7146(3)
C13 C 0.7823(3) 0.49200(17) 0.2670(2)
H11 H 0.8767(3) 0.51339(17) 0.2664(2)
H12 H 0.7940(3) 0.43278(17) 0.2950(2)
C14 C 0.9503(3) 0.59063(17) 0.8933(2)
H13 H 1.0323(12) 0.6291(8) 0.9213(5)
H14 H 0.8860(6) 0.6003(12) 0.9433(3)
H15 H 0.9851(18) 0.5327(4) 0.9051(3)
C15 C 0.6736(3) 0.4987(2) 0.1371(3)
H16 H 0.7098(12) 0.4698(13) 0.0759(5)
H17 H 0.5832(9) 0.4727(13) 0.1371(6)
H18 H 0.6568(18) 0.5578(2) 0.1135(9)
loop_
_geom_bond_atom_site_label_1
_geom_bond_atom_site_label_2
_geom_bond_site_symmetry_1
_geom_bond_site_symmetry_2
S1 C7 1_555 1_555
O1 C3 1_555 1_555
O2 C3 1_555 1_555
O3 C5 1_555 1_555
N1 C1 1_555 1_555
N2 C5 1_555 1_555
C1 H1 1_555 1_555
C2 C1 1_555 1_555
C3 C4 1_555 1_555
C4 C1 1_555 1_555
H2 C4 1_555 1_555
C5 N1 1_555 1_555
C6 C2 1_555 1_555
H3 C6 1_555 1_555
C7 N2 1_555 1_555
C8 C2 1_555 1_555
H4 C8 1_555 1_555
C9 N1 1_555 1_555
H5 C9 1_555 1_555
H6 C9 1_555 1_555
H7 C9 1_555 1_555
C10 C6 1_555 1_555
H8 C10 1_555 1_555
C11 C8 1_555 1_555
H9 C11 1_555 1_555
C12 C10 1_555 1_555
H10 C12 1_555 1_555
C13 O2 1_555 1_555
H11 C13 1_555 1_555
H12 C13 1_555 1_555
C14 N2 1_555 1_555
H13 C14 1_555 1_555
H14 C14 1_555 1_555
H15 C14 1_555 1_555
C15 C13 1_555 1_555
H16 C15 1_555 1_555
H17 C15 1_555 1_555
H18 C15 1_555 1_555
C4 C7 1_555 1_555
C11 C12 1_555 1_555

#END
