
#######################################################################
#
#                 Cambridge Crystallographic Data Centre
#                                CCDC 
#
#######################################################################
#
# If this CIF has been generated from an entry in the Cambridge 
# Structural Database, then it will include bibliographic, chemical, 
# crystal, experimental, refinement or atomic coordinate data resulting 
# from the CCDC's data processing and validation procedures.
#
#######################################################################

data_AGOQIY
_chemical_formula_moiety         'C21 H18 N2 O3'
_chemical_name_systematic        
3-(4-Hydroxyphenyl)-1,5-bis(pyridin-2-yl)pentane-1,5-dione
_symmetry_cell_setting           triclinic
_symmetry_space_group_name_H-M   'P -1'
_symmetry_Int_Tables_number      2
_space_group_name_Hall           '-P 1'
loop_
_symmetry_equiv_pos_site_id
_symmetry_equiv_pos_as_xyz
1 x,y,z
2 -x,-y,-z
_cell_length_a                   8.4392(6)
_cell_length_b                   10.6683(7)
_cell_length_c                   11.0755(8)
_cell_angle_alpha                100.623(6)
_cell_angle_beta                 103.867(6)
_cell_angle_gamma                110.550(6)
_cell_volume                     866.05
_exptl_crystal_colour            colorless
_exptl_crystal_description       Prism
_cell_formula_units_Z            2
loop_
_atom_site_label
_atom_site_type_symbol
_atom_site_fract_x
_atom_site_fract_y
_atom_site_fract_z
O1 O 0.71359(19) 0.30614(12) 0.46604(11)
O2 O 0.91770(19) 0.78344(12) 0.42074(12)
O3 O 0.08708(17) 0.40522(14) 0.08964(13)
H1 H 0.044(3) 0.351(3) 0.003(2)
N1 N 0.6613(2) 0.06026(14) 0.18572(13)
N2 N 1.06938(19) 0.81798(14) 0.15318(13)
C1 C 0.6711(2) 0.10690(15) 0.30835(14)
C2 C 0.6203(3) 0.01932(17) 0.38203(17)
H2 H 0.632(2) 0.0607(19) 0.4701(18)
C3 C 0.5570(3) -0.12308(18) 0.32835(19)
H3 H 0.524(3) -0.184(2) 0.3782(19)
C4 C 0.5449(3) -0.17259(19) 0.20295(19)
H4 H 0.501(3) -0.273(2) 0.159(2)
C5 C 0.5963(4) -0.07886(19) 0.1355(2)
H5 H 0.586(3) -0.110(2) 0.044(2)
C6 C 0.7379(2) 0.26254(15) 0.36597(14)
C7 C 0.8359(2) 0.35918(16) 0.29975(17)
H6 H 0.966(3) 0.3793(18) 0.3406(17)
H7 H 0.798(2) 0.3108(17) 0.2046(16)
C8 C 0.8128(2) 0.49738(14) 0.32322(14)
H8 H 0.847(2) 0.5387(15) 0.4188(15)
C9 C 0.9371(2) 0.60196(15) 0.27268(16)
H9 H 1.059(2) 0.6076(17) 0.2993(15)
H10 H 0.897(2) 0.5730(17) 0.1737(17)
C10 C 0.9588(2) 0.74944(15) 0.32631(15)
C11 C 1.0436(2) 0.85928(15) 0.26587(15)
C12 C 1.0940(3) 0.99903(18) 0.3296(2)
H11 H 1.072(3) 1.023(2) 0.410(2)
C13 C 1.1764(3) 1.0996(2) 0.2766(2)
H12 H 1.215(3) 1.200(3) 0.322(2)
C14 C 1.2058(3) 1.0592(2) 0.1633(2)
H13 H 1.263(3) 1.123(3) 0.122(2)
C15 C 1.1504(3) 0.9187(2) 0.1043(2)
H14 H 1.167(3) 0.886(2) 0.0226(19)
C16 C 0.6193(2) 0.47157(13) 0.26132(13)
C17 C 0.5210(2) 0.51095(15) 0.33320(15)
H15 H 0.582(2) 0.5549(16) 0.4262(16)
C18 C 0.3451(2) 0.48794(16) 0.27609(15)
H16 H 0.281(2) 0.5150(18) 0.3262(16)
C19 C 0.2610(2) 0.42459(15) 0.14348(15)
C20 C 0.3557(2) 0.38460(16) 0.06964(15)
H17 H 0.297(2) 0.3412(18) -0.0231(17)
C21 C 0.5317(2) 0.40803(15) 0.12846(14)
H18 H 0.598(2) 0.3788(17) 0.0732(16)
loop_
_geom_bond_atom_site_label_1
_geom_bond_atom_site_label_2
_geom_bond_site_symmetry_1
_geom_bond_site_symmetry_2
O1 C6 1_555 1_555
O2 C10 1_555 1_555
O3 H1 1_555 1_555
N1 C1 1_555 1_555
N2 C11 1_555 1_555
C1 C2 1_555 1_555
C2 H2 1_555 1_555
C3 C2 1_555 1_555
H3 C3 1_555 1_555
C4 C3 1_555 1_555
H4 C4 1_555 1_555
C5 N1 1_555 1_555
H5 C5 1_555 1_555
C6 C1 1_555 1_555
C7 C6 1_555 1_555
H6 C7 1_555 1_555
H7 C7 1_555 1_555
C8 C7 1_555 1_555
H8 C8 1_555 1_555
C9 C8 1_555 1_555
H9 C9 1_555 1_555
H10 C9 1_555 1_555
C10 C9 1_555 1_555
C11 C10 1_555 1_555
C12 C11 1_555 1_555
H11 C12 1_555 1_555
C13 C12 1_555 1_555
H12 C13 1_555 1_555
C14 C13 1_555 1_555
H13 C14 1_555 1_555
C15 N2 1_555 1_555
H14 C15 1_555 1_555
C16 C8 1_555 1_555
C17 C16 1_555 1_555
H15 C17 1_555 1_555
C18 C17 1_555 1_555
H16 C18 1_555 1_555
C19 O3 1_555 1_555
C20 C19 1_555 1_555
H17 C20 1_555 1_555
C21 C16 1_555 1_555
H18 C21 1_555 1_555
C4 C5 1_555 1_555
C14 C15 1_555 1_555
C18 C19 1_555 1_555
C20 C21 1_555 1_555

#END
