
#######################################################################
#
#                 Cambridge Crystallographic Data Centre
#                                CCDC 
#
#######################################################################
#
# If this CIF has been generated from an entry in the Cambridge 
# Structural Database, then it will include bibliographic, chemical, 
# crystal, experimental, refinement or atomic coordinate data resulting 
# from the CCDC's data processing and validation procedures.
#
#######################################################################

data_AGOQOF
_chemical_formula_moiety         'C52 H42 N2 O4 S2,0.33(C6 H14),1.67(C1 H1 Cl3)'
_chemical_name_systematic        
"2,10-bis[2,6-di-isopropylphenyl]isoquinolino[4',5',6':6,5,10]thieno[2',3':3,4]anthra[2,1,9-def]thieno[3,2-h]isoquinoline-1,3,9,11(2H,10H)-tetrone chloroform n-hexane solvate"
_symmetry_cell_setting           monoclinic
_symmetry_space_group_name_H-M   'P 21/n'
_symmetry_Int_Tables_number      14
_space_group_name_Hall           '-P 2yn'
loop_
_symmetry_equiv_pos_site_id
_symmetry_equiv_pos_as_xyz
1 x,y,z
2 1/2-x,1/2+y,1/2-z
3 -x,-y,-z
4 1/2+x,1/2-y,1/2+z
_cell_length_a                   24.4681(2)
_cell_length_b                   14.1689(2)
_cell_length_c                   47.1669(5)
_cell_angle_alpha                90
_cell_angle_beta                 102.4260(10)
_cell_angle_gamma                90
_cell_volume                     15969.1
_exptl_crystal_colour            black
_exptl_crystal_description       block
_cell_formula_units_Z            12
loop_
_atom_site_label
_atom_site_type_symbol
_atom_site_fract_x
_atom_site_fract_y
_atom_site_fract_z
C1 C 0.77664(15) 0.4979(3) 0.92493(8)
C2 C 0.75616(18) 0.4146(3) 0.93432(9)
C3 C 0.72217(19) 0.4223(4) 0.95411(10)
H1 H 0.707874 0.366605 0.961052
C4 C 0.70843(18) 0.5088(4) 0.96406(10)
H2 H 0.685050 0.512443 0.977705
C5 C 0.72899(19) 0.5903(4) 0.95398(10)
H3 H 0.719308 0.649823 0.960790
C6 C 0.76349(17) 0.5871(3) 0.93413(9)
C7 C 0.7697(3) 0.3188(4) 0.92329(12)
H4 H 0.798694 0.328532 0.911528
C8 C 0.7190(4) 0.2762(5) 0.90359(16)
H5 H 0.690177 0.263926 0.914673
H6 H 0.729542 0.216754 0.895558
H7 H 0.704388 0.320081 0.887715
C9 C 0.7941(3) 0.2518(5) 0.94794(14)
H8 H 0.826050 0.281894 0.960866
H9 H 0.806489 0.193722 0.939936
H10 H 0.765454 0.236507 0.958889
C10 C 0.7849(2) 0.6766(3) 0.92270(11)
H11 H 0.793479 0.661739 0.903401
C11 C 0.7418(3) 0.7559(5) 0.9182(2)
H12 H 0.707949 0.735323 0.904435
H13 H 0.757321 0.811619 0.910468
H14 H 0.732353 0.771764 0.936798
C12 C 0.8384(2) 0.7106(4) 0.94248(13)
H15 H 0.830766 0.728979 0.961274
H16 H 0.852945 0.765108 0.933631
H17 H 0.866200 0.659741 0.945321
C13 C 0.78407(16) 0.4917(3) 0.87444(9)
C14 C 0.81836(15) 0.4752(3) 0.85295(9)
C15 C 0.79305(16) 0.4647(3) 0.82396(9)
C16 C 0.73259(19) 0.4370(5) 0.77600(10)
H18 H 0.702824 0.426673 0.759683
C17 C 0.78677(18) 0.4313(4) 0.77443(10)
H19 H 0.798949 0.417044 0.757099
C18 C 0.82448(17) 0.4492(3) 0.80210(9)
C19 C 0.88348(16) 0.4524(3) 0.80982(8)
C20 C 0.91909(16) 0.4559(3) 0.78842(9)
C21 C 0.89904(17) 0.4777(3) 0.75924(9)
H20 H 0.860949 0.495663 0.752922
C22 C 0.93294(16) 0.4741(3) 0.73898(9)
H21 H 0.917736 0.489191 0.719236
C23 C 0.98850(16) 0.4487(3) 0.74751(9)
C24 C 1.02368(17) 0.4431(3) 0.72560(9)
C25 C 1.10473(16) 0.4003(3) 0.76483(9)
C26 C 1.06824(16) 0.4035(3) 0.78608(9)
C27 C 1.08940(16) 0.3787(3) 0.81445(9)
H22 H 1.126599 0.355552 0.820056
C28 C 1.05675(17) 0.3873(3) 0.83498(9)
H23 H 1.071735 0.368308 0.854409
C29 C 1.00243(15) 0.4232(3) 0.82778(9)
C30 C 0.96958(16) 0.4473(3) 0.84936(8)
C31 C 0.99465(16) 0.4623(3) 0.87879(9)
C32 C 1.05250(17) 0.4751(3) 0.89289(9)
H24 H 1.082111 0.477017 0.882770
C33 C 1.06024(18) 0.4839(4) 0.92169(10)
H25 H 1.096127 0.492400 0.933971
C34 C 0.96030(16) 0.4678(3) 0.89967(8)
C35 C 0.90263(15) 0.4689(3) 0.89138(8)
C36 C 0.86888(16) 0.4760(3) 0.91350(9)
C37 C 0.87736(15) 0.4664(3) 0.86143(8)
C38 C 0.91023(15) 0.4548(3) 0.84007(8)
C39 C 0.97739(15) 0.4362(3) 0.79774(8)
C40 C 1.01158(16) 0.4293(3) 0.77706(8)
C41 C 1.11623(16) 0.4162(3) 0.71500(9)
C42 C 1.12382(17) 0.3287(3) 0.70260(9)
C43 C 1.15790(18) 0.3268(4) 0.68232(9)
H26 H 1.164442 0.268530 0.673651
C44 C 1.18221(19) 0.4083(4) 0.67467(9)
H27 H 1.204106 0.406145 0.660316
C45 C 1.17474(19) 0.4921(4) 0.68781(10)
H28 H 1.192165 0.547511 0.682607
C46 C 1.14213(18) 0.4981(3) 0.70864(10)
C47 C 1.0979(2) 0.2393(3) 0.71102(11)
H29 H 1.074691 0.256985 0.725254
C48 C 1.0587(3) 0.1953(5) 0.68472(15)
H30 H 1.031228 0.242430 0.675505
H31 H 1.039233 0.141404 0.691018
H32 H 1.080531 0.173995 0.670776
C49 C 1.1420(3) 0.1702(5) 0.72601(15)
H33 H 1.164215 0.148664 0.712264
H34 H 1.123758 0.115915 0.732934
H35 H 1.166557 0.201303 0.742521
C50 C 1.1371(2) 0.5909(4) 0.72384(12)
H36 H 1.114085 0.579133 0.738624
C51 C 1.1067(4) 0.6657(5) 0.70284(18)
H37 H 1.128893 0.680468 0.688415
H38 H 1.101780 0.722957 0.713666
H39 H 1.070004 0.641515 0.692987
C52 C 1.1946(3) 0.6254(5) 0.74005(15)
H40 H 1.213741 0.574509 0.752392
H41 H 1.189998 0.679820 0.752131
H42 H 1.216894 0.643823 0.726003
N1 N 0.81168(13) 0.4912(2) 0.90374(7)
N2 N 1.08030(14) 0.4203(3) 0.73596(7)
O1 O 0.73396(12) 0.5054(3) 0.86780(7)
O2 O 0.88929(12) 0.4704(2) 0.93954(6)
O3 O 1.00571(13) 0.4578(3) 0.69983(6)
O4 O 1.15459(12) 0.3817(3) 0.77197(7)
S1 S 0.72136(4) 0.46444(11) 0.80996(3)
S2 S 0.99972(4) 0.47845(9) 0.93467(2)
C53 C 0.55528(16) 0.4488(3) 0.73946(9)
C54 C 0.57476(17) 0.3641(3) 0.73098(9)
C55 C 0.60899(18) 0.3686(4) 0.71088(10)
H43 H 0.623143 0.311782 0.704532
C56 C 0.62260(18) 0.4528(4) 0.70011(10)
H44 H 0.645264 0.453905 0.686094
C57 C 0.60362(19) 0.5355(4) 0.70950(9)
H45 H 0.614019 0.593654 0.702110
C58 C 0.56942(17) 0.5367(3) 0.72964(9)
C59 C 0.5614(2) 0.2699(3) 0.74307(11)
H46 H 0.534627 0.281817 0.755972
C60 C 0.6139(3) 0.2269(4) 0.76160(13)
H47 H 0.640445 0.212053 0.749367
H48 H 0.604142 0.168919 0.770712
H49 H 0.630998 0.271913 0.776684
C61 C 0.5329(2) 0.2030(4) 0.71905(13)
H50 H 0.500871 0.235003 0.706726
H51 H 0.519871 0.146740 0.727703
H52 H 0.559580 0.184463 0.707274
C62 C 0.5489(2) 0.6287(4) 0.74026(11)
H53 H 0.545282 0.618215 0.760738
C63 C 0.5906(3) 0.7101(5) 0.74067(18)
H54 H 0.627905 0.690058 0.750985
H55 H 0.578633 0.764659 0.750575
H56 H 0.591748 0.727489 0.720696
C64 C 0.4918(2) 0.6560(4) 0.72294(14)
H57 H 0.494748 0.674868 0.703337
H58 H 0.477228 0.708817 0.732500
H59 H 0.466387 0.601985 0.721744
C65 C 0.54851(17) 0.4567(3) 0.78984(9)
C66 C 0.51386(16) 0.4567(3) 0.81181(9)
C67 C 0.53892(16) 0.4767(3) 0.84055(9)
C68 C 0.59685(18) 0.5207(4) 0.88784(10)
H60 H 0.625451 0.539133 0.903875
C69 C 0.54297(18) 0.5100(4) 0.88961(10)
H61 H 0.529938 0.520246 0.906936
C70 C 0.50694(16) 0.4815(3) 0.86245(9)
C71 C 0.44918(15) 0.4605(3) 0.85544(8)
C72 C 0.41496(16) 0.4516(3) 0.87719(8)
C73 C 0.43754(17) 0.4375(3) 0.90676(9)
H62 H 0.476659 0.427350 0.913004
C74 C 0.40436(17) 0.4379(3) 0.92726(9)
H63 H 0.421080 0.428481 0.947177
C75 C 0.34720(16) 0.4520(3) 0.91892(9)
C76 C 0.31285(17) 0.4570(3) 0.94108(9)
C77 C 0.22795(16) 0.4723(3) 0.90180(9)
C78 C 0.26382(16) 0.4735(3) 0.88038(9)
C79 C 0.23993(17) 0.4881(3) 0.85140(9)
H64 H 0.201115 0.501821 0.845658
C80 C 0.27224(16) 0.4828(3) 0.83063(9)
H65 H 0.255279 0.494232 0.810840
C81 C 0.32925(16) 0.4611(3) 0.83821(9)
C82 C 0.36286(15) 0.4399(3) 0.81674(8)
C83 C 0.33869(15) 0.4155(3) 0.78783(9)
C84 C 0.28194(16) 0.3904(3) 0.77441(9)
H66 H 0.252875 0.384706 0.784800
C85 C 0.27442(17) 0.3759(3) 0.74585(10)
H67 H 0.239168 0.359525 0.734001
C86 C 0.37287(16) 0.4125(3) 0.76686(8)
C87 C 0.43041(16) 0.4287(3) 0.77440(8)
C88 C 0.46354(16) 0.4280(3) 0.75178(9)
C89 C 0.45533(15) 0.4436(3) 0.80397(8)
C90 C 0.42243(15) 0.4473(3) 0.82543(8)
C91 C 0.35566(15) 0.4584(3) 0.86811(8)
C92 C 0.32226(16) 0.4606(3) 0.88925(8)
C93 C 0.22057(16) 0.4733(3) 0.95259(8)
C94 C 0.20031(16) 0.3902(3) 0.96264(8)
C95 C 0.16811(18) 0.3998(4) 0.98342(9)
H68 H 0.154371 0.344734 0.991031
C96 C 0.15563(18) 0.4867(4) 0.99326(9)
H69 H 0.133537 0.491165 1.007481
C97 C 0.17517(19) 0.5676(4) 0.98247(9)
H70 H 0.166110 0.627532 0.989248
C98 C 0.20782(18) 0.5625(3) 0.96191(9)
C99 C 0.2126(2) 0.2936(3) 0.95191(11)
H71 H 0.229762 0.302342 0.934664
C100 C 0.2548(3) 0.2411(4) 0.97522(15)
H72 H 0.287678 0.281037 0.982013
H73 H 0.266213 0.182606 0.967022
H74 H 0.237468 0.225886 0.991564
C101 C 0.1592(3) 0.2356(5) 0.94236(14)
H75 H 0.142052 0.224974 0.959033
H76 H 0.168403 0.174738 0.934676
H77 H 0.132975 0.269881 0.927230
C102 C 0.2271(3) 0.6526(4) 0.94922(12)
H78 H 0.251693 0.633925 0.935781
C103 C 0.2600(4) 0.7168(6) 0.97175(17)
H79 H 0.235868 0.740285 0.984304
H80 H 0.274205 0.770108 0.962245
H81 H 0.291503 0.681927 0.983481
C104 C 0.1777(4) 0.7064(6) 0.93167(19)
H82 H 0.150619 0.661772 0.920678
H83 H 0.190733 0.749199 0.918195
H84 H 0.159830 0.743079 0.944790
N3 N 0.52033(13) 0.4468(3) 0.76085(7)
N4 N 0.25510(13) 0.4672(2) 0.93109(7)
O5 O 0.59873(11) 0.4666(3) 0.79600(7)
O6 O 0.44247(12) 0.4130(2) 0.72617(6)
O7 O 0.33284(12) 0.4516(3) 0.96715(6)
O8 O 0.17753(12) 0.4771(3) 0.89511(7)
S3 S 0.60934(4) 0.49766(10) 0.85376(2)
S4 S 0.33408(4) 0.38926(9) 0.73222(2)
C105 C 0.88854(17) 0.5445(3) 0.40733(9)
C106 C 0.9030(2) 0.4621(4) 0.39505(10)
C107 C 0.9364(2) 0.4705(4) 0.37475(11)
H85 H 0.946823 0.415458 0.365722
C108 C 0.9545(2) 0.5572(5) 0.36757(11)
H86 H 0.977146 0.561661 0.353593
C109 C 0.94004(19) 0.6375(4) 0.38049(11)
H87 H 0.953431 0.696865 0.375529
C110 C 0.90617(17) 0.6339(4) 0.40072(10)
C111 C 0.8838(3) 0.3656(4) 0.40339(14)
H88 H 0.849955 0.375786 0.411700
C112 C 0.9287(4) 0.3225(6) 0.42707(17)
H89 H 0.961999 0.308988 0.419351
H90 H 0.914672 0.263737 0.433856
H91 H 0.938465 0.366863 0.443309
C113 C 0.8675(3) 0.2985(5) 0.37827(16)
H92 H 0.839536 0.328451 0.362913
H93 H 0.851789 0.240948 0.384817
H94 H 0.900679 0.282479 0.370727
C114 C 0.8890(2) 0.7226(4) 0.41421(12)
H95 H 0.877067 0.702840 0.432323
C115 C 0.9360(4) 0.7916(7) 0.4232(3)
H96 H 0.967062 0.760669 0.436593
H97 H 0.922892 0.845454 0.432995
H98 H 0.948680 0.813624 0.406056
C116 C 0.8392(3) 0.7696(5) 0.39516(15)
H99 H 0.848401 0.787455 0.376675
H100 H 0.829181 0.826112 0.404887
H101 H 0.807449 0.725690 0.391508
C117 C 0.88195(17) 0.5317(3) 0.45799(9)
C118 C 0.84780(16) 0.5164(3) 0.47935(9)
C119 C 0.87311(16) 0.4983(3) 0.50801(9)
C120 C 0.93233(19) 0.4555(4) 0.55499(10)
H102 H 0.961570 0.438030 0.570850
C121 C 0.87834(17) 0.4585(4) 0.55698(9)
H103 H 0.865730 0.444460 0.574201
C122 C 0.84170(16) 0.4857(3) 0.52988(9)
C123 C 0.78284(15) 0.4982(3) 0.52254(8)
C124 C 0.74828(15) 0.5029(3) 0.54442(8)
C125 C 0.76945(16) 0.5202(3) 0.57382(9)
H104 H 0.808125 0.534230 0.580141
C126 C 0.73631(16) 0.5177(3) 0.59415(9)
H105 H 0.752498 0.529417 0.614009
C127 C 0.67943(16) 0.4980(3) 0.58570(8)
C128 C 0.64463(16) 0.4909(3) 0.60771(8)
C129 C 0.56157(16) 0.4629(3) 0.56831(8)
C130 C 0.59740(16) 0.4650(3) 0.54688(8)
C131 C 0.57501(16) 0.4456(3) 0.51820(9)
H106 H 0.537090 0.426100 0.512475
C132 C 0.60731(16) 0.4544(3) 0.49756(9)
H107 H 0.591195 0.439841 0.477873
C133 C 0.66307(15) 0.4842(3) 0.50499(8)
C134 C 0.69611(15) 0.5075(3) 0.48359(8)
C135 C 0.67118(15) 0.5288(3) 0.45455(8)
C136 C 0.61393(17) 0.5484(3) 0.44111(9)
H108 H 0.584770 0.552263 0.451497
C137 C 0.60600(18) 0.5605(4) 0.41241(9)
H109 H 0.570254 0.573285 0.400477
C138 C 0.70510(16) 0.5335(3) 0.43356(8)
C139 C 0.76324(16) 0.5262(3) 0.44156(8)
C140 C 0.79613(16) 0.5316(3) 0.41910(9)
C141 C 0.78864(16) 0.5175(3) 0.47121(8)
C142 C 0.75567(15) 0.5080(3) 0.49268(8)
C143 C 0.68882(15) 0.4905(3) 0.53497(8)
C144 C 0.65535(15) 0.4847(3) 0.55593(8)
C145 C 0.55267(16) 0.4638(3) 0.61875(8)
C146 C 0.54352(17) 0.3728(3) 0.62820(9)
C147 C 0.51041(18) 0.3647(3) 0.64850(9)
H110 H 0.503415 0.303911 0.655451
C148 C 0.48738(17) 0.4430(4) 0.65883(9)
H111 H 0.465598 0.435843 0.673114
C149 C 0.49587(17) 0.5309(3) 0.64854(9)
H112 H 0.479140 0.584072 0.655531
C150 C 0.52839(17) 0.5440(3) 0.62812(9)
C151 C 0.5663(2) 0.2861(3) 0.61627(11)
H113 H 0.592098 0.308028 0.603796
C152 C 0.6007(4) 0.2230(5) 0.64012(15)
H114 H 0.629841 0.260743 0.652566
H115 H 0.618068 0.171913 0.631163
H116 H 0.575969 0.195988 0.651842
C153 C 0.5205(3) 0.2293(5) 0.59719(16)
H117 H 0.497965 0.197954 0.609276
H118 H 0.537148 0.181705 0.586570
H119 H 0.496537 0.271411 0.583354
C154 C 0.5363(2) 0.6419(3) 0.61633(10)
H120 H 0.555280 0.634279 0.599699
C155 C 0.5742(3) 0.7023(4) 0.63935(15)
H121 H 0.555740 0.713333 0.655560
H122 H 0.581318 0.762886 0.630816
H123 H 0.609695 0.669349 0.646434
C156 C 0.4808(2) 0.6903(5) 0.60500(14)
H124 H 0.458172 0.652058 0.589512
H125 H 0.487367 0.752574 0.597321
H126 H 0.460967 0.697651 0.620833
N5 N 0.85390(14) 0.5370(3) 0.42859(7)
N6 N 0.58769(13) 0.4736(2) 0.59746(7)
O9 O 0.93269(12) 0.5381(3) 0.46443(7)
O10 O 0.77502(12) 0.5326(2) 0.39308(6)
O11 O 0.66396(12) 0.4996(2) 0.63359(6)
O12 O 0.51125(12) 0.4515(3) 0.56129(6)
S5 S 0.94441(4) 0.48554(11) 0.52154(3)
S6 S 0.66565(4) 0.55132(9) 0.39873(2)
C157 C 1.1317(3) 0.7250(4) 0.82431(13)
H127 H 1.110990 0.781146 0.814540
Cl1 Cl 1.10067(12) 0.6878(3) 0.85186(6)
Cl2 Cl 1.20074(12) 0.7542(2) 0.83671(8)
Cl3 Cl 1.12620(12) 0.63400(18) 0.79989(5)
C158 C 0.7436(7) 0.6236(12) 0.6812(5)
H128 H 0.714946 0.582118 0.668835
Cl4 Cl 0.7256(3) 0.7319(4) 0.6747(2)
Cl5 Cl 0.75422(14) 0.5852(4) 0.71708(6)
Cl6 Cl 0.81212(14) 0.6055(4) 0.67053(7)
C160 C 0.4187(3) 0.3547(6) 1.01620(16)
H130 H 0.381975 0.371105 1.003263
Cl10 Cl 0.4534(3) 0.2845(3) 0.99793(7)
Cl11 Cl 0.40590(9) 0.2991(2) 1.04711(6)
Cl12 Cl 0.45530(12) 0.4586(2) 1.02654(6)
C161 C 0.5371(2) 0.7922(5) 0.51399(12)
H131 H 0.562272 0.843265 0.523943
Cl13 Cl 0.57034(10) 0.7328(2) 0.48990(5)
Cl14 Cl 0.47584(13) 0.8422(3) 0.49457(6)
Cl15 Cl 0.52384(16) 0.7156(2) 0.53913(5)
C162 C 0.6990(2) 0.3633(5) 0.34566(12)
H132 H 0.729269 0.405889 0.356177
Cl16 Cl 0.64652(12) 0.4316(2) 0.32551(5)
Cl17 Cl 0.72746(9) 0.28824(16) 0.32295(5)
Cl18 Cl 0.67447(15) 0.29651(19) 0.37084(5)
C163 C 1.0940(5) 0.2402(9) 0.4793(3)
H133 H 1.124784 0.285465 0.481066
H134 H 1.106234 0.186005 0.492026
H135 H 1.062034 0.270575 0.485016
C164 C 1.0780(4) 0.2097(8) 0.4487(2)
H136 H 1.038833 0.186973 0.445293
H137 H 1.101490 0.154515 0.446443
C165 C 1.0816(5) 0.2801(9) 0.4238(2)
H138 H 1.121224 0.300139 0.427190
H139 H 1.060042 0.336488 0.427235
C166 C 1.0634(4) 0.2590(7) 0.3902(2)
H140 H 1.083938 0.202786 0.385680
H141 H 1.022956 0.243776 0.385438
C167 C 1.0740(5) 0.3394(10) 0.3715(3)
H142 H 1.114212 0.356571 0.375946
H143 H 1.051882 0.395483 0.374610
C168 C 1.0550(5) 0.3015(10) 0.3388(3)
H144 H 1.040318 0.354181 0.325904
H145 H 1.025754 0.253599 0.337837
H146 H 1.087205 0.273683 0.332629
C159? C 0.7551(17) 0.602(3) 0.6807(10)
H129? H 0.719383 0.573797 0.669718
Cl7? Cl 0.7319(4) 0.6737(9) 0.7123(2)
Cl8? Cl 0.7596(5) 0.7041(7) 0.6632(2)
Cl9? Cl 0.7903(4) 0.5265(8) 0.6874(2)
loop_
_geom_bond_atom_site_label_1
_geom_bond_atom_site_label_2
_geom_bond_site_symmetry_1
_geom_bond_site_symmetry_2
C1 C2 1_555 1_555
C2 C3 1_555 1_555
C3 H1 1_555 1_555
C4 C3 1_555 1_555
H2 C4 1_555 1_555
C5 C4 1_555 1_555
H3 C5 1_555 1_555
C6 C1 1_555 1_555
C7 C2 1_555 1_555
H4 C7 1_555 1_555
C8 C7 1_555 1_555
H5 C8 1_555 1_555
H6 C8 1_555 1_555
H7 C8 1_555 1_555
C9 C7 1_555 1_555
H8 C9 1_555 1_555
H9 C9 1_555 1_555
H10 C9 1_555 1_555
C10 C6 1_555 1_555
H11 C10 1_555 1_555
C11 C10 1_555 1_555
H12 C11 1_555 1_555
H13 C11 1_555 1_555
H14 C11 1_555 1_555
C12 C10 1_555 1_555
H15 C12 1_555 1_555
H16 C12 1_555 1_555
H17 C12 1_555 1_555
C13 C14 1_555 1_555
C14 C15 1_555 1_555
C15 C18 1_555 1_555
C16 H18 1_555 1_555
C17 C16 1_555 1_555
H19 C17 1_555 1_555
C18 C17 1_555 1_555
C19 C18 1_555 1_555
C20 C19 1_555 1_555
C21 C20 1_555 1_555
H20 C21 1_555 1_555
C22 C21 1_555 1_555
H21 C22 1_555 1_555
C23 C22 1_555 1_555
C24 C23 1_555 1_555
C25 C26 1_555 1_555
C26 C27 1_555 1_555
C27 H22 1_555 1_555
C28 C27 1_555 1_555
H23 C28 1_555 1_555
C29 C28 1_555 1_555
C30 C29 1_555 1_555
C31 C30 1_555 1_555
C32 C31 1_555 1_555
H24 C32 1_555 1_555
C33 C32 1_555 1_555
H25 C33 1_555 1_555
C34 C31 1_555 1_555
C35 C34 1_555 1_555
C36 C35 1_555 1_555
C37 C14 1_555 1_555
C38 C19 1_555 1_555
C39 C20 1_555 1_555
C40 C23 1_555 1_555
C41 C42 1_555 1_555
C42 C43 1_555 1_555
C43 H26 1_555 1_555
C44 C43 1_555 1_555
H27 C44 1_555 1_555
C45 C44 1_555 1_555
H28 C45 1_555 1_555
C46 C41 1_555 1_555
C47 C42 1_555 1_555
H29 C47 1_555 1_555
C48 C47 1_555 1_555
H30 C48 1_555 1_555
H31 C48 1_555 1_555
H32 C48 1_555 1_555
C49 C47 1_555 1_555
H33 C49 1_555 1_555
H34 C49 1_555 1_555
H35 C49 1_555 1_555
C50 C46 1_555 1_555
H36 C50 1_555 1_555
C51 C50 1_555 1_555
H37 C51 1_555 1_555
H38 C51 1_555 1_555
H39 C51 1_555 1_555
C52 C50 1_555 1_555
H40 C52 1_555 1_555
H41 C52 1_555 1_555
H42 C52 1_555 1_555
N1 C1 1_555 1_555
N2 C24 1_555 1_555
O1 C13 1_555 1_555
O2 C36 1_555 1_555
O3 C24 1_555 1_555
O4 C25 1_555 1_555
S1 C15 1_555 1_555
S2 C33 1_555 1_555
C53 C54 1_555 1_555
C54 C55 1_555 1_555
C55 H43 1_555 1_555
C56 C55 1_555 1_555
H44 C56 1_555 1_555
C57 C56 1_555 1_555
H45 C57 1_555 1_555
C58 C53 1_555 1_555
C59 C54 1_555 1_555
H46 C59 1_555 1_555
C60 C59 1_555 1_555
H47 C60 1_555 1_555
H48 C60 1_555 1_555
H49 C60 1_555 1_555
C61 C59 1_555 1_555
H50 C61 1_555 1_555
H51 C61 1_555 1_555
H52 C61 1_555 1_555
C62 C58 1_555 1_555
H53 C62 1_555 1_555
C63 C62 1_555 1_555
H54 C63 1_555 1_555
H55 C63 1_555 1_555
H56 C63 1_555 1_555
C64 C62 1_555 1_555
H57 C64 1_555 1_555
H58 C64 1_555 1_555
H59 C64 1_555 1_555
C65 C66 1_555 1_555
C66 C67 1_555 1_555
C67 C70 1_555 1_555
C68 H60 1_555 1_555
C69 C68 1_555 1_555
H61 C69 1_555 1_555
C70 C69 1_555 1_555
C71 C70 1_555 1_555
C72 C71 1_555 1_555
C73 C72 1_555 1_555
H62 C73 1_555 1_555
C74 C73 1_555 1_555
H63 C74 1_555 1_555
C75 C74 1_555 1_555
C76 C75 1_555 1_555
C77 C78 1_555 1_555
C78 C79 1_555 1_555
C79 H64 1_555 1_555
C80 C79 1_555 1_555
H65 C80 1_555 1_555
C81 C80 1_555 1_555
C82 C81 1_555 1_555
C83 C82 1_555 1_555
C84 C83 1_555 1_555
H66 C84 1_555 1_555
C85 C84 1_555 1_555
H67 C85 1_555 1_555
C86 C83 1_555 1_555
C87 C86 1_555 1_555
C88 C87 1_555 1_555
C89 C66 1_555 1_555
C90 C71 1_555 1_555
C91 C72 1_555 1_555
C92 C75 1_555 1_555
C93 C94 1_555 1_555
C94 C95 1_555 1_555
C95 H68 1_555 1_555
C96 C95 1_555 1_555
H69 C96 1_555 1_555
C97 C96 1_555 1_555
H70 C97 1_555 1_555
C98 C93 1_555 1_555
C99 C94 1_555 1_555
H71 C99 1_555 1_555
C100 C99 1_555 1_555
H72 C100 1_555 1_555
H73 C100 1_555 1_555
H74 C100 1_555 1_555
C101 C99 1_555 1_555
H75 C101 1_555 1_555
H76 C101 1_555 1_555
H77 C101 1_555 1_555
C102 C98 1_555 1_555
H78 C102 1_555 1_555
C103 C102 1_555 1_555
H79 C103 1_555 1_555
H80 C103 1_555 1_555
H81 C103 1_555 1_555
C104 C102 1_555 1_555
H82 C104 1_555 1_555
H83 C104 1_555 1_555
H84 C104 1_555 1_555
N3 C53 1_555 1_555
N4 C76 1_555 1_555
O5 C65 1_555 1_555
O6 C88 1_555 1_555
O7 C76 1_555 1_555
O8 C77 1_555 1_555
S3 C67 1_555 1_555
S4 C85 1_555 1_555
C105 C106 1_555 1_555
C106 C107 1_555 1_555
C107 H85 1_555 1_555
C108 C107 1_555 1_555
H86 C108 1_555 1_555
C109 C108 1_555 1_555
H87 C109 1_555 1_555
C110 C105 1_555 1_555
C111 C106 1_555 1_555
H88 C111 1_555 1_555
C112 C111 1_555 1_555
H89 C112 1_555 1_555
H90 C112 1_555 1_555
H91 C112 1_555 1_555
C113 C111 1_555 1_555
H92 C113 1_555 1_555
H93 C113 1_555 1_555
H94 C113 1_555 1_555
C114 C110 1_555 1_555
H95 C114 1_555 1_555
C115 C114 1_555 1_555
H96 C115 1_555 1_555
H97 C115 1_555 1_555
H98 C115 1_555 1_555
C116 C114 1_555 1_555
H99 C116 1_555 1_555
H100 C116 1_555 1_555
H101 C116 1_555 1_555
C117 C118 1_555 1_555
C118 C119 1_555 1_555
C119 C122 1_555 1_555
C120 H102 1_555 1_555
C121 C120 1_555 1_555
H103 C121 1_555 1_555
C122 C121 1_555 1_555
C123 C122 1_555 1_555
C124 C123 1_555 1_555
C125 C124 1_555 1_555
H104 C125 1_555 1_555
C126 C125 1_555 1_555
H105 C126 1_555 1_555
C127 C126 1_555 1_555
C128 C127 1_555 1_555
C129 C130 1_555 1_555
C130 C131 1_555 1_555
C131 H106 1_555 1_555
C132 C131 1_555 1_555
H107 C132 1_555 1_555
C133 C132 1_555 1_555
C134 C133 1_555 1_555
C135 C134 1_555 1_555
C136 C135 1_555 1_555
H108 C136 1_555 1_555
C137 C136 1_555 1_555
H109 C137 1_555 1_555
C138 C135 1_555 1_555
C139 C138 1_555 1_555
C140 C139 1_555 1_555
C141 C118 1_555 1_555
C142 C123 1_555 1_555
C143 C124 1_555 1_555
C144 C127 1_555 1_555
C145 C146 1_555 1_555
C146 C147 1_555 1_555
C147 H110 1_555 1_555
C148 C147 1_555 1_555
H111 C148 1_555 1_555
C149 C148 1_555 1_555
H112 C149 1_555 1_555
C150 C145 1_555 1_555
C151 C146 1_555 1_555
H113 C151 1_555 1_555
C152 C151 1_555 1_555
H114 C152 1_555 1_555
H115 C152 1_555 1_555
H116 C152 1_555 1_555
C153 C151 1_555 1_555
H117 C153 1_555 1_555
H118 C153 1_555 1_555
H119 C153 1_555 1_555
C154 C150 1_555 1_555
H120 C154 1_555 1_555
C155 C154 1_555 1_555
H121 C155 1_555 1_555
H122 C155 1_555 1_555
H123 C155 1_555 1_555
C156 C154 1_555 1_555
H124 C156 1_555 1_555
H125 C156 1_555 1_555
H126 C156 1_555 1_555
N5 C105 1_555 1_555
N6 C128 1_555 1_555
O9 C117 1_555 1_555
O10 C140 1_555 1_555
O11 C128 1_555 1_555
O12 C129 1_555 1_555
S5 C119 1_555 1_555
S6 C137 1_555 1_555
C157 H127 1_555 1_555
Cl1 C157 1_555 1_555
Cl2 C157 1_555 1_555
Cl3 C157 1_555 1_555
C158 H128 1_555 1_555
Cl4 C158 1_555 1_555
Cl5 C158 1_555 1_555
Cl6 C158 1_555 1_555
C160 H130 1_555 1_555
Cl10 C160 1_555 1_555
Cl11 C160 1_555 1_555
Cl12 C160 1_555 1_555
C161 H131 1_555 1_555
Cl13 C161 1_555 1_555
Cl14 C161 1_555 1_555
Cl15 C161 1_555 1_555
C162 H132 1_555 1_555
Cl16 C162 1_555 1_555
Cl17 C162 1_555 1_555
Cl18 C162 1_555 1_555
C163 H133 1_555 1_555
H134 C163 1_555 1_555
H135 C163 1_555 1_555
C164 C163 1_555 1_555
H136 C164 1_555 1_555
H137 C164 1_555 1_555
C165 C164 1_555 1_555
H138 C165 1_555 1_555
H139 C165 1_555 1_555
C166 C165 1_555 1_555
H140 C166 1_555 1_555
H141 C166 1_555 1_555
C167 C166 1_555 1_555
H142 C167 1_555 1_555
H143 C167 1_555 1_555
C168 C167 1_555 1_555
H144 C168 1_555 1_555
H145 C168 1_555 1_555
H146 C168 1_555 1_555
C5 C6 1_555 1_555
C13 N1 1_555 1_555
C16 S1 1_555 1_555
C25 N2 1_555 1_555
C26 C40 1_555 1_555
C29 C39 1_555 1_555
C30 C38 1_555 1_555
C34 S2 1_555 1_555
C35 C37 1_555 1_555
C36 N1 1_555 1_555
C37 C38 1_555 1_555
C39 C40 1_555 1_555
C41 N2 1_555 1_555
C45 C46 1_555 1_555
C57 C58 1_555 1_555
C65 N3 1_555 1_555
C68 S3 1_555 1_555
C77 N4 1_555 1_555
C78 C92 1_555 1_555
C81 C91 1_555 1_555
C82 C90 1_555 1_555
C86 S4 1_555 1_555
C87 C89 1_555 1_555
C88 N3 1_555 1_555
C89 C90 1_555 1_555
C91 C92 1_555 1_555
C93 N4 1_555 1_555
C97 C98 1_555 1_555
C109 C110 1_555 1_555
C117 N5 1_555 1_555
C120 S5 1_555 1_555
C129 N6 1_555 1_555
C130 C144 1_555 1_555
C133 C143 1_555 1_555
C134 C142 1_555 1_555
C138 S6 1_555 1_555
C139 C141 1_555 1_555
C140 N5 1_555 1_555
C141 C142 1_555 1_555
C143 C144 1_555 1_555
C145 N6 1_555 1_555
C149 C150 1_555 1_555

#END
