
#######################################################################
#
#                 Cambridge Crystallographic Data Centre
#                                CCDC 
#
#######################################################################
#
# If this CIF has been generated from an entry in the Cambridge 
# Structural Database, then it will include bibliographic, chemical, 
# crystal, experimental, refinement or atomic coordinate data resulting 
# from the CCDC's data processing and validation procedures.
#
#######################################################################

data_AGOTAU
_chemical_formula_moiety         'C27 H37 N3 O1'
_chemical_name_systematic        
1,3-bis(2,6-di-isopropylphenyl)-5-methyl-4-oxido-1,2,3-triazol-1-ium
_symmetry_cell_setting           monoclinic
_symmetry_space_group_name_H-M   'P 21/n'
_symmetry_Int_Tables_number      14
_space_group_name_Hall           '-P 2yn'
loop_
_symmetry_equiv_pos_site_id
_symmetry_equiv_pos_as_xyz
1 x,y,z
2 1/2-x,1/2+y,1/2-z
3 -x,-y,-z
4 1/2+x,1/2-y,1/2+z
_cell_length_a                   10.8655(13)
_cell_length_b                   19.051(2)
_cell_length_c                   11.9281(11)
_cell_angle_alpha                90
_cell_angle_beta                 93.375(4)
_cell_angle_gamma                90
_cell_volume                     2464.82
_exptl_crystal_colour            colorless
_exptl_crystal_description       block
_cell_formula_units_Z            4
loop_
_atom_site_label
_atom_site_type_symbol
_atom_site_fract_x
_atom_site_fract_y
_atom_site_fract_z
O1 O 0.37859(15) 0.75848(9) 0.79115(13)
N1 N 0.43363(15) 0.58439(9) 0.73559(14)
N2 N 0.38368(16) 0.67558(9) 0.64633(14)
N3 N 0.40633(16) 0.60674(9) 0.63155(14)
C1 C 0.39542(19) 0.69731(12) 0.75860(17)
C2 C 0.4304(2) 0.63461(12) 0.81527(17)
C3 C 0.46434(19) 0.51087(11) 0.74690(17)
C4 C 0.2273(2) 0.70461(12) 0.49979(17)
C5 C 0.3463(2) 0.71605(11) 0.54872(17)
C6 C 0.5802(2) 0.48981(12) 0.71467(17)
C7 C 0.3740(2) 0.46451(12) 0.78036(17)
C8 C 0.6753(2) 0.54155(13) 0.67582(19)
H1 H 0.646125 0.589926 0.693090
C9 C 0.4304(2) 0.76314(13) 0.50671(18)
C10 C 0.1369(2) 0.65599(13) 0.55273(19)
H2 H 0.185673 0.617291 0.590518
C11 C 0.2476(2) 0.48888(14) 0.81330(19)
H3 H 0.246413 0.541352 0.811342
C12 C 0.1951(2) 0.74182(13) 0.40200(19)
H4 H 0.116129 0.735038 0.365094
C13 C 0.6042(2) 0.41804(13) 0.7160(2)
H5 H 0.682012 0.401438 0.694901
C14 C 0.4031(2) 0.39352(13) 0.7801(2)
H6 H 0.344481 0.360128 0.802701
C15 C 0.4581(2) 0.62258(14) 0.93744(18)
H7 H 0.460219 0.572021 0.952607
H8 H 0.393944 0.644518 0.980060
H9 H 0.538290 0.643271 0.960101
C16 C 0.5169(2) 0.37089(13) 0.7473(2)
H10 H 0.534746 0.322084 0.746481
C17 C 0.2765(2) 0.78833(14) 0.3582(2)
H11 H 0.252755 0.813137 0.291273
C18 C 0.3917(2) 0.79956(14) 0.4096(2)
H12 H 0.445489 0.832613 0.378366
C19 C 0.5599(2) 0.77264(14) 0.5610(2)
H13 H 0.561845 0.748690 0.635691
C20 C 0.6859(3) 0.53656(15) 0.5494(2)
H14 H 0.606039 0.547560 0.510955
H15 H 0.710588 0.488856 0.529664
H16 H 0.747954 0.570047 0.526106
C21 C 0.8012(2) 0.53091(15) 0.7389(2)
H17 H 0.832021 0.483756 0.723375
H18 H 0.792436 0.536165 0.819731
H19 H 0.859492 0.565997 0.713728
C22 C 0.0433(2) 0.62233(15) 0.4701(2)
H20 H -0.012408 0.658460 0.437786
H21 H -0.004517 0.587272 0.509073
H22 H 0.086204 0.599516 0.409957
C23 C 0.2217(3) 0.46563(17) 0.9322(2)
H23 H 0.141005 0.483486 0.951477
H24 H 0.285714 0.484235 0.985371
H25 H 0.221647 0.414239 0.936013
C24 C 0.1469(2) 0.46229(17) 0.7292(2)
H26 H 0.163510 0.478852 0.653756
H27 H 0.066713 0.480104 0.749800
H28 H 0.145928 0.410858 0.729961
C25 C 0.0714(3) 0.69491(17) 0.6429(2)
H29 H 0.017724 0.731072 0.607939
H30 H 0.132579 0.717045 0.695278
H31 H 0.021665 0.661754 0.683854
C26 C 0.6543(3) 0.7378(2) 0.4940(4)
H32 H 0.632627 0.688208 0.482937
H33 H 0.735366 0.741219 0.534318
H34 H 0.657035 0.760933 0.420869
C27 C 0.5935(4) 0.8477(2) 0.5821(5)
H35 H 0.589082 0.873402 0.510817
H36 H 0.677608 0.850385 0.616405
H37 H 0.536005 0.868521 0.632911
loop_
_geom_bond_atom_site_label_1
_geom_bond_atom_site_label_2
_geom_bond_site_symmetry_1
_geom_bond_site_symmetry_2
O1 C1 1_555 1_555
N1 N3 1_555 1_555
N2 N3 1_555 1_555
C1 N2 1_555 1_555
C2 N1 1_555 1_555
C3 N1 1_555 1_555
C4 C5 1_555 1_555
C5 N2 1_555 1_555
C6 C3 1_555 1_555
C7 C3 1_555 1_555
C8 C6 1_555 1_555
H1 C8 1_555 1_555
C9 C5 1_555 1_555
C10 C4 1_555 1_555
H2 C10 1_555 1_555
C11 C7 1_555 1_555
H3 C11 1_555 1_555
C12 C4 1_555 1_555
H4 C12 1_555 1_555
C13 C6 1_555 1_555
H5 C13 1_555 1_555
C14 C7 1_555 1_555
H6 C14 1_555 1_555
C15 C2 1_555 1_555
H7 C15 1_555 1_555
H8 C15 1_555 1_555
H9 C15 1_555 1_555
C16 C13 1_555 1_555
H10 C16 1_555 1_555
C17 C12 1_555 1_555
H11 C17 1_555 1_555
C18 C9 1_555 1_555
H12 C18 1_555 1_555
C19 C9 1_555 1_555
H13 C19 1_555 1_555
C20 C8 1_555 1_555
H14 C20 1_555 1_555
H15 C20 1_555 1_555
H16 C20 1_555 1_555
C21 C8 1_555 1_555
H17 C21 1_555 1_555
H18 C21 1_555 1_555
H19 C21 1_555 1_555
C22 C10 1_555 1_555
H20 C22 1_555 1_555
H21 C22 1_555 1_555
H22 C22 1_555 1_555
C23 C11 1_555 1_555
H23 C23 1_555 1_555
H24 C23 1_555 1_555
H25 C23 1_555 1_555
C24 C11 1_555 1_555
H26 C24 1_555 1_555
H27 C24 1_555 1_555
H28 C24 1_555 1_555
C25 C10 1_555 1_555
H29 C25 1_555 1_555
H30 C25 1_555 1_555
H31 C25 1_555 1_555
C26 C19 1_555 1_555
H32 C26 1_555 1_555
H33 C26 1_555 1_555
H34 C26 1_555 1_555
C27 C19 1_555 1_555
H35 C27 1_555 1_555
H36 C27 1_555 1_555
H37 C27 1_555 1_555
C1 C2 1_555 1_555
C14 C16 1_555 1_555
C17 C18 1_555 1_555

#END
