
#######################################################################
#
#                 Cambridge Crystallographic Data Centre
#                                CCDC 
#
#######################################################################
#
# If this CIF has been generated from an entry in the Cambridge 
# Structural Database, then it will include bibliographic, chemical, 
# crystal, experimental, refinement or atomic coordinate data resulting 
# from the CCDC's data processing and validation procedures.
#
#######################################################################

data_AGURUP
_chemical_formula_moiety         'C26 H32'
_chemical_name_systematic        
2,7-Di-t-butyl-10b,10c-dimethyl-10b,10c-dihydropyrene
_symmetry_cell_setting           monoclinic
_symmetry_space_group_name_H-M   'C 2/c'
_symmetry_Int_Tables_number      15
_space_group_name_Hall           '-C 2yn'
loop_
_symmetry_equiv_pos_site_id
_symmetry_equiv_pos_as_xyz
1 x,y,z
2 1/2+x,1/2+y,z
3 x,-y,1/2+z
4 1/2+x,1/2-y,1/2+z
5 -x,-y,-z
6 1/2-x,1/2-y,-z
7 -x,y,1/2-z
8 1/2-x,1/2+y,1/2-z
_cell_length_a                   14.3791(11)
_cell_length_b                   11.7604(9)
_cell_length_c                   11.7230(9)
_cell_angle_alpha                90
_cell_angle_beta                 91.02(2)
_cell_angle_gamma                90
_cell_volume                     1982.09
_exptl_crystal_colour            green
_exptl_crystal_description       needle
_cell_formula_units_Z            4
loop_
_atom_site_label
_atom_site_type_symbol
_atom_site_fract_x
_atom_site_fract_y
_atom_site_fract_z
C1 C 0.05075(10) 0.48071(13) -0.00159(13)
C2 C 0.11491(11) 0.58045(13) 0.01901(13)
C3 C 0.19897(11) 0.56163(14) 0.07580(13)
H1 H 0.2433 0.6204 0.0771
C4 C 0.22098(11) 0.45923(14) 0.13130(13)
C5 C 0.15310(11) 0.37424(14) 0.13579(13)
H2 H 0.1666 0.3078 0.1775
C6 C 0.06679(11) 0.38325(13) 0.08159(13)
C7 C 0.08916(11) 0.68306(14) -0.03266(13)
H3 H 0.1312 0.7443 -0.0301
C8 C -0.00366(11) 0.30222(14) 0.08770(14)
H4 H 0.0070 0.2356 0.1303
C9 C 0.07660(11) 0.43261(14) -0.12084(13)
H5 H 0.0681 0.4914 -0.1781
H6 H 0.0368 0.3684 -0.1393
H7 H 0.1410 0.4081 -0.1192
C10 C 0.31788(11) 0.44375(14) 0.18615(13)
C11 C 0.32197(13) 0.34224(17) 0.26760(17)
H8 H 0.3084 0.2730 0.2256
H9 H 0.2764 0.3523 0.3268
H10 H 0.3837 0.3371 0.3021
C12 C 0.38725(12) 0.4250(2) 0.09037(17)
H11 H 0.3689 0.3587 0.0462
H12 H 0.4489 0.4131 0.1231
H13 H 0.3878 0.4913 0.0411
C13 C 0.34664(13) 0.54927(16) 0.25482(16)
H14 H 0.4077 0.5371 0.2893
H15 H 0.3018 0.5628 0.3142
H16 H 0.3486 0.6147 0.2045
C1D C -0.05075(10) 0.51929(13) 0.00159(13)
C2D C -0.11491(11) 0.41955(13) -0.01901(13)
C3D C -0.19897(11) 0.43837(14) -0.07580(13)
H1D H -0.2433 0.3796 -0.0771
C4D C -0.22098(11) 0.54077(14) -0.13130(13)
C5D C -0.15310(11) 0.62576(14) -0.13579(13)
H2D H -0.1666 0.6922 -0.1775
C6D C -0.06679(11) 0.61675(13) -0.08159(13)
C9D C -0.07660(11) 0.56739(14) 0.12084(13)
H5D H -0.0681 0.5086 0.1781
H6D H -0.0368 0.6316 0.1393
H7D H -0.1410 0.5919 0.1192
C8D C 0.00366(11) 0.69778(14) -0.08770(14)
C7D C -0.08916(11) 0.31694(14) 0.03266(13)
H3D H -0.1312 0.2557 0.0301
H4D H -0.0070 0.7644 -0.1303
C10D C -0.31788(11) 0.55625(14) -0.18615(13)
C11D C -0.32197(13) 0.65776(17) -0.26760(17)
H8D H -0.3084 0.7270 -0.2256
H9D H -0.2764 0.6477 -0.3268
H10D H -0.3837 0.6629 -0.3021
C12D C -0.38725(12) 0.5750(2) -0.09037(17)
H11D H -0.3689 0.6413 -0.0462
H12D H -0.4489 0.5869 -0.1231
H13D H -0.3878 0.5087 -0.0411
C13D C -0.34664(13) 0.45073(16) -0.25482(16)
H14D H -0.4077 0.4629 -0.2893
H15D H -0.3018 0.4372 -0.3142
H16D H -0.3486 0.3853 -0.2045
loop_
_geom_bond_atom_site_label_1
_geom_bond_atom_site_label_2
_geom_bond_site_symmetry_1
_geom_bond_site_symmetry_2
C1 C2 1_555 1_555
C2 C3 1_555 1_555
C3 H1 1_555 1_555
C4 C3 1_555 1_555
C5 C4 1_555 1_555
H2 C5 1_555 1_555
C6 C1 1_555 1_555
C7 C2 1_555 1_555
H3 C7 1_555 1_555
C8 C6 1_555 1_555
H4 C8 1_555 1_555
C9 C1 1_555 1_555
H5 C9 1_555 1_555
H6 C9 1_555 1_555
H7 C9 1_555 1_555
C10 C4 1_555 1_555
C11 C10 1_555 1_555
H8 C11 1_555 1_555
H9 C11 1_555 1_555
H10 C11 1_555 1_555
C12 C10 1_555 1_555
H11 C12 1_555 1_555
H12 C12 1_555 1_555
H13 C12 1_555 1_555
C13 C10 1_555 1_555
H14 C13 1_555 1_555
H15 C13 1_555 1_555
H16 C13 1_555 1_555
C1D C1 1_555 1_555
C2D C1D 1_555 1_555
C3D C2D 1_555 1_555
H1D C3D 1_555 1_555
C4D C3D 1_555 1_555
C5D C4D 1_555 1_555
H2D C5D 1_555 1_555
C6D C1D 1_555 1_555
C9D C1D 1_555 1_555
H5D C9D 1_555 1_555
H6D C9D 1_555 1_555
H7D C9D 1_555 1_555
C8D C7 1_555 1_555
C7D C8 1_555 1_555
H3D C7D 1_555 1_555
H4D C8D 1_555 1_555
C10D C4D 1_555 1_555
C11D C10D 1_555 1_555
H8D C11D 1_555 1_555
H9D C11D 1_555 1_555
H10D C11D 1_555 1_555
C12D C10D 1_555 1_555
H11D C12D 1_555 1_555
H12D C12D 1_555 1_555
H13D C12D 1_555 1_555
C13D C10D 1_555 1_555
H14D C13D 1_555 1_555
H15D C13D 1_555 1_555
H16D C13D 1_555 1_555
C5 C6 1_555 1_555
C2D C7D 1_555 1_555
C5D C6D 1_555 1_555
C6D C8D 1_555 1_555

#END
