
#######################################################################
#
#                 Cambridge Crystallographic Data Centre
#                                CCDC 
#
#######################################################################
#
# If this CIF has been generated from an entry in the Cambridge 
# Structural Database, then it will include bibliographic, chemical, 
# crystal, experimental, refinement or atomic coordinate data resulting 
# from the CCDC's data processing and validation procedures.
#
#######################################################################

data_AGUTON
_chemical_formula_moiety         '2(C8 H12 N5 O4 P1),C7 H7 N1 O2,3(H2 O1)'
_chemical_name_systematic        'bis(Adefovir) 4-aminobenzoic acid trihydrate'
_symmetry_cell_setting           monoclinic
_symmetry_space_group_name_H-M   'P 21'
_symmetry_Int_Tables_number      4
_space_group_name_Hall           'P 2yb'
loop_
_symmetry_equiv_pos_site_id
_symmetry_equiv_pos_as_xyz
1 x,y,z
2 -x,1/2+y,-z
_cell_length_a                   13.2675(5)
_cell_length_b                   7.9044(3)
_cell_length_c                   16.4202(6)
_cell_angle_alpha                90
_cell_angle_beta                 112.5540(10)
_cell_angle_gamma                90
_cell_volume                     1590.31
_cell_formula_units_Z            2
loop_
_atom_site_label
_atom_site_type_symbol
_atom_site_fract_x
_atom_site_fract_y
_atom_site_fract_z
C1 C 0.5836(3) 0.6104(4) 1.1553(2)
C2 C 0.6551(3) 0.6222(4) 1.1107(2)
C3 C 0.7859(3) 0.6111(5) 1.0678(2)
H1 H 0.8518 0.5840 1.0632
C4 C 0.6273(3) 0.7281(5) 1.0392(2)
C5 C 0.4715(3) 0.8043(6) 1.0457(2)
H2 H 0.4062 0.8641 1.0246
C6 C 0.7240(3) 0.8133(5) 0.9390(2)
H3 H 0.7983 0.8033 0.9420
H4 H 0.7092 0.9323 0.9437
C7 C 0.6468(3) 0.7470(5) 0.8520(2)
H5 H 0.5730 0.7795 0.8439
H6 H 0.6636 0.7991 0.8053
C8 C 0.7474(3) 0.5099(5) 0.8330(2)
H7 H 0.8120 0.5582 0.8780
H8 H 0.7454 0.5443 0.7757
N1 N 0.4914(2) 0.7075(4) 1.11882(18)
N2 N 0.5351(2) 0.8213(4) 1.0026(2)
N3 N 0.7138(2) 0.7210(4) 1.01290(19)
N4 N 0.7554(2) 0.5454(4) 1.12845(19)
N5 N 0.5984(2) 0.5199(4) 1.22537(18)
H9 H 0.5504 0.5211 1.2487
H10 H 0.6562 0.4589 1.2482
O1 O 0.6512(2) 0.5687(4) 0.84456(16)
O2 O 0.7807(2) 0.2452(4) 0.94263(17)
O3 O 0.64024(19) 0.2109(4) 0.79414(16)
H11 H 0.6427 0.1075 0.7986
O4 O 0.8382(2) 0.2210(4) 0.8132(2)
H12 H 0.8686 0.3020 0.8012
P1 P 0.75143(7) 0.28222(12) 0.84143(6)
C9 C 0.2439(3) 0.5292(6) 0.8228(3)
H13 H 0.2462 0.5844 0.8735
C10 C 0.1548(3) 0.4320(6) 0.7749(3)
C11 C 0.1533(3) 0.3471(5) 0.7003(3)
H14 H 0.0936 0.2803 0.6680
C12 C 0.2400(3) 0.3612(6) 0.6736(3)
H15 H 0.2380 0.3037 0.6236
C13 C 0.3295(3) 0.4601(5) 0.7206(3)
C14 C 0.3314(3) 0.5450(6) 0.7951(3)
H16 H 0.3909 0.6126 0.8269
C15 C 0.0646(3) 0.4125(6) 0.8063(3)
N6 N 0.4144(3) 0.4751(6) 0.6922(3)
H17 H 0.4117 0.4230 0.6454
H18 H 0.4702 0.5365 0.7214
O5 O 0.0664(3) 0.4714(6) 0.8750(3)
O6 O -0.0173(2) 0.3207(5) 0.7546(2)
C16 C 0.6341(3) 0.4550(5) 0.5876(2)
H19 H 0.6301 0.4222 0.6432
H20 H 0.5672 0.4199 0.5403
C17 C 0.7122(3) 0.1960(5) 0.5697(3)
H21 H 0.6446 0.1684 0.5210
H22 H 0.7095 0.1484 0.6233
C18 C 0.8082(3) 0.1238(5) 0.5532(3)
H23 H 0.8748 0.1461 0.6039
H24 H 0.7998 0.0022 0.5461
C19 C 0.7441(3) 0.2934(5) 0.4104(2)
H25 H 0.6754 0.3202 0.4094
C20 C 0.8823(3) 0.2785(5) 0.3763(2)
C21 C 0.9071(3) 0.1858(4) 0.4527(2)
C22 C 1.0716(3) 0.1201(5) 0.4614(3)
H26 H 1.1390 0.0679 0.4892
C23 C 0.9611(3) 0.2903(5) 0.3393(2)
N7 N 0.8175(2) 0.1967(4) 0.47456(18)
N8 N 0.7793(2) 0.3453(4) 0.3500(2)
N9 N 1.0564(2) 0.2071(4) 0.38615(19)
N10 N 1.0017(3) 0.1025(4) 0.4985(2)
N11 N 0.9504(2) 0.3736(4) 0.2671(2)
H27 H 1.0033 0.3760 0.2492
H28 H 0.8904 0.4256 0.2379
O7 O 0.76222(19) 0.7368(3) 0.64488(16)
O8 O 0.5562(2) 0.7591(4) 0.59910(19)
H29 H 0.5469 0.7097 0.6396
O9 O 0.6447(2) 0.7183(4) 0.48714(16)
H30 H 0.5961 0.6612 0.4516
O10 O 0.7254(2) 0.3752(3) 0.57813(18)
P2 P 0.64972(7) 0.68249(11) 0.58445(6)
O11 O 0.8799(2) 0.8895(4) 0.80062(18)
H31 H 0.8310 0.8450 0.7600
H32 H 0.8850 0.9912 0.8009
O12 O 0.50403(19) 0.0545(4) 0.64527(16)
H33 H 0.5534 0.1147 0.6756
H34 H 0.5145 -0.0436 0.6394
O13 O 0.9851(4) 0.3697(17) 0.0237(3)
H35 H 0.9774 0.2671 0.0533
H36 H 0.9622 0.4442 0.0290
loop_
_geom_bond_atom_site_label_1
_geom_bond_atom_site_label_2
_geom_bond_site_symmetry_1
_geom_bond_site_symmetry_2
C1 C2 1_555 1_555
C2 C4 1_555 1_555
C3 H1 1_555 1_555
C4 N2 1_555 1_555
C5 H2 1_555 1_555
C6 H3 1_555 1_555
H4 C6 1_555 1_555
C7 C6 1_555 1_555
H5 C7 1_555 1_555
H6 C7 1_555 1_555
C8 H7 1_555 1_555
H8 C8 1_555 1_555
N1 C1 1_555 1_555
N2 C5 1_555 1_555
N3 C3 1_555 1_555
N4 C2 1_555 1_555
N5 C1 1_555 1_555
H9 N5 1_555 1_555
H10 N5 1_555 1_555
O1 C7 1_555 1_555
O2 P1 1_555 1_555
O3 H11 1_555 1_555
O4 H12 1_555 1_555
P1 C8 1_555 1_555
C9 H13 1_555 1_555
C10 C9 1_555 1_555
C11 C10 1_555 1_555
H14 C11 1_555 1_555
C12 C11 1_555 1_555
H15 C12 1_555 1_555
C13 C12 1_555 1_555
C14 C9 1_555 1_555
H16 C14 1_555 1_555
C15 C10 1_555 1_555
N6 C13 1_555 1_555
H17 N6 1_555 1_555
H18 N6 1_555 1_555
O5 C15 1_555 1_555
O6 C15 1_555 1_555
C16 H19 1_555 1_555
H20 C16 1_555 1_555
C17 H21 1_555 1_555
H22 C17 1_555 1_555
C18 C17 1_555 1_555
H23 C18 1_555 1_555
H24 C18 1_555 1_555
C19 H25 1_555 1_555
C20 C21 1_555 1_555
C21 N7 1_555 1_555
C22 H26 1_555 1_555
C23 C20 1_555 1_555
N7 C18 1_555 1_555
N8 C19 1_555 1_555
N9 C22 1_555 1_555
N10 C21 1_555 1_555
N11 C23 1_555 1_555
H27 N11 1_555 1_555
H28 N11 1_555 1_555
O7 P2 1_555 1_555
O8 H29 1_555 1_555
O9 H30 1_555 1_555
O10 C16 1_555 1_555
P2 C16 1_555 1_555
O11 H31 1_555 1_555
H32 O11 1_555 1_555
O12 H33 1_555 1_555
H34 O12 1_555 1_555
O13 H35 1_555 1_555
H36 O13 1_555 1_555
C3 N4 1_555 1_555
C4 N3 1_555 1_555
C5 N1 1_555 1_555
C6 N3 1_555 1_555
C8 O1 1_555 1_555
O3 P1 1_555 1_555
O4 P1 1_555 1_555
C13 C14 1_555 1_555
C17 O10 1_555 1_555
C19 N7 1_555 1_555
C20 N8 1_555 1_555
C22 N10 1_555 1_555
C23 N9 1_555 1_555
O8 P2 1_555 1_555
O9 P2 1_555 1_555

#END
