
#######################################################################
#
#                 Cambridge Crystallographic Data Centre
#                                CCDC 
#
#######################################################################
#
# If this CIF has been generated from an entry in the Cambridge 
# Structural Database, then it will include bibliographic, chemical, 
# crystal, experimental, refinement or atomic coordinate data resulting 
# from the CCDC's data processing and validation procedures.
#
#######################################################################

data_AGUZOT
_chemical_formula_moiety         'C32 H16 F12 N2'
_chemical_name_systematic        tetrakis(4-(trifluoromethyl)phenyl)pyrazine
_symmetry_cell_setting           monoclinic
_symmetry_space_group_name_H-M   'P 21/n'
_symmetry_Int_Tables_number      14
_space_group_name_Hall           '-P 2yn'
loop_
_symmetry_equiv_pos_site_id
_symmetry_equiv_pos_as_xyz
1 x,y,z
2 1/2-x,1/2+y,1/2-z
3 -x,-y,-z
4 1/2+x,1/2-y,1/2+z
_cell_length_a                   11.6303(4)
_cell_length_b                   10.9593(2)
_cell_length_c                   22.1529(8)
_cell_angle_alpha                90
_cell_angle_beta                 102.842(3)
_cell_angle_gamma                90
_cell_volume                     2752.98
_exptl_crystal_colour            colorless
_exptl_crystal_description       needle
_cell_formula_units_Z            4
loop_
_atom_site_label
_atom_site_type_symbol
_atom_site_fract_x
_atom_site_fract_y
_atom_site_fract_z
C1 C 0.31849(15) 0.82266(16) -0.02810(8)
C2 C 0.41501(15) 0.86193(16) -0.05194(8)
C3 C 0.53853(15) 0.74028(16) 0.01992(8)
C4 C 0.44028(16) 0.69258(16) 0.03938(8)
C5 C 0.19482(15) 0.86668(16) -0.04970(8)
C6 C 0.10591(16) 0.78047(17) -0.06531(9)
H1 H 0.1247 0.6961 -0.0608
C7 C -0.00956(17) 0.81615(18) -0.08730(9)
H2 H -0.0698 0.7567 -0.0991
C8 C -0.03719(16) 0.93946(18) -0.09207(9)
C9 C 0.05041(17) 1.02626(18) -0.07491(9)
H3 H 0.0310 1.1106 -0.0775
C10 C 0.16625(17) 0.98991(17) -0.05395(9)
H4 H 0.2265 1.0494 -0.0424
C11 C -0.16239(18) 0.9753(2) -0.11801(10)
C12 C 0.40901(16) 0.94270(16) -0.10643(8)
C13 C 0.31326(17) 0.94377(18) -0.15684(9)
H5 H 0.2461 0.8951 -0.1559
C14 C 0.31439(18) 1.01449(19) -0.20817(9)
H6 H 0.2483 1.0144 -0.2422
C15 C 0.41175(18) 1.08542(18) -0.21000(9)
C16 C 0.50861(17) 1.08487(17) -0.16037(9)
H7 H 0.5759 1.1330 -0.1618
C17 C 0.50706(15) 1.01451(16) -0.10909(8)
H8 H 0.5734 1.0148 -0.0751
C18 C 0.4131(2) 1.1675(2) -0.26358(10)
C19 C 0.66256(15) 0.70333(16) 0.04569(9)
C20 C 0.73300(16) 0.67056(18) 0.00490(9)
H9 H 0.7019 0.6736 -0.0385
C21 C 0.84753(18) 0.63382(19) 0.02762(10)
H10 H 0.8951 0.6104 -0.0002
C22 C 0.89373(16) 0.63074(17) 0.09060(10)
C23 C 0.82578(17) 0.66543(17) 0.13158(10)
H11 H 0.8581 0.6645 0.1749
C24 C 0.71020(16) 0.70153(17) 0.10886(9)
H12 H 0.6631 0.7253 0.1368
C25 C 1.01906(18) 0.59376(14) 0.11328(9)
C26 C 0.44426(15) 0.59465(16) 0.08629(8)
C27 C 0.52122(16) 0.49586(16) 0.09253(9)
H13 H 0.5756 0.4897 0.0664
C28 C 0.51932(17) 0.40660(17) 0.13641(9)
H14 H 0.5722 0.3395 0.1404
C29 C 0.44011(18) 0.41514(18) 0.17464(9)
C30 C 0.36208(18) 0.51228(19) 0.16873(10)
H15 H 0.3077 0.5178 0.1949
C31 C 0.36383(16) 0.60084(18) 0.12472(9)
H16 H 0.3097 0.6669 0.1204
C32 C 0.4395(2) 0.3211(2) 0.22364(11)
F1 F -0.23803(11) 0.90316(14) -0.09774(8)
F2 F -0.18676(12) 1.08829(13) -0.10332(8)
F3 F -0.19181(12) 0.96754(16) -0.17920(6)
F4 F 0.51832(14) 1.17684(18) -0.27691(8)
F5 F 0.38605(17) 1.28262(14) -0.25182(7)
F6 F 0.33726(15) 1.13492(15) -0.31493(6)
F7 F 0.48874(18) 0.21763(13) 0.21340(8)
F8 F 0.49662(16) 0.35981(14) 0.27916(6)
F9 F 0.33129(15) 0.29534(16) 0.23069(8)
N1 N 0.33281(13) 0.73685(13) 0.01552(7)
N2 N 0.52332(13) 0.82151(14) -0.02597(7)
F10 F 1.0867(3) 0.6533(5) 0.0813(3)
F11 F 1.0319(10) 0.4780(4) 0.0980(6)
F12 F 1.0638(6) 0.6060(6) 0.17379(12)
F13? F 1.0978(4) 0.6828(4) 0.1167(4)
F14? F 1.0543(14) 0.4907(7) 0.0913(9)
F15? F 1.0378(7) 0.5651(8) 0.17332(13)
loop_
_geom_bond_atom_site_label_1
_geom_bond_atom_site_label_2
_geom_bond_site_symmetry_1
_geom_bond_site_symmetry_2
C1 C2 1_555 1_555
C2 C12 1_555 1_555
C3 C4 1_555 1_555
C4 C26 1_555 1_555
C5 C1 1_555 1_555
C6 C5 1_555 1_555
H1 C6 1_555 1_555
C7 C6 1_555 1_555
H2 C7 1_555 1_555
C8 C7 1_555 1_555
C9 C8 1_555 1_555
H3 C9 1_555 1_555
C10 C5 1_555 1_555
H4 C10 1_555 1_555
C11 C8 1_555 1_555
C12 C13 1_555 1_555
C13 H5 1_555 1_555
C14 C13 1_555 1_555
H6 C14 1_555 1_555
C15 C14 1_555 1_555
C16 C15 1_555 1_555
H7 C16 1_555 1_555
C17 C12 1_555 1_555
H8 C17 1_555 1_555
C18 C15 1_555 1_555
C19 C3 1_555 1_555
C20 C19 1_555 1_555
H9 C20 1_555 1_555
C21 C20 1_555 1_555
H10 C21 1_555 1_555
C22 C21 1_555 1_555
C23 C22 1_555 1_555
H11 C23 1_555 1_555
C24 C19 1_555 1_555
H12 C24 1_555 1_555
C25 C22 1_555 1_555
C26 C27 1_555 1_555
C27 H13 1_555 1_555
C28 C27 1_555 1_555
H14 C28 1_555 1_555
C29 C28 1_555 1_555
C30 C29 1_555 1_555
H15 C30 1_555 1_555
C31 C26 1_555 1_555
H16 C31 1_555 1_555
C32 C29 1_555 1_555
F1 C11 1_555 1_555
F2 C11 1_555 1_555
F3 C11 1_555 1_555
F4 C18 1_555 1_555
F5 C18 1_555 1_555
F6 C18 1_555 1_555
F7 C32 1_555 1_555
F8 C32 1_555 1_555
F9 C32 1_555 1_555
N1 C1 1_555 1_555
N2 C2 1_555 1_555
F10 C25 1_555 1_555
F11 C25 1_555 1_555
F12 C25 1_555 1_555
C3 N2 1_555 1_555
C4 N1 1_555 1_555
C9 C10 1_555 1_555
C16 C17 1_555 1_555
C23 C24 1_555 1_555
C30 C31 1_555 1_555

#END
