
#######################################################################
#
#                 Cambridge Crystallographic Data Centre
#                                CCDC 
#
#######################################################################
#
# If this CIF has been generated from an entry in the Cambridge 
# Structural Database, then it will include bibliographic, chemical, 
# crystal, experimental, refinement or atomic coordinate data resulting 
# from the CCDC's data processing and validation procedures.
#
#######################################################################

data_AHADOE
_chemical_formula_moiety         'C16 H16 N2 O5'
_chemical_name_systematic        
'(R)-2-(3-(3-methoxyphenyl)-4-nitrobutanoyl)pyridine 1-oxide'
_symmetry_cell_setting           monoclinic
_symmetry_space_group_name_H-M   'P 21'
_symmetry_Int_Tables_number      4
_space_group_name_Hall           'P 2yb'
loop_
_symmetry_equiv_pos_site_id
_symmetry_equiv_pos_as_xyz
1 x,y,z
2 -x,1/2+y,-z
_cell_length_a                   5.7307(2)
_cell_length_b                   11.6217(3)
_cell_length_c                   11.8016(4)
_cell_angle_alpha                90
_cell_angle_beta                 102.563(3)
_cell_angle_gamma                90
_cell_volume                     767.174
_exptl_crystal_colour            colorless
_exptl_crystal_description       block
_cell_formula_units_Z            2
_chemical_properties_physical    'Moisture-sensitive, Light-sensitive'
_exptl_crystal_recrystallization_method 'ethyl acetate'
loop_
_atom_site_label
_atom_site_type_symbol
_atom_site_fract_x
_atom_site_fract_y
_atom_site_fract_z
O1 O 0.2381(3) -0.30534(16) 0.0667(2)
N1 N 0.4376(3) -0.35011(16) 0.12009(17)
O2 O 0.8722(4) 0.24078(19) 0.52257(16)
N2 N 0.1846(4) 0.22010(17) 0.12922(18)
O3 O 0.8033(3) -0.10283(15) 0.2012(2)
O4 O 0.3196(4) 0.26803(17) 0.07847(19)
C1 C 0.6513(4) 0.1378(2) 0.3520(2)
H1 H 0.7365 0.1733 0.3030
C2 C 0.6279(4) -0.28335(19) 0.17241(18)
C3 C 0.4063(4) 0.03659(17) 0.17677(19)
H2 H 0.5314 0.0694 0.1416
C4 C 0.8396(4) -0.3368(2) 0.2246(2)
H3 H 0.9700 -0.2921 0.2595
O5 O 0.0651(5) 0.2704(2) 0.1867(2)
C5 C 0.4719(4) 0.05944(19) 0.30695(19)
C6 C 0.6149(4) -0.15441(19) 0.1740(2)
C7 C 0.3818(4) -0.09200(18) 0.1461(2)
H4 H 0.2731 -0.1273 0.1885
H5 H 0.3125 -0.1000 0.0639
C8 C 0.1680(4) 0.09288(19) 0.1205(2)
H6 H 0.1235 0.0707 0.0394
H7 H 0.0444 0.0658 0.1586
C9 C 0.7038(5) 0.1635(2) 0.4701(2)
C10 C 0.3488(5) 0.0060(3) 0.3807(2)
H8 H 0.2289 -0.0469 0.3516
C11 C 0.4594(5) -0.4670(2) 0.1230(2)
H9 H 0.3286 -0.5119 0.0888
C12 C 0.6668(5) -0.5194(2) 0.1744(2)
H10 H 0.6771 -0.5992 0.1747
C13 C 0.8617(5) -0.4549(2) 0.2261(3)
H11 H 1.0051 -0.4900 0.2611
C14 C 0.4052(6) 0.0315(4) 0.4984(3)
H12 H 0.3228 -0.0050 0.5480
C15 C 0.5793(6) 0.1093(3) 0.5426(2)
H13 H 0.6142 0.1258 0.6216
C16 C 1.0216(6) 0.2929(3) 0.4564(3)
H14 H 1.1301 0.3448 0.5047
H15 H 0.9254 0.3346 0.3929
H16 H 1.1109 0.2345 0.4268
loop_
_geom_bond_atom_site_label_1
_geom_bond_atom_site_label_2
_geom_bond_site_symmetry_1
_geom_bond_site_symmetry_2
O1 N1 1_555 1_555
N1 C2 1_555 1_555
O2 C9 1_555 1_555
N2 O4 1_555 1_555
O3 C6 1_555 1_555
C1 H1 1_555 1_555
C2 C4 1_555 1_555
C3 H2 1_555 1_555
C4 H3 1_555 1_555
O5 N2 1_555 1_555
C5 C1 1_555 1_555
C6 C2 1_555 1_555
C7 C3 1_555 1_555
H4 C7 1_555 1_555
H5 C7 1_555 1_555
C8 N2 1_555 1_555
H6 C8 1_555 1_555
H7 C8 1_555 1_555
C9 C1 1_555 1_555
C10 C5 1_555 1_555
H8 C10 1_555 1_555
C11 N1 1_555 1_555
H9 C11 1_555 1_555
C12 C11 1_555 1_555
H10 C12 1_555 1_555
C13 C4 1_555 1_555
H11 C13 1_555 1_555
C14 C10 1_555 1_555
H12 C14 1_555 1_555
C15 C9 1_555 1_555
H13 C15 1_555 1_555
C16 O2 1_555 1_555
H14 C16 1_555 1_555
H15 C16 1_555 1_555
H16 C16 1_555 1_555
C3 C5 1_555 1_555
C3 C8 1_555 1_555
C6 C7 1_555 1_555
C12 C13 1_555 1_555
C14 C15 1_555 1_555

#END
