
#######################################################################
#
#                 Cambridge Crystallographic Data Centre
#                                CCDC 
#
#######################################################################
#
# If this CIF has been generated from an entry in the Cambridge 
# Structural Database, then it will include bibliographic, chemical, 
# crystal, experimental, refinement or atomic coordinate data resulting 
# from the CCDC's data processing and validation procedures.
#
#######################################################################

data_AHAQEH
_chemical_formula_moiety         'C34 H24 B2 N2 O2'
_chemical_name_systematic        
6,10''-Dihydrodispiro[pyrido[1,2-c][1,3,2]benzoxazaborinine-6,5'-boranthrene-10',6''-pyrido[1,2-c][1,3,2]benzoxazaborinine]
_symmetry_cell_setting           monoclinic
_symmetry_space_group_name_H-M   'P 21/c'
_symmetry_Int_Tables_number      14
_space_group_name_Hall           '-P 2ybc'
loop_
_symmetry_equiv_pos_site_id
_symmetry_equiv_pos_as_xyz
1 x,y,z
2 -x,1/2+y,1/2-z
3 -x,-y,-z
4 x,1/2-y,1/2+z
_cell_length_a                   11.169(2)
_cell_length_b                   16.752(3)
_cell_length_c                   14.317(3)
_cell_angle_alpha                90
_cell_angle_beta                 106.57(3)
_cell_angle_gamma                90
_cell_volume                     2567.51
_exptl_crystal_colour            colorless
_exptl_crystal_description       block
_cell_formula_units_Z            4
_exptl_crystal_recrystallization_method sublimation
_exptl_crystal_preparation       Luminescent
loop_
_atom_site_label
_atom_site_type_symbol
_atom_site_fract_x
_atom_site_fract_y
_atom_site_fract_z
O1 O 0.62312(14) 0.25374(9) 0.66094(11)
N1 N 1.09723(16) 0.30752(10) 0.60012(12)
O2 O 1.07041(14) 0.36679(9) 0.75430(11)
N2 N 0.75159(17) 0.32353(10) 0.80969(13)
C1 C 0.88246(19) 0.36810(11) 0.60879(15)
C2 C 1.26818(19) 0.37000(12) 0.72013(16)
C3 C 1.21858(19) 0.32927(11) 0.62653(16)
C4 C 0.97289(19) 0.23123(12) 0.70225(14)
C5 C 1.0621(2) 0.16998(14) 0.71872(17)
C6 C 0.6816(2) 0.29088(13) 0.86336(17)
C7 C 0.8428(2) 0.14333(12) 0.76446(17)
C8 C 0.6699(2) 0.40914(13) 0.58973(18)
C9 C 0.5893(2) 0.23011(13) 0.81683(18)
C10 C 0.76914(19) 0.35732(11) 0.63253(15)
C11 C 0.85875(19) 0.21812(11) 0.72414(14)
C12 C 0.5635(2) 0.21465(12) 0.71692(18)
C13 C 1.1908(2) 0.38629(12) 0.77929(16)
C14 C 1.0473(2) 0.27035(14) 0.51383(16)
C15 C 1.2385(3) 0.27387(16) 0.4765(2)
B1 B 1.0040(2) 0.31830(14) 0.66655(17)
C16 C 0.8879(2) 0.42679(13) 0.54063(18)
C17 C 1.2905(2) 0.31199(14) 0.5634(2)
C18 C 0.9332(2) 0.08418(13) 0.78187(18)
C19 C 0.6988(3) 0.31891(17) 0.95892(19)
B2 B 0.7513(2) 0.28599(14) 0.70302(17)
C20 C 0.7874(2) 0.47494(13) 0.4976(2)
C21 C 1.2392(3) 0.42586(15) 0.8683(2)
C22 C 1.1153(3) 0.25222(16) 0.45099(19)
C23 C 0.6784(3) 0.46699(14) 0.5231(2)
C24 C 0.8324(2) 0.38299(14) 0.84725(18)
C25 C 1.0429(3) 0.09696(14) 0.75851(19)
C26 C 0.4711(2) 0.16017(15) 0.6713(2)
C27 C 0.7827(3) 0.37801(17) 0.9974(2)
C28 C 1.3928(2) 0.39654(16) 0.7514(2)
C29 C 0.5214(3) 0.18790(17) 0.8696(3)
C30 C 1.3612(3) 0.45028(16) 0.8970(2)
C31 C 1.4380(3) 0.43630(17) 0.8383(3)
C32 C 0.8488(3) 0.41128(18) 0.9400(2)
C33 C 0.4312(3) 0.13421(18) 0.8254(3)
C34 C 0.4057(3) 0.12044(17) 0.7267(3)
H1 H 0.958(2) 0.2585(13) 0.5026(17)
H2 H 1.112(2) 0.0567(14) 0.7749(18)
H3 H 0.961(2) 0.4340(12) 0.5215(16)
H4 H 0.602(2) 0.5002(14) 0.4915(19)
H5 H 0.920(2) 0.0315(14) 0.8118(18)
H6 H 0.886(2) 0.4049(13) 0.8038(18)
H7 H 1.074(2) 0.2229(14) 0.3903(19)
H8 H 0.586(2) 0.4046(13) 0.6068(17)
H9 H 0.764(2) 0.1326(13) 0.7794(17)
H10 H 0.790(2) 0.5138(13) 0.4455(18)
H11 H 1.292(2) 0.2604(15) 0.4337(19)
H12 H 0.652(2) 0.2933(14) 0.9920(19)
H13 H 1.452(3) 0.3838(15) 0.713(2)
H14 H 1.180(2) 0.4343(14) 0.9069(18)
H15 H 0.346(3) 0.0856(16) 0.689(2)
H16 H 0.452(2) 0.1506(13) 0.598(2)
H17 H 1.145(3) 0.1805(15) 0.703(2)
H18 H 0.913(3) 0.4548(18) 0.964(2)
H19 H 1.381(3) 0.3273(14) 0.5840(19)
H20 H 1.527(3) 0.4542(18) 0.856(2)
H21 H 0.797(3) 0.3957(16) 1.069(2)
H22 H 1.392(3) 0.4779(16) 0.962(2)
H23 H 0.541(3) 0.2019(18) 0.944(3)
H24 H 0.383(3) 0.101(2) 0.861(3)
loop_
_geom_bond_atom_site_label_1
_geom_bond_atom_site_label_2
_geom_bond_site_symmetry_1
_geom_bond_site_symmetry_2
O1 C12 1_555 1_555
N1 C3 1_555 1_555
O2 C13 1_555 1_555
N2 C6 1_555 1_555
C1 C10 1_555 1_555
C2 C3 1_555 1_555
C3 C17 1_555 1_555
C4 C5 1_555 1_555
C5 C25 1_555 1_555
C6 C9 1_555 1_555
C7 C11 1_555 1_555
C8 C10 1_555 1_555
C9 C12 1_555 1_555
C10 B2 1_555 1_555
C11 C4 1_555 1_555
C12 C26 1_555 1_555
C13 C2 1_555 1_555
C14 N1 1_555 1_555
C15 C17 1_555 1_555
B1 N1 1_555 1_555
C16 C1 1_555 1_555
C17 H19 1_555 1_555
C18 C7 1_555 1_555
C19 C6 1_555 1_555
B2 O1 1_555 1_555
C20 C16 1_555 1_555
C21 C13 1_555 1_555
C22 C14 1_555 1_555
C23 C8 1_555 1_555
C24 N2 1_555 1_555
C25 C18 1_555 1_555
C26 C34 1_555 1_555
C27 C19 1_555 1_555
C28 C2 1_555 1_555
C29 C9 1_555 1_555
C30 C21 1_555 1_555
C31 C28 1_555 1_555
C32 C24 1_555 1_555
C33 C29 1_555 1_555
C34 C33 1_555 1_555
H1 C14 1_555 1_555
H2 C25 1_555 1_555
H3 C16 1_555 1_555
H4 C23 1_555 1_555
H5 C18 1_555 1_555
H6 C24 1_555 1_555
H7 C22 1_555 1_555
H8 C8 1_555 1_555
H9 C7 1_555 1_555
H10 C20 1_555 1_555
H11 C15 1_555 1_555
H12 C19 1_555 1_555
H13 C28 1_555 1_555
H14 C21 1_555 1_555
H15 C34 1_555 1_555
H16 C26 1_555 1_555
H17 C5 1_555 1_555
H18 C32 1_555 1_555
H20 C31 1_555 1_555
H21 C27 1_555 1_555
H22 C30 1_555 1_555
H23 C29 1_555 1_555
H24 C33 1_555 1_555
O2 B1 1_555 1_555
N2 B2 1_555 1_555
C1 B1 1_555 1_555
C4 B1 1_555 1_555
C11 B2 1_555 1_555
C15 C22 1_555 1_555
C20 C23 1_555 1_555
C27 C32 1_555 1_555
C30 C31 1_555 1_555

#END
