
#######################################################################
#
#                 Cambridge Crystallographic Data Centre
#                                CCDC 
#
#######################################################################
#
# If this CIF has been generated from an entry in the Cambridge 
# Structural Database, then it will include bibliographic, chemical, 
# crystal, experimental, refinement or atomic coordinate data resulting 
# from the CCDC's data processing and validation procedures.
#
#######################################################################

data_AHASOT
_chemical_formula_moiety         'C28 H37 Cl1 O5'
_chemical_name_systematic        
'Diethyl 2-(chloro(phenyl)methyl)-2-(3,5-di-t-butyl-4-hydroxyphenyl)malonate'
_symmetry_cell_setting           monoclinic
_symmetry_space_group_name_H-M   'P 21/c'
_symmetry_Int_Tables_number      14
_space_group_name_Hall           '-P 2ybc'
loop_
_symmetry_equiv_pos_site_id
_symmetry_equiv_pos_as_xyz
1 x,y,z
2 -x,1/2+y,1/2-z
3 -x,-y,-z
4 x,1/2-y,1/2+z
_cell_length_a                   13.459(4)
_cell_length_b                   10.509(3)
_cell_length_c                   20.134(6)
_cell_angle_alpha                90
_cell_angle_beta                 105.460(5)
_cell_angle_gamma                90
_cell_volume                     2744.72
_exptl_crystal_colour            colorless
_exptl_crystal_description       block
_cell_formula_units_Z            4
_exptl_crystal_recrystallization_method hexane/dichloromethane
loop_
_atom_site_label
_atom_site_type_symbol
_atom_site_fract_x
_atom_site_fract_y
_atom_site_fract_z
C1 C 0.47585(18) 0.1592(2) 0.34911(13)
C2 C 0.5524(2) 0.2503(3) 0.33031(19)
H1 H 0.6130 0.2042 0.3281
H2 H 0.5709 0.3157 0.3647
H3 H 0.5213 0.2883 0.2863
C3 C 0.4487(2) 0.0504(3) 0.29651(16)
H4 H 0.4020 -0.0073 0.3097
H5 H 0.5104 0.0058 0.2952
H6 H 0.4166 0.0847 0.2517
C4 C 0.5290(2) 0.0991(3) 0.41895(16)
H7 H 0.4830 0.0395 0.4314
H8 H 0.5468 0.1646 0.4534
H9 H 0.5903 0.0558 0.4158
C5 C 0.37709(16) 0.2310(2) 0.35234(12)
C6 C 0.31596(17) 0.2985(2) 0.29569(12)
C7 C 0.22727(16) 0.3663(2) 0.29941(11)
C8 C 0.20081(16) 0.3612(2) 0.36126(11)
H10 H 0.1426 0.4053 0.3649
C9 C 0.25687(15) 0.29373(19) 0.41783(11)
C10 C 0.34458(16) 0.2309(2) 0.41203(11)
H11 H 0.3835 0.1865 0.4501
C11 C 0.16054(17) 0.4426(2) 0.23814(12)
C12 C 0.2240(2) 0.5456(3) 0.21407(15)
H12 H 0.2551 0.6004 0.2520
H13 H 0.1797 0.5946 0.1779
H14 H 0.2769 0.5060 0.1973
C13 C 0.1097(2) 0.3536(3) 0.17809(14)
H15 H 0.1621 0.3129 0.1613
H16 H 0.0654 0.4022 0.1416
H17 H 0.0699 0.2902 0.1938
C14 C 0.0727(2) 0.5128(3) 0.25809(14)
H18 H 0.0277 0.4520 0.2707
H19 H 0.0344 0.5622 0.2196
H20 H 0.1010 0.5682 0.2964
C15 C 0.21906(16) 0.27655(19) 0.48210(11)
C16 C 0.17416(17) 0.4000(2) 0.50445(12)
C17 C 0.1043(2) 0.4813(3) 0.59314(15)
H21 H 0.0808 0.5485 0.5596
H22 H 0.0459 0.4531 0.6090
C18 C 0.1832(3) 0.5301(4) 0.6506(2)
H23 H 0.2107 0.4619 0.6818
H24 H 0.1541 0.5936 0.6741
H25 H 0.2373 0.5673 0.6342
C19 C 0.30820(17) 0.2447(2) 0.54562(12)
C20 C 0.4735(2) 0.3149(4) 0.60891(17)
H26 H 0.4987 0.2287 0.6077
H27 H 0.4592 0.3283 0.6531
C21 C 0.5502(3) 0.4051(5) 0.5999(3)
H28 H 0.5667 0.3882 0.5572
H29 H 0.6113 0.3969 0.6374
H30 H 0.5235 0.4899 0.5992
C22 C 0.13697(17) 0.1679(2) 0.47427(12)
H31 H 0.1238 0.1567 0.5195
C23 C 0.16310(17) 0.0387(2) 0.45124(12)
C24 C 0.17567(18) 0.0144(2) 0.38638(13)
H32 H 0.1701 0.0804 0.3548
C25 C 0.1964(2) -0.1079(3) 0.36839(17)
H33 H 0.2061 -0.1234 0.3251
C26 C 0.2028(2) -0.2067(3) 0.4143(2)
H34 H 0.2170 -0.2888 0.4022
C27 C 0.1884(3) -0.1834(3) 0.47750(19)
H35 H 0.1914 -0.2500 0.5084
C28 C 0.1693(2) -0.0622(2) 0.49577(15)
H36 H 0.1602 -0.0476 0.5393
O1 O 0.34828(13) 0.29295(19) 0.23640(9)
H37 H 0.3049 0.3261 0.2047
O2 O 0.31092(13) 0.15632(16) 0.58317(9)
O3 O 0.38041(13) 0.33320(17) 0.55377(9)
O4 O 0.16948(16) 0.50099(16) 0.47801(10)
O5 O 0.14326(15) 0.37572(16) 0.56089(9)
Cl1 Cl 0.01768(4) 0.22167(6) 0.41591(4)
loop_
_geom_bond_atom_site_label_1
_geom_bond_atom_site_label_2
_geom_bond_site_symmetry_1
_geom_bond_site_symmetry_2
C1 C2 1_555 1_555
C2 H1 1_555 1_555
H2 C2 1_555 1_555
H3 C2 1_555 1_555
C3 C1 1_555 1_555
H4 C3 1_555 1_555
H5 C3 1_555 1_555
H6 C3 1_555 1_555
C4 C1 1_555 1_555
H7 C4 1_555 1_555
H8 C4 1_555 1_555
H9 C4 1_555 1_555
C5 C1 1_555 1_555
C6 C5 1_555 1_555
C7 C6 1_555 1_555
C8 C7 1_555 1_555
H10 C8 1_555 1_555
C9 C8 1_555 1_555
C10 C5 1_555 1_555
H11 C10 1_555 1_555
C11 C7 1_555 1_555
C12 C11 1_555 1_555
H12 C12 1_555 1_555
H13 C12 1_555 1_555
H14 C12 1_555 1_555
C13 C11 1_555 1_555
H15 C13 1_555 1_555
H16 C13 1_555 1_555
H17 C13 1_555 1_555
C14 C11 1_555 1_555
H18 C14 1_555 1_555
H19 C14 1_555 1_555
H20 C14 1_555 1_555
C15 C9 1_555 1_555
C16 C15 1_555 1_555
C17 H21 1_555 1_555
H22 C17 1_555 1_555
C18 C17 1_555 1_555
H23 C18 1_555 1_555
H24 C18 1_555 1_555
H25 C18 1_555 1_555
C19 C15 1_555 1_555
C20 H26 1_555 1_555
H27 C20 1_555 1_555
C21 C20 1_555 1_555
H28 C21 1_555 1_555
H29 C21 1_555 1_555
H30 C21 1_555 1_555
C22 C15 1_555 1_555
H31 C22 1_555 1_555
C23 C22 1_555 1_555
C24 C23 1_555 1_555
H32 C24 1_555 1_555
C25 C24 1_555 1_555
H33 C25 1_555 1_555
C26 C25 1_555 1_555
H34 C26 1_555 1_555
C27 C26 1_555 1_555
H35 C27 1_555 1_555
C28 C23 1_555 1_555
H36 C28 1_555 1_555
O1 C6 1_555 1_555
H37 O1 1_555 1_555
O2 C19 1_555 1_555
O3 C19 1_555 1_555
O4 C16 1_555 1_555
O5 C16 1_555 1_555
Cl1 C22 1_555 1_555
C9 C10 1_555 1_555
C17 O5 1_555 1_555
C20 O3 1_555 1_555
C27 C28 1_555 1_555

#END
