
#######################################################################
#
#                 Cambridge Crystallographic Data Centre
#                                CCDC 
#
#######################################################################
#
# If this CIF has been generated from an entry in the Cambridge 
# Structural Database, then it will include bibliographic, chemical, 
# crystal, experimental, refinement or atomic coordinate data resulting 
# from the CCDC's data processing and validation procedures.
#
#######################################################################

data_AHATIN
_chemical_formula_moiety         'C40 H32 N2 O3 S1'
_chemical_name_systematic        
3-Methyl-11-((4-methylphenyl)sulfonyl)-1,4,5-triphenyl-4,5,11,11a-tetrahydrofuro[3',4':5,6]azepino[4,3-b]indole
_symmetry_cell_setting           triclinic
_symmetry_space_group_name_H-M   'P -1'
_symmetry_Int_Tables_number      2
_space_group_name_Hall           '-P 1'
loop_
_symmetry_equiv_pos_site_id
_symmetry_equiv_pos_as_xyz
1 x,y,z
2 -x,-y,-z
_cell_length_a                   9.7392(7)
_cell_length_b                   10.1977(8)
_cell_length_c                   16.6445(12)
_cell_angle_alpha                83.898(3)
_cell_angle_beta                 74.457(2)
_cell_angle_gamma                88.717(3)
_cell_volume                     1583.58
_exptl_crystal_colour            yellow
_exptl_crystal_description       block
_cell_formula_units_Z            2
loop_
_atom_site_label
_atom_site_type_symbol
_atom_site_fract_x
_atom_site_fract_y
_atom_site_fract_z
S1 S 0.57563(8) 0.25865(8) 0.37396(5)
O1 O 0.7726(2) 0.42106(18) 0.04249(12)
O2 O 0.4791(2) 0.3443(2) 0.42428(14)
O3 O 0.5316(2) 0.1889(2) 0.31523(13)
N1 N 0.7131(2) 0.3507(2) 0.31869(14)
N2 N 1.1335(2) 0.2425(2) 0.13807(15)
C1 C 0.5793(4) 0.5715(3) 0.2244(2)
H1 H 0.6531 0.5763 0.2515
C2 C 0.4540(4) 0.6423(3) 0.2503(2)
H2 H 0.4419 0.6943 0.2958
C3 C 0.3475(4) 0.6372(4) 0.2103(3)
H3 H 0.2623 0.6857 0.2282
C4 C 0.3647(4) 0.5622(3) 0.1449(3)
H4 H 0.2914 0.5590 0.1172
C5 C 0.4878(3) 0.4915(3) 0.1190(2)
H5 H 0.4990 0.4403 0.0732
C6 C 0.5959(3) 0.4940(3) 0.15898(19)
C7 C 1.5091(3) 0.1473(3) 0.1240(2)
H6 H 1.5689 0.1269 0.1602
C8 C 1.3672(3) 0.1775(3) 0.1572(2)
H7 H 1.3298 0.1758 0.2162
C9 C 1.2791(3) 0.2100(3) 0.10508(18)
C10 C 1.3362(3) 0.2123(3) 0.01886(19)
H8 H 1.2783 0.2371 -0.0179
C11 C 1.4769(3) 0.1788(3) -0.0133(2)
H9 H 1.5143 0.1776 -0.0722
C12 C 1.5636(3) 0.1469(3) 0.0390(2)
H10 H 1.6605 0.1247 0.0163
C13 C 1.0329(3) -0.0134(3) 0.21181(19)
H11 H 1.1170 0.0224 0.2197
C14 C 0.9772(4) -0.1310(3) 0.2573(2)
H12 H 1.0228 -0.1748 0.2963
C15 C 0.8563(4) -0.1842(3) 0.2461(2)
H13 H 0.8179 -0.2645 0.2776
C16 C 0.7906(4) -0.1211(3) 0.1889(2)
H14 H 0.7072 -0.1580 0.1809
C17 C 0.8468(3) -0.0032(3) 0.1432(2)
H15 H 0.8019 0.0393 0.1034
C18 C 0.9675(3) 0.0530(3) 0.15483(18)
C19 C 0.6577(4) 0.1796(3) 0.5157(2)
H16 H 0.6225 0.2617 0.5346
C20 C 0.7218(4) 0.0937(3) 0.5641(2)
H17 H 0.7286 0.1170 0.6167
C21 C 0.7768(4) -0.0260(3) 0.5378(2)
C22 C 0.7606(4) -0.0572(3) 0.4621(2)
H18 H 0.7954 -0.1394 0.4432
C23 C 0.6958(4) 0.0262(3) 0.4129(2)
H19 H 0.6863 0.0018 0.3612
C24 C 0.6446(3) 0.1464(3) 0.43991(19)
C25 C 1.0266(3) 0.4927(3) 0.35421(19)
H20 H 1.1268 0.4874 0.3315
C26 C 0.9704(4) 0.5735(3) 0.4170(2)
H21 H 1.0324 0.6242 0.4371
C27 C 0.8241(4) 0.5806(3) 0.4506(2)
H22 H 0.7872 0.6344 0.4946
C28 C 0.7312(4) 0.5108(3) 0.42128(19)
H23 H 0.6310 0.5184 0.4429
C29 C 0.7885(3) 0.4291(3) 0.35931(18)
C30 C 0.9354(3) 0.4200(3) 0.32499(18)
C31 C 0.9635(3) 0.3316(3) 0.25869(18)
C32 C 0.8190(3) 0.2894(3) 0.25094(17)
H24 H 0.8100 0.1913 0.2619
C33 C 0.8080(3) 0.3318(3) 0.16394(18)
C34 C 0.9128(3) 0.2821(3) 0.09520(18)
C35 C 1.0264(3) 0.1844(3) 0.10477(18)
H25 H 1.0770 0.1633 0.0469
C36 C 1.0935(3) 0.3087(3) 0.20907(18)
H26 H 1.1704 0.3436 0.2254
C37 C 0.7247(3) 0.4158(3) 0.12952(18)
C38 C 0.8875(3) 0.3394(3) 0.02393(18)
C39 C 0.9582(3) 0.3344(3) -0.06660(19)
H27 H 1.0389 0.2736 -0.0730
H28 H 0.9925 0.4227 -0.0922
H29 H 0.8898 0.3035 -0.0943
C40 C 0.8477(4) -0.1197(4) 0.5905(2)
H30 H 0.8496 -0.0805 0.6414
H31 H 0.9454 -0.1367 0.5584
H32 H 0.7940 -0.2029 0.6058
loop_
_geom_bond_atom_site_label_1
_geom_bond_atom_site_label_2
_geom_bond_site_symmetry_1
_geom_bond_site_symmetry_2
S1 O2 1_555 1_555
O1 C37 1_555 1_555
O3 S1 1_555 1_555
N1 S1 1_555 1_555
N2 C9 1_555 1_555
C1 H1 1_555 1_555
C2 C1 1_555 1_555
H2 C2 1_555 1_555
C3 C2 1_555 1_555
H3 C3 1_555 1_555
C4 C3 1_555 1_555
H4 C4 1_555 1_555
C5 C4 1_555 1_555
H5 C5 1_555 1_555
C6 C1 1_555 1_555
C7 H6 1_555 1_555
C8 C7 1_555 1_555
H7 C8 1_555 1_555
C9 C8 1_555 1_555
C10 C9 1_555 1_555
H8 C10 1_555 1_555
C11 C10 1_555 1_555
H9 C11 1_555 1_555
C12 C7 1_555 1_555
H10 C12 1_555 1_555
C13 H11 1_555 1_555
C14 C13 1_555 1_555
H12 C14 1_555 1_555
C15 C14 1_555 1_555
H13 C15 1_555 1_555
C16 C15 1_555 1_555
H14 C16 1_555 1_555
C17 C16 1_555 1_555
H15 C17 1_555 1_555
C18 C13 1_555 1_555
C19 H16 1_555 1_555
C20 C19 1_555 1_555
H17 C20 1_555 1_555
C21 C20 1_555 1_555
C22 C21 1_555 1_555
H18 C22 1_555 1_555
C23 C22 1_555 1_555
H19 C23 1_555 1_555
C24 S1 1_555 1_555
C25 H20 1_555 1_555
C26 C25 1_555 1_555
H21 C26 1_555 1_555
C27 C26 1_555 1_555
H22 C27 1_555 1_555
C28 C27 1_555 1_555
H23 C28 1_555 1_555
C29 N1 1_555 1_555
C30 C25 1_555 1_555
C31 C30 1_555 1_555
C32 N1 1_555 1_555
H24 C32 1_555 1_555
C33 C32 1_555 1_555
C34 C33 1_555 1_555
C35 N2 1_555 1_555
H25 C35 1_555 1_555
C36 N2 1_555 1_555
H26 C36 1_555 1_555
C37 C6 1_555 1_555
C38 O1 1_555 1_555
C39 C38 1_555 1_555
H27 C39 1_555 1_555
H28 C39 1_555 1_555
H29 C39 1_555 1_555
C40 C21 1_555 1_555
H30 C40 1_555 1_555
H31 C40 1_555 1_555
H32 C40 1_555 1_555
C5 C6 1_555 1_555
C11 C12 1_555 1_555
C17 C18 1_555 1_555
C18 C35 1_555 1_555
C19 C24 1_555 1_555
C23 C24 1_555 1_555
C28 C29 1_555 1_555
C29 C30 1_555 1_555
C31 C32 1_555 1_555
C31 C36 1_555 1_555
C33 C37 1_555 1_555
C34 C35 1_555 1_555
C34 C38 1_555 1_555

#END
