
#######################################################################
#
#                 Cambridge Crystallographic Data Centre
#                                CCDC 
#
#######################################################################
#
# If this CIF has been generated from an entry in the Cambridge 
# Structural Database, then it will include bibliographic, chemical, 
# crystal, experimental, refinement or atomic coordinate data resulting 
# from the CCDC's data processing and validation procedures.
#
#######################################################################

data_AHAVOW
_chemical_formula_moiety         'C37 H22 B1 F9'
_chemical_name_systematic        
2,3,4,5-tetraphenyl-1-(2,4,6-tris(trifluoromethyl)phenyl)-1H-borole
_symmetry_cell_setting           triclinic
_symmetry_space_group_name_H-M   'P -1'
_symmetry_Int_Tables_number      2
_space_group_name_Hall           '-P 1'
loop_
_symmetry_equiv_pos_site_id
_symmetry_equiv_pos_as_xyz
1 x,y,z
2 -x,-y,-z
_cell_length_a                   10.1241(4)
_cell_length_b                   10.1353(4)
_cell_length_c                   17.3058(6)
_cell_angle_alpha                84.1092(12)
_cell_angle_beta                 73.8330(12)
_cell_angle_gamma                63.9157(11)
_cell_volume                     1531.42
_exptl_crystal_colour            black
_exptl_crystal_description       plate
_cell_formula_units_Z            2
loop_
_atom_site_label
_atom_site_type_symbol
_atom_site_fract_x
_atom_site_fract_y
_atom_site_fract_z
B1 B 0.8975(3) 0.4546(3) 0.27278(14)
C1 C 1.0556(2) 0.4594(2) 0.23561(12)
C2 C 1.0327(2) 0.5585(2) 0.17589(12)
C3 C 0.8653(2) 0.6349(2) 0.17505(12)
C4 C 0.7801(2) 0.5826(2) 0.23305(12)
C5 C 0.8676(2) 0.3304(2) 0.32726(12)
C6 C 0.8997(2) 0.1941(2) 0.29531(13)
C7 C 0.8687(3) 0.0875(2) 0.34299(14)
H1 H 0.8928 -0.0036 0.3195
C8 C 0.8030(3) 0.1134(3) 0.42461(14)
C9 C 0.7689(3) 0.2461(3) 0.45875(13)
H2 H 0.7234 0.2650 0.5148
C10 C 0.8019(2) 0.3512(2) 0.41039(12)
C11 C 0.9668(3) 0.1593(2) 0.20764(14)
C12 C 0.7692(4) -0.0013(3) 0.47706(17)
C13 C 0.7661(3) 0.4913(3) 0.45098(13)
C14 C 1.2026(2) 0.3602(2) 0.25309(12)
C15 C 1.3359(3) 0.2909(2) 0.19223(14)
H3 H 1.3331 0.3069 0.1375
C16 C 1.4718(3) 0.1995(3) 0.21026(15)
H4 H 1.5613 0.1530 0.1681
C17 C 1.4781(3) 0.1755(2) 0.28977(15)
H5 H 1.5720 0.1140 0.3022
C18 C 1.3475(3) 0.2413(2) 0.35065(14)
H6 H 1.3512 0.2244 0.4052
C19 C 1.2107(3) 0.3321(2) 0.33273(13)
H7 H 1.1211 0.3757 0.3753
C20 C 1.1486(2) 0.5946(2) 0.11738(12)
C21 C 1.2389(2) 0.6404(2) 0.14516(14)
H8 H 1.2265 0.6458 0.2014
C22 C 1.3463(2) 0.6780(2) 0.09176(15)
H9 H 1.4062 0.7103 0.1114
C23 C 1.3665(3) 0.6685(2) 0.00995(15)
H10 H 1.4413 0.6930 -0.0267
C24 C 1.2778(2) 0.6234(2) -0.01884(14)
H11 H 1.2921 0.6168 -0.0752
C25 C 1.1683(2) 0.5878(2) 0.03437(13)
H12 H 1.1064 0.5588 0.0144
C26 C 0.8126(2) 0.7479(2) 0.11571(12)
C27 C 0.8597(2) 0.8607(2) 0.09840(13)
H13 H 0.9241 0.8679 0.1269
C28 C 0.8135(2) 0.9619(2) 0.04011(13)
H14 H 0.8457 1.0385 0.0291
C29 C 0.7204(3) 0.9517(2) -0.00227(13)
H15 H 0.6901 1.0203 -0.0428
C30 C 0.6719(3) 0.8415(2) 0.01475(13)
H16 H 0.6072 0.8352 -0.0138
C31 C 0.7171(2) 0.7405(2) 0.07311(12)
H17 H 0.6829 0.6653 0.0844
C32 C 0.6124(2) 0.6430(2) 0.25959(12)
C33 C 0.5225(2) 0.7949(2) 0.26572(13)
H18 H 0.5698 0.8596 0.2495
C34 C 0.3657(3) 0.8523(3) 0.29494(14)
H19 H 0.3063 0.9557 0.2983
C35 C 0.2953(3) 0.7591(3) 0.31931(13)
H20 H 0.1877 0.7984 0.3397
C36 C 0.3821(3) 0.6088(3) 0.31379(13)
H21 H 0.3340 0.5447 0.3302
C37 C 0.5391(2) 0.5509(2) 0.28437(13)
H22 H 0.5977 0.4474 0.2810
F1 F 0.9948(5) 0.2601(4) 0.1622(3)
F2 F 1.0771(4) 0.0266(3) 0.18985(17)
F3 F 0.8484(4) 0.1498(4) 0.17866(16)
F4 F 0.83998(18) 0.46722(17) 0.50769(8)
F5 F 0.61888(17) 0.56480(17) 0.48681(10)
F6 F 0.80740(17) 0.58262(14) 0.39858(8)
F7 F 0.8532(2) -0.0521(2) 0.52928(13)
F8 F 0.6267(2) 0.0530(2) 0.52306(13)
F9 F 0.7874(4) -0.1118(3) 0.43622(14)
F10? F 0.9355(6) 0.2828(4) 0.1641(4)
F11? F 1.1320(3) 0.1056(6) 0.1940(2)
F12? F 0.9495(7) 0.0614(5) 0.1773(2)
loop_
_geom_bond_atom_site_label_1
_geom_bond_atom_site_label_2
_geom_bond_site_symmetry_1
_geom_bond_site_symmetry_2
B1 C1 1_555 1_555
C1 C2 1_555 1_555
C2 C3 1_555 1_555
C3 C4 1_555 1_555
C4 B1 1_555 1_555
C5 B1 1_555 1_555
C6 C5 1_555 1_555
C7 C6 1_555 1_555
H1 C7 1_555 1_555
C8 C7 1_555 1_555
C9 C8 1_555 1_555
H2 C9 1_555 1_555
C10 C5 1_555 1_555
C11 C6 1_555 1_555
C12 C8 1_555 1_555
C13 C10 1_555 1_555
C14 C1 1_555 1_555
C15 C14 1_555 1_555
H3 C15 1_555 1_555
C16 C15 1_555 1_555
H4 C16 1_555 1_555
C17 C16 1_555 1_555
H5 C17 1_555 1_555
C18 C17 1_555 1_555
H6 C18 1_555 1_555
C19 C14 1_555 1_555
H7 C19 1_555 1_555
C20 C2 1_555 1_555
C21 C20 1_555 1_555
H8 C21 1_555 1_555
C22 C21 1_555 1_555
H9 C22 1_555 1_555
C23 C22 1_555 1_555
H10 C23 1_555 1_555
C24 C23 1_555 1_555
H11 C24 1_555 1_555
C25 C20 1_555 1_555
H12 C25 1_555 1_555
C26 C3 1_555 1_555
C27 C26 1_555 1_555
H13 C27 1_555 1_555
C28 C27 1_555 1_555
H14 C28 1_555 1_555
C29 C28 1_555 1_555
H15 C29 1_555 1_555
C30 C29 1_555 1_555
H16 C30 1_555 1_555
C31 C26 1_555 1_555
H17 C31 1_555 1_555
C32 C4 1_555 1_555
C33 C32 1_555 1_555
H18 C33 1_555 1_555
C34 C33 1_555 1_555
H19 C34 1_555 1_555
C35 C34 1_555 1_555
H20 C35 1_555 1_555
C36 C35 1_555 1_555
H21 C36 1_555 1_555
C37 C32 1_555 1_555
H22 C37 1_555 1_555
F1 C11 1_555 1_555
F2 C11 1_555 1_555
F3 C11 1_555 1_555
F4 C13 1_555 1_555
F5 C13 1_555 1_555
F6 C13 1_555 1_555
F7 C12 1_555 1_555
F8 C12 1_555 1_555
F9 C12 1_555 1_555
C9 C10 1_555 1_555
C18 C19 1_555 1_555
C24 C25 1_555 1_555
C30 C31 1_555 1_555
C36 C37 1_555 1_555

#END
