
#######################################################################
#
#                 Cambridge Crystallographic Data Centre
#                                CCDC 
#
#######################################################################
#
# If this CIF has been generated from an entry in the Cambridge 
# Structural Database, then it will include bibliographic, chemical, 
# crystal, experimental, refinement or atomic coordinate data resulting 
# from the CCDC's data processing and validation procedures.
#
#######################################################################

data_AHAWAJ
_chemical_formula_moiety         'C28 H20 B1 F9 O1'
_chemical_name_systematic        
'((2-benzylidenecyclopentylidene)(phenyl)methyl)(2,4,6-tris(trifluoromethyl)phenyl)borinic acid'
_symmetry_cell_setting           monoclinic
_symmetry_space_group_name_H-M   'P 21/n'
_symmetry_Int_Tables_number      14
_space_group_name_Hall           '-P 2yn'
loop_
_symmetry_equiv_pos_site_id
_symmetry_equiv_pos_as_xyz
1 x,y,z
2 1/2-x,1/2+y,1/2-z
3 -x,-y,-z
4 1/2+x,1/2-y,1/2+z
_cell_length_a                   8.6666(11)
_cell_length_b                   35.693(5)
_cell_length_c                   15.690(2)
_cell_angle_alpha                90
_cell_angle_beta                 91.689(4)
_cell_angle_gamma                90
_cell_volume                     4851.39
_exptl_crystal_colour            colorless
_exptl_crystal_description       needle
_cell_formula_units_Z            8
loop_
_atom_site_label
_atom_site_type_symbol
_atom_site_fract_x
_atom_site_fract_y
_atom_site_fract_z
F1 F 1.2185(3) -0.02903(7) 0.26932(19)
F2 F 1.4132(3) -0.06178(9) 0.3102(2)
F3 F 1.3410(4) -0.06115(8) 0.17855(19)
F4 F 1.4011(4) -0.19427(10) 0.3342(3)
F5 F 1.2548(5) -0.21663(8) 0.2346(2)
F6 F 1.1858(4) -0.21984(9) 0.3631(2)
F7 F 0.7096(3) -0.15632(8) 0.2590(2)
F8 F 0.7138(4) -0.11832(9) 0.36467(19)
F9 F 0.7087(3) -0.09744(8) 0.2368(2)
O1 O 0.9339(4) -0.04355(9) 0.1745(2)
H1 H 0.8865 -0.0232 0.1669
C1 C 0.8605(5) -0.02616(13) 0.3255(3)
C2 C 0.8450(6) -0.03268(13) 0.4099(3)
C3 C 0.7214(6) -0.01481(14) 0.4632(3)
H2 H 0.6175 -0.0193 0.4372
H3 H 0.7382 0.0125 0.4682
C4 C 0.7367(7) -0.03368(14) 0.5514(3)
H4 H 0.6340 -0.0377 0.5760
H5 H 0.8004 -0.0183 0.5914
C5 C 0.8162(6) -0.07140(15) 0.5333(3)
H6 H 0.8739 -0.0808 0.5843
H7 H 0.7405 -0.0906 0.5138
C6 C 0.9235(6) -0.06092(14) 0.4634(3)
C7 C 1.0730(6) -0.06973(13) 0.4560(3)
H8 H 1.1289 -0.0544 0.4182
C8 C 1.0251(6) -0.09103(13) 0.2758(3)
C9 C 1.1868(5) -0.09454(13) 0.2735(3)
C10 C 1.2600(6) -0.12872(13) 0.2836(3)
H9 H 1.3691 -0.1303 0.2803
C11 C 1.1751(6) -0.16031(14) 0.2983(3)
C12 C 1.0155(6) -0.15860(13) 0.3000(3)
H10 H 0.9569 -0.1806 0.3092
C13 C 0.9421(6) -0.12426(14) 0.2880(3)
C14 C 1.2869(6) -0.06190(14) 0.2582(3)
C15 C 1.2535(7) -0.19740(14) 0.3081(4)
C16 C 0.7693(6) -0.12407(13) 0.2872(3)
C17 C 0.7766(6) 0.00697(12) 0.2882(3)
C18 C 0.6481(6) 0.00304(13) 0.2350(3)
H11 H 0.6104 -0.0213 0.2219
C19 C 0.5723(6) 0.03428(14) 0.1999(3)
H12 H 0.4845 0.0312 0.1629
C20 C 0.6267(6) 0.06981(15) 0.2197(3)
H13 H 0.5762 0.0912 0.1961
C21 C 0.7539(6) 0.07422(14) 0.2736(3)
H14 H 0.7903 0.0986 0.2878
C22 C 0.8285(6) 0.04302(15) 0.3071(3)
H15 H 0.9168 0.0463 0.3437
C23 C 1.1618(6) -0.09976(13) 0.4981(3)
C24 C 1.3232(6) -0.09795(15) 0.5020(3)
H16 H 1.3737 -0.0766 0.4797
C25 C 1.4102(7) -0.12651(16) 0.5375(3)
H17 H 1.5194 -0.1244 0.5409
C26 C 1.3391(6) -0.15829(16) 0.5681(3)
H18 H 1.3990 -0.1781 0.5923
C27 C 1.1801(6) -0.16086(15) 0.5632(3)
H19 H 1.1308 -0.1825 0.5846
C28 C 1.0917(6) -0.13230(14) 0.5277(3)
H20 H 0.9827 -0.1348 0.5234
B1 B 0.9409(6) -0.05189(15) 0.2594(3)
F10 F 0.7289(4) 0.11297(8) 1.0041(2)
F11 F 0.6150(4) 0.14190(9) 0.9000(2)
F12 F 0.5471(3) 0.15125(9) 1.0286(2)
F13 F 0.7990(7) 0.30487(13) 0.9444(4)
F14 F 0.7804(11) 0.29921(18) 1.0764(4)
F15 F 0.5957(6) 0.28302(14) 0.9926(6)
F16 F 1.2796(4) 0.23166(8) 0.98589(18)
F17 F 1.2611(3) 0.19197(8) 1.08664(18)
F18 F 1.2575(3) 0.17305(8) 0.95695(19)
O2 O 1.0068(4) 0.11558(9) 0.9148(2)
H21 H 1.0450 0.0939 0.9161
C29 C 1.0870(6) 0.10863(13) 1.0709(3)
C30 C 1.0986(6) 0.11886(14) 1.1541(3)
C31 C 1.2011(6) 0.10070(15) 1.2217(3)
H22 H 1.2835 0.0856 1.1959
H23 H 1.1407 0.0845 1.2596
C32 C 1.2680(7) 0.13444(15) 1.2700(3)
H24 H 1.3645 0.1430 1.2438
H25 H 1.2911 0.1279 1.3303
C33 C 1.1442(6) 0.16524(15) 1.2638(3)
H26 H 1.0923 0.1681 1.3188
H27 H 1.1906 0.1895 1.2482
C34 C 1.0309(6) 0.15208(14) 1.1948(3)
C35 C 0.8845(6) 0.16261(13) 1.1827(3)
H28 H 0.8237 0.1471 1.1457
C36 C 0.9418(6) 0.17162(14) 0.9958(3)
C37 C 0.7823(6) 0.17746(14) 0.9883(3)
C38 C 0.7195(6) 0.21327(14) 0.9895(3)
H29 H 0.6109 0.2166 0.9836
C39 C 0.8147(6) 0.24396(14) 0.9994(3)
C40 C 0.9723(6) 0.23952(14) 1.0058(3)
H30 H 1.0374 0.2608 1.0123
C41 C 1.0358(6) 0.20373(14) 1.0029(3)
C42 C 0.6714(6) 0.14599(15) 0.9798(3)
C43 C 0.7472(7) 0.28246(15) 1.0050(4)
C44 C 1.2084(6) 0.20017(14) 1.0085(3)
C45 C 1.1631(6) 0.07258(14) 1.0468(3)
C46 C 1.2861(6) 0.07250(14) 0.9923(3)
H31 H 1.3254 0.0956 0.9719
C47 C 1.3521(6) 0.03919(15) 0.9673(3)
H32 H 1.4367 0.0394 0.9301
C48 C 1.2953(6) 0.00550(14) 0.9964(3)
H33 H 1.3392 -0.0174 0.9782
C49 C 1.1754(6) 0.00518(14) 1.0516(3)
H34 H 1.1375 -0.0179 1.0725
C50 C 1.1100(6) 0.03849(14) 1.0767(3)
H35 H 1.0272 0.0381 1.1150
C51 C 0.8050(6) 0.19460(14) 1.2185(3)
C52 C 0.8799(7) 0.22602(14) 1.2523(3)
H36 H 0.9894 0.2273 1.2518
C53 C 0.7990(8) 0.25518(15) 1.2862(3)
H37 H 0.8525 0.2763 1.3090
C54 C 0.6397(7) 0.25385(16) 1.2872(3)
H38 H 0.5839 0.2737 1.3123
C55 C 0.5615(7) 0.22363(16) 1.2517(4)
H39 H 0.4519 0.2230 1.2512
C56 C 0.6425(6) 0.19457(16) 1.2174(3)
H40 H 0.5879 0.1741 1.1923
B2 B 1.0122(7) 0.13021(16) 0.9934(4)
F19? F 0.846(3) 0.3060(7) 1.0414(18)
F20? F 0.627(2) 0.2840(5) 1.0510(13)
F21? F 0.708(4) 0.2951(8) 0.9354(18)
loop_
_geom_bond_atom_site_label_1
_geom_bond_atom_site_label_2
_geom_bond_site_symmetry_1
_geom_bond_site_symmetry_2
F1 C14 1_555 1_555
F2 C14 1_555 1_555
F3 C14 1_555 1_555
F4 C15 1_555 1_555
F5 C15 1_555 1_555
F6 C15 1_555 1_555
F7 C16 1_555 1_555
F8 C16 1_555 1_555
F9 C16 1_555 1_555
O1 H1 1_555 1_555
C1 C2 1_555 1_555
C2 C3 1_555 1_555
C3 H2 1_555 1_555
H3 C3 1_555 1_555
C4 C3 1_555 1_555
H4 C4 1_555 1_555
H5 C4 1_555 1_555
C5 C4 1_555 1_555
H6 C5 1_555 1_555
H7 C5 1_555 1_555
C6 C2 1_555 1_555
C7 C6 1_555 1_555
H8 C7 1_555 1_555
C8 C9 1_555 1_555
C9 C10 1_555 1_555
C10 H9 1_555 1_555
C11 C10 1_555 1_555
C12 C11 1_555 1_555
H10 C12 1_555 1_555
C13 C8 1_555 1_555
C14 C9 1_555 1_555
C15 C11 1_555 1_555
C16 C13 1_555 1_555
C17 C1 1_555 1_555
C18 C17 1_555 1_555
H11 C18 1_555 1_555
C19 C18 1_555 1_555
H12 C19 1_555 1_555
C20 C19 1_555 1_555
H13 C20 1_555 1_555
C21 C20 1_555 1_555
H14 C21 1_555 1_555
C22 C17 1_555 1_555
H15 C22 1_555 1_555
C23 C7 1_555 1_555
C24 C23 1_555 1_555
H16 C24 1_555 1_555
C25 C24 1_555 1_555
H17 C25 1_555 1_555
C26 C25 1_555 1_555
H18 C26 1_555 1_555
C27 C26 1_555 1_555
H19 C27 1_555 1_555
C28 C23 1_555 1_555
H20 C28 1_555 1_555
B1 O1 1_555 1_555
F10 C42 1_555 1_555
F11 C42 1_555 1_555
F12 C42 1_555 1_555
F13 C43 1_555 1_555
F14 C43 1_555 1_555
F15 C43 1_555 1_555
F16 C44 1_555 1_555
F17 C44 1_555 1_555
F18 C44 1_555 1_555
O2 H21 1_555 1_555
C29 C30 1_555 1_555
C30 C31 1_555 1_555
C31 H22 1_555 1_555
H23 C31 1_555 1_555
C32 C31 1_555 1_555
H24 C32 1_555 1_555
H25 C32 1_555 1_555
C33 C32 1_555 1_555
H26 C33 1_555 1_555
H27 C33 1_555 1_555
C34 C30 1_555 1_555
C35 C34 1_555 1_555
H28 C35 1_555 1_555
C36 C37 1_555 1_555
C37 C38 1_555 1_555
C38 H29 1_555 1_555
C39 C38 1_555 1_555
C40 C39 1_555 1_555
H30 C40 1_555 1_555
C41 C36 1_555 1_555
C42 C37 1_555 1_555
C43 C39 1_555 1_555
C44 C41 1_555 1_555
C45 C29 1_555 1_555
C46 C45 1_555 1_555
H31 C46 1_555 1_555
C47 C46 1_555 1_555
H32 C47 1_555 1_555
C48 C47 1_555 1_555
H33 C48 1_555 1_555
C49 C48 1_555 1_555
H34 C49 1_555 1_555
C50 C45 1_555 1_555
H35 C50 1_555 1_555
C51 C35 1_555 1_555
C52 C51 1_555 1_555
H36 C52 1_555 1_555
C53 C52 1_555 1_555
H37 C53 1_555 1_555
C54 C53 1_555 1_555
H38 C54 1_555 1_555
C55 C54 1_555 1_555
H39 C55 1_555 1_555
C56 C51 1_555 1_555
H40 C56 1_555 1_555
B2 O2 1_555 1_555
C1 B1 1_555 1_555
C5 C6 1_555 1_555
C8 B1 1_555 1_555
C12 C13 1_555 1_555
C21 C22 1_555 1_555
C27 C28 1_555 1_555
C29 B2 1_555 1_555
C33 C34 1_555 1_555
C36 B2 1_555 1_555
C40 C41 1_555 1_555
C49 C50 1_555 1_555
C55 C56 1_555 1_555

#END
