
#######################################################################
#
#                 Cambridge Crystallographic Data Centre
#                                CCDC 
#
#######################################################################
#
# If this CIF has been generated from an entry in the Cambridge 
# Structural Database, then it will include bibliographic, chemical, 
# crystal, experimental, refinement or atomic coordinate data resulting 
# from the CCDC's data processing and validation procedures.
#
#######################################################################

data_AHBPRG
_chemical_formula_moiety         'C23 H33 Br1 O5'
_chemical_name_systematic        
3\b-Acetoxy-17\a-hydroxy-16\b-bromo-5\a-pregnan-11,20-dione
_symmetry_cell_setting           orthorhombic
_symmetry_space_group_name_H-M   'P 21 21 21'
_symmetry_Int_Tables_number      19
_space_group_name_Hall           'P 2ac 2ab'
loop_
_symmetry_equiv_pos_site_id
_symmetry_equiv_pos_as_xyz
1 x,y,z
2 1/2+x,1/2-y,-z
3 -x,1/2+y,1/2-z
4 1/2-x,-y,1/2+z
_cell_length_a                   11.521(3)
_cell_length_b                   19.587(1)
_cell_length_c                   10.390(1)
_cell_angle_alpha                90
_cell_angle_beta                 90
_cell_angle_gamma                90
_cell_volume                     2344.63
_cell_formula_units_Z            4
loop_
_atom_site_label
_atom_site_type_symbol
_atom_site_fract_x
_atom_site_fract_y
_atom_site_fract_z
Br1 Br -0.47640 0.32610 0.00870
C1 C -0.65280 0.75810 -0.12350
C2 C -0.55970 0.71110 -0.06490
C3 C -0.65450 0.60520 -0.17030
C4 C -0.70920 0.53630 -0.15920
C5 C -0.62050 0.48960 -0.09350
C6 C -0.58790 0.51960 0.04100
C7 C -0.52300 0.45860 0.10570
C8 C -0.58930 0.39590 0.06570
C9 C -0.67220 0.41980 -0.04710
C10 C -0.51380 0.47740 -0.18070
C11 C -0.44680 0.71220 -0.14370
C12 C -0.62200 0.83750 -0.11490
C13 C -0.69670 0.36390 -0.14320
C14 C -0.74840 0.30040 -0.09660
C15 C -0.63920 0.97380 0.02490
C16 C -0.58880 1.04740 0.01960
C17 C -0.59870 0.85380 0.02410
C18 C -0.50210 0.81330 0.08390
C19 C -0.54160 0.73880 0.07990
C20 C -0.45620 0.69090 0.15120
C21 C -0.50350 0.61840 0.16000
C22 C -0.52670 0.59000 0.02450
C23 C -0.60880 0.63610 -0.04700
O1 O -0.64800 0.63230 -0.27740
O2 O -0.78170 0.43500 0.00940
O3 O -0.68410 0.37310 -0.26170
O4 O -0.74440 0.96070 0.01280
O5 O -0.55980 0.92640 0.03030
loop_
_geom_bond_atom_site_label_1
_geom_bond_atom_site_label_2
_geom_bond_site_symmetry_1
_geom_bond_site_symmetry_2
Br1 C8 1_555 1_555
C1 C2 1_555 1_555
C2 C11 1_555 1_555
C3 C4 1_555 1_555
C4 C5 1_555 1_555
C5 C6 1_555 1_555
C6 C7 1_555 1_555
C7 C8 1_555 1_555
C8 C9 1_555 1_555
C9 C5 1_555 1_555
C10 C5 1_555 1_555
C12 C1 1_555 1_555
C13 C9 1_555 1_555
C14 C13 1_555 1_555
C15 C16 1_555 1_555
C17 C12 1_555 1_555
C18 C17 1_555 1_555
C19 C2 1_555 1_555
C20 C19 1_555 1_555
C21 C20 1_555 1_555
C22 C6 1_555 1_555
C23 C2 1_555 1_555
O1 C3 1_555 1_555
O2 C9 1_555 1_555
O3 C13 1_555 1_555
O4 C15 1_555 1_555
O5 C15 1_555 1_555
C3 C23 1_555 1_555
C17 O5 1_555 1_555
C18 C19 1_555 1_555
C21 C22 1_555 1_555
C22 C23 1_555 1_555

#END
