
#######################################################################
#
#                 Cambridge Crystallographic Data Centre
#                                CCDC 
#
#######################################################################
#
# If this CIF has been generated from an entry in the Cambridge 
# Structural Database, then it will include bibliographic, chemical, 
# crystal, experimental, refinement or atomic coordinate data resulting 
# from the CCDC's data processing and validation procedures.
#
#######################################################################

data_AHECOH
_chemical_formula_moiety         'C10 H9 F3 N2 O3'
_chemical_name_systematic        
'2,2,2-trifluoroethyl N-(4-nitrophenyl)ethanimidate'
_symmetry_cell_setting           triclinic
_symmetry_space_group_name_H-M   'P -1'
_symmetry_Int_Tables_number      2
_space_group_name_Hall           '-P 1'
loop_
_symmetry_equiv_pos_site_id
_symmetry_equiv_pos_as_xyz
1 x,y,z
2 -x,-y,-z
_cell_length_a                   7.6042(8)
_cell_length_b                   8.5956(8)
_cell_length_c                   9.9313(10)
_cell_angle_alpha                106.478(8)
_cell_angle_beta                 105.648(9)
_cell_angle_gamma                105.686(8)
_cell_volume                     555.505
_cell_formula_units_Z            2
loop_
_atom_site_label
_atom_site_type_symbol
_atom_site_fract_x
_atom_site_fract_y
_atom_site_fract_z
C1 C 0.2687(3) 0.2419(2) 0.6791(2)
C2 C 0.2288(3) 0.1982(2) 0.5247(2)
H1 H 0.2032 0.2774 0.4794
C3 C 0.2265(3) 0.0408(2) 0.4375(2)
H2 H 0.2006 0.0109 0.3325
C4 C 0.2626(3) -0.0731(2) 0.5057(2)
C5 C 0.3027(3) -0.0327(2) 0.6579(2)
H3 H 0.3276 -0.1128 0.7024
C6 C 0.3062(3) 0.1257(2) 0.7445(2)
H4 H 0.3345 0.1555 0.8498
C7 C 0.3613(3) 0.5439(2) 0.7894(2)
C8 C 0.5349(3) 0.6007(3) 0.7479(3)
H5 H 0.5809 0.5043 0.7216
H6 H 0.6408 0.7015 0.8340
H7 H 0.4976 0.6339 0.6609
C9 C 0.1734(3) 0.6473(2) 0.9207(2)
H8 H 0.2161 0.6200 1.0117
H9 H 0.0575 0.5453 0.8417
C10 C 0.1229(3) 0.8053(3) 0.9584(2)
F1 F 0.2769(2) 0.95099(15) 1.05262(16)
F2 F 0.0424(2) 0.83506(18) 0.83587(16)
F3 F -0.0086(2) 0.78549(16) 1.02407(14)
N1 N 0.2516(3) 0.3930(2) 0.76681(19)
N2 N 0.2494(3) -0.2438(2) 0.4116(2)
O1 O 0.2372(3) -0.35781(19) 0.46351(19)
O2 O 0.2499(2) -0.26718(18) 0.28455(17)
O3 O 0.3294(2) 0.68546(16) 0.86685(15)
loop_
_geom_bond_atom_site_label_1
_geom_bond_atom_site_label_2
_geom_bond_site_symmetry_1
_geom_bond_site_symmetry_2
C1 C2 1_555 1_555
C2 H1 1_555 1_555
C3 C2 1_555 1_555
H2 C3 1_555 1_555
C4 C3 1_555 1_555
C5 C4 1_555 1_555
H3 C5 1_555 1_555
C6 C1 1_555 1_555
H4 C6 1_555 1_555
C7 C8 1_555 1_555
C8 H5 1_555 1_555
H6 C8 1_555 1_555
H7 C8 1_555 1_555
C9 H8 1_555 1_555
H9 C9 1_555 1_555
C10 C9 1_555 1_555
F1 C10 1_555 1_555
F2 C10 1_555 1_555
F3 C10 1_555 1_555
N1 C1 1_555 1_555
N2 C4 1_555 1_555
O1 N2 1_555 1_555
O2 N2 1_555 1_555
O3 C7 1_555 1_555
C5 C6 1_555 1_555
C7 N1 1_555 1_555
C9 O3 1_555 1_555

#END
