
#######################################################################
#
#                 Cambridge Crystallographic Data Centre
#                                CCDC 
#
#######################################################################
#
# If this CIF has been generated from an entry in the Cambridge 
# Structural Database, then it will include bibliographic, chemical, 
# crystal, experimental, refinement or atomic coordinate data resulting 
# from the CCDC's data processing and validation procedures.
#
#######################################################################

data_AHECIB
_chemical_formula_moiety         'C8 H5 Cl3 F3 N1'
_chemical_name_systematic        
2,4,5-trichloro-N-(2,2,2-trifluoroethyl)aniline
_symmetry_cell_setting           orthorhombic
_symmetry_space_group_name_H-M   'P b c a'
_symmetry_Int_Tables_number      61
_space_group_name_Hall           '-P 2ac 2ab'
loop_
_symmetry_equiv_pos_site_id
_symmetry_equiv_pos_as_xyz
1 x,y,z
2 1/2-x,-y,1/2+z
3 1/2+x,1/2-y,-z
4 -x,1/2+y,1/2-z
5 -x,-y,-z
6 1/2+x,y,1/2-z
7 1/2-x,1/2+y,z
8 x,1/2-y,1/2+z
_cell_length_a                   5.4256(3)
_cell_length_b                   11.3955(6)
_cell_length_c                   32.5568(15)
_cell_angle_alpha                90
_cell_angle_beta                 90
_cell_angle_gamma                90
_cell_volume                     2012.9
_cell_formula_units_Z            8
loop_
_atom_site_label
_atom_site_type_symbol
_atom_site_fract_x
_atom_site_fract_y
_atom_site_fract_z
C1 C 0.6678(5) 0.8006(2) 0.32938(7)
C2 C 0.4977(5) 0.7453(2) 0.30470(7)
H1 H 0.4909 0.7628 0.2762
C3 C 0.3372(5) 0.6647(2) 0.32140(7)
C4 C 0.3454(4) 0.64218(19) 0.36332(7)
C5 C 0.5116(5) 0.6999(2) 0.38814(7)
H2 H 0.5119 0.6848 0.4168
C6 C 0.6793(5) 0.7802(2) 0.37185(7)
C7 C 0.9009(5) 0.8118(2) 0.43784(8)
H3 H 1.0786 0.8243 0.4432
H4 H 0.8643 0.7278 0.4427
C8 C 0.7540(5) 0.8845(2) 0.46704(7)
Cl1 Cl 0.87594(13) 0.89711(6) 0.30736(2)
Cl2 Cl 0.13075(13) 0.59239(6) 0.28977(2)
Cl3 Cl 0.14684(12) 0.54178(5) 0.38545(2)
F1 F 0.7977(4) 0.99975(13) 0.46330(5)
F2 F 0.8049(4) 0.85650(15) 0.50624(4)
F3 F 0.5100(3) 0.87187(15) 0.46252(5)
N1 N 0.8493(4) 0.8395(2) 0.39568(6)
H5 H 0.9309 0.8978 0.3843
loop_
_geom_bond_atom_site_label_1
_geom_bond_atom_site_label_2
_geom_bond_site_symmetry_1
_geom_bond_site_symmetry_2
C1 C2 1_555 1_555
C2 H1 1_555 1_555
C3 C2 1_555 1_555
C4 C3 1_555 1_555
C5 C4 1_555 1_555
H2 C5 1_555 1_555
C6 C1 1_555 1_555
C7 H3 1_555 1_555
H4 C7 1_555 1_555
C8 C7 1_555 1_555
Cl1 C1 1_555 1_555
Cl2 C3 1_555 1_555
Cl3 C4 1_555 1_555
F1 C8 1_555 1_555
F2 C8 1_555 1_555
F3 C8 1_555 1_555
N1 C6 1_555 1_555
H5 N1 1_555 1_555
C5 C6 1_555 1_555
C7 N1 1_555 1_555

#END
