
#######################################################################
#
#                 Cambridge Crystallographic Data Centre
#                                CCDC 
#
#######################################################################
#
# If this CIF has been generated from an entry in the Cambridge 
# Structural Database, then it will include bibliographic, chemical, 
# crystal, experimental, refinement or atomic coordinate data resulting 
# from the CCDC's data processing and validation procedures.
#
#######################################################################

data_AHEJEC01
_chemical_formula_moiety         'C5 H11 N1 O2'
_chemical_name_systematic        D-Valine
_symmetry_cell_setting           monoclinic
_symmetry_space_group_name_H-M   'P 21'
_symmetry_Int_Tables_number      4
_space_group_name_Hall           'P 2yb'
loop_
_symmetry_equiv_pos_site_id
_symmetry_equiv_pos_as_xyz
1 x,y,z
2 -x,1/2+y,-z
_cell_length_a                   9.6610(5)
_cell_length_b                   5.2457(3)
_cell_length_c                   11.9408(7)
_cell_angle_alpha                90
_cell_angle_beta                 90.5851(19)
_cell_angle_gamma                90
_cell_volume                     605.113
_exptl_crystal_colour            colorless
_exptl_crystal_description       plate
_cell_formula_units_Z            4
_exptl_crystal_preparation       diamagnetic
loop_
_atom_site_label
_atom_site_type_symbol
_atom_site_fract_x
_atom_site_fract_y
_atom_site_fract_z
O1 O -0.85470(9) -0.46582(18) -0.39606(8)
O2 O -0.77527(9) -0.07095(18) -0.36781(9)
N1 N -0.58808(11) -0.6466(2) -0.37257(10)
C1 C -0.63498(12) -0.4209(3) -0.30661(10)
C2 C -0.76498(12) -0.3065(3) -0.36292(10)
C3 C -0.66622(13) -0.5032(3) -0.18564(11)
C4 C -0.71672(19) -0.2783(4) -0.11631(13)
C5 C -0.54056(15) -0.6242(3) -0.12842(13)
H1 H -0.4994(17) -0.688(3) -0.3563(12)
H2 H -0.5980(15) -0.620(3) -0.4479(16)
H3 H -0.6450(18) -0.788(4) -0.3642(15)
H4 H -0.5601(16) -0.296(3) -0.3061(13)
H5 H -0.7390(14) -0.629(3) -0.1875(12)
H6 H -0.5025(18) -0.769(4) -0.1693(16)
H7 H -0.464(2) -0.500(4) -0.1212(17)
H8 H -0.5594(17) -0.684(4) -0.0518(16)
H9 H -0.639(2) -0.142(6) -0.114(2)
H10 H -0.7361(19) -0.338(4) -0.040(2)
H11 H -0.801(2) -0.193(4) -0.1483(18)
O3 O -0.37247(8) -1.07445(18) -0.39968(8)
O4 O -0.29365(9) -0.70276(17) -0.33575(8)
N2 N -0.12392(11) -1.2898(2) -0.41127(10)
C6 C -0.13371(12) -1.0468(2) -0.34674(11)
C7 C -0.27822(12) -0.9321(3) -0.36326(11)
C8 C -0.09733(12) -1.0951(3) -0.22242(11)
C9 C -0.04262(15) -0.8537(3) -0.16668(14)
C10 C -0.21903(15) -1.2063(3) -0.15742(13)
H12 H -0.0349(19) -1.350(4) -0.4057(15)
H13 H -0.1433(14) -1.257(3) -0.4854(13)
H14 H -0.1785(17) -1.413(3) -0.3845(13)
H15 H -0.0658(14) -0.931(3) -0.3802(12)
H16 H -0.0197(15) -1.221(3) -0.2260(12)
H17 H 0.0299(19) -0.779(4) -0.2129(16)
H18 H -0.114(2) -0.725(4) -0.1653(16)
H19 H -0.0112(18) -0.887(4) -0.0889(16)
H20 H -0.2907(17) -1.082(4) -0.1534(14)
H21 H -0.2579(18) -1.345(4) -0.1930(16)
H22 H -0.1902(16) -1.260(4) -0.0840(16)
loop_
_geom_bond_atom_site_label_1
_geom_bond_atom_site_label_2
_geom_bond_site_symmetry_1
_geom_bond_site_symmetry_2
O1 C2 1_555 1_555
O2 C2 1_555 1_555
N1 C1 1_555 1_555
C1 C2 1_555 1_555
C3 C1 1_555 1_555
C4 C3 1_555 1_555
C5 C3 1_555 1_555
H1 N1 1_555 1_555
H2 N1 1_555 1_555
H3 N1 1_555 1_555
H4 C1 1_555 1_555
H5 C3 1_555 1_555
H6 C5 1_555 1_555
H7 C5 1_555 1_555
H8 C5 1_555 1_555
H9 C4 1_555 1_555
H10 C4 1_555 1_555
H11 C4 1_555 1_555
O3 C7 1_555 1_555
O4 C7 1_555 1_555
N2 C6 1_555 1_555
C6 C7 1_555 1_555
C8 C6 1_555 1_555
C9 C8 1_555 1_555
C10 C8 1_555 1_555
H12 N2 1_555 1_555
H13 N2 1_555 1_555
H14 N2 1_555 1_555
H15 C6 1_555 1_555
H16 C8 1_555 1_555
H17 C9 1_555 1_555
H18 C9 1_555 1_555
H19 C9 1_555 1_555
H20 C10 1_555 1_555
H21 C10 1_555 1_555
H22 C10 1_555 1_555

#END
