
#######################################################################
#
#                 Cambridge Crystallographic Data Centre
#                                CCDC 
#
#######################################################################
#
# If this CIF has been generated from an entry in the Cambridge 
# Structural Database, then it will include bibliographic, chemical, 
# crystal, experimental, refinement or atomic coordinate data resulting 
# from the CCDC's data processing and validation procedures.
#
#######################################################################

data_AHELIK
_chemical_formula_moiety         'C17 H23 N3 O3'
_chemical_name_systematic        
5-(3-(Dimethylamino)benzylidene)-3-(2-hydroxyethyl)-2-(2-hydroxypropyl)-3,5-dihydro-4H-imidazol-4-one
_symmetry_cell_setting           monoclinic
_symmetry_space_group_name_H-M   'P 21/n'
_symmetry_Int_Tables_number      14
_space_group_name_Hall           '-P 2yn'
loop_
_symmetry_equiv_pos_site_id
_symmetry_equiv_pos_as_xyz
1 x,y,z
2 1/2-x,1/2+y,1/2-z
3 -x,-y,-z
4 1/2+x,1/2-y,1/2+z
_cell_length_a                   9.3568(4)
_cell_length_b                   15.0678(6)
_cell_length_c                   11.9128(5)
_cell_angle_alpha                90
_cell_angle_beta                 100.597(4)
_cell_angle_gamma                90
_cell_volume                     1650.9
_exptl_crystal_description       plate
_cell_formula_units_Z            4
loop_
_atom_site_label
_atom_site_type_symbol
_atom_site_fract_x
_atom_site_fract_y
_atom_site_fract_z
O1 O 0.09373(19) 0.76730(12) 0.45700(16)
O2 O -0.1860(2) 1.01111(12) 0.76111(18)
H1 H -0.180(4) 1.008(3) 0.672(3)
O3 O -0.1605(2) 0.65274(13) 0.6756(2)
H2 H -0.198(4) 0.608(3) 0.697(4)
N1 N 0.0080(2) 0.79118(12) 0.62498(17)
N2 N -0.1413(2) 0.90763(13) 0.57686(16)
N3 N -0.4596(2) 1.15715(15) 0.4041(2)
C1 C -0.0815(2) 0.88458(15) 0.4815(2)
C2 C 0.0188(2) 0.80810(15) 0.5132(2)
C3 C -0.0881(2) 0.85214(14) 0.6574(2)
C4 C -0.1185(3) 0.85431(15) 0.7754(2)
H3 H -0.0262 0.8647 0.8294
H4 H -0.1560 0.7956 0.7933
C5 C -0.2279(3) 0.92536(18) 0.7943(2)
H5 H -0.328(3) 0.9372(17) 0.738(3)
C6 C -0.2404(4) 0.9302(2) 0.9184(3)
H6 H -0.3111 0.9761 0.9287
H7 H -0.1454 0.9450 0.9644
H8 H -0.2727 0.8727 0.9429
C7 C 0.0748(3) 0.71465(16) 0.6893(2)
H9 H 0.0876 0.7274 0.7721
H10 H 0.1721 0.7041 0.6705
C8 C -0.0172(3) 0.63230(16) 0.6624(2)
H11 H -0.0166 0.6128 0.5831
H12 H 0.0223 0.5836 0.7149
C9 C -0.1034(3) 0.92034(15) 0.3762(2)
H13 H -0.0494 0.8936 0.3250
C10 C -0.1968(2) 0.99349(15) 0.3282(2)
C11 C -0.2818(2) 1.04157(16) 0.3913(2)
H14 H -0.2801 1.0263 0.4689
C12 C -0.3702(3) 1.11218(16) 0.3425(2)
C13 C -0.3690(3) 1.13325(18) 0.2278(2)
H15 H -0.4269 1.1809 0.1926
C14 C -0.2846(3) 1.08553(19) 0.1657(2)
H16 H -0.2853 1.1010 0.0883
C15 C -0.1991(3) 1.01568(18) 0.2139(2)
H17 H -0.1425 0.9830 0.1698
C16 C -0.4474(3) 1.1393(2) 0.5248(3)
H18 H -0.4115 1.0787 0.5413
H19 H -0.5431 1.1456 0.5464
H20 H -0.3794 1.1816 0.5686
C17 C -0.5129(3) 1.2451(2) 0.3680(3)
H21 H -0.5181 1.2512 0.2854
H22 H -0.4465 1.2900 0.4079
H23 H -0.6099 1.2536 0.3862
loop_
_geom_bond_atom_site_label_1
_geom_bond_atom_site_label_2
_geom_bond_site_symmetry_1
_geom_bond_site_symmetry_2
O1 C2 1_555 1_555
O2 H1 1_555 1_555
O3 H2 1_555 1_555
N1 C2 1_555 1_555
N2 C1 1_555 1_555
N3 C12 1_555 1_555
C1 C2 1_555 1_555
C3 N1 1_555 1_555
C4 C3 1_555 1_555
H3 C4 1_555 1_555
H4 C4 1_555 1_555
C5 O2 1_555 1_555
H5 C5 1_555 1_555
C6 C5 1_555 1_555
H6 C6 1_555 1_555
H7 C6 1_555 1_555
H8 C6 1_555 1_555
C7 N1 1_555 1_555
H9 C7 1_555 1_555
H10 C7 1_555 1_555
C8 O3 1_555 1_555
H11 C8 1_555 1_555
H12 C8 1_555 1_555
C9 C1 1_555 1_555
H13 C9 1_555 1_555
C10 C9 1_555 1_555
C11 C10 1_555 1_555
H14 C11 1_555 1_555
C12 C11 1_555 1_555
C13 C12 1_555 1_555
H15 C13 1_555 1_555
C14 C13 1_555 1_555
H16 C14 1_555 1_555
C15 C10 1_555 1_555
H17 C15 1_555 1_555
C16 N3 1_555 1_555
H18 C16 1_555 1_555
H19 C16 1_555 1_555
H20 C16 1_555 1_555
C17 N3 1_555 1_555
H21 C17 1_555 1_555
H22 C17 1_555 1_555
H23 C17 1_555 1_555
N2 C3 1_555 1_555
C4 C5 1_555 1_555
C7 C8 1_555 1_555
C14 C15 1_555 1_555

#END
