
#######################################################################
#
#                 Cambridge Crystallographic Data Centre
#                                CCDC 
#
#######################################################################
#
# If this CIF has been generated from an entry in the Cambridge 
# Structural Database, then it will include bibliographic, chemical, 
# crystal, experimental, refinement or atomic coordinate data resulting 
# from the CCDC's data processing and validation procedures.
#
#######################################################################

data_AHEWOZ
_chemical_formula_moiety         'C5 H7 N5 2+,Br1 1-,I5 1-,H2 O1'
_chemical_name_systematic        
'Adenine-1,7-di-ium bromide pentaiodide monohydrate'
_symmetry_cell_setting           triclinic
_symmetry_space_group_name_H-M   'P -1'
_symmetry_Int_Tables_number      2
_space_group_name_Hall           '-P 1'
loop_
_symmetry_equiv_pos_site_id
_symmetry_equiv_pos_as_xyz
1 x,y,z
2 -x,-y,-z
_cell_length_a                   8.4401(3)
_cell_length_b                   10.5059(4)
_cell_length_c                   10.6470(3)
_cell_angle_alpha                102.676(2)
_cell_angle_beta                 92.067(2)
_cell_angle_gamma                101.7656(16)
_cell_volume                     898.483
_exptl_crystal_colour            red-brown
_exptl_crystal_description       block
_cell_formula_units_Z            2
loop_
_atom_site_label
_atom_site_type_symbol
_atom_site_fract_x
_atom_site_fract_y
_atom_site_fract_z
I1 I 0.26259(6) 0.46243(4) 0.63736(5)
I2 I 0.37336(5) 0.24019(4) 0.47170(4)
I3 I 0.49454(5) 0.02954(5) 0.30467(4)
I4 I 0.42141(6) 0.18076(5) 0.06412(5)
I5 I 0.35079(6) 0.31616(5) -0.11756(4)
Br1 Br 0.05470(9) 0.74791(7) 0.81962(6)
N1 N 0.0824(6) 0.8320(5) 0.1241(4)
H1 H 0.0815 0.8297 0.0429
C1 C 0.0291(8) 0.9292(6) 0.1996(6)
H2 H -0.0061 0.9900 0.1596
N2 N 0.0205(6) 0.9493(5) 0.3251(4)
C2 C 0.0775(6) 0.8551(5) 0.3725(5)
C3 C 0.1378(6) 0.7503(5) 0.3009(5)
C4 C 0.1396(7) 0.7337(6) 0.1674(5)
N3 N 0.1873(6) 0.6400(5) 0.0857(4)
H3 H 0.1832 0.6394 0.0048
H4 H 0.2229 0.5789 0.1128
N4 N 0.1830(6) 0.6821(5) 0.3872(4)
H5 H 0.2236 0.6122 0.3682
C5 C 0.1543(7) 0.7410(6) 0.5036(5)
H6 H 0.1761 0.7143 0.5790
N5 N 0.0881(6) 0.8465(5) 0.4969(4)
H7 H 0.0580 0.8991 0.5610
O1 O 0.2863(6) 0.4731(5) 0.2528(4)
H8 H 0.219(7) 0.387(4) 0.225(7)
H9 H 0.383(5) 0.466(7) 0.292(7)
loop_
_geom_bond_atom_site_label_1
_geom_bond_atom_site_label_2
_geom_bond_site_symmetry_1
_geom_bond_site_symmetry_2
I1 I2 1_555 1_555
I2 I3 1_555 1_555
I3 I4 1_555 1_555
I4 I5 1_555 1_555
N1 H1 1_555 1_555
C1 N1 1_555 1_555
H2 C1 1_555 1_555
N2 C1 1_555 1_555
C2 N2 1_555 1_555
C3 C2 1_555 1_555
C4 N1 1_555 1_555
N3 C4 1_555 1_555
H3 N3 1_555 1_555
H4 N3 1_555 1_555
N4 C3 1_555 1_555
H5 N4 1_555 1_555
C5 N4 1_555 1_555
H6 C5 1_555 1_555
N5 C2 1_555 1_555
H7 N5 1_555 1_555
O1 H8 1_555 1_555
H9 O1 1_555 1_555
C3 C4 1_555 1_555
C5 N5 1_555 1_555

#END
