
#######################################################################
#
#                 Cambridge Crystallographic Data Centre
#                                CCDC 
#
#######################################################################
#
# If this CIF has been generated from an entry in the Cambridge 
# Structural Database, then it will include bibliographic, chemical, 
# crystal, experimental, refinement or atomic coordinate data resulting 
# from the CCDC's data processing and validation procedures.
#
#######################################################################

data_AHIDUS01
_chemical_formula_moiety         'C34 H25 N3 O6'
_chemical_name_systematic        
"dimethyl 5',5'-dicyano-6'-(2-(3-methylphenyl)vinyl)-1,3-dioxo-1'-phenyl-1,3,5',6'-tetrahydro-1'H-spiro[indene-2,4'-pyridine]-2',3'-dicarboxylate"
_symmetry_cell_setting           triclinic
_symmetry_space_group_name_H-M   'P -1'
_symmetry_Int_Tables_number      2
_space_group_name_Hall           '-P 1'
loop_
_symmetry_equiv_pos_site_id
_symmetry_equiv_pos_as_xyz
1 x,y,z
2 -x,-y,-z
_cell_length_a                   10.963(2)
_cell_length_b                   12.057(3)
_cell_length_c                   12.362(3)
_cell_angle_alpha                83.195(8)
_cell_angle_beta                 66.986(7)
_cell_angle_gamma                81.841(7)
_cell_volume                     1485.18
_exptl_crystal_colour            colorless
_exptl_crystal_description       block
_cell_formula_units_Z            2
loop_
_atom_site_label
_atom_site_type_symbol
_atom_site_fract_x
_atom_site_fract_y
_atom_site_fract_z
C1 C 0.5570(3) 0.0918(2) 0.1620(3)
C2 C 0.4644(3) 0.0079(2) 0.2230(3)
C3 C 0.4313(4) -0.0764(3) 0.1763(3)
H1 H 0.4710 -0.0872 0.0961
C4 C 0.3392(5) -0.1429(3) 0.2507(5)
H2 H 0.3136 -0.1986 0.2206
C5 C 0.2833(4) -0.1299(3) 0.3688(5)
H3 H 0.2228 -0.1789 0.4175
C6 C 0.3139(3) -0.0458(3) 0.4187(3)
H4 H 0.2751 -0.0365 0.4991
C7 C 0.4060(3) 0.0236(2) 0.3413(3)
C8 C 0.4492(2) 0.1231(2) 0.3678(2)
C9 C 0.5354(2) 0.18140(18) 0.24947(19)
C10 C 0.4509(2) 0.28772(19) 0.2185(2)
C11 C 0.3170(3) 0.2607(2) 0.2366(2)
C12 C 0.5150(3) 0.3278(2) 0.0944(3)
C13 C 0.4376(2) 0.38591(19) 0.2967(2)
H5 H 0.4008 0.3583 0.3797
C14 C 0.3459(2) 0.4836(2) 0.2772(2)
H6 H 0.3701 0.5207 0.2027
C15 C 0.2334(3) 0.5194(2) 0.3597(2)
H7 H 0.2152 0.4851 0.4350
C16 C 0.1329(2) 0.60842(19) 0.3455(2)
C17 C 0.1355(2) 0.6500(2) 0.2348(2)
H8 H 0.2029 0.6209 0.1683
C18 C 0.0412(3) 0.7333(2) 0.2203(3)
C19 C 0.0477(3) 0.7772(3) 0.0989(3)
H9 H 0.1293 0.8106 0.0570
H10 H -0.0266 0.8326 0.1056
H11 H 0.0444 0.7164 0.0569
C20 C -0.0591(3) 0.7746(2) 0.3196(3)
H12 H -0.1247 0.8293 0.3120
C21 C -0.0631(3) 0.7355(3) 0.4297(3)
H13 H -0.1306 0.7649 0.4959
C22 C 0.0321(3) 0.6530(2) 0.4434(3)
H14 H 0.0283 0.6273 0.5185
C23 C 0.6700(3) 0.5716(3) 0.1384(3)
H15 H 0.6935 0.5270 0.0754
C24 C 0.7054(4) 0.6787(4) 0.1170(5)
H16 H 0.7514 0.7069 0.0405
C25 C 0.6731(5) 0.7416(4) 0.2069(7)
H17 H 0.7011 0.8131 0.1922
C26 C 0.6013(6) 0.7066(4) 0.3191(6)
H18 H 0.5775 0.7533 0.3804
C27 C 0.5628(4) 0.5943(3) 0.3406(4)
H19 H 0.5122 0.5672 0.4164
C28 C 0.6012(3) 0.5286(2) 0.2493(3)
C29 C 0.6714(2) 0.3274(2) 0.2579(2)
C30 C 0.7916(3) 0.3668(2) 0.2683(3)
C31 C 0.9910(3) 0.4440(3) 0.1713(4)
H20 H 0.9547 0.5087 0.2165
H21 H 1.0496 0.4667 0.0932
H22 H 1.0399 0.3918 0.2083
C32 C 0.6598(2) 0.21855(19) 0.2507(2)
C33 C 0.7618(3) 0.1258(2) 0.2501(2)
C34 C 0.9821(3) 0.0741(3) 0.2407(5)
H23 H 0.9511 0.0173 0.3035
H24 H 1.0521 0.1078 0.2489
H25 H 1.0155 0.0409 0.1664
N1 N 0.2143(3) 0.2403(2) 0.2506(3)
N2 N 0.5623(3) 0.3629(2) -0.0002(2)
N3 N 0.57229(19) 0.41322(15) 0.26839(18)
O1 O 0.6330(2) 0.09573(16) 0.06065(18)
O2 O 0.4214(2) 0.15775(17) 0.46251(18)
O3 O 0.7940(2) 0.37892(19) 0.3614(2)
O4 O 0.88286(19) 0.39065(15) 0.1649(2)
O5 O 0.74524(18) 0.02839(15) 0.25531(18)
O6 O 0.8736(2) 0.15890(15) 0.2459(2)
loop_
_geom_bond_atom_site_label_1
_geom_bond_atom_site_label_2
_geom_bond_site_symmetry_1
_geom_bond_site_symmetry_2
C1 C2 1_555 1_555
C2 C3 1_555 1_555
C3 H1 1_555 1_555
C4 C3 1_555 1_555
H2 C4 1_555 1_555
C5 C4 1_555 1_555
H3 C5 1_555 1_555
C6 C5 1_555 1_555
H4 C6 1_555 1_555
C7 C2 1_555 1_555
C8 C7 1_555 1_555
C9 C1 1_555 1_555
C10 C9 1_555 1_555
C11 C10 1_555 1_555
C12 C10 1_555 1_555
C13 C10 1_555 1_555
H5 C13 1_555 1_555
C14 C13 1_555 1_555
H6 C14 1_555 1_555
C15 C14 1_555 1_555
H7 C15 1_555 1_555
C16 C15 1_555 1_555
C17 C16 1_555 1_555
H8 C17 1_555 1_555
C18 C17 1_555 1_555
C19 C18 1_555 1_555
H9 C19 1_555 1_555
H10 C19 1_555 1_555
H11 C19 1_555 1_555
C20 C18 1_555 1_555
H12 C20 1_555 1_555
C21 C20 1_555 1_555
H13 C21 1_555 1_555
C22 C16 1_555 1_555
H14 C22 1_555 1_555
C23 H15 1_555 1_555
C24 C23 1_555 1_555
H16 C24 1_555 1_555
C25 C24 1_555 1_555
H17 C25 1_555 1_555
C26 C25 1_555 1_555
H18 C26 1_555 1_555
C27 C26 1_555 1_555
H19 C27 1_555 1_555
C28 C23 1_555 1_555
C29 C30 1_555 1_555
C30 O3 1_555 1_555
C31 H20 1_555 1_555
H21 C31 1_555 1_555
H22 C31 1_555 1_555
C32 C9 1_555 1_555
C33 C32 1_555 1_555
C34 H23 1_555 1_555
H24 C34 1_555 1_555
H25 C34 1_555 1_555
N1 C11 1_555 1_555
N2 C12 1_555 1_555
N3 C13 1_555 1_555
O1 C1 1_555 1_555
O2 C8 1_555 1_555
O4 C30 1_555 1_555
O5 C33 1_555 1_555
O6 C33 1_555 1_555
C6 C7 1_555 1_555
C8 C9 1_555 1_555
C21 C22 1_555 1_555
C27 C28 1_555 1_555
C28 N3 1_555 1_555
C29 C32 1_555 1_555
C29 N3 1_555 1_555
C31 O4 1_555 1_555
C34 O6 1_555 1_555

#END
