
#######################################################################
#
#                 Cambridge Crystallographic Data Centre
#                                CCDC 
#
#######################################################################
#
# If this CIF has been generated from an entry in the Cambridge 
# Structural Database, then it will include bibliographic, chemical, 
# crystal, experimental, refinement or atomic coordinate data resulting 
# from the CCDC's data processing and validation procedures.
#
#######################################################################

data_AHILEK
_chemical_formula_moiety         'C26 H24 B1 F2 N3,C1 H2 Cl2'
_chemical_name_systematic        
"3-(2-(5,5-difluoro-1,7,9-trimethyl-10-phenyl-5H-4,5-dipyrrolo[1,2-c:2',1'-f][1,3,2]diazaborinin-3-yl)vinyl)aniline dichloromethane solvate"
_symmetry_cell_setting           monoclinic
_symmetry_space_group_name_H-M   'P 21/c'
_symmetry_Int_Tables_number      14
_space_group_name_Hall           '-P 2ybc'
loop_
_symmetry_equiv_pos_site_id
_symmetry_equiv_pos_as_xyz
1 x,y,z
2 -x,1/2+y,1/2-z
3 -x,-y,-z
4 x,1/2-y,1/2+z
_cell_length_a                   19.318(4)
_cell_length_b                   7.0637(14)
_cell_length_c                   19.042(4)
_cell_angle_alpha                90
_cell_angle_beta                 101.007(4)
_cell_angle_gamma                90
_cell_volume                     2550.61
_exptl_crystal_colour            purple
_exptl_crystal_description       column
_cell_formula_units_Z            4
loop_
_atom_site_label
_atom_site_type_symbol
_atom_site_fract_x
_atom_site_fract_y
_atom_site_fract_z
B1 B 0.3190(3) 0.3212(7) 1.0087(3)
F1 F 0.38892(13) 0.3737(4) 1.02250(18)
F2 F 0.3043(2) 0.2227(4) 1.06658(14)
C1 C 0.22072(19) 0.5331(6) 0.93477(19)
C2 C 0.3185(2) 0.6608(6) 1.1104(2)
H1 H 0.3483 0.5597 1.1260
C3 C 0.27035(19) 0.6447(6) 1.0418(2)
C4 C 0.3218(2) 0.8114(6) 1.1513(2)
H2 H 0.2899 0.9076 1.1349
C5 C 0.4205(2) 0.7200(7) 1.2506(2)
H3 H 0.4259 0.6061 1.2277
C6 C 0.2187(2) 0.7744(6) 1.0108(2)
H4 H 0.2077 0.8867 1.0316
C7 C 0.3694(2) 0.8466(7) 1.2195(2)
C8 C 0.1872(2) 0.7087(6) 0.94473(19)
C9 C 0.1285(2) 0.8074(7) 0.8954(2)
H5 H 0.0878 0.7265 0.8861
H6 H 0.1432 0.8365 0.8513
H7 H 0.1168 0.9224 0.9174
C10 C 0.4645(2) 0.7611(9) 1.3160(2)
C11 C 0.3634(3) 1.0174(8) 1.2544(3)
H8 H 0.3300 1.1062 1.2341
C12 C 0.4564(3) 0.9314(9) 1.3487(3)
H9 H 0.4858 0.9608 1.3919
C13 C 0.4073(3) 1.0549(10) 1.3192(3)
H10 H 0.4023 1.1683 1.3426
N1 N 0.30292(16) 0.2008(5) 0.94100(17)
C14 C 0.15791(19) 0.4473(6) 0.8124(2)
C15 C 0.21198(18) 0.4056(6) 0.87736(19)
C16 C 0.25217(19) 0.2437(6) 0.87922(19)
C17 C 0.1756(2) 0.5554(6) 0.7580(2)
H11 H 0.2210 0.6041 0.7625
C18 C 0.1263(3) 0.5908(7) 0.6976(2)
H12 H 0.1382 0.6635 0.6610
C19 C 0.0594(3) 0.5195(8) 0.6909(3)
H13 H 0.0262 0.5436 0.6496
C20 C 0.0908(2) 0.3779(7) 0.8052(2)
H14 H 0.0783 0.3057 0.8416
C21 C 0.0414(2) 0.4149(8) 0.7436(3)
H15 H -0.0041 0.3673 0.7388
C22 C 0.3350(2) 0.0387(6) 0.9278(2)
C23 C 0.2557(2) 0.0999(6) 0.8283(2)
C24 C 0.2144(3) 0.0793(7) 0.7527(2)
H16 H 0.2346 -0.0201 0.7288
H17 H 0.2161 0.1961 0.7273
H18 H 0.1662 0.0487 0.7541
C25 C 0.3932(2) -0.0514(7) 0.9791(3)
H19 H 0.4351 0.0239 0.9829
H20 H 0.4019 -0.1758 0.9624
H21 H 0.3802 -0.0607 1.0252
C26 C 0.3064(2) -0.0253(7) 0.8597(2)
H22 H 0.3195 -0.1353 0.8387
N2 N 0.27160(15) 0.4984(5) 0.99632(16)
N3 N 0.5131(3) 0.6318(9) 1.3475(3)
H23 H 0.5392 0.6562 1.3883
H24 H 0.5175 0.5259 1.3266
Cl1 Cl 0.05749(16) 0.4763(4) 0.10337(15)
Cl2 Cl 0.0720(2) 0.1740(4) 0.00904(14)
C27 C 0.1121(5) 0.3563(18) 0.0596(5)
H25 H 0.1513 0.3068 0.0943
H26 H 0.1311 0.4436 0.0288
loop_
_geom_bond_atom_site_label_1
_geom_bond_atom_site_label_2
_geom_bond_site_symmetry_1
_geom_bond_site_symmetry_2
B1 F1 1_555 1_555
F2 B1 1_555 1_555
C1 C8 1_555 1_555
C2 H1 1_555 1_555
C3 C2 1_555 1_555
C4 C2 1_555 1_555
H2 C4 1_555 1_555
C5 H3 1_555 1_555
C6 C3 1_555 1_555
H4 C6 1_555 1_555
C7 C4 1_555 1_555
C8 C6 1_555 1_555
C9 C8 1_555 1_555
H5 C9 1_555 1_555
H6 C9 1_555 1_555
H7 C9 1_555 1_555
C10 C5 1_555 1_555
C11 C7 1_555 1_555
H8 C11 1_555 1_555
C12 C10 1_555 1_555
H9 C12 1_555 1_555
C13 C11 1_555 1_555
H10 C13 1_555 1_555
N1 B1 1_555 1_555
C14 C15 1_555 1_555
C15 C1 1_555 1_555
C16 N1 1_555 1_555
C17 C14 1_555 1_555
H11 C17 1_555 1_555
C18 C17 1_555 1_555
H12 C18 1_555 1_555
C19 C18 1_555 1_555
H13 C19 1_555 1_555
C20 C14 1_555 1_555
H14 C20 1_555 1_555
C21 C19 1_555 1_555
H15 C21 1_555 1_555
C22 N1 1_555 1_555
C23 C16 1_555 1_555
C24 C23 1_555 1_555
H16 C24 1_555 1_555
H17 C24 1_555 1_555
H18 C24 1_555 1_555
C25 C22 1_555 1_555
H19 C25 1_555 1_555
H20 C25 1_555 1_555
H21 C25 1_555 1_555
C26 C22 1_555 1_555
H22 C26 1_555 1_555
N2 B1 1_555 1_555
N3 C10 1_555 1_555
H23 N3 1_555 1_555
H24 N3 1_555 1_555
Cl1 C27 1_555 1_555
Cl2 C27 1_555 1_555
C27 H25 1_555 1_555
H26 C27 1_555 1_555
C1 N2 1_555 1_555
C3 N2 1_555 1_555
C5 C7 1_555 1_555
C12 C13 1_555 1_555
C15 C16 1_555 1_555
C20 C21 1_555 1_555
C23 C26 1_555 1_555

#END
