
#######################################################################
#
#                 Cambridge Crystallographic Data Centre
#                                CCDC 
#
#######################################################################
#
# If this CIF has been generated from an entry in the Cambridge 
# Structural Database, then it will include bibliographic, chemical, 
# crystal, experimental, refinement or atomic coordinate data resulting 
# from the CCDC's data processing and validation procedures.
#
#######################################################################

data_AHILAG
_chemical_formula_moiety         'C14 H6 N6 O9'
_chemical_name_systematic        
2-(2,4-dinitrophenyl)-5-(3,5-dinitrophenyl)-1,3,4-oxadiazole
_symmetry_cell_setting           monoclinic
_symmetry_space_group_name_H-M   'P 21/c'
_symmetry_Int_Tables_number      14
_space_group_name_Hall           '-P 2ybc'
loop_
_symmetry_equiv_pos_site_id
_symmetry_equiv_pos_as_xyz
1 x,y,z
2 -x,1/2+y,1/2-z
3 -x,-y,-z
4 x,1/2-y,1/2+z
_cell_length_a                   10.0253(2)
_cell_length_b                   12.0041(2)
_cell_length_c                   13.8984(3)
_cell_angle_alpha                90
_cell_angle_beta                 109.840(3)
_cell_angle_gamma                90
_cell_volume                     1573.32
_exptl_crystal_colour            colorless
_cell_formula_units_Z            4
loop_
_atom_site_label
_atom_site_type_symbol
_atom_site_fract_x
_atom_site_fract_y
_atom_site_fract_z
O1 O 0.72351(9) 0.97737(7) -0.00621(6)
O2 O 0.77527(10) 0.79975(7) 0.27096(7)
O3 O 0.63761(11) 0.89682(8) 0.33081(8)
O4 O 1.00962(11) 1.18792(8) 0.51608(7)
O5 O 1.07286(15) 1.30091(10) 0.41841(9)
O6 O 0.29742(10) 0.70584(8) -0.37480(8)
O7 O 0.32146(11) 0.79153(8) -0.50552(7)
O8 O 0.77593(11) 0.97331(8) -0.44749(7)
O9 O 0.86571(10) 1.06747(8) -0.30679(7)
N1 N 0.60114(12) 0.89112(9) 0.07745(8)
N2 N 0.54698(12) 0.85917(9) -0.02534(8)
N3 N 0.73062(11) 0.88743(9) 0.29271(8)
N4 N 1.01291(13) 1.21725(10) 0.43276(9)
N5 N 0.35709(11) 0.77249(9) -0.41390(9)
N6 N 0.78025(12) 1.00153(9) -0.36137(8)
C1 C 0.70445(13) 0.95908(10) 0.08496(9)
C2 C 0.62163(13) 0.91169(10) -0.07076(9)
C3 C 0.79247(13) 1.01977(10) 0.17502(9)
C4 C 0.79770(13) 0.99089(10) 0.27391(10)
C5 C 0.86789(13) 1.05401(10) 0.35868(10)
H1 H 0.8681 1.0346 0.4235
C6 C 0.93834(13) 1.14806(11) 0.34287(10)
C7 C 0.94094(13) 1.17885(10) 0.24774(10)
H2 H 0.9913 1.2413 0.2402
C8 C 0.86679(13) 1.11458(10) 0.16396(10)
H3 H 0.8664 1.1348 0.0993
C9 C 0.60467(13) 0.90648(10) -0.17899(9)
C10 C 0.49383(13) 0.84196(10) -0.24298(10)
H4 H 0.4326 0.8039 -0.2171
C11 C 0.47772(13) 0.83623(10) -0.34523(10)
C12 C 0.56826(13) 0.88785(10) -0.38738(10)
H5 H 0.5564 0.8816 -0.4565
C13 C 0.67740(13) 0.94926(10) -0.32078(9)
C14 C 0.69757(13) 0.96169(10) -0.21788(9)
H6 H 0.7708 1.0055 -0.1760
loop_
_geom_bond_atom_site_label_1
_geom_bond_atom_site_label_2
_geom_bond_site_symmetry_1
_geom_bond_site_symmetry_2
O1 C1 1_555 1_555
O2 N3 1_555 1_555
O3 N3 1_555 1_555
O4 N4 1_555 1_555
O5 N4 1_555 1_555
O6 N5 1_555 1_555
O7 N5 1_555 1_555
O8 N6 1_555 1_555
O9 N6 1_555 1_555
N1 N2 1_555 1_555
N2 C2 1_555 1_555
N3 C4 1_555 1_555
N4 C6 1_555 1_555
N5 C11 1_555 1_555
N6 C13 1_555 1_555
C1 N1 1_555 1_555
C2 O1 1_555 1_555
C3 C1 1_555 1_555
C4 C3 1_555 1_555
C5 C4 1_555 1_555
H1 C5 1_555 1_555
C6 C5 1_555 1_555
C7 C6 1_555 1_555
H2 C7 1_555 1_555
C8 C3 1_555 1_555
H3 C8 1_555 1_555
C9 C2 1_555 1_555
C10 C9 1_555 1_555
H4 C10 1_555 1_555
C11 C10 1_555 1_555
C12 C11 1_555 1_555
H5 C12 1_555 1_555
C13 C12 1_555 1_555
C14 C9 1_555 1_555
H6 C14 1_555 1_555
C7 C8 1_555 1_555
C13 C14 1_555 1_555

#END
