
#######################################################################
#
#                 Cambridge Crystallographic Data Centre
#                                CCDC 
#
#######################################################################
#
# If this CIF has been generated from an entry in the Cambridge 
# Structural Database, then it will include bibliographic, chemical, 
# crystal, experimental, refinement or atomic coordinate data resulting 
# from the CCDC's data processing and validation procedures.
#
#######################################################################

data_AHIMUA
_chemical_formula_moiety         'C18 H12 N6,2(H2 O1)'
_chemical_name_systematic        
'3,8-bis(1H-Imidazol-1-yl)-1,10-phenanthroline dihydrate'
_symmetry_cell_setting           triclinic
_symmetry_space_group_name_H-M   'P -1'
_symmetry_Int_Tables_number      2
_space_group_name_Hall           '-P 1'
loop_
_symmetry_equiv_pos_site_id
_symmetry_equiv_pos_as_xyz
1 x,y,z
2 -x,-y,-z
_cell_length_a                   7.1935(10)
_cell_length_b                   8.4279(11)
_cell_length_c                   14.0808(19)
_cell_angle_alpha                87.277(2)
_cell_angle_beta                 81.357(1)
_cell_angle_gamma                73.104(2)
_cell_volume                     807.532
_exptl_crystal_colour            colorless
_exptl_crystal_description       block
_cell_formula_units_Z            2
_exptl_crystal_recrystallization_method methanol/water
loop_
_atom_site_label
_atom_site_type_symbol
_atom_site_fract_x
_atom_site_fract_y
_atom_site_fract_z
C1 C 0.3151(4) 0.1539(3) 0.57533(18)
H1 H 0.3531 0.0394 0.5835
C2 C 0.2077(4) 0.2523(3) 0.65377(17)
C3 C 0.1535(3) 0.4198(3) 0.64341(17)
H2 H 0.0825 0.4874 0.6946
C4 C 0.2057(3) 0.4896(3) 0.55485(17)
C5 C 0.1534(4) 0.6652(3) 0.53851(19)
H3 H 0.0827 0.7365 0.5882
C6 C 0.2047(4) 0.7286(3) 0.45253(18)
H4 H 0.1698 0.8430 0.4438
C7 C 0.3126(3) 0.6224(3) 0.37405(18)
C8 C 0.3666(4) 0.6851(3) 0.28323(18)
H5 H 0.3346 0.7989 0.2722
C9 C 0.4668(4) 0.5766(3) 0.21137(18)
C10 C 0.5131(4) 0.4061(3) 0.23075(18)
H6 H 0.5801 0.3334 0.1811
C11 C 0.3661(3) 0.4500(3) 0.38695(17)
C12 C 0.3126(3) 0.3815(3) 0.47922(17)
C13 C 0.1692(5) 0.0130(3) 0.7574(2)
H7 H 0.2116 -0.0662 0.7091
C14 C 0.0640(4) 0.1276(4) 0.8921(2)
H8 H 0.0193 0.1437 0.9574
C15 C 0.0879(4) 0.2481(3) 0.82969(19)
H9 H 0.0614 0.3601 0.8434
C16 C 0.6714(4) 0.5526(3) 0.05013(19)
H10 H 0.7526 0.4463 0.0586
C17 C 0.5398(5) 0.7858(3) -0.0105(2)
H11 H 0.5136 0.8735 -0.0538
C18 C 0.4386(4) 0.7852(3) 0.0777(2)
H12 H 0.3328 0.8696 0.1059
N1 N 0.3653(3) 0.2146(2) 0.49062(14)
N2 N 0.4672(3) 0.3431(2) 0.31530(15)
N3 N 0.1589(3) 0.1741(2) 0.74209(14)
N4 N 0.1139(4) -0.0213(3) 0.84685(17)
N5 N 0.5232(3) 0.6344(2) 0.11804(15)
N6 N 0.6868(4) 0.6402(3) -0.02851(16)
O1 O 1.0306(3) 0.3048(2) 0.17504(13)
H13 H 1.0753 0.3429 0.1224
H14 H 0.9886 0.2264 0.1598
O2 O 0.2611(3) 0.0796(2) 0.30078(16)
H15 H 0.3129 0.1219 0.3397
H16 H 0.1593 0.1550 0.2892
loop_
_geom_bond_atom_site_label_1
_geom_bond_atom_site_label_2
_geom_bond_site_symmetry_1
_geom_bond_site_symmetry_2
C1 H1 1_555 1_555
C2 C1 1_555 1_555
C3 C2 1_555 1_555
H2 C3 1_555 1_555
C4 C3 1_555 1_555
C5 C4 1_555 1_555
H3 C5 1_555 1_555
C6 C5 1_555 1_555
H4 C6 1_555 1_555
C7 C6 1_555 1_555
C8 C7 1_555 1_555
H5 C8 1_555 1_555
C9 C8 1_555 1_555
C10 C9 1_555 1_555
H6 C10 1_555 1_555
C11 C7 1_555 1_555
C12 C4 1_555 1_555
C13 H7 1_555 1_555
C14 H8 1_555 1_555
C15 C14 1_555 1_555
H9 C15 1_555 1_555
C16 H10 1_555 1_555
C17 H11 1_555 1_555
C18 C17 1_555 1_555
H12 C18 1_555 1_555
N1 C1 1_555 1_555
N2 C10 1_555 1_555
N3 C2 1_555 1_555
N4 C13 1_555 1_555
N5 C9 1_555 1_555
N6 C16 1_555 1_555
O1 H13 1_555 1_555
H14 O1 1_555 1_555
O2 H15 1_555 1_555
H16 O2 1_555 1_555
C11 C12 1_555 1_555
C11 N2 1_555 1_555
C12 N1 1_555 1_555
C13 N3 1_555 1_555
C14 N4 1_555 1_555
C15 N3 1_555 1_555
C16 N5 1_555 1_555
C17 N6 1_555 1_555
C18 N5 1_555 1_555

#END
