
#######################################################################
#
#                 Cambridge Crystallographic Data Centre
#                                CCDC 
#
#######################################################################
#
# If this CIF has been generated from an entry in the Cambridge 
# Structural Database, then it will include bibliographic, chemical, 
# crystal, experimental, refinement or atomic coordinate data resulting 
# from the CCDC's data processing and validation procedures.
#
#######################################################################

data_AHINEK
_chemical_name_common            
N-[(4-Methyl-2,5-dioxoimidazolidin-4-yl)(phenyl)methyl]acetamide
_chemical_formula_moiety         'C13 H15 N3 O3'
_chemical_name_systematic        
5-(Acetamido(phenyl)methyl)-5-methylimidazolidine-2,4-dione
_symmetry_cell_setting           monoclinic
_symmetry_space_group_name_H-M   'P 21/c'
_symmetry_Int_Tables_number      14
_space_group_name_Hall           '-P 2ybc'
loop_
_symmetry_equiv_pos_site_id
_symmetry_equiv_pos_as_xyz
1 x,y,z
2 x,1/2-y,1/2+z
3 -x,-y,-z
4 -x,1/2+y,1/2-z
_cell_length_a                   12.9955(9)
_cell_length_b                   7.7137(5)
_cell_length_c                   13.4699(11)
_cell_angle_alpha                90
_cell_angle_beta                 107.860(6)
_cell_angle_gamma                90
_cell_volume                     1285.2
_exptl_crystal_colour            colorless
_exptl_crystal_description       prism
_cell_formula_units_Z            4
_exptl_crystal_recrystallization_method '3N hydrochloric acid/methanol'
loop_
_atom_site_label
_atom_site_type_symbol
_atom_site_fract_x
_atom_site_fract_y
_atom_site_fract_z
O1 O 1.04430(12) 0.3779(2) 0.79616(12)
O2 O 0.85321(11) 0.4758(2) 0.45614(11)
O3 O 0.75823(12) 0.1172(2) 0.36131(11)
N1 N 0.86346(12) 0.3474(2) 0.70621(12)
H1 H 0.8414 0.3049 0.7552
N2 N 0.97246(13) 0.4335(2) 0.61975(12)
H2 H 1.0316 0.4581 0.6069
N3 N 0.80236(12) 0.0909(2) 0.53584(12)
H3 H 0.8436 0.0409 0.5907
C1 C 0.87739(19) -0.1112(3) 0.43974(18)
H4 H 0.8327 -0.2056 0.4047
H5 H 0.9160 -0.1450 0.5099
H6 H 0.9280 -0.0818 0.4033
C2 C 0.80805(15) 0.0423(3) 0.44178(15)
C3 C 0.72817(14) 0.2258(3) 0.54758(14)
H7 H 0.6853 0.2620 0.4773
C4 C 0.87405(15) 0.4374(2) 0.54761(15)
C5 C 0.79235(15) 0.3862(2) 0.60240(15)
C6 C 0.71801(19) 0.5389(3) 0.6028(2)
H8 H 0.6729 0.5111 0.6453
H9 H 0.6735 0.5623 0.5328
H10 H 0.7608 0.6393 0.6306
C7 C 0.96697(17) 0.3848(3) 0.71754(16)
C8 C 0.65007(15) 0.1581(3) 0.60153(14)
C9 C 0.68414(17) 0.0538(3) 0.68916(16)
H11 H 0.7569 0.0253 0.7165
C10 C 0.6115(2) -0.0081(4) 0.7362(2)
H12 H 0.6357 -0.0766 0.7956
C11 C 0.5035(2) 0.0306(4) 0.6961(2)
H13 H 0.4543 -0.0140 0.7270
C12 C 0.46903(18) 0.1346(3) 0.6106(2)
H14 H 0.3961 0.1629 0.5840
C13 C 0.54146(16) 0.1984(3) 0.56316(17)
H15 H 0.5169 0.2693 0.5048
loop_
_geom_bond_atom_site_label_1
_geom_bond_atom_site_label_2
_geom_bond_site_symmetry_1
_geom_bond_site_symmetry_2
O1 C7 1_555 1_555
O2 C4 1_555 1_555
O3 C2 1_555 1_555
N1 H1 1_555 1_555
N2 H2 1_555 1_555
N3 H3 1_555 1_555
C1 H4 1_555 1_555
H5 C1 1_555 1_555
H6 C1 1_555 1_555
C2 N3 1_555 1_555
C3 N3 1_555 1_555
H7 C3 1_555 1_555
C4 N2 1_555 1_555
C5 N1 1_555 1_555
C6 C5 1_555 1_555
H8 C6 1_555 1_555
H9 C6 1_555 1_555
H10 C6 1_555 1_555
C7 N1 1_555 1_555
C8 C3 1_555 1_555
C9 C8 1_555 1_555
H11 C9 1_555 1_555
C10 C9 1_555 1_555
H12 C10 1_555 1_555
C11 C10 1_555 1_555
H13 C11 1_555 1_555
C12 C11 1_555 1_555
H14 C12 1_555 1_555
C13 C8 1_555 1_555
H15 C13 1_555 1_555
N2 C7 1_555 1_555
C1 C2 1_555 1_555
C3 C5 1_555 1_555
C4 C5 1_555 1_555
C12 C13 1_555 1_555

#END
