
#######################################################################
#
#                 Cambridge Crystallographic Data Centre
#                                CCDC 
#
#######################################################################
#
# If this CIF has been generated from an entry in the Cambridge 
# Structural Database, then it will include bibliographic, chemical, 
# crystal, experimental, refinement or atomic coordinate data resulting 
# from the CCDC's data processing and validation procedures.
#
#######################################################################

data_AHITAO
_chemical_formula_moiety         'C18 H16 N2 O4,4(H2 O1)'
_chemical_name_systematic        
"2,2'-(1,4-phenylenebis(oxymethylene))bis(1-pyridin-1-ol) tetrahydrate"
_symmetry_cell_setting           triclinic
_symmetry_space_group_name_H-M   'P -1'
_symmetry_Int_Tables_number      2
_space_group_name_Hall           '-P 1'
loop_
_symmetry_equiv_pos_site_id
_symmetry_equiv_pos_as_xyz
1 x,y,z
2 -x,-y,-z
_cell_length_a                   6.5562(5)
_cell_length_b                   7.2708(6)
_cell_length_c                   10.7658(9)
_cell_angle_alpha                93.883(2)
_cell_angle_beta                 95.949(2)
_cell_angle_gamma                109.694(2)
_cell_volume                     477.676
_exptl_crystal_colour            colorless
_exptl_crystal_description       block
_cell_formula_units_Z            1
loop_
_atom_site_label
_atom_site_type_symbol
_atom_site_fract_x
_atom_site_fract_y
_atom_site_fract_z
O1 O 0.1762(2) 0.4020(2) 0.14587(16)
O2 O 0.7008(2) 0.6662(2) 0.40750(14)
N1 N 0.2108(3) 0.5822(3) 0.19497(16)
C1 C 0.3895(3) 0.6742(3) 0.28048(18)
C2 C 0.4254(4) 0.8615(3) 0.3328(2)
H1 H 0.5479 0.9253 0.3917
C3 C 0.2811(4) 0.9556(4) 0.2986(3)
H2 H 0.3050 1.0826 0.3342
C4 C 0.1009(4) 0.8594(4) 0.2111(3)
H3 H 0.0019 0.9209 0.1869
C5 C 0.0690(4) 0.6751(4) 0.1607(2)
H4 H -0.0525 0.6105 0.1013
C6 C 0.5315(3) 0.5554(3) 0.3105(2)
H5 H 0.4462 0.4317 0.3380
H6 H 0.5933 0.5274 0.2365
C7 C 0.8461(3) 0.5763(3) 0.45030(18)
C8 C 0.8426(3) 0.3945(3) 0.40072(19)
H7 H 0.7374 0.3236 0.3340
C9 C 0.9962(3) 0.3190(3) 0.4510(2)
H8 H 0.9935 0.1965 0.4181
O1A O 1.8238(2) 0.5980(2) 0.85413(16)
O2A O 1.2992(2) 0.3338(2) 0.59250(14)
N1A N 1.7892(3) 0.4178(3) 0.80503(16)
C1A C 1.6105(3) 0.3258(3) 0.71952(18)
C2A C 1.5746(4) 0.1385(3) 0.6672(2)
H1A H 1.4521 0.0747 0.6083
C3A C 1.7189(4) 0.0444(4) 0.7014(3)
H2A H 1.6950 -0.0826 0.6658
C4A C 1.8991(4) 0.1406(4) 0.7889(3)
H3A H 1.9981 0.0791 0.8131
C5A C 1.9310(4) 0.3249(4) 0.8393(2)
H4A H 2.0525 0.3895 0.8987
C6A C 1.4685(3) 0.4446(3) 0.6895(2)
H5A H 1.5538 0.5683 0.6620
H6A H 1.4067 0.4726 0.7635
C7A C 1.1539(3) 0.4237(3) 0.54970(18)
C8A C 1.1574(3) 0.6055(3) 0.59928(19)
H7A H 1.2626 0.6764 0.6660
C9A C 1.0038(3) 0.6810(3) 0.5490(2)
H8A H 1.0065 0.8035 0.5819
O3 O -0.2537(3) 0.1439(3) 0.11821(18)
H9 H -0.1088 0.2241 0.1331
H10 H -0.2521 0.0299 0.0726
O4 O 0.4133(3) 0.2474(3) -0.01156(19)
H11 H 0.5348 0.2360 0.0423
H12 H 0.3213 0.2892 0.0368
loop_
_geom_bond_atom_site_label_1
_geom_bond_atom_site_label_2
_geom_bond_site_symmetry_1
_geom_bond_site_symmetry_2
O1 N1 1_555 1_555
O2 C6 1_555 1_555
N1 C1 1_555 1_555
C1 C2 1_555 1_555
C2 H1 1_555 1_555
C3 C2 1_555 1_555
H2 C3 1_555 1_555
C4 C3 1_555 1_555
H3 C4 1_555 1_555
C5 N1 1_555 1_555
H4 C5 1_555 1_555
C6 C1 1_555 1_555
H5 C6 1_555 1_555
H6 C6 1_555 1_555
C7 O2 1_555 1_555
C8 C7 1_555 1_555
H7 C8 1_555 1_555
C9 C8 1_555 1_555
H8 C9 1_555 1_555
O3 H9 1_555 1_555
H10 O3 1_555 1_555
O4 H11 1_555 1_555
H12 O4 1_555 1_555
O1A N1A 1_555 1_555
O2A C6A 1_555 1_555
N1A C1A 1_555 1_555
C1A C2A 1_555 1_555
C2A H1A 1_555 1_555
C3A C2A 1_555 1_555
H2A C3A 1_555 1_555
C4A C3A 1_555 1_555
H3A C4A 1_555 1_555
C5A N1A 1_555 1_555
H4A C5A 1_555 1_555
C6A C1A 1_555 1_555
H5A C6A 1_555 1_555
H6A C6A 1_555 1_555
C7A C9 1_555 1_555
C8A C7A 1_555 1_555
H7A C8A 1_555 1_555
C9A C7 1_555 1_555
H8A C9A 1_555 1_555
C4 C5 1_555 1_555
O2A C7A 1_555 1_555
C4A C5A 1_555 1_555
C8A C9A 1_555 1_555

#END
