
#######################################################################
#
#                 Cambridge Crystallographic Data Centre
#                                CCDC 
#
#######################################################################
#
# If this CIF has been generated from an entry in the Cambridge 
# Structural Database, then it will include bibliographic, chemical, 
# crystal, experimental, refinement or atomic coordinate data resulting 
# from the CCDC's data processing and validation procedures.
#
#######################################################################

data_AHIWOE
_chemical_formula_moiety         'C29 H9 B1 F15 N1 O1,1.5(C6 H6)'
_chemical_name_systematic        
'(2-(Pyridinium-2-yl)phenolato-O)-tris(pentafluorophenyl)-borate benzene solvate'
_symmetry_cell_setting           monoclinic
_symmetry_space_group_name_H-M   'C 2/c'
_symmetry_Int_Tables_number      15
_space_group_name_Hall           '-C 2yn'
loop_
_symmetry_equiv_pos_site_id
_symmetry_equiv_pos_as_xyz
1 x,y,z
2 -x,y,1/2-z
3 1/2+x,1/2+y,z
4 1/2-x,1/2+y,1/2-z
5 -x,-y,-z
6 x,-y,1/2+z
7 1/2-x,1/2-y,-z
8 1/2+x,1/2-y,1/2+z
_cell_length_a                   18.0034(9)
_cell_length_b                   17.4323(8)
_cell_length_c                   22.9747(11)
_cell_angle_alpha                90
_cell_angle_beta                 100.041(3)
_cell_angle_gamma                90
_cell_volume                     7099.96
_exptl_crystal_colour            'pale yellow'
_cell_formula_units_Z            8
_exptl_crystal_recrystallization_method n-hexane/benzene
_exptl_crystal_preparation       photoluminescent
loop_
_atom_site_label
_atom_site_type_symbol
_atom_site_fract_x
_atom_site_fract_y
_atom_site_fract_z
B1 B 0.03082(18) 0.75543(16) 0.93259(13)
N1 N -0.10220(13) 0.58987(13) 0.88703(11)
H1 H -0.0854 0.6325 0.9029
O1 O 0.00537(9) 0.67307(9) 0.93851(7)
C1 C -0.05619(16) 0.52904(14) 0.89494(11)
C2 C -0.08574(19) 0.46131(16) 0.86829(13)
H2 H -0.0565 0.4170 0.8723
C3 C -0.1571(2) 0.4592(2) 0.83640(16)
H3 H -0.1758 0.4135 0.8187
C4 C -0.2013(2) 0.5229(2) 0.83011(17)
H4 H -0.2500 0.5212 0.8085
C5 C -0.17264(18) 0.5891(2) 0.85612(16)
H5 H -0.2017 0.6335 0.8525
C6 C 0.05049(15) 0.61032(14) 0.94892(11)
C7 C 0.02022(14) 0.53838(13) 0.92863(11)
C8 C 0.06642(18) 0.47374(15) 0.94110(13)
H6 H 0.0473 0.4258 0.9287
C9 C 0.1388(2) 0.47928(18) 0.97103(14)
H7 H 0.1684 0.4355 0.9784
C10 C 0.16789(17) 0.54987(19) 0.99023(13)
H8 H 0.2172 0.5536 1.0105
C11 C 0.12417(16) 0.61468(16) 0.97940(12)
H9 H 0.1441 0.6620 0.9926
C12 C -0.04529(17) 0.79893(14) 0.89647(13)
C13 C -0.0507(2) 0.84587(17) 0.84707(15)
C14 C -0.1161(3) 0.88275(19) 0.82102(18)
C15 C -0.1790(3) 0.8773(2) 0.8456(2)
C16 C -0.1778(2) 0.8340(2) 0.8949(2)
C17 C -0.1120(2) 0.79552(16) 0.91775(15)
C18 C 0.05018(15) 0.79987(14) 0.99669(12)
C19 C 0.04636(16) 0.77060(15) 1.05133(13)
C20 C 0.06210(18) 0.81145(19) 1.10342(13)
C21 C 0.0814(2) 0.8870(2) 1.10184(15)
C22 C 0.0841(2) 0.92055(18) 1.04871(16)
C23 C 0.06848(19) 0.87732(16) 0.99844(13)
C24 C 0.10038(15) 0.75327(14) 0.89487(11)
C25 C 0.17324(17) 0.78010(16) 0.91163(13)
C26 C 0.22789(18) 0.77676(19) 0.87683(15)
C27 C 0.21162(19) 0.7440(2) 0.82232(16)
C28 C 0.14129(19) 0.7139(2) 0.80370(14)
C29 C 0.08875(16) 0.71874(16) 0.83973(13)
F1 F 0.00985(13) 0.85792(11) 0.82148(8)
F2 F -0.11674(16) 0.92552(13) 0.77228(11)
F3 F -0.24261(15) 0.91442(15) 0.82139(14)
F4 F -0.23894(13) 0.82890(13) 0.92138(13)
F5 F -0.11557(10) 0.75204(11) 0.96679(9)
F6 F 0.02676(10) 0.69635(9) 1.05766(7)
F7 F 0.05863(12) 0.77712(12) 1.15535(8)
F8 F 0.09769(15) 0.92824(13) 1.15227(9)
F9 F 0.10293(16) 0.99548(11) 1.04650(9)
F10 F 0.07281(13) 0.91372(9) 0.94698(8)
F11 F 0.19621(10) 0.81153(11) 0.96559(7)
F12 F 0.29765(10) 0.80518(14) 0.89606(9)
F13 F 0.26419(12) 0.74146(16) 0.78704(10)
F14 F 0.12510(11) 0.68066(14) 0.75000(9)
F15 F 0.02014(9) 0.68874(10) 0.81826(7)
C30 C 0.5940(3) 0.5849(4) 0.8083(3)
H10 H 0.5732 0.5578 0.7745
C31 C 0.6017(4) 0.5514(3) 0.8609(4)
H11 H 0.5866 0.5007 0.8635
C32 C 0.6311(4) 0.5897(5) 0.9108(3)
H12 H 0.6367 0.5658 0.9475
C33 C 0.6524(3) 0.6648(4) 0.9059(3)
H13 H 0.6720 0.6929 0.9395
C34 C 0.6446(3) 0.6972(3) 0.8522(4)
H14 H 0.6593 0.7479 0.8486
C35 C 0.6159(3) 0.6572(4) 0.8038(3)
H15 H 0.6112 0.6801 0.7668
C36 C 0.0000 0.5143(3) 0.7500
H16 H 0.0000 0.5677 0.7500
C37 C 0.0579(2) 0.4762(3) 0.78279(17)
H17 H 0.0976 0.5031 0.8051
C38 C 0.0577(3) 0.3986(3) 0.7830(2)
H18 H 0.0972 0.3720 0.8058
C39 C 0.0000 0.3595(4) 0.7500
H19 H 0.0000 0.3062 0.7500
C37A C -0.0579(2) 0.4762(3) 0.71721(17)
H17A H -0.0976 0.5031 0.6949
C38A C -0.0577(3) 0.3986(3) 0.7170(2)
H18A H -0.0972 0.3720 0.6942
loop_
_geom_bond_atom_site_label_1
_geom_bond_atom_site_label_2
_geom_bond_site_symmetry_1
_geom_bond_site_symmetry_2
B1 O1 1_555 1_555
N1 H1 1_555 1_555
O1 C6 1_555 1_555
C1 N1 1_555 1_555
C2 C1 1_555 1_555
H2 C2 1_555 1_555
C3 C2 1_555 1_555
H3 C3 1_555 1_555
C4 C3 1_555 1_555
H4 C4 1_555 1_555
C5 N1 1_555 1_555
H5 C5 1_555 1_555
C6 C7 1_555 1_555
C7 C1 1_555 1_555
C8 C7 1_555 1_555
H6 C8 1_555 1_555
C9 C8 1_555 1_555
H7 C9 1_555 1_555
C10 C9 1_555 1_555
H8 C10 1_555 1_555
C11 C6 1_555 1_555
H9 C11 1_555 1_555
C12 B1 1_555 1_555
C13 C12 1_555 1_555
C14 C13 1_555 1_555
C15 C14 1_555 1_555
C16 C15 1_555 1_555
C17 C12 1_555 1_555
C18 B1 1_555 1_555
C19 C18 1_555 1_555
C20 C19 1_555 1_555
C21 C20 1_555 1_555
C22 C21 1_555 1_555
C23 C18 1_555 1_555
C24 B1 1_555 1_555
C25 C24 1_555 1_555
C26 C25 1_555 1_555
C27 C26 1_555 1_555
C28 C27 1_555 1_555
C29 C24 1_555 1_555
F1 C13 1_555 1_555
F2 C14 1_555 1_555
F3 C15 1_555 1_555
F4 C16 1_555 1_555
F5 C17 1_555 1_555
F6 C19 1_555 1_555
F7 C20 1_555 1_555
F8 C21 1_555 1_555
F9 C22 1_555 1_555
F10 C23 1_555 1_555
F11 C25 1_555 1_555
F12 C26 1_555 1_555
F13 C27 1_555 1_555
F14 C28 1_555 1_555
F15 C29 1_555 1_555
C30 H10 1_555 1_555
C31 C30 1_555 1_555
H11 C31 1_555 1_555
C32 C31 1_555 1_555
H12 C32 1_555 1_555
C33 C32 1_555 1_555
H13 C33 1_555 1_555
C34 C33 1_555 1_555
H14 C34 1_555 1_555
C35 C30 1_555 1_555
H15 C35 1_555 1_555
C36 H16 1_555 1_555
C37 C36 1_555 1_555
H17 C37 1_555 1_555
C38 C37 1_555 1_555
H18 C38 1_555 1_555
C39 C38 1_555 1_555
H19 C39 1_555 1_555
C37A C36 1_555 1_555
H17A C37A 1_555 1_555
C38A C39 1_555 1_555
H18A C38A 1_555 1_555
C4 C5 1_555 1_555
C10 C11 1_555 1_555
C16 C17 1_555 1_555
C22 C23 1_555 1_555
C28 C29 1_555 1_555
C34 C35 1_555 1_555
C37A C38A 1_555 1_555

#END
