
#######################################################################
#
#                 Cambridge Crystallographic Data Centre
#                                CCDC 
#
#######################################################################
#
# If this CIF has been generated from an entry in the Cambridge 
# Structural Database, then it will include bibliographic, chemical, 
# crystal, experimental, refinement or atomic coordinate data resulting 
# from the CCDC's data processing and validation procedures.
#
#######################################################################

data_AHIXAS
_chemical_formula_moiety         'C28 H6 F10 S5'
_chemical_name_systematic        
2,6-bis(5-(pentafluorophenyl)-2-thienyl)bisthieno[3,2-b:2',3'-d]thiophene
_symmetry_cell_setting           triclinic
_symmetry_space_group_name_H-M   'P -1'
_symmetry_Int_Tables_number      2
_space_group_name_Hall           '-P 1'
loop_
_symmetry_equiv_pos_site_id
_symmetry_equiv_pos_as_xyz
1 x,y,z
2 -x,-y,-z
_cell_length_a                   6.0988(2)
_cell_length_b                   12.5964(5)
_cell_length_c                   16.3881(7)
_cell_angle_alpha                101.617(2)
_cell_angle_beta                 92.732(2)
_cell_angle_gamma                92.446(2)
_cell_volume                     1230.03
_exptl_crystal_colour            purple
_exptl_crystal_description       plate-like
_cell_formula_units_Z            2
loop_
_atom_site_label
_atom_site_type_symbol
_atom_site_fract_x
_atom_site_fract_y
_atom_site_fract_z
S1 S 0.85810(10) -0.09549(5) 0.20143(4)
S2 S 1.19945(10) 0.15759(5) 0.10059(4)
S3 S 0.62382(10) 0.19521(5) -0.03670(4)
S4 S 1.21323(10) 0.37446(5) -0.04100(4)
S5 S 0.90333(10) 0.54688(5) -0.21816(4)
C1 C 0.7700(4) -0.28158(19) 0.30131(16)
C2 C 0.7100(4) -0.3634(2) 0.34158(17)
C3 C 0.8511(5) -0.3926(2) 0.39890(17)
C4 C 1.0545(5) -0.3384(2) 0.41638(17)
C5 C 1.1102(4) -0.2559(2) 0.37628(16)
C6 C 0.9722(4) -0.22413(18) 0.31635(14)
C7 C 1.0361(4) -0.13683(18) 0.27302(15)
C8 C 1.2335(4) -0.0791(2) 0.27943(17)
H1 H 1.3515 -0.0892 0.3147
C9 C 1.2404(4) -0.0033(2) 0.22769(17)
H2 H 1.3639 0.0416 0.2251
C10 C 1.0496(4) -0.00132(18) 0.18143(15)
C11 C 0.9966(4) 0.06693(18) 0.12293(14)
C12 C 0.8005(4) 0.07288(19) 0.08051(15)
H3 H 0.6740 0.0308 0.0845
C13 C 0.8139(4) 0.15118(18) 0.02968(15)
C14 C 1.0181(4) 0.20409(18) 0.03369(14)
C15 C 1.0229(4) 0.28239(18) -0.01740(14)
C16 C 0.8222(4) 0.28585(19) -0.06015(15)
C17 C 0.8221(4) 0.36267(19) -0.11230(15)
H4 H 0.7011 0.3744 -0.1454
C18 C 1.0212(4) 0.41727(18) -0.10804(14)
C19 C 1.0882(4) 0.50328(18) -0.15099(14)
C20 C 1.2863(4) 0.5569(2) -0.14800(17)
H5 H 1.4067 0.5445 -0.1149
C21 C 1.2922(4) 0.6334(2) -0.20003(16)
H6 H 1.4171 0.6764 -0.2045
C22 C 1.0967(4) 0.63825(18) -0.24340(15)
C23 C 1.0428(4) 0.70799(19) -0.30276(15)
C24 C 1.1884(4) 0.7896(2) -0.31717(17)
C25 C 1.1395(5) 0.8559(2) -0.37271(18)
C26 C 0.9405(5) 0.8434(2) -0.41623(17)
C27 C 0.7916(5) 0.7644(2) -0.40486(17)
C28 C 0.8433(4) 0.6986(2) -0.34988(17)
F1 F 0.6218(2) -0.25903(12) 0.24485(10)
F2 F 0.5109(3) -0.41422(13) 0.32357(11)
F3 F 0.7958(3) -0.47205(14) 0.43803(12)
F4 F 1.1957(3) -0.36543(15) 0.47214(11)
F5 F 1.3096(3) -0.20565(13) 0.39821(10)
F6 F 1.3852(3) 0.80787(13) -0.27615(11)
F7 F 1.2898(3) 0.93209(14) -0.38332(12)
F8 F 0.8920(3) 0.90743(15) -0.47017(11)
F9 F 0.5976(3) 0.74967(16) -0.44763(11)
F10 F 0.6903(3) 0.62179(14) -0.34251(11)
loop_
_geom_bond_atom_site_label_1
_geom_bond_atom_site_label_2
_geom_bond_site_symmetry_1
_geom_bond_site_symmetry_2
S1 C7 1_555 1_555
S2 C11 1_555 1_555
S3 C13 1_555 1_555
S4 C15 1_555 1_555
S5 C19 1_555 1_555
C1 C2 1_555 1_555
C2 C3 1_555 1_555
C3 C4 1_555 1_555
C4 C5 1_555 1_555
C5 C6 1_555 1_555
C6 C1 1_555 1_555
C7 C6 1_555 1_555
C8 C7 1_555 1_555
H1 C8 1_555 1_555
C9 C8 1_555 1_555
H2 C9 1_555 1_555
C10 S1 1_555 1_555
C11 C10 1_555 1_555
C12 C11 1_555 1_555
H3 C12 1_555 1_555
C13 C12 1_555 1_555
C14 S2 1_555 1_555
C15 C14 1_555 1_555
C16 S3 1_555 1_555
C17 C16 1_555 1_555
H4 C17 1_555 1_555
C18 S4 1_555 1_555
C19 C18 1_555 1_555
C20 C19 1_555 1_555
H5 C20 1_555 1_555
C21 C20 1_555 1_555
H6 C21 1_555 1_555
C22 S5 1_555 1_555
C23 C22 1_555 1_555
C24 C23 1_555 1_555
C25 C24 1_555 1_555
C26 C25 1_555 1_555
C27 C26 1_555 1_555
C28 C23 1_555 1_555
F1 C1 1_555 1_555
F2 C2 1_555 1_555
F3 C3 1_555 1_555
F4 C4 1_555 1_555
F5 C5 1_555 1_555
F6 C24 1_555 1_555
F7 C25 1_555 1_555
F8 C26 1_555 1_555
F9 C27 1_555 1_555
F10 C28 1_555 1_555
C9 C10 1_555 1_555
C13 C14 1_555 1_555
C15 C16 1_555 1_555
C17 C18 1_555 1_555
C21 C22 1_555 1_555
C27 C28 1_555 1_555

#END
