
#######################################################################
#
#                 Cambridge Crystallographic Data Centre
#                                CCDC 
#
#######################################################################
#
# If this CIF has been generated from an entry in the Cambridge 
# Structural Database, then it will include bibliographic, chemical, 
# crystal, experimental, refinement or atomic coordinate data resulting 
# from the CCDC's data processing and validation procedures.
#
#######################################################################

data_AHOGOT
_chemical_formula_moiety         'C78 H72 B1 N9,2(C1 H2 Cl2),C6 H14'
_chemical_name_systematic        
"tris(3-(4-(2,2'-Dipyridylamino)phenyl)-6-duryl)borane dichloromethane hexane solvate"
_symmetry_cell_setting           rhombohedral
_symmetry_space_group_name_H-M   'R -3 c'
_symmetry_Int_Tables_number      167
_space_group_name_Hall           '-R 3 2"c'
loop_
_symmetry_equiv_pos_site_id
_symmetry_equiv_pos_as_xyz
1 x,y,z
2 -y,x-y,z
3 y,x,1/2-z
4 -x+y,-x,z
5 -x,-x+y,1/2-z
6 x-y,-y,1/2-z
7 1/3+x,2/3+y,2/3+z
8 1/3-y,2/3+x-y,2/3+z
9 1/3+y,2/3+x,1/6-z
10 1/3-x+y,2/3-x,2/3+z
11 1/3-x,2/3-x+y,1/6-z
12 1/3+x-y,2/3-y,1/6-z
13 2/3+x,1/3+y,1/3+z
14 2/3-y,1/3+x-y,1/3+z
15 2/3+y,1/3+x,5/6-z
16 2/3-x+y,1/3-x,1/3+z
17 2/3-x,1/3-x+y,5/6-z
18 2/3+x-y,1/3-y,5/6-z
19 -x,-y,-z
20 y,-x+y,-z
21 -y,-x,1/2+z
22 x-y,x,-z
23 x,x-y,1/2+z
24 -x+y,y,1/2+z
25 2/3-x,1/3-y,1/3-z
26 2/3+y,1/3-x+y,1/3-z
27 2/3-y,1/3-x,5/6+z
28 2/3+x-y,1/3+x,1/3-z
29 2/3+x,1/3+x-y,5/6+z
30 2/3-x+y,1/3+y,5/6+z
31 1/3-x,2/3-y,2/3-z
32 1/3+y,2/3-x+y,2/3-z
33 1/3-y,2/3-x,1/6+z
34 1/3+x-y,2/3+x,2/3-z
35 1/3+x,2/3+x-y,1/6+z
36 1/3-x+y,2/3+y,1/6+z
_cell_length_a                   17.258(2)
_cell_length_b                   17.258(2)
_cell_length_c                   45.381(7)
_cell_angle_alpha                90
_cell_angle_beta                 90
_cell_angle_gamma                120
_cell_volume                     11705.4
_exptl_crystal_colour            colorless
_chemical_melting_point          '176-178 deg.C'
_cell_formula_units_Z            6
loop_
_atom_site_label
_atom_site_type_symbol
_atom_site_fract_x
_atom_site_fract_y
_atom_site_fract_z
B1 B 0.6667 0.3333 0.0833
N1 N 0.0572(2) 0.3084(2) 0.0327(1)
N2 N 0.0777(2) 0.3333 0.0833
C1 C 0.0024(2) 0.2729(2) 0.0097(1)
C2 C -0.0882(2) 0.2280(2) 0.0111(1)
C3 C -0.1260(2) 0.2169(2) 0.0385(1)
C4 C -0.0726(2) 0.2508(2) 0.0628(1)
C5 C 0.0189(2) 0.2971(2) 0.0592(1)
C6 C 0.1601(2) 0.3333 0.0833
C7 C 0.1636(2) 0.2584(2) 0.0750(1)
C8 C 0.2436(2) 0.2583(2) 0.0748(1)
C9 C 0.3231(2) 0.3333 0.0833
C10 C 0.4099(2) 0.3333 0.0833
C11 C 0.4734(2) 0.3793(2) 0.0614(1)
C12 C 0.5553(2) 0.3800(2) 0.0615(1)
C13 C 0.5738(2) 0.3333 0.0833
C14 C 0.4547(2) 0.4283(2) 0.0371(1)
C15 C 0.6190(2) 0.4267(2) 0.0366(1)
H1 H 0.0284 0.2795 -0.0087
H2 H -0.1232 0.2057 -0.0057
H3 H -0.1879 0.1864 0.0406
H4 H -0.0977 0.2427 0.0815
H5 H 0.1112 0.2070 0.0694
H6 H 0.2443 0.2071 0.0689
H7 H 0.3966 0.4218 0.0400
H8 H 0.4563 0.4034 0.0183
H9 H 0.4993 0.4906 0.0375
H10 H 0.6690(20) 0.4220(20) 0.0361(6)
H11 H 0.6270(30) 0.4830(30) 0.0329(8)
H12 H 0.5890(30) 0.3960(30) 0.0170(9)
C5K C 0.0551(3) 0.3696(2) 0.1075(1)
N1K N 0.0821(3) 0.3583(2) 0.1340(1)
C1K C 0.0628(3) 0.3938(2) 0.1570(1)
C2K C 0.0171(3) 0.4387(2) 0.1556(1)
C3K C -0.0096(3) 0.4498(2) 0.1282(1)
C4K C 0.0099(3) 0.4159(2) 0.1039(1)
H4K H -0.0071 0.4240 0.0852
H3K H -0.0410 0.4803 0.1261
H2K H 0.0044 0.4610 0.1724
H1K H 0.0822 0.3872 0.1754
C7K C 0.2385(3) 0.4083(2) 0.0917(1)
C8K C 0.3186(3) 0.4084(2) 0.0919(1)
H6K H 0.3705 0.4596 0.0978
H5K H 0.2375 0.4597 0.0973
C11K C 0.4274(3) 0.2874(2) 0.1053(1)
C12K C 0.5086(3) 0.2867(2) 0.1052(1)
C15K C 0.5256(3) 0.2400(2) 0.1301(1)
H10K H 0.5803(28) 0.2447(20) 0.1306(6)
H11K H 0.4773(42) 0.1837(30) 0.1338(8)
H12K H 0.5263(42) 0.2707(30) 0.1497(9)
C14K C 0.3597(3) 0.2384(2) 0.1296(1)
H7K H 0.3081 0.2449 0.1267
H8K H 0.3862 0.2633 0.1484
H9K H 0.3420 0.1761 0.1292
C13A C 0.6667 0.2405(2) 0.0833
C12A C 0.6200(2) 0.1753(3) 0.0615(1)
C11A C 0.6207(2) 0.0941(3) 0.0614(1)
C10A C 0.6667 0.0766(2) 0.0833
C9A C 0.6667 -0.0102(2) 0.0833
C8A C 0.7417(2) -0.0147(3) 0.0748(1)
C7A C 0.7416(2) -0.0948(3) 0.0750(1)
C6A C 0.6667 -0.1732(2) 0.0833
N2A N 0.6667 -0.2556(2) 0.0833
C5A C 0.7029(2) -0.2782(3) 0.0592(1)
N1A N 0.6916(2) -0.2512(3) 0.0327(1)
C1A C 0.7271(2) -0.2705(3) 0.0097(1)
C2A C 0.7720(2) -0.3162(3) 0.0111(1)
C3A C 0.7831(2) -0.3429(3) 0.0385(1)
C4A C 0.7492(2) -0.3234(3) 0.0628(1)
H4A H 0.7573 -0.3404 0.0815
H3A H 0.8136 -0.3743 0.0406
H2A H 0.7943 -0.3289 -0.0057
H1A H 0.7205 -0.2511 -0.0087
C5H C 0.6304(2) -0.3144(2) 0.1075(1)
N1H N 0.6417(2) -0.2761(2) 0.1340(1)
C1H C 0.6062(2) -0.3309(2) 0.1570(1)
C2H C 0.5613(2) -0.4215(2) 0.1556(1)
C3H C 0.5502(2) -0.4593(2) 0.1282(1)
C4H C 0.5841(2) -0.4059(2) 0.1039(1)
H4H H 0.5760 -0.4310 0.0852
H3H H 0.5197 -0.5212 0.1261
H2H H 0.5390 -0.4565 0.1724
H1H H 0.6128 -0.3049 0.1754
C7H C 0.5917(2) -0.1697(2) 0.0917(1)
C8H C 0.5916(2) -0.0897(2) 0.0919(1)
H6H H 0.5404 -0.0890 0.0978
H5H H 0.5403 -0.2221 0.0973
H5A H 0.7930 -0.0958 0.0694
H6A H 0.7929 0.0372 0.0689
C11H C 0.7126(2) 0.1401(2) 0.1053(1)
C12H C 0.7133(2) 0.2220(2) 0.1052(1)
C15H C 0.7600(2) 0.2857(2) 0.1301(1)
H10H H 0.7553(20) 0.3357(20) 0.1306(6)
H11H H 0.8163(30) 0.2937(30) 0.1338(8)
H12H H 0.7293(30) 0.2557(30) 0.1497(9)
C14H C 0.7616(2) 0.1214(2) 0.1296(1)
H7H H 0.7551 0.0633 0.1267
H8H H 0.7367 0.1230 0.1484
H9H H 0.8239 0.1660 0.1292
C14A C 0.5717(2) 0.0264(3) 0.0371(1)
H7A H 0.5782 -0.0252 0.0400
H8A H 0.5966 0.0529 0.0183
H9A H 0.5094 0.0087 0.0375
C15A C 0.5733(2) 0.1923(3) 0.0366(1)
H10A H 0.5780(20) 0.2470(28) 0.0361(6)
H11A H 0.5170(30) 0.1440(42) 0.0329(8)
H12A H 0.6040(30) 0.1930(42) 0.0170(9)
C13C C 0.7595(2) 0.4262(2) 0.0833
C12C C 0.8247(3) 0.4447(2) 0.0615(1)
C11C C 0.9059(3) 0.5266(2) 0.0614(1)
C10C C 0.9234(2) 0.5901(2) 0.0833
C9C C 1.0102(2) 0.6769(2) 0.0833
C8C C 1.0147(3) 0.7564(2) 0.0748(1)
C7C C 1.0948(3) 0.8364(2) 0.0750(1)
C6C C 1.1732(2) 0.8399(2) 0.0833
N2C N 1.2556(2) 0.9223(2) 0.0833
C5C C 1.2782(3) 0.9811(2) 0.0592(1)
N1C N 1.2512(3) 0.9428(2) 0.0327(1)
C1C C 1.2705(3) 0.9976(2) 0.0097(1)
C2C C 1.3162(3) 1.0882(2) 0.0111(1)
C3C C 1.3429(3) 1.1260(2) 0.0385(1)
C4C C 1.3234(3) 1.0726(2) 0.0628(1)
H4C H 1.3404 1.0977 0.0815
H3C H 1.3743 1.1879 0.0406
H2C H 1.3289 1.1232 -0.0057
H1C H 1.2511 0.9716 -0.0087
C5J C 1.3144(2) 0.9449(3) 0.1075(1)
N1J N 1.2761(2) 0.9179(3) 0.1340(1)
C1J C 1.3309(2) 0.9372(3) 0.1570(1)
C2J C 1.4215(2) 0.9829(3) 0.1556(1)
C3J C 1.4593(2) 1.0096(3) 0.1282(1)
C4J C 1.4059(2) 0.9901(3) 0.1039(1)
H4J H 1.4310 1.0071 0.0852
H3J H 1.5212 1.0410 0.1261
H2J H 1.4565 0.9956 0.1724
H1J H 1.3049 0.9178 0.1754
C7J C 1.1697(2) 0.7615(3) 0.0917(1)
C8J C 1.0897(2) 0.6814(3) 0.0919(1)
H6J H 1.0890 0.6295 0.0978
H5J H 1.2221 0.7625 0.0973
H5C H 1.0958 0.8888 0.0694
H6C H 0.9628 0.7557 0.0689
C11J C 0.8599(2) 0.5726(3) 0.1053(1)
C12J C 0.7780(2) 0.4914(3) 0.1052(1)
C15J C 0.7143(2) 0.4744(3) 0.1301(1)
H10J H 0.6643(20) 0.4197(28) 0.1306(6)
H11J H 0.7063(30) 0.5227(42) 0.1338(8)
H12J H 0.7443(30) 0.4737(42) 0.1497(9)
C14J C 0.8786(2) 0.6403(3) 0.1296(1)
H7J H 0.9367 0.6919 0.1267
H8J H 0.8770 0.6138 0.1484
H9J H 0.8340 0.6580 0.1292
C14C C 0.9736(3) 0.5453(2) 0.0371(1)
H7C H 1.0252 0.6034 0.0400
H8C H 0.9471 0.5437 0.0183
H9C H 0.9913 0.5007 0.0375
C15C C 0.8077(3) 0.3810(2) 0.0366(1)
H10C H 0.7530(28) 0.3310(20) 0.0361(6)
H11C H 0.8560(42) 0.3730(30) 0.0329(8)
H12C H 0.8070(42) 0.4110(30) 0.0170(9)
Cl1? Cl -0.0445(8) 0.0615(10) 0.1156(2)
Cl2? Cl -0.0267(10) 0.1032(1) 0.1207(3)
Cl3? Cl 0.0804(19) 0.0776(17) 0.1242(5)
Cl4? Cl 0.0427(11) 0.1358(10) 0.1327(3)
C16? C 0.0410(20) 0.0140(40) 0.0370(5)
C17? C 0.0162(17) 0.0644(13) 0.1238(4)
C18? C 0.0427(18) 0.0759(14) 0.0107(5)
C19? C 0.0850(20) 0.0430(20) 0.0263(6)
loop_
_geom_bond_atom_site_label_1
_geom_bond_atom_site_label_2
_geom_bond_site_symmetry_1
_geom_bond_site_symmetry_2
B1 C13 1_555 1_555
N1 C1 1_555 1_555
N2 C5 1_555 1_555
C1 C2 1_555 1_555
C2 C3 1_555 1_555
C3 C4 1_555 1_555
C4 C5 1_555 1_555
C5 N1 1_555 1_555
C6 N2 1_555 1_555
C7 C6 1_555 1_555
C8 C7 1_555 1_555
C9 C8 1_555 1_555
C10 C9 1_555 1_555
C11 C10 1_555 1_555
C12 C11 1_555 1_555
C13 C12 1_555 1_555
C14 C11 1_555 1_555
C15 C12 1_555 1_555
H1 C1 1_555 1_555
H2 C2 1_555 1_555
H3 C3 1_555 1_555
H4 C4 1_555 1_555
H5 C7 1_555 1_555
H6 C8 1_555 1_555
H7 C14 1_555 1_555
H8 C14 1_555 1_555
H9 C14 1_555 1_555
H10 C15 1_555 1_555
H11 C15 1_555 1_555
H12 C15 1_555 1_555
C5K N2 1_555 1_555
N1K C5K 1_555 1_555
C1K N1K 1_555 1_555
C2K C1K 1_555 1_555
C3K C2K 1_555 1_555
C4K C5K 1_555 1_555
H4K C4K 1_555 1_555
H3K C3K 1_555 1_555
H2K C2K 1_555 1_555
H1K C1K 1_555 1_555
C7K C6 1_555 1_555
C8K C9 1_555 1_555
H6K C8K 1_555 1_555
H5K C7K 1_555 1_555
C11K C10 1_555 1_555
C12K C13 1_555 1_555
C15K C12K 1_555 1_555
H10K C15K 1_555 1_555
H11K C15K 1_555 1_555
H12K C15K 1_555 1_555
C14K C11K 1_555 1_555
H7K C14K 1_555 1_555
H8K C14K 1_555 1_555
H9K C14K 1_555 1_555
C13A B1 1_555 1_555
C12A C13A 1_555 1_555
C11A C12A 1_555 1_555
C10A C11A 1_555 1_555
C9A C10A 1_555 1_555
C8A C9A 1_555 1_555
C7A C8A 1_555 1_555
C6A C7A 1_555 1_555
N2A C6A 1_555 1_555
C5A N2A 1_555 1_555
N1A C5A 1_555 1_555
C1A N1A 1_555 1_555
C2A C1A 1_555 1_555
C3A C2A 1_555 1_555
C4A C5A 1_555 1_555
H4A C4A 1_555 1_555
H3A C3A 1_555 1_555
H2A C2A 1_555 1_555
H1A C1A 1_555 1_555
C5H N2A 1_555 1_555
N1H C5H 1_555 1_555
C1H N1H 1_555 1_555
C2H C1H 1_555 1_555
C3H C2H 1_555 1_555
C4H C5H 1_555 1_555
H4H C4H 1_555 1_555
H3H C3H 1_555 1_555
H2H C2H 1_555 1_555
H1H C1H 1_555 1_555
C7H C6A 1_555 1_555
C8H C9A 1_555 1_555
H6H C8H 1_555 1_555
H5H C7H 1_555 1_555
H5A C7A 1_555 1_555
H6A C8A 1_555 1_555
C11H C10A 1_555 1_555
C12H C13A 1_555 1_555
C15H C12H 1_555 1_555
H10H C15H 1_555 1_555
H11H C15H 1_555 1_555
H12H C15H 1_555 1_555
C14H C11H 1_555 1_555
H7H C14H 1_555 1_555
H8H C14H 1_555 1_555
H9H C14H 1_555 1_555
C14A C11A 1_555 1_555
H7A C14A 1_555 1_555
H8A C14A 1_555 1_555
H9A C14A 1_555 1_555
C15A C12A 1_555 1_555
H10A C15A 1_555 1_555
H11A C15A 1_555 1_555
H12A C15A 1_555 1_555
C13C B1 1_555 1_555
C12C C13C 1_555 1_555
C11C C12C 1_555 1_555
C10C C11C 1_555 1_555
C9C C10C 1_555 1_555
C8C C9C 1_555 1_555
C7C C8C 1_555 1_555
C6C C7C 1_555 1_555
N2C C6C 1_555 1_555
C5C N2C 1_555 1_555
N1C C5C 1_555 1_555
C1C N1C 1_555 1_555
C2C C1C 1_555 1_555
C3C C2C 1_555 1_555
C4C C5C 1_555 1_555
H4C C4C 1_555 1_555
H3C C3C 1_555 1_555
H2C C2C 1_555 1_555
H1C C1C 1_555 1_555
C5J N2C 1_555 1_555
N1J C5J 1_555 1_555
C1J N1J 1_555 1_555
C2J C1J 1_555 1_555
C3J C2J 1_555 1_555
C4J C5J 1_555 1_555
H4J C4J 1_555 1_555
H3J C3J 1_555 1_555
H2J C2J 1_555 1_555
H1J C1J 1_555 1_555
C7J C6C 1_555 1_555
C8J C9C 1_555 1_555
H6J C8J 1_555 1_555
H5J C7J 1_555 1_555
H5C C7C 1_555 1_555
H6C C8C 1_555 1_555
C11J C10C 1_555 1_555
C12J C13C 1_555 1_555
C15J C12J 1_555 1_555
H10J C15J 1_555 1_555
H11J C15J 1_555 1_555
H12J C15J 1_555 1_555
C14J C11J 1_555 1_555
H7J C14J 1_555 1_555
H8J C14J 1_555 1_555
H9J C14J 1_555 1_555
C14C C11C 1_555 1_555
H7C C14C 1_555 1_555
H8C C14C 1_555 1_555
H9C C14C 1_555 1_555
C15C C12C 1_555 1_555
H10C C15C 1_555 1_555
H11C C15C 1_555 1_555
H12C C15C 1_555 1_555
C3K C4K 1_555 1_555
C7K C8K 1_555 1_555
C11K C12K 1_555 1_555
C3A C4A 1_555 1_555
C3H C4H 1_555 1_555
C7H C8H 1_555 1_555
C11H C12H 1_555 1_555
C3C C4C 1_555 1_555
C3J C4J 1_555 1_555
C7J C8J 1_555 1_555
C11J C12J 1_555 1_555

#END
