
#######################################################################
#
#                 Cambridge Crystallographic Data Centre
#                                CCDC 
#
#######################################################################
#
# If this CIF has been generated from an entry in the Cambridge 
# Structural Database, then it will include bibliographic, chemical, 
# crystal, experimental, refinement or atomic coordinate data resulting 
# from the CCDC's data processing and validation procedures.
#
#######################################################################

data_AHOGUZ
_chemical_formula_moiety         'C96 H84 B1 N9,2.7(C1 H2 Cl2),0.67(H2 O1)'
_chemical_name_systematic        
"tris(3-(4-(2,2'-Dipyridylamino)-4'-biphenyl)-6-duryl)borane dichloromethane solvate hydrate"
_symmetry_cell_setting           rhombohedral
_symmetry_space_group_name_H-M   'R -3'
_symmetry_Int_Tables_number      148
_space_group_name_Hall           '-R 3'
loop_
_symmetry_equiv_pos_site_id
_symmetry_equiv_pos_as_xyz
1 x,y,z
2 -y,x-y,z
3 -x+y,-x,z
4 1/3+x,2/3+y,2/3+z
5 1/3-y,2/3+x-y,2/3+z
6 1/3-x+y,2/3-x,2/3+z
7 2/3+x,1/3+y,1/3+z
8 2/3-y,1/3+x-y,1/3+z
9 2/3-x+y,1/3-x,1/3+z
10 -x,-y,-z
11 y,-x+y,-z
12 x-y,x,-z
13 2/3-x,1/3-y,1/3-z
14 2/3+y,1/3-x+y,1/3-z
15 2/3+x-y,1/3+x,1/3-z
16 1/3-x,2/3-y,2/3-z
17 1/3+y,2/3-x+y,2/3-z
18 1/3+x-y,2/3+x,2/3-z
_cell_length_a                   23.221(4)
_cell_length_b                   23.221(4)
_cell_length_c                   28.923(6)
_cell_angle_alpha                90
_cell_angle_beta                 90
_cell_angle_gamma                120
_cell_volume                     13506.3
_exptl_crystal_colour            colorless
_chemical_melting_point          '232-234 deg.C'
_cell_formula_units_Z            6
loop_
_atom_site_label
_atom_site_type_symbol
_atom_site_fract_x
_atom_site_fract_y
_atom_site_fract_z
B1 B 1.0000 1.0000 0.1164(3)
N1 N 0.4474(3) 0.3393(3) 0.0491(2)
N2 N 0.5170(5) 0.2997(4) 0.0281(3)
N3 N 0.3696(4) 0.3685(3) 0.0713(2)
C1 C 0.9244(3) 0.8792(3) 0.1467(2)
C2 C 0.9331(3) 0.9304(2) 0.1169(2)
C3 C 0.8265(3) 0.8526(3) 0.0796(2)
C4 C 0.8830(3) 0.9170(3) 0.0841(2)
C5 C 0.8701(3) 0.8150(3) 0.1422(2)
C6 C 0.8228(3) 0.8020(3) 0.1080(2)
C7 C 0.9728(3) 0.8925(3) 0.1856(2)
C8 C 0.8636(3) 0.7598(3) 0.1739(2)
C9 C 0.7734(3) 0.8394(3) 0.0450(2)
C10 C 0.8891(3) 0.9698(3) 0.0505(2)
C11 C 0.7669(3) 0.7320(3) 0.1010(2)
C12 C 0.7667(3) 0.6958(3) 0.0637(2)
C13 C 0.6612(3) 0.6394(3) 0.1218(2)
C14 C 0.7163(4) 0.6319(3) 0.0562(2)
C15 C 0.7124(3) 0.7019(3) 0.1298(2)
C16 C 0.6619(3) 0.6017(3) 0.0850(2)
C17 C 0.6059(3) 0.5331(3) 0.0752(2)
C18 C 0.5728(3) 0.4889(3) 0.1118(2)
C19 C 0.5006(3) 0.4063(3) 0.0586(2)
C20 C 0.5839(3) 0.5116(3) 0.0313(2)
C21 C 0.5322(4) 0.4483(4) 0.0227(3)
C22 C 0.5210(3) 0.4254(3) 0.1033(2)
C23 C 0.4602(5) 0.3004(5) 0.0202(3)
C24 C 0.4183(5) 0.2650(5) -0.0128(4)
C25 C 0.4340(7) 0.2303(6) -0.0430(4)
C26 C 0.4879(6) 0.2272(5) -0.0345(4)
C27 C 0.5338(6) 0.2591(6) -0.0023(4)
C28 C 0.3811(4) 0.3190(4) 0.0625(2)
C29 C 0.3336(4) 0.2529(4) 0.0659(2)
C30 C 0.2711(4) 0.2380(5) 0.0791(2)
C31 C 0.2571(6) 0.2863(6) 0.0887(3)
C32 C 0.3072(5) 0.3517(5) 0.0839(3)
H1 H 1.0077 0.9382 0.1846
H2 H 0.9916 0.8642 0.1824
H3 H 0.9500 0.8838 0.2147
H4 H 0.8239 0.7191 0.1664
H5 H 0.8614 0.7714 0.2055
H6 H 0.9015 0.7541 0.1700
H7 H 0.7394 0.7935 0.0464
H8 H 0.7924 0.8495 0.0145
H9 H 0.7544 0.8669 0.0517
H10 H 0.8508 0.9515 0.0306
H11 H 0.9285 0.9847 0.0321
H12 H 0.8919 1.0067 0.0674
H13 H 0.8018 0.7150 0.0428
H14 H 0.6247 0.6215 0.1415
H15 H 0.7188 0.6084 0.0310
H16 H 0.7106 0.7251 0.1555
H17 H 0.5859 0.5026 0.1421
H18 H 0.6043 0.5404 0.0066
H19 H 0.5188 0.4344 -0.0075
H20 H 0.5002 0.3960 0.1276
H21 H 0.3778 0.2638 -0.0153
H22 H 0.4076 0.2095 -0.0687
H23 H 0.4948 0.1990 -0.0536
H24 H 0.5721 0.2563 0.0008
H25 H 0.3436 0.2196 0.0595
H26 H 0.2377 0.1938 0.0816
H27 H 0.2148 0.2761 0.0982
H28 H 0.2976 0.3854 0.0897
C2A C 1.0696(2) 1.0027(4) 0.1169(2)
C1A C 1.1208(3) 1.0452(4) 0.1467(2)
C5A C 1.1850(3) 1.0551(4) 0.1422(2)
C6A C 1.1980(3) 1.0208(4) 0.1080(2)
C3A C 1.1474(3) 0.9739(4) 0.0796(2)
C4A C 1.0830(3) 0.9660(4) 0.0841(2)
C10A C 1.0302(3) 0.9193(4) 0.0505(2)
H10A H 1.0485 0.8993 0.0306
H11A H 1.0153 0.9438 0.0321
H12A H 0.9933 0.8852 0.0674
C9A C 1.1606(3) 0.9340(4) 0.0450(2)
H7A H 1.2065 0.9459 0.0464
H8A H 1.1505 0.9429 0.0145
H9A H 1.1331 0.8875 0.0517
C11A C 1.2680(3) 1.0349(4) 0.1010(2)
C12A C 1.3042(3) 1.0709(4) 0.0637(2)
C14A C 1.3681(3) 1.0844(5) 0.0562(2)
C16A C 1.3983(3) 1.0602(4) 0.0850(2)
C13A C 1.3606(3) 1.0218(4) 0.1218(2)
C15A C 1.2981(3) 1.0105(4) 0.1298(2)
H16A H 1.2749 0.9855 0.1555
H14A H 1.3785 1.0032 0.1415
C17A C 1.4669(3) 1.0728(4) 0.0752(2)
C18A C 1.5111(3) 1.0839(4) 0.1118(2)
C22A C 1.5746(3) 1.0956(4) 0.1033(2)
C19A C 1.5937(3) 1.0943(4) 0.0586(2)
N1A N 1.6607(3) 1.1081(4) 0.0491(2)
C23A C 1.6996(5) 1.1598(7) 0.0202(3)
N2A N 1.7003(4) 1.2173(6) 0.0281(3)
C27A C 1.7409(6) 1.2747(8) -0.0023(4)
C26A C 1.7728(5) 1.2607(8) -0.0345(4)
C25A C 1.7697(6) 1.2037(9) -0.0430(4)
C24A C 1.7350(5) 1.1533(7) -0.0128(4)
H21A H 1.7362 1.1140 -0.0153
H22A H 1.7905 1.1981 -0.0687
H23A H 1.8010 1.2958 -0.0536
H24A H 1.7437 1.3158 0.0008
C28A C 1.6810(4) 1.0621(6) 0.0625(2)
N3A N 1.6315(3) 1.0011(5) 0.0713(2)
C32A C 1.6483(5) 0.9555(7) 0.0839(3)
C31A C 1.7137(6) 0.9708(8) 0.0887(3)
C30A C 1.7620(5) 1.0331(6) 0.0791(2)
C29A C 1.7471(4) 1.0807(6) 0.0659(2)
H25A H 1.7804 1.1240 0.0595
H26A H 1.8062 1.0439 0.0816
H27A H 1.7239 0.9387 0.0982
H28A H 1.6146 0.9122 0.0897
C21A C 1.5517(4) 1.0839(6) 0.0227(3)
C20A C 1.4884(3) 1.0723(4) 0.0313(2)
H18A H 1.4596 1.0639 0.0066
H19A H 1.5656 1.0844 -0.0075
H20A H 1.6040 1.1042 0.1276
H17A H 1.4974 1.0833 0.1421
H15A H 1.3916 1.1104 0.0310
H13A H 1.2850 1.0868 0.0428
C8A C 1.2402(3) 1.1038(4) 0.1739(2)
H4A H 1.2809 1.1048 0.1664
H5A H 1.2286 1.0900 0.2055
H6A H 1.2459 1.1474 0.1700
C7A C 1.1075(3) 1.0803(4) 0.1856(2)
H1A H 1.0618 1.0695 0.1846
H2A H 1.1358 1.1274 0.1824
H3A H 1.1162 1.0662 0.2147
C2B C 0.9973(4) 1.0669(3) 0.1169(2)
C1B C 0.9548(4) 1.0756(3) 0.1467(2)
C5B C 0.9449(4) 1.1299(3) 0.1422(2)
C6B C 0.9792(4) 1.1772(3) 0.1080(2)
C3B C 1.0261(4) 1.1735(3) 0.0796(2)
C4B C 1.0340(4) 1.1170(3) 0.0841(2)
C10B C 1.0807(4) 1.1109(3) 0.0505(2)
H10B H 1.1007 1.1492 0.0306
H11B H 1.0562 1.0715 0.0321
H12B H 1.1148 1.1081 0.0674
C9B C 1.0660(4) 1.2266(3) 0.0450(2)
H7B H 1.0541 1.2606 0.0464
H8B H 1.0571 1.2076 0.0145
H9B H 1.1125 1.2456 0.0517
C11B C 0.9651(4) 1.2331(3) 0.1010(2)
C12B C 0.9291(4) 1.2333(3) 0.0637(2)
C14B C 0.9156(5) 1.2837(4) 0.0562(2)
C16B C 0.9398(4) 1.3381(3) 0.0850(2)
C13B C 0.9782(4) 1.3388(3) 0.1218(2)
C15B C 0.9895(4) 1.2876(3) 0.1298(2)
H16B H 1.0145 1.2894 0.1555
H14B H 0.9968 1.3753 0.1415
C17B C 0.9272(4) 1.3941(3) 0.0752(2)
C18B C 0.9161(4) 1.4272(3) 0.1118(2)
C22B C 0.9044(4) 1.4790(3) 0.1033(2)
C19B C 0.9057(4) 1.4994(3) 0.0586(2)
N1B N 0.8919(4) 1.5526(3) 0.0491(2)
C23B C 0.8402(7) 1.5398(5) 0.0202(3)
N2B N 0.7827(6) 1.4830(5) 0.0281(3)
C27B C 0.7253(8) 1.4662(6) -0.0023(4)
C26B C 0.7393(8) 1.5121(6) -0.0345(4)
C25B C 0.7963(9) 1.5660(7) -0.0430(4)
C24B C 0.8467(7) 1.5817(5) -0.0128(4)
H21B H 0.8860 1.6222 -0.0153
H22B H 0.8019 1.5924 -0.0687
H23B H 0.7042 1.5052 -0.0536
H24B H 0.6842 1.4279 0.0008
C28B C 0.9379(6) 1.6189(4) 0.0625(2)
N3B N 0.9989(5) 1.6304(4) 0.0713(2)
C32B C 1.0445(7) 1.6928(5) 0.0839(3)
C31B C 1.0292(8) 1.7429(6) 0.0887(3)
C30B C 0.9669(6) 1.7289(4) 0.0791(2)
C29B C 0.9193(6) 1.6664(4) 0.0659(2)
H25B H 0.8760 1.6564 0.0595
H26B H 0.9561 1.7623 0.0816
H27B H 1.0613 1.7852 0.0982
H28B H 1.0878 1.7024 0.0897
C21B C 0.9161(6) 1.4678(4) 0.0227(3)
C20B C 0.9277(4) 1.4161(3) 0.0313(2)
H18B H 0.9361 1.3957 0.0066
H19B H 0.9156 1.4812 -0.0075
H20B H 0.8958 1.4998 0.1276
H17B H 0.9167 1.4141 0.1421
H15B H 0.8896 1.2812 0.0310
H13B H 0.9132 1.1982 0.0428
C8B C 0.8962(4) 1.1364(3) 0.1739(2)
H4B H 0.8952 1.1761 0.1664
H5B H 0.9100 1.1386 0.2055
H6B H 0.8526 1.0985 0.1700
C7B C 0.9197(4) 1.0272(3) 0.1856(2)
H1B H 0.9305 0.9923 0.1846
H2B H 0.8726 1.0084 0.1824
H3B H 0.9338 1.0500 0.2147
Cl1 Cl 0.5702(7) 0.4131(6) -0.0983(3)
Cl2 Cl 0.5412(5) 0.4790(5) -0.1737(3)
C33 C 0.5539(9) 0.4713(9) -0.1121(6)
O1 O 0.6667 0.3333 -0.1167(8)
Cl3? Cl 0.5159(9) 0.3968(8) -0.1080(6)
Cl4? Cl 0.5968(12) 0.5000(10) -0.1595(8)
Cl5? Cl 0.5207(14) 0.4077(16) -0.1625(10)
Cl6? Cl 0.6160(30) 0.4690(30) -0.1275(19)
loop_
_geom_bond_atom_site_label_1
_geom_bond_atom_site_label_2
_geom_bond_site_symmetry_1
_geom_bond_site_symmetry_2
B1 C2 1_555 1_555
N1 C19 1_555 1_555
N2 C23 1_555 1_555
N3 C28 1_555 1_555
C1 C2 1_555 1_555
C2 C4 1_555 1_555
C3 C4 1_555 1_555
C4 C10 1_555 1_555
C5 C1 1_555 1_555
C6 C3 1_555 1_555
C7 C1 1_555 1_555
C8 C5 1_555 1_555
C9 C3 1_555 1_555
C10 H10 1_555 1_555
C11 C6 1_555 1_555
C12 C11 1_555 1_555
C13 C15 1_555 1_555
C14 C12 1_555 1_555
C15 C11 1_555 1_555
C16 C13 1_555 1_555
C17 C16 1_555 1_555
C18 C17 1_555 1_555
C19 C21 1_555 1_555
C20 C17 1_555 1_555
C21 C20 1_555 1_555
C22 C18 1_555 1_555
C23 N1 1_555 1_555
C24 C23 1_555 1_555
C25 C24 1_555 1_555
C26 C25 1_555 1_555
C27 N2 1_555 1_555
C28 N1 1_555 1_555
C29 C28 1_555 1_555
C30 C29 1_555 1_555
C31 C30 1_555 1_555
C32 N3 1_555 1_555
Cl1 C33 1_555 1_555
Cl2 C33 1_555 1_555
H1 C7 1_555 1_555
H2 C7 1_555 1_555
H3 C7 1_555 1_555
H4 C8 1_555 1_555
H5 C8 1_555 1_555
H6 C8 1_555 1_555
H7 C9 1_555 1_555
H8 C9 1_555 1_555
H9 C9 1_555 1_555
H11 C10 1_555 1_555
H12 C10 1_555 1_555
H13 C12 1_555 1_555
H14 C13 1_555 1_555
H15 C14 1_555 1_555
H16 C15 1_555 1_555
H17 C18 1_555 1_555
H18 C20 1_555 1_555
H19 C21 1_555 1_555
H20 C22 1_555 1_555
H21 C24 1_555 1_555
H22 C25 1_555 1_555
H23 C26 1_555 1_555
H24 C27 1_555 1_555
H25 C29 1_555 1_555
H26 C30 1_555 1_555
H27 C31 1_555 1_555
H28 C32 1_555 1_555
C2A B1 1_555 1_555
C1A C2A 1_555 1_555
C5A C1A 1_555 1_555
C6A C5A 1_555 1_555
C3A C6A 1_555 1_555
C4A C2A 1_555 1_555
C10A C4A 1_555 1_555
H10A C10A 1_555 1_555
H11A C10A 1_555 1_555
H12A C10A 1_555 1_555
C9A C3A 1_555 1_555
H7A C9A 1_555 1_555
H8A C9A 1_555 1_555
H9A C9A 1_555 1_555
C11A C6A 1_555 1_555
C12A C11A 1_555 1_555
C14A C12A 1_555 1_555
C16A C14A 1_555 1_555
C13A C16A 1_555 1_555
C15A C11A 1_555 1_555
H16A C15A 1_555 1_555
H14A C13A 1_555 1_555
C17A C16A 1_555 1_555
C18A C17A 1_555 1_555
C22A C18A 1_555 1_555
C19A C22A 1_555 1_555
N1A C19A 1_555 1_555
C23A N1A 1_555 1_555
N2A C23A 1_555 1_555
C27A N2A 1_555 1_555
C26A C27A 1_555 1_555
C25A C26A 1_555 1_555
C24A C23A 1_555 1_555
H21A C24A 1_555 1_555
H22A C25A 1_555 1_555
H23A C26A 1_555 1_555
H24A C27A 1_555 1_555
C28A N1A 1_555 1_555
N3A C28A 1_555 1_555
C32A N3A 1_555 1_555
C31A C32A 1_555 1_555
C30A C31A 1_555 1_555
C29A C28A 1_555 1_555
H25A C29A 1_555 1_555
H26A C30A 1_555 1_555
H27A C31A 1_555 1_555
H28A C32A 1_555 1_555
C21A C19A 1_555 1_555
C20A C17A 1_555 1_555
H18A C20A 1_555 1_555
H19A C21A 1_555 1_555
H20A C22A 1_555 1_555
H17A C18A 1_555 1_555
H15A C14A 1_555 1_555
H13A C12A 1_555 1_555
C8A C5A 1_555 1_555
H4A C8A 1_555 1_555
H5A C8A 1_555 1_555
H6A C8A 1_555 1_555
C7A C1A 1_555 1_555
H1A C7A 1_555 1_555
H2A C7A 1_555 1_555
H3A C7A 1_555 1_555
C2B B1 1_555 1_555
C1B C2B 1_555 1_555
C5B C1B 1_555 1_555
C6B C5B 1_555 1_555
C3B C6B 1_555 1_555
C4B C2B 1_555 1_555
C10B C4B 1_555 1_555
H10B C10B 1_555 1_555
H11B C10B 1_555 1_555
H12B C10B 1_555 1_555
C9B C3B 1_555 1_555
H7B C9B 1_555 1_555
H8B C9B 1_555 1_555
H9B C9B 1_555 1_555
C11B C6B 1_555 1_555
C12B C11B 1_555 1_555
C14B C12B 1_555 1_555
C16B C14B 1_555 1_555
C13B C16B 1_555 1_555
C15B C11B 1_555 1_555
H16B C15B 1_555 1_555
H14B C13B 1_555 1_555
C17B C16B 1_555 1_555
C18B C17B 1_555 1_555
C22B C18B 1_555 1_555
C19B C22B 1_555 1_555
N1B C19B 1_555 1_555
C23B N1B 1_555 1_555
N2B C23B 1_555 1_555
C27B N2B 1_555 1_555
C26B C27B 1_555 1_555
C25B C26B 1_555 1_555
C24B C23B 1_555 1_555
H21B C24B 1_555 1_555
H22B C25B 1_555 1_555
H23B C26B 1_555 1_555
H24B C27B 1_555 1_555
C28B N1B 1_555 1_555
N3B C28B 1_555 1_555
C32B N3B 1_555 1_555
C31B C32B 1_555 1_555
C30B C31B 1_555 1_555
C29B C28B 1_555 1_555
H25B C29B 1_555 1_555
H26B C30B 1_555 1_555
H27B C31B 1_555 1_555
H28B C32B 1_555 1_555
C21B C19B 1_555 1_555
C20B C17B 1_555 1_555
H18B C20B 1_555 1_555
H19B C21B 1_555 1_555
H20B C22B 1_555 1_555
H17B C18B 1_555 1_555
H15B C14B 1_555 1_555
H13B C12B 1_555 1_555
C8B C5B 1_555 1_555
H4B C8B 1_555 1_555
H5B C8B 1_555 1_555
H6B C8B 1_555 1_555
C7B C1B 1_555 1_555
H1B C7B 1_555 1_555
H2B C7B 1_555 1_555
H3B C7B 1_555 1_555
C5 C6 1_555 1_555
C14 C16 1_555 1_555
C19 C22 1_555 1_555
C26 C27 1_555 1_555
C31 C32 1_555 1_555
C3A C4A 1_555 1_555
C13A C15A 1_555 1_555
C25A C24A 1_555 1_555
C30A C29A 1_555 1_555
C21A C20A 1_555 1_555
C3B C4B 1_555 1_555
C13B C15B 1_555 1_555
C25B C24B 1_555 1_555
C30B C29B 1_555 1_555
C21B C20B 1_555 1_555

#END
