
#######################################################################
#
#                 Cambridge Crystallographic Data Centre
#                                CCDC 
#
#######################################################################
#
# If this CIF has been generated from an entry in the Cambridge 
# Structural Database, then it will include bibliographic, chemical, 
# crystal, experimental, refinement or atomic coordinate data resulting 
# from the CCDC's data processing and validation procedures.
#
#######################################################################

data_AHOMIV
_chemical_formula_moiety         'C14 H11 I1 N2 S1'
_chemical_name_systematic        
6-iodo-3-(methylsulfanyl)-2-phenylimidazo[1,2-a]pyridine
_symmetry_cell_setting           triclinic
_symmetry_space_group_name_H-M   'P -1'
_symmetry_Int_Tables_number      2
_space_group_name_Hall           '-P 1'
loop_
_symmetry_equiv_pos_site_id
_symmetry_equiv_pos_as_xyz
1 x,y,z
2 -x,-y,-z
_cell_length_a                   7.9798(13)
_cell_length_b                   8.2157(14)
_cell_length_c                   11.2639(18)
_cell_angle_alpha                91.830(2)
_cell_angle_beta                 96.597(3)
_cell_angle_gamma                110.961(2)
_cell_volume                     682.897
_exptl_crystal_colour            colorless
_exptl_crystal_description       block
_cell_formula_units_Z            2
loop_
_atom_site_label
_atom_site_type_symbol
_atom_site_fract_x
_atom_site_fract_y
_atom_site_fract_z
N1 N 0.3931(3) 0.6080(3) 0.1675(2)
C1 C 0.1765(4) 0.4440(4) -0.1383(3)
C2 C 0.0219(4) 0.2919(5) -0.1477(3)
H1 H -0.0173 0.2394 -0.0789
C3 C -0.0732(5) 0.2191(5) -0.2594(4)
H2 H -0.1752 0.1172 -0.2652
C4 C -0.0176(5) 0.2969(6) -0.3623(4)
H3 H -0.0826 0.2482 -0.4368
C5 C 0.1344(6) 0.4468(6) -0.3539(3)
H4 H 0.1730 0.4987 -0.4230
N2 N 0.3636(3) 0.7102(3) -0.0120(2)
C6 C 0.2305(4) 0.5210(5) -0.2421(3)
H5 H 0.3319 0.6234 -0.2371
C7 C 0.2746(4) 0.5322(4) -0.0212(3)
C8 C 0.4349(4) 0.7532(4) 0.1010(3)
C9 C 0.2908(4) 0.4640(3) 0.0885(3)
C10 C 0.4440(4) 0.6201(4) 0.2884(3)
H6 H 0.4113 0.5209 0.3311
C11 C 0.5428(4) 0.7793(4) 0.3450(3)
C12 C 0.5933(4) 0.9319(4) 0.2812(3)
H7 H 0.6632 1.0400 0.3212
C13 C 0.5386(4) 0.9193(4) 0.1611(3)
H8 H 0.5692 1.0189 0.1188
C14 C 0.0231(5) 0.2176(6) 0.1931(5)
H9 H 0.0433 0.3080 0.2552
H10 H -0.0170 0.1057 0.2258
H11 H -0.0678 0.2215 0.1307
I1 I 0.61752(3) 0.80021(3) 0.529713(18)
S1 S 0.23341(10) 0.25123(9) 0.13142(8)
loop_
_geom_bond_atom_site_label_1
_geom_bond_atom_site_label_2
_geom_bond_site_symmetry_1
_geom_bond_site_symmetry_2
N1 C8 1_555 1_555
C1 C2 1_555 1_555
C2 H1 1_555 1_555
C3 C2 1_555 1_555
H2 C3 1_555 1_555
C4 C3 1_555 1_555
H3 C4 1_555 1_555
C5 C4 1_555 1_555
H4 C5 1_555 1_555
N2 C7 1_555 1_555
C6 C1 1_555 1_555
H5 C6 1_555 1_555
C7 C1 1_555 1_555
C8 N2 1_555 1_555
C9 N1 1_555 1_555
C10 N1 1_555 1_555
H6 C10 1_555 1_555
C11 C10 1_555 1_555
C12 C11 1_555 1_555
H7 C12 1_555 1_555
C13 C8 1_555 1_555
H8 C13 1_555 1_555
C14 H9 1_555 1_555
H10 C14 1_555 1_555
H11 C14 1_555 1_555
I1 C11 1_555 1_555
S1 C9 1_555 1_555
C5 C6 1_555 1_555
C7 C9 1_555 1_555
C12 C13 1_555 1_555
C14 S1 1_555 1_555

#END
