
#######################################################################
#
#                 Cambridge Crystallographic Data Centre
#                                CCDC 
#
#######################################################################
#
# If this CIF has been generated from an entry in the Cambridge 
# Structural Database, then it will include bibliographic, chemical, 
# crystal, experimental, refinement or atomic coordinate data resulting 
# from the CCDC's data processing and validation procedures.
#
#######################################################################

data_AHOROG
_chemical_formula_moiety         'C20 H15 N5 O2 2+,2(Cl1 O4 1-),H2 O1'
_chemical_name_systematic        
'bis(2-oxidoimidazo[1,2-a]pyridin-1-ium-3-yl)(pyridin-1-ium-4-yl)methyl radical cation bis(perchlorate) monohydrate'
_symmetry_cell_setting           triclinic
_symmetry_space_group_name_H-M   'P -1'
_symmetry_Int_Tables_number      2
_space_group_name_Hall           '-P 1'
loop_
_symmetry_equiv_pos_site_id
_symmetry_equiv_pos_as_xyz
1 x,y,z
2 -x,-y,-z
_cell_length_a                   9.7180(5)
_cell_length_b                   10.2978(5)
_cell_length_c                   12.2586(5)
_cell_angle_alpha                89.871(4)
_cell_angle_beta                 80.340(4)
_cell_angle_gamma                74.104(4)
_cell_volume                     1161.89
_exptl_crystal_colour            green
_exptl_crystal_description       block
_cell_formula_units_Z            2
loop_
_atom_site_label
_atom_site_type_symbol
_atom_site_fract_x
_atom_site_fract_y
_atom_site_fract_z
C1 C 0.9057(4) 0.7694(4) 0.5344(3)
H1 H 0.9455 0.8360 0.5554
C2 C 0.9687(5) 0.6902(5) 0.4407(4)
H2 H 1.0525 0.7019 0.3976
C3 C 0.9069(6) 0.5908(5) 0.4091(4)
H3 H 0.9520 0.5353 0.3462
C4 C 0.7816(5) 0.5744(4) 0.4693(4)
H4 H 0.7395 0.5100 0.4474
C5 C 0.7189(4) 0.6570(4) 0.5645(3)
C6 C 0.5733(4) 0.7681(4) 0.7178(3)
C7 C 0.6957(4) 0.8212(4) 0.6943(3)
C8 C 0.7403(4) 0.9024(4) 0.7674(3)
C9 C 0.6462(4) 1.0057(4) 0.8354(3)
C10 C 0.4329(4) 1.0794(4) 0.7352(4)
H5 H 0.4753 1.0191 0.6747
C11 C 0.2987(5) 1.1681(5) 0.7386(5)
H6 H 0.2496 1.1686 0.6796
C12 C 0.2349(5) 1.2572(5) 0.8292(5)
H7 H 0.1421 1.3147 0.8314
C13 C 0.3071(6) 1.2616(5) 0.9156(5)
H8 H 0.2657 1.3225 0.9758
C14 C 0.4442(5) 1.1719(4) 0.9098(4)
C15 C 0.6676(5) 1.0573(4) 0.9422(3)
C16 C 0.8959(4) 0.8644(4) 0.7821(3)
C17 C 0.9708(5) 0.9601(5) 0.7812(4)
H9 H 0.9266 1.0501 0.7697
C18 C 1.1136(5) 0.9195(6) 0.7977(4)
H10 H 1.1657 0.9829 0.7980
C19 C 1.1067(5) 0.6974(6) 0.8151(4)
H11 H 1.1543 0.6086 0.8274
C20 C 0.9658(4) 0.7306(4) 0.7993(4)
H12 H 0.9169 0.6645 0.8000
N1 N 0.7829(3) 0.7500(3) 0.5977(3)
N2 N 0.5948(4) 0.6679(3) 0.6375(3)
H13 H 0.5370 0.6186 0.6341
N3 N 0.5034(3) 1.0812(3) 0.8220(3)
N4 N 0.5396(4) 1.1551(4) 0.9805(3)
H14 H 0.5224 1.2003 1.0425
N5 N 1.1757(4) 0.7927(5) 0.8130(4)
H15 H 1.2649 0.7699 0.8220
O1 O 0.4678(3) 0.7980(3) 0.7955(3)
O2 O 0.7675(4) 1.0200(4) 0.9918(3)
Cl1 Cl 0.7704(2) 0.41117(16) 0.88056(15)
O3 O 0.8897(11) 0.4387(12) 0.9193(10)
O4 O 0.7109(10) 0.3920(8) 0.9933(6)
O5 O 0.7970(16) 0.3025(9) 0.8238(9)
O6 O 0.7115(13) 0.5291(9) 0.8467(9)
Cl2 Cl 0.70049(14) 1.16332(13) 0.50981(10)
O7 O 0.5841(11) 1.2460(11) 0.5803(9)
O8 O 0.7447(8) 1.2537(6) 0.4373(4)
O9 O 0.6447(8) 1.0715(6) 0.4640(5)
O10 O 0.7896(10) 1.1115(7) 0.5820(7)
O11 O 0.4465(5) 0.4754(5) 0.7140(6)
H16 H 0.5052 0.4695 0.7592
H17 H 0.4913 0.4314 0.6539
loop_
_geom_bond_atom_site_label_1
_geom_bond_atom_site_label_2
_geom_bond_site_symmetry_1
_geom_bond_site_symmetry_2
C1 H1 1_555 1_555
C2 C1 1_555 1_555
H2 C2 1_555 1_555
C3 C2 1_555 1_555
H3 C3 1_555 1_555
C4 C3 1_555 1_555
H4 C4 1_555 1_555
C5 C4 1_555 1_555
C6 C7 1_555 1_555
C7 C8 1_555 1_555
C8 C9 1_555 1_555
C9 C15 1_555 1_555
C10 H5 1_555 1_555
C11 C10 1_555 1_555
H6 C11 1_555 1_555
C12 C11 1_555 1_555
H7 C12 1_555 1_555
C13 C12 1_555 1_555
H8 C13 1_555 1_555
C14 C13 1_555 1_555
C15 N4 1_555 1_555
C16 C8 1_555 1_555
C17 C16 1_555 1_555
H9 C17 1_555 1_555
C18 C17 1_555 1_555
H10 C18 1_555 1_555
C19 H11 1_555 1_555
C20 C16 1_555 1_555
H12 C20 1_555 1_555
N1 C1 1_555 1_555
N2 C5 1_555 1_555
H13 N2 1_555 1_555
N3 C9 1_555 1_555
N4 C14 1_555 1_555
H14 N4 1_555 1_555
N5 C18 1_555 1_555
H15 N5 1_555 1_555
O1 C6 1_555 1_555
O2 C15 1_555 1_555
Cl1 O3 1_555 1_555
O4 Cl1 1_555 1_555
O5 Cl1 1_555 1_555
O6 Cl1 1_555 1_555
Cl2 O7 1_555 1_555
O8 Cl2 1_555 1_555
O9 Cl2 1_555 1_555
O10 Cl2 1_555 1_555
O11 H16 1_555 1_555
H17 O11 1_555 1_555
C5 N1 1_555 1_555
C6 N2 1_555 1_555
C7 N1 1_555 1_555
C10 N3 1_555 1_555
C14 N3 1_555 1_555
C19 C20 1_555 1_555
C19 N5 1_555 1_555

#END
