
#######################################################################
#
#                 Cambridge Crystallographic Data Centre
#                                CCDC 
#
#######################################################################
#
# If this CIF has been generated from an entry in the Cambridge 
# Structural Database, then it will include bibliographic, chemical, 
# crystal, experimental, refinement or atomic coordinate data resulting 
# from the CCDC's data processing and validation procedures.
#
#######################################################################

data_AHOXIF
_chemical_formula_moiety         'C12 H12 N2 O4'
_chemical_name_systematic        
"2-Hydroxy-5-oxo-2,10-dihydro-3H,5H-dipyrrolo[1,2-a:1',2'-d]pyrazin-10-yl acetate"
_symmetry_cell_setting           orthorhombic
_symmetry_space_group_name_H-M   'P 21 21 21'
_symmetry_Int_Tables_number      19
_space_group_name_Hall           'P 2ac 2ab'
loop_
_symmetry_equiv_pos_site_id
_symmetry_equiv_pos_as_xyz
1 x,y,z
2 1/2+x,1/2-y,-z
3 -x,1/2+y,1/2-z
4 1/2-x,-y,1/2+z
_cell_length_a                   4.81306(18)
_cell_length_b                   10.5171(4)
_cell_length_c                   22.2817(8)
_cell_angle_alpha                90
_cell_angle_beta                 90
_cell_angle_gamma                90
_cell_volume                     1127.89
_exptl_crystal_colour            colorless
_exptl_crystal_description       platelet
_cell_formula_units_Z            4
loop_
_atom_site_label
_atom_site_type_symbol
_atom_site_fract_x
_atom_site_fract_y
_atom_site_fract_z
O1 O 0.4490(8) -0.2201(3) 0.22050(16)
O2 O 0.9980(9) 0.1329(3) 0.31762(15)
H1 H 0.8596 0.1805 0.3023
O3 O 0.7071(9) 0.1767(3) 0.11309(15)
O4 O 1.0382(11) 0.2570(5) 0.0542(3)
N1 N 0.7680(10) -0.0645(4) 0.21078(18)
N2 N 0.6680(10) -0.0393(4) 0.09112(18)
C1 C 0.5733(11) -0.1424(5) 0.1882(2)
C2 C 0.8861(13) -0.0755(5) 0.2723(2)
H2 H 0.9845 -0.1575 0.2774
H3 H 0.7382 -0.0691 0.3030
C3 C 1.0908(12) 0.0376(5) 0.2772(2)
H4 H 1.2757 0.0053 0.2908
C4 C 1.1144(13) 0.0827(5) 0.2126(2)
H5 H 1.2463 0.1429 0.1984
C5 C 0.9255(11) 0.0264(4) 0.1791(2)
C6 C 0.8534(12) 0.0544(5) 0.1143(2)
H6 H 1.0258 0.0587 0.0893
C7 C 0.5804(14) -0.0462(5) 0.0321(3)
H7 H 0.6454 0.0051 -0.0001
C8 C 0.3842(13) -0.1398(5) 0.0280(2)
H8 H 0.2903 -0.1655 -0.0075
C9 C 0.3459(13) -0.1913(5) 0.0858(2)
H9 H 0.2208 -0.2576 0.0962
C10 C 0.5226(11) -0.1283(4) 0.1247(2)
C11 C 0.8270(13) 0.2708(5) 0.0811(3)
C12 C 0.6587(16) 0.3888(5) 0.0818(2)
H10 H 0.4894 0.3747 0.1053
H11 H 0.6086 0.4121 0.0406
H12 H 0.7670 0.4577 0.1000
loop_
_geom_bond_atom_site_label_1
_geom_bond_atom_site_label_2
_geom_bond_site_symmetry_1
_geom_bond_site_symmetry_2
O1 C1 1_555 1_555
O2 H1 1_555 1_555
O3 C6 1_555 1_555
O4 C11 1_555 1_555
N1 C1 1_555 1_555
N2 C6 1_555 1_555
C1 C10 1_555 1_555
C2 N1 1_555 1_555
H2 C2 1_555 1_555
H3 C2 1_555 1_555
C3 O2 1_555 1_555
H4 C3 1_555 1_555
C4 C3 1_555 1_555
H5 C4 1_555 1_555
C5 N1 1_555 1_555
C6 C5 1_555 1_555
H6 C6 1_555 1_555
C7 N2 1_555 1_555
H7 C7 1_555 1_555
C8 C7 1_555 1_555
H8 C8 1_555 1_555
C9 C8 1_555 1_555
H9 C9 1_555 1_555
C10 N2 1_555 1_555
C11 O3 1_555 1_555
C12 C11 1_555 1_555
H10 C12 1_555 1_555
H11 C12 1_555 1_555
H12 C12 1_555 1_555
C2 C3 1_555 1_555
C4 C5 1_555 1_555
C9 C10 1_555 1_555

#END
