
#######################################################################
#
#                 Cambridge Crystallographic Data Centre
#                                CCDC 
#
#######################################################################
#
# If this CIF has been generated from an entry in the Cambridge 
# Structural Database, then it will include bibliographic, chemical, 
# crystal, experimental, refinement or atomic coordinate data resulting 
# from the CCDC's data processing and validation procedures.
#
#######################################################################

data_AHOYAX
_chemical_formula_moiety         '2(C5 H9 N2 1+),O5 Se2 2-'
_chemical_name_systematic        'bis(1,3-Dimethylimidazolium) diselenite'
_symmetry_cell_setting           triclinic
_symmetry_space_group_name_H-M   'P -1'
_symmetry_Int_Tables_number      2
_space_group_name_Hall           '-P 1'
loop_
_symmetry_equiv_pos_site_id
_symmetry_equiv_pos_as_xyz
1 x,y,z
2 -x,-y,-z
_cell_length_a                   7.3171(6)
_cell_length_b                   8.8046(7)
_cell_length_c                   13.4556(11)
_cell_angle_alpha                106.658(2)
_cell_angle_beta                 100.678(2)
_cell_angle_gamma                95.497(2)
_cell_volume                     805.832
_exptl_crystal_colour            colorless
_exptl_crystal_description       prism
_cell_formula_units_Z            2
loop_
_atom_site_label
_atom_site_type_symbol
_atom_site_fract_x
_atom_site_fract_y
_atom_site_fract_z
Se1 Se 0.24633(3) 0.26997(3) 0.618329(19)
Se2 Se 0.32408(3) 0.18484(3) 0.830283(19)
O1 O 0.1782(3) 0.4308(2) 0.59436(15)
O2 O 0.4769(3) 0.2889(2) 0.63104(15)
O3 O 0.2316(3) 0.3221(2) 0.76015(14)
O4 O 0.2903(3) 0.2805(2) 0.94867(14)
O5 O 0.1590(3) 0.0251(2) 0.77846(15)
N1 N 0.4436(3) 0.8017(3) 0.59519(16)
N2 N 0.7062(3) 0.7261(3) 0.64992(17)
C1 C 0.8408(5) 0.6225(4) 0.6752(3)
H1 H 0.7722 0.5190 0.6714
H2 H 0.9183 0.6739 0.7471
H3 H 0.9219 0.6052 0.6239
C2 C 0.5207(4) 0.6780(3) 0.61046(19)
H4 H 0.4556 0.5726 0.5959
C3 C 0.2441(4) 0.7937(4) 0.5469(2)
H5 H 0.2332 0.8092 0.4768
H6 H 0.1916 0.8781 0.5927
H7 H 0.1746 0.6885 0.5388
C4 C 0.5821(4) 0.9335(3) 0.6244(2)
H8 H 0.5655 1.0379 0.6213
C5 C 0.7469(4) 0.8859(3) 0.6587(2)
H9 H 0.8676 0.9507 0.6839
N3 N 0.1929(3) 0.6909(3) 1.06166(16)
N4 N 0.2871(3) 0.7465(3) 0.93121(16)
C6 C 0.3783(4) 0.7341(4) 0.8414(2)
H10 H 0.5152 0.7613 0.8680
H11 H 0.3341 0.8086 0.8038
H12 H 0.3465 0.6241 0.7924
C7 C 0.2745(3) 0.6369(3) 0.9806(2)
H13 H 0.3168 0.5360 0.9612
C8 C 0.1671(4) 0.6070(4) 1.1393(2)
H14 H 0.1667 0.4919 1.1074
H15 H 0.0471 0.6235 1.1598
H16 H 0.2705 0.6495 1.2025
C9 C 0.1534(4) 0.8424(3) 1.0650(2)
H17 H 0.0957 0.9092 1.1150
C10 C 0.2127(4) 0.8775(3) 0.9836(2)
H18 H 0.2048 0.9739 0.9657
loop_
_geom_bond_atom_site_label_1
_geom_bond_atom_site_label_2
_geom_bond_site_symmetry_1
_geom_bond_site_symmetry_2
Se1 O1 1_555 1_555
Se2 O3 1_555 1_555
O2 Se1 1_555 1_555
O3 Se1 1_555 1_555
O4 Se2 1_555 1_555
O5 Se2 1_555 1_555
N1 C2 1_555 1_555
N2 C1 1_555 1_555
N3 C7 1_555 1_555
N4 C6 1_555 1_555
C1 H1 1_555 1_555
H2 C1 1_555 1_555
H3 C1 1_555 1_555
C2 N2 1_555 1_555
H4 C2 1_555 1_555
C3 N1 1_555 1_555
H5 C3 1_555 1_555
H6 C3 1_555 1_555
H7 C3 1_555 1_555
C4 N1 1_555 1_555
H8 C4 1_555 1_555
C5 N2 1_555 1_555
H9 C5 1_555 1_555
C6 H10 1_555 1_555
H11 C6 1_555 1_555
H12 C6 1_555 1_555
C7 N4 1_555 1_555
H13 C7 1_555 1_555
C8 N3 1_555 1_555
H14 C8 1_555 1_555
H15 C8 1_555 1_555
H16 C8 1_555 1_555
C9 N3 1_555 1_555
H17 C9 1_555 1_555
C10 N4 1_555 1_555
H18 C10 1_555 1_555
C4 C5 1_555 1_555
C9 C10 1_555 1_555

#END
