
#######################################################################
#
#                 Cambridge Crystallographic Data Centre
#                                CCDC 
#
#######################################################################
#
# If this CIF has been generated from an entry in the Cambridge 
# Structural Database, then it will include bibliographic, chemical, 
# crystal, experimental, refinement or atomic coordinate data resulting 
# from the CCDC's data processing and validation procedures.
#
#######################################################################

data_AHUFEP
_chemical_name_common            
(Z)-1-Methyl-4-((2-phenyl-1-hexen-1-yl)sulfonyl)benzene
_chemical_formula_moiety         'C19 H22 O2 S1'
_chemical_name_systematic        (Z)-2-phenyl-1-(p-tolylsulfonyl)-1-hexene
_symmetry_cell_setting           monoclinic
_symmetry_space_group_name_H-M   'P 21/c'
_symmetry_Int_Tables_number      14
_space_group_name_Hall           '-P 2ybc'
loop_
_symmetry_equiv_pos_site_id
_symmetry_equiv_pos_as_xyz
1 x,y,z
2 -x,1/2+y,1/2-z
3 -x,-y,-z
4 x,1/2-y,1/2+z
_cell_length_a                   9.7904(8)
_cell_length_b                   17.0370(14)
_cell_length_c                   10.9707(9)
_cell_angle_alpha                90
_cell_angle_beta                 114.9660(10)
_cell_angle_gamma                90
_cell_volume                     1658.91
_chemical_melting_point          '117-118 deg.C'
_cell_formula_units_Z            4
loop_
_atom_site_label
_atom_site_type_symbol
_atom_site_fract_x
_atom_site_fract_y
_atom_site_fract_z
C1 C 0.5691(2) -0.11845(16) 0.4056(3)
H1 H 0.5650 -0.1743 0.3925
H2 H 0.6309 -0.1067 0.4984
H3 H 0.6114 -0.0942 0.3503
C2 C 0.4123(2) -0.08734(12) 0.3675(2)
C3 C 0.3536(2) -0.08321(14) 0.4622(2)
H4 H 0.4131 -0.0983 0.5503
C4 C 0.2092(2) -0.05731(13) 0.4286(2)
H5 H 0.1710 -0.0557 0.4931
C5 C 0.1212(2) -0.03369(11) 0.29813(19)
C6 C 0.1781(2) -0.03619(12) 0.2026(2)
H6 H 0.1197 -0.0195 0.1151
C7 C 0.3224(2) -0.06368(13) 0.2381(2)
H7 H 0.3599 -0.0663 0.1732
C8 C -0.0383(2) 0.09193(11) 0.32599(19)
H8 H 0.0483 0.0989 0.4050
C9 C -0.1278(2) 0.15438(12) 0.28080(19)
C10 C -0.2772(2) 0.15253(12) 0.1634(2)
C11 C -0.3861(2) 0.09796(13) 0.1539(2)
H9 H -0.3647 0.0606 0.2213
C12 C -0.5254(2) 0.09797(15) 0.0464(3)
H10 H -0.5971 0.0610 0.0421
C13 C -0.5588(3) 0.15210(16) -0.0542(3)
H11 H -0.6526 0.1517 -0.1274
C14 C -0.4531(3) 0.20697(15) -0.0463(2)
H12 H -0.4756 0.2439 -0.1144
C15 C -0.3132(2) 0.20803(14) 0.0620(2)
H13 H -0.2431 0.2461 0.0668
C16 C -0.0839(2) 0.23287(12) 0.3507(2)
H14 H -0.1692 0.2526 0.3645
H15 H -0.0670 0.2689 0.2900
C17 C 0.0531(2) 0.23567(12) 0.4844(2)
H16 H 0.0380 0.1998 0.5462
H17 H 0.1401 0.2176 0.4716
C18 C 0.0860(3) 0.31653(13) 0.5471(2)
H18 H 0.1073 0.3520 0.4881
H19 H -0.0025 0.3359 0.5559
C19 C 0.2181(3) 0.31637(14) 0.6836(2)
H20 H 0.1964 0.2826 0.7432
H21 H 0.2357 0.3687 0.7193
H22 H 0.3063 0.2977 0.6752
O1 O -0.14002(15) 0.00300(9) 0.11009(13)
O2 O -0.12875(16) -0.05055(9) 0.32323(15)
S1 S -0.06491(5) -0.00151(3) 0.25394(5)
loop_
_geom_bond_atom_site_label_1
_geom_bond_atom_site_label_2
_geom_bond_site_symmetry_1
_geom_bond_site_symmetry_2
C1 H1 1_555 1_555
H2 C1 1_555 1_555
H3 C1 1_555 1_555
C2 C1 1_555 1_555
C3 C2 1_555 1_555
H4 C3 1_555 1_555
C4 C3 1_555 1_555
H5 C4 1_555 1_555
C5 C4 1_555 1_555
C6 C5 1_555 1_555
H6 C6 1_555 1_555
C7 C2 1_555 1_555
H7 C7 1_555 1_555
C8 H8 1_555 1_555
C9 C8 1_555 1_555
C10 C9 1_555 1_555
C11 C10 1_555 1_555
H9 C11 1_555 1_555
C12 C11 1_555 1_555
H10 C12 1_555 1_555
C13 C12 1_555 1_555
H11 C13 1_555 1_555
C14 C13 1_555 1_555
H12 C14 1_555 1_555
C15 C10 1_555 1_555
H13 C15 1_555 1_555
C16 C9 1_555 1_555
H14 C16 1_555 1_555
H15 C16 1_555 1_555
C17 C16 1_555 1_555
H16 C17 1_555 1_555
H17 C17 1_555 1_555
C18 C17 1_555 1_555
H18 C18 1_555 1_555
H19 C18 1_555 1_555
C19 C18 1_555 1_555
H20 C19 1_555 1_555
H21 C19 1_555 1_555
H22 C19 1_555 1_555
O1 S1 1_555 1_555
O2 S1 1_555 1_555
S1 C5 1_555 1_555
C6 C7 1_555 1_555
C8 S1 1_555 1_555
C14 C15 1_555 1_555

#END
