
#######################################################################
#
#                 Cambridge Crystallographic Data Centre
#                                CCDC 
#
#######################################################################
#
# If this CIF has been generated from an entry in the Cambridge 
# Structural Database, then it will include bibliographic, chemical, 
# crystal, experimental, refinement or atomic coordinate data resulting 
# from the CCDC's data processing and validation procedures.
#
#######################################################################

data_AHUGOZ
_chemical_formula_moiety         'C19 H19 N1 O2'
_chemical_name_systematic        
(4bS,7S)-6,7-Dihydro-7-isopropyldibenzo(c,e)oxazolo(3,2-a)azepin-9(4bH)-one
_symmetry_cell_setting           monoclinic
_symmetry_space_group_name_H-M   'C 2'
_symmetry_Int_Tables_number      5
_space_group_name_Hall           'C 2y'
loop_
_symmetry_equiv_pos_site_id
_symmetry_equiv_pos_as_xyz
1 x,y,z
2 -x,y,-z
3 1/2+x,1/2+y,z
4 1/2-x,1/2+y,-z
_cell_length_a                   17.5383(7)
_cell_length_b                   8.0426(3)
_cell_length_c                   11.0989(6)
_cell_angle_alpha                90
_cell_angle_beta                 104.339(2)
_cell_angle_gamma                90
_cell_volume                     1516.77
_exptl_crystal_colour            colorless
_exptl_crystal_description       needle
_cell_formula_units_Z            4
loop_
_atom_site_label
_atom_site_type_symbol
_atom_site_fract_x
_atom_site_fract_y
_atom_site_fract_z
C1 C 0.83426(12) 1.0408(3) 0.56713(19)
C2 C 0.91404(12) 1.0472(3) 0.5740(2)
C3 C 0.96823(12) 0.9962(2) 0.68081(18)
C4 C 0.94231(11) 0.9376(2) 0.78175(19)
C5 C 0.86217(10) 0.9323(2) 0.77482(16)
C6 C 0.83072(10) 0.8695(2) 0.88138(16)
C7 C 0.86482(13) 0.6850(3) 1.04232(18)
C8 C 0.82021(12) 0.5810(3) 0.93265(17)
C9 C 0.71291(10) 0.7075(3) 0.76989(16)
C10 C 0.67936(10) 0.8666(2) 0.70863(16)
C11 C 0.59823(11) 0.8851(3) 0.69471(18)
C12 C 0.55912(12) 1.0258(3) 0.64325(18)
C13 C 0.59941(12) 1.1496(3) 0.5997(2)
C14 C 0.67868(12) 1.1320(3) 0.60799(19)
C15 C 0.72093(11) 0.9915(2) 0.66306(15)
C16 C 0.80663(11) 0.9848(2) 0.66820(16)
C17 C 0.8788(2) 0.4692(4) 0.8847(3)
C19 C 0.8497(2) 0.4264(5) 0.7481(3)
C21 C 0.8895(2) 0.3094(3) 0.9658(3)
N1 N 0.78599(8) 0.71556(19) 0.84704(14)
O1 O 0.89209(8) 0.82526(16) 0.98452(12)
O2 O 0.67447(8) 0.57838(18) 0.75477(13)
H9 H 0.7964(12) 1.076(3) 0.492(2)
H10 H 0.9323(12) 1.094(3) 0.497(2)
H11 H 1.0261(11) 1.002(2) 0.6891(16)
H12 H 0.9795(11) 0.908(2) 0.8571(18)
H13 H 0.7929(12) 0.956(3) 0.9060(17)
H14 H 0.8281(11) 0.723(3) 1.0935(18)
H15 H 0.9104(12) 0.630(3) 1.0907(19)
H16 H 0.7766(14) 0.515(3) 0.947(2)
H17 H 0.5719(12) 0.797(3) 0.7251(18)
H18 H 0.5065(13) 1.038(3) 0.6329(18)
H19 H 0.5715(13) 1.250(3) 0.569(2)
H20 H 0.7057(12) 1.213(3) 0.5811(19)
H21 H 0.9270(17) 0.515(3) 0.897(3)
H22 H 0.793(2) 0.388(4) 0.736(3)
H23 H 0.884(2) 0.344(5) 0.725(3)
H24 H 0.8400(17) 0.520(4) 0.700(3)
H25 H 0.833(2) 0.252(5) 0.969(3)
H26 H 0.9218(19) 0.345(4) 1.057(3)
H27 H 0.9180(17) 0.224(4) 0.936(3)
H1? H 0.774 0.5401 0.9619
C18? C 0.8444(10) 0.4310(18) 0.8738(13)
H2? H 0.7992 0.3779 0.8131
C20? C 0.9102(7) 0.4823(15) 0.8133(12)
H3? H 0.8885 0.5527 0.7409
H4? H 0.9339 0.3828 0.7868
H5? H 0.9505 0.5443 0.8735
H6? H 0.9425 0.2965 0.9533
H7? H 0.8625 0.2017 0.9543
H8? H 0.893 0.3501 1.0502
loop_
_geom_bond_atom_site_label_1
_geom_bond_atom_site_label_2
_geom_bond_site_symmetry_1
_geom_bond_site_symmetry_2
C1 C2 1_555 1_555
C2 C3 1_555 1_555
C3 C4 1_555 1_555
C4 C5 1_555 1_555
C5 C6 1_555 1_555
C6 N1 1_555 1_555
C7 C8 1_555 1_555
C8 C17 1_555 1_555
C9 C10 1_555 1_555
C10 C11 1_555 1_555
C11 C12 1_555 1_555
C12 C13 1_555 1_555
C13 C14 1_555 1_555
C14 C15 1_555 1_555
C15 C10 1_555 1_555
C16 C1 1_555 1_555
C17 C19 1_555 1_555
C19 H22 1_555 1_555
C21 C17 1_555 1_555
N1 C8 1_555 1_555
O1 C6 1_555 1_555
O2 C9 1_555 1_555
H9 C1 1_555 1_555
H10 C2 1_555 1_555
H11 C3 1_555 1_555
H12 C4 1_555 1_555
H13 C6 1_555 1_555
H14 C7 1_555 1_555
H15 C7 1_555 1_555
H16 C8 1_555 1_555
H17 C11 1_555 1_555
H18 C12 1_555 1_555
H19 C13 1_555 1_555
H20 C14 1_555 1_555
H21 C17 1_555 1_555
H23 C19 1_555 1_555
H24 C19 1_555 1_555
H25 C21 1_555 1_555
H26 C21 1_555 1_555
H27 C21 1_555 1_555
C5 C16 1_555 1_555
C7 O1 1_555 1_555
C9 N1 1_555 1_555
C15 C16 1_555 1_555

#END
