
#######################################################################
#
#                 Cambridge Crystallographic Data Centre
#                                CCDC 
#
#######################################################################
#
# If this CIF has been generated from an entry in the Cambridge 
# Structural Database, then it will include bibliographic, chemical, 
# crystal, experimental, refinement or atomic coordinate data resulting 
# from the CCDC's data processing and validation procedures.
#
#######################################################################

data_AHUGAM
_chemical_formula_moiety         'C21 H16 N2 O6'
_chemical_name_systematic        
'(Z)-Ethyl 2-((3-hydroxy-1,4-dioxo-1,4-dihydro-2-naphthalenyl)hydrazono)-3-oxo-3-phenylpropanoate'
_symmetry_cell_setting           orthorhombic
_symmetry_space_group_name_H-M   'P n a 21'
_symmetry_Int_Tables_number      33
_space_group_name_Hall           'P 2c -2n'
loop_
_symmetry_equiv_pos_site_id
_symmetry_equiv_pos_as_xyz
1 x,y,z
2 -x,-y,1/2+z
3 1/2-x,1/2+y,1/2+z
4 1/2+x,1/2-y,z
_cell_length_a                   20.5630(9)
_cell_length_b                   14.633(2)
_cell_length_c                   6.011(3)
_cell_angle_alpha                90
_cell_angle_beta                 90
_cell_angle_gamma                90
_cell_volume                     1808.7
_exptl_crystal_colour            red
_exptl_crystal_description       rod
_chemical_melting_point          '451 K'
_cell_formula_units_Z            4
_exptl_crystal_recrystallization_method ethanol
loop_
_atom_site_label
_atom_site_type_symbol
_atom_site_fract_x
_atom_site_fract_y
_atom_site_fract_z
O1 O -0.2337(3) -0.4915(4) 0.1266(10)
O2 O -0.2266(2) -0.3781(3) 0.4685(8)
H1 H -0.2325 -0.3382 0.5624
O3 O -0.2335(3) -0.1897(3) 1.2196(9)
O4 O -0.4435(2) -0.2888(3) 0.3207(8)
O5 O -0.3343(2) -0.0773(3) 1.0842(8)
O6 O -0.3998(3) -0.1491(4) 0.8374(9)
N1 N -0.3407(3) -0.2676(4) 0.5774(10)
H2 H -0.386(3) -0.239(4) 0.618(12)
N2 N -0.2895(3) -0.2564(4) 0.7131(10)
C1 C -0.2805(4) -0.4430(5) 0.1601(12)
C2 C -0.2825(4) -0.3795(5) 0.3492(12)
C3 C -0.3358(4) -0.3284(5) 0.3996(13)
C4 C -0.3964(4) -0.3333(5) 0.2671(12)
C5 C -0.3954(4) -0.3927(5) 0.0647(12)
C6 C -0.4492(4) -0.3965(5) -0.0706(13)
H3 H -0.4865 -0.3609 -0.0362
C7 C -0.4491(4) -0.4519(5) -0.2561(14)
H4 H -0.4864 -0.4547 -0.3491
C8 C -0.3950(4) -0.5033(6) -0.3066(14)
H5 H -0.3955 -0.5410 -0.4351
C9 C -0.3400(4) -0.5012(5) -0.1749(13)
H6 H -0.3029 -0.5369 -0.2116
C10 C -0.3401(4) -0.4452(5) 0.0142(12)
C11 C -0.2902(4) -0.1994(5) 0.8788(12)
C12 C -0.2306(4) -0.2037(5) 1.0166(12)
C13 C -0.1684(4) -0.2279(5) 0.9104(13)
C14 C -0.1241(4) -0.2833(5) 1.0278(13)
H7 H -0.1347 -0.3049 1.1724
C15 C -0.0651(4) -0.3063(5) 0.9314(14)
H8 H -0.0356 -0.3447 1.0091
C16 C -0.0487(4) -0.2730(5) 0.7190(14)
H9 H -0.0083 -0.2894 0.6540
C17 C -0.0910(4) -0.2168(5) 0.6039(15)
H10 H -0.0794 -0.1933 0.4620
C18 C -0.1505(4) -0.1952(5) 0.6986(13)
H11 H -0.1799 -0.1574 0.6188
C19 C -0.3477(4) -0.1395(5) 0.9318(13)
C20 C -0.3848(4) -0.0123(5) 1.1366(14)
H12 H -0.4102 0.0014 1.0008
H13 H -0.3648 0.0454 1.1891
C21 C -0.4296(4) -0.0495(5) 1.3146(14)
H14 H -0.4047 -0.0605 1.4511
H15 H -0.4488 -0.1070 1.2634
H16 H -0.4642 -0.0051 1.3445
loop_
_geom_bond_atom_site_label_1
_geom_bond_atom_site_label_2
_geom_bond_site_symmetry_1
_geom_bond_site_symmetry_2
O1 C1 1_555 1_555
O2 H1 1_555 1_555
O3 C12 1_555 1_555
O4 C4 1_555 1_555
O5 C19 1_555 1_555
O6 C19 1_555 1_555
N1 H2 1_555 1_555
N2 N1 1_555 1_555
C1 C2 1_555 1_555
C2 O2 1_555 1_555
C3 N1 1_555 1_555
C4 C3 1_555 1_555
C5 C4 1_555 1_555
C6 C5 1_555 1_555
H3 C6 1_555 1_555
C7 C6 1_555 1_555
H4 C7 1_555 1_555
C8 C7 1_555 1_555
H5 C8 1_555 1_555
C9 C8 1_555 1_555
H6 C9 1_555 1_555
C10 C1 1_555 1_555
C11 N2 1_555 1_555
C12 C11 1_555 1_555
C13 C12 1_555 1_555
C14 C13 1_555 1_555
H7 C14 1_555 1_555
C15 C14 1_555 1_555
H8 C15 1_555 1_555
C16 C15 1_555 1_555
H9 C16 1_555 1_555
C17 C16 1_555 1_555
H10 C17 1_555 1_555
C18 C13 1_555 1_555
H11 C18 1_555 1_555
C19 C11 1_555 1_555
C20 O5 1_555 1_555
H12 C20 1_555 1_555
H13 C20 1_555 1_555
C21 C20 1_555 1_555
H14 C21 1_555 1_555
H15 C21 1_555 1_555
H16 C21 1_555 1_555
C2 C3 1_555 1_555
C5 C10 1_555 1_555
C9 C10 1_555 1_555
C17 C18 1_555 1_555

#END
