
#######################################################################
#
#                 Cambridge Crystallographic Data Centre
#                                CCDC 
#
#######################################################################
#
# If this CIF has been generated from an entry in the Cambridge 
# Structural Database, then it will include bibliographic, chemical, 
# crystal, experimental, refinement or atomic coordinate data resulting 
# from the CCDC's data processing and validation procedures.
#
#######################################################################

data_AHUQID
_chemical_formula_moiety         'C15 H14 Cl3 N3 O3'
_chemical_name_systematic        
'(E)-Ethyl 2-diazo-5-phenyl-3-(trichloroacetylamino)pent-4-enoate'
_symmetry_cell_setting           monoclinic
_symmetry_space_group_name_H-M   'P 21/c'
_symmetry_Int_Tables_number      14
_space_group_name_Hall           '-P 2ybc'
loop_
_symmetry_equiv_pos_site_id
_symmetry_equiv_pos_as_xyz
1 x,y,z
2 x,1/2-y,1/2+z
3 -x,-y,-z
4 -x,1/2+y,1/2-z
_cell_length_a                   10.730(2)
_cell_length_b                   19.233(4)
_cell_length_c                   8.9878(18)
_cell_angle_alpha                90
_cell_angle_beta                 94.20(3)
_cell_angle_gamma                90
_cell_volume                     1849.83
_exptl_crystal_description       Block
_cell_formula_units_Z            4
loop_
_atom_site_label
_atom_site_type_symbol
_atom_site_fract_x
_atom_site_fract_y
_atom_site_fract_z
Cl1 Cl 0.79905(12) 0.17119(6) 0.97556(11)
Cl2 Cl 1.03062(12) 0.10942(9) 1.07957(14)
Cl3 Cl 0.79949(18) 0.03353(7) 1.09360(16)
O1 O 0.7697(3) 0.18623(15) 1.2840(3)
O2 O 0.8699(3) -0.00967(14) 1.6023(4)
O3 O 0.6731(3) 0.01399(13) 1.6695(3)
N1 N 0.9253(3) 0.11720(18) 1.3794(3)
N2 N 0.6998(3) 0.14452(16) 1.6162(3)
N3 N 0.6195(4) 0.1794(2) 1.6382(4)
C1 C 0.7852(4) 0.0317(2) 1.6217(4)
C2 C 0.7965(3) 0.10522(19) 1.5942(4)
C3 C 0.9093(3) 0.13998(18) 1.5336(4)
H1 H 0.8924 0.1901 1.5300
C4 C 1.0304(3) 0.13003(19) 1.6259(4)
H2 H 1.0659 0.0859 1.6307
C5 C 1.0891(3) 0.1812(2) 1.7009(4)
H3 H 1.0499 0.2244 1.6952
C6 C 1.2103(3) 0.17807(19) 1.7931(4)
C7 C 1.2423(4) 0.2337(2) 1.8927(5)
H4 H 1.1880 0.2710 1.8996
C8 C 1.3556(4) 0.2322(3) 1.9805(6)
H5 H 1.3753 0.2687 2.0458
C9 C 1.4373(5) 0.1789(3) 1.9727(5)
H6 H 1.5109 0.1786 2.0340
C10 C 1.4117(4) 0.1255(3) 1.8746(6)
H7 H 1.4690 0.0897 1.8658
C11 C 1.2973(4) 0.1254(2) 1.7872(5)
H8 H 1.2796 0.0883 1.7227
C12 C 0.8505(3) 0.14387(18) 1.2689(4)
C13 C 0.8697(3) 0.11578(16) 1.1096(4)
C14 C 0.6493(5) -0.0591(3) 1.6946(8)
H9 H 0.6898 -0.0867 1.6217
H10 H 0.6847 -0.0722 1.7931
C15 C 0.5183(6) -0.0733(3) 1.6831(8)
H11 H 0.5048 -0.1218 1.7013
H12 H 0.4837 -0.0615 1.5849
H13 H 0.4783 -0.0462 1.7556
H14 H 0.956(3) 0.0794(17) 1.360(3)
loop_
_geom_bond_atom_site_label_1
_geom_bond_atom_site_label_2
_geom_bond_site_symmetry_1
_geom_bond_site_symmetry_2
Cl1 C13 1_555 1_555
Cl2 C13 1_555 1_555
Cl3 C13 1_555 1_555
O1 C12 1_555 1_555
O2 C1 1_555 1_555
O3 C1 1_555 1_555
N1 C3 1_555 1_555
N2 N3 1_555 1_555
C1 C2 1_555 1_555
C2 N2 1_555 1_555
C3 C2 1_555 1_555
H1 C3 1_555 1_555
C4 C3 1_555 1_555
H2 C4 1_555 1_555
C5 C4 1_555 1_555
H3 C5 1_555 1_555
C6 C5 1_555 1_555
C7 C6 1_555 1_555
H4 C7 1_555 1_555
C8 C7 1_555 1_555
H5 C8 1_555 1_555
C9 C8 1_555 1_555
H6 C9 1_555 1_555
C10 C9 1_555 1_555
H7 C10 1_555 1_555
C11 C6 1_555 1_555
H8 C11 1_555 1_555
C12 N1 1_555 1_555
C13 C12 1_555 1_555
C14 O3 1_555 1_555
H9 C14 1_555 1_555
H10 C14 1_555 1_555
C15 C14 1_555 1_555
H11 C15 1_555 1_555
H12 C15 1_555 1_555
H13 C15 1_555 1_555
H14 N1 1_555 1_555
C10 C11 1_555 1_555

#END
