
#######################################################################
#
#                 Cambridge Crystallographic Data Centre
#                                CCDC 
#
#######################################################################
#
# If this CIF has been generated from an entry in the Cambridge 
# Structural Database, then it will include bibliographic, chemical, 
# crystal, experimental, refinement or atomic coordinate data resulting 
# from the CCDC's data processing and validation procedures.
#
#######################################################################

data_AHUVUV
_chemical_name_common            
"2,2'-(1,2-Diselanediyl)bis(pyridine-3-carboxylic acid) dimethylsulfoxide solvate"
_chemical_formula_moiety         'C12 H8 N2 O4 Se2,2(C2 H6 O1 S1)'
_chemical_name_systematic        
"2,2'-Diselenobisnicotinic acid dimethylsulfoxide solvate"
_symmetry_cell_setting           monoclinic
_symmetry_space_group_name_H-M   'P 21/c'
_symmetry_Int_Tables_number      14
_space_group_name_Hall           '-P 2ybc'
loop_
_symmetry_equiv_pos_site_id
_symmetry_equiv_pos_as_xyz
1 x,y,z
2 -x,1/2+y,1/2-z
3 -x,-y,-z
4 x,1/2-y,1/2+z
_cell_length_a                   9.732(5)
_cell_length_b                   13.435(6)
_cell_length_c                   8.402(4)
_cell_angle_alpha                90
_cell_angle_beta                 98.376(6)
_cell_angle_gamma                90
_cell_volume                     1086.84
_cell_formula_units_Z            2
loop_
_atom_site_label
_atom_site_type_symbol
_atom_site_fract_x
_atom_site_fract_y
_atom_site_fract_z
Se1 Se 0.09653(4) 0.53532(3) 0.08532(4)
N1 N -0.0372(3) 0.3868(2) 0.2360(3)
O1 O 0.2983(3) 0.5847(2) 0.3287(3)
O2 O 0.3487(3) 0.5242(2) 0.5787(3)
H1 H 0.4045 0.5703 0.5888
C1 C 0.0694(4) 0.4498(2) 0.2620(4)
C2 C 0.1570(4) 0.4567(2) 0.4107(4)
C3 C 0.1280(4) 0.3954(3) 0.5335(5)
H2 H 0.1823 0.3986 0.6341
C4 C 0.0183(4) 0.3295(3) 0.5067(5)
H3 H -0.0021 0.2874 0.5880
C5 C -0.0595(4) 0.3278(3) 0.3579(5)
H4 H -0.1327 0.2828 0.3401
C6 C 0.2742(4) 0.5276(3) 0.4331(5)
Se1B Se -0.09653(4) 0.46468(3) -0.08532(4)
N1B N 0.0372(3) 0.6132(2) -0.2360(3)
O1B O -0.2983(3) 0.4153(2) -0.3287(3)
O2B O -0.3487(3) 0.4758(2) -0.5787(3)
H1B H -0.4045 0.4297 -0.5888
C1B C -0.0694(4) 0.5502(2) -0.2620(4)
C2B C -0.1570(4) 0.5433(2) -0.4107(4)
C3B C -0.1280(4) 0.6046(3) -0.5335(5)
H2B H -0.1823 0.6014 -0.6341
C4B C -0.0183(4) 0.6705(3) -0.5067(5)
H3B H 0.0021 0.7126 -0.5880
C5B C 0.0595(4) 0.6722(3) -0.3579(5)
H4B H 0.1327 0.7172 -0.3401
C6B C -0.2742(4) 0.4724(3) -0.4331(5)
S1 S 0.46564(12) 0.26464(8) 0.52068(13)
O3 O 0.4736(3) 0.33144(19) 0.3769(3)
C7 C 0.3407(6) 0.1727(4) 0.4508(6)
H5 H 0.2535 0.2043 0.4127
H6 H 0.3293 0.1282 0.5372
H7 H 0.3715 0.1360 0.3646
C8 C 0.6149(5) 0.1864(3) 0.5358(5)
H8 H 0.6204 0.1567 0.4330
H9 H 0.6077 0.1351 0.6136
H10 H 0.6968 0.2253 0.5689
loop_
_geom_bond_atom_site_label_1
_geom_bond_atom_site_label_2
_geom_bond_site_symmetry_1
_geom_bond_site_symmetry_2
Se1 C1 1_555 1_555
S1 O3 1_555 1_555
N1 C1 1_555 1_555
O1 C6 1_555 1_555
O2 H1 1_555 1_555
C1 C2 1_555 1_555
C2 C3 1_555 1_555
C3 H2 1_555 1_555
C4 C3 1_555 1_555
H3 C4 1_555 1_555
C5 N1 1_555 1_555
H4 C5 1_555 1_555
C6 O2 1_555 1_555
C7 S1 1_555 1_555
H5 C7 1_555 1_555
H6 C7 1_555 1_555
H7 C7 1_555 1_555
C8 S1 1_555 1_555
H8 C8 1_555 1_555
H9 C8 1_555 1_555
H10 C8 1_555 1_555
Se1B Se1 1_555 1_555
N1B C1B 1_555 1_555
O1B C6B 1_555 1_555
O2B H1B 1_555 1_555
C1B Se1B 1_555 1_555
C2B C1B 1_555 1_555
C3B C2B 1_555 1_555
H2B C3B 1_555 1_555
C4B C3B 1_555 1_555
H3B C4B 1_555 1_555
C5B N1B 1_555 1_555
H4B C5B 1_555 1_555
C6B O2B 1_555 1_555
C2 C6 1_555 1_555
C4 C5 1_555 1_555
C2B C6B 1_555 1_555
C4B C5B 1_555 1_555

#END
