
#######################################################################
#
#                 Cambridge Crystallographic Data Centre
#                                CCDC 
#
#######################################################################
#
# If this CIF has been generated from an entry in the Cambridge 
# Structural Database, then it will include bibliographic, chemical, 
# crystal, experimental, refinement or atomic coordinate data resulting 
# from the CCDC's data processing and validation procedures.
#
#######################################################################

data_AHUWAC
_chemical_name_common            
"bis(t-Butyl) 2,2'-(1,2-diselanediyl)bis(pyridine-3-carboxylate)"
_chemical_formula_moiety         'C20 H24 N2 O4 Se2'
_chemical_name_systematic        
"2,2'-Diselenobisnicotinic acid di-t-butyl ester"
_symmetry_cell_setting           triclinic
_symmetry_space_group_name_H-M   'P -1'
_symmetry_Int_Tables_number      2
_space_group_name_Hall           '-P 1'
loop_
_symmetry_equiv_pos_site_id
_symmetry_equiv_pos_as_xyz
1 x,y,z
2 -x,-y,-z
_cell_length_a                   6.700(7)
_cell_length_b                   7.791(8)
_cell_length_c                   11.164(12)
_cell_angle_alpha                92.206(18)
_cell_angle_beta                 92.895(15)
_cell_angle_gamma                109.054(14)
_cell_volume                     549.192
_cell_formula_units_Z            1
loop_
_atom_site_label
_atom_site_type_symbol
_atom_site_fract_x
_atom_site_fract_y
_atom_site_fract_z
Se1 Se -0.39139(17) 0.58466(13) 0.92712(10)
N1 N -0.3297(14) 0.2540(11) 0.9644(8)
O1 O -0.0907(14) 0.7191(11) 0.7702(9)
O2 O 0.1382(12) 0.5988(10) 0.6910(7)
C1 C -0.2588(16) 0.4033(12) 0.9024(9)
C2 C -0.0958(16) 0.4272(13) 0.8229(9)
C3 C -0.0095(17) 0.2896(15) 0.8087(10)
H1 H 0.0980 0.3009 0.7570
C4 C -0.0858(18) 0.1325(15) 0.8732(11)
H2 H -0.0312 0.0375 0.8651
C5 C -0.2417(18) 0.1245(14) 0.9478(10)
H3 H -0.2914 0.0206 0.9907
C6 C -0.0184(17) 0.5980(15) 0.7601(10)
C7 C 0.2507(18) 0.7601(15) 0.6266(11)
C8 C 0.410(2) 0.693(2) 0.5630(16)
H4 H 0.5003 0.6618 0.6216
H5 H 0.4943 0.7875 0.5161
H6 H 0.3360 0.5879 0.5112
C9 C 0.358(2) 0.9152(19) 0.7131(13)
H7 H 0.2580 0.9311 0.7678
H8 H 0.4126 1.0237 0.6705
H9 H 0.4716 0.8917 0.7574
C10 C 0.102(2) 0.8009(19) 0.5348(12)
H10 H 0.0144 0.6896 0.4933
H11 H 0.1830 0.8805 0.4781
H12 H 0.0152 0.8587 0.5743
Se1A Se -0.60861(17) 0.41534(13) 1.07288(10)
N1A N -0.6703(14) 0.7460(11) 1.0356(8)
O1A O -0.9093(14) 0.2809(11) 1.2298(9)
O2A O -1.1382(12) 0.4012(10) 1.3090(7)
C1A C -0.7412(16) 0.5967(12) 1.0976(9)
C2A C -0.9042(16) 0.5728(13) 1.1771(9)
C3A C -0.9905(17) 0.7104(15) 1.1913(10)
H1A H -1.0980 0.6991 1.2430
C4A C -0.9142(18) 0.8675(15) 1.1268(11)
H2A H -0.9688 0.9625 1.1349
C5A C -0.7583(18) 0.8755(14) 1.0522(10)
H3A H -0.7086 0.9794 1.0093
C6A C -0.9816(17) 0.4020(15) 1.2399(10)
C7A C -1.2507(18) 0.2399(15) 1.3734(11)
C8A C -1.410(2) 0.307(2) 1.4370(16)
H4A H -1.5003 0.3382 1.3784
H5A H -1.4943 0.2125 1.4839
H6A H -1.3360 0.4121 1.4888
C9A C -1.358(2) 0.0848(19) 1.2869(13)
H7A H -1.2580 0.0689 1.2322
H8A H -1.4126 -0.0237 1.3295
H9A H -1.4716 0.1083 1.2426
C10A C -1.102(2) 0.1991(19) 1.4652(12)
H10A H -1.0144 0.3104 1.5067
H11A H -1.1830 0.1195 1.5219
H12A H -1.0152 0.1413 1.4257
loop_
_geom_bond_atom_site_label_1
_geom_bond_atom_site_label_2
_geom_bond_site_symmetry_1
_geom_bond_site_symmetry_2
Se1 C1 1_555 1_555
N1 C1 1_555 1_555
O1 C6 1_555 1_555
O2 C6 1_555 1_555
C1 C2 1_555 1_555
C2 C3 1_555 1_555
C3 H1 1_555 1_555
C4 C3 1_555 1_555
H2 C4 1_555 1_555
C5 N1 1_555 1_555
H3 C5 1_555 1_555
C6 C2 1_555 1_555
C7 O2 1_555 1_555
C8 C7 1_555 1_555
H4 C8 1_555 1_555
H5 C8 1_555 1_555
H6 C8 1_555 1_555
C9 C7 1_555 1_555
H7 C9 1_555 1_555
H8 C9 1_555 1_555
H9 C9 1_555 1_555
C10 C7 1_555 1_555
H10 C10 1_555 1_555
H11 C10 1_555 1_555
H12 C10 1_555 1_555
Se1A Se1 1_555 1_555
N1A C1A 1_555 1_555
O1A C6A 1_555 1_555
O2A C6A 1_555 1_555
C1A Se1A 1_555 1_555
C2A C1A 1_555 1_555
C3A C2A 1_555 1_555
H1A C3A 1_555 1_555
C4A C3A 1_555 1_555
H2A C4A 1_555 1_555
C5A N1A 1_555 1_555
H3A C5A 1_555 1_555
C6A C2A 1_555 1_555
C7A O2A 1_555 1_555
C8A C7A 1_555 1_555
H4A C8A 1_555 1_555
H5A C8A 1_555 1_555
H6A C8A 1_555 1_555
C9A C7A 1_555 1_555
H7A C9A 1_555 1_555
H8A C9A 1_555 1_555
H9A C9A 1_555 1_555
C10A C7A 1_555 1_555
H10A C10A 1_555 1_555
H11A C10A 1_555 1_555
H12A C10A 1_555 1_555
C4 C5 1_555 1_555
C4A C5A 1_555 1_555

#END
