
#######################################################################
#
#                 Cambridge Crystallographic Data Centre
#                                CCDC 
#
#######################################################################
#
# If this CIF has been generated from an entry in the Cambridge 
# Structural Database, then it will include bibliographic, chemical, 
# crystal, experimental, refinement or atomic coordinate data resulting 
# from the CCDC's data processing and validation procedures.
#
#######################################################################

data_AHUYIL
_chemical_formula_moiety         'C10 H12 N3 S1 1+,C6 H2 N3 O7 1-'
_chemical_name_systematic        
'5,6-dihydro-2-methyl-4H-thieno[2,3-f][1,2,4]triazolo[1,5-a]azepine picrate'
_symmetry_cell_setting           triclinic
_symmetry_space_group_name_H-M   'P -1'
_symmetry_Int_Tables_number      2
_space_group_name_Hall           '-P 1'
loop_
_symmetry_equiv_pos_site_id
_symmetry_equiv_pos_as_xyz
1 x,y,z
2 -x,-y,-z
_cell_length_a                   8.136(7)
_cell_length_b                   8.692(7)
_cell_length_c                   14.158(11)
_cell_angle_alpha                75.171(10)
_cell_angle_beta                 84.314(9)
_cell_angle_gamma                72.098(11)
_cell_volume                     920.792
_exptl_crystal_colour            yellow
_exptl_crystal_description       needles
_chemical_melting_point          178-182deg.C
_cell_formula_units_Z            2
loop_
_atom_site_label
_atom_site_type_symbol
_atom_site_fract_x
_atom_site_fract_y
_atom_site_fract_z
S1 S 0.45375(12) 0.25283(12) 0.45459(7)
N1 N 0.1167(3) 0.5595(3) 0.58993(16)
N2 N 0.0566(3) 0.7305(3) 0.55958(18)
N3 N -0.0717(3) 0.6396(3) 0.69572(19)
C1 C -0.1577(6) 0.9484(5) 0.6280(3)
C2 C -0.0574(4) 0.7747(4) 0.6262(2)
C3 C 0.0375(4) 0.5054(4) 0.6731(2)
C4 C 0.0617(6) 0.3339(5) 0.7332(3)
C5 C 0.2906(7) 0.1657(5) 0.6332(3)
C6 C 0.2412(6) 0.2146(5) 0.7286(3)
C7 C 0.3130(4) 0.3029(4) 0.5492(2)
C8 C 0.2402(4) 0.4706(4) 0.5297(2)
C9 C 0.2956(4) 0.5587(4) 0.4390(2)
C10 C 0.4103(5) 0.4555(5) 0.3909(3)
H1 H 0.029(7) 0.351(6) 0.796(4)
H2 H -0.144(5) 0.642(4) 0.739(3)
H4 H 0.254(5) 0.670(5) 0.414(3)
H6 H 0.465(7) 0.488(6) 0.331(4)
H7 H -0.121(7) 0.979(6) 0.683(4)
H8 H -0.263(9) 0.947(7) 0.655(5)
H9 H -0.175(9) 1.033(8) 0.568(5)
H10 H 0.394(8) 0.074(7) 0.644(4)
H11 H 0.162(9) 0.136(8) 0.623(5)
H12 H 0.250(8) 0.102(7) 0.782(4)
H13 H 0.337(8) 0.288(7) 0.737(4)
H14 H -0.007(9) 0.289(8) 0.699(5)
N4 N 0.7014(4) 0.3087(4) 0.18750(19)
N5 N 0.1784(4) 0.2915(4) 0.0426(2)
N6 N 0.7372(4) 0.1373(4) -0.1182(2)
O1 O 0.7770(6) 0.1908(5) 0.2488(3)
O2 O 0.6870(4) 0.4480(4) 0.1897(2)
O3 O 0.3556(3) 0.3517(4) 0.19532(17)
O4 O 0.0837(4) 0.3389(6) 0.1061(3)
O5 O 0.1258(4) 0.2532(5) -0.0227(2)
O6 O 0.6603(5) 0.1278(6) -0.1854(3)
O7 O 0.8943(4) 0.0997(4) -0.1162(2)
C11 C 0.4336(4) 0.3057(4) 0.1226(2)
C12 C 0.3624(4) 0.2720(4) 0.0435(2)
C13 C 0.4611(4) 0.2181(4) -0.0329(2)
C14 C 0.6364(4) 0.1940(4) -0.0370(2)
C15 C 0.7193(4) 0.2223(4) 0.0359(2)
C16 C 0.6184(4) 0.2771(4) 0.1097(2)
H3 H 0.840(5) 0.204(4) 0.036(3)
H5 H 0.412(5) 0.197(5) -0.082(3)
loop_
_geom_bond_atom_site_label_1
_geom_bond_atom_site_label_2
_geom_bond_site_symmetry_1
_geom_bond_site_symmetry_2
S1 C7 1_555 1_555
N1 N2 1_555 1_555
N2 C2 1_555 1_555
N3 C2 1_555 1_555
N4 O1 1_555 1_555
N5 O4 1_555 1_555
N6 O6 1_555 1_555
O2 N4 1_555 1_555
O3 C11 1_555 1_555
O5 N5 1_555 1_555
O7 N6 1_555 1_555
C1 C2 1_555 1_555
C3 N1 1_555 1_555
C4 C3 1_555 1_555
C5 C6 1_555 1_555
C6 C4 1_555 1_555
C7 C5 1_555 1_555
C8 N1 1_555 1_555
C9 C8 1_555 1_555
C10 S1 1_555 1_555
C11 C12 1_555 1_555
C12 N5 1_555 1_555
C13 C12 1_555 1_555
C14 N6 1_555 1_555
C15 C14 1_555 1_555
C16 N4 1_555 1_555
H1 C4 1_555 1_555
H2 N3 1_555 1_555
H3 C15 1_555 1_555
H4 C9 1_555 1_555
H5 C13 1_555 1_555
H6 C10 1_555 1_555
H7 C1 1_555 1_555
H8 C1 1_555 1_555
H9 C1 1_555 1_555
H10 C5 1_555 1_555
H11 C5 1_555 1_555
H12 C6 1_555 1_555
H13 C6 1_555 1_555
H14 C4 1_555 1_555
N3 C3 1_555 1_555
C7 C8 1_555 1_555
C9 C10 1_555 1_555
C11 C16 1_555 1_555
C13 C14 1_555 1_555
C15 C16 1_555 1_555

#END
