
#######################################################################
#
#                 Cambridge Crystallographic Data Centre
#                                CCDC 
#
#######################################################################
#
# If this CIF has been generated from an entry in the Cambridge 
# Structural Database, then it will include bibliographic, chemical, 
# crystal, experimental, refinement or atomic coordinate data resulting 
# from the CCDC's data processing and validation procedures.
#
#######################################################################

data_AHUZOT
_chemical_name_common            
2-(Benzyloxy)-4-iodo-6,8-dioxabicyclo[3.2.1]octan-3-ol
_chemical_formula_moiety         'C13 H15 I1 O4'
_chemical_name_systematic        
1,6-Anhydro-2-iodo-4-O-benzyl-2-deoxy-\b-D-glucopyranose
_symmetry_cell_setting           triclinic
_symmetry_space_group_name_H-M   'P 1'
_symmetry_Int_Tables_number      1
_space_group_name_Hall           'P 1'
loop_
_symmetry_equiv_pos_site_id
_symmetry_equiv_pos_as_xyz
1 x,y,z
_cell_length_a                   6.1718(4)
_cell_length_b                   7.5275(5)
_cell_length_c                   13.9663(6)
_cell_angle_alpha                91.5770(10)
_cell_angle_beta                 92.433(5)
_cell_angle_gamma                91.599(5)
_cell_volume                     647.744
_exptl_crystal_colour            colorless
_exptl_crystal_description       block
_cell_formula_units_Z            2
_exptl_crystal_recrystallization_method 'hexanes/diethyl ether'
loop_
_atom_site_label
_atom_site_type_symbol
_atom_site_fract_x
_atom_site_fract_y
_atom_site_fract_z
I1 I 0.198032(11) 0.481121(10) 0.130628(8)
O1 O -0.2149(2) 0.9316(2) 0.08863(11)
O2 O 0.2559(3) 1.0525(2) 0.12203(11)
H1 H 0.1941 1.0436 0.0673
O3 O 0.1705(2) 0.8013(2) 0.33508(11)
O4 O -0.1922(2) 0.7548(2) 0.21667(11)
C1 C -0.1447(3) 0.7616(3) 0.11946(13)
H2 H -0.2256 0.6640 0.0819
C2 C 0.1008(3) 0.7500(3) 0.10529(14)
H3 H 0.1271 0.7758 0.0368
C3 C 0.2363(3) 0.8862(3) 0.16872(17)
H4 H 0.3841 0.8392 0.1823
C4 C 0.1290(3) 0.9292(3) 0.26434(13)
H5 H 0.1830 1.0487 0.2894
C5 C -0.1174(3) 0.9290(3) 0.25221(14)
H6 H -0.1835 0.9591 0.3145
C6 C -0.2043(3) 1.0483(3) 0.17315(15)
H7 H -0.3497 1.0915 0.1876
H8 H -0.1048 1.1516 0.1648
C7 C 0.3801(3) 0.8131(3) 0.38213(15)
H9 H 0.4361 0.9377 0.3836
H10 H 0.4821 0.7388 0.3470
C8 C 0.3623(3) 0.7493(3) 0.48299(15)
C9 C 0.1715(3) 0.7706(3) 0.53213(15)
H11 H 0.0535 0.8299 0.5027
C10 C 0.1531(4) 0.7052(3) 0.62438(16)
H12 H 0.0228 0.7203 0.6571
C11 C 0.3244(4) 0.6183(3) 0.66816(16)
H13 H 0.3107 0.5718 0.7302
C12 C 0.5172(4) 0.5998(3) 0.62028(16)
H14 H 0.6365 0.5434 0.6506
C13 C 0.5345(3) 0.6641(3) 0.52787(15)
H15 H 0.6652 0.6495 0.4954
I2 I 0.806821(13) 0.521542(11) 0.870153(8)
O5 O 0.4162(3) 0.0585(2) 0.93771(12)
O6 O 0.8610(3) -0.0465(2) 0.89205(12)
H16 H 0.8219 -0.0340 0.9487
O7 O 0.7075(2) 0.1882(2) 0.67738(10)
O8 O 0.3865(2) 0.2339(2) 0.80923(11)
C14 C 0.4720(3) 0.2317(3) 0.90375(15)
H17 H 0.4072 0.3266 0.9441
C15 C 0.7202(3) 0.2526(3) 0.90713(14)
H18 H 0.7743 0.2347 0.9746
C16 C 0.8255(3) 0.1142(3) 0.84210(17)
H19 H 0.9684 0.1636 0.8223
C17 C 0.6833(3) 0.0648(3) 0.75162(13)
H20 H 0.7227 -0.0557 0.7273
C18 C 0.4424(3) 0.0621(3) 0.77184(15)
H21 H 0.3528 0.0300 0.7122
C19 C 0.3806(3) -0.0581(3) 0.85377(16)
H22 H 0.2271 -0.0998 0.8463
H23 H 0.4745 -0.1624 0.8572
C20 C 0.9003(3) 0.1735(3) 0.62557(16)
H24 H 0.9434 0.0479 0.6219
H25 H 1.0199 0.2447 0.6586
C21 C 0.8572(3) 0.2408(3) 0.52619(15)
C22 C 0.6527(3) 0.2207(3) 0.48074(17)
H26 H 0.5393 0.1604 0.5117
C23 C 0.6134(4) 0.2885(3) 0.38984(16)
H27 H 0.4729 0.2760 0.3595
C24 C 0.7803(4) 0.3747(3) 0.34351(16)
H28 H 0.7536 0.4210 0.2817
C25 C 0.9858(4) 0.3928(3) 0.38783(17)
H29 H 1.1001 0.4503 0.3561
C26 C 1.0240(3) 0.3264(3) 0.47902(16)
H30 H 1.1644 0.3395 0.5093
loop_
_geom_bond_atom_site_label_1
_geom_bond_atom_site_label_2
_geom_bond_site_symmetry_1
_geom_bond_site_symmetry_2
I1 C2 1_555 1_555
O1 C1 1_555 1_555
O2 H1 1_555 1_555
O3 C4 1_555 1_555
O4 C1 1_555 1_555
C1 H2 1_555 1_555
C2 C1 1_555 1_555
H3 C2 1_555 1_555
C3 O2 1_555 1_555
H4 C3 1_555 1_555
C4 C3 1_555 1_555
H5 C4 1_555 1_555
C5 O4 1_555 1_555
H6 C5 1_555 1_555
C6 O1 1_555 1_555
H7 C6 1_555 1_555
H8 C6 1_555 1_555
C7 O3 1_555 1_555
H9 C7 1_555 1_555
H10 C7 1_555 1_555
C8 C7 1_555 1_555
C9 C8 1_555 1_555
H11 C9 1_555 1_555
C10 C9 1_555 1_555
H12 C10 1_555 1_555
C11 C10 1_555 1_555
H13 C11 1_555 1_555
C12 C11 1_555 1_555
H14 C12 1_555 1_555
C13 C8 1_555 1_555
H15 C13 1_555 1_555
I2 C15 1_555 1_555
O5 C14 1_555 1_555
O6 H16 1_555 1_555
O7 C17 1_555 1_555
O8 C14 1_555 1_555
C14 H17 1_555 1_555
C15 C14 1_555 1_555
H18 C15 1_555 1_555
C16 O6 1_555 1_555
H19 C16 1_555 1_555
C17 C16 1_555 1_555
H20 C17 1_555 1_555
C18 O8 1_555 1_555
H21 C18 1_555 1_555
C19 O5 1_555 1_555
H22 C19 1_555 1_555
H23 C19 1_555 1_555
C20 O7 1_555 1_555
H24 C20 1_555 1_555
H25 C20 1_555 1_555
C21 C20 1_555 1_555
C22 C21 1_555 1_555
H26 C22 1_555 1_555
C23 C22 1_555 1_555
H27 C23 1_555 1_555
C24 C23 1_555 1_555
H28 C24 1_555 1_555
C25 C24 1_555 1_555
H29 C25 1_555 1_555
C26 C21 1_555 1_555
H30 C26 1_555 1_555
C2 C3 1_555 1_555
C4 C5 1_555 1_555
C5 C6 1_555 1_555
C12 C13 1_555 1_555
C15 C16 1_555 1_555
C17 C18 1_555 1_555
C18 C19 1_555 1_555
C25 C26 1_555 1_555

#END
