
#######################################################################
#
#                 Cambridge Crystallographic Data Centre
#                                CCDC 
#
#######################################################################
#
# If this CIF has been generated from an entry in the Cambridge 
# Structural Database, then it will include bibliographic, chemical, 
# crystal, experimental, refinement or atomic coordinate data resulting 
# from the CCDC's data processing and validation procedures.
#
#######################################################################

data_AHUZIN
_chemical_name_common            '4-O-benzyl-D-(-)-glucal toluene solvate'
_chemical_formula_moiety         'C13 H16 O4,0.28(C7 H8)'
_chemical_name_systematic        
'3-(Benzyloxy)-2-(hydroxymethyl)-3,4-dihydro-2H-pyran-4-ol toluene solvate'
_symmetry_cell_setting           orthorhombic
_symmetry_space_group_name_H-M   'P 21 21 21'
_symmetry_Int_Tables_number      19
_space_group_name_Hall           'P 2ac 2ab'
loop_
_symmetry_equiv_pos_site_id
_symmetry_equiv_pos_as_xyz
1 x,y,z
2 1/2-x,-y,1/2+z
3 -x,1/2+y,1/2-z
4 1/2+x,1/2-y,-z
_cell_length_a                   4.5700(1)
_cell_length_b                   13.9439(3)
_cell_length_c                   21.6237(5)
_cell_angle_alpha                90
_cell_angle_beta                 90
_cell_angle_gamma                90
_cell_volume                     1377.94
_exptl_crystal_colour            colorless
_exptl_crystal_description       blade
_cell_formula_units_Z            4
loop_
_atom_site_label
_atom_site_type_symbol
_atom_site_fract_x
_atom_site_fract_y
_atom_site_fract_z
O1 O 0.4812(6) 0.35388(17) 0.31016(13)
O2 O 0.2246(7) 0.63566(16) 0.30941(13)
H1 H 0.071(14) 0.661(4) 0.305(2)
O3 O 0.0486(5) 0.50713(13) 0.20580(9)
O4 O 0.2786(12) 0.2204(2) 0.2241(7)
H2 H 0.4238 0.1895 0.2141
C1 C 0.4874(9) 0.4126(3) 0.36113(17)
H3 H 0.630(11) 0.381(3) 0.3969(18)
C2 C 0.3458(9) 0.4940(3) 0.36544(17)
H4 H 0.369(11) 0.535(3) 0.4078(19)
C3 C 0.1711(8) 0.5351(2) 0.31321(17)
H5 H -0.040(11) 0.530(3) 0.3182(18)
C4 C 0.2551(7) 0.48540(19) 0.25317(14)
H6 H 0.462(11) 0.504(3) 0.2413(16)
C5 C 0.2576(8) 0.3770(2) 0.26458(17)
H7 H 0.072(11) 0.354(3) 0.2787(17)
C6 C 0.3223(10) 0.3210(2) 0.2082(2)
H8 H 0.190(12) 0.344(3) 0.169(2)
H9 H 0.521(12) 0.335(3) 0.1874(19)
C7 C 0.1663(8) 0.5700(2) 0.15921(16)
H10 H 0.343(11) 0.529(3) 0.1399(17)
H11 H 0.209(11) 0.632(3) 0.1815(17)
C8 C -0.0514(7) 0.5815(2) 0.10818(13)
C9 C -0.1181(9) 0.5052(2) 0.06911(18)
H12 H -0.021(12) 0.440(3) 0.0804(18)
C10 C -0.3122(11) 0.5172(3) 0.02068(17)
H13 H -0.338(13) 0.470(3) -0.0080(19)
C11 C -0.4441(9) 0.6051(3) 0.01070(14)
H14 H -0.574(11) 0.617(3) -0.0216(18)
C12 C -0.3772(9) 0.6808(2) 0.04899(14)
H15 H -0.468(11) 0.738(3) 0.0438(17)
C13 C -0.1844(8) 0.6692(2) 0.09743(13)
H16 H -0.126(9) 0.723(3) 0.1247(15)
C14? C 0.264(4) 0.7285(8) 0.4676(6)
C15? C 0.556(7) 0.7247(10) 0.4466(8)
C16? C 0.242(5) 0.7547(9) 0.5177(9)
C17? C 0.521(9) 0.7699(7) 0.5571(5)
O5? O 0.265(4) 0.2248(9) 0.188(2)
loop_
_geom_bond_atom_site_label_1
_geom_bond_atom_site_label_2
_geom_bond_site_symmetry_1
_geom_bond_site_symmetry_2
O1 C1 1_555 1_555
O2 H1 1_555 1_555
O3 C4 1_555 1_555
O4 H2 1_555 1_555
C1 H3 1_555 1_555
C2 C1 1_555 1_555
H4 C2 1_555 1_555
C3 O2 1_555 1_555
H5 C3 1_555 1_555
C4 C3 1_555 1_555
H6 C4 1_555 1_555
C5 O1 1_555 1_555
H7 C5 1_555 1_555
C6 O4 1_555 1_555
H8 C6 1_555 1_555
H9 C6 1_555 1_555
C7 O3 1_555 1_555
H10 C7 1_555 1_555
H11 C7 1_555 1_555
C8 C7 1_555 1_555
C9 C8 1_555 1_555
H12 C9 1_555 1_555
C10 C9 1_555 1_555
H13 C10 1_555 1_555
C11 C10 1_555 1_555
H14 C11 1_555 1_555
C12 C11 1_555 1_555
H15 C12 1_555 1_555
C13 C8 1_555 1_555
H16 C13 1_555 1_555
C2 C3 1_555 1_555
C4 C5 1_555 1_555
C5 C6 1_555 1_555
C12 C13 1_555 1_555

#END
