
#######################################################################
#
#                 Cambridge Crystallographic Data Centre
#                                CCDC 
#
#######################################################################
#
# If this CIF has been generated from an entry in the Cambridge 
# Structural Database, then it will include bibliographic, chemical, 
# crystal, experimental, refinement or atomic coordinate data resulting 
# from the CCDC's data processing and validation procedures.
#
#######################################################################

data_AHUZEJ
_chemical_name_common            
4-O-benzyl-6-O-tert-butyldimethylsilyl-D-(-)-glucal
_chemical_formula_moiety         'C19 H30 O4 Si1'
_chemical_name_systematic        
3-(Benzyloxy)-2-(((dimethyl(t-butyl)silyl)oxy)methyl)-3,4-dihydro-2H-pyran-4-ol
_symmetry_cell_setting           orthorhombic
_symmetry_space_group_name_H-M   'P 21 21 21'
_symmetry_Int_Tables_number      19
_space_group_name_Hall           'P 2ac 2ab'
loop_
_symmetry_equiv_pos_site_id
_symmetry_equiv_pos_as_xyz
1 x,y,z
2 1/2+x,1/2-y,-z
3 -x,1/2+y,1/2-z
4 1/2-x,-y,1/2+z
_cell_length_a                   6.6344(2)
_cell_length_b                   10.9383(2)
_cell_length_c                   27.1190(6)
_cell_angle_alpha                90
_cell_angle_beta                 90
_cell_angle_gamma                90
_cell_volume                     1968
_exptl_crystal_description       plate
_cell_formula_units_Z            4
loop_
_atom_site_label
_atom_site_type_symbol
_atom_site_fract_x
_atom_site_fract_y
_atom_site_fract_z
Si1 Si 0.08771(6) 0.47928(3) 0.829122(14)
O1 O 0.46389(18) 0.36434(9) 0.95921(4)
O2 O 0.26111(15) 0.47269(9) 0.87324(3)
O3 O 0.44740(17) 0.69928(9) 0.94316(4)
O4 O 0.85404(17) 0.65416(10) 0.97439(4)
H1 H 0.8933 0.6958 0.9976
C1 C 0.6390(3) 0.35836(14) 0.98579(5)
H2 H 0.6894 0.2812 0.9932
C2 C 0.7416(2) 0.45376(14) 1.00167(5)
H3 H 0.8543 0.4404 1.0213
C3 C 0.6846(2) 0.58300(14) 0.98946(5)
H4 H 0.6225 0.6210 1.0184
C4 C 0.5328(2) 0.58056(13) 0.94749(5)
H5 H 0.6022 0.5596 0.9167
C5 C 0.3733(2) 0.48401(13) 0.95846(5)
H6 H 0.3202 0.5003 0.9915
C6 C 0.1964(2) 0.47975(15) 0.92345(5)
H7 H 0.1135 0.4092 0.9311
H8 H 0.1146 0.5524 0.9279
C7 C -0.0480(2) 0.62887(13) 0.83118(6)
H9 H -0.0845 0.6472 0.8646
H10 H -0.1674 0.6241 0.8113
H11 H 0.0384 0.6921 0.8187
C8 C 0.2279(2) 0.46096(14) 0.76940(5)
C9 C 0.3924(3) 0.55860(17) 0.76512(6)
H12 H 0.4862 0.5496 0.7918
H13 H 0.3321 0.6383 0.7665
H14 H 0.4621 0.5490 0.7343
C10 C 0.0792(3) 0.47470(17) 0.72615(6)
H15 H 0.0210 0.5550 0.7268
H16 H -0.0256 0.4146 0.7291
H17 H 0.1496 0.4630 0.6956
C11 C 0.3258(3) 0.33428(16) 0.76653(6)
H18 H 0.3970 0.3264 0.7359
H19 H 0.2232 0.2725 0.7685
H20 H 0.4183 0.3245 0.7934
C12 C -0.1032(3) 0.35658(14) 0.83896(6)
H21 H -0.0363 0.2791 0.8418
H22 H -0.1943 0.3546 0.8115
H23 H -0.1772 0.3729 0.8687
C13 C 0.4152(3) 0.74328(14) 0.89409(6)
H24 H 0.2775 0.7267 0.8841
H25 H 0.5046 0.7010 0.8715
C14 C 0.4545(3) 0.87853(14) 0.89177(5)
C15 C 0.6395(3) 0.92596(16) 0.90655(6)
H26 H 0.7382 0.8741 0.9190
C16 C 0.6770(3) 1.04967(17) 0.90284(6)
H27 H 0.8009 1.0809 0.9127
C17 C 0.5300(3) 1.12743(16) 0.88444(6)
H28 H 0.5554 1.2108 0.8819
C18 C 0.3460(3) 1.08094(15) 0.86989(6)
H29 H 0.2473 1.1330 0.8575
C19 C 0.3085(3) 0.95662(14) 0.87369(6)
H30 H 0.1842 0.9256 0.8640
loop_
_geom_bond_atom_site_label_1
_geom_bond_atom_site_label_2
_geom_bond_site_symmetry_1
_geom_bond_site_symmetry_2
Si1 O2 1_555 1_555
O1 C1 1_555 1_555
O2 C6 1_555 1_555
O3 C4 1_555 1_555
O4 H1 1_555 1_555
C1 H2 1_555 1_555
C2 C1 1_555 1_555
H3 C2 1_555 1_555
C3 O4 1_555 1_555
H4 C3 1_555 1_555
C4 C3 1_555 1_555
H5 C4 1_555 1_555
C5 O1 1_555 1_555
H6 C5 1_555 1_555
C6 C5 1_555 1_555
H7 C6 1_555 1_555
H8 C6 1_555 1_555
C7 Si1 1_555 1_555
H9 C7 1_555 1_555
H10 C7 1_555 1_555
H11 C7 1_555 1_555
C8 Si1 1_555 1_555
C9 C8 1_555 1_555
H12 C9 1_555 1_555
H13 C9 1_555 1_555
H14 C9 1_555 1_555
C10 C8 1_555 1_555
H15 C10 1_555 1_555
H16 C10 1_555 1_555
H17 C10 1_555 1_555
C11 C8 1_555 1_555
H18 C11 1_555 1_555
H19 C11 1_555 1_555
H20 C11 1_555 1_555
C12 Si1 1_555 1_555
H21 C12 1_555 1_555
H22 C12 1_555 1_555
H23 C12 1_555 1_555
C13 O3 1_555 1_555
H24 C13 1_555 1_555
H25 C13 1_555 1_555
C14 C13 1_555 1_555
C15 C14 1_555 1_555
H26 C15 1_555 1_555
C16 C15 1_555 1_555
H27 C16 1_555 1_555
C17 C16 1_555 1_555
H28 C17 1_555 1_555
C18 C17 1_555 1_555
H29 C18 1_555 1_555
C19 C14 1_555 1_555
H30 C19 1_555 1_555
C2 C3 1_555 1_555
C4 C5 1_555 1_555
C18 C19 1_555 1_555

#END
