
#######################################################################
#
#                 Cambridge Crystallographic Data Centre
#                                CCDC 
#
#######################################################################
#
# If this CIF has been generated from an entry in the Cambridge 
# Structural Database, then it will include bibliographic, chemical, 
# crystal, experimental, refinement or atomic coordinate data resulting 
# from the CCDC's data processing and validation procedures.
#
#######################################################################

data_AHUZUZ
_chemical_name_common            
4-Azido-2-(benzyloxy)-6,8-dioxabicyclo[3.2.1]octan-3-ol
_chemical_formula_moiety         'C13 H15 N3 O4'
_chemical_name_systematic        
1,6-Anhydro-2-azido-4-O-benzyl-2-deoxy-\b-D-glucopyranose
_symmetry_cell_setting           orthorhombic
_symmetry_space_group_name_H-M   'P 21 21 21'
_symmetry_Int_Tables_number      19
_space_group_name_Hall           'P 2ac 2ab'
loop_
_symmetry_equiv_pos_site_id
_symmetry_equiv_pos_as_xyz
1 x,y,z
2 1/2-x,-y,1/2+z
3 -x,1/2+y,1/2-z
4 1/2+x,1/2-y,-z
_cell_length_a                   6.7203(3)
_cell_length_b                   10.1187(4)
_cell_length_c                   18.5765(8)
_cell_angle_alpha                90
_cell_angle_beta                 90
_cell_angle_gamma                90
_cell_volume                     1263.21
_exptl_crystal_colour            colorless
_exptl_crystal_description       parallelepiped
_cell_formula_units_Z            4
_exptl_crystal_recrystallization_method 'diethyl ether/hexanes'
loop_
_atom_site_label
_atom_site_type_symbol
_atom_site_fract_x
_atom_site_fract_y
_atom_site_fract_z
N1 N 0.22767(18) 1.01546(12) 0.94555(6)
N2 N 0.29882(17) 1.07649(11) 0.99685(6)
N3 N 0.3815(2) 1.13801(13) 1.03820(7)
O1 O -0.30993(14) 0.93508(10) 0.94472(5)
O2 O -0.04741(15) 0.70251(10) 0.95705(5)
H1 H 0.028(3) 0.664(2) 0.9847(11)
O3 O 0.17882(13) 0.85088(9) 0.80395(5)
O4 O -0.11843(14) 1.02844(9) 0.85853(5)
C1 C -0.1327(2) 1.01055(13) 0.93352(7)
H2 H -0.1431 1.0980 0.9583
C2 C 0.0483(2) 0.93414(13) 0.96121(7)
H3 H 0.0361 0.9196 1.0143
C3 C 0.07159(19) 0.80007(13) 0.92224(7)
H4 H 0.2142 0.7723 0.9249
C4 C 0.00909(19) 0.80673(13) 0.84256(7)
H5 H -0.0274 0.7161 0.8257
C5 C -0.1690(2) 0.89946(13) 0.83149(7)
H6 H -0.2075 0.9038 0.7795
C6 C -0.3470(2) 0.86418(14) 0.87826(7)
H7 H -0.4728 0.8936 0.8557
H8 H -0.3537 0.7677 0.8868
C7 C 0.1687(2) 0.82731(15) 0.72785(7)
H9 H 0.0552 0.8760 0.7066
H10 H 0.1504 0.7319 0.7182
C8 C 0.3614(2) 0.87477(14) 0.69566(7)
C9 C 0.4882(2) 0.78889(15) 0.65915(7)
H11 H 0.4545 0.6980 0.6551
C10 C 0.6631(2) 0.83505(15) 0.62873(7)
H12 H 0.7485 0.7759 0.6038
C11 C 0.7138(2) 0.96774(14) 0.63455(7)
H13 H 0.8327 0.9997 0.6131
C12 C 0.5897(2) 1.05335(14) 0.67201(7)
H14 H 0.6249 1.1438 0.6768
C13 C 0.4152(2) 1.00725(14) 0.70225(8)
H15 H 0.3311 1.0664 0.7278
loop_
_geom_bond_atom_site_label_1
_geom_bond_atom_site_label_2
_geom_bond_site_symmetry_1
_geom_bond_site_symmetry_2
N1 N2 1_555 1_555
N2 N3 1_555 1_555
O1 C1 1_555 1_555
O2 H1 1_555 1_555
O3 C4 1_555 1_555
O4 C1 1_555 1_555
C1 H2 1_555 1_555
C2 N1 1_555 1_555
H3 C2 1_555 1_555
C3 O2 1_555 1_555
H4 C3 1_555 1_555
C4 C3 1_555 1_555
H5 C4 1_555 1_555
C5 O4 1_555 1_555
H6 C5 1_555 1_555
C6 O1 1_555 1_555
H7 C6 1_555 1_555
H8 C6 1_555 1_555
C7 O3 1_555 1_555
H9 C7 1_555 1_555
H10 C7 1_555 1_555
C8 C7 1_555 1_555
C9 C8 1_555 1_555
H11 C9 1_555 1_555
C10 C9 1_555 1_555
H12 C10 1_555 1_555
C11 C10 1_555 1_555
H13 C11 1_555 1_555
C12 C11 1_555 1_555
H14 C12 1_555 1_555
C13 C8 1_555 1_555
H15 C13 1_555 1_555
C1 C2 1_555 1_555
C2 C3 1_555 1_555
C4 C5 1_555 1_555
C5 C6 1_555 1_555
C12 C13 1_555 1_555

#END
