
#######################################################################
#
#                 Cambridge Crystallographic Data Centre
#                                CCDC 
#
#######################################################################
#
# If this CIF has been generated from an entry in the Cambridge 
# Structural Database, then it will include bibliographic, chemical, 
# crystal, experimental, refinement or atomic coordinate data resulting 
# from the CCDC's data processing and validation procedures.
#
#######################################################################

data_AJABET
_chemical_name_common            
'Azido 3,4,6-tri-O-acetyl-2-dimethylmaleimido-2-deoxy-beta-D-glucopyranoside'
_chemical_formula_moiety         'C18 H22 N4 O9'
_chemical_name_systematic        
'2-(Acetoxymethyl)-6-azido-5-(3,4-dimethyl-2,5-dioxo-2,5-dihydro-1H-pyrrol-1-yl)tetrahydro-2H-pyran-3,4-diyl diacetate'
_symmetry_cell_setting           orthorhombic
_symmetry_space_group_name_H-M   'P 21 21 2'
_symmetry_Int_Tables_number      18
_space_group_name_Hall           'P 2 2ab'
loop_
_symmetry_equiv_pos_site_id
_symmetry_equiv_pos_as_xyz
1 x,y,z
2 1/2+x,1/2-y,-z
3 1/2-x,1/2+y,-z
4 -x,-y,z
_cell_length_a                   17.5877(2)
_cell_length_b                   21.7941(2)
_cell_length_c                   5.7479(1)
_cell_angle_alpha                90
_cell_angle_beta                 90
_cell_angle_gamma                90
_cell_volume                     2203.22
_exptl_crystal_colour            colorless
_exptl_crystal_description       plate
_cell_formula_units_Z            4
loop_
_atom_site_label
_atom_site_type_symbol
_atom_site_fract_x
_atom_site_fract_y
_atom_site_fract_z
N1 N 0.19006(9) 0.65203(7) 0.4334(3)
N2 N 0.15505(9) 0.67266(7) 0.2632(4)
N3 N 0.12226(12) 0.69775(10) 0.1241(5)
N4 N 0.33048(8) 0.61637(6) 0.6475(3)
O1 O 0.32409(6) 0.49276(6) 0.8298(2)
O2 O 0.24725(7) 0.40535(5) 0.5271(3)
O3 O 0.15742(7) 0.55012(5) 0.3778(2)
O4 O 0.06405(7) 0.44850(6) 0.5021(3)
O5 O 0.4160(11) 0.4406(8) 0.6500(19)
O6 O 0.19403(14) 0.37548(9) 0.8633(4)
O7 O 0.0107(6) 0.3630(8) 0.388(2)
O8 O 0.28553(8) 0.66729(6) 0.9713(2)
O9 O 0.40495(8) 0.59454(7) 0.3270(3)
C1 C 0.22051(10) 0.59075(7) 0.3986(3)
H1 H 0.2524 0.5892 0.2590
C2 C 0.26658(9) 0.57497(7) 0.6147(3)
H2 H 0.2329 0.5798 0.7494
C3 C 0.29167(9) 0.50786(7) 0.6073(3)
H3 H 0.3294 0.5018 0.4839
C4 C 0.22274(10) 0.46765(7) 0.5639(3)
H4 H 0.1885 0.4695 0.6981
C5 C 0.18078(10) 0.48783(7) 0.3462(3)
H5 H 0.2153 0.4854 0.2128
C6 C 0.11091(12) 0.45018(9) 0.2964(4)
H6 H 0.0828 0.4682 0.1684
H7 H 0.1255 0.4088 0.2526
C7 C 0.39079(13) 0.46098(10) 0.8318(4)
C8 C 0.41370(15) 0.44558(13) 1.0704(5)
H8 H 0.4612 0.4239 1.0673
H9 H 0.3755 0.4202 1.1408
H10 H 0.4193 0.4826 1.1593
C9 C 0.22607(14) 0.36260(9) 0.6863(5)
C10 C 0.24859(19) 0.30056(11) 0.6049(8)
H11 H 0.2082 0.2832 0.5140
H12 H 0.2585 0.2747 0.7368
H13 H 0.2936 0.3036 0.5113
C11 C 0.02443(13) 0.39822(10) 0.5418(5)
C12 C -0.01980(14) 0.40137(13) 0.7599(5)
H14 H 0.0125 0.3912 0.8889
H15 H -0.0613 0.3728 0.7526
H16 H -0.0393 0.4422 0.7799
C13 C 0.33293(10) 0.66056(7) 0.8227(3)
C14 C 0.40448(11) 0.69616(8) 0.7883(3)
C15 C 0.44038(10) 0.67388(8) 0.6053(4)
C16 C 0.39355(10) 0.62354(8) 0.5025(3)
C17 C 0.42397(15) 0.74730(11) 0.9498(5)
H17 H 0.4172 0.7339 1.1076
H18 H 0.3913 0.7817 0.9197
H19 H 0.4760 0.7592 0.9262
C18 C 0.51532(11) 0.69217(11) 0.5023(5)
H20 H 0.5550 0.6676 0.5691
H21 H 0.5249 0.7347 0.5349
H22 H 0.5141 0.6860 0.3370
O10? O 0.048(2) 0.3482(4) 0.460(3)
O11? O 0.4324(11) 0.4590(17) 0.676(4)
loop_
_geom_bond_atom_site_label_1
_geom_bond_atom_site_label_2
_geom_bond_site_symmetry_1
_geom_bond_site_symmetry_2
N1 N2 1_555 1_555
N2 N3 1_555 1_555
N4 C2 1_555 1_555
O1 C3 1_555 1_555
O2 C4 1_555 1_555
O3 C1 1_555 1_555
O4 C6 1_555 1_555
O5 C7 1_555 1_555
O6 C9 1_555 1_555
O7 C11 1_555 1_555
O8 C13 1_555 1_555
O9 C16 1_555 1_555
C1 N1 1_555 1_555
H1 C1 1_555 1_555
C2 C1 1_555 1_555
H2 C2 1_555 1_555
C3 C2 1_555 1_555
H3 C3 1_555 1_555
C4 C3 1_555 1_555
H4 C4 1_555 1_555
C5 O3 1_555 1_555
H5 C5 1_555 1_555
C6 C5 1_555 1_555
H6 C6 1_555 1_555
H7 C6 1_555 1_555
C7 O1 1_555 1_555
C8 C7 1_555 1_555
H8 C8 1_555 1_555
H9 C8 1_555 1_555
H10 C8 1_555 1_555
C9 O2 1_555 1_555
C10 C9 1_555 1_555
H11 C10 1_555 1_555
H12 C10 1_555 1_555
H13 C10 1_555 1_555
C11 O4 1_555 1_555
C12 C11 1_555 1_555
H14 C12 1_555 1_555
H15 C12 1_555 1_555
H16 C12 1_555 1_555
C13 N4 1_555 1_555
C14 C13 1_555 1_555
C15 C14 1_555 1_555
C16 N4 1_555 1_555
C17 C14 1_555 1_555
H17 C17 1_555 1_555
H18 C17 1_555 1_555
H19 C17 1_555 1_555
C18 C15 1_555 1_555
H20 C18 1_555 1_555
H21 C18 1_555 1_555
H22 C18 1_555 1_555
C4 C5 1_555 1_555
C15 C16 1_555 1_555

#END
