
#######################################################################
#
#                 Cambridge Crystallographic Data Centre
#                                CCDC 
#
#######################################################################
#
# If this CIF has been generated from an entry in the Cambridge 
# Structural Database, then it will include bibliographic, chemical, 
# crystal, experimental, refinement or atomic coordinate data resulting 
# from the CCDC's data processing and validation procedures.
#
#######################################################################

data_AJALIG
_chemical_name_common            
2-(D-(+)-10-Camphorsulfonylamido)-2'-hydroxy-6,6'-dimethyl-1,1'-biphenyl
_chemical_formula_moiety         'C24 H29 N1 O4 S1'
_chemical_name_systematic        
2-((((+)-2-Oxo-7,7-dimethylbicyclo(2.2.1)hept-1-yl)methylsulfonyl)amino)-2'-hydroxy-6,6'-dimethyl-1,1'-biphenyl
_symmetry_cell_setting           orthorhombic
_symmetry_space_group_name_H-M   'P 21 21 21'
_symmetry_Int_Tables_number      19
_space_group_name_Hall           'P 2ac 2ab'
loop_
_symmetry_equiv_pos_site_id
_symmetry_equiv_pos_as_xyz
1 x,y,z
2 1/2-x,-y,1/2+z
3 -x,1/2+y,1/2-z
4 1/2+x,1/2-y,-z
_cell_length_a                   12.6855(14)
_cell_length_b                   12.7003(15)
_cell_length_c                   13.9779(16)
_cell_angle_alpha                90
_cell_angle_beta                 90
_cell_angle_gamma                90
_cell_volume                     2251.97
_exptl_crystal_colour            colorless
_cell_formula_units_Z            4
loop_
_atom_site_label
_atom_site_type_symbol
_atom_site_fract_x
_atom_site_fract_y
_atom_site_fract_z
S1 S 0.81087(9) 0.16374(12) 0.14025(9)
O1 O 0.7957(2) 0.1898(3) 0.0436(2)
O2 O 0.8101(2) 0.0560(3) 0.1692(3)
O3 O 0.6175(2) 0.4026(3) 0.1063(2)
O4 O 0.8738(3) -0.0245(3) 0.3785(3)
N1 N 0.91825(18) 0.2132(2) 0.17303(19)
H1 H 0.9241 0.2807 0.1743
C1 C 0.7257(2) 0.2387(3) 0.2112(3)
H2 H 0.7355 0.2175 0.2773
H3 H 0.7471 0.3119 0.2064
C2 C 0.6081(3) 0.2324(3) 0.1884(3)
C3 C 0.5663(3) 0.3330(4) 0.1434(3)
C4 C 0.4476(3) 0.3316(4) 0.1577(3)
H4 H 0.4105 0.3291 0.0970
H5 H 0.4240 0.3925 0.1937
C5 C 0.4326(3) 0.2299(4) 0.2144(3)
C6 C 0.4475(3) 0.1400(3) 0.1430(4)
H6 H 0.4069 0.1520 0.0852
H7 H 0.4270 0.0730 0.1706
C7 C 0.5679(3) 0.1433(3) 0.1222(3)
H8 H 0.6010 0.0766 0.1378
H9 H 0.5815 0.1596 0.0555
C8 C 0.5341(3) 0.2253(4) 0.2761(3)
C9 C 0.5462(3) 0.1225(4) 0.3328(3)
H10 H 0.6179 0.1154 0.3539
H11 H 0.5281 0.0639 0.2927
H12 H 0.5002 0.1239 0.3874
C10 C 0.5477(3) 0.3171(3) 0.3453(3)
H13 H 0.4930 0.3149 0.3927
H14 H 0.5436 0.3823 0.3107
H15 H 0.6152 0.3119 0.3762
C11 C 1.0044(3) 0.1523(4) 0.2002(3)
C12 C 1.0787(3) 0.1307(4) 0.1311(3)
H16 H 1.0691 0.1521 0.0681
C13 C 1.1689(3) 0.0756(4) 0.1590(4)
H17 H 1.2206 0.0599 0.1140
C14 C 1.1820(3) 0.0443(3) 0.2520(3)
H18 H 1.2429 0.0081 0.2692
C15 C 1.1073(3) 0.0652(3) 0.3203(3)
C16 C 1.0162(3) 0.1220(3) 0.2950(3)
C17 C 0.9378(3) 0.1554(4) 0.3685(3)
C18 C 0.8687(4) 0.0834(4) 0.4086(4)
C19 C 0.7973(4) 0.1131(5) 0.4798(3)
H19 H 0.7535 0.0633 0.5080
C20 C 0.7926(4) 0.2175(5) 0.5079(4)
H20 H 0.7442 0.2383 0.5541
C21 C 0.8594(4) 0.2906(4) 0.4678(3)
H21 H 0.8555 0.3609 0.4860
C22 C 0.9337(3) 0.2582(4) 0.3987(3)
C23 C 1.1258(3) 0.0285(3) 0.4220(3)
H22 H 1.0765 -0.0262 0.4374
H23 H 1.1163 0.0866 0.4651
H24 H 1.1963 0.0019 0.4279
C24 C 1.0082(3) 0.3423(3) 0.3599(3)
H25 H 1.0774 0.3129 0.3522
H26 H 1.0112 0.4002 0.4039
H27 H 0.9828 0.3668 0.2991
H28 H 0.3714(19) 0.232(2) 0.2505(19)
H29 H 0.8168(18) -0.066(2) 0.400(2)
loop_
_geom_bond_atom_site_label_1
_geom_bond_atom_site_label_2
_geom_bond_site_symmetry_1
_geom_bond_site_symmetry_2
S1 O1 1_555 1_555
O2 S1 1_555 1_555
O3 C3 1_555 1_555
O4 C18 1_555 1_555
N1 S1 1_555 1_555
H1 N1 1_555 1_555
C1 S1 1_555 1_555
H2 C1 1_555 1_555
H3 C1 1_555 1_555
C2 C1 1_555 1_555
C3 C2 1_555 1_555
C4 C3 1_555 1_555
H4 C4 1_555 1_555
H5 C4 1_555 1_555
C5 C4 1_555 1_555
C6 C5 1_555 1_555
H6 C6 1_555 1_555
H7 C6 1_555 1_555
C7 C2 1_555 1_555
H8 C7 1_555 1_555
H9 C7 1_555 1_555
C8 C2 1_555 1_555
C9 C8 1_555 1_555
H10 C9 1_555 1_555
H11 C9 1_555 1_555
H12 C9 1_555 1_555
C10 C8 1_555 1_555
H13 C10 1_555 1_555
H14 C10 1_555 1_555
H15 C10 1_555 1_555
C11 N1 1_555 1_555
C12 C11 1_555 1_555
H16 C12 1_555 1_555
C13 C12 1_555 1_555
H17 C13 1_555 1_555
C14 C13 1_555 1_555
H18 C14 1_555 1_555
C15 C14 1_555 1_555
C16 C11 1_555 1_555
C17 C16 1_555 1_555
C18 C17 1_555 1_555
C19 C18 1_555 1_555
H19 C19 1_555 1_555
C20 C19 1_555 1_555
H20 C20 1_555 1_555
C21 C20 1_555 1_555
H21 C21 1_555 1_555
C22 C17 1_555 1_555
C23 C15 1_555 1_555
H22 C23 1_555 1_555
H23 C23 1_555 1_555
H24 C23 1_555 1_555
C24 C22 1_555 1_555
H25 C24 1_555 1_555
H26 C24 1_555 1_555
H27 C24 1_555 1_555
H28 C5 1_555 1_555
H29 O4 1_555 1_555
C5 C8 1_555 1_555
C6 C7 1_555 1_555
C15 C16 1_555 1_555
C21 C22 1_555 1_555

#END
