
#######################################################################
#
#                 Cambridge Crystallographic Data Centre
#                                CCDC 
#
#######################################################################
#
# If this CIF has been generated from an entry in the Cambridge 
# Structural Database, then it will include bibliographic, chemical, 
# crystal, experimental, refinement or atomic coordinate data resulting 
# from the CCDC's data processing and validation procedures.
#
#######################################################################

data_AJANAB
_chemical_formula_moiety         'C27 H37 N3'
_chemical_name_systematic        
1,3-bis(2,6-Di-isopropylphenyl)-imidazolin-2-imine
_symmetry_cell_setting           monoclinic
_symmetry_space_group_name_H-M   'P 21/n'
_symmetry_Int_Tables_number      14
_space_group_name_Hall           '-P 2yn'
loop_
_symmetry_equiv_pos_site_id
_symmetry_equiv_pos_as_xyz
1 x,y,z
2 1/2-x,1/2+y,1/2-z
3 -x,-y,-z
4 1/2+x,1/2-y,1/2+z
_cell_length_a                   19.7270(14)
_cell_length_b                   6.5185(6)
_cell_length_c                   20.1008(16)
_cell_angle_alpha                90
_cell_angle_beta                 106.755(4)
_cell_angle_gamma                90
_cell_volume                     2475.04
_exptl_crystal_colour            colorless
_exptl_crystal_description       prism
_cell_formula_units_Z            4
_exptl_crystal_recrystallization_method pentane
loop_
_atom_site_label
_atom_site_type_symbol
_atom_site_fract_x
_atom_site_fract_y
_atom_site_fract_z
N1 N 0.53401(6) 0.30625(18) 0.23191(7)
H1 H 0.5792(10) 0.285(3) 0.2333(10)
N2 N 0.43575(5) 0.09588(16) 0.22839(6)
N3 N 0.53294(5) -0.06845(16) 0.23074(6)
C1 C 0.50562(6) 0.12769(19) 0.23065(7)
C2 C 0.42233(7) -0.1149(2) 0.22942(7)
H2 H 0.3785 -0.1756 0.2294
C3 C 0.48146(7) -0.2161(2) 0.23051(7)
H3 H 0.4874 -0.3607 0.2310
C4 C 0.38897(6) 0.25210(19) 0.23947(7)
C5 C 0.34316(6) 0.3502(2) 0.18210(7)
C6 C 0.29398(7) 0.4881(2) 0.19456(7)
H4 H 0.2620 0.5565 0.1565
C7 C 0.29105(7) 0.5266(2) 0.26125(8)
H5 H 0.2564 0.6179 0.2686
C8 C 0.33841(7) 0.4328(2) 0.31717(8)
H6 H 0.3367 0.4628 0.3629
C9 C 0.38885(7) 0.2944(2) 0.30769(7)
C10 C 0.34407(7) 0.3028(2) 0.10831(7)
H7 H 0.3901 0.2342 0.1109
C11 C 0.28454(9) 0.1526(3) 0.07449(9)
H8 H 0.2914 0.0248 0.1013
H9 H 0.2852 0.1234 0.0269
H10 H 0.2389 0.2134 0.0736
C12 C 0.33908(10) 0.4970(3) 0.06448(9)
H11 H 0.2924 0.5600 0.0573
H12 H 0.3457 0.4614 0.0194
H13 H 0.3759 0.5940 0.0886
C13 C 0.44148(8) 0.1951(3) 0.36969(8)
H14 H 0.4772 0.1209 0.3520
C14 C 0.48076(11) 0.3548(4) 0.42095(10)
H15 H 0.5035 0.4527 0.3972
H16 H 0.5169 0.2875 0.4585
H17 H 0.4474 0.4276 0.4404
C15 C 0.40536(11) 0.0362(4) 0.40423(11)
H18 H 0.4412 -0.0342 0.4413
H19 H 0.3804 -0.0642 0.3695
H20 H 0.3715 0.1053 0.4240
C16 C 0.60597(6) -0.10981(19) 0.23756(8)
C17 C 0.62750(8) -0.1260(2) 0.17739(9)
C18 C 0.69898(9) -0.1669(3) 0.18563(11)
H21 H 0.7153 -0.1792 0.1457
C19 C 0.74597(9) -0.1897(3) 0.25060(12)
H22 H 0.7944 -0.2169 0.2551
C20 C 0.72376(8) -0.1735(3) 0.30912(11)
H23 H 0.7571 -0.1891 0.3536
C21 C 0.65290(7) -0.1343(2) 0.30430(8)
C22 C 0.57537(9) -0.1116(3) 0.10580(9)
H24 H 0.5313 -0.0457 0.1107
C23 C 0.55606(14) -0.3299(4) 0.07726(12)
H25 H 0.5989 -0.4009 0.0743
H26 H 0.5221 -0.3220 0.0309
H27 H 0.5350 -0.4058 0.1084
C24 C 0.60249(12) 0.0189(4) 0.05597(11)
H28 H 0.6121 0.1584 0.0745
H29 H 0.5667 0.0236 0.0106
H30 H 0.6462 -0.0413 0.0507
C25 C 0.62888(8) -0.1189(3) 0.36923(8)
H31 H 0.5759 -0.1199 0.3545
C26 C 0.65296(12) 0.0820(3) 0.40721(11)
H32 H 0.7048 0.0885 0.4216
H33 H 0.6358 0.0898 0.4483
H34 H 0.6338 0.1973 0.3762
C27 C 0.65401(14) -0.3004(3) 0.41840(12)
H35 H 0.6383 -0.4288 0.3934
H36 H 0.6340 -0.2895 0.4576
H37 H 0.7058 -0.2991 0.4357
loop_
_geom_bond_atom_site_label_1
_geom_bond_atom_site_label_2
_geom_bond_site_symmetry_1
_geom_bond_site_symmetry_2
N1 H1 1_555 1_555
N2 C1 1_555 1_555
N3 C1 1_555 1_555
C1 N1 1_555 1_555
C2 N2 1_555 1_555
H2 C2 1_555 1_555
C3 N3 1_555 1_555
H3 C3 1_555 1_555
C4 N2 1_555 1_555
C5 C4 1_555 1_555
C6 C5 1_555 1_555
H4 C6 1_555 1_555
C7 C6 1_555 1_555
H5 C7 1_555 1_555
C8 C7 1_555 1_555
H6 C8 1_555 1_555
C9 C4 1_555 1_555
C10 C5 1_555 1_555
H7 C10 1_555 1_555
C11 C10 1_555 1_555
H8 C11 1_555 1_555
H9 C11 1_555 1_555
H10 C11 1_555 1_555
C12 C10 1_555 1_555
H11 C12 1_555 1_555
H12 C12 1_555 1_555
H13 C12 1_555 1_555
C13 C9 1_555 1_555
H14 C13 1_555 1_555
C14 C13 1_555 1_555
H15 C14 1_555 1_555
H16 C14 1_555 1_555
H17 C14 1_555 1_555
C15 C13 1_555 1_555
H18 C15 1_555 1_555
H19 C15 1_555 1_555
H20 C15 1_555 1_555
C16 N3 1_555 1_555
C17 C16 1_555 1_555
C18 C17 1_555 1_555
H21 C18 1_555 1_555
C19 C18 1_555 1_555
H22 C19 1_555 1_555
C20 C19 1_555 1_555
H23 C20 1_555 1_555
C21 C16 1_555 1_555
C22 C17 1_555 1_555
H24 C22 1_555 1_555
C23 C22 1_555 1_555
H25 C23 1_555 1_555
H26 C23 1_555 1_555
H27 C23 1_555 1_555
C24 C22 1_555 1_555
H28 C24 1_555 1_555
H29 C24 1_555 1_555
H30 C24 1_555 1_555
C25 C21 1_555 1_555
H31 C25 1_555 1_555
C26 C25 1_555 1_555
H32 C26 1_555 1_555
H33 C26 1_555 1_555
H34 C26 1_555 1_555
C27 C25 1_555 1_555
H35 C27 1_555 1_555
H36 C27 1_555 1_555
H37 C27 1_555 1_555
C2 C3 1_555 1_555
C8 C9 1_555 1_555
C20 C21 1_555 1_555

#END
