
#######################################################################
#
#                 Cambridge Crystallographic Data Centre
#                                CCDC 
#
#######################################################################
#
# If this CIF has been generated from an entry in the Cambridge 
# Structural Database, then it will include bibliographic, chemical, 
# crystal, experimental, refinement or atomic coordinate data resulting 
# from the CCDC's data processing and validation procedures.
#
#######################################################################

data_AJAZUI
_chemical_formula_moiety         'C20 H38 Si4'
_chemical_name_systematic        
octa-3,5-diene-1,7-diyne-1,4,5,8-tetrayltetrakis(trimethylsilane)
_symmetry_cell_setting           triclinic
_symmetry_space_group_name_H-M   'P -1'
_symmetry_Int_Tables_number      2
_space_group_name_Hall           '-P 1'
loop_
_symmetry_equiv_pos_site_id
_symmetry_equiv_pos_as_xyz
1 x,y,z
2 -x,-y,-z
_cell_length_a                   6.5912(2)
_cell_length_b                   13.0722(4)
_cell_length_c                   15.5139(4)
_cell_angle_alpha                90.062(2)
_cell_angle_beta                 94.187(2)
_cell_angle_gamma                96.880(2)
_cell_volume                     1323.47
_exptl_crystal_colour            colorless
_exptl_crystal_description       plate
_cell_formula_units_Z            2
loop_
_atom_site_label
_atom_site_type_symbol
_atom_site_fract_x
_atom_site_fract_y
_atom_site_fract_z
C1 C 0.8618(3) 0.12876(15) 0.74396(11)
C2 C 0.8235(2) 0.15500(13) 0.67072(11)
C3 C 0.7827(2) 0.18278(13) 0.58295(10)
C4 C 0.6548(2) 0.25001(12) 0.55454(9)
C5 C 0.6298(2) 0.26759(12) 0.45963(9)
C6 C 0.7570(2) 0.34101(13) 0.42430(10)
C7 C 0.7534(2) 0.36174(13) 0.33373(10)
C8 C 0.7555(3) 0.37845(14) 0.25752(11)
C9 C 1.0484(4) -0.0293(2) 0.85053(14)
H1 H 0.9597 -0.0856 0.8202
H2 H 1.0861 -0.0506 0.9095
H3 H 1.1726 -0.0126 0.8197
C10 C 1.0708(4) 0.1891(2) 0.91768(14)
H4 H 1.2027 0.2044 0.8922
H5 H 1.0940 0.1669 0.9775
H6 H 1.0007 0.2512 0.9168
C11 C 0.6618(4) 0.0528(2) 0.90182(14)
H7 H 0.5896 0.1141 0.9023
H8 H 0.6853 0.0288 0.9611
H9 H 0.5787 -0.0018 0.8671
C12 C 0.7006(4) 0.43234(18) 0.67549(15)
H10 H 0.7647 0.4719 0.6290
H11 H 0.8062 0.4031 0.7122
H12 H 0.6304 0.4778 0.7103
C13 C 0.3953(3) 0.24518(19) 0.71394(13)
H13 H 0.2919 0.2809 0.7398
H14 H 0.5019 0.2321 0.7586
H15 H 0.3305 0.1795 0.6886
C14 C 0.3043(3) 0.38126(15) 0.56245(12)
H16 H 0.2053 0.3250 0.5378
H17 H 0.3630 0.4226 0.5156
H18 H 0.2350 0.4249 0.5992
C15 C 0.2727(3) 0.09863(14) 0.46831(12)
H19 H 0.2120 0.1432 0.5076
H20 H 0.3604 0.0554 0.5019
H21 H 0.1635 0.0547 0.4351
C16 C 0.2557(3) 0.25415(17) 0.32500(14)
H22 H 0.1451 0.2068 0.2960
H23 H 0.3340 0.2925 0.2816
H24 H 0.1970 0.3026 0.3615
C17 C 0.5670(3) 0.09647(15) 0.32655(13)
H25 H 0.4685 0.0441 0.2962
H26 H 0.6646 0.0627 0.3640
H27 H 0.6411 0.1389 0.2842
C18 C 0.6618(4) 0.52107(17) 0.11384(13)
H28 H 0.5199 0.5184 0.1295
H29 H 0.6669 0.5332 0.0517
H30 H 0.7469 0.5772 0.1460
C19 C 0.5931(4) 0.28937(19) 0.08491(14)
H31 H 0.6464 0.2242 0.0995
H32 H 0.5914 0.2996 0.0223
H33 H 0.4536 0.2873 0.1033
C20 C 1.0273(3) 0.3985(2) 0.11175(14)
H34 H 1.1125 0.4573 0.1401
H35 H 1.0318 0.4044 0.0489
H36 H 1.0792 0.3344 0.1308
Si1 Si 0.91058(7) 0.08529(4) 0.85454(3)
Si2 Si 0.51247(7) 0.32669(4) 0.62820(3)
Si3 Si 0.42830(7) 0.17937(4) 0.39324(3)
Si4 Si 0.75952(8) 0.39709(4) 0.14094(3)
H37 H 0.855(3) 0.1454(15) 0.5407(12)
H38 H 0.858(3) 0.3825(14) 0.4594(12)
loop_
_geom_bond_atom_site_label_1
_geom_bond_atom_site_label_2
_geom_bond_site_symmetry_1
_geom_bond_site_symmetry_2
C1 C2 1_555 1_555
C2 C3 1_555 1_555
C3 C4 1_555 1_555
C4 C5 1_555 1_555
C5 C6 1_555 1_555
C6 C7 1_555 1_555
C7 C8 1_555 1_555
C8 Si4 1_555 1_555
C9 H1 1_555 1_555
H2 C9 1_555 1_555
H3 C9 1_555 1_555
C10 H4 1_555 1_555
H5 C10 1_555 1_555
H6 C10 1_555 1_555
C11 H7 1_555 1_555
H8 C11 1_555 1_555
H9 C11 1_555 1_555
C12 H10 1_555 1_555
H11 C12 1_555 1_555
H12 C12 1_555 1_555
C13 H13 1_555 1_555
H14 C13 1_555 1_555
H15 C13 1_555 1_555
C14 H16 1_555 1_555
H17 C14 1_555 1_555
H18 C14 1_555 1_555
C15 H19 1_555 1_555
H20 C15 1_555 1_555
H21 C15 1_555 1_555
C16 H22 1_555 1_555
H23 C16 1_555 1_555
H24 C16 1_555 1_555
C17 H25 1_555 1_555
H26 C17 1_555 1_555
H27 C17 1_555 1_555
C18 H28 1_555 1_555
H29 C18 1_555 1_555
H30 C18 1_555 1_555
C19 H31 1_555 1_555
H32 C19 1_555 1_555
H33 C19 1_555 1_555
C20 H34 1_555 1_555
H35 C20 1_555 1_555
H36 C20 1_555 1_555
Si1 C1 1_555 1_555
Si2 C4 1_555 1_555
Si3 C5 1_555 1_555
Si4 C18 1_555 1_555
H37 C3 1_555 1_555
H38 C6 1_555 1_555
C9 Si1 1_555 1_555
C10 Si1 1_555 1_555
C11 Si1 1_555 1_555
C12 Si2 1_555 1_555
C13 Si2 1_555 1_555
C14 Si2 1_555 1_555
C15 Si3 1_555 1_555
C16 Si3 1_555 1_555
C17 Si3 1_555 1_555
C19 Si4 1_555 1_555
C20 Si4 1_555 1_555

#END
