
#######################################################################
#
#                 Cambridge Crystallographic Data Centre
#                                CCDC 
#
#######################################################################
#
# If this CIF has been generated from an entry in the Cambridge 
# Structural Database, then it will include bibliographic, chemical, 
# crystal, experimental, refinement or atomic coordinate data resulting 
# from the CCDC's data processing and validation procedures.
#
#######################################################################

data_AJECEX01
_chemical_name_common            
'2,6-diaminopyridin-1-ium 3,5-dinitrosalicylate'
_chemical_formula_moiety         'C7 H3 N2 O7 1-,C5 H8 N3 1+'
_chemical_name_systematic        
'2,6-diaminopyridin-1-ium 2-hydroxy-3,5-dinitrobenzoate'
_symmetry_cell_setting           monoclinic
_symmetry_space_group_name_H-M   'P 21/c'
_symmetry_Int_Tables_number      14
_space_group_name_Hall           '-P 2ybc'
loop_
_symmetry_equiv_pos_site_id
_symmetry_equiv_pos_as_xyz
1 x,y,z
2 -x,1/2+y,1/2-z
3 -x,-y,-z
4 x,1/2-y,1/2+z
_cell_length_a                   7.9026(6)
_cell_length_b                   29.395(3)
_cell_length_c                   12.2488(14)
_cell_angle_alpha                90
_cell_angle_beta                 90.2150(10)
_cell_angle_gamma                90
_cell_volume                     2845.34
_exptl_crystal_colour            colorless
_exptl_crystal_description       block
_cell_formula_units_Z            8
loop_
_atom_site_label
_atom_site_type_symbol
_atom_site_fract_x
_atom_site_fract_y
_atom_site_fract_z
N1 N 0.4473(3) 0.49685(9) 0.7006(2)
H1 H 0.5075 0.4989 0.7590
N2 N 0.4263(4) 0.57517(10) 0.7057(3)
H2 H 0.4872 0.5749 0.7640
H3 H 0.3904 0.6006 0.6795
N3 N 0.4852(4) 0.41898(10) 0.7142(3)
H4 H 0.5433 0.4236 0.7727
H5 H 0.4697 0.3917 0.6907
C1 C 0.3874(5) 0.53623(13) 0.6559(3)
C2 C 0.2891(5) 0.53238(15) 0.5621(3)
H6 H 0.2446 0.5582 0.5288
C3 C 0.2583(5) 0.48998(17) 0.5188(3)
H7 H 0.1936 0.4878 0.4555
C4 C 0.3199(5) 0.45051(15) 0.5658(3)
H8 H 0.2963 0.4222 0.5357
C5 C 0.4181(5) 0.45466(13) 0.6592(3)
N4 N 0.0938(4) 0.23134(9) 0.9730(2)
H9 H 0.0410 0.2317 1.0342
N5 N 0.1061(4) 0.30974(10) 0.9859(3)
H10 H 0.0529 0.3077 1.0468
H11 H 0.1353 0.3360 0.9612
N6 N 0.0655(4) 0.15308(10) 0.9785(3)
H12 H 0.0136 0.1563 1.0396
H13 H 0.0806 0.1263 0.9517
C6 C 0.1436(5) 0.27198(14) 0.9293(4)
C7 C 0.2294(5) 0.27100(15) 0.8298(4)
H14 H 0.2654 0.2979 0.7975
C8 C 0.2601(5) 0.22986(17) 0.7801(4)
H15 H 0.3169 0.2294 0.7137
C9 C 0.2087(5) 0.18898(15) 0.8263(3)
H16 H 0.2312 0.1615 0.7918
C10 C 0.1234(5) 0.19011(13) 0.9244(3)
N7 N 0.0097(4) 0.40893(12) 0.7480(3)
N8 N 0.0137(4) 0.57379(11) 0.7862(3)
O1 O 0.3657(3) 0.51681(8) 1.1120(2)
O2 O 0.3585(3) 0.44137(8) 1.0972(2)
O3 O 0.2182(3) 0.40424(7) 0.9439(2)
H17 H 0.2766 0.4081 0.9986
O4 O 0.0663(5) 0.37187(10) 0.7695(3)
O5 O -0.0872(4) 0.41517(10) 0.6724(3)
O6 O -0.0638(4) 0.57456(9) 0.6983(2)
O7 O 0.0453(4) 0.60781(9) 0.8398(3)
C11 C 0.3216(4) 0.48192(13) 1.0625(3)
C12 C 0.2197(4) 0.48514(10) 0.9593(3)
C13 C 0.1698(4) 0.44374(11) 0.9056(3)
C14 C 0.0671(4) 0.44839(11) 0.8116(3)
C15 C 0.0161(4) 0.49053(12) 0.7741(3)
H18 H -0.0525 0.4928 0.7125
C16 C 0.0674(5) 0.52917(11) 0.8284(3)
C17 C 0.1694(4) 0.52737(11) 0.9211(3)
H19 H 0.2030 0.5539 0.9565
N9 N 0.4544(4) 0.67903(12) 0.4735(3)
N10 N 0.4015(5) 0.84368(12) 0.5059(3)
O8 O 0.1144(3) 0.78146(9) 0.8508(2)
O9 O 0.1357(3) 0.70590(8) 0.8365(2)
O10 O 0.2831(3) 0.67080(8) 0.6809(2)
H20 H 0.2324 0.6734 0.7389
O11 O 0.4198(5) 0.64086(10) 0.5019(3)
O12 O 0.5360(4) 0.68622(10) 0.3898(3)
O13 O 0.4765(5) 0.84613(10) 0.4183(3)
O14 O 0.3450(5) 0.87683(10) 0.5556(3)
C18 C 0.1606(5) 0.74691(13) 0.8015(3)
C19 C 0.2574(4) 0.75152(11) 0.6961(3)
C20 C 0.3131(5) 0.71192(12) 0.6396(3)
C21 C 0.3995(5) 0.71773(12) 0.5393(3)
C22 C 0.4294(5) 0.76081(12) 0.4979(3)
H21 H 0.4873 0.7644 0.4325
C23 C 0.3728(5) 0.79844(12) 0.5544(3)
C24 C 0.2875(4) 0.79438(12) 0.6530(3)
H22 H 0.2508 0.8202 0.6899
loop_
_geom_bond_atom_site_label_1
_geom_bond_atom_site_label_2
_geom_bond_site_symmetry_1
_geom_bond_site_symmetry_2
N1 H1 1_555 1_555
N2 H2 1_555 1_555
H3 N2 1_555 1_555
N3 H4 1_555 1_555
H5 N3 1_555 1_555
C1 N1 1_555 1_555
C2 C1 1_555 1_555
H6 C2 1_555 1_555
C3 C2 1_555 1_555
H7 C3 1_555 1_555
C4 C3 1_555 1_555
H8 C4 1_555 1_555
C5 N1 1_555 1_555
N4 H9 1_555 1_555
N5 H10 1_555 1_555
H11 N5 1_555 1_555
N6 H12 1_555 1_555
H13 N6 1_555 1_555
C6 N4 1_555 1_555
C7 C6 1_555 1_555
H14 C7 1_555 1_555
C8 C7 1_555 1_555
H15 C8 1_555 1_555
C9 C8 1_555 1_555
H16 C9 1_555 1_555
C10 N4 1_555 1_555
N7 O4 1_555 1_555
N8 O6 1_555 1_555
O1 C11 1_555 1_555
O2 C11 1_555 1_555
O3 H17 1_555 1_555
O5 N7 1_555 1_555
O7 N8 1_555 1_555
C11 C12 1_555 1_555
C12 C13 1_555 1_555
C13 O3 1_555 1_555
C14 N7 1_555 1_555
C15 C14 1_555 1_555
H18 C15 1_555 1_555
C16 N8 1_555 1_555
C17 C12 1_555 1_555
H19 C17 1_555 1_555
N9 O11 1_555 1_555
N10 O13 1_555 1_555
O8 C18 1_555 1_555
O9 C18 1_555 1_555
O10 H20 1_555 1_555
O12 N9 1_555 1_555
O14 N10 1_555 1_555
C18 C19 1_555 1_555
C19 C20 1_555 1_555
C20 O10 1_555 1_555
C21 N9 1_555 1_555
C22 C21 1_555 1_555
H21 C22 1_555 1_555
C23 N10 1_555 1_555
C24 C19 1_555 1_555
H22 C24 1_555 1_555
N2 C1 1_555 1_555
N3 C5 1_555 1_555
C4 C5 1_555 1_555
N5 C6 1_555 1_555
N6 C10 1_555 1_555
C9 C10 1_555 1_555
C13 C14 1_555 1_555
C15 C16 1_555 1_555
C16 C17 1_555 1_555
C20 C21 1_555 1_555
C22 C23 1_555 1_555
C23 C24 1_555 1_555

#END
