
#######################################################################
#
#                 Cambridge Crystallographic Data Centre
#                                CCDC 
#
#######################################################################
#
# If this CIF has been generated from an entry in the Cambridge 
# Structural Database, then it will include bibliographic, chemical, 
# crystal, experimental, refinement or atomic coordinate data resulting 
# from the CCDC's data processing and validation procedures.
#
#######################################################################

data_AJEDIC
_chemical_formula_moiety         'C28 H20 N6'
_chemical_name_systematic        4,4'-bis(3-(Pyrid-2-yl)pyrazol-1-yl)biphenyl
_symmetry_cell_setting           monoclinic
_symmetry_space_group_name_H-M   'P 21/c'
_symmetry_Int_Tables_number      14
_space_group_name_Hall           '-P 2ybc'
loop_
_symmetry_equiv_pos_site_id
_symmetry_equiv_pos_as_xyz
1 x,y,z
2 x,1/2-y,1/2+z
3 -x,-y,-z
4 -x,1/2+y,1/2-z
_cell_length_a                   9.746(2)
_cell_length_b                   8.7597(18)
_cell_length_c                   12.528(3)
_cell_angle_alpha                90
_cell_angle_beta                 93.777(4)
_cell_angle_gamma                90
_cell_volume                     1067.22
_exptl_crystal_colour            'pale yellow'
_exptl_crystal_description       block
_cell_formula_units_Z            2
_exptl_crystal_recrystallization_method dimethylformamide
loop_
_atom_site_label
_atom_site_type_symbol
_atom_site_fract_x
_atom_site_fract_y
_atom_site_fract_z
N1 N 0.15465(14) -0.02662(16) 0.12957(10)
N2 N 0.25176(13) 0.07200(16) 0.09700(10)
N3 N 0.38276(15) 0.06347(18) -0.16587(11)
C1 C 0.11129(17) -0.01922(19) 0.23468(13)
C2 C -0.01206(18) -0.0853(2) 0.25946(14)
H1 H -0.0679 -0.1354 0.2052
C3 C -0.05421(18) -0.0787(2) 0.36226(13)
H2 H -0.1385 -0.1258 0.3775
C4 C 0.02330(16) -0.00498(19) 0.44478(12)
C5 C 0.14705(17) 0.0593(2) 0.41739(13)
H3 H 0.2032 0.1097 0.4714
C6 C 0.19142(17) 0.0528(2) 0.31513(13)
H4 H 0.2767 0.0976 0.2999
C7 C 0.27096(16) 0.0307(2) -0.00354(13)
C8 C 0.18664(18) -0.0936(2) -0.03587(13)
H5 H 0.1812 -0.1435 -0.1034
C9 C 0.11477(18) -0.1267(2) 0.05052(13)
H6 H 0.0485 -0.2056 0.0549
C10 C 0.37311(16) 0.1103(2) -0.06456(13)
C11 C 0.45627(17) 0.2247(2) -0.01889(14)
H7 H 0.4484 0.2539 0.0535
C12 C 0.55003(18) 0.2954(2) -0.07964(15)
H8 H 0.6068 0.3750 -0.0501
C13 C 0.5606(2) 0.2490(2) -0.18423(16)
H9 H 0.6241 0.2960 -0.2284
C14 C 0.4766(2) 0.1331(2) -0.22204(15)
H10 H 0.4855 0.0997 -0.2934
C4B C -0.02330(16) 0.00498(19) 0.55522(12)
C3B C 0.05421(18) 0.0787(2) 0.63774(13)
C2B C 0.01206(18) 0.0853(2) 0.74054(14)
C1B C -0.11129(17) 0.01922(19) 0.76532(13)
N1B N -0.15465(14) 0.02662(16) 0.87043(10)
N2B N -0.25176(13) -0.07200(16) 0.90300(10)
C7B C -0.27096(16) -0.0307(2) 1.00354(13)
C8B C -0.18664(18) 0.0936(2) 1.03587(13)
H5B H -0.1812 0.1435 1.1034
C9B C -0.11477(18) 0.1267(2) 0.94948(13)
H6B H -0.0485 0.2056 0.9451
C10B C -0.37311(16) -0.1103(2) 1.06456(13)
N3B N -0.38276(15) -0.06347(18) 1.16587(11)
C14B C -0.4766(2) -0.1331(2) 1.22204(15)
C13B C -0.5606(2) -0.2490(2) 1.18423(16)
C12B C -0.55003(18) -0.2954(2) 1.07964(15)
C11B C -0.45627(17) -0.2247(2) 1.01889(14)
H7B H -0.4484 -0.2539 0.9465
H8B H -0.6068 -0.3750 1.0501
H9B H -0.6241 -0.2960 1.2284
H10B H -0.4855 -0.0997 1.2934
C6B C -0.19142(17) -0.0528(2) 0.68487(13)
C5B C -0.14705(17) -0.0593(2) 0.58261(13)
H3B H -0.2032 -0.1097 0.5286
H4B H -0.2767 -0.0976 0.7001
H1B H 0.0679 0.1354 0.7948
H2B H 0.1385 0.1258 0.6225
loop_
_geom_bond_atom_site_label_1
_geom_bond_atom_site_label_2
_geom_bond_site_symmetry_1
_geom_bond_site_symmetry_2
N1 N2 1_555 1_555
N2 C7 1_555 1_555
N3 C10 1_555 1_555
C1 N1 1_555 1_555
C2 C1 1_555 1_555
H1 C2 1_555 1_555
C3 C2 1_555 1_555
H2 C3 1_555 1_555
C4 C3 1_555 1_555
C5 C4 1_555 1_555
H3 C5 1_555 1_555
C6 C1 1_555 1_555
H4 C6 1_555 1_555
C7 C8 1_555 1_555
C8 H5 1_555 1_555
C9 N1 1_555 1_555
H6 C9 1_555 1_555
C10 C7 1_555 1_555
C11 C10 1_555 1_555
H7 C11 1_555 1_555
C12 C11 1_555 1_555
H8 C12 1_555 1_555
C13 C12 1_555 1_555
H9 C13 1_555 1_555
C14 N3 1_555 1_555
H10 C14 1_555 1_555
C4B C4 1_555 1_555
C3B C4B 1_555 1_555
C2B C3B 1_555 1_555
C1B C2B 1_555 1_555
N1B C1B 1_555 1_555
N2B N1B 1_555 1_555
C7B N2B 1_555 1_555
C8B C7B 1_555 1_555
H5B C8B 1_555 1_555
C9B N1B 1_555 1_555
H6B C9B 1_555 1_555
C10B C7B 1_555 1_555
N3B C10B 1_555 1_555
C14B N3B 1_555 1_555
C13B C14B 1_555 1_555
C12B C13B 1_555 1_555
C11B C10B 1_555 1_555
H7B C11B 1_555 1_555
H8B C12B 1_555 1_555
H9B C13B 1_555 1_555
H10B C14B 1_555 1_555
C6B C1B 1_555 1_555
C5B C4B 1_555 1_555
H3B C5B 1_555 1_555
H4B C6B 1_555 1_555
H1B C2B 1_555 1_555
H2B C3B 1_555 1_555
C5 C6 1_555 1_555
C8 C9 1_555 1_555
C13 C14 1_555 1_555
C8B C9B 1_555 1_555
C12B C11B 1_555 1_555
C6B C5B 1_555 1_555

#END
