
#######################################################################
#
#                 Cambridge Crystallographic Data Centre
#                                CCDC 
#
#######################################################################
#
# If this CIF has been generated from an entry in the Cambridge 
# Structural Database, then it will include bibliographic, chemical, 
# crystal, experimental, refinement or atomic coordinate data resulting 
# from the CCDC's data processing and validation procedures.
#
#######################################################################

data_AJEDUO
_chemical_formula_moiety         'C23 H19 N7'
_chemical_name_systematic        
2,6-bis(3-(Pyrid-2-yl)pyrazol-1-ylmethyl)pyridine
_symmetry_cell_setting           monoclinic
_symmetry_space_group_name_H-M   'C 2/c'
_symmetry_Int_Tables_number      15
_space_group_name_Hall           '-C 2yn'
loop_
_symmetry_equiv_pos_site_id
_symmetry_equiv_pos_as_xyz
1 x,y,z
2 1/2+x,1/2+y,z
3 x,-y,1/2+z
4 1/2+x,1/2-y,1/2+z
5 -x,-y,-z
6 1/2-x,1/2-y,-z
7 -x,y,1/2-z
8 1/2-x,1/2+y,1/2-z
_cell_length_a                   28.01(2)
_cell_length_b                   6.702(3)
_cell_length_c                   21.686(11)
_cell_angle_alpha                90
_cell_angle_beta                 107.28(4)
_cell_angle_gamma                90
_cell_volume                     3887.22
_exptl_crystal_colour            colorless
_exptl_crystal_description       block
_cell_formula_units_Z            8
_exptl_crystal_recrystallization_method hexane/dichloromethane
loop_
_atom_site_label
_atom_site_type_symbol
_atom_site_fract_x
_atom_site_fract_y
_atom_site_fract_z
N1 N 0.13269(6) 0.2867(2) 0.45634(8)
N2 N 0.11640(6) 0.1296(2) 0.41642(8)
N3 N 0.02089(7) -0.2113(3) 0.43358(8)
N4 N 0.30626(6) 0.6358(3) 0.71768(8)
N5 N 0.33456(6) 0.8023(3) 0.72131(8)
N6 N 0.37683(7) 1.1069(3) 0.86513(8)
N7 N 0.23033(6) 0.4742(2) 0.55660(7)
C1 C 0.17535(8) 0.4007(3) 0.44909(9)
H1 H 0.1650 0.4736 0.4086
H2 H 0.2016 0.3087 0.4471
C2 C 0.07828(8) 0.0533(3) 0.43478(9)
C3 C 0.07052(8) 0.1642(3) 0.48586(10)
H3 H 0.0465 0.1421 0.5068
C4 C 0.10596(8) 0.3124(3) 0.49837(10)
H4 H 0.1107 0.4112 0.5297
C5 C 0.05369(7) -0.1324(3) 0.40573(9)
C6 C 0.06529(8) -0.2243(4) 0.35453(10)
H5 H 0.0879 -0.1660 0.3360
C7 C 0.04273(9) -0.4034(4) 0.33168(11)
H6 H 0.0501 -0.4679 0.2976
C8 C 0.00907(9) -0.4861(3) 0.35980(11)
H7 H -0.0067 -0.6066 0.3452
C9 C -0.00029(9) -0.3844(4) 0.41002(11)
H8 H -0.0230 -0.4402 0.4289
C10 C 0.29231(8) 0.5156(3) 0.65943(9)
H9 H 0.2818 0.3853 0.6698
H10 H 0.3216 0.4966 0.6450
C11 C 0.33968(8) 0.8762(3) 0.78071(9)
C12 C 0.31476(8) 0.7550(3) 0.81439(10)
H11 H 0.3129 0.7732 0.8561
C13 C 0.29396(8) 0.6052(3) 0.77250(10)
H12 H 0.2747 0.5006 0.7803
C14 C 0.36694(8) 1.0634(3) 0.80183(10)
C15 C 0.38155(8) 1.1872(3) 0.75951(11)
H13 H 0.3742 1.1538 0.7161
C16 C 0.40727(9) 1.3613(4) 0.78272(12)
H14 H 0.4175 1.4462 0.7552
C17 C 0.41741(9) 1.4064(4) 0.84715(12)
H15 H 0.4345 1.5225 0.8641
C18 C 0.40160(9) 1.2756(4) 0.88620(11)
H16 H 0.4086 1.3068 0.9298
C19 C 0.19592(7) 0.5457(3) 0.50366(9)
C20 C 0.18092(8) 0.7425(3) 0.49771(10)
H17 H 0.1571 0.7864 0.4604
C21 C 0.20154(8) 0.8742(3) 0.54754(10)
H18 H 0.1916 1.0072 0.5447
C22 C 0.23725(8) 0.8032(3) 0.60166(10)
H19 H 0.2520 0.8881 0.6359
C23 C 0.25078(8) 0.6043(3) 0.60426(9)
loop_
_geom_bond_atom_site_label_1
_geom_bond_atom_site_label_2
_geom_bond_site_symmetry_1
_geom_bond_site_symmetry_2
N1 N2 1_555 1_555
N2 C2 1_555 1_555
N3 C5 1_555 1_555
N4 N5 1_555 1_555
N5 C11 1_555 1_555
N6 C14 1_555 1_555
N7 C19 1_555 1_555
C1 N1 1_555 1_555
H1 C1 1_555 1_555
H2 C1 1_555 1_555
C2 C3 1_555 1_555
C3 H3 1_555 1_555
C4 N1 1_555 1_555
H4 C4 1_555 1_555
C5 C2 1_555 1_555
C6 C5 1_555 1_555
H5 C6 1_555 1_555
C7 C6 1_555 1_555
H6 C7 1_555 1_555
C8 C7 1_555 1_555
H7 C8 1_555 1_555
C9 N3 1_555 1_555
H8 C9 1_555 1_555
C10 N4 1_555 1_555
H9 C10 1_555 1_555
H10 C10 1_555 1_555
C11 C12 1_555 1_555
C12 H11 1_555 1_555
C13 N4 1_555 1_555
H12 C13 1_555 1_555
C14 C11 1_555 1_555
C15 C14 1_555 1_555
H13 C15 1_555 1_555
C16 C15 1_555 1_555
H14 C16 1_555 1_555
C17 C16 1_555 1_555
H15 C17 1_555 1_555
C18 N6 1_555 1_555
H16 C18 1_555 1_555
C19 C1 1_555 1_555
C20 C19 1_555 1_555
H17 C20 1_555 1_555
C21 C20 1_555 1_555
H18 C21 1_555 1_555
C22 C21 1_555 1_555
H19 C22 1_555 1_555
C23 N7 1_555 1_555
C3 C4 1_555 1_555
C8 C9 1_555 1_555
C10 C23 1_555 1_555
C12 C13 1_555 1_555
C17 C18 1_555 1_555
C22 C23 1_555 1_555

#END
