
#######################################################################
#
#                 Cambridge Crystallographic Data Centre
#                                CCDC 
#
#######################################################################
#
# If this CIF has been generated from an entry in the Cambridge 
# Structural Database, then it will include bibliographic, chemical, 
# crystal, experimental, refinement or atomic coordinate data resulting 
# from the CCDC's data processing and validation procedures.
#
#######################################################################

data_AJEDOI
_chemical_formula_moiety         'C28 H22 N6'
_chemical_name_systematic        
1,8-bis(3-(Pyrid-2-yl)pyrazol-1-ylmethyl)naphthalene
_symmetry_cell_setting           monoclinic
_symmetry_space_group_name_H-M   'P 21'
_symmetry_Int_Tables_number      4
_space_group_name_Hall           'P 2yb'
loop_
_symmetry_equiv_pos_site_id
_symmetry_equiv_pos_as_xyz
1 x,y,z
2 -x,1/2+y,-z
_cell_length_a                   14.753(4)
_cell_length_b                   4.9545(13)
_cell_length_c                   14.853(3)
_cell_angle_alpha                90
_cell_angle_beta                 98.00(3)
_cell_angle_gamma                90
_cell_volume                     1075.1
_exptl_crystal_colour            'pale yellow'
_exptl_crystal_description       needle
_cell_formula_units_Z            2
_exptl_crystal_recrystallization_method hexane/dichloromethane
loop_
_atom_site_label
_atom_site_type_symbol
_atom_site_fract_x
_atom_site_fract_y
_atom_site_fract_z
N1 N 0.15421(14) 0.0396(5) 0.66423(13)
N2 N 0.10765(14) 0.2335(5) 0.70222(13)
N3 N -0.12970(15) 0.3991(5) 0.62825(14)
N4 N 0.39456(14) 0.0566(4) 0.89735(13)
N5 N 0.33604(14) 0.2682(4) 0.88481(13)
N6 N 0.23361(15) 0.5789(5) 1.06707(14)
C1 C 0.25148(16) 0.0113(5) 0.69369(16)
H1 H 0.2696 -0.1723 0.6822
H2 H 0.2636 0.0417 0.7588
C2 C 0.02253(17) 0.2197(6) 0.65637(16)
C3 C 0.01596(18) 0.0205(5) 0.59033(17)
H3 H -0.0358 -0.0274 0.5504
C4 C 0.10160(18) -0.0916(6) 0.59616(17)
H4 H 0.1198 -0.2302 0.5604
C5 C -0.04780(18) 0.4044(6) 0.68105(17)
C6 C -0.02953(19) 0.5788(6) 0.75524(17)
H5 H 0.0272 0.5743 0.7915
C7 C -0.0953(2) 0.7561(6) 0.77437(19)
H6 H -0.0838 0.8742 0.8233
C8 C -0.1796(2) 0.7566(6) 0.7194(2)
H7 H -0.2259 0.8745 0.7302
C9 C -0.19179(19) 0.5757(7) 0.64846(18)
H8 H -0.2481 0.5770 0.6115
C10 C 0.42759(18) -0.0753(6) 0.81969(16)
H9 H 0.3786 -0.1820 0.7870
H10 H 0.4774 -0.1966 0.8417
C11 C 0.31387(17) 0.3206(5) 0.96796(16)
C12 C 0.35849(18) 0.1431(6) 1.03266(17)
H11 H 0.3544 0.1384 1.0946
C13 C 0.40943(18) -0.0223(5) 0.98563(17)
H12 H 0.4472 -0.1625 1.0097
C14 C 0.24668(17) 0.5326(6) 0.98037(17)
C15 C 0.19983(18) 0.6725(6) 0.90718(18)
H13 H 0.2095 0.6320 0.8481
C16 C 0.13846(19) 0.8734(6) 0.92314(19)
H14 H 0.1077 0.9729 0.8753
C17 C 0.12403(19) 0.9226(6) 1.01140(19)
H15 H 0.0826 1.0535 1.0244
C18 C 0.1727(2) 0.7725(6) 1.07963(19)
H16 H 0.1628 0.8077 1.1390
C19 C 0.46058(18) 0.1282(5) 0.75541(17)
C20 C 0.55248(18) 0.1956(6) 0.77544(18)
H17 H 0.5872 0.1112 0.8245
C21 C 0.59510(19) 0.3821(7) 0.72608(18)
H18 H 0.6569 0.4213 0.7423
C22 C 0.45197(19) 0.4462(5) 0.62780(18)
C23 C 0.54634(19) 0.5070(6) 0.65395(19)
H19 H 0.5748 0.6339 0.6212
C24 C 0.40428(19) 0.5786(6) 0.55005(17)
H20 H 0.4349 0.7035 0.5186
C25 C 0.3151(2) 0.5247(6) 0.52157(19)
H21 H 0.2847 0.6101 0.4703
C26 C 0.26860(19) 0.3381(5) 0.57013(16)
H22 H 0.2073 0.3029 0.5497
C27 C 0.40603(17) 0.2542(6) 0.67842(16)
C28 C 0.30971(17) 0.2055(5) 0.64642(16)
loop_
_geom_bond_atom_site_label_1
_geom_bond_atom_site_label_2
_geom_bond_site_symmetry_1
_geom_bond_site_symmetry_2
N1 N2 1_555 1_555
N2 C2 1_555 1_555
N3 C5 1_555 1_555
N4 N5 1_555 1_555
N5 C11 1_555 1_555
N6 C14 1_555 1_555
C1 N1 1_555 1_555
H1 C1 1_555 1_555
H2 C1 1_555 1_555
C2 C3 1_555 1_555
C3 H3 1_555 1_555
C4 N1 1_555 1_555
H4 C4 1_555 1_555
C5 C2 1_555 1_555
C6 C5 1_555 1_555
H5 C6 1_555 1_555
C7 C6 1_555 1_555
H6 C7 1_555 1_555
C8 C7 1_555 1_555
H7 C8 1_555 1_555
C9 N3 1_555 1_555
H8 C9 1_555 1_555
C10 N4 1_555 1_555
H9 C10 1_555 1_555
H10 C10 1_555 1_555
C11 C12 1_555 1_555
C12 H11 1_555 1_555
C13 N4 1_555 1_555
H12 C13 1_555 1_555
C14 C11 1_555 1_555
C15 C14 1_555 1_555
H13 C15 1_555 1_555
C16 C15 1_555 1_555
H14 C16 1_555 1_555
C17 C16 1_555 1_555
H15 C17 1_555 1_555
C18 N6 1_555 1_555
H16 C18 1_555 1_555
C19 C10 1_555 1_555
C20 C19 1_555 1_555
H17 C20 1_555 1_555
C21 C20 1_555 1_555
H18 C21 1_555 1_555
C22 C23 1_555 1_555
C23 C21 1_555 1_555
H19 C23 1_555 1_555
C24 C22 1_555 1_555
H20 C24 1_555 1_555
C25 C24 1_555 1_555
H21 C25 1_555 1_555
C26 C25 1_555 1_555
H22 C26 1_555 1_555
C27 C19 1_555 1_555
C28 C1 1_555 1_555
C3 C4 1_555 1_555
C8 C9 1_555 1_555
C12 C13 1_555 1_555
C17 C18 1_555 1_555
C22 C27 1_555 1_555
C26 C28 1_555 1_555
C27 C28 1_555 1_555

#END
