
#######################################################################
#
#                 Cambridge Crystallographic Data Centre
#                                CCDC 
#
#######################################################################
#
# If this CIF has been generated from an entry in the Cambridge 
# Structural Database, then it will include bibliographic, chemical, 
# crystal, experimental, refinement or atomic coordinate data resulting 
# from the CCDC's data processing and validation procedures.
#
#######################################################################

data_AJEDEY
_chemical_formula_moiety         'C36 H28 N6'
_chemical_name_systematic        
3,3''-bis(3-(Pyrid-2-yl)pyrazol-1-ylmethyl)-p-terphenyl
_symmetry_cell_setting           monoclinic
_symmetry_space_group_name_H-M   'P 21/c'
_symmetry_Int_Tables_number      14
_space_group_name_Hall           '-P 2ybc'
loop_
_symmetry_equiv_pos_site_id
_symmetry_equiv_pos_as_xyz
1 x,y,z
2 x,1/2-y,1/2+z
3 -x,-y,-z
4 -x,1/2+y,1/2-z
_cell_length_a                   36.746(18)
_cell_length_b                   5.611(3)
_cell_length_c                   13.618(7)
_cell_angle_alpha                90
_cell_angle_beta                 100.65(4)
_cell_angle_gamma                90
_cell_volume                     2759.42
_exptl_crystal_colour            colorless
_exptl_crystal_description       block
_cell_formula_units_Z            4
_exptl_crystal_recrystallization_method acetone/chloroform
loop_
_atom_site_label
_atom_site_type_symbol
_atom_site_fract_x
_atom_site_fract_y
_atom_site_fract_z
N1 N -0.14013(5) 1.0368(3) -0.41001(15)
N2 N -0.16217(5) 0.9136(3) -0.48424(15)
N3 N -0.18576(5) 1.1375(4) -0.73691(16)
C1 C -0.13052(6) 0.9384(4) -0.31045(18)
H1 H -0.1526 0.8575 -0.2940
H2 H -0.1240 1.0710 -0.2624
C2 C -0.16515(6) 1.0562(4) -0.56356(18)
C3 C -0.14499(7) 1.2696(4) -0.5406(2)
H3 H -0.1427 1.3986 -0.5842
C4 C -0.12976(7) 1.2495(4) -0.4427(2)
H4 H -0.1145 1.3644 -0.4037
C5 C -0.18710(6) 0.9866(4) -0.66093(18)
C6 C -0.20767(7) 0.7749(5) -0.6736(2)
H5 H -0.2083 0.6707 -0.6189
C7 C -0.22708(7) 0.7224(5) -0.7681(2)
H6 H -0.2412 0.5799 -0.7793
C8 C -0.22591(7) 0.8752(5) -0.8452(2)
H7 H -0.2392 0.8407 -0.9104
C9 C -0.20527(7) 1.0797(5) -0.8271(2)
H8 H -0.2048 1.1858 -0.8812
C10 C -0.09872(6) 0.7632(4) -0.29650(19)
C11 C -0.09394(6) 0.6153(5) -0.21350(19)
H9 H -0.1100 0.6311 -0.1665
C12 C -0.06613(7) 0.4448(6) -0.1980(2)
H10 H -0.0631 0.3446 -0.1409
C13 C -0.04259(7) 0.4217(5) -0.26725(19)
H11 H -0.0237 0.3041 -0.2571
C14 C -0.04653(6) 0.5692(4) -0.35103(17)
C15 C -0.07467(6) 0.7423(4) -0.36415(19)
H12 H -0.0774 0.8466 -0.4200
C16 C -0.02244(6) 0.5338(4) -0.42719(17)
C18 C -0.03522(13) 0.5901(8) -0.5262(4)
H14 H -0.0597 0.6505 -0.5454
C21 C 0.01361(12) 0.4387(8) -0.4020(4)
H17 H 0.0231 0.3940 -0.3348
C21B C -0.01361(12) 0.5613(8) -0.5980(4)
C16B C 0.02244(6) 0.4662(4) -0.57281(17)
C14B C 0.04653(6) 0.4308(4) -0.64897(17)
C13B C 0.04259(7) 0.5783(5) -0.73275(19)
C12B C 0.06613(7) 0.5552(6) -0.8020(2)
C11B C 0.09394(6) 0.3847(5) -0.78650(19)
C10B C 0.09872(6) 0.2368(4) -0.70350(19)
C1B C 0.13052(6) 0.0616(4) -0.68955(18)
N1B N 0.14013(5) -0.0368(3) -0.58999(15)
N2B N 0.16217(5) 0.0864(3) -0.51576(15)
C2B C 0.16515(6) -0.0562(4) -0.43644(18)
C3B C 0.14499(7) -0.2696(4) -0.4594(2)
H3B H 0.1427 -0.3986 -0.4158
C4B C 0.12976(7) -0.2495(4) -0.5573(2)
H4B H 0.1145 -0.3644 -0.5963
C5B C 0.18710(6) 0.0134(4) -0.33907(18)
N3B N 0.18576(5) -0.1375(4) -0.26309(16)
C9B C 0.20527(7) -0.0797(5) -0.1729(2)
C8B C 0.22591(7) 0.1248(5) -0.1548(2)
C7B C 0.22708(7) 0.2776(5) -0.2319(2)
C6B C 0.20767(7) 0.2251(5) -0.3264(2)
H5B H 0.2083 0.3293 -0.3811
H6B H 0.2412 0.4201 -0.2207
H7B H 0.2392 0.1593 -0.0896
H8B H 0.2048 -0.1858 -0.1188
H1B H 0.1526 0.1425 -0.7060
H2B H 0.1240 -0.0710 -0.7376
C15B C 0.07467(6) 0.2577(4) -0.63585(19)
H12B H 0.0774 0.1534 -0.5800
H9B H 0.1100 0.3689 -0.8335
H10B H 0.0631 0.6554 -0.8591
H11B H 0.0237 0.6959 -0.7429
C18B C 0.03522(13) 0.4099(8) -0.4738(4)
H14B H 0.0597 0.3495 -0.4546
H17B H -0.0231 0.6060 -0.6652
N4 N 0.36030(5) 1.0439(3) -0.22416(15)
N5 N 0.33997(5) 0.9026(3) -0.17494(15)
N6 N 0.31456(6) 1.0751(4) 0.06000(16)
C17 C 0.49000(13) 0.7299(9) -0.0303(4)
H13 H 0.4831 0.8881 -0.0505
C22 C 0.48802(13) 0.3094(9) -0.0615(4)
H18 H 0.4798 0.1768 -0.1031
C25 C 0.37154(7) 0.9595(4) -0.31557(18)
H21 H 0.3797 1.0982 -0.3508
H22 H 0.3496 0.8901 -0.3596
C26 C 0.33569(6) 1.0316(4) -0.09482(17)
C27 C 0.35333(7) 1.2528(4) -0.0934(2)
H23 H 0.3544 1.3754 -0.0449
C28 C 0.36886(7) 1.2536(4) -0.1782(2)
H24 H 0.3829 1.3785 -0.1999
C29 C 0.31373(6) 0.9409(4) -0.02191(18)
C30 C 0.29393(7) 0.7313(4) -0.03811(19)
H25 H 0.2943 0.6396 -0.0965
C31 C 0.27335(7) 0.6560(5) 0.0324(2)
H26 H 0.2590 0.5141 0.0222
C32 C 0.27414(7) 0.7919(5) 0.1175(2)
H27 H 0.2607 0.7449 0.1676
C33 C 0.29522(7) 0.9993(5) 0.1275(2)
H28 H 0.2959 1.0926 0.1860
C34 C 0.40212(6) 0.7765(4) -0.30021(19)
C35 C 0.40645(6) 0.6300(5) -0.37839(18)
H29 H 0.3904 0.6470 -0.4412
C36 C 0.43396(7) 0.4584(6) -0.36626(19)
H30 H 0.4369 0.3602 -0.4211
C37 C 0.45727(7) 0.4288(5) -0.27462(19)
H31 H 0.4758 0.3088 -0.2665
C38 C 0.45350(6) 0.5757(4) -0.19408(17)
C39 C 0.42632(6) 0.7509(4) -0.20781(18)
H32 H 0.4240 0.8547 -0.1542
C40 C 0.47747(6) 0.5375(4) -0.09506(17)
C22B C 0.51198(13) 0.6906(9) 0.0615(4)
H18B H 0.5202 0.8232 0.1031
C40B C 0.52253(6) 0.4625(4) 0.09506(17)
C17B C 0.51000(13) 0.2701(9) 0.0303(4)
H13B H 0.5169 0.1119 0.0505
C38B C 0.54650(6) 0.4243(4) 0.19408(17)
C37B C 0.54273(7) 0.5712(5) 0.27462(19)
C36B C 0.56604(7) 0.5416(6) 0.36626(19)
C35B C 0.59355(6) 0.3700(5) 0.37839(18)
C34B C 0.59788(6) 0.2235(4) 0.30021(19)
C25B C 0.62846(7) 0.0405(4) 0.31557(18)
N4B N 0.63970(5) -0.0439(3) 0.22416(15)
N5B N 0.66003(5) 0.0974(3) 0.17494(15)
C26B C 0.66431(6) -0.0316(4) 0.09482(17)
C27B C 0.64667(7) -0.2528(4) 0.0934(2)
H23B H 0.6456 -0.3754 0.0449
C28B C 0.63114(7) -0.2536(4) 0.1782(2)
H24B H 0.6171 -0.3785 0.1999
C29B C 0.68627(6) 0.0591(4) 0.02191(18)
N6B N 0.68544(6) -0.0751(4) -0.06000(16)
C33B C 0.70478(7) 0.0007(5) -0.1275(2)
C32B C 0.72586(7) 0.2081(5) -0.1175(2)
C31B C 0.72665(7) 0.3440(5) -0.0324(2)
C30B C 0.70607(7) 0.2687(4) 0.03811(19)
H25B H 0.7057 0.3604 0.0965
H26B H 0.7410 0.4859 -0.0222
H27B H 0.7393 0.2551 -0.1676
H28B H 0.7041 -0.0926 -0.1860
H21B H 0.6203 -0.0982 0.3508
H22B H 0.6504 0.1099 0.3596
C39B C 0.57368(6) 0.2491(4) 0.20781(18)
H32B H 0.5760 0.1453 0.1542
H29B H 0.6096 0.3530 0.4412
H30B H 0.5631 0.6398 0.4211
H31B H 0.5242 0.6912 0.2665
C19? C 0.46450(12) 0.5887(8) -0.0070(3)
H15? H 0.4400 0.6481 -0.0112
C20? C -0.01105(13) 0.7274(9) -0.4798(4)
H16? H -0.0189 0.8840 -0.4672
C23? C 0.51355(12) 0.4452(8) -0.0858(3)
H19? H 0.5229 0.4057 -0.1442
C24? C -0.01142(13) 0.3078(10) -0.4503(4)
H20? H -0.0195 0.1738 -0.4174
loop_
_geom_bond_atom_site_label_1
_geom_bond_atom_site_label_2
_geom_bond_site_symmetry_1
_geom_bond_site_symmetry_2
N1 N2 1_555 1_555
N2 C2 1_555 1_555
N3 C5 1_555 1_555
N4 N5 1_555 1_555
N5 C26 1_555 1_555
N6 C29 1_555 1_555
C1 N1 1_555 1_555
H1 C1 1_555 1_555
H2 C1 1_555 1_555
C2 C3 1_555 1_555
C3 H3 1_555 1_555
C4 N1 1_555 1_555
H4 C4 1_555 1_555
C5 C2 1_555 1_555
C6 C5 1_555 1_555
H5 C6 1_555 1_555
C7 C6 1_555 1_555
H6 C7 1_555 1_555
C8 C7 1_555 1_555
H7 C8 1_555 1_555
C9 N3 1_555 1_555
H8 C9 1_555 1_555
C10 C1 1_555 1_555
C11 C10 1_555 1_555
H9 C11 1_555 1_555
C12 C11 1_555 1_555
H10 C12 1_555 1_555
C13 C12 1_555 1_555
H11 C13 1_555 1_555
C14 C13 1_555 1_555
C15 C10 1_555 1_555
H12 C15 1_555 1_555
C16 C14 1_555 1_555
C17 H13 1_555 1_555
C18 C16 1_555 1_555
H14 C18 1_555 1_555
C21 C16 1_555 1_555
H17 C21 1_555 1_555
C22 H18 1_555 1_555
C25 N4 1_555 1_555
H21 C25 1_555 1_555
H22 C25 1_555 1_555
C26 C27 1_555 1_555
C27 H23 1_555 1_555
C28 N4 1_555 1_555
H24 C28 1_555 1_555
C29 C26 1_555 1_555
C30 C29 1_555 1_555
H25 C30 1_555 1_555
C31 C30 1_555 1_555
H26 C31 1_555 1_555
C32 C31 1_555 1_555
H27 C32 1_555 1_555
C33 N6 1_555 1_555
H28 C33 1_555 1_555
C34 C25 1_555 1_555
C35 C34 1_555 1_555
H29 C35 1_555 1_555
C36 C35 1_555 1_555
H30 C36 1_555 1_555
C37 C36 1_555 1_555
H31 C37 1_555 1_555
C38 C37 1_555 1_555
C39 C34 1_555 1_555
H32 C39 1_555 1_555
C40 C17 1_555 1_555
C21B C18 1_555 1_555
C16B C21B 1_555 1_555
C14B C16B 1_555 1_555
C13B C14B 1_555 1_555
C12B C13B 1_555 1_555
C11B C12B 1_555 1_555
C10B C11B 1_555 1_555
C1B C10B 1_555 1_555
N1B C1B 1_555 1_555
N2B N1B 1_555 1_555
C2B N2B 1_555 1_555
C3B C2B 1_555 1_555
H3B C3B 1_555 1_555
C4B N1B 1_555 1_555
H4B C4B 1_555 1_555
C5B C2B 1_555 1_555
N3B C5B 1_555 1_555
C9B N3B 1_555 1_555
C8B C9B 1_555 1_555
C7B C8B 1_555 1_555
C6B C5B 1_555 1_555
H5B C6B 1_555 1_555
H6B C7B 1_555 1_555
H7B C8B 1_555 1_555
H8B C9B 1_555 1_555
H1B C1B 1_555 1_555
H2B C1B 1_555 1_555
C15B C14B 1_555 1_555
H12B C15B 1_555 1_555
H9B C11B 1_555 1_555
H10B C12B 1_555 1_555
H11B C13B 1_555 1_555
C18B C21 1_555 1_555
H14B C18B 1_555 1_555
H17B C21B 1_555 1_555
C22B C17 1_555 1_555
H18B C22B 1_555 1_555
C40B C22B 1_555 1_555
C17B C22 1_555 1_555
H13B C17B 1_555 1_555
C38B C40B 1_555 1_555
C37B C38B 1_555 1_555
C36B C37B 1_555 1_555
C35B C36B 1_555 1_555
C34B C35B 1_555 1_555
C25B C34B 1_555 1_555
N4B C25B 1_555 1_555
N5B N4B 1_555 1_555
C26B N5B 1_555 1_555
C27B C26B 1_555 1_555
H23B C27B 1_555 1_555
C28B N4B 1_555 1_555
H24B C28B 1_555 1_555
C29B C26B 1_555 1_555
N6B C29B 1_555 1_555
C33B N6B 1_555 1_555
C32B C33B 1_555 1_555
C31B C32B 1_555 1_555
C30B C29B 1_555 1_555
H25B C30B 1_555 1_555
H26B C31B 1_555 1_555
H27B C32B 1_555 1_555
H28B C33B 1_555 1_555
H21B C25B 1_555 1_555
H22B C25B 1_555 1_555
C39B C38B 1_555 1_555
H32B C39B 1_555 1_555
H29B C35B 1_555 1_555
H30B C36B 1_555 1_555
H31B C37B 1_555 1_555
C3 C4 1_555 1_555
C8 C9 1_555 1_555
C14 C15 1_555 1_555
C22 C40 1_555 1_555
C27 C28 1_555 1_555
C32 C33 1_555 1_555
C38 C39 1_555 1_555
C38 C40 1_555 1_555
C16B C18B 1_555 1_555
C10B C15B 1_555 1_555
C3B C4B 1_555 1_555
C7B C6B 1_555 1_555
C40B C17B 1_555 1_555
C34B C39B 1_555 1_555
C27B C28B 1_555 1_555
C31B C30B 1_555 1_555

#END
