
#######################################################################
#
#                 Cambridge Crystallographic Data Centre
#                                CCDC 
#
#######################################################################
#
# If this CIF has been generated from an entry in the Cambridge 
# Structural Database, then it will include bibliographic, chemical, 
# crystal, experimental, refinement or atomic coordinate data resulting 
# from the CCDC's data processing and validation procedures.
#
#######################################################################

data_AJEFAW
_chemical_formula_moiety         'C36 H33 N9'
_chemical_name_systematic        
1,3,5-Trimethyl-2,4,6-tris(3-(pyrid-2-yl)pyrazol-1-ylmethyl)benzene
_symmetry_cell_setting           monoclinic
_symmetry_space_group_name_H-M   'P 21/c'
_symmetry_Int_Tables_number      14
_space_group_name_Hall           '-P 2ybc'
loop_
_symmetry_equiv_pos_site_id
_symmetry_equiv_pos_as_xyz
1 x,y,z
2 x,1/2-y,1/2+z
3 -x,-y,-z
4 -x,1/2+y,1/2-z
_cell_length_a                   11.700(3)
_cell_length_b                   23.730(5)
_cell_length_c                   10.977(4)
_cell_angle_alpha                90
_cell_angle_beta                 95.61(3)
_cell_angle_gamma                90
_cell_volume                     3033.07
_exptl_crystal_colour            colorless
_exptl_crystal_description       plates
_cell_formula_units_Z            4
_exptl_crystal_recrystallization_method pentane/dichloromethane
loop_
_atom_site_label
_atom_site_type_symbol
_atom_site_fract_x
_atom_site_fract_y
_atom_site_fract_z
N1 N 0.0797(2) 0.60092(13) 0.3495(3)
N2 N 0.1828(2) 0.62325(12) 0.3892(3)
N3 N 0.4067(3) 0.54735(14) 0.5726(3)
N4 N -0.0377(3) 0.58973(12) -0.2209(3)
N5 N -0.1230(3) 0.62689(12) -0.2526(3)
N6 N -0.0968(3) 0.73649(15) -0.4767(3)
N7 N -0.4593(2) 0.57235(12) 0.1336(3)
N8 N -0.4936(3) 0.59768(13) 0.0257(3)
N9 N -0.7209(3) 0.70163(13) -0.0061(3)
C1 C -0.0055(3) 0.63598(15) 0.2779(3)
H1 H 0.0337 0.6655 0.2372
H2 H -0.0548 0.6538 0.3327
C2 C 0.2388(3) 0.58113(15) 0.4530(3)
C3 C 0.1708(3) 0.53263(16) 0.4531(3)
H3 H 0.1899 0.4981 0.4897
C4 C 0.0699(3) 0.54738(16) 0.3875(3)
H4 H 0.0057 0.5244 0.3719
C5 C 0.3572(3) 0.59019(16) 0.5089(3)
C6 C 0.5170(3) 0.55448(18) 0.6176(4)
H5 H 0.5530 0.5251 0.6624
C7 C 0.5793(3) 0.60203(19) 0.6016(4)
H6 H 0.6559 0.6043 0.6332
C8 C 0.5272(3) 0.64644(18) 0.5380(4)
H7 H 0.5669 0.6798 0.5274
C9 C 0.4144(3) 0.64032(17) 0.4902(4)
H8 H 0.3769 0.6695 0.4459
C10 C -0.0538(3) 0.54361(15) -0.1371(3)
H9 H 0.0197 0.5254 -0.1160
H10 H -0.1046 0.5160 -0.1791
C11 C -0.0791(3) 0.66091(16) -0.3348(3)
C12 C 0.0312(4) 0.64421(18) -0.3563(4)
H11 H 0.0781 0.6604 -0.4103
C13 C 0.0559(4) 0.59944(18) -0.2821(4)
H12 H 0.1242 0.5791 -0.2743
C14 C -0.1444(4) 0.70989(17) -0.3850(4)
C15 C -0.1534(6) 0.7815(2) -0.5251(5)
H13 H -0.1227 0.8001 -0.5889
C16 C -0.2537(6) 0.8020(2) -0.4868(5)
H14 H -0.2896 0.8332 -0.5247
C17 C -0.2999(4) 0.77567(19) -0.3924(5)
H15 H -0.3669 0.7890 -0.3633
C18 C -0.2436(4) 0.72817(17) -0.3407(4)
H16 H -0.2731 0.7091 -0.2767
C19 C -0.3701(3) 0.52896(15) 0.1409(3)
H17 H -0.3923 0.4995 0.0821
H18 H -0.3636 0.5123 0.2219
C20 C -0.5762(3) 0.63405(15) 0.0530(4)
C21 C -0.5940(3) 0.63100(16) 0.1757(4)
H19 H -0.6462 0.6515 0.2165
C22 C -0.5181(3) 0.59126(16) 0.2239(4)
H20 H -0.5089 0.5794 0.3050
C23 C -0.6349(3) 0.67026(16) -0.0421(4)
C24 C -0.7785(4) 0.73471(17) -0.0904(4)
H21 H -0.8399 0.7557 -0.0669
C25 C -0.7523(4) 0.73932(17) -0.2082(4)
H22 H -0.7948 0.7627 -0.2636
C26 C -0.6616(5) 0.7086(2) -0.2432(4)
H23 H -0.6399 0.7117 -0.3222
C27 C -0.6028(4) 0.6729(2) -0.1591(4)
H24 H -0.5423 0.6510 -0.1815
C28 C -0.0786(3) 0.60199(14) 0.1830(3)
C29 C -0.0344(3) 0.58993(14) 0.0715(3)
C30 C 0.0841(3) 0.60953(18) 0.0499(4)
H25 H 0.1012 0.5979 -0.0301
H26 H 0.1392 0.5933 0.1105
H27 H 0.0877 0.6499 0.0555
C31 C -0.1031(3) 0.56073(15) -0.0197(3)
C32 C -0.2147(3) 0.54380(14) 0.0004(3)
C33 C -0.2946(3) 0.51771(16) -0.1015(3)
H28 H -0.2556 0.5147 -0.1741
H29 H -0.3614 0.5410 -0.1178
H30 H -0.3175 0.4809 -0.0770
C34 C -0.2543(3) 0.55242(14) 0.1153(3)
C35 C -0.1865(3) 0.58182(14) 0.2081(3)
C36 C -0.2313(3) 0.59433(17) 0.3289(3)
H31 H -0.1740 0.6145 0.3803
H32 H -0.2490 0.5596 0.3679
H33 H -0.2995 0.6169 0.3156
loop_
_geom_bond_atom_site_label_1
_geom_bond_atom_site_label_2
_geom_bond_site_symmetry_1
_geom_bond_site_symmetry_2
N1 N2 1_555 1_555
N2 C2 1_555 1_555
N3 C5 1_555 1_555
N4 N5 1_555 1_555
N5 C11 1_555 1_555
N6 C14 1_555 1_555
N7 N8 1_555 1_555
N8 C20 1_555 1_555
N9 C23 1_555 1_555
C1 N1 1_555 1_555
H1 C1 1_555 1_555
H2 C1 1_555 1_555
C2 C3 1_555 1_555
C3 H3 1_555 1_555
C4 N1 1_555 1_555
H4 C4 1_555 1_555
C5 C2 1_555 1_555
C6 N3 1_555 1_555
H5 C6 1_555 1_555
C7 C6 1_555 1_555
H6 C7 1_555 1_555
C8 C7 1_555 1_555
H7 C8 1_555 1_555
C9 C5 1_555 1_555
H8 C9 1_555 1_555
C10 N4 1_555 1_555
H9 C10 1_555 1_555
H10 C10 1_555 1_555
C11 C12 1_555 1_555
C12 H11 1_555 1_555
C13 N4 1_555 1_555
H12 C13 1_555 1_555
C14 C11 1_555 1_555
C15 N6 1_555 1_555
H13 C15 1_555 1_555
C16 C15 1_555 1_555
H14 C16 1_555 1_555
C17 C16 1_555 1_555
H15 C17 1_555 1_555
C18 C14 1_555 1_555
H16 C18 1_555 1_555
C19 N7 1_555 1_555
H17 C19 1_555 1_555
H18 C19 1_555 1_555
C20 C21 1_555 1_555
C21 H19 1_555 1_555
C22 N7 1_555 1_555
H20 C22 1_555 1_555
C23 C20 1_555 1_555
C24 N9 1_555 1_555
H21 C24 1_555 1_555
C25 C24 1_555 1_555
H22 C25 1_555 1_555
C26 C25 1_555 1_555
H23 C26 1_555 1_555
C27 C23 1_555 1_555
H24 C27 1_555 1_555
C28 C1 1_555 1_555
C29 C28 1_555 1_555
C30 C29 1_555 1_555
H25 C30 1_555 1_555
H26 C30 1_555 1_555
H27 C30 1_555 1_555
C31 C10 1_555 1_555
C32 C31 1_555 1_555
C33 C32 1_555 1_555
H28 C33 1_555 1_555
H29 C33 1_555 1_555
H30 C33 1_555 1_555
C34 C19 1_555 1_555
C35 C28 1_555 1_555
C36 C35 1_555 1_555
H31 C36 1_555 1_555
H32 C36 1_555 1_555
H33 C36 1_555 1_555
C3 C4 1_555 1_555
C8 C9 1_555 1_555
C12 C13 1_555 1_555
C17 C18 1_555 1_555
C21 C22 1_555 1_555
C26 C27 1_555 1_555
C29 C31 1_555 1_555
C32 C34 1_555 1_555
C34 C35 1_555 1_555

#END
