
#######################################################################
#
#                 Cambridge Crystallographic Data Centre
#                                CCDC 
#
#######################################################################
#
# If this CIF has been generated from an entry in the Cambridge 
# Structural Database, then it will include bibliographic, chemical, 
# crystal, experimental, refinement or atomic coordinate data resulting 
# from the CCDC's data processing and validation procedures.
#
#######################################################################

data_AJELAC
_chemical_formula_moiety         'C12 H12 O5'
_chemical_name_systematic        
7,7-bis(Methoxycarbonyl)-bicyclo[3.3.0]octa-1,5-dien-3-one
_symmetry_cell_setting           triclinic
_symmetry_space_group_name_H-M   'P -1'
_symmetry_Int_Tables_number      2
_space_group_name_Hall           '-P 1'
loop_
_symmetry_equiv_pos_site_id
_symmetry_equiv_pos_as_xyz
1 x,y,z
2 -x,-y,-z
_cell_length_a                   5.70010(10)
_cell_length_b                   9.0939(3)
_cell_length_c                   11.3003(4)
_cell_angle_alpha                77.7220(13)
_cell_angle_beta                 75.5740(13)
_cell_angle_gamma                82.5810(19)
_cell_volume                     552.522
_exptl_crystal_colour            colorless
_exptl_crystal_description       needle
_chemical_melting_point          78-80deg.C
_cell_formula_units_Z            2
loop_
_atom_site_label
_atom_site_type_symbol
_atom_site_fract_x
_atom_site_fract_y
_atom_site_fract_z
C1 C 0.1782(4) 0.7234(2) 0.20137(19)
C2 C 0.3168(4) 0.8052(2) 0.07620(19)
H1 H 0.468(5) 0.849(3) 0.070(2)
C3 C 0.2121(4) 0.7948(2) -0.0152(2)
C4 C -0.0058(4) 0.7131(2) 0.0342(2)
C5 C -0.0562(4) 0.6802(3) 0.1735(2)
H2 H -0.193(5) 0.741(3) 0.209(3)
H3 H -0.088(4) 0.576(3) 0.209(2)
C6 C 0.2582(4) 0.8293(3) -0.1537(2)
H4 H 0.244(5) 0.939(3) -0.193(3)
H5 H 0.417(5) 0.790(3) -0.195(2)
C7 C 0.0557(4) 0.7512(2) -0.1778(2)
C8 C -0.0987(4) 0.6865(3) -0.0569(2)
H6 H -0.235(6) 0.634(4) -0.048(3)
C9 C 0.3230(4) 0.5770(2) 0.24660(19)
C10 C 0.3547(5) 0.3888(3) 0.4235(2)
H7 H 0.303(5) 0.378(3) 0.509(3)
H8 H 0.289(6) 0.300(4) 0.402(3)
H9 H 0.530(6) 0.377(4) 0.403(3)
C11 C 0.1259(4) 0.8227(2) 0.29959(19)
C12 C 0.3137(4) 0.9428(3) 0.4137(2)
H10 H 0.228(5) 0.889(3) 0.495(3)
H11 H 0.479(5) 0.960(3) 0.414(2)
H12 H 0.217(5) 1.038(3) 0.394(3)
O1 O 0.0319(3) 0.7432(2) -0.28094(15)
O2 O 0.2479(3) 0.53316(17) 0.36940(14)
O3 O 0.4746(3) 0.50812(17) 0.17970(15)
O4 O 0.3354(3) 0.85639(17) 0.31650(14)
O5 O -0.0726(3) 0.86641(17) 0.35330(14)
loop_
_geom_bond_atom_site_label_1
_geom_bond_atom_site_label_2
_geom_bond_site_symmetry_1
_geom_bond_site_symmetry_2
C1 C2 1_555 1_555
C2 H1 1_555 1_555
C3 C2 1_555 1_555
C4 C3 1_555 1_555
C5 C1 1_555 1_555
H2 C5 1_555 1_555
H3 C5 1_555 1_555
C6 C3 1_555 1_555
H4 C6 1_555 1_555
H5 C6 1_555 1_555
C7 C6 1_555 1_555
C8 C4 1_555 1_555
H6 C8 1_555 1_555
C9 C1 1_555 1_555
C10 H7 1_555 1_555
H8 C10 1_555 1_555
H9 C10 1_555 1_555
C11 C1 1_555 1_555
C12 H10 1_555 1_555
H11 C12 1_555 1_555
H12 C12 1_555 1_555
O1 C7 1_555 1_555
O2 C9 1_555 1_555
O3 C9 1_555 1_555
O4 C11 1_555 1_555
O5 C11 1_555 1_555
C4 C5 1_555 1_555
C7 C8 1_555 1_555
C10 O2 1_555 1_555
C12 O4 1_555 1_555

#END
