
#######################################################################
#
#                 Cambridge Crystallographic Data Centre
#                                CCDC 
#
#######################################################################
#
# If this CIF has been generated from an entry in the Cambridge 
# Structural Database, then it will include bibliographic, chemical, 
# crystal, experimental, refinement or atomic coordinate data resulting 
# from the CCDC's data processing and validation procedures.
#
#######################################################################

data_AJETIT
_chemical_formula_moiety         'C25 H22 O2'
_chemical_name_systematic        
9,9-Dimethyl-12-phenyl-8,9-dihydro-12H-benzo[a]xanthen-11(10H)-one
_symmetry_cell_setting           triclinic
_symmetry_space_group_name_H-M   'P -1'
_symmetry_Int_Tables_number      2
_space_group_name_Hall           '-P 1'
loop_
_symmetry_equiv_pos_site_id
_symmetry_equiv_pos_as_xyz
1 x,y,z
2 -x,-y,-z
_cell_length_a                   9.1881(18)
_cell_length_b                   9.2317(18)
_cell_length_c                   12.866(3)
_cell_angle_alpha                72.78(3)
_cell_angle_beta                 80.82(3)
_cell_angle_gamma                62.17(2)
_cell_volume                     921.538
_exptl_crystal_colour            colorless
_exptl_crystal_description       prism
_cell_formula_units_Z            2
_exptl_crystal_recrystallization_method ethanol
loop_
_atom_site_label
_atom_site_type_symbol
_atom_site_fract_x
_atom_site_fract_y
_atom_site_fract_z
O1 O 0.80464(10) 0.56824(10) 0.17827(6)
O2 O 1.16069(10) 0.04959(11) 0.40301(7)
C1 C 0.66568(14) 0.56096(15) 0.23792(9)
C2 C 0.51931(15) 0.71327(15) 0.21330(10)
H1 H 0.5195 0.8081 0.1582
C3 C 0.37777(14) 0.72247(16) 0.26954(10)
H2 H 0.2786 0.8242 0.2530
C4 C 0.37678(14) 0.58228(16) 0.35227(10)
C5 C 0.23201(15) 0.59156(17) 0.41469(10)
H3 H 0.1328 0.6938 0.4003
C6 C 0.23318(15) 0.45569(18) 0.49505(10)
H4 H 0.1352 0.4639 0.5361
C7 C 0.37922(15) 0.30371(17) 0.51717(10)
H5 H 0.3792 0.2096 0.5731
C8 C 0.52136(14) 0.28998(16) 0.45884(9)
H6 H 0.6188 0.1862 0.4748
C9 C 0.52538(14) 0.42815(15) 0.37510(9)
C10 C 0.67273(13) 0.41870(14) 0.31377(9)
C11 C 0.83294(13) 0.25608(14) 0.32854(9)
H7 H 0.8452 0.1939 0.4073
C12 C 0.97420(13) 0.30107(15) 0.29088(9)
C13 C 1.13999(14) 0.17861(16) 0.33168(9)
C14 C 1.28077(15) 0.22110(17) 0.28404(10)
H8 H 1.3836 0.1144 0.2888
H9 H 1.2938 0.2853 0.3284
C15 C 1.25745(14) 0.32512(16) 0.16526(9)
C16 C 1.09217(14) 0.48479(15) 0.15974(10)
H10 H 1.1030 0.5620 0.1941
H11 H 1.0646 0.5445 0.0825
C17 C 0.95571(14) 0.44364(15) 0.21571(9)
C18 C 0.83235(13) 0.14387(14) 0.26191(9)
C19 C 0.82901(15) -0.01023(15) 0.31132(10)
H12 H 0.8283 -0.0485 0.3885
C20 C 0.82669(16) -0.10895(16) 0.24890(11)
H13 H 0.8240 -0.2139 0.2838
C21 C 0.82820(15) -0.05570(17) 0.13675(11)
H14 H 0.8265 -0.1235 0.0944
C22 C 0.83223(15) 0.09814(16) 0.08610(10)
H15 H 0.8335 0.1358 0.0089
C23 C 0.83433(14) 0.19590(15) 0.14836(9)
H16 H 0.8372 0.3007 0.1132
C24 C 1.25856(16) 0.21964(16) 0.09293(10)
H17 H 1.2394 0.2881 0.0175
H18 H 1.1714 0.1834 0.1179
H19 H 1.3655 0.1198 0.0971
C25 C 1.39520(16) 0.37858(19) 0.12682(11)
H20 H 1.5017 0.2776 0.1341
H21 H 1.3928 0.4495 0.1713
H22 H 1.3796 0.4430 0.0504
loop_
_geom_bond_atom_site_label_1
_geom_bond_atom_site_label_2
_geom_bond_site_symmetry_1
_geom_bond_site_symmetry_2
O1 C1 1_555 1_555
O2 C13 1_555 1_555
C1 C2 1_555 1_555
C2 H1 1_555 1_555
C3 C2 1_555 1_555
H2 C3 1_555 1_555
C4 C3 1_555 1_555
C5 C4 1_555 1_555
H3 C5 1_555 1_555
C6 C5 1_555 1_555
H4 C6 1_555 1_555
C7 C6 1_555 1_555
H5 C7 1_555 1_555
C8 C7 1_555 1_555
H6 C8 1_555 1_555
C9 C4 1_555 1_555
C10 C1 1_555 1_555
C11 C10 1_555 1_555
H7 C11 1_555 1_555
C12 C11 1_555 1_555
C13 C12 1_555 1_555
C14 C13 1_555 1_555
H8 C14 1_555 1_555
H9 C14 1_555 1_555
C15 C14 1_555 1_555
C16 C15 1_555 1_555
H10 C16 1_555 1_555
H11 C16 1_555 1_555
C17 O1 1_555 1_555
C18 C11 1_555 1_555
C19 C18 1_555 1_555
H12 C19 1_555 1_555
C20 C19 1_555 1_555
H13 C20 1_555 1_555
C21 C20 1_555 1_555
H14 C21 1_555 1_555
C22 C21 1_555 1_555
H15 C22 1_555 1_555
C23 C18 1_555 1_555
H16 C23 1_555 1_555
C24 C15 1_555 1_555
H17 C24 1_555 1_555
H18 C24 1_555 1_555
H19 C24 1_555 1_555
C25 C15 1_555 1_555
H20 C25 1_555 1_555
H21 C25 1_555 1_555
H22 C25 1_555 1_555
C8 C9 1_555 1_555
C9 C10 1_555 1_555
C12 C17 1_555 1_555
C16 C17 1_555 1_555
C22 C23 1_555 1_555

#END
