
#######################################################################
#
#                 Cambridge Crystallographic Data Centre
#                                CCDC 
#
#######################################################################
#
# If this CIF has been generated from an entry in the Cambridge 
# Structural Database, then it will include bibliographic, chemical, 
# crystal, experimental, refinement or atomic coordinate data resulting 
# from the CCDC's data processing and validation procedures.
#
#######################################################################

data_AJEXOE
_chemical_formula_moiety         'C26 H23 N1 O2 S1'
_chemical_name_systematic        
5-methyl-1-((4-methylphenyl)sulfonyl)-4-phenyl-2,3-dihydro-1H-benzo[g]indole
_symmetry_cell_setting           orthorhombic
_symmetry_space_group_name_H-M   'P 21 21 21'
_symmetry_Int_Tables_number      19
_space_group_name_Hall           'P 2ac 2ab'
loop_
_symmetry_equiv_pos_site_id
_symmetry_equiv_pos_as_xyz
1 x,y,z
2 1/2-x,-y,1/2+z
3 -x,1/2+y,1/2-z
4 1/2+x,1/2-y,-z
_cell_length_a                   9.311(2)
_cell_length_b                   10.003(2)
_cell_length_c                   23.556(6)
_cell_angle_alpha                90
_cell_angle_beta                 90
_cell_angle_gamma                90
_cell_volume                     2193.96
_exptl_crystal_colour            green
_exptl_crystal_description       block
_cell_formula_units_Z            4
loop_
_atom_site_label
_atom_site_type_symbol
_atom_site_fract_x
_atom_site_fract_y
_atom_site_fract_z
C1 C 0.7579(4) 1.0724(3) 0.05274(15)
H1 H 0.8018 1.0132 0.0777
C2 C 0.7250(4) 1.0334(4) -0.00110(17)
H2 H 0.7482 0.9472 -0.0127
C3 C 0.6582(4) 1.1185(4) -0.03897(17)
C4 C 0.6216(6) 1.0733(6) -0.0978(2)
H3 H 0.5195 1.0775 -0.1031
H4 H 0.6538 0.9830 -0.1031
H5 H 0.6680 1.1305 -0.1249
C5 C 0.6274(5) 1.2470(5) -0.02074(18)
H6 H 0.5839 1.3067 -0.0457
C6 C 0.6596(5) 1.2880(4) 0.03313(18)
H7 H 0.6371 1.3743 0.0448
C7 C 0.7251(3) 1.2010(3) 0.06979(15)
C8 C 0.4856(4) 1.2490(4) 0.16691(17)
H8 H 0.4970 1.3300 0.1447
H9 H 0.4353 1.2707 0.2018
C9 C 0.4031(4) 1.1436(3) 0.13321(17)
H10 H 0.3030 1.1404 0.1446
H11 H 0.4087 1.1606 0.0927
C10 C 0.4798(3) 1.0175(3) 0.14881(13)
C11 C 0.6042(4) 1.0443(3) 0.17641(13)
C12 C 0.6922(3) 0.9428(4) 0.19957(14)
C13 C 0.8126(4) 0.9656(4) 0.23423(15)
H12 H 0.8385 1.0528 0.2432
C14 C 0.8917(5) 0.8620(5) 0.25490(16)
H13 H 0.9701 0.8788 0.2783
C15 C 0.8557(4) 0.7322(5) 0.24111(18)
H14 H 0.9127 0.6626 0.2544
C16 C 0.7387(4) 0.7034(4) 0.20850(16)
H15 H 0.7166 0.6149 0.2000
C17 C 0.6503(3) 0.8082(3) 0.18747(13)
C18 C 0.5214(3) 0.7813(3) 0.15636(14)
C19 C 0.4801(5) 0.6365(4) 0.1450(2)
H16 H 0.4562 0.5934 0.1801
H17 H 0.5594 0.5908 0.1276
H18 H 0.3987 0.6339 0.1200
C20 C 0.4371(3) 0.8847(3) 0.13733(14)
C21 C 0.3015(5) 0.8639(5) 0.1055(2)
C22 C 0.3021(5) 0.8782(5) 0.0475(2)
H19 H 0.3864 0.9008 0.0286
C23 C 0.1751(5) 0.8585(5) 0.0170(2)
H20 H 0.1739 0.8672 -0.0223
C24 C 0.0520(5) 0.8260(5) 0.0461(3)
H21 H -0.0319 0.8093 0.0259
C25 C 0.0500(5) 0.8180(5) 0.1015(2)
H22 H -0.0362 0.8015 0.1201
C26 C 0.1742(5) 0.8338(5) 0.1326(2)
H23 H 0.1722 0.8241 0.1718
N1 N 0.6298(3) 1.1875(3) 0.17976(13)
O1 O 0.7542(4) 1.3897(3) 0.14420(14)
O2 O 0.8905(3) 1.1797(3) 0.15671(12)
S1 S 0.76285(9) 1.24711(9) 0.14003(4)
loop_
_geom_bond_atom_site_label_1
_geom_bond_atom_site_label_2
_geom_bond_site_symmetry_1
_geom_bond_site_symmetry_2
C1 H1 1_555 1_555
C2 C1 1_555 1_555
H2 C2 1_555 1_555
C3 C2 1_555 1_555
C4 C3 1_555 1_555
H3 C4 1_555 1_555
H4 C4 1_555 1_555
H5 C4 1_555 1_555
C5 C3 1_555 1_555
H6 C5 1_555 1_555
C6 C5 1_555 1_555
H7 C6 1_555 1_555
C7 C1 1_555 1_555
C8 H8 1_555 1_555
H9 C8 1_555 1_555
C9 C8 1_555 1_555
H10 C9 1_555 1_555
H11 C9 1_555 1_555
C10 C9 1_555 1_555
C11 C10 1_555 1_555
C12 C11 1_555 1_555
C13 C12 1_555 1_555
H12 C13 1_555 1_555
C14 C13 1_555 1_555
H13 C14 1_555 1_555
C15 C14 1_555 1_555
H14 C15 1_555 1_555
C16 C15 1_555 1_555
H15 C16 1_555 1_555
C17 C12 1_555 1_555
C18 C17 1_555 1_555
C19 C18 1_555 1_555
H16 C19 1_555 1_555
H17 C19 1_555 1_555
H18 C19 1_555 1_555
C20 C10 1_555 1_555
C21 C20 1_555 1_555
C22 C21 1_555 1_555
H19 C22 1_555 1_555
C23 C22 1_555 1_555
H20 C23 1_555 1_555
C24 C23 1_555 1_555
H21 C24 1_555 1_555
C25 C24 1_555 1_555
H22 C25 1_555 1_555
C26 C21 1_555 1_555
H23 C26 1_555 1_555
N1 C8 1_555 1_555
O1 S1 1_555 1_555
O2 S1 1_555 1_555
S1 C7 1_555 1_555
C6 C7 1_555 1_555
C11 N1 1_555 1_555
C16 C17 1_555 1_555
C18 C20 1_555 1_555
C25 C26 1_555 1_555
N1 S1 1_555 1_555

#END
