
#######################################################################
#
#                 Cambridge Crystallographic Data Centre
#                                CCDC 
#
#######################################################################
#
# If this CIF has been generated from an entry in the Cambridge 
# Structural Database, then it will include bibliographic, chemical, 
# crystal, experimental, refinement or atomic coordinate data resulting 
# from the CCDC's data processing and validation procedures.
#
#######################################################################

data_AJEXIY
_chemical_formula_moiety         'C31 H25 N1 O2 S1'
_chemical_name_systematic        
1-((4-methylphenyl)sulfonyl)-4,5-diphenyl-2,3-dihydro-1H-benzo[g]indole
_symmetry_cell_setting           monoclinic
_symmetry_space_group_name_H-M   'P 21/c'
_symmetry_Int_Tables_number      14
_space_group_name_Hall           '-P 2ybc'
loop_
_symmetry_equiv_pos_site_id
_symmetry_equiv_pos_as_xyz
1 x,y,z
2 -x,1/2+y,1/2-z
3 -x,-y,-z
4 x,1/2-y,1/2+z
_cell_length_a                   13.100(2)
_cell_length_b                   16.350(3)
_cell_length_c                   13.048(2)
_cell_angle_alpha                90
_cell_angle_beta                 117.404(2)
_cell_angle_gamma                90
_cell_volume                     2481.08
_exptl_crystal_colour            colorless
_cell_formula_units_Z            4
loop_
_atom_site_label
_atom_site_type_symbol
_atom_site_fract_x
_atom_site_fract_y
_atom_site_fract_z
S1 S 1.03802(6) 0.24960(4) 1.19197(5)
O1 O 1.15775(16) 0.23688(13) 1.26578(15)
C1 C 0.9612(2) 0.16474(15) 1.20070(19)
N1 N 1.02253(16) 0.25012(12) 1.05705(15)
O2 O 0.98316(17) 0.32167(10) 1.20430(14)
C2 C 1.0168(3) 0.09050(17) 1.2427(2)
H1 H 1.0966 0.0874 1.2767
C3 C 0.9530(3) 0.02230(18) 1.2335(2)
H2 H 0.9904 -0.0272 1.2622
C4 C 0.8344(3) 0.02494(17) 1.1827(2)
C5 C 0.7801(3) 0.10051(17) 1.1455(2)
H3 H 0.7005 0.1039 1.1142
C6 C 0.8429(2) 0.17024(15) 1.1545(2)
H4 H 0.8062 0.2204 1.1297
C7 C 0.7630(4) -0.05119(19) 1.1650(3)
H5 H 0.6830 -0.0369 1.1287
H6 H 0.7831 -0.0763 1.2384
H7 H 0.7775 -0.0888 1.1168
C8 C 1.0669(2) 0.17400(15) 1.0260(2)
H8 H 1.1204 0.1455 1.0952
H9 H 1.1061 0.1878 0.9808
C9 C 0.96149(19) 0.12053(15) 0.95548(19)
H10 H 0.9677 0.0934 0.8924
H11 H 0.9504 0.0798 1.0035
C10 C 0.86633(19) 0.18277(13) 0.91171(17)
C11 C 0.75086(19) 0.17236(13) 0.82719(17)
C12 C 0.67739(19) 0.23855(14) 0.79969(17)
C13 C 0.71842(19) 0.31653(14) 0.85243(17)
C14 C 0.6455(2) 0.38621(15) 0.8229(2)
H12 H 0.5682 0.3807 0.7705
C15 C 0.6865(2) 0.46052(16) 0.8696(2)
H13 H 0.6368 0.5050 0.8498
C16 C 0.8030(3) 0.47112(16) 0.9473(2)
H14 H 0.8307 0.5229 0.9764
C17 C 0.8756(2) 0.40610(14) 0.9803(2)
H15 H 0.9527 0.4136 1.0325
C18 C 0.83535(19) 0.32676(13) 0.93617(17)
C19 C 0.90429(18) 0.25593(13) 0.96709(17)
C20 C 0.5528(2) 0.22913(14) 0.71464(19)
C21 C 0.4737(2) 0.20534(18) 0.7502(2)
H16 H 0.4977 0.1947 0.8279
C22 C 0.3581(2) 0.1969(2) 0.6715(3)
H17 H 0.3054 0.1812 0.6970
C23 C 0.3218(2) 0.21143(18) 0.5570(3)
H18 H 0.2448 0.2044 0.5042
C24 C 0.3987(3) 0.2363(2) 0.5203(2)
H19 H 0.3740 0.2476 0.4426
C25 C 0.5134(2) 0.24476(18) 0.5984(2)
H20 H 0.5652 0.2613 0.5723
C26 C 0.71156(19) 0.08874(14) 0.77812(19)
C27 C 0.6978(2) 0.02923(16) 0.8454(2)
H21 H 0.7126 0.0421 0.9204
C28 C 0.6626(2) -0.04893(17) 0.8047(3)
H22 H 0.6541 -0.0880 0.8520
C29 C 0.6404(3) -0.06873(18) 0.6955(3)
H23 H 0.6161 -0.1212 0.6674
C30 C 0.6540(3) -0.0111(2) 0.6271(3)
H24 H 0.6390 -0.0247 0.5523
C31 C 0.6898(3) 0.06740(17) 0.6679(2)
H25 H 0.6993 0.1059 0.6205
loop_
_geom_bond_atom_site_label_1
_geom_bond_atom_site_label_2
_geom_bond_site_symmetry_1
_geom_bond_site_symmetry_2
S1 O1 1_555 1_555
C1 S1 1_555 1_555
N1 S1 1_555 1_555
O2 S1 1_555 1_555
C2 C1 1_555 1_555
H1 C2 1_555 1_555
C3 C2 1_555 1_555
H2 C3 1_555 1_555
C4 C3 1_555 1_555
C5 C4 1_555 1_555
H3 C5 1_555 1_555
C6 C1 1_555 1_555
H4 C6 1_555 1_555
C7 C4 1_555 1_555
H5 C7 1_555 1_555
H6 C7 1_555 1_555
H7 C7 1_555 1_555
C8 N1 1_555 1_555
H8 C8 1_555 1_555
H9 C8 1_555 1_555
C9 C8 1_555 1_555
H10 C9 1_555 1_555
H11 C9 1_555 1_555
C10 C9 1_555 1_555
C11 C10 1_555 1_555
C12 C11 1_555 1_555
C13 C12 1_555 1_555
C14 C13 1_555 1_555
H12 C14 1_555 1_555
C15 C14 1_555 1_555
H13 C15 1_555 1_555
C16 C15 1_555 1_555
H14 C16 1_555 1_555
C17 C16 1_555 1_555
H15 C17 1_555 1_555
C18 C13 1_555 1_555
C19 N1 1_555 1_555
C20 C12 1_555 1_555
C21 C20 1_555 1_555
H16 C21 1_555 1_555
C22 C21 1_555 1_555
H17 C22 1_555 1_555
C23 C22 1_555 1_555
H18 C23 1_555 1_555
C24 C23 1_555 1_555
H19 C24 1_555 1_555
C25 C20 1_555 1_555
H20 C25 1_555 1_555
C26 C11 1_555 1_555
C27 C26 1_555 1_555
H21 C27 1_555 1_555
C28 C27 1_555 1_555
H22 C28 1_555 1_555
C29 C28 1_555 1_555
H23 C29 1_555 1_555
C30 C29 1_555 1_555
H24 C30 1_555 1_555
C31 C26 1_555 1_555
H25 C31 1_555 1_555
C5 C6 1_555 1_555
C10 C19 1_555 1_555
C17 C18 1_555 1_555
C18 C19 1_555 1_555
C24 C25 1_555 1_555
C30 C31 1_555 1_555

#END
