
#######################################################################
#
#                 Cambridge Crystallographic Data Centre
#                                CCDC 
#
#######################################################################
#
# If this CIF has been generated from an entry in the Cambridge 
# Structural Database, then it will include bibliographic, chemical, 
# crystal, experimental, refinement or atomic coordinate data resulting 
# from the CCDC's data processing and validation procedures.
#
#######################################################################

data_AJEYAQ
_chemical_name_common            efavirenz
_chemical_formula_moiety         'C14 H9 Cl1 F3 N1 O2'
_chemical_name_systematic        
(4s)-6-chloro-4-(2-cyclopropylethynyl)-4-(trifluoromethyl)-2,4-dihydro-1h-3,1-benzoxazin-2-one
_chemical_properties_biological  
'non-nucleoside reverse transcriptase inhibitor'
_symmetry_cell_setting           orthorhombic
_symmetry_space_group_name_H-M   'P 21 21 21'
_symmetry_Int_Tables_number      19
_space_group_name_Hall           'P 2ac 2ab'
loop_
_symmetry_equiv_pos_site_id
_symmetry_equiv_pos_as_xyz
1 x,y,z
2 1/2-x,-y,1/2+z
3 -x,1/2+y,1/2-z
4 1/2+x,1/2-y,-z
_cell_length_a                   8.1403(4)
_cell_length_b                   13.5859(11)
_cell_length_c                   24.962(2)
_cell_angle_alpha                90
_cell_angle_beta                 90
_cell_angle_gamma                90
_cell_volume                     2760.63
_exptl_crystal_colour            colorless
_exptl_crystal_description       rod
_cell_formula_units_Z            8
_exptl_crystal_recrystallization_method water/methanol
loop_
_atom_site_label
_atom_site_type_symbol
_atom_site_fract_x
_atom_site_fract_y
_atom_site_fract_z
Cl1 Cl -0.51005(11) 0.32715(8) 0.73151(5)
O1 O 0.3501(3) 0.5959(2) 0.74717(10)
O2 O 0.1228(3) 0.59292(19) 0.69880(10)
N1 N 0.1615(4) 0.4768(2) 0.76479(13)
H1 H 0.207(5) 0.457(3) 0.7936(15)
F1 F -0.0025(3) 0.65810(18) 0.60948(9)
F2 F -0.1987(3) 0.55204(18) 0.60690(8)
F3 F -0.1848(3) 0.65650(16) 0.67151(8)
C1 C 0.2190(5) 0.5547(3) 0.73799(15)
C2 C 0.0094(5) 0.5259(3) 0.67159(14)
C3 C -0.0859(4) 0.4654(3) 0.71220(14)
C4 C -0.2433(4) 0.4314(3) 0.70474(15)
H2 H -0.3042 0.4503 0.6739
C5 C -0.3118(4) 0.3698(3) 0.74239(17)
C6 C -0.2254(4) 0.3397(3) 0.78715(16)
H3 H -0.2726 0.2948 0.8119
C7 C -0.0678(4) 0.3764(3) 0.79520(16)
H4 H -0.0077 0.3583 0.8263
C8 C 0.0015(4) 0.4393(3) 0.75789(14)
C9 C -0.0952(5) 0.5989(3) 0.63969(15)
C10 C 0.1021(4) 0.4604(3) 0.63575(16)
C11 C 0.1844(5) 0.4037(3) 0.61164(16)
C12 C 0.2841(5) 0.3343(3) 0.58197(16)
H5 H 0.2696 0.2635 0.5919
C13 C 0.3236(5) 0.3538(3) 0.52437(17)
H6 H 0.3292 0.2967 0.4998
H7 H 0.2802 0.4150 0.5081
C14 C 0.4533(5) 0.3634(4) 0.56533(18)
H8 H 0.4909 0.4306 0.5746
H9 H 0.5400 0.3123 0.5663
Cl2 Cl 1.21317(12) 0.70229(9) 0.86981(4)
O3 O 0.3568(3) 0.4274(2) 0.85483(11)
O4 O 0.5822(3) 0.4297(2) 0.90321(11)
N2 N 0.5495(4) 0.5424(3) 0.83487(13)
H10 H 0.498(5) 0.566(3) 0.8061(15)
F4 F 0.7286(3) 0.60158(18) 1.00057(9)
F5 F 0.5402(3) 0.49001(19) 1.00565(9)
F6 F 0.5136(3) 0.61081(19) 0.95046(9)
C15 C 0.4865(5) 0.4670(3) 0.86305(16)
C16 C 0.7093(5) 0.4883(3) 0.92846(15)
C17 C 0.7914(4) 0.5559(3) 0.88837(14)
C18 C 0.9506(4) 0.5922(3) 0.89599(15)
H11 H 1.0124 0.5729 0.9265
C19 C 1.0174(4) 0.6561(3) 0.85898(15)
C20 C 0.9312(4) 0.6826(3) 0.81354(15)
H12 H 0.9780 0.7271 0.7885
C21 C 0.7766(4) 0.6439(3) 0.80484(15)
H13 H 0.7182 0.6598 0.7731
C22 C 0.7071(4) 0.5820(3) 0.84245(15)
C23 C 0.6220(5) 0.5474(3) 0.97213(15)
C24 C 0.8249(5) 0.4199(3) 0.95367(16)
C25 C 0.9272(6) 0.3707(3) 0.97389(19)
C26 C 1.0542(6) 0.3081(4) 0.9974(2)
H14 H 1.0219 0.2386 1.0052
C27 C 1.1770(9) 0.3495(4) 1.0313(4)
H15 H 1.2225 0.3075 1.0601
H16 H 1.1678 0.4202 1.0404
C28 C 1.2189(13) 0.3225(12) 0.9731(6)
H17 H 1.2329 0.3767 0.9470
H18 H 1.2878 0.2637 0.9667
C29? C 1.0387(19) 0.3074(14) 1.0626(5)
H19? H 1.0798 0.2445 0.9791
H20? H 1.1876 0.4221 1.0312
H21? H 1.2834 0.3143 1.0332
H22? H 0.9600 0.3532 1.0796
H23? H 1.0567 0.2444 1.0817
loop_
_geom_bond_atom_site_label_1
_geom_bond_atom_site_label_2
_geom_bond_site_symmetry_1
_geom_bond_site_symmetry_2
Cl1 C5 1_555 1_555
O1 C1 1_555 1_555
O2 C1 1_555 1_555
N1 H1 1_555 1_555
F1 C9 1_555 1_555
F2 C9 1_555 1_555
F3 C9 1_555 1_555
C1 N1 1_555 1_555
C2 O2 1_555 1_555
C3 C2 1_555 1_555
C4 C3 1_555 1_555
H2 C4 1_555 1_555
C5 C4 1_555 1_555
C6 C5 1_555 1_555
H3 C6 1_555 1_555
C7 C6 1_555 1_555
H4 C7 1_555 1_555
C8 N1 1_555 1_555
C9 C2 1_555 1_555
C10 C2 1_555 1_555
C11 C10 1_555 1_555
C12 C11 1_555 1_555
H5 C12 1_555 1_555
C13 C12 1_555 1_555
H6 C13 1_555 1_555
H7 C13 1_555 1_555
C14 C12 1_555 1_555
H8 C14 1_555 1_555
H9 C14 1_555 1_555
Cl2 C19 1_555 1_555
O3 C15 1_555 1_555
O4 C15 1_555 1_555
N2 H10 1_555 1_555
F4 C23 1_555 1_555
F5 C23 1_555 1_555
F6 C23 1_555 1_555
C15 N2 1_555 1_555
C16 O4 1_555 1_555
C17 C16 1_555 1_555
C18 C17 1_555 1_555
H11 C18 1_555 1_555
C19 C18 1_555 1_555
C20 C19 1_555 1_555
H12 C20 1_555 1_555
C21 C20 1_555 1_555
H13 C21 1_555 1_555
C22 N2 1_555 1_555
C23 C16 1_555 1_555
C24 C16 1_555 1_555
C25 C24 1_555 1_555
C26 C25 1_555 1_555
H14 C26 1_555 1_555
C27 C26 1_555 1_555
H15 C27 1_555 1_555
H16 C27 1_555 1_555
C28 C26 1_555 1_555
H17 C28 1_555 1_555
H18 C28 1_555 1_555
C3 C8 1_555 1_555
C7 C8 1_555 1_555
C13 C14 1_555 1_555
C17 C22 1_555 1_555
C21 C22 1_555 1_555
C27 C28 1_555 1_555

#END
