
#######################################################################
#
#                 Cambridge Crystallographic Data Centre
#                                CCDC 
#
#######################################################################
#
# If this CIF has been generated from an entry in the Cambridge 
# Structural Database, then it will include bibliographic, chemical, 
# crystal, experimental, refinement or atomic coordinate data resulting 
# from the CCDC's data processing and validation procedures.
#
#######################################################################

data_AJIDEE
_chemical_formula_moiety         'C19 H21 N1 O1'
_chemical_name_systematic        3-benzyl-2-t-butylisoindolin-1-one
_symmetry_cell_setting           monoclinic
_symmetry_space_group_name_H-M   'P 21/n'
_symmetry_Int_Tables_number      14
_space_group_name_Hall           '-P 2yn'
loop_
_symmetry_equiv_pos_site_id
_symmetry_equiv_pos_as_xyz
1 x,y,z
2 1/2-x,1/2+y,1/2-z
3 -x,-y,-z
4 1/2+x,1/2-y,1/2+z
_cell_length_a                   9.2123(7)
_cell_length_b                   8.7120(7)
_cell_length_c                   19.1984(15)
_cell_angle_alpha                90
_cell_angle_beta                 94.503(7)
_cell_angle_gamma                90
_cell_volume                     1536.06
_exptl_crystal_colour            white
_cell_formula_units_Z            4
loop_
_atom_site_label
_atom_site_type_symbol
_atom_site_fract_x
_atom_site_fract_y
_atom_site_fract_z
O1 O 0.45189(10) 0.03397(12) 0.23549(5)
N1 N 0.58711(11) 0.08930(14) 0.33919(6)
C1 C 0.81495(14) -0.04142(18) 0.54537(7)
H1 H 0.7890 0.0617 0.5452
C2 C 0.79014(14) -0.03754(18) 0.41390(7)
H2 H 0.8110 -0.1056 0.3760
H3 H 0.8504 0.0532 0.4111
C3 C 0.49336(13) 0.00453(17) 0.29618(7)
C4 C 0.62825(14) 0.00948(17) 0.40558(7)
H4 H 0.6055 0.0745 0.4449
C5 C 0.52866(14) -0.12838(16) 0.40122(7)
C6 C 0.40379(15) -0.35525(17) 0.43068(7)
H5 H 0.3871 -0.4327 0.4624
C7 C 0.84047(15) -0.11728(19) 0.60819(8)
H6 H 0.8303 -0.0654 0.6499
C8 C 0.32541(15) -0.35455(17) 0.36592(8)
H7 H 0.2562 -0.4302 0.3550
C9 C 0.45170(14) -0.12989(16) 0.33659(7)
C10 C 0.82754(14) -0.11698(18) 0.48243(7)
C11 C 0.50608(14) -0.24329(17) 0.44909(7)
H8 H 0.5584 -0.2451 0.4925
C12 C 0.51824(16) 0.33732(18) 0.28322(8)
H9 H 0.4909 0.2933 0.2382
H10 H 0.5501 0.4411 0.2774
H11 H 0.4360 0.3365 0.3110
C13 C 0.86978(14) -0.27015(18) 0.48462(8)
H12 H 0.8805 -0.3225 0.4431
C14 C 0.69568(17) 0.33173(17) 0.38530(8)
H13 H 0.6166 0.3456 0.4144
H14 H 0.7318 0.4302 0.3722
H15 H 0.7724 0.2752 0.4105
C15 C 0.89611(16) -0.34563(19) 0.54766(8)
H16 H 0.9242 -0.4482 0.5482
C16 C 0.88111(14) -0.27004(19) 0.60959(8)
H17 H 0.8981 -0.3212 0.6520
C17 C 0.64223(14) 0.24321(17) 0.31989(7)
C18 C 0.76467(15) 0.22229(19) 0.27125(8)
H18 H 0.8438 0.1673 0.2953
H19 H 0.7982 0.3211 0.2572
H20 H 0.7288 0.1654 0.2307
C19 C 0.34992(14) -0.24211(17) 0.31794(8)
H21 H 0.2993 -0.2416 0.2741
loop_
_geom_bond_atom_site_label_1
_geom_bond_atom_site_label_2
_geom_bond_site_symmetry_1
_geom_bond_site_symmetry_2
O1 C3 1_555 1_555
N1 C3 1_555 1_555
C1 H1 1_555 1_555
C2 H2 1_555 1_555
H3 C2 1_555 1_555
C3 C9 1_555 1_555
C4 N1 1_555 1_555
H4 C4 1_555 1_555
C5 C4 1_555 1_555
C6 H5 1_555 1_555
C7 C1 1_555 1_555
H6 C7 1_555 1_555
C8 C6 1_555 1_555
H7 C8 1_555 1_555
C9 C5 1_555 1_555
C10 C1 1_555 1_555
C11 C5 1_555 1_555
H8 C11 1_555 1_555
C12 H9 1_555 1_555
H10 C12 1_555 1_555
H11 C12 1_555 1_555
C13 C10 1_555 1_555
H12 C13 1_555 1_555
C14 H13 1_555 1_555
H14 C14 1_555 1_555
H15 C14 1_555 1_555
C15 C13 1_555 1_555
H16 C15 1_555 1_555
C16 C7 1_555 1_555
H17 C16 1_555 1_555
C17 N1 1_555 1_555
C18 C17 1_555 1_555
H18 C18 1_555 1_555
H19 C18 1_555 1_555
H20 C18 1_555 1_555
C19 C8 1_555 1_555
H21 C19 1_555 1_555
C2 C4 1_555 1_555
C2 C10 1_555 1_555
C6 C11 1_555 1_555
C9 C19 1_555 1_555
C12 C17 1_555 1_555
C14 C17 1_555 1_555
C15 C16 1_555 1_555

#END
