
#######################################################################
#
#                 Cambridge Crystallographic Data Centre
#                                CCDC 
#
#######################################################################
#
# If this CIF has been generated from an entry in the Cambridge 
# Structural Database, then it will include bibliographic, chemical, 
# crystal, experimental, refinement or atomic coordinate data resulting 
# from the CCDC's data processing and validation procedures.
#
#######################################################################

data_AJIVAR
_chemical_formula_moiety         'C10 H10 N2 2+,C8 Cl4 O4 2-,2(H2 O1)'
_chemical_name_systematic        
"4,4'-Bipyridinium tetrachloroterephthalate dihydrate"
_symmetry_cell_setting           triclinic
_symmetry_space_group_name_H-M   'P -1'
_symmetry_Int_Tables_number      2
_space_group_name_Hall           '-P 1'
loop_
_symmetry_equiv_pos_site_id
_symmetry_equiv_pos_as_xyz
1 x,y,z
2 -x,-y,-z
_cell_length_a                   6.306(2)
_cell_length_b                   9.325(3)
_cell_length_c                   10.040(4)
_cell_angle_alpha                62.508(3)
_cell_angle_beta                 86.763(4)
_cell_angle_gamma                73.842(4)
_cell_volume                     501.23
_exptl_crystal_colour            colorless
_exptl_crystal_description       block
_cell_formula_units_Z            1
_exptl_crystal_recrystallization_method methanol/water
loop_
_atom_site_label
_atom_site_type_symbol
_atom_site_fract_x
_atom_site_fract_y
_atom_site_fract_z
O1 O 0.6388(3) 0.8256(2) 0.58191(18)
C1 C 0.7975(4) 0.6971(3) 0.6556(2)
C2 C 0.9041(3) 0.5942(3) 0.5747(2)
C3 C 1.0746(4) 0.6338(3) 0.4826(2)
C4 C 1.1701(3) 0.5396(3) 0.4087(2)
Cl1 Cl 1.16530(10) 0.80187(7) 0.46194(6)
Cl2 Cl 1.38021(9) 0.58890(7) 0.29182(6)
O2 O 0.8747(3) 0.6456(2) 0.78608(19)
O1A O 1.3612(3) 0.1744(2) 0.41809(18)
C1A C 1.2025(4) 0.3029(3) 0.3444(2)
C2A C 1.0959(3) 0.4058(3) 0.4253(2)
C3A C 0.9254(4) 0.3662(3) 0.5174(2)
C4A C 0.8299(3) 0.4604(3) 0.5913(2)
Cl1A Cl 0.83470(10) 0.19813(7) 0.53806(6)
Cl2A Cl 0.61979(9) 0.41110(7) 0.70818(6)
O2A O 1.1253(3) 0.3544(2) 0.21392(19)
C5 C 0.3642(4) 1.0521(3) 0.7790(3)
H1 H 0.4533 1.1224 0.7295
C6 C 0.2182(4) 1.0860(3) 0.8760(3)
H2 H 0.2111 1.1774 0.8925
C7 C 0.0822(4) 0.9831(3) 0.9485(2)
C8 C 0.1036(5) 0.8457(3) 0.9214(3)
H3 H 0.0160 0.7734 0.9681
C9 C 0.2546(5) 0.8177(3) 0.8253(3)
H4 H 0.2698 0.7251 0.8089
N1 N 0.3792(3) 0.9207(2) 0.7556(2)
H5 H 0.4759 0.8987 0.6933
C5A C -0.3642(4) 0.9479(3) 1.2210(3)
H1A H -0.4533 0.8776 1.2705
C6A C -0.2182(4) 0.9140(3) 1.1240(3)
H2A H -0.2111 0.8226 1.1075
C7A C -0.0822(4) 1.0169(3) 1.0515(2)
C8A C -0.1036(5) 1.1543(3) 1.0786(3)
H3A H -0.0160 1.2266 1.0319
C9A C -0.2546(5) 1.1823(3) 1.1747(3)
H4A H -0.2698 1.2749 1.1911
N1A N -0.3792(3) 1.0793(2) 1.2444(2)
H5A H -0.4759 1.1013 1.3067
O3 O 0.7331(3) 0.6041(2) 1.07034(19)
H6 H 0.7253 0.6329 0.9798
H7 H 0.8412 0.5318 1.1264
loop_
_geom_bond_atom_site_label_1
_geom_bond_atom_site_label_2
_geom_bond_site_symmetry_1
_geom_bond_site_symmetry_2
O1 C1 1_555 1_555
C1 C2 1_555 1_555
C2 C3 1_555 1_555
C3 C4 1_555 1_555
C4 Cl2 1_555 1_555
Cl1 C3 1_555 1_555
O2 C1 1_555 1_555
C5 H1 1_555 1_555
C6 C5 1_555 1_555
H2 C6 1_555 1_555
C7 C6 1_555 1_555
C8 C7 1_555 1_555
H3 C8 1_555 1_555
C9 C8 1_555 1_555
H4 C9 1_555 1_555
N1 C5 1_555 1_555
H5 N1 1_555 1_555
O3 H6 1_555 1_555
H7 O3 1_555 1_555
O1A C1A 1_555 1_555
C1A C2A 1_555 1_555
C2A C4 1_555 1_555
C3A C2A 1_555 1_555
C4A C2 1_555 1_555
Cl1A C3A 1_555 1_555
Cl2A C4A 1_555 1_555
O2A C1A 1_555 1_555
C5A H1A 1_555 1_555
C6A C5A 1_555 1_555
H2A C6A 1_555 1_555
C7A C7 1_555 1_555
C8A C7A 1_555 1_555
H3A C8A 1_555 1_555
C9A C8A 1_555 1_555
H4A C9A 1_555 1_555
N1A C5A 1_555 1_555
H5A N1A 1_555 1_555
C9 N1 1_555 1_555
C3A C4A 1_555 1_555
C6A C7A 1_555 1_555
C9A N1A 1_555 1_555

#END
