
#######################################################################
#
#                 Cambridge Crystallographic Data Centre
#                                CCDC 
#
#######################################################################
#
# If this CIF has been generated from an entry in the Cambridge 
# Structural Database, then it will include bibliographic, chemical, 
# crystal, experimental, refinement or atomic coordinate data resulting 
# from the CCDC's data processing and validation procedures.
#
#######################################################################

data_AJIXAS
_chemical_formula_moiety         'C14 H11 N1 O7 S1'
_chemical_name_systematic        'Methyl 4-(3-nitrobenzenesulfonyloxy)benzoate'
_symmetry_cell_setting           monoclinic
_symmetry_space_group_name_H-M   'P 21/c'
_symmetry_Int_Tables_number      14
_space_group_name_Hall           '-P 2ybc'
loop_
_symmetry_equiv_pos_site_id
_symmetry_equiv_pos_as_xyz
1 x,y,z
2 x,1/2-y,1/2+z
3 -x,-y,-z
4 -x,1/2+y,1/2-z
_cell_length_a                   11.125(2)
_cell_length_b                   9.643(2)
_cell_length_c                   13.236(3)
_cell_angle_alpha                90
_cell_angle_beta                 90.257(5)
_cell_angle_gamma                90
_cell_volume                     1419.92
_exptl_crystal_colour            colorless
_exptl_crystal_description       block
_chemical_melting_point          374-375K
_cell_formula_units_Z            4
_exptl_crystal_recrystallization_method 'acetone/petroleum ether'
loop_
_atom_site_label
_atom_site_type_symbol
_atom_site_fract_x
_atom_site_fract_y
_atom_site_fract_z
S1 S 0.26690(4) 0.22089(4) -0.11608(3)
N1 N 0.45801(15) -0.00838(18) 0.19664(12)
O1 O 0.53362(12) -0.00646(17) 0.26416(11)
O2 O 0.37751(14) -0.09446(15) 0.18929(11)
O3 O 0.22731(11) 0.08619(12) -0.14288(9)
O4 O 0.29915(11) 0.31888(13) -0.19137(9)
O5 O 0.15803(9) 0.27944(11) -0.05147(8)
O6 O 0.10506(13) 0.80063(13) 0.23260(10)
O7 O 0.10570(10) 0.90605(11) 0.08157(9)
C1 C 0.46454(15) 0.10074(18) 0.11890(13)
C2 C 0.55868(16) 0.1936(2) 0.12132(15)
H1 H 0.6183(18) 0.1882(19) 0.1710(16)
C3 C 0.56406(17) 0.2951(2) 0.04769(16)
H2 H 0.6274(18) 0.362(2) 0.0479(16)
C4 C 0.47614(16) 0.3041(2) -0.02634(15)
H3 H 0.4790(17) 0.369(2) -0.0746(16)
C5 C 0.38284(14) 0.20873(18) -0.02590(13)
C6 C 0.37584(15) 0.10512(18) 0.04601(13)
H4 H 0.3137(17) 0.0418(19) 0.0449(14)
C7 C 0.16383(13) 0.41398(16) -0.00777(12)
C8 C 0.18674(15) 0.42244(18) 0.09460(13)
H5 H 0.2077(15) 0.3430(19) 0.1308(14)
C9 C 0.17491(15) 0.54982(18) 0.14107(13)
H6 H 0.1850(15) 0.5553(18) 0.2122(15)
C10 C 0.14204(14) 0.66597(17) 0.08523(12)
C11 C 0.12576(14) 0.65505(18) -0.01888(13)
H7 H 0.1068(15) 0.7333(18) -0.0570(14)
C12 C 0.13569(14) 0.52781(17) -0.06627(13)
H8 H 0.1223(15) 0.5181(18) -0.1343(14)
C13 C 0.11711(15) 0.79580(17) 0.14221(13)
C14 C 0.07278(18) 1.03346(19) 0.13207(15)
H9 H 0.1358(17) 1.0643(19) 0.1784(15)
H10 H 0.0625(17) 1.1011(19) 0.0802(16)
H11 H -0.0028(18) 1.0212(19) 0.1657(15)
loop_
_geom_bond_atom_site_label_1
_geom_bond_atom_site_label_2
_geom_bond_site_symmetry_1
_geom_bond_site_symmetry_2
S1 O3 1_555 1_555
N1 O1 1_555 1_555
O2 N1 1_555 1_555
O4 S1 1_555 1_555
O5 S1 1_555 1_555
O6 C13 1_555 1_555
O7 C13 1_555 1_555
C1 N1 1_555 1_555
C2 C1 1_555 1_555
H1 C2 1_555 1_555
C3 C2 1_555 1_555
H2 C3 1_555 1_555
C4 C3 1_555 1_555
H3 C4 1_555 1_555
C5 S1 1_555 1_555
C6 C1 1_555 1_555
H4 C6 1_555 1_555
C7 O5 1_555 1_555
C8 C7 1_555 1_555
H5 C8 1_555 1_555
C9 C8 1_555 1_555
H6 C9 1_555 1_555
C10 C9 1_555 1_555
C11 C10 1_555 1_555
H7 C11 1_555 1_555
C12 C7 1_555 1_555
H8 C12 1_555 1_555
C13 C10 1_555 1_555
C14 O7 1_555 1_555
H9 C14 1_555 1_555
H10 C14 1_555 1_555
H11 C14 1_555 1_555
C4 C5 1_555 1_555
C5 C6 1_555 1_555
C11 C12 1_555 1_555

#END
