
#######################################################################
#
#                 Cambridge Crystallographic Data Centre
#                                CCDC 
#
#######################################################################
#
# If this CIF has been generated from an entry in the Cambridge 
# Structural Database, then it will include bibliographic, chemical, 
# crystal, experimental, refinement or atomic coordinate data resulting 
# from the CCDC's data processing and validation procedures.
#
#######################################################################

data_AJIYAT01
_chemical_formula_moiety         'C12 H16 N3 O2'
_chemical_name_systematic        
4,4,5,5-tetramethyl-2-(4-pyridyl)imidazoline-1-oxyl-3-oxide
_symmetry_cell_setting           monoclinic
_symmetry_space_group_name_H-M   'C 2/c'
_symmetry_Int_Tables_number      15
_space_group_name_Hall           '-C 2yn'
loop_
_symmetry_equiv_pos_site_id
_symmetry_equiv_pos_as_xyz
1 x,y,z
2 1/2+x,1/2+y,z
3 -x,y,1/2-z
4 1/2-x,1/2+y,1/2-z
5 -x,-y,-z
6 1/2-x,1/2-y,-z
7 x,-y,1/2+z
8 1/2+x,1/2-y,1/2+z
_cell_length_a                   11.205(7)
_cell_length_b                   10.452(7)
_cell_length_c                   11.031(8)
_cell_angle_alpha                90
_cell_angle_beta                 108.051(11)
_cell_angle_gamma                90
_cell_volume                     1228.31
_exptl_crystal_colour            blue
_exptl_crystal_description       block
_cell_formula_units_Z            4
loop_
_atom_site_label
_atom_site_type_symbol
_atom_site_fract_x
_atom_site_fract_y
_atom_site_fract_z
O1 O 0.1847(2) 0.0863(2) 0.4167(3)
N1 N 0.0000 0.5342(3) 0.2500
N2 N 0.0872(2) 0.0490(2) 0.3291(3)
C1 C 0.0601(3) 0.4654(3) 0.3534(3)
H1 H 0.1015 0.5099 0.4275
C2 C 0.0652(3) 0.3338(3) 0.3582(3)
H2 H 0.1113 0.2920 0.4324
C3 C 0.0000 0.2642(4) 0.2500
C4 C 0.0000 0.1231(4) 0.2500
C5 C 0.0664(3) -0.0921(3) 0.3004(3)
C6 C 0.1721(3) -0.1362(4) 0.2510(4)
H3 H 0.1684 -0.0898 0.1749
H4 H 0.1632 -0.2261 0.2324
H5 H 0.2513 -0.1206 0.3147
C7 C 0.0752(3) -0.1602(3) 0.4247(3)
H6 H 0.1581 -0.1497 0.4834
H7 H 0.0582 -0.2497 0.4084
H8 H 0.0149 -0.1243 0.4607
O1B O -0.1847(2) 0.0863(2) 0.0833(3)
N2B N -0.0872(2) 0.0490(2) 0.1709(3)
C1B C -0.0601(3) 0.4654(3) 0.1466(3)
H1B H -0.1015 0.5099 0.0725
C2B C -0.0652(3) 0.3338(3) 0.1418(3)
H2B H -0.1113 0.2920 0.0676
C5B C -0.0664(3) -0.0921(3) 0.1996(3)
C6B C -0.1721(3) -0.1362(4) 0.2490(4)
H3B H -0.1684 -0.0898 0.3251
H4B H -0.1632 -0.2261 0.2676
H5B H -0.2513 -0.1206 0.1853
C7B C -0.0752(3) -0.1602(3) 0.0753(3)
H6B H -0.1581 -0.1497 0.0166
H7B H -0.0582 -0.2497 0.0916
H8B H -0.0149 -0.1243 0.0393
loop_
_geom_bond_atom_site_label_1
_geom_bond_atom_site_label_2
_geom_bond_site_symmetry_1
_geom_bond_site_symmetry_2
O1 N2 1_555 1_555
N1 C1 1_555 1_555
N2 C4 1_555 1_555
C1 H1 1_555 1_555
C2 C1 1_555 1_555
H2 C2 1_555 1_555
C3 C2 1_555 1_555
C4 C3 1_555 1_555
C5 N2 1_555 1_555
C6 C5 1_555 1_555
H3 C6 1_555 1_555
H4 C6 1_555 1_555
H5 C6 1_555 1_555
C7 C5 1_555 1_555
H6 C7 1_555 1_555
H7 C7 1_555 1_555
H8 C7 1_555 1_555
O1B N2B 1_555 1_555
N2B C4 1_555 1_555
C1B N1 1_555 1_555
H1B C1B 1_555 1_555
C2B C3 1_555 1_555
H2B C2B 1_555 1_555
C5B C5 1_555 1_555
C6B C5B 1_555 1_555
H3B C6B 1_555 1_555
H4B C6B 1_555 1_555
H5B C6B 1_555 1_555
C7B C5B 1_555 1_555
H6B C7B 1_555 1_555
H7B C7B 1_555 1_555
H8B C7B 1_555 1_555
N2B C5B 1_555 1_555
C1B C2B 1_555 1_555

#END
