
#######################################################################
#
#                 Cambridge Crystallographic Data Centre
#                                CCDC 
#
#######################################################################
#
# If this CIF has been generated from an entry in the Cambridge 
# Structural Database, then it will include bibliographic, chemical, 
# crystal, experimental, refinement or atomic coordinate data resulting 
# from the CCDC's data processing and validation procedures.
#
#######################################################################

data_AJIYEX
_chemical_compound_source        'endophytic fungus Tubercularia sp'
_chemical_name_common            5-Methoxycarbonylmellein
_chemical_formula_moiety         'C12 H12 O5'
_chemical_name_systematic        
'Methyl 8-hydroxy-(S)-3-methyl-1-oxoisochromane-5-carboxylate'
_symmetry_cell_setting           monoclinic
_symmetry_space_group_name_H-M   'P 21'
_symmetry_Int_Tables_number      4
_space_group_name_Hall           'P 2yb'
loop_
_symmetry_equiv_pos_site_id
_symmetry_equiv_pos_as_xyz
1 x,y,z
2 -x,1/2+y,-z
_cell_length_a                   10.9633(7)
_cell_length_b                   7.1890(5)
_cell_length_c                   14.4250(10)
_cell_angle_alpha                90
_cell_angle_beta                 99.0880(10)
_cell_angle_gamma                90
_cell_volume                     1122.64
_exptl_crystal_colour            colorless
_exptl_crystal_description       needle
_cell_formula_units_Z            4
_exptl_crystal_recrystallization_method 'ethyl acetate'
loop_
_atom_site_label
_atom_site_type_symbol
_atom_site_fract_x
_atom_site_fract_y
_atom_site_fract_z
O1 O 0.1124(3) 0.4999(5) 0.6625(2)
O2 O 0.1380(3) 0.5214(7) 0.8156(2)
O3 O 0.6899(3) 0.6521(8) 0.7795(2)
O4 O 0.6744(3) 0.6316(5) 0.5996(2)
O5 O 0.4977(3) 0.6341(5) 0.5074(2)
C1 C -0.0178(4) 0.4653(9) 0.6593(4)
C2 C 0.1806(4) 0.5259(6) 0.7453(3)
C3 C 0.3133(4) 0.5603(6) 0.7431(3)
C4 C 0.3863(4) 0.5739(7) 0.8306(3)
C5 C 0.5099(4) 0.6048(9) 0.8418(3)
C6 C 0.5681(4) 0.6260(8) 0.7638(3)
C7 C 0.4970(3) 0.6143(6) 0.6743(3)
C8 C 0.3687(3) 0.5825(5) 0.6631(2)
C9 C 0.3045(3) 0.5693(7) 0.5634(2)
C10 C 0.3670(3) 0.6817(6) 0.4978(3)
C11 C 0.3147(4) 0.6541(8) 0.3962(3)
C12 C 0.5621(4) 0.6278(6) 0.5927(3)
H1 H 0.7156 0.6586 0.7292
H2 H -0.0562 0.4485 0.5953
H3 H -0.0549 0.5693 0.6860
H4 H -0.0289 0.3550 0.6946
H5 H 0.3489 0.5614 0.8839
H6 H 0.5556 0.6116 0.9018
H7 H 0.3020 0.4402 0.5438
H8 H 0.2200 0.6121 0.5600
H9 H 0.3599 0.8135 0.5133
H10 H 0.3592 0.7300 0.3581
H11 H 0.2291 0.6891 0.3857
H12 H 0.3223 0.5257 0.3798
O6 O 0.4391(3) 0.6033(6) 0.1957(2)
O7 O 0.5196(3) 0.5765(8) 0.0678(2)
O8 O 0.9688(3) 0.4868(6) 0.4095(2)
O9 O 1.0793(3) 0.4120(6) 0.2699(2)
O10 O 0.9985(3) 0.4847(5) 0.1266(2)
C13 C 0.3190(4) 0.6180(10) 0.1384(4)
C14 C 0.5343(4) 0.5818(7) 0.1513(3)
C15 C 0.6521(3) 0.5661(6) 0.2157(3)
C16 C 0.6543(4) 0.5808(7) 0.3119(3)
C17 C 0.7589(4) 0.5598(6) 0.3755(3)
C18 C 0.8683(4) 0.5180(6) 0.3445(3)
C19 C 0.8713(4) 0.5077(6) 0.2479(3)
C20 C 0.7634(3) 0.5321(6) 0.1834(3)
C21 C 0.7770(4) 0.5170(8) 0.0819(3)
C22 C 0.9012(4) 0.5847(8) 0.0650(3)
C23 C 0.9244(4) 0.5530(9) -0.0334(3)
C24 C 0.9888(4) 0.4651(7) 0.2161(3)
H13 H 1.0270 0.4566 0.3833
H14 H 0.2571 0.6331 0.1780
H15 H 0.3023 0.5063 0.1018
H16 H 0.3177 0.7227 0.0972
H17 H 0.5808 0.6061 0.3338
H18 H 0.7567 0.5736 0.4393
H19 H 0.7129 0.5897 0.0444
H20 H 0.7665 0.3882 0.0622
H21 H 0.9083 0.7179 0.0792
H22 H 1.0037 0.6029 -0.0403
H23 H 0.8614 0.6138 -0.0766
H24 H 0.9231 0.4220 -0.0463
loop_
_geom_bond_atom_site_label_1
_geom_bond_atom_site_label_2
_geom_bond_site_symmetry_1
_geom_bond_site_symmetry_2
O1 C1 1_555 1_555
O2 C2 1_555 1_555
O3 C6 1_555 1_555
O4 C12 1_555 1_555
O5 C10 1_555 1_555
C1 H2 1_555 1_555
C2 O1 1_555 1_555
C3 C2 1_555 1_555
C4 C3 1_555 1_555
C5 C4 1_555 1_555
C6 C5 1_555 1_555
C7 C6 1_555 1_555
C8 C3 1_555 1_555
C9 C8 1_555 1_555
C10 C9 1_555 1_555
C11 C10 1_555 1_555
C12 O5 1_555 1_555
O6 C13 1_555 1_555
O7 C14 1_555 1_555
O8 C18 1_555 1_555
O9 C24 1_555 1_555
O10 C22 1_555 1_555
C13 H14 1_555 1_555
C14 O6 1_555 1_555
C15 C14 1_555 1_555
C16 C15 1_555 1_555
C17 C16 1_555 1_555
C18 C17 1_555 1_555
C19 C18 1_555 1_555
C20 C15 1_555 1_555
C21 C20 1_555 1_555
C22 C21 1_555 1_555
C23 C22 1_555 1_555
C24 O10 1_555 1_555
H1 O3 1_555 1_555
H3 C1 1_555 1_555
H4 C1 1_555 1_555
H5 C4 1_555 1_555
H6 C5 1_555 1_555
H7 C9 1_555 1_555
H8 C9 1_555 1_555
H9 C10 1_555 1_555
H10 C11 1_555 1_555
H11 C11 1_555 1_555
H12 C11 1_555 1_555
H13 O8 1_555 1_555
H15 C13 1_555 1_555
H16 C13 1_555 1_555
H17 C16 1_555 1_555
H18 C17 1_555 1_555
H19 C21 1_555 1_555
H20 C21 1_555 1_555
H21 C22 1_555 1_555
H22 C23 1_555 1_555
H23 C23 1_555 1_555
H24 C23 1_555 1_555
C7 C8 1_555 1_555
C7 C12 1_555 1_555
C19 C20 1_555 1_555
C19 C24 1_555 1_555

#END
