
#######################################################################
#
#                 Cambridge Crystallographic Data Centre
#                                CCDC 
#
#######################################################################
#
# If this CIF has been generated from an entry in the Cambridge 
# Structural Database, then it will include bibliographic, chemical, 
# crystal, experimental, refinement or atomic coordinate data resulting 
# from the CCDC's data processing and validation procedures.
#
#######################################################################

data_AJIYAT
_chemical_formula_moiety         'C12 H16 N3 O2'
_chemical_name_systematic        
'4,4,5,5-Tetramethyl-2-(p-pyridyl)imidazoline-1-oxyl 3-oxide'
_symmetry_cell_setting           monoclinic
_symmetry_space_group_name_H-M   'C 2/c'
_symmetry_Int_Tables_number      15
_space_group_name_Hall           '-C 2yn'
loop_
_symmetry_equiv_pos_site_id
_symmetry_equiv_pos_as_xyz
1 x,y,z
2 1/2+x,1/2+y,z
3 x,-y,1/2+z
4 1/2+x,1/2-y,1/2+z
5 -x,-y,-z
6 1/2-x,1/2-y,-z
7 -x,y,1/2-z
8 1/2-x,1/2+y,1/2-z
_cell_length_a                   11.0922(5)
_cell_length_b                   10.3891(5)
_cell_length_c                   10.8714(6)
_cell_angle_alpha                90
_cell_angle_beta                 107.632(2)
_cell_angle_gamma                90
_cell_volume                     1193.94
_exptl_crystal_colour            brown
_exptl_crystal_description       block
_cell_formula_units_Z            4
_exptl_crystal_recrystallization_method benzene
loop_
_atom_site_label
_atom_site_type_symbol
_atom_site_fract_x
_atom_site_fract_y
_atom_site_fract_z
O1 O 0.68596(11) 0.08767(10) 0.41872(12)
N1 N 0.5000 0.53627(15) 0.2500
N2 N 0.58806(10) 0.04970(10) 0.32986(10)
C1 C 0.43936(13) 0.46832(12) 0.14522(13)
H1 H 0.3968 0.5140 0.0699
C2 C 0.43498(11) 0.33534(11) 0.13996(11)
H2 H 0.3892 0.2926 0.0639
C3 C 0.5000 0.26593(15) 0.2500
C4 C 0.5000 0.12507(15) 0.2500
C5 C 0.56689(11) -0.09124(10) 0.30036(11)
C6 C 0.67366(14) -0.13565(18) 0.24908(16)
H3 H 0.6675 -0.0912 0.1689
H4 H 0.6669 -0.2277 0.2337
H5 H 0.7545 -0.1163 0.3120
C7 C 0.57626(15) -0.16063(13) 0.42616(13)
H6 H 0.5083 -0.1322 0.4586
H7 H 0.6570 -0.1412 0.4892
H8 H 0.5694 -0.2527 0.4109
N2F N 0.41194(10) 0.04970(10) 0.17014(10)
O1F O 0.31404(11) 0.08767(10) 0.08128(12)
C5F C 0.43311(11) -0.09124(10) 0.19964(11)
C6F C 0.32634(14) -0.13565(18) 0.25092(16)
H3F H 0.3325 -0.0912 0.3311
H4F H 0.3331 -0.2277 0.2663
H5F H 0.2455 -0.1163 0.1880
C7F C 0.42374(15) -0.16063(13) 0.07384(13)
H6F H 0.4917 -0.1322 0.0414
H7F H 0.3430 -0.1412 0.0108
H8F H 0.4306 -0.2527 0.0891
C1F C 0.56064(13) 0.46832(12) 0.35478(13)
H1F H 0.6032 0.5140 0.4301
C2F C 0.56502(11) 0.33534(11) 0.36004(11)
H2F H 0.6108 0.2926 0.4361
loop_
_geom_bond_atom_site_label_1
_geom_bond_atom_site_label_2
_geom_bond_site_symmetry_1
_geom_bond_site_symmetry_2
O1 N2 1_555 1_555
N1 C1 1_555 1_555
N2 C4 1_555 1_555
C1 H1 1_555 1_555
C2 C1 1_555 1_555
H2 C2 1_555 1_555
C3 C2 1_555 1_555
C4 C3 1_555 1_555
C5 N2 1_555 1_555
C6 C5 1_555 1_555
H3 C6 1_555 1_555
H4 C6 1_555 1_555
H5 C6 1_555 1_555
C7 C5 1_555 1_555
H6 C7 1_555 1_555
H7 C7 1_555 1_555
H8 C7 1_555 1_555
N2F C4 1_555 1_555
O1F N2F 1_555 1_555
C5F C5 1_555 1_555
C6F C5F 1_555 1_555
H3F C6F 1_555 1_555
H4F C6F 1_555 1_555
H5F C6F 1_555 1_555
C7F C5F 1_555 1_555
H6F C7F 1_555 1_555
H7F C7F 1_555 1_555
H8F C7F 1_555 1_555
C1F N1 1_555 1_555
H1F C1F 1_555 1_555
C2F C3 1_555 1_555
H2F C2F 1_555 1_555
N2F C5F 1_555 1_555
C1F C2F 1_555 1_555

#END
