
#######################################################################
#
#                 Cambridge Crystallographic Data Centre
#                                CCDC 
#
#######################################################################
#
# If this CIF has been generated from an entry in the Cambridge 
# Structural Database, then it will include bibliographic, chemical, 
# crystal, experimental, refinement or atomic coordinate data resulting 
# from the CCDC's data processing and validation procedures.
#
#######################################################################

data_AJIZAV
_chemical_formula_moiety         'C27 H36 As1 Cl3 N2'
_chemical_name_systematic        
Trichloro-(N,N'-bis(2,6-diisopropylphenyl)imidazol-2-ylidene)arsane
_symmetry_cell_setting           monoclinic
_symmetry_space_group_name_H-M   'P 21/n'
_symmetry_Int_Tables_number      14
_space_group_name_Hall           '-P 2yn'
loop_
_symmetry_equiv_pos_site_id
_symmetry_equiv_pos_as_xyz
1 x,y,z
2 1/2-x,1/2+y,1/2-z
3 -x,-y,-z
4 1/2+x,1/2-y,1/2+z
_cell_length_a                   11.0692(7)
_cell_length_b                   13.8303(9)
_cell_length_c                   19.2882(12)
_cell_angle_alpha                90
_cell_angle_beta                 104.3760(10)
_cell_angle_gamma                90
_cell_volume                     2860.38
_exptl_crystal_colour            colorless
_exptl_crystal_description       plate
_cell_formula_units_Z            4
_exptl_crystal_recrystallization_method toluene/tetrahydrofuran
loop_
_atom_site_label
_atom_site_type_symbol
_atom_site_fract_x
_atom_site_fract_y
_atom_site_fract_z
As1 As 0.04533(11) 0.35578(9) 0.19488(5)
Cl1 Cl 0.17182(11) 0.27691(9) 0.28020(6)
Cl2 Cl -0.1258(3) 0.2501(3) 0.2129(2)
Cl3 Cl 0.2100(2) 0.4559(3) 0.18072(16)
N1 N -0.1036(2) 0.52114(18) 0.22016(13)
N2 N 0.0223(2) 0.48691(18) 0.32211(13)
C1 C -0.0125(3) 0.4597(2) 0.25270(16)
C2 C -0.1268(3) 0.5866(3) 0.26900(19)
H1 H -0.1850 0.6364 0.2598
C3 C -0.0501(3) 0.5648(3) 0.33197(19)
H2 H -0.0458 0.5965 0.3750
C4 C 0.1132(3) 0.4452(2) 0.38185(16)
C5 C 0.2331(3) 0.4839(3) 0.40051(18)
C6 C 0.3140(4) 0.4452(3) 0.4607(2)
H3 H 0.3954 0.4680 0.4746
C7 C 0.2766(4) 0.3741(3) 0.5002(2)
H4 H 0.3327 0.3504 0.5408
C8 C 0.1588(4) 0.3374(3) 0.48113(19)
H5 H 0.1360 0.2884 0.5083
C9 C 0.0718(3) 0.3728(2) 0.42100(17)
C10 C -0.0614(4) 0.3355(3) 0.4025(2)
H6 H -0.0983 0.3503 0.3520
C11 C -0.1364(5) 0.3893(5) 0.4465(3)
H7 H -0.1322 0.4575 0.4384
H8 H -0.1025 0.3757 0.4964
H9 H -0.2217 0.3685 0.4326
C12 C -0.0672(5) 0.2268(3) 0.4117(3)
H10 H -0.0195 0.1956 0.3828
H11 H -0.1523 0.2057 0.3970
H12 H -0.0333 0.2104 0.4611
C13 C 0.2744(3) 0.5655(3) 0.3590(2)
H13 H 0.2152 0.5692 0.3119
C14 C 0.2714(6) 0.6620(3) 0.3969(3)
H14 H 0.2969 0.7127 0.3696
H15 H 0.3271 0.6594 0.4437
H16 H 0.1882 0.6744 0.4011
C15 C 0.4044(4) 0.5458(4) 0.3472(2)
H17 H 0.4277 0.5979 0.3203
H18 H 0.4029 0.4864 0.3212
H19 H 0.4639 0.5407 0.3927
C16 C -0.1670(3) 0.5228(2) 0.14417(17)
C17 C -0.1133(3) 0.5785(3) 0.09905(19)
C18 C -0.1755(4) 0.5768(3) 0.0267(2)
H20 H -0.1437 0.6124 -0.0057
C19 C -0.2820(4) 0.5244(3) 0.0022(2)
H21 H -0.3192 0.5222 -0.0467
C20 C -0.3346(3) 0.4750(3) 0.04872(19)
H22 H -0.4088 0.4416 0.0310
C21 C -0.2797(3) 0.4734(2) 0.12194(17)
C22 C -0.3452(3) 0.4257(3) 0.1732(2)
H23 H -0.2814 0.4066 0.2160
C23 C -0.4192(4) 0.3350(3) 0.1429(2)
H24 H -0.4573 0.3082 0.1782
H25 H -0.3640 0.2882 0.1306
H26 H -0.4828 0.3519 0.1009
C24 C -0.4324(4) 0.4970(3) 0.1963(2)
H27 H -0.4727 0.4659 0.2290
H28 H -0.4942 0.5187 0.1550
H29 H -0.3853 0.5514 0.2194
C25 C 0.0001(4) 0.6426(3) 0.1265(2)
H30 H 0.0501 0.6150 0.1712
C26 C 0.0829(4) 0.6508(4) 0.0733(3)
H31 H 0.1530 0.6917 0.0931
H32 H 0.0353 0.6780 0.0292
H33 H 0.1119 0.5877 0.0644
C27 C -0.0420(5) 0.7446(3) 0.1423(3)
H34 H 0.0299 0.7847 0.1599
H35 H -0.0892 0.7405 0.1778
H36 H -0.0930 0.7721 0.0993
As2? As 0.0632(6) 0.3420(5) 0.2217(3)
Cl4? Cl -0.0184(6) 0.3429(5) 0.1090(3)
Cl5? Cl -0.1241(18) 0.2521(16) 0.2342(14)
Cl6? Cl 0.2345(13) 0.4327(14) 0.2074(10)
loop_
_geom_bond_atom_site_label_1
_geom_bond_atom_site_label_2
_geom_bond_site_symmetry_1
_geom_bond_site_symmetry_2
As1 Cl1 1_555 1_555
Cl2 As1 1_555 1_555
Cl3 As1 1_555 1_555
N1 C1 1_555 1_555
N2 C1 1_555 1_555
C1 As1 1_555 1_555
C2 N1 1_555 1_555
H1 C2 1_555 1_555
C3 N2 1_555 1_555
H2 C3 1_555 1_555
C4 N2 1_555 1_555
C5 C4 1_555 1_555
C6 C5 1_555 1_555
H3 C6 1_555 1_555
C7 C6 1_555 1_555
H4 C7 1_555 1_555
C8 C7 1_555 1_555
H5 C8 1_555 1_555
C9 C4 1_555 1_555
C10 C9 1_555 1_555
H6 C10 1_555 1_555
C11 C10 1_555 1_555
H7 C11 1_555 1_555
H8 C11 1_555 1_555
H9 C11 1_555 1_555
C12 C10 1_555 1_555
H10 C12 1_555 1_555
H11 C12 1_555 1_555
H12 C12 1_555 1_555
C13 C5 1_555 1_555
H13 C13 1_555 1_555
C14 C13 1_555 1_555
H14 C14 1_555 1_555
H15 C14 1_555 1_555
H16 C14 1_555 1_555
C15 C13 1_555 1_555
H17 C15 1_555 1_555
H18 C15 1_555 1_555
H19 C15 1_555 1_555
C16 N1 1_555 1_555
C17 C16 1_555 1_555
C18 C17 1_555 1_555
H20 C18 1_555 1_555
C19 C18 1_555 1_555
H21 C19 1_555 1_555
C20 C19 1_555 1_555
H22 C20 1_555 1_555
C21 C16 1_555 1_555
C22 C21 1_555 1_555
H23 C22 1_555 1_555
C23 C22 1_555 1_555
H24 C23 1_555 1_555
H25 C23 1_555 1_555
H26 C23 1_555 1_555
C24 C22 1_555 1_555
H27 C24 1_555 1_555
H28 C24 1_555 1_555
H29 C24 1_555 1_555
C25 C17 1_555 1_555
H30 C25 1_555 1_555
C26 C25 1_555 1_555
H31 C26 1_555 1_555
H32 C26 1_555 1_555
H33 C26 1_555 1_555
C27 C25 1_555 1_555
H34 C27 1_555 1_555
H35 C27 1_555 1_555
H36 C27 1_555 1_555
C2 C3 1_555 1_555
C8 C9 1_555 1_555
C20 C21 1_555 1_555

#END
