
#######################################################################
#
#                 Cambridge Crystallographic Data Centre
#                                CCDC 
#
#######################################################################
#
# If this CIF has been generated from an entry in the Cambridge 
# Structural Database, then it will include bibliographic, chemical, 
# crystal, experimental, refinement or atomic coordinate data resulting 
# from the CCDC's data processing and validation procedures.
#
#######################################################################

data_AJOCOR
_chemical_formula_moiety         'C30 H34 F1 N3 O2'
_chemical_name_systematic        
(+)-3-((\aR)-\a-((2S,5R)-4-Allyl-2,5-dimethyl-1-piperazinyl)-3-hydroxybenzyl)-N-(3-fluorophenyl)-N-methylbenzamide
_chemical_properties_biological  
'potent agonist of mu and delta opioid receptor activiation'
_symmetry_cell_setting           orthorhombic
_symmetry_space_group_name_H-M   'P 21 21 21'
_symmetry_Int_Tables_number      19
_space_group_name_Hall           'P 2ac 2ab'
loop_
_symmetry_equiv_pos_site_id
_symmetry_equiv_pos_as_xyz
1 x,y,z
2 1/2-x,-y,1/2+z
3 1/2+x,1/2-y,-z
4 -x,1/2+y,1/2-z
_cell_length_a                   6.244(12)
_cell_length_b                   16.693(19)
_cell_length_c                   25.219(20)
_cell_angle_alpha                90
_cell_angle_beta                 90
_cell_angle_gamma                90
_cell_volume                     2628.6
_exptl_crystal_colour            'light yellow'
_cell_formula_units_Z            4
loop_
_atom_site_label
_atom_site_type_symbol
_atom_site_fract_x
_atom_site_fract_y
_atom_site_fract_z
O1 O 1.0685(12) 0.9482(4) 0.8696(3)
O2 O 1.0742(13) 0.5992(3) 0.6277(2)
N1 N 0.8080(14) 0.5032(4) 0.9797(3)
N2 N 0.7882(13) 0.6145(4) 0.8948(3)
N3 N 1.1627(14) 0.7211(4) 0.6572(3)
F1 F 0.7297(11) 0.9423(4) 0.7075(2)
C1 C 0.7393(23) 0.3005(6) 1.0288(4)
C2 C 0.8344(20) 0.3676(6) 1.0189(4)
C3 C 0.7365(20) 0.4486(6) 1.0215(4)
C4 C 0.7236(19) 0.5840(5) 0.9869(3)
C5 C 0.8328(18) 0.6421(6) 0.9498(3)
C6 C 0.8692(15) 0.5337(5) 0.8874(3)
C7 C 0.7609(17) 0.4754(5) 0.9252(3)
C8 C 0.8736(16) 0.6689(5) 0.8540(3)
C9 C 0.8077(17) 0.7551(5) 0.8642(3)
C10 C 0.6002(17) 0.7774(5) 0.8716(4)
C11 C 0.5454(18) 0.8550(6) 0.8789(4)
C12 C 0.7014(17) 0.9152(6) 0.8785(4)
C13 C 0.9102(17) 0.8943(5) 0.8704(3)
C14 C 0.9634(17) 0.8140(5) 0.8632(3)
C15 C 0.8110(17) 0.6457(5) 0.7983(3)
C16 C 0.9470(18) 0.6600(5) 0.7573(3)
C17 C 0.8955(15) 0.6439(5) 0.7048(3)
C18 C 0.6984(18) 0.6106(5) 0.6943(4)
C19 C 0.5544(18) 0.5957(5) 0.7353(4)
C20 C 0.6108(16) 0.6140(5) 0.7869(4)
C21 C 1.0491(16) 0.6524(5) 0.6608(3)
C22 C 1.1279(17) 0.7923(5) 0.6875(3)
C23 C 0.9362(19) 0.8333(5) 0.6832(4)
C24 C 0.9175(21) 0.9023(6) 0.7118(4)
C25 C 1.0664(23) 0.9302(6) 0.7452(4)
C26 C 1.2541(21) 0.8888(6) 0.7499(4)
C27 C 1.2833(18) 0.8191(6) 0.7208(4)
C28 C 0.5323(17) 0.4594(6) 0.9121(4)
C29 C 1.0677(21) 0.6548(7) 0.9629(4)
C30 C 1.3241(18) 0.7279(6) 0.6154(4)
H1 H 1.032(22) 1.0026(73) 0.8776(48)
H2 H 0.5942(23) 0.3002(6) 1.0388(4)
H3 H 0.8151(23) 0.2521(6) 1.0260(4)
H4 H 0.9794(20) 0.3649(6) 1.0091(4)
H5 H 0.5805(20) 0.4432(6) 1.0194(4)
H6 H 0.7708(20) 0.4726(6) 1.0560(4)
H7 H 0.7467(19) 0.6011(5) 1.0237(3)
H8 H 0.5691(19) 0.5842(5) 0.9801(3)
H9 H 0.7607(18) 0.6945(6) 0.9542(3)
H10 H 1.0241(15) 0.5331(5) 0.8936(3)
H11 H 0.8433(15) 0.5167(5) 0.8508(3)
H12 H 0.8365(17) 0.4237(5) 0.9208(3)
H13 H 1.0318(16) 0.6665(5) 0.8561(3)
H14 H 0.4926(17) 0.7381(5) 0.8715(4)
H15 H 0.4010(18) 0.8686(6) 0.8843(4)
H16 H 0.6630(17) 0.9691(6) 0.8836(4)
H17 H 1.1072(17) 0.7996(5) 0.8576(3)
H18 H 1.0824(18) 0.6819(5) 0.7649(3)
H19 H 0.6607(18) 0.5978(5) 0.6592(4)
H20 H 0.4195(18) 0.5732(5) 0.7280(4)
H21 H 0.5126(16) 0.6049(5) 0.8145(4)
H22 H 0.8241(19) 0.8146(5) 0.6617(4)
H23 H 1.0425(23) 0.9771(6) 0.7650(4)
H24 H 1.3626(21) 0.9074(6) 0.7726(4)
H25 H 1.4117(18) 0.7901(6) 0.7242(4)
H26 H 0.4731(17) 0.4219(6) 0.9376(4)
H27 H 0.5227(17) 0.4366(6) 0.8768(4)
H28 H 0.4521(17) 0.5091(6) 0.9133(4)
H29 H 1.1295(21) 0.6924(7) 0.9379(4)
H30 H 1.1430(21) 0.6041(7) 0.9606(4)
H31 H 1.0806(21) 0.6760(7) 0.9986(4)
H32 H 1.3927(18) 0.7799(6) 0.6175(4)
H33 H 1.2560(18) 0.7220(6) 0.5810(4)
H34 H 1.4308(18) 0.6862(6) 0.6199(4)
loop_
_geom_bond_atom_site_label_1
_geom_bond_atom_site_label_2
_geom_bond_site_symmetry_1
_geom_bond_site_symmetry_2
O1 C13 1_555 1_555
O2 C21 1_555 1_555
N1 C3 1_555 1_555
N2 C5 1_555 1_555
N3 C21 1_555 1_555
F1 C24 1_555 1_555
C1 C2 1_555 1_555
C2 C3 1_555 1_555
C3 H5 1_555 1_555
C4 N1 1_555 1_555
C5 C4 1_555 1_555
C6 N2 1_555 1_555
C7 N1 1_555 1_555
C8 N2 1_555 1_555
C9 C8 1_555 1_555
C10 C9 1_555 1_555
C11 C10 1_555 1_555
C12 C11 1_555 1_555
C13 C12 1_555 1_555
C14 C9 1_555 1_555
C15 C8 1_555 1_555
C16 C15 1_555 1_555
C17 C16 1_555 1_555
C18 C17 1_555 1_555
C19 C18 1_555 1_555
C20 C15 1_555 1_555
C21 C17 1_555 1_555
C22 N3 1_555 1_555
C23 C22 1_555 1_555
C24 C23 1_555 1_555
C25 C24 1_555 1_555
C26 C25 1_555 1_555
C27 C22 1_555 1_555
C28 C7 1_555 1_555
C29 C5 1_555 1_555
C30 N3 1_555 1_555
H1 O1 1_555 1_555
H2 C1 1_555 1_555
H3 C1 1_555 1_555
H4 C2 1_555 1_555
H6 C3 1_555 1_555
H7 C4 1_555 1_555
H8 C4 1_555 1_555
H9 C5 1_555 1_555
H10 C6 1_555 1_555
H11 C6 1_555 1_555
H12 C7 1_555 1_555
H13 C8 1_555 1_555
H14 C10 1_555 1_555
H15 C11 1_555 1_555
H16 C12 1_555 1_555
H17 C14 1_555 1_555
H18 C16 1_555 1_555
H19 C18 1_555 1_555
H20 C19 1_555 1_555
H21 C20 1_555 1_555
H22 C23 1_555 1_555
H23 C25 1_555 1_555
H24 C26 1_555 1_555
H25 C27 1_555 1_555
H26 C28 1_555 1_555
H27 C28 1_555 1_555
H28 C28 1_555 1_555
H29 C29 1_555 1_555
H30 C29 1_555 1_555
H31 C29 1_555 1_555
H32 C30 1_555 1_555
H33 C30 1_555 1_555
H34 C30 1_555 1_555
C6 C7 1_555 1_555
C13 C14 1_555 1_555
C19 C20 1_555 1_555
C26 C27 1_555 1_555

#END
