
#######################################################################
#
#                 Cambridge Crystallographic Data Centre
#                                CCDC 
#
#######################################################################
#
# If this CIF has been generated from an entry in the Cambridge 
# Structural Database, then it will include bibliographic, chemical, 
# crystal, experimental, refinement or atomic coordinate data resulting 
# from the CCDC's data processing and validation procedures.
#
#######################################################################

data_AJOCIN
_chemical_formula_moiety         'C17 H12 O2'
_chemical_name_systematic        
2-(2-methylbenzylidene)-1H-indene-1,3(2H)-dione
_symmetry_cell_setting           orthorhombic
_symmetry_space_group_name_H-M   'P n a 21'
_symmetry_Int_Tables_number      33
_space_group_name_Hall           'P 2c -2n'
loop_
_symmetry_equiv_pos_site_id
_symmetry_equiv_pos_as_xyz
1 x,y,z
2 -x,-y,1/2+z
3 1/2-x,1/2+y,1/2+z
4 1/2+x,1/2-y,z
_cell_length_a                   16.963(4)
_cell_length_b                   4.7940(12)
_cell_length_c                   15.518(4)
_cell_angle_alpha                90
_cell_angle_beta                 90
_cell_angle_gamma                90
_cell_volume                     1261.93
_exptl_crystal_colour            yellow
_exptl_crystal_description       block
_cell_formula_units_Z            4
loop_
_atom_site_label
_atom_site_type_symbol
_atom_site_fract_x
_atom_site_fract_y
_atom_site_fract_z
C1 C 0.44386(10) -0.1333(4) 1.00721(13)
H1 H 0.4323 -0.2177 1.0597
C2 C 0.76515(11) 1.0783(4) 0.78310(14)
H2 H 0.7894 1.1691 0.8289
O1 O 0.57019(10) 0.3992(3) 0.71367(8)
C3 C 0.47686(10) 0.1094(3) 0.85139(11)
H3 H 0.4877 0.1904 0.7983
O2 O 0.69464(7) 0.8397(3) 0.95062(8)
C4 C 0.67078(11) 0.7439(4) 0.72816(11)
C5 C 0.61171(11) 0.5410(4) 0.76037(11)
C6 C 0.51964(8) 0.1939(3) 0.92361(10)
C7 C 0.50261(9) 0.0672(3) 1.00396(10)
C8 C 0.40210(10) -0.2111(4) 0.93521(14)
H4 H 0.3625 -0.3446 0.9395
C9 C 0.41894(11) -0.0913(4) 0.85693(13)
H5 H 0.3914 -0.1454 0.8079
C10 C 0.69127(14) 0.8030(5) 0.64375(14)
H6 H 0.6673 0.7116 0.5978
C11 C 0.61460(8) 0.5513(3) 0.85597(9)
C12 C 0.57952(9) 0.4107(3) 0.92038(10)
H7 H 0.5974 0.4636 0.9746
C13 C 0.70705(8) 0.8769(3) 0.79646(12)
C14 C 0.54699(13) 0.1389(5) 1.08524(12)
H8 H 0.5260 0.0332 1.1325
H9 H 0.5414 0.3345 1.0970
H10 H 0.6018 0.0948 1.0779
C15 C 0.67485(9) 0.7674(3) 0.87827(11)
C16 C 0.74869(13) 1.0028(6) 0.63029(16)
H11 H 0.7633 1.0484 0.5743
C17 C 0.78495(13) 1.1364(5) 0.69895(18)
H12 H 0.8237 1.2689 0.6878
loop_
_geom_bond_atom_site_label_1
_geom_bond_atom_site_label_2
_geom_bond_site_symmetry_1
_geom_bond_site_symmetry_2
C1 H1 1_555 1_555
C2 H2 1_555 1_555
O1 C5 1_555 1_555
C3 H3 1_555 1_555
O2 C15 1_555 1_555
C4 C5 1_555 1_555
C5 C11 1_555 1_555
C6 C3 1_555 1_555
C7 C1 1_555 1_555
C8 C1 1_555 1_555
H4 C8 1_555 1_555
C9 C3 1_555 1_555
H5 C9 1_555 1_555
C10 C4 1_555 1_555
H6 C10 1_555 1_555
C11 C12 1_555 1_555
C12 C6 1_555 1_555
H7 C12 1_555 1_555
C13 C2 1_555 1_555
C14 C7 1_555 1_555
H8 C14 1_555 1_555
H9 C14 1_555 1_555
H10 C14 1_555 1_555
C15 C11 1_555 1_555
C16 C10 1_555 1_555
H11 C16 1_555 1_555
C17 C2 1_555 1_555
H12 C17 1_555 1_555
C4 C13 1_555 1_555
C6 C7 1_555 1_555
C8 C9 1_555 1_555
C13 C15 1_555 1_555
C16 C17 1_555 1_555

#END
