
#######################################################################
#
#                 Cambridge Crystallographic Data Centre
#                                CCDC 
#
#######################################################################
#
# If this CIF has been generated from an entry in the Cambridge 
# Structural Database, then it will include bibliographic, chemical, 
# crystal, experimental, refinement or atomic coordinate data resulting 
# from the CCDC's data processing and validation procedures.
#
#######################################################################

data_AJOCUZ
_chemical_formula_moiety         'C38 H32 O8,2(H2 O1)'
_chemical_name_systematic        
"15b-hydroxy-2,3,8,9-tetramethoxy-10b,10c,15b,16a-tetrahydro-6H-spiro[dibenzo[3',4':7',8']cycloocta[1',2':3,4]cyclopenta[1,2-a]indene-16,2'-indene]-1',3',11(5H)-trione unknown solvate dihydrate"
_symmetry_cell_setting           monoclinic
_symmetry_space_group_name_H-M   'C 2/c'
_symmetry_Int_Tables_number      15
_space_group_name_Hall           '-C 2yn'
loop_
_symmetry_equiv_pos_site_id
_symmetry_equiv_pos_as_xyz
1 x,y,z
2 -x,y,1/2-z
3 1/2+x,1/2+y,z
4 1/2-x,1/2+y,1/2-z
5 -x,-y,-z
6 x,-y,1/2+z
7 1/2-x,1/2-y,-z
8 1/2+x,1/2-y,1/2+z
_cell_length_a                   29.379(3)
_cell_length_b                   10.2912(8)
_cell_length_c                   23.9643(18)
_cell_angle_alpha                90
_cell_angle_beta                 98.993(2)
_cell_angle_gamma                90
_cell_volume                     7156.42
_exptl_crystal_colour            colorless
_exptl_crystal_description       block
_cell_formula_units_Z            8
loop_
_atom_site_label
_atom_site_type_symbol
_atom_site_fract_x
_atom_site_fract_y
_atom_site_fract_z
C1 C 0.73079(8) 0.8790(3) 0.24833(15)
H1 H 0.7370 0.7970 0.2671
H2 H 0.7509 0.9442 0.2674
H3 H 0.7360 0.8716 0.2099
C2 C 0.55821(11) 1.0325(4) 0.25851(17)
H4 H 0.5447 1.0741 0.2240
H5 H 0.5601 1.0934 0.2891
H6 H 0.5395 0.9599 0.2659
C3 C 0.65105(6) 0.84375(15) 0.21633(7)
C4 C 0.65839(5) 0.74127(15) 0.18236(6)
H7 H 0.6885 0.7159 0.1803
C5 C 0.62174(5) 0.67347(15) 0.15057(6)
C6 C 0.57686(5) 0.71308(17) 0.15340(6)
C7 C 0.57006(6) 0.81832(18) 0.18767(7)
H8 H 0.5401 0.8452 0.1896
C8 C 0.60628(6) 0.88381(17) 0.21884(7)
C9 C 0.53379(6) 0.6467(2) 0.12373(8)
H9 H 0.5085 0.7073 0.1238
H10 H 0.5278 0.5736 0.1471
C10 C 0.53087(6) 0.59541(18) 0.06280(7)
H11 H 0.5471 0.5132 0.0638
H12 H 0.4988 0.5789 0.0477
C11 C 0.63116(5) 0.56726(15) 0.11068(6)
H13 H 0.6046 0.5084 0.1054
C12 C 0.63704(5) 0.62242(14) 0.05234(6)
H14 H 0.6626 0.6843 0.0598
C13 C 0.55061(6) 0.68643(15) 0.02323(6)
C14 C 0.59725(5) 0.69888(15) 0.01885(6)
C15 C 0.60992(6) 0.79236(15) -0.01876(6)
H15 H 0.6410 0.8029 -0.0212
C16 C 0.57818(6) 0.86865(16) -0.05200(7)
C17 C 0.53143(6) 0.85580(18) -0.04737(8)
C18 C 0.51886(6) 0.76643(17) -0.01037(7)
H16 H 0.4878 0.7584 -0.0074
C19 C 0.45413(8) 0.9263(3) -0.07600(12)
H17 H 0.4428 0.8422 -0.0887
H18 H 0.4370 0.9922 -0.0986
H19 H 0.4506 0.9379 -0.0372
C20 C 0.63443(8) 0.9663(2) -0.09969(10)
H20 H 0.6537 0.9943 -0.0657
H21 H 0.6367 1.0273 -0.1294
H22 H 0.6443 0.8822 -0.1103
C21 C 0.67491(5) 0.48492(15) 0.12650(6)
H23 H 0.6991 0.5367 0.1490
C22 C 0.69118(5) 0.43855(15) 0.07115(6)
C23 C 0.66614(6) 0.36266(16) 0.15805(7)
C24 C 0.67365(6) 0.24999(16) 0.12310(7)
C25 C 0.68810(5) 0.29136(15) 0.07358(6)
C26 C 0.69976(6) 0.20092(17) 0.03540(8)
H24 H 0.7097 0.2274 0.0022
C27 C 0.69622(7) 0.07050(18) 0.04776(9)
H25 H 0.7044 0.0088 0.0228
C28 C 0.68084(8) 0.03001(19) 0.09635(9)
H26 H 0.6783 -0.0584 0.1033
C29 C 0.66923(8) 0.11846(18) 0.13451(9)
H27 H 0.6587 0.0912 0.1672
C30 C 0.65614(5) 0.50608(14) 0.02177(6)
C31 C 0.61955(5) 0.41021(15) -0.00542(7)
C32 C 0.67967(6) 0.54833(16) -0.02746(7)
C33 C 0.62552(6) 0.39179(17) -0.06468(7)
C34 C 0.66043(7) 0.47148(18) -0.07767(7)
C35 C 0.67175(10) 0.4746(3) -0.13165(9)
H28 H 0.6953 0.5276 -0.1405
C36 C 0.64684(15) 0.3962(3) -0.17155(12)
H29 H 0.6533 0.3975 -0.2083
C37 C 0.61253(13) 0.3156(3) -0.15854(11)
H30 H 0.5967 0.2632 -0.1867
C38 C 0.60087(9) 0.3103(2) -0.10487(9)
H31 H 0.5778 0.2555 -0.0961
O1 O 0.68487(5) 0.91424(13) 0.24919(6)
O2 O 0.60268(5) 0.98870(15) 0.25343(6)
O3 O 0.50165(5) 0.93631(15) -0.08124(6)
O4 O 0.58860(5) 0.95903(14) -0.09036(6)
O5 O 0.65512(5) 0.36138(13) 0.20499(5)
O6 O 0.73757(4) 0.46808(11) 0.06797(5)
H32 H 0.7430 0.5435 0.0780
O7 O 0.59061(4) 0.35798(12) 0.01761(5)
O8 O 0.70784(4) 0.63481(12) -0.02600(5)
O9 O 0.68180(8) 0.18543(16) 0.29443(7)
H33 H 0.6723(11) 0.241(2) 0.2704(11)
H34 H 0.6715(11) 0.1138(15) 0.2842(13)
O10 O 0.75510(5) 0.71641(14) 0.10877(6)
H35 H 0.7654(7) 0.764(2) 0.0858(8)
H36 H 0.7763(6) 0.706(2) 0.1360(7)
loop_
_geom_bond_atom_site_label_1
_geom_bond_atom_site_label_2
_geom_bond_site_symmetry_1
_geom_bond_site_symmetry_2
C1 H1 1_555 1_555
H2 C1 1_555 1_555
H3 C1 1_555 1_555
C2 H4 1_555 1_555
H5 C2 1_555 1_555
H6 C2 1_555 1_555
C3 C4 1_555 1_555
C4 H7 1_555 1_555
C5 C4 1_555 1_555
C6 C5 1_555 1_555
C7 C6 1_555 1_555
H8 C7 1_555 1_555
C8 C3 1_555 1_555
C9 C6 1_555 1_555
H9 C9 1_555 1_555
H10 C9 1_555 1_555
C10 C9 1_555 1_555
H11 C10 1_555 1_555
H12 C10 1_555 1_555
C11 C5 1_555 1_555
H13 C11 1_555 1_555
C12 C11 1_555 1_555
H14 C12 1_555 1_555
C13 C10 1_555 1_555
C14 C12 1_555 1_555
C15 C14 1_555 1_555
H15 C15 1_555 1_555
C16 C15 1_555 1_555
C17 C16 1_555 1_555
C18 C13 1_555 1_555
H16 C18 1_555 1_555
C19 H17 1_555 1_555
H18 C19 1_555 1_555
H19 C19 1_555 1_555
C20 H20 1_555 1_555
H21 C20 1_555 1_555
H22 C20 1_555 1_555
C21 C11 1_555 1_555
H23 C21 1_555 1_555
C22 C21 1_555 1_555
C23 C21 1_555 1_555
C24 C23 1_555 1_555
C25 C22 1_555 1_555
C26 C25 1_555 1_555
H24 C26 1_555 1_555
C27 C26 1_555 1_555
H25 C27 1_555 1_555
C28 C27 1_555 1_555
H26 C28 1_555 1_555
C29 C24 1_555 1_555
H27 C29 1_555 1_555
C30 C12 1_555 1_555
C31 C30 1_555 1_555
C32 C30 1_555 1_555
C33 C31 1_555 1_555
C34 C32 1_555 1_555
C35 C34 1_555 1_555
H28 C35 1_555 1_555
C36 C35 1_555 1_555
H29 C36 1_555 1_555
C37 C36 1_555 1_555
H30 C37 1_555 1_555
C38 C33 1_555 1_555
H31 C38 1_555 1_555
O1 C1 1_555 1_555
O2 C2 1_555 1_555
O3 C17 1_555 1_555
O4 C16 1_555 1_555
O5 C23 1_555 1_555
O6 C22 1_555 1_555
H32 O6 1_555 1_555
O7 C31 1_555 1_555
O8 C32 1_555 1_555
O9 H33 1_555 1_555
H34 O9 1_555 1_555
O10 H35 1_555 1_555
H36 O10 1_555 1_555
C3 O1 1_555 1_555
C7 C8 1_555 1_555
C8 O2 1_555 1_555
C13 C14 1_555 1_555
C17 C18 1_555 1_555
C19 O3 1_555 1_555
C20 O4 1_555 1_555
C22 C30 1_555 1_555
C24 C25 1_555 1_555
C28 C29 1_555 1_555
C33 C34 1_555 1_555
C37 C38 1_555 1_555

#END
