
#######################################################################
#
#                 Cambridge Crystallographic Data Centre
#                                CCDC 
#
#######################################################################
#
# If this CIF has been generated from an entry in the Cambridge 
# Structural Database, then it will include bibliographic, chemical, 
# crystal, experimental, refinement or atomic coordinate data resulting 
# from the CCDC's data processing and validation procedures.
#
#######################################################################

data_AJOCAF
_chemical_formula_moiety         'C26 H22 O2'
_chemical_name_systematic        
2-(2-(4-methylphenyl)-1,2,3,4-tetrahydronaphthalen-1-yl)-1H-indene-1,3(2H)-dione
_symmetry_cell_setting           triclinic
_symmetry_space_group_name_H-M   'P -1'
_symmetry_Int_Tables_number      2
_space_group_name_Hall           '-P 1'
loop_
_symmetry_equiv_pos_site_id
_symmetry_equiv_pos_as_xyz
1 x,y,z
2 -x,-y,-z
_cell_length_a                   7.9418(11)
_cell_length_b                   8.5551(12)
_cell_length_c                   14.691(2)
_cell_angle_alpha                84.055(2)
_cell_angle_beta                 79.282(2)
_cell_angle_gamma                85.893(2)
_cell_volume                     974.06
_exptl_crystal_colour            colorless
_exptl_crystal_description       block
_cell_formula_units_Z            2
loop_
_atom_site_label
_atom_site_type_symbol
_atom_site_fract_x
_atom_site_fract_y
_atom_site_fract_z
C1 C 1.0746(3) 1.2571(2) 0.18479(14)
H1 H 1.1778 1.1979 0.1833
C2 C 1.0733(3) 1.4014(2) 0.13346(15)
H2 H 1.1749 1.4389 0.0987
C3 C 0.9214(3) 1.4902(2) 0.13375(14)
H3 H 0.9188 1.5864 0.0981
C4 C 0.7747(3) 1.4346(2) 0.18732(13)
H4 H 0.6726 1.4955 0.1883
C5 C 0.7722(2) 1.2894(2) 0.24072(12)
C6 C 0.9257(2) 1.19727(19) 0.23886(11)
C7 C 0.9329(2) 1.03917(19) 0.29713(11)
H5 H 0.9847 1.0572 0.3504
C8 C 0.6067(2) 1.2365(2) 0.29917(14)
H6 H 0.5388 1.1946 0.2598
H7 H 0.5422 1.3266 0.3258
C9 C 0.7536(2) 0.9781(2) 0.33752(11)
H8 H 0.7072 0.9442 0.2859
C10 C 0.6343(2) 1.1121(2) 0.37698(13)
H9 H 0.5250 1.0717 0.4076
H10 H 0.6842 1.1582 0.4227
C11 C 1.04794(19) 0.91153(19) 0.24613(11)
H11 H 1.0148 0.8118 0.2819
C12 C 1.0328(2) 0.89011(18) 0.14603(11)
C13 C 1.2405(2) 0.9148(2) 0.24242(12)
C14 C 1.3274(2) 0.8629(2) 0.15180(11)
C15 C 1.2067(2) 0.84843(19) 0.09572(11)
C16 C 1.2576(2) 0.8003(2) 0.00713(12)
H12 H 1.1778 0.7897 -0.0306
C17 C 1.4307(3) 0.7685(3) -0.02332(14)
H13 H 1.4677 0.7347 -0.0823
C18 C 1.5506(3) 0.7857(3) 0.03209(15)
H14 H 1.6665 0.7649 0.0093
C19 C 1.5013(2) 0.8330(2) 0.11990(14)
H15 H 1.5819 0.8447 0.1569
C20 C 0.7622(2) 0.8370(2) 0.40778(11)
C21 C 0.7163(3) 0.6920(2) 0.39070(15)
H16 H 0.6806 0.6810 0.3350
C22 C 0.7225(3) 0.5624(3) 0.45496(17)
H17 H 0.6912 0.4659 0.4414
C23 C 0.7739(3) 0.5733(2) 0.53848(15)
C24 C 0.8187(3) 0.7175(2) 0.55622(13)
H18 H 0.8534 0.7280 0.6122
C25 C 0.8131(2) 0.8476(2) 0.49215(12)
H19 H 0.8441 0.9440 0.5060
C26 C 0.7768(4) 0.4313(3) 0.6084(2)
H20 H 0.6686 0.3830 0.6185
H21 H 0.7964 0.4635 0.6661
H22 H 0.8671 0.3572 0.5851
O1 O 0.90187(15) 0.90096(16) 0.11465(9)
O2 O 1.30860(17) 0.95159(18) 0.30361(9)
loop_
_geom_bond_atom_site_label_1
_geom_bond_atom_site_label_2
_geom_bond_site_symmetry_1
_geom_bond_site_symmetry_2
C1 H1 1_555 1_555
C2 C1 1_555 1_555
H2 C2 1_555 1_555
C3 C2 1_555 1_555
H3 C3 1_555 1_555
C4 C3 1_555 1_555
H4 C4 1_555 1_555
C5 C4 1_555 1_555
C6 C1 1_555 1_555
C7 C6 1_555 1_555
H5 C7 1_555 1_555
C8 C5 1_555 1_555
H6 C8 1_555 1_555
H7 C8 1_555 1_555
C9 C7 1_555 1_555
H8 C9 1_555 1_555
C10 C8 1_555 1_555
H9 C10 1_555 1_555
H10 C10 1_555 1_555
C11 C7 1_555 1_555
H11 C11 1_555 1_555
C12 C11 1_555 1_555
C13 C11 1_555 1_555
C14 C13 1_555 1_555
C15 C12 1_555 1_555
C16 C15 1_555 1_555
H12 C16 1_555 1_555
C17 C16 1_555 1_555
H13 C17 1_555 1_555
C18 C17 1_555 1_555
H14 C18 1_555 1_555
C19 C14 1_555 1_555
H15 C19 1_555 1_555
C20 C9 1_555 1_555
C21 C20 1_555 1_555
H16 C21 1_555 1_555
C22 C21 1_555 1_555
H17 C22 1_555 1_555
C23 C22 1_555 1_555
C24 C23 1_555 1_555
H18 C24 1_555 1_555
C25 C20 1_555 1_555
H19 C25 1_555 1_555
C26 C23 1_555 1_555
H20 C26 1_555 1_555
H21 C26 1_555 1_555
H22 C26 1_555 1_555
O1 C12 1_555 1_555
O2 C13 1_555 1_555
C5 C6 1_555 1_555
C9 C10 1_555 1_555
C14 C15 1_555 1_555
C18 C19 1_555 1_555
C24 C25 1_555 1_555

#END
