
#######################################################################
#
#                 Cambridge Crystallographic Data Centre
#                                CCDC 
#
#######################################################################
#
# If this CIF has been generated from an entry in the Cambridge 
# Structural Database, then it will include bibliographic, chemical, 
# crystal, experimental, refinement or atomic coordinate data resulting 
# from the CCDC's data processing and validation procedures.
#
#######################################################################

data_AJOCOT
_chemical_formula_moiety         'C17 H10 Br2 O2'
_chemical_name_systematic        
2-(2,5-dibromobicyclo[4.2.0]octa-1,3,5-trien-7-yl)-1H-indene-1,3(2H)-dione
_symmetry_cell_setting           monoclinic
_symmetry_space_group_name_H-M   'P 21/c'
_symmetry_Int_Tables_number      14
_space_group_name_Hall           '-P 2ybc'
loop_
_symmetry_equiv_pos_site_id
_symmetry_equiv_pos_as_xyz
1 x,y,z
2 -x,1/2+y,1/2-z
3 -x,-y,-z
4 x,1/2-y,1/2+z
_cell_length_a                   10.8851(12)
_cell_length_b                   10.5890(12)
_cell_length_c                   12.795(2)
_cell_angle_alpha                90
_cell_angle_beta                 93.1020(10)
_cell_angle_gamma                90
_cell_volume                     1472.62
_exptl_crystal_colour            colorless
_exptl_crystal_description       block
_cell_formula_units_Z            4
loop_
_atom_site_label
_atom_site_type_symbol
_atom_site_fract_x
_atom_site_fract_y
_atom_site_fract_z
Br1 Br 0.19527(3) -0.04234(3) 1.10641(2)
Br2 Br 0.48515(2) 0.12737(3) 0.68857(2)
C1 C 0.2635(2) -0.0587(2) 0.89377(18)
C2 C 0.2843(2) 0.0020(2) 0.98848(19)
C3 C 0.3701(2) 0.0986(3) 0.9943(2)
H1 H 0.3875 0.1399 1.0593
C4 C 0.4313(2) 0.1363(2) 0.9074(2)
H2 H 0.4893 0.2033 0.9132
C5 C 0.4081(2) 0.0757(2) 0.81057(19)
C6 C 0.3255(2) -0.0219(2) 0.80681(18)
C7 C 0.2661(2) -0.1238(2) 0.73707(18)
H3 H 0.3271 -0.1914 0.7229
C8 C 0.1905(3) -0.1600(2) 0.83544(19)
H4 H 0.1012 -0.1423 0.8265
H5 H 0.2062 -0.2465 0.8622
C9 C 0.1929(2) -0.0881(2) 0.63720(17)
H6 H 0.1336 -0.1588 0.6222
C10 C 0.1162(2) 0.0322(2) 0.63844(18)
C11 C 0.1338(2) 0.1001(2) 0.53919(17)
C12 C 0.2172(2) 0.0367(2) 0.47997(18)
C13 C 0.2667(2) -0.0738(2) 0.53966(18)
C14 C 0.2433(2) 0.0780(3) 0.38084(19)
H7 H 0.3001 0.0341 0.3403
C15 C 0.1839(2) 0.1855(3) 0.3429(2)
H8 H 0.1989 0.2148 0.2746
C16 C 0.1028(2) 0.2515(2) 0.4028(2)
H9 H 0.0650 0.3263 0.3756
C17 C 0.0763(2) 0.2097(2) 0.5018(2)
H10 H 0.0206 0.2545 0.5428
O1 O 0.05082(17) 0.06485(19) 0.70726(14)
O2 O 0.34936(17) -0.14317(18) 0.51529(14)
loop_
_geom_bond_atom_site_label_1
_geom_bond_atom_site_label_2
_geom_bond_site_symmetry_1
_geom_bond_site_symmetry_2
Br1 C2 1_555 1_555
Br2 C5 1_555 1_555
C1 C2 1_555 1_555
C2 C3 1_555 1_555
C3 H1 1_555 1_555
C4 C3 1_555 1_555
H2 C4 1_555 1_555
C5 C4 1_555 1_555
C6 C1 1_555 1_555
C7 C6 1_555 1_555
H3 C7 1_555 1_555
C8 C1 1_555 1_555
H4 C8 1_555 1_555
H5 C8 1_555 1_555
C9 C7 1_555 1_555
H6 C9 1_555 1_555
C10 C9 1_555 1_555
C11 C10 1_555 1_555
C12 C11 1_555 1_555
C13 C9 1_555 1_555
C14 C12 1_555 1_555
H7 C14 1_555 1_555
C15 C14 1_555 1_555
H8 C15 1_555 1_555
C16 C15 1_555 1_555
H9 C16 1_555 1_555
C17 C11 1_555 1_555
H10 C17 1_555 1_555
O1 C10 1_555 1_555
O2 C13 1_555 1_555
C5 C6 1_555 1_555
C7 C8 1_555 1_555
C12 C13 1_555 1_555
C16 C17 1_555 1_555

#END
