
#######################################################################
#
#                 Cambridge Crystallographic Data Centre
#                                CCDC 
#
#######################################################################
#
# If this CIF has been generated from an entry in the Cambridge 
# Structural Database, then it will include bibliographic, chemical, 
# crystal, experimental, refinement or atomic coordinate data resulting 
# from the CCDC's data processing and validation procedures.
#
#######################################################################

data_AJOCEJ
_chemical_formula_moiety         'C26 H22 O2'
_chemical_name_systematic        
2-(2-(4-methylphenyl)-1,2,3,4-tetrahydronaphthalen-1-yl)-1H-indene-1,3(2H)-dione
_symmetry_cell_setting           monoclinic
_symmetry_space_group_name_H-M   'C 2/c'
_symmetry_Int_Tables_number      15
_space_group_name_Hall           '-C 2yn'
loop_
_symmetry_equiv_pos_site_id
_symmetry_equiv_pos_as_xyz
1 x,y,z
2 -x,y,1/2-z
3 1/2+x,1/2+y,z
4 1/2-x,1/2+y,1/2-z
5 -x,-y,-z
6 x,-y,1/2+z
7 1/2-x,1/2-y,-z
8 1/2+x,1/2-y,1/2+z
_cell_length_a                   27.262(8)
_cell_length_b                   6.0998(18)
_cell_length_c                   24.701(8)
_cell_angle_alpha                90
_cell_angle_beta                 111.504(10)
_cell_angle_gamma                90
_cell_volume                     3821.68
_exptl_crystal_colour            colorless
_exptl_crystal_description       block
_cell_formula_units_Z            8
loop_
_atom_site_label
_atom_site_type_symbol
_atom_site_fract_x
_atom_site_fract_y
_atom_site_fract_z
C1 C 0.02008(9) 0.3969(4) 0.84122(10)
H1 H 0.0235 0.5078 0.8170
C2 C -0.01006(9) 0.4345(4) 0.87419(11)
H2 H -0.0266 0.5696 0.8718
C3 C 0.08157(8) -0.0786(3) 0.78899(9)
H3 H 0.1098 -0.1401 0.8221
H4 H 0.0497 -0.1611 0.7835
C4 C 0.09533(8) -0.0970(3) 0.73521(9)
H5 H 0.1099 -0.2415 0.7344
H6 H 0.0632 -0.0837 0.7011
C5 C 0.15616(9) 0.0515(4) 0.68928(9)
H7 H 0.1473 -0.0690 0.6645
C6 C 0.19057(9) 0.2033(4) 0.68308(9)
H8 H 0.2046 0.1856 0.6542
C7 C 0.20452(9) 0.3824(4) 0.71947(10)
H9 H 0.2279 0.4862 0.7155
O1 O 0.21268(6) -0.0890(2) 0.85885(6)
O2 O 0.16627(6) 0.5827(3) 0.92248(7)
C8 C 0.12564(7) 0.2849(3) 0.81571(7)
H10 H 0.1175 0.4413 0.8161
C9 C 0.07331(7) 0.1607(3) 0.80082(8)
H11 H 0.0499 0.2207 0.7635
C10 C 0.04558(7) 0.1998(3) 0.84273(8)
C11 C -0.01631(8) 0.2763(4) 0.91074(10)
C12 C -0.05226(11) 0.3128(6) 0.94380(12)
H12 H -0.0669 0.1752 0.9492
H13 H -0.0802 0.4105 0.9223
H14 H -0.0326 0.3761 0.9811
C13 C 0.04097(8) 0.0431(4) 0.88078(10)
H15 H 0.0584 -0.0902 0.8842
C14 C 0.01044(9) 0.0828(4) 0.91410(10)
H16 H 0.0080 -0.0253 0.9396
C15 C 0.13407(8) 0.0721(3) 0.73161(8)
C16 C 0.18325(8) 0.4056(4) 0.76192(9)
H17 H 0.1927 0.5262 0.7866
C17 C 0.14816(7) 0.2531(3) 0.76855(7)
C18 C 0.35196(8) 0.2901(4) 0.96572(10)
H18 H 0.3873 0.2512 0.9771
C19 C 0.31394(8) 0.1480(4) 0.93178(9)
H19 H 0.3230 0.0145 0.9198
C20 C 0.26191(7) 0.2102(3) 0.91615(8)
C21 C 0.21341(7) 0.0896(3) 0.88054(8)
C22 C 0.16621(7) 0.2278(3) 0.87752(7)
H20 H 0.1472 0.1484 0.8983
C23 C 0.19058(7) 0.4310(3) 0.91327(8)
C24 C 0.24854(7) 0.4076(3) 0.93432(7)
C25 C 0.28741(8) 0.5508(4) 0.96806(8)
H21 H 0.2787 0.6851 0.9800
C26 C 0.33894(8) 0.4878(4) 0.98321(9)
H22 H 0.3656 0.5809 1.0058
loop_
_geom_bond_atom_site_label_1
_geom_bond_atom_site_label_2
_geom_bond_site_symmetry_1
_geom_bond_site_symmetry_2
C1 H1 1_555 1_555
C2 C1 1_555 1_555
H2 C2 1_555 1_555
C3 H3 1_555 1_555
H4 C3 1_555 1_555
C4 C3 1_555 1_555
H5 C4 1_555 1_555
H6 C4 1_555 1_555
C5 H7 1_555 1_555
C6 C5 1_555 1_555
H8 C6 1_555 1_555
C7 C6 1_555 1_555
H9 C7 1_555 1_555
O1 C21 1_555 1_555
O2 C23 1_555 1_555
C8 H10 1_555 1_555
C9 C3 1_555 1_555
H11 C9 1_555 1_555
C10 C1 1_555 1_555
C11 C2 1_555 1_555
C12 C11 1_555 1_555
H12 C12 1_555 1_555
H13 C12 1_555 1_555
H14 C12 1_555 1_555
C13 C10 1_555 1_555
H15 C13 1_555 1_555
C14 C11 1_555 1_555
H16 C14 1_555 1_555
C15 C4 1_555 1_555
C16 C7 1_555 1_555
H17 C16 1_555 1_555
C17 C8 1_555 1_555
C18 H18 1_555 1_555
C19 C18 1_555 1_555
H19 C19 1_555 1_555
C20 C19 1_555 1_555
C21 C20 1_555 1_555
C22 C8 1_555 1_555
H20 C22 1_555 1_555
C23 C22 1_555 1_555
C24 C20 1_555 1_555
C25 C24 1_555 1_555
H21 C25 1_555 1_555
C26 C18 1_555 1_555
H22 C26 1_555 1_555
C5 C15 1_555 1_555
C8 C9 1_555 1_555
C9 C10 1_555 1_555
C13 C14 1_555 1_555
C15 C17 1_555 1_555
C16 C17 1_555 1_555
C21 C22 1_555 1_555
C23 C24 1_555 1_555
C25 C26 1_555 1_555

#END
