
#######################################################################
#
#                 Cambridge Crystallographic Data Centre
#                                CCDC 
#
#######################################################################
#
# If this CIF has been generated from an entry in the Cambridge 
# Structural Database, then it will include bibliographic, chemical, 
# crystal, experimental, refinement or atomic coordinate data resulting 
# from the CCDC's data processing and validation procedures.
#
#######################################################################

data_AJOGEN
_chemical_name_common            
"N,N'-pyridine-2,6-diylbis(2-methylpropanamide) 1,5,7-trimethyl-7-((4-(pyrimidin-5-yl)phenyl)ethynyl)-3-azabicyclo[3.3.1]nonane-2,4-dione"
_chemical_formula_moiety         'C23 H23 N3 O2,C13 H19 N3 O2'
_chemical_name_systematic        
"(1R,5S,7r)-1,5,7-Trimethyl-7-([4-(pyrimidin-5-yl)phenyl]ethynyl)-3-azabicyclo[3.3.1]nonane-2,4-dione  N,N'-(pyridine-2,6-diyl)bis(2-methylpropanamide)"
_symmetry_cell_setting           monoclinic
_symmetry_space_group_name_H-M   'P 21/c'
_symmetry_Int_Tables_number      14
_space_group_name_Hall           '-P 2ybc'
loop_
_symmetry_equiv_pos_site_id
_symmetry_equiv_pos_as_xyz
1 x,y,z
2 -x,1/2+y,1/2-z
3 -x,-y,-z
4 x,1/2-y,1/2+z
_cell_length_a                   14.4353(10)
_cell_length_b                   10.9291(8)
_cell_length_c                   21.2283(15)
_cell_angle_alpha                90
_cell_angle_beta                 94.001(2)
_cell_angle_gamma                90
_cell_volume                     3340.92
_exptl_crystal_colour            colorless
_exptl_crystal_description       plate
_cell_formula_units_Z            4
loop_
_atom_site_label
_atom_site_type_symbol
_atom_site_fract_x
_atom_site_fract_y
_atom_site_fract_z
O1 O 0.67261(7) 0.88962(9) 0.56288(5)
O2 O 0.89483(10) 0.26395(11) 0.69185(5)
N1 N 0.74018(8) 0.71864(11) 0.52383(5)
N2 N 0.81417(7) 0.55009(10) 0.56734(5)
N3 N 0.88773(8) 0.37284(10) 0.60034(5)
C1 C 0.58979(10) 0.95372(14) 0.44355(7)
H1 H 0.5365 0.9165 0.4624
H2 H 0.5737 0.9704 0.3988
H3 H 0.6063 1.0305 0.4654
C2 C 0.67186(9) 0.86651(13) 0.44990(6)
H4 H 0.6556 0.7916 0.4244
C3 C 0.69340(9) 0.82802(13) 0.51817(6)
C4 C 0.76442(9) 0.65095(12) 0.57832(6)
C5 C 0.83586(9) 0.47522(12) 0.61633(6)
C6 C 0.91242(10) 0.27341(13) 0.63686(6)
C7 C 0.96193(10) 0.17335(13) 0.60248(6)
H5 H 1.0046 0.2127 0.5734
C8 C 0.89014(12) 0.09764(15) 0.56302(8)
H6 H 0.9218 0.0339 0.5402
H7 H 0.8555 0.1510 0.5327
H8 H 0.8471 0.0595 0.5909
C9 C 1.01922(11) 0.09324(13) 0.64879(7)
H9 H 1.0626 0.1444 0.6748
H10 H 1.0542 0.0335 0.6255
H11 H 0.9779 0.0501 0.6760
C10 C 0.75823(10) 0.92408(15) 0.42465(7)
H12 H 0.7466 0.9411 0.3795
H13 H 0.8107 0.8675 0.4310
H14 H 0.7729 1.0006 0.4472
C11 C 0.73661(9) 0.68215(13) 0.63764(6)
H15 H 0.7023 0.7547 0.6440
C12 C 0.76078(9) 0.60373(13) 0.68683(6)
H16 H 0.7430 0.6225 0.7280
C13 C 0.81049(9) 0.49825(13) 0.67730(6)
H17 H 0.8268 0.4435 0.7110
H18 H 0.7569(10) 0.6847(14) 0.4876(6)
H19 H 0.9036(11) 0.3715(15) 0.5622(8)
O3 O 0.22272(7) 1.13580(10) 1.10237(5)
O4 O 0.04594(7) 0.82823(9) 1.02415(4)
N4 N 0.58498(8) 0.81760(11) 0.73197(5)
N5 N 0.12406(8) 0.98825(10) 1.06725(5)
C14 C 0.17531(9) 1.04800(13) 1.11499(6)
C15 C 0.16977(9) 0.99952(12) 1.18158(6)
C16 C 0.25355(9) 0.91430(12) 1.19676(6)
H20 H 0.2549 0.8921 1.2420
H21 H 0.3110 0.9608 1.1904
C17 C 0.25551(9) 0.79518(13) 1.15784(6)
C18 C 0.28903(9) 0.81649(13) 1.09442(6)
C19 C 0.31958(9) 0.82604(13) 1.04373(6)
C20 C 0.35967(9) 0.84306(13) 0.98384(6)
C21 C 0.36458(9) 0.74741(13) 0.94062(6)
H22 H 0.3388 0.6698 0.9495
C22 C 0.40708(9) 0.76568(13) 0.88478(6)
H23 H 0.4106 0.7001 0.8557
C23 C 0.44471(9) 0.87938(12) 0.87078(6)
C24 C 0.49089(9) 0.89700(12) 0.81136(6)
C25 C 0.48130(9) 1.00325(13) 0.77580(6)
H24 H 0.4459 1.0687 0.7912
N6 N 0.51984(8) 1.01756(11) 0.72053(5)
C26 C 0.56890(9) 0.92264(13) 0.70142(6)
H25 H 0.5951 0.9310 0.6618
C27 C 0.07954(9) 0.87717(12) 1.07209(6)
C28 C 0.07527(9) 0.82311(12) 1.13762(6)
C29 C 0.15844(9) 0.73596(12) 1.15235(6)
H26 H 0.1490 0.6934 1.1926
H27 H 0.1576 0.6730 1.1188
C30 C 0.32448(10) 0.70672(14) 1.19260(7)
H28 H 0.3265 0.6299 1.1689
H29 H 0.3044 0.6901 1.2349
H30 H 0.3864 0.7438 1.1961
C31 C 0.39596(9) 0.95668(13) 0.96946(6)
H31 H 0.3920 1.0226 0.9983
C32 C 0.43782(9) 0.97477(13) 0.91352(6)
H32 H 0.4621 1.0530 0.9042
C33 C 0.54601(9) 0.80666(13) 0.78711(6)
H33 H 0.5566 0.7336 0.8108
C34 C 0.08020(9) 0.92700(12) 1.18561(6)
H34 H 0.0776 0.8930 1.2287
H35 H 0.0262 0.9820 1.1774
C35 C 0.17399(10) 1.10703(13) 1.22779(6)
H36 H 0.2309 1.1541 1.2230
H37 H 0.1740 1.0760 1.2711
H38 H 0.1199 1.1599 1.2188
C36 C -0.01400(9) 0.74928(13) 1.14082(6)
H39 H -0.0677 0.8040 1.1346
H40 H -0.0146 0.7098 1.1822
H41 H -0.0171 0.6867 1.1077
H42 H 0.1317(11) 1.0122(15) 1.0280(8)
loop_
_geom_bond_atom_site_label_1
_geom_bond_atom_site_label_2
_geom_bond_site_symmetry_1
_geom_bond_site_symmetry_2
O1 C3 1_555 1_555
O2 C6 1_555 1_555
N1 C3 1_555 1_555
N2 C4 1_555 1_555
N3 C5 1_555 1_555
C1 H1 1_555 1_555
H2 C1 1_555 1_555
H3 C1 1_555 1_555
C2 C1 1_555 1_555
H4 C2 1_555 1_555
C3 C2 1_555 1_555
C4 N1 1_555 1_555
C5 N2 1_555 1_555
C6 N3 1_555 1_555
C7 C6 1_555 1_555
H5 C7 1_555 1_555
C8 C7 1_555 1_555
H6 C8 1_555 1_555
H7 C8 1_555 1_555
H8 C8 1_555 1_555
C9 C7 1_555 1_555
H9 C9 1_555 1_555
H10 C9 1_555 1_555
H11 C9 1_555 1_555
C10 C2 1_555 1_555
H12 C10 1_555 1_555
H13 C10 1_555 1_555
H14 C10 1_555 1_555
C11 C4 1_555 1_555
H15 C11 1_555 1_555
C12 C11 1_555 1_555
H16 C12 1_555 1_555
C13 C5 1_555 1_555
H17 C13 1_555 1_555
H18 N1 1_555 1_555
H19 N3 1_555 1_555
O3 C14 1_555 1_555
O4 C27 1_555 1_555
N4 C26 1_555 1_555
N5 C14 1_555 1_555
C14 C15 1_555 1_555
C15 C16 1_555 1_555
C16 H20 1_555 1_555
H21 C16 1_555 1_555
C17 C16 1_555 1_555
C18 C17 1_555 1_555
C19 C18 1_555 1_555
C20 C19 1_555 1_555
C21 C20 1_555 1_555
H22 C21 1_555 1_555
C22 C21 1_555 1_555
H23 C22 1_555 1_555
C23 C22 1_555 1_555
C24 C23 1_555 1_555
C25 C24 1_555 1_555
H24 C25 1_555 1_555
N6 C25 1_555 1_555
C26 N6 1_555 1_555
H25 C26 1_555 1_555
C27 N5 1_555 1_555
C28 C27 1_555 1_555
C29 C17 1_555 1_555
H26 C29 1_555 1_555
H27 C29 1_555 1_555
C30 C17 1_555 1_555
H28 C30 1_555 1_555
H29 C30 1_555 1_555
H30 C30 1_555 1_555
C31 C20 1_555 1_555
H31 C31 1_555 1_555
C32 C23 1_555 1_555
H32 C32 1_555 1_555
C33 N4 1_555 1_555
H33 C33 1_555 1_555
C34 C15 1_555 1_555
H34 C34 1_555 1_555
H35 C34 1_555 1_555
C35 C15 1_555 1_555
H36 C35 1_555 1_555
H37 C35 1_555 1_555
H38 C35 1_555 1_555
C36 C28 1_555 1_555
H39 C36 1_555 1_555
H40 C36 1_555 1_555
H41 C36 1_555 1_555
H42 N5 1_555 1_555
C12 C13 1_555 1_555
C24 C33 1_555 1_555
C28 C29 1_555 1_555
C28 C34 1_555 1_555
C31 C32 1_555 1_555

#END
