
#######################################################################
#
#                 Cambridge Crystallographic Data Centre
#                                CCDC 
#
#######################################################################
#
# If this CIF has been generated from an entry in the Cambridge 
# Structural Database, then it will include bibliographic, chemical, 
# crystal, experimental, refinement or atomic coordinate data resulting 
# from the CCDC's data processing and validation procedures.
#
#######################################################################

data_AJOGIR
_chemical_name_common            
'2,6-bis(isobutyrylamino)-N-methylisonicotinamide 7-(9H-fluoren-2-ylethynyl)-1,5,7-trimethyl-3-azabicyclo[3.3.1]nonane-2,4-dione'
_chemical_formula_moiety         'C26 H25 N1 O2,C15 H22 N4 O3'
_chemical_name_systematic        
"(1R,5S,7r)-7-[(9H-Fluoren-2-yl)ethynyl]-1,5,7-trimethyl-3-azabicyclo[3.3.1]nonane-2,4-dione N,N'-(4-(methylcarbamoyl)pyridine-2,6-diyl)bis(2-methylpropanamide)"
_symmetry_cell_setting           monoclinic
_symmetry_space_group_name_H-M   'C 2/c'
_symmetry_Int_Tables_number      15
_space_group_name_Hall           '-C 2yn'
loop_
_symmetry_equiv_pos_site_id
_symmetry_equiv_pos_as_xyz
1 x,y,z
2 -x,y,1/2-z
3 1/2+x,1/2+y,z
4 1/2-x,1/2+y,1/2-z
5 -x,-y,-z
6 x,-y,1/2+z
7 1/2-x,1/2-y,-z
8 1/2+x,1/2-y,1/2+z
_cell_length_a                   41.76(3)
_cell_length_b                   8.655(7)
_cell_length_c                   23.39(3)
_cell_angle_alpha                90
_cell_angle_beta                 118.36(3)
_cell_angle_gamma                90
_cell_volume                     7439.28
_exptl_crystal_colour            colorless
_exptl_crystal_description       plate
_cell_formula_units_Z            8
loop_
_atom_site_label
_atom_site_type_symbol
_atom_site_fract_x
_atom_site_fract_y
_atom_site_fract_z
O1 O 0.30080(9) 0.4672(4) 0.21761(14)
N1 N 0.35768(10) 0.4614(4) 0.30115(16)
H1 H 0.3657(12) 0.497(5) 0.2744(19)
O2 O 0.41379(8) 0.5018(5) 0.38450(15)
C1 C 0.40118(14) 0.3087(8) 0.4690(3)
H2 H 0.4195 0.3847 0.4962
H3 H 0.4120 0.2351 0.4513
H4 H 0.3924 0.2532 0.4953
C2 C 0.36927(11) 0.3920(5) 0.41295(19)
C3 C 0.35727(11) 0.5281(5) 0.44204(19)
H5 H 0.3523 0.4863 0.4765
H6 H 0.3779 0.6012 0.4630
C4 C 0.32365(12) 0.6184(5) 0.3936(2)
C5 C 0.33316(12) 0.7281(5) 0.3548(2)
C6 C 0.34134(15) 0.8225(5) 0.3260(2)
C7 C 0.35263(16) 0.9307(5) 0.2919(3)
C8 C 0.38742(17) 0.9904(5) 0.3243(3)
H7 H 0.4037 0.9634 0.3680
C9 C 0.39773(14) 1.0981(6) 0.2873(3)
C10 C 0.43368(15) 1.1716(7) 0.3114(3)
H8 H 0.4533 1.0943 0.3236
H9 H 0.4394 1.2406 0.3488
C11 C 0.42720(16) 1.2631(6) 0.2503(3)
C12 C 0.45147(15) 1.3548(6) 0.2438(2)
H10 H 0.4752 1.3670 0.2794
C13 C 0.44249(15) 1.4312(6) 0.1862(3)
H11 H 0.4598 1.4963 0.1827
C14 C 0.32083(12) 0.4380(5) 0.27509(19)
C15 C 0.38269(12) 0.4575(5) 0.3668(2)
C16 C 0.30872(16) 0.7193(6) 0.4311(3)
H12 H 0.3273 0.7941 0.4586
H13 H 0.3026 0.6526 0.4584
H14 H 0.2869 0.7745 0.4000
C17 C 0.37243(14) 1.1297(5) 0.2240(2)
C18 C 0.33853(16) 1.0760(6) 0.1923(3)
H15 H 0.3223 1.1054 0.1488
C19 C 0.32848(19) 0.9752(6) 0.2264(3)
H16 H 0.3046 0.9336 0.2057
C20 C 0.39303(16) 1.2413(6) 0.2004(3)
C21 C 0.38220(15) 1.3141(7) 0.1397(3)
H17 H 0.3586 1.2980 0.1043
C22 C 0.40771(17) 1.4120(6) 0.1331(3)
H18 H 0.4012 1.4636 0.0933
C23 C 0.29335(11) 0.5053(5) 0.3481(2)
H19 H 0.2819 0.4590 0.3727
H20 H 0.2744 0.5652 0.3118
C24 C 0.30641(12) 0.3735(5) 0.31959(19)
C25 C 0.33735(12) 0.2861(5) 0.3757(2)
H21 H 0.3286 0.2448 0.4053
H22 H 0.3451 0.1977 0.3583
C26 C 0.27438(16) 0.2648(7) 0.2783(2)
H23 H 0.2832 0.1783 0.2625
H24 H 0.2557 0.3219 0.2413
H25 H 0.2639 0.2250 0.3050
O3 O 0.37705(8) 1.0218(4) 0.04197(15)
O4 O 0.30348(8) 0.5988(4) 0.01928(13)
N2 N 0.38122(10) 0.6634(4) 0.21365(15)
N3 N 0.32329(10) 0.6091(4) 0.12944(16)
H26 H 0.3178(12) 0.582(5) 0.1608(17)
N4 N 0.43819(11) 1.0013(4) 0.10599(19)
H27 H 0.4592(9) 0.954(5) 0.1368(19)
C27 C 0.4680(4) 0.7468(19) 0.3455(5)
C28 C 0.41361(12) 0.7342(5) 0.23679(18)
C29 C 0.35694(11) 0.6862(5) 0.15000(18)
C30 C 0.29806(11) 0.5740(5) 0.06599(18)
C31 C 0.26254(12) 0.5043(5) 0.0583(2)
H28 H 0.2688 0.4086 0.0855
C32 C 0.23707(12) 0.4576(6) -0.0128(2)
H29 H 0.2314 0.5487 -0.0408
H30 H 0.2145 0.4146 -0.0163
H31 H 0.2491 0.3797 -0.0264
C33 C 0.24341(13) 0.6157(6) 0.0833(2)
H32 H 0.2597 0.6401 0.1290
H33 H 0.2212 0.5674 0.0791
H34 H 0.2371 0.7111 0.0576
C34 C 0.50325(16) 0.5374(6) 0.4195(3)
H35 H 0.5245 0.5581 0.4134
H36 H 0.4869 0.4653 0.3860
H37 H 0.5113 0.4918 0.4625
C35 C 0.42343(12) 0.8317(5) 0.19964(19)
H38 H 0.4468 0.8786 0.2176
C36 C 0.39711(11) 0.8564(4) 0.13465(18)
C37 C 0.40354(12) 0.9668(5) 0.0904(2)
C38 C 0.44627(14) 1.1100(6) 0.0668(2)
H39 H 0.4363 1.0707 0.0223
H40 H 0.4727 1.1219 0.0856
H41 H 0.4353 1.2104 0.0663
C39 C 0.36379(11) 0.7836(5) 0.10979(18)
H42 H 0.3458 0.7997 0.0659
C40 C 0.5045(3) 0.8089(10) 0.4628(4)
H43 H 0.5113 0.7721 0.5067
H44 H 0.4895 0.9018 0.4535
H45 H 0.5266 0.8334 0.4598
C41 C 0.4835(3) 0.6855(10) 0.4144(4)
H46 H 0.4623 0.6590 0.4213
O5 O 0.4858(4) 0.8354(17) 0.3291(5)
N5 N 0.4339(4) 0.698(3) 0.3034(8)
H47 H 0.4233 0.6368 0.3195
N6? N 0.4406(5) 0.711(4) 0.3038(10)
H48? H 0.4329 0.6575 0.3268
O6? O 0.4909(4) 0.838(2) 0.3126(7)
C42? C 0.4825(4) 0.7834(14) 0.4495(6)
H49? H 0.4772 0.8922 0.4369
H50? H 0.5006 0.7768 0.4955
H51? H 0.4601 0.7309 0.4425
C43? C 0.4972(4) 0.7070(11) 0.4088(5)
H52? H 0.5221 0.7518 0.4247
H53? H 0.5211 0.5178 0.4650
H54? H 0.5124 0.4961 0.3911
H55? H 0.4802 0.4867 0.4096
C44? C 0.4758(4) 0.758(3) 0.3377(7)
loop_
_geom_bond_atom_site_label_1
_geom_bond_atom_site_label_2
_geom_bond_site_symmetry_1
_geom_bond_site_symmetry_2
O1 C14 1_555 1_555
N1 H1 1_555 1_555
O2 C15 1_555 1_555
C1 H2 1_555 1_555
H3 C1 1_555 1_555
H4 C1 1_555 1_555
C2 C1 1_555 1_555
C3 C2 1_555 1_555
H5 C3 1_555 1_555
H6 C3 1_555 1_555
C4 C3 1_555 1_555
C5 C4 1_555 1_555
C6 C5 1_555 1_555
C7 C6 1_555 1_555
C8 C7 1_555 1_555
H7 C8 1_555 1_555
C9 C8 1_555 1_555
C10 C9 1_555 1_555
H8 C10 1_555 1_555
H9 C10 1_555 1_555
C11 C10 1_555 1_555
C12 C11 1_555 1_555
H10 C12 1_555 1_555
C13 C12 1_555 1_555
H11 C13 1_555 1_555
C14 N1 1_555 1_555
C15 N1 1_555 1_555
C16 C4 1_555 1_555
H12 C16 1_555 1_555
H13 C16 1_555 1_555
H14 C16 1_555 1_555
C17 C9 1_555 1_555
C18 C17 1_555 1_555
H15 C18 1_555 1_555
C19 C7 1_555 1_555
H16 C19 1_555 1_555
C20 C11 1_555 1_555
C21 C20 1_555 1_555
H17 C21 1_555 1_555
C22 C13 1_555 1_555
H18 C22 1_555 1_555
C23 C4 1_555 1_555
H19 C23 1_555 1_555
H20 C23 1_555 1_555
C24 C14 1_555 1_555
C25 C2 1_555 1_555
H21 C25 1_555 1_555
H22 C25 1_555 1_555
C26 C24 1_555 1_555
H23 C26 1_555 1_555
H24 C26 1_555 1_555
H25 C26 1_555 1_555
O3 C37 1_555 1_555
O4 C30 1_555 1_555
N2 C28 1_555 1_555
N3 H26 1_555 1_555
N4 H27 1_555 1_555
C27 C41 1_555 1_555
C28 C35 1_555 1_555
C29 N2 1_555 1_555
C30 N3 1_555 1_555
C31 C30 1_555 1_555
H28 C31 1_555 1_555
C32 C31 1_555 1_555
H29 C32 1_555 1_555
H30 C32 1_555 1_555
H31 C32 1_555 1_555
C33 C31 1_555 1_555
H32 C33 1_555 1_555
H33 C33 1_555 1_555
H34 C33 1_555 1_555
C34 H35 1_555 1_555
H36 C34 1_555 1_555
H37 C34 1_555 1_555
C35 H38 1_555 1_555
C36 C35 1_555 1_555
C37 N4 1_555 1_555
C38 N4 1_555 1_555
H39 C38 1_555 1_555
H40 C38 1_555 1_555
H41 C38 1_555 1_555
C39 C29 1_555 1_555
H42 C39 1_555 1_555
C40 H43 1_555 1_555
H44 C40 1_555 1_555
H45 C40 1_555 1_555
C41 C34 1_555 1_555
H46 C41 1_555 1_555
O5 C27 1_555 1_555
N5 C27 1_555 1_555
H47 N5 1_555 1_555
C2 C15 1_555 1_555
C17 C20 1_555 1_555
C18 C19 1_555 1_555
C21 C22 1_555 1_555
C23 C24 1_555 1_555
C24 C25 1_555 1_555
N3 C29 1_555 1_555
C28 N5 1_555 1_555
C36 C37 1_555 1_555
C36 C39 1_555 1_555
C40 C41 1_555 1_555

#END
