
#######################################################################
#
#                 Cambridge Crystallographic Data Centre
#                                CCDC 
#
#######################################################################
#
# If this CIF has been generated from an entry in the Cambridge 
# Structural Database, then it will include bibliographic, chemical, 
# crystal, experimental, refinement or atomic coordinate data resulting 
# from the CCDC's data processing and validation procedures.
#
#######################################################################

data_AJOHAK
_chemical_name_common            
'2,6-bis(isobutyrylamino)-N-methylisonicotinamide hydrate'
_chemical_formula_moiety         'C15 H22 N4 O3,0.09(H2 O1)'
_chemical_name_systematic        
"N,N'-(4-(Methylcarbamoyl)pyridine-2,6-diyl)bis(2-methylpropanamide) hydrate"
_symmetry_cell_setting           monoclinic
_symmetry_space_group_name_H-M   'P 21/c'
_symmetry_Int_Tables_number      14
_space_group_name_Hall           '-P 2ybc'
loop_
_symmetry_equiv_pos_site_id
_symmetry_equiv_pos_as_xyz
1 x,y,z
2 -x,1/2+y,1/2-z
3 -x,-y,-z
4 x,1/2-y,1/2+z
_cell_length_a                   4.7690(4)
_cell_length_b                   26.269(2)
_cell_length_c                   13.2434(12)
_cell_angle_alpha                90
_cell_angle_beta                 95.801(2)
_cell_angle_gamma                90
_cell_volume                     1650.6
_exptl_crystal_colour            colorless
_exptl_crystal_description       prism
_cell_formula_units_Z            4
loop_
_atom_site_label
_atom_site_type_symbol
_atom_site_fract_x
_atom_site_fract_y
_atom_site_fract_z
O1 O 0.0323(2) 0.74581(4) 0.46324(7)
O2 O 0.7473(2) 0.87618(3) 0.20545(7)
O3 O 0.04288(18) 0.60636(3) 0.22041(7)
N1 N -0.0010(2) 0.82436(4) 0.39544(8)
H1 H -0.005(4) 0.8434(7) 0.3361(14)
N2 N 0.5766(2) 0.72158(4) 0.16636(7)
N3 N 0.7218(2) 0.80026(4) 0.12180(8)
H2 H 0.791(4) 0.7830(7) 0.0739(14)
N4 N 0.4755(2) 0.63831(4) 0.20039(8)
H3 H 0.651(4) 0.6310(6) 0.1899(12)
C1 C 0.0800(2) 0.77560(5) 0.39596(9)
C2 C 0.2464(2) 0.75859(5) 0.31083(8)
C3 C 0.3973(2) 0.79230(5) 0.25566(9)
H4 H 0.3901 0.8280 0.2664
C4 C 0.5597(2) 0.77142(5) 0.18389(8)
C5 C 0.4273(2) 0.69040(4) 0.21940(9)
C6 C -0.1679(3) 0.84376(5) 0.47312(10)
H5 H -0.3551 0.8280 0.4651
H6 H -0.1869 0.8808 0.4662
H7 H -0.0740 0.8355 0.5404
C7 C 0.8011(2) 0.84996(5) 0.13321(9)
C8 C 0.9585(3) 0.87066(5) 0.04752(9)
H8 H 1.1138 0.8464 0.0360
C9 C 0.7574(3) 0.87363(6) -0.04978(10)
H9 H 0.5990 0.8960 -0.0388
H10 H 0.6864 0.8395 -0.0681
H11 H 0.8580 0.8873 -0.1048
C10 C 1.0887(3) 0.92216(5) 0.07626(12)
H12 H 0.9395 0.9463 0.0890
H13 H 1.1903 0.9348 0.0206
H14 H 1.2200 0.9186 0.1377
C11 C 0.2898(2) 0.59982(5) 0.20497(9)
C12 C 0.4034(3) 0.54685(5) 0.18787(11)
H15 H 0.6094 0.5490 0.1800
C13 C 0.2486(5) 0.52508(8) 0.09196(15)
H16 H 0.0470 0.5227 0.1000
H17 H 0.3223 0.4911 0.0794
H18 H 0.2765 0.5473 0.0344
C14 C 0.3584(5) 0.51391(7) 0.27853(16)
H19 H 0.4698 0.5273 0.3389
H20 H 0.4181 0.4790 0.2659
H21 H 0.1582 0.5141 0.2895
C15 C 0.2576(2) 0.70665(5) 0.29243(9)
H22 H 0.1533 0.6831 0.3283
O4 O 0.248(2) 0.9128(4) 0.3222(9)
H23 H 0.2378 0.9277 0.3804
H24 H 0.0807 0.9105 0.2899
loop_
_geom_bond_atom_site_label_1
_geom_bond_atom_site_label_2
_geom_bond_site_symmetry_1
_geom_bond_site_symmetry_2
O1 C1 1_555 1_555
O2 C7 1_555 1_555
O3 C11 1_555 1_555
N1 H1 1_555 1_555
N2 C4 1_555 1_555
N3 H2 1_555 1_555
N4 H3 1_555 1_555
C1 N1 1_555 1_555
C2 C1 1_555 1_555
C3 C2 1_555 1_555
H4 C3 1_555 1_555
C4 N3 1_555 1_555
C5 N2 1_555 1_555
C6 N1 1_555 1_555
H5 C6 1_555 1_555
H6 C6 1_555 1_555
H7 C6 1_555 1_555
C7 N3 1_555 1_555
C8 C7 1_555 1_555
H8 C8 1_555 1_555
C9 C8 1_555 1_555
H9 C9 1_555 1_555
H10 C9 1_555 1_555
H11 C9 1_555 1_555
C10 C8 1_555 1_555
H12 C10 1_555 1_555
H13 C10 1_555 1_555
H14 C10 1_555 1_555
C11 N4 1_555 1_555
C12 C11 1_555 1_555
H15 C12 1_555 1_555
C13 C12 1_555 1_555
H16 C13 1_555 1_555
H17 C13 1_555 1_555
H18 C13 1_555 1_555
C14 C12 1_555 1_555
H19 C14 1_555 1_555
H20 C14 1_555 1_555
H21 C14 1_555 1_555
C15 C2 1_555 1_555
H22 C15 1_555 1_555
O4 H23 1_555 1_555
H24 O4 1_555 1_555
N4 C5 1_555 1_555
C3 C4 1_555 1_555
C5 C15 1_555 1_555

#END
