
#######################################################################
#
#                 Cambridge Crystallographic Data Centre
#                                CCDC 
#
#######################################################################
#
# If this CIF has been generated from an entry in the Cambridge 
# Structural Database, then it will include bibliographic, chemical, 
# crystal, experimental, refinement or atomic coordinate data resulting 
# from the CCDC's data processing and validation procedures.
#
#######################################################################

data_AJOHIS
_chemical_formula_moiety         'C19 H23 N3 O2'
_chemical_name_systematic        
N,N'-(4-phenylpyridine-2,6-diyl)bis(2-methylpropanamide)
_symmetry_cell_setting           tetragonal
_symmetry_space_group_name_H-M   'P 43 21 2'
_symmetry_Int_Tables_number      96
_space_group_name_Hall           'P 4nw 2abw'
loop_
_symmetry_equiv_pos_site_id
_symmetry_equiv_pos_as_xyz
1 x,y,z
2 1/2-y,1/2+x,3/4+z
3 1/2+y,1/2-x,1/4+z
4 1/2+x,1/2-y,1/4-z
5 1/2-x,1/2+y,3/4-z
6 -x,-y,1/2+z
7 y,x,-z
8 -y,-x,1/2-z
_cell_length_a                   9.2218(3)
_cell_length_b                   9.2218(3)
_cell_length_c                   21.3863(9)
_cell_angle_alpha                90
_cell_angle_beta                 90
_cell_angle_gamma                90
_cell_volume                     1818.73
_exptl_crystal_colour            colorless
_exptl_crystal_description       prism
_cell_formula_units_Z            4
loop_
_atom_site_label
_atom_site_type_symbol
_atom_site_fract_x
_atom_site_fract_y
_atom_site_fract_z
O1 O 0.39621(12) 0.68483(13) 0.16090(5)
N1 N 0.59789(15) 0.70696(14) 0.10047(6)
H1 H 0.6849 0.7461 0.0991
N2 N 0.64064(14) 0.64064(14) 0.0000
C1 C 0.4757(2) 0.9931(2) 0.18735(11)
H2 H 0.4672 1.0228 0.1435
H3 H 0.5166 1.0729 0.2119
H4 H 0.3795 0.9682 0.2037
C2 C 0.57477(17) 0.86147(18) 0.19197(8)
H5 H 0.6732 0.8887 0.1762
C3 C 0.51385(17) 0.74237(17) 0.15071(7)
C4 C 0.56054(17) 0.61475(17) 0.05067(7)
C5 C 0.5886(3) 0.8086(2) 0.25912(9)
H6 H 0.6194 0.8891 0.2859
H7 H 0.6607 0.7307 0.2611
H8 H 0.4946 0.7720 0.2735
C6 C 0.45451(16) 0.50785(17) 0.05385(7)
H9 H 0.4024 0.4904 0.0914
C7 C 0.42722(16) 0.42722(16) 0.0000
C8 C 0.31266(17) 0.31266(17) 0.0000
C9 C 0.28313(18) 0.23356(18) 0.05407(8)
H10 H 0.3360 0.2527 0.0913
C10 C 0.17665(19) 0.12676(19) 0.05382(9)
H11 H 0.1575 0.0730 0.0908
C11 C 0.09843(19) 0.09843(19) 0.0000
H12 H 0.0256 0.0256 0.0000
O1F O 0.68483(13) 0.39621(12) -0.16090(5)
N1F N 0.70696(14) 0.59789(15) -0.10047(6)
H1F H 0.7461 0.6849 -0.0991
C1F C 0.9931(2) 0.4757(2) -0.18735(11)
H2F H 1.0228 0.4672 -0.1435
H3F H 1.0729 0.5166 -0.2119
H4F H 0.9682 0.3795 -0.2037
C2F C 0.86147(18) 0.57477(17) -0.19197(8)
H5F H 0.8887 0.6732 -0.1762
C3F C 0.74237(17) 0.51385(17) -0.15071(7)
C4F C 0.61475(17) 0.56054(17) -0.05067(7)
C5F C 0.8086(2) 0.5886(3) -0.25912(9)
H6F H 0.8891 0.6194 -0.2859
H7F H 0.7307 0.6607 -0.2611
H8F H 0.7720 0.4946 -0.2735
C6F C 0.50785(17) 0.45451(16) -0.05385(7)
H9F H 0.4904 0.4024 -0.0914
C9F C 0.23356(18) 0.28313(18) -0.05407(8)
H10F H 0.2527 0.3360 -0.0913
C10F C 0.12676(19) 0.17665(19) -0.05382(9)
H11F H 0.0730 0.1575 -0.0908
loop_
_geom_bond_atom_site_label_1
_geom_bond_atom_site_label_2
_geom_bond_site_symmetry_1
_geom_bond_site_symmetry_2
O1 C3 1_555 1_555
N1 H1 1_555 1_555
N2 C4 1_555 1_555
C1 H2 1_555 1_555
H3 C1 1_555 1_555
H4 C1 1_555 1_555
C2 C1 1_555 1_555
H5 C2 1_555 1_555
C3 N1 1_555 1_555
C4 N1 1_555 1_555
C5 C2 1_555 1_555
H6 C5 1_555 1_555
H7 C5 1_555 1_555
H8 C5 1_555 1_555
C6 C4 1_555 1_555
H9 C6 1_555 1_555
C7 C6 1_555 1_555
C8 C7 1_555 1_555
C9 C8 1_555 1_555
H10 C9 1_555 1_555
C10 C9 1_555 1_555
H11 C10 1_555 1_555
C11 C10 1_555 1_555
H12 C11 1_555 1_555
O1F C3F 1_555 1_555
N1F H1F 1_555 1_555
C1F H2F 1_555 1_555
H3F C1F 1_555 1_555
H4F C1F 1_555 1_555
C2F C1F 1_555 1_555
H5F C2F 1_555 1_555
C3F N1F 1_555 1_555
C4F N2 1_555 1_555
C5F C2F 1_555 1_555
H6F C5F 1_555 1_555
H7F C5F 1_555 1_555
H8F C5F 1_555 1_555
C6F C7 1_555 1_555
H9F C6F 1_555 1_555
C9F C8 1_555 1_555
H10F C9F 1_555 1_555
C10F C11 1_555 1_555
H11F C10F 1_555 1_555
C2 C3 1_555 1_555
N1F C4F 1_555 1_555
C2F C3F 1_555 1_555
C4F C6F 1_555 1_555
C9F C10F 1_555 1_555

#END
