
#######################################################################
#
#                 Cambridge Crystallographic Data Centre
#                                CCDC 
#
#######################################################################
#
# If this CIF has been generated from an entry in the Cambridge 
# Structural Database, then it will include bibliographic, chemical, 
# crystal, experimental, refinement or atomic coordinate data resulting 
# from the CCDC's data processing and validation procedures.
#
#######################################################################

data_AJOJEQ
_chemical_formula_moiety         'C10 H8 N4 O1'
_chemical_name_systematic        '2-Azido-3-methylquinoline 1-oxide'
_symmetry_cell_setting           orthorhombic
_symmetry_space_group_name_H-M   'P b c a'
_symmetry_Int_Tables_number      61
_space_group_name_Hall           '-P 2ac 2ab'
loop_
_symmetry_equiv_pos_site_id
_symmetry_equiv_pos_as_xyz
1 x,y,z
2 1/2-x,-y,1/2+z
3 -x,1/2+y,1/2-z
4 1/2+x,1/2-y,-z
5 -x,-y,-z
6 1/2+x,y,1/2-z
7 x,1/2-y,1/2+z
8 1/2-x,1/2+y,z
_cell_length_a                   7.008(2)
_cell_length_b                   13.515(4)
_cell_length_c                   19.467(6)
_cell_angle_alpha                90
_cell_angle_beta                 90
_cell_angle_gamma                90
_cell_volume                     1843.78
_exptl_crystal_colour            yellow
_exptl_crystal_description       block
_cell_formula_units_Z            8
loop_
_atom_site_label
_atom_site_type_symbol
_atom_site_fract_x
_atom_site_fract_y
_atom_site_fract_z
O1 O 0.0683(3) 0.78158(12) 0.19251(10)
C1 C 0.1284(3) 1.04104(18) 0.15404(14)
C2 C 0.1438(4) 1.07924(18) 0.21831(14)
H1 H 0.1648 1.1467 0.2239
C3 C 0.1284(3) 1.01817(18) 0.27677(13)
C4 C 0.1368(4) 1.0548(2) 0.34461(15)
H2 H 0.1550 1.1221 0.3520
C5 C 0.1187(4) 0.9932(2) 0.39918(15)
H3 H 0.1243 1.0187 0.4435
C6 C 0.0918(4) 0.8918(2) 0.38948(15)
H4 H 0.0789 0.8506 0.4275
C7 C 0.0841(4) 0.8520(2) 0.32491(14)
H5 H 0.0683 0.7843 0.3187
C8 C 0.1005(3) 0.91550(18) 0.26823(13)
C9 C 0.1004(3) 0.93783(18) 0.14685(13)
C10 C 0.1353(5) 1.1043(2) 0.09031(15)
H6 H 0.1671 1.1710 0.1027
H7 H 0.0130 1.1033 0.0681
H8 H 0.2303 1.0788 0.0595
N1 N 0.0897(3) 0.87714(14) 0.20150(11)
N2 N 0.0890(3) 0.90011(17) 0.08055(12)
N3 N 0.0239(4) 0.81593(19) 0.06942(12)
N4 N -0.0332(5) 0.7464(2) 0.04487(14)
loop_
_geom_bond_atom_site_label_1
_geom_bond_atom_site_label_2
_geom_bond_site_symmetry_1
_geom_bond_site_symmetry_2
O1 N1 1_555 1_555
C1 C2 1_555 1_555
C2 H1 1_555 1_555
C3 C2 1_555 1_555
C4 C3 1_555 1_555
H2 C4 1_555 1_555
C5 C4 1_555 1_555
H3 C5 1_555 1_555
C6 C5 1_555 1_555
H4 C6 1_555 1_555
C7 C6 1_555 1_555
H5 C7 1_555 1_555
C8 C3 1_555 1_555
C9 C1 1_555 1_555
C10 C1 1_555 1_555
H6 C10 1_555 1_555
H7 C10 1_555 1_555
H8 C10 1_555 1_555
N1 C8 1_555 1_555
N2 C9 1_555 1_555
N3 N2 1_555 1_555
N4 N3 1_555 1_555
C7 C8 1_555 1_555
C9 N1 1_555 1_555

#END
