
#######################################################################
#
#                 Cambridge Crystallographic Data Centre
#                                CCDC 
#
#######################################################################
#
# If this CIF has been generated from an entry in the Cambridge 
# Structural Database, then it will include bibliographic, chemical, 
# crystal, experimental, refinement or atomic coordinate data resulting 
# from the CCDC's data processing and validation procedures.
#
#######################################################################

data_AJOPOE
_chemical_formula_moiety         'C12 H9 N3'
_chemical_name_systematic        2-(2-Pyridyl)benzimidazole
_symmetry_cell_setting           orthorhombic
_symmetry_space_group_name_H-M   'P b c a'
_symmetry_Int_Tables_number      61
_space_group_name_Hall           '-P 2ac 2ab'
loop_
_symmetry_equiv_pos_site_id
_symmetry_equiv_pos_as_xyz
1 x,y,z
2 1/2-x,-y,1/2+z
3 1/2+x,1/2-y,-z
4 -x,1/2+y,1/2-z
5 -x,-y,-z
6 1/2+x,y,1/2-z
7 1/2-x,1/2+y,z
8 x,1/2-y,1/2+z
_cell_length_a                   10.6204(7)
_cell_length_b                   10.1407(4)
_cell_length_c                   18.6327(8)
_cell_angle_alpha                90
_cell_angle_beta                 90
_cell_angle_gamma                90
_cell_volume                     2006.71
_exptl_crystal_colour            colorless
_exptl_crystal_description       needle
_chemical_melting_point          '216-219 deg.C'
_cell_formula_units_Z            8
_exptl_crystal_recrystallization_method methanol
loop_
_atom_site_label
_atom_site_type_symbol
_atom_site_fract_x
_atom_site_fract_y
_atom_site_fract_z
N1 N 0.2121(1) 0.3670(1) 0.6472(1)
N2 N 0.2417(1) 0.1484(1) 0.6520(1)
N3 N 0.3766(1) 0.1558(1) 0.5223(1)
C1 C 0.1646(2) 0.3187(2) 0.7124(1)
C2 C 0.1041(2) 0.3834(2) 0.7679(1)
C3 C 0.0626(2) 0.3108(2) 0.8250(1)
C4 C 0.0801(2) 0.1745(2) 0.8275(1)
C5 C 0.1406(2) 0.1072(2) 0.7732(1)
C6 C 0.1822(2) 0.1820(2) 0.7158(1)
C7 C 0.2566(2) 0.2620(2) 0.6141(1)
C8 C 0.3140(2) 0.2647(2) 0.5423(1)
C9 C 0.3018(2) 0.3752(2) 0.4997(1)
C10 C 0.3556(2) 0.3730(2) 0.4321(1)
C11 C 0.4201(2) 0.2627(2) 0.4101(1)
C12 C 0.4289(2) 0.1581(2) 0.4565(1)
loop_
_geom_bond_atom_site_label_1
_geom_bond_atom_site_label_2
_geom_bond_site_symmetry_1
_geom_bond_site_symmetry_2
N1 C1 1_555 1_555
N2 C6 1_555 1_555
N3 C8 1_555 1_555
C1 C2 1_555 1_555
C2 C3 1_555 1_555
C3 C4 1_555 1_555
C4 C5 1_555 1_555
C5 C6 1_555 1_555
C6 C1 1_555 1_555
C7 N1 1_555 1_555
C8 C7 1_555 1_555
C9 C8 1_555 1_555
C10 C9 1_555 1_555
C11 C10 1_555 1_555
C12 N3 1_555 1_555
N2 C7 1_555 1_555
C11 C12 1_555 1_555

#END
