
#######################################################################
#
#                 Cambridge Crystallographic Data Centre
#                                CCDC 
#
#######################################################################
#
# If this CIF has been generated from an entry in the Cambridge 
# Structural Database, then it will include bibliographic, chemical, 
# crystal, experimental, refinement or atomic coordinate data resulting 
# from the CCDC's data processing and validation procedures.
#
#######################################################################

data_AJOQUL02
_chemical_formula_moiety         'C7 H7 N3 O1'
_chemical_name_systematic        1H-Benzotriazol-1-ylmethanol
_symmetry_cell_setting           monoclinic
_symmetry_space_group_name_H-M   'P 21/c'
_symmetry_Int_Tables_number      14
_space_group_name_Hall           '-P 2ybc'
loop_
_symmetry_equiv_pos_site_id
_symmetry_equiv_pos_as_xyz
1 x,y,z
2 -x,1/2+y,1/2-z
3 -x,-y,-z
4 x,1/2-y,1/2+z
_cell_length_a                   7.503(2)
_cell_length_b                   9.923(3)
_cell_length_c                   9.413(3)
_cell_angle_alpha                90
_cell_angle_beta                 95.388(4)
_cell_angle_gamma                90
_cell_volume                     697.723
_exptl_crystal_colour            colorless
_exptl_crystal_description       block
_cell_formula_units_Z            4
loop_
_atom_site_label
_atom_site_type_symbol
_atom_site_fract_x
_atom_site_fract_y
_atom_site_fract_z
O1 O 0.71606(16) 0.47861(11) 0.09610(11)
H1 H 0.7316 0.4033 0.0636
N1 N 0.64372(17) 0.43177(12) 0.32971(14)
C1 C 0.7676(2) 0.41435(15) 0.54753(16)
C2 C 0.71434(18) 0.50740(14) 0.44156(15)
N2 N 0.72615(19) 0.28798(12) 0.49383(16)
N3 N 0.65334(19) 0.30035(12) 0.36372(16)
C3 C 0.7369(2) 0.64529(15) 0.46180(18)
H2 H 0.6998 0.7071 0.3909
C4 C 0.5792(2) 0.47396(18) 0.18401(18)
H3 H 0.4883 0.4113 0.1448
H4 H 0.5246 0.5624 0.1874
C5 C 0.8483(2) 0.45721(18) 0.67909(18)
H5 H 0.8846 0.3959 0.7508
C6 C 0.8720(2) 0.59234(18) 0.6987(2)
H6 H 0.9263 0.6237 0.7853
C7 C 0.8164(2) 0.68509(17) 0.5914(2)
H7 H 0.8343 0.7766 0.6090
loop_
_geom_bond_atom_site_label_1
_geom_bond_atom_site_label_2
_geom_bond_site_symmetry_1
_geom_bond_site_symmetry_2
O1 H1 1_555 1_555
N1 C2 1_555 1_555
C1 C2 1_555 1_555
C2 C3 1_555 1_555
N2 C1 1_555 1_555
N3 N1 1_555 1_555
C3 H2 1_555 1_555
C4 O1 1_555 1_555
H3 C4 1_555 1_555
H4 C4 1_555 1_555
C5 C1 1_555 1_555
H5 C5 1_555 1_555
C6 C5 1_555 1_555
H6 C6 1_555 1_555
C7 C3 1_555 1_555
H7 C7 1_555 1_555
N1 C4 1_555 1_555
N2 N3 1_555 1_555
C6 C7 1_555 1_555

#END
