
#######################################################################
#
#                 Cambridge Crystallographic Data Centre
#                                CCDC 
#
#######################################################################
#
# If this CIF has been generated from an entry in the Cambridge 
# Structural Database, then it will include bibliographic, chemical, 
# crystal, experimental, refinement or atomic coordinate data resulting 
# from the CCDC's data processing and validation procedures.
#
#######################################################################

data_AJOYON01
_chemical_formula_moiety         'C20 H26 O2'
_chemical_name_systematic        6\b,7\b-Methylene-4-androsten-3,17-dione
_symmetry_cell_setting           orthorhombic
_symmetry_space_group_name_H-M   'P 21 21 21'
_symmetry_Int_Tables_number      19
_space_group_name_Hall           'P 2ac 2ab'
loop_
_symmetry_equiv_pos_site_id
_symmetry_equiv_pos_as_xyz
1 x,y,z
2 1/2-x,-y,1/2+z
3 -x,1/2+y,1/2-z
4 1/2+x,1/2-y,-z
_cell_length_a                   10.2676(13)
_cell_length_b                   12.3328(16)
_cell_length_c                   12.7620(17)
_cell_angle_alpha                90
_cell_angle_beta                 90
_cell_angle_gamma                90
_cell_volume                     1616.03
_exptl_crystal_colour            colorless
_chemical_melting_point          185-187deg.C
_cell_formula_units_Z            4
loop_
_atom_site_label
_atom_site_type_symbol
_atom_site_fract_x
_atom_site_fract_y
_atom_site_fract_z
O1 O 0.8400(2) -0.44458(12) 0.85843(15)
O2 O 0.42223(18) 0.34335(16) 0.85649(16)
C1 C 0.6419(2) -0.21771(17) 0.9368(2)
H1 H 0.5805 -0.2042 0.9931
H2 H 0.5934 -0.2187 0.8716
C2 C 0.7033(3) -0.32777(19) 0.9534(2)
H3 H 0.7386 -0.3313 1.0238
H4 H 0.6365 -0.3830 0.9474
C3 C 0.8076(2) -0.35148(19) 0.87824(19)
C4 C 0.8708(2) -0.25855(17) 0.83116(17)
H5 H 0.9325 -0.2716 0.7793
C5 C 0.84696(19) -0.15572(16) 0.85660(15)
C6 C 0.9222(2) -0.06970(17) 0.80491(17)
C7 C 0.8832(2) 0.04699(17) 0.81456(17)
C8 C 0.7664(2) 0.07574(16) 0.88122(15)
C9 C 0.6724(2) -0.02068(17) 0.89134(17)
C10 C 0.7400(2) -0.12471(17) 0.93314(15)
C11 C 0.5496(2) 0.0091(2) 0.9533(2)
H6 H 0.4889 -0.0511 0.9500
H7 H 0.5731 0.0196 1.0262
C12 C 0.4819(2) 0.1107(2) 0.9137(2)
H8 H 0.4449 0.0967 0.8450
H9 H 0.4113 0.1296 0.9608
C13 C 0.5764(2) 0.20430(18) 0.90656(18)
C14 C 0.6911(2) 0.17053(17) 0.83621(17)
C15 C 0.7576(2) 0.27670(17) 0.8089(2)
H10 H 0.8098 0.2697 0.7459
H11 H 0.8127 0.3015 0.8658
C16 C 0.6426(2) 0.3537(2) 0.7916(2)
H12 H 0.6630 0.4257 0.8175
H13 H 0.6215 0.3587 0.7177
C17 C 0.5307(3) 0.3059(2) 0.85167(19)
C18 C 0.6189(3) 0.2423(2) 1.01576(19)
H14 H 0.5435 0.2622 1.0559
H15 H 0.6754 0.3040 1.0091
H16 H 0.6644 0.1847 1.0506
C19 C 0.7976(3) -0.1082(2) 1.04348(16)
H17 H 0.8555 -0.0471 1.0428
H18 H 0.8447 -0.1720 1.0639
H19 H 0.7284 -0.0952 1.0925
C20 C 1.0059(2) 0.01001(17) 0.86478(19)
H20 H 1.0074 0.0043 0.9406
H21 H 1.0875 0.0324 0.8332
H22 H 0.9576(19) -0.0900(16) 0.7386(15)
H23 H 0.893(2) 0.0864(15) 0.7528(15)
H24 H 0.798(2) 0.0988(15) 0.9494(16)
H25 H 0.6464(18) -0.0378(15) 0.8191(12)
H26 H 0.6500(18) 0.1464(15) 0.7725(16)
loop_
_geom_bond_atom_site_label_1
_geom_bond_atom_site_label_2
_geom_bond_site_symmetry_1
_geom_bond_site_symmetry_2
O1 C3 1_555 1_555
O2 C17 1_555 1_555
C1 H1 1_555 1_555
H2 C1 1_555 1_555
C2 C1 1_555 1_555
H3 C2 1_555 1_555
H4 C2 1_555 1_555
C3 C2 1_555 1_555
C4 C3 1_555 1_555
H5 C4 1_555 1_555
C5 C4 1_555 1_555
C6 C5 1_555 1_555
C7 C6 1_555 1_555
C8 C7 1_555 1_555
C9 C8 1_555 1_555
C10 C1 1_555 1_555
C11 C9 1_555 1_555
H6 C11 1_555 1_555
H7 C11 1_555 1_555
C12 C11 1_555 1_555
H8 C12 1_555 1_555
H9 C12 1_555 1_555
C13 C12 1_555 1_555
C14 C8 1_555 1_555
C15 C14 1_555 1_555
H10 C15 1_555 1_555
H11 C15 1_555 1_555
C16 C15 1_555 1_555
H12 C16 1_555 1_555
H13 C16 1_555 1_555
C17 C13 1_555 1_555
C18 C13 1_555 1_555
H14 C18 1_555 1_555
H15 C18 1_555 1_555
H16 C18 1_555 1_555
C19 C10 1_555 1_555
H17 C19 1_555 1_555
H18 C19 1_555 1_555
H19 C19 1_555 1_555
C20 C6 1_555 1_555
H20 C20 1_555 1_555
H21 C20 1_555 1_555
H22 C6 1_555 1_555
H23 C7 1_555 1_555
H24 C8 1_555 1_555
H25 C9 1_555 1_555
H26 C14 1_555 1_555
C5 C10 1_555 1_555
C7 C20 1_555 1_555
C9 C10 1_555 1_555
C13 C14 1_555 1_555
C16 C17 1_555 1_555

#END
