
#######################################################################
#
#                 Cambridge Crystallographic Data Centre
#                                CCDC 
#
#######################################################################
#
# If this CIF has been generated from an entry in the Cambridge 
# Structural Database, then it will include bibliographic, chemical, 
# crystal, experimental, refinement or atomic coordinate data resulting 
# from the CCDC's data processing and validation procedures.
#
#######################################################################

data_AJUFES
_chemical_formula_moiety         'C21 H17 N1 O1'
_chemical_name_systematic        
2-((2-(2-phenylvinyl)phenyl)carbonoimidoyl)phenol
_symmetry_cell_setting           orthorhombic
_symmetry_space_group_name_H-M   'P b c a'
_symmetry_Int_Tables_number      61
_space_group_name_Hall           '-P 2ac 2ab'
loop_
_symmetry_equiv_pos_site_id
_symmetry_equiv_pos_as_xyz
1 x,y,z
2 1/2-x,-y,1/2+z
3 -x,1/2+y,1/2-z
4 1/2+x,1/2-y,-z
5 -x,-y,-z
6 1/2+x,y,1/2-z
7 x,1/2-y,1/2+z
8 1/2-x,1/2+y,z
_cell_length_a                   9.2279(8)
_cell_length_b                   19.2898(18)
_cell_length_c                   36.199(3)
_cell_angle_alpha                90
_cell_angle_beta                 90
_cell_angle_gamma                90
_cell_volume                     6443.58
_cell_formula_units_Z            16
loop_
_atom_site_label
_atom_site_type_symbol
_atom_site_fract_x
_atom_site_fract_y
_atom_site_fract_z
N1 N 0.5958(3) 0.16053(14) 0.71860(7)
O1 O 0.7565(3) 0.26250(13) 0.69864(7)
H1 H 0.7029 0.2288 0.6968
C1 C 0.6250(4) 0.17773(17) 0.75167(10)
H2 H 0.5820 0.1525 0.7706
C2 C 0.7201(3) 0.23373(17) 0.76169(9)
C3 C 0.7820(4) 0.27567(19) 0.73476(10)
C4 C 0.8710(4) 0.33058(18) 0.74354(11)
H3 H 0.9115 0.3576 0.7250
C5 C 0.8993(4) 0.34500(19) 0.77992(13)
H4 H 0.9591 0.3820 0.7861
C6 C 0.8391(5) 0.3046(2) 0.80728(11)
H5 H 0.8586 0.3143 0.8319
C7 C 0.7509(4) 0.25018(19) 0.79831(9)
H6 H 0.7106 0.2236 0.8171
C8 C 0.4975(4) 0.10694(17) 0.70841(9)
C9 C 0.4482(4) 0.05700(19) 0.73336(9)
H7 H 0.4812 0.0575 0.7576
C10 C 0.3512(4) 0.00712(19) 0.72233(11)
H8 H 0.3197 -0.0262 0.7391
C11 C 0.3008(4) 0.00622(19) 0.68666(12)
H9 H 0.2338 -0.0270 0.6793
C12 C 0.3497(4) 0.05455(18) 0.66202(9)
H10 H 0.3143 0.0537 0.6380
C13 C 0.4505(3) 0.10483(16) 0.67168(9)
C14 C 0.5062(3) 0.15391(15) 0.64444(9)
H11 H 0.5766 0.1842 0.6532
C15 C 0.4731(3) 0.16164(15) 0.61040(10)
H12 H 0.3992 0.1330 0.6019
C16 C 0.5338(3) 0.20858(16) 0.58290(9)
C17 C 0.4853(4) 0.20573(17) 0.54658(9)
H13 H 0.4107 0.1755 0.5403
C18 C 0.5460(4) 0.24691(19) 0.51979(10)
H14 H 0.5117 0.2444 0.4957
C19 C 0.6560(4) 0.29141(18) 0.52810(11)
H15 H 0.6968 0.3190 0.5098
C20 C 0.7059(4) 0.29516(17) 0.56380(11)
H16 H 0.7815 0.3251 0.5696
C21 C 0.6446(4) 0.25467(16) 0.59120(9)
H17 H 0.6780 0.2583 0.6154
N2 N 0.4200(3) 0.50439(13) 0.57772(8)
O2 O 0.2358(3) 0.57134(12) 0.53879(7)
H18 H 0.2904 0.5623 0.5560
C22 C 0.4292(3) 0.46143(16) 0.55064(10)
H19 H 0.4962 0.4255 0.5523
C23 C 0.3408(3) 0.46627(16) 0.51793(9)
C24 C 0.2475(4) 0.52143(18) 0.51250(10)
C25 C 0.1655(4) 0.52728(18) 0.48054(11)
H20 H 0.1049 0.5652 0.4771
C26 C 0.1748(4) 0.4763(2) 0.45405(10)
H21 H 0.1196 0.4798 0.4326
C27 C 0.2643(4) 0.4208(2) 0.45892(10)
H22 H 0.2689 0.3862 0.4410
C28 C 0.3477(4) 0.41589(17) 0.49029(10)
H23 H 0.4098 0.3783 0.4932
C29 C 0.5101(3) 0.49810(17) 0.60959(9)
C30 C 0.5565(4) 0.43467(17) 0.62278(9)
H24 H 0.5267 0.3942 0.6111
C31 C 0.6461(4) 0.43091(19) 0.65299(10)
H25 H 0.6768 0.3879 0.6616
C32 C 0.6907(4) 0.4906(2) 0.67060(9)
H26 H 0.7542 0.4882 0.6905
C33 C 0.6401(4) 0.55388(18) 0.65841(9)
H27 H 0.6679 0.5939 0.6709
C34 C 0.5485(3) 0.55945(16) 0.62795(9)
C35 C 0.4977(3) 0.62653(16) 0.61498(8)
H28 H 0.4452 0.6259 0.5931
C36 C 0.5159(3) 0.68750(17) 0.62989(8)
H29 H 0.5666 0.6883 0.6521
C37 C 0.4663(3) 0.75491(16) 0.61600(8)
C38 C 0.3783(4) 0.76099(18) 0.58540(9)
H30 H 0.3462 0.7215 0.5732
C39 C 0.3379(4) 0.8261(2) 0.57295(10)
H31 H 0.2781 0.8298 0.5524
C40 C 0.3844(4) 0.88525(19) 0.59045(11)
H32 H 0.3577 0.9286 0.5815
C41 C 0.4694(4) 0.87994(18) 0.62076(11)
H33 H 0.5007 0.9196 0.6330
C42 C 0.5091(3) 0.81556(19) 0.63343(9)
H34 H 0.5668 0.8125 0.6544
loop_
_geom_bond_atom_site_label_1
_geom_bond_atom_site_label_2
_geom_bond_site_symmetry_1
_geom_bond_site_symmetry_2
N1 C1 1_555 1_555
O1 H1 1_555 1_555
C1 H2 1_555 1_555
C2 C1 1_555 1_555
C3 O1 1_555 1_555
C4 C3 1_555 1_555
H3 C4 1_555 1_555
C5 C4 1_555 1_555
H4 C5 1_555 1_555
C6 C5 1_555 1_555
H5 C6 1_555 1_555
C7 C2 1_555 1_555
H6 C7 1_555 1_555
C8 N1 1_555 1_555
C9 C8 1_555 1_555
H7 C9 1_555 1_555
C10 C9 1_555 1_555
H8 C10 1_555 1_555
C11 C10 1_555 1_555
H9 C11 1_555 1_555
C12 C11 1_555 1_555
H10 C12 1_555 1_555
C13 C8 1_555 1_555
C14 C13 1_555 1_555
H11 C14 1_555 1_555
C15 C14 1_555 1_555
H12 C15 1_555 1_555
C16 C15 1_555 1_555
C17 C16 1_555 1_555
H13 C17 1_555 1_555
C18 C17 1_555 1_555
H14 C18 1_555 1_555
C19 C18 1_555 1_555
H15 C19 1_555 1_555
C20 C19 1_555 1_555
H16 C20 1_555 1_555
C21 C16 1_555 1_555
H17 C21 1_555 1_555
N2 C22 1_555 1_555
O2 H18 1_555 1_555
C22 H19 1_555 1_555
C23 C22 1_555 1_555
C24 O2 1_555 1_555
C25 C24 1_555 1_555
H20 C25 1_555 1_555
C26 C25 1_555 1_555
H21 C26 1_555 1_555
C27 C26 1_555 1_555
H22 C27 1_555 1_555
C28 C23 1_555 1_555
H23 C28 1_555 1_555
C29 N2 1_555 1_555
C30 C29 1_555 1_555
H24 C30 1_555 1_555
C31 C30 1_555 1_555
H25 C31 1_555 1_555
C32 C31 1_555 1_555
H26 C32 1_555 1_555
C33 C32 1_555 1_555
H27 C33 1_555 1_555
C34 C29 1_555 1_555
C35 C34 1_555 1_555
H28 C35 1_555 1_555
C36 C35 1_555 1_555
H29 C36 1_555 1_555
C37 C36 1_555 1_555
C38 C37 1_555 1_555
H30 C38 1_555 1_555
C39 C38 1_555 1_555
H31 C39 1_555 1_555
C40 C39 1_555 1_555
H32 C40 1_555 1_555
C41 C40 1_555 1_555
H33 C41 1_555 1_555
C42 C37 1_555 1_555
H34 C42 1_555 1_555
C2 C3 1_555 1_555
C6 C7 1_555 1_555
C12 C13 1_555 1_555
C20 C21 1_555 1_555
C23 C24 1_555 1_555
C27 C28 1_555 1_555
C33 C34 1_555 1_555
C41 C42 1_555 1_555

#END
