
#######################################################################
#
#                 Cambridge Crystallographic Data Centre
#                                CCDC 
#
#######################################################################
#
# If this CIF has been generated from an entry in the Cambridge 
# Structural Database, then it will include bibliographic, chemical, 
# crystal, experimental, refinement or atomic coordinate data resulting 
# from the CCDC's data processing and validation procedures.
#
#######################################################################

data_AJUFIW
_chemical_formula_moiety         'C23 H21 N1 O3'
_chemical_name_systematic        
2-((2-(2-(3,4-dimethoxyphenyl)vinyl)phenyl)carbonoimidoyl)phenol
_symmetry_cell_setting           orthorhombic
_symmetry_space_group_name_H-M   'P b c n'
_symmetry_Int_Tables_number      60
_space_group_name_Hall           '-P 2n 2ab'
loop_
_symmetry_equiv_pos_site_id
_symmetry_equiv_pos_as_xyz
1 x,y,z
2 1/2-x,1/2-y,1/2+z
3 -x,y,1/2-z
4 1/2+x,1/2-y,-z
5 -x,-y,-z
6 1/2+x,1/2+y,1/2-z
7 x,-y,1/2+z
8 1/2-x,1/2+y,z
_cell_length_a                   23.892(2)
_cell_length_b                   6.3522(4)
_cell_length_c                   24.947(3)
_cell_angle_alpha                90
_cell_angle_beta                 90
_cell_angle_gamma                90
_cell_volume                     3786.13
_cell_formula_units_Z            8
loop_
_atom_site_label
_atom_site_type_symbol
_atom_site_fract_x
_atom_site_fract_y
_atom_site_fract_z
N1 N 0.58944(15) 0.8180(6) 0.78252(12)
O1 O 0.54288(15) 0.7411(6) 0.87359(12)
H1 H 0.5641 0.7229 0.8481
O2 O 0.61324(12) 0.2477(4) 1.00117(9)
O3 O 0.67002(11) -0.0916(5) 1.01753(11)
C1 C 0.56715(18) 1.0013(8) 0.78476(16)
H2 H 0.5757 1.0982 0.7580
C2 C 0.52978(19) 1.0631(9) 0.82643(19)
C3 C 0.5181(2) 0.9308(10) 0.8691(2)
C4 C 0.4803(3) 0.9900(11) 0.9088(2)
H3 H 0.4729 0.9025 0.9379
C5 C 0.4543(2) 1.1800(14) 0.9038(3)
H4 H 0.4275 1.2168 0.9292
C6 C 0.4656(2) 1.3189(10) 0.8637(3)
H5 H 0.4480 1.4494 0.8619
C7 C 0.5038(2) 1.2574(9) 0.82613(18)
H6 H 0.5129 1.3513 0.7989
C8 C 0.62630(18) 0.7567(7) 0.74084(16)
C9 C 0.62757(17) 0.8522(7) 0.69044(18)
H7 H 0.6043 0.9666 0.6837
C10 C 0.6625(2) 0.7804(8) 0.65062(16)
H8 H 0.6625 0.8448 0.6171
C11 C 0.69735(19) 0.6129(8) 0.66058(17)
H9 H 0.7218 0.5667 0.6341
C12 C 0.69623(17) 0.5138(6) 0.70931(17)
H10 H 0.7196 0.3990 0.7152
C13 C 0.66092(18) 0.5814(7) 0.75010(16)
C14 C 0.65868(15) 0.4750(7) 0.80206(15)
H11 H 0.6440 0.5523 0.8304
C15 C 0.67521(14) 0.2813(7) 0.81311(14)
H12 H 0.6896 0.2025 0.7849
C16 C 0.67300(15) 0.1799(7) 0.86536(15)
C17 C 0.64259(15) 0.2659(6) 0.90800(15)
H13 H 0.6224 0.3893 0.9026
C18 C 0.64175(17) 0.1719(7) 0.95804(16)
C19 C 0.67212(17) -0.0143(7) 0.96646(17)
C20 C 0.70062(16) -0.1050(6) 0.92434(18)
H14 H 0.7200 -0.2305 0.9294
C21 C 0.70042(15) -0.0085(7) 0.87440(16)
H15 H 0.7193 -0.0726 0.8462
C22 C 0.57479(17) 0.4147(7) 0.99187(15)
H16 H 0.5947 0.5367 0.9796
H17 H 0.5555 0.4476 1.0246
H18 H 0.5481 0.3725 0.9652
C23 C 0.70393(17) -0.2692(7) 1.02874(14)
H19 H 0.6922 -0.3855 1.0069
H20 H 0.7003 -0.3061 1.0659
H21 H 0.7423 -0.2363 1.0210
loop_
_geom_bond_atom_site_label_1
_geom_bond_atom_site_label_2
_geom_bond_site_symmetry_1
_geom_bond_site_symmetry_2
N1 C1 1_555 1_555
O1 H1 1_555 1_555
O2 C18 1_555 1_555
O3 C19 1_555 1_555
C1 H2 1_555 1_555
C2 C1 1_555 1_555
C3 O1 1_555 1_555
C4 C3 1_555 1_555
H3 C4 1_555 1_555
C5 C4 1_555 1_555
H4 C5 1_555 1_555
C6 C5 1_555 1_555
H5 C6 1_555 1_555
C7 C2 1_555 1_555
H6 C7 1_555 1_555
C8 N1 1_555 1_555
C9 C8 1_555 1_555
H7 C9 1_555 1_555
C10 C9 1_555 1_555
H8 C10 1_555 1_555
C11 C10 1_555 1_555
H9 C11 1_555 1_555
C12 C11 1_555 1_555
H10 C12 1_555 1_555
C13 C8 1_555 1_555
C14 C13 1_555 1_555
H11 C14 1_555 1_555
C15 C14 1_555 1_555
H12 C15 1_555 1_555
C16 C15 1_555 1_555
C17 C16 1_555 1_555
H13 C17 1_555 1_555
C18 C17 1_555 1_555
C19 C18 1_555 1_555
C20 C19 1_555 1_555
H14 C20 1_555 1_555
C21 C16 1_555 1_555
H15 C21 1_555 1_555
C22 O2 1_555 1_555
H16 C22 1_555 1_555
H17 C22 1_555 1_555
H18 C22 1_555 1_555
C23 O3 1_555 1_555
H19 C23 1_555 1_555
H20 C23 1_555 1_555
H21 C23 1_555 1_555
C2 C3 1_555 1_555
C6 C7 1_555 1_555
C12 C13 1_555 1_555
C20 C21 1_555 1_555

#END
