
#######################################################################
#
#                 Cambridge Crystallographic Data Centre
#                                CCDC 
#
#######################################################################
#
# If this CIF has been generated from an entry in the Cambridge 
# Structural Database, then it will include bibliographic, chemical, 
# crystal, experimental, refinement or atomic coordinate data resulting 
# from the CCDC's data processing and validation procedures.
#
#######################################################################

data_AJUGOC
_chemical_formula_moiety         'C14 H13 N3 O3'
_chemical_name_systematic        
3,3a,7,8-Tetrahydrocyclopenta[4,5][1,2,3]triazolo[5,1-a][1,3]dioxolo[4,5-g]isoquinolin-1(2H)-one
_symmetry_cell_setting           monoclinic
_symmetry_space_group_name_H-M   'P 21/c'
_symmetry_Int_Tables_number      14
_space_group_name_Hall           '-P 2ybc'
loop_
_symmetry_equiv_pos_site_id
_symmetry_equiv_pos_as_xyz
1 x,y,z
2 -x,1/2+y,1/2-z
3 -x,-y,-z
4 x,1/2-y,1/2+z
_cell_length_a                   13.632(2)
_cell_length_b                   6.6388(10)
_cell_length_c                   14.072(2)
_cell_angle_alpha                90
_cell_angle_beta                 95.006(8)
_cell_angle_gamma                90
_cell_volume                     1268.66
_exptl_crystal_colour            colorless
_exptl_crystal_description       block
_chemical_melting_point          '369-402 K'
_cell_formula_units_Z            4
loop_
_atom_site_label
_atom_site_type_symbol
_atom_site_fract_x
_atom_site_fract_y
_atom_site_fract_z
C1 C 0.68578(10) 0.0907(2) 0.10715(10)
C2 C 0.75557(11) 0.1413(2) 0.19320(10)
C3 C 0.81096(11) 0.3197(2) 0.18992(11)
H1 H 0.8029 0.4068 0.1380
C4 C 0.87681(12) 0.3594(3) 0.26584(12)
C5 C 0.9979(2) 0.4784(5) 0.36489(17)
H2 H 1.0642 0.4483 0.3492
H3 H 1.0009 0.5934 0.4076
C6 C 0.88948(12) 0.2311(3) 0.34338(12)
C7 C 0.83570(13) 0.0594(3) 0.34911(11)
H4 H 0.8445 -0.0247 0.4020
C8 C 0.76625(12) 0.0138(2) 0.27198(10)
C9 C 0.70496(17) -0.1743(3) 0.27733(13)
H5 H 0.7451 -0.2905 0.2650
H6 H 0.6845 -0.1876 0.3414
C10 C 0.61547(16) -0.1730(3) 0.20752(13)
H7 H 0.5872 -0.3072 0.2031
H8 H 0.5666 -0.0826 0.2300
C11 C 0.73066(12) 0.0563(3) 0.01237(10)
H9 H 0.7914 0.1336 0.0085
C12 C 0.65029(13) 0.1176(3) -0.06581(11)
H10 H 0.6792 0.1629 -0.1227
H11 H 0.6064 0.0057 -0.0825
C13 C 0.59574(15) 0.2882(3) -0.02143(13)
H12 H 0.6259 0.4168 -0.0339
H13 H 0.5274 0.2914 -0.0471
C14 C 0.60320(11) 0.2452(2) 0.08360(12)
N1 N 0.64017(11) -0.1086(2) 0.11364(10)
N2 N 0.69582(14) -0.2453(2) 0.06679(11)
N3 N 0.74846(14) -0.1620(3) 0.01013(11)
O1 O 0.93725(11) 0.5244(3) 0.28041(10)
O2 O 0.95832(11) 0.3104(3) 0.41018(10)
O3 O 0.55365(11) 0.3151(2) 0.14185(11)
loop_
_geom_bond_atom_site_label_1
_geom_bond_atom_site_label_2
_geom_bond_site_symmetry_1
_geom_bond_site_symmetry_2
C1 C2 1_555 1_555
C2 C3 1_555 1_555
C3 H1 1_555 1_555
C4 C3 1_555 1_555
C5 H2 1_555 1_555
H3 C5 1_555 1_555
C6 C4 1_555 1_555
C7 C6 1_555 1_555
H4 C7 1_555 1_555
C8 C2 1_555 1_555
C9 C8 1_555 1_555
H5 C9 1_555 1_555
H6 C9 1_555 1_555
C10 C9 1_555 1_555
H7 C10 1_555 1_555
H8 C10 1_555 1_555
C11 C1 1_555 1_555
H9 C11 1_555 1_555
C12 C11 1_555 1_555
H10 C12 1_555 1_555
H11 C12 1_555 1_555
C13 C12 1_555 1_555
H12 C13 1_555 1_555
H13 C13 1_555 1_555
C14 C1 1_555 1_555
N1 C1 1_555 1_555
N2 N1 1_555 1_555
N3 C11 1_555 1_555
O1 C4 1_555 1_555
O2 C5 1_555 1_555
O3 C14 1_555 1_555
C5 O1 1_555 1_555
C6 O2 1_555 1_555
C7 C8 1_555 1_555
C10 N1 1_555 1_555
C13 C14 1_555 1_555
N2 N3 1_555 1_555

#END
