
#######################################################################
#
#                 Cambridge Crystallographic Data Centre
#                                CCDC 
#
#######################################################################
#
# If this CIF has been generated from an entry in the Cambridge 
# Structural Database, then it will include bibliographic, chemical, 
# crystal, experimental, refinement or atomic coordinate data resulting 
# from the CCDC's data processing and validation procedures.
#
#######################################################################

data_AJUKOF
_chemical_formula_moiety         'C10 H12 N2 O2 S1'
_chemical_name_systematic        N-Ethoxycarbonyl-N'-phenylthiourea
_symmetry_cell_setting           triclinic
_symmetry_space_group_name_H-M   'P -1'
_symmetry_Int_Tables_number      2
_space_group_name_Hall           '-P 1'
loop_
_symmetry_equiv_pos_site_id
_symmetry_equiv_pos_as_xyz
1 x,y,z
2 -x,-y,-z
_cell_length_a                   5.7870(10)
_cell_length_b                   10.218(2)
_cell_length_c                   10.501(2)
_cell_angle_alpha                109.39(2)
_cell_angle_beta                 94.41(2)
_cell_angle_gamma                100.040(10)
_cell_volume                     570.648
_exptl_crystal_colour            colorless
_exptl_crystal_description       block
_cell_formula_units_Z            2
_exptl_crystal_recrystallization_method ethanol
loop_
_atom_site_label
_atom_site_type_symbol
_atom_site_fract_x
_atom_site_fract_y
_atom_site_fract_z
S1 S 0.40194(10) 0.18086(5) 0.64239(5)
O1 O 1.0080(2) 0.33985(12) 0.43949(13)
O2 O 0.9551(2) 0.10527(12) 0.32376(13)
N1 N 0.7186(3) 0.39717(14) 0.63107(15)
H1 H 0.8285 0.4293 0.5918
N2 N 0.7293(3) 0.17541(14) 0.48088(15)
H2 H 0.6721 0.0855 0.4531
C1 C 0.7706(4) 0.53877(19) 0.87137(19)
H3 H 0.9024 0.5016 0.8846
C2 C 0.7032(4) 0.6370(2) 0.9801(2)
H4 H 0.7892 0.6654 1.0668
C3 C 0.5104(4) 0.6926(2) 0.9607(2)
H5 H 0.4660 0.7594 1.0338
C4 C 0.3834(4) 0.6496(2) 0.8332(2)
H6 H 0.2520 0.6873 0.8203
C5 C 0.4477(3) 0.5507(2) 0.7231(2)
H7 H 0.3606 0.5216 0.6367
C6 C 0.6423(3) 0.49612(17) 0.74365(17)
C7 C 0.6282(3) 0.25850(17) 0.58446(17)
C8 C 0.9098(3) 0.21843(18) 0.41685(18)
C9 C 1.1520(4) 0.1313(2) 0.2521(2)
H8 H 1.2942 0.1830 0.3166
H9 H 1.1172 0.1874 0.1973
C10 C 1.1873(5) -0.0080(3) 0.1639(3)
H10 H 1.2217 -0.0624 0.2192
H11 H 1.3173 0.0058 0.1149
H12 H 1.0457 -0.0579 0.1003
loop_
_geom_bond_atom_site_label_1
_geom_bond_atom_site_label_2
_geom_bond_site_symmetry_1
_geom_bond_site_symmetry_2
S1 C7 1_555 1_555
O1 C8 1_555 1_555
O2 C8 1_555 1_555
N1 H1 1_555 1_555
N2 H2 1_555 1_555
C1 H3 1_555 1_555
C2 C1 1_555 1_555
H4 C2 1_555 1_555
C3 C2 1_555 1_555
H5 C3 1_555 1_555
C4 C3 1_555 1_555
H6 C4 1_555 1_555
C5 C4 1_555 1_555
H7 C5 1_555 1_555
C6 N1 1_555 1_555
C7 N1 1_555 1_555
C8 N2 1_555 1_555
C9 O2 1_555 1_555
H8 C9 1_555 1_555
H9 C9 1_555 1_555
C10 C9 1_555 1_555
H10 C10 1_555 1_555
H11 C10 1_555 1_555
H12 C10 1_555 1_555
N2 C7 1_555 1_555
C1 C6 1_555 1_555
C5 C6 1_555 1_555

#END
