
#######################################################################
#
#                 Cambridge Crystallographic Data Centre
#                                CCDC 
#
#######################################################################
#
# If this CIF has been generated from an entry in the Cambridge 
# Structural Database, then it will include bibliographic, chemical, 
# crystal, experimental, refinement or atomic coordinate data resulting 
# from the CCDC's data processing and validation procedures.
#
#######################################################################

data_AJUMOH01
_chemical_formula_moiety         'C7 H10 N1 1+,C2 H1 O4 1-,0.5(H2 O1)'
_chemical_name_systematic        
'phenylmethanaminium hydrogen ethanedioate hemihydrate'
_symmetry_cell_setting           monoclinic
_symmetry_space_group_name_H-M   'C 2/c'
_symmetry_Int_Tables_number      15
_space_group_name_Hall           '-C 2yn'
loop_
_symmetry_equiv_pos_site_id
_symmetry_equiv_pos_as_xyz
1 x,y,z
2 -x,y,1/2-z
3 1/2+x,1/2+y,z
4 1/2-x,1/2+y,1/2-z
5 -x,-y,-z
6 x,-y,1/2+z
7 1/2-x,1/2-y,-z
8 1/2+x,1/2-y,1/2+z
_cell_length_a                   22.011(2)
_cell_length_b                   5.6418(2)
_cell_length_c                   16.5081(13)
_cell_angle_alpha                90
_cell_angle_beta                 97.1680(10)
_cell_angle_gamma                90
_cell_volume                     2033.98
_exptl_crystal_colour            colorless
_exptl_crystal_description       block
_cell_formula_units_Z            8
loop_
_atom_site_label
_atom_site_type_symbol
_atom_site_fract_x
_atom_site_fract_y
_atom_site_fract_z
N1 N 0.05753(8) 0.5743(3) 0.86370(9)
H1 H 0.0675 0.6199 0.9153
H2 H 0.0256 0.4764 0.8606
H3 H 0.0478 0.7008 0.8326
C1 C 0.11063(11) 0.4497(4) 0.83462(13)
H4 H 0.1005 0.4080 0.7775
H5 H 0.1188 0.3042 0.8654
C2 C 0.16680(10) 0.6015(4) 0.84443(11)
C3 C 0.16970(11) 0.8048(4) 0.79825(14)
H6 H 0.1366 0.8468 0.7603
C4 C 0.22155(13) 0.9463(5) 0.80803(18)
H7 H 0.2230 1.0830 0.7769
C5 C 0.26999(13) 0.8862(6) 0.86277(19)
H8 H 0.3046 0.9824 0.8693
C6 C 0.26854(13) 0.6861(7) 0.90832(17)
H9 H 0.3022 0.6454 0.9456
C7 C 0.21682(12) 0.5421(5) 0.89931(14)
H10 H 0.2160 0.4052 0.9305
O1 O 0.45515(7) 0.2507(2) 0.34997(7)
O2 O 0.42585(7) 0.1008(2) 0.46319(8)
O3 O 0.43101(7) 0.6866(2) 0.40049(7)
H11 H 0.4270 0.8150 0.4225
O4 O 0.42530(8) 0.5458(2) 0.52511(8)
C8 C 0.43738(9) 0.2695(3) 0.41819(10)
C9 C 0.43011(8) 0.5176(3) 0.45420(11)
O5 O 0.5000 0.5876(3) 0.2500
H12 H 0.4848 0.4992 0.2840
H12A H 0.5152 0.4992 0.2160
loop_
_geom_bond_atom_site_label_1
_geom_bond_atom_site_label_2
_geom_bond_site_symmetry_1
_geom_bond_site_symmetry_2
N1 H1 1_555 1_555
H2 N1 1_555 1_555
H3 N1 1_555 1_555
C1 N1 1_555 1_555
H4 C1 1_555 1_555
H5 C1 1_555 1_555
C2 C1 1_555 1_555
C3 C2 1_555 1_555
H6 C3 1_555 1_555
C4 C3 1_555 1_555
H7 C4 1_555 1_555
C5 C4 1_555 1_555
H8 C5 1_555 1_555
C6 C5 1_555 1_555
H9 C6 1_555 1_555
C7 C2 1_555 1_555
H10 C7 1_555 1_555
O1 C8 1_555 1_555
O2 C8 1_555 1_555
O3 H11 1_555 1_555
O4 C9 1_555 1_555
C8 C9 1_555 1_555
C9 O3 1_555 1_555
O5 H12 1_555 1_555
H12A O5 1_555 1_555
C6 C7 1_555 1_555

#END
