
#######################################################################
#
#                 Cambridge Crystallographic Data Centre
#                                CCDC 
#
#######################################################################
#
# If this CIF has been generated from an entry in the Cambridge 
# Structural Database, then it will include bibliographic, chemical, 
# crystal, experimental, refinement or atomic coordinate data resulting 
# from the CCDC's data processing and validation procedures.
#
#######################################################################

data_AJUPOL
_chemical_formula_moiety         'C80 H78 N4 Na2 O12,2(C3 H6 O1)'
_chemical_name_systematic        
"(+-)-anti-bis(\m~2~-2-(Dibenzylamino)-2-(4-(dibenzylamino)-5-oxo-2-phenyl-2,5-dihydrofuran-2-yl)acetato-O,O':O'')-tetra-aqua-di-sodium acetone solvate"
_symmetry_cell_setting           triclinic
_symmetry_space_group_name_H-M   'P -1'
_symmetry_Int_Tables_number      2
_space_group_name_Hall           '-P 1'
loop_
_symmetry_equiv_pos_site_id
_symmetry_equiv_pos_as_xyz
1 x,y,z
2 -x,-y,-z
_cell_length_a                   9.974(2)
_cell_length_b                   13.917(3)
_cell_length_c                   15.741(3)
_cell_angle_alpha                96.21(3)
_cell_angle_beta                 100.13(3)
_cell_angle_gamma                110.94(3)
_cell_volume                     1973.8
_exptl_crystal_colour            colorless
_exptl_crystal_description       block
_cell_formula_units_Z            1
loop_
_atom_site_label
_atom_site_type_symbol
_atom_site_fract_x
_atom_site_fract_y
_atom_site_fract_z
Na1 Na 0.26716(9) 0.56216(7) 0.01961(6)
C1 C 0.2786(3) 0.9704(3) -0.0732(2)
H1 H 0.2688 0.9593 -0.0170
C2 C 0.3827(4) 1.0629(3) -0.0833(3)
H2 H 0.4431 1.1128 -0.0341
C3 C 0.3970(4) 1.0811(3) -0.1642(3)
H3 H 0.4664 1.1437 -0.1710
C4 C 0.3106(4) 1.0084(3) -0.2354(3)
H4 H 0.3211 1.0206 -0.2912
C5 C 0.2061(3) 0.9152(2) -0.22567(18)
H5 H 0.1463 0.8658 -0.2752
C6 C 0.1899(2) 0.8951(2) -0.14406(16)
C7 C -0.3275(2) 0.69447(18) -0.10837(16)
H6 H -0.2656 0.6605 -0.0897
C8 C -0.4791(3) 0.6402(2) -0.12824(19)
H7 H -0.5182 0.5705 -0.1223
C9 C -0.5713(3) 0.6889(3) -0.15663(19)
H8 H -0.6730 0.6525 -0.1699
C10 C -0.5137(3) 0.7906(3) -0.1654(2)
H9 H -0.5762 0.8236 -0.1854
C11 C -0.3626(3) 0.8456(2) -0.14460(16)
H10 H -0.3246 0.9155 -0.1501
C12 C -0.2675(2) 0.79815(16) -0.11591(13)
C13 C 0.1864(2) 0.7848(2) 0.44609(16)
H11 H 0.1755 0.8357 0.4150
C14 C 0.2521(3) 0.8126(3) 0.53481(19)
H12 H 0.2847 0.8820 0.5628
C15 C 0.2696(3) 0.7398(3) 0.5816(2)
H13 H 0.3154 0.7592 0.6411
C16 C 0.2197(4) 0.6386(3) 0.5409(2)
H14 H 0.2298 0.5882 0.5729
C17 C 0.1535(3) 0.6094(2) 0.45165(17)
H15 H 0.1203 0.5397 0.4245
C18 C 0.1366(2) 0.68218(18) 0.40311(14)
C19 C -0.2111(3) 0.7870(2) 0.38659(17)
H16 H -0.1089 0.8195 0.4048
C20 C -0.2988(4) 0.8386(3) 0.4107(2)
H17 H -0.2549 0.9051 0.4455
C21 C -0.4484(5) 0.7925(4) 0.3837(3)
H18 H -0.5070 0.8270 0.4001
C22 C -0.5111(4) 0.6958(5) 0.3327(3)
H19 H -0.6132 0.6647 0.3134
C23 C -0.4262(3) 0.6427(3) 0.3088(2)
H20 H -0.4714 0.5761 0.2742
C24 C -0.2745(2) 0.6880(2) 0.33589(15)
C25 C 0.2668(2) 0.91485(19) 0.25977(16)
H21 H 0.3158 0.8777 0.2347
C26 C 0.3461(3) 1.0033(2) 0.32327(19)
H22 H 0.4480 1.0248 0.3411
C27 C 0.2770(4) 1.0596(2) 0.36016(19)
H23 H 0.3311 1.1197 0.4025
C28 C 0.1263(4) 1.0267(2) 0.33400(19)
H24 H 0.0783 1.0644 0.3592
C29 C 0.0455(3) 0.93815(18) 0.27071(16)
H25 H -0.0564 0.9170 0.2533
C30 C 0.1149(2) 0.88079(15) 0.23309(13)
C31 C 0.0773(3) 0.7927(2) -0.13368(15)
H26 H 0.1280 0.7481 -0.1147
H27 H 0.0109 0.7576 -0.1904
C32 C -0.1039(2) 0.86170(19) -0.09361(16)
H28 H -0.0819 0.9178 -0.0446
H29 H -0.0788 0.8938 -0.1434
C33 C 0.0679(2) 0.65174(17) 0.30605(13)
H30 H 0.0299 0.5762 0.2887
H31 H 0.1423 0.6820 0.2738
C34 C -0.1812(2) 0.62751(17) 0.31573(15)
H32 H -0.2418 0.5656 0.2716
H33 H -0.1474 0.6046 0.3684
C35 C 0.0190(2) 0.79124(15) 0.01398(13)
C36 C 0.1220(2) 0.74164(15) 0.04819(13)
C37 C 0.02469(19) 0.78501(15) 0.16208(13)
C38 C -0.0383(2) 0.81406(15) 0.08013(13)
H34 H -0.1083 0.8441 0.0758
C39 C -0.09654(18) 0.70006(15) 0.19348(12)
H35 H -0.1758 0.7261 0.1930
C40 C -0.1652(2) 0.59779(15) 0.12394(13)
N1 N -0.00910(19) 0.80530(15) -0.07118(12)
N2 N -0.05307(15) 0.68860(12) 0.28399(10)
O1 O 0.19622(17) 0.70650(13) 0.01242(10)
O2 O 0.12513(13) 0.74029(10) 0.13397(9)
O3 O 0.27985(15) 0.41552(11) -0.06895(10)
O4 O 0.10636(16) 0.46722(12) -0.12562(10)
O6 O 0.5070(2) 0.65430(17) 0.08958(16)
O7 O 0.1528(2) 0.49923(16) 0.12967(13)
H42 H 0.5300 0.7013 0.0571
H43 H 0.5702 0.6269 0.0893
H44 H 0.1693 0.4708 0.1739
H45 H 0.0812 0.5162 0.1351
Na1A Na -0.26716(9) 0.43784(7) -0.01961(6)
C1A C -0.2786(3) 0.0296(3) 0.0732(2)
H1A H -0.2688 0.0407 0.0170
C2A C -0.3827(4) -0.0629(3) 0.0833(3)
H2A H -0.4431 -0.1128 0.0341
C3A C -0.3970(4) -0.0811(3) 0.1642(3)
H3A H -0.4664 -0.1437 0.1710
C4A C -0.3106(4) -0.0084(3) 0.2354(3)
H4A H -0.3211 -0.0206 0.2912
C5A C -0.2061(3) 0.0848(2) 0.22567(18)
H5A H -0.1463 0.1342 0.2752
C6A C -0.1899(2) 0.1049(2) 0.14406(16)
C7A C 0.3275(2) 0.30553(18) 0.10837(16)
H6A H 0.2656 0.3395 0.0897
C8A C 0.4791(3) 0.3598(2) 0.12824(19)
H7A H 0.5182 0.4295 0.1223
C9A C 0.5713(3) 0.3111(3) 0.15663(19)
H8A H 0.6730 0.3475 0.1699
C10A C 0.5137(3) 0.2094(3) 0.1654(2)
H9A H 0.5762 0.1764 0.1854
C11A C 0.3626(3) 0.1544(2) 0.14460(16)
H10A H 0.3246 0.0845 0.1501
C12A C 0.2675(2) 0.20185(16) 0.11591(13)
C13A C -0.1864(2) 0.2152(2) -0.44609(16)
H11A H -0.1755 0.1643 -0.4150
C14A C -0.2521(3) 0.1874(3) -0.53481(19)
H12A H -0.2847 0.1180 -0.5628
C15A C -0.2696(3) 0.2602(3) -0.5816(2)
H13A H -0.3154 0.2408 -0.6411
C16A C -0.2197(4) 0.3614(3) -0.5409(2)
H14A H -0.2298 0.4118 -0.5729
C17A C -0.1535(3) 0.3906(2) -0.45165(17)
H15A H -0.1203 0.4603 -0.4245
C18A C -0.1366(2) 0.31782(18) -0.40311(14)
C19A C 0.2111(3) 0.2130(2) -0.38659(17)
H16A H 0.1089 0.1805 -0.4048
C20A C 0.2988(4) 0.1614(3) -0.4107(2)
H17A H 0.2549 0.0949 -0.4455
C21A C 0.4484(5) 0.2075(4) -0.3837(3)
H18A H 0.5070 0.1730 -0.4001
C22A C 0.5111(4) 0.3042(5) -0.3327(3)
H19A H 0.6132 0.3353 -0.3134
C23A C 0.4262(3) 0.3573(3) -0.3088(2)
H20A H 0.4714 0.4239 -0.2742
C24A C 0.2745(2) 0.3120(2) -0.33589(15)
C25A C -0.2668(2) 0.08515(19) -0.25977(16)
H21A H -0.3158 0.1223 -0.2347
C26A C -0.3461(3) -0.0033(2) -0.32327(19)
H22A H -0.4480 -0.0248 -0.3411
C27A C -0.2770(4) -0.0596(2) -0.36016(19)
H23A H -0.3311 -0.1197 -0.4025
C28A C -0.1263(4) -0.0267(2) -0.33400(19)
H24A H -0.0783 -0.0644 -0.3592
C29A C -0.0455(3) 0.06185(18) -0.27071(16)
H25A H 0.0564 0.0830 -0.2533
C30A C -0.1149(2) 0.11921(15) -0.23309(13)
C31A C -0.0773(3) 0.2073(2) 0.13368(15)
H26A H -0.1280 0.2519 0.1147
H27A H -0.0109 0.2424 0.1904
C32A C 0.1039(2) 0.13830(19) 0.09361(16)
H28A H 0.0819 0.0822 0.0446
H29A H 0.0788 0.1062 0.1434
C33A C -0.0679(2) 0.34826(17) -0.30605(13)
H30A H -0.0299 0.4238 -0.2887
H31A H -0.1423 0.3180 -0.2738
C34A C 0.1812(2) 0.37249(17) -0.31573(15)
H32A H 0.2418 0.4344 -0.2716
H33A H 0.1474 0.3954 -0.3684
C35A C -0.0190(2) 0.20876(15) -0.01398(13)
C36A C -0.1220(2) 0.25836(15) -0.04819(13)
C37A C -0.02469(19) 0.21499(15) -0.16208(13)
C38A C 0.0383(2) 0.18594(15) -0.08013(13)
H34A H 0.1083 0.1559 -0.0758
C39A C 0.09654(18) 0.29994(15) -0.19348(12)
H35A H 0.1758 0.2739 -0.1930
C40A C 0.1652(2) 0.40221(15) -0.12394(13)
N1A N 0.00910(19) 0.19470(15) 0.07118(12)
N2A N 0.05307(15) 0.31140(12) -0.28399(10)
O1A O -0.19622(17) 0.29350(13) -0.01242(10)
O2A O -0.12513(13) 0.25971(10) -0.13397(9)
O3A O -0.27985(15) 0.58448(11) 0.06895(10)
O4A O -0.10636(16) 0.53278(12) 0.12562(10)
O6A O -0.5070(2) 0.34570(17) -0.08958(16)
O7A O -0.1528(2) 0.50077(16) -0.12967(13)
H42A H -0.5300 0.2987 -0.0571
H43A H -0.5702 0.3731 -0.0893
H44A H -0.1693 0.5292 -0.1739
H45A H -0.0812 0.4838 -0.1351
C41 C 0.2588(4) 0.3760(3) 0.3566(2)
C42 C 0.4038(6) 0.3688(5) 0.3648(4)
H36 H 0.4501 0.4008 0.3209
H37 H 0.3915 0.2965 0.3569
H38 H 0.4646 0.4043 0.4221
C43 C 0.1720(7) 0.3334(4) 0.4184(4)
H39 H 0.0787 0.3403 0.4042
H40 H 0.2238 0.3709 0.4769
H41 H 0.1559 0.2607 0.4151
O5 O 0.2140(4) 0.4143(2) 0.30005(18)
loop_
_geom_bond_atom_site_label_1
_geom_bond_atom_site_label_2
_geom_bond_site_symmetry_1
_geom_bond_site_symmetry_2
Na1 O1 1_555 1_555
C1 H1 1_555 1_555
C2 C1 1_555 1_555
H2 C2 1_555 1_555
C3 C2 1_555 1_555
H3 C3 1_555 1_555
C4 C3 1_555 1_555
H4 C4 1_555 1_555
C5 C4 1_555 1_555
H5 C5 1_555 1_555
C6 C1 1_555 1_555
C7 H6 1_555 1_555
C8 C7 1_555 1_555
H7 C8 1_555 1_555
C9 C8 1_555 1_555
H8 C9 1_555 1_555
C10 C9 1_555 1_555
H9 C10 1_555 1_555
C11 C10 1_555 1_555
H10 C11 1_555 1_555
C12 C7 1_555 1_555
C13 H11 1_555 1_555
C14 C13 1_555 1_555
H12 C14 1_555 1_555
C15 C14 1_555 1_555
H13 C15 1_555 1_555
C16 C15 1_555 1_555
H14 C16 1_555 1_555
C17 C16 1_555 1_555
H15 C17 1_555 1_555
C18 C13 1_555 1_555
C19 H16 1_555 1_555
C20 C19 1_555 1_555
H17 C20 1_555 1_555
C21 C20 1_555 1_555
H18 C21 1_555 1_555
C22 C21 1_555 1_555
H19 C22 1_555 1_555
C23 C22 1_555 1_555
H20 C23 1_555 1_555
C24 C19 1_555 1_555
C25 H21 1_555 1_555
C26 C25 1_555 1_555
H22 C26 1_555 1_555
C27 C26 1_555 1_555
H23 C27 1_555 1_555
C28 C27 1_555 1_555
H24 C28 1_555 1_555
C29 C28 1_555 1_555
H25 C29 1_555 1_555
C30 C25 1_555 1_555
C31 C6 1_555 1_555
H26 C31 1_555 1_555
H27 C31 1_555 1_555
C32 C12 1_555 1_555
H28 C32 1_555 1_555
H29 C32 1_555 1_555
C33 C18 1_555 1_555
H30 C33 1_555 1_555
H31 C33 1_555 1_555
C34 C24 1_555 1_555
H32 C34 1_555 1_555
H33 C34 1_555 1_555
C35 C36 1_555 1_555
C36 O1 1_555 1_555
C37 C30 1_555 1_555
C38 C35 1_555 1_555
H34 C38 1_555 1_555
C39 C37 1_555 1_555
H35 C39 1_555 1_555
C40 C39 1_555 1_555
C41 C42 1_555 1_555
C42 H36 1_555 1_555
H37 C42 1_555 1_555
H38 C42 1_555 1_555
C43 C41 1_555 1_555
H39 C43 1_555 1_555
H40 C43 1_555 1_555
H41 C43 1_555 1_555
N1 C31 1_555 1_555
N2 C33 1_555 1_555
O2 C36 1_555 1_555
O3 Na1 1_555 1_555
O4 Na1 1_555 1_555
O5 C41 1_555 1_555
O6 Na1 1_555 1_555
O7 Na1 1_555 1_555
H42 O6 1_555 1_555
H43 O6 1_555 1_555
H44 O7 1_555 1_555
H45 O7 1_555 1_555
Na1A O1A 1_555 1_555
C1A H1A 1_555 1_555
C2A C1A 1_555 1_555
H2A C2A 1_555 1_555
C3A C2A 1_555 1_555
H3A C3A 1_555 1_555
C4A C3A 1_555 1_555
H4A C4A 1_555 1_555
C5A C4A 1_555 1_555
H5A C5A 1_555 1_555
C6A C1A 1_555 1_555
C7A H6A 1_555 1_555
C8A C7A 1_555 1_555
H7A C8A 1_555 1_555
C9A C8A 1_555 1_555
H8A C9A 1_555 1_555
C10A C9A 1_555 1_555
H9A C10A 1_555 1_555
C11A C10A 1_555 1_555
H10A C11A 1_555 1_555
C12A C7A 1_555 1_555
C13A H11A 1_555 1_555
C14A C13A 1_555 1_555
H12A C14A 1_555 1_555
C15A C14A 1_555 1_555
H13A C15A 1_555 1_555
C16A C15A 1_555 1_555
H14A C16A 1_555 1_555
C17A C16A 1_555 1_555
H15A C17A 1_555 1_555
C18A C13A 1_555 1_555
C19A H16A 1_555 1_555
C20A C19A 1_555 1_555
H17A C20A 1_555 1_555
C21A C20A 1_555 1_555
H18A C21A 1_555 1_555
C22A C21A 1_555 1_555
H19A C22A 1_555 1_555
C23A C22A 1_555 1_555
H20A C23A 1_555 1_555
C24A C19A 1_555 1_555
C25A H21A 1_555 1_555
C26A C25A 1_555 1_555
H22A C26A 1_555 1_555
C27A C26A 1_555 1_555
H23A C27A 1_555 1_555
C28A C27A 1_555 1_555
H24A C28A 1_555 1_555
C29A C28A 1_555 1_555
H25A C29A 1_555 1_555
C30A C25A 1_555 1_555
C31A C6A 1_555 1_555
H26A C31A 1_555 1_555
H27A C31A 1_555 1_555
C32A C12A 1_555 1_555
H28A C32A 1_555 1_555
H29A C32A 1_555 1_555
C33A C18A 1_555 1_555
H30A C33A 1_555 1_555
H31A C33A 1_555 1_555
C34A C24A 1_555 1_555
H32A C34A 1_555 1_555
H33A C34A 1_555 1_555
C35A C36A 1_555 1_555
C36A O1A 1_555 1_555
C37A C30A 1_555 1_555
C38A C35A 1_555 1_555
H34A C38A 1_555 1_555
C39A C37A 1_555 1_555
H35A C39A 1_555 1_555
C40A O3 1_555 1_555
N1A C31A 1_555 1_555
N2A C33A 1_555 1_555
O2A C36A 1_555 1_555
O3A C40 1_555 1_555
O4A C40 1_555 1_555
O6A Na1A 1_555 1_555
O7A Na1A 1_555 1_555
H42A O6A 1_555 1_555
H43A O6A 1_555 1_555
H44A O7A 1_555 1_555
H45A O7A 1_555 1_555
C5 C6 1_555 1_555
C11 C12 1_555 1_555
C17 C18 1_555 1_555
C23 C24 1_555 1_555
C29 C30 1_555 1_555
C32 N1 1_555 1_555
C34 N2 1_555 1_555
C35 N1 1_555 1_555
C37 C38 1_555 1_555
C37 O2 1_555 1_555
C39 N2 1_555 1_555
O4 C40A 1_555 1_555
Na1A O3A 1_555 1_555
Na1A O4A 1_555 1_555
C5A C6A 1_555 1_555
C11A C12A 1_555 1_555
C17A C18A 1_555 1_555
C23A C24A 1_555 1_555
C29A C30A 1_555 1_555
C32A N1A 1_555 1_555
C34A N2A 1_555 1_555
C35A N1A 1_555 1_555
C37A C38A 1_555 1_555
C37A O2A 1_555 1_555
C39A C40A 1_555 1_555
C39A N2A 1_555 1_555

#END
