
#######################################################################
#
#                 Cambridge Crystallographic Data Centre
#                                CCDC 
#
#######################################################################
#
# If this CIF has been generated from an entry in the Cambridge 
# Structural Database, then it will include bibliographic, chemical, 
# crystal, experimental, refinement or atomic coordinate data resulting 
# from the CCDC's data processing and validation procedures.
#
#######################################################################

data_AJURIH
_chemical_formula_moiety         'C13 H13 Br1 O3'
_chemical_name_systematic        
(R)-(+)-6-(4-Bromophenyl)-4-ethoxy-5,6-dihydro-2H-pyran-2-one
_symmetry_cell_setting           orthorhombic
_symmetry_space_group_name_H-M   'P 21 21 21'
_symmetry_Int_Tables_number      19
_space_group_name_Hall           'P 2ac 2ab'
loop_
_symmetry_equiv_pos_site_id
_symmetry_equiv_pos_as_xyz
1 x,y,z
2 1/2-x,-y,1/2+z
3 -x,1/2+y,1/2-z
4 1/2+x,1/2-y,-z
_cell_length_a                   6.719(2)
_cell_length_b                   8.809(3)
_cell_length_c                   21.195(7)
_cell_angle_alpha                90
_cell_angle_beta                 90
_cell_angle_gamma                90
_cell_volume                     1254.48
_exptl_crystal_colour            colorless
_exptl_crystal_description       block
_cell_formula_units_Z            4
_exptl_crystal_recrystallization_method dichloromethane/hexane
loop_
_atom_site_label
_atom_site_type_symbol
_atom_site_fract_x
_atom_site_fract_y
_atom_site_fract_z
Br1 Br 0.37348(5) 0.59175(4) 0.169571(13)
O1 O 1.3968(3) 0.4936(2) 0.42307(8)
O2 O 1.1703(2) 0.60181(18) 0.36375(8)
O3 O 1.2537(3) 1.0129(2) 0.45307(7)
C1 C 1.3166(4) 0.6103(3) 0.40817(11)
C2 C 1.3597(4) 0.7567(3) 0.43574(11)
H1 H 1.4722 0.7680 0.4609
C3 C 1.2410(4) 0.8761(3) 0.42584(11)
C4 C 1.0702(4) 0.8644(3) 0.38122(11)
H2 H 1.0511 0.9610 0.3600
H3 H 0.9497 0.8411 0.4045
C5 C 1.1084(4) 0.7415(2) 0.33275(10)
H4 H 1.2157 0.7752 0.3047
C6 C 0.9296(4) 0.7034(3) 0.29332(10)
C7 C 0.9060(4) 0.7681(3) 0.23386(10)
H5 H 1.0032 0.8337 0.2187
C8 C 0.7414(4) 0.7371(3) 0.19687(11)
H6 H 0.7265 0.7819 0.1574
C9 C 0.6006(4) 0.6384(3) 0.21977(10)
C10 C 0.6186(4) 0.5712(3) 0.27807(11)
H7 H 0.5218 0.5044 0.2927
C11 C 0.7827(4) 0.6047(3) 0.31443(11)
H8 H 0.7955 0.5602 0.3540
C12 C 1.4059(4) 1.0330(3) 0.50097(11)
H9 H 1.5370 1.0310 0.4819
H10 H 1.3982 0.9522 0.5319
C13 C 1.3700(5) 1.1834(3) 0.53183(12)
H11 H 1.4682 1.1999 0.5640
H12 H 1.2397 1.1842 0.5505
H13 H 1.3789 1.2625 0.5008
loop_
_geom_bond_atom_site_label_1
_geom_bond_atom_site_label_2
_geom_bond_site_symmetry_1
_geom_bond_site_symmetry_2
Br1 C9 1_555 1_555
O1 C1 1_555 1_555
O2 C1 1_555 1_555
O3 C3 1_555 1_555
C1 C2 1_555 1_555
C2 H1 1_555 1_555
C3 C2 1_555 1_555
C4 C3 1_555 1_555
H2 C4 1_555 1_555
H3 C4 1_555 1_555
C5 O2 1_555 1_555
H4 C5 1_555 1_555
C6 C5 1_555 1_555
C7 C6 1_555 1_555
H5 C7 1_555 1_555
C8 C7 1_555 1_555
H6 C8 1_555 1_555
C9 C8 1_555 1_555
C10 C9 1_555 1_555
H7 C10 1_555 1_555
C11 C6 1_555 1_555
H8 C11 1_555 1_555
C12 O3 1_555 1_555
H9 C12 1_555 1_555
H10 C12 1_555 1_555
C13 C12 1_555 1_555
H11 C13 1_555 1_555
H12 C13 1_555 1_555
H13 C13 1_555 1_555
C4 C5 1_555 1_555
C10 C11 1_555 1_555

#END
