
#######################################################################
#
#                 Cambridge Crystallographic Data Centre
#                                CCDC 
#
#######################################################################
#
# If this CIF has been generated from an entry in the Cambridge 
# Structural Database, then it will include bibliographic, chemical, 
# crystal, experimental, refinement or atomic coordinate data resulting 
# from the CCDC's data processing and validation procedures.
#
#######################################################################

data_AJUSEE
_chemical_formula_moiety         'C25 H26 Br2 O5'
_chemical_name_systematic        
'(+-)-3-(7-((4-Bromobenzoyl)oxy)-1,3-dimethyl-2-oxabicyclo[2.2.1]hept-3-yl)propyl 4-bromobenzoate'
_symmetry_cell_setting           orthorhombic
_symmetry_space_group_name_H-M   'P 21 21 21'
_symmetry_Int_Tables_number      19
_space_group_name_Hall           'P 2ac 2ab'
loop_
_symmetry_equiv_pos_site_id
_symmetry_equiv_pos_as_xyz
1 x,y,z
2 1/2-x,-y,1/2+z
3 -x,1/2+y,1/2-z
4 1/2+x,1/2-y,-z
_cell_length_a                   6.2540(3)
_cell_length_b                   10.8365(6)
_cell_length_c                   35.4475(19)
_cell_angle_alpha                90
_cell_angle_beta                 90
_cell_angle_gamma                90
_cell_volume                     2402.33
_exptl_crystal_colour            colorless
_exptl_crystal_description       block
_chemical_melting_point          '97-99 deg.C'
_cell_formula_units_Z            4
loop_
_atom_site_label
_atom_site_type_symbol
_atom_site_fract_x
_atom_site_fract_y
_atom_site_fract_z
Br1 Br 0.09738(15) 1.16347(7) -0.080234(18)
Br2 Br 1.26147(18) 0.71729(9) 0.03156(3)
C1 C 1.0885(14) 0.6808(7) 0.07397(19)
C2 C 0.7731(13) 0.7105(6) 0.11057(19)
H1 H 0.6455 0.7523 0.1149
C3 C 0.8966(14) 0.7403(6) 0.0796(2)
H2 H 0.8504 0.8002 0.0627
C4 C 1.0299(16) 0.5611(7) 0.1288(2)
H3 H 1.0753 0.5004 0.1456
C5 C 1.1558(15) 0.5902(8) 0.0986(3)
H4 H 1.2849 0.5497 0.0947
C6 C 0.8378(13) 0.6193(6) 0.13504(19)
C7 C 0.1648(11) 1.1161(5) -0.02978(17)
C8 C 0.2700(11) 1.0595(5) 0.04333(16)
C9 C 0.0704(11) 1.1071(6) 0.03567(17)
H5 H -0.0273 1.1203 0.0550
C10 C 0.4126(13) 1.0402(6) 0.01427(17)
H6 H 0.5458 1.0065 0.0198
C11 C 0.0173(11) 1.1350(7) -0.00145(18)
H7 H -0.1173 1.1664 -0.0072
C12 C 0.3653(13) 1.0686(6) -0.02232(19)
H8 H 0.4645 1.0564 -0.0415
O1 O 0.5629(9) 0.6643(5) 0.17740(13)
C13 C 0.2558(14) 0.7288(6) 0.21188(19)
H9 H 0.1646 0.7102 0.2333
H10 H 0.1728 0.7148 0.1892
C14 C 0.3177(11) 0.8652(6) 0.21360(17)
H11 H 0.3719 0.8835 0.2386
H12 H 0.4324 0.8801 0.1958
C15 C 0.4418(15) 0.6408(6) 0.21209(19)
H13 H 0.5310 0.6549 0.2341
H14 H 0.3915 0.5562 0.2126
C16 C 0.7118(14) 0.5827(7) 0.1685(2)
C17 C 0.1363(11) 0.9518(6) 0.20498(16)
O2 O 0.2055(7) 1.0717(4) 0.10826(12)
O3 O 0.2146(7) 1.0793(4) 0.20984(10)
O4 O 0.4920(9) 0.9647(5) 0.08951(13)
C18 C 0.3387(11) 1.0263(6) 0.08232(18)
C19 C 0.2468(12) 1.0378(6) 0.14730(16)
H15 H 0.3914 1.0055 0.1513
C20 C 0.0721(11) 0.9525(6) 0.16290(16)
H16 H 0.0647 0.8710 0.1510
C21 C 0.1899(10) 1.1432(6) 0.17437(16)
C22 C -0.0468(10) 1.1639(7) 0.1675(2)
H17 H -0.0697 1.2217 0.1470
H18 H -0.1171 1.1947 0.1900
C23 C -0.0459(11) 0.9330(7) 0.23241(19)
H19 H -0.1188 0.8575 0.2265
H20 H -0.1440 1.0008 0.2305
H21 H 0.0095 0.9288 0.2576
O5 O 0.7420(13) 0.4904(5) 0.18665(16)
C24 C -0.1284(12) 1.0347(8) 0.1571(2)
H22 H -0.2442 1.0095 0.1736
H23 H -0.1772 1.0318 0.1311
C25 C 0.3314(13) 1.2563(7) 0.1743(2)
H24 H 0.2828 1.3130 0.1933
H25 H 0.3251 1.2952 0.1500
H26 H 0.4761 1.2324 0.1797
loop_
_geom_bond_atom_site_label_1
_geom_bond_atom_site_label_2
_geom_bond_site_symmetry_1
_geom_bond_site_symmetry_2
Br1 C7 1_555 1_555
Br2 C1 1_555 1_555
C1 C3 1_555 1_555
C2 H1 1_555 1_555
C3 C2 1_555 1_555
H2 C3 1_555 1_555
C4 H3 1_555 1_555
C5 C1 1_555 1_555
H4 C5 1_555 1_555
C6 C2 1_555 1_555
C7 C11 1_555 1_555
C8 C9 1_555 1_555
C9 H5 1_555 1_555
C10 C8 1_555 1_555
H6 C10 1_555 1_555
C11 C9 1_555 1_555
H7 C11 1_555 1_555
C12 C7 1_555 1_555
H8 C12 1_555 1_555
O1 C15 1_555 1_555
C13 H9 1_555 1_555
H10 C13 1_555 1_555
C14 C13 1_555 1_555
H11 C14 1_555 1_555
H12 C14 1_555 1_555
C15 C13 1_555 1_555
H13 C15 1_555 1_555
H14 C15 1_555 1_555
C16 C6 1_555 1_555
C17 C14 1_555 1_555
O2 C18 1_555 1_555
O3 C17 1_555 1_555
O4 C18 1_555 1_555
C18 C8 1_555 1_555
C19 O2 1_555 1_555
H15 C19 1_555 1_555
C20 C17 1_555 1_555
H16 C20 1_555 1_555
C21 O3 1_555 1_555
C22 C21 1_555 1_555
H17 C22 1_555 1_555
H18 C22 1_555 1_555
C23 C17 1_555 1_555
H19 C23 1_555 1_555
H20 C23 1_555 1_555
H21 C23 1_555 1_555
O5 C16 1_555 1_555
C24 C20 1_555 1_555
H22 C24 1_555 1_555
H23 C24 1_555 1_555
C25 C21 1_555 1_555
H24 C25 1_555 1_555
H25 C25 1_555 1_555
H26 C25 1_555 1_555
C4 C5 1_555 1_555
C4 C6 1_555 1_555
C10 C12 1_555 1_555
O1 C16 1_555 1_555
C19 C20 1_555 1_555
C19 C21 1_555 1_555
C22 C24 1_555 1_555

#END
