
#######################################################################
#
#                 Cambridge Crystallographic Data Centre
#                                CCDC 
#
#######################################################################
#
# If this CIF has been generated from an entry in the Cambridge 
# Structural Database, then it will include bibliographic, chemical, 
# crystal, experimental, refinement or atomic coordinate data resulting 
# from the CCDC's data processing and validation procedures.
#
#######################################################################

data_AKADIZ
_chemical_formula_moiety         'C7 H4 Se6 1+,C7 H4 Se6,Br1 1-'
_chemical_name_systematic        
'bis(Methylenediselenotetraselenafulvalene) bromide'
_symmetry_cell_setting           monoclinic
_symmetry_space_group_name_H-M   'C 2/c'
_symmetry_Int_Tables_number      15
_space_group_name_Hall           '-C 2yn'
loop_
_symmetry_equiv_pos_site_id
_symmetry_equiv_pos_as_xyz
1 x,y,z
2 x,-y,1/2+z
3 1/2+x,1/2+y,z
4 1/2+x,1/2-y,1/2+z
5 -x,-y,-z
6 -x,y,1/2-z
7 1/2-x,1/2-y,-z
8 1/2-x,1/2+y,1/2-z
_cell_length_a                   23.954(3)
_cell_length_b                   11.1716(6)
_cell_length_c                   8.9576(8)
_cell_angle_alpha                90
_cell_angle_beta                 99.298(3)
_cell_angle_gamma                90
_cell_volume                     2365.6
_exptl_crystal_colour            black
_exptl_crystal_description       plate
_cell_formula_units_Z            4
loop_
_atom_site_label
_atom_site_type_symbol
_atom_site_fract_x
_atom_site_fract_y
_atom_site_fract_z
Se1 Se 0.29237(3) 0.04435(6) 0.54161(7)
Se2 Se 0.11761(3) 0.20275(6) 0.60302(7)
Se3 Se 0.41832(3) 0.02405(6) 0.74744(8)
Se4 Se 0.15892(3) 0.02227(6) 0.36689(7)
Se5 Se 0.25580(3) 0.23406(6) 0.77578(7)
Se6 Se 0.38327(3) 0.21687(6) 0.97966(7)
C1 C 0.1788(3) 0.1236(5) 0.5359(7)
C2 C 0.2331(3) 0.1329(5) 0.6060(6)
C3 C 0.0647(3) 0.1144(7) 0.4655(9)
C4 C 0.4448(3) 0.1550(7) 0.8837(8)
C5 C 0.3454(3) 0.0941(5) 0.7082(7)
C6 C 0.0817(3) 0.0408(7) 0.3711(9)
C7 C 0.3304(3) 0.1727(5) 0.8063(6)
H1 H 0.0249 0.1246 0.4667
H2 H 0.0548 -0.0032 0.3015
H3 H 0.4747 0.1286 0.9593
H4 H 0.4588 0.2187 0.8275
Br1 Br 0.0000 0.24552(8) 0.7500
loop_
_geom_bond_atom_site_label_1
_geom_bond_atom_site_label_2
_geom_bond_site_symmetry_1
_geom_bond_site_symmetry_2
Se1 C2 1_555 1_555
Se2 C1 1_555 1_555
Se3 C4 1_555 1_555
Se4 C1 1_555 1_555
Se5 C2 1_555 1_555
Se6 C4 1_555 1_555
C1 C2 1_555 1_555
C3 Se2 1_555 1_555
C4 H3 1_555 1_555
C5 Se1 1_555 1_555
C6 Se4 1_555 1_555
C7 Se5 1_555 1_555
H1 C3 1_555 1_555
H2 C6 1_555 1_555
H4 C4 1_555 1_555
Se3 C5 1_555 1_555
Se6 C7 1_555 1_555
C3 C6 1_555 1_555
C5 C7 1_555 1_555

#END
