
#######################################################################
#
#                 Cambridge Crystallographic Data Centre
#                                CCDC 
#
#######################################################################
#
# If this CIF has been generated from an entry in the Cambridge 
# Structural Database, then it will include bibliographic, chemical, 
# crystal, experimental, refinement or atomic coordinate data resulting 
# from the CCDC's data processing and validation procedures.
#
#######################################################################

data_AKAFIB
_chemical_formula_moiety         'C10 H8 S8 1+,C10 H8 S8,C2 F6 N1 O4 S2 1-'
_chemical_name_systematic        
'bis(Ethylenedithio)tetrathiafulvalenium bis(trifluoromethylsulfonyl)imide'
_symmetry_cell_setting           triclinic
_symmetry_space_group_name_H-M   'P -1'
_symmetry_Int_Tables_number      2
_space_group_name_Hall           '-P 1'
loop_
_symmetry_equiv_pos_site_id
_symmetry_equiv_pos_as_xyz
1 x,y,z
2 -x,-y,-z
_cell_length_a                   6.6394(13)
_cell_length_b                   8.658(2)
_cell_length_c                   17.349(4)
_cell_angle_alpha                94.70(2)
_cell_angle_beta                 97.21(2)
_cell_angle_gamma                68.95(2)
_cell_volume                     922.645
_exptl_crystal_colour            black
_exptl_crystal_description       'elongated plate'
_cell_formula_units_Z            1
loop_
_atom_site_label
_atom_site_type_symbol
_atom_site_fract_x
_atom_site_fract_y
_atom_site_fract_z
N1 N 0.024(2) 0.0560(12) 0.0354(6)
S9 S 0.0970(3) -0.1353(2) 0.04737(9)
O1 O 0.117(2) -0.1485(15) 0.1327(7)
C11 C 0.3788(12) -0.2147(11) 0.0283(4)
O4 O 0.081(4) -0.307(2) 0.0358(11)
F4 F 0.396(6) -0.249(5) -0.044(2)
F5 F 0.426(3) -0.071(3) 0.0426(15)
F6 F 0.499(2) -0.310(2) 0.0790(7)
N1A N -0.024(2) -0.0560(12) -0.0354(6)
S9A S -0.0970(3) 0.1353(2) -0.04737(9)
O1A O -0.117(2) 0.1485(15) -0.1327(7)
C11A C -0.3788(12) 0.2147(11) -0.0283(4)
F4A F -0.396(6) 0.249(5) 0.044(2)
F5A F -0.426(3) 0.071(3) -0.0426(15)
F6A F -0.499(2) 0.310(2) -0.0790(7)
O4A O -0.081(4) 0.307(2) -0.0358(11)
S1 S 0.0637(2) 0.8138(2) 0.56563(6)
S2 S 0.4877(2) 0.7903(2) 0.52321(6)
S3 S -0.0086(2) 0.6040(2) 0.40823(6)
S4 S 0.4071(2) 0.5935(2) 0.36285(6)
S5 S 0.0898(2) 1.0071(2) 0.71300(7)
S6 S 0.6022(2) 0.9677(2) 0.66201(7)
S7 S -0.1324(2) 0.4429(2) 0.26432(7)
S8 S 0.3551(2) 0.4413(2) 0.20633(7)
C1 C 0.2532(6) 0.7439(5) 0.4988(2)
C2 C 0.2212(6) 0.6573(5) 0.4311(2)
C3 C 0.2125(6) 0.9082(5) 0.6304(2)
C4 C 0.4082(6) 0.8962(5) 0.6107(2)
C5 C 0.0605(6) 0.5144(5) 0.3163(2)
C6 C 0.2485(6) 0.5128(5) 0.2950(2)
C7 C 0.3191(8) 1.0242(7) 0.7746(3)
C8 C 0.4614(8) 1.0906(7) 0.7389(3)
C9 C -0.0153(11) 0.3645(11) 0.1784(3)
C10 C 0.1254(11) 0.4217(10) 0.1477(3)
H1 H 0.4051 0.9146 0.7929
H2 H 0.2664 1.0926 0.8195
H3 H 0.3697 1.1980 0.7183
H4 H 0.5644 1.1112 0.7781
H5 H -0.1294 0.3633 0.1389
H6 H 0.0715 0.2452 0.1872
H7 H 0.1726 0.3583 0.1016
H8 H 0.0337 0.5339 0.1311
O2? O -0.008(2) -0.230(2) 0.0040(7)
F1? F 0.448(4) -0.375(2) 0.0407(14)
F2? F 0.490(2) -0.130(3) 0.0625(7)
F3? F 0.419(6) -0.217(5) -0.040(2)
O3? O -0.073(2) 0.057(2) -0.1118(7)
loop_
_geom_bond_atom_site_label_1
_geom_bond_atom_site_label_2
_geom_bond_site_symmetry_1
_geom_bond_site_symmetry_2
S1 C1 1_555 1_555
S2 C1 1_555 1_555
S3 C2 1_555 1_555
S4 C2 1_555 1_555
S5 C3 1_555 1_555
S6 C4 1_555 1_555
S7 C5 1_555 1_555
S8 C6 1_555 1_555
C1 C2 1_555 1_555
C3 S1 1_555 1_555
C4 S2 1_555 1_555
C5 S3 1_555 1_555
C6 S4 1_555 1_555
C7 S5 1_555 1_555
C8 S6 1_555 1_555
C9 S7 1_555 1_555
C10 S8 1_555 1_555
N1 S9 1_555 1_555
S9 O1 1_555 1_555
C11 S9 1_555 1_555
O4 S9 1_555 1_555
F4 C11 1_555 1_555
F5 C11 1_555 1_555
F6 C11 1_555 1_555
H1 C7 1_555 1_555
H2 C7 1_555 1_555
H3 C8 1_555 1_555
H4 C8 1_555 1_555
H5 C9 1_555 1_555
H6 C9 1_555 1_555
H7 C10 1_555 1_555
H8 C10 1_555 1_555
N1A S9 1_555 1_555
S9A N1 1_555 1_555
O1A S9A 1_555 1_555
C11A S9A 1_555 1_555
F4A C11A 1_555 1_555
F5A C11A 1_555 1_555
F6A C11A 1_555 1_555
O4A S9A 1_555 1_555
C3 C4 1_555 1_555
C5 C6 1_555 1_555
C7 C8 1_555 1_555
C9 C10 1_555 1_555
N1A S9A 1_555 1_555

#END
