
#######################################################################
#
#                 Cambridge Crystallographic Data Centre
#                                CCDC 
#
#######################################################################
#
# If this CIF has been generated from an entry in the Cambridge 
# Structural Database, then it will include bibliographic, chemical, 
# crystal, experimental, refinement or atomic coordinate data resulting 
# from the CCDC's data processing and validation procedures.
#
#######################################################################

data_AKASUA
_chemical_formula_moiety         'C19 H23 N2 O2 P1'
_chemical_name_systematic        
1,2-bis(4-methoxyphenyl)-hexahydro-1H-pyrrolo[1,2-c][1,3,2]diazaphosphole
_symmetry_cell_setting           orthorhombic
_symmetry_space_group_name_H-M   'P 21 21 21'
_symmetry_Int_Tables_number      19
_space_group_name_Hall           'P 2ac 2ab'
loop_
_symmetry_equiv_pos_site_id
_symmetry_equiv_pos_as_xyz
1 x,y,z
2 1/2-x,-y,1/2+z
3 -x,1/2+y,1/2-z
4 1/2+x,1/2-y,-z
_cell_length_a                   7.1825(6)
_cell_length_b                   7.9276(6)
_cell_length_c                   31.138(2)
_cell_angle_alpha                90
_cell_angle_beta                 90
_cell_angle_gamma                90
_cell_volume                     1773
_exptl_crystal_colour            colorless
_exptl_crystal_description       plate
_chemical_melting_point          '159-160 deg.C'
_cell_formula_units_Z            4
loop_
_atom_site_label
_atom_site_type_symbol
_atom_site_fract_x
_atom_site_fract_y
_atom_site_fract_z
P1 P 0.3281(2) 0.71268(18) 0.86438(4)
C1 C 0.5206(8) 0.6132(6) 0.83474(17)
C2 C 0.7016(7) 0.6010(7) 0.85002(18)
H1 H 0.7310 0.6483 0.8772
C3 C 0.8409(10) 0.5216(8) 0.8266(2)
H2 H 0.9635 0.5126 0.8378
C4 C 0.7980(11) 0.4557(8) 0.7867(2)
H3 H 0.8928 0.4013 0.7706
C5 C 0.6220(10) 0.4670(8) 0.7699(2)
H4 H 0.5953 0.4205 0.7424
C6 C 0.4814(9) 0.5479(7) 0.79357(17)
O1 O 0.3040(7) 0.5671(5) 0.77962(11)
C7 C 0.2609(11) 0.5101(10) 0.73756(18)
H5 H 0.1288 0.5306 0.7316
H6 H 0.2868 0.3890 0.7354
H7 H 0.3372 0.5713 0.7166
N1 N 0.4342(7) 0.7580(6) 0.91251(13)
C8 C 0.4353(8) 0.6544(7) 0.94871(16)
C9 C 0.3386(9) 0.5026(7) 0.94795(16)
H8 H 0.2720 0.4724 0.9227
C10 C 0.3362(9) 0.3924(7) 0.98321(16)
H9 H 0.2687 0.2895 0.9818
C11 C 0.4329(8) 0.4350(8) 1.02006(17)
O2 O 0.4407(7) 0.3394(6) 1.05652(13)
C12 C 0.3518(10) 0.1788(8) 1.0551(2)
H10 H 0.3694 0.1210 1.0826
H11 H 0.4065 0.1111 1.0320
H12 H 0.2185 0.1940 1.0497
C13 C 0.5279(8) 0.5883(8) 1.02150(17)
H13 H 0.5924 0.6200 1.0469
C14 C 0.5292(8) 0.6946(8) 0.98630(16)
H14 H 0.5961 0.7979 0.9879
C15 C 0.5213(9) 0.9271(7) 0.91373(16)
H15 H 0.6533 0.9185 0.9227
H16 H 0.4550 1.0011 0.9343
C16 C 0.5073(9) 0.9981(7) 0.86808(18)
H17 H 0.6246 0.9675 0.8526
C17 C 0.4808(17) 1.1881(17) 0.8637(5)
H18 H 0.5335 1.2315 0.8364
H19 H 0.5356 1.2503 0.8882
C18 C 0.2647(17) 1.1959(17) 0.8639(5)
H20 H 0.2170 1.2022 0.8937
H21 H 0.2200 1.2957 0.8478
C19 C 0.202(2) 1.0363(18) 0.8427(5)
H22 H 0.0887 0.9931 0.8569
H23 H 0.1730 1.0582 0.8121
N2 N 0.3514(7) 0.9122(6) 0.84588(13)
C20? C 0.436(3) 1.185(3) 0.8686(7)
H24? H 0.4034 1.2193 0.8983
H25? H 0.5340 1.2620 0.8578
C21? C 0.2680(16) 1.1930(17) 0.8403(4)
H26? H 0.3029 1.2022 0.8097
H27? H 0.1861 1.2886 0.8481
C22? C 0.173(3) 1.019(2) 0.8504(7)
H28? H 0.1203 1.0145 0.8797
H29? H 0.0772 0.9885 0.8290
loop_
_geom_bond_atom_site_label_1
_geom_bond_atom_site_label_2
_geom_bond_site_symmetry_1
_geom_bond_site_symmetry_2
P1 C1 1_555 1_555
C1 C2 1_555 1_555
C2 H1 1_555 1_555
C3 C2 1_555 1_555
H2 C3 1_555 1_555
C4 C3 1_555 1_555
H3 C4 1_555 1_555
C5 C4 1_555 1_555
H4 C5 1_555 1_555
C6 C1 1_555 1_555
O1 C6 1_555 1_555
C7 O1 1_555 1_555
H5 C7 1_555 1_555
H6 C7 1_555 1_555
H7 C7 1_555 1_555
N1 P1 1_555 1_555
C8 N1 1_555 1_555
C9 C8 1_555 1_555
H8 C9 1_555 1_555
C10 C9 1_555 1_555
H9 C10 1_555 1_555
C11 C10 1_555 1_555
O2 C11 1_555 1_555
C12 O2 1_555 1_555
H10 C12 1_555 1_555
H11 C12 1_555 1_555
H12 C12 1_555 1_555
C13 C11 1_555 1_555
H13 C13 1_555 1_555
C14 C8 1_555 1_555
H14 C14 1_555 1_555
C15 N1 1_555 1_555
H15 C15 1_555 1_555
H16 C15 1_555 1_555
C16 C15 1_555 1_555
H17 C16 1_555 1_555
C17 C16 1_555 1_555
H18 C17 1_555 1_555
H19 C17 1_555 1_555
C18 C17 1_555 1_555
H20 C18 1_555 1_555
H21 C18 1_555 1_555
C19 C18 1_555 1_555
H22 C19 1_555 1_555
H23 C19 1_555 1_555
N2 P1 1_555 1_555
C5 C6 1_555 1_555
C13 C14 1_555 1_555
C16 N2 1_555 1_555
C19 N2 1_555 1_555

#END
