
#######################################################################
#
#                 Cambridge Crystallographic Data Centre
#                                CCDC 
#
#######################################################################
#
# If this CIF has been generated from an entry in the Cambridge 
# Structural Database, then it will include bibliographic, chemical, 
# crystal, experimental, refinement or atomic coordinate data resulting 
# from the CCDC's data processing and validation procedures.
#
#######################################################################

data_AKATUC
_chemical_formula_moiety         'C13 H10 Br1 F2 S1 1+,C1 F3 O3 S1 1-'
_chemical_name_systematic        
'Bromo(difluoro)methyl(diphenyl)sulfonium trifluoromethanesulfonate'
_symmetry_cell_setting           orthorhombic
_symmetry_space_group_name_H-M   'P b c a'
_symmetry_Int_Tables_number      61
_space_group_name_Hall           '-P 2ac 2ab'
loop_
_symmetry_equiv_pos_site_id
_symmetry_equiv_pos_as_xyz
1 x,y,z
2 1/2-x,-y,1/2+z
3 -x,1/2+y,1/2-z
4 1/2+x,1/2-y,-z
5 -x,-y,-z
6 1/2+x,y,1/2-z
7 x,1/2-y,1/2+z
8 1/2-x,1/2+y,z
_cell_length_a                   13.9203(12)
_cell_length_b                   13.0024(11)
_cell_length_c                   19.1781(17)
_cell_angle_alpha                90
_cell_angle_beta                 90
_cell_angle_gamma                90
_cell_volume                     3471.18
_exptl_crystal_colour            colorless
_cell_formula_units_Z            8
loop_
_atom_site_label
_atom_site_type_symbol
_atom_site_fract_x
_atom_site_fract_y
_atom_site_fract_z
Br1 Br 0.13274(2) 0.64241(3) 0.155079(17)
S1 S -0.01184(5) 0.72293(5) 0.04758(4)
F1 F 0.07303(14) 0.54888(13) 0.03823(10)
F2 F 0.16961(12) 0.67409(14) 0.02024(10)
C1 C 0.0974(2) 0.6413(2) 0.05991(15)
C2 C -0.03862(18) 0.70927(19) -0.04231(14)
C3 C -0.13312(19) 0.6794(2) -0.05356(15)
H1 H -0.1751 0.6705 -0.0163
C4 C -0.1632(2) 0.6633(2) -0.12095(17)
H2 H -0.2262 0.6432 -0.1296
C5 C -0.1007(2) 0.6766(2) -0.17529(16)
H3 H -0.1214 0.6653 -0.2208
C6 C -0.0074(2) 0.7067(2) -0.16296(15)
H4 H 0.0341 0.7162 -0.2004
C7 C 0.0255(2) 0.7231(2) -0.09633(15)
H5 H 0.0887 0.7427 -0.0880
C8 C 0.03253(19) 0.8473(2) 0.06694(15)
C9 C 0.0976(2) 0.9006(2) 0.02584(16)
H6 H 0.1194 0.8735 -0.0162
C10 C 0.1290(2) 0.9948(2) 0.0492(2)
H7 H 0.1727 1.0323 0.0228
C11 C 0.0960(3) 1.0341(3) 0.1117(2)
H8 H 0.1191 1.0969 0.1277
C12 C 0.0300(3) 0.9818(3) 0.1499(2)
H9 H 0.0069 1.0099 0.1912
C13 C -0.0028(3) 0.8877(3) 0.12781(18)
H10 H -0.0482 0.8519 0.1538
S2 S 0.26843(6) 0.64588(7) 0.33498(4)
F3 F 0.3050(3) 0.4663(3) 0.2832(2)
F4 F 0.2272(3) 0.4635(3) 0.3762(3)
F5 F 0.3735(2) 0.4989(2) 0.3798(2)
O1 O 0.1841(2) 0.6482(3) 0.29455(15)
O2 O 0.3532(2) 0.6840(3) 0.30366(18)
O3 O 0.25411(16) 0.6781(2) 0.40426(12)
C14 C 0.2942(4) 0.5112(4) 0.3430(3)
loop_
_geom_bond_atom_site_label_1
_geom_bond_atom_site_label_2
_geom_bond_site_symmetry_1
_geom_bond_site_symmetry_2
Br1 C1 1_555 1_555
S1 C1 1_555 1_555
F1 C1 1_555 1_555
F2 C1 1_555 1_555
C2 S1 1_555 1_555
C3 C2 1_555 1_555
H1 C3 1_555 1_555
C4 C3 1_555 1_555
H2 C4 1_555 1_555
C5 C4 1_555 1_555
H3 C5 1_555 1_555
C6 C5 1_555 1_555
H4 C6 1_555 1_555
C7 C2 1_555 1_555
H5 C7 1_555 1_555
C8 S1 1_555 1_555
C9 C8 1_555 1_555
H6 C9 1_555 1_555
C10 C9 1_555 1_555
H7 C10 1_555 1_555
C11 C10 1_555 1_555
H8 C11 1_555 1_555
C12 C11 1_555 1_555
H9 C12 1_555 1_555
C13 C8 1_555 1_555
H10 C13 1_555 1_555
S2 O1 1_555 1_555
F3 C14 1_555 1_555
F4 C14 1_555 1_555
F5 C14 1_555 1_555
O2 S2 1_555 1_555
O3 S2 1_555 1_555
C14 S2 1_555 1_555
C6 C7 1_555 1_555
C12 C13 1_555 1_555

#END
