
#######################################################################
#
#                 Cambridge Crystallographic Data Centre
#                                CCDC 
#
#######################################################################
#
# If this CIF has been generated from an entry in the Cambridge 
# Structural Database, then it will include bibliographic, chemical, 
# crystal, experimental, refinement or atomic coordinate data resulting 
# from the CCDC's data processing and validation procedures.
#
#######################################################################

data_AKAWUG
_chemical_formula_moiety         'C14 H8 S2 1+,C14 H8 S2,As1 F6 1-'
_chemical_name_systematic        
'bis([1]Benzothieno[3,2-b][1]benzothiophene) hexafluoroarsenate'
_symmetry_cell_setting           tetragonal
_symmetry_space_group_name_H-M   'P -4 21 c'
_symmetry_Int_Tables_number      114
_space_group_name_Hall           'P -4 2n'
loop_
_symmetry_equiv_pos_site_id
_symmetry_equiv_pos_as_xyz
1 x,y,z
2 y,-x,-z
3 -x,-y,z
4 -y,x,-z
5 1/2-x,1/2+y,1/2-z
6 1/2-y,1/2-x,1/2+z
7 1/2+x,1/2-y,1/2-z
8 1/2+y,1/2+x,1/2+z
_cell_length_a                   13.5835(13)
_cell_length_b                   13.5835(13)
_cell_length_c                   6.737(3)
_cell_angle_alpha                90
_cell_angle_beta                 90
_cell_angle_gamma                90
_cell_volume                     1243.05
_exptl_crystal_colour            colorless
_exptl_crystal_description       prismatic
_cell_formula_units_Z            2
loop_
_atom_site_label
_atom_site_type_symbol
_atom_site_fract_x
_atom_site_fract_y
_atom_site_fract_z
S1 S 1.03990(11) 0.35082(11) 0.0980(3)
C1 C 0.8476(5) 0.2766(5) 0.0984(10)
C2 C 0.7473(5) 0.2956(5) 0.0991(10)
C3 C 0.7100(5) 0.3906(6) 0.1007(12)
C4 C 0.7722(5) 0.4699(5) 0.1004(10)
C5 C 0.8741(5) 0.4540(5) 0.0994(10)
C6 C 0.9105(5) 0.3559(5) 0.0982(10)
C7 C 1.0464(4) 0.4782(4) 0.1000(9)
H1 H 0.8715 0.2124 0.0980
H2 H 0.7036 0.2429 0.0985
H3 H 0.6423 0.4006 0.1019
H4 H 0.7471 0.5336 0.1009
S1B S 0.96010(11) 0.64918(11) 0.0980(3)
C1B C 1.1524(5) 0.7234(5) 0.0984(10)
C2B C 1.2527(5) 0.7044(5) 0.0991(10)
C3B C 1.2900(5) 0.6094(6) 0.1007(12)
C4B C 1.2278(5) 0.5301(5) 0.1004(10)
C5B C 1.1259(5) 0.5460(5) 0.0994(10)
C6B C 1.0895(5) 0.6441(5) 0.0982(10)
C7B C 0.9536(4) 0.5218(4) 0.1000(9)
H1B H 1.1285 0.7876 0.0980
H2B H 1.2964 0.7571 0.0985
H3B H 1.3577 0.5994 0.1019
H4B H 1.2529 0.4664 0.1009
As1 As 1.0000 0.0000 0.0000
F1 F 1.0338(3) 0.1214(3) -0.0004(8)
F2 F 1.0000 0.0000 0.2541(11)
F1A F 1.1214(3) -0.0338(3) 0.0004(8)
F2A F 1.0000 0.0000 -0.2541(11)
F1B F 0.9662(3) -0.1214(3) -0.0004(8)
F1C F 0.8786(3) 0.0338(3) 0.0004(8)
loop_
_geom_bond_atom_site_label_1
_geom_bond_atom_site_label_2
_geom_bond_site_symmetry_1
_geom_bond_site_symmetry_2
As1 F1 1_555 1_555
F2 As1 1_555 1_555
S1 C6 1_555 1_555
C1 C2 1_555 1_555
C2 C3 1_555 1_555
C3 C4 1_555 1_555
C4 C5 1_555 1_555
C5 C6 1_555 1_555
C6 C1 1_555 1_555
C7 S1 1_555 1_555
H1 C1 1_555 1_555
H2 C2 1_555 1_555
H3 C3 1_555 1_555
H4 C4 1_555 1_555
F1A As1 1_555 1_555
F2A As1 1_555 1_555
F1B As1 1_555 1_555
F1C As1 1_555 1_555
S1B C6B 1_555 1_555
C1B C2B 1_555 1_555
C2B C3B 1_555 1_555
C3B C4B 1_555 1_555
C4B C5B 1_555 1_555
C5B C7 1_555 1_555
C6B C1B 1_555 1_555
C7B C5 1_555 1_555
H1B C1B 1_555 1_555
H2B C2B 1_555 1_555
H3B C3B 1_555 1_555
H4B C4B 1_555 1_555
C7 C7B 1_555 1_555
S1B C7B 1_555 1_555
C5B C6B 1_555 1_555

#END
