
#######################################################################
#
#                 Cambridge Crystallographic Data Centre
#                                CCDC 
#
#######################################################################
#
# If this CIF has been generated from an entry in the Cambridge 
# Structural Database, then it will include bibliographic, chemical, 
# crystal, experimental, refinement or atomic coordinate data resulting 
# from the CCDC's data processing and validation procedures.
#
#######################################################################

data_AKEBID
_chemical_name_common            
'5,11,17,23-Tetra-t-butyl-2,8,14,20-tetrathia-25,26,27,28-((2-amino-2-oxoethyl)oxy)calix(4)arene dihydrate'
_chemical_formula_moiety         'C48 H60 N4 O8 S4,2(H2 O1)'
_chemical_name_systematic        
"2,2',2'',2'''-((5,11,17,23-Tetra-t-butyl-2,8,14,20-tetrathiapentacyclo[19.3.1.1^3,7^.1^9,13^.1^15,19^]octacosa-1(25),3(28),4,6,9(27),10,12,15(26),16,18,21,23-dodecaene-25,26,27,28-tetrayl)tetrakis(oxy))tetraacetamide dihydrate"
_symmetry_cell_setting           tetragonal
_symmetry_space_group_name_H-M   'I 41/a'
_symmetry_Int_Tables_number      88
_space_group_name_Hall           '-I 4ad'
loop_
_symmetry_equiv_pos_site_id
_symmetry_equiv_pos_as_xyz
1 x,y,z
2 1/2-x,-y,1/2+z
3 3/4-y,1/4+x,1/4+z
4 3/4+y,3/4-x,3/4+z
5 1/2+x,1/2+y,1/2+z
6 -x,1/2-y,z
7 1/4-y,3/4+x,3/4+z
8 1/4+y,1/4-x,1/4+z
9 -x,-y,-z
10 1/2+x,y,1/2-z
11 1/4+y,3/4-x,3/4-z
12 1/4-y,1/4+x,1/4-z
13 1/2-x,1/2-y,1/2-z
14 x,1/2+y,-z
15 3/4+y,1/4-x,1/4-z
16 3/4-y,3/4+x,3/4-z
_cell_length_a                   10.4901(6)
_cell_length_b                   10.4901(6)
_cell_length_c                   50.020(4)
_cell_angle_alpha                90
_cell_angle_beta                 90
_cell_angle_gamma                90
_cell_volume                     5504.31
_exptl_crystal_colour            colorless
_exptl_crystal_description       block
_cell_formula_units_Z            4
loop_
_atom_site_label
_atom_site_type_symbol
_atom_site_fract_x
_atom_site_fract_y
_atom_site_fract_z
C1 C 0.71078(19) 0.2059(2) 0.10705(4)
C2 C 0.6788(2) 0.1717(2) 0.08104(4)
H1 H 0.6326 0.2289 0.0706
C3 C 0.7134(2) 0.0551(2) 0.07005(4)
C4 C 0.6672(3) 0.0174(3) 0.04206(5)
C5 C 0.7142(8) -0.1128(7) 0.03366(13)
H2 H 0.6846 -0.1311 0.0159
H3 H 0.6821 -0.1759 0.0458
H4 H 0.8057 -0.1139 0.0339
C6 C 0.5210(4) 0.0113(7) 0.04284(9)
H5 H 0.4876 0.0932 0.0477
H6 H 0.4946 -0.0510 0.0558
H7 H 0.4893 -0.0122 0.0255
C7 C 0.7045(8) 0.1186(7) 0.02198(9)
H8 H 0.6748 0.0944 0.0046
H9 H 0.7957 0.1271 0.0217
H10 H 0.6669 0.1985 0.0270
C8 C 0.78153(19) 0.1220(2) 0.12269(4)
C9 C 0.7078(3) 0.1176(3) 0.16685(4)
H11 H 0.6849 0.0287 0.1645
H12 H 0.6336 0.1691 0.1627
C10 C 0.7477(3) 0.1404(3) 0.19545(5)
C11 C 0.7590(2) 0.4264(2) 0.13846(4)
C12 C 0.7263(2) 0.4599(2) 0.16453(4)
H13 H 0.6501 0.4303 0.1717
N1 N 0.8681(3) 0.1543(3) 0.20013(5)
H14 H 0.8946 0.1644 0.2163
H15 H 0.9217 0.1534 0.1871
O1 O 0.80959(14) 0.14963(15) 0.14907(3)
O2 O 0.6644(3) 0.1404(3) 0.21262(4)
S1 S 0.64034(5) 0.34823(6) 0.119204(12)
C1K C 1.0441(2) -0.03922(19) 0.14295(4)
C2K C 1.0783(2) -0.0712(2) 0.16896(4)
H1K H 1.0211 -0.1174 0.1794
C3K C 1.1949(2) -0.0366(2) 0.17995(4)
C4K C 1.2326(3) -0.0828(3) 0.20794(5)
C5K C 1.3628(7) -0.0358(8) 0.21634(13)
H2K H 1.3811 -0.0654 0.2341
H3K H 1.4259 -0.0679 0.2042
H4K H 1.3639 0.0557 0.2161
C6K C 1.2387(7) -0.2290(4) 0.20716(9)
H5K H 1.1568 -0.2624 0.2023
H6K H 1.3010 -0.2554 0.1942
H7K H 1.2622 -0.2607 0.2245
C7K C 1.1314(7) -0.0455(8) 0.22802(9)
H8K H 1.1556 -0.0752 0.2454
H9K H 1.1229 0.0457 0.2283
H10K H 1.0515 -0.0831 0.2230
C8K C 1.1280(2) 0.03153(19) 0.12731(4)
C9K C 1.1324(3) -0.0422(3) 0.08315(4)
H11K H 1.2213 -0.0651 0.0855
H12K H 1.0809 -0.1164 0.0873
C10K C 1.1096(3) -0.0023(3) 0.05455(5)
C11K C 0.8236(2) 0.0090(2) 0.11154(4)
C12K C 0.7901(2) -0.0237(2) 0.08547(4)
H13K H 0.8197 -0.0999 0.0783
N1K N 1.0957(3) 0.1181(3) 0.04987(5)
H14K H 1.0856 0.1446 0.0337
H15K H 1.0966 0.1717 0.0629
O1K O 1.10037(15) 0.05959(14) 0.10093(3)
O2K O 1.1096(3) -0.0856(3) 0.03738(4)
S1K S 0.90177(6) -0.10966(5) 0.130796(12)
C1N C 0.9559(2) 0.53922(19) 0.14295(4)
C2N C 0.9217(2) 0.5712(2) 0.16896(4)
H1N H 0.9789 0.6174 0.1794
C3N C 0.8051(2) 0.5366(2) 0.17995(4)
C4N C 0.7674(3) 0.5828(3) 0.20794(5)
C5N C 0.6372(7) 0.5358(8) 0.21634(13)
H2N H 0.6189 0.5654 0.2341
H3N H 0.5741 0.5679 0.2042
H4N H 0.6361 0.4443 0.2161
C6N C 0.7613(7) 0.7290(4) 0.20716(9)
H5N H 0.8432 0.7624 0.2023
H6N H 0.6990 0.7554 0.1942
H7N H 0.7378 0.7607 0.2245
C7N C 0.8686(7) 0.5455(8) 0.22802(9)
H8N H 0.8444 0.5752 0.2454
H9N H 0.8771 0.4543 0.2283
H10N H 0.9485 0.5831 0.2230
C8N C 0.8720(2) 0.46847(19) 0.12731(4)
C9N C 0.8676(3) 0.5422(3) 0.08315(4)
H11N H 0.7787 0.5651 0.0855
H12N H 0.9191 0.6164 0.0873
C10N C 0.8904(3) 0.5023(3) 0.05455(5)
C11N C 1.1764(2) 0.4910(2) 0.11154(4)
C12N C 1.2099(2) 0.5237(2) 0.08547(4)
H13N H 1.1803 0.5999 0.0783
N1N N 0.9043(3) 0.3819(3) 0.04987(5)
H14N H 0.9144 0.3554 0.0337
H15N H 0.9034 0.3283 0.0629
O1N O 0.89963(15) 0.44041(14) 0.10093(3)
O2N O 0.8904(3) 0.5856(3) 0.03738(4)
S1N S 1.09823(6) 0.60966(5) 0.130796(12)
C1E C 1.28922(19) 0.2941(2) 0.10705(4)
C2E C 1.3212(2) 0.3283(2) 0.08104(4)
H1E H 1.3674 0.2711 0.0706
C3E C 1.2866(2) 0.4449(2) 0.07005(4)
C4E C 1.3328(3) 0.4826(3) 0.04206(5)
C5E C 1.2858(8) 0.6128(7) 0.03366(13)
H2E H 1.3154 0.6311 0.0159
H3E H 1.3179 0.6759 0.0458
H4E H 1.1943 0.6139 0.0339
C6E C 1.4790(4) 0.4887(7) 0.04284(9)
H5E H 1.5124 0.4068 0.0477
H6E H 1.5054 0.5510 0.0558
H7E H 1.5107 0.5122 0.0255
C7E C 1.2955(8) 0.3814(7) 0.02198(9)
H8E H 1.3252 0.4056 0.0046
H9E H 1.2043 0.3729 0.0217
H10E H 1.3331 0.3015 0.0270
C8E C 1.21847(19) 0.3780(2) 0.12269(4)
C9E C 1.2922(3) 0.3824(3) 0.16685(4)
H11E H 1.3151 0.4713 0.1645
H12E H 1.3664 0.3309 0.1627
C10E C 1.2523(3) 0.3596(3) 0.19545(5)
C11E C 1.2410(2) 0.0736(2) 0.13846(4)
C12E C 1.2737(2) 0.0401(2) 0.16453(4)
H13E H 1.3499 0.0697 0.1717
N1E N 1.1319(3) 0.3457(3) 0.20013(5)
H14E H 1.1054 0.3356 0.2163
H15E H 1.0783 0.3466 0.1871
O1E O 1.19041(14) 0.35037(15) 0.14907(3)
O2E O 1.3356(3) 0.3596(3) 0.21262(4)
S1E S 1.35966(5) 0.15177(6) 0.119204(12)
O3 O 0.0000 0.2500 0.24935(4)
H25 H 0.0540 0.2126 0.2583
H25E H -0.0540 0.2874 0.2583
C13? C 0.7825(12) -0.038(2) 0.0264(2)
H16? H 0.7553 -0.0632 0.0088
H17? H 0.8153 -0.1112 0.0357
H18? H 0.8480 0.0253 0.0250
C14? C 0.5672(19) -0.085(2) 0.0435(4)
H19? H 0.5738 -0.1394 0.0281
H20? H 0.4842 -0.0468 0.0440
H21? H 0.5799 -0.1350 0.0594
C15? C 0.622(2) 0.1306(13) 0.0257(4)
H22? H 0.6820 0.1992 0.0274
H23? H 0.5401 0.1579 0.0321
H24? H 0.6153 0.1063 0.0072
loop_
_geom_bond_atom_site_label_1
_geom_bond_atom_site_label_2
_geom_bond_site_symmetry_1
_geom_bond_site_symmetry_2
C1 C2 1_555 1_555
C2 H1 1_555 1_555
C3 C2 1_555 1_555
C4 C3 1_555 1_555
C5 C4 1_555 1_555
H2 C5 1_555 1_555
H3 C5 1_555 1_555
H4 C5 1_555 1_555
C6 C4 1_555 1_555
H5 C6 1_555 1_555
H6 C6 1_555 1_555
H7 C6 1_555 1_555
C7 C4 1_555 1_555
H8 C7 1_555 1_555
H9 C7 1_555 1_555
H10 C7 1_555 1_555
C8 C1 1_555 1_555
C9 H11 1_555 1_555
H12 C9 1_555 1_555
C10 C9 1_555 1_555
C11 C12 1_555 1_555
C12 H13 1_555 1_555
N1 C10 1_555 1_555
H14 N1 1_555 1_555
H15 N1 1_555 1_555
O1 C8 1_555 1_555
O2 C10 1_555 1_555
S1 C1 1_555 1_555
O3 H25 1_555 1_555
C1K C2K 1_555 1_555
C2K H1K 1_555 1_555
C3K C2K 1_555 1_555
C4K C3K 1_555 1_555
C5K C4K 1_555 1_555
H2K C5K 1_555 1_555
H3K C5K 1_555 1_555
H4K C5K 1_555 1_555
C6K C4K 1_555 1_555
H5K C6K 1_555 1_555
H6K C6K 1_555 1_555
H7K C6K 1_555 1_555
C7K C4K 1_555 1_555
H8K C7K 1_555 1_555
H9K C7K 1_555 1_555
H10K C7K 1_555 1_555
C8K C1K 1_555 1_555
C9K H11K 1_555 1_555
H12K C9K 1_555 1_555
C10K C9K 1_555 1_555
C11K C8 1_555 1_555
C12K C3 1_555 1_555
H13K C12K 1_555 1_555
N1K C10K 1_555 1_555
H14K N1K 1_555 1_555
H15K N1K 1_555 1_555
O1K C8K 1_555 1_555
O2K C10K 1_555 1_555
S1K C1K 1_555 1_555
C1N C2N 1_555 1_555
C2N H1N 1_555 1_555
C3N C12 1_555 1_555
C4N C3N 1_555 1_555
C5N C4N 1_555 1_555
H2N C5N 1_555 1_555
H3N C5N 1_555 1_555
H4N C5N 1_555 1_555
C6N C4N 1_555 1_555
H5N C6N 1_555 1_555
H6N C6N 1_555 1_555
H7N C6N 1_555 1_555
C7N C4N 1_555 1_555
H8N C7N 1_555 1_555
H9N C7N 1_555 1_555
H10N C7N 1_555 1_555
C8N C11 1_555 1_555
C9N H11N 1_555 1_555
H12N C9N 1_555 1_555
C10N C9N 1_555 1_555
C11N C12N 1_555 1_555
C12N H13N 1_555 1_555
N1N C10N 1_555 1_555
H14N N1N 1_555 1_555
H15N N1N 1_555 1_555
O1N C8N 1_555 1_555
O2N C10N 1_555 1_555
S1N C1N 1_555 1_555
C1E C2E 1_555 1_555
C2E H1E 1_555 1_555
C3E C12N 1_555 1_555
C4E C3E 1_555 1_555
C5E C4E 1_555 1_555
H2E C5E 1_555 1_555
H3E C5E 1_555 1_555
H4E C5E 1_555 1_555
C6E C4E 1_555 1_555
H5E C6E 1_555 1_555
H6E C6E 1_555 1_555
H7E C6E 1_555 1_555
C7E C4E 1_555 1_555
H8E C7E 1_555 1_555
H9E C7E 1_555 1_555
H10E C7E 1_555 1_555
C8E C11N 1_555 1_555
C9E H11E 1_555 1_555
H12E C9E 1_555 1_555
C10E C9E 1_555 1_555
C11E C8K 1_555 1_555
C12E C3K 1_555 1_555
H13E C12E 1_555 1_555
N1E C10E 1_555 1_555
H14E N1E 1_555 1_555
H15E N1E 1_555 1_555
O1E C8E 1_555 1_555
O2E C10E 1_555 1_555
S1E C1E 1_555 1_555
H25E O3 1_555 1_555
C9 O1 1_555 1_555
C11 S1 1_555 1_555
C9K O1K 1_555 1_555
C11K C12K 1_555 1_555
C11K S1K 1_555 1_555
C1N C8N 1_555 1_555
C2N C3N 1_555 1_555
C9N O1N 1_555 1_555
C11N S1N 1_555 1_555
C1E C8E 1_555 1_555
C2E C3E 1_555 1_555
C9E O1E 1_555 1_555
C11E C12E 1_555 1_555
C11E S1E 1_555 1_555

#END
