
#######################################################################
#
#                 Cambridge Crystallographic Data Centre
#                                CCDC 
#
#######################################################################
#
# If this CIF has been generated from an entry in the Cambridge 
# Structural Database, then it will include bibliographic, chemical, 
# crystal, experimental, refinement or atomic coordinate data resulting 
# from the CCDC's data processing and validation procedures.
#
#######################################################################

data_AKEBEZ
_chemical_name_common            
'2,8,14,20-tetrathia-25,26,27,28-((2-amino-2-oxoethyl)oxy)calix(4)arene dichloromethane solvate'
_chemical_formula_moiety         'C32 H28 N4 O8 S4,0.5(C1 H2 Cl2)'
_chemical_name_systematic        
"2,2',2'',2'''-(2,8,14,20-Tetrathiapentacyclo[19.3.1.1^3,7^.1^9,13^.1^15,19^]octacosa-1(25),3(28),4,6,9(27),10,12,15(26),16,18,21,23-dodecaene-25,26,27,28-tetrayltetrakis(oxy))tetraacetamide dichloromethane solvate"
_symmetry_cell_setting           monoclinic
_symmetry_space_group_name_H-M   'C 2/c'
_symmetry_Int_Tables_number      15
_space_group_name_Hall           '-C 2yn'
loop_
_symmetry_equiv_pos_site_id
_symmetry_equiv_pos_as_xyz
1 x,y,z
2 -x,y,1/2-z
3 1/2+x,1/2+y,z
4 1/2-x,1/2+y,1/2-z
5 -x,-y,-z
6 x,-y,1/2+z
7 1/2-x,1/2-y,-z
8 1/2+x,1/2-y,1/2+z
_cell_length_a                   67.313(9)
_cell_length_b                   9.9933(13)
_cell_length_c                   20.184(3)
_cell_angle_alpha                90
_cell_angle_beta                 90.674(2)
_cell_angle_gamma                90
_cell_volume                     13576.4
_cell_formula_units_Z            16
loop_
_atom_site_label
_atom_site_type_symbol
_atom_site_fract_x
_atom_site_fract_y
_atom_site_fract_z
S5 S 0.156274(19) 1.28153(14) 0.12175(7)
S6 S 0.224094(18) 0.67589(14) 0.19606(8)
C33 C 0.15141(5) 1.0086(5) 0.1352(2)
C34 C 0.15506(6) 1.1150(6) 0.0927(2)
C35 C 0.14874(6) 0.8768(6) 0.1102(2)
C36 C 0.15546(7) 1.0923(8) 0.0241(3)
H29 H 0.1576 1.1624 -0.0053
C37 C 0.14945(8) 0.8577(8) 0.0431(3)
H30 H 0.1478 0.7719 0.0260
C38 C 0.15250(8) 0.9616(10) 0.0009(3)
H31 H 0.1526 0.9455 -0.0445
O9 O 0.15103(3) 1.0309(3) 0.20179(12)
C39 C 0.13134(6) 1.0497(5) 0.2259(2)
H32 H 0.1251 0.9631 0.2319
H33 H 0.1236 1.0992 0.1934
C40 C 0.13143(6) 1.1235(4) 0.28990(19)
N5 N 0.11361(5) 1.1680(3) 0.30679(17)
H34 H 0.1122 1.2116 0.3431
H35 H 0.1035 1.1531 0.2814
O10 O 0.14639(4) 1.1415(3) 0.32407(14)
S7 S 0.143633(18) 0.73997(14) 0.16191(9)
C41 C 0.18396(6) 0.7194(4) 0.1854(2)
C42 C 0.20028(7) 0.7051(4) 0.2271(2)
C43 C 0.16497(7) 0.7289(4) 0.2123(3)
C44 C 0.16316(9) 0.7206(5) 0.2821(3)
H36 H 0.1506 0.7268 0.3007
C45 C 0.19758(9) 0.6972(5) 0.2946(3)
H37 H 0.2086 0.6869 0.3222
C46 C 0.17920(11) 0.7040(6) 0.3225(3)
H38 H 0.1777 0.6973 0.3681
O11 O 0.18680(4) 0.7268(3) 0.11777(15)
C47 C 0.18438(7) 0.6019(5) 0.0841(2)
H39 H 0.1710 0.5687 0.0906
H40 H 0.1936 0.5369 0.1024
C48 C 0.18805(8) 0.6185(6) 0.0115(3)
O12 O 0.18171(6) 0.5319(4) -0.02822(19)
N6 N 0.19768(8) 0.7230(6) -0.0054(2)
H41 H 0.2002 0.7375 -0.0465
H42 H 0.2017 0.7789 0.0243
C49 C 0.22883(5) 0.9505(5) 0.17817(19)
C50 C 0.23844(6) 1.0622(6) 0.1490(2)
C51 C 0.23239(6) 0.8224(5) 0.1573(2)
C52 C 0.24615(8) 0.8028(8) 0.1057(3)
H43 H 0.2487 0.7170 0.0901
C53 C 0.25567(9) 0.9109(10) 0.0787(3)
H44 H 0.2649 0.8973 0.0453
C54 C 0.25197(8) 1.0366(8) 0.0997(3)
H45 H 0.2587 1.1077 0.0805
O13 O 0.21458(3) 0.9728(3) 0.22556(12)
C55 C 0.22143(5) 1.0046(5) 0.29102(18)
H46 H 0.2320 1.0704 0.2891
H47 H 0.2266 0.9249 0.3127
C56 C 0.20422(7) 1.0596(4) 0.3288(2)
N7 N 0.18649(5) 1.0447(3) 0.30242(17)
H48 H 0.1763 1.0761 0.3223
H49 H 0.1851 1.0036 0.2652
O14 O 0.20783(5) 1.1171(4) 0.38210(15)
S8 S 0.237091(19) 1.22976(15) 0.17549(7)
C57 C 0.19609(7) 1.2471(4) 0.15635(19)
C58 C 0.17733(7) 1.2902(4) 0.1752(2)
C59 C 0.21243(7) 1.2680(5) 0.1975(2)
C60 C 0.17528(10) 1.3540(5) 0.2355(3)
H50 H 0.1628 1.3821 0.2487
C61 C 0.20973(10) 1.3357(5) 0.2573(3)
H51 H 0.2206 1.3531 0.2848
C62 C 0.19126(12) 1.3763(5) 0.2758(3)
H52 H 0.1896 1.4194 0.3162
O15 O 0.19843(4) 1.1785(3) 0.09804(13)
C63 C 0.21038(8) 1.1728(6) -0.0123(2)
C64 C 0.20526(8) 1.2596(5) 0.0435(2)
H53 H 0.2168 1.3109 0.0573
H54 H 0.1949 1.3217 0.0301
O16 O 0.21641(9) 1.2151(5) -0.0629(2)
N8 N 0.20798(10) 1.0438(6) -0.0041(2)
H55 H 0.2108 0.9894 -0.0357
H56 H 0.2036 1.0134 0.0328
C65 C 0.01842(9) 0.8028(7) 0.7846(4)
H57 H 0.0196 0.8061 0.8326
H58 H 0.0312 0.8061 0.7628
Cl1 Cl 0.0000 0.6815(11) 0.7500
Cl2 Cl 0.0000 0.8965(19) 0.7500
C65A C -0.01842(9) 0.8028(7) 0.7154(4)
H57A H -0.0196 0.8061 0.6674
H58A H -0.0312 0.8061 0.7372
S1 S 0.101699(15) 0.36725(11) 1.11985(5)
S2 S 0.021189(15) 0.45720(12) 1.07380(5)
S3 S 0.031272(17) 0.34334(12) 0.80742(6)
S4 S 0.111858(16) 0.23142(15) 0.85827(5)
C1 C 0.10516(5) 0.2871(4) 0.98985(18)
C2 C 0.10063(5) 0.1146(4) 1.0710(2)
H1 H 0.0982 0.0895 1.1145
C3 C 0.10200(5) 0.2487(4) 1.05527(17)
C4 C 0.10642(5) 0.1882(5) 0.94126(19)
C5 C 0.10276(6) 0.0180(5) 1.0235(2)
H2 H 0.1023 -0.0720 1.0350
C6 C 0.10559(5) 0.0541(4) 0.9597(2)
H3 H 0.1070 -0.0118 0.9275
O1 O 0.10622(3) 0.4205(3) 0.97227(12)
C7 C 0.12723(6) 0.5975(5) 0.93584(19)
C8 C 0.12597(6) 0.4733(5) 0.9781(2)
H4 H 0.1355 0.4074 0.9633
H5 H 0.1290 0.4950 1.0240
O2 O 0.11323(4) 0.6743(3) 0.92866(15)
N1 N 0.14472(5) 0.6183(4) 0.90856(17)
H6 H 0.1466 0.6883 0.8846
H7 H 0.1542 0.5620 0.9148
C9 C 0.06225(5) 0.4247(4) 1.08595(17)
C10 C 0.08096(5) 0.4719(4) 1.10441(17)
C11 C 0.08325(6) 0.6061(4) 1.12124(19)
H8 H 0.0957 0.6386 1.1330
C12 C 0.04595(5) 0.5117(4) 1.08612(18)
C13 C 0.04865(7) 0.6451(4) 1.1038(2)
H9 H 0.0379 0.7031 1.1041
C14 C 0.06720(7) 0.6911(5) 1.1206(2)
H10 H 0.0690 0.7807 1.1317
C15 C 0.07143(6) 0.2917(4) 0.83229(17)
C16 C 0.09142(6) 0.3311(5) 0.83091(18)
C17 C 0.05699(6) 0.3829(4) 0.81045(18)
C18 C 0.09624(7) 0.4542(5) 0.8028(2)
H11 H 0.1095 0.4791 0.8007
C19 C 0.06228(8) 0.5048(5) 0.7829(2)
H12 H 0.0525 0.5632 0.7677
C20 C 0.08202(9) 0.5398(5) 0.7781(2)
H13 H 0.0857 0.6202 0.7584
O3 O 0.06467(4) 0.1745(3) 0.85902(12)
C21 C 0.07265(6) 0.0498(4) 0.83474(19)
H14 H 0.0685 -0.0212 0.8642
H15 H 0.0870 0.0547 0.8376
C22 C 0.06705(6) 0.0112(4) 0.7658(2)
N2 N 0.05078(5) 0.0643(4) 0.73945(17)
H16 H 0.0471 0.0422 0.7000
H17 H 0.0439 0.1209 0.7617
O4 O 0.07756(4) -0.0702(4) 0.73711(15)
C23 C 0.02877(5) 0.3760(4) 0.9440(2)
C24 C 0.01992(5) 0.3489(4) 1.0046(2)
C25 C 0.02396(5) 0.3005(4) 0.8887(2)
C26 C 0.01032(6) 0.1951(5) 0.8947(3)
H18 H 0.0069 0.1437 0.8578
C27 C 0.00685(6) 0.2421(4) 1.0094(2)
H19 H 0.0014 0.2209 1.0502
C28 C 0.00195(6) 0.1679(5) 0.9549(3)
H20 H -0.0071 0.0983 0.9586
O5 O 0.04331(3) 0.4727(2) 0.93959(12)
C29 C 0.05380(7) 0.7015(5) 0.9338(2)
C30 C 0.03664(6) 0.6063(4) 0.9298(2)
H21 H 0.0270 0.6290 0.9634
H22 H 0.0302 0.6139 0.8868
N3 N 0.07139(5) 0.6457(4) 0.94329(18)
H23 H 0.0818 0.6949 0.9462
H24 H 0.0724 0.5602 0.9466
O6 O 0.05056(6) 0.8207(4) 0.92838(18)
O7 O 0.06018(3) 0.2957(2) 1.06264(11)
C31 C 0.04765(6) 0.0720(4) 1.0731(2)
C32 C 0.05225(6) 0.2008(4) 1.10842(18)
H25 H 0.0402 0.2364 1.1279
H26 H 0.0618 0.1846 1.1438
O8 O 0.04041(5) -0.0202(3) 1.10516(15)
N4 N 0.05165(5) 0.0637(3) 1.00980(18)
H27 H 0.0492 -0.0092 0.9885
H28 H 0.0567 0.1311 0.9896
loop_
_geom_bond_atom_site_label_1
_geom_bond_atom_site_label_2
_geom_bond_site_symmetry_1
_geom_bond_site_symmetry_2
S1 C3 1_555 1_555
S2 C12 1_555 1_555
S3 C17 1_555 1_555
S4 C4 1_555 1_555
C1 C3 1_555 1_555
C2 H1 1_555 1_555
C3 C2 1_555 1_555
C4 C1 1_555 1_555
C5 C2 1_555 1_555
H2 C5 1_555 1_555
C6 C4 1_555 1_555
H3 C6 1_555 1_555
O1 C1 1_555 1_555
C7 C8 1_555 1_555
C8 O1 1_555 1_555
H4 C8 1_555 1_555
H5 C8 1_555 1_555
O2 C7 1_555 1_555
N1 C7 1_555 1_555
H6 N1 1_555 1_555
H7 N1 1_555 1_555
C9 C10 1_555 1_555
C10 S1 1_555 1_555
C11 C10 1_555 1_555
H8 C11 1_555 1_555
C12 C9 1_555 1_555
C13 C12 1_555 1_555
H9 C13 1_555 1_555
C14 C11 1_555 1_555
H10 C14 1_555 1_555
C15 C16 1_555 1_555
C16 S4 1_555 1_555
C17 C15 1_555 1_555
C18 C16 1_555 1_555
H11 C18 1_555 1_555
C19 C17 1_555 1_555
H12 C19 1_555 1_555
C20 C18 1_555 1_555
H13 C20 1_555 1_555
O3 C15 1_555 1_555
C21 O3 1_555 1_555
H14 C21 1_555 1_555
H15 C21 1_555 1_555
C22 C21 1_555 1_555
N2 C22 1_555 1_555
H16 N2 1_555 1_555
H17 N2 1_555 1_555
O4 C22 1_555 1_555
C23 C24 1_555 1_555
C24 S2 1_555 1_555
C25 S3 1_555 1_555
C26 C25 1_555 1_555
H18 C26 1_555 1_555
C27 C24 1_555 1_555
H19 C27 1_555 1_555
C28 C26 1_555 1_555
H20 C28 1_555 1_555
O5 C23 1_555 1_555
C29 C30 1_555 1_555
C30 O5 1_555 1_555
H21 C30 1_555 1_555
H22 C30 1_555 1_555
N3 C29 1_555 1_555
H23 N3 1_555 1_555
H24 N3 1_555 1_555
O6 C29 1_555 1_555
O7 C9 1_555 1_555
C31 C32 1_555 1_555
C32 O7 1_555 1_555
H25 C32 1_555 1_555
H26 C32 1_555 1_555
O8 C31 1_555 1_555
N4 C31 1_555 1_555
H27 N4 1_555 1_555
H28 N4 1_555 1_555
S5 C34 1_555 1_555
S6 C42 1_555 1_555
C33 C34 1_555 1_555
C34 C36 1_555 1_555
C35 C33 1_555 1_555
C36 H29 1_555 1_555
C37 C35 1_555 1_555
H30 C37 1_555 1_555
C38 C36 1_555 1_555
H31 C38 1_555 1_555
O9 C33 1_555 1_555
C39 O9 1_555 1_555
H32 C39 1_555 1_555
H33 C39 1_555 1_555
C40 C39 1_555 1_555
N5 C40 1_555 1_555
H34 N5 1_555 1_555
H35 N5 1_555 1_555
O10 C40 1_555 1_555
S7 C35 1_555 1_555
C41 C42 1_555 1_555
C42 C45 1_555 1_555
C43 S7 1_555 1_555
C44 C43 1_555 1_555
H36 C44 1_555 1_555
C45 H37 1_555 1_555
C46 C44 1_555 1_555
H38 C46 1_555 1_555
O11 C41 1_555 1_555
C47 O11 1_555 1_555
H39 C47 1_555 1_555
H40 C47 1_555 1_555
C48 C47 1_555 1_555
O12 C48 1_555 1_555
N6 C48 1_555 1_555
H41 N6 1_555 1_555
H42 N6 1_555 1_555
C49 C50 1_555 1_555
C50 C54 1_555 1_555
C51 S6 1_555 1_555
C52 C51 1_555 1_555
H43 C52 1_555 1_555
C53 C52 1_555 1_555
H44 C53 1_555 1_555
C54 C53 1_555 1_555
H45 C54 1_555 1_555
O13 C49 1_555 1_555
C55 O13 1_555 1_555
H46 C55 1_555 1_555
H47 C55 1_555 1_555
C56 C55 1_555 1_555
N7 C56 1_555 1_555
H48 N7 1_555 1_555
H49 N7 1_555 1_555
O14 C56 1_555 1_555
S8 C50 1_555 1_555
C57 C58 1_555 1_555
C58 S5 1_555 1_555
C59 S8 1_555 1_555
C60 C58 1_555 1_555
H50 C60 1_555 1_555
C61 C59 1_555 1_555
H51 C61 1_555 1_555
C62 C60 1_555 1_555
H52 C62 1_555 1_555
O15 C57 1_555 1_555
C63 C64 1_555 1_555
C64 O15 1_555 1_555
H53 C64 1_555 1_555
H54 C64 1_555 1_555
O16 C63 1_555 1_555
N8 C63 1_555 1_555
H55 N8 1_555 1_555
H56 N8 1_555 1_555
C65 H57 1_555 1_555
H58 C65 1_555 1_555
Cl1 C65 1_555 1_555
Cl2 C65 1_555 1_555
C65A Cl1 1_555 1_555
H57A C65A 1_555 1_555
H58A C65A 1_555 1_555
C5 C6 1_555 1_555
C13 C14 1_555 1_555
C19 C20 1_555 1_555
C23 C25 1_555 1_555
C27 C28 1_555 1_555
C37 C38 1_555 1_555
C41 C43 1_555 1_555
C45 C46 1_555 1_555
C49 C51 1_555 1_555
C57 C59 1_555 1_555
C61 C62 1_555 1_555
Cl1 Cl2 1_555 1_555
Cl2 C65A 1_555 1_555

#END
