
#######################################################################
#
#                 Cambridge Crystallographic Data Centre
#                                CCDC 
#
#######################################################################
#
# If this CIF has been generated from an entry in the Cambridge 
# Structural Database, then it will include bibliographic, chemical, 
# crystal, experimental, refinement or atomic coordinate data resulting 
# from the CCDC's data processing and validation procedures.
#
#######################################################################

data_AKEDUR
_chemical_formula_moiety         'C13 H10 N2 O5'
_chemical_name_systematic        
5-(2-Hydroxybenzoyl)-1-methyl-3-nitropyridin-2(1H)-one
_symmetry_cell_setting           monoclinic
_symmetry_space_group_name_H-M   'P 21/n'
_symmetry_Int_Tables_number      14
_space_group_name_Hall           '-P 2yn'
loop_
_symmetry_equiv_pos_site_id
_symmetry_equiv_pos_as_xyz
1 x,y,z
2 1/2-x,1/2+y,1/2-z
3 -x,-y,-z
4 1/2+x,1/2-y,1/2+z
_cell_length_a                   7.4998(8)
_cell_length_b                   13.8350(14)
_cell_length_c                   12.2324(12)
_cell_angle_alpha                90
_cell_angle_beta                 107.474(4)
_cell_angle_gamma                90
_cell_volume                     1210.66
_exptl_crystal_colour            colorless
_exptl_crystal_description       block
_cell_formula_units_Z            4
_exptl_crystal_recrystallization_method 'perdeuterodimethyl sulfoxide/ethanol'
loop_
_atom_site_label
_atom_site_type_symbol
_atom_site_fract_x
_atom_site_fract_y
_atom_site_fract_z
O1 O 0.8511(3) -0.05625(17) 1.07410(18)
N1 N 0.4933(3) 0.21890(17) 0.95459(19)
O2 O 0.2617(3) 0.22615(17) 0.78498(18)
O3 O 1.0686(4) -0.0637(2) 1.2845(2)
H1 H 0.9808 -0.0823 1.2307
C1 C 0.7065(4) 0.0878(2) 1.0007(2)
C2 C 0.6121(4) 0.0460(2) 0.8948(2)
H2 H 0.6469 -0.0148 0.8759
N2 N 0.3812(4) 0.0517(2) 0.7088(2)
C3 C 0.6406(4) 0.1738(2) 1.0272(2)
H3 H 0.6993 0.2022 1.0978
C4 C 0.4714(4) 0.0938(2) 0.8206(2)
C5 C 1.0100(4) 0.0801(2) 1.1684(2)
O4 O 0.3589(5) 0.1021(2) 0.6255(2)
C6 C 0.8572(4) 0.0327(2) 1.0816(2)
C7 C 0.3981(4) 0.1837(2) 0.8458(2)
O5 O 0.3364(4) -0.0328(2) 0.7060(2)
C8 C 1.0684(4) 0.1731(3) 1.1538(3)
H4 H 1.0048 0.2080 1.0888
C9 C 1.1098(4) 0.0286(3) 1.2664(3)
C10 C 0.4218(5) 0.3087(2) 0.9891(3)
H5 H 0.3173 0.3312 0.9277
H6 H 0.5185 0.3568 1.0063
H7 H 0.3827 0.2970 1.0558
C11 C 1.2540(5) 0.0719(4) 1.3476(3)
H8 H 1.3150 0.0388 1.4145
C12 C 1.2182(5) 0.2144(3) 1.2333(3)
H9 H 1.2582 0.2761 1.2216
C13 C 1.3088(5) 0.1631(4) 1.3310(4)
H10 H 1.4086 0.1913 1.3863
loop_
_geom_bond_atom_site_label_1
_geom_bond_atom_site_label_2
_geom_bond_site_symmetry_1
_geom_bond_site_symmetry_2
O1 C6 1_555 1_555
N1 C3 1_555 1_555
O2 C7 1_555 1_555
O3 H1 1_555 1_555
C1 C2 1_555 1_555
C2 H2 1_555 1_555
N2 C4 1_555 1_555
C3 C1 1_555 1_555
H3 C3 1_555 1_555
C4 C2 1_555 1_555
C5 C6 1_555 1_555
O4 N2 1_555 1_555
C6 C1 1_555 1_555
C7 N1 1_555 1_555
O5 N2 1_555 1_555
C8 C5 1_555 1_555
H4 C8 1_555 1_555
C9 O3 1_555 1_555
C10 N1 1_555 1_555
H5 C10 1_555 1_555
H6 C10 1_555 1_555
H7 C10 1_555 1_555
C11 C9 1_555 1_555
H8 C11 1_555 1_555
C12 C8 1_555 1_555
H9 C12 1_555 1_555
C13 C11 1_555 1_555
H10 C13 1_555 1_555
C4 C7 1_555 1_555
C5 C9 1_555 1_555
C12 C13 1_555 1_555

#END
