
#######################################################################
#
#                 Cambridge Crystallographic Data Centre
#                                CCDC 
#
#######################################################################
#
# If this CIF has been generated from an entry in the Cambridge 
# Structural Database, then it will include bibliographic, chemical, 
# crystal, experimental, refinement or atomic coordinate data resulting 
# from the CCDC's data processing and validation procedures.
#
#######################################################################

data_AKETAN
_chemical_formula_moiety         'C13 H10 Cl1 N3 O2'
_chemical_name_systematic        
'ethyl 3-chloropyrimido[1,2-a]benzimidazole-2-carboxylate'
_symmetry_cell_setting           orthorhombic
_symmetry_space_group_name_H-M   'P b c a'
_symmetry_Int_Tables_number      61
_space_group_name_Hall           '-P 2ac 2ab'
loop_
_symmetry_equiv_pos_site_id
_symmetry_equiv_pos_as_xyz
1 x,y,z
2 1/2-x,-y,1/2+z
3 -x,1/2+y,1/2-z
4 1/2+x,1/2-y,-z
5 -x,-y,-z
6 1/2+x,y,1/2-z
7 x,1/2-y,1/2+z
8 1/2-x,1/2+y,z
_cell_length_a                   7.240(6)
_cell_length_b                   11.439(10)
_cell_length_c                   29.79(3)
_cell_angle_alpha                90
_cell_angle_beta                 90
_cell_angle_gamma                90
_cell_volume                     2467.16
_exptl_crystal_colour            yellow
_exptl_crystal_description       block
_cell_formula_units_Z            8
loop_
_atom_site_label
_atom_site_type_symbol
_atom_site_fract_x
_atom_site_fract_y
_atom_site_fract_z
Cl1 Cl 0.46554(17) 1.20625(10) 0.39949(4)
N1 N 0.2834(5) 0.8829(3) 0.2575(2)
N2 N 0.3784(5) 1.0630(5) 0.28184(18)
N3 N 0.3191(5) 0.9129(3) 0.3364(2)
C1 C 0.3195(6) 0.9551(6) 0.2212(2)
C2 C 0.3100(6) 0.9313(4) 0.1753(2)
H1 H 0.2685 0.8593 0.1650
C3 C 0.3636(6) 1.0174(6) 0.14591(16)
H2 H 0.3585 1.0027 0.1152
C4 C 0.4259(6) 1.1268(5) 0.1609(2)
H3 H 0.4630 1.1824 0.1400
C5 C 0.4333(6) 1.1534(4) 0.2059(2)
H4 H 0.4726 1.2261 0.2161
C6 C 0.3788(6) 1.0658(6) 0.2351(2)
C7 C 0.3222(6) 0.9487(6) 0.2927(3)
C8 C 0.4191(5) 1.1437(4) 0.3141(3)
H5 H 0.4511 1.2200 0.3066
C9 C 0.4111(5) 1.1082(5) 0.35765(19)
C10 C 0.3634(6) 0.9902(6) 0.3670(2)
C11 C 0.3599(10) 0.9495(5) 0.4154(2)
C12 C 0.5278(9) 0.8397(6) 0.46954(17)
H6 H 0.6370 0.8730 0.4834
H7 H 0.4215 0.8612 0.4875
C13 C 0.5445(9) 0.7138(6) 0.46799(16)
H8 H 0.4289 0.6804 0.4588
H9 H 0.5766 0.6850 0.4972
H10 H 0.6390 0.6925 0.4469
O1 O 0.2398(6) 0.9715(3) 0.44104(12)
O2 O 0.5068(6) 0.8860(4) 0.42416(12)
loop_
_geom_bond_atom_site_label_1
_geom_bond_atom_site_label_2
_geom_bond_site_symmetry_1
_geom_bond_site_symmetry_2
Cl1 C9 1_555 1_555
N1 C1 1_555 1_555
N2 C6 1_555 1_555
N3 C7 1_555 1_555
C1 C2 1_555 1_555
C2 H1 1_555 1_555
C3 C2 1_555 1_555
H2 C3 1_555 1_555
C4 C3 1_555 1_555
H3 C4 1_555 1_555
C5 C4 1_555 1_555
H4 C5 1_555 1_555
C6 C1 1_555 1_555
C7 N1 1_555 1_555
C8 N2 1_555 1_555
H5 C8 1_555 1_555
C9 C8 1_555 1_555
C10 N3 1_555 1_555
C11 C10 1_555 1_555
C12 H6 1_555 1_555
H7 C12 1_555 1_555
C13 C12 1_555 1_555
H8 C13 1_555 1_555
H9 C13 1_555 1_555
H10 C13 1_555 1_555
O1 C11 1_555 1_555
O2 C11 1_555 1_555
N2 C7 1_555 1_555
C5 C6 1_555 1_555
C9 C10 1_555 1_555
C12 O2 1_555 1_555

#END
