
#######################################################################
#
#                 Cambridge Crystallographic Data Centre
#                                CCDC 
#
#######################################################################
#
# If this CIF has been generated from an entry in the Cambridge 
# Structural Database, then it will include bibliographic, chemical, 
# crystal, experimental, refinement or atomic coordinate data resulting 
# from the CCDC's data processing and validation procedures.
#
#######################################################################

data_AKIDIJ
_chemical_formula_moiety         'C21 H18 Br1 Cl1 F3 N1 O3'
_chemical_name_systematic        
'Methyl 5-(4-bromophenyl)-4-(4-chlorobenzoyl)-3-methyl-3-(trifluoromethyl)prolinate'
_symmetry_cell_setting           orthorhombic
_symmetry_space_group_name_H-M   'P 21 21 21'
_symmetry_Int_Tables_number      19
_space_group_name_Hall           'P 2ac 2ab'
loop_
_symmetry_equiv_pos_site_id
_symmetry_equiv_pos_as_xyz
1 x,y,z
2 1/2-x,-y,1/2+z
3 -x,1/2+y,1/2-z
4 1/2+x,1/2-y,-z
_cell_length_a                   11.0998(4)
_cell_length_b                   12.8574(5)
_cell_length_c                   14.6556(6)
_cell_angle_alpha                90
_cell_angle_beta                 90
_cell_angle_gamma                90
_cell_volume                     2091.57
_exptl_crystal_colour            colorless
_exptl_crystal_description       block
_cell_formula_units_Z            4
loop_
_atom_site_label
_atom_site_type_symbol
_atom_site_fract_x
_atom_site_fract_y
_atom_site_fract_z
Cl1 Cl -0.37884(9) 0.20159(7) -0.02418(6)
Br1 Br 0.36999(3) 0.50884(3) 0.16797(2)
F1 F -0.45060(16) 0.45789(19) 0.40946(14)
F2 F -0.42608(18) 0.4721(2) 0.55402(13)
F3 F -0.33272(18) 0.57455(15) 0.46364(13)
O1 O -0.2482(2) 0.36814(15) 0.69048(14)
O2 O -0.1010(2) 0.27361(18) 0.62702(16)
O3 O -0.07261(18) 0.26813(15) 0.36019(14)
N1 N -0.05392(19) 0.43457(19) 0.50783(14)
H1 H 0.0143 0.4164 0.5306
C1 C 0.1477(2) 0.4644(2) 0.39205(18)
H2 H 0.1573 0.4485 0.4535
C2 C 0.2485(2) 0.4711(2) 0.3365(2)
H3 H 0.3250 0.4591 0.3603
C3 C 0.2339(2) 0.4956(2) 0.24606(17)
C4 C 0.1214(2) 0.5118(2) 0.20981(18)
H4 H 0.1128 0.5278 0.1483
C5 C 0.0213(2) 0.5044(2) 0.26529(17)
H5 H -0.0549 0.5150 0.2406
C6 C 0.0330(2) 0.48106(19) 0.35782(17)
C7 C -0.1426(3) 0.24890(19) 0.17499(19)
H6 H -0.0620 0.2337 0.1863
C8 C -0.1931(3) 0.2214(2) 0.0926(2)
H7 H -0.1468 0.1896 0.0477
C9 C -0.3130(3) 0.2415(2) 0.0780(2)
C10 C -0.3818(3) 0.2919(3) 0.1415(2)
H8 H -0.4627 0.3054 0.1300
C11 C -0.3305(3) 0.3222(3) 0.2223(2)
H9 H -0.3763 0.3585 0.2648
C12 C -0.2107(2) 0.2992(2) 0.24140(19)
C13 C -0.1522(2) 0.32346(19) 0.33073(19)
C14 C -0.1902(2) 0.4212(2) 0.38170(17)
H10 H -0.2363 0.4667 0.3410
C15 C -0.2648(2) 0.3988(2) 0.47054(19)
C16 C -0.1718(2) 0.4267(2) 0.54987(17)
H11 H -0.1935 0.4942 0.5761
C17 C -0.0767(2) 0.4802(2) 0.41841(16)
H12 H -0.1004 0.5528 0.4283
C18 C -0.3683(3) 0.4752(3) 0.4747(2)
C19 C -0.1672(2) 0.3462(2) 0.62560(19)
C20 C -0.2586(4) 0.2926(3) 0.7632(3)
H13 H -0.3183 0.3154 0.8061
H14 H -0.1824 0.2856 0.7935
H15 H -0.2820 0.2266 0.7381
C21 C -0.3153(3) 0.2885(3) 0.4777(2)
H16 H -0.3701 0.2762 0.4281
H17 H -0.3572 0.2807 0.5346
H18 H -0.2504 0.2392 0.4748
loop_
_geom_bond_atom_site_label_1
_geom_bond_atom_site_label_2
_geom_bond_site_symmetry_1
_geom_bond_site_symmetry_2
Cl1 C9 1_555 1_555
Br1 C3 1_555 1_555
F1 C18 1_555 1_555
F2 C18 1_555 1_555
F3 C18 1_555 1_555
O1 C19 1_555 1_555
O2 C19 1_555 1_555
O3 C13 1_555 1_555
N1 H1 1_555 1_555
C1 H2 1_555 1_555
C2 C1 1_555 1_555
H3 C2 1_555 1_555
C3 C2 1_555 1_555
C4 C3 1_555 1_555
H4 C4 1_555 1_555
C5 C4 1_555 1_555
H5 C5 1_555 1_555
C6 C1 1_555 1_555
C7 H6 1_555 1_555
C8 C7 1_555 1_555
H7 C8 1_555 1_555
C9 C8 1_555 1_555
C10 C9 1_555 1_555
H8 C10 1_555 1_555
C11 C10 1_555 1_555
H9 C11 1_555 1_555
C12 C7 1_555 1_555
C13 C12 1_555 1_555
C14 C13 1_555 1_555
H10 C14 1_555 1_555
C15 C14 1_555 1_555
C16 N1 1_555 1_555
H11 C16 1_555 1_555
C17 N1 1_555 1_555
H12 C17 1_555 1_555
C18 C15 1_555 1_555
C19 C16 1_555 1_555
C20 O1 1_555 1_555
H13 C20 1_555 1_555
H14 C20 1_555 1_555
H15 C20 1_555 1_555
C21 C15 1_555 1_555
H16 C21 1_555 1_555
H17 C21 1_555 1_555
H18 C21 1_555 1_555
C5 C6 1_555 1_555
C6 C17 1_555 1_555
C11 C12 1_555 1_555
C14 C17 1_555 1_555
C15 C16 1_555 1_555

#END
