
#######################################################################
#
#                 Cambridge Crystallographic Data Centre
#                                CCDC 
#
#######################################################################
#
# If this CIF has been generated from an entry in the Cambridge 
# Structural Database, then it will include bibliographic, chemical, 
# crystal, experimental, refinement or atomic coordinate data resulting 
# from the CCDC's data processing and validation procedures.
#
#######################################################################

data_AKIHAF
_chemical_formula_moiety         'C6 H5 N1 O3'
_chemical_name_systematic        4-hydroxypyridin-1-ium-3-carboxylate
_symmetry_cell_setting           monoclinic
_symmetry_space_group_name_H-M   'C c'
_symmetry_Int_Tables_number      9
_space_group_name_Hall           'C -2yc'
loop_
_symmetry_equiv_pos_site_id
_symmetry_equiv_pos_as_xyz
1 x,y,z
2 x,-y,1/2+z
3 1/2+x,1/2+y,z
4 1/2+x,1/2-y,1/2+z
_cell_length_a                   3.6124(1)
_cell_length_b                   22.8112(7)
_cell_length_c                   13.5495(5)
_cell_angle_alpha                90
_cell_angle_beta                 89.8980(16)
_cell_angle_gamma                90
_cell_volume                     1116.52
_exptl_crystal_colour            colorless
_exptl_crystal_description       prism
_cell_formula_units_Z            8
loop_
_atom_site_label
_atom_site_type_symbol
_atom_site_fract_x
_atom_site_fract_y
_atom_site_fract_z
N1 N 0.3622(6) 0.73441(8) 0.52109(15)
H1 H 0.2894 0.7582 0.5664
C1 C 0.3950(7) 0.75363(10) 0.42760(18)
H2 H 0.3396 0.7925 0.4130
C2 C 0.5086(7) 0.71684(10) 0.35362(17)
C3 C 0.6004(6) 0.65799(10) 0.37728(17)
C4 C 0.5612(7) 0.63934(10) 0.47642(17)
H3 H 0.6165 0.6010 0.4943
C5 C 0.4418(7) 0.67838(10) 0.54484(18)
H4 H 0.4139 0.6662 0.6099
C6 C 0.5426(7) 0.73876(10) 0.24932(18)
O1 O 0.6707(5) 0.70077(7) 0.18693(12)
O2 O 0.4548(5) 0.78969(7) 0.22940(13)
O3 O 0.7174(5) 0.62140(7) 0.30899(11)
H5 H 0.7302 0.6385 0.2559
N2 N 0.2833(6) 0.49553(8) 0.27825(15)
H6 H 0.2541 0.5225 0.2346
C7 C 0.1793(7) 0.50572(10) 0.37210(16)
H7 H 0.0759 0.5417 0.3888
C8 C 0.2234(7) 0.46397(10) 0.44304(17)
C9 C 0.3800(6) 0.40926(10) 0.41814(16)
C10 C 0.4840(7) 0.39961(10) 0.31865(16)
H8 H 0.5853 0.3639 0.2993
C11 C 0.4332(6) 0.44348(10) 0.25160(17)
H9 H 0.5030 0.4375 0.1863
C12 C 0.1089(7) 0.47697(10) 0.54775(17)
O4 O 0.1893(5) 0.43584(7) 0.61089(12)
O5 O -0.0439(5) 0.52349(7) 0.56826(12)
O6 O 0.4336(5) 0.36867(7) 0.48483(11)
H10 H 0.3645 0.3807 0.5388
loop_
_geom_bond_atom_site_label_1
_geom_bond_atom_site_label_2
_geom_bond_site_symmetry_1
_geom_bond_site_symmetry_2
N1 H1 1_555 1_555
C1 N1 1_555 1_555
H2 C1 1_555 1_555
C2 C1 1_555 1_555
C3 C2 1_555 1_555
C4 C3 1_555 1_555
H3 C4 1_555 1_555
C5 N1 1_555 1_555
H4 C5 1_555 1_555
C6 C2 1_555 1_555
O1 C6 1_555 1_555
O2 C6 1_555 1_555
O3 C3 1_555 1_555
H5 O3 1_555 1_555
N2 H6 1_555 1_555
C7 N2 1_555 1_555
H7 C7 1_555 1_555
C8 C7 1_555 1_555
C9 C8 1_555 1_555
C10 C9 1_555 1_555
H8 C10 1_555 1_555
C11 N2 1_555 1_555
H9 C11 1_555 1_555
C12 C8 1_555 1_555
O4 C12 1_555 1_555
O5 C12 1_555 1_555
O6 C9 1_555 1_555
H10 O6 1_555 1_555
C4 C5 1_555 1_555
C10 C11 1_555 1_555

#END
