
#######################################################################
#
#                 Cambridge Crystallographic Data Centre
#                                CCDC 
#
#######################################################################
#
# If this CIF has been generated from an entry in the Cambridge 
# Structural Database, then it will include bibliographic, chemical, 
# crystal, experimental, refinement or atomic coordinate data resulting 
# from the CCDC's data processing and validation procedures.
#
#######################################################################

data_AKINAL
_chemical_formula_moiety         
'C38 H34 N10 4+,C12 H10 O2,2(C3 H7 N1 O1),4(F6 P1 1-),2(H2 O1)'
_chemical_name_systematic        
"6,12,25,31,42,47-hexaaza-3,15,22,34-tetraazonianonacyclo[34.2.2.2^17,20^.1^3,6^.1^7,11^.1^12,15^.1^22,25^.1^26,30^.1^31,34^]octatetraconta-1(38),3(48),4,7(47),8,10,13,15(46),17,19,22(43),23,26(42),27,29,32,34(41),36,39,44-icosaene biphenyl-4,4'-diol tetrakis(hexafluorophosphate) N,N-dimethylformamide solvate dihydrate"
_symmetry_cell_setting           triclinic
_symmetry_space_group_name_H-M   'P -1'
_symmetry_Int_Tables_number      2
_space_group_name_Hall           '-P 1'
loop_
_symmetry_equiv_pos_site_id
_symmetry_equiv_pos_as_xyz
1 x,y,z
2 -x,-y,-z
_cell_length_a                   10.705(2)
_cell_length_b                   11.896(2)
_cell_length_c                   13.878(3)
_cell_angle_alpha                96.487(3)
_cell_angle_beta                 104.147(3)
_cell_angle_gamma                93.345(3)
_cell_volume                     1695.95
_exptl_crystal_colour            colorless
_exptl_crystal_description       Prism
_cell_formula_units_Z            1
loop_
_atom_site_label
_atom_site_type_symbol
_atom_site_fract_x
_atom_site_fract_y
_atom_site_fract_z
P1 P 0.72989(16) 0.41996(13) 0.11675(13)
F1 F 0.6083(6) 0.4575(5) 0.0506(6)
F2 F 0.6794(8) 0.4201(6) 0.2124(6)
F3 F 0.7912(9) 0.4156(7) 0.0278(5)
F4 F 0.6788(6) 0.2903(4) 0.0843(4)
F5 F 0.7808(5) 0.5491(4) 0.1513(4)
F6 F 0.8582(4) 0.3817(4) 0.1841(4)
P2 P 0.39739(15) 0.28666(14) 0.37547(13)
F7 F 0.5108(9) 0.3878(8) 0.4035(11)
F8 F 0.3639(11) 0.3150(16) 0.4795(7)
F9 F 0.2891(10) 0.1908(8) 0.3449(12)
F10 F 0.4352(12) 0.2474(15) 0.2744(6)
F11 F 0.2870(5) 0.3580(4) 0.3227(4)
F12 F 0.5109(4) 0.2165(4) 0.4316(3)
N1 N 0.2826(4) 0.8809(4) 0.7729(3)
N2 N 0.1290(4) 0.7856(4) 0.6554(3)
N3 N 0.1389(4) 0.6962(4) 0.4993(3)
N4 N 0.1617(4) 0.6175(4) 0.3437(3)
N5 N 0.3343(4) 0.6135(4) 0.2886(4)
C1 C 0.4134(6) 0.9322(5) 0.8310(5)
H1 H 0.4781 0.8825 0.8188
H2 H 0.4175 0.9401 0.9021
C2 C 0.2575(5) 0.8110(5) 0.6872(4)
H3 H 0.3185 0.7844 0.6548
C3 C 0.1671(6) 0.9009(5) 0.7961(5)
H4 H 0.1573 0.9470 0.8520
C4 C 0.0710(6) 0.8421(5) 0.7237(5)
H5 H -0.0171 0.8397 0.7201
C5 C 0.0661(5) 0.7142(5) 0.5642(4)
C6 C -0.0620(6) 0.6720(5) 0.5472(5)
H6 H -0.1084 0.6866 0.5952
C7 C -0.1176(6) 0.6074(5) 0.4561(5)
H7 H -0.2036 0.5781 0.4416
C8 C -0.0467(5) 0.5857(5) 0.3863(5)
H8 H -0.0823 0.5419 0.3247
C9 C 0.0810(5) 0.6332(5) 0.4131(4)
C10 C 0.2922(5) 0.6287(5) 0.3714(4)
H9 H 0.3436 0.6442 0.4367
C11 C 0.1216(6) 0.5940(5) 0.2405(4)
H10 H 0.0366 0.5819 0.2020
C12 C 0.2285(6) 0.5920(5) 0.2062(5)
H11 H 0.2311 0.5787 0.1394
C13 C 0.4713(6) 0.6246(5) 0.2840(5)
H12 H 0.4856 0.5649 0.2352
H13 H 0.5272 0.6163 0.3488
C14 C 0.5049(5) 0.7395(5) 0.2550(4)
C15 C 0.5302(5) 0.7493(5) 0.1632(4)
H14 H 0.5302 0.6840 0.1195
C16 C 0.5555(6) 0.8544(5) 0.1353(4)
H15 H 0.5714 0.8589 0.0728
C17 C 0.5576(5) 0.9523(5) 0.1988(4)
C18 C 0.5325(6) 0.9438(5) 0.2920(5)
H16 H 0.5329 1.0094 0.3355
C19 C 0.5070(6) 0.8387(5) 0.3201(5)
H17 H 0.4913 0.8340 0.3826
N1A N 0.7174(4) 1.1191(4) 0.2271(3)
N2A N 0.8710(4) 1.2144(4) 0.3446(3)
N3A N 0.8611(4) 1.3038(4) 0.5007(3)
N4A N 0.8383(4) 1.3825(4) 0.6563(3)
N5A N 0.6657(4) 1.3865(4) 0.7114(4)
C1A C 0.5866(6) 1.0678(5) 0.1690(5)
H1A H 0.5219 1.1175 0.1812
H2A H 0.5825 1.0599 0.0979
C2A C 0.7425(5) 1.1890(5) 0.3128(4)
H3A H 0.6815 1.2156 0.3452
C3A C 0.8329(6) 1.0991(5) 0.2039(5)
H4A H 0.8427 1.0530 0.1480
C4A C 0.9290(6) 1.1579(5) 0.2763(5)
H5A H 1.0171 1.1603 0.2799
C5A C 0.9339(5) 1.2858(5) 0.4358(4)
C6A C 1.0620(6) 1.3280(5) 0.4528(5)
H6A H 1.1084 1.3134 0.4048
C7A C 1.1176(6) 1.3926(5) 0.5439(5)
H7A H 1.2036 1.4219 0.5584
C8A C 1.0467(5) 1.4143(5) 0.6137(5)
H8A H 1.0823 1.4581 0.6753
C9A C 0.9190(5) 1.3668(5) 0.5869(4)
C10A C 0.7078(5) 1.3713(5) 0.6286(4)
H9A H 0.6564 1.3558 0.5633
C11A C 0.8784(6) 1.4060(5) 0.7595(4)
H10A H 0.9634 1.4181 0.7980
C12A C 0.7715(6) 1.4080(5) 0.7938(5)
H11A H 0.7689 1.4213 0.8606
C13A C 0.5287(6) 1.3754(5) 0.7160(5)
H12A H 0.5144 1.4351 0.7648
H13A H 0.4728 1.3837 0.6512
C14A C 0.4951(5) 1.2605(5) 0.7450(4)
C15A C 0.4698(5) 1.2507(5) 0.8368(4)
H14A H 0.4698 1.3160 0.8805
C16A C 0.4445(6) 1.1456(5) 0.8647(4)
H15A H 0.4286 1.1411 0.9272
C17A C 0.4424(5) 1.0477(5) 0.8012(4)
C18A C 0.4675(6) 1.0562(5) 0.7080(5)
H16A H 0.4671 0.9906 0.6645
C19A C 0.4930(6) 1.1613(5) 0.6799(5)
H17A H 0.5087 1.1660 0.6174
N6 N -0.1956(5) 0.7678(5) -0.0644(4)
C20 C -0.1903(8) 0.8774(6) -0.0546(6)
H18 H -0.1140 0.9157 -0.0587
C21 C -0.0862(7) 0.7048(7) -0.0784(7)
H19 H -0.0156 0.7573 -0.0806
H20 H -0.1121 0.6543 -0.1402
H21 H -0.0594 0.6617 -0.0237
C22 C -0.3117(8) 0.6995(6) -0.0597(6)
H22 H -0.3771 0.7487 -0.0506
H23 H -0.2910 0.6562 -0.0045
H24 H -0.3433 0.6489 -0.1211
O1 O -0.2794(5) 0.9377(4) -0.0398(4)
C23 C 0.0117(6) 0.8667(6) 0.2580(6)
C24 C -0.0980(6) 0.8504(6) 0.2927(6)
H25 H -0.1697 0.8050 0.2526
C25 C -0.1016(6) 0.9008(6) 0.3855(6)
H26 H -0.1764 0.8879 0.4069
C26 C 0.0027(6) 0.9712(5) 0.4501(5)
C27 C 0.1146(6) 0.9818(6) 0.4133(6)
H27 H 0.1880 1.0249 0.4535
C28 C 0.1187(6) 0.9306(6) 0.3197(6)
H28 H 0.1941 0.9394 0.2983
O2 O 0.0064(5) 0.8177(4) 0.1625(4)
H29 H 0.0757 0.8325 0.1494
C23A C -0.0117(6) 1.1333(6) 0.7420(6)
C24A C 0.0980(6) 1.1496(6) 0.7073(6)
H25A H 0.1697 1.1950 0.7474
C25A C 0.1016(6) 1.0992(6) 0.6145(6)
H26A H 0.1764 1.1121 0.5931
C26A C -0.0027(6) 1.0288(5) 0.5499(5)
C27A C -0.1146(6) 1.0182(6) 0.5867(6)
H27A H -0.1880 0.9751 0.5465
C28A C -0.1187(6) 1.0694(6) 0.6803(6)
H28A H -0.1941 1.0606 0.7017
O2A O -0.0064(5) 1.1823(4) 0.8375(4)
H29A H -0.0757 1.1675 0.8506
O3 O -0.2128(5) 1.1467(4) -0.0859(4)
F13? F 0.4740(16) 0.343(2) 0.3138(18)
F14? F 0.418(2) 0.3865(13) 0.4607(12)
F15? F 0.3088(13) 0.2169(16) 0.4298(18)
F16? F 0.363(2) 0.1798(15) 0.2912(14)
loop_
_geom_bond_atom_site_label_1
_geom_bond_atom_site_label_2
_geom_bond_site_symmetry_1
_geom_bond_site_symmetry_2
P1 F1 1_555 1_555
F2 P1 1_555 1_555
F3 P1 1_555 1_555
F4 P1 1_555 1_555
F5 P1 1_555 1_555
F6 P1 1_555 1_555
P2 F7 1_555 1_555
F8 P2 1_555 1_555
F9 P2 1_555 1_555
F10 P2 1_555 1_555
F11 P2 1_555 1_555
F12 P2 1_555 1_555
N1 C1 1_555 1_555
N2 C2 1_555 1_555
N3 C5 1_555 1_555
N4 C9 1_555 1_555
N5 C10 1_555 1_555
C1 H1 1_555 1_555
H2 C1 1_555 1_555
C2 N1 1_555 1_555
H3 C2 1_555 1_555
C3 N1 1_555 1_555
H4 C3 1_555 1_555
C4 N2 1_555 1_555
H5 C4 1_555 1_555
C5 N2 1_555 1_555
C6 C5 1_555 1_555
H6 C6 1_555 1_555
C7 C6 1_555 1_555
H7 C7 1_555 1_555
C8 C7 1_555 1_555
H8 C8 1_555 1_555
C9 N3 1_555 1_555
C10 N4 1_555 1_555
H9 C10 1_555 1_555
C11 N4 1_555 1_555
H10 C11 1_555 1_555
C12 N5 1_555 1_555
H11 C12 1_555 1_555
C13 N5 1_555 1_555
H12 C13 1_555 1_555
H13 C13 1_555 1_555
C14 C13 1_555 1_555
C15 C14 1_555 1_555
H14 C15 1_555 1_555
C16 C15 1_555 1_555
H15 C16 1_555 1_555
C17 C16 1_555 1_555
C18 C17 1_555 1_555
H16 C18 1_555 1_555
C19 C14 1_555 1_555
H17 C19 1_555 1_555
N6 C20 1_555 1_555
C20 H18 1_555 1_555
C21 N6 1_555 1_555
H19 C21 1_555 1_555
H20 C21 1_555 1_555
H21 C21 1_555 1_555
C22 N6 1_555 1_555
H22 C22 1_555 1_555
H23 C22 1_555 1_555
H24 C22 1_555 1_555
O1 C20 1_555 1_555
C23 C24 1_555 1_555
C24 H25 1_555 1_555
C25 C24 1_555 1_555
H26 C25 1_555 1_555
C26 C25 1_555 1_555
C27 C26 1_555 1_555
H27 C27 1_555 1_555
C28 C23 1_555 1_555
H28 C28 1_555 1_555
O2 C23 1_555 1_555
H29 O2 1_555 1_555
N1A C1A 1_555 1_555
N2A C2A 1_555 1_555
N3A C5A 1_555 1_555
N4A C9A 1_555 1_555
N5A C10A 1_555 1_555
C1A C17 1_555 1_555
H1A C1A 1_555 1_555
H2A C1A 1_555 1_555
C2A N1A 1_555 1_555
H3A C2A 1_555 1_555
C3A N1A 1_555 1_555
H4A C3A 1_555 1_555
C4A N2A 1_555 1_555
H5A C4A 1_555 1_555
C5A N2A 1_555 1_555
C6A C5A 1_555 1_555
H6A C6A 1_555 1_555
C7A C6A 1_555 1_555
H7A C7A 1_555 1_555
C8A C7A 1_555 1_555
H8A C8A 1_555 1_555
C9A N3A 1_555 1_555
C10A N4A 1_555 1_555
H9A C10A 1_555 1_555
C11A N4A 1_555 1_555
H10A C11A 1_555 1_555
C12A N5A 1_555 1_555
H11A C12A 1_555 1_555
C13A N5A 1_555 1_555
H12A C13A 1_555 1_555
H13A C13A 1_555 1_555
C14A C13A 1_555 1_555
C15A C14A 1_555 1_555
H14A C15A 1_555 1_555
C16A C15A 1_555 1_555
H15A C16A 1_555 1_555
C17A C1 1_555 1_555
C18A C17A 1_555 1_555
H16A C18A 1_555 1_555
C19A C14A 1_555 1_555
H17A C19A 1_555 1_555
C23A C24A 1_555 1_555
C24A H25A 1_555 1_555
C25A C24A 1_555 1_555
H26A C25A 1_555 1_555
C26A C26 1_555 1_555
C27A C26A 1_555 1_555
H27A C27A 1_555 1_555
C28A C23A 1_555 1_555
H28A C28A 1_555 1_555
O2A C23A 1_555 1_555
H29A O2A 1_555 1_555
C3 C4 1_555 1_555
C8 C9 1_555 1_555
C11 C12 1_555 1_555
C18 C19 1_555 1_555
C27 C28 1_555 1_555
C3A C4A 1_555 1_555
C8A C9A 1_555 1_555
C11A C12A 1_555 1_555
C16A C17A 1_555 1_555
C18A C19A 1_555 1_555
C25A C26A 1_555 1_555
C27A C28A 1_555 1_555

#END
