
#######################################################################
#
#                 Cambridge Crystallographic Data Centre
#                                CCDC 
#
#######################################################################
#
# If this CIF has been generated from an entry in the Cambridge 
# Structural Database, then it will include bibliographic, chemical, 
# crystal, experimental, refinement or atomic coordinate data resulting 
# from the CCDC's data processing and validation procedures.
#
#######################################################################

data_AKINUF
_chemical_formula_moiety         
'C38 H34 N10 4+,C10 H8 N2,4(F6 P1 1-),2(C2 H3 N1),2(H2 O1)'
_chemical_name_systematic        
"6,12,25,31,42,47-hexaaza-3,15,22,34-tetraazonianonacyclo[34.2.2.2^17,20^.1^3,6^.1^7,11^.1^12,15^.1^22,25^.1^26,30^.1^31,34^]octatetraconta-1(38),3(48),4,7(47),8,10,13,15(46),17,19,22(43),23,26(42),27,29,32,34(41),36,39,44-icosaene 4,4'-bipyridine tetrakis(hexafluorophosphate) acetonitrile solvate dihydrate"
_symmetry_cell_setting           monoclinic
_symmetry_space_group_name_H-M   'C 2/c'
_symmetry_Int_Tables_number      15
_space_group_name_Hall           '-C 2yn'
loop_
_symmetry_equiv_pos_site_id
_symmetry_equiv_pos_as_xyz
1 x,y,z
2 -x,y,1/2-z
3 1/2+x,1/2+y,z
4 1/2-x,1/2+y,1/2-z
5 -x,-y,-z
6 x,-y,1/2+z
7 1/2-x,1/2-y,-z
8 1/2+x,1/2-y,1/2+z
_cell_length_a                   31.902(6)
_cell_length_b                   10.578(2)
_cell_length_c                   22.972(5)
_cell_angle_alpha                90
_cell_angle_beta                 120.26(3)
_cell_angle_gamma                90
_cell_volume                     6695.87
_exptl_crystal_colour            colorless
_exptl_crystal_description       plate
_cell_formula_units_Z            4
loop_
_atom_site_label
_atom_site_type_symbol
_atom_site_fract_x
_atom_site_fract_y
_atom_site_fract_z
N6 N 0.0793(3) 0.6971(10) 0.1960(5)
C20 C 0.0980(3) 0.6021(9) 0.2103(5)
C21 C 0.1229(4) 0.4817(10) 0.2291(6)
H18 H 0.1498 0.4865 0.2744
H19 H 0.1346 0.4618 0.1990
H20 H 0.1009 0.4170 0.2263
N7 N 0.3665(5) 0.9133(17) 0.0893(8)
C22 C 0.3210(6) 0.9749(12) 0.0629(9)
H21 H 0.3206 1.0618 0.0688
C23 C 0.2773(5) 0.9115(15) 0.0288(9)
H22 H 0.2487 0.9575 0.0122
C24 C 0.2745(4) 0.7821(14) 0.0185(6)
C25 C 0.3200(6) 0.7196(12) 0.0418(9)
H23 H 0.3203 0.6353 0.0304
C26 C 0.3634(5) 0.7815(17) 0.0808(9)
H24 H 0.3917 0.7340 0.1024
N7F N 0.1335(5) 0.5867(17) -0.0893(8)
C22F C 0.1790(6) 0.5251(12) -0.0629(9)
H21F H 0.1794 0.4382 -0.0688
C23F C 0.2227(5) 0.5885(15) -0.0288(9)
H22F H 0.2513 0.5425 -0.0122
C24F C 0.2255(4) 0.7179(14) -0.0185(6)
C25F C 0.1800(6) 0.7804(12) -0.0418(9)
H23F H 0.1797 0.8647 -0.0304
C26F C 0.1366(5) 0.7185(17) -0.0808(9)
H24F H 0.1083 0.7660 -0.1024
P1 P 0.23656(6) 0.14234(14) 0.16038(8)
F1 F 0.2570(5) 0.2487(11) 0.2187(6)
F2 F 0.1873(3) 0.1413(11) 0.1547(6)
F3 F 0.2223(5) 0.0373(8) 0.1044(5)
F4 F 0.2913(3) 0.1435(9) 0.1688(5)
F5 F 0.22521(15) 0.2519(4) 0.10532(19)
F6 F 0.2485(2) 0.0326(5) 0.2138(2)
P2 P 0.03750(5) 0.16211(16) 0.11035(8)
F11 F 0.08820(16) 0.1313(6) 0.1175(3)
F12 F 0.01122(16) 0.1315(4) 0.0312(2)
F13 F -0.01420(16) 0.1914(6) 0.1020(3)
F14 F 0.04098(17) 0.3071(4) 0.0920(2)
F15 F 0.03290(17) 0.0186(4) 0.1285(2)
F16 F 0.06419(17) 0.1959(5) 0.1891(2)
N1 N 0.07583(16) 0.2587(5) -0.0222(2)
N2 N 0.08756(16) 0.4556(4) 0.0098(2)
N3 N 0.16122(16) 0.5575(4) 0.0792(2)
N4 N 0.23818(16) 0.6449(4) 0.1464(2)
N5 N 0.30846(15) 0.5505(4) 0.1945(2)
C1 C 0.1082(2) 0.3402(5) 0.0211(3)
H1 H 0.1399 0.3208 0.0539
C2 C 0.0327(2) 0.3219(7) -0.0628(3)
H2 H 0.0041 0.2867 -0.0970
C3 C 0.0398(2) 0.4448(6) -0.0431(3)
H3 H 0.0171 0.5097 -0.0614
C4 C 0.1128(2) 0.5693(5) 0.0456(3)
C5 C 0.0877(2) 0.6782(6) 0.0432(3)
H4 H 0.0540 0.6812 0.0189
C6 C 0.1151(2) 0.7825(6) 0.0787(3)
H5 H 0.0997 0.8572 0.0787
C7 C 0.1655(2) 0.7757(5) 0.1142(3)
H6 H 0.1845 0.8446 0.1381
C8 C 0.18633(19) 0.6612(5) 0.1124(3)
C9 C 0.26095(19) 0.5313(5) 0.1635(3)
H7 H 0.2458 0.4529 0.1550
C10 C 0.2737(2) 0.7382(6) 0.1681(3)
H8 H 0.2684 0.8250 0.1634
C11 C 0.3165(2) 0.6807(5) 0.1969(3)
H9 H 0.3466 0.7201 0.2154
C12 C 0.34629(19) 0.4506(5) 0.2192(3)
H10 H 0.3328 0.3722 0.2245
H11 H 0.3730 0.4747 0.2631
C13 C 0.36502(19) 0.4298(5) 0.1715(3)
C14 C 0.4106(2) 0.4717(6) 0.1862(3)
H12 H 0.4306 0.5118 0.2271
C15 C 0.4266(2) 0.4544(6) 0.1404(3)
H13 H 0.4573 0.4830 0.1512
C16 C 0.3978(2) 0.3956(5) 0.0794(3)
C17 C 0.3516(2) 0.3539(6) 0.0637(3)
H14 H 0.3314 0.3154 0.0224
C18 C 0.3357(2) 0.3696(6) 0.1096(3)
H15 H 0.3053 0.3397 0.0990
C19 C 0.0855(2) 0.1222(6) -0.0280(3)
H16 H 0.0562 0.0736 -0.0419
H17 H 0.1103 0.0911 0.0156
N1F N 0.42417(16) 0.2413(5) 0.0222(2)
N2F N 0.41244(16) 0.0444(4) -0.0098(2)
N3F N 0.33878(16) -0.0575(4) -0.0792(2)
N4F N 0.26182(16) -0.1449(4) -0.1464(2)
N5F N 0.19154(15) -0.0505(4) -0.1945(2)
C1F C 0.3918(2) 0.1598(5) -0.0211(3)
H1F H 0.3601 0.1792 -0.0539
C2F C 0.4673(2) 0.1781(7) 0.0628(3)
H2F H 0.4959 0.2133 0.0970
C3F C 0.4602(2) 0.0552(6) 0.0431(3)
H3F H 0.4829 -0.0097 0.0614
C4F C 0.3872(2) -0.0693(5) -0.0456(3)
C5F C 0.4123(2) -0.1782(6) -0.0432(3)
H4F H 0.4460 -0.1812 -0.0189
C6F C 0.3849(2) -0.2825(6) -0.0787(3)
H5F H 0.4003 -0.3572 -0.0787
C7F C 0.3345(2) -0.2757(5) -0.1142(3)
H6F H 0.3155 -0.3446 -0.1381
C8F C 0.31367(19) -0.1612(5) -0.1124(3)
C9F C 0.23905(19) -0.0313(5) -0.1635(3)
H7F H 0.2542 0.0471 -0.1550
C10F C 0.2263(2) -0.2382(6) -0.1681(3)
H8F H 0.2316 -0.3250 -0.1634
C11F C 0.1835(2) -0.1807(5) -0.1969(3)
H9F H 0.1534 -0.2201 -0.2154
C12F C 0.15371(19) 0.0494(5) -0.2192(3)
H10F H 0.1672 0.1278 -0.2245
H11F H 0.1270 0.0253 -0.2631
C13F C 0.13498(19) 0.0702(5) -0.1715(3)
C14F C 0.0894(2) 0.0283(6) -0.1862(3)
H12F H 0.0694 -0.0118 -0.2271
C15F C 0.0734(2) 0.0456(6) -0.1404(3)
H13F H 0.0427 0.0170 -0.1512
C16F C 0.1022(2) 0.1044(5) -0.0794(3)
C17F C 0.1484(2) 0.1461(6) -0.0637(3)
H14F H 0.1686 0.1846 -0.0224
C18F C 0.1643(2) 0.1304(6) -0.1096(3)
H15F H 0.1947 0.1603 -0.0990
C19F C 0.4145(2) 0.3778(6) 0.0280(3)
H16F H 0.4438 0.4264 0.0419
H17F H 0.3897 0.4089 -0.0156
F7? F 0.2754(5) 0.2164(14) 0.2205(7)
F8? F 0.1959(6) 0.2205(16) 0.1676(8)
F9? F 0.1910(5) 0.0692(12) 0.0964(6)
F10? F 0.2701(6) 0.0676(14) 0.1448(7)
loop_
_geom_bond_atom_site_label_1
_geom_bond_atom_site_label_2
_geom_bond_site_symmetry_1
_geom_bond_site_symmetry_2
N1 C1 1_555 1_555
N2 C1 1_555 1_555
N3 C4 1_555 1_555
N4 C8 1_555 1_555
N5 C9 1_555 1_555
C1 H1 1_555 1_555
C2 N1 1_555 1_555
H2 C2 1_555 1_555
C3 N2 1_555 1_555
H3 C3 1_555 1_555
C4 N2 1_555 1_555
C5 C4 1_555 1_555
H4 C5 1_555 1_555
C6 C5 1_555 1_555
H5 C6 1_555 1_555
C7 C6 1_555 1_555
H6 C7 1_555 1_555
C8 N3 1_555 1_555
C9 N4 1_555 1_555
H7 C9 1_555 1_555
C10 N4 1_555 1_555
H8 C10 1_555 1_555
C11 N5 1_555 1_555
H9 C11 1_555 1_555
C12 N5 1_555 1_555
H10 C12 1_555 1_555
H11 C12 1_555 1_555
C13 C12 1_555 1_555
C14 C13 1_555 1_555
H12 C14 1_555 1_555
C15 C14 1_555 1_555
H13 C15 1_555 1_555
C16 C15 1_555 1_555
C17 C16 1_555 1_555
H14 C17 1_555 1_555
C18 C13 1_555 1_555
H15 C18 1_555 1_555
C19 N1 1_555 1_555
H16 C19 1_555 1_555
H17 C19 1_555 1_555
N6 C20 1_555 1_555
C20 C21 1_555 1_555
C21 H18 1_555 1_555
H19 C21 1_555 1_555
H20 C21 1_555 1_555
N7 C22 1_555 1_555
C22 H21 1_555 1_555
C23 C22 1_555 1_555
H22 C23 1_555 1_555
C24 C23 1_555 1_555
C25 C24 1_555 1_555
H23 C25 1_555 1_555
C26 N7 1_555 1_555
H24 C26 1_555 1_555
P1 F1 1_555 1_555
F2 P1 1_555 1_555
F3 P1 1_555 1_555
F4 P1 1_555 1_555
F5 P1 1_555 1_555
F6 P1 1_555 1_555
P2 F11 1_555 1_555
F12 P2 1_555 1_555
F13 P2 1_555 1_555
F14 P2 1_555 1_555
F15 P2 1_555 1_555
F16 P2 1_555 1_555
N1F C1F 1_555 1_555
N2F C1F 1_555 1_555
N3F C4F 1_555 1_555
N4F C8F 1_555 1_555
N5F C9F 1_555 1_555
C1F H1F 1_555 1_555
C2F N1F 1_555 1_555
H2F C2F 1_555 1_555
C3F N2F 1_555 1_555
H3F C3F 1_555 1_555
C4F N2F 1_555 1_555
C5F C4F 1_555 1_555
H4F C5F 1_555 1_555
C6F C5F 1_555 1_555
H5F C6F 1_555 1_555
C7F C6F 1_555 1_555
H6F C7F 1_555 1_555
C8F N3F 1_555 1_555
C9F N4F 1_555 1_555
H7F C9F 1_555 1_555
C10F N4F 1_555 1_555
H8F C10F 1_555 1_555
C11F N5F 1_555 1_555
H9F C11F 1_555 1_555
C12F N5F 1_555 1_555
H10F C12F 1_555 1_555
H11F C12F 1_555 1_555
C13F C12F 1_555 1_555
C14F C13F 1_555 1_555
H12F C14F 1_555 1_555
C15F C14F 1_555 1_555
H13F C15F 1_555 1_555
C16F C19 1_555 1_555
C17F C16F 1_555 1_555
H14F C17F 1_555 1_555
C18F C13F 1_555 1_555
H15F C18F 1_555 1_555
C19F C16 1_555 1_555
H16F C19F 1_555 1_555
H17F C19F 1_555 1_555
N7F C22F 1_555 1_555
C22F H21F 1_555 1_555
C23F C22F 1_555 1_555
H22F C23F 1_555 1_555
C24F C24 1_555 1_555
C25F C24F 1_555 1_555
H23F C25F 1_555 1_555
C26F N7F 1_555 1_555
H24F C26F 1_555 1_555
C2 C3 1_555 1_555
C7 C8 1_555 1_555
C10 C11 1_555 1_555
C17 C18 1_555 1_555
C25 C26 1_555 1_555
N1F C19F 1_555 1_555
C2F C3F 1_555 1_555
C7F C8F 1_555 1_555
C10F C11F 1_555 1_555
C15F C16F 1_555 1_555
C17F C18F 1_555 1_555
C23F C24F 1_555 1_555
C25F C26F 1_555 1_555

#END
