
#######################################################################
#
#                 Cambridge Crystallographic Data Centre
#                                CCDC 
#
#######################################################################
#
# If this CIF has been generated from an entry in the Cambridge 
# Structural Database, then it will include bibliographic, chemical, 
# crystal, experimental, refinement or atomic coordinate data resulting 
# from the CCDC's data processing and validation procedures.
#
#######################################################################

data_AKINIT
_chemical_formula_moiety         
'C38 H34 N10 4+,C12 H10 O2,4(F6 P1 1-),2(C2 H3 N1),H2 O1'
_chemical_name_systematic        
"6,12,25,31,42,47-hexaaza-3,15,22,34-tetraazonianonacyclo[34.2.2.2^17,20^.1^3,6^.1^7,11^.1^12,15^.1^22,25^.1^26,30^.1^31,34^]octatetraconta-1(38),3(48),4,7(47),8,10,13,15(46),17,19,22(43),23,26(42),27,29,32,34(41),36,39,44-icosaene biphenyl-4,4'-diol tetrakis(hexafluorophosphate) acetonitrile solvate monohydrate"
_symmetry_cell_setting           monoclinic
_symmetry_space_group_name_H-M   'C c'
_symmetry_Int_Tables_number      9
_space_group_name_Hall           'C -2yc'
loop_
_symmetry_equiv_pos_site_id
_symmetry_equiv_pos_as_xyz
1 x,y,z
2 x,-y,1/2+z
3 1/2+x,1/2+y,z
4 1/2+x,1/2-y,1/2+z
_cell_length_a                   31.512(6)
_cell_length_b                   10.452(2)
_cell_length_c                   22.448(5)
_cell_angle_alpha                90
_cell_angle_beta                 120.77(3)
_cell_angle_gamma                90
_cell_volume                     6352.74
_exptl_crystal_colour            colorless
_exptl_crystal_description       block
_cell_formula_units_Z            4
loop_
_atom_site_label
_atom_site_type_symbol
_atom_site_fract_x
_atom_site_fract_y
_atom_site_fract_z
P1 P 0.2912(3) 0.3561(2) 0.4847(3)
F1 F 0.3158(5) 0.4559(7) 0.5462(5)
F2 F 0.3416(4) 0.3458(9) 0.4872(5)
F3 F 0.2421(4) 0.3671(8) 0.4853(6)
F4 F 0.2698(4) 0.2509(6) 0.4241(5)
F5 F 0.2741(4) 0.4690(6) 0.4279(5)
F6 F 0.3083(3) 0.2430(5) 0.5426(4)
P2 P 0.2728(3) 0.8565(2) 0.3103(3)
F7 F 0.2535(4) 0.9631(6) 0.2517(4)
F8 F 0.2971(4) 0.7541(6) 0.3698(5)
F9 F 0.2218(4) 0.8506(7) 0.3068(5)
F10 F 0.3261(3) 0.8559(6) 0.3162(4)
F11 F 0.2907(4) 0.9670(6) 0.3669(5)
F12 F 0.2557(3) 0.7447(5) 0.2536(4)
P3 P -0.0033(3) 0.1623(3) 0.0392(3)
F13 F 0.0491(4) 0.1933(8) 0.0475(5)
F14 F -0.0295(4) 0.1987(7) -0.0425(4)
F15 F -0.0081(4) 0.3104(6) 0.0557(4)
F16 F 0.0233(4) 0.1299(6) 0.1200(4)
F17 F 0.0021(4) 0.0189(6) 0.0218(5)
F18 F -0.0558(4) 0.1349(7) 0.0301(5)
P4 P 0.0675(3) 0.8362(3) 0.2567(3)
F19 F 0.0938(4) 0.8028(6) 0.3372(4)
F20 F 0.0145(4) 0.8068(7) 0.2473(5)
F21 F 0.0637(4) 0.9847(6) 0.2741(4)
F22 F 0.0717(4) 0.6888(6) 0.2390(4)
F23 F 0.0413(3) 0.8676(6) 0.1756(4)
F24 F 0.1203(4) 0.8656(6) 0.2665(5)
N1 N 0.4544(5) 0.7987(10) 0.4477(6)
C1 C 0.4080(5) 1.0170(10) 0.4227(7)
H1 H 0.4043 1.0583 0.3822
H2 H 0.4261 1.0719 0.4622
H3 H 0.3760 0.9998 0.4163
C2 C 0.4358(6) 0.8922(14) 0.4347(8)
N2 N 0.6484(4) 1.0188(8) 0.3848(6)
C3 C 0.6116(6) 0.7920(12) 0.3419(8)
H4 H 0.5965 0.7632 0.3674
H5 H 0.6373 0.7335 0.3491
H6 H 0.5871 0.7955 0.2934
C4 C 0.6283(6) 0.8931(13) 0.3610(8)
N3 N 0.4559(4) 0.7576(7) 0.1679(5)
N4 N 0.4440(4) 0.9539(7) 0.1351(5)
N5 N 0.3706(4) 1.0593(7) 0.0666(5)
N6 N 0.2927(4) 1.1481(7) -0.0013(5)
N7 N 0.2208(4) 1.0528(7) -0.0506(5)
N8 N 0.1100(4) 0.7470(7) 0.1312(5)
N9 N 0.1199(4) 0.5458(7) 0.1608(5)
N10 N 0.1949(4) 0.4407(8) 0.2313(5)
N11 N 0.2721(4) 0.3515(7) 0.2968(5)
N12 N 0.3423(4) 0.4440(7) 0.3462(5)
C5 C 0.4231(5) 0.8404(9) 0.1230(6)
H7 H 0.3908 0.8213 0.0888
C6 C 0.4992(4) 0.8231(9) 0.2090(6)
H8 H 0.5279 0.7885 0.2458
C7 C 0.4937(4) 0.9397(9) 0.1881(6)
H9 H 0.5179 1.0027 0.2048
C8 C 0.4185(4) 1.0676(10) 0.0994(6)
C9 C 0.4443(4) 1.1807(9) 0.1002(6)
H10 H 0.4786 1.1817 0.1229
C10 C 0.4192(4) 1.2810(9) 0.0688(6)
H11 H 0.4358 1.3555 0.0701
C11 C 0.3661(5) 1.2809(10) 0.0317(6)
H12 H 0.3474 1.3529 0.0089
C12 C 0.3448(5) 1.1650(10) 0.0326(6)
C13 C 0.2692(4) 1.0338(10) -0.0195(6)
H13 H 0.2845 0.9544 -0.0114
C14 C 0.2568(4) 1.2442(10) -0.0228(6)
H14 H 0.2624 1.3319 -0.0172
C15 C 0.2128(5) 1.1853(10) -0.0529(6)
H15 H 0.1822 1.2253 -0.0721
C16 C 0.1828(4) 0.9532(9) -0.0752(6)
H16 H 0.1961 0.8737 -0.0812
H17 H 0.1550 0.9778 -0.1199
C17 C 0.1656(4) 0.9332(10) -0.0248(6)
C18 C 0.1177(4) 0.9639(7) -0.0437(5)
H18 H 0.0961 0.9964 -0.0876
C19 C 0.1020(4) 0.9461(7) 0.0029(5)
H19 H 0.0693 0.9634 -0.0103
C20 C 0.1358(5) 0.9009(9) 0.0717(6)
C21 C 0.1835(4) 0.8552(9) 0.0857(6)
H20 H 0.2047 0.8145 0.1274
C22 C 0.1968(5) 0.8716(9) 0.0391(6)
H21 H 0.2275 0.8418 0.0486
C23 C 0.1178(4) 0.8799(9) 0.1219(6)
H22 H 0.1418 0.9158 0.1665
H23 H 0.0870 0.9260 0.1052
C24 C 0.1418(5) 0.6626(9) 0.1743(6)
H24 H 0.1742 0.6800 0.2086
C25 C 0.0655(4) 0.6870(9) 0.0869(6)
H25 H 0.0367 0.7254 0.0524
C26 C 0.0727(4) 0.5559(9) 0.1046(6)
H26 H 0.0502 0.4899 0.0827
C27 C 0.1444(4) 0.4296(9) 0.1963(6)
C28 C 0.1184(5) 0.3260(9) 0.1913(6)
H27 H 0.0841 0.3246 0.1661
C29 C 0.1486(4) 0.2114(9) 0.2294(6)
H28 H 0.1335 0.1353 0.2297
C30 C 0.1982(5) 0.2208(9) 0.2633(6)
H29 H 0.2181 0.1514 0.2874
C31 C 0.2190(5) 0.3368(10) 0.2613(6)
C32 C 0.2942(5) 0.4627(9) 0.3139(6)
H30 H 0.2785 0.5418 0.3049
C33 C 0.3068(4) 0.2565(10) 0.3178(6)
H31 H 0.3010 0.1689 0.3124
C34 C 0.3515(5) 0.3156(10) 0.3482(6)
H32 H 0.3822 0.2766 0.3667
C35 C 0.3807(5) 0.5476(9) 0.3715(6)
H33 H 0.4084 0.5242 0.4165
H34 H 0.3668 0.6267 0.3767
C36 C 0.3984(4) 0.5676(10) 0.3208(6)
C37 C 0.4428(4) 0.5166(7) 0.3308(5)
H35 H 0.4632 0.4708 0.3710
C38 C 0.4566(4) 0.5333(7) 0.2822(5)
H36 H 0.4856 0.4960 0.2894
C39 C 0.4288(5) 0.6024(9) 0.2243(6)
C40 C 0.3842(4) 0.6434(9) 0.2095(6)
H37 H 0.3635 0.6826 0.1671
C41 C 0.3677(5) 0.6275(9) 0.2584(6)
H38 H 0.3368 0.6572 0.2480
C42 C 0.4424(4) 0.6178(9) 0.1690(6)
H39 H 0.4147 0.5936 0.1241
H40 H 0.4701 0.5630 0.1793
C43 C 0.1214(3) 1.4204(10) 0.0115(4)
C44 C 0.1292(4) 1.2916(9) 0.0274(5)
H41 H 0.1024 1.2368 0.0125
C45 C 0.1774(4) 1.2431(9) 0.0660(5)
H42 H 0.1827 1.1562 0.0759
C46 C 0.2168(4) 1.3269(10) 0.0890(5)
C47 C 0.2098(4) 1.4558(9) 0.0740(6)
H43 H 0.2368 1.5104 0.0896
C48 C 0.1611(4) 1.5043(10) 0.0345(6)
H44 H 0.1556 1.5911 0.0240
C49 C 0.2662(4) 1.2745(10) 0.1292(5)
C50 C 0.2728(4) 1.1461(10) 0.1446(6)
H45 H 0.2458 1.0921 0.1302
C51 C 0.3220(4) 1.0975(10) 0.1832(6)
H46 H 0.3276 1.0108 0.1938
C52 C 0.3610(4) 1.1801(10) 0.2044(6)
C53 C 0.3537(4) 1.3100(10) 0.1880(6)
H47 H 0.3806 1.3645 0.2027
C54 C 0.3053(4) 1.3576(10) 0.1492(6)
H48 H 0.2997 1.4437 0.1371
O1 O 0.0745(4) 1.4637(10) -0.0259(4)
H49 H 0.0747 1.5389 -0.0362
O2 O 0.4089(4) 1.1390(11) 0.2413(6)
H50 H 0.4094 1.0619 0.2484
O5 O 0.0536(7) 1.6885(13) -0.0707(9)
C55? C 0.1760(4) 1.4469(16) 0.0693(5)
C56? C 0.1709(5) 1.3170(15) 0.0742(6)
H51? H 0.1396 1.2815 0.0563
C57? C 0.2137(5) 1.2364(16) 0.1068(6)
H52? H 0.2109 1.1487 0.1108
C58? C 0.2593(5) 1.2935(17) 0.1320(6)
C59? C 0.2640(5) 1.4248(16) 0.1267(6)
H53? H 0.2951 1.4608 0.1438
C60? C 0.2224(5) 1.5019(16) 0.0959(6)
H54? H 0.2255 1.5898 0.0930
C61? C 0.3042(6) 1.2201(17) 0.1647(6)
C62? C 0.3009(6) 1.0893(16) 0.1713(7)
H55? H 0.2705 1.0496 0.1553
C63? C 0.3455(6) 1.0184(16) 0.2032(7)
H56? H 0.3443 0.9301 0.2072
C64? C 0.3902(6) 1.0777(16) 0.2283(7)
C65? C 0.3932(6) 1.2106(15) 0.2222(7)
H57? H 0.4236 1.2509 0.2396
C66? C 0.3492(5) 1.2807(16) 0.1894(7)
H58? H 0.3502 1.3687 0.1842
O3? O 0.1370(5) 1.5275(16) 0.0394(5)
H59? H 0.1121 1.4876 0.0121
O4? O 0.4323(6) 1.0093(16) 0.2601(7)
H60? H 0.4258 0.9335 0.2607
O6? O 0.0286(12) 1.726(2) -0.1177(13)
loop_
_geom_bond_atom_site_label_1
_geom_bond_atom_site_label_2
_geom_bond_site_symmetry_1
_geom_bond_site_symmetry_2
P1 F1 1_555 1_555
F2 P1 1_555 1_555
F3 P1 1_555 1_555
F4 P1 1_555 1_555
F5 P1 1_555 1_555
F6 P1 1_555 1_555
P2 F7 1_555 1_555
F8 P2 1_555 1_555
F9 P2 1_555 1_555
F10 P2 1_555 1_555
F11 P2 1_555 1_555
F12 P2 1_555 1_555
P3 F13 1_555 1_555
F14 P3 1_555 1_555
F15 P3 1_555 1_555
F16 P3 1_555 1_555
F17 P3 1_555 1_555
F18 P3 1_555 1_555
P4 F19 1_555 1_555
F20 P4 1_555 1_555
F21 P4 1_555 1_555
F22 P4 1_555 1_555
F23 P4 1_555 1_555
F24 P4 1_555 1_555
N1 C2 1_555 1_555
C1 H1 1_555 1_555
H2 C1 1_555 1_555
H3 C1 1_555 1_555
C2 C1 1_555 1_555
N2 C4 1_555 1_555
C3 H4 1_555 1_555
H5 C3 1_555 1_555
H6 C3 1_555 1_555
C4 C3 1_555 1_555
N3 C5 1_555 1_555
N4 C5 1_555 1_555
N5 C8 1_555 1_555
N6 C12 1_555 1_555
N7 C13 1_555 1_555
N8 C23 1_555 1_555
N9 C24 1_555 1_555
N10 C27 1_555 1_555
N11 C31 1_555 1_555
N12 C32 1_555 1_555
C5 H7 1_555 1_555
C6 N3 1_555 1_555
H8 C6 1_555 1_555
C7 N4 1_555 1_555
H9 C7 1_555 1_555
C8 N4 1_555 1_555
C9 C8 1_555 1_555
H10 C9 1_555 1_555
C10 C9 1_555 1_555
H11 C10 1_555 1_555
C11 C10 1_555 1_555
H12 C11 1_555 1_555
C12 N5 1_555 1_555
C13 N6 1_555 1_555
H13 C13 1_555 1_555
C14 N6 1_555 1_555
H14 C14 1_555 1_555
C15 N7 1_555 1_555
H15 C15 1_555 1_555
C16 N7 1_555 1_555
H16 C16 1_555 1_555
H17 C16 1_555 1_555
C17 C16 1_555 1_555
C18 C17 1_555 1_555
H18 C18 1_555 1_555
C19 C18 1_555 1_555
H19 C19 1_555 1_555
C20 C19 1_555 1_555
C21 C20 1_555 1_555
H20 C21 1_555 1_555
C22 C17 1_555 1_555
H21 C22 1_555 1_555
C23 C20 1_555 1_555
H22 C23 1_555 1_555
H23 C23 1_555 1_555
C24 N8 1_555 1_555
H24 C24 1_555 1_555
C25 N8 1_555 1_555
H25 C25 1_555 1_555
C26 N9 1_555 1_555
H26 C26 1_555 1_555
C27 N9 1_555 1_555
C28 C27 1_555 1_555
H27 C28 1_555 1_555
C29 C28 1_555 1_555
H28 C29 1_555 1_555
C30 C29 1_555 1_555
H29 C30 1_555 1_555
C31 N10 1_555 1_555
C32 N11 1_555 1_555
H30 C32 1_555 1_555
C33 N11 1_555 1_555
H31 C33 1_555 1_555
C34 N12 1_555 1_555
H32 C34 1_555 1_555
C35 N12 1_555 1_555
H33 C35 1_555 1_555
H34 C35 1_555 1_555
C36 C35 1_555 1_555
C37 C36 1_555 1_555
H35 C37 1_555 1_555
C38 C37 1_555 1_555
H36 C38 1_555 1_555
C39 C38 1_555 1_555
C40 C39 1_555 1_555
H37 C40 1_555 1_555
C41 C36 1_555 1_555
H38 C41 1_555 1_555
C42 N3 1_555 1_555
H39 C42 1_555 1_555
H40 C42 1_555 1_555
C43 C44 1_555 1_555
C44 H41 1_555 1_555
C45 C44 1_555 1_555
H42 C45 1_555 1_555
C46 C45 1_555 1_555
C47 C46 1_555 1_555
H43 C47 1_555 1_555
C48 C43 1_555 1_555
H44 C48 1_555 1_555
C49 C46 1_555 1_555
C50 C49 1_555 1_555
H45 C50 1_555 1_555
C51 C50 1_555 1_555
H46 C51 1_555 1_555
C52 C51 1_555 1_555
C53 C52 1_555 1_555
H47 C53 1_555 1_555
C54 C49 1_555 1_555
H48 C54 1_555 1_555
O1 C43 1_555 1_555
H49 O1 1_555 1_555
O2 C52 1_555 1_555
H50 O2 1_555 1_555
C6 C7 1_555 1_555
C11 C12 1_555 1_555
C14 C15 1_555 1_555
C21 C22 1_555 1_555
C25 C26 1_555 1_555
C30 C31 1_555 1_555
C33 C34 1_555 1_555
C39 C42 1_555 1_555
C40 C41 1_555 1_555
C47 C48 1_555 1_555
C53 C54 1_555 1_555

#END
