
#######################################################################
#
#                 Cambridge Crystallographic Data Centre
#                                CCDC 
#
#######################################################################
#
# If this CIF has been generated from an entry in the Cambridge 
# Structural Database, then it will include bibliographic, chemical, 
# crystal, experimental, refinement or atomic coordinate data resulting 
# from the CCDC's data processing and validation procedures.
#
#######################################################################

data_AKIPEQ
_chemical_formula_moiety         'C4 H6 Cl10 Si4'
_chemical_name_systematic        
trans-1,1,4,4-Tetrachloro-2,5-bis(trichlorosilyl)-1,4-disilacyclohexane
_symmetry_cell_setting           triclinic
_symmetry_space_group_name_H-M   'P -1'
_symmetry_Int_Tables_number      2
_space_group_name_Hall           '-P 1'
loop_
_symmetry_equiv_pos_site_id
_symmetry_equiv_pos_as_xyz
1 x,y,z
2 -x,-y,-z
_cell_length_a                   6.1896(5)
_cell_length_b                   8.3969(7)
_cell_length_c                   9.0412(9)
_cell_angle_alpha                89.363(3)
_cell_angle_beta                 80.569(3)
_cell_angle_gamma                78.809(2)
_cell_volume                     454.633
_cell_formula_units_Z            1
loop_
_atom_site_label
_atom_site_type_symbol
_atom_site_fract_x
_atom_site_fract_y
_atom_site_fract_z
Si1 Si 1.00373(14) 0.45363(10) 0.68155(9)
Si2 Si 0.81038(14) 0.83398(9) 0.75788(9)
Cl1 Cl 1.32350(13) 0.46527(10) 0.70633(10)
Cl2 Cl 0.84523(14) 0.37545(10) 0.87430(9)
Cl3 Cl 0.63732(15) 0.79098(10) 0.95817(9)
Cl4 Cl 1.09822(14) 0.89837(10) 0.78755(11)
Cl5 Cl 0.62725(13) 1.02681(9) 0.66693(9)
C1 C 0.8602(5) 0.6576(3) 0.6268(3)
C2 C 1.0207(6) 0.3011(4) 0.5303(3)
H1 H 0.711(6) 0.643(4) 0.616(4)
H2 H 1.098(7) 0.199(5) 0.568(5)
H3 H 0.869(7) 0.291(5) 0.523(4)
Si1A Si 0.99627(14) 0.54637(10) 0.31845(9)
Si2A Si 1.18962(14) 0.16602(9) 0.24212(9)
Cl1A Cl 0.67650(13) 0.53473(10) 0.29367(10)
Cl2A Cl 1.15477(14) 0.62455(10) 0.12570(9)
Cl3A Cl 1.36268(15) 0.20902(10) 0.04183(9)
Cl4A Cl 0.90178(14) 0.10163(10) 0.21245(11)
Cl5A Cl 1.37275(13) -0.02681(9) 0.33307(9)
C1A C 1.1398(5) 0.3424(3) 0.3732(3)
C2A C 0.9793(6) 0.6989(4) 0.4697(3)
H1A H 1.289(6) 0.357(4) 0.384(4)
H2A H 0.902(7) 0.801(5) 0.432(5)
H3A H 1.131(7) 0.709(5) 0.477(4)
loop_
_geom_bond_atom_site_label_1
_geom_bond_atom_site_label_2
_geom_bond_site_symmetry_1
_geom_bond_site_symmetry_2
Si1 Cl1 1_555 1_555
Si2 Cl3 1_555 1_555
Cl2 Si1 1_555 1_555
Cl4 Si2 1_555 1_555
Cl5 Si2 1_555 1_555
C1 Si1 1_555 1_555
C2 Si1 1_555 1_555
H1 C1 1_555 1_555
H2 C2 1_555 1_555
H3 C2 1_555 1_555
Si1A Cl1A 1_555 1_555
Si2A Cl3A 1_555 1_555
Cl2A Si1A 1_555 1_555
Cl4A Si2A 1_555 1_555
Cl5A Si2A 1_555 1_555
C1A C2 1_555 1_555
C2A C1 1_555 1_555
H1A C1A 1_555 1_555
H2A C2A 1_555 1_555
H3A C2A 1_555 1_555
Si2 C1 1_555 1_555
Si1A C1A 1_555 1_555
Si1A C2A 1_555 1_555
Si2A C1A 1_555 1_555

#END
