
#######################################################################
#
#                 Cambridge Crystallographic Data Centre
#                                CCDC 
#
#######################################################################
#
# If this CIF has been generated from an entry in the Cambridge 
# Structural Database, then it will include bibliographic, chemical, 
# crystal, experimental, refinement or atomic coordinate data resulting 
# from the CCDC's data processing and validation procedures.
#
#######################################################################

data_AKIPIU
_chemical_formula_moiety         'C6 H12 Cl8 Si4'
_chemical_name_systematic        
trans-1,1,4,4-Tetrachloro-2,5-bis(dichloro(methyl)silyl)-1,4-disilacyclohexane
_symmetry_cell_setting           triclinic
_symmetry_space_group_name_H-M   'P -1'
_symmetry_Int_Tables_number      2
_space_group_name_Hall           '-P 1'
loop_
_symmetry_equiv_pos_site_id
_symmetry_equiv_pos_as_xyz
1 x,y,z
2 -x,-y,-z
_cell_length_a                   6.7991(3)
_cell_length_b                   8.6802(4)
_cell_length_c                   9.2531(5)
_cell_angle_alpha                84.1808(18)
_cell_angle_beta                 67.1898(19)
_cell_angle_gamma                71.4251(11)
_cell_volume                     477.012
_cell_formula_units_Z            1
loop_
_atom_site_label
_atom_site_type_symbol
_atom_site_fract_x
_atom_site_fract_y
_atom_site_fract_z
C1 C 0.2934(3) 0.1658(3) -0.0103(3)
H1 H 0.2517 0.1273 -0.0857
H2 H 0.1898 0.2731 0.0268
C2 C 0.4642(3) -0.1800(2) 0.0950(2)
H3 H 0.4290 -0.2158 0.0133
C3 C 0.1882(4) -0.3900(3) 0.3333(3)
H4 H 0.2014 -0.4759 0.4062
H5 H 0.1502 -0.4229 0.2542
H6 H 0.0731 -0.2944 0.3880
Cl1 Cl -0.05956(9) 0.02174(8) 0.25397(8)
Cl2 Cl 0.32864(11) 0.12313(7) 0.32096(7)
Cl3 Cl 0.69761(10) -0.55282(7) 0.12310(8)
Cl4 Cl 0.55950(15) -0.29431(9) 0.40501(8)
Si1 Si 0.26351(9) 0.02718(7) 0.15794(7)
Si2 Si 0.45632(10) -0.34519(7) 0.24069(7)
C1A C 0.7066(3) -0.1658(3) 0.0103(3)
H1A H 0.7483 -0.1273 0.0857
H2A H 0.8102 -0.2731 -0.0268
C2A C 0.5358(3) 0.1800(2) -0.0950(2)
H3A H 0.5710 0.2158 -0.0133
C3A C 0.8118(4) 0.3900(3) -0.3333(3)
H4A H 0.7986 0.4759 -0.4062
H5A H 0.8498 0.4229 -0.2542
H6A H 0.9269 0.2944 -0.3880
Cl1A Cl 1.05956(9) -0.02174(8) -0.25397(8)
Cl2A Cl 0.67136(11) -0.12313(7) -0.32096(7)
Cl3A Cl 0.30239(10) 0.55282(7) -0.12310(8)
Cl4A Cl 0.44050(15) 0.29431(9) -0.40501(8)
Si1A Si 0.73649(9) -0.02718(7) -0.15794(7)
Si2A Si 0.54368(10) 0.34519(7) -0.24069(7)
loop_
_geom_bond_atom_site_label_1
_geom_bond_atom_site_label_2
_geom_bond_site_symmetry_1
_geom_bond_site_symmetry_2
C1 H1 1_555 1_555
H2 C1 1_555 1_555
C2 H3 1_555 1_555
C3 H4 1_555 1_555
H5 C3 1_555 1_555
H6 C3 1_555 1_555
Cl1 Si1 1_555 1_555
Cl2 Si1 1_555 1_555
Cl3 Si2 1_555 1_555
Cl4 Si2 1_555 1_555
Si1 C1 1_555 1_555
Si2 C2 1_555 1_555
C1A C2 1_555 1_555
H1A C1A 1_555 1_555
H2A C1A 1_555 1_555
C2A C1 1_555 1_555
H3A C2A 1_555 1_555
C3A H4A 1_555 1_555
H5A C3A 1_555 1_555
H6A C3A 1_555 1_555
Cl1A Si1A 1_555 1_555
Cl2A Si1A 1_555 1_555
Cl3A Si2A 1_555 1_555
Cl4A Si2A 1_555 1_555
Si1A C1A 1_555 1_555
Si2A C2A 1_555 1_555
C2 Si1 1_555 1_555
C3 Si2 1_555 1_555
C2A Si1A 1_555 1_555
C3A Si2A 1_555 1_555

#END
