
#######################################################################
#
#                 Cambridge Crystallographic Data Centre
#                                CCDC 
#
#######################################################################
#
# If this CIF has been generated from an entry in the Cambridge 
# Structural Database, then it will include bibliographic, chemical, 
# crystal, experimental, refinement or atomic coordinate data resulting 
# from the CCDC's data processing and validation procedures.
#
#######################################################################

data_AKIQUI
_chemical_formula_moiety         'C12 H6 N4 O2 S2'
_chemical_name_systematic        5,5'-bis(2-thienyl)-2,2'-bi-1,3,4-oxadiazole
_symmetry_cell_setting           monoclinic
_symmetry_space_group_name_H-M   'P 21/c'
_symmetry_Int_Tables_number      14
_space_group_name_Hall           '-P 2ybc'
loop_
_symmetry_equiv_pos_site_id
_symmetry_equiv_pos_as_xyz
1 x,y,z
2 -x,1/2+y,1/2-z
3 -x,-y,-z
4 x,1/2-y,1/2+z
_cell_length_a                   3.8535(8)
_cell_length_b                   15.665(3)
_cell_length_c                   10.114(2)
_cell_angle_alpha                90
_cell_angle_beta                 97.98(3)
_cell_angle_gamma                90
_cell_volume                     604.62
_exptl_crystal_description       needle
_cell_formula_units_Z            2
loop_
_atom_site_label
_atom_site_type_symbol
_atom_site_fract_x
_atom_site_fract_y
_atom_site_fract_z
S1 S 0.04876(14) 0.31861(4) 0.30952(5)
O1 O 0.4727(4) 0.11568(9) 0.51087(14)
C1 C 0.2579(5) 0.16278(14) 0.41902(19)
N1 N 0.0812(5) 0.11614(12) 0.32714(18)
C2 C 0.2566(5) 0.25422(14) 0.43456(19)
N2 N 0.1827(5) 0.03120(11) 0.35665(18)
C3 C 0.4092(5) 0.30134(13) 0.5437(2)
H1 H 0.5334 0.2779 0.6205
C4 C 0.4098(5) 0.03456(12) 0.4637(2)
C5 C 0.3504(6) 0.39012(13) 0.5225(2)
H2 H 0.4326 0.4318 0.5846
C6 C 0.1601(6) 0.40777(14) 0.4012(2)
H3 H 0.0983 0.4627 0.3720
S1B S 0.95124(14) -0.31861(4) 0.69048(5)
O1B O 0.5273(4) -0.11568(9) 0.48913(14)
C1B C 0.7421(5) -0.16278(14) 0.58098(19)
N1B N 0.9188(5) -0.11614(12) 0.67286(18)
C2B C 0.7434(5) -0.25422(14) 0.56544(19)
N2B N 0.8173(5) -0.03120(11) 0.64335(18)
C3B C 0.5908(5) -0.30134(13) 0.4563(2)
H1B H 0.4666 -0.2779 0.3795
C4B C 0.5902(5) -0.03456(12) 0.5363(2)
C5B C 0.6496(6) -0.39012(13) 0.4775(2)
H2B H 0.5674 -0.4318 0.4154
C6B C 0.8399(6) -0.40777(14) 0.5988(2)
H3B H 0.9017 -0.4627 0.6280
loop_
_geom_bond_atom_site_label_1
_geom_bond_atom_site_label_2
_geom_bond_site_symmetry_1
_geom_bond_site_symmetry_2
S1 C2 1_555 1_555
O1 C1 1_555 1_555
C1 N1 1_555 1_555
N1 N2 1_555 1_555
C2 C1 1_555 1_555
N2 C4 1_555 1_555
C3 C2 1_555 1_555
H1 C3 1_555 1_555
C4 O1 1_555 1_555
C5 C3 1_555 1_555
H2 C5 1_555 1_555
C6 S1 1_555 1_555
H3 C6 1_555 1_555
S1B C2B 1_555 1_555
O1B C1B 1_555 1_555
C1B N1B 1_555 1_555
N1B N2B 1_555 1_555
C2B C1B 1_555 1_555
N2B C4B 1_555 1_555
C3B C2B 1_555 1_555
H1B C3B 1_555 1_555
C4B C4 1_555 1_555
C5B C3B 1_555 1_555
H2B C5B 1_555 1_555
C6B S1B 1_555 1_555
H3B C6B 1_555 1_555
C5 C6 1_555 1_555
O1B C4B 1_555 1_555
C5B C6B 1_555 1_555

#END
