
#######################################################################
#
#                 Cambridge Crystallographic Data Centre
#                                CCDC 
#
#######################################################################
#
# If this CIF has been generated from an entry in the Cambridge 
# Structural Database, then it will include bibliographic, chemical, 
# crystal, experimental, refinement or atomic coordinate data resulting 
# from the CCDC's data processing and validation procedures.
#
#######################################################################

data_AKIQIW
_chemical_formula_moiety         'C18 H14 N4 O4'
_chemical_name_systematic        
5,5'-bis(2-methoxyphenyl)-2,2'-bi-1,3,4-oxadiazole
_symmetry_cell_setting           monoclinic
_symmetry_space_group_name_H-M   'P 21/n'
_symmetry_Int_Tables_number      14
_space_group_name_Hall           '-P 2yn'
loop_
_symmetry_equiv_pos_site_id
_symmetry_equiv_pos_as_xyz
1 x,y,z
2 1/2-x,1/2+y,1/2-z
3 -x,-y,-z
4 1/2+x,1/2-y,1/2+z
_cell_length_a                   3.9373(8)
_cell_length_b                   11.632(2)
_cell_length_c                   16.943(3)
_cell_angle_alpha                90
_cell_angle_beta                 96.33(3)
_cell_angle_gamma                90
_cell_volume                     771.236
_exptl_crystal_description       block
_cell_formula_units_Z            2
loop_
_atom_site_label
_atom_site_type_symbol
_atom_site_fract_x
_atom_site_fract_y
_atom_site_fract_z
O1 O 1.0446(2) 0.89705(7) 0.42173(5)
O2 O 0.7633(3) 0.55300(7) 0.41777(5)
C1 C 0.8789(3) 0.59754(10) 0.35228(7)
C2 C 0.9630(3) 0.71522(9) 0.35432(7)
C3 C 0.9202(3) 0.53400(11) 0.28400(7)
H1 H 0.8644 0.4563 0.2820
C4 C 0.9137(3) 0.78753(9) 0.42236(7)
N1 N 0.7557(3) 0.76942(9) 0.48441(6)
C5 C 1.0925(3) 0.76447(11) 0.28824(7)
H2 H 1.1526 0.8418 0.2896
C6 C 1.0432(4) 0.58548(11) 0.21936(7)
H3 H 1.0662 0.5422 0.1741
N2 N 0.7812(3) 0.87150(9) 0.52897(6)
C7 C 0.9514(3) 0.94122(10) 0.48998(7)
C8 C 1.1326(4) 0.70050(11) 0.22116(7)
H4 H 1.2185 0.7344 0.1778
C9 C 0.6803(4) 0.43320(11) 0.41732(8)
H5 H 0.5048 0.4176 0.3747
H6 H 0.6004 0.4128 0.4670
H7 H 0.8802 0.3889 0.4100
O1B O 0.9554(2) 1.10295(7) 0.57827(5)
O2B O 1.2367(3) 1.44700(7) 0.58223(5)
C1B C 1.1211(3) 1.40246(10) 0.64772(7)
C2B C 1.0370(3) 1.28478(9) 0.64568(7)
C3B C 1.0798(3) 1.46600(11) 0.71600(7)
H1B H 1.1356 1.5437 0.7180
C4B C 1.0863(3) 1.21247(9) 0.57764(7)
N1B N 1.2443(3) 1.23058(9) 0.51559(6)
C5B C 0.9075(3) 1.23553(11) 0.71176(7)
H2B H 0.8474 1.1582 0.7104
C6B C 0.9568(4) 1.41452(11) 0.78064(7)
H3B H 0.9338 1.4578 0.8259
N2B N 1.2188(3) 1.12850(9) 0.47103(6)
C7B C 1.0486(3) 1.05878(10) 0.51002(7)
C8B C 0.8674(4) 1.29950(11) 0.77884(7)
H4B H 0.7815 1.2656 0.8222
C9B C 1.3197(4) 1.56680(11) 0.58268(8)
H5B H 1.4952 1.5824 0.6253
H6B H 1.3996 1.5872 0.5330
H7B H 1.1198 1.6111 0.5900
loop_
_geom_bond_atom_site_label_1
_geom_bond_atom_site_label_2
_geom_bond_site_symmetry_1
_geom_bond_site_symmetry_2
O1 C4 1_555 1_555
O2 C1 1_555 1_555
C1 C2 1_555 1_555
C2 C4 1_555 1_555
C3 C1 1_555 1_555
H1 C3 1_555 1_555
C4 N1 1_555 1_555
N1 N2 1_555 1_555
C5 C2 1_555 1_555
H2 C5 1_555 1_555
C6 C3 1_555 1_555
H3 C6 1_555 1_555
N2 C7 1_555 1_555
C7 O1 1_555 1_555
C8 C5 1_555 1_555
H4 C8 1_555 1_555
C9 O2 1_555 1_555
H5 C9 1_555 1_555
H6 C9 1_555 1_555
H7 C9 1_555 1_555
O1B C4B 1_555 1_555
O2B C1B 1_555 1_555
C1B C2B 1_555 1_555
C2B C4B 1_555 1_555
C3B C1B 1_555 1_555
H1B C3B 1_555 1_555
C4B N1B 1_555 1_555
N1B N2B 1_555 1_555
C5B C2B 1_555 1_555
H2B C5B 1_555 1_555
C6B C3B 1_555 1_555
H3B C6B 1_555 1_555
N2B C7B 1_555 1_555
C7B C7 1_555 1_555
C8B C5B 1_555 1_555
H4B C8B 1_555 1_555
C9B O2B 1_555 1_555
H5B C9B 1_555 1_555
H6B C9B 1_555 1_555
H7B C9B 1_555 1_555
C6 C8 1_555 1_555
O1B C7B 1_555 1_555
C6B C8B 1_555 1_555

#END
