
#######################################################################
#
#                 Cambridge Crystallographic Data Centre
#                                CCDC 
#
#######################################################################
#
# If this CIF has been generated from an entry in the Cambridge 
# Structural Database, then it will include bibliographic, chemical, 
# crystal, experimental, refinement or atomic coordinate data resulting 
# from the CCDC's data processing and validation procedures.
#
#######################################################################

data_AKIZAV
_chemical_formula_moiety         'C2 H10 N2 2+,2(C7 H4 Cl1 O2 1-)'
_chemical_name_systematic        'Ethylenediammonium bis(4-chlorobenzoate)'
_symmetry_cell_setting           monoclinic
_symmetry_space_group_name_H-M   'C 2/c'
_symmetry_Int_Tables_number      15
_space_group_name_Hall           '-C 2yn'
loop_
_symmetry_equiv_pos_site_id
_symmetry_equiv_pos_as_xyz
1 x,y,z
2 1/2+x,1/2+y,z
3 -x,y,1/2-z
4 1/2-x,1/2+y,1/2-z
5 -x,-y,-z
6 1/2-x,1/2-y,-z
7 x,-y,1/2+z
8 1/2+x,1/2-y,1/2+z
_cell_length_a                   21.916(12)
_cell_length_b                   9.015(5)
_cell_length_c                   8.620(5)
_cell_angle_alpha                90
_cell_angle_beta                 96.151(9)
_cell_angle_gamma                90
_cell_volume                     1693.27
_exptl_crystal_colour            colorless
_exptl_crystal_description       prism
_cell_formula_units_Z            4
loop_
_atom_site_label
_atom_site_type_symbol
_atom_site_fract_x
_atom_site_fract_y
_atom_site_fract_z
Cl1 Cl 0.47922(7) 0.76525(17) 1.06012(14)
O1 O 0.32662(15) 0.8278(3) 0.3470(3)
O2 O 0.30543(15) 0.5953(3) 0.4008(3)
C1 C 0.3308(2) 0.7185(5) 0.4350(5)
C2 C 0.36883(19) 0.7300(5) 0.5905(4)
C3 C 0.3838(2) 0.8673(6) 0.6567(5)
C4 C 0.4177(2) 0.8800(6) 0.7999(5)
C5 C 0.4378(2) 0.7521(6) 0.8774(5)
C6 C 0.4253(2) 0.6137(5) 0.8145(5)
C7 C 0.3904(2) 0.6037(5) 0.6712(5)
H1 H 0.369(2) 0.950(5) 0.596(5)
H2 H 0.4272(18) 0.976(5) 0.847(5)
H3 H 0.4400(17) 0.512(5) 0.873(4)
H4 H 0.3805(18) 0.507(5) 0.626(5)
N1 N 0.2450(2) 0.5697(5) 0.1077(4)
C8 C 0.2233(2) 0.7098(5) 0.0308(5)
H5 H 0.199(3) 0.503(8) 0.130(7)
H6 H 0.269(2) 0.586(5) 0.187(6)
H7 H 0.270(2) 0.514(5) 0.045(6)
H8 H 0.197(2) 0.772(6) 0.098(6)
H9 H 0.1875(18) 0.693(4) -0.058(5)
C8E C 0.2767(2) 0.7902(5) -0.0308(5)
N1E N 0.2550(2) 0.9303(5) -0.1077(4)
H5E H 0.301(3) 0.997(8) -0.130(7)
H6E H 0.231(2) 0.914(5) -0.187(6)
H7E H 0.230(2) 0.986(5) -0.045(6)
H8E H 0.303(2) 0.728(6) -0.098(6)
H9E H 0.3125(18) 0.807(4) 0.058(5)
loop_
_geom_bond_atom_site_label_1
_geom_bond_atom_site_label_2
_geom_bond_site_symmetry_1
_geom_bond_site_symmetry_2
Cl1 C5 1_555 1_555
O1 C1 1_555 1_555
O2 C1 1_555 1_555
C1 C2 1_555 1_555
C2 C3 1_555 1_555
C3 C4 1_555 1_555
C4 C5 1_555 1_555
C5 C6 1_555 1_555
C6 C7 1_555 1_555
C7 C2 1_555 1_555
H1 C3 1_555 1_555
H2 C4 1_555 1_555
H3 C6 1_555 1_555
H4 C7 1_555 1_555
N1 C8 1_555 1_555
C8 H8 1_555 1_555
H5 N1 1_555 1_555
H6 N1 1_555 1_555
H7 N1 1_555 1_555
H9 C8 1_555 1_555
C8E C8 1_555 1_555
N1E C8E 1_555 1_555
H5E N1E 1_555 1_555
H6E N1E 1_555 1_555
H7E N1E 1_555 1_555
H8E C8E 1_555 1_555
H9E C8E 1_555 1_555

#END
