
#######################################################################
#
#                 Cambridge Crystallographic Data Centre
#                                CCDC 
#
#######################################################################
#
# If this CIF has been generated from an entry in the Cambridge 
# Structural Database, then it will include bibliographic, chemical, 
# crystal, experimental, refinement or atomic coordinate data resulting 
# from the CCDC's data processing and validation procedures.
#
#######################################################################

data_AKOCEK
_chemical_formula_moiety         'C26 H15 Br1 N4 O3,C2 H6 O1 S1'
_chemical_name_systematic        
'5-benzoyl-2-(5-bromo-1H-indol-3-yl)-4-(4-nitrophenyl)-1H-pyrrole-3-carbonitrile dimethyl sulfoxide solvate'
_symmetry_cell_setting           triclinic
_symmetry_space_group_name_H-M   'P -1'
_symmetry_Int_Tables_number      2
_space_group_name_Hall           '-P 1'
loop_
_symmetry_equiv_pos_site_id
_symmetry_equiv_pos_as_xyz
1 x,y,z
2 -x,-y,-z
_cell_length_a                   10.1721(3)
_cell_length_b                   11.2475(3)
_cell_length_c                   12.0154(4)
_cell_angle_alpha                79.638(2)
_cell_angle_beta                 82.454(2)
_cell_angle_gamma                82.371(2)
_cell_volume                     1332.14
_exptl_crystal_colour            yellow
_exptl_crystal_description       block
_cell_formula_units_Z            2
loop_
_atom_site_label
_atom_site_type_symbol
_atom_site_fract_x
_atom_site_fract_y
_atom_site_fract_z
Br1 Br 0.49737(5) 0.66722(5) 0.13859(6)
N1 N 1.4544(5) 1.2779(4) 0.2474(4)
N2 N 1.0331(3) 0.7630(3) 0.1857(3)
H1 H 0.9831 0.7082 0.2188
N3 N 1.0226(4) 0.6139(3) -0.1434(3)
H2 H 1.0515 0.5781 -0.2008
N4 N 1.2224(4) 1.0041(4) -0.1418(3)
O1 O 1.4065(5) 1.3381(4) 0.3185(4)
O2 O 1.5640(4) 1.2893(4) 0.1934(4)
O3 O 0.9785(4) 0.7663(3) 0.4168(3)
C1 C 1.3124(5) 0.8293(5) 0.3937(4)
H3 H 1.3422 0.8005 0.3259
C2 C 1.4022(7) 0.8582(6) 0.4588(6)
H4 H 1.4933 0.8478 0.4355
C3 C 1.3562(10) 0.9028(7) 0.5590(7)
H5 H 1.4164 0.9250 0.6014
C4 C 1.2255(11) 0.9141(7) 0.5950(6)
H6 H 1.1956 0.9428 0.6629
C5 C 1.1354(7) 0.8837(5) 0.5322(4)
H7 H 1.0450 0.8902 0.5584
C6 C 1.1786(5) 0.8436(4) 0.4307(4)
C7 C 1.0757(5) 0.8122(4) 0.3660(3)
C8 C 1.0946(4) 0.8329(4) 0.2412(3)
C9 C 1.1633(4) 0.9123(3) 0.1602(3)
C10 C 1.2376(4) 1.0098(3) 0.1792(3)
C11 C 1.1791(4) 1.0927(4) 0.2482(4)
H8 H 1.0904 1.0899 0.2787
C12 C 1.2497(5) 1.1790(4) 0.2724(4)
H9 H 1.2106 1.2328 0.3209
C13 C 1.3789(5) 1.1843(4) 0.2239(4)
C14 C 1.4384(4) 1.1073(4) 0.1515(4)
H10 H 1.5251 1.1141 0.1174
C15 C 1.3672(4) 1.0191(4) 0.1300(4)
H11 H 1.4070 0.9654 0.0818
C16 C 1.1427(4) 0.8859(4) 0.0530(3)
C17 C 1.1864(4) 0.9507(4) -0.0557(4)
C18 C 1.0622(4) 0.7921(3) 0.0716(3)
C19 C 1.0173(4) 0.7268(4) -0.0071(3)
C20 C 1.0932(4) 0.6838(4) -0.0978(4)
H12 H 1.1801 0.7002 -0.1241
C21 C 0.8990(4) 0.6092(3) -0.0842(3)
C22 C 0.7946(5) 0.5478(4) -0.0975(4)
H13 H 0.8037 0.4975 -0.1522
C23 C 0.6783(5) 0.5625(4) -0.0288(4)
H14 H 0.6070 0.5215 -0.0359
C24 C 0.6658(4) 0.6400(4) 0.0532(4)
C25 C 0.7696(4) 0.6980(4) 0.0706(4)
H15 H 0.7599 0.7473 0.1262
C26 C 0.8895(4) 0.6812(3) 0.0028(3)
S1 S 0.78523(17) 0.57068(14) 0.37985(14)
O4 O 0.9070(3) 0.5529(3) 0.2988(3)
C27 C 0.6901(7) 0.4510(7) 0.3716(7)
H16 H 0.6612 0.4623 0.2972
H17 H 0.6136 0.4520 0.4277
H18 H 0.7442 0.3743 0.3856
C28 C 0.8199(9) 0.5262(8) 0.5162(6)
H19 H 0.8722 0.5827 0.5358
H20 H 0.8689 0.4466 0.5240
H21 H 0.7380 0.5239 0.5660
loop_
_geom_bond_atom_site_label_1
_geom_bond_atom_site_label_2
_geom_bond_site_symmetry_1
_geom_bond_site_symmetry_2
Br1 C24 1_555 1_555
N1 O1 1_555 1_555
N2 H1 1_555 1_555
N3 H2 1_555 1_555
N4 C17 1_555 1_555
O2 N1 1_555 1_555
O3 C7 1_555 1_555
C1 H3 1_555 1_555
C2 C1 1_555 1_555
H4 C2 1_555 1_555
C3 C2 1_555 1_555
H5 C3 1_555 1_555
C4 C3 1_555 1_555
H6 C4 1_555 1_555
C5 C4 1_555 1_555
H7 C5 1_555 1_555
C6 C1 1_555 1_555
C7 C6 1_555 1_555
C8 N2 1_555 1_555
C9 C8 1_555 1_555
C10 C9 1_555 1_555
C11 C10 1_555 1_555
H8 C11 1_555 1_555
C12 C11 1_555 1_555
H9 C12 1_555 1_555
C13 N1 1_555 1_555
C14 C13 1_555 1_555
H10 C14 1_555 1_555
C15 C10 1_555 1_555
H11 C15 1_555 1_555
C16 C9 1_555 1_555
C17 C16 1_555 1_555
C18 N2 1_555 1_555
C19 C18 1_555 1_555
C20 N3 1_555 1_555
H12 C20 1_555 1_555
C21 N3 1_555 1_555
C22 C21 1_555 1_555
H13 C22 1_555 1_555
C23 C22 1_555 1_555
H14 C23 1_555 1_555
C24 C23 1_555 1_555
C25 C24 1_555 1_555
H15 C25 1_555 1_555
C26 C19 1_555 1_555
S1 O4 1_555 1_555
C27 S1 1_555 1_555
H16 C27 1_555 1_555
H17 C27 1_555 1_555
H18 C27 1_555 1_555
C28 S1 1_555 1_555
H19 C28 1_555 1_555
H20 C28 1_555 1_555
H21 C28 1_555 1_555
C5 C6 1_555 1_555
C7 C8 1_555 1_555
C12 C13 1_555 1_555
C14 C15 1_555 1_555
C16 C18 1_555 1_555
C19 C20 1_555 1_555
C21 C26 1_555 1_555
C25 C26 1_555 1_555

#END
