
#######################################################################
#
#                 Cambridge Crystallographic Data Centre
#                                CCDC 
#
#######################################################################
#
# If this CIF has been generated from an entry in the Cambridge 
# Structural Database, then it will include bibliographic, chemical, 
# crystal, experimental, refinement or atomic coordinate data resulting 
# from the CCDC's data processing and validation procedures.
#
#######################################################################

data_AKOCEJ
_chemical_formula_moiety         'C19 H16 O2 S1'
_chemical_name_systematic        '5-Methylbiphenyl-3-yl phenyl sulfone'
_symmetry_cell_setting           monoclinic
_symmetry_space_group_name_H-M   'P 21/c'
_symmetry_Int_Tables_number      14
_space_group_name_Hall           '-P 2ybc'
loop_
_symmetry_equiv_pos_site_id
_symmetry_equiv_pos_as_xyz
1 x,y,z
2 -x,1/2+y,1/2-z
3 -x,-y,-z
4 x,1/2-y,1/2+z
_cell_length_a                   10.136(2)
_cell_length_b                   20.839(4)
_cell_length_c                   7.7091(15)
_cell_angle_alpha                90
_cell_angle_beta                 103.54(3)
_cell_angle_gamma                90
_cell_volume                     1583.09
_exptl_crystal_colour            colorless
_exptl_crystal_description       block
_cell_formula_units_Z            4
loop_
_atom_site_label
_atom_site_type_symbol
_atom_site_fract_x
_atom_site_fract_y
_atom_site_fract_z
C1 C 0.17885(19) 0.47048(9) 0.3797(2)
C2 C 0.21784(19) 0.53387(9) 0.3873(2)
H1 H 0.3073 0.5449 0.4393
C3 C 0.12426(19) 0.58156(9) 0.3177(3)
C4 C -0.0081(2) 0.56200(10) 0.2377(3)
H2 H -0.0719 0.5931 0.1891
C5 C -0.04822(19) 0.49816(10) 0.2278(3)
C6 C 0.0465(2) 0.45230(10) 0.3011(3)
H3 H 0.0218 0.4093 0.2980
C7 C -0.1921(2) 0.47986(11) 0.1378(3)
H4 H -0.2536 0.5110 0.1661
H5 H -0.2124 0.4384 0.1792
H6 H -0.2019 0.4785 0.0109
C8 C 0.1623(2) 0.65026(10) 0.3266(3)
C9 C 0.2906(2) 0.66911(11) 0.3122(3)
H7 H 0.3539 0.6382 0.2994
C10 C 0.3252(3) 0.73315(12) 0.3167(4)
H8 H 0.4113 0.7451 0.3057
C11 C 0.2344(3) 0.77924(12) 0.3371(4)
H9 H 0.2583 0.8224 0.3392
C12 C 0.1085(3) 0.76170(11) 0.3544(4)
H10 H 0.0472 0.7931 0.3702
C13 C 0.0710(2) 0.69782(11) 0.3488(3)
H11 H -0.0154 0.6865 0.3598
C14 C 0.34602(19) 0.38360(9) 0.2658(3)
C15 C 0.2819(2) 0.33025(10) 0.1771(3)
H12 H 0.2188 0.3073 0.2225
C16 C 0.3140(3) 0.31184(12) 0.0188(3)
H13 H 0.2717 0.2762 -0.0429
C17 C 0.4074(3) 0.34565(13) -0.0473(3)
H14 H 0.4287 0.3327 -0.1530
C18 C 0.4691(2) 0.39808(12) 0.0408(3)
H15 H 0.5315 0.4210 -0.0059
C19 C 0.4402(2) 0.41761(11) 0.1988(3)
H16 H 0.4835 0.4532 0.2595
O1 O 0.41640(14) 0.43965(6) 0.57711(17)
O2 O 0.23278(14) 0.35766(7) 0.52593(19)
S1 S 0.29988(5) 0.41019(3) 0.46085(7)
loop_
_geom_bond_atom_site_label_1
_geom_bond_atom_site_label_2
_geom_bond_site_symmetry_1
_geom_bond_site_symmetry_2
C1 C2 1_555 1_555
C2 H1 1_555 1_555
C3 C2 1_555 1_555
C4 C3 1_555 1_555
H2 C4 1_555 1_555
C5 C4 1_555 1_555
C6 C1 1_555 1_555
H3 C6 1_555 1_555
C7 C5 1_555 1_555
H4 C7 1_555 1_555
H5 C7 1_555 1_555
H6 C7 1_555 1_555
C8 C3 1_555 1_555
C9 C8 1_555 1_555
H7 C9 1_555 1_555
C10 C9 1_555 1_555
H8 C10 1_555 1_555
C11 C10 1_555 1_555
H9 C11 1_555 1_555
C12 C11 1_555 1_555
H10 C12 1_555 1_555
C13 C8 1_555 1_555
H11 C13 1_555 1_555
C14 C15 1_555 1_555
C15 H12 1_555 1_555
C16 C15 1_555 1_555
H13 C16 1_555 1_555
C17 C16 1_555 1_555
H14 C17 1_555 1_555
C18 C17 1_555 1_555
H15 C18 1_555 1_555
C19 C14 1_555 1_555
H16 C19 1_555 1_555
O1 S1 1_555 1_555
O2 S1 1_555 1_555
S1 C1 1_555 1_555
C5 C6 1_555 1_555
C12 C13 1_555 1_555
C14 S1 1_555 1_555
C18 C19 1_555 1_555

#END
