
#######################################################################
#
#                 Cambridge Crystallographic Data Centre
#                                CCDC 
#
#######################################################################
#
# If this CIF has been generated from an entry in the Cambridge 
# Structural Database, then it will include bibliographic, chemical, 
# crystal, experimental, refinement or atomic coordinate data resulting 
# from the CCDC's data processing and validation procedures.
#
#######################################################################

data_AKOFIQ
_chemical_formula_moiety         'C24 H26 N2 O2,0.5(H2 O1)'
_chemical_name_systematic        
'(3R,4R)-2,5-Di-isopropyl-3,4-diphenyl-2,5-diazabicyclo(4.2.0)oct-1(6)-ene-7,8-dione hemihydrate'
_symmetry_cell_setting           monoclinic
_symmetry_space_group_name_H-M   'P 21'
_symmetry_Int_Tables_number      4
_space_group_name_Hall           'P 2yb'
loop_
_symmetry_equiv_pos_site_id
_symmetry_equiv_pos_as_xyz
1 x,y,z
2 -x,1/2+y,-z
_cell_length_a                   9.6536(12)
_cell_length_b                   16.123(2)
_cell_length_c                   13.6848(17)
_cell_angle_alpha                90
_cell_angle_beta                 97.426(2)
_cell_angle_gamma                90
_cell_volume                     2112.11
_exptl_crystal_description       block
_chemical_melting_point          232-234deg.C
_cell_formula_units_Z            4
loop_
_atom_site_label
_atom_site_type_symbol
_atom_site_fract_x
_atom_site_fract_y
_atom_site_fract_z
C1 C 0.3575(6) 0.7148(3) 0.5577(3)
H1 H 0.4126 0.6747 0.5927
C2 C 0.3366(7) 0.7903(3) 0.6031(4)
H2 H 0.3792 0.8008 0.6668
C3 C 0.2526(6) 0.8492(4) 0.5531(4)
H3 H 0.2360 0.8994 0.5830
C4 C 0.1925(6) 0.8329(4) 0.4569(4)
H4 H 0.1374 0.8728 0.4215
C5 C 0.2147(5) 0.7582(3) 0.4148(3)
H5 H 0.1714 0.7474 0.3513
C6 C 0.2994(4) 0.6980(3) 0.4633(3)
C7 C 0.3240(4) 0.6183(3) 0.4106(3)
H6 H 0.2411 0.6089 0.3625
C8 C 0.4497(4) 0.6242(2) 0.3518(3)
H7 H 0.4452 0.6792 0.3211
C9 C 0.4457(4) 0.5615(3) 0.2688(3)
C10 C 0.4285(5) 0.5908(3) 0.1712(3)
H8 H 0.4236 0.6475 0.1589
C11 C 0.4187(6) 0.5358(4) 0.0942(3)
H9 H 0.4094 0.5556 0.0298
C12 C 0.4227(6) 0.4516(4) 0.1114(4)
H10 H 0.4133 0.4147 0.0587
C13 C 0.4404(6) 0.4223(3) 0.2054(4)
H11 H 0.4444 0.3654 0.2169
C14 C 0.4525(6) 0.4775(3) 0.2846(3)
H12 H 0.4652 0.4572 0.3487
C15 C 0.2067(7) 0.5064(4) 0.5019(4)
H13 H 0.1422 0.5533 0.4894
C16 C 0.1462(9) 0.4502(6) 0.4246(6)
H14 H 0.0721 0.4190 0.4476
H15 H 0.2169 0.4129 0.4077
H16 H 0.1096 0.4817 0.3675
C17 C 0.1958(11) 0.4930(8) 0.5973(7)
H17 H 0.1484 0.4465 0.6159
H18 H 0.2357 0.5301 0.6449
C18 C 0.5836(5) 0.5705(3) 0.4949(3)
C19 C 0.4637(5) 0.5315(2) 0.5212(3)
C20 C 0.5457(6) 0.4858(3) 0.6016(3)
C21 C 0.6746(6) 0.5296(3) 0.5777(3)
C22 C 0.7043(9) 0.6676(6) 0.3950(8)
H19 H 0.6852 0.6766 0.3237
C23 C 0.8350(9) 0.6212(5) 0.4089(8)
H20 H 0.8569 0.6023 0.3462
H21 H 0.8254 0.5743 0.4508
H22 H 0.9087 0.6564 0.4389
C24 C 0.7101(9) 0.7494(5) 0.4369(8)
H23 H 0.7835 0.7804 0.4128
H24 H 0.7281 0.7455 0.5074
H25 H 0.6224 0.7770 0.4185
N1 N 0.5843(3) 0.6208(2) 0.4196(2)
N2 N 0.3364(4) 0.5459(2) 0.4778(2)
O1 O 0.5257(6) 0.4336(2) 0.6631(3)
O2 O 0.7932(4) 0.5337(3) 0.6142(3)
C25 C 0.5928(4) 0.5817(3) 0.8509(3)
H26 H 0.5991 0.5365 0.8095
C26 C 0.4776(5) 0.6336(4) 0.8352(4)
H27 H 0.4085 0.6241 0.7825
C27 C 0.4654(5) 0.6999(4) 0.8985(4)
H28 H 0.3882 0.7347 0.8885
C28 C 0.5678(6) 0.7133(3) 0.9754(4)
H29 H 0.5591 0.7567 1.0190
C29 C 0.6842(5) 0.6628(3) 0.9888(3)
H30 H 0.7544 0.6738 1.0404
C30 C 0.6985(4) 0.5964(3) 0.9273(3)
C31 C 0.8274(4) 0.5407(3) 0.9365(3)
H31 H 0.7951 0.4833 0.9269
C32 C 0.9163(4) 0.5620(2) 0.8516(3)
H32 H 0.8525 0.5646 0.7899
C33 C 1.0223(4) 0.4929(2) 0.8413(3)
C34 C 1.1656(4) 0.5032(3) 0.8649(3)
H33 H 1.2005 0.5544 0.8877
C35 C 1.2574(5) 0.4386(4) 0.8551(4)
H34 H 1.3530 0.4465 0.8714
C36 C 1.2062(5) 0.3619(3) 0.8207(4)
H35 H 1.2668 0.3180 0.8140
C37 C 1.0664(6) 0.3523(3) 0.7972(4)
H36 H 1.0318 0.3011 0.7743
C38 C 0.9749(5) 0.4155(3) 0.8060(3)
H37 H 0.8797 0.4068 0.7883
C39 C 0.9071(7) 0.4846(5) 1.1096(4)
C40 C 0.7880(13) 0.4645(9) 1.1402(10)
H38 H 0.7038 0.4504 1.1619
C41 C 1.0375(10) 0.4376(6) 1.1260(8)
H39 H 1.0485 0.4059 1.0681
H40 H 1.0352 0.4008 1.1809
H41 H 1.1146 0.4753 1.1397
C42 C 1.0002(4) 0.6086(3) 1.0402(3)
C43 C 1.0862(5) 0.6608(3) 1.1131(3)
C44 C 1.1180(5) 0.7145(3) 1.0291(4)
C45 C 1.0268(4) 0.6597(3) 0.9631(3)
C46 C 0.9809(6) 0.7066(4) 0.7911(4)
H42 H 1.0355 0.7532 0.8216
C47 C 1.0567(9) 0.6772(6) 0.7097(5)
H43 H 1.0051 0.6329 0.6751
H44 H 1.1476 0.6576 0.7365
H45 H 1.0662 0.7221 0.6650
C48 C 0.8372(6) 0.7394(4) 0.7610(5)
H46 H 0.7983 0.7580 0.8183
H47 H 0.7795 0.6963 0.7291
H48 H 0.8413 0.7850 0.7164
N3 N 0.9800(4) 0.6438(2) 0.8685(2)
N4 N 0.9122(4) 0.5456(2) 1.0321(2)
O3 O 1.1171(4) 0.6606(3) 1.2029(2)
O4 O 1.1864(4) 0.7777(3) 1.0216(3)
H49 H 0.637(7) 0.294(5) 0.873(5)
H50 H 0.516(6) 0.334(4) 0.771(3)
O5 O 0.5736(6) 0.3239(5) 0.8305(6)
loop_
_geom_bond_atom_site_label_1
_geom_bond_atom_site_label_2
_geom_bond_site_symmetry_1
_geom_bond_site_symmetry_2
C1 H1 1_555 1_555
C2 C1 1_555 1_555
H2 C2 1_555 1_555
C3 C2 1_555 1_555
H3 C3 1_555 1_555
C4 C3 1_555 1_555
H4 C4 1_555 1_555
C5 C4 1_555 1_555
H5 C5 1_555 1_555
C6 C1 1_555 1_555
C7 C6 1_555 1_555
H6 C7 1_555 1_555
C8 C7 1_555 1_555
H7 C8 1_555 1_555
C9 C8 1_555 1_555
C10 C9 1_555 1_555
H8 C10 1_555 1_555
C11 C10 1_555 1_555
H9 C11 1_555 1_555
C12 C11 1_555 1_555
H10 C12 1_555 1_555
C13 C12 1_555 1_555
H11 C13 1_555 1_555
C14 C9 1_555 1_555
H12 C14 1_555 1_555
C15 H13 1_555 1_555
C16 C15 1_555 1_555
H14 C16 1_555 1_555
H15 C16 1_555 1_555
H16 C16 1_555 1_555
C17 C15 1_555 1_555
H17 C17 1_555 1_555
H18 C17 1_555 1_555
C18 C19 1_555 1_555
C19 C20 1_555 1_555
C20 C21 1_555 1_555
C21 C18 1_555 1_555
C22 H19 1_555 1_555
C23 C22 1_555 1_555
H20 C23 1_555 1_555
H21 C23 1_555 1_555
H22 C23 1_555 1_555
C24 C22 1_555 1_555
H23 C24 1_555 1_555
H24 C24 1_555 1_555
H25 C24 1_555 1_555
N1 C8 1_555 1_555
N2 C7 1_555 1_555
O1 C20 1_555 1_555
O2 C21 1_555 1_555
C25 H26 1_555 1_555
C26 C25 1_555 1_555
H27 C26 1_555 1_555
C27 C26 1_555 1_555
H28 C27 1_555 1_555
C28 C27 1_555 1_555
H29 C28 1_555 1_555
C29 C28 1_555 1_555
H30 C29 1_555 1_555
C30 C25 1_555 1_555
C31 C30 1_555 1_555
H31 C31 1_555 1_555
C32 C31 1_555 1_555
H32 C32 1_555 1_555
C33 C32 1_555 1_555
C34 C33 1_555 1_555
H33 C34 1_555 1_555
C35 C34 1_555 1_555
H34 C35 1_555 1_555
C36 C35 1_555 1_555
H35 C36 1_555 1_555
C37 C36 1_555 1_555
H36 C37 1_555 1_555
C38 C33 1_555 1_555
H37 C38 1_555 1_555
C39 C40 1_555 1_555
C40 H38 1_555 1_555
C41 C39 1_555 1_555
H39 C41 1_555 1_555
H40 C41 1_555 1_555
H41 C41 1_555 1_555
C42 C43 1_555 1_555
C43 C44 1_555 1_555
C44 C45 1_555 1_555
C45 C42 1_555 1_555
C46 H42 1_555 1_555
C47 C46 1_555 1_555
H43 C47 1_555 1_555
H44 C47 1_555 1_555
H45 C47 1_555 1_555
C48 C46 1_555 1_555
H46 C48 1_555 1_555
H47 C48 1_555 1_555
H48 C48 1_555 1_555
N3 C32 1_555 1_555
N4 C31 1_555 1_555
O3 C43 1_555 1_555
O4 C44 1_555 1_555
H49 O5 1_555 1_555
H50 O5 1_555 1_555
C5 C6 1_555 1_555
C13 C14 1_555 1_555
C15 N2 1_555 1_555
C18 N1 1_555 1_555
C19 N2 1_555 1_555
C22 N1 1_555 1_555
C29 C30 1_555 1_555
C37 C38 1_555 1_555
C39 N4 1_555 1_555
C42 N4 1_555 1_555
C45 N3 1_555 1_555
C46 N3 1_555 1_555

#END
