
#######################################################################
#
#                 Cambridge Crystallographic Data Centre
#                                CCDC 
#
#######################################################################
#
# If this CIF has been generated from an entry in the Cambridge 
# Structural Database, then it will include bibliographic, chemical, 
# crystal, experimental, refinement or atomic coordinate data resulting 
# from the CCDC's data processing and validation procedures.
#
#######################################################################

data_AKOFOW
_chemical_formula_moiety         'C28 H34 N2 O2'
_chemical_name_systematic        
(3R,4R)-2,5-Di-n-pentyl-3,4-diphenyl-2,5-diazabicyclo(4.3.0)oct-1(6)-ene-7,8-dione
_symmetry_cell_setting           orthorhombic
_symmetry_space_group_name_H-M   'P 21 21 21'
_symmetry_Int_Tables_number      19
_space_group_name_Hall           'P 2ac 2ab'
loop_
_symmetry_equiv_pos_site_id
_symmetry_equiv_pos_as_xyz
1 x,y,z
2 1/2-x,-y,1/2+z
3 -x,1/2+y,1/2-z
4 1/2+x,1/2-y,-z
_cell_length_a                   8.7372(8)
_cell_length_b                   16.3550(16)
_cell_length_c                   17.5772(17)
_cell_angle_alpha                90
_cell_angle_beta                 90
_cell_angle_gamma                90
_cell_volume                     2511.73
_exptl_crystal_description       block
_chemical_melting_point          109-111deg.C
_cell_formula_units_Z            4
loop_
_atom_site_label
_atom_site_type_symbol
_atom_site_fract_x
_atom_site_fract_y
_atom_site_fract_z
C1 C 1.0722(4) 0.5580(2) 0.7702(2)
C2 C 1.1653(6) 0.4828(3) 0.7716(3)
C3 C 1.0463(5) 0.4463(3) 0.7171(3)
C4 C 0.9656(5) 0.5238(2) 0.7216(2)
C5 C 0.8444(4) 0.65270(19) 0.70802(19)
H1 H 0.7375 0.6709 0.7095
C6 C 0.9167(4) 0.6746(2) 0.78632(18)
H2 H 0.9385 0.7334 0.7848
C7 C 0.9209(4) 0.6979(2) 0.64318(19)
C8 C 1.0178(5) 0.6607(3) 0.5929(2)
H3 H 1.0369 0.6050 0.5976
C9 C 1.0882(6) 0.7041(4) 0.5352(3)
H4 H 1.1512 0.6776 0.5004
C10 C 1.0636(7) 0.7871(4) 0.5300(3)
H5 H 1.1133 0.8175 0.4927
C11 C 0.9663(6) 0.8249(3) 0.5796(3)
H6 H 0.9482 0.8807 0.5751
C12 C 0.8947(5) 0.7811(2) 0.6361(2)
H7 H 0.8285 0.8073 0.6696
C13 C 0.8095(5) 0.6617(2) 0.8521(2)
C14 C 0.7538(6) 0.7276(3) 0.8910(2)
H8 H 0.7838 0.7799 0.8768
C15 C 0.6533(7) 0.7177(4) 0.9513(3)
H9 H 0.6162 0.7636 0.9765
C16 C 0.6078(7) 0.6419(4) 0.9742(3)
H10 H 0.5421 0.6358 1.0154
C17 C 0.6594(7) 0.5763(4) 0.9362(3)
H11 H 0.6270 0.5244 0.9505
C18 C 0.7609(6) 0.5849(3) 0.8757(3)
H12 H 0.7967 0.5386 0.8507
C19 C 0.7368(7) 0.5278(3) 0.6398(3)
H13 H 0.7680 0.5160 0.5904
C20 C 0.5914(8) 0.5130(6) 0.6636(5)
H14 H 0.5429 0.5649 0.6752
H15 H 0.5960 0.4817 0.7104
C21 C 0.4895(9) 0.4663(7) 0.6060(6)
H16 H 0.5054 0.4118 0.5931
C22 C 0.3784(11) 0.5108(4) 0.5770(4)
H17 H 0.3688 0.5657 0.5899
C23 C 0.2662(8) 0.4713(4) 0.5224(3)
H18 H 0.2067 0.4311 0.5491
H19 H 0.3214 0.4454 0.4818
H20 H 0.1994 0.5123 0.5018
C24 C 1.1818(5) 0.6690(3) 0.8466(2)
H21 H 1.1323 0.6896 0.8921
H22 H 1.2518 0.6261 0.8620
C25 C 1.2706(9) 0.7355(5) 0.8123(5)
H23 H 1.2741 0.7862 0.8362
C26 C 1.3480(9) 0.7240(6) 0.7461(4)
H24 H 1.2723 0.7077 0.7087
H25 H 1.4136 0.6770 0.7541
C27 C 1.4478(8) 0.7893(5) 0.7075(5)
H26 H 1.5037 0.8174 0.7474
H27 H 1.5229 0.7608 0.6767
C28 C 1.3815(10) 0.8484(5) 0.6620(6)
H28 H 1.3189 0.8226 0.6241
H29 H 1.4601 0.8799 0.6376
H30 H 1.3192 0.8837 0.6927
N1 N 0.8424(4) 0.56328(17) 0.69615(17)
N2 N 1.0654(3) 0.63339(18) 0.79751(17)
O1 O 1.2821(4) 0.4605(2) 0.8010(2)
O2 O 1.0292(4) 0.38111(17) 0.68434(19)
loop_
_geom_bond_atom_site_label_1
_geom_bond_atom_site_label_2
_geom_bond_site_symmetry_1
_geom_bond_site_symmetry_2
C1 C2 1_555 1_555
C2 C3 1_555 1_555
C3 C4 1_555 1_555
C4 C1 1_555 1_555
C5 H1 1_555 1_555
C6 C5 1_555 1_555
H2 C6 1_555 1_555
C7 C5 1_555 1_555
C8 C7 1_555 1_555
H3 C8 1_555 1_555
C9 C8 1_555 1_555
H4 C9 1_555 1_555
C10 C9 1_555 1_555
H5 C10 1_555 1_555
C11 C10 1_555 1_555
H6 C11 1_555 1_555
C12 C7 1_555 1_555
H7 C12 1_555 1_555
C13 C6 1_555 1_555
C14 C13 1_555 1_555
H8 C14 1_555 1_555
C15 C14 1_555 1_555
H9 C15 1_555 1_555
C16 C15 1_555 1_555
H10 C16 1_555 1_555
C17 C16 1_555 1_555
H11 C17 1_555 1_555
C18 C13 1_555 1_555
H12 C18 1_555 1_555
C19 H13 1_555 1_555
C20 C19 1_555 1_555
H14 C20 1_555 1_555
H15 C20 1_555 1_555
C21 C20 1_555 1_555
H16 C21 1_555 1_555
C22 C21 1_555 1_555
H17 C22 1_555 1_555
C23 C22 1_555 1_555
H18 C23 1_555 1_555
H19 C23 1_555 1_555
H20 C23 1_555 1_555
C24 H21 1_555 1_555
H22 C24 1_555 1_555
C25 C24 1_555 1_555
H23 C25 1_555 1_555
C26 C25 1_555 1_555
H24 C26 1_555 1_555
H25 C26 1_555 1_555
C27 C26 1_555 1_555
H26 C27 1_555 1_555
H27 C27 1_555 1_555
C28 C27 1_555 1_555
H28 C28 1_555 1_555
H29 C28 1_555 1_555
H30 C28 1_555 1_555
N1 C4 1_555 1_555
N2 C1 1_555 1_555
O1 C2 1_555 1_555
O2 C3 1_555 1_555
C5 N1 1_555 1_555
C6 N2 1_555 1_555
C11 C12 1_555 1_555
C17 C18 1_555 1_555
C19 N1 1_555 1_555
C24 N2 1_555 1_555

#END
