
#######################################################################
#
#                 Cambridge Crystallographic Data Centre
#                                CCDC 
#
#######################################################################
#
# If this CIF has been generated from an entry in the Cambridge 
# Structural Database, then it will include bibliographic, chemical, 
# crystal, experimental, refinement or atomic coordinate data resulting 
# from the CCDC's data processing and validation procedures.
#
#######################################################################

data_AKOGAK
_chemical_formula_moiety         'C19 H20 N2 O2'
_chemical_name_systematic        
6-Isopropyl-3-(2-nitro-1-phenylethyl)-1H-indole
_symmetry_cell_setting           monoclinic
_symmetry_space_group_name_H-M   'P 21'
_symmetry_Int_Tables_number      4
_space_group_name_Hall           'P 2yb'
loop_
_symmetry_equiv_pos_site_id
_symmetry_equiv_pos_as_xyz
1 x,y,z
2 -x,1/2+y,-z
_cell_length_a                   12.4525(9)
_cell_length_b                   5.7360(4)
_cell_length_c                   12.5896(9)
_cell_angle_alpha                90
_cell_angle_beta                 116.081(6)
_cell_angle_gamma                90
_cell_volume                     807.677
_exptl_crystal_colour            'light red'
_exptl_crystal_description       blade
_cell_formula_units_Z            2
loop_
_atom_site_label
_atom_site_type_symbol
_atom_site_fract_x
_atom_site_fract_y
_atom_site_fract_z
C1 C 0.5003(5) 0.1427(9) 0.3881(4)
C2 C 0.3850(5) 0.0617(12) 0.3609(4)
H1 H 0.3737 -0.0752 0.3972
C3 C 0.2883(5) 0.1850(11) 0.2804(5)
C4 C 0.3092(5) 0.3871(10) 0.2291(4)
H2 H 0.2422 0.4726 0.1747
C5 C 0.4222(5) 0.4675(10) 0.2538(4)
H3 H 0.4329 0.6061 0.2183
C6 C 0.5208(5) 0.3389(10) 0.3329(4)
C7 C 0.6491(5) 0.3646(10) 0.3796(4)
C8 C 0.6977(5) 0.1894(10) 0.4586(5)
H4 H 0.7811 0.1642 0.5038
C9 C 0.7126(5) 0.5512(11) 0.3434(4)
H5 H 0.6848 0.7063 0.3577
C10 C 0.8468(5) 0.5371(11) 0.4194(4)
H6 H 0.8643 0.5484 0.5040
H7 H 0.8771 0.3851 0.4067
C11 C 0.6842(4) 0.5377(10) 0.2123(4)
C12 C 0.7189(5) 0.3446(10) 0.1683(4)
H8 H 0.7558 0.2160 0.2187
C13 C 0.6998(5) 0.3383(11) 0.0510(5)
H9 H 0.7245 0.2066 0.0216
C14 C 0.6451(5) 0.5229(11) -0.0224(5)
H10 H 0.6323 0.5190 -0.1025
C15 C 0.6086(5) 0.7141(11) 0.0200(5)
H11 H 0.5692 0.8400 -0.0315
C16 C 0.6298(5) 0.7225(11) 0.1384(5)
H12 H 0.6065 0.8558 0.1680
C17 C 0.1618(5) 0.0955(10) 0.2462(5)
H13 H 0.1681 -0.0383 0.2995
C18 C 0.1043(5) 0.0033(12) 0.1182(5)
H14 H 0.1532 -0.1237 0.1106
H15 H 0.0994 0.1298 0.0639
H16 H 0.0238 -0.0547 0.0986
C19 C 0.0831(6) 0.2786(12) 0.2629(6)
H17 H 0.0047 0.2109 0.2449
H18 H 0.0732 0.4100 0.2096
H19 H 0.1205 0.3334 0.3450
N1 N 0.6094(4) 0.0531(9) 0.4643(4)
N2 N 0.9084(4) 0.7309(9) 0.3883(4)
H20 H 0.625(5) -0.056(11) 0.514(5)
O1 O 0.9829(4) 0.6817(8) 0.3538(4)
O2 O 0.8825(4) 0.9308(7) 0.4015(4)
loop_
_geom_bond_atom_site_label_1
_geom_bond_atom_site_label_2
_geom_bond_site_symmetry_1
_geom_bond_site_symmetry_2
C1 C2 1_555 1_555
C2 H1 1_555 1_555
C3 C2 1_555 1_555
C4 C3 1_555 1_555
H2 C4 1_555 1_555
C5 C4 1_555 1_555
H3 C5 1_555 1_555
C6 C1 1_555 1_555
C7 C6 1_555 1_555
C8 C7 1_555 1_555
H4 C8 1_555 1_555
C9 C7 1_555 1_555
H5 C9 1_555 1_555
C10 C9 1_555 1_555
H6 C10 1_555 1_555
H7 C10 1_555 1_555
C11 C9 1_555 1_555
C12 C11 1_555 1_555
H8 C12 1_555 1_555
C13 C12 1_555 1_555
H9 C13 1_555 1_555
C14 C13 1_555 1_555
H10 C14 1_555 1_555
C15 C14 1_555 1_555
H11 C15 1_555 1_555
C16 C11 1_555 1_555
H12 C16 1_555 1_555
C17 C3 1_555 1_555
H13 C17 1_555 1_555
C18 C17 1_555 1_555
H14 C18 1_555 1_555
H15 C18 1_555 1_555
H16 C18 1_555 1_555
C19 C17 1_555 1_555
H17 C19 1_555 1_555
H18 C19 1_555 1_555
H19 C19 1_555 1_555
N1 C1 1_555 1_555
N2 C10 1_555 1_555
H20 N1 1_555 1_555
O1 N2 1_555 1_555
O2 N2 1_555 1_555
C5 C6 1_555 1_555
C8 N1 1_555 1_555
C15 C16 1_555 1_555

#END
