
#######################################################################
#
#                 Cambridge Crystallographic Data Centre
#                                CCDC 
#
#######################################################################
#
# If this CIF has been generated from an entry in the Cambridge 
# Structural Database, then it will include bibliographic, chemical, 
# crystal, experimental, refinement or atomic coordinate data resulting 
# from the CCDC's data processing and validation procedures.
#
#######################################################################

data_AKOGOY01
_chemical_formula_moiety         'C14 H16 N1 1+,C2 Cl3 O2 1-'
_chemical_name_systematic        'Dibenzylammonium trichloroacetate'
_symmetry_cell_setting           orthorhombic
_symmetry_space_group_name_H-M   'P n m a'
_symmetry_Int_Tables_number      62
_space_group_name_Hall           '-P 2ac 2n'
loop_
_symmetry_equiv_pos_site_id
_symmetry_equiv_pos_as_xyz
1 x,y,z
2 1/2-x,-y,1/2+z
3 1/2+x,1/2-y,1/2-z
4 -x,1/2+y,-z
5 -x,-y,-z
6 1/2+x,y,1/2-z
7 1/2-x,1/2+y,1/2+z
8 x,1/2-y,z
_cell_length_a                   28.2714(3)
_cell_length_b                   17.9408(2)
_cell_length_c                   10.24460(10)
_cell_angle_alpha                90
_cell_angle_beta                 90
_cell_angle_gamma                90
_cell_volume                     5196.18
_exptl_crystal_colour            colorless
_exptl_crystal_description       prism
_cell_formula_units_Z            12
loop_
_atom_site_label
_atom_site_type_symbol
_atom_site_fract_x
_atom_site_fract_y
_atom_site_fract_z
Cl1 Cl 0.27945(5) 0.2500 -0.18996(14)
Cl2 Cl 0.36526(6) 0.32909(9) -0.15112(16)
O1 O 0.36524(11) 0.2500 0.1069(3)
O2 O 0.28753(12) 0.2500 0.0910(4)
C1 C 0.32771(14) 0.2500 0.0471(4)
C2 C 0.33371(16) 0.2500 -0.1044(4)
Cl2G Cl 0.36526(6) 0.17091(9) -0.15112(16)
Cl3 Cl 0.31407(5) 0.67068(7) 1.10086(14)
Cl4 Cl 0.39994(6) 0.7500 1.14760(16)
O3 O 0.39475(14) 0.7500 0.8634(4)
O4 O 0.31775(14) 0.7500 0.8438(4)
C3 C 0.35544(17) 0.7500 0.9055(5)
C4 C 0.34703(15) 0.7500 1.0556(4)
Cl3G Cl 0.31407(5) 0.82932(7) 1.10086(14)
Cl5 Cl 0.50943(11) 0.32878(11) -0.3687(3)
Cl6 Cl 0.54933(7) 0.2500 -0.5808(3)
O5 O 0.45454(12) 0.2500 -0.6529(3)
O6 O 0.41924(13) 0.2500 -0.4635(4)
C5 C 0.50232(18) 0.2500 -0.4609(6)
C6 C 0.45389(15) 0.2500 -0.5367(4)
Cl5G Cl 0.50943(11) 0.17122(11) -0.3687(3)
N1 N 0.49581(13) 0.7500 0.8863(4)
H1 H 0.5025 0.7500 0.8004
H2 H 0.4641 0.7500 0.8949
C7 C 0.49262(12) 0.6122(2) 0.8925(3)
C8 C 0.51514(14) 0.6801(2) 0.9459(4)
H3 H 0.5489 0.6778 0.9302
H4 H 0.5102 0.6817 1.0396
C9 C 0.50727(15) 0.5824(2) 0.7749(4)
H5 H 0.5319 0.6049 0.7295
C10 C 0.43596(16) 0.5124(3) 0.9081(5)
H6 H 0.4121 0.4883 0.9543
C11 C 0.45647(15) 0.5757(3) 0.9587(4)
H7 H 0.4460 0.5942 1.0384
C12 C 0.45016(17) 0.4850(3) 0.7913(5)
H8 H 0.4357 0.4428 0.7568
C13 C 0.48603(18) 0.5199(3) 0.7240(5)
H9 H 0.4959 0.5011 0.6438
C7G C 0.49262(12) 0.8878(2) 0.8925(3)
C8G C 0.51514(14) 0.8199(2) 0.9459(4)
H3G H 0.5489 0.8222 0.9302
H4G H 0.5102 0.8183 1.0396
C9G C 0.50727(15) 0.9176(2) 0.7749(4)
H5G H 0.5319 0.8951 0.7295
C10G C 0.43596(16) 0.9876(3) 0.9081(5)
H6G H 0.4121 1.0117 0.9543
C11G C 0.45647(15) 0.9243(3) 0.9587(4)
H7G H 0.4460 0.9058 1.0384
C12G C 0.45016(17) 1.0150(3) 0.7913(5)
H8G H 0.4357 1.0572 0.7568
C13G C 0.48603(18) 0.9801(3) 0.7240(5)
H9G H 0.4959 0.9989 0.6438
N2 N 0.34197(13) 0.2500 0.3741(4)
H10 H 0.3696 0.2500 0.4175
H11 H 0.3484 0.2500 0.2880
C14 C 0.34129(13) 0.3884(2) 0.3721(4)
C15 C 0.31504(14) 0.3189(2) 0.4076(4)
H12 H 0.3086 0.3192 0.5006
H13 H 0.2850 0.3182 0.3621
C16 C 0.37220(14) 0.4231(3) 0.4583(4)
H14 H 0.3782 0.4015 0.5391
C17 C 0.33344(17) 0.4219(2) 0.2534(4)
H15 H 0.3128 0.3998 0.1943
C18 C 0.39402(16) 0.4891(3) 0.4257(5)
H16 H 0.4146 0.5117 0.4846
C19 C 0.38578(17) 0.5215(3) 0.3082(5)
H17 H 0.4003 0.5664 0.2865
C20 C 0.35546(19) 0.4869(3) 0.2209(5)
H18 H 0.3501 0.5081 0.1395
C14G C 0.34129(13) 0.1116(2) 0.3721(4)
C15G C 0.31504(14) 0.1811(2) 0.4076(4)
H12G H 0.3086 0.1808 0.5006
H13G H 0.2850 0.1818 0.3621
C16G C 0.37220(14) 0.0769(3) 0.4583(4)
H14G H 0.3782 0.0985 0.5391
C17G C 0.33344(17) 0.0781(2) 0.2534(4)
H15G H 0.3128 0.1002 0.1943
C18G C 0.39402(16) 0.0109(3) 0.4257(5)
H16G H 0.4146 -0.0117 0.4846
C19G C 0.38578(17) -0.0215(3) 0.3082(5)
H17G H 0.4003 -0.0664 0.2865
C20G C 0.35546(19) 0.0131(3) 0.2209(5)
H18G H 0.3501 -0.0081 0.1395
N3 N 0.19074(13) 0.2500 0.0808(4)
H19 H 0.2224 0.2500 0.0712
H20 H 0.1843 0.2500 0.1668
C21 C 0.18897(12) 0.1106(2) 0.0782(4)
C22 C 0.23732(15) 0.0014(3) 0.0579(5)
H21 H 0.2592 -0.0263 0.0106
C23 C 0.22198(13) 0.0688(2) 0.0107(4)
H22 H 0.2340 0.0866 -0.0679
C24 C 0.17061(14) 0.1811(2) 0.0198(4)
H23 H 0.1365 0.1820 0.0288
H24 H 0.1779 0.1814 -0.0728
C25 C 0.17211(16) 0.0831(2) 0.1957(4)
H25 H 0.1498 0.1101 0.2430
C26 C 0.22081(17) -0.0250(3) 0.1730(5)
H26 H 0.2313 -0.0705 0.2052
C27 C 0.18810(15) 0.0168(2) 0.2419(4)
H27 H 0.1769 -0.0008 0.3214
C21G C 0.18897(12) 0.3894(2) 0.0782(4)
C22G C 0.23732(15) 0.4986(3) 0.0579(5)
H21G H 0.2592 0.5263 0.0106
C23G C 0.22198(13) 0.4312(2) 0.0107(4)
H22G H 0.2340 0.4134 -0.0679
C24G C 0.17061(14) 0.3189(2) 0.0198(4)
H23G H 0.1365 0.3180 0.0288
H24G H 0.1779 0.3186 -0.0728
C25G C 0.17211(16) 0.4169(2) 0.1957(4)
H25G H 0.1498 0.3899 0.2430
C26G C 0.22081(17) 0.5250(3) 0.1730(5)
H26G H 0.2313 0.5705 0.2052
C27G C 0.18810(15) 0.4832(2) 0.2419(4)
H27G H 0.1769 0.5008 0.3214
Cl7? Cl 0.48705(15) 0.2500(2) -0.2810(4)
Cl8? Cl 0.53763(15) 0.1767(2) -0.5046(4)
loop_
_geom_bond_atom_site_label_1
_geom_bond_atom_site_label_2
_geom_bond_site_symmetry_1
_geom_bond_site_symmetry_2
Cl1 C2 1_555 1_555
Cl2 C2 1_555 1_555
O1 C1 1_555 1_555
O2 C1 1_555 1_555
C1 C2 1_555 1_555
C2 Cl2G 1_555 1_555
Cl3 C4 1_555 1_555
Cl4 C4 1_555 1_555
O3 C3 1_555 1_555
O4 C3 1_555 1_555
C3 C4 1_555 1_555
C4 Cl3G 1_555 1_555
Cl5 C5 1_555 1_555
Cl6 C5 1_555 1_555
O5 C6 1_555 1_555
O6 C6 1_555 1_555
C5 C6 1_555 1_555
N1 H1 1_555 1_555
H2 N1 1_555 1_555
C7 C8 1_555 1_555
C8 N1 1_555 1_555
H3 C8 1_555 1_555
H4 C8 1_555 1_555
C9 C7 1_555 1_555
H5 C9 1_555 1_555
C10 H6 1_555 1_555
C11 C7 1_555 1_555
H7 C11 1_555 1_555
C12 C10 1_555 1_555
H8 C12 1_555 1_555
C13 C9 1_555 1_555
H9 C13 1_555 1_555
N2 H10 1_555 1_555
H11 N2 1_555 1_555
C14 C15 1_555 1_555
C15 N2 1_555 1_555
H12 C15 1_555 1_555
H13 C15 1_555 1_555
C16 C14 1_555 1_555
H14 C16 1_555 1_555
C17 C14 1_555 1_555
H15 C17 1_555 1_555
C18 C16 1_555 1_555
H16 C18 1_555 1_555
C19 C18 1_555 1_555
H17 C19 1_555 1_555
C20 C17 1_555 1_555
H18 C20 1_555 1_555
N3 H19 1_555 1_555
H20 N3 1_555 1_555
C21 C23 1_555 1_555
C22 H21 1_555 1_555
C23 C22 1_555 1_555
H22 C23 1_555 1_555
C24 N3 1_555 1_555
H23 C24 1_555 1_555
H24 C24 1_555 1_555
C25 C21 1_555 1_555
H25 C25 1_555 1_555
C26 C22 1_555 1_555
H26 C26 1_555 1_555
C27 C25 1_555 1_555
H27 C27 1_555 1_555
Cl5G C5 1_555 1_555
C7G C8G 1_555 1_555
C8G N1 1_555 1_555
H3G C8G 1_555 1_555
H4G C8G 1_555 1_555
C9G C7G 1_555 1_555
H5G C9G 1_555 1_555
C10G H6G 1_555 1_555
C11G C7G 1_555 1_555
H7G C11G 1_555 1_555
C12G C10G 1_555 1_555
H8G C12G 1_555 1_555
C13G C9G 1_555 1_555
H9G C13G 1_555 1_555
C14G C15G 1_555 1_555
C15G N2 1_555 1_555
H12G C15G 1_555 1_555
H13G C15G 1_555 1_555
C16G C14G 1_555 1_555
H14G C16G 1_555 1_555
C17G C14G 1_555 1_555
H15G C17G 1_555 1_555
C18G C16G 1_555 1_555
H16G C18G 1_555 1_555
C19G C18G 1_555 1_555
H17G C19G 1_555 1_555
C20G C17G 1_555 1_555
H18G C20G 1_555 1_555
C21G C23G 1_555 1_555
C22G H21G 1_555 1_555
C23G C22G 1_555 1_555
H22G C23G 1_555 1_555
C24G N3 1_555 1_555
H23G C24G 1_555 1_555
H24G C24G 1_555 1_555
C25G C21G 1_555 1_555
H25G C25G 1_555 1_555
C26G C22G 1_555 1_555
H26G C26G 1_555 1_555
C27G C25G 1_555 1_555
H27G C27G 1_555 1_555
C10 C11 1_555 1_555
C12 C13 1_555 1_555
C19 C20 1_555 1_555
C21 C24 1_555 1_555
C26 C27 1_555 1_555
C10G C11G 1_555 1_555
C12G C13G 1_555 1_555
C19G C20G 1_555 1_555
C21G C24G 1_555 1_555
C26G C27G 1_555 1_555

#END
