
#######################################################################
#
#                 Cambridge Crystallographic Data Centre
#                                CCDC 
#
#######################################################################
#
# If this CIF has been generated from an entry in the Cambridge 
# Structural Database, then it will include bibliographic, chemical, 
# crystal, experimental, refinement or atomic coordinate data resulting 
# from the CCDC's data processing and validation procedures.
#
#######################################################################

data_AKOLIX
_chemical_formula_moiety         'C31 H27 N5 S1,H2 O1'
_chemical_name_systematic        
'2-(10-Hexyl-10H-phenothiazin-3-yl)-1H-imidazo[4,5-f][1,10]phenanthroline monohydrate'
_symmetry_cell_setting           monoclinic
_symmetry_space_group_name_H-M   'P 21/c'
_symmetry_Int_Tables_number      14
_space_group_name_Hall           '-P 2ybc'
loop_
_symmetry_equiv_pos_site_id
_symmetry_equiv_pos_as_xyz
1 x,y,z
2 -x,1/2+y,1/2-z
3 -x,-y,-z
4 x,1/2-y,1/2+z
_cell_length_a                   12.507(5)
_cell_length_b                   16.431(5)
_cell_length_c                   13.315(5)
_cell_angle_alpha                90
_cell_angle_beta                 108.610(5)
_cell_angle_gamma                90
_cell_volume                     2593.19
_exptl_crystal_description       block
_cell_formula_units_Z            4
loop_
_atom_site_label
_atom_site_type_symbol
_atom_site_fract_x
_atom_site_fract_y
_atom_site_fract_z
S1 S 0.89414(7) 0.11981(5) 0.96529(6)
N1 N 0.67939(17) 0.07585(13) 0.46103(16)
H1 H 0.6903 0.1201 0.4311
N2 N 0.69218(19) -0.01679(13) 0.58747(17)
N3 N 1.0060(2) 0.25700(14) 0.89366(19)
N4 N 0.4214(2) -0.09557(15) 0.18114(19)
C1 C 0.5622(2) -0.12056(15) 0.4700(2)
C2 C 0.4957(2) -0.13636(15) 0.3644(2)
N5 N 0.4347(2) -0.20599(14) 0.33783(19)
C3 C 0.4874(2) -0.07681(16) 0.2808(2)
C4 C 0.5453(2) -0.00137(16) 0.3057(2)
C5 C 0.7245(2) 0.05639(16) 0.5661(2)
C6 C 0.7988(2) 0.10985(15) 0.6462(2)
C7 C 1.0771(2) 0.21682(17) 0.9839(2)
C8 C 0.6229(2) -0.04490(16) 0.4916(2)
C9 C 0.8831(2) 0.14025(15) 0.8321(2)
C10 C 0.8160(2) 0.09191(16) 0.7524(2)
H2 H 0.7816 0.0463 0.7699
C11 C 0.9382(2) 0.20887(16) 0.8090(2)
C12 C 0.6134(2) 0.01116(15) 0.4127(2)
C13 C 1.0360(2) 0.14911(17) 1.0241(2)
C14 C 0.9225(3) 0.22524(18) 0.7030(2)
H3 H 0.9592 0.2695 0.6853
C15 C 0.5304(3) 0.05518(18) 0.2238(2)
H4 H 0.5662 0.1055 0.2374
C16 C 0.8537(2) 0.17731(17) 0.6234(2)
H5 H 0.8439 0.1904 0.5531
C17 C 0.5632(3) -0.17766(17) 0.5482(2)
H6 H 0.6073 -0.1692 0.6182
C18 C 0.4982(3) -0.24632(17) 0.5203(3)
H7 H 0.4958 -0.2845 0.5711
C19 C 1.0349(3) 0.34027(18) 0.8724(3)
H8 H 1.0698 0.3390 0.8170
H9 H 1.0896 0.3621 0.9358
C20 C 1.1040(3) 0.10744(19) 1.1109(2)
H10 H 1.0762 0.0612 1.1344
C21 C 0.4632(3) 0.0362(2) 0.1240(2)
H11 H 0.4523 0.0731 0.0687
C22 C 0.4114(3) -0.0398(2) 0.1069(2)
H12 H 0.3665 -0.0523 0.0383
C23 C 0.4361(3) -0.25756(17) 0.4147(3)
H13 H 0.3925 -0.3044 0.3965
C24 C 1.2537(3) 0.2002(2) 1.1257(3)
H14 H 1.3266 0.2183 1.1605
C25 C 1.1877(3) 0.2413(2) 1.0363(3)
H15 H 1.2176 0.2857 1.0110
C26 C 1.2126(3) 0.1328(2) 1.1635(3)
H16 H 1.2571 0.1052 1.2232
C27 C 0.7336(5) 0.6215(4) 0.6674(5)
H17 H 0.7723 0.6713 0.6946
H18 H 0.6739 0.6131 0.6971
H19 H 0.7024 0.6249 0.5916
C28 C 0.9656(5) 0.4828(2) 0.8397(5)
H20 H 1.0116 0.4889 0.7937
H21 H 1.0125 0.4964 0.9110
C29 C 0.9322(4) 0.3965(2) 0.8383(4)
H22 H 0.8852 0.3820 0.7673
H23 H 0.8880 0.3891 0.8856
C30 C 0.8705(5) 0.5433(4) 0.8058(5)
H24 H 0.8147 0.5283 0.8391
H25 H 0.8999 0.5963 0.8332
C31 C 0.8160(5) 0.5508(5) 0.6973(6)
H26 H 0.7756 0.5008 0.6713
H27 H 0.8724 0.5577 0.6621
O1 O 0.6961(2) 0.22250(15) 0.3557(2)
H28 H 0.652(4) 0.252(3) 0.300(4)
H29 H 0.743(5) 0.251(3) 0.384(4)
loop_
_geom_bond_atom_site_label_1
_geom_bond_atom_site_label_2
_geom_bond_site_symmetry_1
_geom_bond_site_symmetry_2
S1 C9 1_555 1_555
N1 H1 1_555 1_555
N2 C5 1_555 1_555
N3 C7 1_555 1_555
N4 C3 1_555 1_555
C1 C2 1_555 1_555
C2 N5 1_555 1_555
N5 C23 1_555 1_555
C3 C2 1_555 1_555
C4 C3 1_555 1_555
C5 N1 1_555 1_555
C6 C5 1_555 1_555
C7 C13 1_555 1_555
C8 N2 1_555 1_555
C9 C10 1_555 1_555
C10 C6 1_555 1_555
H2 C10 1_555 1_555
C11 N3 1_555 1_555
C12 N1 1_555 1_555
C13 S1 1_555 1_555
C14 C11 1_555 1_555
H3 C14 1_555 1_555
C15 C4 1_555 1_555
H4 C15 1_555 1_555
C16 C6 1_555 1_555
H5 C16 1_555 1_555
C17 C1 1_555 1_555
H6 C17 1_555 1_555
C18 C17 1_555 1_555
H7 C18 1_555 1_555
C19 N3 1_555 1_555
H8 C19 1_555 1_555
H9 C19 1_555 1_555
C20 C13 1_555 1_555
H10 C20 1_555 1_555
C21 C15 1_555 1_555
H11 C21 1_555 1_555
C22 N4 1_555 1_555
H12 C22 1_555 1_555
C23 C18 1_555 1_555
H13 C23 1_555 1_555
C24 H14 1_555 1_555
C25 C7 1_555 1_555
H15 C25 1_555 1_555
C26 C20 1_555 1_555
H16 C26 1_555 1_555
C27 H17 1_555 1_555
H18 C27 1_555 1_555
H19 C27 1_555 1_555
C28 H20 1_555 1_555
H21 C28 1_555 1_555
C29 C19 1_555 1_555
H22 C29 1_555 1_555
H23 C29 1_555 1_555
C30 C28 1_555 1_555
H24 C30 1_555 1_555
H25 C30 1_555 1_555
C31 C27 1_555 1_555
H26 C31 1_555 1_555
H27 C31 1_555 1_555
O1 H28 1_555 1_555
H29 O1 1_555 1_555
C1 C8 1_555 1_555
C4 C12 1_555 1_555
C8 C12 1_555 1_555
C9 C11 1_555 1_555
C14 C16 1_555 1_555
C21 C22 1_555 1_555
C24 C25 1_555 1_555
C24 C26 1_555 1_555
C28 C29 1_555 1_555
C30 C31 1_555 1_555

#END
