
#######################################################################
#
#                 Cambridge Crystallographic Data Centre
#                                CCDC 
#
#######################################################################
#
# If this CIF has been generated from an entry in the Cambridge 
# Structural Database, then it will include bibliographic, chemical, 
# crystal, experimental, refinement or atomic coordinate data resulting 
# from the CCDC's data processing and validation procedures.
#
#######################################################################

data_AKOLOD
_chemical_formula_moiety         'C23 H18 N2 O3 S2'
_chemical_name_systematic        
5-((4-Methylphenyl)sulfonyl)-5,6-dihydroindolo[3,2-c][2,5]benzothiazocin-7(12H)-one
_symmetry_cell_setting           monoclinic
_symmetry_space_group_name_H-M   'P 21/c'
_symmetry_Int_Tables_number      14
_space_group_name_Hall           '-P 2ybc'
loop_
_symmetry_equiv_pos_site_id
_symmetry_equiv_pos_as_xyz
1 x,y,z
2 -x,1/2+y,1/2-z
3 -x,-y,-z
4 x,1/2-y,1/2+z
_cell_length_a                   18.929(9)
_cell_length_b                   12.430(6)
_cell_length_c                   8.472(4)
_cell_angle_alpha                90
_cell_angle_beta                 91.235(13)
_cell_angle_gamma                90
_cell_volume                     1992.89
_exptl_crystal_colour            colorless
_exptl_crystal_description       prismatic
_cell_formula_units_Z            4
loop_
_atom_site_label
_atom_site_type_symbol
_atom_site_fract_x
_atom_site_fract_y
_atom_site_fract_z
S1 S 0.42315(4) 0.89888(7) 0.18802(10)
S2 S 0.15486(4) 1.07280(7) 0.20613(10)
N1 N 0.24137(12) 1.05950(18) 0.1780(3)
N2 N 0.24918(13) 0.8652(2) 0.2384(3)
O1 O 0.20947(12) 0.74794(18) 0.4206(3)
O2 O 0.13844(12) 1.00700(19) 0.3382(3)
O3 O 0.14212(12) 1.18576(18) 0.2116(3)
C1 C 0.28747(16) 1.1390(2) 0.1208(3)
C2 C 0.27463(19) 1.2441(3) 0.0683(4)
H1 H 0.2295 1.2737 0.0694
C3 C 0.3311(2) 1.3016(3) 0.0153(4)
H2 H 0.3240 1.3712 -0.0217
C4 C 0.3985(2) 1.2587(3) 0.0153(4)
H3 H 0.4356 1.3001 -0.0214
C5 C 0.41195(18) 1.1556(3) 0.0688(4)
H4 H 0.4575 1.1276 0.0703
C6 C 0.35487(16) 1.0948(2) 0.1206(3)
C7 C 0.35010(15) 0.9839(2) 0.1701(3)
C8 C 0.28177(15) 0.9630(2) 0.1986(3)
C9 C 0.24704(16) 0.8245(2) 0.3877(4)
C10 C 0.29549(15) 0.8767(2) 0.5074(3)
C11 C 0.36859(16) 0.8729(2) 0.4908(3)
C12 C 0.40029(16) 0.8128(2) 0.3548(4)
H5 H 0.3670 0.7586 0.3181
H6 H 0.4426 0.7760 0.3923
C13 C 0.26716(18) 0.9242(2) 0.6398(4)
H7 H 0.2185 0.9234 0.6530
C14 C 0.31023(19) 0.9727(3) 0.7524(4)
H8 H 0.2908 1.0050 0.8403
C15 C 0.38254(19) 0.9727(3) 0.7333(4)
H9 H 0.4119 1.0067 0.8073
C16 C 0.41127(17) 0.9223(2) 0.6046(4)
H10 H 0.4601 0.9214 0.5939
C17 C 0.11599(15) 1.0190(2) 0.0335(4)
C18 C 0.08295(17) 0.9204(3) 0.0379(4)
H11 H 0.0794 0.8832 0.1327
C19 C 0.05536(17) 0.8778(3) -0.0997(4)
H12 H 0.0321 0.8120 -0.0963
C20 C 0.06101(16) 0.9296(3) -0.2429(4)
C21 C 0.09300(17) 1.0297(3) -0.2433(4)
H13 H 0.0960 1.0672 -0.3379
C22 C 0.12040(17) 1.0749(3) -0.1073(4)
H14 H 0.1417 1.1423 -0.1098
C23 C 0.0354(2) 0.8763(3) -0.3931(5)
H15 H 0.0742 0.8405 -0.4419
H16 H 0.0163 0.9297 -0.4638
H17 H -0.0006 0.8247 -0.3693
H18 H 0.2301(16) 0.831(3) 0.162(4)
loop_
_geom_bond_atom_site_label_1
_geom_bond_atom_site_label_2
_geom_bond_site_symmetry_1
_geom_bond_site_symmetry_2
S1 C7 1_555 1_555
S2 N1 1_555 1_555
N1 C1 1_555 1_555
N2 C8 1_555 1_555
O1 C9 1_555 1_555
O2 S2 1_555 1_555
O3 S2 1_555 1_555
C1 C2 1_555 1_555
C2 H1 1_555 1_555
C3 C2 1_555 1_555
H2 C3 1_555 1_555
C4 C3 1_555 1_555
H3 C4 1_555 1_555
C5 C4 1_555 1_555
H4 C5 1_555 1_555
C6 C1 1_555 1_555
C7 C6 1_555 1_555
C8 N1 1_555 1_555
C9 N2 1_555 1_555
C10 C9 1_555 1_555
C11 C10 1_555 1_555
C12 S1 1_555 1_555
H5 C12 1_555 1_555
H6 C12 1_555 1_555
C13 C10 1_555 1_555
H7 C13 1_555 1_555
C14 C13 1_555 1_555
H8 C14 1_555 1_555
C15 C14 1_555 1_555
H9 C15 1_555 1_555
C16 C11 1_555 1_555
H10 C16 1_555 1_555
C17 S2 1_555 1_555
C18 C17 1_555 1_555
H11 C18 1_555 1_555
C19 C18 1_555 1_555
H12 C19 1_555 1_555
C20 C19 1_555 1_555
C21 C20 1_555 1_555
H13 C21 1_555 1_555
C22 C17 1_555 1_555
H14 C22 1_555 1_555
C23 C20 1_555 1_555
H15 C23 1_555 1_555
H16 C23 1_555 1_555
H17 C23 1_555 1_555
H18 N2 1_555 1_555
C5 C6 1_555 1_555
C7 C8 1_555 1_555
C11 C12 1_555 1_555
C15 C16 1_555 1_555
C21 C22 1_555 1_555

#END
