
#######################################################################
#
#                 Cambridge Crystallographic Data Centre
#                                CCDC 
#
#######################################################################
#
# If this CIF has been generated from an entry in the Cambridge 
# Structural Database, then it will include bibliographic, chemical, 
# crystal, experimental, refinement or atomic coordinate data resulting 
# from the CCDC's data processing and validation procedures.
#
#######################################################################

data_AKORUO01
_chemical_formula_moiety         'C5 H11 B1 N2'
_chemical_name_systematic        
(1,3-dimethyl-1H-imidazol-3-ium-2-yl)(trihydrido)borate
_symmetry_cell_setting           monoclinic
_symmetry_space_group_name_H-M   'P 21/m'
_symmetry_Int_Tables_number      11
_space_group_name_Hall           '-P 2yb'
loop_
_symmetry_equiv_pos_site_id
_symmetry_equiv_pos_as_xyz
1 x,y,z
2 -x,1/2+y,-z
3 -x,-y,-z
4 x,1/2-y,z
_cell_length_a                   7.1421(7)
_cell_length_b                   7.0668(10)
_cell_length_c                   7.2312(7)
_cell_angle_alpha                90
_cell_angle_beta                 106.546(12)
_cell_angle_gamma                90
_cell_volume                     349.859
_cell_formula_units_Z            2
loop_
_atom_site_label
_atom_site_type_symbol
_atom_site_fract_x
_atom_site_fract_y
_atom_site_fract_z
N1 N 0.5957(3) 0.2500 0.6954(3)
N2 N 0.3488(3) 0.2500 0.4468(3)
C1 C 0.4003(4) 0.2500 0.6410(4)
C2 C 0.5114(5) 0.2500 0.3810(4)
H1 H 0.5134 0.2500 0.2530
C3 C 0.7185(5) 0.2500 0.8945(5)
C4 C 0.1496(5) 0.2500 0.3215(4)
B1 B 0.2551(6) 0.2500 0.7728(5)
C5 C 0.6660(5) 0.2500 0.5375(5)
H2 H 0.7966 0.2500 0.5390
H3? H 0.8499 0.2174 0.8978
H4? H 0.6695 0.1590 0.9677
H5? H 0.0712 0.3338 0.3730
H6? H 0.0972 0.1242 0.3135
H7? H 0.1488 0.2920 0.1950
H8? H 0.3218 0.2981 0.8985
H9? H 0.2117 0.1231 0.7845
H10? H 0.1444 0.3287 0.7148
H11? H 0.7171 0.3736 0.9493
loop_
_geom_bond_atom_site_label_1
_geom_bond_atom_site_label_2
_geom_bond_site_symmetry_1
_geom_bond_site_symmetry_2
N1 C1 1_555 1_555
N2 C1 1_555 1_555
C1 B1 1_555 1_555
C2 N2 1_555 1_555
H1 C2 1_555 1_555
C3 N1 1_555 1_555
C4 N2 1_555 1_555
C5 N1 1_555 1_555
H2 C5 1_555 1_555
C2 C5 1_555 1_555

#END
