
#######################################################################
#
#                 Cambridge Crystallographic Data Centre
#                                CCDC 
#
#######################################################################
#
# If this CIF has been generated from an entry in the Cambridge 
# Structural Database, then it will include bibliographic, chemical, 
# crystal, experimental, refinement or atomic coordinate data resulting 
# from the CCDC's data processing and validation procedures.
#
#######################################################################

data_AKORUN
_chemical_compound_source        'whole plant of Ligulariopsis shichuana'
_chemical_formula_moiety         'C20 H26 O6'
_chemical_name_systematic        
3\b-Senecioyloxy-1\b,10\b-epoxy-8\a-hydroxyeremophil-7(11)-en-8\b(12)-olide
_chemical_properties_biological  'moderate antibacterial activity'
_symmetry_cell_setting           monoclinic
_symmetry_space_group_name_H-M   'P 21'
_symmetry_Int_Tables_number      4
_space_group_name_Hall           'P 2yb'
loop_
_symmetry_equiv_pos_site_id
_symmetry_equiv_pos_as_xyz
1 x,y,z
2 -x,1/2+y,-z
_cell_length_a                   7.062(2)
_cell_length_b                   6.340(2)
_cell_length_c                   21.066(5)
_cell_angle_alpha                90
_cell_angle_beta                 99.28
_cell_angle_gamma                90
_cell_volume                     930.845
_exptl_crystal_colour            white
_exptl_crystal_description       needles
_chemical_melting_point          '182-184 deg.C'
_cell_formula_units_Z            2
_exptl_crystal_recrystallization_method methanol
loop_
_atom_site_label
_atom_site_type_symbol
_atom_site_fract_x
_atom_site_fract_y
_atom_site_fract_z
O1 O 1.0100(4) -0.4063(5) 0.7681(1)
O2 O 0.8159(4) 0.1729(5) 0.8986(1)
O3 O 0.8290(4) 0.2072(5) 0.7893(1)
O4 O 0.9012(5) 0.3079(6) 0.9973(2)
O5 O 1.3633(5) -0.0971(5) 0.6381(2)
O6 O 1.4370(30) 0.2393(18) 0.6479(8)
C1 C 0.9527(6) -0.2342(7) 0.7233(2)
C2 C 1.0688(6) -0.2154(9) 0.6691(2)
C3 C 1.2469(6) -0.0825(8) 0.6891(2)
C4 C 1.3638(6) -0.1608(7) 0.7516(2)
C5 C 1.2508(5) -0.1241(6) 0.8084(2)
C6 C 1.2595(6) 0.1161(7) 0.8251(2)
C7 C 1.1213(5) 0.1720(6) 0.8692(2)
C8 C 0.9157(6) 0.1109(7) 0.8463(2)
C9 C 0.9058(6) -0.1251(7) 0.8366(2)
C10 C 1.0397(6) -0.1913(7) 0.7906(2)
C11 C 1.1417(6) 0.2453(7) 0.9285(2)
C12 C 0.9481(7) 0.2491(7) 0.9480(2)
C13 C 1.3149(6) 0.3026(8) 0.9757(2)
C14 C 1.4398(6) -0.3842(7) 0.7454(2)
C15 C 1.3413(6) -0.2455(8) 0.8686(2)
C16 C 1.4348(7) 0.0764(7) 0.6170(2)
C17 C 1.5657(7) 0.0318(8) 0.5718(2)
C18 C 1.7014(7) 0.1555(9) 0.5575(2)
C19 C 1.7489(10) 0.3649(13) 0.5872(3)
C20 C 1.8261(8) 0.0859(12) 0.5087(3)
H1 H 0.8787 0.3226 0.7857
H2 H 0.9904 -0.1517 0.6320
H3 H 1.1061 -0.3550 0.6568
H4 H 1.2096 0.0647 0.6942
H5 H 1.4769 -0.0694 0.7599
H6 H 1.3886 0.1524 0.8454
H7 H 1.2298 0.1975 0.7858
H8 H 0.7754 -0.1662 0.8193
H9 H 0.9425 -0.1956 0.8776
H10 H 1.3327 0.2014 1.0100
H11 H 1.2978 0.4403 0.9928
H12 H 1.4256 0.3030 0.9545
H13 H 1.3348 -0.4822 0.7405
H14 H 1.5289 -0.4187 0.7834
H15 H 1.5035 -0.3921 0.7085
H16 H 1.2850 -0.1993 0.9048
H17 H 1.4769 -0.2195 0.8768
H18 H 1.3184 -0.3938 0.8620
H19 H 1.5515 -0.0979 0.5509
H20 H 1.6397 0.4190 0.6038
H21 H 1.7828 0.4601 0.5554
H22 H 1.8551 0.3509 0.6217
H23 H 1.7801 -0.0465 0.4902
H24 H 1.9563 0.0702 0.5298
H25 H 1.8204 0.1901 0.4754
O7? O 1.3550(30) 0.2446(18) 0.6228(8)
loop_
_geom_bond_atom_site_label_1
_geom_bond_atom_site_label_2
_geom_bond_site_symmetry_1
_geom_bond_site_symmetry_2
O1 C1 1_555 1_555
O2 C8 1_555 1_555
O3 C8 1_555 1_555
O4 C12 1_555 1_555
O5 C3 1_555 1_555
O6 C16 1_555 1_555
C1 C2 1_555 1_555
C2 C3 1_555 1_555
C3 C4 1_555 1_555
C4 C5 1_555 1_555
C5 C6 1_555 1_555
C6 C7 1_555 1_555
C7 C8 1_555 1_555
C8 C9 1_555 1_555
C9 C10 1_555 1_555
C10 O1 1_555 1_555
C11 C7 1_555 1_555
C12 O2 1_555 1_555
C13 C11 1_555 1_555
C14 C4 1_555 1_555
C15 C5 1_555 1_555
C16 O5 1_555 1_555
C17 C16 1_555 1_555
C18 C17 1_555 1_555
C19 C18 1_555 1_555
C20 C18 1_555 1_555
H1 O3 1_555 1_555
H2 C2 1_555 1_555
H3 C2 1_555 1_555
H4 C3 1_555 1_555
H5 C4 1_555 1_555
H6 C6 1_555 1_555
H7 C6 1_555 1_555
H8 C9 1_555 1_555
H9 C9 1_555 1_555
H10 C13 1_555 1_555
H11 C13 1_555 1_555
H12 C13 1_555 1_555
H13 C14 1_555 1_555
H14 C14 1_555 1_555
H15 C14 1_555 1_555
H16 C15 1_555 1_555
H17 C15 1_555 1_555
H18 C15 1_555 1_555
H19 C17 1_555 1_555
H20 C19 1_555 1_555
H21 C19 1_555 1_555
H22 C19 1_555 1_555
H23 C20 1_555 1_555
H24 C20 1_555 1_555
H25 C20 1_555 1_555
C1 C10 1_555 1_555
C5 C10 1_555 1_555
C11 C12 1_555 1_555

#END
