
#######################################################################
#
#                 Cambridge Crystallographic Data Centre
#                                CCDC 
#
#######################################################################
#
# If this CIF has been generated from an entry in the Cambridge 
# Structural Database, then it will include bibliographic, chemical, 
# crystal, experimental, refinement or atomic coordinate data resulting 
# from the CCDC's data processing and validation procedures.
#
#######################################################################

data_AKOTIF
_chemical_formula_moiety         'C41 H32 N2 O2'
_chemical_name_systematic        
3-(1,1-bis(1-Benzyl-1H-indol-3-yl)ethyl)-2H-chromen-2-one
_symmetry_cell_setting           triclinic
_symmetry_space_group_name_H-M   'P -1'
_symmetry_Int_Tables_number      2
_space_group_name_Hall           '-P 1'
loop_
_symmetry_equiv_pos_site_id
_symmetry_equiv_pos_as_xyz
1 x,y,z
2 -x,-y,-z
_cell_length_a                   11.9786(15)
_cell_length_b                   12.3683(16)
_cell_length_c                   12.7772(17)
_cell_angle_alpha                76.842(2)
_cell_angle_beta                 66.138(2)
_cell_angle_gamma                62.478(2)
_cell_volume                     1533.35
_exptl_crystal_colour            colorless
_exptl_crystal_description       block
_cell_formula_units_Z            2
loop_
_atom_site_label
_atom_site_type_symbol
_atom_site_fract_x
_atom_site_fract_y
_atom_site_fract_z
O1 O 0.35067(10) -0.36806(10) 0.06579(10)
C1 C 0.17915(14) -0.18977(13) 0.17478(13)
O2 O 0.41212(11) -0.28260(11) 0.15237(12)
C2 C 0.12333(15) -0.29501(13) 0.07628(14)
C3 C 0.08851(15) -0.20120(13) 0.14690(14)
H1 H -0.0008 -0.1459 0.1746
C4 C 0.25669(15) -0.37772(14) 0.03710(14)
C5 C -0.00410(14) -0.00492(13) 0.28361(12)
C6 C 0.31932(15) -0.27905(14) 0.13365(14)
N1 N -0.20544(13) 0.15569(12) 0.31262(12)
C7 C 0.24586(14) 0.02201(13) 0.03599(13)
C8 C 0.31733(14) 0.09662(14) 0.00149(13)
N2 N 0.33423(13) 0.11212(13) 0.09610(12)
C9 C 0.22040(14) -0.00650(13) 0.15745(13)
C10 C 0.14704(14) -0.08258(13) 0.23949(13)
C11 C -0.22875(15) 0.06402(14) 0.39065(13)
C12 C -0.10487(15) -0.03880(14) 0.37391(13)
C13 C 0.22116(15) -0.00923(15) -0.04903(14)
H2 H 0.1740 -0.0573 -0.0299
C14 C 0.03210(17) -0.30674(15) 0.04257(15)
H3 H -0.0577 -0.2517 0.0666
C15 C 0.30027(18) -0.47208(15) -0.03048(16)
H4 H 0.3899 -0.5274 -0.0548
C16 C 0.36206(16) 0.13956(16) -0.11161(15)
H5 H 0.4078 0.1891 -0.1321
C17 C 0.27681(16) 0.04945(15) 0.18760(14)
H6 H 0.2764 0.0456 0.2613
C18 C 0.31627(17) 0.28656(15) 0.17584(14)
C19 C 0.2077(2) -0.48222(16) -0.06097(16)
H7 H 0.2350 -0.5456 -0.1057
C20 C -0.34869(17) 0.06289(18) 0.47159(15)
H8 H -0.4292 0.1321 0.4823
C21 C -0.07025(16) 0.11182(14) 0.24983(14)
H9 H -0.0296 0.1566 0.1917
C22 C 0.0745(2) -0.39911(16) -0.02580(16)
H10 H 0.0136 -0.4059 -0.0486
C23 C -0.31059(16) 0.37885(15) 0.34711(14)
C24 C 0.33613(17) 0.10604(17) -0.19151(15)
H11 H 0.3649 0.1333 -0.2676
C25 C 0.40426(17) 0.17957(17) 0.10101(17)
H12 H 0.4440 0.2085 0.0240
H13 H 0.4767 0.1244 0.1292
C26 C -0.30544(18) 0.27657(16) 0.29710(18)
H14 H -0.3930 0.2745 0.3313
H15 H -0.2884 0.2952 0.2156
C27 C -0.10529(18) -0.14608(16) 0.44000(15)
H16 H -0.0256 -0.2160 0.4306
C28 C 0.26737(17) 0.03180(16) -0.16094(15)
H17 H 0.2525 0.0096 -0.2173
C29 C 0.19311(18) -0.12910(17) 0.34527(15)
H18 H 0.1725 -0.0606 0.3839
H19 H 0.2881 -0.1782 0.3205
H20 H 0.1471 -0.1772 0.3967
C30 C -0.34366(19) -0.0438(2) 0.53478(16)
H21 H -0.4222 -0.0467 0.5896
C31 C 0.17941(19) 0.34385(17) 0.20204(17)
H22 H 0.1377 0.3139 0.1756
C32 C -0.2240(2) -0.14744(19) 0.51875(16)
H23 H -0.2240 -0.2190 0.5619
C33 C -0.2231(2) 0.36136(19) 0.39940(17)
H24 H -0.1590 0.2833 0.4074
C34 C -0.40545(19) 0.49679(17) 0.33720(17)
H25 H -0.4659 0.5102 0.3024
C35 C 0.3754(2) 0.33201(18) 0.21749(17)
H26 H 0.4678 0.2940 0.2010
C36 C -0.4115(3) 0.59373(19) 0.3778(2)
H27 H -0.4757 0.6719 0.3704
C37 C -0.3238(3) 0.5757(2) 0.4288(2)
H28 H -0.3272 0.6414 0.4557
C38 C 0.1034(2) 0.4454(2) 0.2673(2)
H29 H 0.0111 0.4842 0.2838
C39 C 0.2994(3) 0.4327(2) 0.2830(2)
H30 H 0.3405 0.4624 0.3104
C40 C -0.2300(3) 0.4598(2) 0.4404(2)
H31 H -0.1706 0.4472 0.4760
C41 C 0.1643(3) 0.4889(2) 0.3077(2)
H32 H 0.1131 0.5569 0.3521
loop_
_geom_bond_atom_site_label_1
_geom_bond_atom_site_label_2
_geom_bond_site_symmetry_1
_geom_bond_site_symmetry_2
O1 C4 1_555 1_555
C1 C3 1_555 1_555
O2 C6 1_555 1_555
C2 C3 1_555 1_555
C3 H1 1_555 1_555
C4 C2 1_555 1_555
C5 C10 1_555 1_555
C6 O1 1_555 1_555
N1 C11 1_555 1_555
C7 C8 1_555 1_555
C8 N2 1_555 1_555
N2 C17 1_555 1_555
C9 C7 1_555 1_555
C10 C1 1_555 1_555
C11 C12 1_555 1_555
C12 C5 1_555 1_555
C13 C7 1_555 1_555
H2 C13 1_555 1_555
C14 C2 1_555 1_555
H3 C14 1_555 1_555
C15 C4 1_555 1_555
H4 C15 1_555 1_555
C16 C8 1_555 1_555
H5 C16 1_555 1_555
C17 C9 1_555 1_555
H6 C17 1_555 1_555
C18 C25 1_555 1_555
C19 C15 1_555 1_555
H7 C19 1_555 1_555
C20 C11 1_555 1_555
H8 C20 1_555 1_555
C21 C5 1_555 1_555
H9 C21 1_555 1_555
C22 C14 1_555 1_555
H10 C22 1_555 1_555
C23 C26 1_555 1_555
C24 C16 1_555 1_555
H11 C24 1_555 1_555
C25 N2 1_555 1_555
H12 C25 1_555 1_555
H13 C25 1_555 1_555
C26 N1 1_555 1_555
H14 C26 1_555 1_555
H15 C26 1_555 1_555
C27 C12 1_555 1_555
H16 C27 1_555 1_555
C28 C13 1_555 1_555
H17 C28 1_555 1_555
C29 C10 1_555 1_555
H18 C29 1_555 1_555
H19 C29 1_555 1_555
H20 C29 1_555 1_555
C30 C20 1_555 1_555
H21 C30 1_555 1_555
C31 C18 1_555 1_555
H22 C31 1_555 1_555
C32 C27 1_555 1_555
H23 C32 1_555 1_555
C33 C23 1_555 1_555
H24 C33 1_555 1_555
C34 C23 1_555 1_555
H25 C34 1_555 1_555
C35 C18 1_555 1_555
H26 C35 1_555 1_555
C36 C34 1_555 1_555
H27 C36 1_555 1_555
C37 C36 1_555 1_555
H28 C37 1_555 1_555
C38 C31 1_555 1_555
H29 C38 1_555 1_555
C39 C35 1_555 1_555
H30 C39 1_555 1_555
C40 C33 1_555 1_555
H31 C40 1_555 1_555
C41 C38 1_555 1_555
H32 C41 1_555 1_555
C1 C6 1_555 1_555
N1 C21 1_555 1_555
C9 C10 1_555 1_555
C19 C22 1_555 1_555
C24 C28 1_555 1_555
C30 C32 1_555 1_555
C37 C40 1_555 1_555
C39 C41 1_555 1_555

#END
