
#######################################################################
#
#                 Cambridge Crystallographic Data Centre
#                                CCDC 
#
#######################################################################
#
# If this CIF has been generated from an entry in the Cambridge 
# Structural Database, then it will include bibliographic, chemical, 
# crystal, experimental, refinement or atomic coordinate data resulting 
# from the CCDC's data processing and validation procedures.
#
#######################################################################

data_AKOXON02
_chemical_name_common            'bis(collidine)bromanium perchlorate'
_chemical_formula_moiety         'C16 H22 Br1 N2 1+,Cl1 O4 1-'
_chemical_name_systematic        
'bis(2,4,6-trimethylpyridine)bromanium perchlorate'
_symmetry_cell_setting           monoclinic
_symmetry_space_group_name_H-M   'C 2/c'
_symmetry_Int_Tables_number      15
_space_group_name_Hall           '-C 2yn'
loop_
_symmetry_equiv_pos_site_id
_symmetry_equiv_pos_as_xyz
1 x,y,z
2 1/2+x,1/2+y,z
3 -x,y,1/2-z
4 1/2-x,1/2+y,1/2-z
5 -x,-y,-z
6 1/2-x,1/2-y,-z
7 x,-y,1/2+z
8 1/2+x,1/2-y,1/2+z
_cell_length_a                   26.7649(4)
_cell_length_b                   10.8741(1)
_cell_length_c                   23.3335(3)
_cell_angle_alpha                90
_cell_angle_beta                 126.930(2)
_cell_angle_gamma                90
_cell_volume                     5428.59
_exptl_crystal_colour            colorless
_exptl_crystal_description       block
_cell_formula_units_Z            12
loop_
_atom_site_label
_atom_site_type_symbol
_atom_site_fract_x
_atom_site_fract_y
_atom_site_fract_z
Br1 Br 0.5000 0.0000 0.5000
N1 N 0.57353(6) 0.11247(13) 0.58171(7)
C1 C 0.58119(7) 0.22683(16) 0.56508(9)
C2 C 0.63308(8) 0.29598(16) 0.61583(9)
C3 C 0.67701(8) 0.24971(16) 0.68464(9)
C4 C 0.66639(8) 0.13345(16) 0.70024(9)
C5 C 0.61438(8) 0.06564(16) 0.64861(9)
C6 C 0.53104(8) 0.27784(17) 0.49229(9)
C7 C 0.73326(8) 0.32351(18) 0.74083(10)
C8 C 0.60055(9) -0.05761(16) 0.66474(9)
H1 H 0.6381 0.3740 0.6044
H2 H 0.6932 0.1015 0.7461
H3 H 0.5413 0.3594 0.4884
H4 H 0.5268 0.2277 0.4550
H5 H 0.4920 0.2799 0.4863
H6 H 0.7302 0.3445 0.7793
H7 H 0.7350 0.3976 0.7210
H8 H 0.7708 0.2778 0.7602
H9 H 0.5593 -0.0591 0.6551
H10 H 0.6038 -0.1202 0.6382
H11 H 0.6292 -0.0742 0.7142
N1D N 0.42647(6) -0.11247(13) 0.41829(7)
C1D C 0.41881(7) -0.22683(16) 0.43492(9)
C2D C 0.36692(8) -0.29598(16) 0.38417(9)
C3D C 0.32299(8) -0.24971(16) 0.31536(9)
C4D C 0.33361(8) -0.13345(16) 0.29976(9)
C5D C 0.38562(8) -0.06564(16) 0.35139(9)
C6D C 0.46896(8) -0.27784(17) 0.50771(9)
C7D C 0.26674(8) -0.32351(18) 0.25917(10)
C8D C 0.39945(9) 0.05761(16) 0.33526(9)
H1D H 0.3619 -0.3740 0.3956
H2D H 0.3068 -0.1015 0.2539
H3D H 0.4587 -0.3594 0.5116
H4D H 0.4732 -0.2277 0.5450
H5D H 0.5080 -0.2799 0.5137
H6D H 0.2698 -0.3445 0.2207
H7D H 0.2650 -0.3976 0.2790
H8D H 0.2292 -0.2778 0.2398
H9D H 0.4407 0.0591 0.3449
H10D H 0.3962 0.1202 0.3618
H11D H 0.3708 0.0742 0.2858
Br2 Br 0.796749(7) 0.052032(15) 0.644885(8)
N2 N 0.72823(6) 0.17017(14) 0.56491(7)
C9 C 0.67505(8) 0.12072(17) 0.50639(9)
C10 C 0.63082(8) 0.19675(17) 0.45137(9)
C11 C 0.64015(8) 0.32306(17) 0.45405(9)
C12 C 0.69546(8) 0.36985(16) 0.51435(9)
C13 C 0.73899(8) 0.29285(16) 0.56994(9)
C14 C 0.66608(10) -0.01596(19) 0.50307(12)
C15 C 0.59169(9) 0.40451(18) 0.39377(10)
C16 C 0.79784(8) 0.34280(18) 0.63642(10)
N3 N 0.86978(6) -0.06775(13) 0.72395(7)
C17 C 0.91077(8) -0.02690(17) 0.79235(9)
C18 C 0.96140(8) -0.09877(17) 0.84237(9)
C19 C 0.97168(8) -0.21246(17) 0.82354(9)
C20 C 0.92818(8) -0.25172(16) 0.75301(9)
C21 C 0.87704(8) -0.17910(16) 0.70384(9)
C22 C 0.89925(9) 0.09574(18) 0.81181(9)
C23 C 1.02737(8) -0.28966(19) 0.87723(10)
C24 C 0.82888(8) -0.22230(18) 0.62853(9)
H12 H 0.5939 0.1626 0.4123
H13 H 0.7032 0.4541 0.5179
H14 H 0.6658 -0.0393 0.5430
H15 H 0.6988 -0.0588 0.5069
H16 H 0.6272 -0.0369 0.4602
H17 H 0.6030 0.4893 0.4057
H18 H 0.5892 0.3895 0.3522
H19 H 0.5519 0.3909 0.3825
H20 H 0.8015 0.3169 0.6772
H21 H 0.8333 0.3163 0.6396
H22 H 0.7973 0.4303 0.6340
H23 H 0.9882 -0.0707 0.8894
H24 H 0.9335 -0.3280 0.7399
H25 H 0.8566 0.1007 0.7976
H26 H 0.9067 0.1610 0.7894
H27 H 0.9255 0.1058 0.8623
H28 H 1.0284 -0.2979 0.9194
H29 H 1.0655 -0.2520 0.8902
H30 H 1.0237 -0.3704 0.8586
H31 H 0.7879 -0.2230 0.6173
H32 H 0.8283 -0.1721 0.5932
H33 H 0.8378 -0.3047 0.6234
Cl1 Cl 0.652739(17) 0.64747(3) 0.56374(2)
O1 O 0.63771(7) 0.76102(13) 0.58189(8)
O2 O 0.59775(6) 0.57043(13) 0.52384(7)
O3 O 0.67373(6) 0.67300(12) 0.52069(7)
O4 O 0.70149(6) 0.58380(13) 0.62838(7)
Cl2 Cl 0.5000 0.10899(6) 0.2500
O5 O 0.48471(8) 0.1847(2) 0.28725(10)
O6 O 0.44665(9) 0.03294(16) 0.19953(9)
O5B O 0.51529(8) 0.1847(2) 0.21275(10)
O6B O 0.55335(9) 0.03294(16) 0.30047(9)
loop_
_geom_bond_atom_site_label_1
_geom_bond_atom_site_label_2
_geom_bond_site_symmetry_1
_geom_bond_site_symmetry_2
Br1 N1 1_555 1_555
N1 C1 1_555 1_555
C1 C2 1_555 1_555
C2 C3 1_555 1_555
C3 C4 1_555 1_555
C4 C5 1_555 1_555
C5 N1 1_555 1_555
C6 C1 1_555 1_555
C7 C3 1_555 1_555
C8 C5 1_555 1_555
H1 C2 1_555 1_555
H2 C4 1_555 1_555
H3 C6 1_555 1_555
H4 C6 1_555 1_555
H5 C6 1_555 1_555
H6 C7 1_555 1_555
H7 C7 1_555 1_555
H8 C7 1_555 1_555
H9 C8 1_555 1_555
H10 C8 1_555 1_555
H11 C8 1_555 1_555
Br2 N2 1_555 1_555
N2 C9 1_555 1_555
C9 C10 1_555 1_555
C10 C11 1_555 1_555
C11 C12 1_555 1_555
C12 C13 1_555 1_555
C13 N2 1_555 1_555
C14 C9 1_555 1_555
C15 C11 1_555 1_555
C16 C13 1_555 1_555
N3 Br2 1_555 1_555
C17 N3 1_555 1_555
C18 C17 1_555 1_555
C19 C18 1_555 1_555
C20 C19 1_555 1_555
C21 N3 1_555 1_555
C22 C17 1_555 1_555
C23 C19 1_555 1_555
C24 C21 1_555 1_555
H12 C10 1_555 1_555
H13 C12 1_555 1_555
H14 C14 1_555 1_555
H15 C14 1_555 1_555
H16 C14 1_555 1_555
H17 C15 1_555 1_555
H18 C15 1_555 1_555
H19 C15 1_555 1_555
H20 C16 1_555 1_555
H21 C16 1_555 1_555
H22 C16 1_555 1_555
H23 C18 1_555 1_555
H24 C20 1_555 1_555
H25 C22 1_555 1_555
H26 C22 1_555 1_555
H27 C22 1_555 1_555
H28 C23 1_555 1_555
H29 C23 1_555 1_555
H30 C23 1_555 1_555
H31 C24 1_555 1_555
H32 C24 1_555 1_555
H33 C24 1_555 1_555
Cl1 O1 1_555 1_555
O2 Cl1 1_555 1_555
O3 Cl1 1_555 1_555
O4 Cl1 1_555 1_555
Cl2 O5 1_555 1_555
O6 Cl2 1_555 1_555
N1D Br1 1_555 1_555
C1D N1D 1_555 1_555
C2D C1D 1_555 1_555
C3D C2D 1_555 1_555
C4D C3D 1_555 1_555
C5D N1D 1_555 1_555
C6D C1D 1_555 1_555
C7D C3D 1_555 1_555
C8D C5D 1_555 1_555
H1D C2D 1_555 1_555
H2D C4D 1_555 1_555
H3D C6D 1_555 1_555
H4D C6D 1_555 1_555
H5D C6D 1_555 1_555
H6D C7D 1_555 1_555
H7D C7D 1_555 1_555
H8D C7D 1_555 1_555
H9D C8D 1_555 1_555
H10D C8D 1_555 1_555
H11D C8D 1_555 1_555
O5B Cl2 1_555 1_555
O6B Cl2 1_555 1_555
C20 C21 1_555 1_555
C4D C5D 1_555 1_555

#END
