
#######################################################################
#
#                 Cambridge Crystallographic Data Centre
#                                CCDC 
#
#######################################################################
#
# If this CIF has been generated from an entry in the Cambridge 
# Structural Database, then it will include bibliographic, chemical, 
# crystal, experimental, refinement or atomic coordinate data resulting 
# from the CCDC's data processing and validation procedures.
#
#######################################################################

data_AKOXUT01
_chemical_formula_moiety         'C10 H10 Br1 N2 1+,C1 F3 O3 S1 1-'
_chemical_name_systematic        
'bis(pyridine)bromonium trifluoromethanesulfonate'
_symmetry_cell_setting           triclinic
_symmetry_space_group_name_H-M   'P -1'
_symmetry_Int_Tables_number      2
_space_group_name_Hall           '-P 1'
loop_
_symmetry_equiv_pos_site_id
_symmetry_equiv_pos_as_xyz
1 x,y,z
2 -x,-y,-z
_cell_length_a                   6.8906(4)
_cell_length_b                   10.5223(6)
_cell_length_c                   10.6716(5)
_cell_angle_alpha                96.948(4)
_cell_angle_beta                 103.368(4)
_cell_angle_gamma                103.979(5)
_cell_volume                     717.559
_exptl_crystal_colour            'pale colorless'
_exptl_crystal_description       lath
_cell_formula_units_Z            2
loop_
_atom_site_label
_atom_site_type_symbol
_atom_site_fract_x
_atom_site_fract_y
_atom_site_fract_z
C1 C 0.2972(8) 0.8478(5) 0.3435(5)
F1 F 0.3144(6) 0.9717(3) 0.4001(4)
F2 F 0.2985(6) 0.7736(4) 0.4361(3)
F3 F 0.4660(6) 0.8508(5) 0.3036(4)
S1 S 0.05941(18) 0.78356(11) 0.20844(11)
O1 O 0.0619(6) 0.6499(3) 0.1610(4)
O2 O 0.0906(6) 0.8755(4) 0.1201(3)
O3 O -0.1025(6) 0.7928(4) 0.2717(4)
Br1 Br 0.72281(7) 0.49961(4) 0.40962(4)
N1 N 0.6076(6) 0.3609(4) 0.2299(4)
C2 C 0.5133(7) 0.2330(5) 0.2265(5)
C3 C 0.4324(8) 0.1430(5) 0.1099(5)
C4 C 0.4523(8) 0.1868(5) -0.0055(5)
C5 C 0.5534(8) 0.3190(5) -0.0004(5)
C6 C 0.6302(8) 0.4044(5) 0.1196(5)
N2 N 0.8398(6) 0.6368(4) 0.5836(4)
C7 C 0.8566(8) 0.5952(5) 0.6984(5)
C8 C 0.9408(8) 0.6847(5) 0.8150(5)
C9 C 1.0120(8) 0.8199(5) 0.8126(5)
C10 C 0.9975(8) 0.8604(5) 0.6922(5)
C11 C 0.9092(8) 0.7666(5) 0.5788(5)
H1 H 0.5041 0.2045 0.3040
H2 H 0.3657 0.0542 0.1093
H3 H 0.3962 0.1283 -0.0856
H4 H 0.5698 0.3507 -0.0762
H5 H 0.6986 0.4933 0.1245
H6 H 0.8106 0.5041 0.6995
H7 H 0.9480 0.6544 0.8950
H8 H 1.0681 0.8816 0.8907
H9 H 1.0485 0.9503 0.6888
H10 H 0.8950 0.7919 0.4976
loop_
_geom_bond_atom_site_label_1
_geom_bond_atom_site_label_2
_geom_bond_site_symmetry_1
_geom_bond_site_symmetry_2
C1 F1 1_555 1_555
F2 C1 1_555 1_555
F3 C1 1_555 1_555
S1 C1 1_555 1_555
O1 S1 1_555 1_555
O2 S1 1_555 1_555
O3 S1 1_555 1_555
Br1 N1 1_555 1_555
N1 C2 1_555 1_555
C2 C3 1_555 1_555
C3 C4 1_555 1_555
C4 C5 1_555 1_555
C5 C6 1_555 1_555
C6 N1 1_555 1_555
N2 Br1 1_555 1_555
C7 N2 1_555 1_555
C8 C7 1_555 1_555
C9 C8 1_555 1_555
C10 C9 1_555 1_555
C11 N2 1_555 1_555
H1 C2 1_555 1_555
H2 C3 1_555 1_555
H3 C4 1_555 1_555
H4 C5 1_555 1_555
H5 C6 1_555 1_555
H6 C7 1_555 1_555
H7 C8 1_555 1_555
H8 C9 1_555 1_555
H9 C10 1_555 1_555
H10 C11 1_555 1_555
C10 C11 1_555 1_555

#END
