
#######################################################################
#
#                 Cambridge Crystallographic Data Centre
#                                CCDC 
#
#######################################################################
#
# If this CIF has been generated from an entry in the Cambridge 
# Structural Database, then it will include bibliographic, chemical, 
# crystal, experimental, refinement or atomic coordinate data resulting 
# from the CCDC's data processing and validation procedures.
#
#######################################################################

data_AKOXON03
_chemical_name_common            'bis(collidine)bromanium perchlorate'
_chemical_formula_moiety         'C16 H22 Br1 N2 1+,Cl1 O4 1-'
_chemical_name_systematic        
'bis(2,4,6-trimethylpyridine)bromanium perchlorate'
_symmetry_cell_setting           monoclinic
_symmetry_space_group_name_H-M   'C 2/c'
_symmetry_Int_Tables_number      15
_space_group_name_Hall           '-C 2yn'
loop_
_symmetry_equiv_pos_site_id
_symmetry_equiv_pos_as_xyz
1 x,y,z
2 1/2+x,1/2+y,z
3 -x,y,1/2-z
4 1/2-x,1/2+y,1/2-z
5 -x,-y,-z
6 1/2-x,1/2-y,-z
7 x,-y,1/2+z
8 1/2+x,1/2-y,1/2+z
_cell_length_a                   28.8059(14)
_cell_length_b                   8.5296(3)
_cell_length_c                   15.8383(7)
_cell_angle_alpha                90
_cell_angle_beta                 99.565(4)
_cell_angle_gamma                90
_cell_volume                     3837.41
_exptl_crystal_colour            colorless
_exptl_crystal_description       block
_cell_formula_units_Z            8
loop_
_atom_site_label
_atom_site_type_symbol
_atom_site_fract_x
_atom_site_fract_y
_atom_site_fract_z
Br1 Br 0.7500 0.2500 0.5000
N1 N 0.74665(10) 0.0241(3) 0.44328(17)
C1 C 0.78563(12) -0.0654(4) 0.4481(2)
C2 C 0.78357(14) -0.2066(5) 0.4053(2)
C3 C 0.74273(15) -0.2574(4) 0.3570(2)
C4 C 0.70309(15) -0.1655(5) 0.3547(2)
C5 C 0.70495(13) -0.0250(5) 0.3982(2)
C6 C 0.83030(14) -0.0063(5) 0.5000(3)
C7 C 0.7406(2) -0.4089(6) 0.3067(4)
C8 C 0.66232(15) 0.0771(7) 0.3960(3)
H1 H 0.8102 -0.2663 0.4093
H2 H 0.6743 -0.1981 0.3222
H3 H 0.8550 -0.0797 0.4972
H4 H 0.8381 0.0918 0.4758
H5 H 0.8274 0.0098 0.5588
H6 H 0.7102 -0.4555 0.3058
H7 H 0.7449 -0.3829 0.2496
H8 H 0.7654 -0.4808 0.3321
H9 H 0.6611 0.1090 0.4536
H10 H 0.6653 0.1692 0.3630
H11 H 0.6348 0.0208 0.3725
N1E N 0.75335(10) 0.4759(3) 0.55672(17)
C1E C 0.71437(12) 0.5654(4) 0.5519(2)
C2E C 0.71643(14) 0.7066(5) 0.5947(2)
C3E C 0.75727(15) 0.7574(4) 0.6430(2)
C4E C 0.79691(15) 0.6655(5) 0.6453(2)
C5E C 0.79505(13) 0.5250(5) 0.6018(2)
C6E C 0.66970(14) 0.5063(5) 0.5000(3)
C7E C 0.7594(2) 0.9089(6) 0.6933(4)
C8E C 0.83768(15) 0.4229(7) 0.6040(3)
H1E H 0.6898 0.7663 0.5907
H2E H 0.8257 0.6981 0.6778
H3E H 0.6450 0.5797 0.5028
H4E H 0.6619 0.4082 0.5242
H5E H 0.6726 0.4902 0.4412
H6E H 0.7898 0.9555 0.6942
H7E H 0.7551 0.8829 0.7504
H8E H 0.7346 0.9808 0.6679
H9E H 0.8389 0.3910 0.5464
H10E H 0.8347 0.3308 0.6370
H11E H 0.8652 0.4792 0.6275
Br2 Br 0.5000 0.5000 0.5000
N2 N 0.53308(10) 0.4737(3) 0.3911(2)
C9 C 0.54837(13) 0.6011(4) 0.3536(3)
C10 C 0.57214(14) 0.5846(5) 0.2865(3)
C11 C 0.58105(13) 0.4375(5) 0.2554(3)
C12 C 0.56426(14) 0.3103(4) 0.2942(3)
C13 C 0.54011(13) 0.3283(4) 0.3613(2)
C14 C 0.5389(2) 0.7607(4) 0.3870(4)
C15 C 0.60817(19) 0.4190(7) 0.1831(3)
C16 C 0.5211(2) 0.1903(4) 0.4021(3)
H12 H 0.5819 0.6744 0.2626
H13 H 0.5690 0.2091 0.2746
H14 H 0.5529 0.8404 0.3567
H15 H 0.5527 0.7686 0.4464
H16 H 0.5059 0.7774 0.3797
H17 H 0.5897 0.3579 0.1398
H18 H 0.6362 0.3646 0.2057
H19 H 0.6149 0.5225 0.1632
H20 H 0.4878 0.2012 0.4043
H21 H 0.5390 0.1790 0.4581
H22 H 0.5262 0.0985 0.3703
N2D N 0.46692(10) 0.5263(3) 0.6089(2)
C9D C 0.45163(13) 0.3989(4) 0.6464(3)
C10D C 0.42786(14) 0.4154(5) 0.7135(3)
C11D C 0.41895(13) 0.5625(5) 0.7446(3)
C12D C 0.43574(14) 0.6897(4) 0.7058(3)
C13D C 0.45989(13) 0.6717(4) 0.6387(2)
C14D C 0.4611(2) 0.2393(4) 0.6130(4)
C15D C 0.39183(19) 0.5810(7) 0.8169(3)
C16D C 0.4789(2) 0.8097(4) 0.5979(3)
H12D H 0.4181 0.3256 0.7374
H13D H 0.4310 0.7909 0.7254
H14D H 0.4471 0.1596 0.6433
H15D H 0.4473 0.2314 0.5536
H16D H 0.4941 0.2226 0.6203
H17D H 0.4103 0.6421 0.8602
H18D H 0.3638 0.6354 0.7943
H19D H 0.3851 0.4775 0.8368
H20D H 0.5122 0.7988 0.5957
H21D H 0.4610 0.8210 0.5419
H22D H 0.4738 0.9015 0.6297
Cl1 Cl 0.61146(4) 0.06374(14) 0.62998(7)
O1 O 0.6079(6) 0.2087(8) 0.5972(8)
O2 O 0.5841(4) 0.0540(11) 0.6943(6)
O3 O 0.5945(5) -0.0462(10) 0.5672(5)
O4 O 0.6557(3) 0.020(2) 0.6652(8)
O5? O 0.5747(4) 0.1613(17) 0.5975(10)
O6? O 0.6082(7) 0.0138(17) 0.7091(5)
O7? O 0.6162(5) -0.0534(14) 0.5743(8)
O8? O 0.6518(4) 0.1607(13) 0.6379(8)
loop_
_geom_bond_atom_site_label_1
_geom_bond_atom_site_label_2
_geom_bond_site_symmetry_1
_geom_bond_site_symmetry_2
Br1 N1 1_555 1_555
N1 C1 1_555 1_555
C1 C2 1_555 1_555
C2 C3 1_555 1_555
C3 C4 1_555 1_555
C4 C5 1_555 1_555
C5 N1 1_555 1_555
C6 C1 1_555 1_555
C7 C3 1_555 1_555
C8 C5 1_555 1_555
H1 C2 1_555 1_555
H2 C4 1_555 1_555
H3 C6 1_555 1_555
H4 C6 1_555 1_555
H5 C6 1_555 1_555
H6 C7 1_555 1_555
H7 C7 1_555 1_555
H8 C7 1_555 1_555
H9 C8 1_555 1_555
H10 C8 1_555 1_555
H11 C8 1_555 1_555
Br2 N2 1_555 1_555
N2 C9 1_555 1_555
C9 C10 1_555 1_555
C10 C11 1_555 1_555
C11 C12 1_555 1_555
C12 C13 1_555 1_555
C13 N2 1_555 1_555
C14 C9 1_555 1_555
C15 C11 1_555 1_555
C16 C13 1_555 1_555
H12 C10 1_555 1_555
H13 C12 1_555 1_555
H14 C14 1_555 1_555
H15 C14 1_555 1_555
H16 C14 1_555 1_555
H17 C15 1_555 1_555
H18 C15 1_555 1_555
H19 C15 1_555 1_555
H20 C16 1_555 1_555
H21 C16 1_555 1_555
H22 C16 1_555 1_555
Cl1 O1 1_555 1_555
O2 Cl1 1_555 1_555
O3 Cl1 1_555 1_555
O4 Cl1 1_555 1_555
N1E Br1 1_555 1_555
C1E N1E 1_555 1_555
C2E C1E 1_555 1_555
C3E C2E 1_555 1_555
C4E C3E 1_555 1_555
C5E N1E 1_555 1_555
C6E C1E 1_555 1_555
C7E C3E 1_555 1_555
C8E C5E 1_555 1_555
H1E C2E 1_555 1_555
H2E C4E 1_555 1_555
H3E C6E 1_555 1_555
H4E C6E 1_555 1_555
H5E C6E 1_555 1_555
H6E C7E 1_555 1_555
H7E C7E 1_555 1_555
H8E C7E 1_555 1_555
H9E C8E 1_555 1_555
H10E C8E 1_555 1_555
H11E C8E 1_555 1_555
N2D Br2 1_555 1_555
C9D N2D 1_555 1_555
C10D C9D 1_555 1_555
C11D C10D 1_555 1_555
C12D C11D 1_555 1_555
C13D N2D 1_555 1_555
C14D C9D 1_555 1_555
C15D C11D 1_555 1_555
C16D C13D 1_555 1_555
H12D C10D 1_555 1_555
H13D C12D 1_555 1_555
H14D C14D 1_555 1_555
H15D C14D 1_555 1_555
H16D C14D 1_555 1_555
H17D C15D 1_555 1_555
H18D C15D 1_555 1_555
H19D C15D 1_555 1_555
H20D C16D 1_555 1_555
H21D C16D 1_555 1_555
H22D C16D 1_555 1_555
C4E C5E 1_555 1_555
C12D C13D 1_555 1_555

#END
