
#######################################################################
#
#                 Cambridge Crystallographic Data Centre
#                                CCDC 
#
#######################################################################
#
# If this CIF has been generated from an entry in the Cambridge 
# Structural Database, then it will include bibliographic, chemical, 
# crystal, experimental, refinement or atomic coordinate data resulting 
# from the CCDC's data processing and validation procedures.
#
#######################################################################

data_AKOXON04
_chemical_name_common            'bis(collidine)bromanium perchlorate'
_chemical_formula_moiety         'C16 H22 Br1 N2 1+,Cl1 O4 1-'
_chemical_name_systematic        
'bis(2,4,6-trimethylpyridine)bromanium perchlorate'
_symmetry_cell_setting           monoclinic
_symmetry_space_group_name_H-M   'C 2/c'
_symmetry_Int_Tables_number      15
_space_group_name_Hall           '-C 2yn'
loop_
_symmetry_equiv_pos_site_id
_symmetry_equiv_pos_as_xyz
1 x,y,z
2 1/2+x,1/2+y,z
3 -x,y,1/2-z
4 1/2-x,1/2+y,1/2-z
5 -x,-y,-z
6 1/2-x,1/2-y,-z
7 x,-y,1/2+z
8 1/2+x,1/2-y,1/2+z
_cell_length_a                   28.8168(10)
_cell_length_b                   8.5588(2)
_cell_length_c                   15.2931(5)
_cell_angle_alpha                90
_cell_angle_beta                 102.549(3)
_cell_angle_gamma                90
_cell_volume                     3681.74
_exptl_crystal_colour            colorless
_exptl_crystal_description       block
_cell_formula_units_Z            8
loop_
_atom_site_label
_atom_site_type_symbol
_atom_site_fract_x
_atom_site_fract_y
_atom_site_fract_z
Br1 Br 0.7500 0.2500 0.5000
N1 N 0.74534(11) 0.0206(3) 0.44656(19)
C1 C 0.78513(12) -0.0640(4) 0.4481(2)
C2 C 0.78216(12) -0.2057(4) 0.4035(2)
C3 C 0.73857(13) -0.2623(4) 0.3572(2)
C4 C 0.69824(13) -0.1748(4) 0.3600(2)
C5 C 0.70163(13) -0.0341(4) 0.4051(2)
C6 C 0.83178(14) 0.0012(5) 0.4986(3)
C7 C 0.73493(16) -0.4132(5) 0.3047(3)
C8 C 0.65868(14) 0.0618(5) 0.4087(3)
H1 H 0.8094 -0.2631 0.4049
H2 H 0.6680 -0.2091 0.3313
H3 H 0.8575 -0.0719 0.5003
H4 H 0.8380 0.0987 0.4721
H5 H 0.8297 0.0242 0.5601
H6 H 0.7039 -0.4590 0.2969
H7 H 0.7408 -0.3915 0.2463
H8 H 0.7580 -0.4879 0.3349
H9 H 0.6581 0.0865 0.4690
H10 H 0.6590 0.1564 0.3767
H11 H 0.6308 0.0038 0.3817
N1E N 0.75466(11) 0.4794(3) 0.55344(19)
C1E C 0.71487(12) 0.5640(4) 0.5519(2)
C2E C 0.71784(12) 0.7057(4) 0.5965(2)
C3E C 0.76143(13) 0.7623(4) 0.6428(2)
C4E C 0.80176(13) 0.6748(4) 0.6400(2)
C5E C 0.79837(13) 0.5341(4) 0.5949(2)
C6E C 0.66822(14) 0.4988(5) 0.5014(3)
C7E C 0.76507(16) 0.9132(5) 0.6953(3)
C8E C 0.84132(14) 0.4382(5) 0.5913(3)
H1E H 0.6906 0.7631 0.5951
H2E H 0.8320 0.7091 0.6687
H3E H 0.6425 0.5719 0.4997
H4E H 0.6620 0.4013 0.5279
H5E H 0.6703 0.4758 0.4399
H6E H 0.7961 0.9590 0.7031
H7E H 0.7592 0.8915 0.7537
H8E H 0.7420 0.9879 0.6651
H9E H 0.8419 0.4135 0.5310
H10E H 0.8410 0.3436 0.6233
H11E H 0.8692 0.4962 0.6183
Cl1 Cl 0.61195(4) 0.03241(12) 0.64337(6)
O1 O 0.6246(2) 0.1832(5) 0.6187(3)
O2 O 0.57987(14) 0.0473(4) 0.7012(3)
O3 O 0.5935(2) -0.0613(5) 0.5671(2)
O4 O 0.65207(13) -0.0502(5) 0.6946(3)
Br2? Br 0.50411(4) 0.50632(15) 0.48490(6)
N2? N 0.5380(3) 0.4804(12) 0.3754(6)
C9? C 0.5507(4) 0.6071(13) 0.3359(9)
C10? C 0.5743(4) 0.5945(11) 0.2677(7)
C11? C 0.5857(4) 0.4464(14) 0.2383(9)
C12? C 0.5705(5) 0.3153(17) 0.2798(9)
C13? C 0.5465(4) 0.3360(14) 0.3472(9)
C14? C 0.5382(4) 0.7680(12) 0.3675(7)
C15? C 0.6120(6) 0.4289(17) 0.1655(9)
C16? C 0.5307(4) 0.1999(14) 0.3948(8)
N3? N 0.4702(3) 0.5292(11) 0.5946(5)
C17? C 0.4586(4) 0.4022(13) 0.6354(7)
C18? C 0.4351(4) 0.4181(12) 0.7037(8)
C19? C 0.4236(4) 0.5652(16) 0.7334(8)
C20? C 0.4373(5) 0.6902(17) 0.6910(10)
C21? C 0.4600(4) 0.6775(15) 0.6201(8)
C22? C 0.4723(5) 0.2453(13) 0.6063(8)
C23? C 0.3966(5) 0.5806(17) 0.8064(9)
C24? C 0.4752(5) 0.8175(13) 0.5723(9)
H12? H 0.5827 0.6835 0.2407
H13? H 0.5765 0.2153 0.2614
H14? H 0.5490 0.8474 0.3324
H15? H 0.5532 0.7818 0.4297
H16? H 0.5044 0.7757 0.3600
H17? H 0.5966 0.3520 0.1231
H18? H 0.6442 0.3969 0.1906
H19? H 0.6124 0.5269 0.1360
H20? H 0.4969 0.2035 0.3886
H21? H 0.5459 0.2028 0.4572
H22? H 0.5387 0.1037 0.3698
H23? H 0.4263 0.3302 0.7311
H24? H 0.4315 0.7889 0.7104
H25? H 0.4645 0.1686 0.6461
H26? H 0.5059 0.2428 0.6095
H27? H 0.4550 0.2244 0.5461
H28? H 0.4124 0.6511 0.8520
H29? H 0.3938 0.4817 0.8337
H30? H 0.3651 0.6193 0.7833
H31? H 0.4594 0.8148 0.5100
H32? H 0.5090 0.8146 0.5786
H33? H 0.4666 0.9115 0.5988
loop_
_geom_bond_atom_site_label_1
_geom_bond_atom_site_label_2
_geom_bond_site_symmetry_1
_geom_bond_site_symmetry_2
Br1 N1 1_555 1_555
N1 C1 1_555 1_555
C1 C2 1_555 1_555
C2 C3 1_555 1_555
C3 C4 1_555 1_555
C4 C5 1_555 1_555
C5 N1 1_555 1_555
C6 C1 1_555 1_555
C7 C3 1_555 1_555
C8 C5 1_555 1_555
H1 C2 1_555 1_555
H2 C4 1_555 1_555
H3 C6 1_555 1_555
H4 C6 1_555 1_555
H5 C6 1_555 1_555
H6 C7 1_555 1_555
H7 C7 1_555 1_555
H8 C7 1_555 1_555
H9 C8 1_555 1_555
H10 C8 1_555 1_555
H11 C8 1_555 1_555
Cl1 O1 1_555 1_555
O2 Cl1 1_555 1_555
O3 Cl1 1_555 1_555
O4 Cl1 1_555 1_555
N1E Br1 1_555 1_555
C1E N1E 1_555 1_555
C2E C1E 1_555 1_555
C3E C2E 1_555 1_555
C4E C3E 1_555 1_555
C5E N1E 1_555 1_555
C6E C1E 1_555 1_555
C7E C3E 1_555 1_555
C8E C5E 1_555 1_555
H1E C2E 1_555 1_555
H2E C4E 1_555 1_555
H3E C6E 1_555 1_555
H4E C6E 1_555 1_555
H5E C6E 1_555 1_555
H6E C7E 1_555 1_555
H7E C7E 1_555 1_555
H8E C7E 1_555 1_555
H9E C8E 1_555 1_555
H10E C8E 1_555 1_555
H11E C8E 1_555 1_555
C4E C5E 1_555 1_555

#END
