
#######################################################################
#
#                 Cambridge Crystallographic Data Centre
#                                CCDC 
#
#######################################################################
#
# If this CIF has been generated from an entry in the Cambridge 
# Structural Database, then it will include bibliographic, chemical, 
# crystal, experimental, refinement or atomic coordinate data resulting 
# from the CCDC's data processing and validation procedures.
#
#######################################################################

data_AKOXUT02
_chemical_formula_moiety         'C10 H10 Br1 N2 1+,C1 F3 O3 S1 1-'
_chemical_name_systematic        
'bis(pyridine)bromonium trifluoromethanesulfonate'
_symmetry_cell_setting           triclinic
_symmetry_space_group_name_H-M   'P -1'
_symmetry_Int_Tables_number      2
_space_group_name_Hall           '-P 1'
loop_
_symmetry_equiv_pos_site_id
_symmetry_equiv_pos_as_xyz
1 x,y,z
2 -x,-y,-z
_cell_length_a                   7.0831(3)
_cell_length_b                   10.6590(5)
_cell_length_c                   10.7667(4)
_cell_angle_alpha                95.913(3)
_cell_angle_beta                 104.240(4)
_cell_angle_gamma                104.692(4)
_cell_volume                     750.181
_exptl_crystal_colour            'pale colorless'
_exptl_crystal_description       lath
_cell_formula_units_Z            2
loop_
_atom_site_label
_atom_site_type_symbol
_atom_site_fract_x
_atom_site_fract_y
_atom_site_fract_z
C1 C 0.2986(7) 0.8453(5) 0.3400(4)
F1 F 0.3241(7) 0.9666(3) 0.3926(4)
F2 F 0.2962(6) 0.7760(4) 0.4330(3)
F3 F 0.4587(6) 0.8461(6) 0.3044(4)
S1 S 0.06621(14) 0.78547(8) 0.20650(8)
O1 O 0.0599(6) 0.6542(3) 0.1598(3)
O2 O 0.0984(5) 0.8755(3) 0.1199(3)
O3 O -0.0884(5) 0.7974(4) 0.2679(3)
Br1 Br 0.72318(5) 0.49850(3) 0.40925(3)
N1 N 0.6101(4) 0.3634(3) 0.2317(3)
C2 C 0.5151(5) 0.2371(3) 0.2273(4)
C3 C 0.4365(6) 0.1500(4) 0.1131(4)
C4 C 0.4560(6) 0.1934(4) 0.0001(4)
C5 C 0.5583(7) 0.3224(4) 0.0057(4)
C6 C 0.6342(6) 0.4057(4) 0.1231(4)
N2 N 0.8393(4) 0.6342(3) 0.5813(3)
C7 C 0.8564(6) 0.5941(4) 0.6962(3)
C8 C 0.9380(6) 0.6831(5) 0.8103(4)
C9 C 1.0028(6) 0.8141(4) 0.8062(4)
C10 C 0.9867(7) 0.8540(4) 0.6873(4)
C11 C 0.9035(6) 0.7617(4) 0.5758(4)
H1 H 0.5029 0.2087 0.3041
H2 H 0.3712 0.0622 0.1118
H3 H 0.3989 0.1371 -0.0788
H4 H 0.5759 0.3533 -0.0686
H5 H 0.7057 0.4934 0.1304
H6 H 0.8082 0.5039 0.6952
H7 H 0.9470 0.6528 0.8894
H8 H 1.0567 0.8762 0.8824
H9 H 1.0312 0.9427 0.6823
H10 H 0.8901 0.7876 0.4951
loop_
_geom_bond_atom_site_label_1
_geom_bond_atom_site_label_2
_geom_bond_site_symmetry_1
_geom_bond_site_symmetry_2
C1 F1 1_555 1_555
F2 C1 1_555 1_555
F3 C1 1_555 1_555
S1 C1 1_555 1_555
O1 S1 1_555 1_555
O2 S1 1_555 1_555
O3 S1 1_555 1_555
Br1 N1 1_555 1_555
N1 C2 1_555 1_555
C2 C3 1_555 1_555
C3 C4 1_555 1_555
C4 C5 1_555 1_555
C5 C6 1_555 1_555
C6 N1 1_555 1_555
N2 Br1 1_555 1_555
C7 N2 1_555 1_555
C8 C7 1_555 1_555
C9 C8 1_555 1_555
C10 C9 1_555 1_555
C11 N2 1_555 1_555
H1 C2 1_555 1_555
H2 C3 1_555 1_555
H3 C4 1_555 1_555
H4 C5 1_555 1_555
H5 C6 1_555 1_555
H6 C7 1_555 1_555
H7 C8 1_555 1_555
H8 C9 1_555 1_555
H9 C10 1_555 1_555
H10 C11 1_555 1_555
C10 C11 1_555 1_555

#END
