
#######################################################################
#
#                 Cambridge Crystallographic Data Centre
#                                CCDC 
#
#######################################################################
#
# If this CIF has been generated from an entry in the Cambridge 
# Structural Database, then it will include bibliographic, chemical, 
# crystal, experimental, refinement or atomic coordinate data resulting 
# from the CCDC's data processing and validation procedures.
#
#######################################################################

data_AKOZUV
_chemical_formula_moiety         'C17 H21 I1 O3'
_chemical_name_systematic        
5-ax-Iodomethyl-5-methyl-8-endo-phenyl-3,4,7-trioxabicyclo(7.2.1.0^2,8^)dodecane
_chemical_properties_biological  'antimalarial activity'
_symmetry_cell_setting           triclinic
_symmetry_space_group_name_H-M   'P -1'
_symmetry_Int_Tables_number      2
_space_group_name_Hall           '-P 1'
loop_
_symmetry_equiv_pos_site_id
_symmetry_equiv_pos_as_xyz
1 x,y,z
2 -x,-y,-z
_cell_length_a                   8.287(3)
_cell_length_b                   9.460(4)
_cell_length_c                   22.137(8)
_cell_angle_alpha                80.54(3)
_cell_angle_beta                 84.27(3)
_cell_angle_gamma                74.81(4)
_cell_volume                     1649.08
_chemical_melting_point          '89-90 deg.C'
_cell_formula_units_Z            4
_exptl_crystal_recrystallization_method 'hexanes/diethyl ether'
loop_
_atom_site_label
_atom_site_type_symbol
_atom_site_fract_x
_atom_site_fract_y
_atom_site_fract_z
I1 I 0.7571(1) 0.2112(1) 1.1736(1)
O1 O 0.7337(8) 0.4013(7) 1.0071(3)
O2 O 0.6125(8) 0.3144(7) 1.0290(3)
O3 O 0.8870(7) 0.1772(7) 0.9482(3)
C1 C 0.7232(12) 0.4405(10) 0.9427(4)
C2 C 0.7020(11) 0.1618(10) 1.0430(4)
C3 C 0.7782(1) 0.0980(9) 0.9835(4)
C4 C 0.8074(10) 0.3062(9) 0.9068(4)
C5 C 0.9555(11) 0.3577(11) 0.8702(4)
C6 C 0.8898(13) 0.4875(12) 0.8203(5)
C7 C 0.7999(17) 0.6146(12) 0.8565(6)
C8 C 0.8341(14) 0.5474(11) 0.9226(5)
C9 C 1.0084(13) 0.4408(12) 0.9163(5)
C10 C 0.8399(13) 0.1407(13) 1.0849(4)
C11 C 0.5623(15) 0.0878(12) 1.0693(5)
C12 C 0.6959(10) 0.2616(9) 0.8664(4)
C13 C 0.5243(11) 0.3181(10) 0.8649(4)
C14 C 0.4305(12) 0.2663(12) 0.8295(4)
C15 C 0.5082(15) 0.1518(12) 0.7958(4)
C16 C 0.6785(15) 0.0947(11) 0.7961(5)
C17 C 0.7722(13) 0.1485(10) 0.8320(4)
H1 H 0.6074 0.4855 0.9318
H2 H 0.8396 -0.0042 0.9942
H3 H 0.6879 0.0988 0.9586
H4 H 1.0452 0.2779 0.8559
H5 H 0.8126 0.4638 0.7957
H6 H 0.9812 0.5131 0.7937
H7 H 0.8460 0.7000 0.8443
H8 H 0.6807 0.6439 0.8505
H9 H 0.8261 0.6199 0.9504
H10 H 1.0425 0.3779 0.9545
H11 H 1.0942 0.4910 0.8991
H12 H 0.9194 0.1953 1.0649
H13 H 0.8984 0.0366 1.0911
H14 H 0.5157 0.1229 1.1071
H15 H 0.6069 -0.0175 1.0767
H16 H 0.4764 0.1114 1.0405
H17 H 0.4712 0.3925 0.8881
H18 H 0.3157 0.3075 0.8281
H19 H 0.4447 0.1143 0.7731
H20 H 0.7311 0.0207 0.7726
H21 H 0.8872 0.1081 0.8329
I2 I 0.8623(1) 0.8312(1) 0.3226(1)
O4 O 0.7450(7) 0.9042(6) 0.4829(3)
O5 O 0.6327(7) 0.8350(7) 0.4570(3)
O6 O 0.8560(7) 0.6383(6) 0.5467(3)
C18 C 0.6983(10) 0.9025(9) 0.5471(4)
C19 C 0.7257(1) 0.6887(9) 0.4474(4)
C20 C 0.7622(10) 0.5893(9) 0.5078(4)
C21 C 0.7635(10) 0.7442(9) 0.5849(4)
C22 C 0.8995(10) 0.7692(10) 0.6230(4)
C23 C 0.8143(11) 0.8619(11) 0.6736(4)
C24 C 0.7328(12) 1.0182(10) 0.6356(4)
C25 C 0.7987(12) 0.9956(10) 0.5695(4)
C26 C 0.9717(12) 0.8827(11) 0.5781(4)
C27 C 0.8893(11) 0.6900(10) 0.4099(4)
C28 C 0.6029(13) 0.6352(11) 0.4157(5)
C29 C 0.6309(10) 0.6818(9) 0.6256(4)
C30 C 0.4629(10) 0.7584(10) 0.6320(4)
C31 C 0.3523(11) 0.6956(12) 0.6727(4)
C32 C 0.4062(11) 0.5588(10) 0.7070(4)
C33 C 0.5739(12) 0.4815(10) 0.7012(4)
C34 C 0.6836(11) 0.5425(9) 0.6610(4)
H22 H 0.5775 0.9417 0.5546
H23 H 0.6567 0.5808 0.5294
H24 H 0.8231 0.4913 0.4994
H25 H 0.9830 0.6786 0.6375
H26 H 0.8954 0.8702 0.7007
H27 H 0.7294 0.8195 0.6977
H28 H 0.6114 1.0406 0.6396
H29 H 0.7698 1.0970 0.6486
H30 H 0.8027 1.0871 0.5420
H31 H 1.0219 0.8456 0.5405
H32 H 1.0500 0.9207 0.5966
H33 H 0.9441 0.5896 0.4028
H34 H 0.9618 0.7218 0.4338
H35 H 0.5066 0.6293 0.4430
H36 H 0.6561 0.5392 0.4046
H37 H 0.5686 0.7035 0.3794
H38 H 0.4247 0.8512 0.6093
H39 H 0.2405 0.7471 0.6767
H40 H 0.3312 0.5180 0.7339
H41 H 0.6115 0.3893 0.7244
H42 H 0.7951 0.4901 0.6571
loop_
_geom_bond_atom_site_label_1
_geom_bond_atom_site_label_2
_geom_bond_site_symmetry_1
_geom_bond_site_symmetry_2
I1 C10 1_555 1_555
O1 O2 1_555 1_555
O2 C2 1_555 1_555
O3 C3 1_555 1_555
C1 O1 1_555 1_555
C2 C3 1_555 1_555
C3 H2 1_555 1_555
C4 O3 1_555 1_555
C5 C4 1_555 1_555
C6 C5 1_555 1_555
C7 C6 1_555 1_555
C8 C1 1_555 1_555
C9 C5 1_555 1_555
C10 C2 1_555 1_555
C11 C2 1_555 1_555
C12 C4 1_555 1_555
C13 C12 1_555 1_555
C14 C13 1_555 1_555
C15 C14 1_555 1_555
C16 C15 1_555 1_555
C17 C12 1_555 1_555
I2 C27 1_555 1_555
O4 O5 1_555 1_555
O5 C19 1_555 1_555
O6 C20 1_555 1_555
C18 O4 1_555 1_555
C19 C20 1_555 1_555
C20 H23 1_555 1_555
C21 O6 1_555 1_555
C22 C21 1_555 1_555
C23 C22 1_555 1_555
C24 C23 1_555 1_555
C25 C18 1_555 1_555
C26 C22 1_555 1_555
C27 C19 1_555 1_555
C28 C19 1_555 1_555
C29 C21 1_555 1_555
C30 C29 1_555 1_555
C31 C30 1_555 1_555
C32 C31 1_555 1_555
C33 C32 1_555 1_555
C34 C29 1_555 1_555
H1 C1 1_555 1_555
H3 C3 1_555 1_555
H4 C5 1_555 1_555
H5 C6 1_555 1_555
H6 C6 1_555 1_555
H7 C7 1_555 1_555
H8 C7 1_555 1_555
H9 C8 1_555 1_555
H10 C9 1_555 1_555
H11 C9 1_555 1_555
H12 C10 1_555 1_555
H13 C10 1_555 1_555
H14 C11 1_555 1_555
H15 C11 1_555 1_555
H16 C11 1_555 1_555
H17 C13 1_555 1_555
H18 C14 1_555 1_555
H19 C15 1_555 1_555
H20 C16 1_555 1_555
H21 C17 1_555 1_555
H22 C18 1_555 1_555
H24 C20 1_555 1_555
H25 C22 1_555 1_555
H26 C23 1_555 1_555
H27 C23 1_555 1_555
H28 C24 1_555 1_555
H29 C24 1_555 1_555
H30 C25 1_555 1_555
H31 C26 1_555 1_555
H32 C26 1_555 1_555
H33 C27 1_555 1_555
H34 C27 1_555 1_555
H35 C28 1_555 1_555
H36 C28 1_555 1_555
H37 C28 1_555 1_555
H38 C30 1_555 1_555
H39 C31 1_555 1_555
H40 C32 1_555 1_555
H41 C33 1_555 1_555
H42 C34 1_555 1_555
C1 C4 1_555 1_555
C7 C8 1_555 1_555
C8 C9 1_555 1_555
C16 C17 1_555 1_555
C18 C21 1_555 1_555
C24 C25 1_555 1_555
C25 C26 1_555 1_555
C33 C34 1_555 1_555

#END
