
#######################################################################
#
#                 Cambridge Crystallographic Data Centre
#                                CCDC 
#
#######################################################################
#
# If this CIF has been generated from an entry in the Cambridge 
# Structural Database, then it will include bibliographic, chemical, 
# crystal, experimental, refinement or atomic coordinate data resulting 
# from the CCDC's data processing and validation procedures.
#
#######################################################################

data_AKUCEQ
_chemical_formula_moiety         'C15 H10 N2 O2'
_chemical_name_systematic        
9-methyl-6H-chromeno[4',3':4,5]imidazo[1,2-a]pyridin-6-one
_symmetry_cell_setting           monoclinic
_symmetry_space_group_name_H-M   'P 21/n'
_symmetry_Int_Tables_number      14
_space_group_name_Hall           '-P 2yn'
loop_
_symmetry_equiv_pos_site_id
_symmetry_equiv_pos_as_xyz
1 x,y,z
2 1/2-x,1/2+y,1/2-z
3 -x,-y,-z
4 1/2+x,1/2-y,1/2+z
_cell_length_a                   5.4955(15)
_cell_length_b                   8.697(2)
_cell_length_c                   24.108(7)
_cell_angle_alpha                90
_cell_angle_beta                 91.925(4)
_cell_angle_gamma                90
_cell_volume                     1151.58
_exptl_crystal_colour            'light yellow'
_exptl_crystal_description       block
_cell_formula_units_Z            4
loop_
_atom_site_label
_atom_site_type_symbol
_atom_site_fract_x
_atom_site_fract_y
_atom_site_fract_z
O1 O 0.1777(2) 0.76568(16) 0.13930(5)
O2 O 0.0557(2) 0.90153(16) 0.06539(6)
N1 N 0.4759(2) 0.75881(16) 0.00464(6)
N2 N 0.7391(3) 0.59501(18) 0.04903(6)
C1 C 0.4024(3) 0.74213(19) 0.05853(7)
C2 C 0.5384(3) 0.6022(2) 0.14113(7)
C3 C 0.5674(3) 0.6427(2) 0.08390(7)
C4 C 0.3382(3) 0.6657(2) 0.16661(8)
C5 C 0.4892(3) 0.8341(2) -0.08897(7)
C6 C 0.3807(3) 0.8413(2) -0.03953(7)
H1 H 0.2427 0.9016 -0.0355
C7 C 0.6817(3) 0.6668(2) 0.00074(7)
C8 C 0.2012(3) 0.8113(2) 0.08442(8)
C9 C 0.7964(3) 0.6608(2) -0.05022(8)
H2 H 0.9356 0.6016 -0.0543
C10 C 0.7010(3) 0.7430(2) -0.09367(8)
H3 H 0.7771 0.7392 -0.1275
C11 C 0.6903(4) 0.5035(2) 0.17202(8)
H4 H 0.8260 0.4608 0.1559
C12 C 0.2878(4) 0.6313(3) 0.22093(8)
H5 H 0.1532 0.6743 0.2374
C13 C 0.3847(4) 0.9199(2) -0.13849(8)
H6 H 0.3152 0.8481 -0.1648
H7 H 0.5115 0.9772 -0.1555
H8 H 0.2606 0.9893 -0.1267
C14 C 0.4395(4) 0.5326(3) 0.25031(9)
H9 H 0.4063 0.5083 0.2869
C15 C 0.6411(4) 0.4690(3) 0.22603(9)
H10 H 0.7430 0.4029 0.2463
loop_
_geom_bond_atom_site_label_1
_geom_bond_atom_site_label_2
_geom_bond_site_symmetry_1
_geom_bond_site_symmetry_2
O1 C4 1_555 1_555
O2 C8 1_555 1_555
N1 C1 1_555 1_555
N2 C3 1_555 1_555
C1 C3 1_555 1_555
C2 C3 1_555 1_555
C4 C2 1_555 1_555
C5 C6 1_555 1_555
C6 N1 1_555 1_555
H1 C6 1_555 1_555
C7 N1 1_555 1_555
C8 O1 1_555 1_555
C9 C7 1_555 1_555
H2 C9 1_555 1_555
C10 C5 1_555 1_555
H3 C10 1_555 1_555
C11 C2 1_555 1_555
H4 C11 1_555 1_555
C12 C4 1_555 1_555
H5 C12 1_555 1_555
C13 C5 1_555 1_555
H6 C13 1_555 1_555
H7 C13 1_555 1_555
H8 C13 1_555 1_555
C14 C12 1_555 1_555
H9 C14 1_555 1_555
C15 C11 1_555 1_555
H10 C15 1_555 1_555
N2 C7 1_555 1_555
C1 C8 1_555 1_555
C9 C10 1_555 1_555
C14 C15 1_555 1_555

#END
