
#######################################################################
#
#                 Cambridge Crystallographic Data Centre
#                                CCDC 
#
#######################################################################
#
# If this CIF has been generated from an entry in the Cambridge 
# Structural Database, then it will include bibliographic, chemical, 
# crystal, experimental, refinement or atomic coordinate data resulting 
# from the CCDC's data processing and validation procedures.
#
#######################################################################

data_AKUCOA
_chemical_formula_moiety         'C30 H14 O2 S2'
_chemical_name_systematic        
2,6-bis(1-benzothiophen-2-ylethynyl)furo[2,3-f][1]benzofuran
_symmetry_cell_setting           monoclinic
_symmetry_space_group_name_H-M   'C 2/c'
_symmetry_Int_Tables_number      15
_space_group_name_Hall           '-C 2yn'
loop_
_symmetry_equiv_pos_site_id
_symmetry_equiv_pos_as_xyz
1 x,y,z
2 -x,y,1/2-z
3 1/2+x,1/2+y,z
4 1/2-x,1/2+y,1/2-z
5 -x,-y,-z
6 x,-y,1/2+z
7 1/2-x,1/2-y,-z
8 1/2+x,1/2-y,1/2+z
_cell_length_a                   14.876(2)
_cell_length_b                   5.7383(8)
_cell_length_c                   25.593(3)
_cell_angle_alpha                90
_cell_angle_beta                 96.302(3)
_cell_angle_gamma                90
_cell_volume                     2171.49
_exptl_crystal_colour            yellow
_exptl_crystal_description       prismatic
_cell_formula_units_Z            4
loop_
_atom_site_label
_atom_site_type_symbol
_atom_site_fract_x
_atom_site_fract_y
_atom_site_fract_z
S1 S 0.13426(4) 0.13121(13) 0.34051(3)
O1 O -0.0855(14) 0.801(2) 0.4700(8)
C1 C -0.1456(10) 0.481(4) 0.4483(9)
H1 H -0.1546 0.3313 0.4347
C2 C -0.20727(16) 0.9669(4) 0.51608(9)
H2 H -0.1800 1.1076 0.5266
C3 C -0.16534(15) 0.8025(4) 0.48825(9)
C4 C -0.20720(15) 0.5920(4) 0.47274(8)
C5 C -0.07139(17) 0.5994(5) 0.44479(9)
C6 C 0.00369(16) 0.5319(5) 0.42024(9)
C7 C 0.06668(17) 0.4731(5) 0.39853(10)
C8 C 0.14088(17) 0.3973(5) 0.37258(9)
C9 C 0.22059(15) 0.5101(4) 0.36974(9)
H3 H 0.2345 0.6558 0.3844
C10 C 0.28062(15) 0.3758(4) 0.34128(8)
C11 C 0.24206(15) 0.1649(4) 0.32281(8)
C12 C 0.28845(17) 0.0111(5) 0.29389(9)
H4 H 0.2621 -0.1283 0.2817
C13 C 0.37390(18) 0.0688(5) 0.28368(10)
H5 H 0.4059 -0.0327 0.2643
C14 C 0.41340(17) 0.2744(5) 0.30163(10)
H6 H 0.4718 0.3093 0.2943
C15 C 0.36843(17) 0.4286(5) 0.33012(10)
H7 H 0.3959 0.5673 0.3420
S1F S -0.63426(4) 1.36879(13) 0.65949(3)
O1F O -0.4145(14) 0.699(2) 0.5300(8)
C1F C -0.3544(10) 1.019(4) 0.5517(9)
H1F H -0.3454 1.1687 0.5653
C2F C -0.29273(16) 0.5331(4) 0.48392(9)
H2F H -0.3200 0.3924 0.4734
C3F C -0.33466(15) 0.6975(4) 0.51175(9)
C4F C -0.29280(15) 0.9080(4) 0.52726(8)
C5F C -0.42861(17) 0.9006(5) 0.55521(9)
C6F C -0.50369(16) 0.9681(5) 0.57976(9)
C7F C -0.56668(17) 1.0269(5) 0.60147(10)
C8F C -0.64088(17) 1.1027(5) 0.62742(9)
C9F C -0.72059(15) 0.9899(4) 0.63026(9)
H3F H -0.7345 0.8442 0.6156
C10F C -0.78062(15) 1.1242(4) 0.65872(8)
C11F C -0.74206(15) 1.3351(4) 0.67719(8)
C12F C -0.78845(17) 1.4889(5) 0.70611(9)
H4F H -0.7621 1.6283 0.7183
C13F C -0.87390(18) 1.4312(5) 0.71632(10)
H5F H -0.9059 1.5327 0.7357
C14F C -0.91340(17) 1.2256(5) 0.69837(10)
H6F H -0.9718 1.1907 0.7057
C15F C -0.86843(17) 1.0714(5) 0.66988(10)
H7F H -0.8959 0.9327 0.6580
O2? O -0.1470(7) 0.461(3) 0.4435(7)
C16? C -0.071(3) 0.807(5) 0.4700(18)
H8? H -0.0263 0.9207 0.4748
loop_
_geom_bond_atom_site_label_1
_geom_bond_atom_site_label_2
_geom_bond_site_symmetry_1
_geom_bond_site_symmetry_2
S1 C8 1_555 1_555
O1 C3 1_555 1_555
C1 H1 1_555 1_555
C2 H2 1_555 1_555
C3 C2 1_555 1_555
C4 C1 1_555 1_555
C5 O1 1_555 1_555
C6 C5 1_555 1_555
C7 C6 1_555 1_555
C8 C7 1_555 1_555
C9 C8 1_555 1_555
H3 C9 1_555 1_555
C10 C9 1_555 1_555
C11 S1 1_555 1_555
C12 C11 1_555 1_555
H4 C12 1_555 1_555
C13 C12 1_555 1_555
H5 C13 1_555 1_555
C14 C13 1_555 1_555
H6 C14 1_555 1_555
C15 C10 1_555 1_555
H7 C15 1_555 1_555
S1F C8F 1_555 1_555
O1F C3F 1_555 1_555
C1F H1F 1_555 1_555
C2F C4 1_555 1_555
H2F C2F 1_555 1_555
C3F C2F 1_555 1_555
C4F C2 1_555 1_555
C5F O1F 1_555 1_555
C6F C5F 1_555 1_555
C7F C6F 1_555 1_555
C8F C7F 1_555 1_555
C9F C8F 1_555 1_555
H3F C9F 1_555 1_555
C10F C9F 1_555 1_555
C11F S1F 1_555 1_555
C12F C11F 1_555 1_555
H4F C12F 1_555 1_555
C13F C12F 1_555 1_555
H5F C13F 1_555 1_555
C14F C13F 1_555 1_555
H6F C14F 1_555 1_555
C15F C10F 1_555 1_555
H7F C15F 1_555 1_555
C1 C5 1_555 1_555
C3 C4 1_555 1_555
C10 C11 1_555 1_555
C14 C15 1_555 1_555
C1F C4F 1_555 1_555
C1F C5F 1_555 1_555
C3F C4F 1_555 1_555
C10F C11F 1_555 1_555
C14F C15F 1_555 1_555

#END
