
#######################################################################
#
#                 Cambridge Crystallographic Data Centre
#                                CCDC 
#
#######################################################################
#
# If this CIF has been generated from an entry in the Cambridge 
# Structural Database, then it will include bibliographic, chemical, 
# crystal, experimental, refinement or atomic coordinate data resulting 
# from the CCDC's data processing and validation procedures.
#
#######################################################################

data_AKUFUJ
_chemical_formula_moiety         'C26 H22 O2 S1'
_chemical_name_systematic        '6-benzylbiphenyl-2-yl 4-methylphenyl sulfone'
_symmetry_cell_setting           monoclinic
_symmetry_space_group_name_H-M   'C 2/c'
_symmetry_Int_Tables_number      15
_space_group_name_Hall           '-C 2yn'
loop_
_symmetry_equiv_pos_site_id
_symmetry_equiv_pos_as_xyz
1 x,y,z
2 -x,y,1/2-z
3 1/2+x,1/2+y,z
4 1/2-x,1/2+y,1/2-z
5 -x,-y,-z
6 x,-y,1/2+z
7 1/2-x,1/2-y,-z
8 1/2+x,1/2-y,1/2+z
_cell_length_a                   34.459(3)
_cell_length_b                   6.7887(7)
_cell_length_c                   18.2939(18)
_cell_angle_alpha                90
_cell_angle_beta                 93.152(2)
_cell_angle_gamma                90
_cell_volume                     4273.05
_exptl_crystal_colour            colorless
_exptl_crystal_description       block
_cell_formula_units_Z            8
loop_
_atom_site_label
_atom_site_type_symbol
_atom_site_fract_x
_atom_site_fract_y
_atom_site_fract_z
C1 C 0.13784(5) 0.1333(3) 0.01934(9)
C2 C 0.15730(6) 0.2772(3) -0.01857(11)
H1 H 0.1458 0.3323 -0.0610
C3 C 0.19370(6) 0.3378(3) 0.00707(13)
H2 H 0.2069 0.4340 -0.0180
C4 C 0.21043(5) 0.2559(3) 0.06948(12)
H3 H 0.2352 0.2966 0.0859
C5 C 0.19149(5) 0.1132(3) 0.10918(9)
C6 C 0.15427(4) 0.0513(2) 0.08457(8)
C7 C 0.05620(5) 0.1303(3) 0.03833(9)
C8 C 0.04612(6) 0.3274(3) 0.04229(13)
H4 H 0.0591 0.4217 0.0159
C9 C 0.01661(7) 0.3813(4) 0.08586(15)
H5 H 0.0098 0.5135 0.0889
C10 C -0.00308(6) 0.2447(4) 0.12501(12)
C11 C 0.00748(6) 0.0516(4) 0.12029(12)
H6 H -0.0056 -0.0424 0.1466
C12 C 0.03720(6) -0.0076(3) 0.07729(11)
H7 H 0.0441 -0.1398 0.0750
C13 C -0.03620(7) 0.3096(6) 0.17021(16)
H8 H -0.0601 0.3064 0.1406
H9 H -0.0315 0.4413 0.1876
H10 H -0.0381 0.2224 0.2112
C14 C 0.21249(5) 0.0287(3) 0.17728(10)
H11 H 0.2174 0.1336 0.2126
H12 H 0.1959 -0.0677 0.1991
C15 C 0.25064(5) -0.0679(3) 0.16117(9)
C16 C 0.25165(6) -0.2266(3) 0.11483(12)
H13 H 0.2285 -0.2740 0.0931
C17 C 0.28587(7) -0.3173(3) 0.09963(15)
H14 H 0.2856 -0.4242 0.0678
C18 C 0.31999(7) -0.2516(4) 0.13079(15)
H15 H 0.3431 -0.3143 0.1210
C19 C 0.32022(6) -0.0931(4) 0.17653(14)
H16 H 0.3436 -0.0460 0.1974
C20 C 0.28542(6) -0.0016(3) 0.19203(12)
H17 H 0.2858 0.1058 0.2236
C21 C 0.13343(5) -0.0947(2) 0.12876(9)
C22 C 0.11641(6) -0.0353(3) 0.19162(10)
H18 H 0.1171 0.0964 0.2057
C23 C 0.09809(7) -0.1746(5) 0.23392(13)
H19 H 0.0861 -0.1365 0.2760
C24 C 0.09793(8) -0.3708(6) 0.2126(2)
H20 H 0.0856 -0.4641 0.2404
C25 C 0.11549(8) -0.4273(4) 0.1518(2)
H21 H 0.1156 -0.5596 0.1386
C26 C 0.13298(6) -0.2924(3) 0.10993(13)
H22 H 0.1448 -0.3332 0.0680
O1 O 0.09170(4) -0.1521(3) -0.02679(8)
O2 O 0.08579(5) 0.1715(4) -0.08676(8)
S1 S 0.091974(13) 0.05753(9) -0.02127(2)
loop_
_geom_bond_atom_site_label_1
_geom_bond_atom_site_label_2
_geom_bond_site_symmetry_1
_geom_bond_site_symmetry_2
C1 C2 1_555 1_555
C2 H1 1_555 1_555
C3 C2 1_555 1_555
H2 C3 1_555 1_555
C4 C3 1_555 1_555
H3 C4 1_555 1_555
C5 C4 1_555 1_555
C6 C1 1_555 1_555
C7 C8 1_555 1_555
C8 H4 1_555 1_555
C9 C8 1_555 1_555
H5 C9 1_555 1_555
C10 C9 1_555 1_555
C11 C10 1_555 1_555
H6 C11 1_555 1_555
C12 C7 1_555 1_555
H7 C12 1_555 1_555
C13 C10 1_555 1_555
H8 C13 1_555 1_555
H9 C13 1_555 1_555
H10 C13 1_555 1_555
C14 C5 1_555 1_555
H11 C14 1_555 1_555
H12 C14 1_555 1_555
C15 C14 1_555 1_555
C16 C15 1_555 1_555
H13 C16 1_555 1_555
C17 C16 1_555 1_555
H14 C17 1_555 1_555
C18 C17 1_555 1_555
H15 C18 1_555 1_555
C19 C18 1_555 1_555
H16 C19 1_555 1_555
C20 C15 1_555 1_555
H17 C20 1_555 1_555
C21 C6 1_555 1_555
C22 C21 1_555 1_555
H18 C22 1_555 1_555
C23 C22 1_555 1_555
H19 C23 1_555 1_555
C24 C23 1_555 1_555
H20 C24 1_555 1_555
C25 C24 1_555 1_555
H21 C25 1_555 1_555
C26 C21 1_555 1_555
H22 C26 1_555 1_555
O1 S1 1_555 1_555
O2 S1 1_555 1_555
S1 C1 1_555 1_555
C5 C6 1_555 1_555
C7 S1 1_555 1_555
C11 C12 1_555 1_555
C19 C20 1_555 1_555
C25 C26 1_555 1_555

#END
