
#######################################################################
#
#                 Cambridge Crystallographic Data Centre
#                                CCDC 
#
#######################################################################
#
# If this CIF has been generated from an entry in the Cambridge 
# Structural Database, then it will include bibliographic, chemical, 
# crystal, experimental, refinement or atomic coordinate data resulting 
# from the CCDC's data processing and validation procedures.
#
#######################################################################

data_AKUNUQ
_chemical_formula_moiety         'C8 H7 F3 N2 O2'
_chemical_name_systematic        2,3,5-Trifluoro-N,N-dimethyl-4-nitroaniline
_symmetry_cell_setting           monoclinic
_symmetry_space_group_name_H-M   'P 21/n'
_symmetry_Int_Tables_number      14
_space_group_name_Hall           '-P 2yn'
loop_
_symmetry_equiv_pos_site_id
_symmetry_equiv_pos_as_xyz
1 x,y,z
2 1/2-x,1/2+y,1/2-z
3 -x,-y,-z
4 1/2+x,1/2-y,1/2+z
_cell_length_a                   8.0491(4)
_cell_length_b                   9.1029(4)
_cell_length_c                   11.7075(5)
_cell_angle_alpha                90
_cell_angle_beta                 94.49(3)
_cell_angle_gamma                90
_cell_volume                     855.178
_exptl_crystal_colour            yellow
_exptl_crystal_description       prism
_cell_formula_units_Z            4
loop_
_atom_site_label
_atom_site_type_symbol
_atom_site_fract_x
_atom_site_fract_y
_atom_site_fract_z
F1 F 0.04010(17) 1.00797(15) 0.74485(11)
F2 F 0.14497(17) 0.78491(14) 0.63839(11)
F3 F 0.24461(19) 1.32943(14) 0.46604(12)
O1 O -0.0141(2) 1.2846(2) 0.74964(16)
O2 O 0.1201(3) 1.43063(19) 0.64518(16)
N1 N 0.0776(2) 1.3071(2) 0.67208(17)
N2 N 0.3164(2) 0.8170(2) 0.43262(16)
C1 C 0.1391(3) 1.1820(2) 0.61197(19)
C2 C 0.1194(3) 1.0378(3) 0.65049(18)
C3 C 0.1777(3) 0.9185(2) 0.59405(19)
C4 C 0.2605(3) 0.9322(2) 0.49187(18)
C5 C 0.2782(3) 1.0782(3) 0.45342(19)
H1 H 0.327(3) 1.097(2) 0.3865(19)
C6 C 0.2206(3) 1.1953(2) 0.5111(2)
C7 C 0.3268(4) 0.6662(3) 0.4762(3)
C8 C 0.3836(3) 0.8448(3) 0.3212(2)
H2 H 0.492(3) 0.896(3) 0.333(2)
H3 H 0.302(3) 0.895(3) 0.272(2)
H4 H 0.402(4) 0.763(3) 0.285(3)
H5 H 0.228(4) 0.621(3) 0.474(2)
H6 H 0.395(4) 0.621(3) 0.431(3)
H7 H 0.376(4) 0.665(3) 0.557(3)
loop_
_geom_bond_atom_site_label_1
_geom_bond_atom_site_label_2
_geom_bond_site_symmetry_1
_geom_bond_site_symmetry_2
F1 C2 1_555 1_555
F2 C3 1_555 1_555
F3 C6 1_555 1_555
O1 N1 1_555 1_555
O2 N1 1_555 1_555
N1 C1 1_555 1_555
N2 C4 1_555 1_555
C1 C2 1_555 1_555
C2 C3 1_555 1_555
C3 C4 1_555 1_555
C4 C5 1_555 1_555
C5 H1 1_555 1_555
C6 C1 1_555 1_555
C7 N2 1_555 1_555
C8 N2 1_555 1_555
H2 C8 1_555 1_555
H3 C8 1_555 1_555
H4 C8 1_555 1_555
H5 C7 1_555 1_555
H6 C7 1_555 1_555
H7 C7 1_555 1_555
C5 C6 1_555 1_555

#END
