
#######################################################################
#
#                 Cambridge Crystallographic Data Centre
#                                CCDC 
#
#######################################################################
#
# If this CIF has been generated from an entry in the Cambridge 
# Structural Database, then it will include bibliographic, chemical, 
# crystal, experimental, refinement or atomic coordinate data resulting 
# from the CCDC's data processing and validation procedures.
#
#######################################################################

data_AKUPAX
_chemical_formula_moiety         'C47 H91 Ca2 N1 O8 Si2'
_chemical_name_systematic        
(\m~2~-2,2,6,6-Tetramethylheptane-3,5-dionato-O,O,O',O')-(\m~2~-bis(trimethylsilyl)amido-N,N)-bis(2,2,6,6-tetramethylheptane-3,5-dionato-O,O')-bis(tetrahydrofuran)-di-calcium
_symmetry_cell_setting           monoclinic
_symmetry_space_group_name_H-M   'P 21/n'
_symmetry_Int_Tables_number      14
_space_group_name_Hall           '-P 2yn'
loop_
_symmetry_equiv_pos_site_id
_symmetry_equiv_pos_as_xyz
1 x,y,z
2 1/2+x,1/2-y,1/2+z
3 -x,-y,-z
4 1/2-x,1/2+y,1/2-z
_cell_length_a                   12.70910(20)
_cell_length_b                   24.32610(40)
_cell_length_c                   18.65350(20)
_cell_angle_alpha                90
_cell_angle_beta                 97.7078(10)
_cell_angle_gamma                90
_cell_volume                     5714.86
_exptl_crystal_colour            colorless
_exptl_crystal_description       irregular
_chemical_melting_point          '74 deg.C(dec.)'
_cell_formula_units_Z            4
loop_
_atom_site_label
_atom_site_type_symbol
_atom_site_fract_x
_atom_site_fract_y
_atom_site_fract_z
Ca1 Ca 0.00798(4) 0.31980(2) 0.18451(3)
O1 O -0.08855(16) 0.24049(9) 0.12958(11)
C1 C -0.0932(3) 0.23518(18) 0.05273(19)
H1 H -0.1680 0.2364 0.0295
H2 H -0.0541 0.2657 0.0332
C2 C -0.0464(6) 0.1840(3) 0.0384(3)
H3 H 0.0315 0.1875 0.0399
H4 H -0.0770 0.1694 -0.0094
C3 C -0.0734(6) 0.1486(2) 0.0975(5)
H5 H -0.0166 0.1212 0.1110
H6 H -0.1408 0.1288 0.0823
C4 C -0.0847(3) 0.18670(13) 0.1615(2)
H7 H -0.1506 0.1787 0.1824
H8 H -0.0231 0.1831 0.1998
Ca2 Ca -0.11224(4) 0.42903(2) 0.25001(3)
O2 O -0.05192(18) 0.52081(8) 0.28417(12)
C5 C -0.0764(3) 0.56575(13) 0.2334(2)
H9 H -0.1279 0.5536 0.1919
H10 H -0.0112 0.5786 0.2150
C6 C -0.1233(4) 0.61124(17) 0.2740(2)
H11 H -0.0746 0.6431 0.2806
H12 H -0.1922 0.6234 0.2477
C7 C -0.1378(4) 0.5863(2) 0.3456(3)
H13 H -0.1244 0.6139 0.3848
H14 H -0.2108 0.5719 0.3447
C8 C -0.0587(3) 0.54098(16) 0.35677(19)
H15 H 0.0110 0.5548 0.3798
H16 H -0.0830 0.5116 0.3875
Si1 Si 0.17195(6) 0.42226(3) 0.26571(4)
C9 C 0.2224(3) 0.47228(15) 0.33894(18)
H17 H 0.2421 0.4524 0.3845
H18 H 0.1666 0.4991 0.3450
H19 H 0.2847 0.4915 0.3256
C10 C 0.2894(2) 0.37949(14) 0.24859(18)
H20 H 0.2670 0.3526 0.2105
H21 H 0.3180 0.3602 0.2931
H22 H 0.3443 0.4034 0.2333
C11 C 0.1373(2) 0.46405(13) 0.18126(16)
H23 H 0.1103 0.4397 0.1411
H24 H 0.2008 0.4832 0.1698
H25 H 0.0827 0.4911 0.1888
Si2 Si 0.07228(7) 0.34990(4) 0.36544(4)
C12 C 0.2070(3) 0.3221(2) 0.4011(2)
H26 H 0.2586 0.3522 0.4067
H27 H 0.2284 0.2949 0.3671
H28 H 0.2042 0.3046 0.4481
C13 C -0.0167(3) 0.28808(17) 0.35756(18)
H29 H 0.0029 0.2637 0.3197
H30 H -0.0906 0.2998 0.3451
H31 H -0.0088 0.2684 0.4038
C14 C 0.0304(4) 0.3939(2) 0.43959(17)
H32 H 0.0751 0.4268 0.4457
H33 H 0.0383 0.3730 0.4849
H34 H -0.0440 0.4047 0.4268
N1 N 0.06513(16) 0.38390(9) 0.28450(10)
C15 C -0.3437(2) 0.29702(12) 0.18474(15)
C16 C -0.2475(2) 0.33053(11) 0.17011(13)
C17 C -0.2477(2) 0.35744(12) 0.10288(14)
H35 H -0.3066 0.3513 0.0667
C18 C -0.1682(2) 0.39201(11) 0.08624(12)
C19 C -0.1733(2) 0.42232(13) 0.01385(14)
C20 C -0.3724(3) 0.25403(13) 0.12458(18)
H36 H -0.4343 0.2329 0.1348
H37 H -0.3122 0.2292 0.1228
H38 H -0.3891 0.2727 0.0779
C21 C -0.3205(3) 0.26750(14) 0.25789(17)
H39 H -0.3829 0.2461 0.2666
H40 H -0.3043 0.2947 0.2965
H41 H -0.2597 0.2428 0.2573
C22 C -0.4378(3) 0.33649(14) 0.1859(2)
H42 H -0.5006 0.3157 0.1952
H43 H -0.4526 0.3551 0.1391
H44 H -0.4203 0.3638 0.2242
C23 C -0.0871(3) 0.39820(16) -0.02646(15)
H45 H -0.0877 0.4171 -0.0729
H46 H -0.1006 0.3589 -0.0351
H47 H -0.0176 0.4030 0.0027
C24 C -0.1487(3) 0.48313(14) 0.03012(18)
H48 H -0.2035 0.4988 0.0563
H49 H -0.1475 0.5031 -0.0154
H50 H -0.0793 0.4863 0.0598
C25 C -0.2811(3) 0.41617(18) -0.03335(16)
H51 H -0.3369 0.4317 -0.0079
H52 H -0.2957 0.3771 -0.0432
H53 H -0.2797 0.4357 -0.0791
O3 O -0.17046(13) 0.33477(7) 0.22101(9)
O4 O -0.08267(13) 0.40124(7) 0.13104(8)
C26 C 0.2698(2) 0.18510(12) 0.22889(19)
C27 C 0.2071(2) 0.23227(11) 0.18795(16)
C28 C 0.2376(2) 0.25095(12) 0.12249(16)
H54 H 0.2952 0.2324 0.1053
C29 C 0.1915(2) 0.29397(11) 0.08058(14)
C30 C 0.2386(3) 0.31305(13) 0.01253(16)
C31 C 0.2103(3) 0.1639(2) 0.2884(3)
H55 H 0.2507 0.1340 0.3143
H56 H 0.1405 0.1503 0.2672
H57 H 0.2013 0.1938 0.3223
C32 C 0.3757(3) 0.20800(17) 0.2647(2)
H58 H 0.4169 0.1785 0.2909
H59 H 0.3628 0.2373 0.2985
H60 H 0.4153 0.2229 0.2275
C33 C 0.2895(5) 0.13842(17) 0.1782(3)
H61 H 0.3297 0.1092 0.2058
H62 H 0.3301 0.1522 0.1409
H63 H 0.2214 0.1238 0.1553
C34 C 0.3375(3) 0.28226(18) -0.0015(2)
H64 H 0.3937 0.2877 0.0393
H65 H 0.3614 0.2962 -0.0459
H66 H 0.3214 0.2430 -0.0070
C35 C 0.2631(4) 0.37394(16) 0.0221(2)
H67 H 0.1987 0.3936 0.0307
H68 H 0.2879 0.3883 -0.0218
H69 H 0.3184 0.3792 0.0634
C36 C 0.1519(4) 0.3038(2) -0.05254(19)
H70 H 0.0874 0.3237 -0.0446
H71 H 0.1361 0.2645 -0.0576
H72 H 0.1770 0.3174 -0.0967
O5 O 0.11052(15) 0.32079(8) 0.09422(9)
O6 O 0.13238(15) 0.25310(8) 0.21766(10)
C37 C -0.4353(2) 0.51891(12) 0.17833(16)
C38 C -0.3506(2) 0.48672(11) 0.22909(14)
C39 C -0.3720(2) 0.47251(12) 0.29843(15)
H73 H -0.4390 0.4832 0.3112
C40 C -0.3035(2) 0.44399(11) 0.35057(14)
C41 C -0.3371(3) 0.43144(14) 0.42522(16)
C42 C -0.4678(5) 0.4849(2) 0.1128(2)
H74 H -0.4996 0.4505 0.1269
H75 H -0.4054 0.4765 0.0890
H76 H -0.5198 0.5051 0.0792
C43 C -0.5338(3) 0.5343(2) 0.2111(2)
H77 H -0.5681 0.5008 0.2259
H78 H -0.5830 0.5541 0.1752
H79 H -0.5141 0.5578 0.2534
C44 C -0.3859(4) 0.5716(2) 0.1578(4)
H80 H -0.3213 0.5635 0.1364
H81 H -0.3678 0.5944 0.2010
H82 H -0.4363 0.5914 0.1226
C45 C -0.3164(4) 0.37114(18) 0.4418(2)
H83 H -0.3373 0.3624 0.4892
H84 H -0.2407 0.3633 0.4424
H85 H -0.3579 0.3487 0.4046
C46 C -0.4537(4) 0.4435(2) 0.4300(2)
H86 H -0.4683 0.4824 0.4195
H87 H -0.4693 0.4350 0.4789
H88 H -0.4985 0.4208 0.3948
C47 C -0.2669(5) 0.4659(2) 0.4794(2)
H89 H -0.2806 0.5049 0.4690
H90 H -0.1923 0.4576 0.4760
H91 H -0.2824 0.4575 0.5283
O7 O -0.26637(14) 0.47475(8) 0.20401(9)
O8 O -0.21167(16) 0.42789(8) 0.34170(9)
loop_
_geom_bond_atom_site_label_1
_geom_bond_atom_site_label_2
_geom_bond_site_symmetry_1
_geom_bond_site_symmetry_2
Ca1 O1 1_555 1_555
O1 C1 1_555 1_555
C1 H1 1_555 1_555
H2 C1 1_555 1_555
C2 C1 1_555 1_555
H3 C2 1_555 1_555
H4 C2 1_555 1_555
C3 C2 1_555 1_555
H5 C3 1_555 1_555
H6 C3 1_555 1_555
C4 O1 1_555 1_555
H7 C4 1_555 1_555
H8 C4 1_555 1_555
Ca2 O2 1_555 1_555
O2 C5 1_555 1_555
C5 H9 1_555 1_555
H10 C5 1_555 1_555
C6 C5 1_555 1_555
H11 C6 1_555 1_555
H12 C6 1_555 1_555
C7 C6 1_555 1_555
H13 C7 1_555 1_555
H14 C7 1_555 1_555
C8 O2 1_555 1_555
H15 C8 1_555 1_555
H16 C8 1_555 1_555
Si1 C9 1_555 1_555
C9 H17 1_555 1_555
H18 C9 1_555 1_555
H19 C9 1_555 1_555
C10 Si1 1_555 1_555
H20 C10 1_555 1_555
H21 C10 1_555 1_555
H22 C10 1_555 1_555
C11 Si1 1_555 1_555
H23 C11 1_555 1_555
H24 C11 1_555 1_555
H25 C11 1_555 1_555
Si2 C12 1_555 1_555
C12 H26 1_555 1_555
H27 C12 1_555 1_555
H28 C12 1_555 1_555
C13 Si2 1_555 1_555
H29 C13 1_555 1_555
H30 C13 1_555 1_555
H31 C13 1_555 1_555
C14 Si2 1_555 1_555
H32 C14 1_555 1_555
H33 C14 1_555 1_555
H34 C14 1_555 1_555
N1 Ca1 1_555 1_555
C15 C16 1_555 1_555
C16 C17 1_555 1_555
C17 H35 1_555 1_555
C18 C17 1_555 1_555
C19 C18 1_555 1_555
C20 C15 1_555 1_555
H36 C20 1_555 1_555
H37 C20 1_555 1_555
H38 C20 1_555 1_555
C21 C15 1_555 1_555
H39 C21 1_555 1_555
H40 C21 1_555 1_555
H41 C21 1_555 1_555
C22 C15 1_555 1_555
H42 C22 1_555 1_555
H43 C22 1_555 1_555
H44 C22 1_555 1_555
C23 C19 1_555 1_555
H45 C23 1_555 1_555
H46 C23 1_555 1_555
H47 C23 1_555 1_555
C24 C19 1_555 1_555
H48 C24 1_555 1_555
H49 C24 1_555 1_555
H50 C24 1_555 1_555
C25 C19 1_555 1_555
H51 C25 1_555 1_555
H52 C25 1_555 1_555
H53 C25 1_555 1_555
O3 Ca1 1_555 1_555
O4 Ca1 1_555 1_555
C26 C27 1_555 1_555
C27 C28 1_555 1_555
C28 H54 1_555 1_555
C29 C28 1_555 1_555
C30 C29 1_555 1_555
C31 C26 1_555 1_555
H55 C31 1_555 1_555
H56 C31 1_555 1_555
H57 C31 1_555 1_555
C32 C26 1_555 1_555
H58 C32 1_555 1_555
H59 C32 1_555 1_555
H60 C32 1_555 1_555
C33 C26 1_555 1_555
H61 C33 1_555 1_555
H62 C33 1_555 1_555
H63 C33 1_555 1_555
C34 C30 1_555 1_555
H64 C34 1_555 1_555
H65 C34 1_555 1_555
H66 C34 1_555 1_555
C35 C30 1_555 1_555
H67 C35 1_555 1_555
H68 C35 1_555 1_555
H69 C35 1_555 1_555
C36 C30 1_555 1_555
H70 C36 1_555 1_555
H71 C36 1_555 1_555
H72 C36 1_555 1_555
O5 Ca1 1_555 1_555
O6 Ca1 1_555 1_555
C37 C38 1_555 1_555
C38 C39 1_555 1_555
C39 H73 1_555 1_555
C40 C39 1_555 1_555
C41 C40 1_555 1_555
C42 C37 1_555 1_555
H74 C42 1_555 1_555
H75 C42 1_555 1_555
H76 C42 1_555 1_555
C43 C37 1_555 1_555
H77 C43 1_555 1_555
H78 C43 1_555 1_555
H79 C43 1_555 1_555
C44 C37 1_555 1_555
H80 C44 1_555 1_555
H81 C44 1_555 1_555
H82 C44 1_555 1_555
C45 C41 1_555 1_555
H83 C45 1_555 1_555
H84 C45 1_555 1_555
H85 C45 1_555 1_555
C46 C41 1_555 1_555
H86 C46 1_555 1_555
H87 C46 1_555 1_555
H88 C46 1_555 1_555
C47 C41 1_555 1_555
H89 C47 1_555 1_555
H90 C47 1_555 1_555
H91 C47 1_555 1_555
O7 Ca2 1_555 1_555
O8 Ca2 1_555 1_555
C3 C4 1_555 1_555
Ca2 N1 1_555 1_555
Ca2 O3 1_555 1_555
Ca2 O4 1_555 1_555
C7 C8 1_555 1_555
Si1 N1 1_555 1_555
Si2 N1 1_555 1_555
C16 O3 1_555 1_555
C18 O4 1_555 1_555
C27 O6 1_555 1_555
C29 O5 1_555 1_555
C38 O7 1_555 1_555
C40 O8 1_555 1_555

#END
