
#######################################################################
#
#                 Cambridge Crystallographic Data Centre
#                                CCDC 
#
#######################################################################
#
# If this CIF has been generated from an entry in the Cambridge 
# Structural Database, then it will include bibliographic, chemical, 
# crystal, experimental, refinement or atomic coordinate data resulting 
# from the CCDC's data processing and validation procedures.
#
#######################################################################

data_AKUPEC
_chemical_formula_moiety         'C12 H6 F3 N1 O2'
_chemical_name_systematic        2,4,5-Trifluoro-6-nitrobiphenyl
_symmetry_cell_setting           orthorhombic
_symmetry_space_group_name_H-M   'P b c a'
_symmetry_Int_Tables_number      61
_space_group_name_Hall           '-P 2ac 2ab'
loop_
_symmetry_equiv_pos_site_id
_symmetry_equiv_pos_as_xyz
1 x,y,z
2 1/2-x,-y,1/2+z
3 1/2+x,1/2-y,-z
4 -x,1/2+y,1/2-z
5 -x,-y,-z
6 1/2+x,y,1/2-z
7 1/2-x,1/2+y,z
8 x,1/2-y,1/2+z
_cell_length_a                   11.6280(2)
_cell_length_b                   12.1588(2)
_cell_length_c                   14.4292(2)
_cell_angle_alpha                90
_cell_angle_beta                 90
_cell_angle_gamma                90
_cell_volume                     2040.04
_exptl_crystal_colour            colorless
_exptl_crystal_description       prism
_cell_formula_units_Z            8
loop_
_atom_site_label
_atom_site_type_symbol
_atom_site_fract_x
_atom_site_fract_y
_atom_site_fract_z
F1 F 0.12292(6) 0.61358(7) 0.41197(6)
F2 F 0.23758(6) 0.44072(6) 0.34026(6)
F3 F 0.47022(6) 0.80406(6) 0.44973(6)
O1 O 0.46234(8) 0.35137(7) 0.36606(7)
O2 O 0.51560(8) 0.44482(8) 0.24507(6)
N1 N 0.46874(8) 0.43629(8) 0.32047(7)
C1 C 0.23713(10) 0.61917(10) 0.40392(8)
C2 C 0.29530(10) 0.52991(9) 0.36826(8)
C3 C 0.41354(9) 0.53456(9) 0.35987(7)
C4 C 0.47858(10) 0.62649(9) 0.38495(8)
C5 C 0.41417(10) 0.71333(9) 0.42153(8)
C6 C 0.29602(11) 0.71173(10) 0.43213(8)
C7 C 0.60560(10) 0.63199(9) 0.37456(7)
C8 C 0.67574(10) 0.54532(10) 0.40414(8)
C9 C 0.79429(10) 0.55122(10) 0.39279(9)
C10 C 0.84436(10) 0.64334(11) 0.35202(9)
C11 C 0.77482(10) 0.72974(10) 0.32279(9)
C12 C 0.65644(10) 0.72410(10) 0.33373(8)
H1 H 0.2533(13) 0.7735(15) 0.4616(12)
H2 H 0.6427(11) 0.4798(12) 0.4328(10)
H3 H 0.8428(13) 0.4906(14) 0.4107(12)
H4 H 0.9292(14) 0.6469(13) 0.3448(12)
H5 H 0.8106(15) 0.7940(13) 0.2936(12)
H6 H 0.6055(14) 0.7858(13) 0.3098(11)
loop_
_geom_bond_atom_site_label_1
_geom_bond_atom_site_label_2
_geom_bond_site_symmetry_1
_geom_bond_site_symmetry_2
F1 C1 1_555 1_555
F2 C2 1_555 1_555
F3 C5 1_555 1_555
O1 N1 1_555 1_555
O2 N1 1_555 1_555
N1 C3 1_555 1_555
C1 C2 1_555 1_555
C2 C3 1_555 1_555
C3 C4 1_555 1_555
C4 C5 1_555 1_555
C5 C6 1_555 1_555
C6 C1 1_555 1_555
C7 C4 1_555 1_555
C8 C7 1_555 1_555
C9 C8 1_555 1_555
C10 C9 1_555 1_555
C11 C10 1_555 1_555
C12 C7 1_555 1_555
H1 C6 1_555 1_555
H2 C8 1_555 1_555
H3 C9 1_555 1_555
H4 C10 1_555 1_555
H5 C11 1_555 1_555
H6 C12 1_555 1_555
C11 C12 1_555 1_555

#END
