
#######################################################################
#
#                 Cambridge Crystallographic Data Centre
#                                CCDC 
#
#######################################################################
#
# If this CIF has been generated from an entry in the Cambridge 
# Structural Database, then it will include bibliographic, chemical, 
# crystal, experimental, refinement or atomic coordinate data resulting 
# from the CCDC's data processing and validation procedures.
#
#######################################################################

data_AKUREF
_chemical_formula_moiety         'C11 H10 F1 N1 O2'
_chemical_name_systematic        
(Z)-3-(1-fluoro-2-phenylvinyl)-1,3-oxazolidin-2-one
_symmetry_cell_setting           monoclinic
_symmetry_space_group_name_H-M   'P 21/n'
_symmetry_Int_Tables_number      14
_space_group_name_Hall           '-P 2yn'
loop_
_symmetry_equiv_pos_site_id
_symmetry_equiv_pos_as_xyz
1 x,y,z
2 1/2-x,1/2+y,1/2-z
3 -x,-y,-z
4 1/2+x,1/2-y,1/2+z
_cell_length_a                   7.106(6)
_cell_length_b                   6.266(6)
_cell_length_c                   22.60(2)
_cell_angle_alpha                90
_cell_angle_beta                 96.873(14)
_cell_angle_gamma                90
_cell_volume                     999.061
_exptl_crystal_colour            colorless
_exptl_crystal_description       block
_chemical_melting_point          '63-65 deg.C'
_cell_formula_units_Z            4
loop_
_atom_site_label
_atom_site_type_symbol
_atom_site_fract_x
_atom_site_fract_y
_atom_site_fract_z
C1 C 0.5544(4) 0.2641(6) 0.25642(14)
H1 H 0.5684 0.1687 0.2257
C2 C 0.6186(5) 0.2082(6) 0.31567(16)
H2 H 0.6721 0.0746 0.3241
C3 C 0.6029(5) 0.3491(7) 0.36096(15)
H3 H 0.6464 0.3123 0.4001
C4 C 0.5223(5) 0.5457(7) 0.34825(15)
H4 H 0.5126 0.6427 0.3789
C5 C 0.4558(4) 0.6001(6) 0.29060(14)
H5 H 0.3999 0.7331 0.2830
C6 C 0.4700(4) 0.4617(5) 0.24363(12)
C7 C 0.3924(4) 0.5361(5) 0.18332(13)
H6 H 0.3266 0.6646 0.1823
C8 C 0.4026(4) 0.4484(5) 0.13178(12)
C9 C 0.2666(4) 0.4213(5) 0.02778(13)
C10 C 0.2550(5) 0.7733(5) -0.00043(13)
H7 H 0.1357 0.8503 -0.0042
H8 H 0.3396 0.8431 -0.0250
C11 C 0.3424(5) 0.7668(5) 0.06390(14)
H9 H 0.4709 0.8217 0.0685
H10 H 0.2673 0.8465 0.0895
F1 F 0.4933(4) 0.2619(4) 0.12636(9)
N1 N 0.3384(3) 0.5388(4) 0.07619(10)
O1 O 0.2411(4) 0.2312(4) 0.02400(11)
O2 O 0.2249(3) 0.5531(3) -0.01830(9)
loop_
_geom_bond_atom_site_label_1
_geom_bond_atom_site_label_2
_geom_bond_site_symmetry_1
_geom_bond_site_symmetry_2
C1 H1 1_555 1_555
C2 C1 1_555 1_555
H2 C2 1_555 1_555
C3 C2 1_555 1_555
H3 C3 1_555 1_555
C4 C3 1_555 1_555
H4 C4 1_555 1_555
C5 C4 1_555 1_555
H5 C5 1_555 1_555
C6 C1 1_555 1_555
C7 C6 1_555 1_555
H6 C7 1_555 1_555
C8 C7 1_555 1_555
C9 N1 1_555 1_555
C10 H7 1_555 1_555
H8 C10 1_555 1_555
C11 C10 1_555 1_555
H9 C11 1_555 1_555
H10 C11 1_555 1_555
F1 C8 1_555 1_555
N1 C8 1_555 1_555
O1 C9 1_555 1_555
O2 C9 1_555 1_555
C5 C6 1_555 1_555
C10 O2 1_555 1_555
C11 N1 1_555 1_555

#END
