
#######################################################################
#
#                 Cambridge Crystallographic Data Centre
#                                CCDC 
#
#######################################################################
#
# If this CIF has been generated from an entry in the Cambridge 
# Structural Database, then it will include bibliographic, chemical, 
# crystal, experimental, refinement or atomic coordinate data resulting 
# from the CCDC's data processing and validation procedures.
#
#######################################################################

data_AKURAB
_chemical_formula_moiety         'C11 H10 F1 N1 O2'
_chemical_name_systematic        
3-(2-fluoro-2-phenylvinyl)-1,3-oxazolidin-2-one
_symmetry_cell_setting           monoclinic
_symmetry_space_group_name_H-M   'P 21/n'
_symmetry_Int_Tables_number      14
_space_group_name_Hall           '-P 2yn'
loop_
_symmetry_equiv_pos_site_id
_symmetry_equiv_pos_as_xyz
1 x,y,z
2 1/2-x,1/2+y,1/2-z
3 -x,-y,-z
4 1/2+x,1/2-y,1/2+z
_cell_length_a                   10.695(2)
_cell_length_b                   6.0620(12)
_cell_length_c                   15.370(3)
_cell_angle_alpha                90
_cell_angle_beta                 102.91(3)
_cell_angle_gamma                90
_cell_volume                     971.296
_exptl_crystal_colour            colorless
_exptl_crystal_description       block
_cell_formula_units_Z            4
loop_
_atom_site_label
_atom_site_type_symbol
_atom_site_fract_x
_atom_site_fract_y
_atom_site_fract_z
F1 F 0.61121(14) 0.2205(2) 0.95427(11)
N1 N 0.34625(18) 0.1639(3) 0.87728(13)
O1 O 0.18292(18) -0.0375(3) 0.79015(14)
C1 C 0.8000(2) -0.0272(5) 0.91208(18)
H1 H 0.8187 0.1064 0.9419
O2 O 0.14568(15) 0.2826(3) 0.85217(12)
C2 C 0.8988(3) -0.1615(6) 0.8983(2)
H2 H 0.9835 -0.1164 0.9185
C3 C 0.8730(3) -0.3601(6) 0.85517(19)
H3 H 0.9397 -0.4499 0.8466
C4 C 0.7479(3) -0.4249(4) 0.82488(17)
H4 H 0.7301 -0.5598 0.7960
C5 C 0.6481(2) -0.2921(4) 0.83675(16)
H5 H 0.5637 -0.3367 0.8148
C6 C 0.6734(2) -0.0913(4) 0.88152(15)
C7 C 0.5693(2) 0.0511(4) 0.89614(15)
C8 C 0.4455(2) 0.0315(4) 0.86231(16)
H6 H 0.4213 -0.0860 0.8233
C9 C 0.2230(2) 0.1205(4) 0.83586(17)
C10 C 0.2200(3) 0.4479(4) 0.90812(19)
H7 H 0.1961 0.4548 0.9654
H8 H 0.2060 0.5918 0.8800
C11 C 0.3594(2) 0.3791(4) 0.92022(17)
H9 H 0.4065 0.4809 0.8908
H10 H 0.4017 0.3684 0.9829
loop_
_geom_bond_atom_site_label_1
_geom_bond_atom_site_label_2
_geom_bond_site_symmetry_1
_geom_bond_site_symmetry_2
F1 C7 1_555 1_555
N1 C8 1_555 1_555
O1 C9 1_555 1_555
C1 H1 1_555 1_555
O2 C9 1_555 1_555
C2 C1 1_555 1_555
H2 C2 1_555 1_555
C3 C2 1_555 1_555
H3 C3 1_555 1_555
C4 C3 1_555 1_555
H4 C4 1_555 1_555
C5 C4 1_555 1_555
H5 C5 1_555 1_555
C6 C1 1_555 1_555
C7 C6 1_555 1_555
C8 C7 1_555 1_555
H6 C8 1_555 1_555
C9 N1 1_555 1_555
C10 O2 1_555 1_555
H7 C10 1_555 1_555
H8 C10 1_555 1_555
C11 N1 1_555 1_555
H9 C11 1_555 1_555
H10 C11 1_555 1_555
C5 C6 1_555 1_555
C10 C11 1_555 1_555

#END
