
#######################################################################
#
#                 Cambridge Crystallographic Data Centre
#                                CCDC 
#
#######################################################################
#
# If this CIF has been generated from an entry in the Cambridge 
# Structural Database, then it will include bibliographic, chemical, 
# crystal, experimental, refinement or atomic coordinate data resulting 
# from the CCDC's data processing and validation procedures.
#
#######################################################################

data_AKUSEF
_chemical_formula_moiety         'C13 H25 N1 O4 S1'
_chemical_name_systematic        
(R~S~)-N-((S)-1-((4S,5S)-5-(Hydroxymethyl)-2,2-dimethyl-1,3-dioxolan-4-yl)prop-2-en-1-yl)-2-methylpropane-2-sulfinamide
_symmetry_cell_setting           monoclinic
_symmetry_space_group_name_H-M   'P 21'
_symmetry_Int_Tables_number      4
_space_group_name_Hall           'P 2yb'
loop_
_symmetry_equiv_pos_site_id
_symmetry_equiv_pos_as_xyz
1 x,y,z
2 -x,1/2+y,-z
_cell_length_a                   9.6663(5)
_cell_length_b                   8.5121(5)
_cell_length_c                   9.8764(6)
_cell_angle_alpha                90
_cell_angle_beta                 104.9800(10)
_cell_angle_gamma                90
_cell_volume                     785.019
_exptl_crystal_colour            colorless
_exptl_crystal_description       block
_chemical_melting_point          '101-104 deg.C'
_cell_formula_units_Z            2
loop_
_atom_site_label
_atom_site_type_symbol
_atom_site_fract_x
_atom_site_fract_y
_atom_site_fract_z
S1 S 0.94384(7) 0.24678(9) 0.31156(7)
O1 O 0.5887(3) 0.7765(4) 0.1255(3)
O2 O 0.5346(2) 0.6242(3) 0.2927(3)
O3 O 0.9708(2) 0.7810(3) 0.2790(3)
H1 H 0.9878 0.7450 0.3609
O4 O 1.0092(2) 0.1711(3) 0.4507(2)
N1 N 0.8783(3) 0.4208(3) 0.3345(3)
H2 H 0.9338 0.5036 0.3576
C1 C 0.4761(3) 0.7061(4) 0.1670(3)
C2 C 0.7210(3) 0.7015(4) 0.1924(3)
H3 H 0.7515 0.6299 0.1253
C3 C 0.6849(3) 0.6059(4) 0.3116(3)
H4 H 0.7359 0.6537 0.4034
C4 C 0.3726(7) 0.8259(7) 0.1904(6)
H5 H 0.4223 0.9008 0.2618
H6 H 0.2961 0.7739 0.2222
H7 H 0.3311 0.8819 0.1026
C5 C 0.4071(7) 0.5877(7) 0.0565(5)
H8 H 0.4799 0.5139 0.0422
H9 H 0.3639 0.6423 -0.0317
H10 H 0.3328 0.5300 0.0871
C6 C 0.5806(4) 0.2263(6) 0.3984(5)
H11 H 0.5407 0.1928 0.3047
H12 H 0.5538 0.1756 0.4735
C7 C 0.6724(3) 0.3422(4) 0.4241(4)
H13 H 0.7101 0.3725 0.5191
C8 C 0.7223(3) 0.4305(4) 0.3144(3)
H14 H 0.6746 0.3845 0.2208
C9 C 0.8286(4) 0.8339(4) 0.2371(4)
H15 H 0.8187 0.9081 0.1580
H16 H 0.8062 0.8918 0.3158
C10 C 1.0968(3) 0.3096(4) 0.2450(3)
C11 C 1.1725(4) 0.1566(5) 0.2275(4)
H17 H 1.2562 0.1797 0.1921
H18 H 1.1065 0.0884 0.1608
H19 H 1.2036 0.1033 0.3183
C12 C 1.0329(4) 0.3879(6) 0.1037(4)
H20 H 1.1103 0.4238 0.0638
H21 H 0.9745 0.4781 0.1166
H22 H 0.9728 0.3122 0.0399
C13 C 1.1952(3) 0.4190(4) 0.3475(4)
H23 H 1.2752 0.4505 0.3096
H24 H 1.2323 0.3647 0.4371
H25 H 1.1417 0.5124 0.3623
loop_
_geom_bond_atom_site_label_1
_geom_bond_atom_site_label_2
_geom_bond_site_symmetry_1
_geom_bond_site_symmetry_2
S1 O4 1_555 1_555
O1 C1 1_555 1_555
O2 C1 1_555 1_555
O3 H1 1_555 1_555
N1 S1 1_555 1_555
H2 N1 1_555 1_555
C1 C4 1_555 1_555
C2 O1 1_555 1_555
H3 C2 1_555 1_555
C3 O2 1_555 1_555
H4 C3 1_555 1_555
C4 H5 1_555 1_555
H6 C4 1_555 1_555
H7 C4 1_555 1_555
C5 C1 1_555 1_555
H8 C5 1_555 1_555
H9 C5 1_555 1_555
H10 C5 1_555 1_555
C6 H11 1_555 1_555
H12 C6 1_555 1_555
C7 C6 1_555 1_555
H13 C7 1_555 1_555
C8 N1 1_555 1_555
H14 C8 1_555 1_555
C9 O3 1_555 1_555
H15 C9 1_555 1_555
H16 C9 1_555 1_555
C10 S1 1_555 1_555
C11 C10 1_555 1_555
H17 C11 1_555 1_555
H18 C11 1_555 1_555
H19 C11 1_555 1_555
C12 C10 1_555 1_555
H20 C12 1_555 1_555
H21 C12 1_555 1_555
H22 C12 1_555 1_555
C13 C10 1_555 1_555
H23 C13 1_555 1_555
H24 C13 1_555 1_555
H25 C13 1_555 1_555
C2 C3 1_555 1_555
C2 C9 1_555 1_555
C3 C8 1_555 1_555
C7 C8 1_555 1_555

#END
