
#######################################################################
#
#                 Cambridge Crystallographic Data Centre
#                                CCDC 
#
#######################################################################
#
# If this CIF has been generated from an entry in the Cambridge 
# Structural Database, then it will include bibliographic, chemical, 
# crystal, experimental, refinement or atomic coordinate data resulting 
# from the CCDC's data processing and validation procedures.
#
#######################################################################

data_AKUSAB
_chemical_formula_moiety         'C13 H25 N1 O4 S1'
_chemical_name_systematic        
(S~S~)-N-((S)-1-((4S,5S)-5-(Hydroxymethyl)-2,2-dimethyl-1,3-dioxolan-4-yl)prop-2-en-1-yl)-2-methylpropane-2-sulfinamide
_symmetry_cell_setting           monoclinic
_symmetry_space_group_name_H-M   'P 21'
_symmetry_Int_Tables_number      4
_space_group_name_Hall           'P 2yb'
loop_
_symmetry_equiv_pos_site_id
_symmetry_equiv_pos_as_xyz
1 x,y,z
2 -x,1/2+y,-z
_cell_length_a                   8.5480(3)
_cell_length_b                   19.9436(8)
_cell_length_c                   9.6298(4)
_cell_angle_alpha                90
_cell_angle_beta                 95.5350(10)
_cell_angle_gamma                90
_cell_volume                     1634.01
_exptl_crystal_colour            colorless
_exptl_crystal_description       block
_chemical_melting_point          '70-71 deg.C'
_cell_formula_units_Z            4
loop_
_atom_site_label
_atom_site_type_symbol
_atom_site_fract_x
_atom_site_fract_y
_atom_site_fract_z
S1 S 0.26270(5) 0.74868(2) 0.14164(5)
O1 O -0.27229(19) 0.57019(9) 0.2208(3)
O2 O -0.02540(16) 0.53364(7) 0.20655(17)
O3 O -0.1526(2) 0.73303(8) 0.3507(2)
H1 H -0.1802 0.7562 0.4143
O4 O 0.1877(2) 0.77446(9) 0.00569(16)
N1 N 0.1378(2) 0.70318(8) 0.22197(19)
C1 C -0.1767(3) 0.62837(11) 0.2338(3)
H3 H -0.1905 0.6541 0.1467
C2 C -0.0074(2) 0.60094(10) 0.2549(2)
H4 H 0.0323 0.6019 0.3538
C3 C -0.1770(3) 0.51155(11) 0.2333(3)
C4 C -0.2365(3) 0.46366(13) 0.1206(4)
H5 H -0.2360 0.4851 0.0314
H6 H -0.3417 0.4503 0.1345
H7 H -0.1698 0.4249 0.1236
C5 C -0.1736(4) 0.4819(2) 0.3760(4)
H8 H -0.1345 0.5146 0.4440
H9 H -0.1061 0.4433 0.3823
H10 H -0.2779 0.4688 0.3935
C6 C -0.2290(3) 0.67019(13) 0.3510(3)
H11 H -0.3420 0.6764 0.3384
H12 H -0.2023 0.6477 0.4394
C7 C 0.1081(2) 0.63489(9) 0.1663(2)
H13 H 0.0613 0.6378 0.0694
C8 C 0.2613(3) 0.59781(11) 0.1709(3)
H14 H 0.3327 0.6039 0.2491
C9 C 0.3015(4) 0.55809(14) 0.0746(4)
H15 H 0.2331 0.5508 -0.0051
H16 H 0.3987 0.5368 0.0848
C10 C 0.2750(3) 0.82201(10) 0.2585(2)
C11 C 0.3993(3) 0.86603(13) 0.2007(3)
H17 H 0.4142 0.9059 0.2562
H18 H 0.3653 0.8781 0.1061
H19 H 0.4966 0.8418 0.2033
C12 C 0.1192(3) 0.85841(13) 0.2487(3)
H20 H 0.1267 0.8964 0.3103
H21 H 0.0389 0.8286 0.2749
H22 H 0.0929 0.8734 0.1546
C13 C 0.3266(5) 0.79877(15) 0.4055(3)
H23 H 0.3335 0.8367 0.4672
H24 H 0.4276 0.7776 0.4074
H25 H 0.2514 0.7674 0.4349
H50 H 0.058(3) 0.7251(13) 0.237(2)
S2 S 0.74630(5) 0.74944(2) -0.27860(6)
O5 O 0.20204(18) 0.57713(7) -0.39654(18)
O6 O 0.41284(17) 0.53978(7) -0.26049(16)
O7 O 0.25690(16) 0.74437(8) -0.25627(15)
H2 H 0.2490 0.7515 -0.1734
O8 O 0.7169(3) 0.77737(10) -0.42329(19)
N2 N 0.5917(2) 0.70713(8) -0.2365(2)
C14 C 0.2891(2) 0.63610(10) -0.3553(2)
H26 H 0.3332 0.6561 -0.4359
C15 C 0.4216(2) 0.61034(9) -0.24986(19)
H27 H 0.3981 0.6234 -0.1560
C16 C 0.3026(2) 0.52091(10) -0.3742(2)
C17 C 0.2085(3) 0.46281(14) -0.3272(4)
H28 H 0.1582 0.4756 -0.2463
H29 H 0.2771 0.4255 -0.3045
H30 H 0.1301 0.4503 -0.4008
C18 C 0.3859(4) 0.50586(15) -0.5009(3)
H31 H 0.4438 0.5447 -0.5252
H32 H 0.3102 0.4942 -0.5772
H33 H 0.4570 0.4691 -0.4812
C19 C 0.1760(2) 0.68409(11) -0.2975(3)
H34 H 0.0900 0.6939 -0.3678
H35 H 0.1326 0.6641 -0.2178
C20 C 0.5864(2) 0.63537(9) -0.2724(2)
H36 H 0.6056 0.6295 -0.3704
C21 C 0.7094(3) 0.59882(11) -0.1802(3)
H37 H 0.686(3) 0.5988(15) -0.083(3)
C22 C 0.8292(3) 0.56762(15) -0.2209(4)
H38 H 0.8449 0.5665 -0.3151
H39 H 0.8999 0.5462 -0.1560
C23 C 0.7307(2) 0.82227(10) -0.1641(2)
C24 C 0.8678(3) 0.86666(12) -0.1947(4)
H40 H 0.8682 0.9064 -0.1386
H41 H 0.8572 0.8788 -0.2916
H42 H 0.9646 0.8427 -0.1733
C25 C 0.5762(3) 0.85744(12) -0.1991(4)
H43 H 0.5696 0.8954 -0.1387
H44 H 0.4916 0.8271 -0.1866
H45 H 0.5687 0.8723 -0.2944
C26 C 0.7527(4) 0.79694(18) -0.0150(3)
H46 H 0.7454 0.8339 0.0480
H47 H 0.8541 0.7763 0.0021
H48 H 0.6724 0.7647 -0.0008
H49 H 0.508(3) 0.7266(11) -0.254(2)
loop_
_geom_bond_atom_site_label_1
_geom_bond_atom_site_label_2
_geom_bond_site_symmetry_1
_geom_bond_site_symmetry_2
S1 O4 1_555 1_555
S2 O8 1_555 1_555
O1 C1 1_555 1_555
O2 C2 1_555 1_555
O3 H1 1_555 1_555
O5 C14 1_555 1_555
O6 C15 1_555 1_555
O7 H2 1_555 1_555
N1 S1 1_555 1_555
N2 S2 1_555 1_555
C1 H3 1_555 1_555
C2 C1 1_555 1_555
H4 C2 1_555 1_555
C3 O1 1_555 1_555
C4 C3 1_555 1_555
H5 C4 1_555 1_555
H6 C4 1_555 1_555
H7 C4 1_555 1_555
C5 C3 1_555 1_555
H8 C5 1_555 1_555
H9 C5 1_555 1_555
H10 C5 1_555 1_555
C6 O3 1_555 1_555
H11 C6 1_555 1_555
H12 C6 1_555 1_555
C7 N1 1_555 1_555
H13 C7 1_555 1_555
C8 C7 1_555 1_555
H14 C8 1_555 1_555
C9 C8 1_555 1_555
H15 C9 1_555 1_555
H16 C9 1_555 1_555
C10 S1 1_555 1_555
C11 C10 1_555 1_555
H17 C11 1_555 1_555
H18 C11 1_555 1_555
H19 C11 1_555 1_555
C12 C10 1_555 1_555
H20 C12 1_555 1_555
H21 C12 1_555 1_555
H22 C12 1_555 1_555
C13 C10 1_555 1_555
H23 C13 1_555 1_555
H24 C13 1_555 1_555
H25 C13 1_555 1_555
C14 H26 1_555 1_555
C15 C14 1_555 1_555
H27 C15 1_555 1_555
C16 O5 1_555 1_555
C17 C16 1_555 1_555
H28 C17 1_555 1_555
H29 C17 1_555 1_555
H30 C17 1_555 1_555
C18 C16 1_555 1_555
H31 C18 1_555 1_555
H32 C18 1_555 1_555
H33 C18 1_555 1_555
C19 O7 1_555 1_555
H34 C19 1_555 1_555
H35 C19 1_555 1_555
C20 N2 1_555 1_555
H36 C20 1_555 1_555
C21 C20 1_555 1_555
H37 C21 1_555 1_555
C22 C21 1_555 1_555
H38 C22 1_555 1_555
H39 C22 1_555 1_555
C23 S2 1_555 1_555
C24 C23 1_555 1_555
H40 C24 1_555 1_555
H41 C24 1_555 1_555
H42 C24 1_555 1_555
C25 C23 1_555 1_555
H43 C25 1_555 1_555
H44 C25 1_555 1_555
H45 C25 1_555 1_555
C26 C23 1_555 1_555
H46 C26 1_555 1_555
H47 C26 1_555 1_555
H48 C26 1_555 1_555
H49 N2 1_555 1_555
H50 N1 1_555 1_555
O2 C3 1_555 1_555
O6 C16 1_555 1_555
C1 C6 1_555 1_555
C2 C7 1_555 1_555
C14 C19 1_555 1_555
C15 C20 1_555 1_555

#END
