
#######################################################################
#
#                 Cambridge Crystallographic Data Centre
#                                CCDC 
#
#######################################################################
#
# If this CIF has been generated from an entry in the Cambridge 
# Structural Database, then it will include bibliographic, chemical, 
# crystal, experimental, refinement or atomic coordinate data resulting 
# from the CCDC's data processing and validation procedures.
#
#######################################################################

data_AKUVOR
_chemical_name_common            
"(mu!2$-25,27:25',27'-bis(Crown-5)-26,26':28,28'-bis(3-oxapentane-1,5-dioxy)-bis(calix(4)arene))-di-potassium diperchlorate methanol solvate monohydrate"
_chemical_formula_moiety         
'C80 H88 K2 O16 2+,2(Cl1 O4 1-),2(C1 H4 O1),H2 O1'
_chemical_name_systematic        
"(\m~2~-25,27:25',27'-bis(3,6,9-Trioxaundecane-1,11-dioxy)-26,26':28,28'-bis(3-oxapentane-1,5-dioxy)-bis(calix(4)arene))-di-potassium diperchlorate methanol solvate monohydrate"
_symmetry_cell_setting           triclinic
_symmetry_space_group_name_H-M   'P -1'
_symmetry_Int_Tables_number      2
_space_group_name_Hall           '-P 1'
loop_
_symmetry_equiv_pos_site_id
_symmetry_equiv_pos_as_xyz
1 x,y,z
2 -x,-y,-z
_cell_length_a                   10.1605(19)
_cell_length_b                   10.3254(19)
_cell_length_c                   19.764(4)
_cell_angle_alpha                98.849(4)
_cell_angle_beta                 93.127(4)
_cell_angle_gamma                91.555(4)
_cell_volume                     2044.41
_exptl_crystal_colour            colorless
_exptl_crystal_description       plate
_cell_formula_units_Z            1
loop_
_atom_site_label
_atom_site_type_symbol
_atom_site_fract_x
_atom_site_fract_y
_atom_site_fract_z
K1 K 0.27524(16) 0.43225(15) 0.34022(7)
O1 O 0.1769(5) 0.2169(4) 0.2520(2)
O2 O 0.2453(7) 0.1979(5) 0.3894(3)
O3 O 0.2775(7) 0.4225(6) 0.4805(3)
O4 O 0.3549(5) 0.6503(5) 0.4403(2)
O5 O 0.2952(4) 0.6712(4) 0.3008(2)
O6 O 0.3335(4) 0.4315(5) 0.1315(2)
O7 O 0.2590(5) 0.4405(6) -0.0443(3)
O8 O -0.0333(4) 0.5073(5) 0.1816(2)
C1 C 0.1279(9) 0.2024(7) 0.1834(4)
C2 C 0.2203(9) 0.1717(7) 0.1340(4)
C3 C 0.1732(10) 0.1452(8) 0.0659(4)
H1 H 0.2320 0.1194 0.0302
C4 C 0.0427(12) 0.1564(8) 0.0505(5)
H2 H 0.0109 0.1360 0.0033
C5 C -0.0475(10) 0.1956(9) 0.0992(5)
H3 H -0.1380 0.2067 0.0854
C6 C -0.0041(9) 0.2192(7) 0.1694(4)
C7 C 0.4266(7) 0.4039(8) 0.1807(3)
C8 C 0.4992(7) 0.5091(8) 0.2188(4)
C9 C 0.5837(7) 0.4812(9) 0.2730(4)
H4 H 0.6358 0.5506 0.3007
C10 C 0.5919(8) 0.3540(10) 0.2864(4)
H5 H 0.6500 0.3365 0.3237
C11 C 0.5195(8) 0.2529(8) 0.2480(4)
H6 H 0.5270 0.1655 0.2584
C12 C 0.4353(7) 0.2760(8) 0.1942(4)
C13 C 0.2677(7) 0.7091(6) 0.2368(4)
C14 C 0.1405(7) 0.7470(6) 0.2225(4)
C15 C 0.1162(9) 0.7953(7) 0.1605(4)
H7 H 0.0301 0.8246 0.1491
C16 C 0.2140(11) 0.8010(8) 0.1163(4)
H8 H 0.1964 0.8376 0.0750
C17 C 0.3366(9) 0.7555(8) 0.1294(4)
H9 H 0.4027 0.7582 0.0968
C18 C 0.3665(8) 0.7051(7) 0.1903(4)
C19 C -0.0310(6) 0.5023(7) 0.2506(4)
C20 C -0.0561(7) 0.3826(8) 0.2726(4)
C21 C -0.0546(7) 0.3787(8) 0.3427(4)
H10 H -0.0760 0.2984 0.3592
C22 C -0.0224(7) 0.4906(9) 0.3879(4)
H11 H -0.0191 0.4866 0.4362
C23 C 0.0056(7) 0.6096(8) 0.3666(4)
H12 H 0.0260 0.6866 0.3999
C24 C 0.0042(6) 0.6171(7) 0.2978(4)
C25 C 0.3644(9) 0.1594(8) 0.1496(4)
H13 H 0.4065 0.1433 0.1069
H14 H 0.3761 0.0838 0.1718
C26 C 0.4981(7) 0.6433(8) 0.2018(4)
H15 H 0.5454 0.6434 0.1611
H16 H 0.5473 0.6996 0.2382
C27 C 0.0361(7) 0.7461(7) 0.2735(4)
H17 H -0.0437 0.7757 0.2536
H18 H 0.0628 0.8093 0.3130
C28 C -0.0998(8) 0.2617(8) 0.2231(4)
H19 H -0.1143 0.1911 0.2485
H20 H -0.1825 0.2776 0.2006
C29 C 0.1765(18) 0.0979(8) 0.2811(5)
H21 H 0.0895 0.0583 0.2719
H22 H 0.2351 0.0401 0.2557
C30 C 0.2067(18) 0.0982(10) 0.3437(6)
H23 H 0.2748 0.0358 0.3449
H24 H 0.1310 0.0604 0.3614
C31 C 0.215(6) 0.202(2) 0.4569(9)
H25 H 0.2300 0.1179 0.4703
H26 H 0.1227 0.2185 0.4606
C33 C 0.2885(11) 0.2982(10) 0.5021(4)
H29 H 0.3794 0.2753 0.5040
H30 H 0.2573 0.3024 0.5474
C34 C 0.3271(8) 0.5273(9) 0.5298(4)
H33 H 0.4204 0.5204 0.5379
H34 H 0.2860 0.5252 0.5722
C35 C 0.2997(8) 0.6496(8) 0.5047(4)
H35 H 0.2061 0.6592 0.5000
H36 H 0.3365 0.7221 0.5371
C36 C 0.3476(8) 0.7723(8) 0.4180(4)
H37 H 0.4044 0.8358 0.4472
H38 H 0.2590 0.8019 0.4198
C37 C 0.3892(8) 0.7578(7) 0.3463(4)
H39 H 0.3937 0.8422 0.3318
H40 H 0.4754 0.7220 0.3442
C38 C 0.3699(8) 0.4229(9) 0.0624(4)
H41 H 0.3969 0.3363 0.0449
H42 H 0.4398 0.4852 0.0584
C39 C 0.2442(9) 0.4548(9) 0.0257(4)
H43 H 0.1737 0.3974 0.0348
H44 H 0.2220 0.5433 0.0424
C40 C 0.1392(9) 0.4647(10) -0.0787(4)
H45 H 0.1091 0.5492 -0.0598
H46 H 0.0733 0.3997 -0.0727
C41 C -0.1592(7) 0.5395(9) 0.1524(3)
H47 H -0.2268 0.4768 0.1592
H48 H -0.1837 0.6253 0.1728
C40A C -0.1392(9) 0.5353(10) 0.0787(4)
O7A O -0.2590(5) 0.5595(6) 0.0443(3)
C39A C -0.2442(9) 0.5452(9) -0.0257(4)
C38A C -0.3699(8) 0.5771(9) -0.0624(4)
O6A O -0.3335(4) 0.5685(5) -0.1315(2)
C7A C -0.4266(7) 0.5961(8) -0.1807(3)
C8A C -0.4992(7) 0.4909(8) -0.2188(4)
C9A C -0.5837(7) 0.5188(9) -0.2730(4)
H4A H -0.6358 0.4494 -0.3007
C10A C -0.5919(8) 0.6460(10) -0.2864(4)
H5A H -0.6500 0.6635 -0.3237
C11A C -0.5195(8) 0.7471(8) -0.2480(4)
H6A H -0.5270 0.8345 -0.2584
C12A C -0.4353(7) 0.7240(8) -0.1942(4)
C25A C -0.3644(9) 0.8406(8) -0.1496(4)
C2A C -0.2203(9) 0.8283(7) -0.1340(4)
C1A C -0.1279(9) 0.7976(7) -0.1834(4)
O1A O -0.1769(5) 0.7831(4) -0.2520(2)
K1A K -0.27524(16) 0.56775(15) -0.34022(7)
O2A O -0.2453(7) 0.8021(5) -0.3894(3)
C30A C -0.2067(18) 0.9018(10) -0.3437(6)
C29A C -0.1765(18) 0.9021(8) -0.2811(5)
H21A H -0.0895 0.9417 -0.2719
H22A H -0.2351 0.9599 -0.2557
H23A H -0.2748 0.9642 -0.3449
H24A H -0.1310 0.9396 -0.3614
C31A C -0.215(6) 0.798(2) -0.4569(9)
H25A H -0.2300 0.8821 -0.4703
H26A H -0.1227 0.7815 -0.4606
C33A C -0.2885(11) 0.7018(10) -0.5021(4)
O3A O -0.2775(7) 0.5775(6) -0.4805(3)
O4A O -0.3549(5) 0.3497(5) -0.4403(2)
C35A C -0.2997(8) 0.3504(8) -0.5047(4)
C34A C -0.3271(8) 0.4727(9) -0.5298(4)
H33A H -0.4204 0.4796 -0.5379
H34A H -0.2860 0.4748 -0.5722
H35A H -0.2061 0.3408 -0.5000
H36A H -0.3365 0.2779 -0.5371
C36A C -0.3476(8) 0.2277(8) -0.4180(4)
H37A H -0.4044 0.1642 -0.4472
H38A H -0.2590 0.1981 -0.4198
C37A C -0.3892(8) 0.2422(7) -0.3463(4)
O5A O -0.2952(4) 0.3288(4) -0.3008(2)
C13A C -0.2677(7) 0.2909(6) -0.2368(4)
C14A C -0.1405(7) 0.2530(6) -0.2225(4)
C15A C -0.1162(9) 0.2047(7) -0.1605(4)
H7A H -0.0301 0.1754 -0.1491
C16A C -0.2140(11) 0.1990(8) -0.1163(4)
H8A H -0.1964 0.1624 -0.0750
C17A C -0.3366(9) 0.2445(8) -0.1294(4)
H9A H -0.4027 0.2418 -0.0968
C18A C -0.3665(8) 0.2949(7) -0.1903(4)
C26A C -0.4981(7) 0.3567(8) -0.2018(4)
H15A H -0.5454 0.3566 -0.1611
H16A H -0.5473 0.3004 -0.2382
C27A C -0.0361(7) 0.2539(7) -0.2735(4)
C24A C -0.0042(6) 0.3829(7) -0.2978(4)
C19A C 0.0310(6) 0.4977(7) -0.2506(4)
O8A O 0.0333(4) 0.4927(5) -0.1816(2)
C41A C 0.1592(7) 0.4605(9) -0.1524(3)
H47A H 0.2268 0.5232 -0.1592
H48A H 0.1837 0.3747 -0.1728
C20A C 0.0561(7) 0.6174(8) -0.2726(4)
C21A C 0.0546(7) 0.6213(8) -0.3427(4)
H10A H 0.0760 0.7016 -0.3592
C22A C 0.0224(7) 0.5094(9) -0.3879(4)
H11A H 0.0191 0.5134 -0.4362
C23A C -0.0056(7) 0.3904(8) -0.3666(4)
H12A H -0.0260 0.3134 -0.3999
C28A C 0.0998(8) 0.7383(8) -0.2231(4)
C6A C 0.0041(9) 0.7808(7) -0.1694(4)
C5A C 0.0475(10) 0.8044(9) -0.0992(5)
C4A C -0.0427(12) 0.8436(8) -0.0505(5)
C3A C -0.1732(10) 0.8548(8) -0.0659(4)
H1A H -0.2320 0.8806 -0.0302
H2A H -0.0109 0.8640 -0.0033
H3A H 0.1380 0.7933 -0.0854
H19A H 0.1143 0.8089 -0.2485
H20A H 0.1825 0.7224 -0.2006
H17A H 0.0437 0.2243 -0.2536
H18A H -0.0628 0.1907 -0.3130
H39A H -0.3937 0.1578 -0.3318
H40A H -0.4754 0.2780 -0.3442
H29A H -0.3794 0.7247 -0.5040
H30A H -0.2573 0.6976 -0.5474
H13A H -0.4065 0.8567 -0.1069
H14A H -0.3761 0.9162 -0.1718
H41A H -0.3969 0.6637 -0.0449
H42A H -0.4398 0.5148 -0.0584
H43A H -0.1737 0.6026 -0.0348
H44A H -0.2220 0.4567 -0.0424
H45A H -0.1091 0.4508 0.0598
H46A H -0.0733 0.6003 0.0727
Cl1 Cl 0.7183(3) 0.9769(3) 0.35933(19)
O9 O 0.7304(10) 0.8490(10) 0.3473(7)
O10 O 0.6329(14) 0.9965(13) 0.4097(7)
O11 O 0.7961(17) 1.0701(16) 0.3596(12)
O12 O 0.630(2) 0.994(2) 0.3087(12)
O13 O 0.290(2) 0.069(2) -0.1509(10)
C42 C 0.317(4) 0.142(3) -0.0921(16)
O14 O 0.047(3) 0.924(2) 0.4785(15)
C32? C 0.335(6) 0.193(2) 0.4477(13)
H27? H 0.4239 0.2118 0.4374
H28? H 0.3299 0.1087 0.4622
H31? H 0.2041 0.2710 0.5157
H32? H 0.3492 0.3068 0.5417
loop_
_geom_bond_atom_site_label_1
_geom_bond_atom_site_label_2
_geom_bond_site_symmetry_1
_geom_bond_site_symmetry_2
K1 O1 1_555 1_555
O1 C1 1_555 1_555
O2 K1 1_555 1_555
O3 K1 1_555 1_555
O4 K1 1_555 1_555
O5 K1 1_555 1_555
O6 C7 1_555 1_555
O7 C39 1_555 1_555
O8 C19 1_555 1_555
C1 C2 1_555 1_555
C2 C3 1_555 1_555
C3 H1 1_555 1_555
C4 C3 1_555 1_555
H2 C4 1_555 1_555
C5 C4 1_555 1_555
H3 C5 1_555 1_555
C6 C1 1_555 1_555
C7 C8 1_555 1_555
C8 C9 1_555 1_555
C9 H4 1_555 1_555
C10 C9 1_555 1_555
H5 C10 1_555 1_555
C11 C10 1_555 1_555
H6 C11 1_555 1_555
C12 C7 1_555 1_555
C13 O5 1_555 1_555
C14 C13 1_555 1_555
C15 C14 1_555 1_555
H7 C15 1_555 1_555
C16 C15 1_555 1_555
H8 C16 1_555 1_555
C17 C16 1_555 1_555
H9 C17 1_555 1_555
C18 C13 1_555 1_555
C19 C20 1_555 1_555
C20 C21 1_555 1_555
C21 H10 1_555 1_555
C22 C21 1_555 1_555
H11 C22 1_555 1_555
C23 C22 1_555 1_555
H12 C23 1_555 1_555
C24 C19 1_555 1_555
C25 C2 1_555 1_555
H13 C25 1_555 1_555
H14 C25 1_555 1_555
C26 C8 1_555 1_555
H15 C26 1_555 1_555
H16 C26 1_555 1_555
C27 C14 1_555 1_555
H17 C27 1_555 1_555
H18 C27 1_555 1_555
C28 C6 1_555 1_555
H19 C28 1_555 1_555
H20 C28 1_555 1_555
C29 O1 1_555 1_555
H21 C29 1_555 1_555
H22 C29 1_555 1_555
C30 O2 1_555 1_555
H23 C30 1_555 1_555
H24 C30 1_555 1_555
C31 O2 1_555 1_555
H25 C31 1_555 1_555
H26 C31 1_555 1_555
C33 O3 1_555 1_555
H29 C33 1_555 1_555
H30 C33 1_555 1_555
C34 O3 1_555 1_555
H33 C34 1_555 1_555
H34 C34 1_555 1_555
C35 O4 1_555 1_555
H35 C35 1_555 1_555
H36 C35 1_555 1_555
C36 O4 1_555 1_555
H37 C36 1_555 1_555
H38 C36 1_555 1_555
C37 O5 1_555 1_555
H39 C37 1_555 1_555
H40 C37 1_555 1_555
C38 O6 1_555 1_555
H41 C38 1_555 1_555
H42 C38 1_555 1_555
C39 C38 1_555 1_555
H43 C39 1_555 1_555
H44 C39 1_555 1_555
C40 O7 1_555 1_555
H45 C40 1_555 1_555
H46 C40 1_555 1_555
C41 O8 1_555 1_555
H47 C41 1_555 1_555
H48 C41 1_555 1_555
Cl1 O9 1_555 1_555
O10 Cl1 1_555 1_555
O11 Cl1 1_555 1_555
O12 Cl1 1_555 1_555
O13 C42 1_555 1_555
C40A C41 1_555 1_555
O7A C40A 1_555 1_555
C39A O7A 1_555 1_555
C38A C39A 1_555 1_555
O6A C38A 1_555 1_555
C7A O6A 1_555 1_555
C8A C7A 1_555 1_555
C9A C8A 1_555 1_555
H4A C9A 1_555 1_555
C10A C9A 1_555 1_555
H5A C10A 1_555 1_555
C11A C10A 1_555 1_555
H6A C11A 1_555 1_555
C12A C7A 1_555 1_555
C25A C12A 1_555 1_555
C2A C25A 1_555 1_555
C1A C2A 1_555 1_555
O1A C1A 1_555 1_555
K1A O1A 1_555 1_555
O2A K1A 1_555 1_555
C30A O2A 1_555 1_555
C29A O1A 1_555 1_555
H21A C29A 1_555 1_555
H22A C29A 1_555 1_555
H23A C30A 1_555 1_555
H24A C30A 1_555 1_555
C31A O2A 1_555 1_555
H25A C31A 1_555 1_555
H26A C31A 1_555 1_555
C33A C31A 1_555 1_555
O3A K1A 1_555 1_555
O4A K1A 1_555 1_555
C35A O4A 1_555 1_555
C34A O3A 1_555 1_555
H33A C34A 1_555 1_555
H34A C34A 1_555 1_555
H35A C35A 1_555 1_555
H36A C35A 1_555 1_555
C36A O4A 1_555 1_555
H37A C36A 1_555 1_555
H38A C36A 1_555 1_555
C37A C36A 1_555 1_555
O5A K1A 1_555 1_555
C13A O5A 1_555 1_555
C14A C13A 1_555 1_555
C15A C14A 1_555 1_555
H7A C15A 1_555 1_555
C16A C15A 1_555 1_555
H8A C16A 1_555 1_555
C17A C16A 1_555 1_555
H9A C17A 1_555 1_555
C18A C13A 1_555 1_555
C26A C8A 1_555 1_555
H15A C26A 1_555 1_555
H16A C26A 1_555 1_555
C27A C14A 1_555 1_555
C24A C27A 1_555 1_555
C19A C24A 1_555 1_555
O8A C19A 1_555 1_555
C41A C40 1_555 1_555
H47A C41A 1_555 1_555
H48A C41A 1_555 1_555
C20A C19A 1_555 1_555
C21A C20A 1_555 1_555
H10A C21A 1_555 1_555
C22A C21A 1_555 1_555
H11A C22A 1_555 1_555
C23A C24A 1_555 1_555
H12A C23A 1_555 1_555
C28A C20A 1_555 1_555
C6A C1A 1_555 1_555
C5A C6A 1_555 1_555
C4A C5A 1_555 1_555
C3A C2A 1_555 1_555
H1A C3A 1_555 1_555
H2A C4A 1_555 1_555
H3A C5A 1_555 1_555
H19A C28A 1_555 1_555
H20A C28A 1_555 1_555
H17A C27A 1_555 1_555
H18A C27A 1_555 1_555
H39A C37A 1_555 1_555
H40A C37A 1_555 1_555
H29A C33A 1_555 1_555
H30A C33A 1_555 1_555
H13A C25A 1_555 1_555
H14A C25A 1_555 1_555
H41A C38A 1_555 1_555
H42A C38A 1_555 1_555
H43A C39A 1_555 1_555
H44A C39A 1_555 1_555
H45A C40A 1_555 1_555
H46A C40A 1_555 1_555
C5 C6 1_555 1_555
C11 C12 1_555 1_555
C12 C25 1_555 1_555
C17 C18 1_555 1_555
C18 C26 1_555 1_555
C20 C28 1_555 1_555
C23 C24 1_555 1_555
C24 C27 1_555 1_555
C29 C30 1_555 1_555
C31 C33 1_555 1_555
C34 C35 1_555 1_555
C36 C37 1_555 1_555
C11A C12A 1_555 1_555
C30A C29A 1_555 1_555
C33A O3A 1_555 1_555
C35A C34A 1_555 1_555
C37A O5A 1_555 1_555
C17A C18A 1_555 1_555
C18A C26A 1_555 1_555
O8A C41A 1_555 1_555
C22A C23A 1_555 1_555
C28A C6A 1_555 1_555
C4A C3A 1_555 1_555

#END
