
#######################################################################
#
#                 Cambridge Crystallographic Data Centre
#                                CCDC 
#
#######################################################################
#
# If this CIF has been generated from an entry in the Cambridge 
# Structural Database, then it will include bibliographic, chemical, 
# crystal, experimental, refinement or atomic coordinate data resulting 
# from the CCDC's data processing and validation procedures.
#
#######################################################################

data_AKUXUA
_chemical_formula_moiety         'C26 H25 N1 O3 S1'
_chemical_name_systematic        
Biphenyl-4-yl(1-((4-methylphenyl)sulfonyl)-4-vinylpyrrolidin-3-yl)methanone
_symmetry_cell_setting           monoclinic
_symmetry_space_group_name_H-M   'P 21/n'
_symmetry_Int_Tables_number      14
_space_group_name_Hall           '-P 2yn'
loop_
_symmetry_equiv_pos_site_id
_symmetry_equiv_pos_as_xyz
1 x,y,z
2 1/2-x,1/2+y,1/2-z
3 -x,-y,-z
4 1/2+x,1/2-y,1/2+z
_cell_length_a                   11.6030(3)
_cell_length_b                   11.3376(3)
_cell_length_c                   17.0185(6)
_cell_angle_alpha                90
_cell_angle_beta                 91.385(2)
_cell_angle_gamma                90
_cell_volume                     2238.13
_exptl_crystal_colour            colorless
_exptl_crystal_description       prism
_cell_formula_units_Z            4
loop_
_atom_site_label
_atom_site_type_symbol
_atom_site_fract_x
_atom_site_fract_y
_atom_site_fract_z
S1 S 0.64436(14) -0.04809(14) 0.70939(9)
O1 O 0.7598(4) -0.0911(4) 0.7002(3)
O2 O 0.5493(4) -0.1295(4) 0.7094(3)
O3 O 0.4118(4) 0.1499(4) 0.9475(3)
N1 N 0.6451(4) 0.0205(4) 0.7926(3)
C1 C 0.6151(5) 0.0570(5) 0.6338(3)
C2 C 0.7041(5) 0.1296(6) 0.6083(4)
H1 H 0.7793 0.1237 0.6312
C3 C 0.6805(6) 0.2106(6) 0.5490(4)
H2 H 0.7405 0.2604 0.5317
C4 C 0.5712(6) 0.2207(6) 0.5143(4)
C5 C 0.5495(7) 0.3079(7) 0.4488(5)
H3 H 0.4686 0.3034 0.4313
H4 H 0.5993 0.2892 0.4048
H5 H 0.5667 0.3877 0.4678
C6 C 0.4850(6) 0.1469(6) 0.5409(4)
H6 H 0.4099 0.1523 0.5177
C7 C 0.5059(6) 0.0659(6) 0.6000(4)
H7 H 0.4455 0.0165 0.6175
C8 C 0.7472(5) 0.0910(6) 0.8187(4)
H8 H 0.7655 0.1529 0.7800
H9 H 0.8157 0.0403 0.8277
C9 C 0.7061(5) 0.1441(5) 0.8951(3)
H10 H 0.7522 0.2160 0.9090
C10 C 0.7101(5) 0.0584(5) 0.9607(4)
H11 H 0.6783 -0.0177 0.9513
C11 C 0.7549(6) 0.0800(7) 1.0318(4)
H12 H 0.7875 0.1551 1.0434
H13 H 0.7544 0.0205 1.0710
C12 C 0.5796(5) 0.1789(5) 0.8719(3)
H14 H 0.5814 0.2516 0.8387
C13 C 0.5364(5) 0.0756(5) 0.8206(4)
H15 H 0.4914 0.0189 0.8517
H16 H 0.4880 0.1041 0.7758
C14 C 0.5036(5) 0.2020(5) 0.9412(3)
C15 C 0.5420(5) 0.2887(5) 1.0018(3)
C16 C 0.6139(5) 0.3843(5) 0.9848(3)
H17 H 0.6430 0.3934 0.9335
C17 C 0.6422(5) 0.4648(5) 1.0422(3)
H18 H 0.6905 0.5294 1.0296
C18 C 0.6018(5) 0.4543(5) 1.1187(3)
C19 C 0.5336(5) 0.3572(5) 1.1352(3)
H19 H 0.5076 0.3464 1.1872
C20 C 0.5026(5) 0.2760(5) 1.0782(3)
H20 H 0.4544 0.2114 1.0909
C21 C 0.6295(5) 0.5455(5) 1.1789(3)
C22 C 0.7305(6) 0.6125(7) 1.1771(4)
H21 H 0.7839 0.5982 1.1367
C23 C 0.7549(6) 0.6985(7) 1.2321(5)
H22 H 0.8247 0.7421 1.2297
C24 C 0.6782(6) 0.7213(7) 1.2905(4)
H23 H 0.6949 0.7805 1.3286
C25 C 0.5771(6) 0.6580(6) 1.2936(4)
H24 H 0.5236 0.6744 1.3336
C26 C 0.5529(5) 0.5702(6) 1.2386(3)
H25 H 0.4833 0.5266 1.2417
loop_
_geom_bond_atom_site_label_1
_geom_bond_atom_site_label_2
_geom_bond_site_symmetry_1
_geom_bond_site_symmetry_2
S1 O1 1_555 1_555
O2 S1 1_555 1_555
O3 C14 1_555 1_555
N1 S1 1_555 1_555
C1 S1 1_555 1_555
C2 C1 1_555 1_555
H1 C2 1_555 1_555
C3 C2 1_555 1_555
H2 C3 1_555 1_555
C4 C3 1_555 1_555
C5 C4 1_555 1_555
H3 C5 1_555 1_555
H4 C5 1_555 1_555
H5 C5 1_555 1_555
C6 C4 1_555 1_555
H6 C6 1_555 1_555
C7 C1 1_555 1_555
H7 C7 1_555 1_555
C8 N1 1_555 1_555
H8 C8 1_555 1_555
H9 C8 1_555 1_555
C9 C8 1_555 1_555
H10 C9 1_555 1_555
C10 C9 1_555 1_555
H11 C10 1_555 1_555
C11 C10 1_555 1_555
H12 C11 1_555 1_555
H13 C11 1_555 1_555
C12 C9 1_555 1_555
H14 C12 1_555 1_555
C13 N1 1_555 1_555
H15 C13 1_555 1_555
H16 C13 1_555 1_555
C14 C12 1_555 1_555
C15 C14 1_555 1_555
C16 C15 1_555 1_555
H17 C16 1_555 1_555
C17 C16 1_555 1_555
H18 C17 1_555 1_555
C18 C17 1_555 1_555
C19 C18 1_555 1_555
H19 C19 1_555 1_555
C20 C15 1_555 1_555
H20 C20 1_555 1_555
C21 C18 1_555 1_555
C22 C21 1_555 1_555
H21 C22 1_555 1_555
C23 C22 1_555 1_555
H22 C23 1_555 1_555
C24 C23 1_555 1_555
H23 C24 1_555 1_555
C25 C24 1_555 1_555
H24 C25 1_555 1_555
C26 C21 1_555 1_555
H25 C26 1_555 1_555
C6 C7 1_555 1_555
C12 C13 1_555 1_555
C19 C20 1_555 1_555
C25 C26 1_555 1_555

#END
