
#######################################################################
#
#                 Cambridge Crystallographic Data Centre
#                                CCDC 
#
#######################################################################
#
# If this CIF has been generated from an entry in the Cambridge 
# Structural Database, then it will include bibliographic, chemical, 
# crystal, experimental, refinement or atomic coordinate data resulting 
# from the CCDC's data processing and validation procedures.
#
#######################################################################

data_AKUYIP
_chemical_formula_moiety         'C27 H27 N1 O3 S1'
_chemical_name_systematic        
(1-((4-Methylphenyl)sulfonyl)-4-(3-phenylprop-1-en-1-yl)pyrrolidin-3-yl)(phenyl)methanone
_symmetry_cell_setting           monoclinic
_symmetry_space_group_name_H-M   'P 21/c'
_symmetry_Int_Tables_number      14
_space_group_name_Hall           '-P 2ybc'
loop_
_symmetry_equiv_pos_site_id
_symmetry_equiv_pos_as_xyz
1 x,y,z
2 -x,1/2+y,1/2-z
3 -x,-y,-z
4 x,1/2-y,1/2+z
_cell_length_a                   10.5177(2)
_cell_length_b                   8.3547(2)
_cell_length_c                   26.6108(7)
_cell_angle_alpha                90
_cell_angle_beta                 94.834(1)
_cell_angle_gamma                90
_cell_volume                     2330.03
_cell_formula_units_Z            4
loop_
_atom_site_label
_atom_site_type_symbol
_atom_site_fract_x
_atom_site_fract_y
_atom_site_fract_z
C1 C 0.8710(3) 0.0557(3) 0.7860(1)
C2 C 0.9703(3) 0.1367(4) 0.7665(1)
H1 H 0.9593 0.1819 0.7345
C3 C 1.0854(3) 0.1500(4) 0.7947(1)
H2 H 1.1520 0.2040 0.7812
C4 C 1.1050(3) 0.0856(3) 0.8424(1)
C5 C 1.2306(3) 0.1030(5) 0.8730(2)
H3 H 1.2263 0.0507 0.9050
H4 H 1.2490 0.2145 0.8784
H5 H 1.2967 0.0549 0.8554
C6 C 1.0052(3) 0.0034(4) 0.8612(1)
H6 H 1.0169 -0.0430 0.8930
C7 C 0.8886(3) -0.0113(3) 0.8336(1)
H7 H 0.8222 -0.0659 0.8470
C8 C 0.6873(3) 0.3679(4) 0.7574(1)
H8 H 0.6294 0.4212 0.7325
H9 H 0.7713 0.3633 0.7449
C9 C 0.6925(3) 0.4557(3) 0.8082(1)
H10 H 0.6800 0.5709 0.8029
C10 C 0.5758(3) 0.3813(3) 0.8312(1)
H11 H 0.4983 0.4284 0.8142
C11 C 0.5808(3) 0.2058(4) 0.8164(1)
H12 H 0.6314 0.1446 0.8418
H13 H 0.4956 0.1605 0.8120
C12 C 0.5712(3) 0.4034(4) 0.8874(1)
C13 C 0.5723(3) 0.5680(3) 0.9086(1)
C14 C 0.6070(3) 0.5876(4) 0.9595(1)
H14 H 0.6273 0.4991 0.9799
C15 C 0.6112(4) 0.7414(6) 0.9801(2)
H15 H 0.6353 0.7556 1.0142
C16 C 0.5799(4) 0.8713(5) 0.9502(2)
H16 H 0.5849 0.9738 0.9638
C17 C 0.5416(4) 0.8505(5) 0.9004(2)
H17 H 0.5174 0.9386 0.8805
C18 C 0.5386(3) 0.7014(4) 0.8796(1)
H18 H 0.5136 0.6890 0.8455
C19 C 0.8138(3) 0.4245(3) 0.8406(1)
H19 H 0.8266 0.3212 0.8530
C20 C 0.9032(3) 0.5297(3) 0.8530(1)
H20 H 0.8888 0.6343 0.8420
C21 C 1.0255(3) 0.4963(4) 0.8830(1)
H21 H 1.0934 0.4976 0.8605
H22 H 1.0217 0.3891 0.8968
C22 C 1.0602(3) 0.6111(3) 0.9259(1)
C23 C 1.1836(3) 0.6629(4) 0.9356(1)
H23 H 1.2457 0.6296 0.9150
C24 C 1.2165(4) 0.7638(5) 0.9757(2)
H24 H 1.3007 0.7968 0.9822
C25 C 1.1264(5) 0.8151(5) 1.0056(2)
H25 H 1.1488 0.8834 1.0325
C26 C 1.0028(4) 0.7660(4) 0.9961(1)
H26 H 0.9408 0.8011 1.0165
C27 C 0.9702(3) 0.6644(4) 0.9563(1)
H27 H 0.8858 0.6316 0.9499
O1 O 0.7387(2) 0.0680(3) 0.7001(1)
O2 O 0.6526(2) -0.0869(3) 0.7693(1)
O3 O 0.5683(3) 0.2871(3) 0.9146(1)
S1 S 0.7198(1) 0.0501(1) 0.7523
N1 N 0.6410(2) 0.2058(3) 0.7680(1)
loop_
_geom_bond_atom_site_label_1
_geom_bond_atom_site_label_2
_geom_bond_site_symmetry_1
_geom_bond_site_symmetry_2
C1 C2 1_555 1_555
C2 H1 1_555 1_555
C3 C2 1_555 1_555
H2 C3 1_555 1_555
C4 C3 1_555 1_555
C5 C4 1_555 1_555
H3 C5 1_555 1_555
H4 C5 1_555 1_555
H5 C5 1_555 1_555
C6 C4 1_555 1_555
H6 C6 1_555 1_555
C7 C1 1_555 1_555
H7 C7 1_555 1_555
C8 H8 1_555 1_555
H9 C8 1_555 1_555
C9 C8 1_555 1_555
H10 C9 1_555 1_555
C10 C9 1_555 1_555
H11 C10 1_555 1_555
C11 C10 1_555 1_555
H12 C11 1_555 1_555
H13 C11 1_555 1_555
C12 C10 1_555 1_555
C13 C12 1_555 1_555
C14 C13 1_555 1_555
H14 C14 1_555 1_555
C15 C14 1_555 1_555
H15 C15 1_555 1_555
C16 C15 1_555 1_555
H16 C16 1_555 1_555
C17 C16 1_555 1_555
H17 C17 1_555 1_555
C18 C13 1_555 1_555
H18 C18 1_555 1_555
C19 C9 1_555 1_555
H19 C19 1_555 1_555
C20 C19 1_555 1_555
H20 C20 1_555 1_555
C21 C20 1_555 1_555
H21 C21 1_555 1_555
H22 C21 1_555 1_555
C22 C21 1_555 1_555
C23 C22 1_555 1_555
H23 C23 1_555 1_555
C24 C23 1_555 1_555
H24 C24 1_555 1_555
C25 C24 1_555 1_555
H25 C25 1_555 1_555
C26 C25 1_555 1_555
H26 C26 1_555 1_555
C27 C22 1_555 1_555
H27 C27 1_555 1_555
O1 S1 1_555 1_555
O2 S1 1_555 1_555
O3 C12 1_555 1_555
S1 C1 1_555 1_555
N1 C8 1_555 1_555
C6 C7 1_555 1_555
C11 N1 1_555 1_555
C17 C18 1_555 1_555
C26 C27 1_555 1_555
S1 N1 1_555 1_555

#END
