
#######################################################################
#
#                 Cambridge Crystallographic Data Centre
#                                CCDC 
#
#######################################################################
#
# If this CIF has been generated from an entry in the Cambridge 
# Structural Database, then it will include bibliographic, chemical, 
# crystal, experimental, refinement or atomic coordinate data resulting 
# from the CCDC's data processing and validation procedures.
#
#######################################################################

data_AKUYEL
_chemical_formula_moiety         'C20 H20 N2 O5 S1'
_chemical_name_systematic        
(4-Nitrophenyl)(1-((4-methylphenyl)sulfonyl)-4-vinylpyrrolidin-3-yl)methanone
_symmetry_cell_setting           monoclinic
_symmetry_space_group_name_H-M   'P 21/c'
_symmetry_Int_Tables_number      14
_space_group_name_Hall           '-P 2ybc'
loop_
_symmetry_equiv_pos_site_id
_symmetry_equiv_pos_as_xyz
1 x,y,z
2 -x,1/2+y,1/2-z
3 -x,-y,-z
4 x,1/2-y,1/2+z
_cell_length_a                   12.7243(7)
_cell_length_b                   6.0218(3)
_cell_length_c                   26.3225(17)
_cell_angle_alpha                90
_cell_angle_beta                 99.333(2)
_cell_angle_gamma                90
_cell_volume                     1990.21
_exptl_crystal_colour            colorless
_exptl_crystal_description       prism
_cell_formula_units_Z            4
loop_
_atom_site_label
_atom_site_type_symbol
_atom_site_fract_x
_atom_site_fract_y
_atom_site_fract_z
C1 C 0.1906(6) -0.0041(11) 0.2783(3)
C2 C 0.1679(7) 0.1650(13) 0.3101(3)
H1 H 0.2098 0.2923 0.3136
C3 C 0.0841(8) 0.1475(15) 0.3366(3)
H2 H 0.0706 0.2628 0.3582
C4 C 0.0196(7) -0.0360(18) 0.3321(4)
C5 C -0.0730(9) -0.052(2) 0.3614(4)
H3 H -0.0781 0.0822 0.3804
H4 H -0.0621 -0.1756 0.3848
H5 H -0.1378 -0.0742 0.3375
C6 C 0.0441(7) -0.2070(16) 0.3016(4)
H6 H 0.0033 -0.3358 0.2993
C7 C 0.1264(7) -0.1932(12) 0.2746(3)
H7 H 0.1401 -0.3104 0.2536
C8 C 0.4639(6) 0.0705(12) 0.3232(3)
H8 H 0.4177 0.1345 0.3452
H9 H 0.5004 0.1891 0.3082
C9 C 0.5419(6) -0.0897(11) 0.3525(3)
H10 H 0.5968 -0.1234 0.3315
C10 C 0.4723(6) -0.3001(12) 0.3546(3)
H11 H 0.5177 -0.4319 0.3610
C11 C 0.4006(8) -0.2817(14) 0.3947(4)
H12 H 0.3476 -0.1740 0.3893
C12 C 0.4053(12) -0.3958(19) 0.4342(6)
H13 H 0.4570 -0.5057 0.4413
H14 H 0.3572 -0.3716 0.4567
C13 C 0.4111(6) -0.3052(11) 0.2999(3)
H15 H 0.4488 -0.3930 0.2777
H16 H 0.3408 -0.3683 0.2993
C14 C 0.5951(6) -0.0139(13) 0.4033(3)
C15 C 0.6775(6) -0.1568(12) 0.4354(3)
C16 C 0.7082(9) -0.1120(15) 0.4858(4)
H17 H 0.6822 0.0145 0.4998
C17 C 0.7774(10) -0.2499(18) 0.5172(5)
H18 H 0.7956 -0.2244 0.5524
C18 C 0.8187(8) -0.4302(16) 0.4932(5)
C19 C 0.7935(7) -0.4739(15) 0.4457(4)
H19 H 0.8233 -0.5965 0.4319
C20 C 0.7202(6) -0.3380(14) 0.4132(4)
H20 H 0.7014 -0.3690 0.3783
N1 N 0.4034(5) -0.0714(9) 0.2830(2)
N2 N 0.8956(9) -0.5784(19) 0.5302(5)
O1 O 0.3171(4) 0.2466(9) 0.2367(2)
O2 O 0.2812(5) -0.1349(9) 0.2034(2)
O3 O 0.5740(6) 0.1689(10) 0.4203(2)
O4 O 0.942(2) -0.493(5) 0.5677(17)
O5 O 0.9307(7) -0.7311(13) 0.5083(4)
S1 S 0.29930(16) 0.0159(3) 0.24566(8)
O6? O 0.890(3) -0.574(5) 0.5750(14)
loop_
_geom_bond_atom_site_label_1
_geom_bond_atom_site_label_2
_geom_bond_site_symmetry_1
_geom_bond_site_symmetry_2
C1 C2 1_555 1_555
C2 H1 1_555 1_555
C3 C2 1_555 1_555
H2 C3 1_555 1_555
C4 C3 1_555 1_555
C5 C4 1_555 1_555
H3 C5 1_555 1_555
H4 C5 1_555 1_555
H5 C5 1_555 1_555
C6 C4 1_555 1_555
H6 C6 1_555 1_555
C7 C1 1_555 1_555
H7 C7 1_555 1_555
C8 H8 1_555 1_555
H9 C8 1_555 1_555
C9 C8 1_555 1_555
H10 C9 1_555 1_555
C10 C9 1_555 1_555
H11 C10 1_555 1_555
C11 C10 1_555 1_555
H12 C11 1_555 1_555
C12 C11 1_555 1_555
H13 C12 1_555 1_555
H14 C12 1_555 1_555
C13 C10 1_555 1_555
H15 C13 1_555 1_555
H16 C13 1_555 1_555
C14 C9 1_555 1_555
C15 C14 1_555 1_555
C16 C15 1_555 1_555
H17 C16 1_555 1_555
C17 C16 1_555 1_555
H18 C17 1_555 1_555
C18 C17 1_555 1_555
C19 C18 1_555 1_555
H19 C19 1_555 1_555
C20 C15 1_555 1_555
H20 C20 1_555 1_555
N1 C8 1_555 1_555
N2 C18 1_555 1_555
O1 S1 1_555 1_555
O2 S1 1_555 1_555
O3 C14 1_555 1_555
O4 N2 1_555 1_555
O5 N2 1_555 1_555
S1 C1 1_555 1_555
C6 C7 1_555 1_555
C13 N1 1_555 1_555
C19 C20 1_555 1_555
N1 S1 1_555 1_555

#END
