
#######################################################################
#
#                 Cambridge Crystallographic Data Centre
#                                CCDC 
#
#######################################################################
#
# If this CIF has been generated from an entry in the Cambridge 
# Structural Database, then it will include bibliographic, chemical, 
# crystal, experimental, refinement or atomic coordinate data resulting 
# from the CCDC's data processing and validation procedures.
#
#######################################################################

data_AKUYAH
_chemical_formula_moiety         'C20 H20 Br1 N1 O3 S1'
_chemical_name_systematic        
(4-Bromophenyl)(1-((4-methylphenyl)sulfonyl)-4-vinylpyrrolidin-3-yl)methanone
_symmetry_cell_setting           orthorhombic
_symmetry_space_group_name_H-M   'P n a 21'
_symmetry_Int_Tables_number      33
_space_group_name_Hall           'P 2c -2n'
loop_
_symmetry_equiv_pos_site_id
_symmetry_equiv_pos_as_xyz
1 x,y,z
2 -x,-y,1/2+z
3 1/2+x,1/2-y,z
4 1/2-x,1/2+y,1/2+z
_cell_length_a                   28.7069(8)
_cell_length_b                   11.1373(3)
_cell_length_c                   6.0181(2)
_cell_angle_alpha                90
_cell_angle_beta                 90
_cell_angle_gamma                90
_cell_volume                     1924.09
_exptl_crystal_colour            colorless
_exptl_crystal_description       prism
_cell_formula_units_Z            4
loop_
_atom_site_label
_atom_site_type_symbol
_atom_site_fract_x
_atom_site_fract_y
_atom_site_fract_z
Br1 Br 0.498275(10) -0.27921(3) 0.72670(11)
C1 C 0.18984(10) 0.2902(2) 1.0107(5)
C2 C 0.17474(11) 0.1981(3) 1.1479(5)
H1 H 0.1880 0.1878 1.2911
C3 C 0.14027(11) 0.1216(3) 1.0748(6)
H2 H 0.1300 0.0584 1.1688
C4 C 0.12022(12) 0.1353(3) 0.8656(6)
C5 C 0.08097(12) 0.0562(3) 0.7906(7)
H3 H 0.0746 -0.0042 0.9049
H4 H 0.0897 0.0160 0.6517
H5 H 0.0531 0.1051 0.7661
C6 C 0.13632(10) 0.2272(3) 0.7310(7)
H6 H 0.1231 0.2374 0.5875
C7 C 0.17119(10) 0.3046(3) 0.8004(5)
H7 H 0.1821 0.3665 0.7052
C8 C 0.29512(9) 0.3066(3) 0.8088(4)
H8 H 0.2988 0.3825 0.7251
H9 H 0.2713 0.2561 0.7350
C9 C 0.34146(9) 0.2400(3) 0.8311(5)
H10 H 0.3478 0.1922 0.6937
C10 C 0.38095(10) 0.3230(3) 0.8767(5)
H11 H 0.3779 0.3765 0.9987
C11 C 0.41945(9) 0.3277(3) 0.7620(6)
H12 H 0.4238 0.2756 0.6388
H13 H 0.4431 0.3834 0.8016
C12 C 0.33126(9) 0.1548(2) 1.0295(5)
H14 H 0.3132 0.0844 0.9730
C13 C 0.29975(10) 0.2277(3) 1.1835(5)
H15 H 0.2732 0.1784 1.2362
H16 H 0.3174 0.2573 1.3138
C14 C 0.37424(9) 0.1086(3) 1.1471(5)
C15 C 0.40442(9) 0.0179(2) 1.0330(4)
C16 C 0.39478(9) -0.0285(2) 0.8250(4)
H17 H 0.3685 0.0004 0.7452
C17 C 0.42258(8) -0.1159(2) 0.7310(5)
H18 H 0.4158 -0.1469 0.5875
C18 C 0.46058(9) -0.1573(3) 0.8505(5)
C19 C 0.47162(10) -0.1112(3) 1.0567(5)
H19 H 0.4982 -0.1393 1.1352
C20 C 0.44335(9) -0.0237(2) 1.1467(5)
H20 H 0.4506 0.0087 1.2885
N1 N 0.28310(7) 0.3293(2) 1.0448(4)
O1 O 0.22961(8) 0.49742(19) 0.9754(4)
O2 O 0.23127(8) 0.39719(19) 1.3415(3)
O3 O 0.38446(7) 0.1427(2) 1.3318(4)
S1 S 0.23354(3) 0.39016(7) 1.10347(12)
loop_
_geom_bond_atom_site_label_1
_geom_bond_atom_site_label_2
_geom_bond_site_symmetry_1
_geom_bond_site_symmetry_2
Br1 C18 1_555 1_555
C1 C2 1_555 1_555
C2 H1 1_555 1_555
C3 C2 1_555 1_555
H2 C3 1_555 1_555
C4 C3 1_555 1_555
C5 C4 1_555 1_555
H3 C5 1_555 1_555
H4 C5 1_555 1_555
H5 C5 1_555 1_555
C6 C4 1_555 1_555
H6 C6 1_555 1_555
C7 C1 1_555 1_555
H7 C7 1_555 1_555
C8 H8 1_555 1_555
H9 C8 1_555 1_555
C9 C8 1_555 1_555
H10 C9 1_555 1_555
C10 C9 1_555 1_555
H11 C10 1_555 1_555
C11 C10 1_555 1_555
H12 C11 1_555 1_555
H13 C11 1_555 1_555
C12 C9 1_555 1_555
H14 C12 1_555 1_555
C13 C12 1_555 1_555
H15 C13 1_555 1_555
H16 C13 1_555 1_555
C14 C12 1_555 1_555
C15 C14 1_555 1_555
C16 C15 1_555 1_555
H17 C16 1_555 1_555
C17 C16 1_555 1_555
H18 C17 1_555 1_555
C18 C17 1_555 1_555
C19 C18 1_555 1_555
H19 C19 1_555 1_555
C20 C15 1_555 1_555
H20 C20 1_555 1_555
N1 C8 1_555 1_555
O1 S1 1_555 1_555
O2 S1 1_555 1_555
O3 C14 1_555 1_555
S1 C1 1_555 1_555
C6 C7 1_555 1_555
C13 N1 1_555 1_555
C19 C20 1_555 1_555
N1 S1 1_555 1_555

#END
