
#######################################################################
#
#                 Cambridge Crystallographic Data Centre
#                                CCDC 
#
#######################################################################
#
# If this CIF has been generated from an entry in the Cambridge 
# Structural Database, then it will include bibliographic, chemical, 
# crystal, experimental, refinement or atomic coordinate data resulting 
# from the CCDC's data processing and validation procedures.
#
#######################################################################

data_AKUZUC
_chemical_formula_moiety         'C22 H16 N2 O2 S1'
_chemical_name_systematic        
2-Benzyl-1-(phenylsulfonyl)-1H-indole-5-carbonitrile
_symmetry_cell_setting           monoclinic
_symmetry_space_group_name_H-M   'P 21/n'
_symmetry_Int_Tables_number      14
_space_group_name_Hall           '-P 2yn'
loop_
_symmetry_equiv_pos_site_id
_symmetry_equiv_pos_as_xyz
1 x,y,z
2 1/2-x,1/2+y,1/2-z
3 -x,-y,-z
4 1/2+x,1/2-y,1/2+z
_cell_length_a                   10.8591(3)
_cell_length_b                   10.0425(3)
_cell_length_c                   17.0542(4)
_cell_angle_alpha                90
_cell_angle_beta                 100.888(3)
_cell_angle_gamma                90
_cell_volume                     1826.32
_exptl_crystal_colour            colorless
_exptl_crystal_description       blocks
_chemical_melting_point          '130.5-131.5 deg.C'
_cell_formula_units_Z            4
_exptl_crystal_recrystallization_method hexane/dichloromethane
loop_
_atom_site_label
_atom_site_type_symbol
_atom_site_fract_x
_atom_site_fract_y
_atom_site_fract_z
N1 N 0.58850(12) 0.94935(14) 0.89361(8)
C1 C 0.69146(15) 0.9818(2) 0.95585(10)
C2 C 0.66789(15) 1.0993(2) 0.98703(10)
H1 H 0.7210 1.1425 1.0302
C3 C 0.55142(15) 1.14953(19) 0.94562(10)
C4 C 0.48547(17) 1.2660(2) 0.95259(11)
H2 H 0.5168 1.3297 0.9926
C5 C 0.37405(18) 1.28779(19) 0.90068(11)
C6 C 0.32607(16) 1.1936(2) 0.84183(11)
H3 H 0.2488 1.2108 0.8067
C7 C 0.38902(15) 1.0772(2) 0.83434(10)
H4 H 0.3564 1.0134 0.7947
C8 C 0.50191(15) 1.05544(18) 0.88659(9)
S1 S 0.56610(4) 0.80969(5) 0.83901(3)
O1 O 0.64141(13) 0.70998(14) 0.88334(8)
O2 O 0.43393(11) 0.79307(13) 0.81821(8)
C9 C 0.6292(3) 0.8375(3) 0.75531(15)
C10 C 0.5651(5) 0.9162(4) 0.69387(19)
H5 H 0.4858 0.9530 0.6977
C11 C 0.6168(7) 0.9410(3) 0.6267(2)
H6 H 0.5730 0.9948 0.5847
C12 C 0.7327(6) 0.8872(3) 0.6211(2)
H7 H 0.7681 0.9041 0.5752
C13 C 0.7969(3) 0.8085(5) 0.6825(2)
H8 H 0.8761 0.7716 0.6786
C14 C 0.7451(2) 0.7836(5) 0.74963(14)
H9 H 0.7889 0.7298 0.7916
C15 C 0.80761(16) 0.8994(2) 0.97983(10)
H10 H 0.7822 0.8060 0.9864
H11 H 0.8525 0.9310 1.0325
C16 C 0.89827(15) 0.90162(18) 0.92215(10)
C17 C 0.90877(16) 1.01031(18) 0.87401(11)
H12 H 0.8576 1.0863 0.8764
C18 C 0.99268(16) 1.00966(19) 0.82253(11)
H13 H 0.9986 1.0849 0.7897
C19 C 1.06792(16) 0.9005(2) 0.81846(11)
H14 H 1.1249 0.9000 0.7825
C20 C 1.06037(17) 0.7934(2) 0.86628(13)
H15 H 1.1125 0.7181 0.8638
C21 C 0.97669(17) 0.79392(19) 0.91863(12)
H16 H 0.9732 0.7194 0.9525
C22 C 0.3051(2) 1.4086(2) 0.90767(13)
N2 N 0.2505(2) 1.5037(2) 0.91303(15)
C23? C 0.6106(5) 0.8552(9) 0.7478(3)
C24? C 0.5194(5) 0.9033(8) 0.6859(4)
C25? C 0.5505(6) 0.9333(7) 0.6125(3)
C26? C 0.6727(6) 0.9152(7) 0.6009(3)
C27? C 0.7638(5) 0.8670(8) 0.6628(3)
C28? C 0.7328(5) 0.8370(8) 0.7362(3)
H17? H 0.4359 0.9157 0.6939
H18? H 0.4882 0.9663 0.5702
H19? H 0.6939 0.9357 0.5507
H20? H 0.8474 0.8546 0.6549
H21? H 0.7951 0.8041 0.7785
loop_
_geom_bond_atom_site_label_1
_geom_bond_atom_site_label_2
_geom_bond_site_symmetry_1
_geom_bond_site_symmetry_2
N1 C1 1_555 1_555
C1 C2 1_555 1_555
C2 H1 1_555 1_555
C3 C2 1_555 1_555
C4 C3 1_555 1_555
H2 C4 1_555 1_555
C5 C4 1_555 1_555
C6 C5 1_555 1_555
H3 C6 1_555 1_555
C7 C6 1_555 1_555
H4 C7 1_555 1_555
C8 N1 1_555 1_555
S1 N1 1_555 1_555
O1 S1 1_555 1_555
O2 S1 1_555 1_555
C9 S1 1_555 1_555
C10 C9 1_555 1_555
H5 C10 1_555 1_555
C11 C10 1_555 1_555
H6 C11 1_555 1_555
C12 C11 1_555 1_555
H7 C12 1_555 1_555
C13 C12 1_555 1_555
H8 C13 1_555 1_555
C14 C9 1_555 1_555
H9 C14 1_555 1_555
C15 C1 1_555 1_555
H10 C15 1_555 1_555
H11 C15 1_555 1_555
C16 C15 1_555 1_555
C17 C16 1_555 1_555
H12 C17 1_555 1_555
C18 C17 1_555 1_555
H13 C18 1_555 1_555
C19 C18 1_555 1_555
H14 C19 1_555 1_555
C20 C19 1_555 1_555
H15 C20 1_555 1_555
C21 C16 1_555 1_555
H16 C21 1_555 1_555
C22 C5 1_555 1_555
N2 C22 1_555 1_555
C3 C8 1_555 1_555
C7 C8 1_555 1_555
C13 C14 1_555 1_555
C20 C21 1_555 1_555

#END
