
#######################################################################
#
#                 Cambridge Crystallographic Data Centre
#                                CCDC 
#
#######################################################################
#
# If this CIF has been generated from an entry in the Cambridge 
# Structural Database, then it will include bibliographic, chemical, 
# crystal, experimental, refinement or atomic coordinate data resulting 
# from the CCDC's data processing and validation procedures.
#
#######################################################################

data_AKUZEM
_chemical_formula_moiety         'C18 H30 N2 O6 Si1'
_chemical_name_systematic        
5'-t-Butyl(dimethyl)silyl-3'-O-acetylthymidine
_symmetry_cell_setting           orthorhombic
_symmetry_space_group_name_H-M   'C 2 2 21'
_symmetry_Int_Tables_number      20
_space_group_name_Hall           'C 2n 2'
loop_
_symmetry_equiv_pos_site_id
_symmetry_equiv_pos_as_xyz
1 x,y,z
2 -x,-y,1/2+z
3 -x,y,1/2-z
4 x,-y,-z
5 1/2+x,1/2+y,z
6 1/2-x,1/2-y,1/2+z
7 1/2-x,1/2+y,1/2-z
8 1/2+x,1/2-y,-z
_cell_length_a                   10.9379(17)
_cell_length_b                   12.550(2)
_cell_length_c                   31.289(5)
_cell_angle_alpha                90
_cell_angle_beta                 90
_cell_angle_gamma                90
_cell_volume                     4295.06
_exptl_crystal_colour            colorless
_exptl_crystal_description       block
_cell_formula_units_Z            8
loop_
_atom_site_label
_atom_site_type_symbol
_atom_site_fract_x
_atom_site_fract_y
_atom_site_fract_z
Si1 Si 0.75831(4) 0.84445(3) 0.678071(13)
O1 O 0.71235(9) 0.86257(8) 0.62836(3)
O2 O 0.62095(9) 0.92684(8) 0.54565(3)
O3 O 0.32077(10) 1.09674(9) 0.53251(4)
O4 O 0.11044(10) 0.85404(10) 0.61067(4)
O5 O 0.79992(9) 1.12966(8) 0.54872(3)
O6 O 0.98308(11) 1.06002(12) 0.56033(5)
N1 N 0.43060(11) 0.97659(10) 0.57186(4)
N2 N 0.21955(11) 0.97273(10) 0.57167(4)
H1 H 0.1501 0.9974 0.5615
C1 C 0.8968(2) 0.65958(17) 0.66372(7)
H2 H 0.9106 0.5841 0.6701
H3 H 0.9691 0.7008 0.6720
H4 H 0.8821 0.6684 0.6330
C2 C 0.8089(3) 0.6818(2) 0.73652(6)
H5 H 0.8266 0.6064 0.7418
H6 H 0.7361 0.7028 0.7527
H7 H 0.8787 0.7252 0.7456
C3 C 0.6736(2) 0.63299(16) 0.67464(8)
H8 H 0.6910 0.5570 0.6786
H9 H 0.6561 0.6469 0.6444
H10 H 0.6027 0.6531 0.6920
C4 C 0.78583(17) 0.69923(14) 0.68868(5)
C5 C 0.89634(18) 0.92568(19) 0.68875(7)
H11 H 0.8772 1.0012 0.6844
H12 H 0.9619 0.9044 0.6692
H13 H 0.9230 0.9144 0.7183
C6 C 0.62732(18) 0.89398(16) 0.71021(6)
H14 H 0.6082 0.9673 0.7018
H15 H 0.6488 0.8922 0.7406
H16 H 0.5559 0.8485 0.7052
C7 C 0.78196(14) 0.85305(12) 0.58985(5)
H17 H 0.7665 0.7828 0.5765
H18 H 0.8703 0.8583 0.5964
C8 C 0.74546(13) 0.94122(11) 0.55935(4)
H19 H 0.8001 0.9386 0.5338
C9 C 0.75297(14) 1.05225(11) 0.57918(5)
H20 H 0.8034 1.0514 0.6058
C10 C 0.62085(13) 1.08055(13) 0.58900(5)
H21 H 0.6065 1.1580 0.5856
H22 H 0.5987 1.0593 0.6185
C11 C 0.54815(13) 1.01712(12) 0.55625(5)
H23 H 0.5346 1.0615 0.5301
C12 C 0.32387(14) 1.02071(12) 0.55658(5)
C13 C 0.21035(14) 0.89019(12) 0.60095(5)
C14 C 0.32676(14) 0.85343(12) 0.61789(5)
C15 C 0.42879(14) 0.89672(12) 0.60236(5)
H24 H 0.5049 0.8712 0.6128
C16 C 0.32473(17) 0.77064(15) 0.65233(6)
H25 H 0.4037 0.7339 0.6532
H26 H 0.2598 0.7190 0.6464
H27 H 0.3094 0.8049 0.6800
C17 C 0.92126(14) 1.12529(13) 0.54250(5)
C18 C 0.96742(16) 1.20553(14) 0.51149(6)
H28 H 1.0351 1.2453 0.5244
H29 H 0.9014 1.2549 0.5040
H30 H 0.9962 1.1693 0.4856
loop_
_geom_bond_atom_site_label_1
_geom_bond_atom_site_label_2
_geom_bond_site_symmetry_1
_geom_bond_site_symmetry_2
Si1 O1 1_555 1_555
O1 C7 1_555 1_555
O2 C8 1_555 1_555
O3 C12 1_555 1_555
O4 C13 1_555 1_555
O5 C9 1_555 1_555
O6 C17 1_555 1_555
N1 C11 1_555 1_555
N2 H1 1_555 1_555
C1 H2 1_555 1_555
H3 C1 1_555 1_555
H4 C1 1_555 1_555
C2 H5 1_555 1_555
H6 C2 1_555 1_555
H7 C2 1_555 1_555
C3 H8 1_555 1_555
H9 C3 1_555 1_555
H10 C3 1_555 1_555
C4 Si1 1_555 1_555
C5 Si1 1_555 1_555
H11 C5 1_555 1_555
H12 C5 1_555 1_555
H13 C5 1_555 1_555
C6 Si1 1_555 1_555
H14 C6 1_555 1_555
H15 C6 1_555 1_555
H16 C6 1_555 1_555
C7 H17 1_555 1_555
H18 C7 1_555 1_555
C8 C7 1_555 1_555
H19 C8 1_555 1_555
C9 C8 1_555 1_555
H20 C9 1_555 1_555
C10 C9 1_555 1_555
H21 C10 1_555 1_555
H22 C10 1_555 1_555
C11 O2 1_555 1_555
H23 C11 1_555 1_555
C12 N1 1_555 1_555
C13 N2 1_555 1_555
C14 C13 1_555 1_555
C15 N1 1_555 1_555
H24 C15 1_555 1_555
C16 C14 1_555 1_555
H25 C16 1_555 1_555
H26 C16 1_555 1_555
H27 C16 1_555 1_555
C17 O5 1_555 1_555
C18 C17 1_555 1_555
H28 C18 1_555 1_555
H29 C18 1_555 1_555
H30 C18 1_555 1_555
N2 C12 1_555 1_555
C1 C4 1_555 1_555
C2 C4 1_555 1_555
C3 C4 1_555 1_555
C10 C11 1_555 1_555
C14 C15 1_555 1_555

#END
