
#######################################################################
#
#                 Cambridge Crystallographic Data Centre
#                                CCDC 
#
#######################################################################
#
# If this CIF has been generated from an entry in the Cambridge 
# Structural Database, then it will include bibliographic, chemical, 
# crystal, experimental, refinement or atomic coordinate data resulting 
# from the CCDC's data processing and validation procedures.
#
#######################################################################

data_ALABOF01
_chemical_formula_moiety         'C40 H54 N2 2+,C32 H38 O10,2(F6 P1 1-),H2 O1'
_chemical_name_systematic        
"[2]-(1,1'-bis(3,5-di-t-butylbenzyl)-4,4'-bipyridinium)-(4,7,10,13,19,22,25,28,32,39-decaoxatetracyclo[14.14.10.1^3,29^.1^14,18^]dotetraconta-1,3(41),14(42),15,17,29-hexaene-34,36-diyne) bis(hexafluorophosphate) rotaxane monohydrate"
_symmetry_cell_setting           monoclinic
_symmetry_space_group_name_H-M   'P 21/c'
_symmetry_Int_Tables_number      14
_space_group_name_Hall           '-P 2ybc'
loop_
_symmetry_equiv_pos_site_id
_symmetry_equiv_pos_as_xyz
1 x,y,z
2 -x,1/2+y,1/2-z
3 -x,-y,-z
4 x,1/2-y,1/2+z
_cell_length_a                   13.666(2)
_cell_length_b                   17.343(3)
_cell_length_c                   34.900(5)
_cell_angle_alpha                90
_cell_angle_beta                 106.726(5)
_cell_angle_gamma                90
_cell_volume                     7921.67
_exptl_crystal_colour            yellow
_exptl_crystal_description       block
_cell_formula_units_Z            4
loop_
_atom_site_label
_atom_site_type_symbol
_atom_site_fract_x
_atom_site_fract_y
_atom_site_fract_z
N1 N 0.3781(5) 0.8981(4) 0.97294(19)
N2 N 0.2902(5) 0.7950(4) 0.7738(2)
C1 C 0.3226(5) 0.8396(4) 0.8513(2)
C2 C 0.3408(6) 0.8633(4) 0.8937(2)
C3 C 0.2039(6) 0.8382(5) 0.7056(2)
C4 C 0.2374(6) 0.7634(4) 0.7952(3)
H1 H 0.1885 0.7264 0.7837
C5 C 0.2524(6) 0.7836(4) 0.8344(3)
H2 H 0.2152 0.7594 0.8495
C6 C 0.4552(7) 0.8943(5) 0.9566(3)
H3 H 0.5216 0.9028 0.9726
C7 C 0.3774(6) 0.8725(5) 0.8281(3)
H4 H 0.4257 0.9102 0.8391
C8 C 0.3791(6) 0.8379(5) 1.0355(2)
C9 C 0.3625(6) 0.8514(5) 0.7900(3)
H5 H 0.4000 0.8741 0.7746
C10 C 0.4388(6) 0.8784(5) 0.9171(3)
H6 H 0.4930 0.8777 0.9060
C11 C 0.2501(7) 0.9035(6) 0.6965(3)
H7 H 0.3209 0.9076 0.7044
C12 C 0.0846(8) 0.9521(6) 0.6615(3)
H8 H 0.0440 0.9912 0.6468
C13 C 0.4292(7) 0.7090(5) 1.0583(3)
C14 C 0.0381(7) 0.8843(5) 0.6689(3)
C15 C 0.2686(6) 0.7618(5) 1.0637(3)
C16 C 0.2904(7) 0.8298(5) 1.0468(3)
H9 H 0.2446 0.8707 1.0430
C17 C 0.3394(7) 0.7037(6) 1.0691(3)
H10 H 0.3263 0.6580 1.0806
C18 C 0.1001(6) 0.8288(5) 0.6922(2)
H11 H 0.0708 0.7843 0.6989
C19 C -0.0778(7) 0.8715(7) 0.6510(3)
C20 C 0.2633(6) 0.8699(5) 0.9110(3)
H12 H 0.1962 0.8621 0.8956
C21 C 0.2705(7) 0.7774(5) 0.7306(2)
H13 H 0.2374 0.7275 0.7247
H14 H 0.3349 0.7749 0.7241
C22 C 0.4480(7) 0.7775(6) 1.0420(3)
H15 H 0.5086 0.7834 1.0353
C23 C 0.1730(8) 0.7547(6) 1.0772(4)
C24 C 0.2826(6) 0.8877(5) 0.9500(3)
H16 H 0.2286 0.8929 0.9611
C25 C 0.3963(7) 0.9096(5) 1.0160(2)
H17 H 0.3509 0.9494 1.0204
H18 H 0.4661 0.9268 1.0277
C26 C 0.5046(9) 0.6445(7) 1.0648(4)
C27 C 0.1903(9) 0.9631(6) 0.6755(3)
C28 C 0.0834(8) 0.7981(10) 1.0505(4)
H19 H 0.0249 0.7916 1.0602
H20 H 0.0684 0.7785 1.0237
H21 H 0.1001 0.8519 1.0506
C29 C 0.2385(13) 1.0373(8) 0.6668(4)
C30 C 0.5730(14) 0.6408(12) 1.1078(5)
H22 H 0.6361 0.6158 1.1084
H23 H 0.5391 0.6122 1.1238
H24 H 0.5868 0.6921 1.1183
C31 C 0.1593(16) 1.0963(8) 0.6450(6)
H25 H 0.1343 1.0826 0.6172
H26 H 0.1901 1.1464 0.6474
H27 H 0.1035 1.0969 0.6566
C32 C -0.1038(10) 0.7904(10) 0.6467(7)
H28 H -0.0868 0.7667 0.6726
H29 H -0.0661 0.7660 0.6307
H30 H -0.1757 0.7849 0.6339
C33 C 0.130(3) 0.670(3) 1.0712(9)
H31 H 0.1816 0.6349 1.0859
H32 H 0.1115 0.6571 1.0433
H33 H 0.0710 0.6664 1.0807
C34 C -0.118(2) 0.8960(15) 0.6061(8)
H34 H -0.1897 0.9068 0.5995
H35 H -0.1064 0.8549 0.5895
H36 H -0.0822 0.9413 0.6017
C35 C -0.1286(10) 0.9090(11) 0.6795(6)
H37 H -0.2013 0.9028 0.6694
H38 H -0.1121 0.9629 0.6818
H39 H -0.1046 0.8851 0.7053
C36 C 0.3060(13) 1.0722(8) 0.7092(5)
H40 H 0.2638 1.0779 0.7268
H41 H 0.3327 1.1217 0.7049
H42 H 0.3615 1.0379 0.7211
C37 C 0.5752(16) 0.6476(12) 1.0367(6)
H43 H 0.6021 0.5971 1.0347
H44 H 0.6305 0.6828 1.0475
H45 H 0.5364 0.6648 1.0106
C38 C 0.3143(14) 1.0183(8) 0.6422(5)
H46 H 0.3523 0.9727 0.6529
H47 H 0.3605 1.0607 0.6440
H48 H 0.2768 1.0098 0.6148
C39 C 0.4410(11) 0.5652(8) 1.0606(4)
H49 H 0.4153 0.5515 1.0329
H50 H 0.3849 0.5719 1.0717
H51 H 0.4849 0.5249 1.0748
C40 C 0.1960(12) 0.7867(10) 1.1190(4)
H52 H 0.2165 0.8396 1.1190
H53 H 0.2502 0.7575 1.1366
H54 H 0.1360 0.7833 1.1280
O1 O 0.0124(4) 0.8430(4) 0.78702(18)
O2 O 0.0105(6) 0.6856(4) 0.7706(2)
O3 O 0.1598(8) 0.6039(6) 0.7407(5)
O4 O 0.3741(6) 0.6079(5) 0.7767(3)
O5 O 0.5827(6) 0.7652(4) 0.8802(3)
O6 O 0.6107(5) 0.9256(4) 0.8621(2)
O7 O 0.4760(5) 1.0465(4) 0.8624(2)
O8 O 0.2574(4) 1.0340(3) 0.8257(2)
O9 O -0.0949(5) 0.9889(5) 0.8972(2)
O10 O 0.2613(8) 0.6535(5) 0.9120(3)
C46 C 0.1696(6) 1.0049(5) 0.8306(3)
C47 C 0.0432(6) 0.9062(5) 0.8113(2)
C48 C 0.1278(6) 0.9438(5) 0.8067(3)
H70 H 0.1570 0.9274 0.7871
C49 C -0.0041(6) 0.9325(6) 0.8387(3)
H71 H -0.0620 0.9078 0.8415
C50 C 0.1226(7) 1.0315(5) 0.8584(3)
H72 H 0.1493 1.0732 0.8748
C51 C 0.0344(6) 0.9944(6) 0.8613(3)
C52 C 0.6868(8) 0.8673(7) 0.8702(4)
H73 H 0.7184 0.8626 0.8988
H74 H 0.7394 0.8798 0.8575
C53 C 0.4674(10) 0.6802(6) 0.8948(4)
H75 H 0.4886 0.6976 0.9211
C54 C 0.4834(7) 0.6816(5) 0.8281(4)
H76 H 0.5148 0.6998 0.8095
C55 C 0.5116(8) 0.7066(6) 0.8676(4)
C56 C 0.3094(7) 1.0931(6) 0.8523(4)
H77 H 0.3202 1.0767 0.8798
H78 H 0.2685 1.1397 0.8480
C57 C 0.3597(9) 0.6002(6) 0.8456(5)
H79 H 0.3080 0.5635 0.8384
C58 C 0.4049(8) 0.6274(6) 0.8184(5)
C59 C 0.4075(8) 1.1084(5) 0.8451(4)
H80 H 0.3990 1.1114 0.8166
H81 H 0.4349 1.1571 0.8572
C60 C -0.0582(7) 0.7907(6) 0.7962(3)
H82 H -0.1212 0.8176 0.7951
H83 H -0.0299 0.7707 0.8230
C61 C 0.3909(10) 0.6271(7) 0.8830(5)
C62 C 0.5713(8) 1.0547(7) 0.8547(4)
H84 H 0.5983 1.1058 0.8628
H85 H 0.5618 1.0499 0.8261
C63 C -0.0794(8) 0.7276(6) 0.7678(4)
H86 H -0.1305 0.6939 0.7732
H87 H -0.1065 0.7478 0.7409
C64 C 0.0278(10) 0.8238(10) 0.9351(4)
C65 C 0.3365(12) 0.6000(8) 0.9131(5)
H88 H 0.3068 0.5493 0.9059
H89 H 0.3841 0.5972 0.9398
C66 C -0.0185(10) 1.0320(8) 0.8896(5)
H90 H 0.0325 1.0426 0.9148
H91 H -0.0469 1.0810 0.8783
C67 C 0.3222(11) 0.5416(6) 0.7626(5)
H92 H 0.3038 0.5159 0.7843
H93 H 0.3660 0.5073 0.7531
C68 C 0.6441(8) 0.9973(6) 0.8757(4)
H94 H 0.7102 1.0069 0.8715
H95 H 0.6521 1.0005 0.9042
C69 C -0.0074(10) 0.6179(8) 0.7482(5)
H96 H -0.0498 0.6299 0.7215
H97 H -0.0456 0.5828 0.7602
C70 C -0.0135(10) 0.8813(10) 0.9356(4)
C71 C 0.2292(10) 0.5576(7) 0.7300(5)
H98 H 0.2485 0.5822 0.7083
H99 H 0.1964 0.5091 0.7201
C72 C 0.0805(19) 0.5806(8) 0.7454(6)
H100 H 0.1019 0.5499 0.7696
H101 H 0.0556 0.5439 0.7238
C73 C 0.6343(9) 0.7932(7) 0.8535(4)
H102 H 0.5862 0.8022 0.8274
H103 H 0.6842 0.7556 0.8505
C74 C 0.1364(13) 0.7006(10) 0.9372(4)
C75 C 0.2066(14) 0.6365(9) 0.9400(5)
H104 H 0.2528 0.6325 0.9668
H105 H 0.1694 0.5884 0.9333
C76 C -0.0671(10) 0.9550(9) 0.9353(4)
H106 H -0.1279 0.9463 0.9437
H107 H -0.0230 0.9901 0.9543
C77 C 0.0798(11) 0.7579(11) 0.9359(4)
P1 P 0.24753(19) 0.11919(16) 0.98461(8)
F1 F 0.1803(6) 0.0462(5) 0.9777(3)
F2 F 0.1706(6) 0.1605(6) 1.0026(3)
F3 F 0.3308(5) 0.0743(4) 0.96907(18)
F4 F 0.3214(6) 0.1893(4) 0.9932(3)
F5 F 0.3056(5) 0.0864(4) 1.02800(18)
F6 F 0.1924(6) 0.1491(5) 0.9422(2)
P2 P 0.5977(3) 0.81166(19) 0.72854(12)
F7 F 0.5068(9) 0.7863(8) 0.6908(3)
F8 F 0.6328(14) 0.8707(7) 0.7044(5)
F9 F 0.5302(9) 0.8727(6) 0.7398(5)
F10 F 0.6841(7) 0.8434(10) 0.7601(4)
F11 F 0.5437(12) 0.7580(8) 0.7508(4)
F12 F 0.6611(9) 0.7515(8) 0.7147(5)
O11 O 0.796(4) 0.573(3) 0.9847(10)
C41? C 0.5956(14) 0.6698(11) 1.0950(6)
H55? H 0.6375 0.6260 1.1057
H56? H 0.5764 0.6955 1.1161
H57? H 0.6332 0.7048 1.0833
C42? C 0.155(3) 0.672(2) 1.0866(9)
H58? H 0.2040 0.6575 1.1113
H59? H 0.1628 0.6396 1.0654
H60? H 0.0874 0.6668 1.0891
C43? C -0.112(2) 0.9236(14) 0.6187(8)
H61? H -0.0684 0.9206 0.6017
H62? H -0.1114 0.9751 0.6289
H63? H -0.1808 0.9103 0.6036
C44? C 0.5260(16) 0.6242(11) 1.0295(5)
H64? H 0.5312 0.6699 1.0147
H65? H 0.4721 0.5921 1.0137
H66? H 0.5895 0.5965 1.0357
C45? C 0.4912(11) 0.5809(8) 1.0953(4)
H67? H 0.4198 0.5729 1.0921
H68? H 0.5242 0.5977 1.1221
H69? H 0.5215 0.5335 1.0902
loop_
_geom_bond_atom_site_label_1
_geom_bond_atom_site_label_2
_geom_bond_site_symmetry_1
_geom_bond_site_symmetry_2
N1 C6 1_555 1_555
N2 C4 1_555 1_555
C1 C2 1_555 1_555
C2 C10 1_555 1_555
C3 C11 1_555 1_555
C4 H1 1_555 1_555
C5 C1 1_555 1_555
H2 C5 1_555 1_555
C6 H3 1_555 1_555
C7 C1 1_555 1_555
H4 C7 1_555 1_555
C8 C16 1_555 1_555
C9 N2 1_555 1_555
H5 C9 1_555 1_555
C10 C6 1_555 1_555
H6 C10 1_555 1_555
C11 H7 1_555 1_555
C12 H8 1_555 1_555
C13 C17 1_555 1_555
C14 C12 1_555 1_555
C15 C16 1_555 1_555
C16 H9 1_555 1_555
C17 C15 1_555 1_555
H10 C17 1_555 1_555
C18 C3 1_555 1_555
H11 C18 1_555 1_555
C19 C14 1_555 1_555
C20 C2 1_555 1_555
H12 C20 1_555 1_555
C21 N2 1_555 1_555
H13 C21 1_555 1_555
H14 C21 1_555 1_555
C22 C8 1_555 1_555
H15 C22 1_555 1_555
C23 C15 1_555 1_555
C24 N1 1_555 1_555
H16 C24 1_555 1_555
C25 N1 1_555 1_555
H17 C25 1_555 1_555
H18 C25 1_555 1_555
C26 C13 1_555 1_555
C27 C11 1_555 1_555
C28 C23 1_555 1_555
H19 C28 1_555 1_555
H20 C28 1_555 1_555
H21 C28 1_555 1_555
C29 C27 1_555 1_555
C30 C26 1_555 1_555
H22 C30 1_555 1_555
H23 C30 1_555 1_555
H24 C30 1_555 1_555
C31 C29 1_555 1_555
H25 C31 1_555 1_555
H26 C31 1_555 1_555
H27 C31 1_555 1_555
C32 C19 1_555 1_555
H28 C32 1_555 1_555
H29 C32 1_555 1_555
H30 C32 1_555 1_555
C33 C23 1_555 1_555
H31 C33 1_555 1_555
H32 C33 1_555 1_555
H33 C33 1_555 1_555
C34 C19 1_555 1_555
H34 C34 1_555 1_555
H35 C34 1_555 1_555
H36 C34 1_555 1_555
C35 C19 1_555 1_555
H37 C35 1_555 1_555
H38 C35 1_555 1_555
H39 C35 1_555 1_555
C36 C29 1_555 1_555
H40 C36 1_555 1_555
H41 C36 1_555 1_555
H42 C36 1_555 1_555
C37 C26 1_555 1_555
H43 C37 1_555 1_555
H44 C37 1_555 1_555
H45 C37 1_555 1_555
C38 C29 1_555 1_555
H46 C38 1_555 1_555
H47 C38 1_555 1_555
H48 C38 1_555 1_555
C39 C26 1_555 1_555
H49 C39 1_555 1_555
H50 C39 1_555 1_555
H51 C39 1_555 1_555
C40 C23 1_555 1_555
H52 C40 1_555 1_555
H53 C40 1_555 1_555
H54 C40 1_555 1_555
O1 C47 1_555 1_555
O2 C63 1_555 1_555
O3 C71 1_555 1_555
O4 C58 1_555 1_555
O5 C55 1_555 1_555
O6 C52 1_555 1_555
O7 C59 1_555 1_555
O8 C46 1_555 1_555
O9 C66 1_555 1_555
O10 C65 1_555 1_555
C46 C48 1_555 1_555
C47 C48 1_555 1_555
C48 H70 1_555 1_555
C49 C47 1_555 1_555
H71 C49 1_555 1_555
C50 C46 1_555 1_555
H72 C50 1_555 1_555
C51 C49 1_555 1_555
C52 H73 1_555 1_555
H74 C52 1_555 1_555
C53 H75 1_555 1_555
C54 H76 1_555 1_555
C55 C53 1_555 1_555
C56 O8 1_555 1_555
H77 C56 1_555 1_555
H78 C56 1_555 1_555
C57 H79 1_555 1_555
C58 C54 1_555 1_555
C59 C56 1_555 1_555
H80 C59 1_555 1_555
H81 C59 1_555 1_555
C60 O1 1_555 1_555
H82 C60 1_555 1_555
H83 C60 1_555 1_555
C61 C53 1_555 1_555
C62 O7 1_555 1_555
H84 C62 1_555 1_555
H85 C62 1_555 1_555
C63 C60 1_555 1_555
H86 C63 1_555 1_555
H87 C63 1_555 1_555
C64 C70 1_555 1_555
C65 C61 1_555 1_555
H88 C65 1_555 1_555
H89 C65 1_555 1_555
C66 C51 1_555 1_555
H90 C66 1_555 1_555
H91 C66 1_555 1_555
C67 O4 1_555 1_555
H92 C67 1_555 1_555
H93 C67 1_555 1_555
C68 O6 1_555 1_555
H94 C68 1_555 1_555
H95 C68 1_555 1_555
C69 O2 1_555 1_555
H96 C69 1_555 1_555
H97 C69 1_555 1_555
C70 C76 1_555 1_555
C71 C67 1_555 1_555
H98 C71 1_555 1_555
H99 C71 1_555 1_555
C72 O3 1_555 1_555
H100 C72 1_555 1_555
H101 C72 1_555 1_555
C73 O5 1_555 1_555
H102 C73 1_555 1_555
H103 C73 1_555 1_555
C74 C75 1_555 1_555
C75 O10 1_555 1_555
H104 C75 1_555 1_555
H105 C75 1_555 1_555
C76 O9 1_555 1_555
H106 C76 1_555 1_555
H107 C76 1_555 1_555
C77 C64 1_555 1_555
P1 F1 1_555 1_555
F2 P1 1_555 1_555
F3 P1 1_555 1_555
F4 P1 1_555 1_555
F5 P1 1_555 1_555
F6 P1 1_555 1_555
P2 F7 1_555 1_555
F8 P2 1_555 1_555
F9 P2 1_555 1_555
F10 P2 1_555 1_555
F11 P2 1_555 1_555
F12 P2 1_555 1_555
C3 C21 1_555 1_555
C4 C5 1_555 1_555
C7 C9 1_555 1_555
C8 C25 1_555 1_555
C12 C27 1_555 1_555
C13 C22 1_555 1_555
C14 C18 1_555 1_555
C20 C24 1_555 1_555
C50 C51 1_555 1_555
C52 C73 1_555 1_555
C54 C55 1_555 1_555
C57 C58 1_555 1_555
C57 C61 1_555 1_555
C62 C68 1_555 1_555
C69 C72 1_555 1_555
C74 C77 1_555 1_555

#END
