
#######################################################################
#
#                 Cambridge Crystallographic Data Centre
#                                CCDC 
#
#######################################################################
#
# If this CIF has been generated from an entry in the Cambridge 
# Structural Database, then it will include bibliographic, chemical, 
# crystal, experimental, refinement or atomic coordinate data resulting 
# from the CCDC's data processing and validation procedures.
#
#######################################################################

data_ALABOF
_chemical_formula_moiety         'C40 H54 N2 2+,C32 H38 O10,2(F6 P1 1-),H2 O1'
_chemical_name_systematic        
"(2)-(N,N'-bis(3,5-Di-t-butylbenzyl)-4,4'-bipyridinium 4,7,10,13,19,22,25,28,32,39-decaoxatetracyclo[14.14.10.1^3,29^.1^14,18^]dotetraconta-1,3(41),14(42),15,17,29-hexaene-34,36-diyne) rotaxane bis(hexafluorophosphate) monohydrate"
_symmetry_cell_setting           monoclinic
_symmetry_space_group_name_H-M   'P 21/c'
_symmetry_Int_Tables_number      14
_space_group_name_Hall           '-P 2ybc'
loop_
_symmetry_equiv_pos_site_id
_symmetry_equiv_pos_as_xyz
1 x,y,z
2 -x,1/2+y,1/2-z
3 -x,-y,-z
4 x,1/2-y,1/2+z
_cell_length_a                   13.677(3)
_cell_length_b                   17.347(4)
_cell_length_c                   34.994(7)
_cell_angle_alpha                90
_cell_angle_beta                 106.807(7)
_cell_angle_gamma                90
_cell_volume                     7947.85
_exptl_crystal_colour            yellow
_exptl_crystal_description       block
_cell_formula_units_Z            4
loop_
_atom_site_label
_atom_site_type_symbol
_atom_site_fract_x
_atom_site_fract_y
_atom_site_fract_z
N1 N 0.37718(17) 0.60216(13) 0.97308(6)
N2 N 0.29027(16) 0.70638(13) 0.77447(7)
C1 C 0.1968(3) 0.7122(3) 1.11947(12)
H1 H 0.2091 0.6578 1.1186
H2 H 0.1401 0.7208 1.1299
H3 H 0.2565 0.7370 1.1363
C2 C 0.1414(3) 0.8284(3) 1.08039(16)
H4 H 0.0795 0.8302 1.0880
H5 H 0.1306 0.8528 1.0549
H6 H 0.1945 0.8550 1.1000
C3 C 0.1727(2) 0.7452(2) 1.07776(10)
C4 C 0.0845(3) 0.7017(3) 1.05260(12)
H7 H 0.1028 0.6484 1.0518
H8 H 0.0653 0.7224 1.0260
H9 H 0.0281 0.7060 1.0636
C5 C 0.2685(2) 0.73756(18) 1.06463(9)
C6 C 0.3404(2) 0.79574(19) 1.06992(9)
H10 H 0.3283 0.8417 1.0814
C7 C 0.4291(2) 0.78902(19) 1.05899(10)
C8 C 0.4484(2) 0.72108(18) 1.04264(9)
H11 H 0.5086 0.7151 1.0357
C9 C 0.3785(2) 0.66126(17) 1.03645(9)
C10 C 0.2897(2) 0.66954(18) 1.04771(9)
H12 H 0.2437 0.6288 1.0439
C11 C 0.4777(5) 0.9177(3) 1.08906(19)
H13 H 0.4481 0.9596 1.0716
H14 H 0.5380 0.9354 1.1088
H15 H 0.4292 0.8992 1.1020
C12 C 0.5933(4) 0.8349(4) 1.10217(19)
H16 H 0.6148 0.8801 1.1182
H17 H 0.6491 0.8154 1.0935
H18 H 0.5718 0.7962 1.1176
C13 C 0.5544(4) 0.8669(3) 1.03633(16)
H19 H 0.5888 0.9157 1.0405
H20 H 0.5051 0.8662 1.0105
H21 H 0.6033 0.8265 1.0379
C14 C 0.5046(3) 0.8554(2) 1.06587(12)
C15 C 0.3991(3) 0.58890(17) 1.01704(9)
H22 H 0.3562 0.5476 1.0218
H23 H 0.4699 0.5738 1.0283
C16 C 0.4536(2) 0.60500(17) 0.95718(9)
H24 H 0.5196 0.5957 0.9733
C17 C 0.4384(2) 0.62113(17) 0.91786(8)
H25 H 0.4930 0.6205 0.9070
C18 C 0.3406(2) 0.63850(16) 0.89400(8)
C19 C 0.2626(2) 0.63213(18) 0.91121(9)
H26 H 0.1955 0.6402 0.8958
C20 C 0.2824(2) 0.61413(18) 0.95054(9)
H27 H 0.2287 0.6102 0.9618
C21 C 0.3234(2) 0.66238(15) 0.85301(8)
C22 C 0.2517(2) 0.71877(16) 0.83538(9)
H28 H 0.2143 0.7426 0.8504
C23 C 0.2358(2) 0.73943(16) 0.79632(9)
H29 H 0.1870 0.7765 0.7849
C24 C 0.3614(2) 0.65227(17) 0.79060(9)
H30 H 0.3992 0.6306 0.7751
C25 C 0.3786(2) 0.62912(16) 0.82888(9)
H31 H 0.4270 0.5912 0.8393
C26 C 0.2709(2) 0.72528(17) 0.73178(8)
H32 H 0.3353 0.7287 0.7254
H33 H 0.2370 0.7749 0.7262
C27 C 0.2051(2) 0.66429(17) 0.70648(9)
C28 C 0.1009(2) 0.67114(18) 0.69296(9)
H34 H 0.0706 0.7148 0.7000
C29 C 0.0398(2) 0.61692(19) 0.66973(9)
C30 C 0.0885(2) 0.54940(19) 0.66260(9)
H35 H 0.0486 0.5101 0.6479
C31 C 0.1906(3) 0.53886(19) 0.67608(10)
C32 C 0.2481(2) 0.59877(17) 0.69672(9)
H36 H 0.3189 0.5945 0.7043
C33 C 0.2440(3) 0.4666(2) 0.66843(12)
C34 C 0.3044(4) 0.4310(2) 0.70933(13)
H37 H 0.2618 0.4304 0.7269
H38 H 0.3642 0.4615 0.7210
H39 H 0.3243 0.3793 0.7053
C35 C 0.3113(3) 0.4832(3) 0.64134(13)
H40 H 0.3754 0.5042 0.6569
H41 H 0.2777 0.5196 0.6212
H42 H 0.3233 0.4362 0.6289
C36 C 0.1680(4) 0.4072(3) 0.64769(17)
H43 H 0.1332 0.4246 0.6212
H44 H 0.1193 0.3993 0.6623
H45 H 0.2027 0.3597 0.6463
C37 C -0.1296(3) 0.5972(3) 0.68030(14)
H46 H -0.1985 0.6162 0.6729
H47 H -0.0949 0.6135 0.7070
H48 H -0.1304 0.5420 0.6791
C38 C -0.1050(3) 0.7094(3) 0.64520(16)
H49 H -0.0652 0.7326 0.6297
H50 H -0.0926 0.7360 0.6702
H51 H -0.1762 0.7128 0.6308
C39 C -0.1123(4) 0.5866(4) 0.61142(15)
H52 H -0.0726 0.6045 0.5946
H53 H -0.1831 0.5979 0.5991
H54 H -0.1034 0.5320 0.6152
C40 C -0.0759(3) 0.6280(2) 0.65258(11)
O1 O 0.01233(15) 0.65918(12) 0.78718(6)
O2 O 0.00923(17) 0.81550(13) 0.77087(8)
O3 O 0.1593(2) 0.90042(15) 0.74426(12)
O4 O 0.3751(2) 0.89265(15) 0.77876(8)
O5 O 0.58398(18) 0.73617(14) 0.88202(8)
O6 O 0.61105(16) 0.57677(13) 0.86236(8)
O7 O 0.47636(15) 0.45526(12) 0.86228(7)
O8 O 0.25643(15) 0.46786(12) 0.82537(7)
O9 O -0.09709(15) 0.51151(15) 0.89689(7)
O10 O 0.2615(2) 0.84638(17) 0.91389(9)
C41 C 0.1293(2) 0.55781(16) 0.80696(9)
H55 H 0.1591 0.5736 0.7875
C42 C 0.0441(2) 0.59572(17) 0.81187(9)
C43 C -0.0026(2) 0.57026(18) 0.83931(10)
H56 H -0.0589 0.5960 0.8429
C44 C 0.0361(2) 0.50565(19) 0.86140(10)
C45 C 0.1225(2) 0.46875(18) 0.85792(9)
H57 H 0.1487 0.4258 0.8734
C46 C 0.1682(2) 0.49701(17) 0.83128(10)
C47 C 0.3107(2) 0.40808(19) 0.85365(12)
H58 H 0.3212 0.4253 0.8809
H59 H 0.2710 0.3609 0.8497
C48 C 0.4091(3) 0.39470(19) 0.84596(12)
H60 H 0.4378 0.3462 0.8579
H61 H 0.3994 0.3917 0.8174
C49 C 0.5693(2) 0.4453(2) 0.85406(13)
H62 H 0.5589 0.4485 0.8255
H63 H 0.5965 0.3946 0.8629
C50 C 0.6415(3) 0.5036(2) 0.87405(13)
H64 H 0.6523 0.4992 0.9026
H65 H 0.7064 0.4939 0.8689
C51 C 0.6855(3) 0.6348(2) 0.86988(13)
H66 H 0.7363 0.6227 0.8564
H67 H 0.7194 0.6378 0.8983
C52 C 0.6383(3) 0.7080(2) 0.85581(12)
H68 H 0.6904 0.7449 0.8543
H69 H 0.5917 0.7018 0.8292
C53 C 0.5120(3) 0.79414(19) 0.86910(12)
C54 C 0.4667(3) 0.82033(19) 0.89608(12)
H70 H 0.4866 0.8018 0.9221
C55 C 0.3898(3) 0.8754(2) 0.88451(12)
C56 C 0.3576(3) 0.90151(19) 0.84633(11)
H71 H 0.3046 0.9370 0.8385
C57 C 0.4044(3) 0.87462(19) 0.82003(12)
C58 C 0.4827(2) 0.82069(18) 0.82973(12)
H72 H 0.5139 0.8032 0.8110
C59 C 0.3199(3) 0.9626(2) 0.76466(13)
H73 H 0.3620 0.9972 0.7544
H74 H 0.3027 0.9882 0.7865
C60 C 0.2277(3) 0.9442(2) 0.73347(14)
H75 H 0.1947 0.9921 0.7225
H76 H 0.2468 0.9178 0.7122
C61 C 0.0767(3) 0.9203(2) 0.74556(15)
H77 H 0.0524 0.9529 0.7222
H78 H 0.0916 0.9553 0.7681
C62 C -0.0098(3) 0.8830(2) 0.74776(14)
H79 H -0.0507 0.8699 0.7209
H80 H -0.0496 0.9180 0.7590
C63 C -0.0774(3) 0.7730(2) 0.76881(12)
H81 H -0.1050 0.7534 0.7419
H82 H -0.1283 0.8065 0.7744
C64 C -0.0591(2) 0.7097(2) 0.79603(11)
H83 H -0.0328 0.7284 0.8232
H84 H -0.1225 0.6825 0.7937
C65 C -0.0217(3) 0.4699(2) 0.88760(11)
H85 H -0.0524 0.4226 0.8748
H86 H 0.0278 0.4554 0.9125
C66 C -0.0708(3) 0.5467(3) 0.93433(12)
H87 H -0.0300 0.5109 0.9538
H88 H -0.1327 0.5571 0.9416
C67 C -0.0132(3) 0.6194(3) 0.93654(12)
C68 C 0.0283(3) 0.6782(3) 0.93653(12)
C69 C 0.0794(3) 0.7430(3) 0.93691(12)
C70 C 0.1326(3) 0.7981(3) 0.93823(14)
C71 C 0.2047(4) 0.8621(3) 0.93966(14)
H89 H 0.1673 0.9099 0.9320
H90 H 0.2495 0.8680 0.9666
C72 C 0.3357(3) 0.9010(2) 0.91428(13)
H91 H 0.3837 0.9047 0.9407
H92 H 0.3045 0.9512 0.9069
P1 P 0.24743(7) 0.38079(6) 0.98419(3)
F1 F 0.33058(17) 0.42559(13) 0.96866(6)
F2 F 0.1932(2) 0.35037(15) 0.94153(7)
F3 F 0.18124(19) 0.45488(15) 0.97644(10)
F4 F 0.16930(18) 0.33963(17) 1.00157(8)
F5 F 0.30440(17) 0.41369(14) 1.02730(6)
F6 F 0.32158(19) 0.30988(13) 0.99324(8)
P2 P 0.59784(8) 0.69066(6) 0.72977(4)
F7 F 0.6616(3) 0.7505(2) 0.71778(14)
F8 F 0.5098(3) 0.7166(2) 0.69283(11)
F9 F 0.5443(3) 0.74254(19) 0.75187(11)
F10 F 0.6392(3) 0.6340(2) 0.70849(11)
F11 F 0.6821(2) 0.6660(3) 0.76380(10)
F12 F 0.5340(2) 0.62951(19) 0.74176(13)
O11 O 0.7962(6) 0.9282(4) 0.98563(17)
H93 H 0.7437 0.8978 0.9709
H94 H 0.8487 0.9029 0.9832
loop_
_geom_bond_atom_site_label_1
_geom_bond_atom_site_label_2
_geom_bond_site_symmetry_1
_geom_bond_site_symmetry_2
N1 C15 1_555 1_555
N2 C23 1_555 1_555
C1 H1 1_555 1_555
H2 C1 1_555 1_555
H3 C1 1_555 1_555
C2 H4 1_555 1_555
H5 C2 1_555 1_555
H6 C2 1_555 1_555
C3 C1 1_555 1_555
C4 C3 1_555 1_555
H7 C4 1_555 1_555
H8 C4 1_555 1_555
H9 C4 1_555 1_555
C5 C3 1_555 1_555
C6 C5 1_555 1_555
H10 C6 1_555 1_555
C7 C6 1_555 1_555
C8 C7 1_555 1_555
H11 C8 1_555 1_555
C9 C8 1_555 1_555
C10 C5 1_555 1_555
H12 C10 1_555 1_555
C11 H13 1_555 1_555
H14 C11 1_555 1_555
H15 C11 1_555 1_555
C12 H16 1_555 1_555
H17 C12 1_555 1_555
H18 C12 1_555 1_555
C13 H19 1_555 1_555
H20 C13 1_555 1_555
H21 C13 1_555 1_555
C14 C7 1_555 1_555
C15 C9 1_555 1_555
H22 C15 1_555 1_555
H23 C15 1_555 1_555
C16 N1 1_555 1_555
H24 C16 1_555 1_555
C17 C16 1_555 1_555
H25 C17 1_555 1_555
C18 C17 1_555 1_555
C19 C18 1_555 1_555
H26 C19 1_555 1_555
C20 N1 1_555 1_555
H27 C20 1_555 1_555
C21 C18 1_555 1_555
C22 C21 1_555 1_555
H28 C22 1_555 1_555
C23 C22 1_555 1_555
H29 C23 1_555 1_555
C24 N2 1_555 1_555
H30 C24 1_555 1_555
C25 C21 1_555 1_555
H31 C25 1_555 1_555
C26 N2 1_555 1_555
H32 C26 1_555 1_555
H33 C26 1_555 1_555
C27 C26 1_555 1_555
C28 C27 1_555 1_555
H34 C28 1_555 1_555
C29 C28 1_555 1_555
C30 C29 1_555 1_555
H35 C30 1_555 1_555
C31 C30 1_555 1_555
C32 C27 1_555 1_555
H36 C32 1_555 1_555
C33 C31 1_555 1_555
C34 C33 1_555 1_555
H37 C34 1_555 1_555
H38 C34 1_555 1_555
H39 C34 1_555 1_555
C35 C33 1_555 1_555
H40 C35 1_555 1_555
H41 C35 1_555 1_555
H42 C35 1_555 1_555
C36 C33 1_555 1_555
H43 C36 1_555 1_555
H44 C36 1_555 1_555
H45 C36 1_555 1_555
C37 H46 1_555 1_555
H47 C37 1_555 1_555
H48 C37 1_555 1_555
C38 H49 1_555 1_555
H50 C38 1_555 1_555
H51 C38 1_555 1_555
C39 H52 1_555 1_555
H53 C39 1_555 1_555
H54 C39 1_555 1_555
C40 C29 1_555 1_555
O1 C42 1_555 1_555
O2 C62 1_555 1_555
O3 C60 1_555 1_555
O4 C57 1_555 1_555
O5 C52 1_555 1_555
O6 C50 1_555 1_555
O7 C48 1_555 1_555
O8 C46 1_555 1_555
O9 C65 1_555 1_555
O10 C71 1_555 1_555
C41 H55 1_555 1_555
C42 C41 1_555 1_555
C43 C42 1_555 1_555
H56 C43 1_555 1_555
C44 C43 1_555 1_555
C45 C44 1_555 1_555
H57 C45 1_555 1_555
C46 C41 1_555 1_555
C47 O8 1_555 1_555
H58 C47 1_555 1_555
H59 C47 1_555 1_555
C48 C47 1_555 1_555
H60 C48 1_555 1_555
H61 C48 1_555 1_555
C49 O7 1_555 1_555
H62 C49 1_555 1_555
H63 C49 1_555 1_555
C50 C49 1_555 1_555
H64 C50 1_555 1_555
H65 C50 1_555 1_555
C51 O6 1_555 1_555
H66 C51 1_555 1_555
H67 C51 1_555 1_555
C52 C51 1_555 1_555
H68 C52 1_555 1_555
H69 C52 1_555 1_555
C53 O5 1_555 1_555
C54 C53 1_555 1_555
H70 C54 1_555 1_555
C55 C54 1_555 1_555
C56 C55 1_555 1_555
H71 C56 1_555 1_555
C57 C56 1_555 1_555
C58 C53 1_555 1_555
H72 C58 1_555 1_555
C59 O4 1_555 1_555
H73 C59 1_555 1_555
H74 C59 1_555 1_555
C60 C59 1_555 1_555
H75 C60 1_555 1_555
H76 C60 1_555 1_555
C61 O3 1_555 1_555
H77 C61 1_555 1_555
H78 C61 1_555 1_555
C62 C61 1_555 1_555
H79 C62 1_555 1_555
H80 C62 1_555 1_555
C63 O2 1_555 1_555
H81 C63 1_555 1_555
H82 C63 1_555 1_555
C64 O1 1_555 1_555
H83 C64 1_555 1_555
H84 C64 1_555 1_555
C65 C44 1_555 1_555
H85 C65 1_555 1_555
H86 C65 1_555 1_555
C66 O9 1_555 1_555
H87 C66 1_555 1_555
H88 C66 1_555 1_555
C67 C66 1_555 1_555
C68 C67 1_555 1_555
C69 C68 1_555 1_555
C70 C69 1_555 1_555
C71 C70 1_555 1_555
H89 C71 1_555 1_555
H90 C71 1_555 1_555
C72 O10 1_555 1_555
H91 C72 1_555 1_555
H92 C72 1_555 1_555
P1 F1 1_555 1_555
F2 P1 1_555 1_555
F3 P1 1_555 1_555
F4 P1 1_555 1_555
F5 P1 1_555 1_555
F6 P1 1_555 1_555
P2 F7 1_555 1_555
F8 P2 1_555 1_555
F9 P2 1_555 1_555
F10 P2 1_555 1_555
F11 P2 1_555 1_555
F12 P2 1_555 1_555
O11 H93 1_555 1_555
H94 O11 1_555 1_555
C2 C3 1_555 1_555
C9 C10 1_555 1_555
C11 C14 1_555 1_555
C12 C14 1_555 1_555
C13 C14 1_555 1_555
C19 C20 1_555 1_555
C24 C25 1_555 1_555
C31 C32 1_555 1_555
C37 C40 1_555 1_555
C38 C40 1_555 1_555
C39 C40 1_555 1_555
C45 C46 1_555 1_555
C55 C72 1_555 1_555
C57 C58 1_555 1_555
C63 C64 1_555 1_555

#END
