
#######################################################################
#
#                 Cambridge Crystallographic Data Centre
#                                CCDC 
#
#######################################################################
#
# If this CIF has been generated from an entry in the Cambridge 
# Structural Database, then it will include bibliographic, chemical, 
# crystal, experimental, refinement or atomic coordinate data resulting 
# from the CCDC's data processing and validation procedures.
#
#######################################################################

data_ALAFID
_chemical_formula_moiety         'C20 H16 N2 O1'
_chemical_name_systematic        
7-(2-Methoxyphenyl)-2-phenylpyrazolo[1,5-a]pyridine
_symmetry_cell_setting           monoclinic
_symmetry_space_group_name_H-M   'C 2/c'
_symmetry_Int_Tables_number      15
_space_group_name_Hall           '-C 2yn'
loop_
_symmetry_equiv_pos_site_id
_symmetry_equiv_pos_as_xyz
1 x,y,z
2 -x,y,1/2-z
3 1/2+x,1/2+y,z
4 1/2-x,1/2+y,1/2-z
5 -x,-y,-z
6 x,-y,1/2+z
7 1/2-x,1/2-y,-z
8 1/2+x,1/2-y,1/2+z
_cell_length_a                   23.0916(13)
_cell_length_b                   7.3204(4)
_cell_length_c                   38.0041(18)
_cell_angle_alpha                90
_cell_angle_beta                 97.320(3)
_cell_angle_gamma                90
_cell_volume                     6371.85
_exptl_crystal_colour            'pale brown'
_exptl_crystal_description       prism
_cell_formula_units_Z            16
loop_
_atom_site_label
_atom_site_type_symbol
_atom_site_fract_x
_atom_site_fract_y
_atom_site_fract_z
C1 C 0.38709(15) 0.2802(4) 0.13636(6)
H1 H 0.3855 0.1519 0.1311
H2 H 0.4076 0.3424 0.1194
H3 H 0.3481 0.3278 0.1351
C2 C 0.42269(9) 0.4844(3) 0.18259(5)
C3 C 0.43921(11) 0.6264(4) 0.16168(6)
H4 H 0.4445 0.6054 0.1382
C4 C 0.44772(12) 0.7990(4) 0.17613(7)
H5 H 0.4587 0.8942 0.1622
C5 C 0.44010(12) 0.8315(3) 0.21081(7)
H6 H 0.4452 0.9487 0.2201
C6 C 0.42488(10) 0.6902(3) 0.23181(6)
H7 H 0.4207 0.7123 0.2555
C7 C 0.41564(9) 0.5151(3) 0.21804(5)
C8 C 0.40164(9) 0.3642(3) 0.24133(5)
C9 C 0.43635(9) 0.3124(3) 0.27116(5)
H8 H 0.4712 0.3743 0.2777
C10 C 0.42113(11) 0.1681(3) 0.29244(5)
H9 H 0.4460 0.1356 0.3127
C11 C 0.37079(11) 0.0763(3) 0.28382(5)
H10 H 0.3611 -0.0202 0.2979
C12 C 0.33293(10) 0.1272(3) 0.25338(5)
C13 C 0.27849(10) 0.0758(3) 0.23677(5)
H11 H 0.2549 -0.0171 0.2437
C14 C 0.26626(9) 0.1905(2) 0.20775(5)
C15 C 0.21270(9) 0.2002(2) 0.18203(5)
C16 C 0.16426(10) 0.0958(3) 0.18625(5)
H12 H 0.1660 0.0126 0.2048
C17 C 0.11329(10) 0.1135(3) 0.16325(6)
H13 H 0.0810 0.0423 0.1664
C18 C 0.11021(10) 0.2364(3) 0.13569(6)
H14 H 0.0756 0.2504 0.1205
C19 C 0.15817(10) 0.3379(3) 0.13072(6)
H15 H 0.1563 0.4195 0.1119
C20 C 0.20937(10) 0.3202(3) 0.15346(5)
H16 H 0.2419 0.3890 0.1497
N1 N 0.35009(7) 0.2710(2) 0.23302(4)
N2 N 0.30925(7) 0.3114(2) 0.20525(4)
O1 O 0.41671(7) 0.3075(2) 0.17094(3)
C21 C 0.28532(12) 0.7649(3) 0.15408(5)
H17 H 0.3148 0.7062 0.1703
H18 H 0.2481 0.7521 0.1626
H19 H 0.2945 0.8922 0.1523
C22 C 0.24324(9) 0.7478(2) 0.09347(5)
C23 C 0.20544(10) 0.8905(3) 0.09734(5)
H20 H 0.2070 0.9510 0.1190
C24 C 0.16537(10) 0.9432(3) 0.06912(5)
H21 H 0.1397 1.0383 0.0720
C25 C 0.16277(9) 0.8581(3) 0.03683(5)
H22 H 0.1360 0.8960 0.0179
C26 C 0.20018(9) 0.7162(3) 0.03291(5)
H23 H 0.1981 0.6567 0.0112
C27 C 0.24108(9) 0.6596(2) 0.06079(5)
C28 C 0.27783(9) 0.4984(2) 0.05555(5)
C29 C 0.25577(11) 0.3268(3) 0.05070(5)
H24 H 0.2162 0.3075 0.0518
C30 C 0.29133(13) 0.1772(3) 0.04409(5)
H25 H 0.2752 0.0608 0.0415
C31 C 0.34899(12) 0.2018(3) 0.04143(5)
H26 H 0.3721 0.1035 0.0365
C32 C 0.37321(10) 0.3775(3) 0.04627(5)
C33 C 0.42734(10) 0.4544(3) 0.04626(5)
H27 H 0.4615 0.3952 0.0421
C34 C 0.42094(9) 0.6391(3) 0.05371(5)
C35 C 0.46606(10) 0.7813(3) 0.05732(5)
C36 C 0.51380(12) 0.7705(5) 0.03825(7)
H28 H 0.5170 0.6725 0.0230
C37 C 0.55612(14) 0.9035(6) 0.04175(9)
H29 H 0.5874 0.8952 0.0286
C38 C 0.55295(14) 1.0469(5) 0.06409(10)
H30 H 0.5818 1.1365 0.0661
C39 C 0.50673(13) 1.0592(4) 0.08378(8)
H31 H 0.5047 1.1561 0.0994
C40 C 0.46333(10) 0.9269(3) 0.08027(6)
H32 H 0.4322 0.9362 0.0934
N3 N 0.33707(7) 0.5205(2) 0.05373(4)
N4 N 0.36578(7) 0.6821(2) 0.05815(4)
O2 O 0.28306(7) 0.68215(18) 0.12003(3)
loop_
_geom_bond_atom_site_label_1
_geom_bond_atom_site_label_2
_geom_bond_site_symmetry_1
_geom_bond_site_symmetry_2
C1 H1 1_555 1_555
H2 C1 1_555 1_555
H3 C1 1_555 1_555
C2 C3 1_555 1_555
C3 H4 1_555 1_555
C4 C3 1_555 1_555
H5 C4 1_555 1_555
C5 C4 1_555 1_555
H6 C5 1_555 1_555
C6 C5 1_555 1_555
H7 C6 1_555 1_555
C7 C2 1_555 1_555
C8 C7 1_555 1_555
C9 C8 1_555 1_555
H8 C9 1_555 1_555
C10 C9 1_555 1_555
H9 C10 1_555 1_555
C11 C10 1_555 1_555
H10 C11 1_555 1_555
C12 C11 1_555 1_555
C13 C12 1_555 1_555
H11 C13 1_555 1_555
C14 C13 1_555 1_555
C15 C14 1_555 1_555
C16 C15 1_555 1_555
H12 C16 1_555 1_555
C17 C16 1_555 1_555
H13 C17 1_555 1_555
C18 C17 1_555 1_555
H14 C18 1_555 1_555
C19 C18 1_555 1_555
H15 C19 1_555 1_555
C20 C15 1_555 1_555
H16 C20 1_555 1_555
C21 H17 1_555 1_555
H18 C21 1_555 1_555
H19 C21 1_555 1_555
C22 C23 1_555 1_555
C23 H20 1_555 1_555
C24 C23 1_555 1_555
H21 C24 1_555 1_555
C25 C24 1_555 1_555
H22 C25 1_555 1_555
C26 C25 1_555 1_555
H23 C26 1_555 1_555
C27 C22 1_555 1_555
C28 C27 1_555 1_555
C29 C28 1_555 1_555
H24 C29 1_555 1_555
C30 C29 1_555 1_555
H25 C30 1_555 1_555
C31 C30 1_555 1_555
H26 C31 1_555 1_555
C32 C31 1_555 1_555
C33 C32 1_555 1_555
H27 C33 1_555 1_555
C34 C33 1_555 1_555
C35 C34 1_555 1_555
C36 C35 1_555 1_555
H28 C36 1_555 1_555
C37 C36 1_555 1_555
H29 C37 1_555 1_555
C38 C37 1_555 1_555
H30 C38 1_555 1_555
C39 C38 1_555 1_555
H31 C39 1_555 1_555
C40 C35 1_555 1_555
H32 C40 1_555 1_555
N1 C8 1_555 1_555
N2 C14 1_555 1_555
N3 C28 1_555 1_555
N4 C34 1_555 1_555
O1 C1 1_555 1_555
O2 C21 1_555 1_555
C2 O1 1_555 1_555
C6 C7 1_555 1_555
C12 N1 1_555 1_555
C19 C20 1_555 1_555
C22 O2 1_555 1_555
C26 C27 1_555 1_555
C32 N3 1_555 1_555
C39 C40 1_555 1_555
N1 N2 1_555 1_555
N3 N4 1_555 1_555

#END
