
#######################################################################
#
#                 Cambridge Crystallographic Data Centre
#                                CCDC 
#
#######################################################################
#
# If this CIF has been generated from an entry in the Cambridge 
# Structural Database, then it will include bibliographic, chemical, 
# crystal, experimental, refinement or atomic coordinate data resulting 
# from the CCDC's data processing and validation procedures.
#
#######################################################################

data_ALAGOJ
_chemical_formula_moiety         'C36 H36 B3 N3 O3'
_chemical_name_systematic        
1,3,5-tris(8-(N,N-Dimethylamino)naphth-1-yl-C,N)boroxine
_symmetry_cell_setting           trigonal
_symmetry_space_group_name_H-M   'P -3'
_symmetry_Int_Tables_number      147
_space_group_name_Hall           '-P 3'
loop_
_symmetry_equiv_pos_site_id
_symmetry_equiv_pos_as_xyz
1 x,y,z
2 -y,x-y,z
3 -x+y,-x,z
4 -x,-y,-z
5 y,-x+y,-z
6 x-y,x,-z
_cell_length_a                   21.1451(7)
_cell_length_b                   21.1451(7)
_cell_length_c                   12.0020(7)
_cell_angle_alpha                90
_cell_angle_beta                 90
_cell_angle_gamma                120
_cell_volume                     4647.33
_exptl_crystal_colour            colorless
_exptl_crystal_description       plate
_cell_formula_units_Z            6
loop_
_atom_site_label
_atom_site_type_symbol
_atom_site_fract_x
_atom_site_fract_y
_atom_site_fract_z
O1 O 0.20893(8) 0.43580(8) 0.36394(12)
O2 O 0.13963(8) 0.34070(8) 0.23061(12)
O3 O 0.07743(8) 0.36709(9) 0.37705(13)
N1 N 0.26351(9) 0.35107(9) 0.31178(14)
N2 N 0.01153(10) 0.32167(10) 0.17739(16)
C1 C 0.15413(11) 0.41769(12) 0.55713(18)
C2 C 0.33362(11) 0.39642(11) 0.25613(17)
C3 C 0.02461(12) 0.23166(13) 0.30600(18)
C4 C 0.17480(11) 0.48511(12) 0.60965(19)
C5 C 0.33185(11) 0.44603(11) 0.17992(17)
C6 C -0.02094(11) 0.19805(12) 0.21147(18)
C7 C 0.26630(12) 0.44813(12) 0.17348(17)
C8 C 0.45875(12) 0.48753(12) 0.1340(2)
H1 H 0.5018 0.5180 0.0928
N3 N 0.14955(12) 0.51390(12) 0.42814(18)
C9 C 0.19030(12) 0.49748(14) 0.7257(2)
C10 C 0.14782(12) 0.36197(13) 0.62542(19)
H2 H 0.1335 0.3155 0.5939
C11 C -0.02644(11) 0.24627(12) 0.13593(18)
C12 C 0.02584(13) 0.18503(14) 0.3847(2)
H3 H 0.0540 0.2045 0.4505
C13 C 0.38960(13) 0.53995(13) 0.03890(19)
H4 H 0.4300 0.5709 -0.0070
C14 C -0.06794(13) 0.22127(14) 0.04183(19)
H5 H -0.0720 0.2541 -0.0076
C15 C 0.22819(13) 0.27476(12) 0.2695(2)
H6 H 0.2568 0.2522 0.2929
H7 H 0.2259 0.2750 0.1880
H8 H 0.1786 0.2468 0.2998
C16 C -0.10164(13) 0.09718(14) 0.0915(2)
H9 H -0.1275 0.0465 0.0746
C17 C -0.06028(12) 0.12172(13) 0.1915(2)
C18 C 0.39542(12) 0.49224(11) 0.11562(18)
C19 C -0.05526(13) 0.07715(14) 0.2756(2)
H10 H -0.0804 0.0256 0.2671
C20 C 0.26447(13) 0.49619(14) 0.0982(2)
H11 H 0.2213 0.4991 0.0911
C21 C 0.16219(13) 0.37279(15) 0.7407(2)
H12 H 0.1568 0.3333 0.7852
C22 C 0.17583(13) 0.54016(13) 0.5414(2)
C23 C -0.04326(13) 0.33773(14) 0.2289(2)
H13 H -0.0753 0.3388 0.1708
H14 H -0.0179 0.3853 0.2663
H15 H -0.0726 0.2997 0.2834
C24 C -0.10477(13) 0.14536(14) 0.0193(2)
H16 H -0.1322 0.1276 -0.0475
C25 C 0.18355(13) 0.43853(16) 0.7897(2)
H17 H 0.1939 0.4447 0.8672
C26 C 0.39521(12) 0.39247(12) 0.2721(2)
H18 H 0.3957 0.3587 0.3238
C27 C 0.45882(13) 0.43976(13) 0.2102(2)
H19 H 0.5024 0.4381 0.2222
C28 C 0.27189(14) 0.35016(15) 0.43453(19)
H20 H 0.3002 0.3263 0.4526
H21 H 0.2236 0.3232 0.4693
H22 H 0.2974 0.4004 0.4627
C29 C -0.01415(13) 0.10855(14) 0.3693(2)
H23 H -0.0125 0.0779 0.4257
B1 B 0.20726(14) 0.39790(14) 0.2660(2)
C30 C 0.05325(14) 0.37584(14) 0.0890(2)
H24 H 0.0194 0.3752 0.0328
H25 H 0.0875 0.3634 0.0540
H26 H 0.0804 0.4247 0.1221
B2 B 0.07365(14) 0.31960(14) 0.2902(2)
B3 B 0.14521(15) 0.41827(14) 0.4246(2)
C31 C 0.21030(14) 0.56756(17) 0.7672(3)
H27 H 0.2227 0.5783 0.8437
C32 C 0.32617(14) 0.54164(15) 0.0307(2)
H28 H 0.3231 0.5739 -0.0212
C33 C 0.21203(15) 0.61996(16) 0.6991(3)
H29 H 0.2254 0.6665 0.7295
C34 C 0.19453(15) 0.60725(15) 0.5839(3)
H30 H 0.1958 0.6444 0.5378
C35 C 0.07603(18) 0.50346(19) 0.4160(3)
H31 H 0.0786 0.5510 0.4179
H32 H 0.0452 0.4730 0.4773
H33 H 0.0551 0.4793 0.3448
C36 C 0.1991(2) 0.56479(18) 0.3417(3)
H34 H 0.1995 0.6113 0.3466
H35 H 0.1819 0.5434 0.2677
H36 H 0.2487 0.5733 0.3536
loop_
_geom_bond_atom_site_label_1
_geom_bond_atom_site_label_2
_geom_bond_site_symmetry_1
_geom_bond_site_symmetry_2
O1 B1 1_555 1_555
O2 B1 1_555 1_555
O3 B2 1_555 1_555
N1 C2 1_555 1_555
N2 C11 1_555 1_555
C1 C4 1_555 1_555
C2 C5 1_555 1_555
C3 C6 1_555 1_555
C4 C9 1_555 1_555
C5 C7 1_555 1_555
C6 C11 1_555 1_555
C7 C20 1_555 1_555
C8 H1 1_555 1_555
N3 C22 1_555 1_555
C9 C25 1_555 1_555
C10 C1 1_555 1_555
H2 C10 1_555 1_555
C11 C14 1_555 1_555
C12 C3 1_555 1_555
H3 C12 1_555 1_555
C13 H4 1_555 1_555
C14 H5 1_555 1_555
C15 N1 1_555 1_555
H6 C15 1_555 1_555
H7 C15 1_555 1_555
H8 C15 1_555 1_555
C16 H9 1_555 1_555
C17 C6 1_555 1_555
C18 C5 1_555 1_555
C19 C17 1_555 1_555
H10 C19 1_555 1_555
C20 H11 1_555 1_555
C21 C10 1_555 1_555
H12 C21 1_555 1_555
C22 C4 1_555 1_555
C23 N2 1_555 1_555
H13 C23 1_555 1_555
H14 C23 1_555 1_555
H15 C23 1_555 1_555
C24 C14 1_555 1_555
H16 C24 1_555 1_555
C25 C21 1_555 1_555
H17 C25 1_555 1_555
C26 C2 1_555 1_555
H18 C26 1_555 1_555
C27 C8 1_555 1_555
H19 C27 1_555 1_555
C28 N1 1_555 1_555
H20 C28 1_555 1_555
H21 C28 1_555 1_555
H22 C28 1_555 1_555
C29 C12 1_555 1_555
H23 C29 1_555 1_555
B1 N1 1_555 1_555
C30 N2 1_555 1_555
H24 C30 1_555 1_555
H25 C30 1_555 1_555
H26 C30 1_555 1_555
B2 O2 1_555 1_555
B3 O1 1_555 1_555
C31 C9 1_555 1_555
H27 C31 1_555 1_555
C32 C13 1_555 1_555
H28 C32 1_555 1_555
C33 C31 1_555 1_555
H29 C33 1_555 1_555
C34 C22 1_555 1_555
H30 C34 1_555 1_555
C35 N3 1_555 1_555
H31 C35 1_555 1_555
H32 C35 1_555 1_555
H33 C35 1_555 1_555
C36 N3 1_555 1_555
H34 C36 1_555 1_555
H35 C36 1_555 1_555
H36 C36 1_555 1_555
O3 B3 1_555 1_555
N2 B2 1_555 1_555
C1 B3 1_555 1_555
C3 B2 1_555 1_555
C7 B1 1_555 1_555
C8 C18 1_555 1_555
N3 B3 1_555 1_555
C13 C18 1_555 1_555
C16 C17 1_555 1_555
C16 C24 1_555 1_555
C19 C29 1_555 1_555
C20 C32 1_555 1_555
C26 C27 1_555 1_555
C33 C34 1_555 1_555

#END
