
#######################################################################
#
#                 Cambridge Crystallographic Data Centre
#                                CCDC 
#
#######################################################################
#
# If this CIF has been generated from an entry in the Cambridge 
# Structural Database, then it will include bibliographic, chemical, 
# crystal, experimental, refinement or atomic coordinate data resulting 
# from the CCDC's data processing and validation procedures.
#
#######################################################################

data_ALAHAY
_chemical_formula_moiety         'C11 H9 N3 O3 S2'
_chemical_name_systematic        
(E)-N'-((5-Nitrothiophen-2-yl)methylene)-2-(thiophen-2-yl)acetohydrazide
_symmetry_cell_setting           monoclinic
_symmetry_space_group_name_H-M   'P 21/c'
_symmetry_Int_Tables_number      14
_space_group_name_Hall           '-P 2ybc'
loop_
_symmetry_equiv_pos_site_id
_symmetry_equiv_pos_as_xyz
1 x,y,z
2 -x,1/2+y,1/2-z
3 -x,-y,-z
4 x,1/2-y,1/2+z
_cell_length_a                   6.6276(2)
_cell_length_b                   19.3121(8)
_cell_length_c                   10.3933(4)
_cell_angle_alpha                90
_cell_angle_beta                 107.313(2)
_cell_angle_gamma                90
_cell_volume                     1270
_exptl_crystal_colour            yellow
_exptl_crystal_description       slab
_cell_formula_units_Z            4
loop_
_atom_site_label
_atom_site_type_symbol
_atom_site_fract_x
_atom_site_fract_y
_atom_site_fract_z
S1 S 0.13017(7) 0.61652(2) 0.23453(5)
S2 S -0.1568(4) 0.71163(14) 0.7834(2)
C1 C 0.077(2) 0.6705(9) 0.6376(19)
H1 H 0.1243 0.6542 0.5652
O1 O -0.5346(2) 0.58386(7) 0.56956(14)
N1 N -0.3324(2) 0.55535(9) 0.43998(16)
H2 H -0.368(3) 0.5115(13) 0.436(2)
N2 N 0.4398(2) 0.62565(9) 0.11284(17)
O2 O 0.4483(2) 0.68650(8) 0.14909(15)
C2 C -0.1250(3) 0.52305(10) 0.31499(19)
H3 H -0.1809 0.4779 0.3169
N3 N -0.1886(2) 0.57316(8) 0.37438(15)
O3 O 0.5480(2) 0.60088(8) 0.04716(15)
C3 C 0.0306(3) 0.53484(10) 0.24542(19)
C4 C -0.3340(3) 0.67639(10) 0.5133(2)
H4 H -0.3015 0.6874 0.4286
H5 H -0.4463 0.7083 0.5217
C5 C 0.2729(3) 0.51184(10) 0.13022(19)
H6 H 0.3514 0.4851 0.0850
C6 C -0.4098(3) 0.60246(10) 0.50924(19)
C7 C -0.1397(3) 0.68590(9) 0.6310(2)
C8 C 0.1200(3) 0.48502(10) 0.1853(2)
H7 H 0.0823 0.4374 0.1815
C9 C 0.2931(3) 0.58142(10) 0.15046(19)
C10 C 0.0974(4) 0.70544(11) 0.8552(3)
H8 H 0.1600 0.7160 0.9478
C11 C 0.2133(3) 0.68457(11) 0.7758(3)
H9 H 0.3627 0.6795 0.8049
S3? S 0.0922(9) 0.6687(4) 0.6197(9)
C12? C -0.127(3) 0.7081(10) 0.7616(18)
H10? H -0.2446 0.7231 0.7883
loop_
_geom_bond_atom_site_label_1
_geom_bond_atom_site_label_2
_geom_bond_site_symmetry_1
_geom_bond_site_symmetry_2
S1 C3 1_555 1_555
S2 C7 1_555 1_555
C1 H1 1_555 1_555
O1 C6 1_555 1_555
N1 H2 1_555 1_555
N2 O2 1_555 1_555
C2 H3 1_555 1_555
N3 N1 1_555 1_555
O3 N2 1_555 1_555
C3 C2 1_555 1_555
C4 H4 1_555 1_555
H5 C4 1_555 1_555
C5 H6 1_555 1_555
C6 N1 1_555 1_555
C7 C1 1_555 1_555
C8 C3 1_555 1_555
H7 C8 1_555 1_555
C9 S1 1_555 1_555
C10 S2 1_555 1_555
H8 C10 1_555 1_555
C11 C1 1_555 1_555
H9 C11 1_555 1_555
N2 C9 1_555 1_555
C2 N3 1_555 1_555
C4 C6 1_555 1_555
C4 C7 1_555 1_555
C5 C8 1_555 1_555
C5 C9 1_555 1_555
C10 C11 1_555 1_555

#END
