
#######################################################################
#
#                 Cambridge Crystallographic Data Centre
#                                CCDC 
#
#######################################################################
#
# If this CIF has been generated from an entry in the Cambridge 
# Structural Database, then it will include bibliographic, chemical, 
# crystal, experimental, refinement or atomic coordinate data resulting 
# from the CCDC's data processing and validation procedures.
#
#######################################################################

data_ALAHEC
_chemical_formula_moiety         'C12 H11 N3 O3 S2'
_chemical_name_systematic        
(E)-N-Methyl-N'-((5-nitrothiophen-2-yl)methylene)-2-(thiophen-2-yl)acetohydrazide
_symmetry_cell_setting           monoclinic
_symmetry_space_group_name_H-M   'C 2/c'
_symmetry_Int_Tables_number      15
_space_group_name_Hall           '-C 2yn'
loop_
_symmetry_equiv_pos_site_id
_symmetry_equiv_pos_as_xyz
1 x,y,z
2 -x,y,1/2-z
3 1/2+x,1/2+y,z
4 1/2-x,1/2+y,1/2-z
5 -x,-y,-z
6 x,-y,1/2+z
7 1/2-x,1/2-y,-z
8 1/2+x,1/2-y,1/2+z
_cell_length_a                   20.2421(14)
_cell_length_b                   8.6945(5)
_cell_length_c                   16.4362(11)
_cell_angle_alpha                90
_cell_angle_beta                 108.365(2)
_cell_angle_gamma                90
_cell_volume                     2745.36
_exptl_crystal_colour            red
_exptl_crystal_description       Plate
_cell_formula_units_Z            8
loop_
_atom_site_label
_atom_site_type_symbol
_atom_site_fract_x
_atom_site_fract_y
_atom_site_fract_z
S1 S 0.551466(15) 0.44067(4) 0.15049(2)
S2 S 0.30750(9) 0.0166(2) 0.02189(7)
C1 C 0.3737(6) 0.2282(14) 0.1082(6)
H1 H 0.3989 0.3208 0.1268
O1 O 0.57954(5) 0.63930(13) 0.29681(7)
O2 O 0.34884(5) 0.11488(13) -0.17661(6)
N1 N 0.48791(6) 0.24975(12) -0.00871(7)
O3 O 0.69236(5) 0.61787(12) 0.34272(7)
N2 N 0.45391(5) 0.17166(12) -0.08229(7)
N3 N 0.63482(6) 0.58750(13) 0.29207(7)
C2 C 0.34515(6) 0.18729(15) 0.02051(8)
C3 C 0.55469(7) 0.23951(14) 0.02002(8)
H2 H 0.5790 0.1787 -0.0093
C4 C 0.34689(7) 0.27325(16) -0.05793(8)
H3 H 0.3721 0.3715 -0.0404
H4 H 0.2987 0.2977 -0.0935
C5 C 0.63137(6) 0.48428(15) 0.22314(8)
C6 C 0.68650(7) 0.41131(16) 0.20941(9)
H5 H 0.7336 0.4226 0.2442
C7 C 0.66360(7) 0.31680(16) 0.13627(9)
H6 H 0.6941 0.2561 0.1158
C8 C 0.38228(7) 0.18104(15) -0.11089(8)
C9 C 0.59256(7) 0.32130(14) 0.09737(8)
C10 C 0.49134(7) 0.08760(16) -0.13126(8)
H7 H 0.5241 0.1570 -0.1457
H8 H 0.4580 0.0476 -0.1841
H9 H 0.5169 0.0018 -0.0968
C11 C 0.36116(10) 0.1171(2) 0.16669(11)
H10 H 0.3744 0.1157 0.2275
C12 C 0.32684(10) 0.0012(2) 0.11972(17)
H11 H 0.3129 -0.0905 0.1411
S3? S 0.37873(15) 0.2552(4) 0.11738(15)
C13? C 0.3132(5) 0.0412(13) 0.0230(7)
H12? H 0.2885 -0.0198 -0.0248
loop_
_geom_bond_atom_site_label_1
_geom_bond_atom_site_label_2
_geom_bond_site_symmetry_1
_geom_bond_site_symmetry_2
S1 C5 1_555 1_555
S2 C2 1_555 1_555
C1 H1 1_555 1_555
O1 N3 1_555 1_555
O2 C8 1_555 1_555
N1 N2 1_555 1_555
O3 N3 1_555 1_555
N2 C8 1_555 1_555
N3 C5 1_555 1_555
C2 C1 1_555 1_555
C3 N1 1_555 1_555
H2 C3 1_555 1_555
C4 C2 1_555 1_555
H3 C4 1_555 1_555
H4 C4 1_555 1_555
C5 C6 1_555 1_555
C6 H5 1_555 1_555
C7 C6 1_555 1_555
H6 C7 1_555 1_555
C8 C4 1_555 1_555
C9 S1 1_555 1_555
C10 N2 1_555 1_555
H7 C10 1_555 1_555
H8 C10 1_555 1_555
H9 C10 1_555 1_555
C11 C1 1_555 1_555
H10 C11 1_555 1_555
C12 S2 1_555 1_555
H11 C12 1_555 1_555
C3 C9 1_555 1_555
C7 C9 1_555 1_555
C11 C12 1_555 1_555

#END
