
#######################################################################
#
#                 Cambridge Crystallographic Data Centre
#                                CCDC 
#
#######################################################################
#
# If this CIF has been generated from an entry in the Cambridge 
# Structural Database, then it will include bibliographic, chemical, 
# crystal, experimental, refinement or atomic coordinate data resulting 
# from the CCDC's data processing and validation procedures.
#
#######################################################################

data_ALALUW
_chemical_formula_moiety         'C74 H92 N8'
_chemical_name_systematic        
cis-1,2-bis(2,3,7,8,12,13,17,18-Octaethylporphyrin-5-yl)ethene
_symmetry_cell_setting           triclinic
_symmetry_space_group_name_H-M   'P -1'
_symmetry_Int_Tables_number      2
_space_group_name_Hall           '-P 1'
loop_
_symmetry_equiv_pos_site_id
_symmetry_equiv_pos_as_xyz
1 x,y,z
2 -x,-y,-z
_cell_length_a                   10.990(3)
_cell_length_b                   12.313(4)
_cell_length_c                   23.058(7)
_cell_angle_alpha                83.690(7)
_cell_angle_beta                 83.644(6)
_cell_angle_gamma                80.347(7)
_cell_volume                     3043.81
_exptl_crystal_colour            'dark red'
_exptl_crystal_description       block
_cell_formula_units_Z            2
loop_
_atom_site_label
_atom_site_type_symbol
_atom_site_fract_x
_atom_site_fract_y
_atom_site_fract_z
N1 N 0.61723(13) 0.14491(12) 0.37514(6)
N2 N 0.75843(14) -0.03227(14) 0.30384(7)
N3 N 0.62960(14) 0.06812(13) 0.20704(7)
N4 N 0.49353(14) 0.24789(13) 0.27811(7)
N5 N 0.67349(13) 0.50155(13) 0.22472(6)
H1 H 0.7305 0.4426 0.2216
N6 N 0.80047(14) 0.38112(13) 0.12152(6)
N7 N 0.92346(13) 0.21053(13) 0.19563(6)
H2 H 0.8681 0.2705 0.1993
N8 N 0.80597(13) 0.33803(13) 0.29747(6)
C1 C 0.55294(15) 0.23423(15) 0.40184(8)
C2 C 0.57052(16) 0.22108(15) 0.46425(8)
C3 C 0.64973(16) 0.12505(15) 0.47351(8)
C4 C 0.67992(15) 0.07878(15) 0.41714(8)
C5 C 0.76333(16) -0.01720(15) 0.40825(8)
H3 H 0.7999 -0.0533 0.4421
C6 C 0.80112(16) -0.06814(15) 0.35692(8)
C7 C 0.88936(16) -0.16741(15) 0.34999(8)
C8 C 0.89943(16) -0.18761(15) 0.29246(8)
C9 C 0.81437(16) -0.10310(16) 0.26380(8)
C10 C 0.78653(18) -0.09634(17) 0.20619(8)
H4 H 0.8320 -0.1506 0.1825
C11 C 0.69924(17) -0.01851(17) 0.18000(8)
C12 C 0.66830(18) -0.01535(18) 0.12014(9)
C13 C 0.58254(17) 0.07600(17) 0.11109(8)
C14 C 0.55766(16) 0.12684(16) 0.16635(8)
C15 C 0.47121(17) 0.22009(16) 0.17614(8)
H5 H 0.4263 0.2511 0.1438
C16 C 0.44074(16) 0.27476(16) 0.22659(8)
C17 C 0.35081(16) 0.37326(16) 0.23240(8)
C18 C 0.35615(16) 0.40743(15) 0.28646(8)
C19 C 0.44745(16) 0.32741(15) 0.31554(8)
C20 C 0.48364(16) 0.32591(15) 0.37216(8)
C21 C 0.50389(16) 0.28998(15) 0.51131(8)
H6 H 0.5090 0.3688 0.4991
H7 H 0.5458 0.2690 0.5477
C22 C 0.36770(16) 0.27604(16) 0.52414(8)
H8 H 0.3277 0.3246 0.5540
H9 H 0.3621 0.1989 0.5385
H10 H 0.3259 0.2956 0.4882
C23 C 0.69645(16) 0.07300(15) 0.53037(8)
H11 H 0.6984 0.1320 0.5560
H12 H 0.7825 0.0348 0.5225
C24 C 0.61799(17) -0.00964(16) 0.56272(8)
H13 H 0.6522 -0.0394 0.5997
H14 H 0.6186 -0.0703 0.5384
H15 H 0.5326 0.0275 0.5708
C25 C 0.96004(16) -0.23460(16) 0.39720(8)
H16 H 0.9676 -0.3140 0.3913
H17 H 0.9125 -0.2229 0.4356
C26 C 1.08891(18) -0.20600(19) 0.39849(9)
H18 H 1.1317 -0.2549 0.4289
H19 H 1.0821 -0.1289 0.4071
H20 H 1.1361 -0.2158 0.3603
C27 C 0.97937(17) -0.28115(16) 0.26307(8)
H21 H 1.0514 -0.3089 0.2858
H22 H 1.0115 -0.2526 0.2235
C28 C 0.9115(2) -0.37723(18) 0.25726(10)
H23 H 0.9682 -0.4347 0.2373
H24 H 0.8406 -0.3507 0.2344
H25 H 0.8821 -0.4080 0.2963
C29 C 0.72437(19) -0.09968(19) 0.07789(9)
H26 H 0.7310 -0.1747 0.0989
H27 H 0.6691 -0.0963 0.0464
C30 C 0.8499(2) -0.0799(2) 0.05118(10)
H28 H 0.8808 -0.1327 0.0220
H29 H 0.9068 -0.0898 0.0819
H30 H 0.8444 -0.0043 0.0321
C31 C 0.52825(18) 0.12223(17) 0.05508(8)
H31 H 0.4402 0.1542 0.0640
H32 H 0.5312 0.0615 0.0299
C32 C 0.5961(2) 0.2104(2) 0.02197(10)
H33 H 0.5556 0.2399 -0.0135
H34 H 0.6823 0.1781 0.0110
H35 H 0.5946 0.2702 0.0469
C33 C 0.26287(17) 0.42117(16) 0.18785(8)
H36 H 0.3080 0.4199 0.1483
H37 H 0.2309 0.4993 0.1945
C34 C 0.15355(18) 0.35799(18) 0.19035(9)
H38 H 0.0990 0.3920 0.1603
H39 H 0.1071 0.3608 0.2291
H40 H 0.1846 0.2807 0.1833
C35 C 0.27052(16) 0.50148(15) 0.31230(8)
H41 H 0.2327 0.5516 0.2803
H42 H 0.3191 0.5440 0.3326
C36 C 0.16789(18) 0.46292(18) 0.35555(9)
H43 H 0.1158 0.5272 0.3719
H44 H 0.2047 0.4131 0.3873
H45 H 0.1171 0.4237 0.3353
C37 C 0.46721(16) 0.43423(15) 0.39846(7)
H46 H 0.4009 0.4516 0.4277
C38 C 0.74292(15) 0.39754(15) 0.34104(7)
C39 C 0.78968(16) 0.35613(15) 0.39788(8)
C40 C 0.87683(16) 0.26700(15) 0.38751(8)
C41 C 0.88468(16) 0.25553(15) 0.32509(8)
C42 C 0.96022(16) 0.16883(16) 0.29907(8)
H47 H 1.0058 0.1162 0.3251
C43 C 0.97894(16) 0.14778(15) 0.24074(8)
C44 C 1.06198(17) 0.05759(16) 0.21605(8)
C45 C 1.05229(17) 0.06874(16) 0.15704(8)
C46 C 0.96610(17) 0.16704(16) 0.14377(8)
C47 C 0.93433(17) 0.21613(16) 0.08976(8)
H48 H 0.9671 0.1769 0.0568
C48 C 0.85917(17) 0.31737(17) 0.07861(8)
C49 C 0.83033(17) 0.36800(17) 0.02072(8)
C50 C 0.75297(18) 0.46377(18) 0.02955(8)
C51 C 0.73491(17) 0.47029(17) 0.09285(8)
C52 C 0.65793(17) 0.55565(17) 0.11967(8)
H49 H 0.6194 0.6131 0.0936
C53 C 0.62895(16) 0.56961(16) 0.17870(8)
C54 C 0.54193(16) 0.65781(15) 0.20271(8)
C55 C 0.53279(16) 0.63823(15) 0.26233(8)
C56 C 0.61690(16) 0.53782(15) 0.27683(8)
C57 C 0.64326(16) 0.48384(15) 0.33171(8)
C58 C 0.76191(16) 0.40745(16) 0.45534(8)
H50 H 0.7504 0.3486 0.4874
H51 H 0.6832 0.4600 0.4544
C59 C 0.86387(18) 0.46830(18) 0.46834(9)
H52 H 0.8396 0.5024 0.5052
H53 H 0.8768 0.5258 0.4364
H54 H 0.9409 0.4158 0.4718
C60 C 0.95121(16) 0.19088(16) 0.43054(8)
H55 H 0.9494 0.1136 0.4230
H56 H 0.9107 0.2013 0.4705
C61 C 1.08629(17) 0.20720(17) 0.42887(9)
H57 H 1.1289 0.1516 0.4567
H58 H 1.0896 0.2814 0.4396
H59 H 1.1271 0.1990 0.3892
C62 C 1.14709(18) -0.02615(16) 0.25064(8)
H60 H 1.1768 -0.0904 0.2276
H61 H 1.1002 -0.0527 0.2871
C63 C 1.25905(19) 0.01946(18) 0.26651(9)
H62 H 1.3090 -0.0374 0.2909
H63 H 1.2304 0.0845 0.2883
H64 H 1.3095 0.0406 0.2306
C64 C 1.12321(18) -0.00437(17) 0.11260(9)
H65 H 1.0767 0.0036 0.0776
H66 H 1.1301 -0.0825 0.1293
C65 C 1.25166(19) 0.0231(2) 0.09423(10)
H67 H 1.2940 -0.0264 0.0652
H68 H 1.2989 0.0134 0.1286
H69 H 1.2454 0.0999 0.0770
C66 C 0.87661(19) 0.32186(19) -0.03695(8)
H70 H 0.8074 0.3345 -0.0622
H71 H 0.9022 0.2409 -0.0297
C67 C 0.9843(2) 0.3715(2) -0.06952(11)
H72 H 1.0093 0.3374 -0.1063
H73 H 1.0542 0.3579 -0.0453
H74 H 0.9593 0.4514 -0.0780
C68 C 0.6939(2) 0.5467(2) -0.01539(9)
H75 H 0.6079 0.5689 -0.0018
H76 H 0.6943 0.5113 -0.0509
C69 C 0.7533(3) 0.6463(2) -0.03005(12)
H77 H 0.7145 0.6921 -0.0626
H78 H 0.8418 0.6242 -0.0416
H79 H 0.7431 0.6886 0.0042
C70 C 0.46985(17) 0.75043(16) 0.16702(8)
H80 H 0.5205 0.7690 0.1302
H81 H 0.4513 0.8168 0.1890
C71 C 0.34889(18) 0.71899(18) 0.15260(9)
H82 H 0.3060 0.7793 0.1273
H83 H 0.2959 0.7060 0.1890
H84 H 0.3670 0.6515 0.1323
C72 C 0.46001(16) 0.71848(15) 0.30296(8)
H85 H 0.4271 0.6767 0.3388
H86 H 0.3886 0.7611 0.2835
C73 C 0.53846(18) 0.79823(17) 0.32015(9)
H87 H 0.4883 0.8475 0.3474
H88 H 0.5680 0.8423 0.2850
H89 H 0.6096 0.7563 0.3392
C74 C 0.54483(16) 0.50612(15) 0.38111(7)
H90 H 0.5377 0.5718 0.4002
H91 H 0.703(2) 0.023(2) 0.2949(12)
H92 H 0.561(3) 0.187(3) 0.2857(13)
H93? H 0.7426 0.5385 -0.0524
H94? H 0.6963 0.6192 -0.0050
C75? C 0.5749(11) 0.5387(11) -0.0274(5)
H95? H 0.5453 0.6009 -0.0553
H96? H 0.5196 0.5407 0.0090
H97? H 0.5759 0.4690 -0.0444
loop_
_geom_bond_atom_site_label_1
_geom_bond_atom_site_label_2
_geom_bond_site_symmetry_1
_geom_bond_site_symmetry_2
N1 C1 1_555 1_555
N2 C6 1_555 1_555
N3 C11 1_555 1_555
N4 C16 1_555 1_555
N5 H1 1_555 1_555
N6 C48 1_555 1_555
N7 H2 1_555 1_555
N8 C38 1_555 1_555
C1 C2 1_555 1_555
C2 C3 1_555 1_555
C3 C4 1_555 1_555
C4 N1 1_555 1_555
C5 C4 1_555 1_555
H3 C5 1_555 1_555
C6 C5 1_555 1_555
C7 C6 1_555 1_555
C8 C7 1_555 1_555
C9 N2 1_555 1_555
C10 C9 1_555 1_555
H4 C10 1_555 1_555
C11 C10 1_555 1_555
C12 C11 1_555 1_555
C13 C12 1_555 1_555
C14 N3 1_555 1_555
C15 C14 1_555 1_555
H5 C15 1_555 1_555
C16 C15 1_555 1_555
C17 C16 1_555 1_555
C18 C17 1_555 1_555
C19 N4 1_555 1_555
C20 C1 1_555 1_555
C21 C2 1_555 1_555
H6 C21 1_555 1_555
H7 C21 1_555 1_555
C22 C21 1_555 1_555
H8 C22 1_555 1_555
H9 C22 1_555 1_555
H10 C22 1_555 1_555
C23 C3 1_555 1_555
H11 C23 1_555 1_555
H12 C23 1_555 1_555
C24 C23 1_555 1_555
H13 C24 1_555 1_555
H14 C24 1_555 1_555
H15 C24 1_555 1_555
C25 C7 1_555 1_555
H16 C25 1_555 1_555
H17 C25 1_555 1_555
C26 C25 1_555 1_555
H18 C26 1_555 1_555
H19 C26 1_555 1_555
H20 C26 1_555 1_555
C27 C8 1_555 1_555
H21 C27 1_555 1_555
H22 C27 1_555 1_555
C28 C27 1_555 1_555
H23 C28 1_555 1_555
H24 C28 1_555 1_555
H25 C28 1_555 1_555
C29 C12 1_555 1_555
H26 C29 1_555 1_555
H27 C29 1_555 1_555
C30 C29 1_555 1_555
H28 C30 1_555 1_555
H29 C30 1_555 1_555
H30 C30 1_555 1_555
C31 C13 1_555 1_555
H31 C31 1_555 1_555
H32 C31 1_555 1_555
C32 C31 1_555 1_555
H33 C32 1_555 1_555
H34 C32 1_555 1_555
H35 C32 1_555 1_555
C33 C17 1_555 1_555
H36 C33 1_555 1_555
H37 C33 1_555 1_555
C34 C33 1_555 1_555
H38 C34 1_555 1_555
H39 C34 1_555 1_555
H40 C34 1_555 1_555
C35 C18 1_555 1_555
H41 C35 1_555 1_555
H42 C35 1_555 1_555
C36 C35 1_555 1_555
H43 C36 1_555 1_555
H44 C36 1_555 1_555
H45 C36 1_555 1_555
C37 C20 1_555 1_555
H46 C37 1_555 1_555
C38 C39 1_555 1_555
C39 C40 1_555 1_555
C40 C41 1_555 1_555
C41 N8 1_555 1_555
C42 C41 1_555 1_555
H47 C42 1_555 1_555
C43 N7 1_555 1_555
C44 C43 1_555 1_555
C45 C44 1_555 1_555
C46 N7 1_555 1_555
C47 C46 1_555 1_555
H48 C47 1_555 1_555
C48 C47 1_555 1_555
C49 C48 1_555 1_555
C50 C49 1_555 1_555
C51 N6 1_555 1_555
C52 C51 1_555 1_555
H49 C52 1_555 1_555
C53 N5 1_555 1_555
C54 C53 1_555 1_555
C55 C54 1_555 1_555
C56 N5 1_555 1_555
C57 C38 1_555 1_555
C58 C39 1_555 1_555
H50 C58 1_555 1_555
H51 C58 1_555 1_555
C59 C58 1_555 1_555
H52 C59 1_555 1_555
H53 C59 1_555 1_555
H54 C59 1_555 1_555
C60 C40 1_555 1_555
H55 C60 1_555 1_555
H56 C60 1_555 1_555
C61 C60 1_555 1_555
H57 C61 1_555 1_555
H58 C61 1_555 1_555
H59 C61 1_555 1_555
C62 C44 1_555 1_555
H60 C62 1_555 1_555
H61 C62 1_555 1_555
C63 C62 1_555 1_555
H62 C63 1_555 1_555
H63 C63 1_555 1_555
H64 C63 1_555 1_555
C64 C45 1_555 1_555
H65 C64 1_555 1_555
H66 C64 1_555 1_555
C65 C64 1_555 1_555
H67 C65 1_555 1_555
H68 C65 1_555 1_555
H69 C65 1_555 1_555
C66 C49 1_555 1_555
H70 C66 1_555 1_555
H71 C66 1_555 1_555
C67 C66 1_555 1_555
H72 C67 1_555 1_555
H73 C67 1_555 1_555
H74 C67 1_555 1_555
C68 C50 1_555 1_555
H75 C68 1_555 1_555
H76 C68 1_555 1_555
C69 C68 1_555 1_555
H77 C69 1_555 1_555
H78 C69 1_555 1_555
H79 C69 1_555 1_555
C70 C54 1_555 1_555
H80 C70 1_555 1_555
H81 C70 1_555 1_555
C71 C70 1_555 1_555
H82 C71 1_555 1_555
H83 C71 1_555 1_555
H84 C71 1_555 1_555
C72 C55 1_555 1_555
H85 C72 1_555 1_555
H86 C72 1_555 1_555
C73 C72 1_555 1_555
H87 C73 1_555 1_555
H88 C73 1_555 1_555
H89 C73 1_555 1_555
C74 C37 1_555 1_555
H90 C74 1_555 1_555
H91 N2 1_555 1_555
H92 N4 1_555 1_555
C8 C9 1_555 1_555
C13 C14 1_555 1_555
C18 C19 1_555 1_555
C19 C20 1_555 1_555
C42 C43 1_555 1_555
C45 C46 1_555 1_555
C50 C51 1_555 1_555
C52 C53 1_555 1_555
C55 C56 1_555 1_555
C56 C57 1_555 1_555
C57 C74 1_555 1_555

#END
