
#######################################################################
#
#                 Cambridge Crystallographic Data Centre
#                                CCDC 
#
#######################################################################
#
# If this CIF has been generated from an entry in the Cambridge 
# Structural Database, then it will include bibliographic, chemical, 
# crystal, experimental, refinement or atomic coordinate data resulting 
# from the CCDC's data processing and validation procedures.
#
#######################################################################

data_ALAMAC
_chemical_formula_moiety         'C12 H13 Cl1 O2'
_chemical_name_systematic        
(2-(4-Chlorophenyl)-4-methyl-2,5-dihydrofuran-3-yl)methanol
_symmetry_cell_setting           monoclinic
_symmetry_space_group_name_H-M   'P 21'
_symmetry_Int_Tables_number      4
_space_group_name_Hall           'P 2yb'
loop_
_symmetry_equiv_pos_site_id
_symmetry_equiv_pos_as_xyz
1 x,y,z
2 -x,1/2+y,-z
_cell_length_a                   7.2212(12)
_cell_length_b                   7.9337(11)
_cell_length_c                   10.1234(17)
_cell_angle_alpha                90
_cell_angle_beta                 90.218(14)
_cell_angle_gamma                90
_cell_volume                     579.974
_exptl_crystal_colour            colorless
_exptl_crystal_description       plate
_cell_formula_units_Z            2
loop_
_atom_site_label
_atom_site_type_symbol
_atom_site_fract_x
_atom_site_fract_y
_atom_site_fract_z
Cl1 Cl 0.93988(15) 1.24700(12) 0.50104(9)
O1 O 0.3286(3) 0.8400(3) 0.8764(2)
O2 O 0.8169(3) 0.5328(3) 0.9205(3)
H1 H 0.783(6) 0.468(5) 0.986(3)
C1 C 0.8182(5) 1.1163(4) 0.6077(3)
C2 C 0.9021(4) 1.0614(4) 0.7222(3)
H2 H 1.0239 1.0908 0.7416
C3 C 0.8017(5) 0.9620(4) 0.8074(3)
H3 H 0.8558 0.9273 0.8864
C4 C 0.6228(4) 0.9126(4) 0.7787(3)
C5 C 0.5436(5) 0.9682(4) 0.6627(3)
H4 H 0.4227 0.9372 0.6422
C6 C 0.6407(5) 1.0689(4) 0.5766(4)
H5 H 0.5863 1.1045 0.4980
C7 C 0.5225(4) 0.7958(4) 0.8711(3)
H6 H 0.5768 0.8043 0.9596
C8 C 0.5220(4) 0.6143(4) 0.8277(3)
C9 C 0.7012(6) 0.5246(4) 0.8078(4)
H7 H 0.6765 0.4074 0.7870
H8 H 0.7652 0.5741 0.7332
C10 C 0.3512(5) 0.5579(4) 0.8163(3)
C11 C 0.2796(5) 0.3883(4) 0.7768(4)
H9 H 0.1468 0.3883 0.7808
H10 H 0.3278 0.3044 0.8360
H11 H 0.3183 0.3634 0.6883
C12 C 0.2185(5) 0.6941(4) 0.8516(4)
H12 H 0.1326 0.7146 0.7795
H13 H 0.1485 0.6635 0.9296
loop_
_geom_bond_atom_site_label_1
_geom_bond_atom_site_label_2
_geom_bond_site_symmetry_1
_geom_bond_site_symmetry_2
Cl1 C1 1_555 1_555
O1 C7 1_555 1_555
O2 H1 1_555 1_555
C1 C2 1_555 1_555
C2 H2 1_555 1_555
C3 C2 1_555 1_555
H3 C3 1_555 1_555
C4 C3 1_555 1_555
C5 C4 1_555 1_555
H4 C5 1_555 1_555
C6 C1 1_555 1_555
H5 C6 1_555 1_555
C7 C4 1_555 1_555
H6 C7 1_555 1_555
C8 C7 1_555 1_555
C9 O2 1_555 1_555
H7 C9 1_555 1_555
H8 C9 1_555 1_555
C10 C8 1_555 1_555
C11 C10 1_555 1_555
H9 C11 1_555 1_555
H10 C11 1_555 1_555
H11 C11 1_555 1_555
C12 O1 1_555 1_555
H12 C12 1_555 1_555
H13 C12 1_555 1_555
C5 C6 1_555 1_555
C8 C9 1_555 1_555
C10 C12 1_555 1_555

#END
