
#######################################################################
#
#                 Cambridge Crystallographic Data Centre
#                                CCDC 
#
#######################################################################
#
# If this CIF has been generated from an entry in the Cambridge 
# Structural Database, then it will include bibliographic, chemical, 
# crystal, experimental, refinement or atomic coordinate data resulting 
# from the CCDC's data processing and validation procedures.
#
#######################################################################

data_ALAYAO
_chemical_formula_moiety         'C29 H25 Br1 N2 O5'
_chemical_name_systematic        
't-Butyl 3-(1-(3-bromophenyl)-2,5-dioxopyrrolidin-3-yl)-2-oxo-3-phenylindoline-1-carboxylate unknown solvate'
_symmetry_cell_setting           orthorhombic
_symmetry_space_group_name_H-M   'P 21 21 21'
_symmetry_Int_Tables_number      19
_space_group_name_Hall           'P 2ac 2ab'
loop_
_symmetry_equiv_pos_site_id
_symmetry_equiv_pos_as_xyz
1 x,y,z
2 1/2-x,-y,1/2+z
3 1/2+x,1/2-y,-z
4 -x,1/2+y,1/2-z
_cell_length_a                   8.9418(2)
_cell_length_b                   12.1380(2)
_cell_length_c                   29.4256(7)
_cell_angle_alpha                90
_cell_angle_beta                 90
_cell_angle_gamma                90
_cell_volume                     3193.72
_exptl_crystal_colour            colorless
_exptl_crystal_description       block
_cell_formula_units_Z            4
loop_
_atom_site_label
_atom_site_type_symbol
_atom_site_fract_x
_atom_site_fract_y
_atom_site_fract_z
Br1 Br 0.92833(5) 0.37631(3) 0.326574(13)
O1 O 0.4762(2) 1.09398(18) 0.39530(7)
O2 O 0.5429(2) 1.20142(18) 0.31795(7)
N1 N 0.7082(2) 1.10918(19) 0.35994(7)
O3 O 0.7456(3) 1.1295(2) 0.28414(7)
N2 N 0.7801(3) 0.75995(19) 0.39638(8)
O4 O 0.8992(3) 0.6802(2) 0.45725(8)
O5 O 0.6267(2) 0.86724(18) 0.35195(7)
C1 C 0.6755(3) 1.0800(2) 0.47689(9)
C2 C 0.6989(3) 1.0188(2) 0.43205(9)
C3 C 0.6397(3) 0.8983(2) 0.43327(9)
H1 H 0.5314 0.8985 0.4382
C4 C 0.8558(3) 1.0228(2) 0.41375(10)
C5 C 0.7157(4) 0.8237(2) 0.46875(9)
H2 H 0.7766 0.8671 0.4893
H3 H 0.6413 0.7842 0.4864
C6 C 0.9884(3) 0.9876(3) 0.43264(11)
H4 H 0.9890 0.9559 0.4614
C7 C 0.8567(3) 1.0717(2) 0.37113(10)
C8 C 0.6746(3) 0.8427(2) 0.38897(10)
C9 C 0.7622(4) 1.1709(3) 0.48725(12)
H5 H 0.8373 1.1922 0.4672
C10 C 0.8507(3) 0.5874(2) 0.36075(10)
H6 H 0.8014 0.5484 0.3834
C11 C 0.5663(4) 1.0510(3) 0.50755(10)
H7 H 0.5061 0.9901 0.5018
C12 C 0.6686(4) 1.1462(2) 0.31637(10)
C13 C 0.8104(4) 0.7451(3) 0.44261(11)
C14 C 0.9246(4) 0.7590(3) 0.32713(11)
H8 H 0.9263 0.8356 0.3276
C15 C 1.1210(4) 0.9996(3) 0.40868(12)
H9 H 1.2109 0.9763 0.4213
C16 C 0.8521(3) 0.7001(2) 0.36080(10)
C17 C 0.9877(3) 1.0834(3) 0.34671(11)
H10 H 0.9872 1.1155 0.3180
C18 C 1.1185(3) 1.0467(3) 0.36574(12)
H11 H 1.2073 1.0535 0.3495
C19 C 0.6075(3) 1.0787(2) 0.39414(9)
C20 C 0.9242(4) 0.5331(2) 0.32624(10)
C21 C 0.9974(4) 0.5907(3) 0.29217(11)
H12 H 1.0478 0.5528 0.2693
C22 C 0.4698(4) 1.2427(3) 0.27559(12)
C23 C 0.7403(4) 1.2306(3) 0.52617(12)
H13 H 0.7994 1.2920 0.5320
C24 C 0.5727(5) 1.3245(3) 0.25193(14)
H14 H 0.5195 1.3599 0.2276
H15 H 0.6578 1.2862 0.2398
H16 H 0.6056 1.3789 0.2734
C25 C 0.9953(4) 0.7002(3) 0.29227(12)
H17 H 1.0416 0.7385 0.2688
C26 C 0.6326(5) 1.2005(3) 0.55624(13)
H18 H 0.6190 1.2404 0.5829
C27 C 0.5448(4) 1.1120(3) 0.54722(12)
H19 H 0.4700 1.0919 0.5676
C28 C 0.4304(5) 1.1467(3) 0.24666(14)
H20 H 0.3726 1.0951 0.2641
H21 H 0.5202 1.1117 0.2361
H22 H 0.3727 1.1713 0.2211
C29 C 0.3299(5) 1.2991(4) 0.29333(16)
H23 H 0.3574 1.3647 0.3095
H24 H 0.2778 1.2501 0.3135
H25 H 0.2661 1.3180 0.2683
loop_
_geom_bond_atom_site_label_1
_geom_bond_atom_site_label_2
_geom_bond_site_symmetry_1
_geom_bond_site_symmetry_2
Br1 C20 1_555 1_555
O1 C19 1_555 1_555
O2 C12 1_555 1_555
N1 C7 1_555 1_555
O3 C12 1_555 1_555
N2 C8 1_555 1_555
O4 C13 1_555 1_555
O5 C8 1_555 1_555
C1 C2 1_555 1_555
C2 C3 1_555 1_555
C3 H1 1_555 1_555
C4 C2 1_555 1_555
C5 C3 1_555 1_555
H2 C5 1_555 1_555
H3 C5 1_555 1_555
C6 C4 1_555 1_555
H4 C6 1_555 1_555
C7 C4 1_555 1_555
C8 C3 1_555 1_555
C9 C1 1_555 1_555
H5 C9 1_555 1_555
C10 H6 1_555 1_555
C11 C1 1_555 1_555
H7 C11 1_555 1_555
C12 N1 1_555 1_555
C13 N2 1_555 1_555
C14 H8 1_555 1_555
C15 C6 1_555 1_555
H9 C15 1_555 1_555
C16 N2 1_555 1_555
C17 C7 1_555 1_555
H10 C17 1_555 1_555
C18 C15 1_555 1_555
H11 C18 1_555 1_555
C19 N1 1_555 1_555
C20 C10 1_555 1_555
C21 C20 1_555 1_555
H12 C21 1_555 1_555
C22 O2 1_555 1_555
C23 C9 1_555 1_555
H13 C23 1_555 1_555
C24 C22 1_555 1_555
H14 C24 1_555 1_555
H15 C24 1_555 1_555
H16 C24 1_555 1_555
C25 C14 1_555 1_555
H17 C25 1_555 1_555
C26 C23 1_555 1_555
H18 C26 1_555 1_555
C27 C11 1_555 1_555
H19 C27 1_555 1_555
C28 C22 1_555 1_555
H20 C28 1_555 1_555
H21 C28 1_555 1_555
H22 C28 1_555 1_555
C29 C22 1_555 1_555
H23 C29 1_555 1_555
H24 C29 1_555 1_555
H25 C29 1_555 1_555
C2 C19 1_555 1_555
C5 C13 1_555 1_555
C10 C16 1_555 1_555
C14 C16 1_555 1_555
C17 C18 1_555 1_555
C21 C25 1_555 1_555
C26 C27 1_555 1_555

#END
