
#######################################################################
#
#                 Cambridge Crystallographic Data Centre
#                                CCDC 
#
#######################################################################
#
# If this CIF has been generated from an entry in the Cambridge 
# Structural Database, then it will include bibliographic, chemical, 
# crystal, experimental, refinement or atomic coordinate data resulting 
# from the CCDC's data processing and validation procedures.
#
#######################################################################

data_ALAZIX
_chemical_formula_moiety         'C66 H70 N6 O6,0.25(C6 H14)'
_chemical_name_systematic        
"4,5',5''',5'''''-Tetrabenzyl-2,5'',5''''-triisopropyl-5'''''-(3-methylbut-2-en-1-yl)-1,1',1'',1''',1'''',1''''',2,5',5'',5''',5'''',5'''''-dodecahydro-3H,4'H,4''H,4'''H,4''''H,4'''''H-2,3':5',3'':5'',3''':5''',3'''':5'''',3'''''-sexipyrrole-3,4',4'',4''',4'''',4'''''-hexone hexane solvate"
_symmetry_cell_setting           monoclinic
_symmetry_space_group_name_H-M   'P 21'
_symmetry_Int_Tables_number      4
_space_group_name_Hall           'P 2yb'
loop_
_symmetry_equiv_pos_site_id
_symmetry_equiv_pos_as_xyz
1 x,y,z
2 -x,1/2+y,-z
_cell_length_a                   17.5308(2)
_cell_length_b                   31.0856(5)
_cell_length_c                   24.3603(3)
_cell_angle_alpha                90
_cell_angle_beta                 105.561(1)
_cell_angle_gamma                90
_cell_volume                     12788.7
_cell_formula_units_Z            8
loop_
_atom_site_label
_atom_site_type_symbol
_atom_site_fract_x
_atom_site_fract_y
_atom_site_fract_z
C67 C 0.2933(5) 0.7496(3) 0.8265(3)
N7 N 0.2453(5) 0.7446(2) 0.7674(3)
H71 H 0.2631 0.7368 0.7394
C68 C 0.1694(6) 0.7542(3) 0.7637(3)
H72 H 0.1301 0.7535 0.7294
C69 C 0.1538(5) 0.7651(3) 0.8146(3)
C70 C 0.2292(5) 0.7635(3) 0.8556(3)
O7 O 0.2475(4) 0.7720(2) 0.9079(2)
C71 C 0.0738(5) 0.7767(2) 0.8211(3)
N8 N 0.0797(4) 0.7937(2) 0.8788(3)
H73 H 0.0924 0.7785 0.9094
C72 C 0.0629(5) 0.8353(3) 0.8773(3)
H74 H 0.0644 0.8517 0.9095
C73 C 0.0425(5) 0.8520(2) 0.8218(3)
C74 C 0.0458(5) 0.8175(2) 0.7852(3)
O8 O 0.0289(4) 0.81680(19) 0.7314(2)
C75 C 0.0110(5) 0.8962(2) 0.8029(3)
N9 N 0.0352(4) 0.9091(2) 0.7524(3)
H75 H 0.0228 0.8957 0.7204
C76 C 0.0792(6) 0.9448(3) 0.7630(4)
H76 H 0.1009 0.9578 0.7362
C77 C 0.0894(5) 0.9605(2) 0.8175(3)
C78 C 0.0480(5) 0.9321(2) 0.8451(3)
O9 O 0.0413(4) 0.93190(18) 0.8945(2)
C79 C 0.1310(5) 1.0012(3) 0.8421(3)
N10 N 0.1920(4) 0.9918(2) 0.8949(3)
H77 H 0.1821 0.9811 0.9248
C80 C 0.2631(6) 1.0014(3) 0.8913(3)
H78 H 0.3086 0.9965 0.9207
C81 C 0.2644(5) 1.0196(3) 0.8398(3)
C82 C 0.1850(5) 1.0191(3) 0.8063(3)
O10 O 0.1582(4) 1.0310(2) 0.7551(2)
C83 C 0.3347(5) 1.0363(3) 0.8222(3)
N11 N 0.3272(4) 1.0235(2) 0.7619(3)
H79 H 0.2906 1.0320 0.7328
C84 C 0.3858(5) 0.9971(3) 0.7601(3)
H80 H 0.3901 0.9841 0.7267
C85 C 0.4395(5) 0.9905(3) 0.8116(3)
C86 C 0.4127(5) 1.0132(3) 0.8535(3)
O11 O 0.4397(4) 1.0155(2) 0.9062(2)
C87 C 0.5176(5) 0.9668(3) 0.8244(3)
N12 N 0.5268(5) 0.9406(3) 0.8764(3)
H81 H 0.5273 0.9508 0.9093
C88 C 0.5343(7) 0.8988(3) 0.8656(4)
H82 H 0.5404 0.8775 0.8933
C89 C 0.5321(7) 0.8905(3) 0.8099(4)
C90 C 0.5178(5) 0.9310(3) 0.7805(4)
O12 O 0.5115(4) 0.9393(2) 0.7296(3)
C91 C 0.3247(6) 0.7064(3) 0.8526(4)
H83 H 0.2806 0.6866 0.8470
H84 H 0.3464 0.7102 0.8933
C92 C 0.3883(6) 0.6860(3) 0.8284(4)
C93 C 0.3653(7) 0.6650(3) 0.7763(5)
H85 H 0.3127 0.6646 0.7549
C94 C 0.4234(8) 0.6447(4) 0.7577(6)
H86 H 0.4083 0.6277 0.7251
C95 C 0.5027(8) 0.6482(4) 0.7850(6)
H87 H 0.5404 0.6362 0.7690
C96 C 0.5258(8) 0.6697(4) 0.8365(6)
H88 H 0.5790 0.6709 0.8565
C97 C 0.4685(6) 0.6895(4) 0.8583(5)
H89 H 0.4834 0.7049 0.8923
C98 C -0.0791(5) 0.8956(3) 0.7919(4)
H90 H -0.0918 0.8858 0.8262
H91 H -0.1007 0.8748 0.7621
C99 C -0.1203(6) 0.9394(3) 0.7741(4)
C100 C -0.1398(7) 0.9548(4) 0.7185(5)
H92 H -0.1267 0.9391 0.6898
C101 C -0.1793(7) 0.9941(4) 0.7063(6)
H93 H -0.1924 1.0039 0.6689
C102 C -0.2001(8) 1.0191(5) 0.7470(6)
H94 H -0.2265 1.0452 0.7379
C103 C -0.1794(8) 1.0033(4) 0.8011(6)
H95 H -0.1914 1.0195 0.8298
C104 C -0.1413(6) 0.9639(3) 0.8155(5)
H96 H -0.1299 0.9541 0.8528
C105 C 0.3408(5) 1.0851(3) 0.8300(4)
H97 H 0.3440 1.0918 0.8695
H98 H 0.2927 1.0981 0.8067
C106 C 0.4120(5) 1.1056(3) 0.8146(4)
C107 C 0.4808(6) 1.1142(3) 0.8567(4)
H99 H 0.4829 1.1074 0.8943
C108 C 0.5460(6) 1.1323(3) 0.8448(5)
H100 H 0.5926 1.1364 0.8734
C109 C 0.5405(6) 1.1443(3) 0.7894(5)
H101 H 0.5829 1.1579 0.7805
C110 C 0.4724(6) 1.1361(3) 0.7472(4)
H102 H 0.4702 1.1432 0.7097
C111 C 0.4071(6) 1.1175(3) 0.7591(4)
H103 H 0.3608 1.1130 0.7304
C112 C 0.5412(8) 0.8481(4) 0.7832(5)
H104 H 0.5470 0.8531 0.7453
H105 H 0.4934 0.8314 0.7794
C113 C 0.6121(10) 0.8219(6) 0.8172(7)
C114 C 0.6062(13) 0.7889(6) 0.8512(9)
H106 H 0.5543 0.7810 0.8489
C115 C 0.6627(15) 0.7640(7) 0.8891(10)
H107 H 0.6537 0.7418 0.9122
C116 C 0.7420(16) 0.7809(8) 0.8849(11)
H108 H 0.7848 0.7627 0.8994
C117 C 0.7607(14) 0.8202(10) 0.8622(10)
H109 H 0.8107 0.8326 0.8696
C118 C 0.6913(12) 0.8369(8) 0.8267(9)
H110 H 0.6975 0.8614 0.8063
C119 C 0.0161(5) 0.7389(3) 0.8065(4)
H111 H 0.0101 0.7315 0.7665
C120 C -0.0645(6) 0.7541(4) 0.8118(5)
H112 H -0.0802 0.7794 0.7890
H113 H -0.0610 0.7606 0.8509
H114 H -0.1030 0.7318 0.7987
C121 C 0.0440(6) 0.6989(3) 0.8414(4)
H115 H 0.0946 0.6904 0.8370
H116 H 0.0065 0.6762 0.8287
H117 H 0.0487 0.7049 0.8809
C122 C 0.0736(5) 1.0368(3) 0.8518(4)
H118 H 0.0484 1.0255 0.8801
C123 C 0.0083(6) 1.0485(3) 0.8005(4)
H119 H -0.0199 1.0229 0.7845
H120 H 0.0302 1.0619 0.7727
H121 H -0.0274 1.0680 0.8114
C124 C 0.1193(6) 1.0780(3) 0.8778(5)
H122 H 0.1611 1.0704 0.9107
H123 H 0.0836 1.0976 0.8887
H124 H 0.1413 1.0914 0.8501
C125 C 0.5910(6) 0.9961(3) 0.8326(5)
H125 H 0.5905 1.0154 0.8644
C126 C 0.6643(8) 0.9704(7) 0.8513(9)
H126 H 0.6626 0.9535 0.8839
H127 H 0.7092 0.9893 0.8611
H128 H 0.6686 0.9517 0.8209
C127 C 0.5836(7) 1.0253(4) 0.7802(5)
H129 H 0.5340 1.0404 0.7719
H130 H 0.5858 1.0080 0.7480
H131 H 0.6263 1.0456 0.7881
C128 C 0.3581(6) 0.7831(3) 0.8309(5)
H132 H 0.3879 0.7862 0.8705
H133 H 0.3941 0.7734 0.8095
C129 C 0.3249(8) 0.8251(4) 0.8088(6)
H134 H 0.3047 0.8282 0.7696
C130 C 0.3219(8) 0.8594(4) 0.8418(7)
C131 C 0.2834(11) 0.9001(5) 0.8150(11)
H135 H 0.2861 0.9214 0.8440
H136 H 0.2290 0.8946 0.7956
H137 H 0.3104 0.9105 0.7882
C132 C 0.3527(11) 0.8623(6) 0.9060(7)
H138 H 0.3428 0.8906 0.9183
H139 H 0.4087 0.8568 0.9170
H140 H 0.3263 0.8414 0.9233
C133 C 0.0316(5) 0.7335(3) 0.0607(3)
N13 N 0.0630(5) 0.7510(2) 0.1184(3)
H141 H 0.0386 0.7506 0.1446
C134 C 0.1343(6) 0.7674(3) 0.1241(4)
H142 H 0.1661 0.7773 0.1587
C135 C 0.1573(5) 0.7684(2) 0.0742(3)
C136 C 0.0957(5) 0.7477(3) 0.0323(3)
O13 O 0.0895(4) 0.7411(2) -0.0193(2)
C137 C 0.2331(5) 0.7896(2) 0.0687(3)
N14 N 0.2191(4) 0.8076(2) 0.0101(3)
H143 H 0.2080 0.7930 -0.0210
C138 C 0.2268(5) 0.8496(3) 0.0144(3)
H144 H 0.2233 0.8668 -0.0175
C139 C 0.2400(5) 0.8669(2) 0.0678(3)
C140 C 0.2490(5) 0.8317(3) 0.1053(3)
O14 O 0.2596(4) 0.83120(18) 0.1578(2)
C141 C 0.2493(5) 0.9130(2) 0.0850(3)
N15 N 0.2183(5) 0.9205(2) 0.1343(3)
H145 H 0.2355 0.9084 0.1670
C142 C 0.1588(5) 0.9489(3) 0.1205(3)
H146 H 0.1305 0.9575 0.1459
C143 C 0.1434(5) 0.9642(3) 0.0668(3)
C144 C 0.1968(5) 0.9434(3) 0.0415(3)
O15 O 0.2052(3) 0.94672(19) -0.0077(2)
C145 C 0.0849(5) 0.9990(2) 0.0403(3)
N16 N 0.0333(5) 0.9845(2) -0.0141(3)
H147 H 0.0491 0.9769 -0.0431
C146 C -0.0410(6) 0.9850(3) -0.0122(4)
H148 H -0.0831 0.9764 -0.0424
C147 C -0.0497(5) 0.9994(3) 0.0386(3)
C148 C 0.0264(5) 1.0078(3) 0.0745(3)
O16 O 0.0434(4) 1.0217(2) 0.1239(2)
C149 C -0.1282(5) 1.0086(3) 0.0521(3)
N17 N -0.1221(4) 0.9973(2) 0.1121(2)
H149 H -0.0896 1.0084 0.1415
C150 C -0.1747(5) 0.9674(3) 0.1128(4)
H150 H -0.1793 0.9553 0.1467
C151 C -0.2227(5) 0.9547(3) 0.0605(4)
C152 C -0.1966(5) 0.9792(3) 0.0203(4)
O17 O -0.2184(4) 0.9776(3) -0.0330(3)
C153 C -0.2936(5) 0.9247(3) 0.0475(4)
N18 N -0.2940(5) 0.9018(3) -0.0056(3)
H151 H -0.3008 0.9135 -0.0386
C154 C -0.2820(7) 0.8601(4) 0.0060(5)
H152 H -0.2771 0.8399 -0.0210
C155 C -0.2776(8) 0.8497(3) 0.0612(5)
C156 C -0.2832(6) 0.8888(3) 0.0899(4)
O18 O -0.2812(4) 0.8941(2) 0.1417(3)
C157 C 0.0203(5) 0.6853(3) 0.0605(4)
H153 H -0.0249 0.6790 0.0750
H154 H 0.0076 0.6753 0.0213
C158 C 0.0896(6) 0.6606(3) 0.0944(4)
C159 C 0.1040(7) 0.6569(3) 0.1532(4)
H155 H 0.0669 0.6685 0.1700
C160 C 0.1702(7) 0.6368(4) 0.1884(6)
H156 H 0.1776 0.6348 0.2276
C161 C 0.2241(8) 0.6201(4) 0.1623(6)
H157 H 0.2695 0.6064 0.1838
C162 C 0.2105(7) 0.6237(4) 0.1038(5)
H158 H 0.2476 0.6122 0.0869
C163 C 0.1442(7) 0.6437(3) 0.0693(5)
H159 H 0.1369 0.6456 0.0301
C164 C 0.3355(5) 0.9289(3) 0.0953(4)
H160 H 0.3487 0.9285 0.0592
H161 H 0.3378 0.9586 0.1079
C165 C 0.3979(6) 0.9040(3) 0.1378(4)
C166 C 0.4383(6) 0.8698(4) 0.1204(5)
H162 H 0.4277 0.8636 0.0817
C167 C 0.4935(8) 0.8448(4) 0.1588(6)
H163 H 0.5162 0.8212 0.1459
C168 C 0.5145(8) 0.8547(5) 0.2153(6)
H164 H 0.5543 0.8391 0.2403
C169 C 0.4780(7) 0.8871(5) 0.2356(5)
H165 H 0.4913 0.8932 0.2744
C170 C 0.4193(7) 0.9116(4) 0.1967(4)
H166 H 0.3938 0.9335 0.2109
C171 C -0.1532(6) 1.0558(3) 0.0419(4)
H167 H -0.1112 1.0733 0.0654
H168 H -0.1560 1.0625 0.0025
C172 C -0.2295(6) 1.0698(3) 0.0529(4)
C173 C -0.2998(6) 1.0663(4) 0.0099(5)
H169 H -0.2998 1.0553 -0.0256
C174 C -0.3704(7) 1.0797(4) 0.0208(5)
H170 H -0.4175 1.0790 -0.0080
C175 C -0.3700(7) 1.0943(4) 0.0753(6)
H171 H -0.4169 1.1037 0.0822
C176 C -0.2999(7) 1.0948(4) 0.1195(5)
H172 H -0.3003 1.1029 0.1561
C177 C -0.2295(6) 1.0829(3) 0.1075(4)
H173 H -0.1821 1.0838 0.1361
C178 C -0.2704(7) 0.8064(4) 0.0883(6)
H174 H -0.2442 0.8101 0.1285
H175 H -0.2352 0.7894 0.0723
C179 C -0.3448(8) 0.7794(4) 0.0841(7)
C180 C -0.3474(10) 0.7514(5) 0.1242(8)
H176 H -0.3027 0.7494 0.1550
C181 C -0.4087(11) 0.7253(6) 0.1248(10)
H177 H -0.4090 0.7070 0.1550
C182 C -0.4747(12) 0.7285(6) 0.0733(10)
H178 H -0.5159 0.7087 0.0682
C183 C -0.4785(10) 0.7591(5) 0.0326(8)
H179 H -0.5232 0.7629 0.0022
C184 C -0.4103(9) 0.7849(5) 0.0396(7)
H180 H -0.4101 0.8062 0.0129
C185 C 0.3063(5) 0.7604(3) 0.0810(3)
H181 H 0.3513 0.7775 0.0765
C186 C 0.2941(6) 0.7221(3) 0.0387(4)
H182 H 0.2801 0.7328 0.0004
H183 H 0.2523 0.7040 0.0442
H184 H 0.3421 0.7057 0.0455
C187 C 0.3284(7) 0.7414(4) 0.1415(4)
H185 H 0.3744 0.7235 0.1466
H186 H 0.2850 0.7246 0.1467
H187 H 0.3395 0.7644 0.1689
C188 C 0.1274(6) 1.0412(3) 0.0322(4)
H188 H 0.1550 1.0353 0.0030
C189 C 0.1922(6) 1.0541(4) 0.0871(5)
H189 H 0.2274 1.0303 0.0997
H190 H 0.1675 1.0617 0.1165
H191 H 0.2216 1.0782 0.0790
C190 C 0.0684(7) 1.0770(3) 0.0089(5)
H192 H 0.0964 1.1027 0.0043
H193 H 0.0371 1.0824 0.0350
H194 H 0.0344 1.0685 -0.0273
C191 C -0.3727(5) 0.9497(3) 0.0394(4)
H195 H -0.3784 0.9695 0.0073
C192 C -0.3753(6) 0.9761(4) 0.0920(5)
H196 H -0.3311 0.9956 0.1014
H197 H -0.3725 0.9571 0.1236
H198 H -0.4238 0.9922 0.0841
C193 C -0.4434(6) 0.9194(4) 0.0257(5)
H199 H -0.4429 0.9025 -0.0072
H200 H -0.4914 0.9359 0.0180
H201 H -0.4405 0.9008 0.0576
C194 C -0.0472(6) 0.7557(3) 0.0301(5)
H202 H -0.0717 0.7394 -0.0040
H203 H -0.0822 0.7542 0.0549
C195 C -0.0415(9) 0.8016(4) 0.0135(7)
H204 H -0.0323 0.8060 -0.0220
C196 C -0.0480(9) 0.8375(4) 0.0431(8)
C197 C -0.0385(14) 0.8822(5) 0.0265(11)
H205 H -0.0462 0.9013 0.0556
H206 H -0.0770 0.8884 -0.0088
H207 H 0.0138 0.8861 0.0219
C198 C -0.0652(12) 0.8345(7) 0.1011(8)
H208 H -0.0678 0.8629 0.1159
H209 H -0.0237 0.8185 0.1268
H210 H -0.1149 0.8201 0.0971
C199 C -0.2151(6) 0.9365(3) 0.2931(4)
N19 N -0.2406(4) 0.9561(2) 0.2369(3)
H211 H -0.2720 0.9444 0.2074
C200 C -0.2083(5) 0.9948(3) 0.2380(4)
H212 H -0.2158 1.0123 0.2060
C201 C -0.1621(5) 1.0067(3) 0.2917(3)
C202 C -0.1657(5) 0.9717(3) 0.3289(4)
O19 O -0.1361(4) 0.9687(2) 0.3810(3)
C203 C -0.1177(4) 1.0486(3) 0.3038(3)
N20 N -0.0648(4) 1.0483(2) 0.3623(3)
H213 H -0.0804 1.0467 0.3929
C204 C 0.0098(5) 1.0507(3) 0.3610(3)
H214 H 0.0519 1.0496 0.3937
C205 C 0.0204(4) 1.0550(3) 0.3067(3)
C206 C -0.0578(4) 1.0534(2) 0.2682(3)
O20 O -0.0776(3) 1.0547(2) 0.2151(2)
C207 C 0.0955(5) 1.0663(2) 0.2911(3)
N21 N 0.0992(4) 1.0439(2) 0.2385(3)
H215 H 0.0666 1.0471 0.2054
C208 C 0.1608(5) 1.0182(3) 0.2510(3)
H216 H 0.1737 1.0011 0.2235
C209 C 0.2048(4) 1.0178(2) 0.3061(3)
C210 C 0.1690(5) 1.0479(2) 0.3350(3)
O21 O 0.1883(3) 1.06006(19) 0.3847(2)
C211 C 0.2771(5) 0.9907(2) 0.3306(3)
N22 N 0.2772(5) 0.9762(3) 0.3878(3)
H217 H 0.2766 0.9930 0.4157
C212 C 0.2786(7) 0.9341(3) 0.3906(4)
H218 H 0.2833 0.9192 0.4245
C213 C 0.2724(6) 0.9141(3) 0.3402(3)
C214 C 0.2717(5) 0.9467(3) 0.3001(3)
O22 O 0.2679(4) 0.94181(19) 0.2490(2)
C215 C 0.2765(6) 0.8664(3) 0.3331(4)
N23 N 0.2462(6) 0.8531(3) 0.2746(3)
H219 H 0.2648 0.8613 0.2471
C216 C 0.1854(7) 0.8264(3) 0.2690(4)
H220 H 0.1563 0.8151 0.2343
C217 C 0.1700(7) 0.8170(3) 0.3213(4)
C218 C 0.2254(6) 0.8407(3) 0.3635(4)
O23 O 0.2329(4) 0.8428(2) 0.4153(2)
C219 C 0.1059(6) 0.7868(3) 0.3302(4)
N24 N 0.0595(6) 0.8078(3) 0.3640(3)
H221 H 0.0788 0.8193 0.3970
C220 C -0.0156(8) 0.8067(4) 0.3369(4)
H222 H -0.0551 0.8172 0.3524
C221 C -0.0313(7) 0.7888(4) 0.2837(4)
C222 C 0.0427(7) 0.7763(3) 0.2760(4)
O24 O 0.0565(5) 0.7597(2) 0.2324(3)
C223 C -0.2860(7) 0.9269(4) 0.3159(5)
H223 H -0.3190 0.9059 0.2910
H224 H -0.2668 0.9137 0.3531
C224 C -0.3371(7) 0.9649(4) 0.3214(5)
C225 C -0.3914(8) 0.9837(5) 0.2756(6)
H225 H -0.3992 0.9713 0.2398
C226 C -0.4343(9) 1.0200(6) 0.2808(7)
H226 H -0.4717 1.0313 0.2496
C227 C -0.4205(9) 1.0388(6) 0.3332(7)
H227 H -0.4476 1.0640 0.3363
C228 C -0.3686(8) 1.0227(6) 0.3820(7)
H228 H -0.3628 1.0348 0.4178
C229 C -0.3254(8) 0.9868(5) 0.3731(6)
H229 H -0.2859 0.9767 0.4040
C230 C 0.1002(5) 1.1158(3) 0.2844(4)
H230 H 0.0517 1.1251 0.2573
H231 H 0.1010 1.1288 0.3207
C231 C 0.1689(5) 1.1339(3) 0.2655(4)
C232 C 0.1665(7) 1.1335(3) 0.2078(5)
H232 H 0.1253 1.1188 0.1827
C233 C 0.2226(9) 1.1538(4) 0.1861(7)
H233 H 0.2178 1.1558 0.1472
C234 C 0.2857(10) 1.1705(6) 0.2263(8)
H234 H 0.3277 1.1816 0.2141
C235 C 0.2911(8) 1.1722(5) 0.2839(8)
H235 H 0.3335 1.1857 0.3093
C236 C 0.2324(7) 1.1534(4) 0.3024(6)
H236 H 0.2355 1.1537 0.3411
C237 C 0.3628(7) 0.8520(3) 0.3549(5)
H237 H 0.3930 0.8665 0.3323
H238 H 0.3827 0.8621 0.3938
C238 C 0.3803(8) 0.8046(3) 0.3543(5)
C239 C 0.3899(9) 0.7778(4) 0.4010(5)
H239 H 0.3800 0.7892 0.4337
C240 C 0.4135(10) 0.7350(4) 0.4021(6)
H240 H 0.4209 0.7186 0.4350
C241 C 0.4256(12) 0.7180(4) 0.3536(6)
H241 H 0.4423 0.6896 0.3537
C242 C 0.4132(12) 0.7424(4) 0.3038(6)
H242 H 0.4181 0.7299 0.2702
C243 C 0.3931(10) 0.7862(4) 0.3055(5)
H243 H 0.3882 0.8031 0.2732
C244 C -0.1104(8) 0.7805(4) 0.2421(5)
H244 H -0.1483 0.8017 0.2476
H245 H -0.1056 0.7834 0.2035
C245 C -0.1398(11) 0.7362(5) 0.2500(7)
C246 C -0.1898(15) 0.7302(7) 0.2772(8)
H246 H -0.2082 0.7549 0.2909
C247 C -0.2220(19) 0.6920(8) 0.2898(11)
H247 H -0.2643 0.6916 0.3061
C248 C -0.192(2) 0.6587(10) 0.2784(13)
H248 H -0.2025 0.6330 0.2945
C249 C -0.1415(17) 0.6581(8) 0.2414(12)
H249 H -0.1280 0.6326 0.2264
C250 C -0.1094(15) 0.7032(7) 0.2270(10)
H250 H -0.0737 0.7064 0.2051
C251 C -0.1709(5) 1.0878(3) 0.2952(4)
H251 H -0.2058 1.0862 0.2564
C252 C -0.1270(6) 1.1311(3) 0.3003(4)
H252 H -0.1646 1.1542 0.2943
H253 H -0.0977 1.1325 0.2723
H254 H -0.0912 1.1336 0.3377
C253 C -0.2247(6) 1.0872(4) 0.3364(5)
H255 H -0.2578 1.1123 0.3301
H256 H -0.1923 1.0871 0.3750
H257 H -0.2572 1.0619 0.3295
C254 C 0.3550(5) 1.0134(3) 0.3289(5)
H258 H 0.3570 1.0170 0.2893
C255 C 0.4207(8) 0.9803(5) 0.3607(8)
H259 H 0.4125 0.9532 0.3411
H260 H 0.4173 0.9764 0.3991
H261 H 0.4721 0.9913 0.3613
C256 C 0.3678(6) 1.0565(4) 0.3596(5)
H262 H 0.4170 1.0688 0.3569
H263 H 0.3695 1.0524 0.3989
H264 H 0.3251 1.0756 0.3422
C257 C 0.1427(7) 0.7458(3) 0.3624(5)
H265 H 0.1785 0.7550 0.3987
C258 C 0.1933(8) 0.7216(4) 0.3290(6)
H266 H 0.2318 0.7409 0.3212
H267 H 0.1596 0.7110 0.2938
H268 H 0.2198 0.6979 0.3514
C259 C 0.0803(8) 0.7162(3) 0.3763(5)
H269 H 0.1058 0.6913 0.3964
H270 H 0.0430 0.7074 0.3415
H271 H 0.0530 0.7314 0.3996
C260 C -0.1624(7) 0.8974(3) 0.2914(5)
H272 H -0.1345 0.8899 0.3302
H273 H -0.1963 0.8733 0.2754
C261 C -0.1026(7) 0.9030(4) 0.2580(5)
H274 H -0.1215 0.8971 0.2193
C262 C -0.0264(7) 0.9151(3) 0.2746(5)
C263 C 0.0216(8) 0.9203(4) 0.2336(6)
H275 H 0.0744 0.9288 0.2536
H276 H -0.0018 0.9419 0.2061
H277 H 0.0235 0.8935 0.2144
C264 C 0.0170(7) 0.9253(4) 0.3353(5)
H278 H 0.0708 0.9330 0.3374
H279 H 0.0166 0.9006 0.3588
H280 H -0.0086 0.9489 0.3486
C1 C 0.4418(5) 0.9825(3) 0.5820(4)
N1 N 0.4520(4) 1.0003(3) 0.6389(3)
H1 H 0.4848 0.9906 0.6692
C2 C 0.4036(5) 1.0333(3) 0.6373(3)
H2 H 0.4004 1.0485 0.6696
C3 C 0.3583(5) 1.0431(3) 0.5829(3)
C4 C 0.3826(5) 1.0142(3) 0.5465(4)
O1 O 0.3600(5) 1.0115(3) 0.4930(3)
C5 C 0.2957(5) 1.0776(3) 0.5679(3)
N2 N 0.2474(4) 1.0713(3) 0.5097(3)
H3 H 0.2640 1.0733 0.4796
C6 C 0.1731(5) 1.0619(3) 0.5103(4)
H4 H 0.1333 1.0564 0.4772
C7 C 0.1600(5) 1.0611(3) 0.5639(3)
C8 C 0.2348(5) 1.0704(3) 0.6023(3)
O2 O 0.2516(3) 1.0745(2) 0.6556(2)
C9 C 0.0818(5) 1.0573(3) 0.5771(3)
N3 N 0.0897(4) 1.0348(2) 0.6312(3)
H5 H 0.1196 1.0429 0.6636
C10 C 0.0439(5) 0.9998(3) 0.6230(3)
H6 H 0.0391 0.9821 0.6527
C11 C 0.0045(5) 0.9922(3) 0.5672(3)
C12 C 0.0249(5) 1.0270(3) 0.5360(3)
O3 O 0.0006(3) 1.03451(19) 0.4837(2)
C13 C -0.0484(5) 0.9539(3) 0.5458(3)
N4 N -0.0370(5) 0.9406(2) 0.4908(3)
H7 H -0.0475 0.9562 0.4605
C14 C -0.0085(6) 0.9013(3) 0.4943(3)
H8 H 0.0017 0.8868 0.4636
C15 C 0.0048(5) 0.8832(2) 0.5483(3)
C16 C -0.0204(5) 0.9142(2) 0.5813(3)
O4 O -0.0222(4) 0.91170(18) 0.6325(2)
C17 C 0.0225(5) 0.8369(2) 0.5640(3)
N5 N 0.0681(4) 0.8324(2) 0.6239(3)
H9 H 0.0530 0.8415 0.6526
C18 C 0.1372(6) 0.8120(3) 0.6272(3)
H10 H 0.1733 0.8048 0.6615
C19 C 0.1489(5) 0.8029(3) 0.5748(3)
C20 C 0.0804(6) 0.8172(3) 0.5337(3)
O5 O 0.0664(4) 0.8151(2) 0.4810(2)
C21 C 0.2206(5) 0.7805(3) 0.5652(3)
N6 N 0.2507(5) 0.8070(3) 0.5260(3)
H11 H 0.2238 0.8152 0.4927
C22 C 0.3265(7) 0.8164(4) 0.5502(4)
H12 H 0.3568 0.8338 0.5332
C23 C 0.3554(6) 0.7978(3) 0.6028(4)
C24 C 0.2916(6) 0.7775(3) 0.6164(3)
O6 O 0.2885(4) 0.7590(2) 0.6611(3)
C25 C 0.5183(6) 0.9849(4) 0.5632(5)
H13 H 0.5576 0.9668 0.5885
H14 H 0.5080 0.9727 0.5252
C26 C 0.5534(6) 1.0290(5) 0.5623(5)
C27 C 0.5917(7) 1.0511(5) 0.6126(6)
H15 H 0.6000 1.0372 0.6475
C28 C 0.6173(9) 1.0930(6) 0.6112(8)
H16 H 0.6398 1.1079 0.6448
C29 C 0.6088(8) 1.1121(6) 0.5596(8)
H17 H 0.6271 1.1401 0.5578
C30 C 0.5731(9) 1.0903(6) 0.5095(8)
H18 H 0.5685 1.1039 0.4747
C31 C 0.5446(8) 1.0493(5) 0.5099(6)
H19 H 0.5199 1.0353 0.4761
C32 C 0.0452(5) 1.1012(3) 0.5771(4)
H20 H 0.0362 1.1134 0.5393
H21 H 0.0831 1.1195 0.6031
C33 C -0.0320(6) 1.1024(3) 0.5937(5)
C34 C -0.0344(7) 1.1000(4) 0.6501(5)
H22 H 0.0134 1.0984 0.6781
C35 C -0.1029(8) 1.0999(4) 0.6671(7)
H23 H -0.1029 1.0996 0.7052
C36 C -0.1715(9) 1.1001(5) 0.6237(7)
H24 H -0.2188 1.0978 0.6339
C37 C -0.1768(8) 1.1033(5) 0.5662(7)
H25 H -0.2253 1.1051 0.5389
C38 C -0.1031(7) 1.1038(4) 0.5511(6)
H26 H -0.1028 1.1050 0.5130
C39 C -0.0552(6) 0.8116(3) 0.5521(4)
H27 H -0.0874 0.8243 0.5746
H28 H -0.0832 0.8158 0.5123
C40 C -0.0505(6) 0.7647(3) 0.5634(4)
C41 C -0.0568(8) 0.7370(3) 0.5168(5)
H29 H -0.0615 0.7480 0.4806
C42 C -0.0559(9) 0.6926(3) 0.5261(6)
H30 H -0.0631 0.6743 0.4950
C43 C -0.0449(9) 0.6751(4) 0.5793(6)
H31 H -0.0414 0.6454 0.5844
C44 C -0.0390(8) 0.7023(3) 0.6254(5)
H32 H -0.0336 0.6912 0.6616
C45 C -0.0411(7) 0.7464(3) 0.6164(4)
H33 H -0.0360 0.7645 0.6476
C46 C 0.4387(6) 0.7941(4) 0.6394(5)
H34 H 0.4384 0.7928 0.6792
H35 H 0.4684 0.8194 0.6343
C47 C 0.4797(8) 0.7534(5) 0.6242(5)
C48 C 0.5145(10) 0.7542(6) 0.5783(6)
H36 H 0.5169 0.7798 0.5592
C49 C 0.5454(12) 0.7166(7) 0.5617(7)
H37 H 0.5721 0.7176 0.5335
C50 C 0.5366(10) 0.6782(6) 0.5866(7)
H38 H 0.5518 0.6525 0.5733
C51 C 0.5043(10) 0.6792(6) 0.6321(7)
H39 H 0.5027 0.6540 0.6523
C52 C 0.4747(8) 0.7162(5) 0.6484(6)
H40 H 0.4500 0.7150 0.6777
C53 C 0.3300(6) 1.1238(3) 0.5779(5)
H41 H 0.3595 1.1265 0.6181
C54 C 0.2648(8) 1.1584(4) 0.5645(6)
H42 H 0.2281 1.1531 0.5868
H43 H 0.2373 1.1573 0.5247
H44 H 0.2883 1.1863 0.5737
C55 C 0.3864(7) 1.1334(5) 0.5416(6)
H45 H 0.4279 1.1122 0.5490
H46 H 0.4090 1.1614 0.5508
H47 H 0.3579 1.1324 0.5020
C56 C -0.1376(5) 0.9637(3) 0.5420(5)
H48 H -0.1416 0.9681 0.5809
C57 C -0.1873(7) 0.9234(4) 0.5180(7)
H49 H -0.1649 0.8987 0.5399
H50 H -0.1871 0.9192 0.4790
H51 H -0.2407 0.9275 0.5201
C58 C -0.1711(8) 1.0020(4) 0.5084(6)
H52 H -0.1398 1.0268 0.5236
H53 H -0.2245 1.0063 0.5104
H54 H -0.1707 0.9979 0.4694
C59 C 0.1974(6) 0.7358(3) 0.5362(4)
H55 H 0.1553 0.7409 0.5012
C60 C 0.1630(7) 0.7061(3) 0.5741(5)
H56 H 0.1206 0.7206 0.5845
H57 H 0.2037 0.6989 0.6079
H58 H 0.1433 0.6803 0.5535
C61 C 0.2660(6) 0.7139(3) 0.5187(4)
H59 H 0.2865 0.7332 0.4954
H60 H 0.2471 0.6882 0.4977
H61 H 0.3071 0.7067 0.5523
C62 C 0.4056(8) 0.9369(4) 0.5782(6)
H62 H 0.3819 0.9304 0.5383
H63 H 0.4484 0.9166 0.5921
C63 C 0.3442(9) 0.9292(5) 0.6100(8)
H64 H 0.3686 0.9222 0.6477
C64 C 0.2705(10) 0.9293(5) 0.6014(7)
C65 C 0.2142(9) 0.9280(5) 0.6359(8)
H65 H 0.1612 0.9288 0.6114
H66 H 0.2225 0.9524 0.6609
H67 H 0.2217 0.9021 0.6580
C66 C 0.2256(13) 0.9360(7) 0.5383(8)
H68 H 0.1696 0.9358 0.5343
H69 H 0.2387 0.9133 0.5157
H70 H 0.2404 0.9632 0.5255
loop_
_geom_bond_atom_site_label_1
_geom_bond_atom_site_label_2
_geom_bond_site_symmetry_1
_geom_bond_site_symmetry_2
C1 N1 1_555 1_555
N1 H1 1_555 1_555
C2 N1 1_555 1_555
H2 C2 1_555 1_555
C3 C2 1_555 1_555
C4 C1 1_555 1_555
O1 C4 1_555 1_555
C5 C3 1_555 1_555
N2 C5 1_555 1_555
H3 N2 1_555 1_555
C6 N2 1_555 1_555
H4 C6 1_555 1_555
C7 C6 1_555 1_555
C8 C5 1_555 1_555
O2 C8 1_555 1_555
C9 C7 1_555 1_555
N3 C9 1_555 1_555
H5 N3 1_555 1_555
C10 N3 1_555 1_555
H6 C10 1_555 1_555
C11 C10 1_555 1_555
C12 C9 1_555 1_555
O3 C12 1_555 1_555
C13 C11 1_555 1_555
N4 C13 1_555 1_555
H7 N4 1_555 1_555
C14 N4 1_555 1_555
H8 C14 1_555 1_555
C15 C14 1_555 1_555
C16 C13 1_555 1_555
O4 C16 1_555 1_555
C17 C15 1_555 1_555
N5 C17 1_555 1_555
H9 N5 1_555 1_555
C18 N5 1_555 1_555
H10 C18 1_555 1_555
C19 C18 1_555 1_555
C20 C17 1_555 1_555
O5 C20 1_555 1_555
C21 C19 1_555 1_555
N6 C21 1_555 1_555
H11 N6 1_555 1_555
C22 N6 1_555 1_555
H12 C22 1_555 1_555
C23 C22 1_555 1_555
C24 C21 1_555 1_555
O6 C24 1_555 1_555
C25 C1 1_555 1_555
H13 C25 1_555 1_555
H14 C25 1_555 1_555
C26 C25 1_555 1_555
C27 C26 1_555 1_555
H15 C27 1_555 1_555
C28 C27 1_555 1_555
H16 C28 1_555 1_555
C29 C28 1_555 1_555
H17 C29 1_555 1_555
C30 C29 1_555 1_555
H18 C30 1_555 1_555
C31 C26 1_555 1_555
H19 C31 1_555 1_555
C32 C9 1_555 1_555
H20 C32 1_555 1_555
H21 C32 1_555 1_555
C33 C32 1_555 1_555
C34 C33 1_555 1_555
H22 C34 1_555 1_555
C35 C34 1_555 1_555
H23 C35 1_555 1_555
C36 C35 1_555 1_555
H24 C36 1_555 1_555
C37 C36 1_555 1_555
H25 C37 1_555 1_555
C38 C33 1_555 1_555
H26 C38 1_555 1_555
C39 C17 1_555 1_555
H27 C39 1_555 1_555
H28 C39 1_555 1_555
C40 C39 1_555 1_555
C41 C40 1_555 1_555
H29 C41 1_555 1_555
C42 C41 1_555 1_555
H30 C42 1_555 1_555
C43 C42 1_555 1_555
H31 C43 1_555 1_555
C44 C43 1_555 1_555
H32 C44 1_555 1_555
C45 C40 1_555 1_555
H33 C45 1_555 1_555
C46 C23 1_555 1_555
H34 C46 1_555 1_555
H35 C46 1_555 1_555
C47 C46 1_555 1_555
C48 C47 1_555 1_555
H36 C48 1_555 1_555
C49 C48 1_555 1_555
H37 C49 1_555 1_555
C50 C49 1_555 1_555
H38 C50 1_555 1_555
C51 C50 1_555 1_555
H39 C51 1_555 1_555
C52 C47 1_555 1_555
H40 C52 1_555 1_555
C53 C5 1_555 1_555
H41 C53 1_555 1_555
C54 C53 1_555 1_555
H42 C54 1_555 1_555
H43 C54 1_555 1_555
H44 C54 1_555 1_555
C55 C53 1_555 1_555
H45 C55 1_555 1_555
H46 C55 1_555 1_555
H47 C55 1_555 1_555
C56 C13 1_555 1_555
H48 C56 1_555 1_555
C57 C56 1_555 1_555
H49 C57 1_555 1_555
H50 C57 1_555 1_555
H51 C57 1_555 1_555
C58 C56 1_555 1_555
H52 C58 1_555 1_555
H53 C58 1_555 1_555
H54 C58 1_555 1_555
C59 C21 1_555 1_555
H55 C59 1_555 1_555
C60 C59 1_555 1_555
H56 C60 1_555 1_555
H57 C60 1_555 1_555
H58 C60 1_555 1_555
C61 C59 1_555 1_555
H59 C61 1_555 1_555
H60 C61 1_555 1_555
H61 C61 1_555 1_555
C62 C1 1_555 1_555
H62 C62 1_555 1_555
H63 C62 1_555 1_555
C63 C62 1_555 1_555
H64 C63 1_555 1_555
C64 C63 1_555 1_555
C65 C64 1_555 1_555
H65 C65 1_555 1_555
H66 C65 1_555 1_555
H67 C65 1_555 1_555
C66 C64 1_555 1_555
H68 C66 1_555 1_555
H69 C66 1_555 1_555
H70 C66 1_555 1_555
C67 N7 1_555 1_555
N7 H71 1_555 1_555
C68 N7 1_555 1_555
H72 C68 1_555 1_555
C69 C68 1_555 1_555
C70 C67 1_555 1_555
O7 C70 1_555 1_555
C71 C69 1_555 1_555
N8 C71 1_555 1_555
H73 N8 1_555 1_555
C72 N8 1_555 1_555
H74 C72 1_555 1_555
C73 C72 1_555 1_555
C74 C71 1_555 1_555
O8 C74 1_555 1_555
C75 C73 1_555 1_555
N9 C75 1_555 1_555
H75 N9 1_555 1_555
C76 N9 1_555 1_555
H76 C76 1_555 1_555
C77 C76 1_555 1_555
C78 C75 1_555 1_555
O9 C78 1_555 1_555
C79 C77 1_555 1_555
N10 C79 1_555 1_555
H77 N10 1_555 1_555
C80 N10 1_555 1_555
H78 C80 1_555 1_555
C81 C80 1_555 1_555
C82 C79 1_555 1_555
O10 C82 1_555 1_555
C83 C81 1_555 1_555
N11 C83 1_555 1_555
H79 N11 1_555 1_555
C84 N11 1_555 1_555
H80 C84 1_555 1_555
C85 C84 1_555 1_555
C86 C83 1_555 1_555
O11 C86 1_555 1_555
C87 C85 1_555 1_555
N12 C87 1_555 1_555
H81 N12 1_555 1_555
C88 N12 1_555 1_555
H82 C88 1_555 1_555
C89 C88 1_555 1_555
C90 C87 1_555 1_555
O12 C90 1_555 1_555
C91 C67 1_555 1_555
H83 C91 1_555 1_555
H84 C91 1_555 1_555
C92 C91 1_555 1_555
C93 C92 1_555 1_555
H85 C93 1_555 1_555
C94 C93 1_555 1_555
H86 C94 1_555 1_555
C95 C94 1_555 1_555
H87 C95 1_555 1_555
C96 C95 1_555 1_555
H88 C96 1_555 1_555
C97 C92 1_555 1_555
H89 C97 1_555 1_555
C98 C75 1_555 1_555
H90 C98 1_555 1_555
H91 C98 1_555 1_555
C99 C98 1_555 1_555
C100 C99 1_555 1_555
H92 C100 1_555 1_555
C101 C100 1_555 1_555
H93 C101 1_555 1_555
C102 C101 1_555 1_555
H94 C102 1_555 1_555
C103 C102 1_555 1_555
H95 C103 1_555 1_555
C104 C99 1_555 1_555
H96 C104 1_555 1_555
C105 C83 1_555 1_555
H97 C105 1_555 1_555
H98 C105 1_555 1_555
C106 C105 1_555 1_555
C107 C106 1_555 1_555
H99 C107 1_555 1_555
C108 C107 1_555 1_555
H100 C108 1_555 1_555
C109 C108 1_555 1_555
H101 C109 1_555 1_555
C110 C109 1_555 1_555
H102 C110 1_555 1_555
C111 C106 1_555 1_555
H103 C111 1_555 1_555
C112 C89 1_555 1_555
H104 C112 1_555 1_555
H105 C112 1_555 1_555
C113 C112 1_555 1_555
C114 C113 1_555 1_555
H106 C114 1_555 1_555
C115 C114 1_555 1_555
H107 C115 1_555 1_555
C116 C115 1_555 1_555
H108 C116 1_555 1_555
C117 C116 1_555 1_555
H109 C117 1_555 1_555
C118 C113 1_555 1_555
H110 C118 1_555 1_555
C119 C71 1_555 1_555
H111 C119 1_555 1_555
C120 C119 1_555 1_555
H112 C120 1_555 1_555
H113 C120 1_555 1_555
H114 C120 1_555 1_555
C121 C119 1_555 1_555
H115 C121 1_555 1_555
H116 C121 1_555 1_555
H117 C121 1_555 1_555
C122 C79 1_555 1_555
H118 C122 1_555 1_555
C123 C122 1_555 1_555
H119 C123 1_555 1_555
H120 C123 1_555 1_555
H121 C123 1_555 1_555
C124 C122 1_555 1_555
H122 C124 1_555 1_555
H123 C124 1_555 1_555
H124 C124 1_555 1_555
C125 C87 1_555 1_555
H125 C125 1_555 1_555
C126 C125 1_555 1_555
H126 C126 1_555 1_555
H127 C126 1_555 1_555
H128 C126 1_555 1_555
C127 C125 1_555 1_555
H129 C127 1_555 1_555
H130 C127 1_555 1_555
H131 C127 1_555 1_555
C128 C67 1_555 1_555
H132 C128 1_555 1_555
H133 C128 1_555 1_555
C129 C128 1_555 1_555
H134 C129 1_555 1_555
C130 C129 1_555 1_555
C131 C130 1_555 1_555
H135 C131 1_555 1_555
H136 C131 1_555 1_555
H137 C131 1_555 1_555
C132 C130 1_555 1_555
H138 C132 1_555 1_555
H139 C132 1_555 1_555
H140 C132 1_555 1_555
C133 N13 1_555 1_555
N13 H141 1_555 1_555
C134 N13 1_555 1_555
H142 C134 1_555 1_555
C135 C134 1_555 1_555
C136 C133 1_555 1_555
O13 C136 1_555 1_555
C137 C135 1_555 1_555
N14 C137 1_555 1_555
H143 N14 1_555 1_555
C138 N14 1_555 1_555
H144 C138 1_555 1_555
C139 C138 1_555 1_555
C140 C137 1_555 1_555
O14 C140 1_555 1_555
C141 C139 1_555 1_555
N15 C141 1_555 1_555
H145 N15 1_555 1_555
C142 N15 1_555 1_555
H146 C142 1_555 1_555
C143 C142 1_555 1_555
C144 C141 1_555 1_555
O15 C144 1_555 1_555
C145 C143 1_555 1_555
N16 C145 1_555 1_555
H147 N16 1_555 1_555
C146 N16 1_555 1_555
H148 C146 1_555 1_555
C147 C146 1_555 1_555
C148 C145 1_555 1_555
O16 C148 1_555 1_555
C149 C147 1_555 1_555
N17 C149 1_555 1_555
H149 N17 1_555 1_555
C150 N17 1_555 1_555
H150 C150 1_555 1_555
C151 C150 1_555 1_555
C152 C149 1_555 1_555
O17 C152 1_555 1_555
C153 C151 1_555 1_555
N18 C153 1_555 1_555
H151 N18 1_555 1_555
C154 N18 1_555 1_555
H152 C154 1_555 1_555
C155 C154 1_555 1_555
C156 C153 1_555 1_555
O18 C156 1_555 1_555
C157 C133 1_555 1_555
H153 C157 1_555 1_555
H154 C157 1_555 1_555
C158 C157 1_555 1_555
C159 C158 1_555 1_555
H155 C159 1_555 1_555
C160 C159 1_555 1_555
H156 C160 1_555 1_555
C161 C160 1_555 1_555
H157 C161 1_555 1_555
C162 C161 1_555 1_555
H158 C162 1_555 1_555
C163 C158 1_555 1_555
H159 C163 1_555 1_555
C164 C141 1_555 1_555
H160 C164 1_555 1_555
H161 C164 1_555 1_555
C165 C164 1_555 1_555
C166 C165 1_555 1_555
H162 C166 1_555 1_555
C167 C166 1_555 1_555
H163 C167 1_555 1_555
C168 C167 1_555 1_555
H164 C168 1_555 1_555
C169 C168 1_555 1_555
H165 C169 1_555 1_555
C170 C165 1_555 1_555
H166 C170 1_555 1_555
C171 C149 1_555 1_555
H167 C171 1_555 1_555
H168 C171 1_555 1_555
C172 C171 1_555 1_555
C173 C172 1_555 1_555
H169 C173 1_555 1_555
C174 C173 1_555 1_555
H170 C174 1_555 1_555
C175 C174 1_555 1_555
H171 C175 1_555 1_555
C176 C175 1_555 1_555
H172 C176 1_555 1_555
C177 C172 1_555 1_555
H173 C177 1_555 1_555
C178 C155 1_555 1_555
H174 C178 1_555 1_555
H175 C178 1_555 1_555
C179 C178 1_555 1_555
C180 C179 1_555 1_555
H176 C180 1_555 1_555
C181 C180 1_555 1_555
H177 C181 1_555 1_555
C182 C181 1_555 1_555
H178 C182 1_555 1_555
C183 C182 1_555 1_555
H179 C183 1_555 1_555
C184 C179 1_555 1_555
H180 C184 1_555 1_555
C185 C137 1_555 1_555
H181 C185 1_555 1_555
C186 C185 1_555 1_555
H182 C186 1_555 1_555
H183 C186 1_555 1_555
H184 C186 1_555 1_555
C187 C185 1_555 1_555
H185 C187 1_555 1_555
H186 C187 1_555 1_555
H187 C187 1_555 1_555
C188 C145 1_555 1_555
H188 C188 1_555 1_555
C189 C188 1_555 1_555
H189 C189 1_555 1_555
H190 C189 1_555 1_555
H191 C189 1_555 1_555
C190 C188 1_555 1_555
H192 C190 1_555 1_555
H193 C190 1_555 1_555
H194 C190 1_555 1_555
C191 C153 1_555 1_555
H195 C191 1_555 1_555
C192 C191 1_555 1_555
H196 C192 1_555 1_555
H197 C192 1_555 1_555
H198 C192 1_555 1_555
C193 C191 1_555 1_555
H199 C193 1_555 1_555
H200 C193 1_555 1_555
H201 C193 1_555 1_555
C194 C133 1_555 1_555
H202 C194 1_555 1_555
H203 C194 1_555 1_555
C195 C194 1_555 1_555
H204 C195 1_555 1_555
C196 C195 1_555 1_555
C197 C196 1_555 1_555
H205 C197 1_555 1_555
H206 C197 1_555 1_555
H207 C197 1_555 1_555
C198 C196 1_555 1_555
H208 C198 1_555 1_555
H209 C198 1_555 1_555
H210 C198 1_555 1_555
C199 N19 1_555 1_555
N19 H211 1_555 1_555
C200 N19 1_555 1_555
H212 C200 1_555 1_555
C201 C200 1_555 1_555
C202 C199 1_555 1_555
O19 C202 1_555 1_555
C203 C201 1_555 1_555
N20 C203 1_555 1_555
H213 N20 1_555 1_555
C204 N20 1_555 1_555
H214 C204 1_555 1_555
C205 C204 1_555 1_555
C206 C203 1_555 1_555
O20 C206 1_555 1_555
C207 C205 1_555 1_555
N21 C207 1_555 1_555
H215 N21 1_555 1_555
C208 N21 1_555 1_555
H216 C208 1_555 1_555
C209 C208 1_555 1_555
C210 C207 1_555 1_555
O21 C210 1_555 1_555
C211 C209 1_555 1_555
N22 C211 1_555 1_555
H217 N22 1_555 1_555
C212 N22 1_555 1_555
H218 C212 1_555 1_555
C213 C212 1_555 1_555
C214 C211 1_555 1_555
O22 C214 1_555 1_555
C215 C213 1_555 1_555
N23 C215 1_555 1_555
H219 N23 1_555 1_555
C216 N23 1_555 1_555
H220 C216 1_555 1_555
C217 C216 1_555 1_555
C218 C215 1_555 1_555
O23 C218 1_555 1_555
C219 C217 1_555 1_555
N24 C219 1_555 1_555
H221 N24 1_555 1_555
C220 N24 1_555 1_555
H222 C220 1_555 1_555
C221 C220 1_555 1_555
C222 C219 1_555 1_555
O24 C222 1_555 1_555
C223 C199 1_555 1_555
H223 C223 1_555 1_555
H224 C223 1_555 1_555
C224 C223 1_555 1_555
C225 C224 1_555 1_555
H225 C225 1_555 1_555
C226 C225 1_555 1_555
H226 C226 1_555 1_555
C227 C226 1_555 1_555
H227 C227 1_555 1_555
C228 C227 1_555 1_555
H228 C228 1_555 1_555
C229 C224 1_555 1_555
H229 C229 1_555 1_555
C230 C207 1_555 1_555
H230 C230 1_555 1_555
H231 C230 1_555 1_555
C231 C230 1_555 1_555
C232 C231 1_555 1_555
H232 C232 1_555 1_555
C233 C232 1_555 1_555
H233 C233 1_555 1_555
C234 C233 1_555 1_555
H234 C234 1_555 1_555
C235 C234 1_555 1_555
H235 C235 1_555 1_555
C236 C231 1_555 1_555
H236 C236 1_555 1_555
C237 C215 1_555 1_555
H237 C237 1_555 1_555
H238 C237 1_555 1_555
C238 C237 1_555 1_555
C239 C238 1_555 1_555
H239 C239 1_555 1_555
C240 C239 1_555 1_555
H240 C240 1_555 1_555
C241 C240 1_555 1_555
H241 C241 1_555 1_555
C242 C241 1_555 1_555
H242 C242 1_555 1_555
C243 C238 1_555 1_555
H243 C243 1_555 1_555
C244 C221 1_555 1_555
H244 C244 1_555 1_555
H245 C244 1_555 1_555
C245 C244 1_555 1_555
C246 C245 1_555 1_555
H246 C246 1_555 1_555
C247 C246 1_555 1_555
H247 C247 1_555 1_555
C248 C247 1_555 1_555
H248 C248 1_555 1_555
C249 C248 1_555 1_555
H249 C249 1_555 1_555
C250 C245 1_555 1_555
H250 C250 1_555 1_555
C251 C203 1_555 1_555
H251 C251 1_555 1_555
C252 C251 1_555 1_555
H252 C252 1_555 1_555
H253 C252 1_555 1_555
H254 C252 1_555 1_555
C253 C251 1_555 1_555
H255 C253 1_555 1_555
H256 C253 1_555 1_555
H257 C253 1_555 1_555
C254 C211 1_555 1_555
H258 C254 1_555 1_555
C255 C254 1_555 1_555
H259 C255 1_555 1_555
H260 C255 1_555 1_555
H261 C255 1_555 1_555
C256 C254 1_555 1_555
H262 C256 1_555 1_555
H263 C256 1_555 1_555
H264 C256 1_555 1_555
C257 C219 1_555 1_555
H265 C257 1_555 1_555
C258 C257 1_555 1_555
H266 C258 1_555 1_555
H267 C258 1_555 1_555
H268 C258 1_555 1_555
C259 C257 1_555 1_555
H269 C259 1_555 1_555
H270 C259 1_555 1_555
H271 C259 1_555 1_555
C260 C199 1_555 1_555
H272 C260 1_555 1_555
H273 C260 1_555 1_555
C261 C260 1_555 1_555
H274 C261 1_555 1_555
C262 C261 1_555 1_555
C263 C262 1_555 1_555
H275 C263 1_555 1_555
H276 C263 1_555 1_555
H277 C263 1_555 1_555
C264 C262 1_555 1_555
H278 C264 1_555 1_555
H279 C264 1_555 1_555
H280 C264 1_555 1_555
C3 C4 1_555 1_555
C7 C8 1_555 1_555
C11 C12 1_555 1_555
C15 C16 1_555 1_555
C19 C20 1_555 1_555
C23 C24 1_555 1_555
C30 C31 1_555 1_555
C37 C38 1_555 1_555
C44 C45 1_555 1_555
C51 C52 1_555 1_555
C69 C70 1_555 1_555
C73 C74 1_555 1_555
C77 C78 1_555 1_555
C81 C82 1_555 1_555
C85 C86 1_555 1_555
C89 C90 1_555 1_555
C96 C97 1_555 1_555
C103 C104 1_555 1_555
C110 C111 1_555 1_555
C117 C118 1_555 1_555
C135 C136 1_555 1_555
C139 C140 1_555 1_555
C143 C144 1_555 1_555
C147 C148 1_555 1_555
C151 C152 1_555 1_555
C155 C156 1_555 1_555
C162 C163 1_555 1_555
C169 C170 1_555 1_555
C176 C177 1_555 1_555
C183 C184 1_555 1_555
C201 C202 1_555 1_555
C205 C206 1_555 1_555
C209 C210 1_555 1_555
C213 C214 1_555 1_555
C217 C218 1_555 1_555
C221 C222 1_555 1_555
C228 C229 1_555 1_555
C235 C236 1_555 1_555
C242 C243 1_555 1_555
C249 C250 1_555 1_555

#END
