
#######################################################################
#
#                 Cambridge Crystallographic Data Centre
#                                CCDC 
#
#######################################################################
#
# If this CIF has been generated from an entry in the Cambridge 
# Structural Database, then it will include bibliographic, chemical, 
# crystal, experimental, refinement or atomic coordinate data resulting 
# from the CCDC's data processing and validation procedures.
#
#######################################################################

data_ALECOK
_chemical_formula_moiety         'C16 H23 N1 O2'
_chemical_name_systematic        
4-Hydroxy-2-(hydroxy(phenyl)methyl)-2,5,5-trimethylhexanenitrile
_symmetry_cell_setting           monoclinic
_symmetry_space_group_name_H-M   'C 2/c'
_symmetry_Int_Tables_number      15
_space_group_name_Hall           '-C 2yn'
loop_
_symmetry_equiv_pos_site_id
_symmetry_equiv_pos_as_xyz
1 x,y,z
2 -x,y,1/2-z
3 1/2+x,1/2+y,z
4 1/2-x,1/2+y,1/2-z
5 -x,-y,-z
6 x,-y,1/2+z
7 1/2-x,1/2-y,-z
8 1/2+x,1/2-y,1/2+z
_cell_length_a                   25.123(3)
_cell_length_b                   6.4870(12)
_cell_length_c                   27.418(4)
_cell_angle_alpha                90
_cell_angle_beta                 134.853(8)
_cell_angle_gamma                90
_cell_volume                     3167.73
_exptl_crystal_colour            colorless
_exptl_crystal_description       needle
_cell_formula_units_Z            8
loop_
_atom_site_label
_atom_site_type_symbol
_atom_site_fract_x
_atom_site_fract_y
_atom_site_fract_z
O1 O 0.1769(2) 0.1969(6) 0.23839(17)
H1 H 0.1756 0.1713 0.2669
O2 O 0.2510(2) 0.0626(7) 0.2099(2)
H2 H 0.2326 0.0913 0.2246
N1 N 0.0858(3) -0.1846(9) 0.0622(3)
C1 C 0.2886(5) -0.0887(13) 0.0852(4)
H3 H 0.2873 -0.2211 0.0713
C2 C -0.0361(3) 0.1890(11) 0.0990(3)
H4 H -0.0371 0.0429 0.0929
H5 H -0.0468 0.2595 0.0621
H6 H -0.0731 0.2248 0.0991
C3 C 0.3253(5) 0.2605(17) 0.1033(5)
H7 H 0.3491 0.3658 0.1016
C4 C 0.2936(4) 0.2988(12) 0.1273(4)
H8 H 0.2960 0.4316 0.1415
C5 C 0.2564(4) -0.0491(11) 0.1095(3)
H9 H 0.2331 -0.1552 0.1115
C6 C 0.2587(3) 0.1489(10) 0.1310(3)
C7 C 0.2217(3) 0.1976(9) 0.1548(3)
H10 H 0.2373 0.3373 0.1739
C8 C 0.1349(3) 0.1978(8) 0.0974(3)
C9 C 0.0983(3) 0.2978(8) 0.1191(3)
H11 H 0.1214 0.4319 0.1385
H12 H 0.0458 0.3216 0.0776
C10 C 0.1016(3) 0.1854(9) 0.1699(3)
H13 H 0.0920 0.0396 0.1567
C11 C 0.0423(3) 0.2529(9) 0.1682(3)
C12 C 0.0435(4) 0.4866(10) 0.1773(3)
H14 H 0.0073 0.5221 0.1784
H15 H 0.0313 0.5562 0.1396
H16 H 0.0926 0.5279 0.2197
C13 C 0.1078(3) -0.0200(10) 0.0774(3)
C14 C 0.3218(5) 0.0655(18) 0.0816(4)
H17 H 0.3424 0.0396 0.0644
C15 C 0.1064(3) 0.3128(8) 0.0338(3)
H18 H 0.1245 0.2453 0.0166
H19 H 0.1244 0.4522 0.0461
H20 H 0.0525 0.3129 -0.0011
C16 C 0.0550(4) 0.1438(12) 0.2247(4)
H21 H 0.0614 -0.0012 0.2231
H22 H 0.0124 0.1654 0.2180
H23 H 0.0992 0.1981 0.2686
loop_
_geom_bond_atom_site_label_1
_geom_bond_atom_site_label_2
_geom_bond_site_symmetry_1
_geom_bond_site_symmetry_2
O1 H1 1_555 1_555
O2 H2 1_555 1_555
N1 C13 1_555 1_555
C1 H3 1_555 1_555
C2 H4 1_555 1_555
H5 C2 1_555 1_555
H6 C2 1_555 1_555
C3 H7 1_555 1_555
C4 C3 1_555 1_555
H8 C4 1_555 1_555
C5 C1 1_555 1_555
H9 C5 1_555 1_555
C6 C4 1_555 1_555
C7 O2 1_555 1_555
H10 C7 1_555 1_555
C8 C7 1_555 1_555
C9 C8 1_555 1_555
H11 C9 1_555 1_555
H12 C9 1_555 1_555
C10 O1 1_555 1_555
H13 C10 1_555 1_555
C11 C2 1_555 1_555
C12 C11 1_555 1_555
H14 C12 1_555 1_555
H15 C12 1_555 1_555
H16 C12 1_555 1_555
C13 C8 1_555 1_555
C14 C1 1_555 1_555
H17 C14 1_555 1_555
C15 C8 1_555 1_555
H18 C15 1_555 1_555
H19 C15 1_555 1_555
H20 C15 1_555 1_555
C16 C11 1_555 1_555
H21 C16 1_555 1_555
H22 C16 1_555 1_555
H23 C16 1_555 1_555
C3 C14 1_555 1_555
C5 C6 1_555 1_555
C6 C7 1_555 1_555
C9 C10 1_555 1_555
C10 C11 1_555 1_555

#END
