
#######################################################################
#
#                 Cambridge Crystallographic Data Centre
#                                CCDC 
#
#######################################################################
#
# If this CIF has been generated from an entry in the Cambridge 
# Structural Database, then it will include bibliographic, chemical, 
# crystal, experimental, refinement or atomic coordinate data resulting 
# from the CCDC's data processing and validation procedures.
#
#######################################################################

data_ALECIE
_chemical_formula_moiety         'C16 H23 N1 O2'
_chemical_name_systematic        
(2R*,4R*)-4-hydroxy-2-((R*)-hydroxy(phenyl)methyl)-2,5,5-trimethylhexanenitrile
_symmetry_cell_setting           monoclinic
_symmetry_space_group_name_H-M   'P 21/c'
_symmetry_Int_Tables_number      14
_space_group_name_Hall           '-P 2ybc'
loop_
_symmetry_equiv_pos_site_id
_symmetry_equiv_pos_as_xyz
1 x,y,z
2 -x,1/2+y,1/2-z
3 -x,-y,-z
4 x,1/2-y,1/2+z
_cell_length_a                   6.1272(3)
_cell_length_b                   11.7615(6)
_cell_length_c                   21.1408(12)
_cell_angle_alpha                90
_cell_angle_beta                 90.364(4)
_cell_angle_gamma                90
_cell_volume                     1523.48
_exptl_crystal_description       plate
_chemical_melting_point          '427-430 K'
_cell_formula_units_Z            4
_exptl_crystal_recrystallization_method 'hexanes/ethyl acetate'
loop_
_atom_site_label
_atom_site_type_symbol
_atom_site_fract_x
_atom_site_fract_y
_atom_site_fract_z
C1 C 0.1738(4) 0.84702(18) 0.32300(12)
H1 H 0.3269 0.8326 0.3126
C2 C 0.1056(3) 0.96463(18) 0.29360(11)
C3 C 0.1203(4) 0.96550(19) 0.22053(11)
H2 H -0.0057 0.9252 0.2039
H3 H 0.1082 1.0438 0.2065
C4 C 0.3230(4) 0.91465(18) 0.19035(11)
H4 H 0.4458 0.9239 0.2198
C5 C 0.3859(4) 0.9689(2) 0.12669(12)
C6 C 0.1891(4) 0.9774(2) 0.08186(12)
H5 H 0.2367 1.0029 0.0411
H6 H 0.0855 1.0305 0.0986
H7 H 0.1218 0.9040 0.0778
C7 C 0.2573(4) 1.0529(2) 0.31704(12)
C8 C -0.1270(4) 0.9971(2) 0.31294(12)
H8 H -0.1311 1.0104 0.3577
H9 H -0.2252 0.9364 0.3022
H10 H -0.1704 1.0650 0.2910
C9 C 0.4812(5) 1.0870(2) 0.13981(15)
H11 H 0.6114 1.0796 0.1650
H12 H 0.3762 1.1320 0.1622
H13 H 0.5159 1.1234 0.1005
C10 C 0.5625(4) 0.8957(2) 0.09543(14)
H14 H 0.6243 0.9365 0.0605
H15 H 0.4988 0.8262 0.0804
H16 H 0.6750 0.8788 0.1258
C11 C 0.1499(4) 0.84215(19) 0.39382(12)
C12 C 0.3169(5) 0.8771(2) 0.43339(14)
H17 H 0.4470 0.9028 0.4161
C13 C 0.2937(6) 0.8746(3) 0.49852(17)
H18 H 0.4066 0.8998 0.5245
C14 C 0.1032(7) 0.8348(3) 0.52470(16)
H19 H 0.0877 0.8319 0.5684
C15 C -0.0624(6) 0.7995(3) 0.48613(17)
H20 H -0.1916 0.7730 0.5037
C16 C -0.0402(5) 0.8029(2) 0.42148(14)
H21 H -0.1548 0.7784 0.3959
N1 N 0.3741(4) 1.1237(2) 0.33270(11)
O1 O 0.0442(3) 0.76079(13) 0.29469(8)
H22 H 0.0819 0.7517 0.2579
O2 O 0.2761(3) 0.79479(13) 0.18454(8)
H23 H 0.3898 0.7599 0.1782
loop_
_geom_bond_atom_site_label_1
_geom_bond_atom_site_label_2
_geom_bond_site_symmetry_1
_geom_bond_site_symmetry_2
C1 H1 1_555 1_555
C2 C1 1_555 1_555
C3 C2 1_555 1_555
H2 C3 1_555 1_555
H3 C3 1_555 1_555
C4 C3 1_555 1_555
H4 C4 1_555 1_555
C5 C4 1_555 1_555
C6 C5 1_555 1_555
H5 C6 1_555 1_555
H6 C6 1_555 1_555
H7 C6 1_555 1_555
C7 C2 1_555 1_555
C8 C2 1_555 1_555
H8 C8 1_555 1_555
H9 C8 1_555 1_555
H10 C8 1_555 1_555
C9 C5 1_555 1_555
H11 C9 1_555 1_555
H12 C9 1_555 1_555
H13 C9 1_555 1_555
C10 C5 1_555 1_555
H14 C10 1_555 1_555
H15 C10 1_555 1_555
H16 C10 1_555 1_555
C11 C1 1_555 1_555
C12 C11 1_555 1_555
H17 C12 1_555 1_555
C13 C12 1_555 1_555
H18 C13 1_555 1_555
C14 C13 1_555 1_555
H19 C14 1_555 1_555
C15 C14 1_555 1_555
H20 C15 1_555 1_555
C16 C11 1_555 1_555
H21 C16 1_555 1_555
N1 C7 1_555 1_555
O1 C1 1_555 1_555
H22 O1 1_555 1_555
O2 C4 1_555 1_555
H23 O2 1_555 1_555
C15 C16 1_555 1_555

#END
