
#######################################################################
#
#                 Cambridge Crystallographic Data Centre
#                                CCDC 
#
#######################################################################
#
# If this CIF has been generated from an entry in the Cambridge 
# Structural Database, then it will include bibliographic, chemical, 
# crystal, experimental, refinement or atomic coordinate data resulting 
# from the CCDC's data processing and validation procedures.
#
#######################################################################

data_ALEDEB
_chemical_formula_moiety         'C13 H25 N1 O2'
_chemical_name_systematic        
4-Hydroxy-2-(1-hydroxy-2-methylpropyl)-2,5,5-trimethylhexanenitrile
_symmetry_cell_setting           triclinic
_symmetry_space_group_name_H-M   'P -1'
_symmetry_Int_Tables_number      2
_space_group_name_Hall           '-P 1'
loop_
_symmetry_equiv_pos_site_id
_symmetry_equiv_pos_as_xyz
1 x,y,z
2 -x,-y,-z
_cell_length_a                   6.4938(5)
_cell_length_b                   10.5697(8)
_cell_length_c                   20.8128(15)
_cell_angle_alpha                91.968(5)
_cell_angle_beta                 91.780(5)
_cell_angle_gamma                99.199(3)
_cell_volume                     1408.37
_exptl_crystal_colour            colorless
_exptl_crystal_description       needle
_cell_formula_units_Z            4
loop_
_atom_site_label
_atom_site_type_symbol
_atom_site_fract_x
_atom_site_fract_y
_atom_site_fract_z
C1 C 0.1453(8) -0.1438(4) 0.3285(2)
C2 C 0.3920(7) 0.1847(5) 0.4205(2)
C3 C 0.2299(7) 0.0736(4) 0.3907(2)
H1 H 0.1791 0.0196 0.4255
H2 H 0.1126 0.1108 0.3742
C4 C 0.2908(7) -0.0142(4) 0.3371(2)
H3 H 0.4287 -0.0334 0.3498
C5 C 0.3035(7) 0.2310(4) 0.4832(2)
H4 H 0.2658 0.1594 0.5099
H5 H 0.1822 0.2690 0.4732
H6 H 0.4072 0.2934 0.5054
C6 C 0.1664(8) -0.2223(4) 0.3882(2)
H7 H 0.3108 -0.2275 0.3967
H8 H 0.0889 -0.3071 0.3808
H9 H 0.1125 -0.1814 0.4245
C7 C 0.2135(7) -0.2186(4) 0.2706(2)
H10 H 0.1904 -0.1751 0.2319
H11 H 0.1335 -0.3034 0.2677
H12 H 0.3591 -0.2242 0.2759
C8 C -0.0831(7) -0.1268(4) 0.3179(2)
H13 H -0.1294 -0.0867 0.3557
H14 H -0.1679 -0.2092 0.3095
H15 H -0.0952 -0.0739 0.2818
C9 C 0.4474(7) 0.2955(5) 0.3744(2)
H16 H 0.3147 0.3121 0.3554
C10 C 0.5605(8) 0.4240(5) 0.4026(2)
H17 H 0.4752 0.4514 0.4368
C11 C 0.7760(8) 0.4207(4) 0.4320(2)
H18 H 0.8612 0.3889 0.4003
H19 H 0.7646 0.3654 0.4678
H20 H 0.8386 0.5057 0.4465
C12 C 0.5724(9) 0.5242(5) 0.3509(3)
H21 H 0.6280 0.6072 0.3698
H22 H 0.4351 0.5256 0.3327
H23 H 0.6616 0.5027 0.3177
O1 O 0.3153(4) 0.0501(3) 0.27704(14)
H24 H 0.2009 0.0620 0.2630
O2 O 0.5661(5) 0.2603(3) 0.32239(14)
H25 H 0.5093 0.1913 0.3060
N1 N 0.7240(8) 0.0831(4) 0.4503(2)
C13 C 0.5824(10) 0.1294(5) 0.4367(2)
C14 C 0.1159(7) -0.2846(5) 0.8143(2)
H26 H 0.2451 -0.3206 0.8102
C15 C 0.5185(7) -0.1475(4) 0.8809(2)
H27 H 0.6150 -0.1062 0.9139
H28 H 0.5842 -0.1423 0.8402
H29 H 0.4769 -0.2360 0.8905
C16 C 0.0037(8) -0.3460(4) 0.8712(2)
H30 H 0.0974 -0.3361 0.9083
H31 H -0.0423 -0.4356 0.8612
H32 H -0.1147 -0.3051 0.8800
C17 C -0.0158(7) -0.3212(4) 0.7522(2)
H33 H -0.0327 -0.4123 0.7442
H34 H 0.0530 -0.2784 0.7170
H35 H -0.1504 -0.2958 0.7566
O3 O -0.0115(5) -0.0846(3) 0.81873(13)
H36 H 0.0041 -0.0184 0.8413
C18 C 0.2583(8) 0.3790(4) 0.9502(2)
H37 H 0.1110 0.3641 0.9400
H38 H 0.3114 0.4688 0.9478
H39 H 0.2831 0.3521 0.9929
C19 C 0.6036(8) 0.3320(4) 0.9185(2)
H40 H 0.6487 0.4232 0.9200
H41 H 0.6773 0.2928 0.8860
H42 H 0.6322 0.2984 0.9595
C20 C 0.3254(8) 0.3448(4) 0.8340(2)
H43 H 0.1779 0.3278 0.8242
H44 H 0.3960 0.2979 0.8037
H45 H 0.3752 0.4349 0.8314
O4 O 0.0682(5) 0.1311(3) 0.89278(12)
H46 H 0.0021 0.1302 0.9257
C21 C 0.2890(8) 0.1600(5) 0.9092(2)
H47 H 0.3073 0.1416 0.9546
C22 C 0.3688(7) 0.3027(5) 0.9023(2)
C23 C 0.3956(7) 0.0670(4) 0.8704(2)
H48 H 0.5440 0.0863 0.8812
H49 H 0.3776 0.0846 0.8253
C24 C 0.3249(7) -0.0805(4) 0.8779(2)
C25 C 0.1769(7) -0.1382(4) 0.8208(2)
H50 H 0.2495 -0.1122 0.7817
N2 N 0.1522(7) -0.1113(4) 0.9899(2)
C26 C 0.2228(8) -0.0994(4) 0.9401(3)
loop_
_geom_bond_atom_site_label_1
_geom_bond_atom_site_label_2
_geom_bond_site_symmetry_1
_geom_bond_site_symmetry_2
C1 C4 1_555 1_555
C2 C3 1_555 1_555
C3 H1 1_555 1_555
H2 C3 1_555 1_555
C4 C3 1_555 1_555
H3 C4 1_555 1_555
C5 C2 1_555 1_555
H4 C5 1_555 1_555
H5 C5 1_555 1_555
H6 C5 1_555 1_555
C6 C1 1_555 1_555
H7 C6 1_555 1_555
H8 C6 1_555 1_555
H9 C6 1_555 1_555
C7 C1 1_555 1_555
H10 C7 1_555 1_555
H11 C7 1_555 1_555
H12 C7 1_555 1_555
C8 C1 1_555 1_555
H13 C8 1_555 1_555
H14 C8 1_555 1_555
H15 C8 1_555 1_555
C9 C2 1_555 1_555
H16 C9 1_555 1_555
C10 C9 1_555 1_555
H17 C10 1_555 1_555
C11 C10 1_555 1_555
H18 C11 1_555 1_555
H19 C11 1_555 1_555
H20 C11 1_555 1_555
C12 C10 1_555 1_555
H21 C12 1_555 1_555
H22 C12 1_555 1_555
H23 C12 1_555 1_555
O1 C4 1_555 1_555
H24 O1 1_555 1_555
O2 C9 1_555 1_555
H25 O2 1_555 1_555
N1 C13 1_555 1_555
C13 C2 1_555 1_555
C14 H26 1_555 1_555
C15 H27 1_555 1_555
H28 C15 1_555 1_555
H29 C15 1_555 1_555
C16 C14 1_555 1_555
H30 C16 1_555 1_555
H31 C16 1_555 1_555
H32 C16 1_555 1_555
C17 C14 1_555 1_555
H33 C17 1_555 1_555
H34 C17 1_555 1_555
H35 C17 1_555 1_555
O3 H36 1_555 1_555
C18 H37 1_555 1_555
H38 C18 1_555 1_555
H39 C18 1_555 1_555
C19 H40 1_555 1_555
H41 C19 1_555 1_555
H42 C19 1_555 1_555
C20 H43 1_555 1_555
H44 C20 1_555 1_555
H45 C20 1_555 1_555
O4 H46 1_555 1_555
C21 O4 1_555 1_555
H47 C21 1_555 1_555
C22 C18 1_555 1_555
C23 C21 1_555 1_555
H48 C23 1_555 1_555
H49 C23 1_555 1_555
C24 C15 1_555 1_555
C25 C14 1_555 1_555
H50 C25 1_555 1_555
N2 C26 1_555 1_555
C26 C24 1_555 1_555
O3 C25 1_555 1_555
C19 C22 1_555 1_555
C20 C22 1_555 1_555
C21 C22 1_555 1_555
C23 C24 1_555 1_555
C24 C25 1_555 1_555

#END
