
#######################################################################
#
#                 Cambridge Crystallographic Data Centre
#                                CCDC 
#
#######################################################################
#
# If this CIF has been generated from an entry in the Cambridge 
# Structural Database, then it will include bibliographic, chemical, 
# crystal, experimental, refinement or atomic coordinate data resulting 
# from the CCDC's data processing and validation procedures.
#
#######################################################################

data_ALEGEF
_chemical_formula_moiety         'C13 H12 Cl1 N3'
_chemical_name_systematic        
3-Chloro-2-(2-(2-methylbenzylidene)hydrazino)pyridine
_symmetry_cell_setting           orthorhombic
_symmetry_space_group_name_H-M   'P b c a'
_symmetry_Int_Tables_number      61
_space_group_name_Hall           '-P 2ac 2ab'
loop_
_symmetry_equiv_pos_site_id
_symmetry_equiv_pos_as_xyz
1 x,y,z
2 1/2-x,-y,1/2+z
3 -x,1/2+y,1/2-z
4 1/2+x,1/2-y,-z
5 -x,-y,-z
6 1/2+x,y,1/2-z
7 x,1/2-y,1/2+z
8 1/2-x,1/2+y,z
_cell_length_a                   14.6638(3)
_cell_length_b                   7.7522(2)
_cell_length_c                   20.3850(4)
_cell_angle_alpha                90
_cell_angle_beta                 90
_cell_angle_gamma                90
_cell_volume                     2317.3
_exptl_crystal_colour            blue
_exptl_crystal_description       block
_cell_formula_units_Z            8
loop_
_atom_site_label
_atom_site_type_symbol
_atom_site_fract_x
_atom_site_fract_y
_atom_site_fract_z
Cl1 Cl 0.80654(6) 0.15327(11) 0.48950(4)
N1 N 0.98907(15) -0.1319(3) 0.36686(10)
C1 C 1.13645(15) -0.3194(3) 0.34814(11)
H1 H 1.0878 -0.2698 0.3734
H2 H 1.1934 -0.2996 0.3701
H3 H 1.1266 -0.4413 0.3436
C2 C 0.91153(17) -0.1284(3) 0.46919(12)
C3 C 1.07193(17) -0.1254(3) 0.26724(12)
C4 C 1.13872(17) -0.2449(3) 0.28749(12)
N2 N 0.92352(16) -0.0645(3) 0.40639(10)
H4 H 0.8895 0.0179 0.3924
C5 C 0.99947(17) -0.0657(3) 0.30988(12)
H5 H 0.9603 0.0211 0.2958
C6 C 0.85670(17) -0.0394(3) 0.51335(12)
C7 C 0.8425(2) -0.1038(4) 0.57520(12)
H6 H 0.8054 -0.0462 0.6051
C8 C 1.0778(2) -0.0598(3) 0.20344(12)
H7 H 1.0343 0.0190 0.1891
N3 N 0.95108(16) -0.2762(3) 0.48517(11)
C9 C 0.8848(2) -0.2568(4) 0.59175(14)
H8 H 0.8777 -0.3048 0.6333
C10 C 1.1470(2) -0.1099(4) 0.16113(13)
H9 H 1.1492 -0.0667 0.1186
C11 C 1.2129(2) -0.2246(4) 0.18262(15)
H10 H 1.2604 -0.2563 0.1549
C12 C 1.20821(19) -0.2923(4) 0.24541(14)
H11 H 1.2523 -0.3704 0.2594
C13 C 0.9379(2) -0.3363(4) 0.54481(16)
H12 H 0.9664 -0.4393 0.5561
loop_
_geom_bond_atom_site_label_1
_geom_bond_atom_site_label_2
_geom_bond_site_symmetry_1
_geom_bond_site_symmetry_2
Cl1 C6 1_555 1_555
N1 N2 1_555 1_555
C1 H1 1_555 1_555
H2 C1 1_555 1_555
H3 C1 1_555 1_555
C2 N2 1_555 1_555
C3 C4 1_555 1_555
C4 C1 1_555 1_555
N2 H4 1_555 1_555
C5 N1 1_555 1_555
H5 C5 1_555 1_555
C6 C2 1_555 1_555
C7 C6 1_555 1_555
H6 C7 1_555 1_555
C8 C3 1_555 1_555
H7 C8 1_555 1_555
N3 C2 1_555 1_555
C9 C7 1_555 1_555
H8 C9 1_555 1_555
C10 C8 1_555 1_555
H9 C10 1_555 1_555
C11 C10 1_555 1_555
H10 C11 1_555 1_555
C12 C4 1_555 1_555
H11 C12 1_555 1_555
C13 N3 1_555 1_555
H12 C13 1_555 1_555
C3 C5 1_555 1_555
C9 C13 1_555 1_555
C11 C12 1_555 1_555

#END
