
#######################################################################
#
#                 Cambridge Crystallographic Data Centre
#                                CCDC 
#
#######################################################################
#
# If this CIF has been generated from an entry in the Cambridge 
# Structural Database, then it will include bibliographic, chemical, 
# crystal, experimental, refinement or atomic coordinate data resulting 
# from the CCDC's data processing and validation procedures.
#
#######################################################################

data_ALEHUV
_chemical_formula_moiety         'C16 H17 Br1 O3'
_chemical_name_systematic        
(R*)-3-bromo-5-((2S*,3S*)-5-oxo-2-phenylhexan-3-yl)-5H-furan-2-one
_symmetry_cell_setting           orthorhombic
_symmetry_space_group_name_H-M   'P b c n'
_symmetry_Int_Tables_number      60
_space_group_name_Hall           '-P 2n 2ab'
loop_
_symmetry_equiv_pos_site_id
_symmetry_equiv_pos_as_xyz
1 x,y,z
2 1/2+x,1/2-y,-z
3 -x,y,1/2-z
4 1/2-x,1/2-y,1/2+z
5 -x,-y,-z
6 1/2-x,1/2+y,z
7 x,-y,1/2+z
8 1/2+x,1/2+y,1/2-z
_cell_length_a                   21.609(4)
_cell_length_b                   8.9577(16)
_cell_length_c                   15.245(3)
_cell_angle_alpha                90
_cell_angle_beta                 90
_cell_angle_gamma                90
_cell_volume                     2950.93
_exptl_crystal_colour            colorless
_exptl_crystal_description       block
_cell_formula_units_Z            8
loop_
_atom_site_label
_atom_site_type_symbol
_atom_site_fract_x
_atom_site_fract_y
_atom_site_fract_z
Br1 Br 0.934717(10) 0.04386(2) 0.332918(13)
O1 O 1.04513(6) 0.12932(16) 0.47266(10)
O2 O 0.78112(6) 0.16311(15) 0.57137(10)
O3 O 0.98454(5) 0.29515(15) 0.54322(9)
C1 C 0.77147(9) 0.4899(3) 0.89321(15)
H1 H 0.7396 0.5010 0.9357
C2 C 0.76859(9) 0.5681(3) 0.81466(15)
H2 H 0.7351 0.6343 0.8039
C3 C 0.82102(9) 0.3955(2) 0.90937(14)
H3 H 0.8233 0.3419 0.9631
C4 C 0.81983(9) -0.0691(2) 0.62404(15)
H4 H 0.7793 -0.1077 0.6060
H5 H 0.8264 -0.0906 0.6864
H6 H 0.8523 -0.1173 0.5893
C5 C 0.93975(9) 0.5843(2) 0.66511(14)
H7 H 0.9091 0.6350 0.6284
H8 H 0.9776 0.5678 0.6311
H9 H 0.9492 0.6463 0.7164
C6 C 0.81464(9) 0.5497(2) 0.75171(14)
H10 H 0.8119 0.6026 0.6979
C7 C 0.86764(9) 0.3792(2) 0.84663(13)
H11 H 0.9018 0.3158 0.8587
C8 C 0.99592(8) 0.1900(2) 0.48062(13)
C9 C 0.82193(8) 0.0961(2) 0.60948(12)
C10 C 0.93848(8) 0.1741(2) 0.42819(12)
C11 C 0.89555(8) 0.2667(2) 0.45799(12)
H12 H 0.8548 0.2767 0.4352
C12 C 0.91369(8) 0.4332(2) 0.69569(13)
H13 H 0.9485 0.3744 0.7216
C13 C 0.86491(8) 0.4545(2) 0.76655(13)
C14 C 0.87770(8) 0.1766(2) 0.64757(13)
H14 H 0.9155 0.1211 0.6305
H15 H 0.8747 0.1732 0.7123
C15 C 0.92168(8) 0.3528(2) 0.53323(13)
H16 H 0.9241 0.4605 0.5163
C16 C 0.88551(7) 0.33990(19) 0.61944(12)
H17 H 0.8431 0.3803 0.6082
loop_
_geom_bond_atom_site_label_1
_geom_bond_atom_site_label_2
_geom_bond_site_symmetry_1
_geom_bond_site_symmetry_2
Br1 C10 1_555 1_555
O1 C8 1_555 1_555
O2 C9 1_555 1_555
O3 C8 1_555 1_555
C1 H1 1_555 1_555
C2 C1 1_555 1_555
H2 C2 1_555 1_555
C3 C1 1_555 1_555
H3 C3 1_555 1_555
C4 H4 1_555 1_555
H5 C4 1_555 1_555
H6 C4 1_555 1_555
C5 H7 1_555 1_555
H8 C5 1_555 1_555
H9 C5 1_555 1_555
C6 C2 1_555 1_555
H10 C6 1_555 1_555
C7 C3 1_555 1_555
H11 C7 1_555 1_555
C8 C10 1_555 1_555
C9 C4 1_555 1_555
C10 C11 1_555 1_555
C11 H12 1_555 1_555
C12 C5 1_555 1_555
H13 C12 1_555 1_555
C13 C6 1_555 1_555
C14 C9 1_555 1_555
H14 C14 1_555 1_555
H15 C14 1_555 1_555
C15 O3 1_555 1_555
H16 C15 1_555 1_555
C16 C12 1_555 1_555
H17 C16 1_555 1_555
C7 C13 1_555 1_555
C11 C15 1_555 1_555
C12 C13 1_555 1_555
C14 C16 1_555 1_555
C15 C16 1_555 1_555

#END
