
#######################################################################
#
#                 Cambridge Crystallographic Data Centre
#                                CCDC 
#
#######################################################################
#
# If this CIF has been generated from an entry in the Cambridge 
# Structural Database, then it will include bibliographic, chemical, 
# crystal, experimental, refinement or atomic coordinate data resulting 
# from the CCDC's data processing and validation procedures.
#
#######################################################################

data_ALEJIL
_chemical_formula_moiety         'C15 H21 Br1 O3'
_chemical_name_systematic        
(S*)-3-bromo-5-((R*)-1-cyclohexyl-3-oxobutyl)-5-methyl-5H-furan-2-one
_symmetry_cell_setting           orthorhombic
_symmetry_space_group_name_H-M   'P c a 21'
_symmetry_Int_Tables_number      29
_space_group_name_Hall           'P 2c -2ac'
loop_
_symmetry_equiv_pos_site_id
_symmetry_equiv_pos_as_xyz
1 x,y,z
2 -x,-y,1/2+z
3 1/2-x,y,1/2+z
4 1/2+x,-y,z
_cell_length_a                   20.354(6)
_cell_length_b                   10.517(3)
_cell_length_c                   7.131(2)
_cell_angle_alpha                90
_cell_angle_beta                 90
_cell_angle_gamma                90
_cell_volume                     1526.48
_exptl_crystal_colour            colorless
_exptl_crystal_description       plate
_cell_formula_units_Z            4
loop_
_atom_site_label
_atom_site_type_symbol
_atom_site_fract_x
_atom_site_fract_y
_atom_site_fract_z
Br1 Br 0.159070(10) 1.319182(17) 0.49523(5)
C1 C 0.16175(10) 1.1451(2) 0.5396(3)
C2 C 0.11555(9) 1.05837(18) 0.5136(3)
H1 H 0.0728 1.0750 0.4659
C3 C 0.14081(10) 0.9293(2) 0.5709(3)
C4 C 0.09964(10) 0.87579(18) 0.7371(3)
H2 H 0.0530 0.8748 0.6926
C5 C 0.11588(11) 0.73739(19) 0.7919(3)
H3 H 0.1146 0.6863 0.6736
C6 C 0.18444(11) 0.7193(2) 0.8761(3)
H4 H 0.2179 0.7477 0.7844
H5 H 0.1887 0.7729 0.9896
C7 C 0.19730(13) 0.5804(2) 0.9282(3)
H6 H 0.1987 0.5285 0.8124
H7 H 0.2407 0.5737 0.9903
C8 C 0.14482(15) 0.5281(2) 1.0578(4)
H8 H 0.1463 0.5739 1.1790
H9 H 0.1534 0.4370 1.0824
C9 C 0.22193(10) 1.0832(2) 0.6108(3)
C10 C 0.14623(10) 0.8405(2) 0.4042(3)
H10 H 0.1696 0.8835 0.3022
H11 H 0.1021 0.8167 0.3617
H12 H 0.1704 0.7639 0.4409
C11 C 0.10127(10) 0.96805(19) 0.9043(3)
H13 H 0.0902 0.9203 1.0197
H14 H 0.1466 1.0007 0.9187
C12 C 0.05504(10) 1.07957(19) 0.8870(3)
C13 C 0.07345(10) 1.19645(17) 0.9951(5)
H15 H 0.1125 1.2353 0.9386
H16 H 0.0830 1.1733 1.1254
H17 H 0.0369 1.2572 0.9920
C14 C 0.07695(13) 0.5433(2) 0.9703(4)
H18 H 0.0432 0.5122 1.0592
H19 H 0.0743 0.4910 0.8551
C15 C 0.06279(12) 0.68262(19) 0.9212(4)
H20 H 0.0195 0.6887 0.8585
H21 H 0.0608 0.7334 1.0379
O1 O 0.27490(7) 1.12748(15) 0.6451(2)
O2 O 0.20821(7) 0.95811(13) 0.6333(2)
O3 O 0.00482(7) 1.07424(15) 0.7951(2)
loop_
_geom_bond_atom_site_label_1
_geom_bond_atom_site_label_2
_geom_bond_site_symmetry_1
_geom_bond_site_symmetry_2
Br1 C1 1_555 1_555
C1 C2 1_555 1_555
C2 H1 1_555 1_555
C3 C2 1_555 1_555
C4 C3 1_555 1_555
H2 C4 1_555 1_555
C5 C4 1_555 1_555
H3 C5 1_555 1_555
C6 C5 1_555 1_555
H4 C6 1_555 1_555
H5 C6 1_555 1_555
C7 C6 1_555 1_555
H6 C7 1_555 1_555
H7 C7 1_555 1_555
C8 C7 1_555 1_555
H8 C8 1_555 1_555
H9 C8 1_555 1_555
C9 C1 1_555 1_555
C10 C3 1_555 1_555
H10 C10 1_555 1_555
H11 C10 1_555 1_555
H12 C10 1_555 1_555
C11 C4 1_555 1_555
H13 C11 1_555 1_555
H14 C11 1_555 1_555
C12 C11 1_555 1_555
C13 C12 1_555 1_555
H15 C13 1_555 1_555
H16 C13 1_555 1_555
H17 C13 1_555 1_555
C14 C8 1_555 1_555
H18 C14 1_555 1_555
H19 C14 1_555 1_555
C15 C5 1_555 1_555
H20 C15 1_555 1_555
H21 C15 1_555 1_555
O1 C9 1_555 1_555
O2 C3 1_555 1_555
O3 C12 1_555 1_555
C9 O2 1_555 1_555
C14 C15 1_555 1_555

#END
