
#######################################################################
#
#                 Cambridge Crystallographic Data Centre
#                                CCDC 
#
#######################################################################
#
# If this CIF has been generated from an entry in the Cambridge 
# Structural Database, then it will include bibliographic, chemical, 
# crystal, experimental, refinement or atomic coordinate data resulting 
# from the CCDC's data processing and validation procedures.
#
#######################################################################

data_ALEMOV
_chemical_formula_moiety         'C26 H22 O4'
_chemical_name_systematic        
(3-(4-Methoxyphenyl)-6,7-dihydro-5H-furo[3,2-g]chromen-2-yl)(4-methylphenyl)methanone
_symmetry_cell_setting           triclinic
_symmetry_space_group_name_H-M   'P -1'
_symmetry_Int_Tables_number      2
_space_group_name_Hall           '-P 1'
loop_
_symmetry_equiv_pos_site_id
_symmetry_equiv_pos_as_xyz
1 x,y,z
2 -x,-y,-z
_cell_length_a                   11.0745(4)
_cell_length_b                   13.0953(7)
_cell_length_c                   15.8773(8)
_cell_angle_alpha                92.811(4)
_cell_angle_beta                 104.815(4)
_cell_angle_gamma                111.797(4)
_cell_volume                     2040.13
_exptl_crystal_colour            yellow
_exptl_crystal_description       block
_cell_formula_units_Z            4
loop_
_atom_site_label
_atom_site_type_symbol
_atom_site_fract_x
_atom_site_fract_y
_atom_site_fract_z
O1 O 0.32025(15) 0.39939(13) 0.37191(10)
O2 O 0.44883(17) 0.71756(13) 0.58522(11)
C1 C 0.3929(2) 0.56564(18) 0.47922(15)
H1 H 0.4707 0.6046 0.4632
C2 C 0.2412(2) 0.55392(18) 0.56966(13)
C3 C 0.3056(2) 0.45921(18) 0.43871(14)
C4 C 0.1916(2) 0.39612(17) 0.46272(13)
C5 C 0.1583(2) 0.44619(18) 0.52812(14)
H2 H 0.0802 0.4069 0.5437
O3 O 0.1435(2) 0.11324(16) 0.28856(14)
C6 C 0.3587(2) 0.61195(17) 0.54531(14)
C7 C 0.0110(2) 0.19511(18) 0.41246(14)
C8 C 0.2706(2) 0.2432(2) 0.21391(14)
C9 C -0.0980(2) 0.13570(19) 0.33866(14)
H3 H -0.0944 0.1536 0.2831
C10 C 0.1323(2) 0.28905(18) 0.40711(14)
O4 O -0.3372(2) -0.06140(16) 0.42941(14)
C11 C 0.2127(2) 0.29585(18) 0.35333(15)
C12 C 0.3842(3) 0.2886(3) 0.07335(15)
C13 C -0.1114(3) 0.0799(2) 0.50287(16)
H4 H -0.1148 0.0608 0.5581
C14 C -0.2189(2) 0.02300(19) 0.42867(17)
C15 C 0.0015(2) 0.1657(2) 0.49391(15)
H5 H 0.0733 0.2050 0.5441
C16 C -0.2109(3) 0.0508(2) 0.34682(16)
H6 H -0.2829 0.0115 0.2967
C17 C 0.2084(2) 0.6103(2) 0.64076(15)
H7 H 0.1739 0.5572 0.6781
H8 H 0.1379 0.6358 0.6137
C18 C 0.3779(3) 0.3723(2) 0.12660(16)
H9 H 0.4122 0.4451 0.1156
C19 C 0.2743(3) 0.1580(2) 0.15994(16)
H10 H 0.2390 0.0850 0.1703
C20 C 0.2059(2) 0.2115(2) 0.28532(16)
C21 C 0.3333(3) 0.7084(2) 0.69641(17)
H11 H 0.3067 0.7528 0.7328
H12 H 0.3943 0.6817 0.7351
C22 C 0.3222(2) 0.3509(2) 0.19525(15)
H13 H 0.3190 0.4090 0.2295
C23 C 0.4046(3) 0.7781(2) 0.63931(18)
H14 H 0.3440 0.8062 0.6019
H15 H 0.4829 0.8416 0.6760
C24 C 0.4483(3) 0.3143(3) -0.00027(18)
H16 H 0.4584 0.2496 -0.0230
H17 H 0.5360 0.3748 0.0219
H18 H 0.3912 0.3349 -0.0466
C25 C 0.3301(3) 0.1815(3) 0.09096(17)
H19 H 0.3312 0.1234 0.0555
C26 C -0.3488(4) -0.0925(3) 0.5110(3)
H20 H -0.4341 -0.1543 0.5023
H21 H -0.3447 -0.0308 0.5485
H22 H -0.2755 -0.1137 0.5381
O5 O 0.15209(17) 0.44666(13) 0.00641(10)
O6 O 0.32249(19) 0.75365(14) 0.23837(12)
O7 O -0.0787(2) 0.17364(18) -0.10146(13)
O8 O -0.4145(2) -0.04878(14) 0.12350(12)
C27 C 0.0580(2) 0.43267(18) 0.11851(14)
C28 C 0.1343(2) 0.58219(19) 0.23958(14)
C29 C -0.0098(2) 0.32762(19) 0.05964(14)
C30 C 0.2446(3) 0.6080(2) 0.12218(16)
H23 H 0.3099 0.6514 0.0973
C31 C -0.2344(2) 0.23530(19) 0.08542(15)
H24 H -0.2446 0.3025 0.0826
C32 C 0.2321(2) 0.64730(18) 0.20058(15)
C33 C 0.1554(2) 0.50132(19) 0.08309(14)
C34 C 0.0493(2) 0.47440(18) 0.19832(14)
H25 H -0.0139 0.4295 0.2239
C35 C -0.3211(3) 0.04585(19) 0.10752(14)
C36 C -0.1175(2) 0.22880(18) 0.07414(14)
C37 C 0.1934(3) 0.3915(2) -0.15553(16)
H26 H 0.1973 0.4545 -0.1232
C38 C 0.1076(3) 0.2865(2) -0.14684(14)
C39 C 0.0495(2) 0.3403(2) -0.00695(15)
C40 C -0.3369(2) 0.14485(19) 0.10081(15)
H27 H -0.4156 0.1510 0.1065
C41 C 0.0195(3) 0.2626(2) -0.08661(16)
C42 C 0.1239(2) 0.6318(2) 0.32397(15)
H28 H 0.0388 0.6417 0.3118
H29 H 0.1227 0.5805 0.3661
C43 C -0.1032(3) 0.1281(2) 0.08073(15)
H30 H -0.0259 0.1211 0.0733
C44 C -0.2032(3) 0.0385(2) 0.09825(16)
H31 H -0.1914 -0.0278 0.1039
C45 C 0.1016(3) 0.1944(2) -0.19828(16)
H32 H 0.0419 0.1233 -0.1958
C46 C 0.2730(3) 0.4036(3) -0.21168(16)
H33 H 0.3280 0.4748 -0.2176
C47 C 0.2729(3) 0.3118(3) -0.25945(16)
C48 C -0.5372(3) -0.0448(3) 0.1342(2)
H34 H -0.5878 -0.0307 0.0805
H35 H -0.5151 0.0137 0.1815
H36 H -0.5912 -0.1148 0.1478
C49 C 0.1836(3) 0.2078(3) -0.25292(18)
H37 H 0.1785 0.1451 -0.2862
C50 C 0.2397(4) 0.7416(2) 0.3638(2)
H38 H 0.2089 0.7843 0.3986
H39 H 0.3120 0.7278 0.4041
C51 C 0.3685(3) 0.3261(3) -0.3151(2)
H40 H 0.4525 0.3252 -0.2799
H41 H 0.3860 0.3959 -0.3365
H42 H 0.3276 0.2663 -0.3641
C52 C 0.2944(5) 0.8069(3) 0.3061(2)
H43 H 0.3784 0.8673 0.3404
H44 H 0.2320 0.8399 0.2787
loop_
_geom_bond_atom_site_label_1
_geom_bond_atom_site_label_2
_geom_bond_site_symmetry_1
_geom_bond_site_symmetry_2
O1 C3 1_555 1_555
O2 C6 1_555 1_555
C1 H1 1_555 1_555
C2 C5 1_555 1_555
C3 C1 1_555 1_555
C4 C3 1_555 1_555
C5 C4 1_555 1_555
H2 C5 1_555 1_555
O3 C20 1_555 1_555
C6 C1 1_555 1_555
C7 C9 1_555 1_555
C8 C19 1_555 1_555
C9 H3 1_555 1_555
C10 C4 1_555 1_555
O4 C14 1_555 1_555
C11 O1 1_555 1_555
C12 C18 1_555 1_555
C13 H4 1_555 1_555
C14 C13 1_555 1_555
C15 C7 1_555 1_555
H5 C15 1_555 1_555
C16 C9 1_555 1_555
H6 C16 1_555 1_555
C17 C2 1_555 1_555
H7 C17 1_555 1_555
H8 C17 1_555 1_555
C18 H9 1_555 1_555
C19 H10 1_555 1_555
C20 C8 1_555 1_555
C21 C17 1_555 1_555
H11 C21 1_555 1_555
H12 C21 1_555 1_555
C22 C8 1_555 1_555
H13 C22 1_555 1_555
C23 O2 1_555 1_555
H14 C23 1_555 1_555
H15 C23 1_555 1_555
C24 C12 1_555 1_555
H16 C24 1_555 1_555
H17 C24 1_555 1_555
H18 C24 1_555 1_555
C25 C12 1_555 1_555
H19 C25 1_555 1_555
C26 O4 1_555 1_555
H20 C26 1_555 1_555
H21 C26 1_555 1_555
H22 C26 1_555 1_555
O5 C33 1_555 1_555
O6 C32 1_555 1_555
O7 C41 1_555 1_555
O8 C35 1_555 1_555
C27 C29 1_555 1_555
C28 C32 1_555 1_555
C29 C36 1_555 1_555
C30 H23 1_555 1_555
C31 H24 1_555 1_555
C32 C30 1_555 1_555
C33 C27 1_555 1_555
C34 C27 1_555 1_555
H25 C34 1_555 1_555
C35 C40 1_555 1_555
C36 C31 1_555 1_555
C37 H26 1_555 1_555
C38 C37 1_555 1_555
C39 O5 1_555 1_555
C40 C31 1_555 1_555
H27 C40 1_555 1_555
C41 C38 1_555 1_555
C42 C28 1_555 1_555
H28 C42 1_555 1_555
H29 C42 1_555 1_555
C43 C36 1_555 1_555
H30 C43 1_555 1_555
C44 C35 1_555 1_555
H31 C44 1_555 1_555
C45 C38 1_555 1_555
H32 C45 1_555 1_555
C46 C37 1_555 1_555
H33 C46 1_555 1_555
C47 C46 1_555 1_555
C48 O8 1_555 1_555
H34 C48 1_555 1_555
H35 C48 1_555 1_555
H36 C48 1_555 1_555
C49 C45 1_555 1_555
H37 C49 1_555 1_555
C50 C42 1_555 1_555
H38 C50 1_555 1_555
H39 C50 1_555 1_555
C51 C47 1_555 1_555
H40 C51 1_555 1_555
H41 C51 1_555 1_555
H42 C51 1_555 1_555
C52 O6 1_555 1_555
H43 C52 1_555 1_555
H44 C52 1_555 1_555
C2 C6 1_555 1_555
C7 C10 1_555 1_555
C10 C11 1_555 1_555
C11 C20 1_555 1_555
C13 C15 1_555 1_555
C14 C16 1_555 1_555
C18 C22 1_555 1_555
C19 C25 1_555 1_555
C21 C23 1_555 1_555
C28 C34 1_555 1_555
C29 C39 1_555 1_555
C30 C33 1_555 1_555
C39 C41 1_555 1_555
C43 C44 1_555 1_555
C47 C49 1_555 1_555
C50 C52 1_555 1_555

#END
