
#######################################################################
#
#                 Cambridge Crystallographic Data Centre
#                                CCDC 
#
#######################################################################
#
# If this CIF has been generated from an entry in the Cambridge 
# Structural Database, then it will include bibliographic, chemical, 
# crystal, experimental, refinement or atomic coordinate data resulting 
# from the CCDC's data processing and validation procedures.
#
#######################################################################

data_ALEPAK
_chemical_formula_moiety         'C78 H72 O4,2(C1 H2 Cl2)'
_chemical_name_systematic        
"3,8,13-Tri-t-butyl-15-(3,8,13-tri-t-butyl-10,15-dioxo-10,15-dihydro-5H-di-indeno[1,2-a:1',2'-c]fluoren-5-ylidene)-5H-di-indeno[1,2-a:1',2'-c]fluorene-5,10(15H)-dione dichloromethane solvate"
_symmetry_cell_setting           triclinic
_symmetry_space_group_name_H-M   'P -1'
_symmetry_Int_Tables_number      2
_space_group_name_Hall           '-P 1'
loop_
_symmetry_equiv_pos_site_id
_symmetry_equiv_pos_as_xyz
1 x,y,z
2 -x,-y,-z
_cell_length_a                   15.314(4)
_cell_length_b                   15.355(4)
_cell_length_c                   16.601(4)
_cell_angle_alpha                88.325(7)
_cell_angle_beta                 79.029(7)
_cell_angle_gamma                63.242(7)
_cell_volume                     3414.84
_exptl_crystal_colour            red
_exptl_crystal_description       plate
_cell_formula_units_Z            2
loop_
_atom_site_label
_atom_site_type_symbol
_atom_site_fract_x
_atom_site_fract_y
_atom_site_fract_z
C1 C 0.6436(8) 0.4946(8) 0.2961(7)
C2 C 0.7404(8) 0.4357(8) 0.2558(7)
C3 C 0.6137(8) 0.5662(8) 0.3649(7)
C4 C 0.6522(9) 0.6263(8) 0.3841(7)
C5 C 0.7302(9) 0.6488(9) 0.3367(7)
C6 C 0.7860(9) 0.6187(10) 0.2594(7)
H1 H 0.7799 0.5717 0.2280
C7 C 0.8522(10) 0.6560(10) 0.2254(7)
C8 C 0.8564(12) 0.7254(11) 0.2723(8)
H2 H 0.8999 0.7524 0.2498
C9 C 0.8007(10) 0.7579(11) 0.3504(8)
H3 H 0.8066 0.8053 0.3815
C10 C 0.7369(9) 0.7204(9) 0.3818(7)
O1 O 0.6455(7) 0.8096(7) 0.5122(5)
C11 C 0.6620(9) 0.7472(9) 0.4582(7)
C12 C 0.6081(9) 0.6867(9) 0.4574(7)
C13 C 0.5241(8) 0.6920(8) 0.5080(7)
C14 C 0.4677(9) 0.7427(9) 0.5884(7)
C15 C 0.4857(9) 0.7981(9) 0.6423(7)
H4 H 0.5432 0.8086 0.6288
C16 C 0.4185(10) 0.8373(9) 0.7156(7)
C17 C 0.3344(10) 0.8212(9) 0.7345(8)
H5 H 0.2889 0.8480 0.7852
C18 C 0.3162(10) 0.7673(9) 0.6812(7)
H6 H 0.2580 0.7580 0.6946
C19 C 0.3827(9) 0.7269(9) 0.6086(7)
O2 O 0.3194(7) 0.6390(7) 0.5420(5)
C20 C 0.3828(9) 0.6653(9) 0.5429(7)
C21 C 0.4751(9) 0.6411(8) 0.4815(7)
C22 C 0.5161(9) 0.5832(8) 0.4103(7)
C23 C 0.4808(9) 0.5319(9) 0.3612(7)
C24 C 0.3873(9) 0.5346(9) 0.3733(7)
H7 H 0.3373 0.5701 0.4198
C25 C 0.3682(9) 0.4839(9) 0.3157(7)
C26 C 0.4447(9) 0.4298(9) 0.2521(8)
H8 H 0.4331 0.3912 0.2157
C27 C 0.5365(9) 0.4278(9) 0.2376(7)
H9 H 0.5869 0.3896 0.1923
C28 C 0.5538(8) 0.4842(8) 0.2920(7)
C29 C 0.9139(10) 0.6226(10) 0.1394(8)
C30 C 1.0231(12) 0.5874(18) 0.1367(12)
H10 H 1.0326 0.6357 0.1665
H11 H 1.0498 0.5250 0.1625
H12 H 1.0582 0.5786 0.0794
C31 C 0.8904(17) 0.5540(16) 0.0955(11)
H13 H 0.8180 0.5818 0.0998
H14 H 0.9231 0.5446 0.0374
H15 H 0.9147 0.4910 0.1206
C32 C 0.8800(16) 0.7166(14) 0.0903(11)
H16 H 0.8087 0.7429 0.0901
H17 H 0.8920 0.7655 0.1164
H18 H 0.9180 0.7004 0.0337
C33 C 0.4329(9) 0.9014(9) 0.7758(7)
C34 C 0.5353(10) 0.8982(12) 0.7532(9)
H19 H 0.5869 0.8305 0.7515
H20 H 0.5428 0.9243 0.6992
H21 H 0.5422 0.9378 0.7945
C35 C 0.3540(11) 1.0069(9) 0.7781(10)
H22 H 0.2875 1.0101 0.7925
H23 H 0.3616 1.0461 0.8192
H24 H 0.3621 1.0326 0.7239
C36 C 0.4247(13) 0.8654(12) 0.8629(7)
H25 H 0.4752 0.7973 0.8622
H26 H 0.4356 0.9061 0.9003
H27 H 0.3581 0.8697 0.8817
C37 C 0.2605(9) 0.4952(8) 0.3253(6)
C38 C 0.2531(11) 0.4373(10) 0.2557(8)
H28 H 0.2709 0.4612 0.2028
H29 H 0.2991 0.3679 0.2569
H30 H 0.1847 0.4457 0.2628
C39 C 0.2332(11) 0.4592(11) 0.4081(7)
H31 H 0.2794 0.3901 0.4101
H32 H 0.2375 0.4974 0.4522
H33 H 0.1649 0.4671 0.4155
C40 C 0.1886(10) 0.6027(9) 0.3224(10)
H34 H 0.2062 0.6259 0.2690
H35 H 0.1203 0.6106 0.3298
H36 H 0.1929 0.6409 0.3664
C41 C 0.7733(8) 0.3836(8) 0.1746(7)
C42 C 0.7337(9) 0.4078(8) 0.1048(7)
C43 C 0.6509(9) 0.4957(8) 0.0848(7)
C44 C 0.5912(9) 0.5845(8) 0.1250(7)
H37 H 0.5989 0.5958 0.1786
C45 C 0.5184(9) 0.6607(9) 0.0901(7)
C46 C 0.5100(10) 0.6421(9) 0.0131(8)
H38 H 0.4596 0.6914 -0.0110
C47 C 0.5718(10) 0.5545(9) -0.0310(8)
H39 H 0.5653 0.5444 -0.0853
C48 C 0.6427(9) 0.4820(9) 0.0039(7)
O3 O 0.7338(7) 0.3506(7) -0.0994(5)
C49 C 0.7202(9) 0.3850(9) -0.0300(7)
C50 C 0.7822(9) 0.3427(9) 0.0340(7)
C51 C 0.8683(8) 0.2598(8) 0.0317(7)
C52 C 0.9335(9) 0.1818(9) -0.0324(7)
C53 C 0.9228(10) 0.1619(10) -0.1104(7)
H40 H 0.8657 0.2051 -0.1311
C54 C 0.9953(9) 0.0794(9) -0.1576(7)
C55 C 1.0817(9) 0.0186(10) -0.1295(7)
H41 H 1.1336 -0.0355 -0.1635
C56 C 1.0912(10) 0.0379(10) -0.0513(7)
H42 H 1.1483 -0.0053 -0.0305
C57 C 1.0195(9) 0.1182(9) -0.0044(7)
O4 O 1.0814(6) 0.1211(7) 0.1164(5)
C58 C 1.0157(9) 0.1555(9) 0.0776(7)
C59 C 0.9182(9) 0.2423(9) 0.1004(7)
C60 C 0.8727(8) 0.3058(8) 0.1696(7)
C61 C 0.9047(9) 0.3135(9) 0.2463(7)
C62 C 0.9935(9) 0.2554(9) 0.2711(7)
H43 H 1.0447 0.2010 0.2371
C63 C 1.0064(9) 0.2786(9) 0.3474(7)
C64 C 0.9303(9) 0.3593(9) 0.3952(8)
H44 H 0.9394 0.3756 0.4467
C65 C 0.8426(10) 0.4161(10) 0.3702(7)
H45 H 0.7910 0.4697 0.4049
C66 C 0.8287(9) 0.3951(9) 0.2928(7)
C67 C 0.4528(9) 0.7567(9) 0.1400(7)
C68 C 0.5184(11) 0.8003(10) 0.1611(9)
H46 H 0.4764 0.8625 0.1934
H47 H 0.5656 0.7549 0.1931
H48 H 0.5554 0.8114 0.1102
C69 C 0.3961(10) 0.7396(10) 0.2194(7)
H49 H 0.3538 0.8020 0.2514
H50 H 0.3543 0.7110 0.2064
H51 H 0.4436 0.6948 0.2514
C70 C 0.3764(10) 0.8300(10) 0.0936(8)
H52 H 0.3356 0.8910 0.1280
H53 H 0.4113 0.8432 0.0425
H54 H 0.3334 0.8029 0.0807
C71 C 0.9849(8) 0.0623(8) -0.2461(7)
C72 C 1.0048(11) 0.1354(10) -0.3011(8)
H55 H 1.0727 0.1260 -0.3021
H56 H 0.9977 0.1251 -0.3570
H57 H 0.9568 0.2020 -0.2794
C73 C 0.8800(9) 0.0763(10) -0.2442(9)
H58 H 0.8318 0.1421 -0.2207
H59 H 0.8721 0.0682 -0.3002
H60 H 0.8684 0.0277 -0.2103
C74 C 1.0580(10) -0.0405(9) -0.2828(8)
H61 H 1.1264 -0.0510 -0.2846
H62 H 1.0454 -0.0884 -0.2488
H63 H 1.0491 -0.0480 -0.3387
C75 C 1.1032(9) 0.2139(9) 0.3803(7)
C76 C 1.1804(14) 0.1343(14) 0.3171(12)
H64 H 1.1510 0.0950 0.2992
H65 H 1.2025 0.1640 0.2696
H66 H 1.2377 0.0923 0.3415
C77 C 1.0729(18) 0.1635(18) 0.4538(13)
H67 H 1.0460 0.1222 0.4353
H68 H 1.1315 0.1229 0.4773
H69 H 1.0219 0.2130 0.4956
C78 C 1.1445(18) 0.2771(16) 0.4102(18)
H70 H 1.0926 0.3276 0.4509
H71 H 1.2015 0.2365 0.4355
H72 H 1.1663 0.3082 0.3636
C85 C 0.3889(13) 0.9691(14) 0.4849(9)
H91 H 0.3802 1.0361 0.4744
H92 H 0.4455 0.9372 0.5137
Cl1 Cl 0.4187(6) 0.9055(4) 0.3926(4)
Cl2 Cl 0.2822(4) 0.9768(4) 0.5486(4)
C86 C 0.271(2) 0.1702(12) 0.0871(15)
H93 H 0.2672 0.1517 0.1448
H94 H 0.2088 0.1795 0.0702
Cl3 Cl 0.3698(10) 0.0791(7) 0.0265(6)
Cl4 Cl 0.2794(8) 0.2763(7) 0.0809(6)
C79? C 1.095(3) 0.246(3) 0.4684(13)
H73? H 1.0829 0.3137 0.4714
H74? H 1.0388 0.2395 0.5037
H75? H 1.1566 0.2038 0.4871
C80? C 1.1887(19) 0.227(3) 0.327(2)
H76? H 1.1745 0.2956 0.3304
H77? H 1.2508 0.1865 0.3456
H78? H 1.1956 0.2065 0.2694
C81? C 1.121(3) 0.1084(14) 0.377(3)
H79? H 1.1270 0.0872 0.3201
H80? H 1.1833 0.0670 0.3957
H81? H 1.0654 0.1027 0.4123
C82? C 0.851(3) 0.634(4) 0.077(2)
H82? H 0.8064 0.6049 0.0953
H83? H 0.8121 0.7038 0.0694
H84? H 0.8949 0.6012 0.0241
C83? C 0.987(3) 0.665(4) 0.117(3)
H85? H 1.0244 0.6545 0.1612
H86? H 1.0327 0.6326 0.0657
H87? H 0.9499 0.7352 0.1109
C84? C 0.979(3) 0.5109(15) 0.144(3)
H88? H 1.0208 0.4998 0.1844
H89? H 0.9348 0.4798 0.1603
H90? H 1.0206 0.4826 0.0898
loop_
_geom_bond_atom_site_label_1
_geom_bond_atom_site_label_2
_geom_bond_site_symmetry_1
_geom_bond_site_symmetry_2
C1 C2 1_555 1_555
C2 C41 1_555 1_555
C3 C1 1_555 1_555
C4 C3 1_555 1_555
C5 C4 1_555 1_555
C6 C5 1_555 1_555
H1 C6 1_555 1_555
C7 C6 1_555 1_555
C8 C7 1_555 1_555
H2 C8 1_555 1_555
C9 C8 1_555 1_555
H3 C9 1_555 1_555
C10 C5 1_555 1_555
O1 C11 1_555 1_555
C11 C10 1_555 1_555
C12 C4 1_555 1_555
C13 C12 1_555 1_555
C14 C13 1_555 1_555
C15 C14 1_555 1_555
H4 C15 1_555 1_555
C16 C15 1_555 1_555
C17 C16 1_555 1_555
H5 C17 1_555 1_555
C18 C17 1_555 1_555
H6 C18 1_555 1_555
C19 C14 1_555 1_555
O2 C20 1_555 1_555
C20 C19 1_555 1_555
C21 C13 1_555 1_555
C22 C3 1_555 1_555
C23 C22 1_555 1_555
C24 C23 1_555 1_555
H7 C24 1_555 1_555
C25 C24 1_555 1_555
C26 C25 1_555 1_555
H8 C26 1_555 1_555
C27 C26 1_555 1_555
H9 C27 1_555 1_555
C28 C1 1_555 1_555
C29 C7 1_555 1_555
C30 C29 1_555 1_555
H10 C30 1_555 1_555
H11 C30 1_555 1_555
H12 C30 1_555 1_555
C31 C29 1_555 1_555
H13 C31 1_555 1_555
H14 C31 1_555 1_555
H15 C31 1_555 1_555
C32 C29 1_555 1_555
H16 C32 1_555 1_555
H17 C32 1_555 1_555
H18 C32 1_555 1_555
C33 C16 1_555 1_555
C34 C33 1_555 1_555
H19 C34 1_555 1_555
H20 C34 1_555 1_555
H21 C34 1_555 1_555
C35 C33 1_555 1_555
H22 C35 1_555 1_555
H23 C35 1_555 1_555
H24 C35 1_555 1_555
C36 C33 1_555 1_555
H25 C36 1_555 1_555
H26 C36 1_555 1_555
H27 C36 1_555 1_555
C37 C25 1_555 1_555
C38 C37 1_555 1_555
H28 C38 1_555 1_555
H29 C38 1_555 1_555
H30 C38 1_555 1_555
C39 C37 1_555 1_555
H31 C39 1_555 1_555
H32 C39 1_555 1_555
H33 C39 1_555 1_555
C40 C37 1_555 1_555
H34 C40 1_555 1_555
H35 C40 1_555 1_555
H36 C40 1_555 1_555
C41 C42 1_555 1_555
C42 C43 1_555 1_555
C43 C44 1_555 1_555
C44 H37 1_555 1_555
C45 C44 1_555 1_555
C46 C45 1_555 1_555
H38 C46 1_555 1_555
C47 C46 1_555 1_555
H39 C47 1_555 1_555
C48 C43 1_555 1_555
O3 C49 1_555 1_555
C49 C48 1_555 1_555
C50 C42 1_555 1_555
C51 C50 1_555 1_555
C52 C51 1_555 1_555
C53 C52 1_555 1_555
H40 C53 1_555 1_555
C54 C53 1_555 1_555
C55 C54 1_555 1_555
H41 C55 1_555 1_555
C56 C55 1_555 1_555
H42 C56 1_555 1_555
C57 C52 1_555 1_555
O4 C58 1_555 1_555
C58 C57 1_555 1_555
C59 C51 1_555 1_555
C60 C41 1_555 1_555
C61 C60 1_555 1_555
C62 C61 1_555 1_555
H43 C62 1_555 1_555
C63 C62 1_555 1_555
C64 C63 1_555 1_555
H44 C64 1_555 1_555
C65 C64 1_555 1_555
H45 C65 1_555 1_555
C66 C2 1_555 1_555
C67 C45 1_555 1_555
C68 C67 1_555 1_555
H46 C68 1_555 1_555
H47 C68 1_555 1_555
H48 C68 1_555 1_555
C69 C67 1_555 1_555
H49 C69 1_555 1_555
H50 C69 1_555 1_555
H51 C69 1_555 1_555
C70 C67 1_555 1_555
H52 C70 1_555 1_555
H53 C70 1_555 1_555
H54 C70 1_555 1_555
C71 C54 1_555 1_555
C72 C71 1_555 1_555
H55 C72 1_555 1_555
H56 C72 1_555 1_555
H57 C72 1_555 1_555
C73 C71 1_555 1_555
H58 C73 1_555 1_555
H59 C73 1_555 1_555
H60 C73 1_555 1_555
C74 C71 1_555 1_555
H61 C74 1_555 1_555
H62 C74 1_555 1_555
H63 C74 1_555 1_555
C75 C63 1_555 1_555
C76 C75 1_555 1_555
H64 C76 1_555 1_555
H65 C76 1_555 1_555
H66 C76 1_555 1_555
C77 C75 1_555 1_555
H67 C77 1_555 1_555
H68 C77 1_555 1_555
H69 C77 1_555 1_555
C78 C75 1_555 1_555
H70 C78 1_555 1_555
H71 C78 1_555 1_555
H72 C78 1_555 1_555
C85 H91 1_555 1_555
H92 C85 1_555 1_555
Cl1 C85 1_555 1_555
Cl2 C85 1_555 1_555
C86 H93 1_555 1_555
H94 C86 1_555 1_555
Cl3 C86 1_555 1_555
Cl4 C86 1_555 1_555
C9 C10 1_555 1_555
C11 C12 1_555 1_555
C18 C19 1_555 1_555
C20 C21 1_555 1_555
C21 C22 1_555 1_555
C23 C28 1_555 1_555
C27 C28 1_555 1_555
C47 C48 1_555 1_555
C49 C50 1_555 1_555
C56 C57 1_555 1_555
C58 C59 1_555 1_555
C59 C60 1_555 1_555
C61 C66 1_555 1_555
C65 C66 1_555 1_555

#END
