
#######################################################################
#
#                 Cambridge Crystallographic Data Centre
#                                CCDC 
#
#######################################################################
#
# If this CIF has been generated from an entry in the Cambridge 
# Structural Database, then it will include bibliographic, chemical, 
# crystal, experimental, refinement or atomic coordinate data resulting 
# from the CCDC's data processing and validation procedures.
#
#######################################################################

data_ALERUF
_chemical_formula_moiety         'C14 H8 B1 O6 1-,C8 H20 N1 1+'
_chemical_name_systematic        'dibutylammonium bis(2-oxybenzoato)borate'
_symmetry_cell_setting           triclinic
_symmetry_space_group_name_H-M   'P -1'
_symmetry_Int_Tables_number      2
_space_group_name_Hall           '-P 1'
loop_
_symmetry_equiv_pos_site_id
_symmetry_equiv_pos_as_xyz
1 x,y,z
2 -x,-y,-z
_cell_length_a                   9.3133(19)
_cell_length_b                   10.2983(19)
_cell_length_c                   12.050(3)
_cell_angle_alpha                92.600(5)
_cell_angle_beta                 97.255(5)
_cell_angle_gamma                96.689(4)
_cell_volume                     1136.55
_cell_formula_units_Z            2
loop_
_atom_site_label
_atom_site_type_symbol
_atom_site_fract_x
_atom_site_fract_y
_atom_site_fract_z
O1 O 0.3005(2) 0.96250(17) 0.52625(13)
O2 O 0.07286(19) 0.82046(18) 0.53069(15)
O3 O 0.1367(2) 0.91050(18) 0.36350(14)
O4 O 0.2701(2) 0.74288(17) 0.45112(15)
O5 O 0.3354(2) 0.58148(17) 0.35279(19)
O6 O -0.01063(19) 0.7802(2) 0.69077(17)
C1 C 0.2204(2) 0.9051(2) 0.69937(19)
C2 C 0.3200(2) 0.9700(2) 0.63833(19)
C3 C 0.1322(3) 0.8439(2) 0.26479(19)
C4 C 0.2715(3) 0.6789(2) 0.3561(2)
C5 C 0.0863(3) 0.8300(2) 0.6405(2)
C6 C 0.2447(3) 0.9173(3) 0.8152(2)
H1 H 0.1792 0.8723 0.8564
C7 C 0.1965(3) 0.7302(2) 0.2558(2)
C8 C 0.4428(3) 1.0480(2) 0.6950(2)
H2 H 0.5107 1.0915 0.6549
C10 C 0.4623(3) 1.0599(3) 0.8086(3)
H5 H 0.5434 1.1128 0.8458
C11 C 0.0623(3) 0.8938(3) 0.1704(2)
H6 H 0.0210 0.9713 0.1765
C12 C 0.0546(4) 0.8283(4) 0.0688(2)
H7 H 0.0069 0.8613 0.0056
C13 C 0.1878(4) 0.6661(3) 0.1501(3)
H8 H 0.2309 0.5898 0.1422
C14 C 0.3647(3) 0.9951(4) 0.8696(2)
H9 H 0.3798 1.0041 0.9475
C18 C 0.1159(5) 0.7153(4) 0.0580(3)
H16 H 0.1089 0.6714 -0.0120
B1 B 0.1956(4) 0.8609(3) 0.4670(2)
C9 C 0.2887(3) 0.3094(3) 0.5378(2)
H3 H 0.3894 0.3160 0.5722
H4 H 0.2412 0.2237 0.5513
C15 C 0.3818(4) 0.2361(3) 0.3654(3)
H10 H 0.3316 0.1478 0.3515
H11 H 0.4687 0.2328 0.4182
C16 C 0.2159(4) 0.4113(3) 0.5919(2)
H12 H 0.1146 0.4041 0.5588
H13 H 0.2625 0.4973 0.5783
C17 C 0.2235(5) 0.3974(4) 0.7184(3)
H14 H 0.1696 0.3143 0.7314
H15 H 0.3245 0.3957 0.7497
C19 C 0.4261(5) 0.2861(5) 0.2553(4)
H17 H 0.4612 0.3789 0.2664
H18 H 0.5055 0.2410 0.2348
C20 C 0.1647(7) 0.5033(5) 0.7777(4)
H19 H 0.2265 0.5842 0.7751
H20 H 0.1610 0.4832 0.8544
H21 H 0.0682 0.5117 0.7423
N1 N 0.2852(2) 0.32087(19) 0.41538(18)
H22 H 0.3128 0.4048 0.4021
H23 H 0.1930 0.2990 0.3818
C21 C 0.3108(6) 0.2670(5) 0.1682(4)
H24 H 0.2316 0.3139 0.1867
H25 H 0.2746 0.1746 0.1561
C22 C 0.3705(8) 0.3218(5) 0.0548(4)
H26 H 0.3992 0.4146 0.0656
H27 H 0.2945 0.3039 -0.0074
H28 H 0.4529 0.2790 0.0399
loop_
_geom_bond_atom_site_label_1
_geom_bond_atom_site_label_2
_geom_bond_site_symmetry_1
_geom_bond_site_symmetry_2
O1 C2 1_555 1_555
O2 C5 1_555 1_555
O3 C3 1_555 1_555
O4 C4 1_555 1_555
O5 C4 1_555 1_555
O6 C5 1_555 1_555
C1 C2 1_555 1_555
C2 C8 1_555 1_555
C3 C7 1_555 1_555
C4 C7 1_555 1_555
C5 C1 1_555 1_555
C6 C1 1_555 1_555
H1 C6 1_555 1_555
C7 C13 1_555 1_555
C8 H2 1_555 1_555
C9 H3 1_555 1_555
H4 C9 1_555 1_555
C10 C8 1_555 1_555
H5 C10 1_555 1_555
C11 C3 1_555 1_555
H6 C11 1_555 1_555
C12 C11 1_555 1_555
H7 C12 1_555 1_555
C13 H8 1_555 1_555
C14 C6 1_555 1_555
H9 C14 1_555 1_555
C15 H10 1_555 1_555
H11 C15 1_555 1_555
C16 C9 1_555 1_555
H12 C16 1_555 1_555
H13 C16 1_555 1_555
C17 C16 1_555 1_555
H14 C17 1_555 1_555
H15 C17 1_555 1_555
C18 C12 1_555 1_555
H16 C18 1_555 1_555
C19 C15 1_555 1_555
H17 C19 1_555 1_555
H18 C19 1_555 1_555
C20 C17 1_555 1_555
H19 C20 1_555 1_555
H20 C20 1_555 1_555
H21 C20 1_555 1_555
N1 C9 1_555 1_555
H22 N1 1_555 1_555
H23 N1 1_555 1_555
B1 O1 1_555 1_555
C21 C19 1_555 1_555
H24 C21 1_555 1_555
H25 C21 1_555 1_555
C22 C21 1_555 1_555
H26 C22 1_555 1_555
H27 C22 1_555 1_555
H28 C22 1_555 1_555
O2 B1 1_555 1_555
O3 B1 1_555 1_555
O4 B1 1_555 1_555
C10 C14 1_555 1_555
C13 C18 1_555 1_555
C15 N1 1_555 1_555

#END
