
#######################################################################
#
#                 Cambridge Crystallographic Data Centre
#                                CCDC 
#
#######################################################################
#
# If this CIF has been generated from an entry in the Cambridge 
# Structural Database, then it will include bibliographic, chemical, 
# crystal, experimental, refinement or atomic coordinate data resulting 
# from the CCDC's data processing and validation procedures.
#
#######################################################################

data_ALESUF
_chemical_formula_moiety         'C23 H21 N1 O4'
_chemical_name_systematic        
(3S,5S,6R)-3-(2-Hydroxy-5-methoxyphenyl)-5,6-diphenylmorpholin-2-one
_symmetry_cell_setting           monoclinic
_symmetry_space_group_name_H-M   'P 21'
_symmetry_Int_Tables_number      4
_space_group_name_Hall           'P 2yb'
loop_
_symmetry_equiv_pos_site_id
_symmetry_equiv_pos_as_xyz
1 x,y,z
2 -x,1/2+y,-z
_cell_length_a                   9.7520(7)
_cell_length_b                   9.6697(6)
_cell_length_c                   10.2717(8)
_cell_angle_alpha                90
_cell_angle_beta                 106.1220(10)
_cell_angle_gamma                90
_cell_volume                     930.517
_exptl_crystal_colour            colorless
_chemical_melting_point          179-181deg.C
_cell_formula_units_Z            2
loop_
_atom_site_label
_atom_site_type_symbol
_atom_site_fract_x
_atom_site_fract_y
_atom_site_fract_z
N1 N 0.81696(16) 0.78634(18) 0.43536(15)
H1 H 0.8077 0.7606 0.3532
O1 O 0.39625(17) 1.10934(17) 0.06530(17)
O2 O 0.52201(14) 0.69822(15) 0.45223(14)
H2 H 0.4759 0.6282 0.4240
O3 O 0.63731(15) 0.96934(16) 0.65161(15)
O4 O 0.76472(13) 0.78311(14) 0.69584(13)
C1 C 0.4905(3) 1.2194(3) 0.0693(3)
H3 H 0.4530 1.2788 -0.0072
H4 H 0.5816 1.1840 0.0665
H5 H 0.5014 1.2710 0.1515
C2 C 0.4335(2) 1.0113(2) 0.1657(2)
C3 C 0.5582(2) 1.0102(2) 0.2676(2)
H6 H 0.6237 1.0814 0.2738
C4 C 0.5882(2) 0.9032(2) 0.3625(2)
C5 C 0.4885(2) 0.8002(2) 0.3535(2)
C6 C 0.3618(2) 0.8014(3) 0.2523(2)
H7 H 0.2949 0.7317 0.2476
C7 C 0.3345(2) 0.9067(2) 0.1579(2)
H8 H 0.2495 0.9074 0.0888
C8 C 0.7291(2) 0.8946(2) 0.4704(2)
H9 H 0.7786 0.9825 0.4689
C9 C 0.7037(2) 0.8822(2) 0.6093(2)
C10 C 0.8462(2) 0.6724(2) 0.65444(19)
H10 H 0.7793 0.5994 0.6111
C11 C 0.9221(2) 0.7251(2) 0.5514(2)
H11 H 0.9592 0.6429 0.5167
C12 C 1.0490(2) 0.8189(2) 0.6070(2)
C13 C 1.0622(2) 0.9091(2) 0.7139(2)
H12 H 0.9867 0.9184 0.7521
C14 C 1.1840(2) 0.9856(2) 0.7653(2)
H13 H 1.1912 1.0446 0.8384
C15 C 1.2954(2) 0.9744(3) 0.7080(3)
H14 H 1.3782 1.0258 0.7421
C16 C 1.2838(2) 0.8874(3) 0.6008(3)
H15 H 1.3586 0.8806 0.5614
C17 C 1.1623(2) 0.8097(2) 0.5506(2)
H16 H 1.1561 0.7504 0.4779
C18 C 0.9477(2) 0.6131(2) 0.7811(2)
C19 C 0.9593(2) 0.6650(2) 0.9087(2)
H17 H 0.8991 0.7359 0.9197
C20 C 1.0595(3) 0.6123(3) 1.0201(2)
H18 H 1.0658 0.6476 1.1058
C21 C 1.1498(3) 0.5088(3) 1.0058(3)
H19 H 1.2198 0.4761 1.0806
C22 C 1.1355(2) 0.4532(3) 0.8785(3)
H20 H 1.1941 0.3805 0.8684
C23 C 1.0352(2) 0.5047(2) 0.7668(2)
H21 H 1.0263 0.4666 0.6818
loop_
_geom_bond_atom_site_label_1
_geom_bond_atom_site_label_2
_geom_bond_site_symmetry_1
_geom_bond_site_symmetry_2
N1 H1 1_555 1_555
O1 C1 1_555 1_555
O2 H2 1_555 1_555
O3 C9 1_555 1_555
O4 C9 1_555 1_555
C1 H3 1_555 1_555
H4 C1 1_555 1_555
H5 C1 1_555 1_555
C2 O1 1_555 1_555
C3 C2 1_555 1_555
H6 C3 1_555 1_555
C4 C3 1_555 1_555
C5 O2 1_555 1_555
C6 C5 1_555 1_555
H7 C6 1_555 1_555
C7 C2 1_555 1_555
H8 C7 1_555 1_555
C8 N1 1_555 1_555
H9 C8 1_555 1_555
C9 C8 1_555 1_555
C10 O4 1_555 1_555
H10 C10 1_555 1_555
C11 N1 1_555 1_555
H11 C11 1_555 1_555
C12 C11 1_555 1_555
C13 C12 1_555 1_555
H12 C13 1_555 1_555
C14 C13 1_555 1_555
H13 C14 1_555 1_555
C15 C14 1_555 1_555
H14 C15 1_555 1_555
C16 C15 1_555 1_555
H15 C16 1_555 1_555
C17 C12 1_555 1_555
H16 C17 1_555 1_555
C18 C10 1_555 1_555
C19 C18 1_555 1_555
H17 C19 1_555 1_555
C20 C19 1_555 1_555
H18 C20 1_555 1_555
C21 C20 1_555 1_555
H19 C21 1_555 1_555
C22 C21 1_555 1_555
H20 C22 1_555 1_555
C23 C18 1_555 1_555
H21 C23 1_555 1_555
C4 C8 1_555 1_555
C4 C5 1_555 1_555
C6 C7 1_555 1_555
C10 C11 1_555 1_555
C16 C17 1_555 1_555
C22 C23 1_555 1_555

#END
