
#######################################################################
#
#                 Cambridge Crystallographic Data Centre
#                                CCDC 
#
#######################################################################
#
# If this CIF has been generated from an entry in the Cambridge 
# Structural Database, then it will include bibliographic, chemical, 
# crystal, experimental, refinement or atomic coordinate data resulting 
# from the CCDC's data processing and validation procedures.
#
#######################################################################

data_ALEVUK
_chemical_formula_moiety         'C4 H4 N10 O4,2(C2 H6 O1 S1),2(H2 O1)'
_chemical_name_systematic        
"N,N'-dinitro-1,1',4,4'-tetrahydro-5H,5'H-3,3'-bi-1,2,4-triazole-5,5'-diimine dimethyl sulfoxide solvate dihydrate"
_symmetry_cell_setting           triclinic
_symmetry_space_group_name_H-M   'P -1'
_symmetry_Int_Tables_number      2
_space_group_name_Hall           '-P 1'
loop_
_symmetry_equiv_pos_site_id
_symmetry_equiv_pos_as_xyz
1 x,y,z
2 -x,-y,-z
_cell_length_a                   6.3124(18)
_cell_length_b                   8.233(2)
_cell_length_c                   9.775(3)
_cell_angle_alpha                93.566(4)
_cell_angle_beta                 98.326(4)
_cell_angle_gamma                105.524(4)
_cell_volume                     481.592
_cell_formula_units_Z            1
loop_
_atom_site_label
_atom_site_type_symbol
_atom_site_fract_x
_atom_site_fract_y
_atom_site_fract_z
S1 S 0.35726(18) 0.34843(12) 0.62327(10)
O1 O 0.4856(7) 0.3021(4) 0.7502(3)
C1 C 0.0690(9) 0.2613(7) 0.6330(5)
H1 H 0.0417 0.1440 0.6485
H2 H -0.0206 0.2709 0.5474
H3 H 0.0311 0.3222 0.7085
C2 C 0.3718(10) 0.2059(7) 0.4846(5)
H4 H 0.5087 0.2488 0.4500
H5 H 0.2479 0.1941 0.4114
H6 H 0.3666 0.0974 0.5169
N1 N 0.8075(6) 0.2369(4) 0.2464(3)
N2 N 0.6336(5) 0.2704(4) 0.1743(3)
N3 N 0.2648(5) 0.1668(4) 0.0631(3)
H7 H 0.2483 0.2616 0.0380
N4 N 0.3987(5) -0.0267(4) 0.1517(3)
N5 N 0.1829(6) -0.1089(4) 0.0894(3)
O2 O 0.9832(6) 0.3562(4) 0.2747(4)
O3 O 0.8015(6) 0.0947(4) 0.2856(4)
C3 C 0.4480(6) 0.1399(4) 0.1359(3)
C4 C 0.1125(6) 0.0137(5) 0.0379(4)
H8 H 0.494(8) -0.089(6) 0.181(5)
N1A N -0.8075(6) -0.2369(4) -0.2464(3)
N2A N -0.6336(5) -0.2704(4) -0.1743(3)
N3A N -0.2648(5) -0.1668(4) -0.0631(3)
H7A H -0.2483 -0.2616 -0.0380
N4A N -0.3987(5) 0.0267(4) -0.1517(3)
N5A N -0.1829(6) 0.1089(4) -0.0894(3)
O2A O -0.9832(6) -0.3562(4) -0.2747(4)
O3A O -0.8015(6) -0.0947(4) -0.2856(4)
C3A C -0.4480(6) -0.1399(4) -0.1359(3)
C4A C -0.1125(6) -0.0137(5) -0.0379(4)
H8A H -0.494(8) 0.089(6) -0.181(5)
O4 O 0.7679(8) 0.5079(4) 0.9755(4)
H9 H 0.716(10) 0.452(7) 1.036(4)
H10 H 0.690(7) 0.461(5) 0.901(3)
loop_
_geom_bond_atom_site_label_1
_geom_bond_atom_site_label_2
_geom_bond_site_symmetry_1
_geom_bond_site_symmetry_2
S1 O1 1_555 1_555
C1 S1 1_555 1_555
H1 C1 1_555 1_555
H2 C1 1_555 1_555
H3 C1 1_555 1_555
C2 S1 1_555 1_555
H4 C2 1_555 1_555
H5 C2 1_555 1_555
H6 C2 1_555 1_555
N1 N2 1_555 1_555
N2 C3 1_555 1_555
N3 H7 1_555 1_555
N4 N5 1_555 1_555
N5 C4 1_555 1_555
O2 N1 1_555 1_555
O3 N1 1_555 1_555
C3 N3 1_555 1_555
C4 N3 1_555 1_555
H8 N4 1_555 1_555
O4 H9 1_555 1_555
H10 O4 1_555 1_555
N1A N2A 1_555 1_555
N2A C3A 1_555 1_555
N3A H7A 1_555 1_555
N4A N5A 1_555 1_555
N5A C4A 1_555 1_555
O2A N1A 1_555 1_555
O3A N1A 1_555 1_555
C3A N3A 1_555 1_555
C4A C4 1_555 1_555
H8A N4A 1_555 1_555
N4 C3 1_555 1_555
N3A C4A 1_555 1_555
N4A C3A 1_555 1_555

#END
