
#######################################################################
#
#                 Cambridge Crystallographic Data Centre
#                                CCDC 
#
#######################################################################
#
# If this CIF has been generated from an entry in the Cambridge 
# Structural Database, then it will include bibliographic, chemical, 
# crystal, experimental, refinement or atomic coordinate data resulting 
# from the CCDC's data processing and validation procedures.
#
#######################################################################

data_ALICUV
_chemical_formula_moiety         'C10 H15 N4 O2'
_chemical_name_systematic        
'(Z)-3-amino-3-(4,4,5,5-tetramethyl-4,5-dihydro-1H-imidazol-3-oxide-1-oxyl-2-yl)acrylonitrile radical'
_symmetry_cell_setting           triclinic
_symmetry_space_group_name_H-M   'P -1'
_symmetry_Int_Tables_number      2
_space_group_name_Hall           '-P 1'
loop_
_symmetry_equiv_pos_site_id
_symmetry_equiv_pos_as_xyz
1 x,y,z
2 -x,-y,-z
_cell_length_a                   7.0770(3)
_cell_length_b                   10.5767(4)
_cell_length_c                   15.8943(7)
_cell_angle_alpha                88.195(2)
_cell_angle_beta                 84.276(3)
_cell_angle_gamma                81.712(2)
_cell_volume                     1171.24
_exptl_crystal_colour            green
_exptl_crystal_description       prism
_cell_formula_units_Z            4
loop_
_atom_site_label
_atom_site_type_symbol
_atom_site_fract_x
_atom_site_fract_y
_atom_site_fract_z
O1 O 0.4111(3) 0.5119(2) 0.39684(15)
N1 N 0.5921(3) 0.4968(2) 0.37586(14)
C1 C 0.6829(4) 0.5905(3) 0.31754(17)
C2 C 0.6494(5) 0.5539(3) 0.2278(2)
H1 H 0.7045 0.6107 0.1873
H2 H 0.7087 0.4677 0.2171
H3 H 0.5141 0.5605 0.2232
C3 C 0.5881(5) 0.7252(3) 0.3364(2)
H4 H 0.6473 0.7840 0.2987
H5 H 0.4541 0.7327 0.3285
H6 H 0.6025 0.7447 0.3938
C4 C 0.8937(4) 0.5578(2) 0.33718(17)
C5 C 1.0427(4) 0.5674(3) 0.2633(2)
H7 H 1.0395 0.6551 0.2454
H8 H 1.1675 0.5352 0.2801
H9 H 1.0159 0.5178 0.2174
C6 C 0.9408(5) 0.6284(3) 0.4136(2)
H10 H 0.8446 0.6213 0.4599
H11 H 1.0640 0.5912 0.4299
H12 H 0.9431 0.7169 0.3989
N2 N 0.8975(3) 0.4201(2) 0.36598(13)
O2 O 1.0551(3) 0.34520(18) 0.36860(12)
C7 C 0.7199(4) 0.3939(2) 0.39224(16)
C8 C 0.6695(4) 0.2723(2) 0.42793(15)
N3 N 0.4851(4) 0.2543(3) 0.42218(18)
H13 H 0.448(5) 0.183(3) 0.440(2)
H14 H 0.398(5) 0.326(3) 0.4053(19)
C9 C 0.8053(4) 0.1848(3) 0.45892(18)
H15 H 0.927(5) 0.201(3) 0.460(2)
C10 C 0.7620(4) 0.0656(3) 0.4911(2)
N4 N 0.7296(4) -0.0318(3) 0.5168(2)
O3 O -0.1319(3) 1.0048(2) 0.10388(16)
N5 N 0.0400(3) 0.9892(2) 0.12533(15)
C11 C 0.1030(4) 1.0783(3) 0.18497(18)
C12 C 0.0114(5) 1.2139(3) 0.1687(2)
H16 H 0.0528 1.2700 0.2072
H17 H 0.0489 1.2391 0.1116
H18 H -0.1257 1.2186 0.1769
C13 C 0.0363(5) 1.0328(4) 0.2738(2)
H19 H 0.0731 1.0868 0.3149
H20 H -0.1007 1.0367 0.2794
H21 H 0.0946 0.9464 0.2828
C14 C 0.3227(4) 1.0505(2) 0.16392(17)
C15 C 0.4402(5) 1.0588(3) 0.2376(2)
H22 H 0.4259 1.1458 0.2555
H23 H 0.3962 1.0060 0.2836
H24 H 0.5728 1.0297 0.2204
C16 C 0.3984(5) 1.1268(3) 0.0881(2)
H25 H 0.3893 1.2149 0.1029
H26 H 0.5300 1.0935 0.0718
H27 H 0.3235 1.1200 0.0417
N6 N 0.3428(3) 0.9146(2) 0.13465(13)
O4 O 0.5030(3) 0.84220(18) 0.13056(13)
C17 C 0.1766(4) 0.8880(2) 0.10864(16)
C18 C 0.1438(4) 0.7674(2) 0.07338(16)
N7 N -0.0431(4) 0.7541(3) 0.07049(17)
H28 H -0.073(4) 0.689(3) 0.051(2)
H29 H -0.139(5) 0.830(3) 0.079(2)
C19 C 0.2937(4) 0.6759(3) 0.05102(19)
H30 H 0.428(4) 0.685(3) 0.0599(18)
C20 C 0.2614(4) 0.5568(3) 0.0212(2)
N8 N 0.2336(4) 0.4607(3) -0.0020(2)
loop_
_geom_bond_atom_site_label_1
_geom_bond_atom_site_label_2
_geom_bond_site_symmetry_1
_geom_bond_site_symmetry_2
O1 N1 1_555 1_555
N1 C1 1_555 1_555
C1 C2 1_555 1_555
C2 H1 1_555 1_555
H2 C2 1_555 1_555
H3 C2 1_555 1_555
C3 C1 1_555 1_555
H4 C3 1_555 1_555
H5 C3 1_555 1_555
H6 C3 1_555 1_555
C4 C1 1_555 1_555
C5 C4 1_555 1_555
H7 C5 1_555 1_555
H8 C5 1_555 1_555
H9 C5 1_555 1_555
C6 C4 1_555 1_555
H10 C6 1_555 1_555
H11 C6 1_555 1_555
H12 C6 1_555 1_555
N2 C4 1_555 1_555
O2 N2 1_555 1_555
C7 N1 1_555 1_555
C8 C7 1_555 1_555
N3 C8 1_555 1_555
H13 N3 1_555 1_555
H14 N3 1_555 1_555
C9 C8 1_555 1_555
H15 C9 1_555 1_555
C10 C9 1_555 1_555
N4 C10 1_555 1_555
O3 N5 1_555 1_555
N5 C11 1_555 1_555
C11 C12 1_555 1_555
C12 H16 1_555 1_555
H17 C12 1_555 1_555
H18 C12 1_555 1_555
C13 C11 1_555 1_555
H19 C13 1_555 1_555
H20 C13 1_555 1_555
H21 C13 1_555 1_555
C14 C11 1_555 1_555
C15 C14 1_555 1_555
H22 C15 1_555 1_555
H23 C15 1_555 1_555
H24 C15 1_555 1_555
C16 C14 1_555 1_555
H25 C16 1_555 1_555
H26 C16 1_555 1_555
H27 C16 1_555 1_555
N6 C14 1_555 1_555
O4 N6 1_555 1_555
C17 N5 1_555 1_555
C18 C17 1_555 1_555
N7 C18 1_555 1_555
H28 N7 1_555 1_555
H29 N7 1_555 1_555
C19 C18 1_555 1_555
H30 C19 1_555 1_555
C20 C19 1_555 1_555
N8 C20 1_555 1_555
N2 C7 1_555 1_555
N6 C17 1_555 1_555

#END
