
#######################################################################
#
#                 Cambridge Crystallographic Data Centre
#                                CCDC 
#
#######################################################################
#
# If this CIF has been generated from an entry in the Cambridge 
# Structural Database, then it will include bibliographic, chemical, 
# crystal, experimental, refinement or atomic coordinate data resulting 
# from the CCDC's data processing and validation procedures.
#
#######################################################################

data_ALIMIR
_chemical_formula_moiety         'C21 H15 N3,H2 O1'
_chemical_name_systematic        "2,6-bis(2'-indolyl)pyridine monohydrate"
_symmetry_cell_setting           monoclinic
_symmetry_space_group_name_H-M   'P 21/c'
_symmetry_Int_Tables_number      14
_space_group_name_Hall           '-P 2ybc'
loop_
_symmetry_equiv_pos_site_id
_symmetry_equiv_pos_as_xyz
1 x,y,z
2 x,1/2-y,1/2+z
3 -x,-y,-z
4 -x,1/2+y,1/2-z
_cell_length_a                   7.5246(19)
_cell_length_b                   20.374(6)
_cell_length_c                   11.264(3)
_cell_angle_alpha                90
_cell_angle_beta                 103.782(5)
_cell_angle_gamma                90
_cell_volume                     1677.12
_exptl_crystal_colour            'light yellow'
_exptl_crystal_description       needle
_cell_formula_units_Z            4
loop_
_atom_site_label
_atom_site_type_symbol
_atom_site_fract_x
_atom_site_fract_y
_atom_site_fract_z
N1 N 0.6393(4) 0.23331(18) 0.0156(3)
N2 N 1.0122(4) 0.41355(17) 0.0893(3)
N3 N 0.9340(4) 0.29613(17) -0.0293(3)
C1 C 0.5011(5) 0.1896(2) 0.0223(4)
C2 C 0.3709(6) 0.1908(3) 0.0907(4)
C3 C 0.2519(6) 0.1383(3) 0.0763(5)
C4 C 0.2628(6) 0.0867(3) -0.0044(5)
C5 C 0.3928(6) 0.0858(3) -0.0715(5)
C6 C 0.5141(5) 0.1388(2) -0.0588(4)
C7 C 0.6547(4) 0.15205(18) -0.1147(3)
H1 H 0.6917 0.1268 -0.1732
C8 C 0.7238(5) 0.2071(2) -0.0683(4)
C9 C 0.8848(5) 0.2409(2) -0.0934(4)
C10 C 0.9790(6) 0.2152(3) -0.1745(4)
C11 C 1.1307(6) 0.2481(2) -0.1894(4)
C12 C 1.1845(5) 0.3053(2) -0.1253(4)
C13 C 1.0833(5) 0.3274(2) -0.0461(3)
C14 C 1.1307(5) 0.3876(2) 0.0264(4)
C15 C 1.2798(4) 0.42239(17) 0.0376(3)
H2 H 1.3783 0.4137 0.0035
C16 C 1.2603(5) 0.4737(2) 0.1094(4)
C17 C 1.3773(6) 0.5271(2) 0.1514(5)
C18 C 1.3226(7) 0.5721(3) 0.2253(5)
C19 C 1.1552(7) 0.5666(3) 0.2598(5)
C20 C 1.0388(6) 0.5158(3) 0.2201(4)
C21 C 1.0937(5) 0.4699(2) 0.1446(4)
H3 H 0.411(5) 0.047(2) -0.127(4)
H4 H 1.304(5) 0.3299(19) -0.130(3)
H5 H 0.151(5) 0.1364(17) 0.127(3)
H6 H 0.920(5) 0.5091(18) 0.250(3)
H7 H 1.108(5) 0.606(2) 0.311(3)
H8 H 1.212(5) 0.231(2) -0.253(4)
H9 H 1.503(5) 0.5307(18) 0.124(3)
H10 H 0.386(7) 0.231(3) 0.156(5)
H11 H 0.173(5) 0.048(2) -0.024(4)
H12 H 0.939(7) 0.170(3) -0.213(5)
H13 H 0.880(6) 0.393(2) 0.083(4)
H14 H 0.680(6) 0.286(3) 0.054(5)
H15 H 1.397(7) 0.606(2) 0.251(5)
O1 O 0.6470(3) 0.36761(14) 0.1273(3)
loop_
_geom_bond_atom_site_label_1
_geom_bond_atom_site_label_2
_geom_bond_site_symmetry_1
_geom_bond_site_symmetry_2
N1 C1 1_555 1_555
N2 C14 1_555 1_555
N3 C9 1_555 1_555
C1 C2 1_555 1_555
C2 C3 1_555 1_555
C3 C4 1_555 1_555
C4 C5 1_555 1_555
C5 C6 1_555 1_555
C6 C1 1_555 1_555
C7 C6 1_555 1_555
H1 C7 1_555 1_555
C8 N1 1_555 1_555
C9 C8 1_555 1_555
C10 C9 1_555 1_555
C11 C10 1_555 1_555
C12 C11 1_555 1_555
C13 N3 1_555 1_555
C14 C13 1_555 1_555
C15 C14 1_555 1_555
H2 C15 1_555 1_555
C16 C15 1_555 1_555
C17 C16 1_555 1_555
C18 C17 1_555 1_555
C19 C18 1_555 1_555
C20 C19 1_555 1_555
C21 N2 1_555 1_555
H3 C5 1_555 1_555
H4 C12 1_555 1_555
H5 C3 1_555 1_555
H6 C20 1_555 1_555
H7 C19 1_555 1_555
H8 C11 1_555 1_555
H9 C17 1_555 1_555
H10 C2 1_555 1_555
H11 C4 1_555 1_555
H12 C10 1_555 1_555
H13 N2 1_555 1_555
H14 N1 1_555 1_555
H15 C18 1_555 1_555
C7 C8 1_555 1_555
C12 C13 1_555 1_555
C16 C21 1_555 1_555
C20 C21 1_555 1_555

#END
