
#######################################################################
#
#                 Cambridge Crystallographic Data Centre
#                                CCDC 
#
#######################################################################
#
# If this CIF has been generated from an entry in the Cambridge 
# Structural Database, then it will include bibliographic, chemical, 
# crystal, experimental, refinement or atomic coordinate data resulting 
# from the CCDC's data processing and validation procedures.
#
#######################################################################

data_ALIMEN
_chemical_formula_moiety         'C19 H13 N5'
_chemical_name_systematic        2,6-bis(2'-(7-aza-indolyl))pyridine
_symmetry_cell_setting           monoclinic
_symmetry_space_group_name_H-M   'P 21/c'
_symmetry_Int_Tables_number      14
_space_group_name_Hall           '-P 2ybc'
loop_
_symmetry_equiv_pos_site_id
_symmetry_equiv_pos_as_xyz
1 x,y,z
2 x,1/2-y,1/2+z
3 -x,-y,-z
4 -x,1/2+y,1/2-z
_cell_length_a                   11.056(2)
_cell_length_b                   14.719(3)
_cell_length_c                   9.870(2)
_cell_angle_alpha                90
_cell_angle_beta                 109.521(3)
_cell_angle_gamma                90
_cell_volume                     1513.85
_exptl_crystal_colour            yellow
_exptl_crystal_description       plate
_cell_formula_units_Z            4
loop_
_atom_site_label
_atom_site_type_symbol
_atom_site_fract_x
_atom_site_fract_y
_atom_site_fract_z
N1 N 0.49052(16) 0.08029(12) 0.82922(18)
N2 N 0.91804(15) -0.01636(12) 0.8014(2)
N3 N 0.66726(15) 0.05900(10) 0.67563(16)
N4 N 0.37160(15) 0.07303(11) 0.99332(19)
N5 N 1.10266(15) -0.09207(11) 0.96213(17)
C1 C 0.2644(2) 0.10338(15) 1.0126(3)
C2 C 0.1770(2) 0.16168(16) 0.9178(3)
C3 C 0.1994(2) 0.19348(16) 0.7976(3)
C4 C 0.31035(19) 0.16464(13) 0.7734(2)
C5 C 0.3677(2) 0.17654(14) 0.6653(3)
C6 C 0.47513(18) 0.12348(13) 0.6999(2)
C7 C 0.55840(18) 0.10626(12) 0.6144(2)
C8 C 0.5195(2) 0.13441(15) 0.4715(3)
C9 C 0.5927(2) 0.11306(15) 0.3883(3)
C10 C 0.7032(2) 0.06335(15) 0.4477(2)
C11 C 0.73751(19) 0.03813(12) 0.5912(2)
C12 C 0.85398(18) -0.01651(13) 0.6551(2)
C13 C 0.9144(2) -0.07540(15) 0.5914(2)
C14 C 1.01937(19) -0.11462(13) 0.7006(2)
C15 C 1.1132(2) -0.17962(15) 0.7104(3)
C16 C 1.1997(2) -0.19809(16) 0.8428(3)
C17 C 1.1928(2) -0.15382(15) 0.9630(3)
C18 C 0.38953(18) 0.10345(13) 0.8746(2)
C19 C 1.01914(18) -0.07557(13) 0.8313(2)
H1 H 0.5507(17) 0.0303(13) 0.876(2)
H2 H 0.8990(15) 0.0208(11) 0.8704(19)
H3 H 0.2533(17) 0.0795(13) 1.108(2)
H4 H 0.1008(16) 0.1772(11) 0.9413(19)
H5 H 0.1402(16) 0.2375(12) 0.7334(18)
H6 H 0.3352(14) 0.2135(11) 0.5777(16)
H7 H 0.4455(15) 0.1676(10) 0.4399(16)
H8 H 0.5684(15) 0.1359(11) 0.2919(17)
H9 H 0.7599(15) 0.0472(11) 0.3915(18)
H10 H 0.8912(14) -0.0868(11) 0.4884(18)
H11 H 1.1105(15) -0.2050(11) 0.6208(18)
H12 H 1.2632(15) -0.2411(11) 0.8529(17)
H13 H 1.2545(15) -0.1662(11) 1.0632(17)
loop_
_geom_bond_atom_site_label_1
_geom_bond_atom_site_label_2
_geom_bond_site_symmetry_1
_geom_bond_site_symmetry_2
N1 C6 1_555 1_555
N2 C12 1_555 1_555
N3 C7 1_555 1_555
N4 C1 1_555 1_555
N5 C17 1_555 1_555
C1 C2 1_555 1_555
C2 C3 1_555 1_555
C3 C4 1_555 1_555
C4 C5 1_555 1_555
C5 C6 1_555 1_555
C6 C7 1_555 1_555
C7 C8 1_555 1_555
C8 C9 1_555 1_555
C9 C10 1_555 1_555
C10 C11 1_555 1_555
C11 N3 1_555 1_555
C12 C11 1_555 1_555
C13 C12 1_555 1_555
C14 C13 1_555 1_555
C15 C14 1_555 1_555
C16 C15 1_555 1_555
C17 C16 1_555 1_555
C18 N1 1_555 1_555
C19 N2 1_555 1_555
H1 N1 1_555 1_555
H2 N2 1_555 1_555
H3 C1 1_555 1_555
H4 C2 1_555 1_555
H5 C3 1_555 1_555
H6 C5 1_555 1_555
H7 C8 1_555 1_555
H8 C9 1_555 1_555
H9 C10 1_555 1_555
H10 C13 1_555 1_555
H11 C15 1_555 1_555
H12 C16 1_555 1_555
H13 C17 1_555 1_555
N4 C18 1_555 1_555
N5 C19 1_555 1_555
C4 C18 1_555 1_555
C14 C19 1_555 1_555

#END
