
#######################################################################
#
#                 Cambridge Crystallographic Data Centre
#                                CCDC 
#
#######################################################################
#
# If this CIF has been generated from an entry in the Cambridge 
# Structural Database, then it will include bibliographic, chemical, 
# crystal, experimental, refinement or atomic coordinate data resulting 
# from the CCDC's data processing and validation procedures.
#
#######################################################################

data_ALINAM
_chemical_formula_moiety         'C20 H23 N5 O2'
_chemical_name_systematic        
8-methoxy-2-methyl-12-(morpholin-4-yl)-4,5-dihydro-3H-1,3,11,12b-tetraazabenzo[4,5]cycloocta[1,2,3-cd]indene
_symmetry_cell_setting           triclinic
_symmetry_space_group_name_H-M   'P -1'
_symmetry_Int_Tables_number      2
_space_group_name_Hall           '-P 1'
loop_
_symmetry_equiv_pos_site_id
_symmetry_equiv_pos_as_xyz
1 x,y,z
2 -x,-y,-z
_cell_length_a                   8.4854(7)
_cell_length_b                   10.6614(9)
_cell_length_c                   11.4907(9)
_cell_angle_alpha                84.482(5)
_cell_angle_beta                 71.307(5)
_cell_angle_gamma                68.303(5)
_cell_volume                     914.628
_exptl_crystal_colour            yellow
_exptl_crystal_description       prism
_cell_formula_units_Z            2
loop_
_atom_site_label
_atom_site_type_symbol
_atom_site_fract_x
_atom_site_fract_y
_atom_site_fract_z
O1 O 1.1259(2) -0.01243(18) -0.25825(15)
O2 O 0.0866(2) 0.65418(16) 0.53372(13)
N1 N 0.2798(2) 0.51437(17) 0.30232(14)
N2 N 0.4031(2) 0.36615(16) -0.00704(13)
N3 N 0.3848(2) 0.36358(18) -0.21737(15)
H1 H 0.4511 0.3880 -0.2820
N4 N 0.1870(2) 0.56630(17) 0.06299(14)
N5 N 0.4892(2) 0.31269(17) 0.20880(14)
C1 C 0.2691(3) 0.5714(3) 0.5060(2)
H2 H 0.2928 0.5324 0.5812
H3 H 0.3410 0.6269 0.4735
C2 C 0.3236(3) 0.4599(2) 0.41486(18)
H4 H 0.4509 0.4104 0.3949
H5 H 0.2628 0.3977 0.4507
C3 C 0.3601(3) 0.4258(2) 0.20190(17)
C4 C 0.3099(2) 0.4584(2) 0.09148(17)
C5 C 0.5437(3) 0.2484(2) -0.00060(17)
C6 C 0.6514(3) 0.1494(2) -0.10531(18)
C7 C 0.8359(3) 0.1114(2) -0.13874(18)
H6 H 0.8857 0.1527 -0.1001
C8 C 0.9462(3) 0.0125(2) -0.22905(19)
C9 C 1.2410(3) -0.0935(3) -0.3644(2)
H7 H 1.2431 -0.1843 -0.3510
H8 H 1.3592 -0.0933 -0.3810
H9 H 1.1988 -0.0580 -0.4333
C10 C 0.3319(3) 0.4242(2) -0.10144(17)
C11 C 0.3185(3) 0.2552(2) -0.2203(2)
H10 H 0.3591 0.2219 -0.3044
H11 H 0.1892 0.2927 -0.1948
C12 C 0.3771(3) 0.1368(2) -0.1392(2)
H12 H 0.3166 0.1644 -0.0535
H13 H 0.3444 0.0637 -0.1557
C13 C 0.5757(3) 0.0881(2) -0.1635(2)
C14 C 0.6894(3) -0.0131(2) -0.2501(2)
H14 H 0.6404 -0.0564 -0.2876
C15 C 0.8734(3) -0.0530(2) -0.2836(2)
H15 H 0.9463 -0.1223 -0.3416
C16 C 0.2009(3) 0.5445(2) -0.05520(17)
C17 C 0.0937(3) 0.6046(2) 0.32952(19)
H16 H 0.0162 0.5531 0.3609
H17 H 0.0722 0.6475 0.2549
C18 C 0.0524(3) 0.7107(2) 0.4233(2)
H18 H 0.1238 0.7662 0.3887
H19 H -0.0721 0.7686 0.4420
C19 C 0.5791(3) 0.2294(2) 0.10736(18)
H20 H 0.6740 0.1521 0.1132
C20 C 0.0850(3) 0.6437(2) -0.1207(2)
H21 H -0.0361 0.6492 -0.0829
H22 H 0.1237 0.6152 -0.2052
H23 H 0.0923 0.7307 -0.1163
loop_
_geom_bond_atom_site_label_1
_geom_bond_atom_site_label_2
_geom_bond_site_symmetry_1
_geom_bond_site_symmetry_2
O1 C8 1_555 1_555
O2 C1 1_555 1_555
N1 C2 1_555 1_555
N2 C4 1_555 1_555
N3 H1 1_555 1_555
N4 C4 1_555 1_555
N5 C3 1_555 1_555
C1 H2 1_555 1_555
H3 C1 1_555 1_555
C2 C1 1_555 1_555
H4 C2 1_555 1_555
H5 C2 1_555 1_555
C3 N1 1_555 1_555
C4 C3 1_555 1_555
C5 N2 1_555 1_555
C6 C5 1_555 1_555
C7 C6 1_555 1_555
H6 C7 1_555 1_555
C8 C7 1_555 1_555
C9 O1 1_555 1_555
H7 C9 1_555 1_555
H8 C9 1_555 1_555
H9 C9 1_555 1_555
C10 N2 1_555 1_555
C11 N3 1_555 1_555
H10 C11 1_555 1_555
H11 C11 1_555 1_555
C12 C11 1_555 1_555
H12 C12 1_555 1_555
H13 C12 1_555 1_555
C13 C6 1_555 1_555
C14 C13 1_555 1_555
H14 C14 1_555 1_555
C15 C8 1_555 1_555
H15 C15 1_555 1_555
C16 N4 1_555 1_555
C17 N1 1_555 1_555
H16 C17 1_555 1_555
H17 C17 1_555 1_555
C18 O2 1_555 1_555
H18 C18 1_555 1_555
H19 C18 1_555 1_555
C19 N5 1_555 1_555
H20 C19 1_555 1_555
C20 C16 1_555 1_555
H21 C20 1_555 1_555
H22 C20 1_555 1_555
H23 C20 1_555 1_555
N3 C10 1_555 1_555
C5 C19 1_555 1_555
C10 C16 1_555 1_555
C12 C13 1_555 1_555
C14 C15 1_555 1_555
C17 C18 1_555 1_555

#END
