
#######################################################################
#
#                 Cambridge Crystallographic Data Centre
#                                CCDC 
#
#######################################################################
#
# If this CIF has been generated from an entry in the Cambridge 
# Structural Database, then it will include bibliographic, chemical, 
# crystal, experimental, refinement or atomic coordinate data resulting 
# from the CCDC's data processing and validation procedures.
#
#######################################################################

data_ALINEQ
_chemical_formula_moiety         'C17 H14 N4 O6'
_chemical_name_systematic        
"ethyl 6'-amino-5'-cyano-2'-methyl-5-nitro-2-oxo-1,2-dihydrospiro[indole-3,4'-pyran]-3'-carboxylate"
_symmetry_cell_setting           monoclinic
_symmetry_space_group_name_H-M   'P 21/c'
_symmetry_Int_Tables_number      14
_space_group_name_Hall           '-P 2ybc'
loop_
_symmetry_equiv_pos_site_id
_symmetry_equiv_pos_as_xyz
1 x,y,z
2 -x,1/2+y,1/2-z
3 -x,-y,-z
4 x,1/2-y,1/2+z
_cell_length_a                   14.9385(8)
_cell_length_b                   9.3436(6)
_cell_length_c                   12.0269(7)
_cell_angle_alpha                90
_cell_angle_beta                 94.792(6)
_cell_angle_gamma                90
_cell_volume                     1672.84
_exptl_crystal_colour            white
_exptl_crystal_description       block
_cell_formula_units_Z            4
loop_
_atom_site_label
_atom_site_type_symbol
_atom_site_fract_x
_atom_site_fract_y
_atom_site_fract_z
N1 N 0.67218(15) -0.1126(2) 0.27001(18)
H1 H 0.6520 -0.1682 0.2167
C1 C 0.62973(17) 0.0066(3) 0.3002(2)
C2 C 0.68439(15) 0.0721(2) 0.4042(2)
C3 C 0.83595(16) -0.0356(3) 0.4951(2)
H2 H 0.8435 0.0317 0.5521
N2 N 0.97253(17) -0.1572(3) 0.5705(3)
O1 O 1.03125(15) -0.2451(3) 0.5584(2)
C4 C 0.89637(18) -0.1474(3) 0.4869(3)
O2 O 0.97476(16) -0.0752(3) 0.6498(2)
C5 C 0.8873(2) -0.2493(3) 0.4042(3)
H3 H 0.9307 -0.3200 0.4002
C6 C 0.81346(19) -0.2464(3) 0.3270(2)
H4 H 0.8050 -0.3159 0.2719
C7 C 0.75235(17) -0.1359(3) 0.3348(2)
C8 C 0.76483(16) -0.0288(3) 0.4157(2)
O3 O 0.55854(12) 0.05191(19) 0.25767(15)
C9 C 0.63119(16) 0.0594(3) 0.5051(2)
C10 C 0.59550(17) 0.1723(3) 0.5548(2)
O4 O 0.60411(12) 0.30765(18) 0.51587(16)
C11 C 0.65937(17) 0.3343(3) 0.4317(2)
C12 C 0.70192(16) 0.2308(3) 0.3815(2)
C13 C 0.62380(17) -0.0773(3) 0.5552(2)
N3 N 0.61748(18) -0.1866(3) 0.5958(2)
N4 N 0.54903(15) 0.1724(2) 0.64459(19)
H5 H 0.5389 0.0932 0.6777
H6 H 0.5292 0.2516 0.6694
C14 C 0.6584(2) 0.4916(3) 0.4116(3)
H7 H 0.6211 0.5372 0.4624
H8 H 0.6349 0.5106 0.3363
H9 H 0.7184 0.5284 0.4231
C15 C 0.76107(17) 0.2679(3) 0.2923(2)
O5 O 0.78524(14) 0.3866(2) 0.2685(2)
O6 O 0.78464(12) 0.15177(19) 0.23847(16)
C16 C 0.8479(2) 0.1692(3) 0.1540(2)
H10 H 0.8995 0.2245 0.1836
H11 H 0.8196 0.2190 0.0896
C17 C 0.8767(2) 0.0233(3) 0.1216(3)
H12 H 0.9188 0.0311 0.0659
H13 H 0.8252 -0.0301 0.0921
H14 H 0.9045 -0.0249 0.1860
loop_
_geom_bond_atom_site_label_1
_geom_bond_atom_site_label_2
_geom_bond_site_symmetry_1
_geom_bond_site_symmetry_2
N1 H1 1_555 1_555
C1 N1 1_555 1_555
C2 C1 1_555 1_555
C3 H2 1_555 1_555
N2 O1 1_555 1_555
C4 C3 1_555 1_555
O2 N2 1_555 1_555
C5 C4 1_555 1_555
H3 C5 1_555 1_555
C6 C5 1_555 1_555
H4 C6 1_555 1_555
C7 N1 1_555 1_555
C8 C2 1_555 1_555
O3 C1 1_555 1_555
C9 C2 1_555 1_555
C10 C9 1_555 1_555
O4 C10 1_555 1_555
C11 O4 1_555 1_555
C12 C2 1_555 1_555
C13 C9 1_555 1_555
N3 C13 1_555 1_555
N4 C10 1_555 1_555
H5 N4 1_555 1_555
H6 N4 1_555 1_555
C14 C11 1_555 1_555
H7 C14 1_555 1_555
H8 C14 1_555 1_555
H9 C14 1_555 1_555
C15 C12 1_555 1_555
O5 C15 1_555 1_555
O6 C15 1_555 1_555
C16 O6 1_555 1_555
H10 C16 1_555 1_555
H11 C16 1_555 1_555
C17 C16 1_555 1_555
H12 C17 1_555 1_555
H13 C17 1_555 1_555
H14 C17 1_555 1_555
C3 C8 1_555 1_555
N2 C4 1_555 1_555
C6 C7 1_555 1_555
C7 C8 1_555 1_555
C11 C12 1_555 1_555

#END
