
#######################################################################
#
#                 Cambridge Crystallographic Data Centre
#                                CCDC 
#
#######################################################################
#
# If this CIF has been generated from an entry in the Cambridge 
# Structural Database, then it will include bibliographic, chemical, 
# crystal, experimental, refinement or atomic coordinate data resulting 
# from the CCDC's data processing and validation procedures.
#
#######################################################################

data_ALOCAF
_chemical_formula_moiety         'C13 H23 B1 O1'
_chemical_name_systematic        1-(Tetrahydrofuran-O)-1-boraadamantane
_symmetry_cell_setting           monoclinic
_symmetry_space_group_name_H-M   'P 21/c'
_symmetry_Int_Tables_number      14
_space_group_name_Hall           '-P 2ybc'
loop_
_symmetry_equiv_pos_site_id
_symmetry_equiv_pos_as_xyz
1 x,y,z
2 x,1/2-y,1/2+z
3 -x,-y,-z
4 -x,1/2+y,1/2-z
_cell_length_a                   13.4244(7)
_cell_length_b                   19.1277(10)
_cell_length_c                   9.5488(5)
_cell_angle_alpha                90
_cell_angle_beta                 102.4800(10)
_cell_angle_gamma                90
_cell_volume                     2393.99
_exptl_crystal_colour            colorless
_exptl_crystal_description       rod
_chemical_melting_point          89-91deg.C
_cell_formula_units_Z            8
_chemical_properties_physical    air-sensitive
_exptl_crystal_recrystallization_method sublimation
loop_
_atom_site_label
_atom_site_type_symbol
_atom_site_fract_x
_atom_site_fract_y
_atom_site_fract_z
O1 O 0.16389(8) 0.65229(6) 0.56464(12)
B1 B 0.10248(14) 0.63306(10) 0.4017(2)
C1 C -0.01454(13) 0.65615(9) 0.38662(19)
C2 C 0.15388(14) 0.67808(9) 0.29328(19)
C3 C 0.11016(14) 0.55059(9) 0.36985(19)
C4 C -0.06934(13) 0.64101(9) 0.23015(19)
C5 C -0.01971(14) 0.68254(10) 0.1260(2)
C6 C 0.09242(14) 0.66160(10) 0.14049(19)
C7 C 0.09796(15) 0.58284(10) 0.1109(2)
C8 C 0.04975(14) 0.53977(9) 0.21439(19)
C9 C -0.06153(14) 0.56258(9) 0.2002(2)
C10 C 0.12880(14) 0.62140(10) 0.68720(19)
C11 C 0.22485(15) 0.59683(12) 0.7882(2)
C12 C 0.30704(15) 0.64435(11) 0.7549(2)
C13 C 0.27615(13) 0.65159(12) 0.5949(2)
H1 H -0.0220(14) 0.7063(11) 0.406(2)
H2 H -0.0493(13) 0.6293(10) 0.4559(19)
H3 H 0.2268(15) 0.6666(10) 0.2990(19)
H4 H 0.1514(13) 0.7307(10) 0.3101(19)
H5 H 0.1798(14) 0.5342(9) 0.3789(19)
H6 H 0.0804(14) 0.5212(10) 0.436(2)
H7 H -0.1423(14) 0.6522(9) 0.2107(19)
H8 H -0.0584(14) 0.6751(10) 0.025(2)
H9 H -0.0246(13) 0.7348(10) 0.1456(19)
H10 H 0.1199(13) 0.6875(9) 0.0661(19)
H11 H 0.0612(14) 0.5735(10) 0.007(2)
H12 H 0.1702(15) 0.5676(10) 0.120(2)
H13 H 0.0508(13) 0.4897(10) 0.1875(19)
H14 H -0.0944(13) 0.5364(9) 0.2699(19)
H15 H -0.1014(15) 0.5517(10) 0.102(2)
H16 H 0.0780(14) 0.5818(9) 0.6488(19)
H17 H 0.0946(14) 0.6597(10) 0.728(2)
H18 H 0.2384(16) 0.5477(12) 0.769(2)
H19 H 0.2184(16) 0.5997(11) 0.888(3)
H20 H 0.3064(16) 0.6905(12) 0.800(2)
H21 H 0.3748(15) 0.6235(10) 0.783(2)
H22 H 0.2969(15) 0.6958(11) 0.559(2)
H23 H 0.2986(15) 0.6113(11) 0.547(2)
O2 O 0.33424(8) 0.34244(6) 0.43259(12)
B2 B 0.39771(14) 0.36275(10) 0.5949(2)
C14 C 0.33972(14) 0.42393(9) 0.66218(19)
C15 C 0.50937(13) 0.38791(10) 0.58133(19)
C16 C 0.40604(15) 0.29317(9) 0.69177(19)
C17 C 0.40573(14) 0.43810(10) 0.8132(2)
C18 C 0.51257(15) 0.46194(10) 0.8008(2)
C19 C 0.56817(14) 0.40454(10) 0.7355(2)
C20 C 0.57578(14) 0.33864(10) 0.8285(2)
C21 C 0.46986(14) 0.31313(10) 0.84106(19)
C22 C 0.41509(15) 0.37153(10) 0.9056(2)
C23 C 0.23084(13) 0.31283(10) 0.4144(2)
C24 C 0.16602(15) 0.35650(11) 0.2976(2)
C25 C 0.24059(14) 0.37800(11) 0.2055(2)
C26 C 0.33689(15) 0.39179(10) 0.31514(19)
H24 H 0.2698(15) 0.4119(10) 0.672(2)
H25 H 0.3323(14) 0.4677(10) 0.605(2)
H26 H 0.5098(15) 0.4303(11) 0.519(2)
H27 H 0.5465(14) 0.3499(10) 0.541(2)
H28 H 0.3379(14) 0.2752(9) 0.7022(19)
H29 H 0.4387(15) 0.2520(11) 0.653(2)
H30 H 0.3754(14) 0.4749(10) 0.8636(19)
H31 H 0.5057(15) 0.5056(11) 0.740(2)
H32 H 0.5534(14) 0.4743(10) 0.896(2)
H33 H 0.6392(15) 0.4219(10) 0.732(2)
H34 H 0.6174(14) 0.3494(9) 0.926(2)
H35 H 0.6125(14) 0.2999(10) 0.786(2)
H36 H 0.4760(14) 0.2713(10) 0.906(2)
H37 H 0.4544(14) 0.3817(10) 1.004(2)
H38 H 0.3452(15) 0.3550(10) 0.9120(19)
H39 H 0.2113(13) 0.3162(9) 0.509(2)
H40 H 0.2358(13) 0.2625(10) 0.3844(19)
H41 H 0.1426(15) 0.3985(11) 0.339(2)
H42 H 0.1080(16) 0.3292(11) 0.244(2)
H43 H 0.2172(15) 0.4208(11) 0.147(2)
H44 H 0.2490(14) 0.3392(10) 0.140(2)
H45 H 0.3383(14) 0.4388(10) 0.354(2)
H46 H 0.4019(15) 0.3807(10) 0.284(2)
loop_
_geom_bond_atom_site_label_1
_geom_bond_atom_site_label_2
_geom_bond_site_symmetry_1
_geom_bond_site_symmetry_2
O1 B1 1_555 1_555
B1 C1 1_555 1_555
C1 C4 1_555 1_555
C2 B1 1_555 1_555
C3 B1 1_555 1_555
C4 C5 1_555 1_555
C5 C6 1_555 1_555
C6 C2 1_555 1_555
C7 C6 1_555 1_555
C8 C3 1_555 1_555
C9 C4 1_555 1_555
C10 O1 1_555 1_555
C11 C10 1_555 1_555
C12 C11 1_555 1_555
C13 O1 1_555 1_555
H1 C1 1_555 1_555
H2 C1 1_555 1_555
H3 C2 1_555 1_555
H4 C2 1_555 1_555
H5 C3 1_555 1_555
H6 C3 1_555 1_555
H7 C4 1_555 1_555
H8 C5 1_555 1_555
H9 C5 1_555 1_555
H10 C6 1_555 1_555
H11 C7 1_555 1_555
H12 C7 1_555 1_555
H13 C8 1_555 1_555
H14 C9 1_555 1_555
H15 C9 1_555 1_555
H16 C10 1_555 1_555
H17 C10 1_555 1_555
H18 C11 1_555 1_555
H19 C11 1_555 1_555
H20 C12 1_555 1_555
H21 C12 1_555 1_555
H22 C13 1_555 1_555
H23 C13 1_555 1_555
O2 B2 1_555 1_555
B2 C14 1_555 1_555
C14 C17 1_555 1_555
C15 B2 1_555 1_555
C16 B2 1_555 1_555
C17 C18 1_555 1_555
C18 C19 1_555 1_555
C19 C15 1_555 1_555
C20 C19 1_555 1_555
C21 C16 1_555 1_555
C22 C17 1_555 1_555
C23 O2 1_555 1_555
C24 C23 1_555 1_555
C25 C24 1_555 1_555
C26 O2 1_555 1_555
H24 C14 1_555 1_555
H25 C14 1_555 1_555
H26 C15 1_555 1_555
H27 C15 1_555 1_555
H28 C16 1_555 1_555
H29 C16 1_555 1_555
H30 C17 1_555 1_555
H31 C18 1_555 1_555
H32 C18 1_555 1_555
H33 C19 1_555 1_555
H34 C20 1_555 1_555
H35 C20 1_555 1_555
H36 C21 1_555 1_555
H37 C22 1_555 1_555
H38 C22 1_555 1_555
H39 C23 1_555 1_555
H40 C23 1_555 1_555
H41 C24 1_555 1_555
H42 C24 1_555 1_555
H43 C25 1_555 1_555
H44 C25 1_555 1_555
H45 C26 1_555 1_555
H46 C26 1_555 1_555
C7 C8 1_555 1_555
C8 C9 1_555 1_555
C12 C13 1_555 1_555
C20 C21 1_555 1_555
C21 C22 1_555 1_555
C25 C26 1_555 1_555

#END
