
#######################################################################
#
#                 Cambridge Crystallographic Data Centre
#                                CCDC 
#
#######################################################################
#
# If this CIF has been generated from an entry in the Cambridge 
# Structural Database, then it will include bibliographic, chemical, 
# crystal, experimental, refinement or atomic coordinate data resulting 
# from the CCDC's data processing and validation procedures.
#
#######################################################################

data_ALOKAP
_chemical_formula_moiety         'C29 H36 O3 S1'
_chemical_name_systematic        
4a,7,7,10a-Tetramethyl-3-phenyl-2-(phenylsulfonyl)-4a,5,6,6a,7,8,9,10,10a,10b-decahydro-1H-benzo[f]chromene
_symmetry_cell_setting           orthorhombic
_symmetry_space_group_name_H-M   'P 21 21 21'
_symmetry_Int_Tables_number      19
_space_group_name_Hall           'P 2ac 2ab'
loop_
_symmetry_equiv_pos_site_id
_symmetry_equiv_pos_as_xyz
1 x,y,z
2 1/2-x,-y,1/2+z
3 -x,1/2+y,1/2-z
4 1/2+x,1/2-y,-z
_cell_length_a                   6.2765(3)
_cell_length_b                   14.2655(7)
_cell_length_c                   27.0870(14)
_cell_angle_alpha                90
_cell_angle_beta                 90
_cell_angle_gamma                90
_cell_volume                     2425.3
_exptl_crystal_colour            colorless
_cell_formula_units_Z            4
loop_
_atom_site_label
_atom_site_type_symbol
_atom_site_fract_x
_atom_site_fract_y
_atom_site_fract_z
C1 C 0.7538(4) 0.58098(18) 0.33773(9)
C2 C 0.6902(4) 0.68071(19) 0.32647(10)
H1 H 0.5538 0.6812 0.3081
H2 H 0.8002 0.7106 0.3055
C3 C 0.6656(4) 0.73552(18) 0.37429(9)
H3 H 0.8124 0.7389 0.3885
C4 C 0.5371(4) 0.67784(18) 0.41143(9)
C5 C 0.7465(4) 0.54471(18) 0.38348(9)
C6 C 0.5940(4) 0.83967(19) 0.36841(9)
C7 C 0.7540(4) 0.88900(19) 0.33455(10)
H4 H 0.9004 0.8727 0.3451
H5 H 0.7347 0.8659 0.3004
C8 C 0.7289(5) 0.9957(2) 0.33506(10)
H6 H 0.8395 1.0243 0.3138
H7 H 0.5878 1.0127 0.3214
C9 C 0.7491(4) 1.03430(19) 0.38719(10)
H8 H 0.7277 1.1030 0.3861
H9 H 0.8958 1.0227 0.3991
C10 C 0.5907(4) 0.99204(19) 0.42462(10)
C11 C 0.6081(4) 0.88319(18) 0.42098(10)
H10 H 0.7560 0.8686 0.4324
C12 C 0.4629(4) 0.83014(19) 0.45695(10)
H11 H 0.4700 0.8600 0.4899
H12 H 0.3137 0.8337 0.4452
C13 C 0.5299(4) 0.72773(18) 0.46107(10)
H13 H 0.6727 0.7245 0.4765
H14 H 0.4287 0.6945 0.4830
C14 C 0.3165(4) 0.6451(2) 0.39495(11)
H15 H 0.3262 0.6175 0.3619
H16 H 0.2191 0.6988 0.3941
H17 H 0.2626 0.5982 0.4182
C15 C 0.3702(4) 0.8471(2) 0.34493(10)
H18 H 0.3537 0.9088 0.3295
H19 H 0.2615 0.8391 0.3706
H20 H 0.3535 0.7981 0.3199
C16 C 0.3664(4) 1.0309(2) 0.41614(11)
H21 H 0.2659 0.9991 0.4382
H22 H 0.3244 1.0201 0.3818
H23 H 0.3652 1.0983 0.4230
C17 C 0.6626(5) 1.0229(2) 0.47641(10)
H24 H 0.6783 1.0912 0.4772
H25 H 0.7995 0.9934 0.4843
H26 H 0.5558 1.0036 0.5008
C18 C 0.7566(4) 0.40510(18) 0.28805(9)
C19 C 0.5428(4) 0.3862(2) 0.29623(10)
H27 H 0.4436 0.4357 0.3012
C20 C 0.4775(5) 0.2934(2) 0.29704(11)
H28 H 0.3324 0.2788 0.3034
C21 C 0.6220(5) 0.2220(2) 0.28868(10)
H29 H 0.5750 0.1587 0.2891
C22 C 0.8339(5) 0.24165(19) 0.27971(10)
H30 H 0.9320 0.1923 0.2736
C23 C 0.9021(4) 0.3339(2) 0.27974(10)
H31 H 1.0479 0.3483 0.2741
C24 C 0.8198(4) 0.45130(17) 0.40082(9)
C25 C 0.6807(5) 0.39669(19) 0.42906(10)
H32 H 0.5429 0.4198 0.4370
C26 C 0.7431(5) 0.3093(2) 0.44544(11)
H33 H 0.6474 0.2721 0.4643
C27 C 0.9448(5) 0.2756(2) 0.43457(11)
H34 H 0.9863 0.2150 0.4456
C28 C 1.0852(5) 0.3299(2) 0.40778(10)
H35 H 1.2247 0.3074 0.4011
C29 C 1.0235(4) 0.41749(19) 0.39050(10)
H36 H 1.1199 0.4543 0.3717
O1 O 1.0803(3) 0.51927(14) 0.28590(7)
O2 O 0.7510(3) 0.56622(13) 0.24343(6)
O3 O 0.6596(3) 0.59241(12) 0.42216(6)
S1 S 0.85026(10) 0.52164(4) 0.28539(2)
loop_
_geom_bond_atom_site_label_1
_geom_bond_atom_site_label_2
_geom_bond_site_symmetry_1
_geom_bond_site_symmetry_2
C1 C2 1_555 1_555
C2 H1 1_555 1_555
H2 C2 1_555 1_555
C3 C2 1_555 1_555
H3 C3 1_555 1_555
C4 C3 1_555 1_555
C5 C1 1_555 1_555
C6 C3 1_555 1_555
C7 C6 1_555 1_555
H4 C7 1_555 1_555
H5 C7 1_555 1_555
C8 C7 1_555 1_555
H6 C8 1_555 1_555
H7 C8 1_555 1_555
C9 C8 1_555 1_555
H8 C9 1_555 1_555
H9 C9 1_555 1_555
C10 C9 1_555 1_555
C11 C6 1_555 1_555
H10 C11 1_555 1_555
C12 C11 1_555 1_555
H11 C12 1_555 1_555
H12 C12 1_555 1_555
C13 C4 1_555 1_555
H13 C13 1_555 1_555
H14 C13 1_555 1_555
C14 C4 1_555 1_555
H15 C14 1_555 1_555
H16 C14 1_555 1_555
H17 C14 1_555 1_555
C15 C6 1_555 1_555
H18 C15 1_555 1_555
H19 C15 1_555 1_555
H20 C15 1_555 1_555
C16 C10 1_555 1_555
H21 C16 1_555 1_555
H22 C16 1_555 1_555
H23 C16 1_555 1_555
C17 C10 1_555 1_555
H24 C17 1_555 1_555
H25 C17 1_555 1_555
H26 C17 1_555 1_555
C18 C19 1_555 1_555
C19 H27 1_555 1_555
C20 C19 1_555 1_555
H28 C20 1_555 1_555
C21 C20 1_555 1_555
H29 C21 1_555 1_555
C22 C21 1_555 1_555
H30 C22 1_555 1_555
C23 C18 1_555 1_555
H31 C23 1_555 1_555
C24 C5 1_555 1_555
C25 C24 1_555 1_555
H32 C25 1_555 1_555
C26 C25 1_555 1_555
H33 C26 1_555 1_555
C27 C26 1_555 1_555
H34 C27 1_555 1_555
C28 C27 1_555 1_555
H35 C28 1_555 1_555
C29 C24 1_555 1_555
H36 C29 1_555 1_555
O1 S1 1_555 1_555
O2 S1 1_555 1_555
O3 C4 1_555 1_555
S1 C1 1_555 1_555
C5 O3 1_555 1_555
C10 C11 1_555 1_555
C12 C13 1_555 1_555
C18 S1 1_555 1_555
C22 C23 1_555 1_555
C28 C29 1_555 1_555

#END
