
#######################################################################
#
#                 Cambridge Crystallographic Data Centre
#                                CCDC 
#
#######################################################################
#
# If this CIF has been generated from an entry in the Cambridge 
# Structural Database, then it will include bibliographic, chemical, 
# crystal, experimental, refinement or atomic coordinate data resulting 
# from the CCDC's data processing and validation procedures.
#
#######################################################################

data_ALOPAU
_chemical_name_common            
'2,5-Dioxopyrrolidin-1-yl 1,4,7(1,4)-tribenzenacyclononaphane-1$2!-carboxylate'
_chemical_formula_moiety         'C29 H27 N1 O4'
_chemical_name_systematic        
1-((Tetracyclo[14.2.2.2^4,7^.2^10,13^]tetracosa-1(18),4,6,10,12,16,19,21,23-nonaen-5-ylcarbonyl)oxy)pyrrolidine-2,5-dione
_symmetry_cell_setting           monoclinic
_symmetry_space_group_name_H-M   'P 21/c'
_symmetry_Int_Tables_number      14
_space_group_name_Hall           '-P 2ybc'
loop_
_symmetry_equiv_pos_site_id
_symmetry_equiv_pos_as_xyz
1 x,y,z
2 -x,1/2+y,1/2-z
3 -x,-y,-z
4 x,1/2-y,1/2+z
_cell_length_a                   20.9360(5)
_cell_length_b                   9.4680(3)
_cell_length_c                   12.3350(4)
_cell_angle_alpha                90
_cell_angle_beta                 100.794(4)
_cell_angle_gamma                90
_cell_volume                     2401.81
_exptl_crystal_colour            colorless
_exptl_crystal_description       blocks
_cell_formula_units_Z            4
loop_
_atom_site_label
_atom_site_type_symbol
_atom_site_fract_x
_atom_site_fract_y
_atom_site_fract_z
C1 C 0.14575(10) 0.2570(2) 0.51037(18)
H1 H 0.1261 0.1621 0.4960
H2 H 0.1314 0.3150 0.4434
C2 C 0.11992(9) 0.3245(2) 0.60712(18)
H3 H 0.0735 0.3492 0.5821
H4 H 0.1225 0.2542 0.6672
C3 C 0.15690(9) 0.4563(2) 0.65272(16)
C4 C 0.16069(8) 0.5790(2) 0.59093(15)
C5 C 0.20148(9) 0.6915(2) 0.63340(16)
H5 H 0.2048 0.7713 0.5881
C6 C 0.23702(9) 0.6883(2) 0.74015(16)
C7 C 0.23131(10) 0.5680(2) 0.80236(17)
H6 H 0.2542 0.5633 0.8764
C8 C 0.19319(10) 0.4555(2) 0.75903(17)
H7 H 0.1917 0.3743 0.8037
C9 C 0.27864(10) 0.8141(2) 0.78494(19)
H8 H 0.2546 0.8713 0.8312
H9 H 0.2854 0.8737 0.7222
C10 C 0.34541(10) 0.7750(3) 0.85382(18)
H10 H 0.3717 0.8619 0.8708
H11 H 0.3392 0.7330 0.9246
C11 C 0.38201(9) 0.6717(3) 0.79451(18)
C12 C 0.39928(11) 0.7074(3) 0.69582(19)
H12 H 0.3920 0.8009 0.6684
C13 C 0.42710(10) 0.6089(3) 0.63603(19)
H13 H 0.4386 0.6363 0.5681
C14 C 0.43869(9) 0.4703(3) 0.67282(19)
C15 C 0.42471(11) 0.4378(3) 0.7747(2)
H14 H 0.4344 0.3460 0.8044
C16 C 0.39668(11) 0.5362(3) 0.83493(19)
H15 H 0.3874 0.5106 0.9048
C17 C 0.46397(11) 0.3616(3) 0.6014(2)
H16 H 0.5111 0.3486 0.6293
H17 H 0.4587 0.3992 0.5254
C18 C 0.43081(11) 0.2173(3) 0.5969(2)
H18 H 0.4447 0.1695 0.6689
H19 H 0.4458 0.1591 0.5400
C19 C 0.35642(10) 0.2239(2) 0.57111(19)
C20 C 0.32335(11) 0.3052(3) 0.48547(19)
H20 H 0.3472 0.3554 0.4394
C21 C 0.25554(11) 0.3151(2) 0.46540(18)
H21 H 0.2341 0.3724 0.4065
C22 C 0.21909(10) 0.2427(2) 0.52987(17)
C23 C 0.25240(11) 0.1596(3) 0.6148(2)
H22 H 0.2287 0.1073 0.6599
C24 C 0.31985(11) 0.1519(3) 0.6347(2)
H23 H 0.3414 0.0952 0.6940
C25 C 0.11760(9) 0.5964(2) 0.48220(15)
O1 O 0.06351(6) 0.55400(16) 0.45382(11)
O2 O 0.14778(6) 0.67823(14) 0.41200(10)
N1 N 0.10534(7) 0.70476(18) 0.31401(12)
C26 C 0.06163(9) 0.8164(2) 0.30550(17)
O3 O 0.06058(8) 0.90093(18) 0.37801(13)
C27 C 0.01988(10) 0.8036(3) 0.19292(17)
H24 H 0.0269 0.8850 0.1462
H25 H -0.0267 0.7999 0.1982
C28 C 0.04081(10) 0.6655(2) 0.14440(17)
H26 H 0.0039 0.5985 0.1291
H27 H 0.0563 0.6841 0.0747
C29 C 0.09485(10) 0.6058(2) 0.22994(16)
O4 O 0.12505(8) 0.49721(17) 0.23118(13)
loop_
_geom_bond_atom_site_label_1
_geom_bond_atom_site_label_2
_geom_bond_site_symmetry_1
_geom_bond_site_symmetry_2
C1 H1 1_555 1_555
H2 C1 1_555 1_555
C2 C1 1_555 1_555
H3 C2 1_555 1_555
H4 C2 1_555 1_555
C3 C2 1_555 1_555
C4 C3 1_555 1_555
C5 C4 1_555 1_555
H5 C5 1_555 1_555
C6 C5 1_555 1_555
C7 C6 1_555 1_555
H6 C7 1_555 1_555
C8 C3 1_555 1_555
H7 C8 1_555 1_555
C9 C6 1_555 1_555
H8 C9 1_555 1_555
H9 C9 1_555 1_555
C10 C9 1_555 1_555
H10 C10 1_555 1_555
H11 C10 1_555 1_555
C11 C10 1_555 1_555
C12 C11 1_555 1_555
H12 C12 1_555 1_555
C13 C12 1_555 1_555
H13 C13 1_555 1_555
C14 C13 1_555 1_555
C15 C14 1_555 1_555
H14 C15 1_555 1_555
C16 C11 1_555 1_555
H15 C16 1_555 1_555
C17 C14 1_555 1_555
H16 C17 1_555 1_555
H17 C17 1_555 1_555
C18 C17 1_555 1_555
H18 C18 1_555 1_555
H19 C18 1_555 1_555
C19 C18 1_555 1_555
C20 C19 1_555 1_555
H20 C20 1_555 1_555
C21 C20 1_555 1_555
H21 C21 1_555 1_555
C22 C1 1_555 1_555
C23 C22 1_555 1_555
H22 C23 1_555 1_555
C24 C19 1_555 1_555
H23 C24 1_555 1_555
C25 C4 1_555 1_555
O1 C25 1_555 1_555
O2 C25 1_555 1_555
N1 O2 1_555 1_555
C26 N1 1_555 1_555
O3 C26 1_555 1_555
C27 C26 1_555 1_555
H24 C27 1_555 1_555
H25 C27 1_555 1_555
C28 C27 1_555 1_555
H26 C28 1_555 1_555
H27 C28 1_555 1_555
C29 N1 1_555 1_555
O4 C29 1_555 1_555
C7 C8 1_555 1_555
C15 C16 1_555 1_555
C21 C22 1_555 1_555
C23 C24 1_555 1_555
C28 C29 1_555 1_555

#END
