
#######################################################################
#
#                 Cambridge Crystallographic Data Centre
#                                CCDC 
#
#######################################################################
#
# If this CIF has been generated from an entry in the Cambridge 
# Structural Database, then it will include bibliographic, chemical, 
# crystal, experimental, refinement or atomic coordinate data resulting 
# from the CCDC's data processing and validation procedures.
#
#######################################################################

data_ALUBIU
_chemical_formula_moiety         'C19 H11 N7 O10,2(C2 H6 O1 S1)'
_chemical_name_systematic        
"N,N'-bis(3,5-dinitrophenyl)pyridine-2,6-dicarboxamide dimethyl sulfoxide solvate"
_symmetry_cell_setting           monoclinic
_symmetry_space_group_name_H-M   'P 21/c'
_symmetry_Int_Tables_number      14
_space_group_name_Hall           '-P 2ybc'
loop_
_symmetry_equiv_pos_site_id
_symmetry_equiv_pos_as_xyz
1 x,y,z
2 -x,1/2+y,1/2-z
3 -x,-y,-z
4 x,1/2-y,1/2+z
_cell_length_a                   10.4595(3)
_cell_length_b                   23.6137(7)
_cell_length_c                   22.8537(6)
_cell_angle_alpha                90
_cell_angle_beta                 97.7270(10)
_cell_angle_gamma                90
_cell_volume                     5593.33
_exptl_crystal_colour            colorless
_exptl_crystal_description       Block
_cell_formula_units_Z            8
loop_
_atom_site_label
_atom_site_type_symbol
_atom_site_fract_x
_atom_site_fract_y
_atom_site_fract_z
O1 O -0.4004(3) 0.75462(16) 1.05195(15)
O2 O -0.5223(3) 0.74900(15) 0.96762(15)
O3 O -0.3903(3) 0.63681(14) 0.81037(14)
O4 O -0.2037(3) 0.59611(15) 0.82411(14)
O5 O -0.0821(3) 0.64143(13) 1.12716(12)
O6 O 0.4228(3) 0.46045(13) 1.07871(13)
O7 O 0.5979(3) 0.35218(15) 0.95435(14)
O8 O 0.5444(4) 0.33574(15) 0.86128(15)
O9 O 0.1912(3) 0.43944(15) 0.75106(14)
O10 O 0.0972(3) 0.50512(17) 0.79505(14)
N1 N -0.4256(4) 0.73654(16) 1.00124(17)
N2 N -0.2892(4) 0.62436(16) 0.84100(16)
N3 N -0.0401(3) 0.61574(16) 1.03465(15)
H1 H 0.017(5) 0.600(2) 1.018(2)
N4 N 0.1667(3) 0.55746(15) 1.08244(15)
N5 N 0.2859(4) 0.50161(16) 1.00400(15)
H2 H 0.231(4) 0.528(2) 0.999(2)
N6 N 0.5312(4) 0.36078(16) 0.90669(17)
N7 N 0.1768(4) 0.46743(18) 0.79481(17)
C1 C -0.1654(4) 0.62274(18) 0.93997(18)
H3 H -0.1078 0.5969 0.9253
C2 C -0.2688(4) 0.64439(18) 0.90301(18)
C3 C -0.3559(4) 0.68189(18) 0.92092(19)
H4 H -0.4269 0.6962 0.8948
C4 C -0.3327(4) 0.69726(18) 0.97990(19)
C5 C -0.2306(4) 0.67794(17) 1.01961(18)
H5 H -0.2183 0.6906 1.0594
C6 C -0.1462(4) 0.63921(17) 0.99909(18)
C7 C -0.0144(4) 0.61881(18) 1.09469(18)
C8 C 0.1081(4) 0.58790(18) 1.12008(18)
C9 C 0.1523(4) 0.5919(2) 1.18027(19)
H6 H 0.1082 0.6146 1.2055
C10 C 0.2621(4) 0.56204(19) 1.20240(19)
H7 H 0.2950 0.5640 1.2432
C11 C 0.3234(4) 0.52925(19) 1.16424(19)
H8 H 0.3980 0.5077 1.1783
C12 C 0.2722(4) 0.52876(18) 1.10429(18)
C13 C 0.3350(4) 0.49359(18) 1.06140(18)
C14 C 0.3141(4) 0.47163(18) 0.95431(18)
C15 C 0.4114(4) 0.43138(18) 0.95620(19)
H9 H 0.4646 0.4228 0.9921
C16 C 0.4285(4) 0.40406(18) 0.90399(19)
C17 C 0.3557(4) 0.41477(19) 0.85023(19)
H10 H 0.3701 0.3956 0.8152
C18 C 0.2608(4) 0.45508(19) 0.85071(19)
C19 C 0.2375(4) 0.48303(18) 0.90073(18)
H11 H 0.1698 0.5100 0.8990
O11 O 0.7289(3) 0.39330(14) 0.65034(14)
O12 O 0.9079(3) 0.34910(16) 0.64585(15)
O13 O 0.9458(3) 0.23268(15) 0.47579(17)
O14 O 0.8262(3) 0.25114(17) 0.39313(17)
O15 O 0.5010(3) 0.37049(13) 0.35028(12)
O16 O 0.0511(3) 0.55359(13) 0.45208(13)
O17 O -0.0526(3) 0.65390(15) 0.60314(16)
O18 O 0.0371(4) 0.66040(16) 0.69409(15)
O19 O 0.3958(3) 0.54078(15) 0.76615(14)
O20 O 0.4776(3) 0.48647(16) 0.70501(14)
N8 N 0.8007(4) 0.36426(18) 0.62425(17)
N9 N 0.8554(4) 0.25699(17) 0.4467(2)
N10 N 0.4921(3) 0.38843(16) 0.44814(15)
H12 H 0.449(4) 0.4043(18) 0.4724(18)
N11 N 0.2860(3) 0.45477(15) 0.42047(15)
N12 N 0.2105(3) 0.50702(16) 0.51206(15)
H13 H 0.256(4) 0.4777(19) 0.5145(18)
N13 N 0.0288(4) 0.64020(17) 0.64457(18)
N14 N 0.3993(4) 0.52094(17) 0.71675(16)
C20 C 0.6455(4) 0.37408(18) 0.53404(18)
H14 H 0.5994 0.4006 0.5544
C21 C 0.7538(4) 0.34779(18) 0.56258(18)
C22 C 0.8243(4) 0.30877(19) 0.5358(2)
H15 H 0.8983 0.2907 0.5564
C23 C 0.7811(4) 0.29736(18) 0.4772(2)
C24 C 0.6734(4) 0.32239(18) 0.4457(2)
H16 H 0.6474 0.3133 0.4053
C25 C 0.6043(4) 0.36127(18) 0.47488(18)
C26 C 0.4480(4) 0.39204(18) 0.38956(18)
C27 C 0.3278(4) 0.42676(18) 0.37554(18)
C28 C 0.2667(4) 0.43020(19) 0.31770(18)
H17 H 0.2995 0.4101 0.2870
C29 C 0.1583(4) 0.46310(19) 0.30576(19)
H18 H 0.1146 0.4659 0.2667
C30 C 0.1134(4) 0.49224(19) 0.35175(19)
H19 H 0.0384 0.5153 0.3448
C31 C 0.1808(4) 0.48680(18) 0.40808(18)
C32 C 0.1389(4) 0.51899(18) 0.45953(18)
C33 C 0.2057(4) 0.53286(18) 0.56701(18)
C34 C 0.1158(4) 0.57408(18) 0.57696(19)
H20 H 0.0520 0.5864 0.5461
C35 C 0.1226(4) 0.59654(18) 0.63340(19)
C36 C 0.2124(4) 0.58017(19) 0.68049(19)
H21 H 0.2138 0.5958 0.7189
C37 C 0.2996(4) 0.53971(18) 0.66805(18)
C38 C 0.3001(4) 0.51628(18) 0.61327(18)
H22 H 0.3637 0.4891 0.6067
S1 S 0.19292(11) 0.64877(5) 0.92654(5)
O21 O 0.1319(3) 0.59523(13) 0.94664(12)
C39 C 0.0813(4) 0.6771(2) 0.8689(2)
H23 H 0.0567 0.6477 0.8392
H24 H 0.1209 0.7090 0.8506
H25 H 0.0043 0.6903 0.8850
C40 C 0.3116(5) 0.6269(2) 0.8824(2)
H26 H 0.3808 0.6067 0.9071
H27 H 0.3475 0.6603 0.8649
H28 H 0.2720 0.6019 0.8509
S2 S 0.15950(11) 0.22630(5) 0.73951(5)
O22 O 0.2211(3) 0.24833(15) 0.68824(14)
C41 C 0.0506(5) 0.2794(2) 0.7570(2)
H29 H 0.0962 0.3156 0.7629
H30 H 0.0158 0.2689 0.7932
H31 H -0.0202 0.2830 0.7244
C42 C 0.2738(5) 0.2336(2) 0.8044(2)
H32 H 0.3463 0.2078 0.8022
H33 H 0.2324 0.2244 0.8392
H34 H 0.3055 0.2727 0.8075
S3 S 0.31235(10) 0.35303(5) 0.57773(5)
O23 O 0.3563(3) 0.40584(13) 0.54920(13)
C43 C 0.2334(5) 0.3765(2) 0.6379(2)
H35 H 0.2943 0.3980 0.6658
H36 H 0.2023 0.3436 0.6581
H37 H 0.1602 0.4007 0.6230
C44 C 0.1731(5) 0.3285(2) 0.5317(3)
H38 H 0.1087 0.3589 0.5261
H39 H 0.1369 0.2959 0.5503
H40 H 0.1967 0.3172 0.4933
S4 S 0.32563(11) 0.71774(5) 0.27219(5)
O24 O 0.3024(4) 0.74253(15) 0.33010(15)
C45 C 0.4786(4) 0.6836(2) 0.2859(2)
H41 H 0.5438 0.7109 0.3029
H42 H 0.5023 0.6689 0.2487
H43 H 0.4739 0.6523 0.3136
C46 C 0.3715(5) 0.7748(2) 0.2287(2)
H44 H 0.2971 0.7997 0.2178
H45 H 0.4013 0.7599 0.1929
H46 H 0.4412 0.7963 0.2516
loop_
_geom_bond_atom_site_label_1
_geom_bond_atom_site_label_2
_geom_bond_site_symmetry_1
_geom_bond_site_symmetry_2
O1 N1 1_555 1_555
O2 N1 1_555 1_555
O3 N2 1_555 1_555
O4 N2 1_555 1_555
O5 C7 1_555 1_555
O6 C13 1_555 1_555
O7 N6 1_555 1_555
O8 N6 1_555 1_555
O9 N7 1_555 1_555
O10 N7 1_555 1_555
N1 C4 1_555 1_555
N2 C2 1_555 1_555
N3 H1 1_555 1_555
N4 C8 1_555 1_555
N5 H2 1_555 1_555
N6 C16 1_555 1_555
N7 C18 1_555 1_555
C1 H3 1_555 1_555
C2 C1 1_555 1_555
C3 C2 1_555 1_555
H4 C3 1_555 1_555
C4 C3 1_555 1_555
C5 C4 1_555 1_555
H5 C5 1_555 1_555
C6 N3 1_555 1_555
C7 N3 1_555 1_555
C8 C7 1_555 1_555
C9 C8 1_555 1_555
H6 C9 1_555 1_555
C10 C9 1_555 1_555
H7 C10 1_555 1_555
C11 C10 1_555 1_555
H8 C11 1_555 1_555
C12 N4 1_555 1_555
C13 N5 1_555 1_555
C14 N5 1_555 1_555
C15 C14 1_555 1_555
H9 C15 1_555 1_555
C16 C15 1_555 1_555
C17 C16 1_555 1_555
H10 C17 1_555 1_555
C18 C17 1_555 1_555
C19 C14 1_555 1_555
H11 C19 1_555 1_555
O11 N8 1_555 1_555
O12 N8 1_555 1_555
O13 N9 1_555 1_555
O14 N9 1_555 1_555
O15 C26 1_555 1_555
O16 C32 1_555 1_555
O17 N13 1_555 1_555
O18 N13 1_555 1_555
O19 N14 1_555 1_555
O20 N14 1_555 1_555
N8 C21 1_555 1_555
N9 C23 1_555 1_555
N10 H12 1_555 1_555
N11 C27 1_555 1_555
N12 H13 1_555 1_555
N13 C35 1_555 1_555
N14 C37 1_555 1_555
C20 H14 1_555 1_555
C21 C20 1_555 1_555
C22 C21 1_555 1_555
H15 C22 1_555 1_555
C23 C22 1_555 1_555
C24 C23 1_555 1_555
H16 C24 1_555 1_555
C25 N10 1_555 1_555
C26 N10 1_555 1_555
C27 C26 1_555 1_555
C28 C27 1_555 1_555
H17 C28 1_555 1_555
C29 C28 1_555 1_555
H18 C29 1_555 1_555
C30 C29 1_555 1_555
H19 C30 1_555 1_555
C31 N11 1_555 1_555
C32 N12 1_555 1_555
C33 N12 1_555 1_555
C34 C33 1_555 1_555
H20 C34 1_555 1_555
C35 C34 1_555 1_555
C36 C35 1_555 1_555
H21 C36 1_555 1_555
C37 C36 1_555 1_555
C38 C33 1_555 1_555
H22 C38 1_555 1_555
S1 O21 1_555 1_555
C39 S1 1_555 1_555
H23 C39 1_555 1_555
H24 C39 1_555 1_555
H25 C39 1_555 1_555
C40 S1 1_555 1_555
H26 C40 1_555 1_555
H27 C40 1_555 1_555
H28 C40 1_555 1_555
S2 O22 1_555 1_555
C41 S2 1_555 1_555
H29 C41 1_555 1_555
H30 C41 1_555 1_555
H31 C41 1_555 1_555
C42 S2 1_555 1_555
H32 C42 1_555 1_555
H33 C42 1_555 1_555
H34 C42 1_555 1_555
S3 O23 1_555 1_555
C43 S3 1_555 1_555
H35 C43 1_555 1_555
H36 C43 1_555 1_555
H37 C43 1_555 1_555
C44 S3 1_555 1_555
H38 C44 1_555 1_555
H39 C44 1_555 1_555
H40 C44 1_555 1_555
S4 O24 1_555 1_555
C45 S4 1_555 1_555
H41 C45 1_555 1_555
H42 C45 1_555 1_555
H43 C45 1_555 1_555
C46 S4 1_555 1_555
H44 C46 1_555 1_555
H45 C46 1_555 1_555
H46 C46 1_555 1_555
C1 C6 1_555 1_555
C5 C6 1_555 1_555
C11 C12 1_555 1_555
C12 C13 1_555 1_555
C18 C19 1_555 1_555
C20 C25 1_555 1_555
C24 C25 1_555 1_555
C30 C31 1_555 1_555
C31 C32 1_555 1_555
C37 C38 1_555 1_555

#END
