
#######################################################################
#
#                 Cambridge Crystallographic Data Centre
#                                CCDC 
#
#######################################################################
#
# If this CIF has been generated from an entry in the Cambridge 
# Structural Database, then it will include bibliographic, chemical, 
# crystal, experimental, refinement or atomic coordinate data resulting 
# from the CCDC's data processing and validation procedures.
#
#######################################################################

data_ALUBEQ
_chemical_formula_moiety         'C19 H13 N5 O6,C2 H6 O1 S1'
_chemical_name_systematic        
"N,N'-bis(3-nitrophenyl)pyridine-2,6-dicarboxamide dimethyl sulfoxide solvate"
_symmetry_cell_setting           triclinic
_symmetry_space_group_name_H-M   'P -1'
_symmetry_Int_Tables_number      2
_space_group_name_Hall           '-P 1'
loop_
_symmetry_equiv_pos_site_id
_symmetry_equiv_pos_as_xyz
1 x,y,z
2 -x,-y,-z
_cell_length_a                   8.11300(10)
_cell_length_b                   10.3832(3)
_cell_length_c                   13.5423(3)
_cell_angle_alpha                73.9820(10)
_cell_angle_beta                 80.841(2)
_cell_angle_gamma                89.179(2)
_cell_volume                     1081.99
_exptl_crystal_colour            colorless
_exptl_crystal_description       Prism
_cell_formula_units_Z            2
loop_
_atom_site_label
_atom_site_type_symbol
_atom_site_fract_x
_atom_site_fract_y
_atom_site_fract_z
O1 O -0.05029(17) 0.59433(12) -0.25652(9)
O2 O -0.19969(16) 0.51973(11) -0.10452(9)
O3 O -0.21126(12) 0.62197(10) 0.17963(8)
O4 O 0.13662(13) 0.89243(10) 0.52410(8)
O5 O 0.60713(16) 1.34224(12) 0.49529(9)
O6 O 0.46237(13) 1.16696(10) 0.59192(8)
N1 N -0.09492(17) 0.59826(13) -0.16671(10)
N2 N 0.00706(14) 0.77528(11) 0.11827(9)
H1 H 0.0747 0.8264 0.1370
N3 N 0.00431(13) 0.79143(11) 0.31799(9)
N4 N 0.20429(14) 0.97892(11) 0.34690(9)
H2 H 0.1856 0.9675 0.2876
N5 N 0.51722(15) 1.24342(12) 0.50635(9)
C1 C -0.04534(17) 0.68779(14) -0.02553(11)
H3 H -0.1098 0.6138 0.0212
C2 C -0.01877(17) 0.70267(14) -0.13168(11)
C3 C 0.07366(18) 0.80751(15) -0.20436(11)
H4 H 0.0888 0.8146 -0.2767
C4 C 0.14351(18) 0.90223(15) -0.16640(11)
H5 H 0.2083 0.9757 -0.2137
C5 C 0.12001(17) 0.89103(14) -0.06048(11)
H6 H 0.1690 0.9567 -0.0363
C6 C 0.02465(16) 0.78386(13) 0.01119(10)
C7 C -0.10522(16) 0.69499(13) 0.19470(11)
C8 C -0.09307(15) 0.69697(13) 0.30374(10)
C9 C -0.18280(17) 0.59862(14) 0.38561(11)
H7 H -0.2518 0.5343 0.3722
C10 C -0.16988(17) 0.59614(14) 0.48657(11)
H8 H -0.2282 0.5292 0.5437
C11 C -0.07035(17) 0.69303(14) 0.50304(11)
H9 H -0.0600 0.6946 0.5716
C12 C 0.01412(16) 0.78794(13) 0.41670(10)
C13 C 0.12370(17) 0.89194(13) 0.43543(10)
C14 C 0.31419(16) 1.08506(13) 0.34064(10)
C15 C 0.36250(16) 1.10996(13) 0.42783(11)
H10 H 0.3218 1.0548 0.4958
C16 C 0.47164(16) 1.21749(13) 0.41267(10)
C17 C 0.53675(17) 1.30098(14) 0.31572(11)
H11 H 0.6123 1.3733 0.3084
C18 C 0.48670(18) 1.27433(15) 0.22980(11)
H12 H 0.5286 1.3295 0.1620
C19 C 0.37630(17) 1.16830(14) 0.24142(11)
H13 H 0.3427 1.1521 0.1817
S1 S 0.45855(4) 0.83386(3) 0.15188(3)
O7 O 0.30553(12) 0.91902(10) 0.13815(8)
C20 C 0.4999(2) 0.77408(18) 0.03875(12)
H14 H 0.3990 0.7294 0.0312
H15 H 0.5904 0.7103 0.0461
H16 H 0.5329 0.8498 -0.0230
C21 C 0.39087(18) 0.67747(14) 0.24422(11)
H17 H 0.3531 0.6920 0.3126
H18 H 0.4839 0.6159 0.2486
H19 H 0.2985 0.6387 0.2221
loop_
_geom_bond_atom_site_label_1
_geom_bond_atom_site_label_2
_geom_bond_site_symmetry_1
_geom_bond_site_symmetry_2
O1 N1 1_555 1_555
O2 N1 1_555 1_555
O3 C7 1_555 1_555
O4 C13 1_555 1_555
O5 N5 1_555 1_555
O6 N5 1_555 1_555
N1 C2 1_555 1_555
N2 H1 1_555 1_555
N3 C8 1_555 1_555
N4 H2 1_555 1_555
N5 C16 1_555 1_555
C1 H3 1_555 1_555
C2 C1 1_555 1_555
C3 C2 1_555 1_555
H4 C3 1_555 1_555
C4 C3 1_555 1_555
H5 C4 1_555 1_555
C5 C4 1_555 1_555
H6 C5 1_555 1_555
C6 N2 1_555 1_555
C7 N2 1_555 1_555
C8 C7 1_555 1_555
C9 C8 1_555 1_555
H7 C9 1_555 1_555
C10 C9 1_555 1_555
H8 C10 1_555 1_555
C11 C10 1_555 1_555
H9 C11 1_555 1_555
C12 N3 1_555 1_555
C13 N4 1_555 1_555
C14 N4 1_555 1_555
C15 C14 1_555 1_555
H10 C15 1_555 1_555
C16 C15 1_555 1_555
C17 C16 1_555 1_555
H11 C17 1_555 1_555
C18 C17 1_555 1_555
H12 C18 1_555 1_555
C19 C14 1_555 1_555
H13 C19 1_555 1_555
S1 O7 1_555 1_555
C20 S1 1_555 1_555
H14 C20 1_555 1_555
H15 C20 1_555 1_555
H16 C20 1_555 1_555
C21 S1 1_555 1_555
H17 C21 1_555 1_555
H18 C21 1_555 1_555
H19 C21 1_555 1_555
C1 C6 1_555 1_555
C5 C6 1_555 1_555
C11 C12 1_555 1_555
C12 C13 1_555 1_555
C18 C19 1_555 1_555

#END
