
#######################################################################
#
#                 Cambridge Crystallographic Data Centre
#                                CCDC 
#
#######################################################################
#
# If this CIF has been generated from an entry in the Cambridge 
# Structural Database, then it will include bibliographic, chemical, 
# crystal, experimental, refinement or atomic coordinate data resulting 
# from the CCDC's data processing and validation procedures.
#
#######################################################################

data_ALUDUI
_chemical_formula_moiety         'C19 H11 N7 O10,C2 H6 O1 S1'
_chemical_name_systematic        
"N,N'-bis(3,4-dinitrophenyl)pyridine-2,6-dicarboxamide dimethyl sulfoxide solvate"
_symmetry_cell_setting           orthorhombic
_symmetry_space_group_name_H-M   'P n a 21'
_symmetry_Int_Tables_number      33
_space_group_name_Hall           'P 2c -2n'
loop_
_symmetry_equiv_pos_site_id
_symmetry_equiv_pos_as_xyz
1 x,y,z
2 -x,-y,1/2+z
3 1/2+x,1/2-y,z
4 1/2-x,1/2+y,1/2+z
_cell_length_a                   30.7677(8)
_cell_length_b                   11.5847(3)
_cell_length_c                   13.4288(4)
_cell_angle_alpha                90
_cell_angle_beta                 90
_cell_angle_gamma                90
_cell_volume                     4786.49
_exptl_crystal_colour            colorless
_cell_formula_units_Z            8
loop_
_atom_site_label
_atom_site_type_symbol
_atom_site_fract_x
_atom_site_fract_y
_atom_site_fract_z
O1 O 0.30401(11) 0.9258(3) 0.6359(3)
O2 O 0.33917(10) 0.9972(3) 0.5109(2)
O3 O 0.40557(11) 1.0591(3) 0.6397(3)
O4 O 0.46516(10) 1.0105(3) 0.5657(3)
O5 O 0.42403(10) 0.4174(3) 0.5861(3)
O6 O 0.65097(10) 0.4186(3) 0.6260(3)
O7 O 0.61112(10) 1.0064(3) 0.5728(3)
O8 O 0.67813(10) 1.0600(3) 0.5721(3)
O9 O 0.73330(11) 0.9944(4) 0.7298(3)
O10 O 0.77264(11) 0.9261(3) 0.6105(3)
N1 N 0.33562(11) 0.9302(3) 0.5803(3)
N2 N 0.42945(12) 0.9895(3) 0.5989(3)
N3 N 0.46374(11) 0.5845(3) 0.5851(3)
H1 H 0.4906 0.6105 0.5821
N4 N 0.53752(11) 0.4614(3) 0.5942(3)
N5 N 0.61193(11) 0.5853(3) 0.6065(3)
H2 H 0.5855 0.6117 0.5967
N6 N 0.64978(11) 0.9878(3) 0.5839(3)
N7 N 0.73918(12) 0.9305(3) 0.6601(3)
C1 C 0.36965(12) 0.8428(4) 0.5937(3)
C2 C 0.41359(13) 0.8690(3) 0.5935(3)
C3 C 0.44411(13) 0.7826(4) 0.5941(3)
H3 H 0.4741 0.8013 0.5969
C4 C 0.43104(13) 0.6665(4) 0.5905(3)
C5 C 0.38660(13) 0.6403(4) 0.5956(3)
H4 H 0.3772 0.5623 0.5986
C6 C 0.35643(13) 0.7298(4) 0.5963(3)
H5 H 0.3263 0.7124 0.5987
C7 C 0.45858(14) 0.4679(4) 0.5839(4)
C8 C 0.50139(13) 0.4004(4) 0.5815(3)
C9 C 0.49974(14) 0.2820(4) 0.5687(3)
H6 H 0.4729 0.2430 0.5595
C10 C 0.53901(14) 0.2221(4) 0.5699(3)
H7 H 0.5394 0.1410 0.5595
C11 C 0.57711(14) 0.2808(4) 0.5862(3)
H8 H 0.6041 0.2411 0.5905
C12 C 0.57496(13) 0.4021(4) 0.5963(3)
C13 C 0.61656(13) 0.4675(4) 0.6111(3)
C14 C 0.64512(13) 0.6678(4) 0.6157(3)
C15 C 0.63321(13) 0.7835(4) 0.5994(3)
H9 H 0.6042 0.8021 0.5815
C16 C 0.66324(13) 0.8687(4) 0.6092(3)
C17 C 0.70572(13) 0.8428(4) 0.6372(3)
C18 C 0.71746(14) 0.7304(4) 0.6532(4)
H10 H 0.7464 0.7131 0.6730
C19 C 0.68774(14) 0.6410(4) 0.6412(3)
H11 H 0.6964 0.5629 0.6502
O11 O 0.47495(10) 0.9333(3) 0.8024(3)
O12 O 0.52667(11) 1.0360(3) 0.7387(3)
O13 O 0.58429(10) 1.0754(3) 0.8839(2)
O14 O 0.63907(10) 1.0248(3) 0.7924(3)
O15 O 0.59450(9) 0.4331(3) 0.8465(3)
O16 O 0.82233(9) 0.4225(3) 0.8660(3)
O17 O 0.79284(11) 1.0239(3) 0.9169(3)
O18 O 0.83140(11) 1.0558(3) 0.7847(3)
O19 O 0.90406(10) 1.0249(3) 0.8957(2)
O20 O 0.94752(10) 0.9137(3) 0.8134(3)
N8 N 0.51336(11) 0.9510(3) 0.7819(3)
N9 N 0.60497(11) 1.0046(3) 0.8352(3)
N10 N 0.63561(10) 0.5977(3) 0.8616(3)
H12 H 0.6621 0.6216 0.8756
N11 N 0.70847(10) 0.4702(3) 0.8625(3)
N12 N 0.78274(10) 0.5910(3) 0.8618(3)
H13 H 0.7560 0.6176 0.8621
N13 N 0.81896(11) 0.9947(3) 0.8525(3)
N14 N 0.91226(11) 0.9352(3) 0.8513(3)
C20 C 0.54511(12) 0.8616(4) 0.8111(3)
C21 C 0.58829(12) 0.8850(4) 0.8307(3)
C22 C 0.61754(12) 0.7974(4) 0.8485(3)
H14 H 0.6471 0.8153 0.8614
C23 C 0.60389(12) 0.6829(4) 0.8477(3)
C24 C 0.55981(13) 0.6593(4) 0.8272(4)
H15 H 0.5499 0.5816 0.8256
C25 C 0.53110(13) 0.7483(4) 0.8097(4)
H16 H 0.5014 0.7316 0.7966
C26 C 0.62959(13) 0.4815(4) 0.8557(3)
C27 C 0.67105(12) 0.4113(3) 0.8610(3)
C28 C 0.66867(13) 0.2915(4) 0.8617(3)
H17 H 0.6415 0.2531 0.8578
C29 C 0.70694(14) 0.2300(4) 0.8683(3)
H18 H 0.7063 0.1481 0.8705
C30 C 0.74612(14) 0.2880(4) 0.8715(3)
H19 H 0.7728 0.2472 0.8764
C31 C 0.74534(12) 0.4086(3) 0.8675(3)
C32 C 0.78753(13) 0.4745(4) 0.8659(3)
C33 C 0.81600(13) 0.6728(4) 0.8572(3)
C34 C 0.80339(13) 0.7893(4) 0.8593(3)
H20 H 0.7735 0.8092 0.8643
C35 C 0.83423(13) 0.8741(3) 0.8543(3)
C36 C 0.87790(13) 0.8467(4) 0.8480(3)
C37 C 0.89058(13) 0.7326(4) 0.8442(3)
H21 H 0.9205 0.7139 0.8387
C38 C 0.86019(13) 0.6455(4) 0.8482(3)
H22 H 0.8692 0.5671 0.8449
S1 S 0.52844(3) 0.79783(9) 0.42376(9)
O21 O 0.53863(9) 0.7324(3) 0.5190(2)
C39 C 0.49971(15) 0.6995(4) 0.3459(4)
H23 H 0.5160 0.6270 0.3411
H24 H 0.4964 0.7331 0.2794
H25 H 0.4709 0.6844 0.3744
C40 C 0.57774(15) 0.8015(5) 0.3545(4)
H26 H 0.5984 0.8534 0.3873
H27 H 0.5718 0.8295 0.2870
H28 H 0.5901 0.7236 0.3511
S2 S 0.71818(4) 0.69840(10) 1.04926(10)
O22 O 0.71016(9) 0.7269(3) 0.9389(2)
C41 C 0.66960(16) 0.7395(5) 1.1117(4)
H29 H 0.6622 0.8192 1.0941
H30 H 0.6739 0.7337 1.1838
H31 H 0.6459 0.6881 1.0915
C42 C 0.75297(15) 0.8094(5) 1.0928(4)
H32 H 0.7818 0.8003 1.0629
H33 H 0.7554 0.8047 1.1655
H34 H 0.7409 0.8847 1.0742
loop_
_geom_bond_atom_site_label_1
_geom_bond_atom_site_label_2
_geom_bond_site_symmetry_1
_geom_bond_site_symmetry_2
O1 N1 1_555 1_555
O2 N1 1_555 1_555
O3 N2 1_555 1_555
O4 N2 1_555 1_555
O5 C7 1_555 1_555
O6 C13 1_555 1_555
O7 N6 1_555 1_555
O8 N6 1_555 1_555
O9 N7 1_555 1_555
O10 N7 1_555 1_555
N1 C1 1_555 1_555
N2 C2 1_555 1_555
N3 H1 1_555 1_555
N4 C8 1_555 1_555
N5 H2 1_555 1_555
N6 C16 1_555 1_555
N7 C17 1_555 1_555
C1 C2 1_555 1_555
C2 C3 1_555 1_555
C3 H3 1_555 1_555
C4 N3 1_555 1_555
C5 C4 1_555 1_555
H4 C5 1_555 1_555
C6 C1 1_555 1_555
H5 C6 1_555 1_555
C7 N3 1_555 1_555
C8 C7 1_555 1_555
C9 C8 1_555 1_555
H6 C9 1_555 1_555
C10 C9 1_555 1_555
H7 C10 1_555 1_555
C11 C10 1_555 1_555
H8 C11 1_555 1_555
C12 N4 1_555 1_555
C13 N5 1_555 1_555
C14 N5 1_555 1_555
C15 C14 1_555 1_555
H9 C15 1_555 1_555
C16 C15 1_555 1_555
C17 C16 1_555 1_555
C18 C17 1_555 1_555
H10 C18 1_555 1_555
C19 C14 1_555 1_555
H11 C19 1_555 1_555
O11 N8 1_555 1_555
O12 N8 1_555 1_555
O13 N9 1_555 1_555
O14 N9 1_555 1_555
O15 C26 1_555 1_555
O16 C32 1_555 1_555
O17 N13 1_555 1_555
O18 N13 1_555 1_555
O19 N14 1_555 1_555
O20 N14 1_555 1_555
N8 C20 1_555 1_555
N9 C21 1_555 1_555
N10 H12 1_555 1_555
N11 C27 1_555 1_555
N12 H13 1_555 1_555
N13 C35 1_555 1_555
N14 C36 1_555 1_555
C20 C21 1_555 1_555
C21 C22 1_555 1_555
C22 H14 1_555 1_555
C23 N10 1_555 1_555
C24 C23 1_555 1_555
H15 C24 1_555 1_555
C25 C20 1_555 1_555
H16 C25 1_555 1_555
C26 N10 1_555 1_555
C27 C26 1_555 1_555
C28 C27 1_555 1_555
H17 C28 1_555 1_555
C29 C28 1_555 1_555
H18 C29 1_555 1_555
C30 C29 1_555 1_555
H19 C30 1_555 1_555
C31 N11 1_555 1_555
C32 N12 1_555 1_555
C33 N12 1_555 1_555
C34 C33 1_555 1_555
H20 C34 1_555 1_555
C35 C34 1_555 1_555
C36 C35 1_555 1_555
C37 C36 1_555 1_555
H21 C37 1_555 1_555
C38 C33 1_555 1_555
H22 C38 1_555 1_555
S1 O21 1_555 1_555
C39 S1 1_555 1_555
H23 C39 1_555 1_555
H24 C39 1_555 1_555
H25 C39 1_555 1_555
C40 S1 1_555 1_555
H26 C40 1_555 1_555
H27 C40 1_555 1_555
H28 C40 1_555 1_555
S2 O22 1_555 1_555
C41 S2 1_555 1_555
H29 C41 1_555 1_555
H30 C41 1_555 1_555
H31 C41 1_555 1_555
C42 S2 1_555 1_555
H32 C42 1_555 1_555
H33 C42 1_555 1_555
H34 C42 1_555 1_555
C3 C4 1_555 1_555
C5 C6 1_555 1_555
C11 C12 1_555 1_555
C12 C13 1_555 1_555
C18 C19 1_555 1_555
C22 C23 1_555 1_555
C24 C25 1_555 1_555
C30 C31 1_555 1_555
C31 C32 1_555 1_555
C37 C38 1_555 1_555

#END
