
#######################################################################
#
#                 Cambridge Crystallographic Data Centre
#                                CCDC 
#
#######################################################################
#
# If this CIF has been generated from an entry in the Cambridge 
# Structural Database, then it will include bibliographic, chemical, 
# crystal, experimental, refinement or atomic coordinate data resulting 
# from the CCDC's data processing and validation procedures.
#
#######################################################################

data_ALUMAX
_chemical_formula_moiety         'C27 H24 N6 O3,2(C6 H16 N1 1+),O4 S1 2-'
_chemical_name_systematic        
"bis(triethylammonium) N,N'-[carbonylbis(azanediyl-2,1-phenylene)]bis(3-aminobenzamide) sulfate"
_symmetry_cell_setting           triclinic
_symmetry_space_group_name_H-M   'P -1'
_symmetry_Int_Tables_number      2
_space_group_name_Hall           '-P 1'
loop_
_symmetry_equiv_pos_site_id
_symmetry_equiv_pos_as_xyz
1 x,y,z
2 -x,-y,-z
_cell_length_a                   11.5075(5)
_cell_length_b                   12.1216(4)
_cell_length_c                   16.3975(7)
_cell_angle_alpha                70.487(2)
_cell_angle_beta                 70.113(2)
_cell_angle_gamma                86.502(2)
_cell_volume                     2023.77
_exptl_crystal_colour            colorless
_exptl_crystal_description       Block
_cell_formula_units_Z            2
loop_
_atom_site_label
_atom_site_type_symbol
_atom_site_fract_x
_atom_site_fract_y
_atom_site_fract_z
O1 O 0.3304(4) 0.9522(3) 0.5138(3)
O2 O 0.2673(4) 1.0511(3) 0.1430(3)
O3 O 0.0778(4) 0.6940(3) -0.0077(3)
N1 N 0.0893(5) 0.4730(4) 0.6197(4)
N2 N 0.3631(4) 0.8516(4) 0.4147(3)
N3 N 0.3322(4) 0.9029(4) 0.2435(3)
N4 N 0.1838(4) 0.8638(4) 0.1926(3)
N5 N 0.1138(4) 0.7177(4) 0.1142(4)
N6 N 0.1549(5) 0.2567(4) 0.0576(4)
H1 H 0.175(4) 0.180(4) 0.086(3)
H2 H 0.111(5) 0.476(5) 0.559(4)
H3 H 0.016(5) 0.434(4) 0.652(3)
H4 H 0.075(5) 0.260(4) 0.055(3)
H5 H 0.134(6) 0.681(5) 0.156(4)
H6 H 0.322(5) 0.832(5) 0.274(4)
H7 H 0.333(5) 0.783(5) 0.411(4)
H8 H 0.189(5) 0.792(5) 0.225(4)
C1 C 0.1983(5) 0.6624(5) 0.5613(4)
H9 H 0.2420 0.6491 0.5051
C2 C 0.1116(5) 0.5762(5) 0.6321(4)
C3 C 0.0524(5) 0.5956(5) 0.7142(4)
H10 H -0.0058 0.5376 0.7632
C4 C 0.0768(6) 0.6989(6) 0.7260(4)
H11 H 0.0362 0.7103 0.7834
C5 C 0.1588(5) 0.7848(5) 0.6558(4)
H12 H 0.1728 0.8561 0.6642
C6 C 0.2216(5) 0.7678(5) 0.5722(4)
C7 C 0.3101(5) 0.8645(5) 0.4986(4)
C8 C 0.4419(5) 0.9391(4) 0.3357(4)
C9 C 0.5368(5) 1.0004(5) 0.3414(4)
H13 H 0.5514 0.9810 0.3981
C10 C 0.6088(5) 1.0886(5) 0.2655(4)
H14 H 0.6707 1.1318 0.2706
C11 C 0.5912(5) 1.1139(5) 0.1824(4)
H15 H 0.6419 1.1742 0.1302
C12 C 0.5015(5) 1.0534(4) 0.1740(4)
H16 H 0.4909 1.0710 0.1160
C13 C 0.4263(5) 0.9665(4) 0.2505(4)
C14 C 0.2618(5) 0.9470(4) 0.1899(4)
C15 C 0.0805(5) 0.8903(4) 0.1622(4)
C16 C 0.0111(5) 0.9855(5) 0.1730(4)
H17 H 0.0327 1.0335 0.2018
C17 C -0.0882(5) 1.0114(5) 0.1429(4)
H18 H -0.1321 1.0791 0.1480
C18 C -0.1240(5) 0.9392(5) 0.1051(4)
H19 H -0.1941 0.9554 0.0858
C19 C -0.0574(5) 0.8433(5) 0.0957(4)
H20 H -0.0829 0.7938 0.0699
C20 C 0.0455(5) 0.8167(4) 0.1226(4)
C21 C 0.1241(5) 0.6615(5) 0.0527(4)
C22 C 0.1922(5) 0.5511(5) 0.0670(4)
C23 C 0.1465(5) 0.4569(5) 0.0550(4)
H21 H 0.0768 0.4654 0.0353
C24 C 0.2014(5) 0.3496(5) 0.0714(4)
C25 C 0.3042(5) 0.3383(5) 0.0994(4)
H22 H 0.3423 0.2656 0.1113
C26 C 0.3505(5) 0.4329(5) 0.1098(4)
H23 H 0.4218 0.4248 0.1277
C27 C 0.2957(5) 0.5402(5) 0.0948(4)
H24 H 0.3278 0.6044 0.1032
N7 N 0.3956(4) 0.3952(4) -0.2204(3)
H25 H 0.4773 0.4254 -0.2498
C28 C 0.3325(6) 0.4540(5) -0.1511(4)
H26 H 0.3681 0.4289 -0.1011
H27 H 0.2435 0.4283 -0.1237
C29 C 0.3450(6) 0.5859(5) -0.1918(5)
H28 H 0.4328 0.6118 -0.2224
H29 H 0.3084 0.6197 -0.1428
H30 H 0.3020 0.6120 -0.2367
C30 C 0.3960(6) 0.2651(5) -0.1735(5)
H31 H 0.4329 0.2277 -0.2209
H32 H 0.3094 0.2330 -0.1398
C31 C 0.4668(6) 0.2328(5) -0.1066(4)
H33 H 0.5502 0.2710 -0.1377
H34 H 0.4724 0.1475 -0.0848
H35 H 0.4234 0.2589 -0.0542
C32 C 0.3335(7) 0.4214(7) -0.2914(5)
H36 H 0.2471 0.3877 -0.2607
H37 H 0.3304 0.5074 -0.3175
C33 C 0.3956(7) 0.3750(8) -0.3679(5)
H38 H 0.4842 0.3985 -0.3930
H39 H 0.3591 0.4068 -0.4164
H40 H 0.3846 0.2893 -0.3447
N8 N 0.2223(4) 0.2567(4) -0.5686(3)
H41 H 0.2204 0.3358 -0.5747
C34 C 0.3565(5) 0.2319(5) -0.6033(4)
H42 H 0.3899 0.2706 -0.6709
H43 H 0.3633 0.1463 -0.5904
C35 C 0.4342(6) 0.2737(6) -0.5601(5)
H44 H 0.4217 0.3567 -0.5674
H45 H 0.5217 0.2639 -0.5904
H46 H 0.4094 0.2276 -0.4945
C36 C 0.1626(6) 0.1902(5) -0.4680(4)
H47 H 0.2054 0.2141 -0.4329
H48 H 0.1726 0.1053 -0.4574
C37 C 0.0262(6) 0.2109(6) -0.4325(5)
H49 H 0.0147 0.2953 -0.4519
H50 H -0.0051 0.1781 -0.3652
H51 H -0.0193 0.1726 -0.4575
C38 C 0.1563(6) 0.2402(5) -0.6282(4)
H52 H 0.1970 0.2933 -0.6919
H53 H 0.0701 0.2632 -0.6066
C39 C 0.1537(7) 0.1145(6) -0.6289(6)
H54 H 0.2385 0.0928 -0.6544
H55 H 0.1059 0.1092 -0.6669
H56 H 0.1151 0.0610 -0.5659
S1 S 0.26751(13) 0.57082(11) 0.33271(10)
O4 O 0.3227(3) 0.6668(3) 0.3472(2)
O5 O 0.1961(3) 0.4855(3) 0.4222(3)
O6 O 0.3678(3) 0.5113(3) 0.2817(3)
O7 O 0.1849(3) 0.6205(3) 0.2796(3)
loop_
_geom_bond_atom_site_label_1
_geom_bond_atom_site_label_2
_geom_bond_site_symmetry_1
_geom_bond_site_symmetry_2
O1 C7 1_555 1_555
O2 C14 1_555 1_555
O3 C21 1_555 1_555
N1 H2 1_555 1_555
N2 H7 1_555 1_555
N3 H6 1_555 1_555
N4 H8 1_555 1_555
N5 H5 1_555 1_555
N6 H1 1_555 1_555
H3 N1 1_555 1_555
H4 N6 1_555 1_555
C1 H9 1_555 1_555
C2 N1 1_555 1_555
C3 C2 1_555 1_555
H10 C3 1_555 1_555
C4 C3 1_555 1_555
H11 C4 1_555 1_555
C5 C4 1_555 1_555
H12 C5 1_555 1_555
C6 C1 1_555 1_555
C7 N2 1_555 1_555
C8 N2 1_555 1_555
C9 C8 1_555 1_555
H13 C9 1_555 1_555
C10 C9 1_555 1_555
H14 C10 1_555 1_555
C11 C10 1_555 1_555
H15 C11 1_555 1_555
C12 C11 1_555 1_555
H16 C12 1_555 1_555
C13 N3 1_555 1_555
C14 N3 1_555 1_555
C15 N4 1_555 1_555
C16 C15 1_555 1_555
H17 C16 1_555 1_555
C17 C16 1_555 1_555
H18 C17 1_555 1_555
C18 C17 1_555 1_555
H19 C18 1_555 1_555
C19 C18 1_555 1_555
H20 C19 1_555 1_555
C20 N5 1_555 1_555
C21 N5 1_555 1_555
C22 C21 1_555 1_555
C23 C22 1_555 1_555
H21 C23 1_555 1_555
C24 N6 1_555 1_555
C25 C24 1_555 1_555
H22 C25 1_555 1_555
C26 C25 1_555 1_555
H23 C26 1_555 1_555
C27 C22 1_555 1_555
H24 C27 1_555 1_555
N7 H25 1_555 1_555
C28 N7 1_555 1_555
H26 C28 1_555 1_555
H27 C28 1_555 1_555
C29 C28 1_555 1_555
H28 C29 1_555 1_555
H29 C29 1_555 1_555
H30 C29 1_555 1_555
C30 N7 1_555 1_555
H31 C30 1_555 1_555
H32 C30 1_555 1_555
C31 C30 1_555 1_555
H33 C31 1_555 1_555
H34 C31 1_555 1_555
H35 C31 1_555 1_555
C32 N7 1_555 1_555
H36 C32 1_555 1_555
H37 C32 1_555 1_555
C33 C32 1_555 1_555
H38 C33 1_555 1_555
H39 C33 1_555 1_555
H40 C33 1_555 1_555
N8 H41 1_555 1_555
C34 N8 1_555 1_555
H42 C34 1_555 1_555
H43 C34 1_555 1_555
C35 C34 1_555 1_555
H44 C35 1_555 1_555
H45 C35 1_555 1_555
H46 C35 1_555 1_555
C36 N8 1_555 1_555
H47 C36 1_555 1_555
H48 C36 1_555 1_555
C37 C36 1_555 1_555
H49 C37 1_555 1_555
H50 C37 1_555 1_555
H51 C37 1_555 1_555
C38 N8 1_555 1_555
H52 C38 1_555 1_555
H53 C38 1_555 1_555
C39 C38 1_555 1_555
H54 C39 1_555 1_555
H55 C39 1_555 1_555
H56 C39 1_555 1_555
S1 O4 1_555 1_555
O5 S1 1_555 1_555
O6 S1 1_555 1_555
O7 S1 1_555 1_555
N4 C14 1_555 1_555
C1 C2 1_555 1_555
C5 C6 1_555 1_555
C6 C7 1_555 1_555
C8 C13 1_555 1_555
C12 C13 1_555 1_555
C15 C20 1_555 1_555
C19 C20 1_555 1_555
C23 C24 1_555 1_555
C26 C27 1_555 1_555

#END
