
#######################################################################
#
#                 Cambridge Crystallographic Data Centre
#                                CCDC 
#
#######################################################################
#
# If this CIF has been generated from an entry in the Cambridge 
# Structural Database, then it will include bibliographic, chemical, 
# crystal, experimental, refinement or atomic coordinate data resulting 
# from the CCDC's data processing and validation procedures.
#
#######################################################################

data_ALUNAW
_chemical_formula_moiety         'C20 H22 Br2 N2 O1'
_chemical_name_systematic        
trans-(1R,2R)-N-Acetyl-N,N'-bis(4-bromophenyl)-1,2-diaminocyclohexane
_symmetry_cell_setting           monoclinic
_symmetry_space_group_name_H-M   'P 21'
_symmetry_Int_Tables_number      4
_space_group_name_Hall           'P 2yb'
loop_
_symmetry_equiv_pos_site_id
_symmetry_equiv_pos_as_xyz
1 x,y,z
2 -x,1/2+y,-z
_cell_length_a                   9.0296(7)
_cell_length_b                   8.8329(8)
_cell_length_c                   12.5427(10)
_cell_angle_alpha                90
_cell_angle_beta                 93.110(6)
_cell_angle_gamma                90
_cell_volume                     998.902
_exptl_crystal_colour            colorless
_exptl_crystal_description       block
_chemical_melting_point          104-106deg.C
_cell_formula_units_Z            2
_exptl_crystal_recrystallization_method 'diethyl ether/hexane'
loop_
_atom_site_label
_atom_site_type_symbol
_atom_site_fract_x
_atom_site_fract_y
_atom_site_fract_z
C1 C 0.9441(5) 0.2660(5) 0.2869(4)
H1 H 1.009(5) 0.244(5) 0.337(4)
C2 C 0.8479(5) 0.1249(5) 0.2663(4)
H2 H 0.779(3) 0.152(3) 0.220(2)
C3 C 0.9405(5) -0.0072(5) 0.2310(4)
H3 H 1.0068 -0.0388 0.2903
H4 H 0.8753 -0.0915 0.2124
C4 C 1.0316(5) 0.0295(7) 0.1364(4)
H5 H 0.9660 0.0487 0.0741
H6 H 1.0938 -0.0564 0.1209
C5 C 1.1287(5) 0.1682(7) 0.1597(5)
H7 H 1.1816 0.1940 0.0969
H8 H 1.2013 0.1457 0.2173
C6 C 1.0330(5) 0.3020(6) 0.1909(4)
H9 H 1.0962 0.3887 0.2071
H10 H 0.9656 0.3287 0.1310
N1 N 0.8600(3) 0.3982(4) 0.3218(3)
C7 C 0.9038(4) 0.4722(5) 0.4138(4)
O1 O 1.0137(3) 0.4320(4) 0.4667(2)
C8 C 0.8103(4) 0.6004(5) 0.4475(4)
H11 H 0.8541 0.6433 0.5122
H12 H 0.7122 0.5647 0.4600
H13 H 0.8046 0.6760 0.3925
C9 C 0.7380(4) 0.4507(5) 0.2511(4)
C10 C 0.7600(5) 0.5630(6) 0.1769(4)
H14 H 0.8563 0.6080 0.1720
C11 C 0.6420(6) 0.6114(6) 0.1112(4)
H15 H 0.6559 0.6894 0.0593
C12 C 0.5056(5) 0.5505(7) 0.1194(4)
Br1 Br 0.3625(5) 0.6460(5) 0.0221(5)
C13 C 0.4818(5) 0.4411(6) 0.1929(4)
H16 H 0.3845 0.3979 0.1966
C14 C 0.5994(4) 0.3917(5) 0.2605(4)
H17 H 0.5830 0.3163 0.3137
N2 N 0.7647(4) 0.0886(5) 0.3595(3)
H18 H 0.833(4) 0.074(5) 0.409(3)
C15 C 0.6401(5) -0.0032(5) 0.3525(4)
C16 C 0.5516(5) -0.0188(6) 0.2591(4)
H19 H 0.5820 0.0333 0.1966
C17 C 0.4258(5) -0.1082(5) 0.2557(4)
H20 H 0.3638 -0.1145 0.1911
C18 C 0.3869(4) -0.1836(5) 0.3440(4)
Br3 Br 0.21627(5) -0.31114(6) 0.34013(4)
C19 C 0.4706(6) -0.1689(5) 0.4386(4)
H21 H 0.4412 -0.2202 0.5016
C20 C 0.5952(5) -0.0790(5) 0.4428(4)
H22 H 0.6549 -0.0682 0.5083
Br2? Br 0.3297(5) 0.5880(5) 0.0321(5)
loop_
_geom_bond_atom_site_label_1
_geom_bond_atom_site_label_2
_geom_bond_site_symmetry_1
_geom_bond_site_symmetry_2
C1 H1 1_555 1_555
C2 C1 1_555 1_555
H2 C2 1_555 1_555
C3 C2 1_555 1_555
H3 C3 1_555 1_555
H4 C3 1_555 1_555
C4 C3 1_555 1_555
H5 C4 1_555 1_555
H6 C4 1_555 1_555
C5 C4 1_555 1_555
H7 C5 1_555 1_555
H8 C5 1_555 1_555
C6 C1 1_555 1_555
H9 C6 1_555 1_555
H10 C6 1_555 1_555
N1 C1 1_555 1_555
C7 N1 1_555 1_555
O1 C7 1_555 1_555
C8 C7 1_555 1_555
H11 C8 1_555 1_555
H12 C8 1_555 1_555
H13 C8 1_555 1_555
C9 N1 1_555 1_555
C10 C9 1_555 1_555
H14 C10 1_555 1_555
C11 C10 1_555 1_555
H15 C11 1_555 1_555
C12 C11 1_555 1_555
Br1 C12 1_555 1_555
C13 C12 1_555 1_555
H16 C13 1_555 1_555
C14 C9 1_555 1_555
H17 C14 1_555 1_555
N2 C2 1_555 1_555
H18 N2 1_555 1_555
C15 N2 1_555 1_555
C16 C15 1_555 1_555
H19 C16 1_555 1_555
C17 C16 1_555 1_555
H20 C17 1_555 1_555
C18 C17 1_555 1_555
Br3 C18 1_555 1_555
C19 C18 1_555 1_555
H21 C19 1_555 1_555
C20 C15 1_555 1_555
H22 C20 1_555 1_555
C5 C6 1_555 1_555
C13 C14 1_555 1_555
C19 C20 1_555 1_555

#END
