
#######################################################################
#
#                 Cambridge Crystallographic Data Centre
#                                CCDC 
#
#######################################################################
#
# If this CIF has been generated from an entry in the Cambridge 
# Structural Database, then it will include bibliographic, chemical, 
# crystal, experimental, refinement or atomic coordinate data resulting 
# from the CCDC's data processing and validation procedures.
#
#######################################################################

data_ALUQIH
_chemical_formula_moiety         'C40 H34 O10'
_chemical_name_systematic        
(+-)-2,17-Diformyl-1,4,6,9,10,13,15,18-octamethoxy(7)helicene
_symmetry_cell_setting           triclinic
_symmetry_space_group_name_H-M   'P -1'
_symmetry_Int_Tables_number      2
_space_group_name_Hall           '-P 1'
loop_
_symmetry_equiv_pos_site_id
_symmetry_equiv_pos_as_xyz
1 x,y,z
2 -x,-y,-z
_cell_length_a                   11.2692(7)
_cell_length_b                   12.0470(8)
_cell_length_c                   13.1347(7)
_cell_angle_alpha                103.642(4)
_cell_angle_beta                 103.931(4)
_cell_angle_gamma                102.788(4)
_cell_volume                     1607.11
_exptl_crystal_colour            yellow
_exptl_crystal_description       block
_cell_formula_units_Z            2
loop_
_atom_site_label
_atom_site_type_symbol
_atom_site_fract_x
_atom_site_fract_y
_atom_site_fract_z
C1 C 0.66416(16) 0.18935(15) 0.11507(13)
C2 C 0.63200(17) 0.27947(15) 0.07610(14)
C3 C 0.55265(17) 0.34063(16) 0.11883(15)
H1 H 0.5366 0.4066 0.0962
C4 C 0.49898(17) 0.30431(15) 0.19313(14)
C5 C 0.52410(16) 0.20598(14) 0.22897(13)
C6 C 0.61647(16) 0.15516(14) 0.19732(13)
C7 C 0.45217(17) 0.15756(15) 0.29242(14)
H2 H 0.3978 0.1975 0.3208
C8 C 0.46246(17) 0.05342(15) 0.31178(14)
C9 C 0.55578(16) -0.00070(15) 0.28231(14)
C10 C 0.64656(16) 0.06136(14) 0.24257(13)
C11 C 0.56104(17) -0.11339(15) 0.29692(14)
H3 H 0.5002 -0.1552 0.3242
C12 C 0.65232(18) -0.16072(15) 0.27210(15)
H4 H 0.6471 -0.2410 0.2704
C13 C 0.75648(17) -0.09176(15) 0.24835(14)
C14 C 0.76206(16) 0.02754(14) 0.24886(13)
C15 C 0.85623(18) -0.13961(15) 0.22619(14)
C16 C 0.95766(18) -0.07018(16) 0.20841(14)
C17 C 0.97396(17) 0.05495(16) 0.22442(14)
C18 C 0.88319(16) 0.10686(15) 0.25740(13)
C19 C 1.07964(18) 0.12815(17) 0.20539(15)
H5 H 1.1432 0.0949 0.1862
C20 C 1.09026(18) 0.24471(17) 0.21439(15)
H6 H 1.1534 0.2890 0.1908
C21 C 1.00778(17) 0.30119(16) 0.25880(14)
C22 C 0.91564(16) 0.23599(15) 0.29538(14)
C23 C 1.01406(17) 0.42382(16) 0.26452(15)
C24 C 0.93656(17) 0.47809(16) 0.30790(15)
H7 H 0.9325 0.5540 0.3009
C25 C 0.86106(17) 0.42048(15) 0.36422(14)
C26 C 0.85794(16) 0.30252(15) 0.36663(13)
C27 C 0.78882(17) 0.48173(15) 0.42026(15)
C28 C 0.72209(18) 0.43059(15) 0.47905(15)
H8 H 0.6688 0.4691 0.5108
C29 C 0.73207(17) 0.31967(15) 0.49306(14)
C30 C 0.80312(16) 0.25947(14) 0.44159(13)
C31 C 0.67625(19) 0.01579(16) -0.00691(16)
H9 H 0.7376 -0.0184 -0.0349
H10 H 0.6112 0.0217 -0.0684
H11 H 0.6350 -0.0357 0.0301
C32 C 0.6779(2) 0.31191(17) -0.01146(16)
H12 H 0.7263 0.2663 -0.0428
C33 C 0.3981(2) 0.45850(17) 0.20983(18)
H13 H 0.3393 0.4869 0.2462
H14 H 0.3611 0.4384 0.1299
H15 H 0.4800 0.5213 0.2348
C34 C 0.31417(19) 0.05237(18) 0.41381(16)
H16 H 0.2684 0.0008 0.4483
H17 H 0.2523 0.0690 0.3573
H18 H 0.3682 0.1277 0.4699
C35 C 0.7599(2) -0.34831(18) 0.13154(18)
H19 H 0.7643 -0.4263 0.1394
H20 H 0.7803 -0.3398 0.0648
H21 H 0.6734 -0.3423 0.1261
C36 C 1.0267(3) -0.1681(2) 0.0676(2)
H22 H 1.0970 -0.1992 0.0549
H23 H 1.0194 -0.1071 0.0306
H24 H 0.9465 -0.2335 0.0381
C37 C 1.0932(2) 0.58443(19) 0.1978(2)
H25 H 1.1587 0.6104 0.1641
H26 H 1.1085 0.6450 0.2679
H27 H 1.0085 0.5739 0.1482
C38 C 0.7298(2) 0.66073(17) 0.46685(17)
H28 H 0.7390 0.7372 0.4510
H29 H 0.7681 0.6756 0.5460
H30 H 0.6388 0.6167 0.4446
C39 C 0.66042(19) 0.26726(16) 0.55859(15)
H31 H 0.6729 0.1961 0.5725
C40 C 0.94380(19) 0.16120(18) 0.52283(17)
H32 H 0.9440 0.0842 0.5354
H33 H 0.9737 0.2242 0.5938
H34 H 1.0008 0.1791 0.4793
O1 O 0.74210(11) 0.13267(10) 0.06998(10)
O2 O 0.65864(16) 0.39261(13) -0.04654(13)
O3 O 0.41834(13) 0.35437(11) 0.23713(11)
O4 O 0.39236(12) -0.00640(11) 0.36428(11)
O5 O 0.85026(13) -0.25530(11) 0.22578(11)
O6 O 1.05185(13) -0.11666(12) 0.18247(12)
O7 O 1.09881(13) 0.47381(12) 0.21729(12)
O8 O 0.79300(13) 0.59214(11) 0.40726(11)
O9 O 0.58621(14) 0.30987(12) 0.59594(12)
O10 O 0.81660(11) 0.15549(10) 0.46446(10)
loop_
_geom_bond_atom_site_label_1
_geom_bond_atom_site_label_2
_geom_bond_site_symmetry_1
_geom_bond_site_symmetry_2
C1 C2 1_555 1_555
C2 C3 1_555 1_555
C3 H1 1_555 1_555
C4 C3 1_555 1_555
C5 C4 1_555 1_555
C6 C1 1_555 1_555
C7 C5 1_555 1_555
H2 C7 1_555 1_555
C8 C7 1_555 1_555
C9 C8 1_555 1_555
C10 C6 1_555 1_555
C11 C9 1_555 1_555
H3 C11 1_555 1_555
C12 C11 1_555 1_555
H4 C12 1_555 1_555
C13 C12 1_555 1_555
C14 C10 1_555 1_555
C15 C13 1_555 1_555
C16 C15 1_555 1_555
C17 C16 1_555 1_555
C18 C14 1_555 1_555
C19 C17 1_555 1_555
H5 C19 1_555 1_555
C20 C19 1_555 1_555
H6 C20 1_555 1_555
C21 C20 1_555 1_555
C22 C18 1_555 1_555
C23 C21 1_555 1_555
C24 C23 1_555 1_555
H7 C24 1_555 1_555
C25 C24 1_555 1_555
C26 C22 1_555 1_555
C27 C25 1_555 1_555
C28 C27 1_555 1_555
H8 C28 1_555 1_555
C29 C28 1_555 1_555
C30 C26 1_555 1_555
C31 H9 1_555 1_555
H10 C31 1_555 1_555
H11 C31 1_555 1_555
C32 C2 1_555 1_555
H12 C32 1_555 1_555
C33 H13 1_555 1_555
H14 C33 1_555 1_555
H15 C33 1_555 1_555
C34 H16 1_555 1_555
H17 C34 1_555 1_555
H18 C34 1_555 1_555
C35 H19 1_555 1_555
H20 C35 1_555 1_555
H21 C35 1_555 1_555
C36 H22 1_555 1_555
H23 C36 1_555 1_555
H24 C36 1_555 1_555
C37 H25 1_555 1_555
H26 C37 1_555 1_555
H27 C37 1_555 1_555
C38 H28 1_555 1_555
H29 C38 1_555 1_555
H30 C38 1_555 1_555
C39 C29 1_555 1_555
H31 C39 1_555 1_555
C40 H32 1_555 1_555
H33 C40 1_555 1_555
H34 C40 1_555 1_555
O1 C1 1_555 1_555
O2 C32 1_555 1_555
O3 C4 1_555 1_555
O4 C8 1_555 1_555
O5 C15 1_555 1_555
O6 C16 1_555 1_555
O7 C23 1_555 1_555
O8 C27 1_555 1_555
O9 C39 1_555 1_555
O10 C30 1_555 1_555
C5 C6 1_555 1_555
C9 C10 1_555 1_555
C13 C14 1_555 1_555
C17 C18 1_555 1_555
C21 C22 1_555 1_555
C25 C26 1_555 1_555
C29 C30 1_555 1_555
C31 O1 1_555 1_555
C33 O3 1_555 1_555
C34 O4 1_555 1_555
C35 O5 1_555 1_555
C36 O6 1_555 1_555
C37 O7 1_555 1_555
C38 O8 1_555 1_555
C40 O10 1_555 1_555

#END
