
#######################################################################
#
#                 Cambridge Crystallographic Data Centre
#                                CCDC 
#
#######################################################################
#
# If this CIF has been generated from an entry in the Cambridge 
# Structural Database, then it will include bibliographic, chemical, 
# crystal, experimental, refinement or atomic coordinate data resulting 
# from the CCDC's data processing and validation procedures.
#
#######################################################################

data_AMAJUT
_chemical_formula_moiety         'C19 H18 F2 O3 S1'
_chemical_name_systematic        
(2S,4R)-4-Benzyloxy-2-(benzoyloxymethyl)-3,3-difluorotetrahydrothiophene
_symmetry_cell_setting           monoclinic
_symmetry_space_group_name_H-M   'P 21'
_symmetry_Int_Tables_number      4
_space_group_name_Hall           'P 2yb'
loop_
_symmetry_equiv_pos_site_id
_symmetry_equiv_pos_as_xyz
1 x,y,z
2 -x,1/2+y,-z
_cell_length_a                   12.253(8)
_cell_length_b                   5.482(4)
_cell_length_c                   14.256(12)
_cell_angle_alpha                90
_cell_angle_beta                 112.583(13)
_cell_angle_gamma                90
_cell_volume                     884.165
_exptl_crystal_colour            colorless
_chemical_melting_point          43-44deg.C
_cell_formula_units_Z            2
loop_
_atom_site_label
_atom_site_type_symbol
_atom_site_fract_x
_atom_site_fract_y
_atom_site_fract_z
S1 S 0.87779(10) 0.7983(2) 0.51370(7)
F1 F 0.7128(2) 1.1291(4) 0.59022(15)
F2 F 0.5711(2) 0.8675(5) 0.52955(16)
O1 O 0.6109(3) 0.8253(5) 0.35224(17)
O2 O 0.8987(2) 0.5010(5) 0.69870(15)
O3 O 0.8968(3) 0.4799(6) 0.85350(18)
C1 C 0.7639(4) 0.7286(7) 0.5624(2)
C2 C 0.6761(4) 0.9329(6) 0.5269(3)
C3 C 0.6669(4) 1.0140(8) 0.4221(3)
C4 C 0.7919(5) 1.0427(10) 0.4315(3)
C5 C 0.8141(4) 0.6951(8) 0.6762(3)
C6 C 0.9364(4) 0.4086(7) 0.7937(2)
C7 C 1.0234(3) 0.2138(6) 0.8109(2)
C8 C 1.0553(4) 0.0758(9) 0.8994(3)
C9 C 1.1329(5) -0.1095(11) 0.9175(4)
C10 C 1.1827(5) -0.1621(11) 0.8492(4)
C11 C 1.1531(6) -0.0232(11) 0.7612(4)
C12 C 1.0745(4) 0.1590(9) 0.7424(3)
C13 C 0.4920(6) 0.8737(12) 0.2868(4)
C14 C 0.4529(5) 0.6756(8) 0.2083(3)
C15 C 0.5193(6) 0.5990(11) 0.1575(4)
C16 C 0.4790(5) 0.4217(11) 0.0835(4)
C17 C 0.3729(5) 0.3176(12) 0.0617(3)
C18 C 0.3025(5) 0.3930(11) 0.1111(4)
C19 C 0.3446(5) 0.5697(11) 0.1844(4)
H1 H 0.731(3) 0.570(7) 0.537(2)
H2 H 0.617(4) 1.168(10) 0.402(3)
H3 H 0.790(6) 1.017(15) 0.361(5)
H4 H 0.820(4) 1.201(10) 0.460(3)
H5 H 0.750(3) 0.654(8) 0.694(3)
H6 H 0.860(4) 0.834(9) 0.708(3)
H7 H 1.016(3) 0.118(8) 0.946(3)
H8 H 1.147(4) -0.227(11) 0.967(4)
H9 H 1.242(4) -0.274(8) 0.864(3)
H10 H 1.194(4) -0.059(10) 0.725(4)
H11 H 1.056(3) 0.291(9) 0.689(3)
H12 H 0.424(6) 0.930(14) 0.320(5)
H13 H 0.538(6) 0.957(14) 0.259(6)
H14 H 0.592(4) 0.645(9) 0.175(3)
H15 H 0.529(4) 0.382(12) 0.057(3)
H16 H 0.340(4) 0.201(10) 0.011(3)
H17 H 0.229(5) 0.311(11) 0.093(3)
H18 H 0.291(4) 0.611(11) 0.205(3)
loop_
_geom_bond_atom_site_label_1
_geom_bond_atom_site_label_2
_geom_bond_site_symmetry_1
_geom_bond_site_symmetry_2
S1 C1 1_555 1_555
F1 C2 1_555 1_555
F2 C2 1_555 1_555
O1 C3 1_555 1_555
O2 C5 1_555 1_555
O3 C6 1_555 1_555
C1 C2 1_555 1_555
C2 C3 1_555 1_555
C3 C4 1_555 1_555
C4 S1 1_555 1_555
C5 C1 1_555 1_555
C6 O2 1_555 1_555
C7 C6 1_555 1_555
C8 C7 1_555 1_555
C9 C8 1_555 1_555
C10 C9 1_555 1_555
C11 C10 1_555 1_555
C12 C7 1_555 1_555
C13 O1 1_555 1_555
C14 C13 1_555 1_555
C15 C14 1_555 1_555
C16 C15 1_555 1_555
C17 C16 1_555 1_555
C18 C17 1_555 1_555
C19 C14 1_555 1_555
H1 C1 1_555 1_555
H2 C3 1_555 1_555
H3 C4 1_555 1_555
H4 C4 1_555 1_555
H5 C5 1_555 1_555
H6 C5 1_555 1_555
H7 C8 1_555 1_555
H8 C9 1_555 1_555
H9 C10 1_555 1_555
H10 C11 1_555 1_555
H11 C12 1_555 1_555
H12 C13 1_555 1_555
H13 C13 1_555 1_555
H14 C15 1_555 1_555
H15 C16 1_555 1_555
H16 C17 1_555 1_555
H17 C18 1_555 1_555
H18 C19 1_555 1_555
C11 C12 1_555 1_555
C18 C19 1_555 1_555

#END
