
#######################################################################
#
#                 Cambridge Crystallographic Data Centre
#                                CCDC 
#
#######################################################################
#
# If this CIF has been generated from an entry in the Cambridge 
# Structural Database, then it will include bibliographic, chemical, 
# crystal, experimental, refinement or atomic coordinate data resulting 
# from the CCDC's data processing and validation procedures.
#
#######################################################################

data_AMAKAA
_chemical_formula_moiety         'C9 H11 F2 N3 O2 S1'
_chemical_name_systematic        
4-Amino-1-(3,3-difluoro-2-hydroxymethyl-tetrahydrothiophen-2-yl)-1H-pyrimidin-2-one
_symmetry_cell_setting           monoclinic
_symmetry_space_group_name_H-M   'P 21/c'
_symmetry_Int_Tables_number      14
_space_group_name_Hall           '-P 2ybc'
loop_
_symmetry_equiv_pos_site_id
_symmetry_equiv_pos_as_xyz
1 x,y,z
2 x,1/2-y,1/2+z
3 -x,-y,-z
4 -x,1/2+y,1/2-z
_cell_length_a                   11.0397(13)
_cell_length_b                   8.1327(9)
_cell_length_c                   12.9723(15)
_cell_angle_alpha                90
_cell_angle_beta                 106.010(2)
_cell_angle_gamma                90
_cell_volume                     1119.51
_exptl_crystal_colour            colorless
_exptl_crystal_description       plate
_cell_formula_units_Z            4
loop_
_atom_site_label
_atom_site_type_symbol
_atom_site_fract_x
_atom_site_fract_y
_atom_site_fract_z
S1 S 0.84076(7) 0.14602(8) 0.20146(5)
O1 O 0.64024(18) -0.04837(19) 0.12533(12)
O2 O 0.5758(2) 0.3370(2) -0.04669(13)
N1 N 0.72098(18) 0.0517(2) -0.00476(14)
N2 N 0.63355(19) -0.2162(2) -0.01532(14)
N3 N 0.6119(2) -0.3704(3) -0.16594(19)
C1 C 0.9823(4) 0.2650(6) 0.2134(3)
C2 C 0.9535(4) 0.3827(5) 0.1202(2)
C3 C 0.8726(3) 0.2875(3) 0.0271(2)
C4 C 0.7667(2) 0.2000(3) 0.06024(17)
C5 C 0.7166(2) 0.0438(3) -0.11166(18)
C6 C 0.6773(3) -0.0918(3) -0.16849(19)
C7 C 0.6416(2) -0.2283(3) -0.11604(18)
C8 C 0.6625(2) -0.0726(3) 0.03878(18)
C9 C 0.6569(3) 0.3176(3) 0.0577(2)
F1 F 0.94739(15) 0.1742(2) -0.00439(13)
F2 F 0.82760(15) 0.38552(17) -0.05895(10)
H1 H 1.044(3) 0.196(4) 0.201(3)
H2 H 0.997(3) 0.325(3) 0.276(2)
H3 H 1.030(3) 0.414(3) 0.097(2)
H4 H 0.891(3) 0.479(3) 0.1260(19)
H5 H 0.748(2) 0.142(2) -0.1404(16)
H6 H 0.6799(19) -0.093(2) -0.2396(16)
H7 H 0.616(2) 0.274(3) 0.1060(18)
H8 H 0.692(2) 0.426(3) 0.0806(17)
H9 H 0.599(3) -0.456(3) -0.124(2)
H10 H 0.617(2) -0.385(3) -0.2308(18)
H11 H 0.502(3) 0.305(3) -0.042(2)
loop_
_geom_bond_atom_site_label_1
_geom_bond_atom_site_label_2
_geom_bond_site_symmetry_1
_geom_bond_site_symmetry_2
S1 C1 1_555 1_555
O1 C8 1_555 1_555
O2 C9 1_555 1_555
N1 C4 1_555 1_555
N2 C7 1_555 1_555
N3 C7 1_555 1_555
C1 C2 1_555 1_555
C2 C3 1_555 1_555
C3 C4 1_555 1_555
C4 S1 1_555 1_555
C5 N1 1_555 1_555
C6 C5 1_555 1_555
C7 C6 1_555 1_555
C8 N1 1_555 1_555
C9 C4 1_555 1_555
F1 C3 1_555 1_555
F2 C3 1_555 1_555
H1 C1 1_555 1_555
H2 C1 1_555 1_555
H3 C2 1_555 1_555
H4 C2 1_555 1_555
H5 C5 1_555 1_555
H6 C6 1_555 1_555
H7 C9 1_555 1_555
H8 C9 1_555 1_555
H9 N3 1_555 1_555
H10 N3 1_555 1_555
H11 O2 1_555 1_555
N2 C8 1_555 1_555

#END
