
#######################################################################
#
#                 Cambridge Crystallographic Data Centre
#                                CCDC 
#
#######################################################################
#
# If this CIF has been generated from an entry in the Cambridge 
# Structural Database, then it will include bibliographic, chemical, 
# crystal, experimental, refinement or atomic coordinate data resulting 
# from the CCDC's data processing and validation procedures.
#
#######################################################################

data_AMAQAH
_chemical_formula_moiety         'C14 H11 Cl2 N3 S1'
_chemical_name_systematic        
1-(2,6-Dichlorobenzylidene)-4-phenylthiosemicarbazide
_symmetry_cell_setting           monoclinic
_symmetry_space_group_name_H-M   'C 2/c'
_symmetry_Int_Tables_number      15
_space_group_name_Hall           '-C 2yn'
loop_
_symmetry_equiv_pos_site_id
_symmetry_equiv_pos_as_xyz
1 x,y,z
2 -x,y,1/2-z
3 1/2+x,1/2+y,z
4 1/2-x,1/2+y,1/2-z
5 -x,-y,-z
6 x,-y,1/2+z
7 1/2-x,1/2-y,-z
8 1/2+x,1/2-y,1/2+z
_cell_length_a                   18.551(7)
_cell_length_b                   6.963(3)
_cell_length_c                   23.185(9)
_cell_angle_alpha                90
_cell_angle_beta                 93.122(6)
_cell_angle_gamma                90
_cell_volume                     2990.38
_exptl_crystal_colour            'light yellow'
_exptl_crystal_description       block
_cell_formula_units_Z            8
loop_
_atom_site_label
_atom_site_type_symbol
_atom_site_fract_x
_atom_site_fract_y
_atom_site_fract_z
C1 C 0.3188(3) 0.8276(8) 0.4173(3)
C2 C 0.4499(3) 0.7645(7) 0.5300(2)
H1 H 0.4184 0.7646 0.5598
C3 C 0.3540(3) 0.8506(9) 0.3150(2)
C4 C 0.3030(3) 0.9680(9) 0.2897(3)
H2 H 0.2718 1.0357 0.3123
C5 C 0.2977(3) 0.9866(10) 0.2304(3)
H3 H 0.2641 1.0716 0.2136
C6 C 0.3399(3) 0.8849(12) 0.1963(3)
H4 H 0.3346 0.8947 0.1562
C7 C 0.3914(4) 0.7649(12) 0.2225(3)
H5 H 0.4209 0.6929 0.1996
C8 C 0.3998(3) 0.7501(11) 0.2818(3)
H6 H 0.4360 0.6733 0.2989
C9 C 0.5260(3) 0.7340(8) 0.5448(3)
C10 C 0.5504(4) 0.7140(8) 0.6028(3)
C11 C 0.6200(4) 0.6765(9) 0.6206(3)
H7 H 0.6328 0.6643 0.6598
C12 C 0.6719(4) 0.6567(10) 0.5802(4)
H8 H 0.7198 0.6306 0.5915
C13 C 0.6506(4) 0.6768(9) 0.5233(4)
H9 H 0.6849 0.6639 0.4957
C14 C 0.5813(4) 0.7149(8) 0.5054(3)
Cl1 Cl 0.48916(10) 0.7413(3) 0.65688(7)
Cl2 Cl 0.56302(9) 0.7392(3) 0.43135(7)
N1 N 0.3672(2) 0.8335(6) 0.3761(2)
H10 H 0.4118 0.8261 0.3882
N2 N 0.3511(2) 0.8110(6) 0.47195(19)
H11 H 0.3252 0.8132 0.5016
N3 N 0.4238(2) 0.7911(6) 0.47884(19)
S1 S 0.23025(8) 0.8330(3) 0.40785(7)
loop_
_geom_bond_atom_site_label_1
_geom_bond_atom_site_label_2
_geom_bond_site_symmetry_1
_geom_bond_site_symmetry_2
C1 N1 1_555 1_555
C2 H1 1_555 1_555
C3 C4 1_555 1_555
C4 H2 1_555 1_555
C5 C4 1_555 1_555
H3 C5 1_555 1_555
C6 C5 1_555 1_555
H4 C6 1_555 1_555
C7 C6 1_555 1_555
H5 C7 1_555 1_555
C8 C3 1_555 1_555
H6 C8 1_555 1_555
C9 C2 1_555 1_555
C10 C9 1_555 1_555
C11 C10 1_555 1_555
H7 C11 1_555 1_555
C12 C11 1_555 1_555
H8 C12 1_555 1_555
C13 C12 1_555 1_555
H9 C13 1_555 1_555
C14 C9 1_555 1_555
Cl1 C10 1_555 1_555
Cl2 C14 1_555 1_555
N1 C3 1_555 1_555
H10 N1 1_555 1_555
N2 C1 1_555 1_555
H11 N2 1_555 1_555
N3 C2 1_555 1_555
S1 C1 1_555 1_555
C7 C8 1_555 1_555
C13 C14 1_555 1_555
N2 N3 1_555 1_555

#END
