
#######################################################################
#
#                 Cambridge Crystallographic Data Centre
#                                CCDC 
#
#######################################################################
#
# If this CIF has been generated from an entry in the Cambridge 
# Structural Database, then it will include bibliographic, chemical, 
# crystal, experimental, refinement or atomic coordinate data resulting 
# from the CCDC's data processing and validation procedures.
#
#######################################################################

data_AMAVOZ
_chemical_name_common            'Clobetasol propionate'
_chemical_formula_moiety         'C25 H32 Cl1 F1 O5'
_chemical_name_systematic        
'11\b,16\b-21-Chloro-9-fluoro-11,17-dihydroxy-16-methylpregna-1,4-diene-3,20-dione propionate'
_chemical_properties_biological  
'antiinflammatory, antipruritic and vasoconstricitve properties'
_symmetry_cell_setting           monoclinic
_symmetry_space_group_name_H-M   'P 21'
_symmetry_Int_Tables_number      4
_space_group_name_Hall           'P 2yb'
loop_
_symmetry_equiv_pos_site_id
_symmetry_equiv_pos_as_xyz
1 x,y,z
2 -x,1/2+y,-z
_cell_length_a                   7.6961(3)
_cell_length_b                   14.6036(5)
_cell_length_c                   10.4355(5)
_cell_angle_alpha                90
_cell_angle_beta                 95.739(2)
_cell_angle_gamma                90
_cell_volume                     1166.98
_exptl_crystal_colour            colorless
_exptl_crystal_description       prism
_cell_formula_units_Z            2
_exptl_crystal_recrystallization_method methanol/acetonitrile
loop_
_atom_site_label
_atom_site_type_symbol
_atom_site_fract_x
_atom_site_fract_y
_atom_site_fract_z
Cl1 Cl 0.2346(2) -0.0883(1) -0.5901(1)
F1 F -0.1850(2) -0.5253(1) -0.7459(1)
O1 O -0.2906(3) -0.7697(2) -1.0474(3)
O2 O -0.0471(4) -0.3359(2) -0.9218(2)
O3 O -0.1133(4) -0.1009(2) -0.4840(3)
O4 O -0.0035(3) -0.3327(2) -0.4285(2)
O5 O 0.0114(4) -0.2519(2) -0.2450(3)
C1 C -0.1326(4) -0.5423(2) -1.0070(3)
C2 C -0.1350(4) -0.6307(2) -1.0343(3)
C3 C -0.2867(4) -0.6869(2) -1.0201(3)
C4 C -0.4363(4) -0.6416(2) -0.9727(3)
C5 C -0.4368(4) -0.5527(2) -0.9427(3)
C6 C -0.5885(4) -0.5068(2) -0.8880(3)
C7 C -0.5290(4) -0.4604(2) -0.7604(3)
C8 C -0.3719(4) -0.3975(2) -0.7679(3)
C9 C -0.2228(3) -0.4485(2) -0.8263(3)
C10 C -0.2822(4) -0.4908(2) -0.9608(3)
C11 C -0.0453(4) -0.3970(2) -0.8176(3)
C12 C 0.0019(4) -0.3513(2) -0.6872(3)
C13 C -0.1484(4) -0.2961(2) -0.6385(3)
C14 C -0.3043(4) -0.3605(2) -0.6359(3)
C15 C -0.4275(4) -0.3097(2) -0.5557(3)
C16 C -0.3041(5) -0.2757(3) -0.4406(3)
C17 C -0.1197(4) -0.2647(2) -0.4924(3)
C18 C -0.1940(6) -0.2125(2) -0.7223(4)
C19 C -0.3422(6) -0.4186(3) -1.0657(3)
C20 C -0.0321(5) -0.1702(3) -0.4826(3)
C21 C 0.1652(5) -0.1691(3) -0.4801(4)
C22 C -0.3772(7) -0.1968(5) -0.3670(6)
C23 C 0.0464(5) -0.3207(4) -0.3019(3)
C24 C 0.1413(8) -0.4026(4) -0.2451(4)
C25 C 0.2737(9) -0.4400(4) -0.3168(6)
H1 H -0.400(5) -0.145(3) -0.429(4)
H2 H -0.480(6) -0.225(3) -0.326(4)
H3 H -0.281(7) -0.173(3) -0.312(5)
H4 H -0.222(6) -0.385(3) -1.089(4)
H5 H -0.430(5) -0.375(3) -1.036(3)
H6 H -0.377(4) -0.454(2) -1.146(3)
H7 H -0.230(5) -0.228(3) -0.813(4)
H8 H -0.282(5) -0.179(2) -0.695(3)
H9 H -0.088(4) -0.174(2) -0.727(3)
H10 H 0.047(6) -0.318(3) -0.922(4)
H11 H -0.0341(4) -0.6578(2) -1.0638(3)
H12 H -0.0290(4) -0.5091(2) -1.0177(3)
H13 H -0.5383(4) -0.6766(2) -0.9633(3)
H14 H -0.6362(4) -0.4621(2) -0.9475(3)
H15 H -0.6750(4) -0.5513(2) -0.8747(3)
H16 H -0.6231(4) -0.4249(2) -0.7349(3)
H17 H -0.4989(4) -0.5063(2) -0.6977(3)
H18 H -0.4829(4) -0.2601(2) -0.6025(3)
H19 H -0.5138(4) -0.3498(2) -0.5283(3)
H20 H 0.0371(4) -0.3972(2) -0.6256(3)
H21 H 0.0966(4) -0.3107(2) -0.6956(3)
H22 H 0.2039(5) -0.2282(3) -0.5026(4)
H23 H 0.2147(5) -0.1539(3) -0.3957(4)
H24 H 0.1918(8) -0.3881(4) -0.1608(4)
H25 H 0.0571(8) -0.4497(4) -0.2406(4)
H26 H 0.3224(9) -0.4935(4) -0.2757(6)
H27 H 0.2266(9) -0.4546(4) -0.4019(6)
H28 H 0.3621(9) -0.3948(4) -0.3197(6)
H29 H -0.2921(5) -0.3253(3) -0.3814(3)
H30 H -0.2632(4) -0.4120(2) -0.5863(3)
H31 H -0.4068(4) -0.3472(2) -0.8221(3)
H32 H 0.0421(4) -0.4416(2) -0.8281(3)
loop_
_geom_bond_atom_site_label_1
_geom_bond_atom_site_label_2
_geom_bond_site_symmetry_1
_geom_bond_site_symmetry_2
Cl1 C21 1_555 1_555
F1 C9 1_555 1_555
O1 C3 1_555 1_555
O2 C11 1_555 1_555
O3 C20 1_555 1_555
O4 C17 1_555 1_555
O5 C23 1_555 1_555
C1 C2 1_555 1_555
C2 C3 1_555 1_555
C3 C4 1_555 1_555
C4 C5 1_555 1_555
C5 C6 1_555 1_555
C6 C7 1_555 1_555
C7 C8 1_555 1_555
C8 C9 1_555 1_555
C9 C10 1_555 1_555
C10 C1 1_555 1_555
C11 C9 1_555 1_555
C12 C11 1_555 1_555
C13 C12 1_555 1_555
C14 C8 1_555 1_555
C15 C14 1_555 1_555
C16 C15 1_555 1_555
C17 C13 1_555 1_555
C18 C13 1_555 1_555
C19 C10 1_555 1_555
C20 C17 1_555 1_555
C21 C20 1_555 1_555
C22 C16 1_555 1_555
C23 O4 1_555 1_555
C24 C23 1_555 1_555
C25 C24 1_555 1_555
H1 C22 1_555 1_555
H2 C22 1_555 1_555
H3 C22 1_555 1_555
H4 C19 1_555 1_555
H5 C19 1_555 1_555
H6 C19 1_555 1_555
H7 C18 1_555 1_555
H8 C18 1_555 1_555
H9 C18 1_555 1_555
H10 O2 1_555 1_555
H11 C2 1_555 1_555
H12 C1 1_555 1_555
H13 C4 1_555 1_555
H14 C6 1_555 1_555
H15 C6 1_555 1_555
H16 C7 1_555 1_555
H17 C7 1_555 1_555
H18 C15 1_555 1_555
H19 C15 1_555 1_555
H20 C12 1_555 1_555
H21 C12 1_555 1_555
H22 C21 1_555 1_555
H23 C21 1_555 1_555
H24 C24 1_555 1_555
H25 C24 1_555 1_555
H26 C25 1_555 1_555
H27 C25 1_555 1_555
H28 C25 1_555 1_555
H29 C16 1_555 1_555
H30 C14 1_555 1_555
H31 C8 1_555 1_555
H32 C11 1_555 1_555
C5 C10 1_555 1_555
C13 C14 1_555 1_555
C16 C17 1_555 1_555

#END
