
#######################################################################
#
#                 Cambridge Crystallographic Data Centre
#                                CCDC 
#
#######################################################################
#
# If this CIF has been generated from an entry in the Cambridge 
# Structural Database, then it will include bibliographic, chemical, 
# crystal, experimental, refinement or atomic coordinate data resulting 
# from the CCDC's data processing and validation procedures.
#
#######################################################################

data_AMAVIT
_chemical_name_common            4,5-Dichlorophenamide
_chemical_formula_moiety         'C6 H6 Cl2 N2 O4 S2'
_chemical_name_systematic        4,5-Dichloro-1,3-benzenedisulfonamide
_chemical_properties_biological  
'a carbonic anhydrase inhibitor; used in the treatment of glaucoma and also as a diuretic'
_symmetry_cell_setting           monoclinic
_symmetry_space_group_name_H-M   'C 2/c'
_symmetry_Int_Tables_number      15
_space_group_name_Hall           '-C 2yn'
loop_
_symmetry_equiv_pos_site_id
_symmetry_equiv_pos_as_xyz
1 x,y,z
2 1/2+x,1/2+y,z
3 -x,y,1/2-z
4 1/2-x,1/2+y,1/2-z
5 -x,-y,-z
6 1/2-x,1/2-y,-z
7 x,-y,1/2+z
8 1/2+x,1/2-y,1/2+z
_cell_length_a                   17.202(2)
_cell_length_b                   7.9139(9)
_cell_length_c                   16.507(3)
_cell_angle_alpha                90
_cell_angle_beta                 94.716(9)
_cell_angle_gamma                90
_cell_volume                     2239.57
_exptl_crystal_colour            colorless
_exptl_crystal_description       'long chip'
_cell_formula_units_Z            8
_exptl_crystal_recrystallization_method methanol/acetonitrile
loop_
_atom_site_label
_atom_site_type_symbol
_atom_site_fract_x
_atom_site_fract_y
_atom_site_fract_z
Cl1 Cl 0.88071(4) -0.0571(1) 0.45887(5)
Cl2 Cl 0.71543(5) -0.0984(1) 0.36726(4)
S1 S 0.58151(3) 0.09935(8) 0.63672(4)
S2 S 0.89590(4) 0.09823(9) 0.64259(4)
O1 O 0.5205(1) 0.1544(3) 0.5786(1)
O2 O 0.6056(1) 0.2023(3) 0.7048(1)
O3 O 0.9420(1) 0.1939(3) 0.5914(1)
O4 O 0.8768(1) 0.1674(3) 0.7186(1)
N1 N 0.5555(2) -0.0772(4) 0.6690(2)
N2 N 0.9380(2) -0.0752(4) 0.6613(2)
C1 C 0.6658(1) 0.0663(3) 0.5842(1)
C2 C 0.7381(1) 0.0953(3) 0.6243(2)
C3 C 0.8048(1) 0.0602(3) 0.5861(1)
C4 C 0.7992(1) -0.0028(3) 0.5062(1)
C5 C 0.7253(1) -0.0268(4) 0.4663(1)
C6 C 0.6586(1) 0.0066(4) 0.5047(1)
H1 H 0.577(2) -0.125(5) 0.697(3)
H2 H 0.525(2) -0.134(5) 0.636(2)
H3 H 0.921(2) -0.137(5) 0.698(2)
H4 H 0.955(2) -0.123(5) 0.623(3)
H5 H 0.741(2) 0.137(4) 0.674(2)
H6 H 0.606(1) -0.023(3) 0.469(2)
loop_
_geom_bond_atom_site_label_1
_geom_bond_atom_site_label_2
_geom_bond_site_symmetry_1
_geom_bond_site_symmetry_2
Cl1 C4 1_555 1_555
Cl2 C5 1_555 1_555
S1 O1 1_555 1_555
S2 O3 1_555 1_555
O2 S1 1_555 1_555
O4 S2 1_555 1_555
N1 S1 1_555 1_555
N2 S2 1_555 1_555
C1 S1 1_555 1_555
C2 C1 1_555 1_555
C3 S2 1_555 1_555
C4 C3 1_555 1_555
C5 C4 1_555 1_555
C6 C1 1_555 1_555
H1 N1 1_555 1_555
H2 N1 1_555 1_555
H3 N2 1_555 1_555
H4 N2 1_555 1_555
H5 C2 1_555 1_555
H6 C6 1_555 1_555
C2 C3 1_555 1_555
C5 C6 1_555 1_555

#END
