
#######################################################################
#
#                 Cambridge Crystallographic Data Centre
#                                CCDC 
#
#######################################################################
#
# If this CIF has been generated from an entry in the Cambridge 
# Structural Database, then it will include bibliographic, chemical, 
# crystal, experimental, refinement or atomic coordinate data resulting 
# from the CCDC's data processing and validation procedures.
#
#######################################################################

data_AMAWAO
_chemical_formula_moiety         'C25 H29 F1 O3 S1'
_chemical_name_systematic        
2-(4-fluorophenyl)-5,5,8a-trimethyl-3-((4-methylphenyl)sulfonyl)-4a,5,6,7,8,8a-hexahydro-4H-chromene
_symmetry_cell_setting           orthorhombic
_symmetry_space_group_name_H-M   'P b c n'
_symmetry_Int_Tables_number      60
_space_group_name_Hall           '-P 2n 2ab'
loop_
_symmetry_equiv_pos_site_id
_symmetry_equiv_pos_as_xyz
1 x,y,z
2 1/2+x,1/2-y,-z
3 -x,y,1/2-z
4 1/2-x,1/2-y,1/2+z
5 -x,-y,-z
6 1/2-x,1/2+y,z
7 x,-y,1/2+z
8 1/2+x,1/2+y,1/2-z
_cell_length_a                   18.4792(14)
_cell_length_b                   10.7741(7)
_cell_length_c                   22.6790(16)
_cell_angle_alpha                90
_cell_angle_beta                 90
_cell_angle_gamma                90
_cell_volume                     4515.32
_exptl_crystal_colour            colorless
_cell_formula_units_Z            8
loop_
_atom_site_label
_atom_site_type_symbol
_atom_site_fract_x
_atom_site_fract_y
_atom_site_fract_z
S1 S 0.02374(5) 0.23636(7) 0.01647(3)
F1 F -0.1000(2) 0.6442(3) 0.20540(15)
O1 O 0.08945(13) 0.1782(2) 0.18155(10)
O2 O 0.04774(15) 0.3584(2) 0.00045(11)
O3 O 0.02893(13) 0.1407(2) -0.02776(10)
C1 C -0.2881(2) 0.2600(5) 0.0966(3)
H1 H -0.3006 0.3429 0.1083
H2 H -0.2947 0.2047 0.1294
H3 H -0.3186 0.2345 0.0646
C2 C -0.2101(2) 0.2566(4) 0.07718(18)
C3 C -0.1752(2) 0.3598(4) 0.05573(18)
H4 H -0.2003 0.4345 0.0538
C4 C -0.1041(2) 0.3564(3) 0.03688(16)
H5 H -0.0815 0.4275 0.0227
C5 C -0.06727(18) 0.2452(3) 0.03954(14)
C6 C 0.07132(17) 0.1802(3) 0.07822(13)
C7 C 0.06059(17) 0.2302(3) 0.13188(14)
C8 C 0.11536(19) 0.0493(3) 0.17717(15)
C9 C 0.1598(2) 0.0344(4) 0.23324(16)
H6 H 0.1276 0.0312 0.2670
H7 H 0.1913 0.1057 0.2379
C10 C 0.2056(2) -0.0843(4) 0.23131(18)
H8 H 0.2358 -0.0883 0.2662
H9 H 0.1739 -0.1561 0.2315
C11 C -0.1713(2) 0.1462(4) 0.07992(17)
H10 H -0.1934 0.0754 0.0949
C12 C -0.10066(19) 0.1398(3) 0.06082(15)
H11 H -0.0756 0.0650 0.0623
C13 C 0.12001(18) 0.0709(3) 0.06730(14)
H12 H 0.1527 0.0895 0.0350
H13 H 0.0911 -0.0006 0.0563
C14 C 0.16352(18) 0.0414(3) 0.12256(14)
H14 H 0.1980 0.1099 0.1266
C15 C 0.21078(19) -0.0781(3) 0.11890(16)
C16 C 0.2531(2) -0.0881(4) 0.17677(16)
H15 H 0.2802 -0.1652 0.1767
H16 H 0.2876 -0.0204 0.1788
C17 C 0.2648(2) -0.0634(4) 0.06825(17)
H17 H 0.2888 0.0153 0.0716
H18 H 0.2395 -0.0675 0.0313
H19 H 0.2999 -0.1289 0.0701
C18 C 0.1675(2) -0.1967(4) 0.1072(2)
H20 H 0.1347 -0.1830 0.0751
H21 H 0.1407 -0.2186 0.1419
H22 H 0.2001 -0.2629 0.0973
C19 C 0.01683(17) 0.3403(3) 0.14806(14)
C20 C -0.04017(19) 0.3247(4) 0.18695(15)
H23 H -0.0516 0.2457 0.2007
C21 C -0.0801(2) 0.4257(4) 0.20546(17)
H24 H -0.1188 0.4159 0.2312
C22 C -0.0613(3) 0.5397(4) 0.18496(19)
C23 C -0.0059(3) 0.5603(4) 0.1466(2)
H25 H 0.0052 0.6398 0.1335
C24 C 0.0333(2) 0.4581(3) 0.12793(17)
H26 H 0.0713 0.4688 0.1015
C25 C 0.0488(2) -0.0331(4) 0.17621(19)
H27 H 0.0112 0.0043 0.1993
H28 H 0.0606 -0.1129 0.1924
H29 H 0.0324 -0.0429 0.1363
loop_
_geom_bond_atom_site_label_1
_geom_bond_atom_site_label_2
_geom_bond_site_symmetry_1
_geom_bond_site_symmetry_2
S1 O2 1_555 1_555
F1 C22 1_555 1_555
O1 C7 1_555 1_555
O3 S1 1_555 1_555
C1 H1 1_555 1_555
H2 C1 1_555 1_555
H3 C1 1_555 1_555
C2 C1 1_555 1_555
C3 C2 1_555 1_555
H4 C3 1_555 1_555
C4 C3 1_555 1_555
H5 C4 1_555 1_555
C5 S1 1_555 1_555
C6 S1 1_555 1_555
C7 C6 1_555 1_555
C8 O1 1_555 1_555
C9 C8 1_555 1_555
H6 C9 1_555 1_555
H7 C9 1_555 1_555
C10 C9 1_555 1_555
H8 C10 1_555 1_555
H9 C10 1_555 1_555
C11 C2 1_555 1_555
H10 C11 1_555 1_555
C12 C5 1_555 1_555
H11 C12 1_555 1_555
C13 C6 1_555 1_555
H12 C13 1_555 1_555
H13 C13 1_555 1_555
C14 C8 1_555 1_555
H14 C14 1_555 1_555
C15 C14 1_555 1_555
C16 C10 1_555 1_555
H15 C16 1_555 1_555
H16 C16 1_555 1_555
C17 C15 1_555 1_555
H17 C17 1_555 1_555
H18 C17 1_555 1_555
H19 C17 1_555 1_555
C18 C15 1_555 1_555
H20 C18 1_555 1_555
H21 C18 1_555 1_555
H22 C18 1_555 1_555
C19 C7 1_555 1_555
C20 C19 1_555 1_555
H23 C20 1_555 1_555
C21 C20 1_555 1_555
H24 C21 1_555 1_555
C22 C21 1_555 1_555
C23 C22 1_555 1_555
H25 C23 1_555 1_555
C24 C19 1_555 1_555
H26 C24 1_555 1_555
C25 C8 1_555 1_555
H27 C25 1_555 1_555
H28 C25 1_555 1_555
H29 C25 1_555 1_555
C4 C5 1_555 1_555
C11 C12 1_555 1_555
C13 C14 1_555 1_555
C15 C16 1_555 1_555
C23 C24 1_555 1_555

#END
