
#######################################################################
#
#                 Cambridge Crystallographic Data Centre
#                                CCDC 
#
#######################################################################
#
# If this CIF has been generated from an entry in the Cambridge 
# Structural Database, then it will include bibliographic, chemical, 
# crystal, experimental, refinement or atomic coordinate data resulting 
# from the CCDC's data processing and validation procedures.
#
#######################################################################

data_AMAXAP
_chemical_formula_moiety         'C31 H40 O3 S1'
_chemical_name_systematic        
4a,7,7,10a-tetramethyl-3-(4-methylphenyl)-2-((4-methylphenyl)sulfonyl)-4a,5,6,6a,7,8,9,10,10a,10b-decahydro-1H-benzo[f]chromene
_symmetry_cell_setting           monoclinic
_symmetry_space_group_name_H-M   'P 21/n'
_symmetry_Int_Tables_number      14
_space_group_name_Hall           '-P 2yn'
loop_
_symmetry_equiv_pos_site_id
_symmetry_equiv_pos_as_xyz
1 x,y,z
2 1/2-x,1/2+y,1/2-z
3 -x,-y,-z
4 1/2+x,1/2-y,1/2+z
_cell_length_a                   6.9224(6)
_cell_length_b                   27.150(2)
_cell_length_c                   14.7171(13)
_cell_angle_alpha                90
_cell_angle_beta                 101.813(2)
_cell_angle_gamma                90
_cell_volume                     2707.4
_exptl_crystal_colour            colorless
_cell_formula_units_Z            4
loop_
_atom_site_label
_atom_site_type_symbol
_atom_site_fract_x
_atom_site_fract_y
_atom_site_fract_z
S1 S 1.09612(10) 0.07360(3) 0.39643(5)
O1 O 0.7902(3) 0.16880(7) 0.51761(13)
O2 O 1.2240(3) 0.10207(8) 0.35178(15)
O3 O 1.1740(3) 0.02876(7) 0.44190(14)
C1 C 0.3546(5) 0.02604(16) 0.1144(3)
H1 H 0.3109 0.0552 0.0792
H2 H 0.2546 0.0155 0.1466
H3 H 0.3790 0.0004 0.0732
C2 C 0.5417(5) 0.03707(12) 0.1836(2)
C3 C 0.5606(5) 0.02434(11) 0.2762(2)
H4 H 0.4567 0.0085 0.2954
C4 C 0.7291(4) 0.03469(10) 0.3399(2)
H5 H 0.7394 0.0256 0.4017
C5 C 0.8833(4) 0.05849(10) 0.31283(19)
C6 C 1.0066(4) 0.10797(10) 0.48065(18)
C7 C 1.0644(4) 0.08950(10) 0.57860(18)
H6 H 1.2059 0.0842 0.5945
H7 H 0.9995 0.0583 0.5844
C8 C 1.0047(4) 0.12703(10) 0.64423(18)
H8 H 1.0856 0.1561 0.6392
C9 C 1.0532(4) 0.11313(10) 0.74872(18)
C10 C 0.9981(4) 0.15835(11) 0.80230(19)
H9 H 1.0676 0.1859 0.7802
C11 C 1.0721(5) 0.15885(12) 0.9090(2)
C12 C 0.9614(5) 0.12404(15) 0.9615(2)
H10 H 1.0119 0.1274 1.0270
H11 H 0.9791 0.0907 0.9430
H12 H 0.8234 0.1321 0.9477
C13 C 0.7001(5) 0.06028(12) 0.1576(2)
H13 H 0.6915 0.0684 0.0955
C14 C 0.8693(5) 0.07161(11) 0.2208(2)
H14 H 0.9729 0.0878 0.2020
C15 C 1.0556(7) 0.21133(15) 0.9448(3)
H15 H 0.9191 0.2194 0.9407
H16 H 1.1130 0.2340 0.9079
H17 H 1.1243 0.2134 1.0084
C16 C 1.2934(5) 0.14641(15) 0.9306(2)
H18 H 1.3367 0.1422 0.9971
H19 H 1.3659 0.1739 0.9121
C17 C 1.3448(5) 0.09947(15) 0.8815(2)
H20 H 1.4863 0.0941 0.8965
H21 H 1.2814 0.0712 0.9032
C18 C 1.2761(4) 0.10441(13) 0.7766(2)
H22 H 1.3097 0.0746 0.7469
H23 H 1.3450 0.1317 0.7548
C19 C 0.7796(4) 0.17091(12) 0.7697(2)
H24 H 0.7000 0.1430 0.7810
H25 H 0.7464 0.1987 0.8050
C20 C 0.7323(4) 0.18352(12) 0.6669(2)
H26 H 0.5915 0.1893 0.6478
H27 H 0.7996 0.2138 0.6573
C21 C 0.7921(4) 0.14352(11) 0.60647(19)
C22 C 0.8832(4) 0.14602(10) 0.45626(19)
C23 C 0.8255(4) 0.16903(10) 0.36375(19)
C24 C 0.6307(4) 0.16764(11) 0.3171(2)
H28 H 0.5360 0.1527 0.3445
C25 C 0.5767(5) 0.18839(11) 0.2300(2)
H29 H 0.4454 0.1869 0.1991
C26 C 0.7137(5) 0.21153(11) 0.1872(2)
C27 C 0.9051(5) 0.21338(12) 0.2357(2)
H30 H 0.9991 0.2290 0.2089
C28 C 0.9632(5) 0.19293(11) 0.3225(2)
H31 H 1.0942 0.1951 0.3535
C29 C 0.6551(6) 0.23274(13) 0.0905(2)
H32 H 0.7346 0.2612 0.0854
H33 H 0.5185 0.2421 0.0789
H34 H 0.6751 0.2085 0.0459
C30 C 0.6372(4) 0.10297(12) 0.5852(2)
H35 H 0.5198 0.1158 0.5461
H36 H 0.6065 0.0912 0.6421
H37 H 0.6876 0.0763 0.5540
C31 C 0.9488(5) 0.06541(11) 0.7678(2)
H38 H 0.9530 0.0421 0.7193
H39 H 0.8139 0.0725 0.7699
H40 H 1.0144 0.0519 0.8263
loop_
_geom_bond_atom_site_label_1
_geom_bond_atom_site_label_2
_geom_bond_site_symmetry_1
_geom_bond_site_symmetry_2
S1 O2 1_555 1_555
O1 C21 1_555 1_555
O3 S1 1_555 1_555
C1 H1 1_555 1_555
H2 C1 1_555 1_555
H3 C1 1_555 1_555
C2 C1 1_555 1_555
C3 C2 1_555 1_555
H4 C3 1_555 1_555
C4 C3 1_555 1_555
H5 C4 1_555 1_555
C5 S1 1_555 1_555
C6 S1 1_555 1_555
C7 C6 1_555 1_555
H6 C7 1_555 1_555
H7 C7 1_555 1_555
C8 C7 1_555 1_555
H8 C8 1_555 1_555
C9 C8 1_555 1_555
C10 C9 1_555 1_555
H9 C10 1_555 1_555
C11 C10 1_555 1_555
C12 C11 1_555 1_555
H10 C12 1_555 1_555
H11 C12 1_555 1_555
H12 C12 1_555 1_555
C13 C2 1_555 1_555
H13 C13 1_555 1_555
C14 C5 1_555 1_555
H14 C14 1_555 1_555
C15 C11 1_555 1_555
H15 C15 1_555 1_555
H16 C15 1_555 1_555
H17 C15 1_555 1_555
C16 C11 1_555 1_555
H18 C16 1_555 1_555
H19 C16 1_555 1_555
C17 C16 1_555 1_555
H20 C17 1_555 1_555
H21 C17 1_555 1_555
C18 C9 1_555 1_555
H22 C18 1_555 1_555
H23 C18 1_555 1_555
C19 C10 1_555 1_555
H24 C19 1_555 1_555
H25 C19 1_555 1_555
C20 C19 1_555 1_555
H26 C20 1_555 1_555
H27 C20 1_555 1_555
C21 C8 1_555 1_555
C22 O1 1_555 1_555
C23 C22 1_555 1_555
C24 C23 1_555 1_555
H28 C24 1_555 1_555
C25 C24 1_555 1_555
H29 C25 1_555 1_555
C26 C25 1_555 1_555
C27 C26 1_555 1_555
H30 C27 1_555 1_555
C28 C23 1_555 1_555
H31 C28 1_555 1_555
C29 C26 1_555 1_555
H32 C29 1_555 1_555
H33 C29 1_555 1_555
H34 C29 1_555 1_555
C30 C21 1_555 1_555
H35 C30 1_555 1_555
H36 C30 1_555 1_555
H37 C30 1_555 1_555
C31 C9 1_555 1_555
H38 C31 1_555 1_555
H39 C31 1_555 1_555
H40 C31 1_555 1_555
C4 C5 1_555 1_555
C6 C22 1_555 1_555
C13 C14 1_555 1_555
C17 C18 1_555 1_555
C20 C21 1_555 1_555
C27 C28 1_555 1_555

#END
