
#######################################################################
#
#                 Cambridge Crystallographic Data Centre
#                                CCDC 
#
#######################################################################
#
# If this CIF has been generated from an entry in the Cambridge 
# Structural Database, then it will include bibliographic, chemical, 
# crystal, experimental, refinement or atomic coordinate data resulting 
# from the CCDC's data processing and validation procedures.
#
#######################################################################

data_AMCPHO
_chemical_formula_moiety         'C6 H6 Cl1 N1 O1'
_chemical_name_systematic        2-Amino-4-chlorophenol
_symmetry_cell_setting           monoclinic
_symmetry_space_group_name_H-M   'P 21/c'
_symmetry_Int_Tables_number      14
_space_group_name_Hall           '-P 2ybc'
loop_
_symmetry_equiv_pos_site_id
_symmetry_equiv_pos_as_xyz
1 x,y,z
2 -x,1/2+y,1/2-z
3 -x,-y,-z
4 x,1/2-y,1/2+z
_cell_length_a                   11.226(12)
_cell_length_b                   7.374(9)
_cell_length_c                   8.011(10)
_cell_angle_alpha                90
_cell_angle_beta                 105.8(3)
_cell_angle_gamma                90
_cell_volume                     638.099
_exptl_crystal_colour            'dark brown'
_chemical_melting_point          411K
_cell_formula_units_Z            4
loop_
_atom_site_label
_atom_site_type_symbol
_atom_site_fract_x
_atom_site_fract_y
_atom_site_fract_z
Cl1 Cl -0.01110 0.04030 0.27630
O1 O 0.49810 -0.07040 0.23980
N1 N 0.35580 0.17700 0.02850
C1 C 0.37980 -0.04680 0.25430
C2 C 0.30450 0.07370 0.14260
C3 C 0.18450 0.10040 0.15110
C4 C 0.13990 0.00630 0.27120
C5 C 0.21500 -0.11190 0.38570
C6 C 0.33530 -0.14000 0.37600
H1 H 0.12800 0.19800 0.07700
H2 H 0.17900 -0.17600 0.48700
H3 H 0.39000 -0.21700 0.44400
loop_
_geom_bond_atom_site_label_1
_geom_bond_atom_site_label_2
_geom_bond_site_symmetry_1
_geom_bond_site_symmetry_2
Cl1 C4 1_555 1_555
O1 C1 1_555 1_555
N1 C2 1_555 1_555
C1 C2 1_555 1_555
C2 C3 1_555 1_555
C3 C4 1_555 1_555
C4 C5 1_555 1_555
C5 C6 1_555 1_555
C6 C1 1_555 1_555
H1 C3 1_555 1_555
H2 C5 1_555 1_555
H3 C6 1_555 1_555

#END
