
#######################################################################
#
#                 Cambridge Crystallographic Data Centre
#                                CCDC 
#
#######################################################################
#
# If this CIF has been generated from an entry in the Cambridge 
# Structural Database, then it will include bibliographic, chemical, 
# crystal, experimental, refinement or atomic coordinate data resulting 
# from the CCDC's data processing and validation procedures.
#
#######################################################################

data_AMECEB
_chemical_name_common            
'1-ethyl-3-(methyl 2,3,4-tri-O-benzoyl-6-deoxy-alpha-D-glucopyrano-6-yl)-imidazolium bromide monohydrate'
_chemical_formula_moiety         'C33 H33 N2 O8 1+,H2 O1,Br1 1-'
_chemical_name_systematic        
'1-ethyl-3-((3,4,5-tris(benzoyloxy)-6-methoxytetrahydro-2H-pyran-2-yl)methyl)-1H-imidazol-3-ium bromide monohydrate'
_symmetry_cell_setting           monoclinic
_symmetry_space_group_name_H-M   'C 2'
_symmetry_Int_Tables_number      5
_space_group_name_Hall           'C 2y'
loop_
_symmetry_equiv_pos_site_id
_symmetry_equiv_pos_as_xyz
1 x,y,z
2 -x,y,-z
3 1/2+x,1/2+y,z
4 1/2-x,1/2+y,-z
_cell_length_a                   42.873(7)
_cell_length_b                   5.7060(10)
_cell_length_c                   13.107(2)
_cell_angle_alpha                90
_cell_angle_beta                 90.400(4)
_cell_angle_gamma                90
_cell_volume                     3206.33
_exptl_crystal_colour            colorless
_exptl_crystal_description       plate
_cell_formula_units_Z            4
loop_
_atom_site_label
_atom_site_type_symbol
_atom_site_fract_x
_atom_site_fract_y
_atom_site_fract_z
Br1 Br 0.0000 -0.53547(13) -0.5000
Br2 Br 0.03202(2) 0.33197(18) 0.06686(6)
O1 O 0.08666(6) 0.0448(5) -0.3230(2)
O2 O 0.10178(6) -0.3396(5) -0.3557(2)
O3 O 0.16282(6) -0.2263(5) -0.37083(18)
O4 O 0.15477(7) -0.1307(5) -0.53538(19)
O5 O 0.17539(6) 0.0496(5) -0.20205(19)
O6 O 0.18642(8) -0.2925(6) -0.1237(3)
O7 O 0.12405(7) 0.1324(5) -0.0739(2)
O8 O 0.11106(7) 0.5166(5) -0.0645(2)
N1 N 0.03205(9) 0.0536(8) -0.2050(3)
N2 N -0.00902(9) -0.0451(9) -0.2918(4)
C1 C 0.10746(9) -0.1050(6) -0.3735(3)
H1 H 0.1055 -0.0759 -0.4485
C2 C 0.14097(8) -0.0477(7) -0.3403(3)
H2 H 0.1473 0.1055 -0.3710
C3 C 0.14436(8) -0.0332(7) -0.2248(3)
H3 H 0.1414 -0.1923 -0.1944
C4 C 0.12024(9) 0.1335(7) -0.1825(3)
H4 H 0.1233 0.2949 -0.2104
C5 C 0.08855(9) 0.0363(7) -0.2144(3)
H5 H 0.0867 -0.1298 -0.1910
C6 C 0.07411(10) -0.4133(8) -0.4081(4)
H6 H 0.0559 -0.3420 -0.3759
H7 H 0.0724 -0.5844 -0.4047
H8 H 0.0751 -0.3641 -0.4796
C7 C 0.16726(8) -0.2524(7) -0.4720(3)
C8 C 0.18861(9) -0.4489(7) -0.4938(3)
C9 C 0.20017(9) -0.4727(7) -0.5929(3)
H9 H 0.1951 -0.3589 -0.6432
C10 C 0.21884(9) -0.6608(8) -0.6176(3)
H10 H 0.2267 -0.6764 -0.6849
C11 C 0.22608(9) -0.8260(7) -0.5446(3)
H11 H 0.2386 -0.9570 -0.5620
C12 C 0.21503(9) -0.8021(7) -0.4445(3)
H12 H 0.2204 -0.9153 -0.3942
C13 C 0.19644(9) -0.6154(7) -0.4194(3)
H13 H 0.1889 -0.5990 -0.3517
C14 C 0.19451(10) -0.1037(7) -0.1526(3)
C15 C 0.22721(8) -0.0145(7) -0.1425(3)
C16 C 0.24870(9) -0.1632(8) -0.0975(3)
H14 H 0.2421 -0.3102 -0.0714
C17 C 0.28007(9) -0.0990(7) -0.0901(3)
H15 H 0.2949 -0.2019 -0.0595
C18 C 0.28944(9) 0.1185(8) -0.1282(3)
H16 H 0.3107 0.1639 -0.1240
C19 C 0.26780(9) 0.2671(7) -0.1719(3)
H17 H 0.2743 0.4148 -0.1976
C20 C 0.23682(9) 0.2039(7) -0.1789(3)
H18 H 0.2221 0.3084 -0.2084
C21 C 0.11978(9) 0.3378(7) -0.0229(3)
C22 C 0.12715(9) 0.3117(7) 0.0870(3)
C23 C 0.14131(10) 0.1101(8) 0.1255(3)
H19 H 0.1465 -0.0155 0.0812
C24 C 0.14779(10) 0.0946(9) 0.2289(3)
H20 H 0.1581 -0.0402 0.2549
C25 C 0.13947(11) 0.2710(9) 0.2941(3)
H21 H 0.1432 0.2550 0.3653
C26 C 0.12573(12) 0.4719(10) 0.2564(4)
H22 H 0.1206 0.5959 0.3016
C27 C 0.11931(11) 0.4944(8) 0.1526(3)
H23 H 0.1097 0.6325 0.1269
C28 C 0.06094(10) 0.1757(9) -0.1768(4)
H24 H 0.0622 0.1933 -0.1018
H25 H 0.0611 0.3340 -0.2077
C29 C 0.01350(10) 0.1115(10) -0.2833(4)
H26 H 0.0161 0.2443 -0.3261
C30 C 0.02095(13) -0.1496(12) -0.1630(4)
H27 H 0.0297 -0.2319 -0.1067
C31 C -0.00482(13) -0.2108(13) -0.2169(6)
H28 H -0.0176 -0.3438 -0.2052
C32 C -0.03489(11) -0.0436(13) -0.3646(5)
H29 H -0.0349 -0.1904 -0.4049
H30 H -0.0327 0.0900 -0.4122
C33 C -0.0653(2) -0.022(2) -0.3058(8)
H31 H -0.0699 -0.1704 -0.2716
H35 H -0.0641 0.1138 -0.2543
H36 H -0.0832 0.0280 -0.3527
O9 O 0.06189(15) 0.8187(18) 0.0398(5)
H37 H 0.0588 0.9421 0.0725
H38 H 0.0770 0.8259 0.0022
H32? H -0.0824 0.0168 -0.3532
H33? H -0.0633 0.1030 -0.2547
H34? H -0.0628 0.2624 -0.3577
C34? C -0.0640(3) 0.104(3) -0.3290(10)
H39? H -0.0345 -0.1883 -0.4063
H40? H -0.0332 0.0929 -0.4109
loop_
_geom_bond_atom_site_label_1
_geom_bond_atom_site_label_2
_geom_bond_site_symmetry_1
_geom_bond_site_symmetry_2
O1 C1 1_555 1_555
O2 C1 1_555 1_555
O3 C2 1_555 1_555
O4 C7 1_555 1_555
O5 C3 1_555 1_555
O6 C14 1_555 1_555
O7 C4 1_555 1_555
O8 C21 1_555 1_555
N1 C28 1_555 1_555
N2 C29 1_555 1_555
C1 H1 1_555 1_555
C2 C1 1_555 1_555
H2 C2 1_555 1_555
C3 C2 1_555 1_555
H3 C3 1_555 1_555
C4 C3 1_555 1_555
H4 C4 1_555 1_555
C5 O1 1_555 1_555
H5 C5 1_555 1_555
C6 O2 1_555 1_555
H6 C6 1_555 1_555
H7 C6 1_555 1_555
H8 C6 1_555 1_555
C7 O3 1_555 1_555
C8 C7 1_555 1_555
C9 C8 1_555 1_555
H9 C9 1_555 1_555
C10 C9 1_555 1_555
H10 C10 1_555 1_555
C11 C10 1_555 1_555
H11 C11 1_555 1_555
C12 C11 1_555 1_555
H12 C12 1_555 1_555
C13 C8 1_555 1_555
H13 C13 1_555 1_555
C14 O5 1_555 1_555
C15 C14 1_555 1_555
C16 C15 1_555 1_555
H14 C16 1_555 1_555
C17 C16 1_555 1_555
H15 C17 1_555 1_555
C18 C17 1_555 1_555
H16 C18 1_555 1_555
C19 C18 1_555 1_555
H17 C19 1_555 1_555
C20 C15 1_555 1_555
H18 C20 1_555 1_555
C21 O7 1_555 1_555
C22 C21 1_555 1_555
C23 C22 1_555 1_555
H19 C23 1_555 1_555
C24 C23 1_555 1_555
H20 C24 1_555 1_555
C25 C24 1_555 1_555
H21 C25 1_555 1_555
C26 C25 1_555 1_555
H22 C26 1_555 1_555
C27 C22 1_555 1_555
H23 C27 1_555 1_555
C28 C5 1_555 1_555
H24 C28 1_555 1_555
H25 C28 1_555 1_555
C29 N1 1_555 1_555
H26 C29 1_555 1_555
C30 N1 1_555 1_555
H27 C30 1_555 1_555
C31 N2 1_555 1_555
H28 C31 1_555 1_555
C32 N2 1_555 1_555
H29 C32 1_555 1_555
H30 C32 1_555 1_555
C33 C32 1_555 1_555
H31 C33 1_555 1_555
H35 C33 1_555 1_555
H36 C33 1_555 1_555
O9 H37 1_555 1_555
H38 O9 1_555 1_555
C4 C5 1_555 1_555
C12 C13 1_555 1_555
C19 C20 1_555 1_555
C26 C27 1_555 1_555
C30 C31 1_555 1_555

#END
