
#######################################################################
#
#                 Cambridge Crystallographic Data Centre
#                                CCDC 
#
#######################################################################
#
# If this CIF has been generated from an entry in the Cambridge 
# Structural Database, then it will include bibliographic, chemical, 
# crystal, experimental, refinement or atomic coordinate data resulting 
# from the CCDC's data processing and validation procedures.
#
#######################################################################

data_AMENAI
_chemical_compound_source        'Rheum hotaoense'
_chemical_name_common            
2-(3-Hydroxy-5-(2-(3-hydroxy-4-methoxyphenyl)vinyl)phenoxy)-6-(hydroxymethyl)tetrahydro-2H-pyran-3,4,5-triol
_chemical_formula_moiety         'C21 H24 O9'
_chemical_name_systematic        Rhaponticin
_symmetry_cell_setting           triclinic
_symmetry_space_group_name_H-M   'P 1'
_symmetry_Int_Tables_number      1
_space_group_name_Hall           'P 1'
loop_
_symmetry_equiv_pos_site_id
_symmetry_equiv_pos_as_xyz
1 x,y,z
_cell_length_a                   5.1240(12)
_cell_length_b                   7.0453(17)
_cell_length_c                   14.535(4)
_cell_angle_alpha                83.182(3)
_cell_angle_beta                 89.212(3)
_cell_angle_gamma                68.956(3)
_cell_volume                     486.02
_exptl_crystal_colour            colorless
_exptl_crystal_description       block
_chemical_melting_point          '245-247 deg.C'
_cell_formula_units_Z            1
_exptl_crystal_recrystallization_method ethanol
loop_
_atom_site_label
_atom_site_type_symbol
_atom_site_fract_x
_atom_site_fract_y
_atom_site_fract_z
O1 O -0.6495(8) 0.4280(6) 0.4437(2)
O2 O -0.4798(12) 0.7375(7) 0.4646(3)
O3 O 0.5353(8) 1.2794(5) 0.0224(2)
H1 H 0.6289 1.2949 -0.0220
O4 O 0.5222(6) 0.7047(5) -0.1282(2)
O5 O 0.7313(6) 0.8130(5) -0.2515(2)
O6 O 0.7786(8) 1.1531(5) -0.3606(2)
H2 H 0.8979 1.1743 -0.3308
O7 O 1.3637(7) 0.5586(5) -0.3739(2)
O8 O 1.2239(7) 0.2136(5) -0.2782(2)
H3 H 1.3698 0.1873 -0.3065
O9 O 0.9057(8) 0.3126(6) -0.1171(3)
H4 H 1.0660 0.2285 -0.1126
C1 C -0.7399(13) 0.2610(9) 0.4346(4)
H5 H -0.8494 0.2891 0.3781
H6 H -0.8514 0.2443 0.4863
H7 H -0.5796 0.1377 0.4332
C2 C -0.5071(10) 0.4870(7) 0.3720(3)
C3 C -0.4439(10) 0.3965(8) 0.2913(3)
H8 H -0.4986 0.2876 0.2821
C4 C -0.2971(10) 0.4706(8) 0.2237(3)
H9 H -0.2554 0.4097 0.1693
C5 C -0.2117(10) 0.6314(8) 0.2349(3)
C6 C -0.2790(11) 0.7224(8) 0.3176(3)
H10 H -0.2253 0.8315 0.3272
C7 C -0.4257(11) 0.6483(8) 0.3849(3)
C8 C -0.0558(10) 0.6990(8) 0.1614(3)
H11 H -0.0190 0.6256 0.1106
C9 C 0.0399(11) 0.8506(8) 0.1577(3)
H12 H -0.0014 0.9302 0.2064
C10 C 0.2064(9) 0.9039(7) 0.0827(3)
C11 C 0.2888(9) 0.7846(7) 0.0093(3)
H13 H 0.2328 0.6736 0.0064
C12 C 0.4542(9) 0.8334(7) -0.0588(3)
C13 C 0.5390(9) 0.9977(7) -0.0575(3)
H14 H 0.6461 1.0298 -0.1047
C14 C 0.4612(10) 1.1146(7) 0.0157(3)
C15 C 0.2939(9) 1.0687(7) 0.0841(3)
H15 H 0.2391 1.1502 0.1319
C16 C 0.7787(9) 0.6704(7) -0.1711(3)
H16 H 0.9159 0.6855 -0.1290
C17 C 0.8766(10) 0.4545(7) -0.1979(3)
H17 H 0.7340 0.4448 -0.2394
C18 C 1.1466(10) 0.4144(7) -0.2500(3)
H18 H 1.2936 0.4186 -0.2087
C19 C 1.1015(9) 0.5756(7) -0.3329(3)
H19 H 0.9758 0.5583 -0.3787
C20 C 0.9778(9) 0.7918(7) -0.3040(3)
H20 H 1.1166 0.8166 -0.2662
C21 C 0.8895(11) 0.9514(7) -0.3866(3)
H21 H 1.0493 0.9392 -0.4252
H22 H 0.7490 0.9280 -0.4229
H23 H -0.555(13) 0.669(8) 0.498(4)
H24 H 1.424(13) 0.447(5) -0.393(4)
loop_
_geom_bond_atom_site_label_1
_geom_bond_atom_site_label_2
_geom_bond_site_symmetry_1
_geom_bond_site_symmetry_2
O1 C1 1_555 1_555
O2 C7 1_555 1_555
O3 H1 1_555 1_555
O4 C12 1_555 1_555
O5 C16 1_555 1_555
O6 H2 1_555 1_555
O7 C19 1_555 1_555
O8 H3 1_555 1_555
O9 H4 1_555 1_555
C1 H5 1_555 1_555
H6 C1 1_555 1_555
H7 C1 1_555 1_555
C2 O1 1_555 1_555
C3 C2 1_555 1_555
H8 C3 1_555 1_555
C4 C3 1_555 1_555
H9 C4 1_555 1_555
C5 C4 1_555 1_555
C6 C5 1_555 1_555
H10 C6 1_555 1_555
C7 C2 1_555 1_555
C8 C5 1_555 1_555
H11 C8 1_555 1_555
C9 C8 1_555 1_555
H12 C9 1_555 1_555
C10 C9 1_555 1_555
C11 C10 1_555 1_555
H13 C11 1_555 1_555
C12 C11 1_555 1_555
C13 C12 1_555 1_555
H14 C13 1_555 1_555
C14 O3 1_555 1_555
C15 C10 1_555 1_555
H15 C15 1_555 1_555
C16 O4 1_555 1_555
H16 C16 1_555 1_555
C17 O9 1_555 1_555
H17 C17 1_555 1_555
C18 O8 1_555 1_555
H18 C18 1_555 1_555
C19 C18 1_555 1_555
H19 C19 1_555 1_555
C20 O5 1_555 1_555
H20 C20 1_555 1_555
C21 O6 1_555 1_555
H21 C21 1_555 1_555
H22 C21 1_555 1_555
H23 O2 1_555 1_555
H24 O7 1_555 1_555
C6 C7 1_555 1_555
C13 C14 1_555 1_555
C14 C15 1_555 1_555
C16 C17 1_555 1_555
C17 C18 1_555 1_555
C19 C20 1_555 1_555
C20 C21 1_555 1_555

#END
