
#######################################################################
#
#                 Cambridge Crystallographic Data Centre
#                                CCDC 
#
#######################################################################
#
# If this CIF has been generated from an entry in the Cambridge 
# Structural Database, then it will include bibliographic, chemical, 
# crystal, experimental, refinement or atomic coordinate data resulting 
# from the CCDC's data processing and validation procedures.
#
#######################################################################

data_AMEPUE
_chemical_formula_moiety         'C29 H31 N1 O3'
_chemical_name_systematic        
9-(4-methoxylphenyl)-3,3-dimethyl-10-(4-methylphenyl)-1,2,3,4,5,6,7,8,9,10-decahydroacridin-1,8-dione
_symmetry_cell_setting           triclinic
_symmetry_space_group_name_H-M   'P -1'
_symmetry_Int_Tables_number      2
_space_group_name_Hall           '-P 1'
loop_
_symmetry_equiv_pos_site_id
_symmetry_equiv_pos_as_xyz
1 x,y,z
2 -x,-y,-z
_cell_length_a                   9.6382(15)
_cell_length_b                   11.5847(15)
_cell_length_c                   12.4722(11)
_cell_angle_alpha                66.075(9)
_cell_angle_beta                 70.176(9)
_cell_angle_gamma                85.800(13)
_cell_volume                     1194.15
_exptl_crystal_colour            colorless
_exptl_crystal_description       block
_chemical_melting_point          '529-531 K'
_cell_formula_units_Z            2
loop_
_atom_site_label
_atom_site_type_symbol
_atom_site_fract_x
_atom_site_fract_y
_atom_site_fract_z
O1 O 1.15101(15) 0.49711(12) 0.16600(12)
O2 O 0.63296(18) 0.39028(13) 0.44517(12)
O3 O 0.92743(17) 0.87022(13) 0.48297(13)
N1 N 0.76234(15) 0.71111(13) 0.03631(12)
C1 C 0.91198(18) 0.69116(15) 0.01473(15)
C2 C 0.95842(19) 0.61323(15) 0.10915(15)
C3 C 0.8544(2) 0.56406(16) 0.24292(15)
H1 H 0.8800 0.4767 0.2884
C4 C 0.6988(2) 0.55589(16) 0.24591(15)
C5 C 0.65609(19) 0.63146(16) 0.14872(15)
C6 C 1.1096(2) 0.57659(16) 0.08316(16)
C7 C 1.21513(19) 0.63423(17) -0.04888(16)
H2 H 1.2154 0.5768 -0.0899
H3 H 1.3162 0.6410 -0.0473
C8 C 1.17769(18) 0.76515(16) -0.12659(15)
C9 C 1.01587(18) 0.75630(16) -0.11712(15)
H4 H 0.9854 0.8428 -0.1547
H5 H 1.0075 0.7096 -0.1661
C10 C 1.2024(2) 0.86184(18) -0.07810(18)
H6 H 1.1413 0.8344 0.0100
H7 H 1.1748 0.9449 -0.1265
H8 H 1.3069 0.8680 -0.0869
C11 C 1.2744(2) 0.80659(19) -0.26313(17)
H9 H 1.3786 0.8127 -0.2710
H10 H 1.2475 0.8894 -0.3126
H11 H 1.2593 0.7443 -0.2935
C12 C 0.5921(2) 0.46114(18) 0.35867(17)
C13 C 0.4363(3) 0.4515(2) 0.3613(2)
H12 H 0.3681 0.4210 0.4486
H13 H 0.4278 0.3886 0.3283
C14 C 0.3909(2) 0.5772(2) 0.28496(19)
H14 H 0.3872 0.6372 0.3239
H15 H 0.2906 0.5655 0.2840
C15 C 0.4991(2) 0.6320(2) 0.15185(17)
H16 H 0.4869 0.5816 0.1073
H17 H 0.4767 0.7199 0.1080
C16 C 0.87522(19) 0.64732(16) 0.30601(15)
C17 C 0.9778(3) 0.6206(3) 0.3656(2)
H18 H 1.0349 0.5500 0.3667
C18 C 1.0006(3) 0.6932(3) 0.4242(2)
H19 H 1.0732 0.6730 0.4637
C19 C 0.9179(2) 0.79399(18) 0.42480(16)
C20 C 0.8152(3) 0.82239(19) 0.3656(2)
H20 H 0.7579 0.8928 0.3650
C21 C 0.7941(2) 0.74989(18) 0.30673(19)
H21 H 0.7225 0.7712 0.2662
C22 C 1.0146(2) 0.8296(2) 0.5617(2)
H22 H 0.9767 0.7447 0.6264
H23 H 1.0096 0.8886 0.6009
H24 H 1.1175 0.8273 0.5121
C23 C 0.71575(18) 0.80141(16) -0.06335(15)
C24 C 0.69770(18) 0.76721(16) -0.15187(15)
H25 H 0.7133 0.6836 -0.1470
C25 C 0.65645(19) 0.85651(18) -0.24820(16)
H26 H 0.6453 0.8332 -0.3098
C26 C 0.63109(19) 0.97871(18) -0.25678(17)
C27 C 0.6510(2) 1.01055(18) -0.1671(2)
H27 H 0.6353 1.0941 -0.1717
C28 C 0.6932(2) 0.92344(18) -0.07073(18)
H28 H 0.7067 0.9472 -0.0102
C29 C 0.5802(2) 1.0725(2) -0.3593(2)
H29 H 0.4719 1.0669 -0.3310
H30 H 0.6188 1.0532 -0.4332
H31 H 0.6169 1.1583 -0.3803
loop_
_geom_bond_atom_site_label_1
_geom_bond_atom_site_label_2
_geom_bond_site_symmetry_1
_geom_bond_site_symmetry_2
O1 C6 1_555 1_555
O2 C12 1_555 1_555
O3 C19 1_555 1_555
N1 C1 1_555 1_555
C1 C2 1_555 1_555
C2 C3 1_555 1_555
C3 H1 1_555 1_555
C4 C3 1_555 1_555
C5 N1 1_555 1_555
C6 C2 1_555 1_555
C7 C6 1_555 1_555
H2 C7 1_555 1_555
H3 C7 1_555 1_555
C8 C7 1_555 1_555
C9 C1 1_555 1_555
H4 C9 1_555 1_555
H5 C9 1_555 1_555
C10 C8 1_555 1_555
H6 C10 1_555 1_555
H7 C10 1_555 1_555
H8 C10 1_555 1_555
C11 C8 1_555 1_555
H9 C11 1_555 1_555
H10 C11 1_555 1_555
H11 C11 1_555 1_555
C12 C4 1_555 1_555
C13 C12 1_555 1_555
H12 C13 1_555 1_555
H13 C13 1_555 1_555
C14 C13 1_555 1_555
H14 C14 1_555 1_555
H15 C14 1_555 1_555
C15 C5 1_555 1_555
H16 C15 1_555 1_555
H17 C15 1_555 1_555
C16 C3 1_555 1_555
C17 C16 1_555 1_555
H18 C17 1_555 1_555
C18 C17 1_555 1_555
H19 C18 1_555 1_555
C19 C18 1_555 1_555
C20 C19 1_555 1_555
H20 C20 1_555 1_555
C21 C16 1_555 1_555
H21 C21 1_555 1_555
C22 O3 1_555 1_555
H22 C22 1_555 1_555
H23 C22 1_555 1_555
H24 C22 1_555 1_555
C23 N1 1_555 1_555
C24 C23 1_555 1_555
H25 C24 1_555 1_555
C25 C24 1_555 1_555
H26 C25 1_555 1_555
C26 C25 1_555 1_555
C27 C26 1_555 1_555
H27 C27 1_555 1_555
C28 C23 1_555 1_555
H28 C28 1_555 1_555
C29 C26 1_555 1_555
H29 C29 1_555 1_555
H30 C29 1_555 1_555
H31 C29 1_555 1_555
C4 C5 1_555 1_555
C8 C9 1_555 1_555
C14 C15 1_555 1_555
C20 C21 1_555 1_555
C27 C28 1_555 1_555

#END
