
#######################################################################
#
#                 Cambridge Crystallographic Data Centre
#                                CCDC 
#
#######################################################################
#
# If this CIF has been generated from an entry in the Cambridge 
# Structural Database, then it will include bibliographic, chemical, 
# crystal, experimental, refinement or atomic coordinate data resulting 
# from the CCDC's data processing and validation procedures.
#
#######################################################################

data_AMESAM
_chemical_formula_moiety         'C16 H23 N2 O1 S1 1+,I1 1-,H2 O1'
_chemical_name_systematic        
'trans-2-(p-(N-ethyl-N-(hydroxyethyl)amino)styryl)-N-methylthiazolinium iodide monohydrate'
_symmetry_cell_setting           triclinic
_symmetry_space_group_name_H-M   'P -1'
_symmetry_Int_Tables_number      2
_space_group_name_Hall           '-P 1'
loop_
_symmetry_equiv_pos_site_id
_symmetry_equiv_pos_as_xyz
1 x,y,z
2 -x,-y,-z
_cell_length_a                   8.032(2)
_cell_length_b                   10.312(3)
_cell_length_c                   12.565(4)
_cell_angle_alpha                82.878(5)
_cell_angle_beta                 73.049(5)
_cell_angle_gamma                79.960(5)
_cell_volume                     977.289
_exptl_crystal_colour            red
_cell_formula_units_Z            2
_exptl_crystal_recrystallization_method ethanol
_exptl_crystal_preparation       dye
loop_
_atom_site_label
_atom_site_type_symbol
_atom_site_fract_x
_atom_site_fract_y
_atom_site_fract_z
I1 I 0.69635(6) 0.68543(4) 0.68986(4)
N1 N 0.7932(6) 0.4074(4) 0.2800(4)
N2 N 0.7385(8) 1.1644(4) -0.1576(4)
O1 O 0.7521(7) 1.4931(4) -0.0744(4)
H1 H 0.6765 1.5495 -0.0409
S1 S 0.7237(2) 0.59488(14) 0.41087(12)
C1 C 0.7877(9) 0.4312(6) 0.4702(5)
H2 H 0.9060 0.4225 0.4777
H3 H 0.7079 0.4142 0.5433
C2 C 0.7791(9) 0.3365(6) 0.3907(6)
H4 H 0.8745 0.2635 0.3860
H5 H 0.6687 0.3011 0.4171
C3 C 0.7598(6) 0.5376(5) 0.2801(4)
C4 C 0.8253(10) 0.3335(6) 0.1845(6)
H6 H 0.8318 0.3933 0.1189
H7 H 0.7312 0.2831 0.1949
H8 H 0.9344 0.2749 0.1758
C5 C 0.7511(6) 0.6247(5) 0.1849(4)
H9 H 0.7542 0.5900 0.1194
C6 C 0.7386(6) 0.7564(5) 0.1863(5)
H10 H 0.7298 0.7859 0.2550
C7 C 0.7367(7) 0.8587(5) 0.0969(4)
C8 C 0.7322(7) 0.8342(5) -0.0090(5)
H11 H 0.7278 0.7486 -0.0232
C9 C 0.7341(7) 0.9334(5) -0.0924(5)
H12 H 0.7320 0.9136 -0.1622
C10 C 0.7390(8) 1.0644(5) -0.0749(5)
C11 C 0.7439(11) 1.0861(6) 0.0324(6)
H13 H 0.7492 1.1711 0.0473
C12 C 0.7413(10) 0.9885(6) 0.1142(5)
H14 H 0.7425 1.0084 0.1842
C13 C 0.8142(11) 1.3011(10) -0.1448(8)
H15 H 0.8950 1.2840 -0.0988
H16 H 0.8697 1.3436 -0.2166
C14 C 0.6585(12) 1.3712(13) -0.0934(10)
H17 H 0.5974 1.3267 -0.0240
H18 H 0.5815 1.3977 -0.1415
C15 C 0.7305(8) 1.1438(6) -0.2686(5)
H19 H 0.6766 1.2251 -0.3005
H20 H 0.6569 1.0765 -0.2625
C16 C 0.9070(11) 1.1028(8) -0.3441(6)
H21 H 0.8959 1.0901 -0.4160
H22 H 0.9600 1.0217 -0.3135
H23 H 0.9794 1.1702 -0.3517
O2 O 0.5000 0.0000 0.5000
loop_
_geom_bond_atom_site_label_1
_geom_bond_atom_site_label_2
_geom_bond_site_symmetry_1
_geom_bond_site_symmetry_2
N1 C2 1_555 1_555
N2 C10 1_555 1_555
O1 H1 1_555 1_555
S1 C1 1_555 1_555
C1 H2 1_555 1_555
H3 C1 1_555 1_555
C2 C1 1_555 1_555
H4 C2 1_555 1_555
H5 C2 1_555 1_555
C3 N1 1_555 1_555
C4 N1 1_555 1_555
H6 C4 1_555 1_555
H7 C4 1_555 1_555
H8 C4 1_555 1_555
C5 C3 1_555 1_555
H9 C5 1_555 1_555
C6 C5 1_555 1_555
H10 C6 1_555 1_555
C7 C6 1_555 1_555
C8 C7 1_555 1_555
H11 C8 1_555 1_555
C9 C8 1_555 1_555
H12 C9 1_555 1_555
C10 C9 1_555 1_555
C11 C10 1_555 1_555
H13 C11 1_555 1_555
C12 C7 1_555 1_555
H14 C12 1_555 1_555
C13 N2 1_555 1_555
H15 C13 1_555 1_555
H16 C13 1_555 1_555
C14 O1 1_555 1_555
H17 C14 1_555 1_555
H18 C14 1_555 1_555
C15 N2 1_555 1_555
H19 C15 1_555 1_555
H20 C15 1_555 1_555
C16 C15 1_555 1_555
H21 C16 1_555 1_555
H22 C16 1_555 1_555
H23 C16 1_555 1_555
S1 C3 1_555 1_555
C11 C12 1_555 1_555
C13 C14 1_555 1_555

#END
