
#######################################################################
#
#                 Cambridge Crystallographic Data Centre
#                                CCDC 
#
#######################################################################
#
# If this CIF has been generated from an entry in the Cambridge 
# Structural Database, then it will include bibliographic, chemical, 
# crystal, experimental, refinement or atomic coordinate data resulting 
# from the CCDC's data processing and validation procedures.
#
#######################################################################

data_AMIDEF
_chemical_formula_moiety         'C24 H16 O2,C10 H8 N2'
_chemical_name_systematic        
"(+-)-1,16-Dihydroxytetraphenylene 4,4'-bipyridine"
_symmetry_cell_setting           monoclinic
_symmetry_space_group_name_H-M   'C c'
_symmetry_Int_Tables_number      9
_space_group_name_Hall           'C -2yc'
loop_
_symmetry_equiv_pos_site_id
_symmetry_equiv_pos_as_xyz
1 x,y,z
2 x,-y,1/2+z
3 1/2+x,1/2+y,z
4 1/2+x,1/2-y,1/2+z
_cell_length_a                   9.976(3)
_cell_length_b                   15.076(3)
_cell_length_c                   17.382(5)
_cell_angle_alpha                90.00
_cell_angle_beta                 106.227(8)
_cell_angle_gamma                90.00
_cell_volume                     2510.08
_exptl_crystal_colour            colorless
_exptl_crystal_description       irregular
_cell_formula_units_Z            4
loop_
_atom_site_label
_atom_site_type_symbol
_atom_site_fract_x
_atom_site_fract_y
_atom_site_fract_z
O1 O 0.6596(3) 0.32306(19) 0.1721(2)
H1 H 0.5773 0.3102 0.1654
O2 O 0.4384(4) 0.31781(18) 0.0040(2)
H2 H 0.4084 0.2685 -0.0120
C1 C 0.6685(5) 0.4012(3) 0.1358(3)
C2 C 0.8014(5) 0.4247(3) 0.1369(3)
H3 H 0.8759 0.3875 0.1606
C3 C 0.8241(5) 0.5027(3) 0.1033(3)
H4 H 0.9139 0.5178 0.1020
C4 C 0.7162(5) 0.5584(3) 0.0717(3)
H5 H 0.7326 0.6124 0.0502
C5 C 0.4478(6) 0.6294(3) -0.0399(3)
H6 H 0.4957 0.6022 -0.0723
C6 C 0.3589(6) 0.6960(3) -0.0709(3)
H7 H 0.3453 0.7138 -0.1237
C7 C 0.2885(6) 0.7371(3) -0.0231(3)
H8 H 0.2287 0.7841 -0.0434
C8 C 0.3062(5) 0.7092(3) 0.0541(3)
H9 H 0.2576 0.7370 0.0859
C9 C 0.4641(5) 0.6846(3) 0.2277(3)
H10 H 0.4827 0.7408 0.2111
C10 C 0.4807(6) 0.6693(4) 0.3069(3)
H11 H 0.5091 0.7149 0.3439
C11 C 0.4560(6) 0.5874(4) 0.3320(3)
H12 H 0.4697 0.5762 0.3862
C12 C 0.4110(5) 0.5216(3) 0.2774(3)
H13 H 0.3938 0.4658 0.2953
C13 C 0.2009(5) 0.4314(3) 0.1345(3)
H14 H 0.1491 0.4560 0.1660
C14 C 0.1468(5) 0.3644(3) 0.0827(3)
H15 H 0.0561 0.3452 0.0774
C15 C 0.2238(5) 0.3250(3) 0.0386(3)
H16 H 0.1868 0.2783 0.0043
C16 C 0.3558(5) 0.3548(3) 0.0451(3)
C17 C 0.5569(5) 0.4539(3) 0.1018(2)
C18 C 0.5825(5) 0.5356(2) 0.0713(2)
C19 C 0.4705(5) 0.6000(3) 0.0379(3)
C20 C 0.3950(5) 0.6406(3) 0.0847(3)
C21 C 0.4198(4) 0.6178(3) 0.1710(3)
C22 C 0.3902(4) 0.5349(3) 0.1969(3)
C23 C 0.3332(5) 0.4627(3) 0.1399(2)
C24 C 0.4135(5) 0.4247(3) 0.0964(2)
N1 N 0.4811(5) 0.2202(3) 0.2246(3)
N2 N 0.3766(5) -0.1560(2) 0.4387(3)
C25 C 0.3305(5) 0.1286(3) 0.2744(3)
H17 H 0.2396 0.1163 0.2752
C26 C 0.3564(6) 0.1998(3) 0.2314(3)
H18 H 0.2816 0.2357 0.2054
C27 C 0.5815(6) 0.1697(4) 0.2649(4)
H19 H 0.6714 0.1833 0.2630
C28 C 0.5661(6) 0.0973(3) 0.3104(3)
H20 H 0.6431 0.0635 0.3370
C29 C 0.4364(5) 0.0762(3) 0.3157(3)
C30 C 0.4137(5) -0.0018(3) 0.3598(3)
C31 C 0.5125(6) -0.0302(3) 0.4275(3)
H21 H 0.5941 0.0021 0.4480
C32 C 0.4892(6) -0.1065(4) 0.4644(3)
H22 H 0.5568 -0.1246 0.5102
C33 C 0.2824(6) -0.1280(3) 0.3744(3)
H23 H 0.2028 -0.1623 0.3543
C34 C 0.2951(6) -0.0511(3) 0.3353(3)
H24 H 0.2227 -0.0326 0.2919
loop_
_geom_bond_atom_site_label_1
_geom_bond_atom_site_label_2
_geom_bond_site_symmetry_1
_geom_bond_site_symmetry_2
O1 H1 1_555 1_555
O2 H2 1_555 1_555
C1 O1 1_555 1_555
C2 C1 1_555 1_555
H3 C2 1_555 1_555
C3 C2 1_555 1_555
H4 C3 1_555 1_555
C4 C3 1_555 1_555
H5 C4 1_555 1_555
C5 H6 1_555 1_555
C6 C5 1_555 1_555
H7 C6 1_555 1_555
C7 C6 1_555 1_555
H8 C7 1_555 1_555
C8 C7 1_555 1_555
H9 C8 1_555 1_555
C9 H10 1_555 1_555
C10 C9 1_555 1_555
H11 C10 1_555 1_555
C11 C10 1_555 1_555
H12 C11 1_555 1_555
C12 C11 1_555 1_555
H13 C12 1_555 1_555
C13 H14 1_555 1_555
C14 C13 1_555 1_555
H15 C14 1_555 1_555
C15 C14 1_555 1_555
H16 C15 1_555 1_555
C16 O2 1_555 1_555
C17 C1 1_555 1_555
C18 C4 1_555 1_555
C19 C5 1_555 1_555
C20 C8 1_555 1_555
C21 C9 1_555 1_555
C22 C12 1_555 1_555
C23 C13 1_555 1_555
C24 C16 1_555 1_555
N1 C26 1_555 1_555
N2 C32 1_555 1_555
C25 H17 1_555 1_555
C26 C25 1_555 1_555
H18 C26 1_555 1_555
C27 N1 1_555 1_555
H19 C27 1_555 1_555
C28 C27 1_555 1_555
H20 C28 1_555 1_555
C29 C25 1_555 1_555
C30 C29 1_555 1_555
C31 C30 1_555 1_555
H21 C31 1_555 1_555
C32 C31 1_555 1_555
H22 C32 1_555 1_555
C33 N2 1_555 1_555
H23 C33 1_555 1_555
C34 C30 1_555 1_555
H24 C34 1_555 1_555
C15 C16 1_555 1_555
C17 C18 1_555 1_555
C17 C24 1_555 1_555
C18 C19 1_555 1_555
C19 C20 1_555 1_555
C20 C21 1_555 1_555
C21 C22 1_555 1_555
C22 C23 1_555 1_555
C23 C24 1_555 1_555
C28 C29 1_555 1_555
C33 C34 1_555 1_555

#END
