
#######################################################################
#
#                 Cambridge Crystallographic Data Centre
#                                CCDC 
#
#######################################################################
#
# If this CIF has been generated from an entry in the Cambridge 
# Structural Database, then it will include bibliographic, chemical, 
# crystal, experimental, refinement or atomic coordinate data resulting 
# from the CCDC's data processing and validation procedures.
#
#######################################################################

data_AMILOZ
_chemical_formula_moiety         'C16 H14 F1 N3 S2'
_chemical_name_systematic        
(R)-1-(1-(6-fluorobenzo[d]thiazol-2-yl)ethyl)-3-phenylthiourea
_symmetry_cell_setting           monoclinic
_symmetry_space_group_name_H-M   'P 21'
_symmetry_Int_Tables_number      4
_space_group_name_Hall           'P 2yb'
loop_
_symmetry_equiv_pos_site_id
_symmetry_equiv_pos_as_xyz
1 x,y,z
2 -x,1/2+y,-z
_cell_length_a                   7.1583(9)
_cell_length_b                   28.524(4)
_cell_length_c                   7.6021(8)
_cell_angle_alpha                90
_cell_angle_beta                 94.443(11)
_cell_angle_gamma                90
_cell_volume                     1547.56
_exptl_crystal_colour            colorless
_exptl_crystal_description       block
_cell_formula_units_Z            4
loop_
_atom_site_label
_atom_site_type_symbol
_atom_site_fract_x
_atom_site_fract_y
_atom_site_fract_z
S1 S -0.2654(2) 0.66264(5) 0.33252(18)
S2 S 0.24877(17) 0.78818(4) 0.38253(18)
F1 F 0.6051(4) 0.93463(12) 0.6276(4)
N1 N -0.0448(5) 0.72686(14) 0.1984(5)
H1 H 0.0502 0.7337 0.1406
N2 N -0.0378(6) 0.84389(14) 0.3810(5)
C1 C 0.0952(7) 0.66276(18) -0.0453(6)
C2 C 0.1196(7) 0.86984(16) 0.4401(6)
C3 C -0.1073(7) 0.68222(16) 0.1942(6)
C4 C 0.0473(8) 0.65916(19) -0.2253(7)
H2 H -0.0748 0.6517 -0.2664
C5 C -0.1312(7) 0.76406(17) 0.2966(6)
H3 H -0.1704 0.7501 0.4057
C6 C 0.2888(7) 0.84549(16) 0.4513(6)
C7 C 0.4569(7) 0.86674(18) 0.5147(7)
H4 H 0.5702 0.8506 0.5234
C8 C 0.2819(7) 0.93817(18) 0.5523(7)
H5 H 0.2825 0.9694 0.5872
C9 C 0.4440(7) 0.91294(19) 0.5631(7)
C10 C 0.2784(7) 0.6740(2) 0.0146(7)
H6 H 0.3111 0.6765 0.1350
C11 C 0.0104(7) 0.80129(16) 0.3483(6)
C12 C 0.1178(8) 0.91709(18) 0.4895(7)
H7 H 0.0064 0.9340 0.4799
C13 C 0.1818(9) 0.6667(2) -0.3432(7)
H8 H 0.1502 0.6641 -0.4638
C14 C 0.4113(8) 0.6813(2) -0.1045(8)
H9 H 0.5340 0.6884 -0.0639
C15 C -0.3050(7) 0.7834(2) 0.1958(8)
H10 H -0.3912 0.7583 0.1669
H11 H -0.2709 0.7981 0.0893
H12 H -0.3630 0.8060 0.2673
C16 C 0.3634(9) 0.6783(2) -0.2828(9)
H13 H 0.4529 0.6840 -0.3626
N3 N -0.0419(6) 0.65293(14) 0.0756(5)
H14 H -0.0880 0.6251 0.0721
S3 S 0.25013(18) 1.05365(5) 1.08348(17)
S4 S 0.11393(17) 0.93626(4) 0.99746(18)
N4 N 0.4049(5) 0.88205(13) 1.0027(5)
F2 F -0.2253(5) 0.78915(13) 0.7356(5)
N5 N 0.5119(5) 0.99651(13) 0.9743(5)
H15 H 0.5943 0.9904 0.9010
C17 C 0.2529(7) 0.85563(16) 0.9359(6)
C18 C 0.4851(6) 0.96176(16) 1.1118(6)
H16 H 0.4308 0.9773 1.2108
C19 C 0.4183(6) 1.03717(15) 0.9532(6)
C20 C 0.0972(8) 0.7873(2) 0.8148(7)
H17 H 0.0994 0.7562 0.7785
C21 C 0.6107(6) 1.05647(17) 0.7049(6)
C22 C 0.6745(6) 0.94134(19) 1.1760(7)
H18 H 0.7559 0.9661 1.2206
H19 H 0.7289 0.9260 1.0797
H20 H 0.6584 0.9190 1.2681
C23 C 0.0793(7) 0.87923(17) 0.9227(6)
C24 C 0.9305(8) 1.0424(2) 0.6521(8)
H21 H 1.0531 1.0360 0.6949
C25 C 0.7057(8) 1.0543(2) 0.4094(7)
H22 H 0.6761 1.0566 0.2884
C26 C 0.2595(8) 0.80907(18) 0.8805(7)
H23 H 0.3726 0.7929 0.8878
C27 C 0.7945(7) 1.04881(19) 0.7694(7)
H24 H 0.8260 1.0480 0.8904
C28 C 0.3528(6) 0.92373(17) 1.0409(6)
C29 C 0.5671(7) 1.05994(18) 0.5236(6)
H25 H 0.4447 1.0661 0.4797
C30 C -0.0660(8) 0.8116(2) 0.8036(7)
C31 C -0.0852(8) 0.8574(2) 0.8572(7)
H26 H -0.2004 0.8727 0.8500
C32 C 0.8868(9) 1.0453(2) 0.4724(8)
H27 H 0.9795 1.0412 0.3946
N6 N 0.4654(6) 1.06468(14) 0.8195(5)
H28 H 0.4009 1.0899 0.8013
loop_
_geom_bond_atom_site_label_1
_geom_bond_atom_site_label_2
_geom_bond_site_symmetry_1
_geom_bond_site_symmetry_2
S1 C3 1_555 1_555
S2 C6 1_555 1_555
F1 C9 1_555 1_555
N1 H1 1_555 1_555
N2 C2 1_555 1_555
C1 C4 1_555 1_555
C2 C6 1_555 1_555
C3 N1 1_555 1_555
C4 H2 1_555 1_555
C5 N1 1_555 1_555
H3 C5 1_555 1_555
C6 C7 1_555 1_555
C7 H4 1_555 1_555
C8 H5 1_555 1_555
C9 C7 1_555 1_555
C10 C1 1_555 1_555
H6 C10 1_555 1_555
C11 S2 1_555 1_555
C12 C2 1_555 1_555
H7 C12 1_555 1_555
C13 C4 1_555 1_555
H8 C13 1_555 1_555
C14 C10 1_555 1_555
H9 C14 1_555 1_555
C15 C5 1_555 1_555
H10 C15 1_555 1_555
H11 C15 1_555 1_555
H12 C15 1_555 1_555
C16 C13 1_555 1_555
H13 C16 1_555 1_555
N3 C1 1_555 1_555
H14 N3 1_555 1_555
S3 C19 1_555 1_555
S4 C23 1_555 1_555
N4 C17 1_555 1_555
F2 C30 1_555 1_555
N5 H15 1_555 1_555
C17 C23 1_555 1_555
C18 N5 1_555 1_555
H16 C18 1_555 1_555
C19 N5 1_555 1_555
C20 H17 1_555 1_555
C21 C27 1_555 1_555
C22 C18 1_555 1_555
H18 C22 1_555 1_555
H19 C22 1_555 1_555
H20 C22 1_555 1_555
C23 C31 1_555 1_555
C24 H21 1_555 1_555
C25 H22 1_555 1_555
C26 C17 1_555 1_555
H23 C26 1_555 1_555
C27 C24 1_555 1_555
H24 C27 1_555 1_555
C28 S4 1_555 1_555
C29 C21 1_555 1_555
H25 C29 1_555 1_555
C30 C20 1_555 1_555
C31 C30 1_555 1_555
H26 C31 1_555 1_555
C32 C24 1_555 1_555
H27 C32 1_555 1_555
N6 C19 1_555 1_555
H28 N6 1_555 1_555
N2 C11 1_555 1_555
C3 N3 1_555 1_555
C5 C11 1_555 1_555
C8 C9 1_555 1_555
C8 C12 1_555 1_555
C14 C16 1_555 1_555
N4 C28 1_555 1_555
C18 C28 1_555 1_555
C20 C26 1_555 1_555
C21 N6 1_555 1_555
C25 C29 1_555 1_555
C25 C32 1_555 1_555

#END
