
#######################################################################
#
#                 Cambridge Crystallographic Data Centre
#                                CCDC 
#
#######################################################################
#
# If this CIF has been generated from an entry in the Cambridge 
# Structural Database, then it will include bibliographic, chemical, 
# crystal, experimental, refinement or atomic coordinate data resulting 
# from the CCDC's data processing and validation procedures.
#
#######################################################################

data_AMILAL
_chemical_formula_moiety         'C17 H18 B1 N3 O5,2(H2 O1)'
_chemical_name_systematic        
"(3-((2-hydroxy-5-nitrobenzylidene)amino)phenyl)(2,2'-(iminio)diethanolato)borate dihydrate"
_symmetry_cell_setting           orthorhombic
_symmetry_space_group_name_H-M   'P c a 21'
_symmetry_Int_Tables_number      29
_space_group_name_Hall           'P 2c -2ac'
loop_
_symmetry_equiv_pos_site_id
_symmetry_equiv_pos_as_xyz
1 x,y,z
2 -x,-y,1/2+z
3 1/2+x,-y,z
4 1/2-x,y,1/2+z
_cell_length_a                   19.5516(19)
_cell_length_b                   4.8474(5)
_cell_length_c                   19.3396(19)
_cell_angle_alpha                90
_cell_angle_beta                 90
_cell_angle_gamma                90
_cell_volume                     1832.9
_exptl_crystal_colour            yellow
_exptl_crystal_description       block
_cell_formula_units_Z            4
loop_
_atom_site_label
_atom_site_type_symbol
_atom_site_fract_x
_atom_site_fract_y
_atom_site_fract_z
O1 O 0.46884(16) 0.8180(6) 0.04957(14)
H1 H 0.427(2) 0.753(8) 0.056(2)
H2 H 0.490(3) 0.663(10) 0.047(3)
O2 O 0.03787(13) 0.6918(5) 0.07021(14)
H3 H 0.011(2) 0.850(8) 0.065(2)
H4 H 0.042(2) 0.671(8) 0.114(2)
O3 O 0.02652(10) 0.5737(4) 0.20807(10)
N1 N 0.24062(13) -0.1091(5) 0.13642(12)
O4 O 0.06722(11) 0.7078(4) 0.32176(10)
O5 O 0.34160(11) -0.3903(5) 0.09035(12)
H5 H 0.3206 -0.2802 0.1145
C1 C 0.20881(17) -0.7904(6) -0.03829(15)
C2 C 0.29981(16) -0.5173(6) 0.05103(15)
O6 O 0.18497(13) -1.1257(5) -0.11924(12)
C3 C 0.27833(16) 0.2110(6) 0.22081(16)
H6 H 0.3225 0.1499 0.2116
C4 C 0.22774(15) -0.4498(6) 0.04931(15)
N2 N 0.02219(14) 0.2509(5) 0.30382(14)
C5 C 0.20070(16) -0.2425(6) 0.09406(15)
H7 H 0.1542 -0.2022 0.0930
N3 N 0.16292(16) -0.9324(5) -0.08553(14)
O7 O 0.10381(14) -0.8491(5) -0.09065(15)
C6 C 0.20115(16) 0.5033(6) 0.28223(15)
H8 H 0.1942 0.6409 0.3150
C7 C -0.04228(17) 0.5058(6) 0.22441(18)
H9 H -0.0701 0.4991 0.1829
H10 H -0.0617 0.6399 0.2560
C8 C 0.15675(16) 0.1885(6) 0.19873(15)
H11 H 0.1203 0.1111 0.1747
C9 C 0.27806(17) -0.8680(6) -0.03681(16)
H12 H 0.2940 -1.0081 -0.0655
C10 C 0.32175(16) -0.7355(6) 0.00708(15)
H13 H 0.3674 -0.7896 0.0083
C11 C 0.14462(16) 0.3945(5) 0.24773(14)
C12 C 0.18354(17) -0.5873(6) 0.00405(15)
H14 H 0.1374 -0.5414 0.0027
C13 C 0.26701(17) 0.4146(6) 0.26957(17)
H15 H 0.3035 0.4911 0.2937
C14 C 0.22289(16) 0.0992(6) 0.18585(14)
C15 C 0.00688(19) 0.3546(6) 0.37493(17)
H16 H 0.0115 0.2082 0.4088
H17 H -0.0391 0.4291 0.3774
C16 C -0.03808(18) 0.2247(6) 0.25791(19)
H18 H -0.0791 0.1844 0.2842
H19 H -0.0312 0.0811 0.2237
B1 B 0.06897(19) 0.4988(6) 0.26723(18)
C17 C 0.05924(19) 0.5767(7) 0.38684(16)
H20 H 0.0434 0.7070 0.4214
H21 H 0.1022 0.4977 0.4022
H22 H 0.0426(16) 0.083(7) 0.3058(17)
loop_
_geom_bond_atom_site_label_1
_geom_bond_atom_site_label_2
_geom_bond_site_symmetry_1
_geom_bond_site_symmetry_2
O1 H1 1_555 1_555
H2 O1 1_555 1_555
O2 H3 1_555 1_555
H4 O2 1_555 1_555
O3 C7 1_555 1_555
N1 C5 1_555 1_555
O4 B1 1_555 1_555
O5 H5 1_555 1_555
C1 N3 1_555 1_555
C2 O5 1_555 1_555
O6 N3 1_555 1_555
C3 H6 1_555 1_555
C4 C2 1_555 1_555
N2 C15 1_555 1_555
C5 C4 1_555 1_555
H7 C5 1_555 1_555
N3 O7 1_555 1_555
C6 H8 1_555 1_555
C7 H9 1_555 1_555
H10 C7 1_555 1_555
C8 H11 1_555 1_555
C9 C1 1_555 1_555
H12 C9 1_555 1_555
C10 C2 1_555 1_555
H13 C10 1_555 1_555
C11 C6 1_555 1_555
C12 C1 1_555 1_555
H14 C12 1_555 1_555
C13 C3 1_555 1_555
H15 C13 1_555 1_555
C14 N1 1_555 1_555
C15 H16 1_555 1_555
H17 C15 1_555 1_555
C16 N2 1_555 1_555
H18 C16 1_555 1_555
H19 C16 1_555 1_555
B1 O3 1_555 1_555
C17 O4 1_555 1_555
H20 C17 1_555 1_555
H21 C17 1_555 1_555
H22 N2 1_555 1_555
C3 C14 1_555 1_555
C4 C12 1_555 1_555
N2 B1 1_555 1_555
C6 C13 1_555 1_555
C7 C16 1_555 1_555
C8 C11 1_555 1_555
C8 C14 1_555 1_555
C9 C10 1_555 1_555
C11 B1 1_555 1_555
C15 C17 1_555 1_555

#END
