
#######################################################################
#
#                 Cambridge Crystallographic Data Centre
#                                CCDC 
#
#######################################################################
#
# If this CIF has been generated from an entry in the Cambridge 
# Structural Database, then it will include bibliographic, chemical, 
# crystal, experimental, refinement or atomic coordinate data resulting 
# from the CCDC's data processing and validation procedures.
#
#######################################################################

data_AMINAN
_chemical_formula_moiety         'C12 H14 O4'
_chemical_name_systematic        
'5-methyl-2-phenyl-1,3-dioxane-5-carboxylic acid'
_symmetry_cell_setting           monoclinic
_symmetry_space_group_name_H-M   'C 2/c'
_symmetry_Int_Tables_number      15
_space_group_name_Hall           '-C 2yn'
loop_
_symmetry_equiv_pos_site_id
_symmetry_equiv_pos_as_xyz
1 x,y,z
2 -x,y,1/2-z
3 1/2+x,1/2+y,z
4 1/2-x,1/2+y,1/2-z
5 -x,-y,-z
6 x,-y,1/2+z
7 1/2-x,1/2-y,-z
8 1/2+x,1/2-y,1/2+z
_cell_length_a                   32.6674(8)
_cell_length_b                   6.0061(2)
_cell_length_c                   23.2786(6)
_cell_angle_alpha                90
_cell_angle_beta                 103.368(2)
_cell_angle_gamma                90
_cell_volume                     4443.6
_exptl_crystal_colour            colorless
_exptl_crystal_description       block
_chemical_melting_point          '462.3 K'
_cell_formula_units_Z            16
_exptl_crystal_recrystallization_method 'ethyl acetate'
loop_
_atom_site_label
_atom_site_type_symbol
_atom_site_fract_x
_atom_site_fract_y
_atom_site_fract_z
O1 O 0.18934(3) 0.39122(17) 0.24551(4)
O2 O 0.27339(3) 0.3853(2) 0.34901(5)
H1 H 0.2916(6) 0.473(3) 0.3740(8)
O3 O 0.23661(3) 0.3879(2) 0.41775(5)
O4 O 0.14921(3) 0.38665(17) 0.31569(4)
C1 C 0.07647(6) 0.9375(3) 0.16692(9)
H2 H 0.0603 1.0532 0.1470
C2 C 0.10546(6) 0.8336(4) 0.14244(9)
H3 H 0.1091 0.8789 0.1057
C3 C 0.12947(6) 0.6615(3) 0.17187(8)
H4 H 0.1492 0.5924 0.1548
C4 C 0.12460(4) 0.5904(2) 0.22634(6)
C5 C 0.14822(4) 0.3897(2) 0.25489(6)
H5 H 0.1337 0.2556 0.2367
C6 C 0.21027(5) 0.1876(2) 0.26667(6)
H6 H 0.2386 0.1893 0.2602
H7 H 0.1953 0.0633 0.2448
C7 C 0.21231(4) 0.1572(2) 0.33236(5)
C8 C 0.24208(4) 0.3246(2) 0.36905(5)
C9 C 0.07134(6) 0.8705(3) 0.22111(9)
H8 H 0.0517 0.9414 0.2379
C10 C 0.09534(5) 0.6975(3) 0.25106(7)
H9 H 0.0917 0.6536 0.2879
C11 C 0.16801(4) 0.1847(2) 0.34186(6)
H10 H 0.1509 0.0591 0.3246
H11 H 0.1691 0.1864 0.3839
C12 C 0.22935(6) -0.0753(3) 0.35250(8)
H12 H 0.2573 -0.0909 0.3465
H13 H 0.2114 -0.1865 0.3300
H14 H 0.2300 -0.0940 0.3937
O5 O 0.38551(3) 0.61187(17) 0.58090(4)
O6 O 0.29423(4) 0.6389(2) 0.48855(5)
H15 H 0.2744(6) 0.559(4) 0.4621(8)
O7 O 0.32670(3) 0.6565(2) 0.41481(5)
O8 O 0.41766(3) 0.64225(17) 0.50202(4)
C13 C 0.50190(6) 0.0598(3) 0.62881(10)
H16 H 0.5200 -0.0561 0.6442
C14 C 0.47540(7) 0.1471(4) 0.66086(9)
H17 H 0.4751 0.0870 0.6976
C15 C 0.44907(6) 0.3241(3) 0.63907(7)
H18 H 0.4312 0.3818 0.6611
C16 C 0.44948(4) 0.4149(3) 0.58440(6)
C17 C 0.42429(4) 0.6204(2) 0.56379(6)
H19 H 0.4401 0.7503 0.5825
C18 C 0.36336(5) 0.8184(2) 0.56731(6)
H20 H 0.3797 0.9379 0.5895
H21 H 0.3367 0.8101 0.5788
C19 C 0.35547(4) 0.8682(2) 0.50144(6)
C20 C 0.32389(4) 0.7070(2) 0.46566(6)
C21 C 0.50156(5) 0.1443(3) 0.57399(10)
H22 H 0.5189 0.0827 0.5517
C22 C 0.47550(5) 0.3209(3) 0.55177(8)
H23 H 0.4755 0.3770 0.5145
C23 C 0.33733(6) 1.1036(2) 0.48868(8)
H24 H 0.3325 1.1335 0.4471
H25 H 0.3569 1.2104 0.5101
H26 H 0.3112 1.1143 0.5008
C24 C 0.39745(4) 0.8494(2) 0.48327(7)
H27 H 0.3926 0.8616 0.4407
H28 H 0.4157 0.9710 0.5007
loop_
_geom_bond_atom_site_label_1
_geom_bond_atom_site_label_2
_geom_bond_site_symmetry_1
_geom_bond_site_symmetry_2
O1 C5 1_555 1_555
O2 H1 1_555 1_555
O3 C8 1_555 1_555
O4 C5 1_555 1_555
C1 H2 1_555 1_555
C2 C1 1_555 1_555
H3 C2 1_555 1_555
C3 C2 1_555 1_555
H4 C3 1_555 1_555
C4 C3 1_555 1_555
C5 C4 1_555 1_555
H5 C5 1_555 1_555
C6 O1 1_555 1_555
H6 C6 1_555 1_555
H7 C6 1_555 1_555
C7 C6 1_555 1_555
C8 O2 1_555 1_555
C9 C1 1_555 1_555
H8 C9 1_555 1_555
C10 C4 1_555 1_555
H9 C10 1_555 1_555
C11 O4 1_555 1_555
H10 C11 1_555 1_555
H11 C11 1_555 1_555
C12 C7 1_555 1_555
H12 C12 1_555 1_555
H13 C12 1_555 1_555
H14 C12 1_555 1_555
O5 C17 1_555 1_555
O6 H15 1_555 1_555
O7 C20 1_555 1_555
O8 C17 1_555 1_555
C13 H16 1_555 1_555
C14 C13 1_555 1_555
H17 C14 1_555 1_555
C15 C14 1_555 1_555
H18 C15 1_555 1_555
C16 C15 1_555 1_555
C17 C16 1_555 1_555
H19 C17 1_555 1_555
C18 O5 1_555 1_555
H20 C18 1_555 1_555
H21 C18 1_555 1_555
C19 C18 1_555 1_555
C20 O6 1_555 1_555
C21 C13 1_555 1_555
H22 C21 1_555 1_555
C22 C16 1_555 1_555
H23 C22 1_555 1_555
C23 C19 1_555 1_555
H24 C23 1_555 1_555
H25 C23 1_555 1_555
H26 C23 1_555 1_555
C24 O8 1_555 1_555
H27 C24 1_555 1_555
H28 C24 1_555 1_555
C7 C8 1_555 1_555
C7 C11 1_555 1_555
C9 C10 1_555 1_555
C19 C20 1_555 1_555
C19 C24 1_555 1_555
C21 C22 1_555 1_555

#END
