
#######################################################################
#
#                 Cambridge Crystallographic Data Centre
#                                CCDC 
#
#######################################################################
#
# If this CIF has been generated from an entry in the Cambridge 
# Structural Database, then it will include bibliographic, chemical, 
# crystal, experimental, refinement or atomic coordinate data resulting 
# from the CCDC's data processing and validation procedures.
#
#######################################################################

data_AMIRIY
_chemical_formula_moiety         'C24 H29 N3'
_chemical_name_systematic        
3-((2,6-Diisopropylphenyl)amino)-2-(N-phenylethanimidoyl)but-2-enenitrile
_symmetry_cell_setting           monoclinic
_symmetry_space_group_name_H-M   'P 21/n'
_symmetry_Int_Tables_number      14
_space_group_name_Hall           '-P 2yn'
loop_
_symmetry_equiv_pos_site_id
_symmetry_equiv_pos_as_xyz
1 x,y,z
2 1/2-x,1/2+y,1/2-z
3 -x,-y,-z
4 1/2+x,1/2-y,1/2+z
_cell_length_a                   10.3543(4)
_cell_length_b                   21.0372(9)
_cell_length_c                   10.4706(5)
_cell_angle_alpha                90
_cell_angle_beta                 112.054(2)
_cell_angle_gamma                90
_cell_volume                     2113.88
_exptl_crystal_colour            colorless
_exptl_crystal_description       plate
_cell_formula_units_Z            4
_exptl_crystal_recrystallization_method acetone
loop_
_atom_site_label
_atom_site_type_symbol
_atom_site_fract_x
_atom_site_fract_y
_atom_site_fract_z
N1 N 0.24742(14) 0.11557(7) 0.15226(16)
H1 H 0.286(2) 0.0735(12) 0.173(3)
C1 C 0.34640(18) 0.15942(8) 0.17743(18)
C2 C 0.48683(18) 0.14148(8) 0.23160(19)
C3 C 0.53640(18) 0.07683(9) 0.26521(19)
N2 N 0.44594(15) 0.03096(7) 0.23838(18)
C4 C 0.3043(2) 0.22751(9) 0.1465(2)
H2 H 0.2178 0.2298 0.0667
H3 H 0.3766 0.2503 0.1276
H4 H 0.2913 0.2465 0.2252
C5 C 0.58808(19) 0.19119(9) 0.2624(2)
N3 N 0.67059(18) 0.23082(8) 0.2887(2)
C6 C 0.69135(19) 0.06702(9) 0.3339(2)
H5 H 0.7099 0.0239 0.3689
H6 H 0.7292 0.0968 0.4096
H7 H 0.7347 0.0740 0.2675
C7 C 0.10082(17) 0.12801(7) 0.10422(18)
C8 C 0.02013(18) 0.11820(8) -0.03518(18)
C9 C -0.1219(2) 0.13020(9) -0.0788(2)
H8 H -0.1789 0.1240 -0.1719
C10 C -0.18038(19) 0.15095(9) 0.0120(2)
H9 H -0.2764 0.1596 -0.0201
C11 C -0.09933(18) 0.15916(8) 0.1494(2)
H10 H -0.1410 0.1732 0.2101
C12 C 0.04289(17) 0.14701(8) 0.19974(18)
C13 C 0.0868(2) 0.09238(9) -0.1314(2)
H11 H 0.1778 0.1140 -0.1081
C14 C 0.0028(3) 0.10434(13) -0.2830(2)
H12 H -0.0856 0.0822 -0.3101
H13 H 0.0542 0.0889 -0.3374
H14 H -0.0137 0.1496 -0.2985
C15 C 0.1154(3) 0.02140(10) -0.1080(2)
H15 H 0.0283 -0.0010 -0.1268
H16 H 0.1769 0.0141 -0.0131
H17 H 0.1593 0.0059 -0.1692
C16 C 0.13123(19) 0.14999(9) 0.35303(19)
H18 H 0.2248 0.1656 0.3633
C17 C 0.1486(2) 0.08289(10) 0.4145(2)
H19 H 0.0582 0.0663 0.4054
H20 H 0.2088 0.0845 0.5112
H21 H 0.1899 0.0554 0.3657
C18 C 0.0741(2) 0.19442(10) 0.4339(2)
H22 H 0.0621 0.2366 0.3937
H23 H 0.1388 0.1963 0.5290
H24 H -0.0152 0.1786 0.4305
C19 C 0.48450(18) -0.03377(9) 0.2670(2)
C20 C 0.4493(2) -0.06482(9) 0.3659(2)
H25 H 0.4052 -0.0422 0.4156
C21 C 0.4783(2) -0.12840(10) 0.3922(2)
H26 H 0.4547 -0.1488 0.4604
C22 C 0.5413(2) -0.16230(10) 0.3196(3)
H27 H 0.5613 -0.2057 0.3380
C23 C 0.5751(2) -0.13207(10) 0.2193(3)
H28 H 0.6178 -0.1551 0.1690
C24 C 0.5468(2) -0.06806(10) 0.1923(2)
H29 H 0.5696 -0.0479 0.1235
loop_
_geom_bond_atom_site_label_1
_geom_bond_atom_site_label_2
_geom_bond_site_symmetry_1
_geom_bond_site_symmetry_2
N1 H1 1_555 1_555
C1 N1 1_555 1_555
C2 C1 1_555 1_555
C3 C2 1_555 1_555
N2 C3 1_555 1_555
C4 C1 1_555 1_555
H2 C4 1_555 1_555
H3 C4 1_555 1_555
H4 C4 1_555 1_555
C5 C2 1_555 1_555
N3 C5 1_555 1_555
C6 C3 1_555 1_555
H5 C6 1_555 1_555
H6 C6 1_555 1_555
H7 C6 1_555 1_555
C7 N1 1_555 1_555
C8 C7 1_555 1_555
C9 C8 1_555 1_555
H8 C9 1_555 1_555
C10 C9 1_555 1_555
H9 C10 1_555 1_555
C11 C10 1_555 1_555
H10 C11 1_555 1_555
C12 C7 1_555 1_555
C13 C8 1_555 1_555
H11 C13 1_555 1_555
C14 C13 1_555 1_555
H12 C14 1_555 1_555
H13 C14 1_555 1_555
H14 C14 1_555 1_555
C15 C13 1_555 1_555
H15 C15 1_555 1_555
H16 C15 1_555 1_555
H17 C15 1_555 1_555
C16 C12 1_555 1_555
H18 C16 1_555 1_555
C17 C16 1_555 1_555
H19 C17 1_555 1_555
H20 C17 1_555 1_555
H21 C17 1_555 1_555
C18 C16 1_555 1_555
H22 C18 1_555 1_555
H23 C18 1_555 1_555
H24 C18 1_555 1_555
C19 N2 1_555 1_555
C20 C19 1_555 1_555
H25 C20 1_555 1_555
C21 C20 1_555 1_555
H26 C21 1_555 1_555
C22 C21 1_555 1_555
H27 C22 1_555 1_555
C23 C22 1_555 1_555
H28 C23 1_555 1_555
C24 C19 1_555 1_555
H29 C24 1_555 1_555
C11 C12 1_555 1_555
C23 C24 1_555 1_555

#END
