
#######################################################################
#
#                 Cambridge Crystallographic Data Centre
#                                CCDC 
#
#######################################################################
#
# If this CIF has been generated from an entry in the Cambridge 
# Structural Database, then it will include bibliographic, chemical, 
# crystal, experimental, refinement or atomic coordinate data resulting 
# from the CCDC's data processing and validation procedures.
#
#######################################################################

data_AMIRIY01
_chemical_formula_moiety         'C24 H29 N3'
_chemical_name_systematic        
3-((2,6-Diisopropylphenyl)amino)-2-(N-phenylethanimidoyl)but-2-enenitrile
_symmetry_cell_setting           monoclinic
_symmetry_space_group_name_H-M   'P 21/n'
_symmetry_Int_Tables_number      14
_space_group_name_Hall           '-P 2yn'
loop_
_symmetry_equiv_pos_site_id
_symmetry_equiv_pos_as_xyz
1 x,y,z
2 1/2-x,1/2+y,1/2-z
3 -x,-y,-z
4 1/2+x,1/2-y,1/2+z
_cell_length_a                   12.3225(5)
_cell_length_b                   12.9163(5)
_cell_length_c                   13.6889(6)
_cell_angle_alpha                90
_cell_angle_beta                 97.482(2)
_cell_angle_gamma                90
_cell_volume                     2160.19
_exptl_crystal_colour            colorless
_exptl_crystal_description       plate
_cell_formula_units_Z            4
_exptl_crystal_recrystallization_method pentane
loop_
_atom_site_label
_atom_site_type_symbol
_atom_site_fract_x
_atom_site_fract_y
_atom_site_fract_z
N1 N 0.23057(10) 0.15236(10) 0.45515(9)
H1 H 0.2887(15) 0.1890(14) 0.4385(13)
C1 C 0.25518(12) 0.09784(12) 0.53687(11)
C2 C 0.36118(13) 0.10319(12) 0.58930(11)
C3 C 0.45101(12) 0.16048(12) 0.55770(11)
N2 N 0.43431(10) 0.21506(11) 0.47718(10)
C4 C 0.16981(15) 0.02953(15) 0.57131(13)
H2 H 0.1245 0.0699 0.6100
H3 H 0.2050 -0.0259 0.6115
H4 H 0.1245 0.0003 0.5148
C5 C 0.38163(13) 0.04637(13) 0.67921(12)
N3 N 0.39807(14) 0.00113(13) 0.75172(11)
C6 C 0.56127(14) 0.15201(16) 0.61853(14)
H5 H 0.6161 0.1840 0.5835
H6 H 0.5793 0.0796 0.6303
H7 H 0.5596 0.1870 0.6810
C7 C 0.12631(11) 0.15143(12) 0.39468(10)
C8 C 0.04394(12) 0.21800(12) 0.41772(11)
C9 C -0.05433(13) 0.21855(14) 0.35471(12)
H8 H -0.1108 0.2636 0.3674
C10 C -0.06991(13) 0.15380(14) 0.27381(13)
H9 H -0.1370 0.1549 0.2323
C11 C 0.01199(13) 0.08759(13) 0.25338(11)
H10 H -0.0003 0.0432 0.1986
C12 C 0.11245(12) 0.08564(12) 0.31271(11)
C13 C 0.06139(14) 0.28906(14) 0.50677(13)
H11 H 0.1167 0.2560 0.5559
C14 C 0.1086(2) 0.39224(17) 0.47844(18)
H12 H 0.1762 0.3802 0.4510
H13 H 0.1232 0.4357 0.5365
H14 H 0.0565 0.4266 0.4298
C15 C -0.04020(19) 0.3065(2) 0.55610(17)
H15 H -0.0212 0.3461 0.6161
H16 H -0.0705 0.2403 0.5720
H17 H -0.0940 0.3444 0.5118
C16 C 0.20587(13) 0.01788(13) 0.28836(12)
H18 H 0.2490 -0.0025 0.3515
C17 C 0.28166(15) 0.07963(16) 0.23020(14)
H19 H 0.2418 0.1007 0.1676
H20 H 0.3434 0.0368 0.2186
H21 H 0.3079 0.1405 0.2675
C18 C 0.16912(18) -0.08125(16) 0.23361(16)
H22 H 0.1192 -0.1186 0.2701
H23 H 0.2324 -0.1241 0.2272
H24 H 0.1323 -0.0641 0.1686
C19 C 0.52005(12) 0.27107(13) 0.44115(11)
C20 C 0.56126(14) 0.23710(15) 0.35739(13)
H25 H 0.5348 0.1756 0.3262
C21 C 0.64161(15) 0.29415(19) 0.31976(15)
H26 H 0.6698 0.2707 0.2631
C22 C 0.68049(14) 0.38445(18) 0.36412(15)
H27 H 0.7353 0.4224 0.3384
C23 C 0.63886(15) 0.41867(16) 0.44600(15)
H28 H 0.6651 0.4806 0.4765
C24 C 0.55866(14) 0.36312(14) 0.48425(13)
H29 H 0.5299 0.3880 0.5401
loop_
_geom_bond_atom_site_label_1
_geom_bond_atom_site_label_2
_geom_bond_site_symmetry_1
_geom_bond_site_symmetry_2
N1 H1 1_555 1_555
C1 N1 1_555 1_555
C2 C1 1_555 1_555
C3 C2 1_555 1_555
N2 C3 1_555 1_555
C4 C1 1_555 1_555
H2 C4 1_555 1_555
H3 C4 1_555 1_555
H4 C4 1_555 1_555
C5 C2 1_555 1_555
N3 C5 1_555 1_555
C6 C3 1_555 1_555
H5 C6 1_555 1_555
H6 C6 1_555 1_555
H7 C6 1_555 1_555
C7 N1 1_555 1_555
C8 C7 1_555 1_555
C9 C8 1_555 1_555
H8 C9 1_555 1_555
C10 C9 1_555 1_555
H9 C10 1_555 1_555
C11 C10 1_555 1_555
H10 C11 1_555 1_555
C12 C7 1_555 1_555
C13 C8 1_555 1_555
H11 C13 1_555 1_555
C14 C13 1_555 1_555
H12 C14 1_555 1_555
H13 C14 1_555 1_555
H14 C14 1_555 1_555
C15 C13 1_555 1_555
H15 C15 1_555 1_555
H16 C15 1_555 1_555
H17 C15 1_555 1_555
C16 C12 1_555 1_555
H18 C16 1_555 1_555
C17 C16 1_555 1_555
H19 C17 1_555 1_555
H20 C17 1_555 1_555
H21 C17 1_555 1_555
C18 C16 1_555 1_555
H22 C18 1_555 1_555
H23 C18 1_555 1_555
H24 C18 1_555 1_555
C19 N2 1_555 1_555
C20 C19 1_555 1_555
H25 C20 1_555 1_555
C21 C20 1_555 1_555
H26 C21 1_555 1_555
C22 C21 1_555 1_555
H27 C22 1_555 1_555
C23 C22 1_555 1_555
H28 C23 1_555 1_555
C24 C19 1_555 1_555
H29 C24 1_555 1_555
C11 C12 1_555 1_555
C23 C24 1_555 1_555

#END
