
#######################################################################
#
#                 Cambridge Crystallographic Data Centre
#                                CCDC 
#
#######################################################################
#
# If this CIF has been generated from an entry in the Cambridge 
# Structural Database, then it will include bibliographic, chemical, 
# crystal, experimental, refinement or atomic coordinate data resulting 
# from the CCDC's data processing and validation procedures.
#
#######################################################################

data_AMIXOL
_chemical_formula_moiety         'C20 H22 B1 F2 N5'
_chemical_name_systematic        
3,3-difluoro-2,4-dimesityl-6-cyano-2,3-dihydro-1,2,4,5,3-tetrazaborinine-4-ium-3-ide
_symmetry_cell_setting           orthorhombic
_symmetry_space_group_name_H-M   'P n m a'
_symmetry_Int_Tables_number      62
_space_group_name_Hall           '-P 2ac 2n'
loop_
_symmetry_equiv_pos_site_id
_symmetry_equiv_pos_as_xyz
1 x,y,z
2 1/2-x,-y,1/2+z
3 -x,1/2+y,-z
4 1/2+x,1/2-y,1/2-z
5 -x,-y,-z
6 1/2+x,y,1/2-z
7 x,1/2-y,z
8 1/2-x,1/2+y,1/2+z
_cell_length_a                   5.9716(2)
_cell_length_b                   17.0399(6)
_cell_length_c                   18.8991(6)
_cell_angle_alpha                90
_cell_angle_beta                 90
_cell_angle_gamma                90
_cell_volume                     1923.09
_exptl_crystal_colour            yellow
_exptl_crystal_description       needle
_cell_formula_units_Z            4
loop_
_atom_site_label
_atom_site_type_symbol
_atom_site_fract_x
_atom_site_fract_y
_atom_site_fract_z
N1 N 0.07168(17) 0.17768(6) 0.56837(5)
N2 N 0.21027(17) 0.17921(6) 0.51582(5)
N3 N 0.5351(3) 0.2500 0.38281(10)
C1 C 0.4149(3) 0.2500 0.43014(10)
C2 C 0.1682(2) 0.00153(8) 0.67957(7)
H1 H 0.2681 -0.0160 0.7154
C3 C 0.0445(2) 0.10003(7) 0.59923(6)
C4 C -0.2801(2) 0.07526(8) 0.51416(7)
H2 H -0.2203 0.1220 0.4905
H3 H -0.4285 0.0871 0.5336
H4 H -0.2922 0.0322 0.4800
C5 C -0.1250(2) 0.05147(7) 0.57334(7)
C6 C 0.2608(3) 0.2500 0.48881(9)
C7 C 0.1931(2) 0.07704(8) 0.65256(6)
C8 C -0.1443(2) -0.02298(8) 0.60363(7)
H5 H -0.2609 -0.0567 0.5880
C9 C 0.0010(2) -0.04925(8) 0.65575(7)
C10 C 0.3722(2) 0.13106(8) 0.68068(7)
H6 H 0.4470 0.1574 0.6411
H7 H 0.4822 0.1005 0.7075
H8 H 0.3039 0.1704 0.7117
C11 C -0.0152(3) -0.13182(8) 0.68442(8)
H9 H -0.1612 -0.1542 0.6720
H10 H 0.0012 -0.1308 0.7360
H11 H 0.1040 -0.1641 0.6638
B1 B -0.0649(4) 0.2500 0.59585(11)
F1 F -0.27483(18) 0.2500 0.56565(6)
F2 F -0.0747(2) 0.2500 0.66796(6)
N1F N 0.07168(17) 0.32232(6) 0.56837(5)
N2F N 0.21027(17) 0.32079(6) 0.51582(5)
C2F C 0.1682(2) 0.49847(8) 0.67957(7)
H1F H 0.2681 0.5160 0.7154
C3F C 0.0445(2) 0.39997(7) 0.59923(6)
C4F C -0.2801(2) 0.42474(8) 0.51416(7)
H2F H -0.2203 0.3780 0.4905
H3F H -0.4285 0.4129 0.5336
H4F H -0.2922 0.4678 0.4800
C5F C -0.1250(2) 0.44853(7) 0.57334(7)
C7F C 0.1931(2) 0.42296(8) 0.65256(6)
C8F C -0.1443(2) 0.52298(8) 0.60363(7)
H5F H -0.2609 0.5567 0.5880
C9F C 0.0010(2) 0.54925(8) 0.65575(7)
C10F C 0.3722(2) 0.36894(8) 0.68068(7)
H6F H 0.4470 0.3426 0.6411
H7F H 0.4822 0.3995 0.7075
H8F H 0.3039 0.3296 0.7117
C11F C -0.0152(3) 0.63182(8) 0.68442(8)
H9F H -0.1612 0.6542 0.6720
H10F H 0.0012 0.6308 0.7360
H11F H 0.1040 0.6641 0.6638
loop_
_geom_bond_atom_site_label_1
_geom_bond_atom_site_label_2
_geom_bond_site_symmetry_1
_geom_bond_site_symmetry_2
N1 N2 1_555 1_555
N2 C6 1_555 1_555
N3 C1 1_555 1_555
C1 C6 1_555 1_555
C2 H1 1_555 1_555
C3 N1 1_555 1_555
C4 H2 1_555 1_555
H3 C4 1_555 1_555
H4 C4 1_555 1_555
C5 C3 1_555 1_555
C6 N2F 1_555 1_555
C7 C2 1_555 1_555
C8 C5 1_555 1_555
H5 C8 1_555 1_555
C9 C2 1_555 1_555
C10 C7 1_555 1_555
H6 C10 1_555 1_555
H7 C10 1_555 1_555
H8 C10 1_555 1_555
C11 C9 1_555 1_555
H9 C11 1_555 1_555
H10 C11 1_555 1_555
H11 C11 1_555 1_555
B1 N1 1_555 1_555
F1 B1 1_555 1_555
F2 B1 1_555 1_555
N1F B1 1_555 1_555
N2F N1F 1_555 1_555
C2F H1F 1_555 1_555
C3F N1F 1_555 1_555
C4F H2F 1_555 1_555
H3F C4F 1_555 1_555
H4F C4F 1_555 1_555
C5F C3F 1_555 1_555
C7F C2F 1_555 1_555
C8F C5F 1_555 1_555
H5F C8F 1_555 1_555
C9F C2F 1_555 1_555
C10F C7F 1_555 1_555
H6F C10F 1_555 1_555
H7F C10F 1_555 1_555
H8F C10F 1_555 1_555
C11F C9F 1_555 1_555
H9F C11F 1_555 1_555
H10F C11F 1_555 1_555
H11F C11F 1_555 1_555
C3 C7 1_555 1_555
C4 C5 1_555 1_555
C8 C9 1_555 1_555
C3F C7F 1_555 1_555
C4F C5F 1_555 1_555
C8F C9F 1_555 1_555

#END
