
#######################################################################
#
#                 Cambridge Crystallographic Data Centre
#                                CCDC 
#
#######################################################################
#
# If this CIF has been generated from an entry in the Cambridge 
# Structural Database, then it will include bibliographic, chemical, 
# crystal, experimental, refinement or atomic coordinate data resulting 
# from the CCDC's data processing and validation procedures.
#
#######################################################################

data_AMIXAX
_chemical_formula_moiety         'C20 H12 B1 F7 N4'
_chemical_name_systematic        
3,3-Difluoro-6-(4-methylphenyl)-2-(pentafluorophenyl)-4-phenyl-2,3-dihydro-1,2,4,5,3-tetrazaborinin-4-ium-3-ide
_symmetry_cell_setting           monoclinic
_symmetry_space_group_name_H-M   'P 21/c'
_symmetry_Int_Tables_number      14
_space_group_name_Hall           '-P 2ybc'
loop_
_symmetry_equiv_pos_site_id
_symmetry_equiv_pos_as_xyz
1 x,y,z
2 -x,1/2+y,1/2-z
3 -x,-y,-z
4 x,1/2-y,1/2+z
_cell_length_a                   18.5945(8)
_cell_length_b                   7.3570(3)
_cell_length_c                   14.5283(6)
_cell_angle_alpha                90
_cell_angle_beta                 108.9680(10)
_cell_angle_gamma                90
_cell_volume                     1879.55
_exptl_crystal_colour            red
_exptl_crystal_description       block
_cell_formula_units_Z            4
loop_
_atom_site_label
_atom_site_type_symbol
_atom_site_fract_x
_atom_site_fract_y
_atom_site_fract_z
F1 F 0.13562(5) 0.65757(15) 0.01746(6)
F2 F 0.12389(6) 0.39081(15) 0.09311(7)
F3 F 0.20231(5) 0.40211(14) -0.05281(6)
F4 F 0.28680(6) 0.45024(14) -0.16965(6)
F5 F 0.42594(6) 0.61041(16) -0.10006(7)
F6 F 0.47781(5) 0.73027(15) 0.08674(7)
F7 F 0.39089(5) 0.70787(14) 0.20043(6)
N1 N 0.14470(7) 0.6648(2) 0.18712(9)
N2 N 0.18590(7) 0.6399(2) 0.27741(9)
N3 N 0.28473(8) 0.50308(19) 0.23036(9)
N4 N 0.24644(7) 0.53767(19) 0.13755(9)
C1 C 0.08594(9) 0.7989(2) 0.17041(11)
C2 C 0.01818(9) 0.7727(3) 0.09441(12)
H1 H 0.0113 0.6688 0.0536
C3 C -0.03903(10) 0.9010(3) 0.07947(12)
H2 H -0.0859 0.8841 0.0286
C4 C -0.02840(10) 1.0535(3) 0.13787(13)
H3 H -0.0678 1.1413 0.1267
C5 C 0.03941(11) 1.0786(3) 0.21261(14)
H4 H 0.0466 1.1840 0.2523
C6 C 0.09693(10) 0.9506(3) 0.22978(12)
H5 H 0.1433 0.9668 0.2816
C7 C 0.24995(9) 0.5375(2) 0.29525(11)
C8 C 0.29105(9) 0.4895(2) 0.39800(11)
C9 C 0.36673(9) 0.4305(2) 0.42579(11)
H6 H 0.3920 0.4222 0.3787
C10 C 0.40472(9) 0.3843(2) 0.52152(11)
H7 H 0.4561 0.3451 0.5393
C11 C 0.36948(9) 0.3938(2) 0.59270(11)
C12 C 0.29428(9) 0.4527(2) 0.56435(11)
H8 H 0.2690 0.4600 0.6115
C13 C 0.25551(9) 0.5009(2) 0.46867(11)
H9 H 0.2044 0.5420 0.4513
C14 C 0.41237(10) 0.3433(3) 0.69666(11)
H10 H 0.4470 0.2424 0.6977
H11 H 0.3763 0.3064 0.7295
H12 H 0.4417 0.4484 0.7303
C15 C 0.29322(9) 0.5528(2) 0.07804(11)
C16 C 0.26861(9) 0.4895(2) -0.01772(11)
C17 C 0.31238(10) 0.5114(2) -0.07746(11)
C18 C 0.38294(10) 0.5908(2) -0.04247(12)
C19 C 0.40942(9) 0.6511(2) 0.05249(12)
C20 C 0.36456(9) 0.6348(2) 0.11129(11)
B1 B 0.15877(11) 0.5564(3) 0.10087(13)
loop_
_geom_bond_atom_site_label_1
_geom_bond_atom_site_label_2
_geom_bond_site_symmetry_1
_geom_bond_site_symmetry_2
F1 B1 1_555 1_555
F2 B1 1_555 1_555
F3 C16 1_555 1_555
F4 C17 1_555 1_555
F5 C18 1_555 1_555
F6 C19 1_555 1_555
F7 C20 1_555 1_555
N1 N2 1_555 1_555
N2 C7 1_555 1_555
N3 N4 1_555 1_555
N4 C15 1_555 1_555
C1 N1 1_555 1_555
C2 C1 1_555 1_555
H1 C2 1_555 1_555
C3 C2 1_555 1_555
H2 C3 1_555 1_555
C4 C3 1_555 1_555
H3 C4 1_555 1_555
C5 C4 1_555 1_555
H4 C5 1_555 1_555
C6 C1 1_555 1_555
H5 C6 1_555 1_555
C7 N3 1_555 1_555
C8 C7 1_555 1_555
C9 C8 1_555 1_555
H6 C9 1_555 1_555
C10 C9 1_555 1_555
H7 C10 1_555 1_555
C11 C10 1_555 1_555
C12 C11 1_555 1_555
H8 C12 1_555 1_555
C13 C8 1_555 1_555
H9 C13 1_555 1_555
C14 C11 1_555 1_555
H10 C14 1_555 1_555
H11 C14 1_555 1_555
H12 C14 1_555 1_555
C15 C16 1_555 1_555
C16 C17 1_555 1_555
C17 C18 1_555 1_555
C18 C19 1_555 1_555
C19 C20 1_555 1_555
C20 C15 1_555 1_555
B1 N1 1_555 1_555
N4 B1 1_555 1_555
C5 C6 1_555 1_555
C12 C13 1_555 1_555

#END
