
#######################################################################
#
#                 Cambridge Crystallographic Data Centre
#                                CCDC 
#
#######################################################################
#
# If this CIF has been generated from an entry in the Cambridge 
# Structural Database, then it will include bibliographic, chemical, 
# crystal, experimental, refinement or atomic coordinate data resulting 
# from the CCDC's data processing and validation procedures.
#
#######################################################################

data_AMODIR
_chemical_formula_moiety         'C11 H13 N1 O4'
_chemical_name_systematic        4,5,6-trimethoxyisoindolin-1-one
_symmetry_cell_setting           monoclinic
_symmetry_space_group_name_H-M   'P 21/c'
_symmetry_Int_Tables_number      14
_space_group_name_Hall           '-P 2ybc'
loop_
_symmetry_equiv_pos_site_id
_symmetry_equiv_pos_as_xyz
1 x,y,z
2 -x,1/2+y,1/2-z
3 -x,-y,-z
4 x,1/2-y,1/2+z
_cell_length_a                   9.9106(4)
_cell_length_b                   20.7389(7)
_cell_length_c                   10.0411(4)
_cell_angle_alpha                90
_cell_angle_beta                 91.914(4)
_cell_angle_gamma                90
_cell_volume                     2062.65
_cell_formula_units_Z            8
loop_
_atom_site_label
_atom_site_type_symbol
_atom_site_fract_x
_atom_site_fract_y
_atom_site_fract_z
O1 O -0.14126(19) 0.54088(9) 0.41338(19)
O2 O 0.01216(18) 0.61852(8) 0.27516(18)
O3 O 0.17449(18) 0.57687(8) 0.08829(18)
N1 N -0.0282(2) 0.33380(9) 0.3175(2)
H1 H -0.0405(2) 0.29409(9) 0.3385(2)
O4 O 0.1253(2) 0.31716(9) 0.1630(2)
C1 C -0.0398(3) 0.44575(12) 0.3096(2)
C2 C -0.0585(2) 0.51177(12) 0.3266(2)
C3 C 0.0189(2) 0.55384(11) 0.2509(2)
C4 C 0.1089(2) 0.53060(12) 0.1562(2)
C5 C 0.1259(3) 0.46498(12) 0.1392(3)
H2 H 0.1846(3) 0.44860(12) 0.0772(3)
C6 C 0.0515(3) 0.42482(12) 0.2187(3)
C7 C 0.0576(3) 0.35413(13) 0.2246(3)
C8 C -0.0961(3) 0.38737(13) 0.3765(3)
H3 H -0.1929(3) 0.38442(13) 0.3601(3)
H4 H -0.0775(3) 0.38884(13) 0.4719(3)
C9 C -0.2556(3) 0.50737(16) 0.4576(3)
H5 H -0.2997(14) 0.4859(9) 0.3834(5)
H6 H -0.2277(4) 0.4761(8) 0.5233(17)
H7 H -0.3170(12) 0.5374(2) 0.496(2)
C10 C -0.0689(3) 0.65390(14) 0.1805(3)
H8 H -0.0310(13) 0.6502(9) 0.0940(5)
H9 H -0.1589(7) 0.6368(7) 0.1774(16)
H10 H -0.0712(18) 0.6985(2) 0.2062(12)
C11 C 0.2640(3) 0.55520(14) -0.0114(3)
H11 H 0.2149(6) 0.5291(9) -0.0753(12)
H12 H 0.3015(17) 0.59179(15) -0.0555(15)
H13 H 0.3354(12) 0.5302(9) 0.0299(4)
O5 O 0.3051(2) 0.79335(10) 0.3600(2)
O6 O 0.44239(18) 0.86895(8) 0.2059(2)
O7 O 0.63287(19) 0.82668(8) 0.04696(18)
N2 N 0.4409(2) 0.58522(9) 0.2903(2)
H14 H 0.4305(2) 0.54565(9) 0.3135(2)
O8 O 0.6021(2) 0.56876(10) 0.1442(2)
C12 C 0.4203(3) 0.69690(12) 0.2734(3)
C13 C 0.3944(2) 0.76304(12) 0.2821(2)
C14 C 0.4704(2) 0.80440(11) 0.2029(2)
C15 C 0.5680(2) 0.78092(11) 0.1168(2)
C16 C 0.5913(3) 0.71524(12) 0.1077(2)
H15 H 0.6543(3) 0.69852(12) 0.0504(2)
C17 C 0.5165(3) 0.67585(12) 0.1877(3)
C18 C 0.5286(3) 0.60542(12) 0.2002(3)
C19 C 0.3662(3) 0.63861(12) 0.3432(3)
H16 H 0.2702(3) 0.63359(12) 0.3240(3)
H17 H 0.3815(3) 0.64205(12) 0.4389(3)
C20 C 0.2136(3) 0.75700(16) 0.4346(3)
H18 H 0.1603(17) 0.7300(9) 0.3756(4)
H19 H 0.2629(3) 0.7306(9) 0.4978(17)
H20 H 0.1554(16) 0.78568(16) 0.4811(19)
C21 C 0.5419(3) 0.90729(14) 0.2763(3)
H21 H 0.6276(6) 0.9022(8) 0.2358(14)
H22 H 0.5156(12) 0.95182(19) 0.2728(19)
H23 H 0.5491(16) 0.8935(7) 0.3676(6)
C22 C 0.7419(3) 0.80531(14) -0.0317(3)
H24 H 0.7077(4) 0.7773(8) -0.1010(13)
H25 H 0.7848(14) 0.84192(16) -0.0707(17)
H26 H 0.8064(11) 0.7824(9) 0.0238(5)
loop_
_geom_bond_atom_site_label_1
_geom_bond_atom_site_label_2
_geom_bond_site_symmetry_1
_geom_bond_site_symmetry_2
O1 C2 1_555 1_555
O2 C3 1_555 1_555
O3 C4 1_555 1_555
N1 H1 1_555 1_555
O4 C7 1_555 1_555
C1 C2 1_555 1_555
C2 C3 1_555 1_555
C3 C4 1_555 1_555
C4 C5 1_555 1_555
C5 H2 1_555 1_555
C6 C1 1_555 1_555
C7 N1 1_555 1_555
C8 N1 1_555 1_555
H3 C8 1_555 1_555
H4 C8 1_555 1_555
C9 O1 1_555 1_555
H5 C9 1_555 1_555
H6 C9 1_555 1_555
H7 C9 1_555 1_555
C10 O2 1_555 1_555
H8 C10 1_555 1_555
H9 C10 1_555 1_555
H10 C10 1_555 1_555
C11 O3 1_555 1_555
H11 C11 1_555 1_555
H12 C11 1_555 1_555
H13 C11 1_555 1_555
O5 C13 1_555 1_555
O6 C14 1_555 1_555
O7 C15 1_555 1_555
N2 H14 1_555 1_555
O8 C18 1_555 1_555
C12 C13 1_555 1_555
C13 C14 1_555 1_555
C14 C15 1_555 1_555
C15 C16 1_555 1_555
C16 H15 1_555 1_555
C17 C12 1_555 1_555
C18 N2 1_555 1_555
C19 N2 1_555 1_555
H16 C19 1_555 1_555
H17 C19 1_555 1_555
C20 O5 1_555 1_555
H18 C20 1_555 1_555
H19 C20 1_555 1_555
H20 C20 1_555 1_555
C21 O6 1_555 1_555
H21 C21 1_555 1_555
H22 C21 1_555 1_555
H23 C21 1_555 1_555
C22 O7 1_555 1_555
H24 C22 1_555 1_555
H25 C22 1_555 1_555
H26 C22 1_555 1_555
C1 C8 1_555 1_555
C5 C6 1_555 1_555
C6 C7 1_555 1_555
C12 C19 1_555 1_555
C16 C17 1_555 1_555
C17 C18 1_555 1_555

#END
