
#######################################################################
#
#                 Cambridge Crystallographic Data Centre
#                                CCDC 
#
#######################################################################
#
# If this CIF has been generated from an entry in the Cambridge 
# Structural Database, then it will include bibliographic, chemical, 
# crystal, experimental, refinement or atomic coordinate data resulting 
# from the CCDC's data processing and validation procedures.
#
#######################################################################

data_AMODEN
_chemical_formula_moiety         'C17 H17 N1 O6 S1'
_chemical_name_systematic        
4,5,6-trimethoxy-2-(phenylsulfonyl)isoindolin-1-one
_symmetry_cell_setting           triclinic
_symmetry_space_group_name_H-M   'P -1'
_symmetry_Int_Tables_number      2
_space_group_name_Hall           '-P 1'
loop_
_symmetry_equiv_pos_site_id
_symmetry_equiv_pos_as_xyz
1 x,y,z
2 -x,-y,-z
_cell_length_a                   4.9390(2)
_cell_length_b                   11.6194(6)
_cell_length_c                   14.6797(5)
_cell_angle_alpha                78.518(4)
_cell_angle_beta                 83.961(4)
_cell_angle_gamma                81.861(4)
_cell_volume                     814.687
_cell_formula_units_Z            2
loop_
_atom_site_label
_atom_site_type_symbol
_atom_site_fract_x
_atom_site_fract_y
_atom_site_fract_z
S1 S 0.81216(9) -0.05121(4) 0.82322(3)
O1 O -0.2163(3) 0.28312(12) 0.49158(10)
O2 O -0.3307(3) 0.40156(13) 0.63102(12)
O3 O -0.0422(3) 0.34819(13) 0.78510(10)
O4 O 0.6174(3) -0.04310(12) 0.62939(10)
O5 O 1.0369(3) -0.08997(13) 0.76416(10)
O6 O 0.8537(3) 0.00583(13) 0.89696(10)
N1 N 0.5975(3) 0.04489(13) 0.75928(11)
C1 C 0.5199(4) 0.03306(16) 0.67189(13)
C2 C 0.3016(4) 0.13100(15) 0.64830(12)
C3 C 0.2454(4) 0.19316(16) 0.72001(12)
C4 C 0.0360(4) 0.28673(16) 0.71397(13)
C5 C -0.1126(4) 0.31418(16) 0.63570(14)
C6 C -0.0538(4) 0.24818(16) 0.56381(13)
C7 C 0.1568(4) 0.15587(16) 0.56943(13)
H1 H 0.1997 0.1121 0.5221
C8 C 0.4246(4) 0.14077(16) 0.79769(13)
H2 H 0.5338 0.1981 0.8103
H3 H 0.3176 0.1102 0.8544
C9 C -0.1825(6) 0.2122(2) 0.42223(17)
H4 H -0.3157 0.2422 0.3775
H5 H -0.2074 0.1322 0.4507
H6 H -0.0013 0.2141 0.3915
C10 C -0.2736(7) 0.5166(2) 0.5982(3)
H7 H -0.2949 0.5372 0.5324
H8 H -0.0886 0.5226 0.6093
H9 H -0.3980 0.5696 0.6300
C11 C 0.1467(6) 0.4143(3) 0.8063(2)
H10 H 0.2938 0.4197 0.7580
H11 H 0.2186 0.3767 0.8646
H12 H 0.0586 0.4922 0.8110
C12 C 0.6283(4) -0.17110(17) 0.86991(13)
C13 C 0.4556(5) -0.1669(2) 0.94946(14)
H13 H 0.4371 -0.1016 0.9784
C14 C 0.3105(5) -0.2609(2) 0.98549(17)
H14 H 0.1936 -0.2595 1.0393
C15 C 0.3382(6) -0.3561(2) 0.9424(2)
H15 H 0.2389 -0.4191 0.9669
C16 C 0.5113(6) -0.3599(2) 0.8629(2)
H16 H 0.5303 -0.4255 0.8344
C17 C 0.6562(5) -0.2665(2) 0.82600(17)
H17 H 0.7718 -0.2679 0.7719
loop_
_geom_bond_atom_site_label_1
_geom_bond_atom_site_label_2
_geom_bond_site_symmetry_1
_geom_bond_site_symmetry_2
S1 O5 1_555 1_555
O1 C6 1_555 1_555
O2 C5 1_555 1_555
O3 C4 1_555 1_555
O4 C1 1_555 1_555
O6 S1 1_555 1_555
N1 S1 1_555 1_555
C1 N1 1_555 1_555
C2 C1 1_555 1_555
C3 C2 1_555 1_555
C4 C3 1_555 1_555
C5 C4 1_555 1_555
C6 C5 1_555 1_555
C7 C2 1_555 1_555
H1 C7 1_555 1_555
C8 N1 1_555 1_555
H2 C8 1_555 1_555
H3 C8 1_555 1_555
C9 O1 1_555 1_555
H4 C9 1_555 1_555
H5 C9 1_555 1_555
H6 C9 1_555 1_555
C10 O2 1_555 1_555
H7 C10 1_555 1_555
H8 C10 1_555 1_555
H9 C10 1_555 1_555
C11 O3 1_555 1_555
H10 C11 1_555 1_555
H11 C11 1_555 1_555
H12 C11 1_555 1_555
C12 S1 1_555 1_555
C13 C12 1_555 1_555
H13 C13 1_555 1_555
C14 C13 1_555 1_555
H14 C14 1_555 1_555
C15 C14 1_555 1_555
H15 C15 1_555 1_555
C16 C15 1_555 1_555
H16 C16 1_555 1_555
C17 C12 1_555 1_555
H17 C17 1_555 1_555
C3 C8 1_555 1_555
C6 C7 1_555 1_555
C16 C17 1_555 1_555

#END
