
#######################################################################
#
#                 Cambridge Crystallographic Data Centre
#                                CCDC 
#
#######################################################################
#
# If this CIF has been generated from an entry in the Cambridge 
# Structural Database, then it will include bibliographic, chemical, 
# crystal, experimental, refinement or atomic coordinate data resulting 
# from the CCDC's data processing and validation procedures.
#
#######################################################################

data_AMOLUL
_chemical_formula_moiety         'C13 H11 Br1 O3'
_chemical_name_systematic        
syn-3-(2-bromobenzyl)-3-methyl-6-oxabicyclo[3.1.0]hexane-2,4-dione
_symmetry_cell_setting           orthorhombic
_symmetry_space_group_name_H-M   'P c a 21'
_symmetry_Int_Tables_number      29
_space_group_name_Hall           'P 2c -2ac'
loop_
_symmetry_equiv_pos_site_id
_symmetry_equiv_pos_as_xyz
1 x,y,z
2 -x,-y,1/2+z
3 1/2+x,-y,z
4 1/2-x,y,1/2+z
_cell_length_a                   13.960(2)
_cell_length_b                   13.387(2)
_cell_length_c                   6.3553(10)
_cell_angle_alpha                90
_cell_angle_beta                 90
_cell_angle_gamma                90
_cell_volume                     1187.69
_exptl_crystal_colour            colorless
_exptl_crystal_description       block
_cell_formula_units_Z            4
loop_
_atom_site_label
_atom_site_type_symbol
_atom_site_fract_x
_atom_site_fract_y
_atom_site_fract_z
Br1 Br 1.15931(3) 0.80415(4) 0.19743(10)
C1 C 1.1252(2) 0.6897(3) 0.3590(7)
C2 C 1.1696(3) 0.5986(4) 0.3059(9)
H1 H 1.2110 0.5940 0.1918
C3 C 1.1496(3) 0.5171(4) 0.4279(12)
H2 H 1.1785 0.4562 0.3975
C4 C 1.0882(3) 0.5239(3) 0.5925(11)
H3 H 1.0750 0.4675 0.6728
C5 C 1.0456(2) 0.6124(2) 0.6415(6)
H4 H 1.0050 0.6154 0.7574
C6 C 1.0608(2) 0.6981(2) 0.5237(5)
C7 C 1.0076(2) 0.7917(2) 0.5759(6)
H5 H 1.0471 0.8484 0.5375
H6 H 0.9978 0.7942 0.7269
C8 C 0.9087(2) 0.8022(2) 0.4652(5)
C9 C 0.91519(19) 0.8101(2) 0.2259(6)
C10 C 0.9106(2) 0.9163(2) 0.1619(6)
H7 H 0.8925 0.9353 0.0184
C11 C 0.8776(2) 0.9746(3) 0.3445(6)
H8 H 0.8365 1.0333 0.3271
C12 C 0.8630(2) 0.9031(3) 0.5221(5)
C13 C 0.8412(2) 0.7177(3) 0.5291(7)
H9 H 0.8330 0.7181 0.6791
H10 H 0.8679 0.6549 0.4860
H11 H 0.7801 0.7271 0.4623
O1 O 0.91442(17) 0.73957(18) 0.1061(4)
O2 O 0.81742(14) 0.92026(19) 0.6770(5)
O3 O 0.97656(15) 0.97620(16) 0.2826(4)
loop_
_geom_bond_atom_site_label_1
_geom_bond_atom_site_label_2
_geom_bond_site_symmetry_1
_geom_bond_site_symmetry_2
Br1 C1 1_555 1_555
C1 C2 1_555 1_555
C2 H1 1_555 1_555
C3 C2 1_555 1_555
H2 C3 1_555 1_555
C4 C3 1_555 1_555
H3 C4 1_555 1_555
C5 C4 1_555 1_555
H4 C5 1_555 1_555
C6 C1 1_555 1_555
C7 C6 1_555 1_555
H5 C7 1_555 1_555
H6 C7 1_555 1_555
C8 C7 1_555 1_555
C9 C8 1_555 1_555
C10 C9 1_555 1_555
H7 C10 1_555 1_555
C11 C10 1_555 1_555
H8 C11 1_555 1_555
C12 C8 1_555 1_555
C13 C8 1_555 1_555
H9 C13 1_555 1_555
H10 C13 1_555 1_555
H11 C13 1_555 1_555
O1 C9 1_555 1_555
O2 C12 1_555 1_555
O3 C10 1_555 1_555
C5 C6 1_555 1_555
C11 C12 1_555 1_555
C11 O3 1_555 1_555

#END
