
#######################################################################
#
#                 Cambridge Crystallographic Data Centre
#                                CCDC 
#
#######################################################################
#
# If this CIF has been generated from an entry in the Cambridge 
# Structural Database, then it will include bibliographic, chemical, 
# crystal, experimental, refinement or atomic coordinate data resulting 
# from the CCDC's data processing and validation procedures.
#
#######################################################################

data_AMOMAS
_chemical_formula_moiety         'C13 H11 Br1 O3'
_chemical_name_systematic        
anti-3-(2-bromobenzyl)-3-methyl-6-oxabicyclo[3.1.0]hexane-2,4-dione
_symmetry_cell_setting           monoclinic
_symmetry_space_group_name_H-M   'P 21/c'
_symmetry_Int_Tables_number      14
_space_group_name_Hall           '-P 2ybc'
loop_
_symmetry_equiv_pos_site_id
_symmetry_equiv_pos_as_xyz
1 x,y,z
2 -x,1/2+y,1/2-z
3 -x,-y,-z
4 x,1/2-y,1/2+z
_cell_length_a                   21.939(3)
_cell_length_b                   6.7086(9)
_cell_length_c                   16.561(2)
_cell_angle_alpha                90
_cell_angle_beta                 91.307(3)
_cell_angle_gamma                90
_cell_volume                     2436.81
_exptl_crystal_colour            colorless
_exptl_crystal_description       block
_cell_formula_units_Z            8
loop_
_atom_site_label
_atom_site_type_symbol
_atom_site_fract_x
_atom_site_fract_y
_atom_site_fract_z
Br1 Br 0.40385(2) 0.20198(6) 0.32190(3)
C1 C 0.32827(16) -0.0103(5) 0.2083(2)
C2 C 0.35399(16) -0.0137(5) 0.2856(2)
C3 C 0.29311(18) -0.1743(6) 0.1863(3)
H1 H 0.2752 -0.1783 0.1349
C4 C 0.34506(19) -0.1688(6) 0.3386(2)
H2 H 0.3628 -0.1653 0.3901
C5 C 0.3096(2) -0.3293(6) 0.3149(3)
H3 H 0.3032 -0.4346 0.3502
C6 C 0.33582(17) 0.1621(5) 0.1512(2)
H4 H 0.3419 0.2823 0.1829
H5 H 0.2981 0.1784 0.1202
C7 C 0.28389(19) -0.3313(6) 0.2382(3)
H6 H 0.2602 -0.4393 0.2214
C8 C 0.39844(18) 0.3604(6) 0.0636(2)
C9 C 0.44829(17) 0.0939(6) 0.1363(2)
C10 C 0.38910(17) 0.1446(5) 0.0909(2)
C11 C 0.48751(19) 0.2749(6) 0.1420(3)
H7 H 0.5143 0.3006 0.1890
C12 C 0.45855(19) 0.4365(6) 0.0960(3)
H8 H 0.4647 0.5768 0.1104
O1 O 0.36230(13) 0.4566(4) 0.02468(18)
O2 O 0.46262(13) -0.0691(4) 0.16041(17)
O3 O 0.50583(14) 0.3188(5) 0.06124(19)
C13 C 0.3749(2) -0.0005(6) 0.0225(2)
H9 H 0.4074 0.0016 -0.0152
H10 H 0.3375 0.0379 -0.0044
H11 H 0.3708 -0.1325 0.0441
Br2 Br 0.18285(2) 0.34554(7) 0.75613(3)
C14 C 0.08122(16) 0.1811(5) 0.8402(2)
C15 C 0.12264(16) 0.1510(6) 0.7786(2)
C16 C 0.03548(19) -0.1350(6) 0.8031(3)
H12 H 0.0060 -0.2317 0.8118
C17 C 0.03778(17) 0.0331(6) 0.8505(2)
H13 H 0.0093 0.0484 0.8908
C18 C 0.0767(2) -0.1600(6) 0.7431(3)
H14 H 0.0751 -0.2733 0.7107
C19 C 0.12066(18) -0.0165(6) 0.7307(2)
H15 H 0.1488 -0.0331 0.6902
C20 C 0.08003(17) 0.3661(5) 0.8905(2)
H16 H 0.0378 0.3999 0.8998
H17 H 0.0974 0.4739 0.8594
C21 C 0.11444(16) 0.3565(5) 0.9741(2)
C22 C 0.18091(18) 0.3019(6) 0.9621(2)
C23 C 0.11637(19) 0.5748(6) 1.0003(2)
C24 C 0.21895(19) 0.4869(6) 0.9704(3)
H18 H 0.2557 0.5070 0.9389
C25 C 0.1799(2) 0.6507(6) 0.9924(3)
H19 H 0.1886 0.7885 0.9768
O4 O 0.20036(13) 0.1370(4) 0.9518(2)
O5 O 0.07361(15) 0.6703(4) 1.0237(2)
O6 O 0.21573(14) 0.5473(5) 1.0534(2)
C26 C 0.0827(2) 0.2195(6) 1.0332(3)
H20 H 0.0831 0.0854 1.0130
H21 H 0.0413 0.2624 1.0393
H22 H 0.1037 0.2243 1.0847
loop_
_geom_bond_atom_site_label_1
_geom_bond_atom_site_label_2
_geom_bond_site_symmetry_1
_geom_bond_site_symmetry_2
Br1 C2 1_555 1_555
C1 C2 1_555 1_555
C2 C4 1_555 1_555
C3 C1 1_555 1_555
H1 C3 1_555 1_555
C4 H2 1_555 1_555
C5 C4 1_555 1_555
H3 C5 1_555 1_555
C6 C1 1_555 1_555
H4 C6 1_555 1_555
H5 C6 1_555 1_555
C7 C3 1_555 1_555
H6 C7 1_555 1_555
C8 C10 1_555 1_555
C9 C10 1_555 1_555
C10 C6 1_555 1_555
C11 C9 1_555 1_555
H7 C11 1_555 1_555
C12 C8 1_555 1_555
H8 C12 1_555 1_555
O1 C8 1_555 1_555
O2 C9 1_555 1_555
O3 C11 1_555 1_555
C13 C10 1_555 1_555
H9 C13 1_555 1_555
H10 C13 1_555 1_555
H11 C13 1_555 1_555
Br2 C15 1_555 1_555
C14 C15 1_555 1_555
C15 C19 1_555 1_555
C16 H12 1_555 1_555
C17 C14 1_555 1_555
H13 C17 1_555 1_555
C18 C16 1_555 1_555
H14 C18 1_555 1_555
C19 C18 1_555 1_555
H15 C19 1_555 1_555
C20 C14 1_555 1_555
H16 C20 1_555 1_555
H17 C20 1_555 1_555
C21 C20 1_555 1_555
C22 C21 1_555 1_555
C23 C21 1_555 1_555
C24 C22 1_555 1_555
H18 C24 1_555 1_555
C25 C23 1_555 1_555
H19 C25 1_555 1_555
O4 C22 1_555 1_555
O5 C23 1_555 1_555
O6 C24 1_555 1_555
C26 C21 1_555 1_555
H20 C26 1_555 1_555
H21 C26 1_555 1_555
H22 C26 1_555 1_555
C5 C7 1_555 1_555
C11 C12 1_555 1_555
C12 O3 1_555 1_555
C16 C17 1_555 1_555
C24 C25 1_555 1_555
C25 O6 1_555 1_555

#END
