
#######################################################################
#
#                 Cambridge Crystallographic Data Centre
#                                CCDC 
#
#######################################################################
#
# If this CIF has been generated from an entry in the Cambridge 
# Structural Database, then it will include bibliographic, chemical, 
# crystal, experimental, refinement or atomic coordinate data resulting 
# from the CCDC's data processing and validation procedures.
#
#######################################################################

data_AMOSUS
_chemical_formula_moiety         'C28 H25 Cl1 N2 O4 S1'
_chemical_name_systematic        
2'-(4-chlorobenzoyl)-1-methyl-1'-((4-methylphenyl)sulfonyl)-4'-vinylspiro[indole-3,3'-pyrrolidin]-2(1H)-one
_symmetry_cell_setting           orthorhombic
_symmetry_space_group_name_H-M   'P 21 21 21'
_symmetry_Int_Tables_number      19
_space_group_name_Hall           'P 2ac 2ab'
loop_
_symmetry_equiv_pos_site_id
_symmetry_equiv_pos_as_xyz
1 x,y,z
2 1/2-x,-y,1/2+z
3 -x,1/2+y,1/2-z
4 1/2+x,1/2-y,-z
_cell_length_a                   11.844(3)
_cell_length_b                   12.351(3)
_cell_length_c                   17.520(4)
_cell_angle_alpha                90
_cell_angle_beta                 90
_cell_angle_gamma                90
_cell_volume                     2562.92
_exptl_crystal_colour            colorless
_exptl_crystal_description       block
_cell_formula_units_Z            4
loop_
_atom_site_label
_atom_site_type_symbol
_atom_site_fract_x
_atom_site_fract_y
_atom_site_fract_z
C1 C 0.6252(5) 0.0653(4) 0.2195(3)
C2 C 0.5364(6) 0.1113(5) 0.2585(3)
H1 H 0.5244 0.0975 0.3101
C3 C 0.4661(6) 0.1785(5) 0.2177(4)
H2 H 0.4059 0.2113 0.2427
C4 C 0.4817(5) 0.1988(5) 0.1417(4)
H3 H 0.4322 0.2444 0.1159
C5 C 0.5715(5) 0.1514(5) 0.1028(3)
H4 H 0.5817 0.1639 0.0509
C6 C 0.6453(5) 0.0855(4) 0.1423(3)
C7 C 0.7432(4) 0.0168(4) 0.1172(3)
C8 C 0.7775(5) -0.0406(5) 0.1913(3)
C9 C 0.7131(7) -0.0469(6) 0.3259(3)
H5 H 0.7617 -0.1090 0.3281
H6 H 0.6391 -0.0665 0.3435
H7 H 0.7431 0.0094 0.3577
C10 C 0.7118(5) -0.0687(4) 0.0552(3)
H8 H 0.6731 -0.0311 0.0135
C11 C 0.6354(6) -0.1571(5) 0.0835(4)
H9 H 0.6693 -0.2193 0.1028
C12 C 0.5267(7) -0.1535(6) 0.0832(5)
H10 H 0.4897 -0.0926 0.0644
H11 H 0.4852 -0.2117 0.1018
C13 C 0.8252(5) -0.1073(5) 0.0259(3)
H12 H 0.8575 -0.1619 0.0592
H13 H 0.8191 -0.1364 -0.0254
C14 C 0.8485(5) 0.0720(4) 0.0818(3)
H14 H 0.9050 0.0851 0.1216
C15 C 0.8586(4) 0.2830(4) 0.0727(3)
C16 C 0.9262(5) 0.2948(5) 0.1367(3)
H15 H 0.9491 0.2335 0.1633
C17 C 0.9600(6) 0.3954(6) 0.1619(4)
H16 H 1.0067 0.4021 0.2043
C18 C 0.9235(6) 0.4855(5) 0.1231(4)
C19 C 0.8552(6) 0.4777(5) 0.0606(4)
H17 H 0.8307 0.5397 0.0354
C20 C 0.8231(6) 0.3763(5) 0.0353(3)
H18 H 0.7769 0.3703 -0.0074
C21 C 1.1081(5) -0.0354(5) 0.0782(3)
C22 C 1.1476(5) 0.0443(5) 0.1264(4)
H19 H 1.1277 0.1163 0.1184
C23 C 1.2167(5) 0.0163(5) 0.1863(4)
H20 H 1.2437 0.0702 0.2184
C24 C 1.2468(5) -0.0895(6) 0.1999(4)
C25 C 1.2047(6) -0.1688(5) 0.1518(4)
H21 H 1.2228 -0.2408 0.1611
C26 C 1.1370(5) -0.1439(5) 0.0909(4)
H22 H 1.1107 -0.1980 0.0586
C27 C 1.3264(6) -0.1177(7) 0.2641(4)
H23 H 1.3142 -0.1915 0.2793
H24 H 1.3126 -0.0706 0.3067
H25 H 1.4029 -0.1090 0.2471
Cl1 Cl 0.9664(3) 0.61324(17) 0.15420(16)
N1 N 0.7059(4) -0.0083(4) 0.2469(2)
N2 N 0.8916(4) -0.0080(4) 0.0269(2)
O1 O 0.7695(3) 0.1743(3) -0.0189(2)
O2 O 0.8561(4) -0.1035(4) 0.1987(2)
O3 O 1.0422(4) 0.1118(4) -0.0142(3)
O4 O 1.0378(4) -0.0788(4) -0.0580(2)
C28 C 0.8217(4) 0.1782(4) 0.0403(3)
S1 S 1.02180(12) 0.00025(13) 0.00045(8)
loop_
_geom_bond_atom_site_label_1
_geom_bond_atom_site_label_2
_geom_bond_site_symmetry_1
_geom_bond_site_symmetry_2
C1 C2 1_555 1_555
C2 H1 1_555 1_555
C3 C2 1_555 1_555
H2 C3 1_555 1_555
C4 C3 1_555 1_555
H3 C4 1_555 1_555
C5 C4 1_555 1_555
H4 C5 1_555 1_555
C6 C1 1_555 1_555
C7 C6 1_555 1_555
C8 C7 1_555 1_555
C9 H5 1_555 1_555
H6 C9 1_555 1_555
H7 C9 1_555 1_555
C10 C7 1_555 1_555
H8 C10 1_555 1_555
C11 C10 1_555 1_555
H9 C11 1_555 1_555
C12 C11 1_555 1_555
H10 C12 1_555 1_555
H11 C12 1_555 1_555
C13 C10 1_555 1_555
H12 C13 1_555 1_555
H13 C13 1_555 1_555
C14 C7 1_555 1_555
H14 C14 1_555 1_555
C15 C16 1_555 1_555
C16 H15 1_555 1_555
C17 C16 1_555 1_555
H16 C17 1_555 1_555
C18 C17 1_555 1_555
C19 C18 1_555 1_555
H17 C19 1_555 1_555
C20 C15 1_555 1_555
H18 C20 1_555 1_555
C21 C22 1_555 1_555
C22 H19 1_555 1_555
C23 C22 1_555 1_555
H20 C23 1_555 1_555
C24 C23 1_555 1_555
C25 C24 1_555 1_555
H21 C25 1_555 1_555
C26 C21 1_555 1_555
H22 C26 1_555 1_555
C27 C24 1_555 1_555
H23 C27 1_555 1_555
H24 C27 1_555 1_555
H25 C27 1_555 1_555
Cl1 C18 1_555 1_555
N1 C1 1_555 1_555
N2 C13 1_555 1_555
O1 C28 1_555 1_555
O2 C8 1_555 1_555
O3 S1 1_555 1_555
O4 S1 1_555 1_555
C28 C14 1_555 1_555
S1 C21 1_555 1_555
C5 C6 1_555 1_555
C8 N1 1_555 1_555
C9 N1 1_555 1_555
C14 N2 1_555 1_555
C15 C28 1_555 1_555
C19 C20 1_555 1_555
C25 C26 1_555 1_555
N2 S1 1_555 1_555

#END
