
#######################################################################
#
#                 Cambridge Crystallographic Data Centre
#                                CCDC 
#
#######################################################################
#
# If this CIF has been generated from an entry in the Cambridge 
# Structural Database, then it will include bibliographic, chemical, 
# crystal, experimental, refinement or atomic coordinate data resulting 
# from the CCDC's data processing and validation procedures.
#
#######################################################################

data_AMOSEC
_chemical_formula_moiety         'C16 H18 F1 N1 O4 S1'
_chemical_name_systematic        
'cis-t-butyl 1-cyano-2-fluoro-2-((phenylsulfonyl)methyl)cyclopropanecarboxylate'
_symmetry_cell_setting           orthorhombic
_symmetry_space_group_name_H-M   'P 21 21 21'
_symmetry_Int_Tables_number      19
_space_group_name_Hall           'P 2ac 2ab'
loop_
_symmetry_equiv_pos_site_id
_symmetry_equiv_pos_as_xyz
1 x,y,z
2 1/2-x,-y,1/2+z
3 1/2+x,1/2-y,-z
4 -x,1/2+y,1/2-z
_cell_length_a                   5.9735(6)
_cell_length_b                   11.9146(12)
_cell_length_c                   23.531(2)
_cell_angle_alpha                90
_cell_angle_beta                 90
_cell_angle_gamma                90
_cell_volume                     1674.75
_exptl_crystal_colour            colorless
_exptl_crystal_description       prism
_cell_formula_units_Z            4
loop_
_atom_site_label
_atom_site_type_symbol
_atom_site_fract_x
_atom_site_fract_y
_atom_site_fract_z
C1 C 0.3016(5) 0.1705(2) -0.04285(11)
H1 H 0.2005 0.2134 -0.0221
C2 C 0.3323(6) 0.1908(2) -0.09951(12)
H2 H 0.2507 0.247 -0.1174
C3 C 0.4829(7) 0.1284(3) -0.12982(12)
H3 H 0.504 0.1426 -0.1683
C4 C 0.6025(6) 0.0454(3) -0.10366(12)
H4 H 0.7055 0.0037 -0.1245
C5 C 0.5721(5) 0.0227(2) -0.04685(11)
H5 H 0.6518 -0.0344 -0.0291
C6 C 0.4207(4) 0.08677(17) -0.01685(9)
C7 C 0.1222(4) -0.02027(17) 0.05468(9)
H6 H -0.0015 0.03 0.0467
H7 H 0.1303 -0.0744 0.024
C8 C 0.0752(4) -0.08106(18) 0.10867(8)
C9 C -0.0729(4) -0.1778(2) 0.10954(10)
H8 H -0.1325 -0.2036 0.0735
H9 H -0.1747 -0.1851 0.1414
C10 C 0.1787(4) -0.19675(17) 0.12093(8)
C11 C 0.2385(4) -0.22660(18) 0.18144(8)
C12 C 0.3130(4) -0.24689(16) 0.07685(9)
C13 C 0.4984(4) -0.3456(2) 0.23570(9)
C14 C 0.3134(5) -0.4115(2) 0.26524(11)
H10 H 0.2492 -0.4641 0.239
H11 H 0.1997 -0.3606 0.2782
H12 H 0.3748 -0.4512 0.2971
C15 C 0.5923(5) -0.2537(2) 0.27223(10)
H13 H 0.6674 -0.286 0.3044
H14 H 0.4729 -0.2062 0.2852
H15 H 0.6969 -0.21 0.2505
C16 C 0.6794(5) -0.4226(2) 0.21390(12)
H16 H 0.7936 -0.379 0.1956
H17 H 0.6162 -0.4746 0.1871
H18 H 0.7436 -0.4633 0.2451
F1 F 0.0690(3) -0.00913(11) 0.15375(5)
N1 N 0.4167(4) -0.28540(17) 0.04130(8)
O1 O 0.3345(4) 0.16340(14) 0.08395(7)
O2 O 0.5507(3) -0.01195(14) 0.07674(7)
O3 O 0.1344(3) -0.19381(14) 0.22160(6)
O4 O 0.4118(3) -0.29600(12) 0.18173(6)
S1 S 0.37653(10) 0.05938(4) 0.05595(2)
loop_
_geom_bond_atom_site_label_1
_geom_bond_atom_site_label_2
_geom_bond_site_symmetry_1
_geom_bond_site_symmetry_2
C1 H1 1_555 1_555
C2 C1 1_555 1_555
H2 C2 1_555 1_555
C3 C2 1_555 1_555
H3 C3 1_555 1_555
C4 C3 1_555 1_555
H4 C4 1_555 1_555
C5 C4 1_555 1_555
H5 C5 1_555 1_555
C6 C1 1_555 1_555
C7 H6 1_555 1_555
H7 C7 1_555 1_555
C8 C7 1_555 1_555
C9 C8 1_555 1_555
H8 C9 1_555 1_555
H9 C9 1_555 1_555
C10 C8 1_555 1_555
C11 C10 1_555 1_555
C12 C10 1_555 1_555
C13 C14 1_555 1_555
C14 H10 1_555 1_555
H11 C14 1_555 1_555
H12 C14 1_555 1_555
C15 C13 1_555 1_555
H13 C15 1_555 1_555
H14 C15 1_555 1_555
H15 C15 1_555 1_555
C16 C13 1_555 1_555
H16 C16 1_555 1_555
H17 C16 1_555 1_555
H18 C16 1_555 1_555
F1 C8 1_555 1_555
N1 C12 1_555 1_555
O1 S1 1_555 1_555
O2 S1 1_555 1_555
O3 C11 1_555 1_555
O4 C11 1_555 1_555
S1 C6 1_555 1_555
C5 C6 1_555 1_555
C7 S1 1_555 1_555
C9 C10 1_555 1_555
C13 O4 1_555 1_555

#END
