
#######################################################################
#
#                 Cambridge Crystallographic Data Centre
#                                CCDC 
#
#######################################################################
#
# If this CIF has been generated from an entry in the Cambridge 
# Structural Database, then it will include bibliographic, chemical, 
# crystal, experimental, refinement or atomic coordinate data resulting 
# from the CCDC's data processing and validation procedures.
#
#######################################################################

data_AMOTED
_chemical_formula_moiety         'C19 H27 N1 O3'
_chemical_name_systematic        
'(1R,3S,4S)-Isopropyl 5,5,7,7-tetramethyl-2,6-dioxabicyclo[2.2.2]octane-3-carboxylate unknown solvate'
_symmetry_cell_setting           hexagonal
_symmetry_space_group_name_H-M   'P 65'
_symmetry_Int_Tables_number      170
_space_group_name_Hall           'P 65'
loop_
_symmetry_equiv_pos_site_id
_symmetry_equiv_pos_as_xyz
1 x,y,z
2 -y,x-y,2/3+z
3 -x+y,-x,1/3+z
4 -x,-y,1/2+z
5 y,-x+y,1/6+z
6 x-y,x,5/6+z
_cell_length_a                   18.1996(5)
_cell_length_b                   18.1996(5)
_cell_length_c                   10.4456(4)
_cell_angle_alpha                90
_cell_angle_beta                 90
_cell_angle_gamma                120
_cell_volume                     2996.32
_exptl_crystal_colour            colorless
_exptl_crystal_description       needle
_cell_formula_units_Z            6
loop_
_atom_site_label
_atom_site_type_symbol
_atom_site_fract_x
_atom_site_fract_y
_atom_site_fract_z
O1 O 0.62171(15) 0.12832(13) 0.1202(2)
O2 O 0.75906(18) 0.24099(15) 0.0900(2)
O3 O 0.52375(18) 0.00664(16) -0.1630(2)
N1 N 0.4934(2) -0.02223(16) 0.0481(3)
C1 C 0.7091(2) 0.1622(2) 0.1502(3)
H1 H 0.7157 0.1714 0.2429
C2 C 0.7388(3) 0.0994(3) 0.1150(4)
C3 C 0.7232(3) 0.0858(3) -0.0305(4)
H2 H 0.7757 0.0992 -0.0735
H3 H 0.6820 0.0269 -0.0476
C4 C 0.6902(2) 0.14295(19) -0.0823(3)
H4 H 0.6815 0.1358 -0.1750
C5 C 0.6069(2) 0.11704(18) -0.0146(3)
H5 H 0.5878 0.1562 -0.0424
C6 C 0.7514(2) 0.2370(2) -0.0490(3)
C7 C 0.6873(4) 0.0169(3) 0.1901(5)
H6 H 0.6909 0.0293 0.2799
H7 H 0.7097 -0.0201 0.1740
H8 H 0.6291 -0.0104 0.1633
C8 C 0.8330(4) 0.1385(5) 0.1527(7)
H9 H 0.8397 0.1531 0.2419
H10 H 0.8667 0.1885 0.1025
H11 H 0.8512 0.0980 0.1370
C9 C 0.8395(3) 0.2709(3) -0.1065(5)
H12 H 0.8782 0.3244 -0.0678
H13 H 0.8372 0.2783 -0.1971
H14 H 0.8587 0.2312 -0.0907
C10 C 0.7181(3) 0.2955(2) -0.0876(5)
H15 H 0.6689 0.2826 -0.0373
H16 H 0.7031 0.2874 -0.1766
H17 H 0.7612 0.3534 -0.0732
C11 C 0.5372(2) 0.02765(18) -0.0497(3)
C12 C 0.4270(2) -0.11075(19) 0.0307(3)
H18 H 0.4327 -0.1278 -0.0560
C13 C 0.3390(2) -0.1228(2) 0.0429(3)
C14 C 0.2694(3) -0.2030(3) 0.0183(4)
H19 H 0.2785 -0.2470 -0.0059
C15 C 0.1876(3) -0.2181(4) 0.0291(6)
H20 H 0.1423 -0.2720 0.0121
C16 C 0.1726(3) -0.1555(5) 0.0643(7)
H21 H 0.1172 -0.1664 0.0724
C17 C 0.2406(4) -0.0740(4) 0.0885(7)
H22 H 0.2307 -0.0304 0.1115
C18 C 0.3241(3) -0.0590(3) 0.0776(5)
H23 H 0.3696 -0.0052 0.0941
C19 C 0.4424(3) -0.1653(2) 0.1239(5)
H24 H 0.4977 -0.1581 0.1093
H25 H 0.4002 -0.2238 0.1115
H26 H 0.4390 -0.1488 0.2099
H27 H 0.509(3) -0.003(3) 0.133(6)
loop_
_geom_bond_atom_site_label_1
_geom_bond_atom_site_label_2
_geom_bond_site_symmetry_1
_geom_bond_site_symmetry_2
O1 C1 1_555 1_555
O2 C1 1_555 1_555
O3 C11 1_555 1_555
N1 C11 1_555 1_555
C1 H1 1_555 1_555
C2 C1 1_555 1_555
C3 C2 1_555 1_555
H2 C3 1_555 1_555
H3 C3 1_555 1_555
C4 C3 1_555 1_555
H4 C4 1_555 1_555
C5 O1 1_555 1_555
H5 C5 1_555 1_555
C6 O2 1_555 1_555
C7 C2 1_555 1_555
H6 C7 1_555 1_555
H7 C7 1_555 1_555
H8 C7 1_555 1_555
C8 C2 1_555 1_555
H9 C8 1_555 1_555
H10 C8 1_555 1_555
H11 C8 1_555 1_555
C9 C6 1_555 1_555
H12 C9 1_555 1_555
H13 C9 1_555 1_555
H14 C9 1_555 1_555
C10 C6 1_555 1_555
H15 C10 1_555 1_555
H16 C10 1_555 1_555
H17 C10 1_555 1_555
C11 C5 1_555 1_555
C12 N1 1_555 1_555
H18 C12 1_555 1_555
C13 C12 1_555 1_555
C14 C13 1_555 1_555
H19 C14 1_555 1_555
C15 C14 1_555 1_555
H20 C15 1_555 1_555
C16 C15 1_555 1_555
H21 C16 1_555 1_555
C17 C16 1_555 1_555
H22 C17 1_555 1_555
C18 C13 1_555 1_555
H23 C18 1_555 1_555
C19 C12 1_555 1_555
H24 C19 1_555 1_555
H25 C19 1_555 1_555
H26 C19 1_555 1_555
H27 N1 1_555 1_555
C4 C5 1_555 1_555
C4 C6 1_555 1_555
C17 C18 1_555 1_555

#END
