
#######################################################################
#
#                 Cambridge Crystallographic Data Centre
#                                CCDC 
#
#######################################################################
#
# If this CIF has been generated from an entry in the Cambridge 
# Structural Database, then it will include bibliographic, chemical, 
# crystal, experimental, refinement or atomic coordinate data resulting 
# from the CCDC's data processing and validation procedures.
#
#######################################################################

data_AMOWIK
_chemical_formula_moiety         'C21 H15 Br1 O1'
_chemical_name_systematic        9-bromo-10-(4-methoxyphenyl)phenanthrene
_symmetry_cell_setting           triclinic
_symmetry_space_group_name_H-M   'P -1'
_symmetry_Int_Tables_number      2
_space_group_name_Hall           '-P 1'
loop_
_symmetry_equiv_pos_site_id
_symmetry_equiv_pos_as_xyz
1 x,y,z
2 -x,-y,-z
_cell_length_a                   9.2828(11)
_cell_length_b                   9.4782(12)
_cell_length_c                   10.3493(12)
_cell_angle_alpha                113.833(2)
_cell_angle_beta                 108.559(2)
_cell_angle_gamma                91.384(2)
_cell_volume                     777.264
_exptl_crystal_colour            colorless
_exptl_crystal_description       block
_cell_formula_units_Z            2
loop_
_atom_site_label
_atom_site_type_symbol
_atom_site_fract_x
_atom_site_fract_y
_atom_site_fract_z
Br1 Br 0.54746(3) 0.31046(3) 0.34581(3)
O1 O 0.3458(2) -0.38330(19) 0.18898(19)
C1 C 0.7593(2) 0.1165(3) 0.2617(2)
C2 C 0.7299(3) 0.2656(3) 0.3021(2)
C3 C 0.8299(3) 0.3927(3) 0.3146(3)
C4 C 0.7953(3) 0.5457(3) 0.3540(3)
H1 H 0.7040 0.5665 0.3714
C5 C 0.8959(3) 0.6642(3) 0.3668(3)
H2 H 0.8721 0.7644 0.3928
C6 C 1.0321(3) 0.6351(3) 0.3413(3)
H3 H 1.0996 0.7160 0.3511
C7 C 1.0683(3) 0.4872(3) 0.3016(3)
H4 H 1.1602 0.4695 0.2847
C8 C 0.9684(3) 0.3616(3) 0.2859(3)
C9 C 1.0044(3) 0.2047(3) 0.2442(3)
C10 C 1.1402(3) 0.1679(3) 0.2145(3)
H5 H 1.2073 0.2453 0.2185
C11 C 1.1756(3) 0.0201(3) 0.1797(3)
H6 H 1.2667 -0.0011 0.1621
C12 C 1.0754(3) -0.0978(3) 0.1708(3)
H7 H 1.0999 -0.1975 0.1477
C13 C 0.9420(3) -0.0678(3) 0.1957(3)
H8 H 0.8755 -0.1481 0.1882
C14 C 0.9013(3) 0.0843(3) 0.2333(2)
C15 C 0.6499(3) -0.0157(3) 0.2421(3)
C16 C 0.5602(3) -0.1260(3) 0.0980(3)
H9 H 0.5686 -0.1163 0.0146
C17 C 0.4574(3) -0.2516(3) 0.0749(3)
H10 H 0.3979 -0.3244 -0.0228
C18 C 0.4450(3) -0.2664(3) 0.1990(3)
C19 C 0.5352(3) -0.1577(3) 0.3441(3)
H11 H 0.5277 -0.1679 0.4275
C20 C 0.6363(3) -0.0341(3) 0.3647(3)
H12 H 0.6963 0.0380 0.4624
C21 C 0.2534(3) -0.4971(3) 0.0400(3)
H13 H 0.1893 -0.4460 -0.0140
H14 H 0.1896 -0.5731 0.0468
H15 H 0.3194 -0.5485 -0.0127
loop_
_geom_bond_atom_site_label_1
_geom_bond_atom_site_label_2
_geom_bond_site_symmetry_1
_geom_bond_site_symmetry_2
Br1 C2 1_555 1_555
O1 C18 1_555 1_555
C1 C2 1_555 1_555
C2 C3 1_555 1_555
C3 C4 1_555 1_555
C4 H1 1_555 1_555
C5 C4 1_555 1_555
H2 C5 1_555 1_555
C6 C5 1_555 1_555
H3 C6 1_555 1_555
C7 C6 1_555 1_555
H4 C7 1_555 1_555
C8 C3 1_555 1_555
C9 C8 1_555 1_555
C10 C9 1_555 1_555
H5 C10 1_555 1_555
C11 C10 1_555 1_555
H6 C11 1_555 1_555
C12 C11 1_555 1_555
H7 C12 1_555 1_555
C13 C12 1_555 1_555
H8 C13 1_555 1_555
C14 C1 1_555 1_555
C15 C1 1_555 1_555
C16 C15 1_555 1_555
H9 C16 1_555 1_555
C17 C16 1_555 1_555
H10 C17 1_555 1_555
C18 C17 1_555 1_555
C19 C18 1_555 1_555
H11 C19 1_555 1_555
C20 C15 1_555 1_555
H12 C20 1_555 1_555
C21 O1 1_555 1_555
H13 C21 1_555 1_555
H14 C21 1_555 1_555
H15 C21 1_555 1_555
C7 C8 1_555 1_555
C9 C14 1_555 1_555
C13 C14 1_555 1_555
C19 C20 1_555 1_555

#END
