
#######################################################################
#
#                 Cambridge Crystallographic Data Centre
#                                CCDC 
#
#######################################################################
#
# If this CIF has been generated from an entry in the Cambridge 
# Structural Database, then it will include bibliographic, chemical, 
# crystal, experimental, refinement or atomic coordinate data resulting 
# from the CCDC's data processing and validation procedures.
#
#######################################################################

data_AMOXPH10
_chemical_formula_moiety         'C2 O4 2-,2(H4 N1 1+),H2 O2'
_chemical_name_systematic        'Ammonium oxalate monoperhydrate'
_symmetry_cell_setting           orthorhombic
_symmetry_space_group_name_H-M   'P 21 21 2'
_symmetry_Int_Tables_number      18
_space_group_name_Hall           'P 2 2ab'
loop_
_symmetry_equiv_pos_site_id
_symmetry_equiv_pos_as_xyz
1 x,y,z
2 1/2+x,1/2-y,-z
3 1/2-x,1/2+y,-z
4 -x,-y,z
_cell_length_a                   8.531(1)
_cell_length_b                   10.476(1)
_cell_length_c                   3.8228(8)
_cell_angle_alpha                90
_cell_angle_beta                 90
_cell_angle_gamma                90
_cell_volume                     341.647
_cell_formula_units_Z            2
loop_
_atom_site_label
_atom_site_type_symbol
_atom_site_fract_x
_atom_site_fract_y
_atom_site_fract_z
C1 C 0.08616 0.02533 0.08290
O1 O 0.19046 -0.05388 0.15450
O2 O 0.10637 0.14068 0.01280
C1C C -0.08616 -0.02533 0.08290
O1C O -0.19046 0.05388 0.15450
O2C O -0.10637 -0.14068 0.01280
H1 H 0.43810 0.27220 0.23500
H2 H 0.33130 0.29710 0.52800
H3 H 0.42320 0.16540 0.51500
H4 H 0.27510 0.20690 0.30800
N1 N 0.37112 0.23519 0.39880
H5 H 0.11420 0.44850 0.02900
O3 O 0.03082 0.43540 0.13500
O3C O -0.03082 0.56460 0.13500
H5C H -0.11420 0.55150 0.02900
loop_
_geom_bond_atom_site_label_1
_geom_bond_atom_site_label_2
_geom_bond_site_symmetry_1
_geom_bond_site_symmetry_2
C1 O1 1_555 1_555
H1 N1 1_555 1_555
H2 N1 1_555 1_555
H3 N1 1_555 1_555
H4 N1 1_555 1_555
H5 O3 1_555 1_555
O2 C1 1_555 1_555
O3 O3C 1_555 1_555
C1C C1 1_555 1_555
O1C C1C 1_555 1_555
O2C C1C 1_555 1_555
O3C H5C 1_555 1_555

#END
