
#######################################################################
#
#                 Cambridge Crystallographic Data Centre
#                                CCDC 
#
#######################################################################
#
# If this CIF has been generated from an entry in the Cambridge 
# Structural Database, then it will include bibliographic, chemical, 
# crystal, experimental, refinement or atomic coordinate data resulting 
# from the CCDC's data processing and validation procedures.
#
#######################################################################

data_AMOXAL09
_chemical_formula_moiety         'C2 O4 2-,2(H4 N1 1+),H2 O1'
_chemical_name_systematic        'bis(ammonium) oxalate monohydrate'
_symmetry_cell_setting           orthorhombic
_symmetry_space_group_name_H-M   'P 21 21 2'
_symmetry_Int_Tables_number      18
_space_group_name_Hall           'P 2 2ab'
loop_
_symmetry_equiv_pos_site_id
_symmetry_equiv_pos_as_xyz
1 x,y,z
2 -x,-y,z
3 1/2-x,1/2+y,-z
4 1/2+x,1/2-y,-z
_cell_length_a                   8.0477(3)
_cell_length_b                   10.3347(3)
_cell_length_c                   3.7591(2)
_cell_angle_alpha                90
_cell_angle_beta                 90
_cell_angle_gamma                90
_cell_volume                     312.646
_exptl_crystal_colour            colorless
_exptl_crystal_description       block
_cell_formula_units_Z            2
loop_
_atom_site_label
_atom_site_type_symbol
_atom_site_fract_x
_atom_site_fract_y
_atom_site_fract_z
O1 O 0.88050(11) -0.14079(9) 0.5017(3)
O2 O 0.79801(11) 0.05997(8) 0.6392(3)
C1 C 0.90678(16) -0.02304(12) 0.5692(3)
O1A O 1.11950(11) 0.14079(9) 0.5017(3)
O2A O 1.20199(11) -0.05997(8) 0.6392(3)
C1A C 1.09322(16) 0.02304(12) 0.5692(3)
N1 N 0.38868(15) 0.22556(11) -0.0732(4)
H1 H 0.432(2) 0.160(2) 0.038(5)
H2 H 0.304(2) 0.2031(17) -0.203(5)
H3 H 0.3573(18) 0.2841(17) 0.081(5)
H4 H 0.465(2) 0.2628(17) -0.213(5)
O3 O 0.5000 0.0000 0.3150(4)
H5 H 0.581(3) 0.016(2) 0.453(6)
H5A H 0.419(3) -0.016(2) 0.453(6)
loop_
_geom_bond_atom_site_label_1
_geom_bond_atom_site_label_2
_geom_bond_site_symmetry_1
_geom_bond_site_symmetry_2
O1 C1 1_555 1_555
O2 C1 1_555 1_555
C1 C1A 1_555 1_555
N1 H1 1_555 1_555
H2 N1 1_555 1_555
H3 N1 1_555 1_555
H4 N1 1_555 1_555
O3 H5 1_555 1_555
O1A C1A 1_555 1_555
O2A C1A 1_555 1_555
H5A O3 1_555 1_555

#END
