
#######################################################################
#
#                 Cambridge Crystallographic Data Centre
#                                CCDC 
#
#######################################################################
#
# If this CIF has been generated from an entry in the Cambridge 
# Structural Database, then it will include bibliographic, chemical, 
# crystal, experimental, refinement or atomic coordinate data resulting 
# from the CCDC's data processing and validation procedures.
#
#######################################################################

data_AMPHOM03
_chemical_formula_moiety         'C6 H7 N1 O1'
_chemical_name_systematic        2-Aminophenol
_symmetry_cell_setting           orthorhombic
_symmetry_space_group_name_H-M   'P b c a'
_symmetry_Int_Tables_number      61
_space_group_name_Hall           '-P 2ac 2ab'
loop_
_symmetry_equiv_pos_site_id
_symmetry_equiv_pos_as_xyz
1 x,y,z
2 1/2-x,-y,1/2+z
3 1/2+x,1/2-y,-z
4 -x,1/2+y,1/2-z
5 -x,-y,-z
6 1/2+x,y,1/2-z
7 1/2-x,1/2+y,z
8 x,1/2-y,1/2+z
_cell_length_a                   19.655(2)
_cell_length_b                   7.157(2)
_cell_length_c                   7.770(2)
_cell_angle_alpha                90
_cell_angle_beta                 90
_cell_angle_gamma                90
_cell_volume                     1093.01
_cell_formula_units_Z            8
loop_
_atom_site_label
_atom_site_type_symbol
_atom_site_fract_x
_atom_site_fract_y
_atom_site_fract_z
C1 C 0.1098(1) 0.9212(2) 0.7906(1)
C2 C 0.0679(1) 1.0523(2) 0.7064(1)
C3 C 0.0940(1) 1.1567(2) 0.5710(2)
C4 C 0.1613(1) 1.1319(2) 0.5164(2)
C5 C 0.2032(1) 1.0030(2) 0.6000(2)
C6 C 0.1771(1) 0.8982(2) 0.7368(2)
O1 O 0.0024(1) 1.0673(2) 0.7636(2)
N1 N 0.0803(1) 0.8077(1) 0.9193(1)
H1 H 0.2083(2) 0.7941(6) 0.8004(5)
H2 H 0.0497(2) 0.8791(6) 1.0025(4)
H3 H -0.0250(2) 1.1530(5) 0.6892(4)
H4 H 0.1159(2) 0.7352(6) 0.9880(4)
H5 H 0.0612(2) 1.2539(6) 0.5057(5)
H6 H 0.2556(2) 0.9801(7) 0.5597(5)
H7 H 0.1807(2) 1.2124(6) 0.4097(5)
loop_
_geom_bond_atom_site_label_1
_geom_bond_atom_site_label_2
_geom_bond_site_symmetry_1
_geom_bond_site_symmetry_2
C1 C2 1_555 1_555
C2 C3 1_555 1_555
C3 C4 1_555 1_555
C4 C5 1_555 1_555
C5 C6 1_555 1_555
C6 C1 1_555 1_555
O1 C2 1_555 1_555
N1 C1 1_555 1_555
H1 C6 1_555 1_555
H2 N1 1_555 1_555
H3 O1 1_555 1_555
H4 N1 1_555 1_555
H5 C3 1_555 1_555
H6 C5 1_555 1_555
H7 C4 1_555 1_555

#END
