
#######################################################################
#
#                 Cambridge Crystallographic Data Centre
#                                CCDC 
#
#######################################################################
#
# If this CIF has been generated from an entry in the Cambridge 
# Structural Database, then it will include bibliographic, chemical, 
# crystal, experimental, refinement or atomic coordinate data resulting 
# from the CCDC's data processing and validation procedures.
#
#######################################################################

data_AMPICC01
_chemical_name_common            'Sodium picrate benzo-15-crown-5'
_chemical_formula_moiety         'C20 H22 N3 Na1 O12'
_chemical_name_systematic        
(6,7,9,10,12,13,15,16-Octahydro-5,8,11,14,17-pentaoxabenzocyclopentadecene)-2,4,6-trinitrophenolato-sodium
_symmetry_cell_setting           monoclinic
_symmetry_space_group_name_H-M   'P 21/n'
_symmetry_Int_Tables_number      14
_space_group_name_Hall           '-P 2yn'
loop_
_symmetry_equiv_pos_site_id
_symmetry_equiv_pos_as_xyz
1 x,y,z
2 1/2-x,1/2+y,1/2-z
3 -x,-y,-z
4 1/2+x,1/2-y,1/2+z
_cell_length_a                   11.125(3)
_cell_length_b                   13.555(4)
_cell_length_c                   14.924(5)
_cell_angle_alpha                90
_cell_angle_beta                 93.40(2)
_cell_angle_gamma                90
_cell_volume                     2246.57
_chemical_melting_point          426K
_cell_formula_units_Z            4
loop_
_atom_site_label
_atom_site_type_symbol
_atom_site_fract_x
_atom_site_fract_y
_atom_site_fract_z
Na1 Na 0.80480 0.90860 0.21883
O1 O 1.00680 0.90950 0.28460
C1 C 1.10620 0.90150 0.23500
C2 C 1.08510 0.90400 0.14140
O2 O 0.96640 0.91280 0.10930
C3 C 0.93700 0.86420 0.02500
C4 C 0.80370 0.85260 0.01330
O3 O 0.76320 0.80210 0.08870
C5 C 0.63540 0.78760 0.08290
C6 C 0.60150 0.73660 0.16560
O4 O 0.63160 0.80090 0.24010
C7 C 0.63220 0.74990 0.32380
C8 C 0.70510 0.80950 0.39070
O5 O 0.82390 0.81590 0.36060
C9 C 0.89990 0.87880 0.41390
C10 C 1.02180 0.87810 0.37650
C11 C 1.22240 0.89100 0.27140
C12 C 1.31750 0.88250 0.21520
C13 C 1.29600 0.88670 0.12420
C14 C 1.18040 0.89750 0.08790
C15 C 0.61620 1.06740 0.29930
C16 C 0.55200 1.09150 0.37830
C17 C 0.43080 1.11270 0.37610
C18 C 0.36650 1.11990 0.29470
C19 C 0.42180 1.10910 0.21540
C20 C 0.54120 1.08490 0.21770
O6 O 0.72100 1.03680 0.30080
N1 N 0.61320 1.09060 0.46790
O7 O 0.71780 1.06670 0.47660
O8 O 0.55800 1.11740 0.53140
N2 N 0.23720 1.13380 0.29290
O9 O 0.18870 1.13390 0.36460
O10 O 0.18190 1.14500 0.22010
N3 N 0.59260 1.07500 0.13050
O11 O 0.53800 1.11180 0.06630
O12 O 0.68930 1.03320 0.12380
H1 H 0.97700 0.80100 0.02800
H2 H 0.96500 0.90400 -0.02100
H3 H 0.78300 0.81400 -0.03900
H4 H 0.75900 0.92000 0.00400
H5 H 0.62100 0.75100 0.02800
H6 H 0.58400 0.86100 0.07200
H7 H 0.64900 0.66700 0.17300
H8 H 0.51200 0.72200 0.15600
H9 H 0.67200 0.68100 0.31600
H10 H 0.55100 0.74700 0.34100
H11 H 0.71100 0.78000 0.45200
H12 H 0.67600 0.87900 0.40000
H13 H 0.90200 0.85600 0.47300
H14 H 0.86900 0.94500 0.41600
H15 H 1.07300 0.92600 0.41000
H16 H 1.06000 0.81600 0.38000
H17 H 1.23600 0.88800 0.33500
H18 H 1.39400 0.88000 0.24200
H19 H 1.36400 0.88100 0.08400
H20 H 1.16800 0.90200 0.02900
H21 H 0.39600 1.12200 0.42500
H22 H 0.37500 1.10800 0.16200
loop_
_geom_bond_atom_site_label_1
_geom_bond_atom_site_label_2
_geom_bond_site_symmetry_1
_geom_bond_site_symmetry_2
Na1 O1 1_555 1_555
O1 C1 1_555 1_555
C1 C2 1_555 1_555
C2 O2 1_555 1_555
O2 Na1 1_555 1_555
C3 O2 1_555 1_555
C4 C3 1_555 1_555
O3 Na1 1_555 1_555
C5 O3 1_555 1_555
C6 C5 1_555 1_555
O4 Na1 1_555 1_555
C7 O4 1_555 1_555
C8 C7 1_555 1_555
O5 Na1 1_555 1_555
C9 O5 1_555 1_555
C10 O1 1_555 1_555
C11 C1 1_555 1_555
C12 C11 1_555 1_555
C13 C12 1_555 1_555
C14 C2 1_555 1_555
C15 C16 1_555 1_555
C16 C17 1_555 1_555
C17 C18 1_555 1_555
C18 C19 1_555 1_555
C19 C20 1_555 1_555
C20 C15 1_555 1_555
O6 Na1 1_555 1_555
N1 C16 1_555 1_555
O7 N1 1_555 1_555
O8 N1 1_555 1_555
N2 C18 1_555 1_555
O9 N2 1_555 1_555
O10 N2 1_555 1_555
N3 C20 1_555 1_555
O11 N3 1_555 1_555
O12 Na1 1_555 1_555
H1 C3 1_555 1_555
H2 C3 1_555 1_555
H3 C4 1_555 1_555
H4 C4 1_555 1_555
H5 C5 1_555 1_555
H6 C5 1_555 1_555
H7 C6 1_555 1_555
H8 C6 1_555 1_555
H9 C7 1_555 1_555
H10 C7 1_555 1_555
H11 C8 1_555 1_555
H12 C8 1_555 1_555
H13 C9 1_555 1_555
H14 C9 1_555 1_555
H15 C10 1_555 1_555
H16 C10 1_555 1_555
H17 C11 1_555 1_555
H18 C12 1_555 1_555
H19 C13 1_555 1_555
H20 C14 1_555 1_555
H21 C17 1_555 1_555
H22 C19 1_555 1_555
C4 O3 1_555 1_555
C6 O4 1_555 1_555
C8 O5 1_555 1_555
C9 C10 1_555 1_555
C13 C14 1_555 1_555
C15 O6 1_555 1_555
N3 O12 1_555 1_555

#END
