
#######################################################################
#
#                 Cambridge Crystallographic Data Centre
#                                CCDC 
#
#######################################################################
#
# If this CIF has been generated from an entry in the Cambridge 
# Structural Database, then it will include bibliographic, chemical, 
# crystal, experimental, refinement or atomic coordinate data resulting 
# from the CCDC's data processing and validation procedures.
#
#######################################################################

data_AMUDIX
_chemical_compound_source        'Fomes officinalis'
_chemical_formula_moiety         'C34 H50 O9'
_chemical_name_systematic        
"3-((1'-(1-(3,4-dimethyl-5-oxo-2,5-dihydrofuran-2-yl)propan-2-yl)-2,7'-dihydroxy-3a',4,4,7a,7a'-pentamethyl-4'-oxohexadecahydro-1,5'-spirobi[inden]-5-yl)oxy)-3-oxopropanoic acid"
_symmetry_cell_setting           monoclinic
_symmetry_space_group_name_H-M   'P 21'
_symmetry_Int_Tables_number      4
_space_group_name_Hall           'P 2yb'
loop_
_symmetry_equiv_pos_site_id
_symmetry_equiv_pos_as_xyz
1 x,y,z
2 -x,1/2+y,-z
_cell_length_a                   11.42480(10)
_cell_length_b                   10.92840(10)
_cell_length_c                   12.98850(10)
_cell_angle_alpha                90
_cell_angle_beta                 94.2540(10)
_cell_angle_gamma                90
_cell_volume                     1617.21
_exptl_crystal_colour            colorless
_exptl_crystal_description       prismatic
_cell_formula_units_Z            2
loop_
_atom_site_label
_atom_site_type_symbol
_atom_site_fract_x
_atom_site_fract_y
_atom_site_fract_z
O1 O 0.2389(2) 1.2750(2) 0.16550(16)
O2 O 0.33038(15) 0.88820(16) -0.08086(13)
H1 H 0.3874 0.8724 -0.1133
O3 O 0.50303(19) 1.27877(19) 0.20354(17)
H2 H 0.4363 1.3069 0.1994
O4 O 0.36930(18) 0.73732(16) 0.30508(13)
O5 O 0.2469(2) 0.6016(2) 0.36927(17)
O6 O 0.3011(3) 0.5828(3) 0.02410(19)
H3 H 0.2558 0.6079 -0.0232
O7 O 0.1917(3) 0.7028(4) 0.1127(2)
O8 O 0.0638(2) 0.7996(2) -0.16248(14)
O9 O 0.1821(3) 0.6363(3) -0.1572(2)
C1 C 0.2365(2) 0.9682(2) 0.27521(19)
H4 H 0.2318 0.9127 0.2167
H5 H 0.1651 1.0164 0.2721
C2 C 0.3078(3) 0.6349(3) 0.3025(2)
C3 C 0.2465(3) 0.8934(3) 0.3764(2)
H6 H 0.2408 0.9487 0.4342
H7 H 0.1812 0.8367 0.3760
C4 C 0.3266(3) 0.5657(3) 0.2055(2)
H8 H 0.4102 0.5588 0.1982
H9 H 0.2954 0.4836 0.2113
C5 C 0.3601(3) 0.8225(2) 0.39139(18)
H10 H 0.3609 0.7761 0.4560
C6 C 0.2697(3) 0.6250(3) 0.1110(2)
C7 C 0.4704(2) 0.9033(3) 0.39337(19)
C8 C 0.4573(2) 0.9811(2) 0.29403(17)
H11 H 0.4584 0.9208 0.2383
C9 C 0.5516(2) 1.0733(3) 0.2692(2)
H12 H 0.6212 1.0312 0.2494
H13 H 0.5731 1.1239 0.3290
C10 C 0.4986(2) 1.1525(2) 0.1792(2)
H14 H 0.5426 1.1381 0.1184
C11 C 0.28633(19) 1.2033(2) 0.11174(18)
C12 C 0.36915(17) 1.10237(19) 0.15694(16)
C13 C 0.34209(19) 1.0531(2) 0.26839(16)
C14 C 0.37762(19) 0.99101(19) 0.08096(17)
H15 H 0.4578 0.9614 0.0883
H16 H 0.3284 0.9263 0.1051
C15 C 0.34471(18) 1.00775(19) -0.03492(16)
H17 H 0.4110 1.0476 -0.0651
C16 C 0.23857(17) 1.0895(2) -0.05412(16)
C17 C 0.2702(2) 1.2169(2) -0.00497(18)
C18 C 0.1661(3) 1.2958(3) -0.0463(2)
H18 H 0.1874 1.3817 -0.0464
H19 H 0.0996 1.2850 -0.0048
C19 C 0.1372(3) 1.2489(3) -0.1573(2)
H20 H 0.1605 1.3087 -0.2071
H21 H 0.0536 1.2340 -0.1696
C20 C 0.2073(2) 1.1274(2) -0.16769(17)
H22 H 0.2819 1.1518 -0.1942
C21 C 0.13333(19) 1.0356(2) -0.00130(18)
H23 H 0.1136 0.9569 -0.0306
H24 H 0.0672 1.0895 -0.0118
H25 H 0.1538 1.0268 0.0714
C22 C 0.3284(3) 1.1604(3) 0.3446(2)
H26 H 0.3122 1.1284 0.4109
H27 H 0.2649 1.2121 0.3190
H28 H 0.3998 1.2071 0.3511
C23 C 0.1540(2) 1.0327(3) -0.24577(19)
H29 H 0.1983 0.9565 -0.2348
C24 C 0.1726(4) 1.0774(5) -0.3555(2)
H30 H 0.1398 1.0190 -0.4048
H31 H 0.2551 1.0861 -0.3633
H32 H 0.1345 1.1550 -0.3670
C25 C 0.0240(2) 1.0026(3) -0.2360(2)
H33 H 0.0014 1.0350 -0.1708
H34 H -0.0223 1.0448 -0.2907
C26 C -0.0071(2) 0.8686(3) -0.2410(2)
H35 H -0.0898 0.8601 -0.2270
C27 C 0.0124(2) 0.7993(3) -0.3378(2)
C28 C 0.0834(3) 0.7047(3) -0.3167(2)
C29 C 0.1163(3) 0.7056(3) -0.2064(3)
C30 C 0.1262(5) 0.6066(6) -0.3866(4)
H36 H 0.0954 0.6215 -0.4562
H37 H 0.1001 0.5280 -0.3645
H38 H 0.2104 0.6078 -0.3835
C31 C 0.4832(4) 0.9729(3) 0.4974(2)
H39 H 0.4906 0.9152 0.5532
H40 H 0.4151 1.0229 0.5040
H41 H 0.5518 1.0238 0.4995
C32 C 0.5806(3) 0.8239(3) 0.3880(2)
H42 H 0.5911 0.7744 0.4491
H43 H 0.6479 0.8756 0.3832
H44 H 0.5717 0.7719 0.3283
C33 C 0.3839(2) 1.2761(2) -0.0389(2)
H45 H 0.3956 1.3539 -0.0053
H46 H 0.3773 1.2876 -0.1124
H47 H 0.4494 1.2236 -0.0201
C34 C -0.0497(4) 0.8365(4) -0.4392(3)
H48 H -0.0273 0.7826 -0.4926
H49 H -0.0285 0.9190 -0.4552
H50 H -0.1330 0.8317 -0.4343
loop_
_geom_bond_atom_site_label_1
_geom_bond_atom_site_label_2
_geom_bond_site_symmetry_1
_geom_bond_site_symmetry_2
O1 C11 1_555 1_555
O2 H1 1_555 1_555
O3 H2 1_555 1_555
O4 C2 1_555 1_555
O5 C2 1_555 1_555
O6 H3 1_555 1_555
O7 C6 1_555 1_555
O8 C26 1_555 1_555
O9 C29 1_555 1_555
C1 H4 1_555 1_555
H5 C1 1_555 1_555
C2 C4 1_555 1_555
C3 C1 1_555 1_555
H6 C3 1_555 1_555
H7 C3 1_555 1_555
C4 H8 1_555 1_555
H9 C4 1_555 1_555
C5 O4 1_555 1_555
H10 C5 1_555 1_555
C6 O6 1_555 1_555
C7 C5 1_555 1_555
C8 C7 1_555 1_555
H11 C8 1_555 1_555
C9 C8 1_555 1_555
H12 C9 1_555 1_555
H13 C9 1_555 1_555
C10 O3 1_555 1_555
H14 C10 1_555 1_555
C11 C12 1_555 1_555
C12 C10 1_555 1_555
C13 C1 1_555 1_555
C14 C12 1_555 1_555
H15 C14 1_555 1_555
H16 C14 1_555 1_555
C15 O2 1_555 1_555
H17 C15 1_555 1_555
C16 C15 1_555 1_555
C17 C11 1_555 1_555
C18 C17 1_555 1_555
H18 C18 1_555 1_555
H19 C18 1_555 1_555
C19 C18 1_555 1_555
H20 C19 1_555 1_555
H21 C19 1_555 1_555
C20 C16 1_555 1_555
H22 C20 1_555 1_555
C21 C16 1_555 1_555
H23 C21 1_555 1_555
H24 C21 1_555 1_555
H25 C21 1_555 1_555
C22 C13 1_555 1_555
H26 C22 1_555 1_555
H27 C22 1_555 1_555
H28 C22 1_555 1_555
C23 C20 1_555 1_555
H29 C23 1_555 1_555
C24 C23 1_555 1_555
H30 C24 1_555 1_555
H31 C24 1_555 1_555
H32 C24 1_555 1_555
C25 C23 1_555 1_555
H33 C25 1_555 1_555
H34 C25 1_555 1_555
C26 C25 1_555 1_555
H35 C26 1_555 1_555
C27 C26 1_555 1_555
C28 C27 1_555 1_555
C29 O8 1_555 1_555
C30 C28 1_555 1_555
H36 C30 1_555 1_555
H37 C30 1_555 1_555
H38 C30 1_555 1_555
C31 C7 1_555 1_555
H39 C31 1_555 1_555
H40 C31 1_555 1_555
H41 C31 1_555 1_555
C32 C7 1_555 1_555
H42 C32 1_555 1_555
H43 C32 1_555 1_555
H44 C32 1_555 1_555
C33 C17 1_555 1_555
H45 C33 1_555 1_555
H46 C33 1_555 1_555
H47 C33 1_555 1_555
C34 C27 1_555 1_555
H48 C34 1_555 1_555
H49 C34 1_555 1_555
H50 C34 1_555 1_555
C3 C5 1_555 1_555
C4 C6 1_555 1_555
C8 C13 1_555 1_555
C9 C10 1_555 1_555
C12 C13 1_555 1_555
C14 C15 1_555 1_555
C16 C17 1_555 1_555
C19 C20 1_555 1_555
C28 C29 1_555 1_555

#END
