
#######################################################################
#
#                 Cambridge Crystallographic Data Centre
#                                CCDC 
#
#######################################################################
#
# If this CIF has been generated from an entry in the Cambridge 
# Structural Database, then it will include bibliographic, chemical, 
# crystal, experimental, refinement or atomic coordinate data resulting 
# from the CCDC's data processing and validation procedures.
#
#######################################################################

data_AMUGUM
_chemical_formula_moiety         'C4 H12 N1 1+,H8 B2 P1 1-'
_chemical_name_systematic        
'tetramethylammonium trihydrido(trihydrido(phosphino)borate)borate'
_symmetry_cell_setting           monoclinic
_symmetry_space_group_name_H-M   'P 21/m'
_symmetry_Int_Tables_number      11
_space_group_name_Hall           '-P 2yb'
loop_
_symmetry_equiv_pos_site_id
_symmetry_equiv_pos_as_xyz
1 x,y,z
2 -x,1/2+y,-z
3 -x,-y,-z
4 x,1/2-y,z
_cell_length_a                   6.1712(3)
_cell_length_b                   8.0425(5)
_cell_length_c                   10.4934(4)
_cell_angle_alpha                90
_cell_angle_beta                 98.806(4)
_cell_angle_gamma                90
_cell_volume                     514.668
_cell_formula_units_Z            2
loop_
_atom_site_label
_atom_site_type_symbol
_atom_site_fract_x
_atom_site_fract_y
_atom_site_fract_z
P1 P 0.99593(14) 0.2500 0.34494(8)
H1 H 1.1341 0.1196 0.3842
B1 B 0.9273(9) 0.2500 0.1591(4)
H2 H 1.0530 0.2500 0.1234
H3 H 0.8473 0.1354 0.1219
B2 B 0.7700(8) 0.2500 0.4520(4)
H4 H 0.8363 0.2500 0.5567
H5 H 0.6734 0.1465 0.4401
H1C H 1.1341 0.3804 0.3842
H3C H 0.8473 0.3646 0.1219
H5C H 0.6734 0.3535 0.4401
N1 N 0.4877(4) 0.2500 0.7968(2)
C1 C 0.6272(5) 0.3998(4) 0.8080(3)
H6 H 0.7179 0.4011 0.8910
H7 H 0.5363 0.4972 0.7988
H8 H 0.7184 0.3985 0.7416
C2 C 0.3535(7) 0.2500 0.9037(4)
C3 C 0.3427(7) 0.2500 0.6708(4)
C1C C 0.6272(5) 0.1002(4) 0.8080(3)
H6C H 0.7179 0.0989 0.8910
H7C H 0.5363 0.0028 0.7988
H8C H 0.7184 0.1015 0.7416
H9? H 0.4483 0.2606 0.9848
H10? H 0.2731 0.1477 0.9023
H11? H 0.2528 0.3417 0.8928
H12? H 0.2447 0.1568 0.6664
H13? H 0.4301 0.2420 0.6028
H14? H 0.2593 0.3512 0.6614
loop_
_geom_bond_atom_site_label_1
_geom_bond_atom_site_label_2
_geom_bond_site_symmetry_1
_geom_bond_site_symmetry_2
P1 H1 1_555 1_555
B1 P1 1_555 1_555
H2 B1 1_555 1_555
H3 B1 1_555 1_555
B2 P1 1_555 1_555
H4 B2 1_555 1_555
H5 B2 1_555 1_555
N1 C1 1_555 1_555
C1 H6 1_555 1_555
H7 C1 1_555 1_555
H8 C1 1_555 1_555
C2 N1 1_555 1_555
C3 N1 1_555 1_555
H1C P1 1_555 1_555
H3C B1 1_555 1_555
H5C B2 1_555 1_555
C1C N1 1_555 1_555
H6C C1C 1_555 1_555
H7C C1C 1_555 1_555
H8C C1C 1_555 1_555

#END
