
#######################################################################
#
#                 Cambridge Crystallographic Data Centre
#                                CCDC 
#
#######################################################################
#
# If this CIF has been generated from an entry in the Cambridge 
# Structural Database, then it will include bibliographic, chemical, 
# crystal, experimental, refinement or atomic coordinate data resulting 
# from the CCDC's data processing and validation procedures.
#
#######################################################################

data_AMUHOG
_chemical_name_common            
5,5'-bis(5-(N,N-Diphenyl-4-aminophenyl)-thiophen-2-yl)-2,2'-bipyridine
_chemical_formula_moiety         'C54 H38 N4 S2'
_chemical_name_systematic        
4,4'-(2,2'-Bipyridine-5,5'-diyldithiene-5,2-diyl)bis(N,N-diphenylaniline)
_symmetry_cell_setting           triclinic
_symmetry_space_group_name_H-M   'P -1'
_symmetry_Int_Tables_number      2
_space_group_name_Hall           '-P 1'
loop_
_symmetry_equiv_pos_site_id
_symmetry_equiv_pos_as_xyz
1 x,y,z
2 -x,-y,-z
_cell_length_a                   10.7447(10)
_cell_length_b                   11.8346(11)
_cell_length_c                   17.2692(16)
_cell_angle_alpha                95.596(2)
_cell_angle_beta                 97.058(2)
_cell_angle_gamma                108.418(2)
_cell_volume                     2045.88
_exptl_crystal_colour            orange
_exptl_crystal_description       rod
_cell_formula_units_Z            2
loop_
_atom_site_label
_atom_site_type_symbol
_atom_site_fract_x
_atom_site_fract_y
_atom_site_fract_z
C1 C 1.11344(18) -0.21390(14) 0.95849(9)
C2 C 1.01569(19) -0.16747(14) 0.97822(10)
H1 H 0.9460 -0.1698 0.9397
C3 C 1.0222(2) -0.11758(16) 1.05552(11)
H2 H 0.9571 -0.0859 1.0683
C4 C 1.1244(2) -0.11472(16) 1.11358(11)
H3 H 1.1278 -0.0821 1.1653
C5 C 1.2217(2) -0.16083(17) 1.09392(11)
H4 H 1.2905 -0.1594 1.1328
C6 C 1.21764(19) -0.20928(16) 1.01643(10)
H5 H 1.2844 -0.2385 1.0035
C7 C 1.12376(17) -0.37857(14) 0.86263(10)
C8 C 1.10226(18) -0.45967(15) 0.91682(10)
H6 H 1.0747 -0.4397 0.9637
C9 C 1.1213(2) -0.56917(17) 0.90203(12)
H7 H 1.1068 -0.6221 0.9390
C10 C 1.1619(2) -0.60090(18) 0.83246(13)
H8 H 1.1748 -0.6747 0.8226
C11 C 1.1829(2) -0.52150(18) 0.77790(12)
H9 H 1.2091 -0.5426 0.7308
C12 C 1.1654(2) -0.41123(16) 0.79264(11)
H10 H 1.1814 -0.3582 0.7558
C13 C 1.07039(17) -0.20399(14) 0.81766(9)
C14 C 0.98430(18) -0.26350(15) 0.74799(10)
H11 H 0.9490 -0.3471 0.7398
C15 C 0.95123(18) -0.19861(16) 0.69112(10)
H12 H 0.8947 -0.2399 0.6448
C16 C 1.00021(16) -0.07289(15) 0.70126(9)
C17 C 1.08664(16) -0.01444(14) 0.77086(9)
H13 H 1.1220 0.0691 0.7790
C18 C 1.12077(16) -0.07827(14) 0.82796(9)
H14 H 1.1782 -0.0369 0.8740
C19 C 0.95861(17) -0.00617(15) 0.64136(10)
C20 C 0.89414(18) -0.04843(17) 0.56567(10)
H15 H 0.8713 -0.1283 0.5430
C21 C 0.86566(19) 0.04090(18) 0.52534(10)
H16 H 0.8221 0.0254 0.4735
C22 C 0.90796(18) 0.15214(17) 0.56955(10)
C23 C 0.8702(2) 0.34888(18) 0.60226(11)
H17 H 0.8914 0.3436 0.6554
C24 C 0.88349(19) 0.26068(17) 0.54722(10)
C25 C 0.8614(2) 0.2759(2) 0.46815(11)
H18 H 0.8730 0.2223 0.4289
C26 C 0.8221(2) 0.3711(2) 0.44861(11)
H19 H 0.8083 0.3826 0.3962
C27 C 0.80336(19) 0.44957(17) 0.50756(10)
C28 C 0.74471(18) 0.54304(16) 0.48870(10)
C29 C 0.68159(19) 0.59167(16) 0.54248(10)
H20 H 0.6798 0.5687 0.5924
C30 C 0.62217(19) 0.67354(15) 0.52119(10)
H21 H 0.5782 0.7049 0.5563
C31 C 0.62796(18) 0.70987(15) 0.44638(10)
C32 C 0.6942(2) 0.65675(18) 0.39742(11)
H22 H 0.6992 0.6796 0.3476
C33 C 0.56635(17) 0.79629(15) 0.42097(9)
C34 C 0.4696(2) 0.82976(18) 0.45113(12)
H23 H 0.4321 0.7986 0.4935
C35 C 0.4318(2) 0.91554(19) 0.41227(12)
H24 H 0.3668 0.9462 0.4266
C36 C 0.49893(17) 0.95002(15) 0.35172(10)
C37 C 0.48546(17) 1.03724(14) 0.29913(10)
C38 C 0.57573(18) 1.07746(15) 0.24785(10)
H25 H 0.6478 1.0500 0.2476
C39 C 0.55963(18) 1.15761(15) 0.19736(10)
H26 H 0.6209 1.1831 0.1637
C40 C 0.45339(19) 1.20038(15) 0.19625(10)
C41 C 0.3631(2) 1.16235(16) 0.24804(11)
H27 H 0.2919 1.1909 0.2486
C42 C 0.37949(19) 1.08252(16) 0.29839(11)
H28 H 0.3189 1.0582 0.3326
C43 C 0.44604(19) 1.25174(15) 0.06206(10)
C44 C 0.41124(19) 1.13273(15) 0.02642(10)
H29 H 0.3814 1.0701 0.0554
C45 C 0.42116(19) 1.10777(17) -0.05221(11)
H30 H 0.4021 1.0284 -0.0749
C46 C 0.4589(2) 1.19898(19) -0.09741(11)
H31 H 0.4613 1.1813 -0.1508
C47 C 0.4931(2) 1.31685(18) -0.06225(12)
H32 H 0.5181 1.3788 -0.0924
C48 C 0.4908(2) 1.34407(16) 0.01743(11)
H33 H 0.5190 1.4239 0.0411
C49 C 0.38408(17) 1.37258(14) 0.16562(10)
C50 C 0.28607(18) 1.39502(17) 0.11549(11)
H34 H 0.2526 1.3485 0.0662
C51 C 0.2380(2) 1.4863(2) 0.13847(13)
H35 H 0.1736 1.5015 0.1040
C52 C 0.2839(2) 1.55493(19) 0.21170(13)
H36 H 0.2500 1.6153 0.2271
C53 C 0.3815(2) 1.53269(17) 0.26206(12)
H37 H 0.4134 1.5787 0.3116
C54 C 0.43216(19) 1.44283(16) 0.23944(11)
H38 H 0.4983 1.4293 0.2735
N1 N 1.10601(15) -0.26539(12) 0.87863(8)
N2 N 0.82969(17) 0.44004(15) 0.58460(9)
N3 N 0.75081(18) 0.57601(16) 0.41640(9)
N4 N 0.43503(17) 1.27921(13) 0.14259(8)
S1 S 0.61061(5) 0.87306(4) 0.34244(2)
S2 S 0.98357(5) 0.14671(4) 0.66294(3)
loop_
_geom_bond_atom_site_label_1
_geom_bond_atom_site_label_2
_geom_bond_site_symmetry_1
_geom_bond_site_symmetry_2
C1 C2 1_555 1_555
C2 H1 1_555 1_555
C3 C2 1_555 1_555
H2 C3 1_555 1_555
C4 C3 1_555 1_555
H3 C4 1_555 1_555
C5 C4 1_555 1_555
H4 C5 1_555 1_555
C6 C1 1_555 1_555
H5 C6 1_555 1_555
C7 C8 1_555 1_555
C8 H6 1_555 1_555
C9 C8 1_555 1_555
H7 C9 1_555 1_555
C10 C9 1_555 1_555
H8 C10 1_555 1_555
C11 C10 1_555 1_555
H9 C11 1_555 1_555
C12 C7 1_555 1_555
H10 C12 1_555 1_555
C13 C14 1_555 1_555
C14 H11 1_555 1_555
C15 C14 1_555 1_555
H12 C15 1_555 1_555
C16 C15 1_555 1_555
C17 C16 1_555 1_555
H13 C17 1_555 1_555
C18 C13 1_555 1_555
H14 C18 1_555 1_555
C19 C16 1_555 1_555
C20 C19 1_555 1_555
H15 C20 1_555 1_555
C21 C20 1_555 1_555
H16 C21 1_555 1_555
C22 C21 1_555 1_555
C23 H17 1_555 1_555
C24 C22 1_555 1_555
C25 C24 1_555 1_555
H18 C25 1_555 1_555
C26 C25 1_555 1_555
H19 C26 1_555 1_555
C27 C26 1_555 1_555
C28 C27 1_555 1_555
C29 C28 1_555 1_555
H20 C29 1_555 1_555
C30 C29 1_555 1_555
H21 C30 1_555 1_555
C31 C30 1_555 1_555
C32 C31 1_555 1_555
H22 C32 1_555 1_555
C33 C31 1_555 1_555
C34 C33 1_555 1_555
H23 C34 1_555 1_555
C35 C34 1_555 1_555
H24 C35 1_555 1_555
C36 C35 1_555 1_555
C37 C36 1_555 1_555
C38 C37 1_555 1_555
H25 C38 1_555 1_555
C39 C38 1_555 1_555
H26 C39 1_555 1_555
C40 C39 1_555 1_555
C41 C40 1_555 1_555
H27 C41 1_555 1_555
C42 C37 1_555 1_555
H28 C42 1_555 1_555
C43 C44 1_555 1_555
C44 H29 1_555 1_555
C45 C44 1_555 1_555
H30 C45 1_555 1_555
C46 C45 1_555 1_555
H31 C46 1_555 1_555
C47 C46 1_555 1_555
H32 C47 1_555 1_555
C48 C43 1_555 1_555
H33 C48 1_555 1_555
C49 C50 1_555 1_555
C50 H34 1_555 1_555
C51 C50 1_555 1_555
H35 C51 1_555 1_555
C52 C51 1_555 1_555
H36 C52 1_555 1_555
C53 C52 1_555 1_555
H37 C53 1_555 1_555
C54 C49 1_555 1_555
H38 C54 1_555 1_555
N1 C1 1_555 1_555
N2 C23 1_555 1_555
N3 C28 1_555 1_555
N4 C40 1_555 1_555
S1 C33 1_555 1_555
S2 C19 1_555 1_555
C5 C6 1_555 1_555
C7 N1 1_555 1_555
C11 C12 1_555 1_555
C13 N1 1_555 1_555
C17 C18 1_555 1_555
C22 S2 1_555 1_555
C23 C24 1_555 1_555
C27 N2 1_555 1_555
C32 N3 1_555 1_555
C36 S1 1_555 1_555
C41 C42 1_555 1_555
C43 N4 1_555 1_555
C47 C48 1_555 1_555
C49 N4 1_555 1_555
C53 C54 1_555 1_555

#END
