
#######################################################################
#
#                 Cambridge Crystallographic Data Centre
#                                CCDC 
#
#######################################################################
#
# If this CIF has been generated from an entry in the Cambridge 
# Structural Database, then it will include bibliographic, chemical, 
# crystal, experimental, refinement or atomic coordinate data resulting 
# from the CCDC's data processing and validation procedures.
#
#######################################################################

data_AMUHEW
_chemical_name_common            
5,5'-bis(4-Octylthiophen-2-yl)-2,2'-bipyridine
_chemical_formula_moiety         'C34 H44 N2 S2'
_chemical_name_systematic        5,5'-bis(4-n-Octyl-2-thienyl)-2,2'-bipyridine
_symmetry_cell_setting           triclinic
_symmetry_space_group_name_H-M   'P -1'
_symmetry_Int_Tables_number      2
_space_group_name_Hall           '-P 1'
loop_
_symmetry_equiv_pos_site_id
_symmetry_equiv_pos_as_xyz
1 x,y,z
2 -x,-y,-z
_cell_length_a                   5.5379(4)
_cell_length_b                   14.5782(11)
_cell_length_c                   19.5515(14)
_cell_angle_alpha                107.112(1)
_cell_angle_beta                 92.475(1)
_cell_angle_gamma                91.974(1)
_cell_volume                     1505.32
_exptl_crystal_colour            'pale yellow'
_exptl_crystal_description       block
_cell_formula_units_Z            2
loop_
_atom_site_label
_atom_site_type_symbol
_atom_site_fract_x
_atom_site_fract_y
_atom_site_fract_z
C1 C 0.0224(3) 0.97813(11) 0.46151(8)
C2 C 0.2138(3) 0.92090(12) 0.44513(8)
H1 H 0.3139 0.9101 0.4811
C3 C 0.2549(3) 0.88000(13) 0.37516(9)
H2 H 0.3839 0.8401 0.3638
C4 C 0.1103(3) 0.89544(11) 0.31916(8)
C5 C -0.0831(3) 0.95474(13) 0.33893(9)
H3 H -0.1835 0.9667 0.3035
C6 C 0.1633(3) 0.85113(11) 0.24368(8)
C7 C 0.0349(3) 0.85222(12) 0.18214(9)
H4 H -0.1093 0.8832 0.1826
C8 C 0.1421(3) 0.80180(12) 0.11765(9)
C9 C 0.3525(3) 0.76324(13) 0.13219(9)
H5 H 0.4481 0.7274 0.0970
C10 C 0.0321(3) 0.79202(14) 0.04379(9)
H6 H -0.0078 0.8553 0.0413
H7 H -0.1178 0.7531 0.0368
C11 C 0.1942(3) 0.74699(13) -0.01724(9)
H8 H 0.3477 0.7837 -0.0090
H9 H 0.2265 0.6823 -0.0166
C12 C 0.0857(3) 0.74281(14) -0.09102(9)
H10 H 0.0698 0.8077 -0.0937
H11 H -0.0750 0.7118 -0.0976
C13 C 0.2398(3) 0.68811(13) -0.15117(9)
H12 H 0.2518 0.6229 -0.1487
H13 H 0.4018 0.7181 -0.1432
C14 C 0.1434(3) 0.68415(13) -0.22641(9)
H14 H -0.0224 0.6581 -0.2336
H15 H 0.1426 0.7490 -0.2303
C15 C 0.2924(3) 0.62311(12) -0.28534(9)
H16 H 0.4594 0.6478 -0.2769
H17 H 0.2883 0.5578 -0.2824
C16 C 0.2043(4) 0.62119(13) -0.36074(9)
H18 H 0.0357 0.5985 -0.3688
H19 H 0.2144 0.6861 -0.3645
C17 C 0.3504(4) 0.55691(15) -0.41862(10)
H20 H 0.2880 0.5581 -0.4649
H21 H 0.3384 0.4923 -0.4158
H22 H 0.5169 0.5798 -0.4116
N1 N -0.1282(3) 0.99579(12) 0.40953(8)
S1 S 0.42092(8) 0.78802(3) 0.22219(2)
C1A C -0.0224(3) 1.02187(11) 0.53849(8)
C2A C -0.2138(3) 1.07910(12) 0.55487(8)
H1A H -0.3139 1.0899 0.5189
C3A C -0.2549(3) 1.12000(13) 0.62484(9)
H2A H -0.3839 1.1599 0.6362
C4A C -0.1103(3) 1.10456(11) 0.68084(8)
C5A C 0.0831(3) 1.04526(13) 0.66107(9)
H3A H 0.1835 1.0333 0.6965
C6A C -0.1633(3) 1.14887(11) 0.75632(8)
C7A C -0.0349(3) 1.14778(12) 0.81786(9)
H4A H 0.1093 1.1168 0.8174
C8A C -0.1421(3) 1.19820(12) 0.88235(9)
C9A C -0.3525(3) 1.23676(13) 0.86781(9)
H5A H -0.4481 1.2726 0.9030
C10A C -0.0321(3) 1.20798(14) 0.95621(9)
H6A H 0.0078 1.1447 0.9587
H7A H 0.1178 1.2469 0.9632
C11A C -0.1942(3) 1.25301(13) 1.01724(9)
H8A H -0.3477 1.2163 1.0090
H9A H -0.2265 1.3177 1.0166
C12A C -0.0857(3) 1.25719(14) 1.09102(9)
H10A H -0.0698 1.1923 1.0937
H11A H 0.0750 1.2882 1.0976
C13A C -0.2398(3) 1.31189(13) 1.15117(9)
H12A H -0.2518 1.3771 1.1487
H13A H -0.4018 1.2819 1.1432
C14A C -0.1434(3) 1.31585(13) 1.22641(9)
H14A H 0.0224 1.3419 1.2336
H15A H -0.1426 1.2510 1.2303
C15A C -0.2924(3) 1.37689(12) 1.28534(9)
H16A H -0.4594 1.3522 1.2769
H17A H -0.2883 1.4422 1.2824
C16A C -0.2043(4) 1.37881(13) 1.36074(9)
H18A H -0.0357 1.4015 1.3688
H19A H -0.2144 1.3139 1.3645
C17A C -0.3504(4) 1.44309(15) 1.41862(10)
H20A H -0.2880 1.4419 1.4649
H21A H -0.3384 1.5077 1.4158
H22A H -0.5169 1.4202 1.4116
N1A N 0.1282(3) 1.00421(12) 0.59047(8)
S1A S -0.42092(8) 1.21198(3) 0.77781(2)
C18 C 1.2184(3) 0.51657(13) 0.15047(9)
H23 H 1.3471 0.4992 0.1754
C19 C 1.0364(3) 0.57055(11) 0.18793(8)
C20 C 0.8493(3) 0.59302(13) 0.14602(9)
H24 H 0.7263 0.6291 0.1698
C21 C 0.8338(3) 0.56665(11) 0.07461(8)
H25 H 0.7045 0.5836 0.0497
C22 C 1.0124(3) 0.51446(12) 0.03958(8)
C23 C 1.0331(3) 0.60219(12) 0.26640(8)
C24 C 0.8739(3) 0.65993(12) 0.30864(9)
H26 H 0.7464 0.6868 0.2901
C25 C 0.9205(3) 0.67529(12) 0.38362(9)
C26 C 1.1175(3) 0.62785(14) 0.39648(9)
H27 H 1.1759 0.6290 0.4421
C27 C 0.7666(3) 0.73595(12) 0.43922(9)
H28 H 0.6011 0.7097 0.4293
H29 H 0.7686 0.8001 0.4340
C28 C 0.8402(3) 0.74430(13) 0.51681(9)
H30 H 1.0029 0.7733 0.5281
H31 H 0.8420 0.6805 0.5226
C29 C 0.6694(3) 0.80440(13) 0.56913(9)
H32 H 0.6670 0.8679 0.5628
H33 H 0.5070 0.7751 0.5575
C30 C 0.7372(3) 0.81490(12) 0.64742(9)
H34 H 0.9028 0.8408 0.6585
H35 H 0.7296 0.7518 0.6546
C31 C 0.5727(3) 0.88016(13) 0.69899(9)
H36 H 0.5794 0.9429 0.6913
H37 H 0.4074 0.8540 0.6878
C32 C 0.6373(4) 0.89243(13) 0.77767(9)
H38 H 0.6268 0.8300 0.7859
H39 H 0.8035 0.9176 0.7889
C33 C 0.4738(4) 0.95937(14) 0.82788(10)
H40 H 0.4870 1.0221 0.8202
H41 H 0.3074 0.9349 0.8158
C34 C 0.5326(6) 0.97077(19) 0.90659(12)
H42 H 0.4227 1.0135 0.9352
H43 H 0.6955 0.9968 0.9194
H44 H 0.5168 0.9092 0.9149
N2 N 1.2076(3) 0.48891(13) 0.07641(9)
S2 S 1.24581(8) 0.56558(4) 0.31866(2)
C18A C 0.7816(3) 0.48343(13) -0.15047(9)
H23A H 0.6529 0.5008 -0.1754
C19A C 0.9636(3) 0.42945(11) -0.18793(8)
C20A C 1.1507(3) 0.40698(13) -0.14602(9)
H24A H 1.2737 0.3709 -0.1698
C21A C 1.1662(3) 0.43335(11) -0.07461(8)
H25A H 1.2955 0.4164 -0.0497
C22A C 0.9876(3) 0.48554(12) -0.03958(8)
C23A C 0.9669(3) 0.39781(12) -0.26640(8)
C24A C 1.1261(3) 0.34007(12) -0.30864(9)
H26A H 1.2536 0.3132 -0.2901
C25A C 1.0795(3) 0.32471(12) -0.38362(9)
C26A C 0.8825(3) 0.37215(14) -0.39648(9)
H27A H 0.8241 0.3710 -0.4421
C27A C 1.2334(3) 0.26405(12) -0.43922(9)
H28A H 1.3989 0.2903 -0.4293
H29A H 1.2314 0.1999 -0.4340
C28A C 1.1598(3) 0.25570(13) -0.51681(9)
H30A H 0.9971 0.2267 -0.5281
H31A H 1.1580 0.3195 -0.5226
C29A C 1.3306(3) 0.19560(13) -0.56913(9)
H32A H 1.3330 0.1321 -0.5628
H33A H 1.4930 0.2249 -0.5575
C30A C 1.2628(3) 0.18510(12) -0.64742(9)
H34A H 1.0972 0.1592 -0.6585
H35A H 1.2704 0.2482 -0.6546
C31A C 1.4273(3) 0.11984(13) -0.69899(9)
H36A H 1.4206 0.0571 -0.6913
H37A H 1.5926 0.1460 -0.6878
C32A C 1.3627(4) 0.10757(13) -0.77767(9)
H38A H 1.3732 0.1700 -0.7859
H39A H 1.1965 0.0824 -0.7889
C33A C 1.5262(4) 0.04063(14) -0.82788(10)
H40A H 1.5130 -0.0221 -0.8202
H41A H 1.6926 0.0651 -0.8158
C34A C 1.4674(6) 0.02923(19) -0.90659(12)
H42A H 1.5773 -0.0135 -0.9352
H43A H 1.3045 0.0032 -0.9194
H44A H 1.4832 0.0908 -0.9149
N2A N 0.7924(3) 0.51109(13) -0.07641(9)
S2A S 0.75419(8) 0.43442(4) -0.31866(2)
loop_
_geom_bond_atom_site_label_1
_geom_bond_atom_site_label_2
_geom_bond_site_symmetry_1
_geom_bond_site_symmetry_2
C1 C2 1_555 1_555
C2 H1 1_555 1_555
C3 C2 1_555 1_555
H2 C3 1_555 1_555
C4 C3 1_555 1_555
C5 C4 1_555 1_555
H3 C5 1_555 1_555
C6 C4 1_555 1_555
C7 C6 1_555 1_555
H4 C7 1_555 1_555
C8 C7 1_555 1_555
C9 C8 1_555 1_555
H5 C9 1_555 1_555
C10 C8 1_555 1_555
H6 C10 1_555 1_555
H7 C10 1_555 1_555
C11 C10 1_555 1_555
H8 C11 1_555 1_555
H9 C11 1_555 1_555
C12 C11 1_555 1_555
H10 C12 1_555 1_555
H11 C12 1_555 1_555
C13 C12 1_555 1_555
H12 C13 1_555 1_555
H13 C13 1_555 1_555
C14 C13 1_555 1_555
H14 C14 1_555 1_555
H15 C14 1_555 1_555
C15 C14 1_555 1_555
H16 C15 1_555 1_555
H17 C15 1_555 1_555
C16 C15 1_555 1_555
H18 C16 1_555 1_555
H19 C16 1_555 1_555
C17 C16 1_555 1_555
H20 C17 1_555 1_555
H21 C17 1_555 1_555
H22 C17 1_555 1_555
C18 H23 1_555 1_555
C19 C18 1_555 1_555
C20 C19 1_555 1_555
H24 C20 1_555 1_555
C21 C20 1_555 1_555
H25 C21 1_555 1_555
C22 C21 1_555 1_555
C23 C19 1_555 1_555
C24 C23 1_555 1_555
H26 C24 1_555 1_555
C25 C24 1_555 1_555
C26 C25 1_555 1_555
H27 C26 1_555 1_555
C27 C25 1_555 1_555
H28 C27 1_555 1_555
H29 C27 1_555 1_555
C28 C27 1_555 1_555
H30 C28 1_555 1_555
H31 C28 1_555 1_555
C29 C28 1_555 1_555
H32 C29 1_555 1_555
H33 C29 1_555 1_555
C30 C29 1_555 1_555
H34 C30 1_555 1_555
H35 C30 1_555 1_555
C31 C30 1_555 1_555
H36 C31 1_555 1_555
H37 C31 1_555 1_555
C32 C31 1_555 1_555
H38 C32 1_555 1_555
H39 C32 1_555 1_555
C33 C32 1_555 1_555
H40 C33 1_555 1_555
H41 C33 1_555 1_555
C34 C33 1_555 1_555
H42 C34 1_555 1_555
H43 C34 1_555 1_555
H44 C34 1_555 1_555
N1 C1 1_555 1_555
N2 C18 1_555 1_555
S1 C6 1_555 1_555
S2 C23 1_555 1_555
C1A C1 1_555 1_555
C2A C1A 1_555 1_555
H1A C2A 1_555 1_555
C3A C2A 1_555 1_555
H2A C3A 1_555 1_555
C4A C3A 1_555 1_555
C5A C4A 1_555 1_555
H3A C5A 1_555 1_555
C6A C4A 1_555 1_555
C7A C6A 1_555 1_555
H4A C7A 1_555 1_555
C8A C7A 1_555 1_555
C9A C8A 1_555 1_555
H5A C9A 1_555 1_555
C10A C8A 1_555 1_555
H6A C10A 1_555 1_555
H7A C10A 1_555 1_555
C11A C10A 1_555 1_555
H8A C11A 1_555 1_555
H9A C11A 1_555 1_555
C12A C11A 1_555 1_555
H10A C12A 1_555 1_555
H11A C12A 1_555 1_555
C13A C12A 1_555 1_555
H12A C13A 1_555 1_555
H13A C13A 1_555 1_555
C14A C13A 1_555 1_555
H14A C14A 1_555 1_555
H15A C14A 1_555 1_555
C15A C14A 1_555 1_555
H16A C15A 1_555 1_555
H17A C15A 1_555 1_555
C16A C15A 1_555 1_555
H18A C16A 1_555 1_555
H19A C16A 1_555 1_555
C17A C16A 1_555 1_555
H20A C17A 1_555 1_555
H21A C17A 1_555 1_555
H22A C17A 1_555 1_555
C18A H23A 1_555 1_555
C19A C18A 1_555 1_555
C20A C19A 1_555 1_555
H24A C20A 1_555 1_555
C21A C20A 1_555 1_555
H25A C21A 1_555 1_555
C22A C22 1_555 1_555
C23A C19A 1_555 1_555
C24A C23A 1_555 1_555
H26A C24A 1_555 1_555
C25A C24A 1_555 1_555
C26A C25A 1_555 1_555
H27A C26A 1_555 1_555
C27A C25A 1_555 1_555
H28A C27A 1_555 1_555
H29A C27A 1_555 1_555
C28A C27A 1_555 1_555
H30A C28A 1_555 1_555
H31A C28A 1_555 1_555
C29A C28A 1_555 1_555
H32A C29A 1_555 1_555
H33A C29A 1_555 1_555
C30A C29A 1_555 1_555
H34A C30A 1_555 1_555
H35A C30A 1_555 1_555
C31A C30A 1_555 1_555
H36A C31A 1_555 1_555
H37A C31A 1_555 1_555
C32A C31A 1_555 1_555
H38A C32A 1_555 1_555
H39A C32A 1_555 1_555
C33A C32A 1_555 1_555
H40A C33A 1_555 1_555
H41A C33A 1_555 1_555
C34A C33A 1_555 1_555
H42A C34A 1_555 1_555
H43A C34A 1_555 1_555
H44A C34A 1_555 1_555
N1A C1A 1_555 1_555
N2A C18A 1_555 1_555
S1A C6A 1_555 1_555
S2A C23A 1_555 1_555
C5 N1 1_555 1_555
C9 S1 1_555 1_555
C22 N2 1_555 1_555
C26 S2 1_555 1_555
C5A N1A 1_555 1_555
C9A S1A 1_555 1_555
C21A C22A 1_555 1_555
C22A N2A 1_555 1_555
C26A S2A 1_555 1_555

#END
