
#######################################################################
#
#                 Cambridge Crystallographic Data Centre
#                                CCDC 
#
#######################################################################
#
# If this CIF has been generated from an entry in the Cambridge 
# Structural Database, then it will include bibliographic, chemical, 
# crystal, experimental, refinement or atomic coordinate data resulting 
# from the CCDC's data processing and validation procedures.
#
#######################################################################

data_AMUHIA
_chemical_name_common            
5,5'-bis(N,N-Diphenyl-4-aminophenyl)-2,2'-bipyridine
_chemical_formula_moiety         'C46 H34 N4'
_chemical_name_systematic        
4,4'-(2,2'-Bipyridine-5,5'-diyl)bis(N,N-diphenylaniline)
_symmetry_cell_setting           monoclinic
_symmetry_space_group_name_H-M   'C 2/c'
_symmetry_Int_Tables_number      15
_space_group_name_Hall           '-C 2yn'
loop_
_symmetry_equiv_pos_site_id
_symmetry_equiv_pos_as_xyz
1 x,y,z
2 -x,y,1/2-z
3 1/2+x,1/2+y,z
4 1/2-x,1/2+y,1/2-z
5 -x,-y,-z
6 x,-y,1/2+z
7 1/2-x,1/2-y,-z
8 1/2+x,1/2-y,1/2+z
_cell_length_a                   14.9729(15)
_cell_length_b                   25.621(3)
_cell_length_c                   11.2567(11)
_cell_angle_alpha                90
_cell_angle_beta                 128.422(2)
_cell_angle_gamma                90
_cell_volume                     3383.2
_exptl_crystal_colour            orange
_exptl_crystal_description       prism
_cell_formula_units_Z            4
loop_
_atom_site_label
_atom_site_type_symbol
_atom_site_fract_x
_atom_site_fract_y
_atom_site_fract_z
N1 N 1.0000 -0.23703(8) 0.2500
N2 N 1.06947(16) 0.06726(6) 0.38508(19)
N3 N 1.07280(15) 0.17681(6) 0.3835(2)
N4 N 1.0000 0.48150(7) 0.2500
C1 C 0.92280(18) -0.26381(7) 0.2610(2)
C2 C 0.9540(2) -0.31030(7) 0.3418(3)
H1 H 1.0270 -0.3237 0.3921
C3 C 0.8751(4) -0.33649(8) 0.3467(4)
H2 H 0.8957 -0.3679 0.3994
C4 C 0.7674(3) -0.31706(12) 0.2756(4)
H3 H 0.7153 -0.3354 0.2788
C5 C 0.7366(2) -0.26978(11) 0.1985(3)
H4 H 0.6645 -0.2558 0.1523
C6 C 0.81425(19) -0.24366(9) 0.1913(3)
H5 H 0.7935 -0.2122 0.1392
C7 C 1.0000 -0.18148(9) 0.2500
C8 C 0.99034(17) -0.15421(6) 0.1359(2)
H6 H 0.9843 -0.1723 0.0596
C9 C 0.98962(16) -0.10001(6) 0.1357(2)
H7 H 0.9821 -0.0820 0.0582
C10 C 1.0000 -0.07227(9) 0.2500
C11 C 1.0000 -0.01421(9) 0.2500
C12 C 1.06898(18) 0.01424(7) 0.3833(2)
H8 H 1.1166 -0.0036 0.4748
C13 C 1.0000 0.09314(9) 0.2500
C14 C 1.0000 0.15102(9) 0.2500
C15 C 1.07312(18) 0.22989(7) 0.3834(2)
H9 H 1.1234 0.2476 0.4745
C16 C 1.0000 0.25846(9) 0.2500
C17 C 1.0000 0.31631(9) 0.2500
C18 C 1.10186(16) 0.34428(6) 0.3315(2)
H10 H 1.1708 0.3264 0.3871
C19 C 1.10197(16) 0.39838(7) 0.3310(2)
H11 H 1.1709 0.4163 0.3853
C20 C 1.0000 0.42616(9) 0.2500
C21 C 0.91845(17) 0.50945(7) 0.1141(2)
C22 C 0.88417(18) 0.49103(8) -0.0239(2)
H12 H 0.9120 0.4593 -0.0287
C23 C 0.80841(19) 0.51958(10) -0.1556(3)
H13 H 0.7844 0.5066 -0.2484
C24 C 0.7687(2) 0.56745(10) -0.1483(3)
H14 H 0.7213 0.5876 -0.2352
C25 C 0.79982(19) 0.58485(8) -0.0119(3)
H15 H 0.7706 0.6162 -0.0077
C26 C 0.87360(18) 0.55644(7) 0.1184(3)
H16 H 0.8937 0.5686 0.2099
N2A N 0.93053(16) 0.06726(6) 0.11492(19)
N3A N 0.92720(15) 0.17681(6) 0.1165(2)
C1A C 1.07720(18) -0.26381(7) 0.2390(2)
C2A C 1.0460(2) -0.31030(7) 0.1582(3)
H1A H 0.9730 -0.3237 0.1079
C3A C 1.1249(4) -0.33649(8) 0.1533(4)
H2A H 1.1043 -0.3679 0.1006
C4A C 1.2326(3) -0.31706(12) 0.2244(4)
H3A H 1.2847 -0.3354 0.2212
C5A C 1.2634(2) -0.26978(11) 0.3015(3)
H4A H 1.3355 -0.2558 0.3477
C6A C 1.18575(19) -0.24366(9) 0.3087(3)
H5A H 1.2065 -0.2122 0.3608
C8A C 1.00966(17) -0.15421(6) 0.3641(2)
H6A H 1.0157 -0.1723 0.4404
C9A C 1.01038(16) -0.10001(6) 0.3643(2)
H7A H 1.0179 -0.0820 0.4418
C12A C 0.93102(18) 0.01424(7) 0.1167(2)
H8A H 0.8834 -0.0036 0.0252
C15A C 0.92688(18) 0.22989(7) 0.1166(2)
H9A H 0.8766 0.2476 0.0255
C18A C 0.89814(16) 0.34428(6) 0.1685(2)
H10A H 0.8292 0.3264 0.1129
C19A C 0.89803(16) 0.39838(7) 0.1690(2)
H11A H 0.8291 0.4163 0.1147
C21A C 1.08155(17) 0.50945(7) 0.3859(2)
C22A C 1.11583(18) 0.49103(8) 0.5239(2)
H12A H 1.0880 0.4593 0.5287
C23A C 1.19159(19) 0.51958(10) 0.6556(3)
H13A H 1.2156 0.5066 0.7484
C24A C 1.2313(2) 0.56745(10) 0.6483(3)
H14A H 1.2787 0.5876 0.7352
C25A C 1.20018(19) 0.58485(8) 0.5119(3)
H15A H 1.2294 0.6162 0.5077
C26A C 1.12640(18) 0.55644(7) 0.3816(3)
H16A H 1.1063 0.5686 0.2901
C27? C 1.06947(16) 0.06726(6) 0.38508(19)
H17? H 1.1160 0.0855 0.4760
C28? C 1.07280(15) 0.17681(6) 0.3835(2)
H18? H 1.1217 0.1584 0.4737
loop_
_geom_bond_atom_site_label_1
_geom_bond_atom_site_label_2
_geom_bond_site_symmetry_1
_geom_bond_site_symmetry_2
N1 C1 1_555 1_555
N2 C12 1_555 1_555
N3 C14 1_555 1_555
N4 C20 1_555 1_555
C1 C2 1_555 1_555
C2 H1 1_555 1_555
C3 C2 1_555 1_555
H2 C3 1_555 1_555
C4 C3 1_555 1_555
H3 C4 1_555 1_555
C5 C4 1_555 1_555
H4 C5 1_555 1_555
C6 C1 1_555 1_555
H5 C6 1_555 1_555
C7 N1 1_555 1_555
C8 C7 1_555 1_555
H6 C8 1_555 1_555
C9 C8 1_555 1_555
H7 C9 1_555 1_555
C10 C9 1_555 1_555
C11 C10 1_555 1_555
C12 C11 1_555 1_555
H8 C12 1_555 1_555
C13 N2 1_555 1_555
C14 C13 1_555 1_555
C15 N3 1_555 1_555
H9 C15 1_555 1_555
C16 C15 1_555 1_555
C17 C16 1_555 1_555
C18 C17 1_555 1_555
H10 C18 1_555 1_555
C19 C18 1_555 1_555
H11 C19 1_555 1_555
C20 C19 1_555 1_555
C21 N4 1_555 1_555
C22 C21 1_555 1_555
H12 C22 1_555 1_555
C23 C22 1_555 1_555
H13 C23 1_555 1_555
C24 C23 1_555 1_555
H14 C24 1_555 1_555
C25 C24 1_555 1_555
H15 C25 1_555 1_555
C26 C21 1_555 1_555
H16 C26 1_555 1_555
N2A C13 1_555 1_555
N3A C14 1_555 1_555
C1A N1 1_555 1_555
C2A C1A 1_555 1_555
H1A C2A 1_555 1_555
C3A C2A 1_555 1_555
H2A C3A 1_555 1_555
C4A C3A 1_555 1_555
H3A C4A 1_555 1_555
C5A C4A 1_555 1_555
H4A C5A 1_555 1_555
C6A C1A 1_555 1_555
H5A C6A 1_555 1_555
C8A C7 1_555 1_555
H6A C8A 1_555 1_555
C9A C10 1_555 1_555
H7A C9A 1_555 1_555
C12A C11 1_555 1_555
H8A C12A 1_555 1_555
C15A C16 1_555 1_555
H9A C15A 1_555 1_555
C18A C17 1_555 1_555
H10A C18A 1_555 1_555
C19A C20 1_555 1_555
H11A C19A 1_555 1_555
C21A N4 1_555 1_555
C22A C21A 1_555 1_555
H12A C22A 1_555 1_555
C23A C22A 1_555 1_555
H13A C23A 1_555 1_555
C24A C23A 1_555 1_555
H14A C24A 1_555 1_555
C25A C24A 1_555 1_555
H15A C25A 1_555 1_555
C26A C21A 1_555 1_555
H16A C26A 1_555 1_555
C5 C6 1_555 1_555
C25 C26 1_555 1_555
N2A C12A 1_555 1_555
N3A C15A 1_555 1_555
C5A C6A 1_555 1_555
C8A C9A 1_555 1_555
C18A C19A 1_555 1_555
C25A C26A 1_555 1_555

#END
