
#######################################################################
#
#                 Cambridge Crystallographic Data Centre
#                                CCDC 
#
#######################################################################
#
# If this CIF has been generated from an entry in the Cambridge 
# Structural Database, then it will include bibliographic, chemical, 
# crystal, experimental, refinement or atomic coordinate data resulting 
# from the CCDC's data processing and validation procedures.
#
#######################################################################

data_AMUJAV
_chemical_compound_source        'Physalis peruviana'
_chemical_formula_moiety         'C28 H40 O8,C1 H4 O1'
_chemical_name_systematic        
'5,6,14,17,20-pentahydroxy-22,26-epoxyergosta-2,24-diene-1,26-dione methanol solvate'
_symmetry_cell_setting           orthorhombic
_symmetry_space_group_name_H-M   'P 21 21 21'
_symmetry_Int_Tables_number      19
_space_group_name_Hall           'P 2ac 2ab'
loop_
_symmetry_equiv_pos_site_id
_symmetry_equiv_pos_as_xyz
1 x,y,z
2 1/2+x,1/2-y,-z
3 -x,1/2+y,1/2-z
4 1/2-x,-y,1/2+z
_cell_length_a                   6.02090(10)
_cell_length_b                   18.8486(5)
_cell_length_c                   23.1309(6)
_cell_angle_alpha                90
_cell_angle_beta                 90
_cell_angle_gamma                90
_cell_volume                     2625.02
_exptl_crystal_colour            colorless
_exptl_crystal_description       plate
_cell_formula_units_Z            4
loop_
_atom_site_label
_atom_site_type_symbol
_atom_site_fract_x
_atom_site_fract_y
_atom_site_fract_z
O1 O 0.4691(5) 0.71567(14) 0.72448(11)
O2 O 0.4494(5) 0.85235(14) 0.63391(12)
O3 O 1.0134(5) 0.87657(15) 0.57930(12)
O4 O 0.7285(4) 0.97426(12) 0.77617(10)
O5 O 1.2492(5) 0.94765(13) 0.90220(10)
O6 O 0.6935(5) 1.02179(13) 0.87990(11)
O7 O 0.6438(5) 0.97617(12) 0.98818(10)
O8 O 0.3976(5) 0.97508(14) 1.05794(11)
C1 C 0.5601(6) 0.72780(18) 0.67822(15)
C2 C 0.5003(7) 0.68650(19) 0.62632(17)
C3 C 0.5396(8) 0.7116(2) 0.57354(17)
C4 C 0.6524(8) 0.7808(2) 0.56315(15)
C5 C 0.6670(6) 0.82731(17) 0.61730(15)
C6 C 0.8037(6) 0.89464(17) 0.60527(14)
C7 C 0.8327(7) 0.93856(18) 0.65992(15)
C8 C 0.9234(6) 0.89631(17) 0.71123(13)
C9 C 0.7628(6) 0.83364(16) 0.72489(13)
C10 C 0.7434(6) 0.78407(16) 0.67135(14)
C11 C 0.8251(7) 0.79531(17) 0.78155(15)
C12 C 0.8471(6) 0.84757(17) 0.83303(14)
C13 C 1.0204(6) 0.90527(17) 0.82009(13)
C14 C 0.9467(6) 0.94409(16) 0.76412(14)
C15 C 1.1140(6) 1.00499(19) 0.76074(15)
C16 C 1.1352(7) 1.03055(18) 0.82365(15)
C17 C 1.0682(6) 0.96782(16) 0.86507(14)
C18 C 1.2454(6) 0.86815(19) 0.80950(16)
C19 C 0.9621(6) 0.74284(19) 0.66071(16)
C20 C 0.8850(6) 0.99401(16) 0.90926(14)
C21 C 0.9805(7) 1.05456(19) 0.94558(15)
C22 C 0.7913(6) 0.93590(16) 0.94974(14)
C23 C 0.9466(6) 0.89078(17) 0.98540(14)
C24 C 0.8163(6) 0.84690(19) 1.02821(14)
C25 C 0.6251(7) 0.87191(18) 1.05019(14)
C26 C 0.5460(6) 0.94329(19) 1.03260(14)
C27 C 0.4916(8) 0.8371(3) 1.09737(19)
C28 C 0.9154(8) 0.7773(2) 1.04556(19)
H1 H 0.414(8) 0.644(3) 0.6329(19)
H2 H 0.489(9) 0.689(3) 0.5407(19)
H3 H 0.811(10) 0.777(3) 0.549(2)
H4 H 0.586(8) 0.808(3) 0.5321(19)
H5 H 0.373(9) 0.850(3) 0.6085(19)
H6 H 0.721(8) 0.922(3) 0.5736(19)
H7 H 1.059(10) 0.905(3) 0.571(3)
H8 H 0.695(9) 0.957(3) 0.6678(19)
H9 H 0.924(8) 0.975(3) 0.6515(16)
H10 H 1.079(6) 0.8792(17) 0.7000(14)
H11 H 0.613(7) 0.8562(19) 0.7297(16)
H12 H 0.976(8) 0.768(3) 0.7768(17)
H13 H 0.707(9) 0.762(3) 0.796(2)
H14 H 0.694(8) 0.871(3) 0.8399(18)
H15 H 0.895(8) 0.824(2) 0.8690(18)
H16 H 0.718(7) 1.010(2) 0.7575(17)
H17 H 1.253(8) 0.986(2) 0.7439(18)
H18 H 1.062(7) 1.042(2) 0.7368(17)
H19 H 1.280(9) 1.045(3) 0.833(2)
H20 H 1.037(8) 1.070(3) 0.8325(17)
H21 H 1.354(9) 0.979(3) 0.898(2)
H22 H 1.289(9) 0.837(3) 0.845(2)
H23 H 1.240(9) 0.836(3) 0.7744(19)
H24 H 1.348(7) 0.9019(19) 0.8069(16)
H25 H 0.991(10) 0.715(3) 0.699(2)
H26 H 0.970(8) 0.711(3) 0.6259(19)
H27 H 1.082(8) 0.774(3) 0.6570(18)
H28 H 1.094(8) 1.038(3) 0.9766(19)
H29 H 1.041(9) 1.091(3) 0.923(2)
H30 H 0.861(7) 1.079(2) 0.9666(17)
H31 H 0.703(9) 1.005(3) 0.846(3)
H32 H 0.693(7) 0.905(2) 0.9307(16)
H33 H 1.033(8) 0.857(2) 0.9600(16)
H34 H 1.050(8) 0.919(3) 1.0070(17)
H35 H 0.550(13) 0.856(4) 1.133(3)
H36 H 0.345(10) 0.850(3) 1.094(3)
H37 H 0.485(11) 0.785(3) 1.093(3)
H38 H 0.829(11) 0.756(3) 1.076(3)
H39 H 0.899(10) 0.746(3) 1.015(3)
H40 H 1.059(11) 0.784(3) 1.053(3)
O9 O 0.6603(6) 1.09721(15) 0.71818(12)
C29 C 0.4968(9) 1.1070(3) 0.67379(19)
H41 H 0.476(11) 1.057(4) 0.650(3)
H42 H 0.342(11) 1.110(3) 0.692(3)
H43 H 0.528(11) 1.153(3) 0.652(3)
H44 H 0.657(10) 1.133(3) 0.739(3)
loop_
_geom_bond_atom_site_label_1
_geom_bond_atom_site_label_2
_geom_bond_site_symmetry_1
_geom_bond_site_symmetry_2
O1 C1 1_555 1_555
O2 C5 1_555 1_555
O3 C6 1_555 1_555
O4 C14 1_555 1_555
O5 C17 1_555 1_555
O6 C20 1_555 1_555
O7 C22 1_555 1_555
O8 C26 1_555 1_555
C1 C2 1_555 1_555
C2 C3 1_555 1_555
C3 C4 1_555 1_555
C4 C5 1_555 1_555
C5 C6 1_555 1_555
C6 C7 1_555 1_555
C7 C8 1_555 1_555
C8 C9 1_555 1_555
C9 C10 1_555 1_555
C10 C1 1_555 1_555
C11 C9 1_555 1_555
C12 C11 1_555 1_555
C13 C12 1_555 1_555
C14 C8 1_555 1_555
C15 C14 1_555 1_555
C16 C15 1_555 1_555
C17 C13 1_555 1_555
C18 C13 1_555 1_555
C19 C10 1_555 1_555
C20 C17 1_555 1_555
C21 C20 1_555 1_555
C22 C20 1_555 1_555
C23 C22 1_555 1_555
C24 C23 1_555 1_555
C25 C24 1_555 1_555
C26 O7 1_555 1_555
C27 C25 1_555 1_555
C28 C24 1_555 1_555
H1 C2 1_555 1_555
H2 C3 1_555 1_555
H3 C4 1_555 1_555
H4 C4 1_555 1_555
H5 O2 1_555 1_555
H6 C6 1_555 1_555
H7 O3 1_555 1_555
H8 C7 1_555 1_555
H9 C7 1_555 1_555
H10 C8 1_555 1_555
H11 C9 1_555 1_555
H12 C11 1_555 1_555
H13 C11 1_555 1_555
H14 C12 1_555 1_555
H15 C12 1_555 1_555
H16 O4 1_555 1_555
H17 C15 1_555 1_555
H18 C15 1_555 1_555
H19 C16 1_555 1_555
H20 C16 1_555 1_555
H21 O5 1_555 1_555
H22 C18 1_555 1_555
H23 C18 1_555 1_555
H24 C18 1_555 1_555
H25 C19 1_555 1_555
H26 C19 1_555 1_555
H27 C19 1_555 1_555
H28 C21 1_555 1_555
H29 C21 1_555 1_555
H30 C21 1_555 1_555
H31 O6 1_555 1_555
H32 C22 1_555 1_555
H33 C23 1_555 1_555
H34 C23 1_555 1_555
H35 C27 1_555 1_555
H36 C27 1_555 1_555
H37 C27 1_555 1_555
H38 C28 1_555 1_555
H39 C28 1_555 1_555
H40 C28 1_555 1_555
O9 C29 1_555 1_555
C29 H41 1_555 1_555
H42 C29 1_555 1_555
H43 C29 1_555 1_555
H44 O9 1_555 1_555
C5 C10 1_555 1_555
C13 C14 1_555 1_555
C16 C17 1_555 1_555
C25 C26 1_555 1_555

#END
