
#######################################################################
#
#                 Cambridge Crystallographic Data Centre
#                                CCDC 
#
#######################################################################
#
# If this CIF has been generated from an entry in the Cambridge 
# Structural Database, then it will include bibliographic, chemical, 
# crystal, experimental, refinement or atomic coordinate data resulting 
# from the CCDC's data processing and validation procedures.
#
#######################################################################

data_AMUQOQ01
_chemical_name_common            '(-)-Huperzine A'
_chemical_formula_moiety         'C15 H18 N2 O1'
_chemical_name_systematic        
1-Amino-13-ethylidene-11-methyl-6-azatricyclo[7.3.1.0^2,7^]trideca-2(7),3,10-trien-5-one
_chemical_properties_biological  
'reversible inhibitor of acetylcholinesterase (AChEI)'
_symmetry_cell_setting           orthorhombic
_symmetry_space_group_name_H-M   'P 21 21 21'
_symmetry_Int_Tables_number      19
_space_group_name_Hall           'P 2ac 2ab'
loop_
_symmetry_equiv_pos_site_id
_symmetry_equiv_pos_as_xyz
1 x,y,z
2 1/2+x,1/2-y,-z
3 -x,1/2+y,1/2-z
4 1/2-x,-y,1/2+z
_cell_length_a                   11.605(3)
_cell_length_b                   14.229(3)
_cell_length_c                   15.618(4)
_cell_angle_alpha                90
_cell_angle_beta                 90
_cell_angle_gamma                90
_cell_volume                     2578.96
_exptl_crystal_colour            colorless
_exptl_crystal_description       column
_cell_formula_units_Z            8
loop_
_atom_site_label
_atom_site_type_symbol
_atom_site_fract_x
_atom_site_fract_y
_atom_site_fract_z
O1 O 0.6915(2) 0.87749(17) 0.23830(18)
N1 N 0.8022(3) 0.7631(2) 0.17912(18)
H1 H 0.7644 0.7222 0.2083
N2 N 1.1352(3) 0.8317(2) 0.0141(2)
H2 H 1.1699 0.8359 0.0648
H3 H 1.1026 0.8865 0.0014
C1 C 0.7699(3) 0.8562(3) 0.1879(2)
C2 C 0.8888(3) 0.7305(2) 0.1282(2)
C3 C 0.9126(3) 0.6267(2) 0.1339(2)
H4 H 0.8405 0.5924 0.1308
H5 H 0.9485 0.6126 0.1885
C4 C 0.9920(3) 0.5949(3) 0.0610(2)
H6 H 1.0223 0.5323 0.0742
C5 C 0.9248(3) 0.5906(3) -0.0217(2)
H7 H 0.8762 0.5395 -0.0302
C6 C 0.9305(3) 0.6548(3) -0.0829(2)
C7 C 0.8695(4) 0.6456(3) -0.1664(2)
H8 H 0.8216 0.5906 -0.1654
H9 H 0.9250 0.6399 -0.2116
H10 H 0.8227 0.7002 -0.1759
C8 C 1.0903(3) 0.6628(2) 0.0543(2)
C9 C 1.1964(3) 0.6478(3) 0.0783(2)
H11 H 1.2483 0.6966 0.0691
C10 C 1.2444(4) 0.5604(3) 0.1192(3)
H12 H 1.1822 0.5206 0.1372
H13 H 1.2902 0.5774 0.1680
H14 H 1.2915 0.5274 0.0786
C11 C 1.0473(3) 0.7571(2) 0.0187(2)
C12 C 1.0043(3) 0.7420(3) -0.0728(2)
H15 H 0.9597 0.7964 -0.0902
H16 H 1.0701 0.7372 -0.1107
C13 C 0.9486(3) 0.7905(2) 0.0763(2)
C14 C 0.9162(3) 0.8868(3) 0.0800(3)
H17 H 0.9533 0.9296 0.0444
C15 C 0.8328(3) 0.9183(3) 0.1341(3)
H18 H 0.8165 0.9823 0.1360
O2 O 0.3511(2) 0.13413(16) 0.25881(16)
N3 N 0.4461(2) 0.24447(19) 0.17968(18)
H19 H 0.3993 0.2862 0.1990
N4 N 0.7171(3) 0.1616(2) -0.0313(2)
H20 H 0.768(2) 0.172(3) -0.0701(19)
H21 H 0.6538(18) 0.152(3) -0.058(2)
C16 C 0.9090(4) 0.3369(3) 0.2033(3)
H22 H 0.9049 0.3946 0.2350
H23 H 0.9831 0.3319 0.1763
H24 H 0.8981 0.2847 0.2415
C17 C 0.8165(3) 0.3359(3) 0.1362(2)
C18 C 0.7387(3) 0.4039(3) 0.1277(2)
H25 H 0.7424 0.4545 0.1653
C19 C 0.6446(3) 0.4043(2) 0.0608(2)
H26 H 0.6387 0.4673 0.0358
C20 C 0.5281(3) 0.3774(2) 0.1010(2)
H27 H 0.5151 0.4145 0.1522
H28 H 0.4663 0.3906 0.0610
C21 C 0.5278(3) 0.2738(2) 0.1237(2)
C22 C 0.4314(3) 0.1533(2) 0.2085(2)
C23 C 0.8153(3) 0.2513(3) 0.0774(2)
H29 H 0.8302 0.1953 0.1110
H30 H 0.8772 0.2576 0.0360
C24 C 0.7015(3) 0.2390(2) 0.0294(2)
C25 C 0.6063(3) 0.2115(2) 0.0913(2)
C26 C 0.5963(3) 0.1162(3) 0.1205(2)
H31 H 0.6480 0.0717 0.0999
C27 C 0.5150(3) 0.0893(3) 0.1763(2)
H32 H 0.5132 0.0270 0.1945
C28 C 0.6694(3) 0.3344(2) -0.0092(2)
C29 C 0.6609(3) 0.3498(3) -0.0921(2)
H33 H 0.6756 0.2989 -0.1279
C30 C 0.6298(4) 0.4410(3) -0.1352(2)
H34 H 0.5535 0.4365 -0.1586
H35 H 0.6837 0.4536 -0.1804
H36 H 0.6324 0.4911 -0.0941
loop_
_geom_bond_atom_site_label_1
_geom_bond_atom_site_label_2
_geom_bond_site_symmetry_1
_geom_bond_site_symmetry_2
O1 C1 1_555 1_555
N1 H1 1_555 1_555
N2 H2 1_555 1_555
H3 N2 1_555 1_555
C1 N1 1_555 1_555
C2 N1 1_555 1_555
C3 C2 1_555 1_555
H4 C3 1_555 1_555
H5 C3 1_555 1_555
C4 C3 1_555 1_555
H6 C4 1_555 1_555
C5 C4 1_555 1_555
H7 C5 1_555 1_555
C6 C5 1_555 1_555
C7 C6 1_555 1_555
H8 C7 1_555 1_555
H9 C7 1_555 1_555
H10 C7 1_555 1_555
C8 C4 1_555 1_555
C9 C8 1_555 1_555
H11 C9 1_555 1_555
C10 C9 1_555 1_555
H12 C10 1_555 1_555
H13 C10 1_555 1_555
H14 C10 1_555 1_555
C11 N2 1_555 1_555
C12 C6 1_555 1_555
H15 C12 1_555 1_555
H16 C12 1_555 1_555
C13 C2 1_555 1_555
C14 C13 1_555 1_555
H17 C14 1_555 1_555
C15 C1 1_555 1_555
H18 C15 1_555 1_555
O2 C22 1_555 1_555
N3 H19 1_555 1_555
N4 H20 1_555 1_555
H21 N4 1_555 1_555
C16 H22 1_555 1_555
H23 C16 1_555 1_555
H24 C16 1_555 1_555
C17 C16 1_555 1_555
C18 C17 1_555 1_555
H25 C18 1_555 1_555
C19 C18 1_555 1_555
H26 C19 1_555 1_555
C20 C19 1_555 1_555
H27 C20 1_555 1_555
H28 C20 1_555 1_555
C21 N3 1_555 1_555
C22 N3 1_555 1_555
C23 C17 1_555 1_555
H29 C23 1_555 1_555
H30 C23 1_555 1_555
C24 N4 1_555 1_555
C25 C21 1_555 1_555
C26 C25 1_555 1_555
H31 C26 1_555 1_555
C27 C22 1_555 1_555
H32 C27 1_555 1_555
C28 C19 1_555 1_555
C29 C28 1_555 1_555
H33 C29 1_555 1_555
C30 C29 1_555 1_555
H34 C30 1_555 1_555
H35 C30 1_555 1_555
H36 C30 1_555 1_555
C8 C11 1_555 1_555
C11 C12 1_555 1_555
C11 C13 1_555 1_555
C14 C15 1_555 1_555
C20 C21 1_555 1_555
C23 C24 1_555 1_555
C24 C25 1_555 1_555
C24 C28 1_555 1_555
C26 C27 1_555 1_555

#END
