
#######################################################################
#
#                 Cambridge Crystallographic Data Centre
#                                CCDC 
#
#######################################################################
#
# If this CIF has been generated from an entry in the Cambridge 
# Structural Database, then it will include bibliographic, chemical, 
# crystal, experimental, refinement or atomic coordinate data resulting 
# from the CCDC's data processing and validation procedures.
#
#######################################################################

data_AMUQOQ
_chemical_name_common            '(-)-Huperzine A'
_chemical_formula_moiety         'C15 H18 N2 O1'
_chemical_name_systematic        
1-Amino-13-ethylidene-11-methyl-6-azatricyclo[7.3.1.0^2,7^]trideca-2(7),3,10-trien-5-one
_chemical_properties_biological  
'reversible inhibitor of acetylcholinesterase (AChEI)'
_symmetry_cell_setting           monoclinic
_symmetry_space_group_name_H-M   'P 21'
_symmetry_Int_Tables_number      4
_space_group_name_Hall           'P 2yb'
loop_
_symmetry_equiv_pos_site_id
_symmetry_equiv_pos_as_xyz
1 x,y,z
2 -x,1/2+y,-z
_cell_length_a                   9.0374(6)
_cell_length_b                   12.2905(9)
_cell_length_c                   12.2022(8)
_cell_angle_alpha                90
_cell_angle_beta                 97.879(5)
_cell_angle_gamma                90
_cell_volume                     1342.55
_exptl_crystal_colour            colorless
_exptl_crystal_description       diamond
_cell_formula_units_Z            4
loop_
_atom_site_label
_atom_site_type_symbol
_atom_site_fract_x
_atom_site_fract_y
_atom_site_fract_z
O1 O 1.4288(4) 0.8135(3) -0.1301(3)
N1 N 1.1864(4) 0.8541(3) -0.1185(3)
H1 H 1.1633 0.8293 -0.1845
N2 N 1.0358(4) 1.0683(3) 0.1706(4)
H2 H 1.0342 1.1272 0.1254
H3 H 0.9747 1.0805 0.2228
C1 C 0.8178(5) 0.7831(4) 0.0272(5)
H4 H 0.775(5) 0.720(4) -0.007(4)
C2 C 0.6170(7) 1.0965(5) -0.0625(6)
H5 H 0.6351 1.1558 -0.1102
H6 H 0.5362 1.1150 -0.0225
H7 H 0.5912 1.0326 -0.1062
C3 C 0.7548(6) 1.0749(4) 0.0174(5)
H8 H 0.7864 1.1311 0.0660
C4 C 0.8372(5) 0.9852(4) 0.0274(4)
C5 C 0.9813(5) 0.9715(4) 0.1043(4)
C6 C 1.1046(5) 0.9347(4) 0.0376(4)
C7 C 1.0724(5) 0.8922(4) -0.0646(4)
C8 C 1.3345(5) 0.8529(4) -0.0739(4)
C9 C 0.9575(5) 0.8804(5) 0.1858(4)
H9 H 1.0526 0.8621 0.2288
H10 H 0.8916 0.9063 0.2366
C10 C 0.8903(6) 0.7784(4) 0.1276(5)
C11 C 0.8027(5) 0.8838(4) -0.0432(4)
H11 H 0.7013 0.8885 -0.0835
C12 C 0.9176(5) 0.8806(4) -0.1256(4)
H12 H 0.9090 0.8122 -0.1657
H13 H 0.8976 0.9393 -0.1788
C13 C 0.9186(6) 0.6739(5) 0.1928(5)
H14 H 0.8652 0.6154 0.1531
H15 H 0.8850 0.6821 0.2636
H16 H 1.0236 0.6581 0.2031
C14 C 1.2546(6) 0.9372(4) 0.0858(4)
H17 H 1.2784 0.9657 0.1567
C15 C 1.3659(5) 0.8993(5) 0.0322(4)
H18 H 1.4644 0.9039 0.0659
O2 O 0.1150(3) 0.7476(2) 0.6775(3)
N3 N 0.3572(4) 0.7688(3) 0.6494(3)
H19 H 0.3830 0.7546 0.7184
C16 C 0.2080(5) 0.7658(3) 0.6099(5)
C17 C 0.4685(5) 0.7927(3) 0.5878(4)
C18 C 0.6248(4) 0.7890(4) 0.6486(4)
H20 H 0.6372 0.7249 0.6953
H21 H 0.6431 0.8527 0.6954
C19 C 0.7365(5) 0.7860(4) 0.5646(4)
H22 H 0.8381 0.7968 0.6027
C20 C 0.7260(5) 0.6768(4) 0.5048(5)
H23 H 0.7704 0.6168 0.5424
C21 C 0.6589(5) 0.6622(4) 0.4048(5)
C22 C 0.6461(6) 0.5500(4) 0.3487(5)
H24 H 0.7139 0.5002 0.3901
H25 H 0.6705 0.5562 0.2748
H26 H 0.5457 0.5234 0.3460
C23 C 0.4334(5) 0.8194(3) 0.4810(4)
C24 C 0.5516(5) 0.8515(4) 0.4098(4)
C25 C 0.6964(5) 0.8767(4) 0.4838(4)
C26 C 0.7715(6) 0.9695(4) 0.4796(5)
H27 H 0.7317 1.0202 0.4271
C27 C 0.9145(6) 1.0008(4) 0.5515(5)
H28 H 0.9524 0.9392 0.5951
H29 H 0.8951 1.0593 0.5997
H30 H 0.9869 1.0237 0.5056
C28 C 0.5820(5) 0.7538(4) 0.3368(4)
H31 H 0.4882 0.7276 0.2975
H32 H 0.6441 0.7771 0.2824
N4 N 0.4901(4) 0.9400(3) 0.3344(3)
H33 H 0.5518 0.9507 0.2824
H34 H 0.4848 1.0021 0.3742
C29 C 0.2826(6) 0.8131(4) 0.4344(4)
H35 H 0.2567 0.8274 0.3594
C30 C 0.1737(5) 0.7865(4) 0.4963(4)
H36 H 0.0751 0.7821 0.4627
loop_
_geom_bond_atom_site_label_1
_geom_bond_atom_site_label_2
_geom_bond_site_symmetry_1
_geom_bond_site_symmetry_2
O1 C8 1_555 1_555
N1 H1 1_555 1_555
N2 H2 1_555 1_555
H3 N2 1_555 1_555
C1 H4 1_555 1_555
C2 H5 1_555 1_555
H6 C2 1_555 1_555
H7 C2 1_555 1_555
C3 C2 1_555 1_555
H8 C3 1_555 1_555
C4 C3 1_555 1_555
C5 N2 1_555 1_555
C6 C5 1_555 1_555
C7 N1 1_555 1_555
C8 N1 1_555 1_555
C9 C5 1_555 1_555
H9 C9 1_555 1_555
H10 C9 1_555 1_555
C10 C1 1_555 1_555
C11 C1 1_555 1_555
H11 C11 1_555 1_555
C12 C7 1_555 1_555
H12 C12 1_555 1_555
H13 C12 1_555 1_555
C13 C10 1_555 1_555
H14 C13 1_555 1_555
H15 C13 1_555 1_555
H16 C13 1_555 1_555
C14 C6 1_555 1_555
H17 C14 1_555 1_555
C15 C8 1_555 1_555
H18 C15 1_555 1_555
O2 C16 1_555 1_555
N3 H19 1_555 1_555
C16 N3 1_555 1_555
C17 N3 1_555 1_555
C18 C17 1_555 1_555
H20 C18 1_555 1_555
H21 C18 1_555 1_555
C19 C18 1_555 1_555
H22 C19 1_555 1_555
C20 C19 1_555 1_555
H23 C20 1_555 1_555
C21 C20 1_555 1_555
C22 C21 1_555 1_555
H24 C22 1_555 1_555
H25 C22 1_555 1_555
H26 C22 1_555 1_555
C23 C17 1_555 1_555
C24 C23 1_555 1_555
C25 C19 1_555 1_555
C26 C25 1_555 1_555
H27 C26 1_555 1_555
C27 C26 1_555 1_555
H28 C27 1_555 1_555
H29 C27 1_555 1_555
H30 C27 1_555 1_555
C28 C21 1_555 1_555
H31 C28 1_555 1_555
H32 C28 1_555 1_555
N4 C24 1_555 1_555
H33 N4 1_555 1_555
H34 N4 1_555 1_555
C29 C23 1_555 1_555
H35 C29 1_555 1_555
C30 C16 1_555 1_555
H36 C30 1_555 1_555
C4 C5 1_555 1_555
C4 C11 1_555 1_555
C6 C7 1_555 1_555
C9 C10 1_555 1_555
C11 C12 1_555 1_555
C14 C15 1_555 1_555
C24 C25 1_555 1_555
C24 C28 1_555 1_555
C29 C30 1_555 1_555

#END
