
#######################################################################
#
#                 Cambridge Crystallographic Data Centre
#                                CCDC 
#
#######################################################################
#
# If this CIF has been generated from an entry in the Cambridge 
# Structural Database, then it will include bibliographic, chemical, 
# crystal, experimental, refinement or atomic coordinate data resulting 
# from the CCDC's data processing and validation procedures.
#
#######################################################################

data_AMUTOT
_chemical_name_common            Sulfamethizole
_chemical_formula_moiety         'C9 H10 N4 O2 S2'
_chemical_name_systematic        
4-amino-N-(5-methyl-1,3,4-thiadiazol-2-yl)benzenesulfonamide
_symmetry_cell_setting           orthorhombic
_symmetry_space_group_name_H-M   'P b c a'
_symmetry_Int_Tables_number      61
_space_group_name_Hall           '-P 2ac 2ab'
loop_
_symmetry_equiv_pos_site_id
_symmetry_equiv_pos_as_xyz
1 x,y,z
2 1/2-x,-y,1/2+z
3 1/2+x,1/2-y,-z
4 -x,1/2+y,1/2-z
5 -x,-y,-z
6 1/2+x,y,1/2-z
7 1/2-x,1/2+y,z
8 x,1/2-y,1/2+z
_cell_length_a                   10.215(7)
_cell_length_b                   11.206(7)
_cell_length_c                   21.414(14)
_cell_angle_alpha                90
_cell_angle_beta                 90
_cell_angle_gamma                90
_cell_volume                     2451.25
_exptl_crystal_description       needle
_cell_formula_units_Z            8
loop_
_atom_site_label
_atom_site_type_symbol
_atom_site_fract_x
_atom_site_fract_y
_atom_site_fract_z
S1 S 0.2812(2) -0.07918(15) 0.09045(7)
S2 S 0.13844(16) 0.09757(12) -0.01611(7)
O1 O 0.3308(5) -0.1999(3) 0.08431(17)
O2 O 0.1416(4) -0.0592(3) 0.08449(15)
N1 N 0.3569(5) 0.0019(5) 0.0395(2)
H1 H 0.4410 -0.0021 0.0393
N2 N 0.3777(5) 0.1399(5) -0.0394(3)
N3 N 0.3098(7) 0.2141(5) -0.0794(2)
N4 N 0.4472(5) 0.0918(4) 0.3406(2)
H2 H 0.4152 0.1568 0.3555
H3 H 0.5012 0.0502 0.3625
C1 C 0.3343(6) -0.0258(5) 0.1628(2)
C2 C 0.4220(7) -0.0913(5) 0.1980(3)
H4 H 0.4541 -0.1631 0.1826
C3 C 0.4623(7) -0.0508(6) 0.2559(3)
H5 H 0.5241 -0.0946 0.2781
C4 C 0.4124(7) 0.0544(6) 0.2819(3)
C5 C 0.3250(7) 0.1199(5) 0.2452(3)
H6 H 0.2914 0.1913 0.2605
C6 C 0.2876(6) 0.0810(5) 0.1869(3)
H7 H 0.2303 0.1270 0.1632
C7 C 0.3021(6) 0.0737(6) -0.0018(3)
C8 C 0.1858(8) 0.2034(5) -0.0717(3)
C9 C 0.0871(6) 0.2777(5) -0.1066(3)
H8 H 0.0513 0.3370 -0.0791
H9 H 0.0180 0.2273 -0.1217
H10 H 0.1291 0.3162 -0.1413
loop_
_geom_bond_atom_site_label_1
_geom_bond_atom_site_label_2
_geom_bond_site_symmetry_1
_geom_bond_site_symmetry_2
S1 O1 1_555 1_555
S2 C7 1_555 1_555
O2 S1 1_555 1_555
N1 S1 1_555 1_555
H1 N1 1_555 1_555
N2 N3 1_555 1_555
N3 C8 1_555 1_555
N4 H2 1_555 1_555
H3 N4 1_555 1_555
C1 S1 1_555 1_555
C2 C1 1_555 1_555
H4 C2 1_555 1_555
C3 C2 1_555 1_555
H5 C3 1_555 1_555
C4 N4 1_555 1_555
C5 C4 1_555 1_555
H6 C5 1_555 1_555
C6 C1 1_555 1_555
H7 C6 1_555 1_555
C7 N1 1_555 1_555
C8 S2 1_555 1_555
C9 C8 1_555 1_555
H8 C9 1_555 1_555
H9 C9 1_555 1_555
H10 C9 1_555 1_555
N2 C7 1_555 1_555
C3 C4 1_555 1_555
C5 C6 1_555 1_555

#END
