
#######################################################################
#
#                 Cambridge Crystallographic Data Centre
#                                CCDC 
#
#######################################################################
#
# If this CIF has been generated from an entry in the Cambridge 
# Structural Database, then it will include bibliographic, chemical, 
# crystal, experimental, refinement or atomic coordinate data resulting 
# from the CCDC's data processing and validation procedures.
#
#######################################################################

data_AMUVEL
_chemical_formula_moiety         'C10 H9 N1 O2'
_chemical_name_systematic        2-acetylisoindolin-1-one
_symmetry_cell_setting           orthorhombic
_symmetry_space_group_name_H-M   'P b c a'
_symmetry_Int_Tables_number      61
_space_group_name_Hall           '-P 2ac 2ab'
loop_
_symmetry_equiv_pos_site_id
_symmetry_equiv_pos_as_xyz
1 x,y,z
2 1/2-x,-y,1/2+z
3 1/2+x,1/2-y,-z
4 -x,1/2+y,1/2-z
5 -x,-y,-z
6 1/2+x,y,1/2-z
7 1/2-x,1/2+y,z
8 x,1/2-y,1/2+z
_cell_length_a                   13.6950(9)
_cell_length_b                   6.0390(10)
_cell_length_c                   19.880(7)
_cell_angle_alpha                90
_cell_angle_beta                 90
_cell_angle_gamma                90
_cell_volume                     1644.16
_exptl_crystal_description       block
_cell_formula_units_Z            8
loop_
_atom_site_label
_atom_site_type_symbol
_atom_site_fract_x
_atom_site_fract_y
_atom_site_fract_z
O1 O 0.58130(7) 0.18136(19) 0.40159(5)
C1 C 0.65141(9) 0.5684(3) 0.52917(8)
C2 C 0.57326(10) 0.2172(3) 0.53734(7)
H1 H 0.6089 0.0799 0.5313
H2 H 0.5044 0.1907 0.5294
C3 C 0.59016(10) 0.3123(3) 0.60605(7)
C4 C 0.63622(9) 0.5151(3) 0.60051(8)
C5 C 0.61651(9) 0.3514(3) 0.42392(8)
N1 N 0.61096(8) 0.3918(2) 0.49286(6)
C6 C 0.66112(10) 0.6393(3) 0.65714(8)
H3 H 0.6924 0.7753 0.6531
O2 O 0.68940(7) 0.73252(17) 0.50538(6)
C7 C 0.63758(10) 0.5531(3) 0.71955(8)
H4 H 0.6536 0.6317 0.7582
C8 C 0.59015(10) 0.3499(3) 0.72515(8)
H5 H 0.5743 0.2959 0.7676
C9 C 0.66695(11) 0.5186(3) 0.38066(8)
H6 H 0.7347 0.5257 0.3927
H7 H 0.6374 0.6611 0.3872
H8 H 0.6611 0.4762 0.3343
C10 C 0.56615(10) 0.2265(3) 0.66883(8)
H9 H 0.5349 0.0904 0.6729
loop_
_geom_bond_atom_site_label_1
_geom_bond_atom_site_label_2
_geom_bond_site_symmetry_1
_geom_bond_site_symmetry_2
O1 C5 1_555 1_555
C1 C4 1_555 1_555
C2 H1 1_555 1_555
H2 C2 1_555 1_555
C3 C2 1_555 1_555
C4 C3 1_555 1_555
C5 N1 1_555 1_555
N1 C1 1_555 1_555
C6 C4 1_555 1_555
H3 C6 1_555 1_555
O2 C1 1_555 1_555
C7 C6 1_555 1_555
H4 C7 1_555 1_555
C8 C7 1_555 1_555
H5 C8 1_555 1_555
C9 C5 1_555 1_555
H6 C9 1_555 1_555
H7 C9 1_555 1_555
H8 C9 1_555 1_555
C10 C3 1_555 1_555
H9 C10 1_555 1_555
C2 N1 1_555 1_555
C8 C10 1_555 1_555

#END
