
#######################################################################
#
#                 Cambridge Crystallographic Data Centre
#                                CCDC 
#
#######################################################################
#
# If this CIF has been generated from an entry in the Cambridge 
# Structural Database, then it will include bibliographic, chemical, 
# crystal, experimental, refinement or atomic coordinate data resulting 
# from the CCDC's data processing and validation procedures.
#
#######################################################################

data_AMUZIT
_chemical_name_common            
'3 -hydroxy-16-(pyridin-3-yl)androsta-5,8(14),15-trien-17-one chloroform solvate'
_chemical_formula_moiety         'C24 H27 N1 O2,C1 H1 Cl3'
_chemical_name_systematic        
'3-hydroxy-16-(pyridin-3-yl)androsta-5,8(14),15-trien-17-one chloroform solvate'
_chemical_properties_biological  
'anticancer activity towards human tumor cell lines derived from various human cancer types: A549 (human lung carcinoma), SKOV3 (human ovarian carcinoma), MKN-45 (human gastric adenocarcinoma)'
_symmetry_cell_setting           orthorhombic
_symmetry_space_group_name_H-M   'P 21 21 21'
_symmetry_Int_Tables_number      19
_space_group_name_Hall           'P 2ac 2ab'
loop_
_symmetry_equiv_pos_site_id
_symmetry_equiv_pos_as_xyz
1 x,y,z
2 1/2-x,-y,1/2+z
3 -x,1/2+y,1/2-z
4 1/2+x,1/2-y,-z
_cell_length_a                   10.2737(5)
_cell_length_b                   12.2649(6)
_cell_length_c                   19.8590(11)
_cell_angle_alpha                90
_cell_angle_beta                 90
_cell_angle_gamma                90
_cell_volume                     2502.35
_exptl_crystal_colour            yellow
_exptl_crystal_description       block
_cell_formula_units_Z            4
loop_
_atom_site_label
_atom_site_type_symbol
_atom_site_fract_x
_atom_site_fract_y
_atom_site_fract_z
C1 C 0.5594(7) 0.1292(5) 0.0816(4)
H1 H 0.5941 0.1765 0.0469
H2 H 0.6215 0.1283 0.1184
C2 C 0.5483(9) 0.0135(5) 0.0530(3)
H3 H 0.4937 0.0144 0.0131
H4 H 0.6338 -0.0126 0.0401
C3 C 0.4903(8) -0.0619(5) 0.1047(3)
H5 H 0.5475 -0.0632 0.1442
C4 C 0.3583(7) -0.0205(5) 0.1261(4)
H6 H 0.2993 -0.0249 0.0881
H7 H 0.3245 -0.0676 0.1612
C5 C 0.3604(7) 0.0938(5) 0.1514(3)
C6 C 0.3014(7) 0.1219(5) 0.2080(3)
H8 H 0.2626 0.0661 0.2325
C7 C 0.2907(8) 0.2323(5) 0.2361(3)
H9 H 0.3355 0.2346 0.2791
H10 H 0.1996 0.2486 0.2443
C8 C 0.3469(7) 0.3187(5) 0.1907(3)
C9 C 0.4654(6) 0.2790(5) 0.1501(3)
H11 H 0.5289 0.2534 0.1834
C10 C 0.4296(7) 0.1788(5) 0.1077(3)
C11 C 0.5336(8) 0.3719(5) 0.1109(4)
H12 H 0.6254 0.3546 0.1066
H13 H 0.4972 0.3756 0.0659
C12 C 0.5203(7) 0.4833(5) 0.1441(4)
H14 H 0.5626 0.5383 0.1166
H15 H 0.5618 0.4826 0.1879
C13 C 0.3754(7) 0.5102(4) 0.1516(3)
C14 C 0.3128(7) 0.4238(5) 0.1929(3)
C15 C 0.2258(7) 0.4758(5) 0.2377(3)
H16 H 0.1646 0.4376 0.2629
C16 C 0.2383(7) 0.5847(5) 0.2409(3)
C17 C 0.3460(7) 0.6139(5) 0.1925(3)
C18 C 0.3374(9) 0.2080(6) 0.0483(3)
H17 H 0.2581 0.2382 0.0657
H18 H 0.3183 0.1434 0.0229
H19 H 0.3790 0.2605 0.0197
C19 C 0.3083(9) 0.5280(6) 0.0825(3)
H20 H 0.3208 0.4647 0.0548
H21 H 0.3456 0.5905 0.0607
H22 H 0.2168 0.5398 0.0892
C20 C 0.1666(7) 0.6620(5) 0.2829(3)
C21 C 0.1744(9) 0.7745(6) 0.2734(4)
H23 H 0.2289 0.8022 0.2402
C22 C 0.0253(10) 0.8065(7) 0.3638(5)
H24 H -0.0214 0.8546 0.3907
C23 C 0.0172(10) 0.6959(7) 0.3749(5)
H25 H -0.0351 0.6690 0.4093
C24 C 0.0881(9) 0.6242(6) 0.3342(4)
H26 H 0.0823 0.5495 0.3419
N1 N 0.1026(11) 0.8454(6) 0.3127(5)
O1 O 0.4852(6) -0.1684(4) 0.0769(2)
H27 H 0.4729 -0.2129 0.1070
O2 O 0.3932(6) 0.7027(3) 0.1842(3)
C25 C 0.9316(9) 0.7301(6) 0.0719(4)
H28 H 0.9526 0.7024 0.0268
Cl1 Cl 0.9531(5) 0.6275(3) 0.12864(17)
Cl2 Cl 0.7756(3) 0.7759(3) 0.07156(12)
Cl3 Cl 1.0352(6) 0.8377(4) 0.0902(3)
H29? H 0.2858 0.3024 0.1542
loop_
_geom_bond_atom_site_label_1
_geom_bond_atom_site_label_2
_geom_bond_site_symmetry_1
_geom_bond_site_symmetry_2
C1 H1 1_555 1_555
H2 C1 1_555 1_555
C2 C1 1_555 1_555
H3 C2 1_555 1_555
H4 C2 1_555 1_555
C3 C2 1_555 1_555
H5 C3 1_555 1_555
C4 C3 1_555 1_555
H6 C4 1_555 1_555
H7 C4 1_555 1_555
C5 C4 1_555 1_555
C6 C5 1_555 1_555
H8 C6 1_555 1_555
C7 C6 1_555 1_555
H9 C7 1_555 1_555
H10 C7 1_555 1_555
C8 C7 1_555 1_555
C9 C8 1_555 1_555
H11 C9 1_555 1_555
C10 C1 1_555 1_555
C11 C9 1_555 1_555
H12 C11 1_555 1_555
H13 C11 1_555 1_555
C12 C11 1_555 1_555
H14 C12 1_555 1_555
H15 C12 1_555 1_555
C13 C12 1_555 1_555
C14 C8 1_555 1_555
C15 C14 1_555 1_555
H16 C15 1_555 1_555
C16 C15 1_555 1_555
C17 C13 1_555 1_555
C18 C10 1_555 1_555
H17 C18 1_555 1_555
H18 C18 1_555 1_555
H19 C18 1_555 1_555
C19 C13 1_555 1_555
H20 C19 1_555 1_555
H21 C19 1_555 1_555
H22 C19 1_555 1_555
C20 C16 1_555 1_555
C21 C20 1_555 1_555
H23 C21 1_555 1_555
C22 H24 1_555 1_555
C23 C22 1_555 1_555
H25 C23 1_555 1_555
C24 C20 1_555 1_555
H26 C24 1_555 1_555
N1 C21 1_555 1_555
O1 C3 1_555 1_555
H27 O1 1_555 1_555
O2 C17 1_555 1_555
C25 H28 1_555 1_555
Cl1 C25 1_555 1_555
Cl2 C25 1_555 1_555
Cl3 C25 1_555 1_555
C5 C10 1_555 1_555
C9 C10 1_555 1_555
C13 C14 1_555 1_555
C16 C17 1_555 1_555
C22 N1 1_555 1_555
C23 C24 1_555 1_555

#END
