
#######################################################################
#
#                 Cambridge Crystallographic Data Centre
#                                CCDC 
#
#######################################################################
#
# If this CIF has been generated from an entry in the Cambridge 
# Structural Database, then it will include bibliographic, chemical, 
# crystal, experimental, refinement or atomic coordinate data resulting 
# from the CCDC's data processing and validation procedures.
#
#######################################################################

data_ANABIC
_chemical_formula_moiety         'C23 H31 O3 P1'
_chemical_name_systematic        
'2-isopropyl-5-methylcyclohexyl (hydroxy(phenyl)methyl)phenylphosphinate'
_symmetry_cell_setting           monoclinic
_symmetry_space_group_name_H-M   'P 21'
_symmetry_Int_Tables_number      4
_space_group_name_Hall           'P 2yb'
loop_
_symmetry_equiv_pos_site_id
_symmetry_equiv_pos_as_xyz
1 x,y,z
2 -x,1/2+y,-z
_cell_length_a                   12.8203(12)
_cell_length_b                   5.7696(5)
_cell_length_c                   15.0139(16)
_cell_angle_alpha                90
_cell_angle_beta                 102.0060(10)
_cell_angle_gamma                90
_cell_volume                     1086.26
_cell_formula_units_Z            2
loop_
_atom_site_label
_atom_site_type_symbol
_atom_site_fract_x
_atom_site_fract_y
_atom_site_fract_z
O1 O 0.14573(13) 0.6851(3) 0.76818(11)
O2 O 0.10986(15) 0.2890(3) 0.69138(13)
O3 O 0.05229(14) 0.9152(4) 0.58441(12)
H1 H 0.0867 0.9932 0.6260
P1 P 0.07831(6) 0.53396(15) 0.68972(5)
C1 C 0.1618(2) 0.6581(7) 1.02269(19)
H2 H 0.1450 0.4936 1.0282
C2 C 0.1245(2) 0.7288(6) 0.92256(18)
H3 H 0.0486 0.7001 0.9037
H4 H 0.1364 0.8936 0.9165
C3 C 0.1831(2) 0.5964(5) 0.86081(17)
H5 H 0.1651 0.4315 0.8622
C4 C 0.3022(2) 0.6242(5) 0.88843(18)
H6 H 0.3165 0.7907 0.8861
C5 C 0.3379(2) 0.5522(7) 0.98778(19)
H7 H 0.3244 0.3880 0.9934
H8 H 0.4141 0.5772 1.0069
C6 C 0.2808(3) 0.6865(8) 1.0501(2)
H9 H 0.3049 0.6325 1.1122
H10 H 0.2987 0.8495 1.0483
C7 C 0.1011(3) 0.7968(8) 1.0823(2)
H11 H 0.0260 0.7684 1.0629
H12 H 0.1150 0.9591 1.0767
H13 H 0.1242 0.7501 1.1447
C8 C 0.3651(2) 0.5066(7) 0.8241(2)
H14 H 0.3309 0.5514 0.7619
C9 C 0.3632(3) 0.2451(6) 0.8279(2)
H15 H 0.3991 0.1940 0.8873
H16 H 0.3987 0.1828 0.7829
H17 H 0.2907 0.1921 0.8161
C10 C 0.4800(2) 0.5956(7) 0.8408(3)
H18 H 0.5165 0.5244 0.7982
H19 H 0.5159 0.5575 0.9017
H20 H 0.4797 0.7608 0.8330
C11 C -0.0587(2) 0.5693(6) 0.69420(17)
C12 C -0.1298(2) 0.3970(7) 0.65763(19)
H21 H -0.1050 0.2656 0.6327
C13 C -0.2380(3) 0.4176(9) 0.6576(2)
H22 H -0.2854 0.3014 0.6326
C14 C -0.2737(3) 0.6104(9) 0.6948(3)
H23 H -0.3458 0.6240 0.6953
C15 C -0.2047(3) 0.7858(8) 0.7318(2)
H24 H -0.2298 0.9152 0.7577
C16 C -0.0973(2) 0.7659(6) 0.7297(2)
H25 H -0.0507 0.8856 0.7524
C17 C 0.0958(2) 0.6885(5) 0.58774(18)
H26 H 0.0530 0.6046 0.5360
C18 C 0.2095(2) 0.6741(6) 0.57615(19)
C19 C 0.2414(3) 0.4763(6) 0.5375(2)
H27 H 0.1921 0.3594 0.5174
C20 C 0.3457(3) 0.4502(7) 0.5283(2)
H28 H 0.3663 0.3170 0.5016
C21 C 0.4194(3) 0.6223(9) 0.5587(3)
H29 H 0.4901 0.6045 0.5538
C22 C 0.3874(3) 0.8185(8) 0.5960(2)
H30 H 0.4366 0.9361 0.6153
C23 C 0.2827(3) 0.8458(6) 0.6056(2)
H31 H 0.2623 0.9797 0.6318
loop_
_geom_bond_atom_site_label_1
_geom_bond_atom_site_label_2
_geom_bond_site_symmetry_1
_geom_bond_site_symmetry_2
O1 P1 1_555 1_555
O2 P1 1_555 1_555
O3 H1 1_555 1_555
P1 C11 1_555 1_555
C1 H2 1_555 1_555
C2 C1 1_555 1_555
H3 C2 1_555 1_555
H4 C2 1_555 1_555
C3 O1 1_555 1_555
H5 C3 1_555 1_555
C4 C3 1_555 1_555
H6 C4 1_555 1_555
C5 C4 1_555 1_555
H7 C5 1_555 1_555
H8 C5 1_555 1_555
C6 C1 1_555 1_555
H9 C6 1_555 1_555
H10 C6 1_555 1_555
C7 C1 1_555 1_555
H11 C7 1_555 1_555
H12 C7 1_555 1_555
H13 C7 1_555 1_555
C8 C4 1_555 1_555
H14 C8 1_555 1_555
C9 C8 1_555 1_555
H15 C9 1_555 1_555
H16 C9 1_555 1_555
H17 C9 1_555 1_555
C10 C8 1_555 1_555
H18 C10 1_555 1_555
H19 C10 1_555 1_555
H20 C10 1_555 1_555
C11 C12 1_555 1_555
C12 H21 1_555 1_555
C13 C12 1_555 1_555
H22 C13 1_555 1_555
C14 C13 1_555 1_555
H23 C14 1_555 1_555
C15 C14 1_555 1_555
H24 C15 1_555 1_555
C16 C11 1_555 1_555
H25 C16 1_555 1_555
C17 O3 1_555 1_555
H26 C17 1_555 1_555
C18 C17 1_555 1_555
C19 C18 1_555 1_555
H27 C19 1_555 1_555
C20 C19 1_555 1_555
H28 C20 1_555 1_555
C21 C20 1_555 1_555
H29 C21 1_555 1_555
C22 C21 1_555 1_555
H30 C22 1_555 1_555
C23 C18 1_555 1_555
H31 C23 1_555 1_555
P1 C17 1_555 1_555
C2 C3 1_555 1_555
C5 C6 1_555 1_555
C15 C16 1_555 1_555
C22 C23 1_555 1_555

#END
