
#######################################################################
#
#                 Cambridge Crystallographic Data Centre
#                                CCDC 
#
#######################################################################
#
# If this CIF has been generated from an entry in the Cambridge 
# Structural Database, then it will include bibliographic, chemical, 
# crystal, experimental, refinement or atomic coordinate data resulting 
# from the CCDC's data processing and validation procedures.
#
#######################################################################

data_ANAREN
_chemical_formula_moiety         'C17 H26 N2 O2 S1'
_chemical_name_systematic        
'2-Benzyl-5-methyl-5-(4-methylpent-3-en-1-yl)-1,2,6-thiadiazinane 1,1-dioxide'
_symmetry_cell_setting           orthorhombic
_symmetry_space_group_name_H-M   'P 21 21 21'
_symmetry_Int_Tables_number      19
_space_group_name_Hall           'P 2ac 2ab'
loop_
_symmetry_equiv_pos_site_id
_symmetry_equiv_pos_as_xyz
1 x,y,z
2 1/2-x,-y,1/2+z
3 1/2+x,1/2-y,-z
4 -x,1/2+y,1/2-z
_cell_length_a                   6.4600(4)
_cell_length_b                   9.8441(4)
_cell_length_c                   28.4411(14)
_cell_angle_alpha                90
_cell_angle_beta                 90
_cell_angle_gamma                90
_cell_volume                     1808.65
_cell_formula_units_Z            4
loop_
_atom_site_label
_atom_site_type_symbol
_atom_site_fract_x
_atom_site_fract_y
_atom_site_fract_z
C1 C 1.3554(15) 0.7790(10) 0.5500(3)
H1 H 1.3045 0.8396 0.5262
H2 H 1.4856 0.7416 0.5401
H3 H 1.3739 0.8280 0.5788
N1 N 0.8233(5) 0.8036(3) 0.78852(10)
O1 O 1.1023(3) 0.70936(19) 0.74051(9)
S1 S 1.03212(11) 0.83694(7) 0.75831(3)
C2 C 1.2277(14) 0.5491(6) 0.52414(19)
H4 H 1.1228 0.4826 0.5307
H5 H 1.3619 0.5090 0.5283
H6 H 1.2136 0.5803 0.4923
N2 N 0.9656(4) 0.9292(2) 0.71367(8)
H7 H 0.9649 1.0201 0.7229
O2 O 1.1676(4) 0.9171(3) 0.78635(9)
C3 C 1.2039(10) 0.6672(6) 0.55732(15)
C4 C 1.0632(12) 0.6746(5) 0.58832(17)
H8 H 0.9716 0.6019 0.5900
C5 C 1.0289(10) 0.7881(5) 0.62255(17)
H9 H 1.0140 0.8726 0.6053
H10 H 1.1495 0.7963 0.6426
C6 C 0.8398(7) 0.7669(4) 0.65277(13)
H11 H 0.8619 0.6866 0.6719
H12 H 0.7231 0.7485 0.6323
C7 C 0.7815(6) 0.8848(3) 0.68542(13)
C8 C 0.7211(8) 1.0091(4) 0.65612(15)
H13 H 0.7008 1.0856 0.6765
H14 H 0.5952 0.9904 0.6394
H15 H 0.8295 1.0290 0.6341
C9 C 0.6033(5) 0.8467(4) 0.71742(16)
H16 H 0.4950 0.8057 0.6985
H17 H 0.5472 0.9292 0.7311
C10 C 0.6590(5) 0.7484(3) 0.75743(14)
H18 H 0.5361 0.7302 0.7760
H19 H 0.7056 0.6631 0.7441
C11 C 0.7517(8) 0.9058(4) 0.82248(14)
H20 H 0.6490 0.9636 0.8077
H21 H 0.8674 0.9625 0.8319
C12 C 0.6599(6) 0.8404(4) 0.86491(12)
C13 C 0.4649(8) 0.8770(6) 0.87923(15)
H22 H 0.3893 0.9400 0.8620
C14 C 0.3802(12) 0.8195(9) 0.9197(3)
H23 H 0.2499 0.8467 0.9299
C15 C 0.484(2) 0.7264(9) 0.9438(3)
H24 H 0.4246 0.6874 0.9704
C16 C 0.6745(18) 0.6879(6) 0.9301(2)
H25 H 0.7468 0.6225 0.9471
C17 C 0.7638(10) 0.7472(5) 0.88993(16)
H26 H 0.8961 0.7215 0.8806
loop_
_geom_bond_atom_site_label_1
_geom_bond_atom_site_label_2
_geom_bond_site_symmetry_1
_geom_bond_site_symmetry_2
C1 H1 1_555 1_555
H2 C1 1_555 1_555
H3 C1 1_555 1_555
N1 S1 1_555 1_555
O1 S1 1_555 1_555
S1 N2 1_555 1_555
C2 H4 1_555 1_555
H5 C2 1_555 1_555
H6 C2 1_555 1_555
N2 H7 1_555 1_555
O2 S1 1_555 1_555
C3 C1 1_555 1_555
C4 C3 1_555 1_555
H8 C4 1_555 1_555
C5 C4 1_555 1_555
H9 C5 1_555 1_555
H10 C5 1_555 1_555
C6 C5 1_555 1_555
H11 C6 1_555 1_555
H12 C6 1_555 1_555
C7 N2 1_555 1_555
C8 C7 1_555 1_555
H13 C8 1_555 1_555
H14 C8 1_555 1_555
H15 C8 1_555 1_555
C9 C7 1_555 1_555
H16 C9 1_555 1_555
H17 C9 1_555 1_555
C10 N1 1_555 1_555
H18 C10 1_555 1_555
H19 C10 1_555 1_555
C11 N1 1_555 1_555
H20 C11 1_555 1_555
H21 C11 1_555 1_555
C12 C11 1_555 1_555
C13 C12 1_555 1_555
H22 C13 1_555 1_555
C14 C13 1_555 1_555
H23 C14 1_555 1_555
C15 C14 1_555 1_555
H24 C15 1_555 1_555
C16 C15 1_555 1_555
H25 C16 1_555 1_555
C17 C12 1_555 1_555
H26 C17 1_555 1_555
C2 C3 1_555 1_555
C6 C7 1_555 1_555
C9 C10 1_555 1_555
C16 C17 1_555 1_555

#END
