
#######################################################################
#
#                 Cambridge Crystallographic Data Centre
#                                CCDC 
#
#######################################################################
#
# If this CIF has been generated from an entry in the Cambridge 
# Structural Database, then it will include bibliographic, chemical, 
# crystal, experimental, refinement or atomic coordinate data resulting 
# from the CCDC's data processing and validation procedures.
#
#######################################################################

data_ANDION11
_chemical_formula_moiety         'C19 H28 O2'
_chemical_name_systematic        5\a-Androstane-3,17-dione
_symmetry_cell_setting           monoclinic
_symmetry_space_group_name_H-M   'C 2'
_symmetry_Int_Tables_number      5
_space_group_name_Hall           'C 2y'
loop_
_symmetry_equiv_pos_site_id
_symmetry_equiv_pos_as_xyz
1 x,y,z
2 -x,y,-z
3 1/2+x,1/2+y,z
4 1/2-x,1/2+y,-z
_cell_length_a                   12.7786(6)
_cell_length_b                   6.7850(4)
_cell_length_c                   19.6242(10)
_cell_angle_alpha                90
_cell_angle_beta                 106.444(5)
_cell_angle_gamma                90
_cell_volume                     1631.88
_exptl_crystal_colour            colorless
_exptl_crystal_description       plate
_chemical_melting_point          '373-375 K'
_cell_formula_units_Z            4
_exptl_crystal_recrystallization_method acetone
loop_
_atom_site_label
_atom_site_type_symbol
_atom_site_fract_x
_atom_site_fract_y
_atom_site_fract_z
O1 O 0.24755(15) -0.2050(4) 0.04123(10)
O2 O 0.70862(13) 0.4649(3) 0.51542(8)
C1 C 0.42695(14) 0.2013(3) 0.18578(9)
C2 C 0.31200(15) 0.1301(4) 0.18422(10)
H1 H 0.3186 0.0144 0.2141
H2 H 0.2764 0.2322 0.2042
C3 C 0.23997(15) 0.0794(4) 0.10955(11)
H3 H 0.1721 0.0225 0.1131
H4 H 0.2226 0.1994 0.0818
C4 C 0.29440(18) -0.0622(4) 0.07223(11)
C5 C 0.40981(16) -0.0152(4) 0.07567(10)
H5 H 0.4108 0.0940 0.0439
H6 H 0.4423 -0.1282 0.0592
C6 C 0.47906(15) 0.0392(3) 0.15109(10)
H7 H 0.4821 -0.0793 0.1801
C7 C 0.59602(15) 0.0857(4) 0.15289(10)
H8 H 0.5971 0.2011 0.1239
H9 H 0.6262 -0.0240 0.1329
C8 C 0.66634(15) 0.1239(4) 0.22867(10)
H10 H 0.7380 0.1673 0.2273
H11 H 0.6754 0.0013 0.2551
C9 C 0.61800(14) 0.2786(3) 0.26770(10)
H12 H 0.6179 0.4062 0.2442
C10 C 0.49888(15) 0.2242(3) 0.26409(9)
H13 H 0.5024 0.0928 0.2853
C11 C 0.44999(15) 0.3593(4) 0.31000(10)
H14 H 0.4379 0.4889 0.2883
H15 H 0.3797 0.3071 0.3108
C12 C 0.52271(16) 0.3798(4) 0.38663(10)
H16 H 0.4908 0.4743 0.4120
H17 H 0.5279 0.2539 0.4108
C13 C 0.63549(15) 0.4483(3) 0.38639(9)
C14 C 0.68430(14) 0.2984(4) 0.34512(10)
H18 H 0.6812 0.1698 0.3672
C15 C 0.80574(15) 0.3562(4) 0.36433(11)
H19 H 0.8504 0.2457 0.3583
H20 H 0.8172 0.4654 0.3354
C16 C 0.83153(18) 0.4161(5) 0.44290(11)
H21 H 0.8722 0.3128 0.4732
H22 H 0.8744 0.5362 0.4517
C17 C 0.72336(18) 0.4479(4) 0.45736(11)
C18 C 0.41689(15) 0.3991(3) 0.14581(8)
H23 H 0.3770 0.3796 0.0969
H24 H 0.4884 0.4484 0.1486
H25 H 0.3790 0.4923 0.1670
C19 C 0.63290(18) 0.6613(3) 0.35832(8)
H26 H 0.6002 0.7465 0.3856
H27 H 0.5909 0.6651 0.3093
H28 H 0.7060 0.7046 0.3626
loop_
_geom_bond_atom_site_label_1
_geom_bond_atom_site_label_2
_geom_bond_site_symmetry_1
_geom_bond_site_symmetry_2
O1 C4 1_555 1_555
O2 C17 1_555 1_555
C1 C2 1_555 1_555
C2 H1 1_555 1_555
H2 C2 1_555 1_555
C3 C2 1_555 1_555
H3 C3 1_555 1_555
H4 C3 1_555 1_555
C4 C3 1_555 1_555
C5 C4 1_555 1_555
H5 C5 1_555 1_555
H6 C5 1_555 1_555
C6 C1 1_555 1_555
H7 C6 1_555 1_555
C7 C6 1_555 1_555
H8 C7 1_555 1_555
H9 C7 1_555 1_555
C8 C7 1_555 1_555
H10 C8 1_555 1_555
H11 C8 1_555 1_555
C9 C8 1_555 1_555
H12 C9 1_555 1_555
C10 C1 1_555 1_555
H13 C10 1_555 1_555
C11 C10 1_555 1_555
H14 C11 1_555 1_555
H15 C11 1_555 1_555
C12 C11 1_555 1_555
H16 C12 1_555 1_555
H17 C12 1_555 1_555
C13 C12 1_555 1_555
C14 C9 1_555 1_555
H18 C14 1_555 1_555
C15 C14 1_555 1_555
H19 C15 1_555 1_555
H20 C15 1_555 1_555
C16 C15 1_555 1_555
H21 C16 1_555 1_555
H22 C16 1_555 1_555
C17 C13 1_555 1_555
C18 C1 1_555 1_555
H23 C18 1_555 1_555
H24 C18 1_555 1_555
H25 C18 1_555 1_555
C19 C13 1_555 1_555
H26 C19 1_555 1_555
H27 C19 1_555 1_555
H28 C19 1_555 1_555
C5 C6 1_555 1_555
C9 C10 1_555 1_555
C13 C14 1_555 1_555
C16 C17 1_555 1_555

#END
