
#######################################################################
#
#                 Cambridge Crystallographic Data Centre
#                                CCDC 
#
#######################################################################
#
# If this CIF has been generated from an entry in the Cambridge 
# Structural Database, then it will include bibliographic, chemical, 
# crystal, experimental, refinement or atomic coordinate data resulting 
# from the CCDC's data processing and validation procedures.
#
#######################################################################

data_ANETAQ
_chemical_name_common            
'5,16-dimesityl-10,11,21,22-tetradehydro[20]porphyrin(2.1.2.1) chloroform solvate'
_chemical_formula_moiety         'C40 H32 N4,2(C1 H1 Cl3)'
_chemical_name_systematic        
'2,13-dimesityl-23,24,25,26-tetraazapentacyclo[18.2.1.1^3,6^.1^9,12^.1^14,17^]hexacosa-1,3,5,9(25),10,12,14,16,20(23),21-decaene-7,18-diyne chloroform solvate'
_symmetry_cell_setting           monoclinic
_symmetry_space_group_name_H-M   'P 21/n'
_symmetry_Int_Tables_number      14
_space_group_name_Hall           '-P 2yn'
loop_
_symmetry_equiv_pos_site_id
_symmetry_equiv_pos_as_xyz
1 x,y,z
2 1/2-x,1/2+y,1/2-z
3 -x,-y,-z
4 1/2+x,1/2-y,1/2+z
_cell_length_a                   13.170(5)
_cell_length_b                   9.418(3)
_cell_length_c                   15.367(5)
_cell_angle_alpha                90
_cell_angle_beta                 90.015(15)
_cell_angle_gamma                90
_cell_volume                     1906.05
_exptl_crystal_colour            brown
_exptl_crystal_description       Prism
_cell_formula_units_Z            2
loop_
_atom_site_label
_atom_site_type_symbol
_atom_site_fract_x
_atom_site_fract_y
_atom_site_fract_z
C1 C 0.24755(16) 0.5397(2) 0.49646(14)
C2 C 0.54243(16) 0.1872(2) 0.42186(14)
C3 C 0.14527(17) 0.5084(2) 0.48348(16)
H1 H 0.0893 0.5683 0.4966
C4 C 0.42882(16) 0.0237(2) 0.38091(15)
H2 H 0.3960 -0.0603 0.3614
C5 C 0.30274(16) 0.6573(2) 0.52961(14)
C6 C 0.53044(17) 0.0429(2) 0.39054(15)
H3 H 0.5827 -0.0241 0.3791
C7 C 0.15522(16) -0.0046(2) 0.45167(15)
C8 C 0.23974(16) 0.3212(2) 0.43873(14)
C9 C 0.63198(17) 0.2634(2) 0.44584(15)
C10 C 0.38021(16) 0.1547(2) 0.40577(14)
C11 C 0.20117(16) 0.0752(2) 0.38562(15)
C12 C 0.22462(19) 0.1364(3) 0.22605(16)
H4 H 0.2910 0.0960 0.2113
H5 H 0.2333 0.2348 0.2454
H6 H 0.1805 0.1342 0.1747
C13 C 0.27764(16) 0.1865(2) 0.40952(14)
C14 C 0.14049(17) 0.3719(2) 0.44755(16)
H7 H 0.0803 0.3224 0.4319
C15 C 0.10811(17) -0.0565(2) 0.27784(15)
H8 H 0.0921 -0.0743 0.2185
C16 C 0.18105(18) 0.0185(3) 0.54624(15)
H9 H 0.1291 -0.0262 0.5828
H10 H 0.1834 0.1205 0.5585
H11 H 0.2474 -0.0240 0.5589
C17 C 0.17702(17) 0.0505(2) 0.29805(15)
C18 C 0.06174(16) -0.1386(2) 0.34239(16)
C19 C -0.01074(19) -0.2561(3) 0.31837(17)
H12 H 0.0277 -0.3380 0.2968
H13 H -0.0571 -0.2227 0.2729
H14 H -0.0499 -0.2841 0.3698
C20 C 0.08595(17) -0.1101(2) 0.42837(16)
H15 H 0.0543 -0.1642 0.4730
N1 N 0.30264(14) 0.42627(19) 0.46862(12)
H16 H 0.3693 0.4211 0.4697
N2 N 0.45441(13) 0.2533(2) 0.43029(12)
C1B C 0.75245(16) 0.4603(2) 0.50354(14)
C2B C 0.45757(16) 0.8128(2) 0.57814(14)
C3B C 0.85473(17) 0.4916(2) 0.51652(16)
H1B H 0.9107 0.4317 0.5034
C4B C 0.57118(16) 0.9763(2) 0.61909(15)
H2B H 0.6040 1.0603 0.6386
C5B C 0.69726(16) 0.3427(2) 0.47039(14)
C6B C 0.46956(17) 0.9571(2) 0.60946(15)
H3B H 0.4173 1.0241 0.6209
C7B C 0.84478(16) 1.0046(2) 0.54833(15)
C8B C 0.76026(16) 0.6788(2) 0.56127(14)
C9B C 0.36802(17) 0.7366(2) 0.55416(15)
C10B C 0.61979(16) 0.8453(2) 0.59423(14)
C11B C 0.79883(16) 0.9248(2) 0.61438(15)
C12B C 0.77538(19) 0.8636(3) 0.77395(16)
H4B H 0.7090 0.9040 0.7887
H5B H 0.7667 0.7652 0.7546
H6B H 0.8195 0.8658 0.8253
C13B C 0.72236(16) 0.8135(2) 0.59048(14)
C14B C 0.85951(17) 0.6281(2) 0.55245(16)
H7B H 0.9197 0.6776 0.5681
C15B C 0.89189(17) 1.0565(2) 0.72216(15)
H8B H 0.9079 1.0743 0.7815
C16B C 0.81895(18) 0.9815(3) 0.45376(15)
H9B H 0.8709 1.0262 0.4172
H10B H 0.8166 0.8795 0.4415
H11B H 0.7526 1.0240 0.4411
C17B C 0.82298(17) 0.9495(2) 0.70195(15)
C18B C 0.93826(16) 1.1386(2) 0.65761(16)
C19B C 1.01074(19) 1.2561(3) 0.68163(17)
H12B H 0.9723 1.3380 0.7032
H13B H 1.0571 1.2227 0.7271
H14B H 1.0499 1.2841 0.6302
C20B C 0.91405(17) 1.1101(2) 0.57163(16)
H15B H 0.9457 1.1642 0.5270
N1B N 0.69736(14) 0.57373(19) 0.53138(12)
H16B H 0.6307 0.5789 0.5303
N2B N 0.54559(13) 0.7467(2) 0.56971(12)
C21 C 0.3955(2) 0.3547(3) 0.73783(17)
H17 H 0.4292 0.4354 0.7686
Cl1 Cl 0.45460(5) 0.33269(7) 0.63610(4)
Cl2 Cl 0.40919(7) 0.20108(9) 0.80214(5)
Cl3 Cl 0.26736(6) 0.39652(13) 0.72465(6)
loop_
_geom_bond_atom_site_label_1
_geom_bond_atom_site_label_2
_geom_bond_site_symmetry_1
_geom_bond_site_symmetry_2
C1 C3 1_555 1_555
C2 C6 1_555 1_555
C3 H1 1_555 1_555
C4 H2 1_555 1_555
C5 C1 1_555 1_555
C6 C4 1_555 1_555
H3 C6 1_555 1_555
C7 C11 1_555 1_555
C8 C13 1_555 1_555
C9 C2 1_555 1_555
C10 C4 1_555 1_555
C11 C13 1_555 1_555
C12 H4 1_555 1_555
H5 C12 1_555 1_555
H6 C12 1_555 1_555
C13 C10 1_555 1_555
C14 C3 1_555 1_555
H7 C14 1_555 1_555
C15 H8 1_555 1_555
C16 C7 1_555 1_555
H9 C16 1_555 1_555
H10 C16 1_555 1_555
H11 C16 1_555 1_555
C17 C11 1_555 1_555
C18 C15 1_555 1_555
C19 C18 1_555 1_555
H12 C19 1_555 1_555
H13 C19 1_555 1_555
H14 C19 1_555 1_555
C20 C7 1_555 1_555
H15 C20 1_555 1_555
N1 C1 1_555 1_555
H16 N1 1_555 1_555
N2 C2 1_555 1_555
C21 H17 1_555 1_555
Cl1 C21 1_555 1_555
Cl2 C21 1_555 1_555
Cl3 C21 1_555 1_555
C1B C3B 1_555 1_555
C2B C6B 1_555 1_555
C3B H1B 1_555 1_555
C4B H2B 1_555 1_555
C5B C9 1_555 1_555
C6B C4B 1_555 1_555
H3B C6B 1_555 1_555
C7B C11B 1_555 1_555
C8B C13B 1_555 1_555
C9B C5 1_555 1_555
C10B C4B 1_555 1_555
C11B C13B 1_555 1_555
C12B H4B 1_555 1_555
H5B C12B 1_555 1_555
H6B C12B 1_555 1_555
C13B C10B 1_555 1_555
C14B C3B 1_555 1_555
H7B C14B 1_555 1_555
C15B H8B 1_555 1_555
C16B C7B 1_555 1_555
H9B C16B 1_555 1_555
H10B C16B 1_555 1_555
H11B C16B 1_555 1_555
C17B C11B 1_555 1_555
C18B C15B 1_555 1_555
C19B C18B 1_555 1_555
H12B C19B 1_555 1_555
H13B C19B 1_555 1_555
H14B C19B 1_555 1_555
C20B C7B 1_555 1_555
H15B C20B 1_555 1_555
N1B C1B 1_555 1_555
H16B N1B 1_555 1_555
N2B C2B 1_555 1_555
C8 C14 1_555 1_555
C8 N1 1_555 1_555
C10 N2 1_555 1_555
C12 C17 1_555 1_555
C15 C17 1_555 1_555
C18 C20 1_555 1_555
C1B C5B 1_555 1_555
C2B C9B 1_555 1_555
C8B C14B 1_555 1_555
C8B N1B 1_555 1_555
C10B N2B 1_555 1_555
C12B C17B 1_555 1_555
C15B C17B 1_555 1_555
C18B C20B 1_555 1_555

#END
