
#######################################################################
#
#                 Cambridge Crystallographic Data Centre
#                                CCDC 
#
#######################################################################
#
# If this CIF has been generated from an entry in the Cambridge 
# Structural Database, then it will include bibliographic, chemical, 
# crystal, experimental, refinement or atomic coordinate data resulting 
# from the CCDC's data processing and validation procedures.
#
#######################################################################

data_ANETUK
_chemical_name_common            
(E)-5,16-dimesityl-10,11-bisdehydroporphyrin(2.1.2.1)
_chemical_formula_moiety         'C40 H38 N4'
_chemical_name_systematic        
(E)-2,13-dimesityl-23,24,25,26-tetraazapentacyclo[18.2.1.1^3,6^.1^9,12^.1^14,17^]hexacosa-1,3,5,7,9(25),10,12,14,16,20(23),21-undecaene
_symmetry_cell_setting           triclinic
_symmetry_space_group_name_H-M   'P -1'
_symmetry_Int_Tables_number      2
_space_group_name_Hall           '-P 1'
loop_
_symmetry_equiv_pos_site_id
_symmetry_equiv_pos_as_xyz
1 x,y,z
2 -x,-y,-z
_cell_length_a                   11.679(4)
_cell_length_b                   11.685(3)
_cell_length_c                   13.048(5)
_cell_angle_alpha                93.232(4)
_cell_angle_beta                 114.221(14)
_cell_angle_gamma                93.519(8)
_cell_volume                     1614.32
_exptl_crystal_colour            green
_exptl_crystal_description       Prism
_cell_formula_units_Z            2
loop_
_atom_site_label
_atom_site_type_symbol
_atom_site_fract_x
_atom_site_fract_y
_atom_site_fract_z
C1 C 0.785(2) 0.529(2) 0.238(2)
H1 H 0.6997 0.5286 0.1865
C2 C 0.88037(12) 0.48509(11) 0.20447(11)
C3 C 0.88510(13) 0.46937(12) 0.09954(11)
H2 H 0.8201 0.4818 0.0288
C4 C 1.00251(13) 0.43203(11) 0.11708(11)
H3 H 1.0319 0.4147 0.0605
C5 C 1.06920(12) 0.42481(11) 0.23319(11)
C6 C 1.19321(12) 0.39411(11) 0.29911(11)
C7 C 1.23799(12) 0.38786(11) 0.41450(11)
C8 C 1.36231(13) 0.36761(13) 0.49499(12)
H4 H 1.4331 0.3542 0.4791
C9 C 1.35840(14) 0.37148(15) 0.59726(12)
H5 H 1.4262 0.3619 0.6673
C10 C 1.23135(13) 0.39292(13) 0.57972(11)
C11 C 1.1716(5) 0.4293(4) 0.6503(4)
H6 H 1.0823 0.4233 0.6119
C12 C 1.27533(12) 0.36956(11) 0.23951(11)
C13 C 1.29806(15) 0.25569(12) 0.21964(12)
C14 C 1.37427(16) 0.23528(13) 0.16371(14)
H7 H 1.3909 0.1583 0.1514
C15 C 1.42726(14) 0.32305(14) 0.12498(13)
C16 C 1.40367(13) 0.43472(13) 0.14588(12)
H8 H 1.4398 0.4960 0.1206
C17 C 1.32910(12) 0.46015(12) 0.20248(11)
C18 C 1.24051(19) 0.15602(13) 0.25686(16)
H9 H 1.2477 0.0838 0.2188
H10 H 1.1514 0.1655 0.2372
H11 H 1.2852 0.1540 0.3387
C19 C 1.50844(18) 0.29742(17) 0.06326(16)
H12 H 1.5154 0.3634 0.0224
H13 H 1.4701 0.2293 0.0096
H14 H 1.5926 0.2829 0.1177
C20 C 1.30878(14) 0.58286(12) 0.22447(13)
H15 H 1.3587 0.6338 0.1979
H16 H 1.3352 0.6011 0.3056
H17 H 1.2192 0.5939 0.1842
N1 N 0.99113(10) 0.45735(9) 0.28254(9)
H18 H 1.0107 0.4598 0.3554
N2 N 1.16159(10) 0.40229(9) 0.47242(9)
C1A C 1.215(2) 0.471(2) 0.762(2)
H1A H 1.3003 0.4714 0.8135
C2A C 1.11963(12) 0.51491(11) 0.79553(11)
C3A C 1.11490(13) 0.53063(12) 0.90046(11)
H2A H 1.1799 0.5182 0.9712
C4A C 0.99749(13) 0.56797(11) 0.88292(11)
H3A H 0.9681 0.5853 0.9395
C5A C 0.93080(12) 0.57519(11) 0.76681(11)
C6A C 0.80679(12) 0.60589(11) 0.70089(11)
C7A C 0.76201(12) 0.61214(11) 0.58550(11)
C8A C 0.63769(13) 0.63239(13) 0.50501(12)
H4A H 0.5669 0.6458 0.5209
C9A C 0.64160(14) 0.62852(15) 0.40274(12)
H5A H 0.5738 0.6381 0.3327
C10A C 0.76865(13) 0.60708(13) 0.42028(11)
C11A C 0.8284(5) 0.5707(4) 0.3497(4)
H6A H 0.9177 0.5767 0.3881
C12A C 0.72467(12) 0.63044(11) 0.76049(11)
C13A C 0.70194(15) 0.74431(12) 0.78036(12)
C14A C 0.62573(16) 0.76472(13) 0.83629(14)
H7A H 0.6091 0.8417 0.8486
C15A C 0.57274(14) 0.67695(14) 0.87502(13)
C16A C 0.59633(13) 0.56528(13) 0.85412(12)
H8A H 0.5602 0.5040 0.8794
C17A C 0.67090(12) 0.53985(12) 0.79752(11)
C18A C 0.75949(19) 0.84398(13) 0.74314(16)
H9A H 0.7523 0.9162 0.7812
H10A H 0.8486 0.8345 0.7628
H11A H 0.7148 0.8460 0.6613
C19A C 0.49156(18) 0.70258(17) 0.93674(16)
H12A H 0.4846 0.6366 0.9776
H13A H 0.5299 0.7707 0.9904
H14A H 0.4074 0.7171 0.8823
C20A C 0.69122(14) 0.41714(12) 0.77553(13)
H15A H 0.6413 0.3662 0.8021
H16A H 0.6648 0.3989 0.6944
H17A H 0.7808 0.4061 0.8158
N1A N 1.00887(10) 0.54265(9) 0.71746(9)
H18A H 0.9893 0.5402 0.6446
N2A N 0.83841(10) 0.59771(9) 0.52758(9)
C23 C 0.6863(4) 0.0888(4) -0.0119(4)
H23 H 0.6186 0.0302 -0.0334
C24 C 0.75588(14) 0.10546(13) 0.11098(12)
C25 C 0.85460(14) 0.18539(12) 0.18763(12)
H24 H 0.9120 0.2330 0.1704
C26 C 0.85138(13) 0.18084(12) 0.29141(12)
H25 H 0.9067 0.2243 0.3595
C27 C 0.74993(13) 0.09898(12) 0.27805(11)
C28 C 0.70402(13) 0.06293(11) 0.35649(11)
C29 C 0.59157(13) -0.00849(11) 0.32418(11)
C30 C 0.53200(14) -0.05360(12) 0.39060(12)
H26 H 0.5639 -0.0448 0.4706
C31 C 0.41975(13) -0.11236(12) 0.31789(12)
H27 H 0.3593 -0.1515 0.3380
C32 C 0.41109(13) -0.10343(11) 0.20649(12)
C33 C 0.3082(18) -0.1320(11) 0.0996(16)
H28 H 0.2372 -0.1815 0.0925
C34 C 0.77981(13) 0.10119(12) 0.47844(11)
C35 C 0.85578(14) 0.02375(12) 0.54850(12)
C36 C 0.93054(14) 0.06076(13) 0.66111(12)
H29 H 0.9813 0.0083 0.7091
C37 C 0.93297(14) 0.17215(13) 0.70520(12)
C38 C 0.85669(14) 0.24686(12) 0.63422(12)
H30 H 0.8577 0.3234 0.6635
C39 C 0.77872(14) 0.21352(12) 0.52145(12)
C40 C 0.85892(15) -0.09699(13) 0.50329(13)
H31 H 0.8987 -0.0944 0.4502
H32 H 0.7726 -0.1338 0.4643
H33 H 0.9075 -0.1413 0.5659
C41 C 1.01576(18) 0.20937(16) 0.82757(14)
H34 H 1.0063 0.2902 0.8442
H35 H 1.1040 0.2007 0.8424
H36 H 0.9908 0.1614 0.8756
C42 C 0.69313(16) 0.29647(13) 0.44909(14)
H37 H 0.6914 0.3634 0.4970
H38 H 0.6077 0.2581 0.4089
H39 H 0.7247 0.3217 0.3943
N3 N 0.69541(11) 0.05562(10) 0.16645(9)
H40 H 0.6307 0.0031 0.1364
N4 N 0.51490(11) -0.04265(10) 0.21197(10)
C23A C 0.3137(4) -0.0888(4) 0.0119(4)
H23A H 0.3814 -0.0302 0.0334
C24A C 0.24412(14) -0.10546(13) -0.11098(12)
C25A C 0.14540(14) -0.18539(12) -0.18763(12)
H24A H 0.0880 -0.2330 -0.1704
C26A C 0.14862(13) -0.18084(12) -0.29141(12)
H25A H 0.0933 -0.2243 -0.3595
C27A C 0.25007(13) -0.09898(12) -0.27805(11)
C28A C 0.29598(13) -0.06293(11) -0.35649(11)
C29A C 0.40843(13) 0.00849(11) -0.32418(11)
C30A C 0.46800(14) 0.05360(12) -0.39060(12)
H26A H 0.4361 0.0448 -0.4706
C31A C 0.58025(13) 0.11236(12) -0.31789(12)
H27A H 0.6407 0.1515 -0.3380
C32A C 0.58891(13) 0.10343(11) -0.20649(12)
C33A C 0.6918(18) 0.1320(11) -0.0996(16)
H28A H 0.7628 0.1815 -0.0925
C34A C 0.22019(13) -0.10119(12) -0.47844(11)
C35A C 0.14422(14) -0.02375(12) -0.54850(12)
C36A C 0.06946(14) -0.06076(13) -0.66111(12)
H29A H 0.0187 -0.0083 -0.7091
C37A C 0.06703(14) -0.17215(13) -0.70520(12)
C38A C 0.14331(14) -0.24686(12) -0.63422(12)
H30A H 0.1423 -0.3234 -0.6635
C39A C 0.22128(14) -0.21352(12) -0.52145(12)
C40A C 0.14108(15) 0.09699(13) -0.50329(13)
H31A H 0.1013 0.0944 -0.4502
H32A H 0.2274 0.1338 -0.4643
H33A H 0.0925 0.1413 -0.5659
C41A C -0.01576(18) -0.20937(16) -0.82757(14)
H34A H -0.0063 -0.2902 -0.8442
H35A H -0.1040 -0.2007 -0.8424
H36A H 0.0092 -0.1614 -0.8756
C42A C 0.30687(16) -0.29647(13) -0.44909(14)
H37A H 0.3086 -0.3634 -0.4970
H38A H 0.3923 -0.2581 -0.4089
H39A H 0.2753 -0.3217 -0.3943
N3A N 0.30459(11) -0.05562(10) -0.16645(9)
H40A H 0.3693 -0.0031 -0.1364
N4A N 0.48510(11) 0.04265(10) -0.21197(10)
C21? C 1.1718(4) 0.3824(4) 0.6650(4)
H19? H 1.0790 0.3788 0.6239
H20? H 1.1927 0.3094 0.7005
C22? C 0.785(2) 0.520(2) 0.245(2)
H21? H 0.7114 0.5424 0.1797
H22? H 0.7559 0.4530 0.2735
C43? C 0.7315(4) 0.0592(4) -0.0061(4)
H41? H 0.6655 -0.0064 -0.0311
H42? H 0.8094 0.0309 -0.0067
C44? C 0.3133(18) -0.1573(11) 0.0909(16)
H43? H 0.2399 -0.1953 0.0993
H44? H 0.3511 -0.2164 0.0603
loop_
_geom_bond_atom_site_label_1
_geom_bond_atom_site_label_2
_geom_bond_site_symmetry_1
_geom_bond_site_symmetry_2
C1 H1 1_555 1_555
C2 C1 1_555 1_555
C3 C2 1_555 1_555
H2 C3 1_555 1_555
C4 C3 1_555 1_555
H3 C4 1_555 1_555
C5 C4 1_555 1_555
C6 C5 1_555 1_555
C7 C6 1_555 1_555
C8 C7 1_555 1_555
H4 C8 1_555 1_555
C9 C8 1_555 1_555
H5 C9 1_555 1_555
C10 C9 1_555 1_555
C11 C10 1_555 1_555
H6 C11 1_555 1_555
C12 C6 1_555 1_555
C13 C12 1_555 1_555
C14 C13 1_555 1_555
H7 C14 1_555 1_555
C15 C14 1_555 1_555
C16 C15 1_555 1_555
H8 C16 1_555 1_555
C17 C12 1_555 1_555
C18 C13 1_555 1_555
H9 C18 1_555 1_555
H10 C18 1_555 1_555
H11 C18 1_555 1_555
C19 C15 1_555 1_555
H12 C19 1_555 1_555
H13 C19 1_555 1_555
H14 C19 1_555 1_555
C20 C17 1_555 1_555
H15 C20 1_555 1_555
H16 C20 1_555 1_555
H17 C20 1_555 1_555
N1 C2 1_555 1_555
H18 N1 1_555 1_555
N2 C7 1_555 1_555
C23 H23 1_555 1_555
C24 C23 1_555 1_555
C25 C24 1_555 1_555
H24 C25 1_555 1_555
C26 C25 1_555 1_555
H25 C26 1_555 1_555
C27 C26 1_555 1_555
C28 C27 1_555 1_555
C29 C28 1_555 1_555
C30 C29 1_555 1_555
H26 C30 1_555 1_555
C31 C30 1_555 1_555
H27 C31 1_555 1_555
C32 C31 1_555 1_555
C33 C32 1_555 1_555
H28 C33 1_555 1_555
C34 C28 1_555 1_555
C35 C34 1_555 1_555
C36 C35 1_555 1_555
H29 C36 1_555 1_555
C37 C36 1_555 1_555
C38 C37 1_555 1_555
H30 C38 1_555 1_555
C39 C34 1_555 1_555
C40 C35 1_555 1_555
H31 C40 1_555 1_555
H32 C40 1_555 1_555
H33 C40 1_555 1_555
C41 C37 1_555 1_555
H34 C41 1_555 1_555
H35 C41 1_555 1_555
H36 C41 1_555 1_555
C42 C39 1_555 1_555
H37 C42 1_555 1_555
H38 C42 1_555 1_555
H39 C42 1_555 1_555
N3 C24 1_555 1_555
H40 N3 1_555 1_555
N4 C29 1_555 1_555
C1A C11 1_555 1_555
H1A C1A 1_555 1_555
C2A C1A 1_555 1_555
C3A C2A 1_555 1_555
H2A C3A 1_555 1_555
C4A C3A 1_555 1_555
H3A C4A 1_555 1_555
C5A C4A 1_555 1_555
C6A C5A 1_555 1_555
C7A C6A 1_555 1_555
C8A C7A 1_555 1_555
H4A C8A 1_555 1_555
C9A C8A 1_555 1_555
H5A C9A 1_555 1_555
C10A C9A 1_555 1_555
C11A C1 1_555 1_555
H6A C11A 1_555 1_555
C12A C6A 1_555 1_555
C13A C12A 1_555 1_555
C14A C13A 1_555 1_555
H7A C14A 1_555 1_555
C15A C14A 1_555 1_555
C16A C15A 1_555 1_555
H8A C16A 1_555 1_555
C17A C12A 1_555 1_555
C18A C13A 1_555 1_555
H9A C18A 1_555 1_555
H10A C18A 1_555 1_555
H11A C18A 1_555 1_555
C19A C15A 1_555 1_555
H12A C19A 1_555 1_555
H13A C19A 1_555 1_555
H14A C19A 1_555 1_555
C20A C17A 1_555 1_555
H15A C20A 1_555 1_555
H16A C20A 1_555 1_555
H17A C20A 1_555 1_555
N1A C2A 1_555 1_555
H18A N1A 1_555 1_555
N2A C7A 1_555 1_555
C23A C33 1_555 1_555
H23A C23A 1_555 1_555
C24A C23A 1_555 1_555
C25A C24A 1_555 1_555
H24A C25A 1_555 1_555
C26A C25A 1_555 1_555
H25A C26A 1_555 1_555
C27A C26A 1_555 1_555
C28A C27A 1_555 1_555
C29A C28A 1_555 1_555
C30A C29A 1_555 1_555
H26A C30A 1_555 1_555
C31A C30A 1_555 1_555
H27A C31A 1_555 1_555
C32A C31A 1_555 1_555
C33A C23 1_555 1_555
H28A C33A 1_555 1_555
C34A C28A 1_555 1_555
C35A C34A 1_555 1_555
C36A C35A 1_555 1_555
H29A C36A 1_555 1_555
C37A C36A 1_555 1_555
C38A C37A 1_555 1_555
H30A C38A 1_555 1_555
C39A C34A 1_555 1_555
C40A C35A 1_555 1_555
H31A C40A 1_555 1_555
H32A C40A 1_555 1_555
H33A C40A 1_555 1_555
C41A C37A 1_555 1_555
H34A C41A 1_555 1_555
H35A C41A 1_555 1_555
H36A C41A 1_555 1_555
C42A C39A 1_555 1_555
H37A C42A 1_555 1_555
H38A C42A 1_555 1_555
H39A C42A 1_555 1_555
N3A C24A 1_555 1_555
H40A N3A 1_555 1_555
N4A C29A 1_555 1_555
C5 N1 1_555 1_555
C10 N2 1_555 1_555
C16 C17 1_555 1_555
C27 N3 1_555 1_555
C32 N4 1_555 1_555
C38 C39 1_555 1_555
C5A N1A 1_555 1_555
C10A C11A 1_555 1_555
C10A N2A 1_555 1_555
C16A C17A 1_555 1_555
C27A N3A 1_555 1_555
C32A C33A 1_555 1_555
C32A N4A 1_555 1_555
C38A C39A 1_555 1_555

#END
