
#######################################################################
#
#                 Cambridge Crystallographic Data Centre
#                                CCDC 
#
#######################################################################
#
# If this CIF has been generated from an entry in the Cambridge 
# Structural Database, then it will include bibliographic, chemical, 
# crystal, experimental, refinement or atomic coordinate data resulting 
# from the CCDC's data processing and validation procedures.
#
#######################################################################

data_ANETEU
_chemical_name_common            
'(E)-5,16-dimesityl-10,11-bisdehydro[20]porphyrin(2.1.2.1) chloroform solvate'
_chemical_formula_moiety         'C40 H34 N4,2(C1 H1 Cl3)'
_chemical_name_systematic        
'(E)-2,13-dimesityl-23,24,25,26-tetraazapentacyclo[18.2.1.1^3,6^.1^9,12^.1^14,17^]hexacosa-1,3,5,7,9(25),10,12,14,16,20(23),21-undecaen-18-yne chloroform solvate'
_symmetry_cell_setting           monoclinic
_symmetry_space_group_name_H-M   'P 21/n'
_symmetry_Int_Tables_number      14
_space_group_name_Hall           '-P 2yn'
loop_
_symmetry_equiv_pos_site_id
_symmetry_equiv_pos_as_xyz
1 x,y,z
2 1/2-x,1/2+y,1/2-z
3 -x,-y,-z
4 1/2+x,1/2-y,1/2+z
_cell_length_a                   13.297(3)
_cell_length_b                   9.4395(18)
_cell_length_c                   15.301(3)
_cell_angle_alpha                90
_cell_angle_beta                 90.658(5)
_cell_angle_gamma                90
_cell_volume                     1920.41
_exptl_crystal_colour            brown
_exptl_crystal_description       Prism
_cell_formula_units_Z            2
loop_
_atom_site_label
_atom_site_type_symbol
_atom_site_fract_x
_atom_site_fract_y
_atom_site_fract_z
C1 C 0.26594(12) 0.16803(17) 0.06188(10)
N1 N 0.20440(10) 0.06267(14) 0.03101(9)
H1 H 0.1383 0.0657 0.0310
C2 C 0.12472(12) 0.32960(17) 0.09468(10)
C3 C -0.03566(12) 0.2888(2) 0.07673(11)
C4 C 0.39369(12) 0.54705(18) 0.22371(11)
H2 H 0.4100 0.5653 0.2833
C5 C 0.2067(14) -0.1797(16) -0.0278(12)
N2 N 0.05327(10) 0.22771(15) 0.07093(9)
C6 C 0.30114(11) 0.41363(17) 0.11572(10)
C7 C 0.07296(12) 0.45901(18) 0.11741(11)
H3 H 0.1030 0.5451 0.1365
C8 C 0.34576(12) 0.49365(17) 0.04935(11)
C9 C 0.41391(12) 0.59966(18) 0.07255(11)
H4 H 0.4447 0.6535 0.0277
C10 C 0.31958(13) 0.4685(2) -0.04551(11)
H5 H 0.3619 0.5286 -0.0822
H6 H 0.2487 0.4919 -0.0560
H7 H 0.3312 0.3688 -0.0600
C11 C 0.258(3) -0.056(3) 0.0067(18)
C12 C 0.43828(12) 0.62905(17) 0.15921(11)
C13 C -0.02668(13) 0.43381(19) 0.10625(11)
H8 H -0.0801 0.4986 0.1159
C14 C 0.36449(12) 0.11802(18) 0.05428(11)
H9 H 0.4239 0.1676 0.0706
C15 C 0.35985(12) -0.01820(18) 0.01832(11)
H10 H 0.4149 -0.0798 0.0080
C16 C 0.22668(12) 0.30143(17) 0.09149(10)
C17 C 0.32580(12) 0.43892(17) 0.20369(11)
C18 C 0.50945(13) 0.7473(2) 0.18334(12)
H11 H 0.5430 0.7815 0.1307
H12 H 0.5599 0.7122 0.2252
H13 H 0.4717 0.8251 0.2099
C19 C 0.27975(14) 0.3528(2) 0.27583(12)
H14 H 0.2142 0.3930 0.2908
H15 H 0.3242 0.3548 0.3274
H16 H 0.2709 0.2548 0.2562
C20 C -0.1112(3) 0.1748(5) 0.0497(3)
C1B C -0.26594(12) -0.16803(17) -0.06188(10)
N1B N -0.20440(10) -0.06267(14) -0.03101(9)
H1B H -0.1383 -0.0657 -0.0310
C2B C -0.12472(12) -0.32960(17) -0.09468(10)
C3B C 0.03566(12) -0.2888(2) -0.07673(11)
C4B C -0.39369(12) -0.54705(18) -0.22371(11)
H2B H -0.4100 -0.5653 -0.2833
C5B C -0.2067(14) 0.1797(16) 0.0278(12)
N2B N -0.05327(10) -0.22771(15) -0.07093(9)
C6B C -0.30114(11) -0.41363(17) -0.11572(10)
C7B C -0.07296(12) -0.45901(18) -0.11741(11)
H3B H -0.1030 -0.5451 -0.1365
C8B C -0.34576(12) -0.49365(17) -0.04935(11)
C9B C -0.41391(12) -0.59966(18) -0.07255(11)
H4B H -0.4447 -0.6535 -0.0277
C10B C -0.31958(13) -0.4685(2) 0.04551(11)
H5B H -0.3619 -0.5286 0.0822
H6B H -0.2487 -0.4919 0.0560
H7B H -0.3312 -0.3688 0.0600
C11B C -0.258(3) 0.056(3) -0.0067(18)
C12B C -0.43828(12) -0.62905(17) -0.15921(11)
C13B C 0.02668(13) -0.43381(19) -0.10625(11)
H8B H 0.0801 -0.4986 -0.1159
C14B C -0.36449(12) -0.11802(18) -0.05428(11)
H9B H -0.4239 -0.1676 -0.0706
C15B C -0.35985(12) 0.01820(18) -0.01832(11)
H10B H -0.4149 0.0798 -0.0080
C16B C -0.22668(12) -0.30143(17) -0.09149(10)
C17B C -0.32580(12) -0.43892(17) -0.20369(11)
C18B C -0.50945(13) -0.7473(2) -0.18334(12)
H11B H -0.5430 -0.7815 -0.1307
H12B H -0.5599 -0.7122 -0.2252
H13B H -0.4717 -0.8251 -0.2099
C19B C -0.27975(14) -0.3528(2) -0.27583(12)
H14B H -0.2142 -0.3930 -0.2908
H15B H -0.3242 -0.3548 -0.3274
H16B H -0.2709 -0.2548 -0.2562
C20B C 0.1112(3) -0.1748(5) -0.0497(3)
Cl1 Cl 0.05407(4) 0.18899(5) -0.13518(3)
Cl2 Cl 0.09665(5) 0.30942(6) -0.30455(3)
Cl3 Cl 0.23197(4) 0.10477(9) -0.22734(4)
C21 C 0.10652(13) 0.1577(2) -0.23832(12)
H17 H 0.0680 0.0793 -0.2672
C22? C -0.1295(3) 0.2320(5) 0.0540(3)
C23? C 0.2020(14) -0.1609(16) -0.0337(13)
C24? C 0.259(3) -0.046(3) 0.0007(18)
H18? H 0.2430 -0.2656 -0.0346
H19? H -0.0836 0.0820 0.0485
loop_
_geom_bond_atom_site_label_1
_geom_bond_atom_site_label_2
_geom_bond_site_symmetry_1
_geom_bond_site_symmetry_2
C1 N1 1_555 1_555
N1 H1 1_555 1_555
C2 N2 1_555 1_555
C3 N2 1_555 1_555
C4 H2 1_555 1_555
C5 C11 1_555 1_555
C6 C8 1_555 1_555
C7 C2 1_555 1_555
H3 C7 1_555 1_555
C8 C9 1_555 1_555
C9 H4 1_555 1_555
C10 C8 1_555 1_555
H5 C10 1_555 1_555
H6 C10 1_555 1_555
H7 C10 1_555 1_555
C11 N1 1_555 1_555
C12 C4 1_555 1_555
C13 C3 1_555 1_555
H8 C13 1_555 1_555
C14 C1 1_555 1_555
H9 C14 1_555 1_555
C15 C11 1_555 1_555
H10 C15 1_555 1_555
C16 C1 1_555 1_555
C17 C4 1_555 1_555
C18 C12 1_555 1_555
H11 C18 1_555 1_555
H12 C18 1_555 1_555
H13 C18 1_555 1_555
C19 C17 1_555 1_555
H14 C19 1_555 1_555
H15 C19 1_555 1_555
H16 C19 1_555 1_555
C20 C3 1_555 1_555
Cl1 C21 1_555 1_555
Cl2 C21 1_555 1_555
Cl3 C21 1_555 1_555
C21 H17 1_555 1_555
C1B N1B 1_555 1_555
N1B H1B 1_555 1_555
C2B N2B 1_555 1_555
C3B N2B 1_555 1_555
C4B H2B 1_555 1_555
C5B C20 1_555 1_555
C6B C8B 1_555 1_555
C7B C2B 1_555 1_555
H3B C7B 1_555 1_555
C8B C9B 1_555 1_555
C9B H4B 1_555 1_555
C10B C8B 1_555 1_555
H5B C10B 1_555 1_555
H6B C10B 1_555 1_555
H7B C10B 1_555 1_555
C11B N1B 1_555 1_555
C12B C4B 1_555 1_555
C13B C3B 1_555 1_555
H8B C13B 1_555 1_555
C14B C1B 1_555 1_555
H9B C14B 1_555 1_555
C15B C11B 1_555 1_555
H10B C15B 1_555 1_555
C16B C1B 1_555 1_555
C17B C4B 1_555 1_555
C18B C12B 1_555 1_555
H11B C18B 1_555 1_555
H12B C18B 1_555 1_555
H13B C18B 1_555 1_555
C19B C17B 1_555 1_555
H14B C19B 1_555 1_555
H15B C19B 1_555 1_555
H16B C19B 1_555 1_555
C20B C5 1_555 1_555
C2 C16 1_555 1_555
C6 C16 1_555 1_555
C6 C17 1_555 1_555
C7 C13 1_555 1_555
C9 C12 1_555 1_555
C14 C15 1_555 1_555
C2B C16B 1_555 1_555
C3B C20B 1_555 1_555
C5B C11B 1_555 1_555
C6B C16B 1_555 1_555
C6B C17B 1_555 1_555
C7B C13B 1_555 1_555
C9B C12B 1_555 1_555
C14B C15B 1_555 1_555

#END
