
#######################################################################
#
#                 Cambridge Crystallographic Data Centre
#                                CCDC 
#
#######################################################################
#
# If this CIF has been generated from an entry in the Cambridge 
# Structural Database, then it will include bibliographic, chemical, 
# crystal, experimental, refinement or atomic coordinate data resulting 
# from the CCDC's data processing and validation procedures.
#
#######################################################################

data_ANEVUM
_chemical_formula_moiety         'C22 H31 Br1 O2 Si1'
_chemical_name_systematic        
'ethyl 2-(4-bromobenzylidene)-4-(triisopropylsilyl)but-3-ynoate'
_symmetry_cell_setting           monoclinic
_symmetry_space_group_name_H-M   'P 21/c'
_symmetry_Int_Tables_number      14
_space_group_name_Hall           '-P 2ybc'
loop_
_symmetry_equiv_pos_site_id
_symmetry_equiv_pos_as_xyz
1 x,y,z
2 -x,1/2+y,1/2-z
3 -x,-y,-z
4 x,1/2-y,1/2+z
_cell_length_a                   10.6658(6)
_cell_length_b                   12.2930(6)
_cell_length_c                   16.9423(9)
_cell_angle_alpha                90
_cell_angle_beta                 92.537(5)
_cell_angle_gamma                90
_cell_volume                     2219.21
_cell_formula_units_Z            4
loop_
_atom_site_label
_atom_site_type_symbol
_atom_site_fract_x
_atom_site_fract_y
_atom_site_fract_z
Br1 Br 1.01501(3) 0.99718(2) 1.13580(2)
C1 C 0.9851(2) 0.8456(2) 1.12383(13)
C2 C 1.0259(2) 0.7744(2) 1.18206(14)
H1 H 1.0687 0.8004 1.2287
C3 C 1.0038(2) 0.6646(2) 1.17172(14)
H2 H 1.0324 0.6153 1.2118
C4 C 0.9406(2) 0.62393(19) 1.10431(13)
C5 C 0.9005(2) 0.69914(19) 1.04629(14)
H3 H 0.8574 0.6740 0.9995
C6 C 0.9227(2) 0.80893(19) 1.05603(14)
H4 H 0.8951 0.8590 1.0162
C7 C 0.9197(2) 0.50703(18) 1.09914(13)
H5 H 0.9622 0.4655 1.1393
C8 C 0.8497(2) 0.44852(19) 1.04659(13)
C9 C 0.7785(2) 0.49041(18) 0.98002(13)
C10 C 0.7160(2) 0.52332(18) 0.92421(14)
C11 C 0.8433(2) 0.32762(19) 1.06025(13)
C12 C 0.7568(3) 0.16203(19) 1.01166(15)
H6 H 0.7178 0.1437 1.0619
H7 H 0.8396 0.1257 1.0108
C13 C 0.6743(3) 0.1261(2) 0.94259(16)
H8 H 0.5931 0.1631 0.9440
H9 H 0.6614 0.0472 0.9453
H10 H 0.7144 0.1443 0.8934
C14 C 0.4537(2) 0.5246(2) 0.85192(14)
H11 H 0.4219 0.5676 0.8970
C15 C 0.4434(3) 0.4041(2) 0.87515(17)
H12 H 0.3565 0.3875 0.8874
H13 H 0.4987 0.3896 0.9217
H14 H 0.4683 0.3583 0.8311
C16 C 0.3666(3) 0.5500(3) 0.78048(17)
H15 H 0.3930 0.5082 0.7348
H16 H 0.3706 0.6279 0.7686
H17 H 0.2804 0.5302 0.7921
C17 C 0.6975(2) 0.51672(19) 0.74874(13)
H18 H 0.7882 0.5365 0.7556
C18 C 0.6928(3) 0.3927(2) 0.74391(15)
H19 H 0.6079 0.3695 0.7272
H20 H 0.7153 0.3618 0.7959
H21 H 0.7524 0.3673 0.7055
C19 C 0.6504(3) 0.5680(2) 0.66974(14)
H22 H 0.7022 0.5422 0.6272
H23 H 0.6563 0.6474 0.6735
H24 H 0.5628 0.5470 0.6584
C20 C 0.6264(2) 0.7248(2) 0.83853(14)
H25 H 0.5700 0.7505 0.7936
C21 C 0.5767(3) 0.7742(2) 0.91409(17)
H26 H 0.6293 0.7502 0.9597
H27 H 0.4901 0.7502 0.9203
H28 H 0.5791 0.8537 0.9105
C22 C 0.7582(3) 0.7680(2) 0.82386(18)
H29 H 0.7577 0.8477 0.8263
H30 H 0.7832 0.7446 0.7716
H31 H 0.8178 0.7394 0.8644
O1 O 0.89527(17) 0.28050(14) 1.11478(10)
O2 O 0.77114(15) 0.27907(13) 1.00434(9)
Si1 Si 0.61944(6) 0.57214(5) 0.83817(4)
loop_
_geom_bond_atom_site_label_1
_geom_bond_atom_site_label_2
_geom_bond_site_symmetry_1
_geom_bond_site_symmetry_2
Br1 C1 1_555 1_555
C1 C2 1_555 1_555
C2 H1 1_555 1_555
C3 C2 1_555 1_555
H2 C3 1_555 1_555
C4 C3 1_555 1_555
C5 C4 1_555 1_555
H3 C5 1_555 1_555
C6 C1 1_555 1_555
H4 C6 1_555 1_555
C7 C4 1_555 1_555
H5 C7 1_555 1_555
C8 C7 1_555 1_555
C9 C8 1_555 1_555
C10 C9 1_555 1_555
C11 C8 1_555 1_555
C12 H6 1_555 1_555
H7 C12 1_555 1_555
C13 C12 1_555 1_555
H8 C13 1_555 1_555
H9 C13 1_555 1_555
H10 C13 1_555 1_555
C14 H11 1_555 1_555
C15 C14 1_555 1_555
H12 C15 1_555 1_555
H13 C15 1_555 1_555
H14 C15 1_555 1_555
C16 C14 1_555 1_555
H15 C16 1_555 1_555
H16 C16 1_555 1_555
H17 C16 1_555 1_555
C17 H18 1_555 1_555
C18 C17 1_555 1_555
H19 C18 1_555 1_555
H20 C18 1_555 1_555
H21 C18 1_555 1_555
C19 C17 1_555 1_555
H22 C19 1_555 1_555
H23 C19 1_555 1_555
H24 C19 1_555 1_555
C20 H25 1_555 1_555
C21 C20 1_555 1_555
H26 C21 1_555 1_555
H27 C21 1_555 1_555
H28 C21 1_555 1_555
C22 C20 1_555 1_555
H29 C22 1_555 1_555
H30 C22 1_555 1_555
H31 C22 1_555 1_555
O1 C11 1_555 1_555
O2 C11 1_555 1_555
Si1 C10 1_555 1_555
C5 C6 1_555 1_555
C12 O2 1_555 1_555
C14 Si1 1_555 1_555
C17 Si1 1_555 1_555
C20 Si1 1_555 1_555

#END
