
#######################################################################
#
#                 Cambridge Crystallographic Data Centre
#                                CCDC 
#
#######################################################################
#
# If this CIF has been generated from an entry in the Cambridge 
# Structural Database, then it will include bibliographic, chemical, 
# crystal, experimental, refinement or atomic coordinate data resulting 
# from the CCDC's data processing and validation procedures.
#
#######################################################################

data_ANIFOU01
_chemical_formula_moiety         'C26 H26 O4'
_chemical_name_systematic        
4,5,11,12-tetramethoxy-1,8-dimethylpentacyclo[6.6.6.0^2,7^.0^9,14^.0^15,20^]icosa-2,4,6,9,11,13,15,17,19-nonaene
_symmetry_cell_setting           orthorhombic
_symmetry_space_group_name_H-M   'P n m a'
_symmetry_Int_Tables_number      62
_space_group_name_Hall           '-P 2ac 2n'
loop_
_symmetry_equiv_pos_site_id
_symmetry_equiv_pos_as_xyz
1 x,y,z
2 1/2-x,-y,1/2+z
3 -x,1/2+y,-z
4 1/2+x,1/2-y,1/2-z
5 -x,-y,-z
6 1/2+x,y,1/2-z
7 x,1/2-y,z
8 1/2-x,1/2+y,1/2+z
_cell_length_a                   9.0071(16)
_cell_length_b                   15.226(3)
_cell_length_c                   15.753(3)
_cell_angle_alpha                90
_cell_angle_beta                 90
_cell_angle_gamma                90
_cell_volume                     2160.4
_exptl_crystal_colour            colorless
_exptl_crystal_description       needle
_cell_formula_units_Z            4
loop_
_atom_site_label
_atom_site_type_symbol
_atom_site_fract_x
_atom_site_fract_y
_atom_site_fract_z
O1 O 0.79345(10) 0.02847(6) 0.42176(6)
O2 O 0.93084(11) 0.03304(6) 0.27793(6)
C1 C 1.3022(2) -0.2500 0.42536(13)
C2 C 1.2330(2) -0.2500 0.50501(13)
C3 C 1.3182(2) -0.2500 0.57829(14)
H1 H 1.2719 -0.2500 0.6325
C4 C 1.4736(3) -0.2500 0.57159(17)
H2 H 1.5327 -0.2500 0.6216
C5 C 1.5413(2) -0.2500 0.49295(18)
H3 H 1.6466 -0.2500 0.4891
C6 C 1.4559(2) -0.2500 0.41935(16)
H4 H 1.5025 -0.2500 0.3653
C7 C 1.19449(19) -0.2500 0.35008(12)
C8 C 1.0622(2) -0.2500 0.50075(11)
C9 C 1.2706(2) -0.2500 0.26380(13)
H5 H 1.1953 -0.2500 0.2189
H6 H 1.3327 -0.3026 0.2585
C10 C 0.9882(2) -0.2500 0.58767(12)
H7 H 1.0189 -0.1976 0.6192
H8 H 0.8801 -0.2497 0.5807
C11 C 1.09342(13) -0.17029(8) 0.36594(8)
C12 C 1.02278(13) -0.17103(8) 0.44452(8)
C13 C 0.92177(13) -0.10538(8) 0.46560(8)
H9 H 0.8732 -0.1063 0.5191
C14 C 0.89213(13) -0.03832(8) 0.40799(8)
C15 C 0.96702(14) -0.03605(8) 0.32971(8)
C16 C 1.06818(14) -0.10194(8) 0.30891(8)
H10 H 1.1195 -0.1002 0.2562
C17 C 0.70538(14) 0.02236(9) 0.49674(9)
H11 H 0.6391 0.0733 0.5002
H12 H 0.7703 0.0212 0.5466
H13 H 0.6462 -0.0316 0.4949
C18 C 1.0029(2) 0.03594(11) 0.19768(11)
H14 H 0.9691 0.0877 0.1662
H15 H 0.9787 -0.0172 0.1655
H16 H 1.1105 0.0393 0.2061
H6F H 1.3327 -0.1974 0.2585
H7F H 1.0189 -0.3024 0.6192
O1F O 0.79345(10) -0.52847(6) 0.42176(6)
O2F O 0.93084(11) -0.53304(6) 0.27793(6)
C11F C 1.09342(13) -0.32971(8) 0.36594(8)
C12F C 1.02278(13) -0.32897(8) 0.44452(8)
C13F C 0.92177(13) -0.39462(8) 0.46560(8)
H9F H 0.8732 -0.3937 0.5191
C14F C 0.89213(13) -0.46168(8) 0.40799(8)
C15F C 0.96702(14) -0.46395(8) 0.32971(8)
C16F C 1.06818(14) -0.39806(8) 0.30891(8)
H10F H 1.1195 -0.3998 0.2562
C17F C 0.70538(14) -0.52236(9) 0.49674(9)
H11F H 0.6391 -0.5733 0.5002
H12F H 0.7703 -0.5212 0.5466
H13F H 0.6462 -0.4684 0.4949
C18F C 1.0029(2) -0.53594(11) 0.19768(11)
H14F H 0.9691 -0.5877 0.1662
H15F H 0.9787 -0.4828 0.1655
H16F H 1.1105 -0.5393 0.2061
H17? H 1.3327 -0.3026 0.2585
H18? H 1.0182 -0.1973 0.6190
loop_
_geom_bond_atom_site_label_1
_geom_bond_atom_site_label_2
_geom_bond_site_symmetry_1
_geom_bond_site_symmetry_2
O1 C14 1_555 1_555
O2 C15 1_555 1_555
C1 C2 1_555 1_555
C2 C3 1_555 1_555
C3 H1 1_555 1_555
C4 C3 1_555 1_555
H2 C4 1_555 1_555
C5 C4 1_555 1_555
H3 C5 1_555 1_555
C6 C1 1_555 1_555
H4 C6 1_555 1_555
C7 C1 1_555 1_555
C8 C2 1_555 1_555
C9 C7 1_555 1_555
H5 C9 1_555 1_555
H6 C9 1_555 1_555
C10 C8 1_555 1_555
H7 C10 1_555 1_555
H8 C10 1_555 1_555
C11 C7 1_555 1_555
C12 C8 1_555 1_555
C13 C12 1_555 1_555
H9 C13 1_555 1_555
C14 C13 1_555 1_555
C15 C14 1_555 1_555
C16 C11 1_555 1_555
H10 C16 1_555 1_555
C17 O1 1_555 1_555
H11 C17 1_555 1_555
H12 C17 1_555 1_555
H13 C17 1_555 1_555
C18 O2 1_555 1_555
H14 C18 1_555 1_555
H15 C18 1_555 1_555
H16 C18 1_555 1_555
H6F C9 1_555 1_555
H7F C10 1_555 1_555
O1F C14F 1_555 1_555
O2F C15F 1_555 1_555
C11F C7 1_555 1_555
C12F C8 1_555 1_555
C13F C12F 1_555 1_555
H9F C13F 1_555 1_555
C14F C13F 1_555 1_555
C15F C14F 1_555 1_555
C16F C11F 1_555 1_555
H10F C16F 1_555 1_555
C17F O1F 1_555 1_555
H11F C17F 1_555 1_555
H12F C17F 1_555 1_555
H13F C17F 1_555 1_555
C18F O2F 1_555 1_555
H14F C18F 1_555 1_555
H15F C18F 1_555 1_555
H16F C18F 1_555 1_555
C5 C6 1_555 1_555
C11 C12 1_555 1_555
C15 C16 1_555 1_555
C11F C12F 1_555 1_555
C15F C16F 1_555 1_555

#END
