
#######################################################################
#
#                 Cambridge Crystallographic Data Centre
#                                CCDC 
#
#######################################################################
#
# If this CIF has been generated from an entry in the Cambridge 
# Structural Database, then it will include bibliographic, chemical, 
# crystal, experimental, refinement or atomic coordinate data resulting 
# from the CCDC's data processing and validation procedures.
#
#######################################################################

data_ANIGIO
_chemical_formula_moiety         'C31 H24 Cl1 N1 O3,C1 H2 Cl2'
_chemical_name_systematic        
'N-(3-Benzyl-4-(3-chlorophenyl)-2-oxo-6-phenyl-3,4-dihydro-2H-pyran-3-yl)benzamide dichloromethane solvate'
_symmetry_cell_setting           monoclinic
_symmetry_space_group_name_H-M   'P 21'
_symmetry_Int_Tables_number      4
_space_group_name_Hall           'P 2yb'
loop_
_symmetry_equiv_pos_site_id
_symmetry_equiv_pos_as_xyz
1 x,y,z
2 -x,1/2+y,-z
_cell_length_a                   11.845(3)
_cell_length_b                   10.783(2)
_cell_length_c                   12.350(3)
_cell_angle_alpha                90
_cell_angle_beta                 117.80(3)
_cell_angle_gamma                90
_cell_volume                     1395.34
_exptl_crystal_colour            colorless
_exptl_crystal_description       block
_cell_formula_units_Z            2
loop_
_atom_site_label
_atom_site_type_symbol
_atom_site_fract_x
_atom_site_fract_y
_atom_site_fract_z
Cl1 Cl 0.77782(11) 0.06626(10) 0.81926(10)
O1 O 0.8031(2) -0.6181(2) 0.7118(2)
O2 O 0.7537(2) -0.5817(2) 0.8604(2)
O3 O 0.4613(3) -0.2631(2) 0.6037(2)
N1 N 0.5935(3) -0.3975(3) 0.7495(3)
H1 H 0.6263 -0.4177 0.8274
C1 C 0.6401(3) -0.4611(3) 0.6748(3)
C2 C 0.7117(3) -0.3744(3) 0.6261(3)
H2 H 0.6455 -0.3247 0.5575
C3 C 0.7755(3) -0.4550(4) 0.5725(3)
H3 H 0.7910 -0.4221 0.5093
C4 C 0.8115(3) -0.5705(4) 0.6093(3)
C5 C 0.7361(3) -0.5565(3) 0.7588(3)
C6 C 0.5021(3) -0.3084(3) 0.7061(3)
C7 C 0.4570(3) -0.2656(4) 0.7955(3)
C8 C 0.4354(4) -0.3471(4) 0.8711(4)
H4 H 0.4507 -0.4333 0.8690
C9 C 0.3914(4) -0.3015(4) 0.9496(4)
H5 H 0.3758 -0.3565 1.0011
C10 C 0.3704(4) -0.1759(5) 0.9526(4)
H6 H 0.3414 -0.1447 1.0072
C11 C 0.3911(4) -0.0958(5) 0.8775(4)
H7 H 0.3773 -0.0094 0.8808
C12 C 0.4319(4) -0.1408(4) 0.7972(4)
H8 H 0.4428 -0.0857 0.7428
C13 C 0.5295(3) -0.5306(3) 0.5671(3)
H9 H 0.4725 -0.4690 0.5070
H10 H 0.5656 -0.5835 0.5254
C14 C 0.4524(3) -0.6101(3) 0.6083(3)
C15 C 0.4983(4) -0.7243(4) 0.6648(4)
H11 H 0.5780 -0.7540 0.6743
C16 C 0.4296(5) -0.7949(4) 0.7070(4)
H12 H 0.4629 -0.8718 0.7468
C17 C 0.3125(5) -0.7538(5) 0.6915(4)
H13 H 0.2658 -0.8021 0.7212
C18 C 0.2634(5) -0.6429(5) 0.6332(4)
H14 H 0.1816 -0.6158 0.6201
C19 C 0.3340(4) -0.5712(4) 0.5937(4)
H15 H 0.3009 -0.4936 0.5557
C20 C 0.8004(3) -0.2831(3) 0.7210(3)
C21 C 0.7572(4) -0.1642(4) 0.7254(3)
H16 H 0.6731 -0.1402 0.6681
C22 C 0.8363(4) -0.0808(4) 0.8129(3)
C23 C 0.9595(4) -0.1128(4) 0.8990(4)
H17 H 1.0125 -0.0549 0.9592
C24 C 1.0029(4) -0.2304(4) 0.8951(4)
H18 H 1.0870 -0.2539 0.9529
C25 C 0.9250(3) -0.3147(4) 0.8074(3)
H19 H 0.9565 -0.3953 0.8058
C26 C 0.8624(3) -0.6643(4) 0.5570(3)
C27 C 0.8638(4) -0.6421(4) 0.4459(4)
H20 H 0.8360 -0.5642 0.4064
C28 C 0.9054(4) -0.7327(5) 0.3929(4)
H21 H 0.9058 -0.7168 0.3174
C29 C 0.9459(4) -0.8451(5) 0.4498(4)
H22 H 0.9744 -0.9071 0.4135
C30 C 0.9454(4) -0.8690(4) 0.5593(4)
H23 H 0.9731 -0.9474 0.5977
C31 C 0.9049(4) -0.7795(4) 0.6134(4)
H24 H 0.9059 -0.7962 0.6894
Cl2 Cl 1.15126(12) -0.57866(13) 0.85893(12)
Cl3 Cl 1.19120(13) -0.84078(14) 0.92640(13)
C32 C 1.2564(5) -0.6870(5) 0.9571(5)
H25 H 1.2788 -0.6643 1.0424
H26 H 1.3358 -0.6856 0.9491
loop_
_geom_bond_atom_site_label_1
_geom_bond_atom_site_label_2
_geom_bond_site_symmetry_1
_geom_bond_site_symmetry_2
Cl1 C22 1_555 1_555
Cl2 C32 1_555 1_555
Cl3 C32 1_555 1_555
O1 C4 1_555 1_555
O2 C5 1_555 1_555
O3 C6 1_555 1_555
N1 H1 1_555 1_555
C1 N1 1_555 1_555
C2 C1 1_555 1_555
H2 C2 1_555 1_555
C3 C2 1_555 1_555
H3 C3 1_555 1_555
C4 C3 1_555 1_555
C5 O1 1_555 1_555
C6 N1 1_555 1_555
C7 C6 1_555 1_555
C8 C7 1_555 1_555
H4 C8 1_555 1_555
C9 C8 1_555 1_555
H5 C9 1_555 1_555
C10 C9 1_555 1_555
H6 C10 1_555 1_555
C11 C10 1_555 1_555
H7 C11 1_555 1_555
C12 C7 1_555 1_555
H8 C12 1_555 1_555
C13 C1 1_555 1_555
H9 C13 1_555 1_555
H10 C13 1_555 1_555
C14 C13 1_555 1_555
C15 C14 1_555 1_555
H11 C15 1_555 1_555
C16 C15 1_555 1_555
H12 C16 1_555 1_555
C17 C16 1_555 1_555
H13 C17 1_555 1_555
C18 C17 1_555 1_555
H14 C18 1_555 1_555
C19 C14 1_555 1_555
H15 C19 1_555 1_555
C20 C2 1_555 1_555
C21 C20 1_555 1_555
H16 C21 1_555 1_555
C22 C21 1_555 1_555
C23 C22 1_555 1_555
H17 C23 1_555 1_555
C24 C23 1_555 1_555
H18 C24 1_555 1_555
C25 C20 1_555 1_555
H19 C25 1_555 1_555
C26 C4 1_555 1_555
C27 C26 1_555 1_555
H20 C27 1_555 1_555
C28 C27 1_555 1_555
H21 C28 1_555 1_555
C29 C28 1_555 1_555
H22 C29 1_555 1_555
C30 C29 1_555 1_555
H23 C30 1_555 1_555
C31 C26 1_555 1_555
H24 C31 1_555 1_555
C32 H25 1_555 1_555
H26 C32 1_555 1_555
C1 C5 1_555 1_555
C11 C12 1_555 1_555
C18 C19 1_555 1_555
C24 C25 1_555 1_555
C30 C31 1_555 1_555

#END
