
#######################################################################
#
#                 Cambridge Crystallographic Data Centre
#                                CCDC 
#
#######################################################################
#
# If this CIF has been generated from an entry in the Cambridge 
# Structural Database, then it will include bibliographic, chemical, 
# crystal, experimental, refinement or atomic coordinate data resulting 
# from the CCDC's data processing and validation procedures.
#
#######################################################################

data_ANIGOU
_chemical_formula_moiety         'C52 H78 N8 O2'
_chemical_name_systematic        
N,N'-(1,2-Diphenylethane-1,2-diyl)bis(1-(N,N'-dicyclohexylcarbamimidoyl)piperidine-2-carboxamide)
_symmetry_cell_setting           hexagonal
_symmetry_space_group_name_H-M   'P 61'
_symmetry_Int_Tables_number      169
_space_group_name_Hall           'P 61'
loop_
_symmetry_equiv_pos_site_id
_symmetry_equiv_pos_as_xyz
1 x,y,z
2 -y,x-y,1/3+z
3 -x+y,-x,2/3+z
4 -x,-y,1/2+z
5 y,-x+y,5/6+z
6 x-y,x,1/6+z
_cell_length_a                   10.7895(5)
_cell_length_b                   10.7895(5)
_cell_length_c                   72.850(7)
_cell_angle_alpha                90
_cell_angle_beta                 90
_cell_angle_gamma                120
_cell_volume                     7344.51
_exptl_crystal_colour            colorless
_exptl_crystal_description       block
_cell_formula_units_Z            6
loop_
_atom_site_label
_atom_site_type_symbol
_atom_site_fract_x
_atom_site_fract_y
_atom_site_fract_z
O1 O 0.6421(4) 0.3343(4) 0.92337(6)
O2 O 0.3858(5) 0.2006(5) 0.83707(7)
N1 N 0.4849(5) 0.2389(5) 0.89976(7)
H1 H 0.4130 0.1611 0.8950
N2 N 0.3133(5) 0.0196(5) 0.92788(7)
N3 N 0.0728(5) -0.1394(5) 0.92071(7)
H2 H 0.0041 -0.1377 0.9144
N4 N 0.2536(5) -0.0493(5) 0.89748(7)
N5 N 0.5405(5) 0.2630(5) 0.86079(7)
H3 H 0.6097 0.2549 0.8660
N6 N 0.7137(5) 0.2153(5) 0.83248(7)
N7 N 0.9536(5) 0.3008(5) 0.83899(8)
H4 H 1.0221 0.3757 0.8447
N8 N 0.7775(6) 0.2151(5) 0.86284(7)
C1 C 0.5069(7) 0.4804(6) 0.89982(9)
C2 C 0.6040(8) 0.6264(7) 0.89969(10)
H5 H 0.6956 0.6603 0.8943
C3 C 0.5700(9) 0.7237(7) 0.90725(11)
H6 H 0.6362 0.8235 0.9065
C4 C 0.4400(9) 0.6755(8) 0.91591(11)
H7 H 0.4172 0.7415 0.9214
C5 C 0.3429(8) 0.5299(9) 0.91657(11)
H8 H 0.2539 0.4960 0.9227
C6 C 0.3756(7) 0.4331(7) 0.90834(10)
H9 H 0.3074 0.3338 0.9086
C7 C 0.5221(7) 0.4837(7) 0.85971(9)
C8 C 0.6529(7) 0.5642(7) 0.85072(10)
H10 H 0.7191 0.5305 0.8504
C9 C 0.6877(8) 0.6924(8) 0.84217(10)
H11 H 0.7779 0.7470 0.8363
C10 C 0.5905(9) 0.7406(9) 0.84224(11)
H12 H 0.6143 0.8287 0.8364
C11 C 0.4607(9) 0.6626(9) 0.85056(11)
H13 H 0.3939 0.6956 0.8503
C12 C 0.4250(7) 0.5335(7) 0.85952(10)
H14 H 0.3350 0.4803 0.8654
C13 C 0.5415(6) 0.3762(6) 0.88994(9)
H15 H 0.6480 0.4211 0.8895
C14 C 0.4859(6) 0.3466(6) 0.87003(9)
H16 H 0.3793 0.2863 0.8705
C15 C 0.5417(7) 0.2309(7) 0.91593(9)
C16 C 0.4675(6) 0.0787(7) 0.92461(9)
H17 H 0.4775 0.0138 0.9157
C17 C 0.5383(7) 0.0731(7) 0.94252(9)
H18 H 0.6432 0.1219 0.9407
H19 H 0.5051 -0.0282 0.9456
C18 C 0.5055(7) 0.1435(8) 0.95880(10)
H20 H 0.5428 0.1248 0.9703
H21 H 0.5548 0.2484 0.9569
C19 C 0.3458(8) 0.0860(8) 0.96075(9)
H22 H 0.3284 0.1415 0.9702
H23 H 0.2979 -0.0152 0.9647
C20 C 0.2830(7) 0.0974(7) 0.94224(10)
H24 H 0.1782 0.0564 0.9434
H25 H 0.3256 0.1993 0.9387
C21 C 0.2139(6) -0.0573(6) 0.91411(8)
C22 C 0.0324(6) -0.2268(6) 0.93727(9)
H26 H 0.0682 -0.1615 0.9481
C23 C 0.0924(7) -0.3278(7) 0.93830(11)
H27 H 0.0584 -0.3932 0.9276
H28 H 0.1982 -0.2716 0.9378
C24 C 0.0459(7) -0.4149(8) 0.95593(10)
H29 H 0.0876 -0.3498 0.9666
H30 H 0.0829 -0.4823 0.9560
C25 C -0.1175(7) -0.4991(7) 0.95782(10)
H31 H -0.1581 -0.5743 0.9483
H32 H -0.1433 -0.5469 0.9699
C26 C -0.1825(7) -0.4027(7) 0.95594(10)
H33 H -0.1548 -0.3378 0.9667
H34 H -0.2882 -0.4622 0.9558
C27 C -0.1318(6) -0.3135(6) 0.93826(10)
H35 H -0.1704 -0.2474 0.9378
H36 H -0.1693 -0.3779 0.9275
C28 C 0.1582(7) -0.1472(7) 0.88335(10)
H37 H 0.0573 -0.1807 0.8872
C29 C 0.1759(12) -0.2769(8) 0.88148(12)
H38 H 0.1483 -0.3314 0.8931
H39 H 0.2777 -0.2456 0.8790
C30 C 0.0828(14) -0.3744(9) 0.86575(13)
H40 H 0.1057 -0.4516 0.8640
H41 H -0.0191 -0.4197 0.8694
C31 C 0.1023(11) -0.2973(9) 0.84755(11)
H42 H 0.1983 -0.2680 0.8425
H43 H 0.0300 -0.3633 0.8386
C32 C 0.0869(8) -0.1685(8) 0.84998(10)
H44 H -0.0140 -0.1994 0.8530
H45 H 0.1108 -0.1146 0.8383
C33 C 0.1833(8) -0.0704(7) 0.86514(10)
H46 H 0.2846 -0.0309 0.8615
H47 H 0.1658 0.0108 0.8666
C34 C 0.4882(6) 0.1986(6) 0.84467(9)
C35 C 0.5600(6) 0.1172(6) 0.83671(9)
H48 H 0.5540 0.0473 0.8462
C36 C 0.4855(7) 0.0338(7) 0.81943(9)
H49 H 0.3812 -0.0219 0.8218
H50 H 0.5185 -0.0350 0.8168
C37 C 0.5123(8) 0.1284(8) 0.80227(9)
H51 H 0.4738 0.0667 0.7913
H52 H 0.4615 0.1829 0.8037
C38 C 0.6721(7) 0.2323(7) 0.79969(9)
H53 H 0.7205 0.1784 0.7962
H54 H 0.6863 0.2998 0.7896
C39 C 0.7376(7) 0.3150(7) 0.81718(9)
H55 H 0.8416 0.3797 0.8154
H56 H 0.6939 0.3743 0.8202
C40 C 0.8162(7) 0.2435(6) 0.84586(9)
C41 C 0.9939(6) 0.2474(7) 0.82313(9)
H57 H 0.9539 0.2685 0.8119
C42 C 0.9383(8) 0.0869(7) 0.82366(12)
H58 H 0.8326 0.0351 0.8245
H59 H 0.9756 0.0636 0.8348
C43 C 0.9837(8) 0.0364(8) 0.80657(12)
H60 H 0.9494 -0.0673 0.8076
H61 H 0.9390 0.0513 0.7955
C44 C 1.1457(7) 0.1179(7) 0.80440(10)
H62 H 1.1895 0.0918 0.8145
H63 H 1.1717 0.0901 0.7927
C45 C 1.2044(8) 0.2772(8) 0.80456(12)
H64 H 1.1720 0.3047 0.7934
H65 H 1.3102 0.3265 0.8043
C46 C 1.1574(7) 0.3268(7) 0.82135(12)
H66 H 1.1936 0.4309 0.8204
H67 H 1.1993 0.3099 0.8325
C47 C 0.8764(7) 0.2167(7) 0.87680(9)
H68 H 0.9772 0.2850 0.8730
C48 C 0.8452(7) 0.2658(8) 0.89506(9)
H69 H 0.7435 0.2018 0.8983
H70 H 0.8607 0.3638 0.8936
C49 C 0.9403(8) 0.2650(9) 0.91070(11)
H71 H 1.0416 0.3356 0.9081
H72 H 0.9134 0.2928 0.9223
C50 C 0.9233(11) 0.1180(10) 0.91271(11)
H73 H 0.8252 0.0505 0.9171
H74 H 0.9913 0.1215 0.9221
C51 C 0.9498(14) 0.0628(13) 0.89478(13)
H75 H 0.9282 -0.0371 0.8965
H76 H 1.0521 0.1215 0.8914
C52 C 0.8569(10) 0.0679(9) 0.87901(11)
H77 H 0.8833 0.0392 0.8674
H78 H 0.7550 -0.0012 0.8816
loop_
_geom_bond_atom_site_label_1
_geom_bond_atom_site_label_2
_geom_bond_site_symmetry_1
_geom_bond_site_symmetry_2
O1 C15 1_555 1_555
O2 C34 1_555 1_555
N1 H1 1_555 1_555
N2 C16 1_555 1_555
N3 H2 1_555 1_555
N4 C21 1_555 1_555
N5 H3 1_555 1_555
N6 C35 1_555 1_555
N7 H4 1_555 1_555
N8 C40 1_555 1_555
C1 C2 1_555 1_555
C2 H5 1_555 1_555
C3 C2 1_555 1_555
H6 C3 1_555 1_555
C4 C3 1_555 1_555
H7 C4 1_555 1_555
C5 C4 1_555 1_555
H8 C5 1_555 1_555
C6 C1 1_555 1_555
H9 C6 1_555 1_555
C7 C8 1_555 1_555
C8 H10 1_555 1_555
C9 C8 1_555 1_555
H11 C9 1_555 1_555
C10 C9 1_555 1_555
H12 C10 1_555 1_555
C11 C10 1_555 1_555
H13 C11 1_555 1_555
C12 C7 1_555 1_555
H14 C12 1_555 1_555
C13 N1 1_555 1_555
H15 C13 1_555 1_555
C14 N5 1_555 1_555
H16 C14 1_555 1_555
C15 N1 1_555 1_555
C16 C15 1_555 1_555
H17 C16 1_555 1_555
C17 C16 1_555 1_555
H18 C17 1_555 1_555
H19 C17 1_555 1_555
C18 C17 1_555 1_555
H20 C18 1_555 1_555
H21 C18 1_555 1_555
C19 C18 1_555 1_555
H22 C19 1_555 1_555
H23 C19 1_555 1_555
C20 N2 1_555 1_555
H24 C20 1_555 1_555
H25 C20 1_555 1_555
C21 N2 1_555 1_555
C22 N3 1_555 1_555
H26 C22 1_555 1_555
C23 C22 1_555 1_555
H27 C23 1_555 1_555
H28 C23 1_555 1_555
C24 C23 1_555 1_555
H29 C24 1_555 1_555
H30 C24 1_555 1_555
C25 C24 1_555 1_555
H31 C25 1_555 1_555
H32 C25 1_555 1_555
C26 C25 1_555 1_555
H33 C26 1_555 1_555
H34 C26 1_555 1_555
C27 C22 1_555 1_555
H35 C27 1_555 1_555
H36 C27 1_555 1_555
C28 N4 1_555 1_555
H37 C28 1_555 1_555
C29 C28 1_555 1_555
H38 C29 1_555 1_555
H39 C29 1_555 1_555
C30 C29 1_555 1_555
H40 C30 1_555 1_555
H41 C30 1_555 1_555
C31 C30 1_555 1_555
H42 C31 1_555 1_555
H43 C31 1_555 1_555
C32 C31 1_555 1_555
H44 C32 1_555 1_555
H45 C32 1_555 1_555
C33 C28 1_555 1_555
H46 C33 1_555 1_555
H47 C33 1_555 1_555
C34 N5 1_555 1_555
C35 C34 1_555 1_555
H48 C35 1_555 1_555
C36 C35 1_555 1_555
H49 C36 1_555 1_555
H50 C36 1_555 1_555
C37 C36 1_555 1_555
H51 C37 1_555 1_555
H52 C37 1_555 1_555
C38 C37 1_555 1_555
H53 C38 1_555 1_555
H54 C38 1_555 1_555
C39 N6 1_555 1_555
H55 C39 1_555 1_555
H56 C39 1_555 1_555
C40 N6 1_555 1_555
C41 N7 1_555 1_555
H57 C41 1_555 1_555
C42 C41 1_555 1_555
H58 C42 1_555 1_555
H59 C42 1_555 1_555
C43 C42 1_555 1_555
H60 C43 1_555 1_555
H61 C43 1_555 1_555
C44 C43 1_555 1_555
H62 C44 1_555 1_555
H63 C44 1_555 1_555
C45 C44 1_555 1_555
H64 C45 1_555 1_555
H65 C45 1_555 1_555
C46 C41 1_555 1_555
H66 C46 1_555 1_555
H67 C46 1_555 1_555
C47 N8 1_555 1_555
H68 C47 1_555 1_555
C48 C47 1_555 1_555
H69 C48 1_555 1_555
H70 C48 1_555 1_555
C49 C48 1_555 1_555
H71 C49 1_555 1_555
H72 C49 1_555 1_555
C50 C49 1_555 1_555
H73 C50 1_555 1_555
H74 C50 1_555 1_555
C51 C50 1_555 1_555
H75 C51 1_555 1_555
H76 C51 1_555 1_555
C52 C47 1_555 1_555
H77 C52 1_555 1_555
H78 C52 1_555 1_555
N3 C21 1_555 1_555
N7 C40 1_555 1_555
C1 C13 1_555 1_555
C5 C6 1_555 1_555
C7 C14 1_555 1_555
C11 C12 1_555 1_555
C13 C14 1_555 1_555
C19 C20 1_555 1_555
C26 C27 1_555 1_555
C32 C33 1_555 1_555
C38 C39 1_555 1_555
C45 C46 1_555 1_555
C51 C52 1_555 1_555

#END
