
#######################################################################
#
#                 Cambridge Crystallographic Data Centre
#                                CCDC 
#
#######################################################################
#
# If this CIF has been generated from an entry in the Cambridge 
# Structural Database, then it will include bibliographic, chemical, 
# crystal, experimental, refinement or atomic coordinate data resulting 
# from the CCDC's data processing and validation procedures.
#
#######################################################################

data_ANILEQ
_chemical_formula_moiety         'C13 H10 N6 O6,H1 N1 O3,2(H2 O1)'
_chemical_name_systematic        
'10-(4-Nitrobenzyl)-3,7,9,11-tetraoxo-2,4,6,8-tetraaza-10-azoniatricyclo[3.3.3.0^1,5^]undecane nitric acid dihydrate'
_symmetry_cell_setting           triclinic
_symmetry_space_group_name_H-M   'P -1'
_symmetry_Int_Tables_number      2
_space_group_name_Hall           '-P 1'
loop_
_symmetry_equiv_pos_site_id
_symmetry_equiv_pos_as_xyz
1 x,y,z
2 -x,-y,-z
_cell_length_a                   6.9280(17)
_cell_length_b                   10.680(3)
_cell_length_c                   13.332(4)
_cell_angle_alpha                95.245(15)
_cell_angle_beta                 103.107(10)
_cell_angle_gamma                104.681(9)
_cell_volume                     917.705
_exptl_crystal_colour            colorless
_exptl_crystal_description       Prism
_cell_formula_units_Z            2
loop_
_atom_site_label
_atom_site_type_symbol
_atom_site_fract_x
_atom_site_fract_y
_atom_site_fract_z
O1 O 0.79602(18) 0.56131(12) 0.02526(9)
O2 O 0.75462(18) 0.00445(11) 0.07912(10)
O3 O 0.32484(17) 0.27266(13) 0.22196(10)
O4 O 1.01762(17) 0.42173(12) 0.37643(9)
O5 O 0.2004(3) -0.05115(19) 0.64209(16)
O6 O 0.5215(4) -0.03351(18) 0.71069(15)
N1 N 0.58695(19) 0.38378(13) 0.07201(10)
N2 N 0.9259(2) 0.43552(13) 0.14150(10)
N3 N 0.57071(19) 0.15551(13) 0.08976(11)
N4 N 0.90145(19) 0.21114(13) 0.17602(10)
N5 N 0.66147(19) 0.35925(13) 0.31884(10)
C1 C 0.6099(2) 0.28773(14) 0.13937(11)
C2 C 0.8441(2) 0.32931(14) 0.19314(11)
C3 C 0.7721(2) 0.46911(15) 0.07553(11)
C4 C 0.7430(2) 0.11428(15) 0.11144(12)
C5 C 0.5078(2) 0.30233(15) 0.22871(12)
C6 C 0.8608(2) 0.37636(15) 0.30796(11)
C7 C 0.6160(3) 0.40663(16) 0.41554(12)
H1 H 0.5009 0.4467 0.3977
H2 H 0.7387 0.4757 0.4586
C8 C 0.5582(3) 0.29953(16) 0.47883(12)
C9 C 0.7095(3) 0.25633(19) 0.54125(14)
H3 H 0.8510 0.2939 0.5444
C10 C 0.6527(3) 0.1566(2) 0.59987(15)
H4 H 0.7535 0.1251 0.6429
C11 C 0.4453(3) 0.10637(18) 0.59262(14)
C12 C 0.2922(3) 0.1467(2) 0.53245(17)
H5 H 0.1512 0.1090 0.5303
C13 C 0.3497(3) 0.24467(19) 0.47459(15)
H6 H 0.2469 0.2748 0.4318
N6 N 0.3832(4) -0.00079(19) 0.65311(15)
H7 H 0.469(3) 0.396(2) 0.0402(17)
H8 H 1.046(4) 0.482(2) 0.1570(17)
H9 H 0.463(3) 0.112(2) 0.0490(17)
H10 H 1.021(4) 0.210(2) 0.1890(17)
O7 O 0.7169(2) 0.65329(15) 0.25223(11)
O8 O 0.5075(2) 0.75431(14) 0.17468(11)
O9 O 0.3859(2) 0.56861(14) 0.22532(12)
N7 N 0.5345(2) 0.65709(15) 0.21769(12)
O10 O 0.9545(2) 0.86825(15) 0.19474(11)
H11 H 0.890(4) 0.910(3) 0.159(2)
H12 H 0.867(5) 0.804(3) 0.209(2)
O11 O 1.1323(2) 0.76957(14) 0.08645(11)
H13 H 1.242(4) 0.761(3) 0.117(2)
H14 H 1.035(5) 0.692(3) 0.063(2)
loop_
_geom_bond_atom_site_label_1
_geom_bond_atom_site_label_2
_geom_bond_site_symmetry_1
_geom_bond_site_symmetry_2
O1 C3 1_555 1_555
O2 C4 1_555 1_555
O3 C5 1_555 1_555
O4 C6 1_555 1_555
O5 N6 1_555 1_555
O6 N6 1_555 1_555
N1 C1 1_555 1_555
N2 C2 1_555 1_555
N3 C1 1_555 1_555
N4 C2 1_555 1_555
N5 C5 1_555 1_555
C1 C2 1_555 1_555
C2 C6 1_555 1_555
C3 N1 1_555 1_555
C4 N3 1_555 1_555
C5 C1 1_555 1_555
C6 N5 1_555 1_555
C7 N5 1_555 1_555
H1 C7 1_555 1_555
H2 C7 1_555 1_555
C8 C7 1_555 1_555
C9 C8 1_555 1_555
H3 C9 1_555 1_555
C10 C9 1_555 1_555
H4 C10 1_555 1_555
C11 C10 1_555 1_555
C12 C11 1_555 1_555
H5 C12 1_555 1_555
C13 C8 1_555 1_555
H6 C13 1_555 1_555
N6 C11 1_555 1_555
H7 N1 1_555 1_555
H8 N2 1_555 1_555
H9 N3 1_555 1_555
H10 N4 1_555 1_555
O7 N7 1_555 1_555
O8 N7 1_555 1_555
O9 N7 1_555 1_555
O10 H11 1_555 1_555
H12 O10 1_555 1_555
O11 H13 1_555 1_555
H14 O11 1_555 1_555
N2 C3 1_555 1_555
N4 C4 1_555 1_555
C12 C13 1_555 1_555

#END
