
#######################################################################
#
#                 Cambridge Crystallographic Data Centre
#                                CCDC 
#
#######################################################################
#
# If this CIF has been generated from an entry in the Cambridge 
# Structural Database, then it will include bibliographic, chemical, 
# crystal, experimental, refinement or atomic coordinate data resulting 
# from the CCDC's data processing and validation procedures.
#
#######################################################################

data_ANINOC
_chemical_formula_moiety         'C14 H11 Br1 Cl1 N1 O1'
_chemical_name_systematic        
1-(2-bromo-4-chlorophenyl)-N-methoxy-1-phenylmethanimine
_symmetry_cell_setting           monoclinic
_symmetry_space_group_name_H-M   'P 21/n'
_symmetry_Int_Tables_number      14
_space_group_name_Hall           '-P 2yn'
loop_
_symmetry_equiv_pos_site_id
_symmetry_equiv_pos_as_xyz
1 x,y,z
2 1/2-x,1/2+y,1/2-z
3 -x,-y,-z
4 1/2+x,1/2-y,1/2+z
_cell_length_a                   8.0461(2)
_cell_length_b                   11.8158(3)
_cell_length_c                   14.1981(3)
_cell_angle_alpha                90
_cell_angle_beta                 98.1920(10)
_cell_angle_gamma                90
_cell_volume                     1336.06
_exptl_crystal_colour            colorless
_chemical_melting_point          '344.5-346.2 K'
_cell_formula_units_Z            4
loop_
_atom_site_label
_atom_site_type_symbol
_atom_site_fract_x
_atom_site_fract_y
_atom_site_fract_z
Br1 Br 0.893330(12) 0.854894(8) 0.637809(8)
Cl1 Cl 1.23600(3) 0.45727(2) 0.61531(2)
O1 O 0.38509(9) 0.70743(7) 0.75673(5)
N1 N 0.54181(10) 0.66127(7) 0.74570(6)
C1 C 0.58967(11) 0.68845(7) 0.66617(6)
C2 C 0.75114(11) 0.63374(7) 0.65159(6)
C3 C 0.89313(11) 0.69458(8) 0.63523(6)
C4 C 1.04254(12) 0.64148(8) 0.62256(7)
H1 H 1.1376 0.6842 0.6110
C5 C 1.04854(12) 0.52440(8) 0.62735(7)
C6 C 0.91106(12) 0.46019(8) 0.64319(7)
H2 H 0.9176 0.3800 0.6459
C7 C 0.76323(12) 0.51603(8) 0.65500(7)
H3 H 0.6681 0.4729 0.6657
C8 C 0.49591(10) 0.75605(7) 0.58819(6)
C9 C 0.48630(12) 0.71416(8) 0.49576(7)
H4 H 0.5395 0.6446 0.4848
C10 C 0.39960(13) 0.77329(8) 0.41954(7)
H5 H 0.3918 0.7434 0.3569
C11 C 0.32456(13) 0.87592(9) 0.43501(7)
H6 H 0.2665 0.9171 0.3830
C12 C 0.33458(15) 0.91832(9) 0.52669(7)
H7 H 0.2840 0.9890 0.5371
C13 C 0.41793(14) 0.85846(8) 0.60347(7)
H8 H 0.4218 0.8872 0.6662
C14 C 0.33188(16) 0.65513(10) 0.83812(9)
H9 H 0.3250 0.5730 0.8285
H10 H 0.2212 0.6844 0.8470
H11 H 0.4129 0.6720 0.8947
loop_
_geom_bond_atom_site_label_1
_geom_bond_atom_site_label_2
_geom_bond_site_symmetry_1
_geom_bond_site_symmetry_2
Br1 C3 1_555 1_555
Cl1 C5 1_555 1_555
O1 N1 1_555 1_555
N1 C1 1_555 1_555
C1 C2 1_555 1_555
C2 C3 1_555 1_555
C3 C4 1_555 1_555
C4 H1 1_555 1_555
C5 C4 1_555 1_555
C6 C5 1_555 1_555
H2 C6 1_555 1_555
C7 C2 1_555 1_555
H3 C7 1_555 1_555
C8 C1 1_555 1_555
C9 C8 1_555 1_555
H4 C9 1_555 1_555
C10 C9 1_555 1_555
H5 C10 1_555 1_555
C11 C10 1_555 1_555
H6 C11 1_555 1_555
C12 C11 1_555 1_555
H7 C12 1_555 1_555
C13 C8 1_555 1_555
H8 C13 1_555 1_555
C14 O1 1_555 1_555
H9 C14 1_555 1_555
H10 C14 1_555 1_555
H11 C14 1_555 1_555
C6 C7 1_555 1_555
C12 C13 1_555 1_555

#END
