
#######################################################################
#
#                 Cambridge Crystallographic Data Centre
#                                CCDC 
#
#######################################################################
#
# If this CIF has been generated from an entry in the Cambridge 
# Structural Database, then it will include bibliographic, chemical, 
# crystal, experimental, refinement or atomic coordinate data resulting 
# from the CCDC's data processing and validation procedures.
#
#######################################################################

data_ANIQUL
_chemical_formula_moiety         'C35 H34 Cl1 N1 O5 Si1'
_chemical_name_systematic        
1-((t-butyl(dimethyl)silyl)oxy)-7-(4-chlorophenyl)-10,13-diphenyl-4-oxa-10-azatetracyclo[5.5.1.0^2,6^.0^8,12^]tridec-2(6)-ene-3,9,11-trione
_symmetry_cell_setting           monoclinic
_symmetry_space_group_name_H-M   'P 21/c'
_symmetry_Int_Tables_number      14
_space_group_name_Hall           '-P 2ybc'
loop_
_symmetry_equiv_pos_site_id
_symmetry_equiv_pos_as_xyz
1 x,y,z
2 -x,1/2+y,1/2-z
3 -x,-y,-z
4 x,1/2-y,1/2+z
_cell_length_a                   13.7195(3)
_cell_length_b                   17.1008(3)
_cell_length_c                   14.9247(4)
_cell_angle_alpha                90
_cell_angle_beta                 112.186(3)
_cell_angle_gamma                90
_cell_volume                     3242.31
_exptl_crystal_colour            'light colorless'
_exptl_crystal_description       block
_cell_formula_units_Z            4
loop_
_atom_site_label
_atom_site_type_symbol
_atom_site_fract_x
_atom_site_fract_y
_atom_site_fract_z
C1 C -0.1930(2) 0.24306(15) 0.4679(2)
C2 C -0.2896(2) 0.26471(18) 0.3981(3)
H1 H -0.2934 0.2848 0.3390
C3 C -0.3801(3) 0.2560(2) 0.4177(4)
H2 H -0.4448 0.2708 0.3715
C4 C -0.3751(3) 0.2258(2) 0.5042(4)
H3 H -0.4361 0.2209 0.5170
C5 C -0.2808(4) 0.2028(2) 0.5717(4)
H4 H -0.2784 0.1810 0.6296
C6 C -0.1867(3) 0.21149(19) 0.5551(3)
H5 H -0.1223 0.1964 0.6016
C7 C -0.07563(18) 0.31782(14) 0.40431(18)
C8 C 0.02500(17) 0.30201(13) 0.38880(17)
H6 H 0.0118 0.3016 0.3195
C9 C 0.06154(18) 0.22121(13) 0.43308(17)
H7 H 0.0700 0.1855 0.3851
C10 C -0.0223(2) 0.19241(14) 0.4666(2)
C11 C 0.11882(17) 0.35972(13) 0.44455(16)
C12 C 0.21285(17) 0.29980(12) 0.46235(16)
H8 H 0.2069 0.2776 0.4000
C13 C 0.17112(17) 0.23864(12) 0.51692(17)
C14 C 0.12560(17) 0.43518(13) 0.39551(16)
C15 C 0.0838(2) 0.44334(15) 0.29528(18)
H9 H 0.0440 0.4030 0.2570
C16 C 0.1006(2) 0.51094(17) 0.25176(19)
H10 H 0.0734 0.5157 0.1847
C17 C 0.1582(2) 0.57083(15) 0.3092(2)
C18 C 0.2002(2) 0.56539(14) 0.40861(19)
H11 H 0.2388 0.6064 0.4463
C19 C 0.18356(18) 0.49737(14) 0.45115(17)
H12 H 0.2116 0.4930 0.5182
C20 C 0.11879(17) 0.36197(12) 0.54626(16)
C21 C 0.0801(2) 0.41191(14) 0.60775(18)
H13 H 0.1235 0.4582 0.6298
H14 H 0.0077 0.4278 0.5729
C22 C 0.1248(2) 0.28831(15) 0.67520(18)
C23 C 0.14621(17) 0.29222(13) 0.58634(16)
C24 C 0.32273(18) 0.33141(12) 0.51263(18)
C25 C 0.3688(2) 0.36812(14) 0.4549(2)
H15 H 0.3313 0.3720 0.3886
C26 C 0.4696(2) 0.39892(16) 0.4948(2)
H16 H 0.4988 0.4238 0.4554
C27 C 0.5264(2) 0.39275(18) 0.5926(2)
H17 H 0.5941 0.4132 0.6193
C28 C 0.4828(2) 0.35630(18) 0.6510(2)
H18 H 0.5215 0.3520 0.7171
C29 C 0.3809(2) 0.32570(15) 0.6113(2)
H19 H 0.3519 0.3014 0.6513
C30 C 0.3312(3) 0.1320(2) 0.4249(3)
H20 H 0.3660 0.0891 0.4079
H21 H 0.3808 0.1736 0.4519
H22 H 0.2749 0.1506 0.3681
C31 C 0.1697(3) 0.0281(2) 0.4566(4)
H23 H 0.1237 0.0486 0.3953
H24 H 0.1306 0.0196 0.4972
H25 H 0.1992 -0.0205 0.4467
C32 C 0.3827(3) 0.05737(17) 0.6263(2)
C33 C 0.3614(8) 0.0568(5) 0.7167(6)
H26 H 0.3070 0.0194 0.7107
H27 H 0.3390 0.1078 0.7276
H28 H 0.4244 0.0426 0.7702
C34 C 0.4124(10) -0.0243(8) 0.5993(12)
H29 H 0.4752 -0.0426 0.6501
H30 H 0.4242 -0.0207 0.5400
H31 H 0.3559 -0.0603 0.5911
C35 C 0.4872(7) 0.1091(5) 0.6479(6)
H32 H 0.4741 0.1619 0.6625
H33 H 0.5058 0.1090 0.5920
H34 H 0.5439 0.0875 0.7021
Cl1 Cl 0.18167(7) 0.65448(5) 0.25354(6)
N1 N -0.09909(16) 0.25211(12) 0.44831(16)
O1 O -0.12762(15) 0.37695(11) 0.38499(16)
O2 O -0.02663(17) 0.13067(11) 0.50351(19)
O3 O 0.08911(16) 0.36066(10) 0.68815(13)
O4 O 0.13129(19) 0.23575(12) 0.73062(15)
O5 O 0.23335(14) 0.17457(9) 0.55938(13)
Si1 Si 0.27712(5) 0.09886(4) 0.51561(5)
C36? C 0.4360(10) -0.0126(9) 0.6085(12)
H35? H 0.4726 -0.0391 0.6687
H36? H 0.4854 0.0029 0.5803
H37? H 0.3846 -0.0472 0.5651
C37? C 0.4538(7) 0.1173(5) 0.6873(6)
H38? H 0.4152 0.1513 0.7130
H39? H 0.4833 0.1471 0.6491
H40? H 0.5095 0.0924 0.7395
C38? C 0.3126(8) 0.0255(6) 0.6843(7)
H41? H 0.3566 -0.0030 0.7404
H42? H 0.2584 -0.0084 0.6430
H43? H 0.2809 0.0689 0.7039
loop_
_geom_bond_atom_site_label_1
_geom_bond_atom_site_label_2
_geom_bond_site_symmetry_1
_geom_bond_site_symmetry_2
C1 C2 1_555 1_555
C2 H1 1_555 1_555
C3 C2 1_555 1_555
H2 C3 1_555 1_555
C4 C3 1_555 1_555
H3 C4 1_555 1_555
C5 C4 1_555 1_555
H4 C5 1_555 1_555
C6 C1 1_555 1_555
H5 C6 1_555 1_555
C7 C8 1_555 1_555
C8 H6 1_555 1_555
C9 C8 1_555 1_555
H7 C9 1_555 1_555
C10 C9 1_555 1_555
C11 C8 1_555 1_555
C12 C11 1_555 1_555
H8 C12 1_555 1_555
C13 C9 1_555 1_555
C14 C11 1_555 1_555
C15 C14 1_555 1_555
H9 C15 1_555 1_555
C16 C15 1_555 1_555
H10 C16 1_555 1_555
C17 C16 1_555 1_555
C18 C17 1_555 1_555
H11 C18 1_555 1_555
C19 C14 1_555 1_555
H12 C19 1_555 1_555
C20 C11 1_555 1_555
C21 C20 1_555 1_555
H13 C21 1_555 1_555
H14 C21 1_555 1_555
C22 C23 1_555 1_555
C23 C13 1_555 1_555
C24 C12 1_555 1_555
C25 C24 1_555 1_555
H15 C25 1_555 1_555
C26 C25 1_555 1_555
H16 C26 1_555 1_555
C27 C26 1_555 1_555
H17 C27 1_555 1_555
C28 C27 1_555 1_555
H18 C28 1_555 1_555
C29 C24 1_555 1_555
H19 C29 1_555 1_555
C30 H20 1_555 1_555
H21 C30 1_555 1_555
H22 C30 1_555 1_555
C31 H23 1_555 1_555
H24 C31 1_555 1_555
H25 C31 1_555 1_555
C32 C33 1_555 1_555
C33 H26 1_555 1_555
H27 C33 1_555 1_555
H28 C33 1_555 1_555
C34 C32 1_555 1_555
H29 C34 1_555 1_555
H30 C34 1_555 1_555
H31 C34 1_555 1_555
C35 C32 1_555 1_555
H32 C35 1_555 1_555
H33 C35 1_555 1_555
H34 C35 1_555 1_555
Cl1 C17 1_555 1_555
N1 C1 1_555 1_555
O1 C7 1_555 1_555
O2 C10 1_555 1_555
O3 C21 1_555 1_555
O4 C22 1_555 1_555
O5 C13 1_555 1_555
Si1 C30 1_555 1_555
C5 C6 1_555 1_555
C7 N1 1_555 1_555
C10 N1 1_555 1_555
C12 C13 1_555 1_555
C18 C19 1_555 1_555
C20 C23 1_555 1_555
C22 O3 1_555 1_555
C28 C29 1_555 1_555
C31 Si1 1_555 1_555
C32 Si1 1_555 1_555
O5 Si1 1_555 1_555

#END
