
#######################################################################
#
#                 Cambridge Crystallographic Data Centre
#                                CCDC 
#
#######################################################################
#
# If this CIF has been generated from an entry in the Cambridge 
# Structural Database, then it will include bibliographic, chemical, 
# crystal, experimental, refinement or atomic coordinate data resulting 
# from the CCDC's data processing and validation procedures.
#
#######################################################################

data_ANIVEA
_chemical_formula_moiety         'C24 H20 O2'
_chemical_name_systematic        
2,2-dimethyl-3'-phenylspiro[1-benzofuran-3,2'-chromene]
_symmetry_cell_setting           monoclinic
_symmetry_space_group_name_H-M   'P 21/n'
_symmetry_Int_Tables_number      14
_space_group_name_Hall           '-P 2yn'
loop_
_symmetry_equiv_pos_site_id
_symmetry_equiv_pos_as_xyz
1 x,y,z
2 1/2-x,1/2+y,1/2-z
3 -x,-y,-z
4 1/2+x,1/2-y,1/2+z
_cell_length_a                   8.0870(7)
_cell_length_b                   23.035(2)
_cell_length_c                   9.3977(8)
_cell_angle_alpha                90
_cell_angle_beta                 91.601(2)
_cell_angle_gamma                90
_cell_volume                     1749.96
_exptl_crystal_colour            colorless
_exptl_crystal_description       block
_cell_formula_units_Z            4
loop_
_atom_site_label
_atom_site_type_symbol
_atom_site_fract_x
_atom_site_fract_y
_atom_site_fract_z
O1 O 0.68033(10) 0.23029(3) 0.13205(8)
O2 O 0.89763(10) 0.10511(3) 0.24312(8)
C1 C 0.75186(13) 0.28282(4) 0.10255(11)
C2 C 0.72152(15) 0.32897(5) 0.19208(13)
H1 H 0.6590 0.3238 0.2726
C3 C 0.78565(16) 0.38311(5) 0.16009(14)
H2 H 0.7670 0.4144 0.2202
C4 C 0.87767(16) 0.39100(5) 0.03882(14)
H3 H 0.9193 0.4275 0.0174
C5 C 0.90728(14) 0.34430(5) -0.05026(12)
H4 H 0.9691 0.3497 -0.1312
C6 C 0.84515(13) 0.28930(5) -0.01951(11)
C7 C 0.86309(14) 0.23855(5) -0.10950(11)
H5 H 0.9011 0.2431 -0.2013
C8 C 0.82571(13) 0.18517(5) -0.06231(11)
C9 C 0.77183(13) 0.17923(4) 0.09211(11)
C10 C 0.65965(13) 0.12852(4) 0.11662(11)
C11 C 0.50136(14) 0.11716(5) 0.06389(12)
H6 H 0.4472 0.1432 0.0031
C12 C 0.42540(16) 0.06569(5) 0.10430(14)
H7 H 0.3191 0.0572 0.0701
C13 C 0.50703(16) 0.02686(5) 0.19526(14)
H8 H 0.4543 -0.0073 0.2211
C14 C 0.66576(16) 0.03810(5) 0.24816(12)
H9 H 0.7202 0.0123 0.3095
C15 C 0.73977(14) 0.08928(5) 0.20575(11)
C16 C 0.91735(14) 0.16678(5) 0.20597(11)
C17 C 1.09068(14) 0.17433(5) 0.15192(13)
H10 H 1.1694 0.1604 0.2223
H11 H 1.1107 0.2147 0.1337
H12 H 1.1018 0.1526 0.0655
C18 C 0.89600(16) 0.20035(5) 0.34399(12)
H13 H 0.7842 0.1963 0.3743
H14 H 0.9199 0.2406 0.3285
H15 H 0.9705 0.1852 0.4162
C19 C 0.83909(13) 0.13327(5) -0.15447(11)
C20 C 0.90645(14) 0.08063(5) -0.10514(12)
H16 H 0.9398 0.0771 -0.0100
C21 C 0.92406(15) 0.03375(5) -0.19604(13)
H17 H 0.9697 -0.0007 -0.1616
C22 C 0.87399(16) 0.03792(5) -0.33802(13)
H18 H 0.8862 0.0065 -0.3990
C23 C 0.80563(17) 0.08934(6) -0.38803(13)
H19 H 0.7716 0.0924 -0.4831
C24 C 0.78752(16) 0.13637(5) -0.29730(12)
H20 H 0.7403 0.1705 -0.3323
loop_
_geom_bond_atom_site_label_1
_geom_bond_atom_site_label_2
_geom_bond_site_symmetry_1
_geom_bond_site_symmetry_2
O1 C1 1_555 1_555
O2 C15 1_555 1_555
C1 C2 1_555 1_555
C2 H1 1_555 1_555
C3 C2 1_555 1_555
H2 C3 1_555 1_555
C4 C3 1_555 1_555
H3 C4 1_555 1_555
C5 C4 1_555 1_555
H4 C5 1_555 1_555
C6 C1 1_555 1_555
C7 C6 1_555 1_555
H5 C7 1_555 1_555
C8 C7 1_555 1_555
C9 O1 1_555 1_555
C10 C9 1_555 1_555
C11 C10 1_555 1_555
H6 C11 1_555 1_555
C12 C11 1_555 1_555
H7 C12 1_555 1_555
C13 C12 1_555 1_555
H8 C13 1_555 1_555
C14 C13 1_555 1_555
H9 C14 1_555 1_555
C15 C10 1_555 1_555
C16 O2 1_555 1_555
C17 C16 1_555 1_555
H10 C17 1_555 1_555
H11 C17 1_555 1_555
H12 C17 1_555 1_555
C18 C16 1_555 1_555
H13 C18 1_555 1_555
H14 C18 1_555 1_555
H15 C18 1_555 1_555
C19 C8 1_555 1_555
C20 C19 1_555 1_555
H16 C20 1_555 1_555
C21 C20 1_555 1_555
H17 C21 1_555 1_555
C22 C21 1_555 1_555
H18 C22 1_555 1_555
C23 C22 1_555 1_555
H19 C23 1_555 1_555
C24 C19 1_555 1_555
H20 C24 1_555 1_555
C5 C6 1_555 1_555
C8 C9 1_555 1_555
C9 C16 1_555 1_555
C14 C15 1_555 1_555
C23 C24 1_555 1_555

#END
