
#######################################################################
#
#                 Cambridge Crystallographic Data Centre
#                                CCDC 
#
#######################################################################
#
# If this CIF has been generated from an entry in the Cambridge 
# Structural Database, then it will include bibliographic, chemical, 
# crystal, experimental, refinement or atomic coordinate data resulting 
# from the CCDC's data processing and validation procedures.
#
#######################################################################

data_ANIXAY
_chemical_compound_source        'Icacina trichantha Oliv. (Icacinaceae)'
_chemical_name_common            'Icacinlactone H unknown solvate'
_chemical_formula_moiety         'C20 H20 O7'
_chemical_name_systematic        
'16,20-dihydroxy-4-methoxy-15-methyl-8,13,17-trioxahexacyclo[14.2.2.1^1,12^.0^2,10^.0^5,9^.0^15,21^]henicosa-2,4,6,9-tetraen-14-one unknown solvate'
_symmetry_cell_setting           orthorhombic
_symmetry_space_group_name_H-M   'P 21 21 2'
_symmetry_Int_Tables_number      18
_space_group_name_Hall           'P 2 2ab'
loop_
_symmetry_equiv_pos_site_id
_symmetry_equiv_pos_as_xyz
1 x,y,z
2 1/2+x,1/2-y,-z
3 1/2-x,1/2+y,-z
4 -x,-y,z
_cell_length_a                   6.8018(3)
_cell_length_b                   20.5957(9)
_cell_length_c                   12.4023(5)
_cell_angle_alpha                90
_cell_angle_beta                 90
_cell_angle_gamma                90
_cell_volume                     1737.41
_exptl_crystal_colour            colorless
_exptl_crystal_description       block
_cell_formula_units_Z            4
loop_
_atom_site_label
_atom_site_type_symbol
_atom_site_fract_x
_atom_site_fract_y
_atom_site_fract_z
C1 C 0.8477(9) 0.7380(3) 0.4133(5)
H1 H 0.9780 0.7214 0.4360
H2 H 0.7519 0.7280 0.4711
C2 C 0.8586(10) 0.8124(3) 0.3959(5)
H3 H 0.9983 0.8264 0.4051
O1 O 0.7436(9) 0.84367(19) 0.4742(4)
H4 H 0.725(15) 0.8840(11) 0.471(8)
C3 C 0.7952(9) 0.8278(3) 0.2812(5)
O2 O 0.7864(7) 0.8953(2) 0.2705(4)
H5 H 0.760(15) 0.899(5) 0.205(2)
C4 C 0.9356(9) 0.7956(3) 0.1988(5)
C5 C 1.1414(10) 0.8264(3) 0.1946(5)
H6 H 1.2210 0.8041 0.1401
H7 H 1.2047 0.8222 0.2653
H8 H 1.1298 0.8724 0.1758
C6 C 0.9390(8) 0.7218(3) 0.2214(5)
H9 H 1.0725 0.7093 0.2480
C7 C 0.9047(10) 0.6909(3) 0.1107(5)
H10 H 1.0344 0.6795 0.0779
O3 O 0.8110(7) 0.7416(2) 0.0457(3)
C8 C 0.8435(10) 0.8006(3) 0.0889(5)
O4 O 0.7997(8) 0.8499(2) 0.0417(4)
C9 C 0.7706(11) 0.6303(3) 0.1102(5)
H11 H 0.6354 0.6434 0.0901
H12 H 0.8186 0.5993 0.0552
C10 C 0.7661(8) 0.5973(3) 0.2181(5)
C11 C 0.7697(8) 0.6310(3) 0.3147(5)
C12 C 0.7845(8) 0.7043(3) 0.3081(5)
C13 C 0.7639(10) 0.5985(3) 0.4146(5)
H13 H 0.7666 0.6232 0.4793
C14 C 0.7543(9) 0.5315(3) 0.4212(5)
C15 C 0.7485(9) 0.4959(3) 0.3249(4)
C16 C 0.7535(8) 0.5300(3) 0.2280(5)
O5 O 0.7462(7) 0.48758(19) 0.1418(3)
C17 C 0.7338(9) 0.4278(3) 0.2964(5)
H14 H 0.7269 0.3918 0.3442
C18 C 0.7319(9) 0.4265(3) 0.1876(5)
H15 H 0.7219 0.3876 0.1467
C19 C 0.5831(9) 0.7343(3) 0.2762(6)
H16 H 0.5359 0.7141 0.2085
H17 H 0.4853 0.7254 0.3334
O6 O 0.6028(6) 0.8035(2) 0.2613(4)
O7 O 0.7526(8) 0.49574(19) 0.5142(3)
C20 C 0.7568(16) 0.5335(3) 0.6121(5)
H18 H 0.8729 0.5617 0.6119
H19 H 0.7624 0.5044 0.6744
H20 H 0.6378 0.5603 0.6164
loop_
_geom_bond_atom_site_label_1
_geom_bond_atom_site_label_2
_geom_bond_site_symmetry_1
_geom_bond_site_symmetry_2
C1 H1 1_555 1_555
H2 C1 1_555 1_555
C2 C1 1_555 1_555
H3 C2 1_555 1_555
O1 C2 1_555 1_555
H4 O1 1_555 1_555
C3 C2 1_555 1_555
O2 C3 1_555 1_555
H5 O2 1_555 1_555
C4 C3 1_555 1_555
C5 C4 1_555 1_555
H6 C5 1_555 1_555
H7 C5 1_555 1_555
H8 C5 1_555 1_555
C6 C4 1_555 1_555
H9 C6 1_555 1_555
C7 C6 1_555 1_555
H10 C7 1_555 1_555
O3 C7 1_555 1_555
C8 C4 1_555 1_555
O4 C8 1_555 1_555
C9 C7 1_555 1_555
H11 C9 1_555 1_555
H12 C9 1_555 1_555
C10 C9 1_555 1_555
C11 C10 1_555 1_555
C12 C1 1_555 1_555
C13 C11 1_555 1_555
H13 C13 1_555 1_555
C14 C13 1_555 1_555
C15 C14 1_555 1_555
C16 C10 1_555 1_555
O5 C16 1_555 1_555
C17 C15 1_555 1_555
H14 C17 1_555 1_555
C18 O5 1_555 1_555
H15 C18 1_555 1_555
C19 C12 1_555 1_555
H16 C19 1_555 1_555
H17 C19 1_555 1_555
O6 C3 1_555 1_555
O7 C14 1_555 1_555
C20 O7 1_555 1_555
H18 C20 1_555 1_555
H19 C20 1_555 1_555
H20 C20 1_555 1_555
C6 C12 1_555 1_555
O3 C8 1_555 1_555
C11 C12 1_555 1_555
C15 C16 1_555 1_555
C17 C18 1_555 1_555
C19 O6 1_555 1_555

#END
