
#######################################################################
#
#                 Cambridge Crystallographic Data Centre
#                                CCDC 
#
#######################################################################
#
# If this CIF has been generated from an entry in the Cambridge 
# Structural Database, then it will include bibliographic, chemical, 
# crystal, experimental, refinement or atomic coordinate data resulting 
# from the CCDC's data processing and validation procedures.
#
#######################################################################

data_ANIXOL
_chemical_formula_moiety         'C20 H30 N6 O1,0.5(C2 H6 O1)'
_chemical_name_systematic        
'4-(Dicyclohexylamino)-6-(morpholin-4-yl)-1,3,5-triazine-2-carbonitrile ethanol solvate'
_symmetry_cell_setting           triclinic
_symmetry_space_group_name_H-M   'P -1'
_symmetry_Int_Tables_number      2
_space_group_name_Hall           '-P 1'
loop_
_symmetry_equiv_pos_site_id
_symmetry_equiv_pos_as_xyz
1 x,y,z
2 -x,-y,-z
_cell_length_a                   6.5732(8)
_cell_length_b                   13.4936(14)
_cell_length_c                   13.670(2)
_cell_angle_alpha                62.852(5)
_cell_angle_beta                 78.055(4)
_cell_angle_gamma                80.963(7)
_cell_volume                     1052.8
_exptl_crystal_colour            colorless
_exptl_crystal_description       needle
_cell_formula_units_Z            2
loop_
_atom_site_label
_atom_site_type_symbol
_atom_site_fract_x
_atom_site_fract_y
_atom_site_fract_z
O2 O 0.1823(14) 0.5450(9) 0.5335(7)
C21 C 0.0936(11) 0.4661(5) 0.5186(5)
O2A O -0.1823(14) 0.4550(9) 0.4665(7)
C21A C -0.0936(11) 0.5339(5) 0.4814(5)
O1 O 0.5336(4) 0.2283(2) 0.8052(2)
N1 N 0.2671(5) 0.4458(3) 1.0198(3)
N2 N 0.1970(4) 0.6401(3) 0.9767(3)
N3 N 0.3134(4) 0.5845(3) 0.8300(3)
N4 N 0.1104(5) 0.4787(3) 1.2557(3)
N5 N 0.2421(5) 0.7707(2) 0.7910(3)
N6 N 0.3775(5) 0.3972(2) 0.8743(3)
C1 C 0.2114(5) 0.5324(3) 1.0429(3)
C2 C 0.2513(5) 0.6628(3) 0.8669(3)
C3 C 0.3180(5) 0.4786(3) 0.9078(3)
C4 C 0.1548(5) 0.5029(3) 1.1624(3)
C5 C 0.1532(5) 0.8597(3) 0.8261(3)
C6 C -0.0382(6) 0.9228(4) 0.7719(4)
C7 C -0.1346(6) 1.0099(3) 0.8148(4)
C8 C 0.0271(7) 1.0891(3) 0.7959(4)
C9 C 0.2165(7) 1.0257(4) 0.8481(4)
C10 C 0.3148(6) 0.9396(3) 0.8053(4)
C11 C 0.3140(6) 0.8062(3) 0.6700(3)
C12 C 0.1817(6) 0.7696(3) 0.6154(3)
C13 C 0.2582(7) 0.8181(4) 0.4893(4)
C14 C 0.4876(6) 0.7864(4) 0.4645(4)
C15 C 0.6190(6) 0.8238(4) 0.5190(4)
C16 C 0.5475(6) 0.7769(4) 0.6444(3)
C17 C 0.4102(7) 0.4216(4) 0.7562(3)
C18 C 0.5748(6) 0.3418(3) 0.7330(4)
C19 C 0.5271(6) 0.2075(3) 0.9175(3)
C20 C 0.3533(6) 0.2795(3) 0.9505(4)
H1 H 0.097(6) 0.817(3) 0.913(4)
H2 H -0.014(6) 0.967(3) 0.696(4)
H3 H -0.152(6) 0.867(3) 0.795(4)
H4 H -0.195(6) 0.970(3) 0.904(4)
H5 H -0.254(8) 1.048(4) 0.782(4)
H6 H 0.065(6) 1.124(3) 0.720(4)
H7 H -0.040(7) 1.145(4) 0.823(4)
H8 H 0.179(6) 0.986(4) 0.933(4)
H9 H 0.321(7) 1.068(3) 0.831(4)
H10 H 0.439(6) 0.894(3) 0.839(3)
H11 H 0.368(7) 0.973(4) 0.725(5)
H12 H 0.309(6) 0.895(3) 0.629(3)
H13 H 0.019(7) 0.789(3) 0.631(4)
H14 H 0.188(6) 0.680(4) 0.653(4)
H15 H 0.165(6) 0.791(3) 0.457(4)
H16 H 0.227(5) 0.900(3) 0.457(3)
H17 H 0.521(8) 0.696(5) 0.495(5)
H18 H 0.531(7) 0.821(4) 0.383(5)
H19 H 0.595(7) 0.904(4) 0.491(4)
H20 H 0.768(7) 0.804(3) 0.507(3)
H21 H 0.637(6) 0.808(3) 0.676(3)
H22 H 0.576(6) 0.700(4) 0.675(3)
H23 H 0.293(7) 0.413(3) 0.740(4)
H24 H 0.452(6) 0.495(4) 0.719(4)
H25 H 0.712(6) 0.352(3) 0.742(3)
H26 H 0.568(6) 0.353(3) 0.658(4)
H27 H 0.672(6) 0.224(3) 0.923(3)
H28 H 0.503(7) 0.125(4) 0.962(4)
H29 H 0.214(6) 0.268(3) 0.948(3)
H30 H 0.355(6) 0.272(3) 1.022(4)
loop_
_geom_bond_atom_site_label_1
_geom_bond_atom_site_label_2
_geom_bond_site_symmetry_1
_geom_bond_site_symmetry_2
O1 C18 1_555 1_555
N1 C1 1_555 1_555
N2 C1 1_555 1_555
N3 C2 1_555 1_555
N4 C4 1_555 1_555
N5 C2 1_555 1_555
N6 C3 1_555 1_555
C1 C4 1_555 1_555
C2 N2 1_555 1_555
C3 N1 1_555 1_555
C5 N5 1_555 1_555
C6 C5 1_555 1_555
C7 C6 1_555 1_555
C8 C7 1_555 1_555
C9 C8 1_555 1_555
C10 C5 1_555 1_555
C11 N5 1_555 1_555
C12 C11 1_555 1_555
C13 C12 1_555 1_555
C14 C13 1_555 1_555
C15 C14 1_555 1_555
C16 C11 1_555 1_555
C17 N6 1_555 1_555
C18 C17 1_555 1_555
C19 O1 1_555 1_555
C20 N6 1_555 1_555
O2 C21 1_555 1_555
C21 C21A 1_555 1_555
H1 C5 1_555 1_555
H2 C6 1_555 1_555
H3 C6 1_555 1_555
H4 C7 1_555 1_555
H5 C7 1_555 1_555
H6 C8 1_555 1_555
H7 C8 1_555 1_555
H8 C9 1_555 1_555
H9 C9 1_555 1_555
H10 C10 1_555 1_555
H11 C10 1_555 1_555
H12 C11 1_555 1_555
H13 C12 1_555 1_555
H14 C12 1_555 1_555
H15 C13 1_555 1_555
H16 C13 1_555 1_555
H17 C14 1_555 1_555
H18 C14 1_555 1_555
H19 C15 1_555 1_555
H20 C15 1_555 1_555
H21 C16 1_555 1_555
H22 C16 1_555 1_555
H23 C17 1_555 1_555
H24 C17 1_555 1_555
H25 C18 1_555 1_555
H26 C18 1_555 1_555
H27 C19 1_555 1_555
H28 C19 1_555 1_555
H29 C20 1_555 1_555
H30 C20 1_555 1_555
O2A C21A 1_555 1_555
N3 C3 1_555 1_555
C9 C10 1_555 1_555
C15 C16 1_555 1_555
C19 C20 1_555 1_555

#END
