
#######################################################################
#
#                 Cambridge Crystallographic Data Centre
#                                CCDC 
#
#######################################################################
#
# If this CIF has been generated from an entry in the Cambridge 
# Structural Database, then it will include bibliographic, chemical, 
# crystal, experimental, refinement or atomic coordinate data resulting 
# from the CCDC's data processing and validation procedures.
#
#######################################################################

data_ANIXIG
_chemical_formula_moiety         'C21 H18 O4 S1'
_chemical_name_systematic        
'ethyl 4-benzoyl-5-(methylsulfanyl)-2-phenyl-3-furoate'
_symmetry_cell_setting           triclinic
_symmetry_space_group_name_H-M   'P -1'
_symmetry_Int_Tables_number      2
_space_group_name_Hall           '-P 1'
loop_
_symmetry_equiv_pos_site_id
_symmetry_equiv_pos_as_xyz
1 x,y,z
2 -x,-y,-z
_cell_length_a                   7.6230(6)
_cell_length_b                   10.7719(7)
_cell_length_c                   11.8700(9)
_cell_angle_alpha                97.780(6)
_cell_angle_beta                 97.592(6)
_cell_angle_gamma                100.123(6)
_cell_volume                     938.466
_exptl_crystal_colour            colorless
_exptl_crystal_description       prismatic
_cell_formula_units_Z            2
loop_
_atom_site_label
_atom_site_type_symbol
_atom_site_fract_x
_atom_site_fract_y
_atom_site_fract_z
S1 S 1.29729(8) 0.57797(6) 0.02435(5)
O1 O 1.05397(17) 0.71937(12) -0.02809(11)
O2 O 1.1595(3) 0.52778(15) 0.24917(15)
O3 O 0.7193(3) 0.87795(16) 0.20473(16)
O4 O 0.74240(18) 0.69037(13) 0.25834(12)
C1 C 0.9246(2) 0.77740(18) 0.01619(17)
C2 C 0.9198(2) 0.75589(17) 0.12583(17)
C3 C 1.0551(3) 0.68049(17) 0.15208(17)
C4 C 1.1298(3) 0.66060(18) 0.05535(18)
C5 C 1.1131(3) 0.63116(19) 0.25768(18)
C6 C 1.1280(3) 0.70836(19) 0.37286(18)
C7 C 1.1295(3) 0.6471(3) 0.4676(2)
H1 H 1.1201 0.5589 0.4577
C8 C 1.1447(5) 0.7143(4) 0.5760(3)
H2 H 1.1423 0.6714 0.6389
C9 C 1.1631(5) 0.8435(4) 0.5919(3)
H3 H 1.1732 0.8891 0.6656
C10 C 1.1668(4) 0.9061(3) 0.4998(3)
H4 H 1.1821 0.9948 0.5112
C11 C 1.1478(3) 0.8392(2) 0.3891(2)
H5 H 1.1485 0.8825 0.3264
C12 C 0.8194(3) 0.83541(18) -0.06757(18)
C13 C 0.7500(3) 0.94316(19) -0.0339(2)
H6 H 0.7730 0.9816 0.0430
C14 C 0.6472(3) 0.9932(2) -0.1141(2)
H7 H 0.6002 1.0648 -0.0908
C15 C 0.6137(3) 0.9386(2) -0.2274(2)
H8 H 0.5435 0.9724 -0.2810
C16 C 0.6845(4) 0.8331(3) -0.2621(2)
H9 H 0.6630 0.7965 -0.3395
C17 C 0.7872(3) 0.7813(2) -0.1827(2)
H10 H 0.8345 0.7102 -0.2068
C18 C 0.7848(3) 0.7845(2) 0.19837(18)
C19 C 0.6171(3) 0.7093(3) 0.3378(2)
H11 H 0.5008 0.7135 0.2956
H12 H 0.6620 0.7892 0.3904
C20 C 0.5973(4) 0.6029(3) 0.4024(3)
H13 H 0.5430 0.5252 0.3506
H14 H 0.5220 0.6181 0.4595
H15 H 0.7139 0.5955 0.4395
C21 C 1.3504(4) 0.6323(3) -0.1045(2)
H16 H 1.2472 0.6052 -0.1641
H17 H 1.4496 0.5970 -0.1279
H18 H 1.3832 0.7239 -0.0909
loop_
_geom_bond_atom_site_label_1
_geom_bond_atom_site_label_2
_geom_bond_site_symmetry_1
_geom_bond_site_symmetry_2
S1 C4 1_555 1_555
O1 C1 1_555 1_555
O2 C5 1_555 1_555
O3 C18 1_555 1_555
O4 C18 1_555 1_555
C1 C2 1_555 1_555
C2 C3 1_555 1_555
C3 C4 1_555 1_555
C4 O1 1_555 1_555
C5 C3 1_555 1_555
C6 C5 1_555 1_555
C7 C6 1_555 1_555
H1 C7 1_555 1_555
C8 C7 1_555 1_555
H2 C8 1_555 1_555
C9 C8 1_555 1_555
H3 C9 1_555 1_555
C10 C9 1_555 1_555
H4 C10 1_555 1_555
C11 C6 1_555 1_555
H5 C11 1_555 1_555
C12 C1 1_555 1_555
C13 C12 1_555 1_555
H6 C13 1_555 1_555
C14 C13 1_555 1_555
H7 C14 1_555 1_555
C15 C14 1_555 1_555
H8 C15 1_555 1_555
C16 C15 1_555 1_555
H9 C16 1_555 1_555
C17 C12 1_555 1_555
H10 C17 1_555 1_555
C18 C2 1_555 1_555
C19 O4 1_555 1_555
H11 C19 1_555 1_555
H12 C19 1_555 1_555
C20 C19 1_555 1_555
H13 C20 1_555 1_555
H14 C20 1_555 1_555
H15 C20 1_555 1_555
C21 S1 1_555 1_555
H16 C21 1_555 1_555
H17 C21 1_555 1_555
H18 C21 1_555 1_555
C10 C11 1_555 1_555
C16 C17 1_555 1_555

#END
