
#######################################################################
#
#                 Cambridge Crystallographic Data Centre
#                                CCDC 
#
#######################################################################
#
# If this CIF has been generated from an entry in the Cambridge 
# Structural Database, then it will include bibliographic, chemical, 
# crystal, experimental, refinement or atomic coordinate data resulting 
# from the CCDC's data processing and validation procedures.
#
#######################################################################

data_ANOFOZ
_chemical_formula_moiety         'C18 H22 O1 S1'
_chemical_name_systematic        
8-Methyl-8a-((phenylsulfanyl)methyl)-3,4,4a,5,8,8a-hexahydronaphthalen-1(2H)-one
_symmetry_cell_setting           monoclinic
_symmetry_space_group_name_H-M   'P 21'
_symmetry_Int_Tables_number      4
_space_group_name_Hall           'P 2yb'
loop_
_symmetry_equiv_pos_site_id
_symmetry_equiv_pos_as_xyz
1 x,y,z
2 -x,1/2+y,-z
_cell_length_a                   6.891(3)
_cell_length_b                   13.921(5)
_cell_length_c                   8.200(3)
_cell_angle_alpha                90
_cell_angle_beta                 105.658(6)
_cell_angle_gamma                90
_cell_volume                     757.431
_exptl_crystal_colour            colorless
_exptl_crystal_description       block
_cell_formula_units_Z            2
loop_
_atom_site_label
_atom_site_type_symbol
_atom_site_fract_x
_atom_site_fract_y
_atom_site_fract_z
S1 S 0.43035(12) 0.35194(6) 0.15651(9)
O1 O 0.8711(4) 0.25582(17) 0.3232(3)
C1 C 0.4345(5) 0.3228(2) 0.3747(4)
H1 H 0.4570 0.3825 0.4430
H2 H 0.3016 0.2965 0.3765
C2 C 0.5996(5) 0.2494(2) 0.4563(4)
C3 C 0.7964(5) 0.2867(2) 0.4297(4)
C4 C 0.8926(5) 0.3711(2) 0.5372(4)
H3 H 0.8137 0.4297 0.4950
H4 H 1.0301 0.3806 0.5245
C5 C 0.9054(5) 0.3586(3) 0.7227(4)
H5 H 0.9517 0.4195 0.7832
H6 H 1.0060 0.3083 0.7712
C6 C 0.7018(5) 0.3305(2) 0.7501(4)
H7 H 0.7188 0.3181 0.8721
H8 H 0.6062 0.3846 0.7159
C7 C 0.6137(5) 0.2412(2) 0.6490(4)
H9 H 0.7091 0.1873 0.6941
C8 C 0.4125(6) 0.2130(3) 0.6781(4)
H10 H 0.4351 0.1902 0.7961
H11 H 0.3246 0.2704 0.6635
C9 C 0.3071(6) 0.1357(3) 0.5588(5)
H12 H 0.1965 0.1036 0.5832
C10 C 0.3606(6) 0.1099(3) 0.4211(5)
H13 H 0.2788 0.0642 0.3475
C11 C 0.5428(6) 0.1485(3) 0.3737(4)
H14 H 0.5049 0.1571 0.2479
C12 C 0.7165(6) 0.0728(3) 0.4206(5)
H15 H 0.6692 0.0118 0.3642
H16 H 0.7573 0.0632 0.5435
H17 H 0.8319 0.0960 0.3834
C13 C 0.2454(5) 0.4445(2) 0.1119(4)
C14 C 0.2829(5) 0.5267(3) 0.0273(4)
H18 H 0.4073 0.5331 -0.0009
C15 C 0.1407(6) 0.5985(3) -0.0156(4)
H19 H 0.1673 0.6538 -0.0741
C16 C -0.0407(6) 0.5909(3) 0.0259(4)
H20 H -0.1377 0.6410 -0.0018
C17 C -0.0782(5) 0.5091(3) 0.1084(4)
H21 H -0.2023 0.5030 0.1370
C18 C 0.0628(5) 0.4360(3) 0.1498(4)
H22 H 0.0337 0.3798 0.2045
loop_
_geom_bond_atom_site_label_1
_geom_bond_atom_site_label_2
_geom_bond_site_symmetry_1
_geom_bond_site_symmetry_2
S1 C1 1_555 1_555
O1 C3 1_555 1_555
C1 H1 1_555 1_555
H2 C1 1_555 1_555
C2 C1 1_555 1_555
C3 C2 1_555 1_555
C4 C3 1_555 1_555
H3 C4 1_555 1_555
H4 C4 1_555 1_555
C5 C4 1_555 1_555
H5 C5 1_555 1_555
H6 C5 1_555 1_555
C6 C5 1_555 1_555
H7 C6 1_555 1_555
H8 C6 1_555 1_555
C7 C2 1_555 1_555
H9 C7 1_555 1_555
C8 C7 1_555 1_555
H10 C8 1_555 1_555
H11 C8 1_555 1_555
C9 C8 1_555 1_555
H12 C9 1_555 1_555
C10 C9 1_555 1_555
H13 C10 1_555 1_555
C11 C2 1_555 1_555
H14 C11 1_555 1_555
C12 C11 1_555 1_555
H15 C12 1_555 1_555
H16 C12 1_555 1_555
H17 C12 1_555 1_555
C13 S1 1_555 1_555
C14 C13 1_555 1_555
H18 C14 1_555 1_555
C15 C14 1_555 1_555
H19 C15 1_555 1_555
C16 C15 1_555 1_555
H20 C16 1_555 1_555
C17 C16 1_555 1_555
H21 C17 1_555 1_555
C18 C13 1_555 1_555
H22 C18 1_555 1_555
C6 C7 1_555 1_555
C10 C11 1_555 1_555
C17 C18 1_555 1_555

#END
