
#######################################################################
#
#                 Cambridge Crystallographic Data Centre
#                                CCDC 
#
#######################################################################
#
# If this CIF has been generated from an entry in the Cambridge 
# Structural Database, then it will include bibliographic, chemical, 
# crystal, experimental, refinement or atomic coordinate data resulting 
# from the CCDC's data processing and validation procedures.
#
#######################################################################

data_ANOFUF
_chemical_formula_moiety         'C19 H24 O2 S1'
_chemical_name_systematic        
6,7-Dimethyl-8a-((phenylsulfinyl)methyl)-3,4,4a,5,8,8a-hexahydronaphthalen-1(2H)-one
_symmetry_cell_setting           monoclinic
_symmetry_space_group_name_H-M   'P 21/c'
_symmetry_Int_Tables_number      14
_space_group_name_Hall           '-P 2ybc'
loop_
_symmetry_equiv_pos_site_id
_symmetry_equiv_pos_as_xyz
1 x,y,z
2 -x,1/2+y,1/2-z
3 -x,-y,-z
4 x,1/2-y,1/2+z
_cell_length_a                   10.757(3)
_cell_length_b                   22.315(5)
_cell_length_c                   7.0957(16)
_cell_angle_alpha                90
_cell_angle_beta                 94.897(3)
_cell_angle_gamma                90
_cell_volume                     1697.05
_exptl_crystal_colour            colorless
_exptl_crystal_description       block
_cell_formula_units_Z            4
loop_
_atom_site_label
_atom_site_type_symbol
_atom_site_fract_x
_atom_site_fract_y
_atom_site_fract_z
S1 S 0.26086(12) 0.32920(5) 0.42008(15)
O1 O -0.0704(3) 0.38135(16) 0.3288(5)
O2 O 0.1755(3) 0.27662(16) 0.4367(5)
C1 C 0.2788(5) 0.5407(2) 0.3811(7)
H1 H 0.3304 0.5715 0.3280
H2 H 0.3296 0.5177 0.4768
H3 H 0.2096 0.5598 0.4396
C2 C 0.3491(5) 0.5444(2) -0.0284(7)
H4 H 0.4059 0.5593 0.0766
H5 H 0.3039 0.5782 -0.0902
H6 H 0.3972 0.5238 -0.1202
C3 C 0.2274(5) 0.4992(2) 0.2252(7)
C4 C 0.2571(4) 0.5012(2) 0.0463(6)
C5 C 0.2000(5) 0.4587(2) -0.1045(6)
H7 H 0.1731 0.4822 -0.2189
H8 H 0.2653 0.4304 -0.1387
C6 C 0.0892(4) 0.4227(2) -0.0479(6)
H9 H 0.0167 0.4508 -0.0521
C7 C 0.0522(5) 0.3719(2) -0.1870(6)
H10 H 0.0358 0.3888 -0.3157
H11 H 0.1227 0.3434 -0.1892
C8 C -0.0623(5) 0.3384(2) -0.1354(6)
H12 H -0.0782 0.3042 -0.2230
H13 H -0.1355 0.3654 -0.1504
C9 C -0.0467(5) 0.3148(2) 0.0711(6)
H14 H -0.1267 0.2979 0.1060
H15 H 0.0168 0.2826 0.0819
C10 C -0.0065(4) 0.3655(2) 0.2035(6)
C11 C 0.1117(4) 0.4001(2) 0.1613(6)
C12 C 0.1317(4) 0.4549(2) 0.2890(6)
H16 H 0.0510 0.4758 0.2942
H17 H 0.1591 0.4412 0.4187
C13 C 0.2280(4) 0.3587(2) 0.1820(6)
H18 H 0.3015 0.3814 0.1467
H19 H 0.2148 0.3247 0.0926
C14 C 0.4128(4) 0.3003(2) 0.3821(6)
C15 C 0.5119(5) 0.3399(2) 0.3818(6)
H20 H 0.4991 0.3817 0.3951
C16 C 0.6307(5) 0.3171(3) 0.3615(7)
H21 H 0.6998 0.3435 0.3595
C17 C 0.6477(5) 0.2556(3) 0.3441(7)
H22 H 0.7287 0.2402 0.3302
C18 C 0.5477(5) 0.2169(2) 0.3469(7)
H23 H 0.5605 0.1750 0.3361
C19 C 0.4292(5) 0.2388(2) 0.3652(6)
H24 H 0.3602 0.2122 0.3663
loop_
_geom_bond_atom_site_label_1
_geom_bond_atom_site_label_2
_geom_bond_site_symmetry_1
_geom_bond_site_symmetry_2
S1 O2 1_555 1_555
O1 C10 1_555 1_555
C1 H1 1_555 1_555
H2 C1 1_555 1_555
H3 C1 1_555 1_555
C2 H4 1_555 1_555
H5 C2 1_555 1_555
H6 C2 1_555 1_555
C3 C1 1_555 1_555
C4 C2 1_555 1_555
C5 C4 1_555 1_555
H7 C5 1_555 1_555
H8 C5 1_555 1_555
C6 C5 1_555 1_555
H9 C6 1_555 1_555
C7 C6 1_555 1_555
H10 C7 1_555 1_555
H11 C7 1_555 1_555
C8 C7 1_555 1_555
H12 C8 1_555 1_555
H13 C8 1_555 1_555
C9 C8 1_555 1_555
H14 C9 1_555 1_555
H15 C9 1_555 1_555
C10 C9 1_555 1_555
C11 C6 1_555 1_555
C12 C3 1_555 1_555
H16 C12 1_555 1_555
H17 C12 1_555 1_555
C13 S1 1_555 1_555
H18 C13 1_555 1_555
H19 C13 1_555 1_555
C14 S1 1_555 1_555
C15 C14 1_555 1_555
H20 C15 1_555 1_555
C16 C15 1_555 1_555
H21 C16 1_555 1_555
C17 C16 1_555 1_555
H22 C17 1_555 1_555
C18 C17 1_555 1_555
H23 C18 1_555 1_555
C19 C14 1_555 1_555
H24 C19 1_555 1_555
C3 C4 1_555 1_555
C10 C11 1_555 1_555
C11 C12 1_555 1_555
C11 C13 1_555 1_555
C18 C19 1_555 1_555

#END
