
#######################################################################
#
#                 Cambridge Crystallographic Data Centre
#                                CCDC 
#
#######################################################################
#
# If this CIF has been generated from an entry in the Cambridge 
# Structural Database, then it will include bibliographic, chemical, 
# crystal, experimental, refinement or atomic coordinate data resulting 
# from the CCDC's data processing and validation procedures.
#
#######################################################################

data_ANOGEQ
_chemical_formula_moiety         'C19 H24 O4 S1'
_chemical_name_systematic        
1a,7a-Dimethyl-2a-((phenylsulfonyl)methyl)-octahydronaphtho[2,3-b]oxiren-3(1aH)-one
_symmetry_cell_setting           triclinic
_symmetry_space_group_name_H-M   'P -1'
_symmetry_Int_Tables_number      2
_space_group_name_Hall           '-P 1'
loop_
_symmetry_equiv_pos_site_id
_symmetry_equiv_pos_as_xyz
1 x,y,z
2 -x,-y,-z
_cell_length_a                   6.7742(17)
_cell_length_b                   10.931(3)
_cell_length_c                   12.355(3)
_cell_angle_alpha                100.562(4)
_cell_angle_beta                 105.036(4)
_cell_angle_gamma                90.395(4)
_cell_volume                     867.151
_exptl_crystal_colour            colorless
_exptl_crystal_description       block
_cell_formula_units_Z            2
loop_
_atom_site_label
_atom_site_type_symbol
_atom_site_fract_x
_atom_site_fract_y
_atom_site_fract_z
S1 S 0.13410(5) 0.71930(3) 0.06783(3)
O1 O 0.38813(15) 0.77535(9) 0.53792(8)
O2 O 0.70378(15) 0.67430(10) 0.24473(9)
O3 O -0.0320(2) 0.65581(10) -0.02449(9)
O4 O 0.33211(18) 0.73449(10) 0.04758(9)
C1 C 0.29291(19) 0.81517(12) 0.43056(11)
C2 C 0.1917(2) 0.71692(13) 0.46857(11)
C3 C 0.1996(2) 0.58219(12) 0.41473(11)
H1 H 0.0658 0.5545 0.3593
H2 H 0.2191 0.5315 0.4750
C4 C 0.36775(19) 0.55576(11) 0.35351(10)
H3 H 0.5014 0.5712 0.4134
C5 C 0.3553(2) 0.41885(12) 0.29420(11)
H4 H 0.3665 0.3652 0.3517
H5 H 0.2202 0.3987 0.2380
C6 C 0.5238(2) 0.39005(14) 0.23319(13)
H6 H 0.5013 0.3031 0.1900
H7 H 0.6581 0.3975 0.2905
C7 C 0.5269(2) 0.47927(13) 0.15067(13)
H8 H 0.6447 0.4643 0.1174
H9 H 0.3994 0.4661 0.0877
C8 C 0.5450(2) 0.60978(13) 0.21833(11)
C9 C 0.36744(18) 0.64903(11) 0.27118(10)
C10 C 0.41141(19) 0.78195(11) 0.34167(11)
H10 H 0.5595 0.7935 0.3807
H11 H 0.3804 0.8413 0.2887
C11 C 0.2237(2) 0.94671(13) 0.44243(13)
H12 H 0.1924 0.9712 0.5163
H13 H 0.1009 0.9510 0.3807
H14 H 0.3329 1.0033 0.4380
C12 C 0.0150(2) 0.74191(15) 0.52115(13)
H15 H 0.0274 0.8288 0.5614
H16 H 0.0169 0.6864 0.5753
H17 H -0.1140 0.7268 0.4610
C13 C 0.15825(19) 0.63497(11) 0.18120(11)
H18 H 0.0521 0.6616 0.2212
H19 H 0.1280 0.5454 0.1470
C14 C 0.0530(2) 0.86864(12) 0.11392(11)
C15 C -0.1405(2) 0.88132(15) 0.13165(14)
H20 H -0.2303 0.8104 0.1208
C16 C -0.1991(3) 1.00071(18) 0.16576(16)
H21 H -0.3299 1.0113 0.1799
C17 C -0.0716(3) 1.10354(16) 0.17940(14)
H22 H -0.1151 1.1845 0.2019
C18 C 0.1180(3) 1.08978(14) 0.16071(14)
H23 H 0.2056 1.1613 0.1700
C19 C 0.1828(2) 0.97223(13) 0.12839(13)
H24 H 0.3151 0.9627 0.1162
loop_
_geom_bond_atom_site_label_1
_geom_bond_atom_site_label_2
_geom_bond_site_symmetry_1
_geom_bond_site_symmetry_2
S1 O3 1_555 1_555
O1 C1 1_555 1_555
O2 C8 1_555 1_555
O4 S1 1_555 1_555
C1 C2 1_555 1_555
C2 O1 1_555 1_555
C3 C2 1_555 1_555
H1 C3 1_555 1_555
H2 C3 1_555 1_555
C4 C3 1_555 1_555
H3 C4 1_555 1_555
C5 C4 1_555 1_555
H4 C5 1_555 1_555
H5 C5 1_555 1_555
C6 C5 1_555 1_555
H6 C6 1_555 1_555
H7 C6 1_555 1_555
C7 C6 1_555 1_555
H8 C7 1_555 1_555
H9 C7 1_555 1_555
C8 C7 1_555 1_555
C9 C4 1_555 1_555
C10 C1 1_555 1_555
H10 C10 1_555 1_555
H11 C10 1_555 1_555
C11 C1 1_555 1_555
H12 C11 1_555 1_555
H13 C11 1_555 1_555
H14 C11 1_555 1_555
C12 C2 1_555 1_555
H15 C12 1_555 1_555
H16 C12 1_555 1_555
H17 C12 1_555 1_555
C13 S1 1_555 1_555
H18 C13 1_555 1_555
H19 C13 1_555 1_555
C14 S1 1_555 1_555
C15 C14 1_555 1_555
H20 C15 1_555 1_555
C16 C15 1_555 1_555
H21 C16 1_555 1_555
C17 C16 1_555 1_555
H22 C17 1_555 1_555
C18 C17 1_555 1_555
H23 C18 1_555 1_555
C19 C14 1_555 1_555
H24 C19 1_555 1_555
C8 C9 1_555 1_555
C9 C10 1_555 1_555
C9 C13 1_555 1_555
C18 C19 1_555 1_555

#END
