
#######################################################################
#
#                 Cambridge Crystallographic Data Centre
#                                CCDC 
#
#######################################################################
#
# If this CIF has been generated from an entry in the Cambridge 
# Structural Database, then it will include bibliographic, chemical, 
# crystal, experimental, refinement or atomic coordinate data resulting 
# from the CCDC's data processing and validation procedures.
#
#######################################################################

data_ANOQIF
_chemical_formula_moiety         'C17 H18 N4 O1'
_chemical_name_systematic        
2,2-dimethyl-N-(5-(1H-pyrazol-1-yl)quinolin-8-yl)propanamide
_symmetry_cell_setting           monoclinic
_symmetry_space_group_name_H-M   'P 21/c'
_symmetry_Int_Tables_number      14
_space_group_name_Hall           '-P 2ybc'
loop_
_symmetry_equiv_pos_site_id
_symmetry_equiv_pos_as_xyz
1 x,y,z
2 -x,1/2+y,1/2-z
3 -x,-y,-z
4 x,1/2-y,1/2+z
_cell_length_a                   7.4064(7)
_cell_length_b                   21.498(2)
_cell_length_c                   10.1255(10)
_cell_angle_alpha                90
_cell_angle_beta                 107.800(2)
_cell_angle_gamma                90
_cell_volume                     1535.03
_exptl_crystal_colour            colorless
_exptl_crystal_description       plate
_cell_formula_units_Z            4
loop_
_atom_site_label
_atom_site_type_symbol
_atom_site_fract_x
_atom_site_fract_y
_atom_site_fract_z
O1 O 0.7263(2) 0.38377(8) 0.4493(2)
H1 H 0.378(3) 0.4432(9) 0.256(2)
H2 H 0.074(3) 0.5527(10) -0.015(2)
C1 C 0.2110(3) 0.55973(9) 0.0189(2)
N1 N 0.5016(2) 0.44179(7) 0.30185(17)
H3 H 0.540(3) 0.6577(9) -0.016(2)
N2 N 0.3122(2) 0.52110(7) 0.11332(16)
C2 C 0.4776(3) 0.62215(9) 0.0203(2)
N3 N 0.8592(2) 0.66291(8) 0.02258(17)
H4 H 0.206(3) 0.6384(9) -0.101(2)
C3 C 0.2884(3) 0.61048(10) -0.0309(2)
C4 C 0.5937(2) 0.58173(8) 0.12075(16)
N4 N 0.8919(2) 0.64068(7) 0.15358(16)
C5 C 0.7931(2) 0.58839(8) 0.18277(17)
C6 C 0.6094(2) 0.48863(8) 0.26627(18)
C7 C 0.8009(3) 0.49639(9) 0.3215(2)
H5 H 0.875(3) 0.4661(10) 0.389(2)
C8 C 0.8917(3) 0.54624(9) 0.27867(19)
H6 H 1.029(3) 0.5517(8) 0.3248(19)
C9 C 0.5588(3) 0.39385(9) 0.3901(2)
C10 C 0.5029(2) 0.53138(8) 0.16373(17)
C11 C 0.4038(3) 0.35136(9) 0.40948(19)
C12 C 0.4167(4) 0.29089(11) 0.3361(3)
H7 H 0.4019 0.2991 0.2402
H8 H 0.3183 0.2632 0.3430
H9 H 0.5382 0.2720 0.3787
C13 C 0.2041(3) 0.37715(12) 0.3479(3)
H10 H 0.1768 0.3818 0.2494
H11 H 0.1953 0.4169 0.3887
H12 H 0.1144 0.3490 0.3667
C14 C 0.4416(4) 0.34038(17) 0.5626(2)
H13 H 0.3428 0.3149 0.5769
H14 H 0.4449 0.3795 0.6089
H15 H 0.5614 0.3197 0.5997
C15 C 1.0851(3) 0.71935(11) 0.1747(3)
H16 H 1.176(4) 0.7524(11) 0.215(2)
C16 C 0.9777(3) 0.71061(11) 0.0384(3)
H17 H 0.976(4) 0.7354(12) -0.048(3)
C17 C 1.0281(3) 0.67395(10) 0.2469(2)
H18 H 1.068(3) 0.6634(10) 0.346(2)
loop_
_geom_bond_atom_site_label_1
_geom_bond_atom_site_label_2
_geom_bond_site_symmetry_1
_geom_bond_site_symmetry_2
O1 C9 1_555 1_555
H1 N1 1_555 1_555
H2 C1 1_555 1_555
C1 N2 1_555 1_555
N1 C6 1_555 1_555
H3 C2 1_555 1_555
N2 C10 1_555 1_555
C2 C3 1_555 1_555
N3 N4 1_555 1_555
H4 C3 1_555 1_555
C3 C1 1_555 1_555
C4 C2 1_555 1_555
N4 C5 1_555 1_555
C5 C4 1_555 1_555
C6 C7 1_555 1_555
C7 H5 1_555 1_555
C8 C5 1_555 1_555
H6 C8 1_555 1_555
C9 N1 1_555 1_555
C10 C4 1_555 1_555
C11 C9 1_555 1_555
C12 C11 1_555 1_555
H7 C12 1_555 1_555
H8 C12 1_555 1_555
H9 C12 1_555 1_555
C13 C11 1_555 1_555
H10 C13 1_555 1_555
H11 C13 1_555 1_555
H12 C13 1_555 1_555
C14 C11 1_555 1_555
H13 C14 1_555 1_555
H14 C14 1_555 1_555
H15 C14 1_555 1_555
C15 H16 1_555 1_555
C16 N3 1_555 1_555
H17 C16 1_555 1_555
C17 N4 1_555 1_555
H18 C17 1_555 1_555
C6 C10 1_555 1_555
C7 C8 1_555 1_555
C15 C16 1_555 1_555
C15 C17 1_555 1_555

#END
