
#######################################################################
#
#                 Cambridge Crystallographic Data Centre
#                                CCDC 
#
#######################################################################
#
# If this CIF has been generated from an entry in the Cambridge 
# Structural Database, then it will include bibliographic, chemical, 
# crystal, experimental, refinement or atomic coordinate data resulting 
# from the CCDC's data processing and validation procedures.
#
#######################################################################

data_ANOVIJ
_chemical_formula_moiety         'C44 H29 N5 O2,C1 H4 O1'
_chemical_name_systematic        
'2-nitro-5,10,15,20-tetraphenylporphyrin methanol solvate'
_symmetry_cell_setting           monoclinic
_symmetry_space_group_name_H-M   'C 2/c'
_symmetry_Int_Tables_number      15
_space_group_name_Hall           '-C 2yn'
loop_
_symmetry_equiv_pos_site_id
_symmetry_equiv_pos_as_xyz
1 x,y,z
2 -x,y,1/2-z
3 1/2+x,1/2+y,z
4 1/2-x,1/2+y,1/2-z
5 -x,-y,-z
6 x,-y,1/2+z
7 1/2-x,1/2-y,-z
8 1/2+x,1/2-y,1/2+z
_cell_length_a                   38.963(16)
_cell_length_b                   9.070(4)
_cell_length_c                   25.863(11)
_cell_angle_alpha                90
_cell_angle_beta                 130.953(5)
_cell_angle_gamma                90
_cell_volume                     6902.84
_exptl_crystal_colour            black
_exptl_crystal_description       plate
_cell_formula_units_Z            8
loop_
_atom_site_label
_atom_site_type_symbol
_atom_site_fract_x
_atom_site_fract_y
_atom_site_fract_z
C1 C 0.40382(18) 0.3144(6) 0.2609(2)
C2 C 0.40483(17) 0.2389(6) 0.2143(2)
C3 C 0.44373(19) 0.2011(6) 0.2228(3)
H1 H 0.4745 0.2174 0.2629
C4 C 0.42944(18) 0.1373(6) 0.1637(3)
H2 H 0.4484 0.1026 0.1554
C5 C 0.38091(17) 0.1317(5) 0.1167(3)
C6 C 0.35199(17) 0.0733(5) 0.0496(2)
C7 C 0.30525(17) 0.0523(5) 0.0102(2)
C8 C 0.27469(18) 0.0024(5) -0.0611(2)
H3 H 0.2827 -0.0128 -0.0883
C9 C 0.23323(18) -0.0180(5) -0.0812(2)
H4 H 0.2065 -0.0494 -0.1250
C10 C 0.23793(17) 0.0178(5) -0.0220(2)
C11 C 0.20224(16) -0.0021(5) -0.0212(2)
C12 C 0.20375(17) 0.0478(5) 0.0321(2)
C13 C 0.17022(17) 0.0267(5) 0.0388(2)
H5 H 0.1430 -0.0289 0.0086
C14 C 0.18402(18) 0.0998(5) 0.0958(2)
H6 H 0.1678 0.1065 0.1115
C15 C 0.22691(17) 0.1642(5) 0.1274(2)
C16 C 0.25282(17) 0.2530(5) 0.1865(2)
C17 C 0.29650(19) 0.3074(5) 0.2185(2)
C18 C 0.31804(19) 0.4234(6) 0.2697(3)
H7 H 0.3060 0.4742 0.2868
C19 C 0.35837(19) 0.4431(6) 0.2873(3)
C20 C 0.36393(18) 0.3404(6) 0.2499(2)
C21 C 0.44813(18) 0.3595(6) 0.3283(2)
C22 C 0.45766(19) 0.3136(6) 0.3878(3)
H8 H 0.4365 0.2534 0.3850
C23 C 0.4980(2) 0.3556(7) 0.4516(3)
H9 H 0.5047 0.3208 0.4920
C24 C 0.52854(19) 0.4476(7) 0.4568(3)
H10 H 0.5557 0.4780 0.5003
C25 C 0.51900(18) 0.4944(7) 0.3979(3)
H11 H 0.5396 0.5582 0.4009
C26 C 0.47968(18) 0.4494(7) 0.3343(3)
H12 H 0.4741 0.4801 0.2942
C27 C 0.37346(17) 0.0228(5) 0.0212(2)
C28 C 0.39875(17) 0.1180(6) 0.0151(3)
H13 H 0.4028 0.2175 0.0296
C29 C 0.41788(19) 0.0703(6) -0.0114(3)
H14 H 0.4347 0.1371 -0.0156
C30 C 0.4127(2) -0.0746(7) -0.0321(3)
H15 H 0.4262 -0.1075 -0.0502
C31 C 0.3880(2) -0.1713(6) -0.0264(3)
H16 H 0.3842 -0.2708 -0.0409
C32 C 0.3688(2) -0.1227(6) 0.0006(3)
H17 H 0.3522 -0.1900 0.0050
C33 C 0.16075(17) -0.0816(5) -0.0791(2)
C34 C 0.16414(19) -0.2192(5) -0.1009(3)
H18 H 0.1932 -0.2613 -0.0783
C35 C 0.1257(2) -0.2932(6) -0.1548(3)
H19 H 0.1287 -0.3839 -0.1698
C36 C 0.0830(2) -0.2380(6) -0.1872(3)
H20 H 0.0567 -0.2910 -0.2237
C37 C 0.07870(19) -0.1033(6) -0.1660(3)
H21 H 0.0494 -0.0649 -0.1877
C38 C 0.11699(17) -0.0253(5) -0.1135(2)
H22 H 0.1136 0.0679 -0.1005
C39 C 0.23267(18) 0.2942(5) 0.2180(2)
C40 C 0.19105(18) 0.3701(6) 0.1794(3)
H23 H 0.1753 0.3946 0.1329
C41 C 0.17298(19) 0.4089(6) 0.2091(3)
H24 H 0.1446 0.4589 0.1827
C42 C 0.1960(2) 0.3753(6) 0.2772(3)
H25 H 0.1837 0.4041 0.2975
C43 C 0.2367(2) 0.3000(6) 0.3154(3)
H26 H 0.2523 0.2762 0.3619
C44 C 0.25514(19) 0.2587(6) 0.2861(3)
H27 H 0.2831 0.2062 0.3125
N1 N 0.38710(16) 0.5705(5) 0.3270(2)
N2 N 0.36790(14) 0.1914(4) 0.1501(2)
H28 H 0.3396 0.1983 0.1327
N3 N 0.28139(13) 0.0646(4) 0.03182(19)
N4 N 0.23823(14) 0.1285(4) 0.08799(19)
H29 H 0.2636 0.1537 0.0974
N5 N 0.32440(14) 0.2613(5) 0.2062(2)
O1 O 0.39114(13) 0.6062(4) 0.37760(19)
O2 O 0.40422(14) 0.6399(4) 0.3083(2)
O3 O 0.4538(3) 0.9100(8) 0.3958(4)
H30 H 0.4404 0.8285 0.3851
C45 C 0.4682(3) 0.9305(9) 0.3596(4)
H31 H 0.4890 1.0148 0.3786
H32 H 0.4419 0.9494 0.3114
H33 H 0.4840 0.8417 0.3632
loop_
_geom_bond_atom_site_label_1
_geom_bond_atom_site_label_2
_geom_bond_site_symmetry_1
_geom_bond_site_symmetry_2
C1 C2 1_555 1_555
C2 C3 1_555 1_555
C3 H1 1_555 1_555
C4 C3 1_555 1_555
H2 C4 1_555 1_555
C5 C4 1_555 1_555
C6 C5 1_555 1_555
C7 C6 1_555 1_555
C8 C7 1_555 1_555
H3 C8 1_555 1_555
C9 C8 1_555 1_555
H4 C9 1_555 1_555
C10 C9 1_555 1_555
C11 C10 1_555 1_555
C12 C11 1_555 1_555
C13 C12 1_555 1_555
H5 C13 1_555 1_555
C14 C13 1_555 1_555
H6 C14 1_555 1_555
C15 C14 1_555 1_555
C16 C15 1_555 1_555
C17 C16 1_555 1_555
C18 C17 1_555 1_555
H7 C18 1_555 1_555
C19 C18 1_555 1_555
C20 C1 1_555 1_555
C21 C1 1_555 1_555
C22 C21 1_555 1_555
H8 C22 1_555 1_555
C23 C22 1_555 1_555
H9 C23 1_555 1_555
C24 C23 1_555 1_555
H10 C24 1_555 1_555
C25 C24 1_555 1_555
H11 C25 1_555 1_555
C26 C21 1_555 1_555
H12 C26 1_555 1_555
C27 C6 1_555 1_555
C28 C27 1_555 1_555
H13 C28 1_555 1_555
C29 C28 1_555 1_555
H14 C29 1_555 1_555
C30 C29 1_555 1_555
H15 C30 1_555 1_555
C31 C30 1_555 1_555
H16 C31 1_555 1_555
C32 C27 1_555 1_555
H17 C32 1_555 1_555
C33 C11 1_555 1_555
C34 C33 1_555 1_555
H18 C34 1_555 1_555
C35 C34 1_555 1_555
H19 C35 1_555 1_555
C36 C35 1_555 1_555
H20 C36 1_555 1_555
C37 C36 1_555 1_555
H21 C37 1_555 1_555
C38 C33 1_555 1_555
H22 C38 1_555 1_555
C39 C16 1_555 1_555
C40 C39 1_555 1_555
H23 C40 1_555 1_555
C41 C40 1_555 1_555
H24 C41 1_555 1_555
C42 C41 1_555 1_555
H25 C42 1_555 1_555
C43 C42 1_555 1_555
H26 C43 1_555 1_555
C44 C39 1_555 1_555
H27 C44 1_555 1_555
N1 C19 1_555 1_555
N2 C2 1_555 1_555
H28 N2 1_555 1_555
N3 C7 1_555 1_555
N4 C12 1_555 1_555
H29 N4 1_555 1_555
N5 C17 1_555 1_555
O1 N1 1_555 1_555
O2 N1 1_555 1_555
O3 H30 1_555 1_555
C45 O3 1_555 1_555
H31 C45 1_555 1_555
H32 C45 1_555 1_555
H33 C45 1_555 1_555
C5 N2 1_555 1_555
C10 N3 1_555 1_555
C15 N4 1_555 1_555
C19 C20 1_555 1_555
C20 N5 1_555 1_555
C25 C26 1_555 1_555
C31 C32 1_555 1_555
C37 C38 1_555 1_555
C43 C44 1_555 1_555

#END
