
#######################################################################
#
#                 Cambridge Crystallographic Data Centre
#                                CCDC 
#
#######################################################################
#
# If this CIF has been generated from an entry in the Cambridge 
# Structural Database, then it will include bibliographic, chemical, 
# crystal, experimental, refinement or atomic coordinate data resulting 
# from the CCDC's data processing and validation procedures.
#
#######################################################################

data_ANOWUW
_chemical_formula_moiety         'C24 H23 Br1 N2 O6'
_chemical_name_systematic        
'Dimethyl 9-bromo-6-hydroxy-4-isopropyl-5-(pyridin-2-yl)-5,6-dihydro-4H-furo[2,3-a][3]benzazepine-2,3-dicarboxylate'
_symmetry_cell_setting           tetragonal
_symmetry_space_group_name_H-M   'P -4'
_symmetry_Int_Tables_number      81
_space_group_name_Hall           'P -4'
loop_
_symmetry_equiv_pos_site_id
_symmetry_equiv_pos_as_xyz
1 x,y,z
2 -x,-y,z
3 y,-x,-z
4 -y,x,-z
_cell_length_a                   29.5080(10)
_cell_length_b                   29.5080(10)
_cell_length_c                   12.1390(10)
_cell_angle_alpha                90
_cell_angle_beta                 90
_cell_angle_gamma                90
_cell_volume                     10569.7
_exptl_crystal_colour            colorless
_chemical_melting_point          '140-141 deg.C'
_cell_formula_units_Z            16
_exptl_crystal_recrystallization_method 'acetone/diethyl ether/n-butane'
loop_
_atom_site_label
_atom_site_type_symbol
_atom_site_fract_x
_atom_site_fract_y
_atom_site_fract_z
Br1 Br 0.416605(13) 0.382435(12) 0.51428(3)
C1 C 0.40905(10) 0.41299(11) 0.3779(2)
C2 C 0.41004(10) 0.38851(10) 0.2828(2)
H1 H 0.4145 0.3573 0.2859
C3 C 0.40443(9) 0.40961(9) 0.1811(2)
C4 C 0.39742(9) 0.45699(9) 0.1777(2)
C5 C 0.39535(11) 0.47989(11) 0.2780(3)
H2 H 0.3894 0.5108 0.2773
C6 C 0.40165(12) 0.45906(11) 0.3778(3)
H3 H 0.4010 0.4755 0.4432
C7 C 0.40543(10) 0.38252(9) 0.0813(2)
C8 C 0.41492(10) 0.31667(9) 0.0012(2)
C9 C 0.42689(13) 0.26782(10) -0.0050(3)
C10 C 0.4621(2) 0.20665(13) 0.0876(4)
H4 H 0.4377 0.1884 0.0597
H5 H 0.4686 0.1980 0.1622
H6 H 0.4886 0.2021 0.0430
C11 C 0.39945(10) 0.34380(10) -0.0776(2)
C12 C 0.38863(12) 0.32851(10) -0.1913(3)
C13 C 0.32888(15) 0.30469(17) -0.3092(4)
H7 H 0.3280 0.3298 -0.3594
H8 H 0.2991 0.2920 -0.3022
H9 H 0.3493 0.2820 -0.3367
C14 C 0.39351(9) 0.38792(9) -0.0282(3)
C15 C 0.38321(12) 0.43351(11) -0.1978(3)
H10 H 0.3966 0.4057 -0.2273
C16 C 0.33777(16) 0.43900(17) -0.2531(4)
H11 H 0.3172 0.4165 -0.2256
H12 H 0.3412 0.4353 -0.3313
H13 H 0.3260 0.4687 -0.2377
C17 C 0.41585(17) 0.47184(13) -0.2255(3)
H14 H 0.4043 0.4998 -0.1965
H15 H 0.4189 0.4743 -0.3040
H16 H 0.4449 0.4656 -0.1933
C18 C 0.35910(9) 0.46330(9) -0.0115(3)
H17 H 0.3524 0.4879 -0.0632
C19 C 0.31426(10) 0.45155(12) 0.0420(3)
C20 C 0.29097(14) 0.41230(15) 0.0235(5)
H18 H 0.3018 0.3907 -0.0258
C21 C 0.25051(16) 0.40535(19) 0.0804(6)
H19 H 0.2337 0.3791 0.0692
C22 C 0.23578(16) 0.43795(18) 0.1535(5)
H20 H 0.2095 0.4339 0.1947
C23 C 0.26084(13) 0.47581(16) 0.1629(4)
H21 H 0.2502 0.4986 0.2090
C24 C 0.39262(10) 0.48348(10) 0.0728(2)
H22 H 0.3799 0.5129 0.0943
N1 N 0.37798(8) 0.42667(8) -0.0786(2)
N2 N 0.29999(10) 0.48296(10) 0.1104(3)
O2 O 0.41931(7) 0.33806(6) 0.09843(16)
O3 O 0.44901(12) 0.25471(8) 0.0844(2)
O4 O 0.41711(9) 0.24498(8) -0.0816(2)
O5 O 0.34450(8) 0.32029(9) -0.2016(2)
O6 O 0.41549(9) 0.32408(9) -0.26413(19)
O7 O 0.43510(6) 0.49322(7) 0.0236(2)
H89 H 0.4472 0.4695 0.0043
Br2 Br 0.390846(15) 0.087827(14) -0.01019(3)
C25 C 0.42386(12) 0.09491(11) 0.1241(3)
C26 C 0.40026(12) 0.10068(10) 0.2185(2)
H23 H 0.3688 0.1019 0.2163
C27 C 0.42294(10) 0.10486(9) 0.3205(2)
C28 C 0.46988(10) 0.10380(9) 0.3211(3)
C29 C 0.49279(13) 0.09897(11) 0.2192(3)
H24 H 0.5243 0.0993 0.2184
C30 C 0.47008(13) 0.09383(12) 0.1226(3)
H25 H 0.4857 0.0897 0.0569
C31 C 0.39608(10) 0.11060(11) 0.4190(3)
C32 C 0.32886(10) 0.11660(11) 0.4968(3)
C33 C 0.27931(11) 0.11838(13) 0.5002(3)
C34 C 0.21213(14) 0.1124(2) 0.3984(5)
H26 H 0.2010 0.1343 0.4500
H27 H 0.2009 0.0829 0.4177
H28 H 0.2020 0.1201 0.3256
C35 C 0.35944(11) 0.12109(10) 0.5793(3)
C36 C 0.34602(10) 0.12969(12) 0.6967(3)
C37 C 0.32662(16) 0.18665(14) 0.8241(4)
H29 H 0.2963 0.1759 0.8353
H30 H 0.3272 0.2190 0.8314
H31 H 0.3463 0.1733 0.8779
C38 C 0.40332(10) 0.11665(9) 0.5301(3)
C39 C 0.45084(11) 0.10835(12) 0.6990(3)
H32 H 0.4211 0.0986 0.7264
C40 C 0.46471(15) 0.14971(14) 0.7670(3)
H33 H 0.4941 0.1599 0.7437
H34 H 0.4658 0.1416 0.8436
H35 H 0.4430 0.1735 0.7565
C41 C 0.48327(12) 0.06872(13) 0.7166(3)
H36 H 0.4740 0.0436 0.6716
H37 H 0.4828 0.0599 0.7927
H38 H 0.5134 0.0777 0.6966
C42 C 0.48308(10) 0.13584(9) 0.5184(3)
H39 H 0.5086 0.1364 0.5700
C43 C 0.47727(10) 0.18454(10) 0.4793(3)
C44 C 0.44814(14) 0.21408(12) 0.5286(4)
H40 H 0.4288 0.2040 0.5840
C45 C 0.44722(16) 0.25858(14) 0.4970(5)
H41 H 0.4290 0.2795 0.5333
C46 C 0.47408(16) 0.27158(13) 0.4099(4)
H42 H 0.4728 0.3010 0.3824
C47 C 0.50267(15) 0.24011(14) 0.3646(4)
H43 H 0.5214 0.2491 0.3070
C48 C 0.49821(11) 0.10450(10) 0.4229(3)
H44 H 0.5284 0.1149 0.4004
N3 N 0.44501(8) 0.11940(8) 0.5808(2)
N4 N 0.50519(10) 0.19688(9) 0.3991(3)
O8 O 0.34986(7) 0.11063(8) 0.39885(18)
O9 O 0.26141(8) 0.11195(13) 0.4010(2)
O10 O 0.25830(8) 0.12498(12) 0.5819(2)
O11 O 0.34188(9) 0.17399(8) 0.7136(2)
O12 O 0.33969(8) 0.10135(8) 0.76347(19)
O13 O 0.50388(7) 0.05957(7) 0.4657(2)
H90 H 0.4792 0.0469 0.4686
Br3 Br 0.090561(14) 0.105897(14) 1.50948(3)
C49 C 0.05906(12) 0.10570(11) 1.3739(3)
C50 C 0.08201(11) 0.11482(10) 1.2787(3)
H45 H 0.1130 0.1204 1.2816
C51 C 0.05972(10) 0.11596(10) 1.1771(3)
C52 C 0.01329(11) 0.10886(10) 1.1734(3)
C53 C -0.00983(12) 0.10061(12) 1.2723(3)
H46 H -0.0410 0.0963 1.2705
C54 C 0.01242(13) 0.09873(12) 1.3724(3)
H47 H -0.0034 0.0929 1.4371
C55 C 0.08648(11) 0.12530(11) 1.0794(3)
C56 C 0.15310(10) 0.13793(11) 1.0046(3)
C57 C 0.20280(12) 0.14163(15) 1.0033(3)
C58 C 0.26984(14) 0.1239(3) 1.0984(5)
H48 H 0.2818 0.1372 1.0324
H49 H 0.2804 0.0932 1.1046
H50 H 0.2798 0.1410 1.1611
C59 C 0.12205(11) 0.14497(12) 0.9243(3)
C60 C 0.1388(2) 0.1506(2) 0.8018(6)
C61 C 0.1656(3) 0.2052(3) 0.6804(7)
H51 H 0.1662 0.2373 0.6686
H52 H 0.1483 0.1910 0.6230
H53 H 0.1960 0.1936 0.6794
C62 C 0.07837(10) 0.13634(10) 0.9717(3)
C63 C 0.03240(13) 0.13850(15) 0.7993(3)
H54 H 0.0627 0.1324 0.7700
C64 C 0.0177(2) 0.1836(2) 0.7522(4)
H55 H -0.0139 0.1882 0.7672
H56 H 0.0226 0.1837 0.6741
H57 H 0.0351 0.2074 0.7856
C65 C 0.00267(15) 0.0993(2) 0.7633(4)
H58 H 0.0145 0.0716 0.7928
H59 H 0.0023 0.0977 0.6843
H60 H -0.0276 0.1040 0.7899
C66 C -0.00379(10) 0.14676(10) 0.9850(3)
H61 H -0.0289 0.1459 0.9323
C67 C -0.00643(11) 0.19316(11) 1.0400(3)
C68 C 0.02522(14) 0.22630(12) 1.0290(4)
H62 H 0.0514 0.2214 0.9880
C69 C 0.01783(17) 0.26690(14) 1.0795(4)
H63 H 0.0391 0.2900 1.0728
C70 C -0.02019(18) 0.27366(16) 1.1390(4)
H64 H -0.0255 0.3013 1.1733
C71 C -0.05095(15) 0.23881(15) 1.1481(4)
H65 H -0.0768 0.2429 1.1908
C72 C -0.01350(10) 0.10848(11) 1.0691(3)
H66 H -0.0452 0.1124 1.0913
N5 N 0.03692(9) 0.14035(9) 0.9203(2)
N6 N -0.04445(10) 0.19901(11) 1.0965(3)
O14 O 0.13254(7) 0.12592(8) 1.09876(19)
O15 O 0.22029(9) 0.12414(13) 1.0937(2)
O16 O 0.22351(9) 0.15720(12) 0.9290(3)
O17 O 0.14420(19) 0.19512(18) 0.7905(4)
O18 O 0.14329(15) 0.12368(16) 0.7360(3)
O19 O -0.01141(7) 0.06545(7) 1.0148(2)
H91 H 0.0149 0.0600 0.9975
Br4 Br 0.109056(15) 0.404737(18) 0.02364(3)
C73 C 0.07738(12) 0.39711(12) 0.1595(3)
C74 C 0.10225(11) 0.39436(11) 0.2547(3)
H67 H 0.1337 0.3955 0.2518
C75 C 0.08021(10) 0.38985(9) 0.3564(3)
C76 C 0.03320(10) 0.38696(10) 0.3589(3)
C77 C 0.00974(11) 0.38795(12) 0.2584(3)
H68 H -0.0216 0.3844 0.2590
C78 C 0.03129(12) 0.39393(12) 0.1589(3)
H69 H 0.0150 0.3958 0.0935
C79 C 0.10814(10) 0.38716(10) 0.4537(2)
C80 C 0.17592(10) 0.38785(12) 0.5298(3)
C81 C 0.22537(12) 0.39157(13) 0.5310(3)
C82 C 0.28985(14) 0.4076(2) 0.4265(4)
H70 H 0.3007 0.4336 0.4664
H71 H 0.2984 0.4103 0.3505
H72 H 0.3029 0.3806 0.4571
C83 C 0.14712(11) 0.37697(11) 0.6116(3)
C84 C 0.16323(12) 0.36712(14) 0.7257(3)
C85 C 0.1948(5) 0.3149(5) 0.8465(9)
H73 H 0.2049 0.2840 0.8491
H74 H 0.1721 0.3197 0.9019
H75 H 0.2200 0.3348 0.8597
O1 O 0.1753(3) 0.32465(17) 0.7359(5)
C86 C 0.10217(10) 0.37665(10) 0.5639(3)
C87 C 0.05764(13) 0.36873(14) 0.7345(3)
H76 H 0.0863 0.3809 0.7627
C88 C 0.0517(2) 0.32209(19) 0.7849(4)
H77 H 0.0227 0.3101 0.7642
H78 H 0.0535 0.3243 0.8636
H79 H 0.0752 0.3024 0.7586
C89 C 0.02034(15) 0.4014(2) 0.7696(4)
H80 H 0.0253 0.4303 0.7355
H81 H 0.0208 0.4048 0.8482
H82 H -0.0085 0.3896 0.7471
C90 C 0.02334(11) 0.35104(10) 0.5518(3)
H83 H -0.0014 0.3488 0.6053
C91 C 0.02740(11) 0.30397(10) 0.5026(3)
C92 C 0.06650(14) 0.27955(12) 0.4977(4)
H84 H 0.0931 0.2908 0.5282
C93 C 0.06585(19) 0.23713(15) 0.4458(6)
H85 H 0.0923 0.2202 0.4399
C94 C 0.02707(19) 0.22136(14) 0.4052(5)
H86 H 0.0261 0.1934 0.3701
C95 C -0.01115(17) 0.24681(15) 0.4157(4)
H87 H -0.0384 0.2353 0.3890
C96 C 0.00602(10) 0.38454(10) 0.4632(3)
H88 H -0.0240 0.3736 0.4416
N7 N 0.06190(9) 0.36616(9) 0.6147(2)
N8 N -0.01104(11) 0.28789(10) 0.4630(3)
O20 O 0.15377(7) 0.39419(8) 0.43397(18)
O21 O 0.24099(8) 0.40532(13) 0.4350(2)
O22 O 0.24774(8) 0.38298(11) 0.6103(2)
O23 O 0.16878(11) 0.39584(11) 0.7942(2)
O24 O -0.00116(7) 0.42822(7) 0.5115(2)
H92 H 0.0227 0.4425 0.5113
C97? C 0.1305(5) 0.1738(5) 0.8318(11)
C98? C 0.1741(7) 0.1761(6) 0.6645(15)
C99? C 0.1738(15) 0.3027(14) 0.859(2)
H93? H 0.1894 0.1546 0.6184
H94? H 0.1956 0.1980 0.6912
H95? H 0.1511 0.1913 0.6228
H96? H 0.1715 0.2703 0.8524
H97? H 0.1543 0.3130 0.9170
H98? H 0.2046 0.3108 0.8757
O25? O 0.1547(4) 0.1541(4) 0.7520(9)
O26? O 0.1183(3) 0.2135(3) 0.8164(7)
O27? O 0.1599(8) 0.3245(5) 0.7518(17)
loop_
_geom_bond_atom_site_label_1
_geom_bond_atom_site_label_2
_geom_bond_site_symmetry_1
_geom_bond_site_symmetry_2
Br1 C1 1_555 1_555
Br2 C25 1_555 1_555
Br3 C49 1_555 1_555
Br4 C73 1_555 1_555
C1 C2 1_555 1_555
C2 H1 1_555 1_555
C3 C2 1_555 1_555
C4 C3 1_555 1_555
C5 C4 1_555 1_555
H2 C5 1_555 1_555
C6 C1 1_555 1_555
H3 C6 1_555 1_555
C7 C3 1_555 1_555
C8 C9 1_555 1_555
C9 O3 1_555 1_555
C10 H4 1_555 1_555
H5 C10 1_555 1_555
H6 C10 1_555 1_555
C11 C8 1_555 1_555
C12 C11 1_555 1_555
C13 H7 1_555 1_555
H8 C13 1_555 1_555
H9 C13 1_555 1_555
C14 C7 1_555 1_555
C15 H10 1_555 1_555
C16 C15 1_555 1_555
H11 C16 1_555 1_555
H12 C16 1_555 1_555
H13 C16 1_555 1_555
C17 C15 1_555 1_555
H14 C17 1_555 1_555
H15 C17 1_555 1_555
H16 C17 1_555 1_555
C18 H17 1_555 1_555
C19 C18 1_555 1_555
C20 C19 1_555 1_555
H18 C20 1_555 1_555
C21 C20 1_555 1_555
H19 C21 1_555 1_555
C22 C21 1_555 1_555
H20 C22 1_555 1_555
C23 C22 1_555 1_555
H21 C23 1_555 1_555
C24 C4 1_555 1_555
H22 C24 1_555 1_555
C25 C26 1_555 1_555
C26 H23 1_555 1_555
C27 C26 1_555 1_555
C28 C27 1_555 1_555
C29 C28 1_555 1_555
H24 C29 1_555 1_555
C30 C25 1_555 1_555
H25 C30 1_555 1_555
C31 C27 1_555 1_555
C32 C33 1_555 1_555
C33 O9 1_555 1_555
C34 H26 1_555 1_555
H27 C34 1_555 1_555
H28 C34 1_555 1_555
C35 C32 1_555 1_555
C36 C35 1_555 1_555
C37 H29 1_555 1_555
H30 C37 1_555 1_555
H31 C37 1_555 1_555
C38 C31 1_555 1_555
C39 H32 1_555 1_555
C40 C39 1_555 1_555
H33 C40 1_555 1_555
H34 C40 1_555 1_555
H35 C40 1_555 1_555
C41 C39 1_555 1_555
H36 C41 1_555 1_555
H37 C41 1_555 1_555
H38 C41 1_555 1_555
C42 H39 1_555 1_555
C43 C42 1_555 1_555
C44 C43 1_555 1_555
H40 C44 1_555 1_555
C45 C44 1_555 1_555
H41 C45 1_555 1_555
C46 C45 1_555 1_555
H42 C46 1_555 1_555
C47 C46 1_555 1_555
H43 C47 1_555 1_555
C48 C28 1_555 1_555
H44 C48 1_555 1_555
C49 C50 1_555 1_555
C50 H45 1_555 1_555
C51 C50 1_555 1_555
C52 C51 1_555 1_555
C53 C52 1_555 1_555
H46 C53 1_555 1_555
C54 C49 1_555 1_555
H47 C54 1_555 1_555
C55 C51 1_555 1_555
C56 C57 1_555 1_555
C57 O15 1_555 1_555
C58 H48 1_555 1_555
H49 C58 1_555 1_555
H50 C58 1_555 1_555
C59 C56 1_555 1_555
C60 C59 1_555 1_555
C61 H51 1_555 1_555
H52 C61 1_555 1_555
H53 C61 1_555 1_555
C62 C55 1_555 1_555
C63 H54 1_555 1_555
C64 C63 1_555 1_555
H55 C64 1_555 1_555
H56 C64 1_555 1_555
H57 C64 1_555 1_555
C65 C63 1_555 1_555
H58 C65 1_555 1_555
H59 C65 1_555 1_555
H60 C65 1_555 1_555
C66 H61 1_555 1_555
C67 C66 1_555 1_555
C68 C67 1_555 1_555
H62 C68 1_555 1_555
C69 C68 1_555 1_555
H63 C69 1_555 1_555
C70 C69 1_555 1_555
H64 C70 1_555 1_555
C71 C70 1_555 1_555
H65 C71 1_555 1_555
C72 C52 1_555 1_555
H66 C72 1_555 1_555
C73 C74 1_555 1_555
C74 H67 1_555 1_555
C75 C74 1_555 1_555
C76 C75 1_555 1_555
C77 C76 1_555 1_555
H68 C77 1_555 1_555
C78 C73 1_555 1_555
H69 C78 1_555 1_555
C79 C75 1_555 1_555
C80 C81 1_555 1_555
C81 O21 1_555 1_555
C82 H70 1_555 1_555
H71 C82 1_555 1_555
H72 C82 1_555 1_555
C83 C80 1_555 1_555
C84 C83 1_555 1_555
C85 H73 1_555 1_555
H74 C85 1_555 1_555
H75 C85 1_555 1_555
O1 C84 1_555 1_555
C86 C79 1_555 1_555
C87 H76 1_555 1_555
C88 C87 1_555 1_555
H77 C88 1_555 1_555
H78 C88 1_555 1_555
H79 C88 1_555 1_555
C89 C87 1_555 1_555
H80 C89 1_555 1_555
H81 C89 1_555 1_555
H82 C89 1_555 1_555
C90 H83 1_555 1_555
C91 C90 1_555 1_555
C92 C91 1_555 1_555
H84 C92 1_555 1_555
C93 C92 1_555 1_555
H85 C93 1_555 1_555
C94 C93 1_555 1_555
H86 C94 1_555 1_555
C95 C94 1_555 1_555
H87 C95 1_555 1_555
C96 C76 1_555 1_555
H88 C96 1_555 1_555
N1 C14 1_555 1_555
N2 C19 1_555 1_555
N3 C38 1_555 1_555
N4 C43 1_555 1_555
N5 C62 1_555 1_555
N6 C67 1_555 1_555
N7 C86 1_555 1_555
N8 C91 1_555 1_555
O2 C7 1_555 1_555
O3 C10 1_555 1_555
O4 C9 1_555 1_555
O5 C12 1_555 1_555
O6 C12 1_555 1_555
O7 C24 1_555 1_555
H89 O7 1_555 1_555
O8 C31 1_555 1_555
O9 C34 1_555 1_555
O10 C33 1_555 1_555
O11 C36 1_555 1_555
O12 C36 1_555 1_555
O13 C48 1_555 1_555
H90 O13 1_555 1_555
O14 C55 1_555 1_555
O15 C58 1_555 1_555
O16 C57 1_555 1_555
O17 C60 1_555 1_555
O18 C60 1_555 1_555
O19 C72 1_555 1_555
H91 O19 1_555 1_555
O20 C79 1_555 1_555
O21 C82 1_555 1_555
O22 C81 1_555 1_555
O23 C84 1_555 1_555
O24 C96 1_555 1_555
H92 O24 1_555 1_555
C5 C6 1_555 1_555
C8 O2 1_555 1_555
C11 C14 1_555 1_555
C13 O5 1_555 1_555
C15 N1 1_555 1_555
C18 C24 1_555 1_555
C18 N1 1_555 1_555
C23 N2 1_555 1_555
C29 C30 1_555 1_555
C32 O8 1_555 1_555
C35 C38 1_555 1_555
C37 O11 1_555 1_555
C39 N3 1_555 1_555
C42 C48 1_555 1_555
C42 N3 1_555 1_555
C47 N4 1_555 1_555
C53 C54 1_555 1_555
C56 O14 1_555 1_555
C59 C62 1_555 1_555
C61 O17 1_555 1_555
C63 N5 1_555 1_555
C66 C72 1_555 1_555
C66 N5 1_555 1_555
C71 N6 1_555 1_555
C77 C78 1_555 1_555
C80 O20 1_555 1_555
C83 C86 1_555 1_555
C85 O1 1_555 1_555
C87 N7 1_555 1_555
C90 C96 1_555 1_555
C90 N7 1_555 1_555
C95 N8 1_555 1_555

#END
