
#######################################################################
#
#                 Cambridge Crystallographic Data Centre
#                                CCDC 
#
#######################################################################
#
# If this CIF has been generated from an entry in the Cambridge 
# Structural Database, then it will include bibliographic, chemical, 
# crystal, experimental, refinement or atomic coordinate data resulting 
# from the CCDC's data processing and validation procedures.
#
#######################################################################

data_ANOWAD
_chemical_formula_moiety         'C40 H29 B1 N2 O2'
_chemical_name_systematic        
N-methyl-N,3-diphenyl-1H-spiro[2,1-benzazaborole-1,4'-dinaphtho[2,1-d:1',2'-f][1,3,2]dioxaborepin]-2-amine
_symmetry_cell_setting           orthorhombic
_symmetry_space_group_name_H-M   'P 21 21 21'
_symmetry_Int_Tables_number      19
_space_group_name_Hall           'P 2ac 2ab'
loop_
_symmetry_equiv_pos_site_id
_symmetry_equiv_pos_as_xyz
1 x,y,z
2 1/2-x,-y,1/2+z
3 1/2+x,1/2-y,-z
4 -x,1/2+y,1/2-z
_cell_length_a                   10.13364(19)
_cell_length_b                   14.6711(2)
_cell_length_c                   19.7677(4)
_cell_angle_alpha                90
_cell_angle_beta                 90
_cell_angle_gamma                90
_cell_volume                     2938.9
_exptl_crystal_colour            red
_exptl_crystal_description       plate
_cell_formula_units_Z            4
_exptl_crystal_preparation       Luminescent
loop_
_atom_site_label
_atom_site_type_symbol
_atom_site_fract_x
_atom_site_fract_y
_atom_site_fract_z
O1 O 0.31927(15) 0.25550(10) 0.12838(8)
O2 O 0.10777(16) 0.25657(10) 0.18735(9)
N1 N 0.29345(19) 0.15411(12) 0.22794(10)
N2 N 0.3573(2) 0.19761(14) 0.28259(10)
B1 B 0.2178(3) 0.20314(17) 0.16279(13)
C1 C 0.2793(2) 0.06606(15) 0.22767(12)
C2 C 0.2120(2) 0.03534(15) 0.16601(12)
C3 C 0.1716(2) 0.10987(15) 0.12687(12)
C4 C 0.1091(2) 0.09187(17) 0.06595(12)
H1 H 0.0799 0.1409 0.0383
C5 C 0.0888(3) 0.00200(18) 0.04492(13)
H2 H 0.0441 -0.0096 0.0036
C6 C 0.1335(3) -0.07072(17) 0.08394(13)
H3 H 0.1213 -0.1315 0.0685
C7 C 0.1953(2) -0.05470(16) 0.14482(12)
H4 H 0.2259 -0.1039 0.1718
C8 C 0.4581(3) 0.26270(18) 0.26039(13)
H5 H 0.4908 0.2450 0.2156
H6 H 0.5313 0.2628 0.2928
H7 H 0.4195 0.3239 0.2579
C9 C 0.2841(2) 0.21567(16) 0.34127(12)
C10 C 0.3368(3) 0.27633(19) 0.38932(14)
H8 H 0.4199 0.3044 0.3815
C11 C 0.2676(3) 0.2951(2) 0.44801(15)
H9 H 0.3039 0.3364 0.4800
C12 C 0.1469(3) 0.2550(2) 0.46093(14)
H10 H 0.1003 0.2680 0.5015
C13 C 0.0954(3) 0.19545(17) 0.41341(13)
H11 H 0.0122 0.1677 0.4216
C14 C 0.1625(2) 0.17543(16) 0.35416(12)
H12 H 0.1255 0.1342 0.3224
C15 C 0.2739(2) 0.30155(15) 0.07313(12)
C16 C 0.1874(2) 0.37392(14) 0.08071(12)
C17 C 0.1310(2) 0.41381(15) 0.02128(12)
C18 C 0.0254(2) 0.47692(16) 0.02346(12)
H13 H -0.0102 0.4942 0.0660
C19 C -0.0268(3) 0.51365(18) -0.03432(13)
H14 H -0.0988 0.5549 -0.0315
C20 C 0.0263(3) 0.49032(18) -0.09835(13)
H15 H -0.0076 0.5179 -0.1382
C21 C 0.1262(3) 0.42824(17) -0.10270(12)
H16 H 0.1604 0.4122 -0.1458
C22 C 0.1798(2) 0.38730(15) -0.04366(12)
C23 C 0.2789(2) 0.31982(16) -0.04756(12)
H17 H 0.3162 0.3050 -0.0902
C24 C 0.3218(2) 0.27568(15) 0.00899(12)
H18 H 0.3839 0.2275 0.0052
C25 C 0.1222(2) 0.34706(15) 0.20040(12)
C26 C 0.1579(2) 0.40824(15) 0.15007(11)
C27 C 0.1742(2) 0.50209(15) 0.16794(11)
C28 C 0.2276(2) 0.56849(15) 0.12309(12)
H19 H 0.2555 0.5504 0.0792
C29 C 0.2396(3) 0.65839(16) 0.14202(13)
H20 H 0.2776 0.7010 0.1115
C30 C 0.1964(3) 0.68784(16) 0.20582(13)
H21 H 0.2008 0.7506 0.2175
C31 C 0.1481(2) 0.62585(16) 0.25098(12)
H22 H 0.1197 0.6459 0.2943
C32 C 0.1395(2) 0.53259(16) 0.23437(12)
C33 C 0.0992(2) 0.46737(16) 0.28299(12)
H23 H 0.0767 0.4866 0.3274
C34 C 0.0922(2) 0.37714(16) 0.26662(12)
H24 H 0.0669 0.3341 0.3001
C35 C 0.3194(2) 0.00346(15) 0.28216(12)
C36 C 0.2231(2) -0.05544(16) 0.30755(13)
H25 H 0.1358 -0.0533 0.2901
C37 C 0.2550(3) -0.11680(17) 0.35803(13)
H26 H 0.1891 -0.1556 0.3765
C38 C 0.3828(3) -0.12144(16) 0.38147(13)
H27 H 0.4058 -0.1655 0.4147
C39 C 0.4777(2) -0.06259(17) 0.35711(13)
H28 H 0.5650 -0.0655 0.3744
C40 C 0.4467(2) 0.00079(16) 0.30757(13)
H29 H 0.5118 0.0418 0.2913
loop_
_geom_bond_atom_site_label_1
_geom_bond_atom_site_label_2
_geom_bond_site_symmetry_1
_geom_bond_site_symmetry_2
O1 B1 1_555 1_555
O2 B1 1_555 1_555
N1 N2 1_555 1_555
N2 C8 1_555 1_555
B1 N1 1_555 1_555
C1 N1 1_555 1_555
C2 C1 1_555 1_555
C3 B1 1_555 1_555
C4 C3 1_555 1_555
H1 C4 1_555 1_555
C5 C4 1_555 1_555
H2 C5 1_555 1_555
C6 C5 1_555 1_555
H3 C6 1_555 1_555
C7 C2 1_555 1_555
H4 C7 1_555 1_555
C8 H5 1_555 1_555
H6 C8 1_555 1_555
H7 C8 1_555 1_555
C9 N2 1_555 1_555
C10 C9 1_555 1_555
H8 C10 1_555 1_555
C11 C10 1_555 1_555
H9 C11 1_555 1_555
C12 C11 1_555 1_555
H10 C12 1_555 1_555
C13 C12 1_555 1_555
H11 C13 1_555 1_555
C14 C9 1_555 1_555
H12 C14 1_555 1_555
C15 O1 1_555 1_555
C16 C15 1_555 1_555
C17 C16 1_555 1_555
C18 C17 1_555 1_555
H13 C18 1_555 1_555
C19 C18 1_555 1_555
H14 C19 1_555 1_555
C20 C19 1_555 1_555
H15 C20 1_555 1_555
C21 C20 1_555 1_555
H16 C21 1_555 1_555
C22 C17 1_555 1_555
C23 C22 1_555 1_555
H17 C23 1_555 1_555
C24 C15 1_555 1_555
H18 C24 1_555 1_555
C25 O2 1_555 1_555
C26 C16 1_555 1_555
C27 C26 1_555 1_555
C28 C27 1_555 1_555
H19 C28 1_555 1_555
C29 C28 1_555 1_555
H20 C29 1_555 1_555
C30 C29 1_555 1_555
H21 C30 1_555 1_555
C31 C30 1_555 1_555
H22 C31 1_555 1_555
C32 C27 1_555 1_555
C33 C32 1_555 1_555
H23 C33 1_555 1_555
C34 C25 1_555 1_555
H24 C34 1_555 1_555
C35 C1 1_555 1_555
C36 C35 1_555 1_555
H25 C36 1_555 1_555
C37 C36 1_555 1_555
H26 C37 1_555 1_555
C38 C37 1_555 1_555
H27 C38 1_555 1_555
C39 C38 1_555 1_555
H28 C39 1_555 1_555
C40 C35 1_555 1_555
H29 C40 1_555 1_555
C2 C3 1_555 1_555
C6 C7 1_555 1_555
C13 C14 1_555 1_555
C21 C22 1_555 1_555
C23 C24 1_555 1_555
C25 C26 1_555 1_555
C31 C32 1_555 1_555
C33 C34 1_555 1_555
C39 C40 1_555 1_555

#END
