
#######################################################################
#
#                 Cambridge Crystallographic Data Centre
#                                CCDC 
#
#######################################################################
#
# If this CIF has been generated from an entry in the Cambridge 
# Structural Database, then it will include bibliographic, chemical, 
# crystal, experimental, refinement or atomic coordinate data resulting 
# from the CCDC's data processing and validation procedures.
#
#######################################################################

data_ANOXEI
_chemical_formula_moiety         'C16 H11 N3'
_chemical_name_systematic        1-(1-naphthyl)-1H-benzotriazole
_symmetry_cell_setting           monoclinic
_symmetry_space_group_name_H-M   'P 21/c'
_symmetry_Int_Tables_number      14
_space_group_name_Hall           '-P 2ybc'
loop_
_symmetry_equiv_pos_site_id
_symmetry_equiv_pos_as_xyz
1 x,y,z
2 -x,1/2+y,1/2-z
3 -x,-y,-z
4 x,1/2-y,1/2+z
_cell_length_a                   11.280(3)
_cell_length_b                   12.342(4)
_cell_length_c                   8.977(3)
_cell_angle_alpha                90
_cell_angle_beta                 97.198(8)
_cell_angle_gamma                90
_cell_volume                     1239.91
_exptl_crystal_colour            colorless
_exptl_crystal_description       plate
_cell_formula_units_Z            4
loop_
_atom_site_label
_atom_site_type_symbol
_atom_site_fract_x
_atom_site_fract_y
_atom_site_fract_z
C1 C 0.31680(11) 0.84839(10) 0.15285(15)
N1 N 0.23349(10) 0.76754(8) 0.08956(14)
C2 C 0.43506(11) 0.84938(10) 0.11485(14)
N2 N 0.24752(11) 0.66119(10) 0.12968(17)
C3 C 0.47754(13) 0.77611(11) 0.01221(16)
H1 H 0.4208(12) 0.7222(11) -0.0377(17)
N3 N 0.15489(11) 0.60731(10) 0.06941(17)
C4 C 0.59272(13) 0.78313(13) -0.01925(18)
H2 H 0.6221(14) 0.7316(13) -0.0923(19)
C5 C 0.67065(13) 0.86194(13) 0.04992(19)
H3 H 0.7551(14) 0.8662(12) 0.0264(17)
C6 C 0.63265(13) 0.93352(13) 0.14818(17)
H4 H 0.6861(14) 0.9913(13) 0.1942(19)
C7 C 0.51349(12) 0.93019(10) 0.18330(15)
C8 C 0.47173(15) 1.00556(12) 0.28300(18)
H5 H 0.5262(13) 1.0590(13) 0.3243(18)
C9 C 0.35669(15) 1.00228(13) 0.31426(19)
H6 H 0.3287(14) 1.0533(14) 0.379(2)
C10 C 0.27850(13) 0.92258(12) 0.24852(17)
H7 H 0.1981(13) 0.9173(12) 0.2711(16)
C11 C 0.12717(11) 0.78167(11) 0.00159(16)
C12 C 0.07164(13) 0.87142(14) -0.07008(19)
H8 H 0.1103(15) 0.9445(15) -0.059(2)
C13 C -0.03618(15) 0.85240(17) -0.1544(2)
H9 H -0.0793(15) 0.9105(15) -0.209(2)
C14 C -0.08809(16) 0.74904(19) -0.1664(3)
H10 H -0.160(2) 0.7432(16) -0.230(3)
C15 C -0.03378(15) 0.66119(16) -0.0966(2)
H11 H -0.0675(16) 0.5897(17) -0.102(2)
C16 C 0.07726(12) 0.67847(12) -0.01078(18)
loop_
_geom_bond_atom_site_label_1
_geom_bond_atom_site_label_2
_geom_bond_site_symmetry_1
_geom_bond_site_symmetry_2
C1 N1 1_555 1_555
N1 N2 1_555 1_555
C2 C1 1_555 1_555
N2 N3 1_555 1_555
C3 C2 1_555 1_555
H1 C3 1_555 1_555
N3 C16 1_555 1_555
C4 C3 1_555 1_555
H2 C4 1_555 1_555
C5 C4 1_555 1_555
H3 C5 1_555 1_555
C6 C5 1_555 1_555
H4 C6 1_555 1_555
C7 C2 1_555 1_555
C8 C7 1_555 1_555
H5 C8 1_555 1_555
C9 C8 1_555 1_555
H6 C9 1_555 1_555
C10 C1 1_555 1_555
H7 C10 1_555 1_555
C11 N1 1_555 1_555
C12 C11 1_555 1_555
H8 C12 1_555 1_555
C13 C12 1_555 1_555
H9 C13 1_555 1_555
C14 C13 1_555 1_555
H10 C14 1_555 1_555
C15 C14 1_555 1_555
H11 C15 1_555 1_555
C16 C11 1_555 1_555
C6 C7 1_555 1_555
C9 C10 1_555 1_555
C15 C16 1_555 1_555

#END
