
#######################################################################
#
#                 Cambridge Crystallographic Data Centre
#                                CCDC 
#
#######################################################################
#
# If this CIF has been generated from an entry in the Cambridge 
# Structural Database, then it will include bibliographic, chemical, 
# crystal, experimental, refinement or atomic coordinate data resulting 
# from the CCDC's data processing and validation procedures.
#
#######################################################################

data_ANOXAD
_chemical_formula_moiety         'C24 H23 Br1 N2 O6'
_chemical_name_systematic        
'Dimethyl 8-bromo-6-hydroxy-4-isopropyl-5-(pyridin-2-yl)-5,6-dihydro-4H-furo[2,3-a][3]benzazepine-2,3-dicarboxylate'
_symmetry_cell_setting           triclinic
_symmetry_space_group_name_H-M   'P -1'
_symmetry_Int_Tables_number      2
_space_group_name_Hall           '-P 1'
loop_
_symmetry_equiv_pos_site_id
_symmetry_equiv_pos_as_xyz
1 x,y,z
2 -x,-y,-z
_cell_length_a                   7.9953(17)
_cell_length_b                   12.083(3)
_cell_length_c                   13.275(3)
_cell_angle_alpha                65.855(3)
_cell_angle_beta                 88.718(4)
_cell_angle_gamma                84.251(4)
_cell_volume                     1164.13
_exptl_crystal_colour            colorless
_chemical_melting_point          '161-162 deg.C'
_cell_formula_units_Z            2
_exptl_crystal_recrystallization_method dichloromethane/n-butane
loop_
_atom_site_label
_atom_site_type_symbol
_atom_site_fract_x
_atom_site_fract_y
_atom_site_fract_z
Br1 Br 0.90982(5) 0.82873(3) 0.67517(2)
C1 C 0.8909(3) 0.7509(2) 0.5781(2)
C2 C 0.8055(3) 0.6486(2) 0.6101(2)
H1 H 0.7600 0.6156 0.6800
C3 C 0.7888(3) 0.5963(2) 0.53678(19)
H2 H 0.7295 0.5282 0.5573
C4 C 0.8598(3) 0.6438(2) 0.43121(18)
C5 C 0.9514(3) 0.7452(2) 0.40244(18)
C6 C 0.9633(3) 0.7986(2) 0.47671(19)
H3 H 1.0209 0.8673 0.4574
C7 C 1.0437(3) 0.7956(2) 0.29421(19)
H4 H 1.1372 0.7349 0.2982
C8 C 0.9354(3) 0.81979(19) 0.19016(18)
H5 H 0.9963 0.8750 0.1279
C9 C 0.7677(3) 0.89116(19) 0.18943(18)
C10 C 0.6179(3) 0.8700(2) 0.1553(2)
H6 H 0.6134 0.8074 0.1320
C11 C 0.4743(4) 0.9431(3) 0.1561(3)
H7 H 0.3714 0.9303 0.1336
C12 C 0.4849(4) 1.0345(3) 0.1902(3)
H8 H 0.3891 1.0839 0.1924
C13 C 0.6378(4) 1.0521(2) 0.2211(2)
H9 H 0.6445 1.1157 0.2427
C14 C 1.0313(3) 0.7003(2) 0.0807(2)
H10 H 1.0105 0.6233 0.0774
C15 C 1.2174(4) 0.6906(3) 0.1086(3)
H11 H 1.2433 0.7650 0.1118
H12 H 1.2833 0.6768 0.0527
H13 H 1.2430 0.6239 0.1788
C16 C 0.9838(5) 0.8004(3) -0.0316(2)
H14 H 0.8650 0.8059 -0.0444
H15 H 1.0432 0.7823 -0.0876
H16 H 1.0132 0.8767 -0.0343
C17 C 0.8550(3) 0.61384(19) 0.24587(17)
C18 C 0.7863(3) 0.51896(19) 0.22552(18)
C19 C 0.7708(3) 0.5090(2) 0.1176(2)
C20 C 0.6577(5) 0.6093(3) -0.0631(2)
H17 H 0.7638 0.6256 -0.0988
H18 H 0.5731 0.6734 -0.1043
H19 H 0.6271 0.5330 -0.0598
C21 C 0.7304(3) 0.4410(2) 0.32340(19)
C22 C 0.6472(3) 0.3290(2) 0.3528(2)
C23 C 0.5716(5) 0.1517(3) 0.5014(3)
H20 H 0.4571 0.1639 0.4758
H21 H 0.5754 0.1156 0.5807
H22 H 0.6362 0.0987 0.4743
C24 C 0.8331(3) 0.58615(19) 0.35665(18)
N1 N 0.7793(3) 0.98170(18) 0.22174(17)
N2 N 0.9199(2) 0.71477(16) 0.16575(15)
O1 O 1.1140(3) 0.9049(2) 0.27860(17)
H23 H 1.033(4) 0.951(3) 0.267(3)
O2 O 0.8389(3) 0.42972(18) 0.09556(16)
O3 O 0.6713(2) 0.60295(16) 0.04818(14)
O4 O 0.5932(3) 0.29864(17) 0.28551(16)
O5 O 0.6411(2) 0.26808(16) 0.46143(15)
O6 O 0.7553(2) 0.47987(13) 0.40388(12)
loop_
_geom_bond_atom_site_label_1
_geom_bond_atom_site_label_2
_geom_bond_site_symmetry_1
_geom_bond_site_symmetry_2
Br1 C1 1_555 1_555
C1 C2 1_555 1_555
C2 H1 1_555 1_555
C3 C2 1_555 1_555
H2 C3 1_555 1_555
C4 C3 1_555 1_555
C5 C4 1_555 1_555
C6 C1 1_555 1_555
H3 C6 1_555 1_555
C7 C5 1_555 1_555
H4 C7 1_555 1_555
C8 C7 1_555 1_555
H5 C8 1_555 1_555
C9 C8 1_555 1_555
C10 C9 1_555 1_555
H6 C10 1_555 1_555
C11 C10 1_555 1_555
H7 C11 1_555 1_555
C12 C11 1_555 1_555
H8 C12 1_555 1_555
C13 C12 1_555 1_555
H9 C13 1_555 1_555
C14 H10 1_555 1_555
C15 C14 1_555 1_555
H11 C15 1_555 1_555
H12 C15 1_555 1_555
H13 C15 1_555 1_555
C16 C14 1_555 1_555
H14 C16 1_555 1_555
H15 C16 1_555 1_555
H16 C16 1_555 1_555
C17 C18 1_555 1_555
C18 C19 1_555 1_555
C19 O2 1_555 1_555
C20 H17 1_555 1_555
H18 C20 1_555 1_555
H19 C20 1_555 1_555
C21 C18 1_555 1_555
C22 C21 1_555 1_555
C23 H20 1_555 1_555
H21 C23 1_555 1_555
H22 C23 1_555 1_555
C24 C4 1_555 1_555
N1 C9 1_555 1_555
N2 C8 1_555 1_555
O1 C7 1_555 1_555
H23 O1 1_555 1_555
O3 C19 1_555 1_555
O4 C22 1_555 1_555
O5 C22 1_555 1_555
O6 C21 1_555 1_555
C5 C6 1_555 1_555
C13 N1 1_555 1_555
C14 N2 1_555 1_555
C17 C24 1_555 1_555
C17 N2 1_555 1_555
C20 O3 1_555 1_555
C23 O5 1_555 1_555
C24 O6 1_555 1_555

#END
