
#######################################################################
#
#                 Cambridge Crystallographic Data Centre
#                                CCDC 
#
#######################################################################
#
# If this CIF has been generated from an entry in the Cambridge 
# Structural Database, then it will include bibliographic, chemical, 
# crystal, experimental, refinement or atomic coordinate data resulting 
# from the CCDC's data processing and validation procedures.
#
#######################################################################

data_ANTCEN16
_chemical_formula_moiety         'C14 D10'
_chemical_name_systematic        Decadeutero-anthracene
_symmetry_cell_setting           monoclinic
_symmetry_space_group_name_H-M   'P 21/a'
_symmetry_Int_Tables_number      14
_space_group_name_Hall           '-P 2yab'
loop_
_symmetry_equiv_pos_site_id
_symmetry_equiv_pos_as_xyz
1 x,y,z
2 1/2-x,1/2+y,-z
3 -x,-y,-z
4 1/2+x,1/2-y,z
_cell_length_a                   8.37(3)
_cell_length_b                   6.00(2)
_cell_length_c                   11.12(4)
_cell_angle_alpha                90
_cell_angle_beta                 125.4
_cell_angle_gamma                90
_cell_volume                     455.205
_cell_formula_units_Z            2
loop_
_atom_site_label
_atom_site_type_symbol
_atom_site_fract_x
_atom_site_fract_y
_atom_site_fract_z
D1 D -0.030252 -0.290391 0.387484
C1 C -0.004957 -0.188038 0.318657
C2 C -0.060747 -0.266387 0.182988
D2 D -0.129246 -0.428919 0.143831
C3 C -0.030963 -0.135360 0.089564
C4 C -0.086791 -0.214710 -0.049414
D3 D -0.156230 -0.376575 -0.088240
D4 D 0.131447 0.085184 0.478481
C5 C 0.085668 0.026005 0.369946
C6 C 0.117011 0.156198 0.283361
D5 D 0.185633 0.319564 0.321745
C7 C 0.058570 0.081850 0.140522
C7B C -0.058570 -0.081850 -0.140522
C3B C 0.030963 0.135360 -0.089564
C2B C 0.060747 0.266387 -0.182988
C1B C 0.004957 0.188038 -0.318657
D1B D 0.030252 0.290391 -0.387484
C5B C -0.085668 -0.026005 -0.369946
D4B D -0.131447 -0.085184 -0.478481
C6B C -0.117011 -0.156198 -0.283361
D5B D -0.185633 -0.319564 -0.321745
D2B D 0.129246 0.428919 -0.143831
C4B C 0.086791 0.214710 0.049414
D3B D 0.156230 0.376575 0.088240
loop_
_geom_bond_atom_site_label_1
_geom_bond_atom_site_label_2
_geom_bond_site_symmetry_1
_geom_bond_site_symmetry_2
D1 C1 1_555 1_555
C1 C2 1_555 1_555
C2 D2 1_555 1_555
C3 C2 1_555 1_555
C4 C3 1_555 1_555
D3 C4 1_555 1_555
D4 C5 1_555 1_555
C5 C1 1_555 1_555
C6 C5 1_555 1_555
D5 C6 1_555 1_555
C7 C3 1_555 1_555
C7B C4 1_555 1_555
C3B C7B 1_555 1_555
C2B C3B 1_555 1_555
C1B C2B 1_555 1_555
D1B C1B 1_555 1_555
C5B C1B 1_555 1_555
D4B C5B 1_555 1_555
C6B C7B 1_555 1_555
D5B C6B 1_555 1_555
D2B C2B 1_555 1_555
C4B C7 1_555 1_555
D3B C4B 1_555 1_555
C6 C7 1_555 1_555
C3B C4B 1_555 1_555
C5B C6B 1_555 1_555

#END
