
#######################################################################
#
#                 Cambridge Crystallographic Data Centre
#                                CCDC 
#
#######################################################################
#
# If this CIF has been generated from an entry in the Cambridge 
# Structural Database, then it will include bibliographic, chemical, 
# crystal, experimental, refinement or atomic coordinate data resulting 
# from the CCDC's data processing and validation procedures.
#
#######################################################################

data_ANUCUJ
_chemical_formula_moiety         'C19 H19 N3 O2'
_chemical_name_systematic        
3-(4-(diethylamino)phenyl)-2-(4-nitrophenyl)acrylonitrile
_symmetry_cell_setting           monoclinic
_symmetry_space_group_name_H-M   'P 21/c'
_symmetry_Int_Tables_number      14
_space_group_name_Hall           '-P 2ybc'
loop_
_symmetry_equiv_pos_site_id
_symmetry_equiv_pos_as_xyz
1 x,y,z
2 -x,1/2+y,1/2-z
3 -x,-y,-z
4 x,1/2-y,1/2+z
_cell_length_a                   17.832(2)
_cell_length_b                   7.7320(13)
_cell_length_c                   12.5884(13)
_cell_angle_alpha                90
_cell_angle_beta                 107.2760(10)
_cell_angle_gamma                90
_cell_volume                     1657.35
_exptl_crystal_colour            red
_exptl_crystal_description       rodlike
_cell_formula_units_Z            4
loop_
_atom_site_label
_atom_site_type_symbol
_atom_site_fract_x
_atom_site_fract_y
_atom_site_fract_z
C1 C 0.40052(11) 0.3369(3) -0.02541(16)
C2 C 0.61523(12) 0.1607(3) 0.07620(16)
C3 C 0.48018(11) 0.2979(3) 0.04924(16)
C4 C 0.25299(13) 0.4200(3) -0.16455(18)
C5 C 0.53511(12) 0.2071(3) 0.01784(16)
H1 H 0.5180 0.1672 -0.0551
C6 C 0.37840(13) 0.2962(3) -0.13883(17)
H2 H 0.4139 0.2392 -0.1678
C7 C 0.66115(12) 0.0919(3) 0.01338(17)
H3 H 0.6379 0.0743 -0.0624
C8 C 0.30581(13) 0.3382(3) -0.20795(18)
H4 H 0.2923 0.3119 -0.2834
C9 C 0.49677(12) 0.3710(3) 0.15848(17)
C10 C 0.65248(12) 0.1788(3) 0.19020(17)
H5 H 0.6239 0.2216 0.2354
C11 C 0.77631(12) 0.0696(3) 0.17335(18)
C12 C 0.72972(13) 0.1354(3) 0.23743(17)
H6 H 0.7521 0.1496 0.3137
C13 C 0.34519(12) 0.4202(3) 0.01500(18)
H7 H 0.3583 0.4490 0.0900
C14 C 0.73890(13) 0.0493(3) 0.05870(18)
H8 H 0.7672 0.0065 0.0131
C15 C 0.27161(14) 0.4609(3) -0.05385(19)
H9 H 0.2351 0.5154 -0.0256
C16 C 0.89651(16) 0.0754(4) 0.3364(2)
H10 H 0.9507 0.1008 0.3413
H11 H 0.8734 0.1794 0.3562
C17 C 0.90129(16) -0.0473(5) 0.1540(2)
H12 H 0.9436 -0.1157 0.2019
H13 H 0.8689 -0.1231 0.0974
C18 C 0.8945(2) -0.0631(5) 0.4162(3)
H14 H 0.8410 -0.0947 0.4078
H15 H 0.9186 -0.0226 0.4906
H16 H 0.9226 -0.1621 0.4021
C19 C 0.9343(2) 0.0895(6) 0.1009(3)
H17 H 0.8924 0.1559 0.0526
H18 H 0.9653 0.0386 0.0584
H19 H 0.9669 0.1638 0.1570
N1 N 0.17561(12) 0.4683(3) -0.23900(19)
N2 N 0.50771(12) 0.4350(3) 0.24364(16)
N3 N 0.85351(12) 0.0269(3) 0.22041(16)
O1 O 0.16528(12) 0.4629(3) -0.33896(16)
O2 O 0.12559(11) 0.5143(3) -0.19745(18)
loop_
_geom_bond_atom_site_label_1
_geom_bond_atom_site_label_2
_geom_bond_site_symmetry_1
_geom_bond_site_symmetry_2
C1 C3 1_555 1_555
C2 C5 1_555 1_555
C3 C5 1_555 1_555
C4 C8 1_555 1_555
C5 H1 1_555 1_555
C6 C1 1_555 1_555
H2 C6 1_555 1_555
C7 C2 1_555 1_555
H3 C7 1_555 1_555
C8 C6 1_555 1_555
H4 C8 1_555 1_555
C9 C3 1_555 1_555
C10 C2 1_555 1_555
H5 C10 1_555 1_555
C11 C12 1_555 1_555
C12 C10 1_555 1_555
H6 C12 1_555 1_555
C13 C1 1_555 1_555
H7 C13 1_555 1_555
C14 C7 1_555 1_555
H8 C14 1_555 1_555
C15 C4 1_555 1_555
H9 C15 1_555 1_555
C16 H10 1_555 1_555
H11 C16 1_555 1_555
C17 H12 1_555 1_555
H13 C17 1_555 1_555
C18 C16 1_555 1_555
H14 C18 1_555 1_555
H15 C18 1_555 1_555
H16 C18 1_555 1_555
C19 C17 1_555 1_555
H17 C19 1_555 1_555
H18 C19 1_555 1_555
H19 C19 1_555 1_555
N1 C4 1_555 1_555
N2 C9 1_555 1_555
N3 C11 1_555 1_555
O1 N1 1_555 1_555
O2 N1 1_555 1_555
C11 C14 1_555 1_555
C13 C15 1_555 1_555
C16 N3 1_555 1_555
C17 N3 1_555 1_555

#END
