
#######################################################################
#
#                 Cambridge Crystallographic Data Centre
#                                CCDC 
#
#######################################################################
#
# If this CIF has been generated from an entry in the Cambridge 
# Structural Database, then it will include bibliographic, chemical, 
# crystal, experimental, refinement or atomic coordinate data resulting 
# from the CCDC's data processing and validation procedures.
#
#######################################################################

data_ANUCAP
_chemical_formula_moiety         'C20 H30 N2 O2 2+,2(I1 1-)'
_chemical_name_systematic        
"(4,4'-Dihydroxybiphenyl-3,3'-diyl)bis(N,N,N-trimethylmethanaminium) bis(iodide)"
_symmetry_cell_setting           monoclinic
_symmetry_space_group_name_H-M   'C 2'
_symmetry_Int_Tables_number      5
_space_group_name_Hall           'C 2y'
loop_
_symmetry_equiv_pos_site_id
_symmetry_equiv_pos_as_xyz
1 x,y,z
2 -x,y,-z
3 1/2+x,1/2+y,z
4 1/2-x,1/2+y,-z
_cell_length_a                   26.338(13)
_cell_length_b                   9.477(5)
_cell_length_c                   32.834(15)
_cell_angle_alpha                90
_cell_angle_beta                 97.759(6)
_cell_angle_gamma                90
_cell_volume                     8120.51
_cell_formula_units_Z            14
loop_
_atom_site_label
_atom_site_type_symbol
_atom_site_fract_x
_atom_site_fract_y
_atom_site_fract_z
I1 I 0.69604(4) 0.29659(11) 0.12448(3)
I2 I 0.42161(6) 0.82179(17) 0.27646(4)
I3 I 0.12871(5) 0.78529(19) 0.41381(4)
I4 I 0.0000 0.2773(2) 0.0000
I5 I 0.66144(5) 0.77385(13) 0.44676(3)
I6 I 0.23466(4) 0.31380(11) 0.16211(3)
I7 I 0.43315(5) 0.3292(2) 0.29084(4)
I8 I 0.5000 0.26021(17) 0.0000
N1 N 0.1682(5) 0.4928(17) 0.0222(4)
N2 N 0.5588(5) 0.5664(15) 0.1263(3)
O1 O 0.2485(5) 0.492(2) -0.0555(3)
H1 H 0.2632 0.4462 -0.0717
O2 O 0.4791(4) 0.6246(18) 0.2031(3)
H2 H 0.4628 0.6423 0.2221
C1 C 0.2046(7) 0.601(2) 0.0129(6)
H3 H 0.2041 0.6785 0.0323
H4 H 0.1938 0.6382 -0.0144
C2 C 0.2598(6) 0.544(3) 0.0152(5)
C3 C 0.2797(5) 0.512(2) -0.0216(5)
C4 C 0.3349(6) 0.477(2) -0.0135(5)
H5 H 0.3504 0.4440 -0.0355
C5 C 0.3634(6) 0.4896(18) 0.0218(4)
H6 H 0.3977 0.4634 0.0237
C6 C 0.3445(6) 0.5421(17) 0.0582(4)
C7 C 0.2937(5) 0.5711(13) 0.0520(3)
H7 H 0.2798 0.6120 0.0738
C8 C 0.3815(6) 0.5613(16) 0.0960(4)
C9 C 0.4299(6) 0.6045(14) 0.0939(4)
H8 H 0.4407 0.6321 0.0693
C10 C 0.4630(6) 0.605(2) 0.1312(4)
C11 C 0.4444(7) 0.587(2) 0.1673(4)
C12 C 0.3951(7) 0.561(2) 0.1712(4)
H9 H 0.3838 0.5549 0.1968
C13 C 0.3616(6) 0.5440(18) 0.1348(4)
H10 H 0.3273 0.5219 0.1354
C14 C 0.5179(6) 0.6740(19) 0.1287(5)
H11 H 0.5156 0.7343 0.1047
H12 H 0.5273 0.7325 0.1528
C15 C 0.1785(9) 0.423(3) 0.0569(8)
H13 H 0.1832 0.4891 0.0794
H14 H 0.2092 0.3691 0.0566
H15 H 0.1505 0.3614 0.0602
C16 C 0.1167(7) 0.559(2) 0.0169(6)
H16 H 0.1091 0.5949 -0.0105
H17 H 0.1162 0.6345 0.0363
H18 H 0.0916 0.4894 0.0216
C17 C 0.1604(8) 0.3790(18) -0.0146(4)
H19 H 0.1368 0.3075 -0.0084
H20 H 0.1927 0.3363 -0.0176
H21 H 0.1470 0.4253 -0.0398
C18 C 0.5466(9) 0.468(2) 0.0895(5)
H22 H 0.5196 0.4046 0.0943
H23 H 0.5766 0.4146 0.0858
H24 H 0.5360 0.5226 0.0652
C19 C 0.5669(7) 0.472(2) 0.1631(5)
H25 H 0.5808 0.5256 0.1868
H26 H 0.5903 0.3980 0.1584
H27 H 0.5347 0.4313 0.1676
C20 C 0.6060(7) 0.630(3) 0.1232(6)
H28 H 0.6029 0.6889 0.0991
H29 H 0.6313 0.5589 0.1212
H30 H 0.6161 0.6871 0.1472
N3 N 0.7649(5) 0.1040(17) 0.2689(3)
N4 N 0.3726(5) 0.0586(16) 0.1551(4)
O3 O 0.6782(4) 0.0810(15) 0.3419(2)
H31 H 0.6612 0.1042 0.3599
O4 O 0.4526(6) 0.025(2) 0.0779(3)
H32 H 0.4540 -0.0532 0.0672
C21 C 0.7216(5) -0.0074(16) 0.2734(4)
H33 H 0.7235 -0.0810 0.2532
H34 H 0.7290 -0.0506 0.3004
C22 C 0.6694(6) 0.0452(15) 0.2688(4)
C23 C 0.6473(7) 0.0895(19) 0.3029(4)
C24 C 0.5971(6) 0.1265(18) 0.3025(4)
H35 H 0.5844 0.1536 0.3265
C25 C 0.5646(7) 0.1218(19) 0.2633(4)
H36 H 0.5301 0.1459 0.2612
C26 C 0.5847(5) 0.0831(15) 0.2311(4)
C27 C 0.6378(6) 0.0478(17) 0.2330(5)
H37 H 0.6509 0.0261 0.2088
C28 C 0.5531(5) 0.0663(14) 0.1892(4)
C29 C 0.4996(5) 0.0228(16) 0.1867(3)
H38 H 0.4869 0.0077 0.2114
C30 C 0.4653(5) 0.0013(17) 0.1501(4)
C31 C 0.4837(6) 0.027(2) 0.1134(4)
C32 C 0.5359(7) 0.074(2) 0.1162(5)
H39 H 0.5481 0.0944 0.0916
C33 C 0.5683(8) 0.092(2) 0.1499(6)
H40 H 0.6016 0.1213 0.1481
C34 C 0.4154(6) -0.0516(18) 0.1529(5)
H41 H 0.4173 -0.1108 0.1772
H42 H 0.4053 -0.1117 0.1293
C35 C 0.7719(7) 0.195(2) 0.3036(5)
H43 H 0.8067 0.2272 0.3080
H44 H 0.7645 0.1439 0.3274
H45 H 0.7492 0.2739 0.2989
C36 C 0.8126(6) 0.008(2) 0.2675(5)
H46 H 0.8092 -0.0420 0.2419
H47 H 0.8150 -0.0582 0.2898
H48 H 0.8429 0.0653 0.2701
C37 C 0.7515(6) 0.1777(16) 0.2265(3)
H49 H 0.7439 0.1076 0.2055
H50 H 0.7800 0.2337 0.2208
H51 H 0.7221 0.2373 0.2271
C38 C 0.3853(6) 0.1418(19) 0.1943(4)
H52 H 0.3617 0.2189 0.1945
H53 H 0.4195 0.1780 0.1960
H54 H 0.3827 0.0816 0.2174
C39 C 0.3233(7) -0.034(2) 0.1575(7)
H55 H 0.3251 -0.0756 0.1844
H56 H 0.3215 -0.1080 0.1373
H57 H 0.2933 0.0238 0.1524
C40 C 0.3622(8) 0.153(2) 0.1179(5)
H58 H 0.3548 0.0960 0.0936
H59 H 0.3918 0.2101 0.1158
H60 H 0.3334 0.2126 0.1206
N5 N 0.9822(6) 0.4974(18) 0.4055(4)
N6 N 0.5913(5) 0.6040(18) 0.3030(3)
O5 O 0.9068(5) 0.450(2) 0.4877(4)
H61 H 0.8965 0.3822 0.4997
O6 O 0.6771(5) 0.605(2) 0.2303(3)
H62 H 0.6630 0.6822 0.2278
C41 C 0.9447(6) 0.3941(19) 0.4103(5)
H63 H 0.9560 0.3381 0.4345
H64 H 0.9412 0.3315 0.3867
C42 C 0.8926(5) 0.4588(14) 0.4144(4)
C43 C 0.8738(5) 0.4793(18) 0.4547(4)
C44 C 0.8228(8) 0.515(2) 0.4522(6)
H65 H 0.8090 0.5262 0.4767
C45 C 0.7891(7) 0.537(2) 0.4143(5)
H66 H 0.7541 0.5473 0.4153
C46 C 0.8052(5) 0.5427(19) 0.3799(4)
C47 C 0.8561(6) 0.527(3) 0.3811(4)
H67 H 0.8704 0.5630 0.3589
C48 C 0.7720(7) 0.573(2) 0.3405(4)
C49 C 0.7195(8) 0.570(3) 0.3401(5)
H68 H 0.7045 0.5825 0.3639
C50 C 0.6886(5) 0.5436(13) 0.3000(4)
C51 C 0.7108(8) 0.600(2) 0.2687(4)
C52 C 0.7592(7) 0.619(2) 0.2669(4)
H69 H 0.7710 0.6404 0.2422
C53 C 0.7922(8) 0.608(3) 0.3029(5)
H70 H 0.8272 0.6219 0.3031
C54 C 0.6325(5) 0.4931(16) 0.2973(4)
H71 H 0.6233 0.4491 0.2707
H72 H 0.6312 0.4205 0.3180
C55 C 1.0345(7) 0.426(2) 0.4035(7)
H73 H 1.0406 0.3567 0.4249
H74 H 1.0610 0.4962 0.4072
H75 H 1.0342 0.3816 0.3773
C56 C 0.9736(5) 0.6019(19) 0.3728(5)
H76 H 0.9411 0.6468 0.3735
H77 H 0.9738 0.5563 0.3467
H78 H 1.0003 0.6714 0.3766
C57 C 0.9941(9) 0.581(2) 0.4454(5)
H79 H 0.9647 0.6360 0.4498
H80 H 1.0225 0.6434 0.4434
H81 H 1.0027 0.5176 0.4680
C58 C 0.5899(6) 0.716(2) 0.2747(5)
H82 H 0.6219 0.7660 0.2787
H83 H 0.5626 0.7799 0.2788
H84 H 0.5841 0.6797 0.2472
C59 C 0.5450(6) 0.525(2) 0.3057(5)
H85 H 0.5172 0.5884 0.3078
H86 H 0.5499 0.4651 0.3296
H87 H 0.5372 0.4672 0.2816
C60 C 0.6103(7) 0.6761(19) 0.3463(3)
H88 H 0.6402 0.7323 0.3441
H89 H 0.6187 0.6043 0.3667
H90 H 0.5836 0.7351 0.3541
N7 N 0.1976(6) 0.0136(17) 0.5570(4)
O7 O 0.1130(5) 0.035(2) 0.6325(3)
H91 H 0.0975 0.0559 0.6517
C61 C 0.1563(6) 0.1196(19) 0.5615(5)
H92 H 0.1568 0.1894 0.5400
H93 H 0.1655 0.1680 0.5875
C62 C 0.0990(5) 0.0648(18) 0.5601(4)
C63 C 0.0788(5) 0.0233(18) 0.5970(4)
C64 C 0.0286(7) -0.008(2) 0.5936(5)
H94 H 0.0140 -0.0311 0.6170
C65 C -0.0009(6) -0.0078(19) 0.5567(5)
H95 H -0.0352 -0.0326 0.5554
C66 C 0.0188(7) 0.030(2) 0.5189(4)
C67 C 0.0671(6) 0.0649(16) 0.5204(4)
H96 H 0.0807 0.0891 0.4966
C68 C 0.2019(8) -0.091(2) 0.5922(4)
H97 H 0.1683 -0.1218 0.5965
H98 H 0.2186 -0.0474 0.6167
H99 H 0.2216 -0.1714 0.5855
C69 C 0.2448(6) 0.093(2) 0.5568(5)
H100 H 0.2723 0.0297 0.5537
H101 H 0.2524 0.1438 0.5823
H102 H 0.2407 0.1590 0.5344
C70 C 0.1864(7) -0.074(2) 0.5213(4)
H103 H 0.2135 -0.1412 0.5206
H104 H 0.1836 -0.0160 0.4971
H105 H 0.1547 -0.1225 0.5223
N7A N -0.1976(6) 0.0136(17) 0.4430(4)
O7A O -0.1130(5) 0.035(2) 0.3675(3)
H91A H -0.0975 0.0559 0.3483
C61A C -0.1563(6) 0.1196(19) 0.4385(5)
H92A H -0.1568 0.1894 0.4600
H93A H -0.1655 0.1680 0.4125
C62A C -0.0990(5) 0.0648(18) 0.4399(4)
C63A C -0.0788(5) 0.0233(18) 0.4030(4)
C64A C -0.0286(7) -0.008(2) 0.4064(5)
H94A H -0.0140 -0.0311 0.3830
C65A C 0.0009(6) -0.0078(19) 0.4433(5)
H95A H 0.0352 -0.0326 0.4446
C66A C -0.0188(7) 0.030(2) 0.4811(4)
C67A C -0.0671(6) 0.0649(16) 0.4796(4)
H96A H -0.0807 0.0891 0.5034
C68A C -0.2019(8) -0.091(2) 0.4078(4)
H97A H -0.1683 -0.1218 0.4035
H98A H -0.2186 -0.0474 0.3833
H99A H -0.2216 -0.1714 0.4145
C69A C -0.2448(6) 0.093(2) 0.4432(5)
H100A H -0.2723 0.0297 0.4463
H101A H -0.2524 0.1438 0.4177
H102A H -0.2407 0.1590 0.4656
C70A C -0.1864(7) -0.074(2) 0.4787(4)
H103A H -0.2135 -0.1412 0.4794
H104A H -0.1836 -0.0160 0.5029
H105A H -0.1547 -0.1225 0.4777
loop_
_geom_bond_atom_site_label_1
_geom_bond_atom_site_label_2
_geom_bond_site_symmetry_1
_geom_bond_site_symmetry_2
N1 C1 1_555 1_555
N2 C14 1_555 1_555
O1 H1 1_555 1_555
O2 H2 1_555 1_555
C1 H3 1_555 1_555
H4 C1 1_555 1_555
C2 C1 1_555 1_555
C3 O1 1_555 1_555
C4 C3 1_555 1_555
H5 C4 1_555 1_555
C5 C4 1_555 1_555
H6 C5 1_555 1_555
C6 C5 1_555 1_555
C7 C2 1_555 1_555
H7 C7 1_555 1_555
C8 C6 1_555 1_555
C9 C8 1_555 1_555
H8 C9 1_555 1_555
C10 C9 1_555 1_555
C11 O2 1_555 1_555
C12 C11 1_555 1_555
H9 C12 1_555 1_555
C13 C8 1_555 1_555
H10 C13 1_555 1_555
C14 C10 1_555 1_555
H11 C14 1_555 1_555
H12 C14 1_555 1_555
C15 N1 1_555 1_555
H13 C15 1_555 1_555
H14 C15 1_555 1_555
H15 C15 1_555 1_555
C16 N1 1_555 1_555
H16 C16 1_555 1_555
H17 C16 1_555 1_555
H18 C16 1_555 1_555
C17 N1 1_555 1_555
H19 C17 1_555 1_555
H20 C17 1_555 1_555
H21 C17 1_555 1_555
C18 N2 1_555 1_555
H22 C18 1_555 1_555
H23 C18 1_555 1_555
H24 C18 1_555 1_555
C19 N2 1_555 1_555
H25 C19 1_555 1_555
H26 C19 1_555 1_555
H27 C19 1_555 1_555
C20 N2 1_555 1_555
H28 C20 1_555 1_555
H29 C20 1_555 1_555
H30 C20 1_555 1_555
N3 C21 1_555 1_555
N4 C34 1_555 1_555
O3 H31 1_555 1_555
O4 H32 1_555 1_555
C21 H33 1_555 1_555
H34 C21 1_555 1_555
C22 C21 1_555 1_555
C23 O3 1_555 1_555
C24 C23 1_555 1_555
H35 C24 1_555 1_555
C25 C24 1_555 1_555
H36 C25 1_555 1_555
C26 C25 1_555 1_555
C27 C22 1_555 1_555
H37 C27 1_555 1_555
C28 C26 1_555 1_555
C29 C28 1_555 1_555
H38 C29 1_555 1_555
C30 C29 1_555 1_555
C31 O4 1_555 1_555
C32 C31 1_555 1_555
H39 C32 1_555 1_555
C33 C28 1_555 1_555
H40 C33 1_555 1_555
C34 C30 1_555 1_555
H41 C34 1_555 1_555
H42 C34 1_555 1_555
C35 N3 1_555 1_555
H43 C35 1_555 1_555
H44 C35 1_555 1_555
H45 C35 1_555 1_555
C36 N3 1_555 1_555
H46 C36 1_555 1_555
H47 C36 1_555 1_555
H48 C36 1_555 1_555
C37 N3 1_555 1_555
H49 C37 1_555 1_555
H50 C37 1_555 1_555
H51 C37 1_555 1_555
C38 N4 1_555 1_555
H52 C38 1_555 1_555
H53 C38 1_555 1_555
H54 C38 1_555 1_555
C39 N4 1_555 1_555
H55 C39 1_555 1_555
H56 C39 1_555 1_555
H57 C39 1_555 1_555
C40 N4 1_555 1_555
H58 C40 1_555 1_555
H59 C40 1_555 1_555
H60 C40 1_555 1_555
N5 C41 1_555 1_555
N6 C54 1_555 1_555
O5 H61 1_555 1_555
O6 H62 1_555 1_555
C41 H63 1_555 1_555
H64 C41 1_555 1_555
C42 C41 1_555 1_555
C43 O5 1_555 1_555
C44 C43 1_555 1_555
H65 C44 1_555 1_555
C45 C44 1_555 1_555
H66 C45 1_555 1_555
C46 C45 1_555 1_555
C47 C42 1_555 1_555
H67 C47 1_555 1_555
C48 C46 1_555 1_555
C49 C48 1_555 1_555
H68 C49 1_555 1_555
C50 C49 1_555 1_555
C51 O6 1_555 1_555
C52 C51 1_555 1_555
H69 C52 1_555 1_555
C53 C48 1_555 1_555
H70 C53 1_555 1_555
C54 C50 1_555 1_555
H71 C54 1_555 1_555
H72 C54 1_555 1_555
C55 N5 1_555 1_555
H73 C55 1_555 1_555
H74 C55 1_555 1_555
H75 C55 1_555 1_555
C56 N5 1_555 1_555
H76 C56 1_555 1_555
H77 C56 1_555 1_555
H78 C56 1_555 1_555
C57 N5 1_555 1_555
H79 C57 1_555 1_555
H80 C57 1_555 1_555
H81 C57 1_555 1_555
C58 N6 1_555 1_555
H82 C58 1_555 1_555
H83 C58 1_555 1_555
H84 C58 1_555 1_555
C59 N6 1_555 1_555
H85 C59 1_555 1_555
H86 C59 1_555 1_555
H87 C59 1_555 1_555
C60 N6 1_555 1_555
H88 C60 1_555 1_555
H89 C60 1_555 1_555
H90 C60 1_555 1_555
N7 C61 1_555 1_555
O7 H91 1_555 1_555
C61 H92 1_555 1_555
H93 C61 1_555 1_555
C62 C61 1_555 1_555
C63 O7 1_555 1_555
C64 C63 1_555 1_555
H94 C64 1_555 1_555
C65 C64 1_555 1_555
H95 C65 1_555 1_555
C66 C65 1_555 1_555
C67 C62 1_555 1_555
H96 C67 1_555 1_555
C68 N7 1_555 1_555
H97 C68 1_555 1_555
H98 C68 1_555 1_555
H99 C68 1_555 1_555
C69 N7 1_555 1_555
H100 C69 1_555 1_555
H101 C69 1_555 1_555
H102 C69 1_555 1_555
C70 N7 1_555 1_555
H103 C70 1_555 1_555
H104 C70 1_555 1_555
H105 C70 1_555 1_555
N7A C61A 1_555 1_555
O7A H91A 1_555 1_555
C61A H92A 1_555 1_555
H93A C61A 1_555 1_555
C62A C61A 1_555 1_555
C63A O7A 1_555 1_555
C64A C63A 1_555 1_555
H94A C64A 1_555 1_555
C65A C64A 1_555 1_555
H95A C65A 1_555 1_555
C66A C66 1_555 1_555
C67A C62A 1_555 1_555
H96A C67A 1_555 1_555
C68A N7A 1_555 1_555
H97A C68A 1_555 1_555
H98A C68A 1_555 1_555
H99A C68A 1_555 1_555
C69A N7A 1_555 1_555
H100A C69A 1_555 1_555
H101A C69A 1_555 1_555
H102A C69A 1_555 1_555
C70A N7A 1_555 1_555
H103A C70A 1_555 1_555
H104A C70A 1_555 1_555
H105A C70A 1_555 1_555
C2 C3 1_555 1_555
C6 C7 1_555 1_555
C10 C11 1_555 1_555
C12 C13 1_555 1_555
C22 C23 1_555 1_555
C26 C27 1_555 1_555
C30 C31 1_555 1_555
C32 C33 1_555 1_555
C42 C43 1_555 1_555
C46 C47 1_555 1_555
C50 C51 1_555 1_555
C52 C53 1_555 1_555
C62 C63 1_555 1_555
C66 C67 1_555 1_555
C62A C63A 1_555 1_555
C65A C66A 1_555 1_555
C66A C67A 1_555 1_555

#END
