
#######################################################################
#
#                 Cambridge Crystallographic Data Centre
#                                CCDC 
#
#######################################################################
#
# If this CIF has been generated from an entry in the Cambridge 
# Structural Database, then it will include bibliographic, chemical, 
# crystal, experimental, refinement or atomic coordinate data resulting 
# from the CCDC's data processing and validation procedures.
#
#######################################################################

data_ANUCIX
_chemical_formula_moiety         'C24 H21 N1 O4 S1'
_chemical_name_systematic        
1-((3-methoxyphenyl)sulfonyl)-2-methyl-2-(2-phenylvinyl)-1,2-dihydro-3H-indol-3-one
_symmetry_cell_setting           monoclinic
_symmetry_space_group_name_H-M   'P 21/c'
_symmetry_Int_Tables_number      14
_space_group_name_Hall           '-P 2ybc'
loop_
_symmetry_equiv_pos_site_id
_symmetry_equiv_pos_as_xyz
1 x,y,z
2 -x,1/2+y,1/2-z
3 -x,-y,-z
4 x,1/2-y,1/2+z
_cell_length_a                   17.7457(8)
_cell_length_b                   5.8725(3)
_cell_length_c                   20.1502(9)
_cell_angle_alpha                90
_cell_angle_beta                 103.1890(10)
_cell_angle_gamma                90
_cell_volume                     2044.5
_exptl_crystal_colour            colorless
_cell_formula_units_Z            4
loop_
_atom_site_label
_atom_site_type_symbol
_atom_site_fract_x
_atom_site_fract_y
_atom_site_fract_z
S1 S 0.15147(2) 0.90405(7) 0.23401(2)
O1 O 0.33215(7) 0.7125(3) 0.46577(6)
O2 O 0.25120(7) 0.4248(2) 0.06191(6)
O3 O 0.20759(7) 1.08002(19) 0.23665(6)
O4 O 0.07199(7) 0.9606(2) 0.22767(6)
N1 N 0.15573(7) 0.7425(2) 0.16809(6)
C1 C 0.37498(12) 0.9134(4) 0.46059(11)
H1 H 0.3963 0.9047 0.4199
H2 H 0.4174 0.9280 0.5011
H3 H 0.3408 1.0461 0.4572
C2 C 0.26925(9) 0.6668(3) 0.41469(8)
C3 C 0.24618(9) 0.7985(3) 0.35629(8)
H4 H 0.2743 0.9312 0.3498
C4 C 0.18119(9) 0.7320(3) 0.30771(7)
C5 C 0.23089(9) 0.6985(3) 0.14692(7)
C6 C 0.29197(9) 0.6157(3) 0.20694(8)
H5 H 0.2814 0.4808 0.2292
C7 C 0.35906(9) 0.7170(3) 0.23087(8)
H6 H 0.3699 0.8461 0.2062
C8 C 0.41910(9) 0.6536(3) 0.29133(8)
C9 C 0.48402(10) 0.7909(3) 0.31029(9)
H7 H 0.4885 0.9222 0.2839
C10 C 0.54257(11) 0.7412(4) 0.36691(10)
H8 H 0.5869 0.8365 0.3786
C11 C 0.53630(11) 0.5553(4) 0.40571(11)
H9 H 0.5759 0.5215 0.4449
C12 C 0.09838(9) 0.5862(3) 0.13585(7)
C13 C 0.02231(9) 0.5605(3) 0.14221(9)
H10 H 0.0019 0.6536 0.1724
C14 C -0.02218(11) 0.3960(4) 0.10331(10)
H11 H -0.0739 0.3745 0.1077
C15 C 0.00559(11) 0.2598(4) 0.05779(11)
H12 H -0.0271 0.1491 0.0313
C16 C 0.08062(10) 0.2859(3) 0.05132(9)
H13 H 0.1003 0.1946 0.0202
C17 C 0.12689(9) 0.4477(3) 0.09097(8)
C18 C 0.20742(9) 0.5051(3) 0.09434(8)
C19 C 0.25414(10) 0.9023(3) 0.10916(9)
H14 H 0.2685 1.0298 0.1409
H15 H 0.2105 0.9471 0.0722
H16 H 0.2984 0.8610 0.0901
C20 C 0.47226(12) 0.4166(4) 0.38788(11)
H17 H 0.4680 0.2869 0.4150
C21 C 0.41407(10) 0.4633(3) 0.33114(10)
H18 H 0.3705 0.3651 0.3193
C22 C 0.13925(11) 0.5400(3) 0.31553(9)
H19 H 0.0946 0.4981 0.2819
C23 C 0.16415(11) 0.4103(3) 0.37375(9)
H20 H 0.1366 0.2761 0.3798
C24 C 0.22803(11) 0.4723(3) 0.42291(9)
H21 H 0.2440 0.3816 0.4627
loop_
_geom_bond_atom_site_label_1
_geom_bond_atom_site_label_2
_geom_bond_site_symmetry_1
_geom_bond_site_symmetry_2
S1 O3 1_555 1_555
O1 C1 1_555 1_555
O2 C18 1_555 1_555
O4 S1 1_555 1_555
N1 S1 1_555 1_555
C1 H1 1_555 1_555
H2 C1 1_555 1_555
H3 C1 1_555 1_555
C2 O1 1_555 1_555
C3 C2 1_555 1_555
H4 C3 1_555 1_555
C4 S1 1_555 1_555
C5 N1 1_555 1_555
C6 C5 1_555 1_555
H5 C6 1_555 1_555
C7 C6 1_555 1_555
H6 C7 1_555 1_555
C8 C7 1_555 1_555
C9 C8 1_555 1_555
H7 C9 1_555 1_555
C10 C9 1_555 1_555
H8 C10 1_555 1_555
C11 C10 1_555 1_555
H9 C11 1_555 1_555
C12 N1 1_555 1_555
C13 C12 1_555 1_555
H10 C13 1_555 1_555
C14 C13 1_555 1_555
H11 C14 1_555 1_555
C15 C14 1_555 1_555
H12 C15 1_555 1_555
C16 C15 1_555 1_555
H13 C16 1_555 1_555
C17 C12 1_555 1_555
C18 C5 1_555 1_555
C19 C5 1_555 1_555
H14 C19 1_555 1_555
H15 C19 1_555 1_555
H16 C19 1_555 1_555
C20 C11 1_555 1_555
H17 C20 1_555 1_555
C21 C8 1_555 1_555
H18 C21 1_555 1_555
C22 C4 1_555 1_555
H19 C22 1_555 1_555
C23 C22 1_555 1_555
H20 C23 1_555 1_555
C24 C2 1_555 1_555
H21 C24 1_555 1_555
C3 C4 1_555 1_555
C16 C17 1_555 1_555
C17 C18 1_555 1_555
C20 C21 1_555 1_555
C23 C24 1_555 1_555

#END
