
#######################################################################
#
#                 Cambridge Crystallographic Data Centre
#                                CCDC 
#
#######################################################################
#
# If this CIF has been generated from an entry in the Cambridge 
# Structural Database, then it will include bibliographic, chemical, 
# crystal, experimental, refinement or atomic coordinate data resulting 
# from the CCDC's data processing and validation procedures.
#
#######################################################################

data_ANUDIY
_chemical_formula_moiety         'C20 H21 N3 O3'
_chemical_name_systematic        
3-(4-(diethylamino)-2-methoxyphenyl)-2-(4-nitrophenyl)acrylonitrile
_symmetry_cell_setting           monoclinic
_symmetry_space_group_name_H-M   'P 21/c'
_symmetry_Int_Tables_number      14
_space_group_name_Hall           '-P 2ybc'
loop_
_symmetry_equiv_pos_site_id
_symmetry_equiv_pos_as_xyz
1 x,y,z
2 -x,1/2+y,1/2-z
3 -x,-y,-z
4 x,1/2-y,1/2+z
_cell_length_a                   16.829(2)
_cell_length_b                   7.8227(9)
_cell_length_c                   14.6038(17)
_cell_angle_alpha                90
_cell_angle_beta                 104.871(2)
_cell_angle_gamma                90
_cell_volume                     1858.17
_exptl_crystal_colour            red
_exptl_crystal_description       cube
_cell_formula_units_Z            4
loop_
_atom_site_label
_atom_site_type_symbol
_atom_site_fract_x
_atom_site_fract_y
_atom_site_fract_z
C1 C 0.9550(2) 0.9849(5) 0.6168(3)
H1 H 0.9906 0.9181 0.6656
H2 H 0.9873 1.0449 0.5816
H3 H 0.9168 0.9109 0.5749
C2 C 0.90787(19) 1.1139(5) 0.6617(2)
H4 H 0.9465 1.1912 0.7023
H5 H 0.8718 1.1811 0.6123
C3 C 0.8983(4) 0.9916(9) 0.8185(4)
H6 H 0.9570 0.9790 0.8265
H7 H 0.8775 0.8853 0.8374
C4 C 0.8831(3) 1.1316(6) 0.8798(3)
H8 H 0.9105 1.1069 0.9446
H9 H 0.8251 1.1420 0.8733
H10 H 0.9038 1.2369 0.8613
C5 C 0.78081(10) 0.9685(2) 0.67657(12)
C6 C 0.72684(10) 0.9144(2) 0.72996(12)
H11 H 0.7442 0.9166 0.7958
C7 C 0.64953(10) 0.8588(2) 0.68683(11)
H12 H 0.6157 0.8243 0.7248
C8 C 0.61857(9) 0.85086(19) 0.58884(10)
C9 C 0.67277(10) 0.9084(2) 0.53581(11)
C10 C 0.75084(10) 0.9643(2) 0.57812(12)
H13 H 0.7845 1.0003 0.5404
C11 C 0.53904(9) 0.78702(19) 0.53893(10)
H14 H 0.5277 0.7982 0.4734
C12 C 0.47755(9) 0.71367(19) 0.56950(10)
C13 C 0.48397(10) 0.6878(3) 0.66827(12)
C14 C 0.39991(9) 0.65190(19) 0.50537(10)
C15 C 0.34377(11) 0.5588(2) 0.54085(12)
H15 H 0.3560 0.5344 0.6053
C16 C 0.27063(11) 0.5022(2) 0.48259(14)
H16 H 0.2337 0.4407 0.5075
C17 C 0.25286(10) 0.5372(2) 0.38807(13)
C18 C 0.30690(11) 0.6277(2) 0.35011(12)
H17 H 0.2942 0.6503 0.2854
C19 C 0.37979(10) 0.6845(2) 0.40833(11)
H18 H 0.4162 0.7456 0.3826
C20 C 0.68854(14) 0.9723(3) 0.38088(13)
H19 H 0.7020 1.0892 0.3981
H20 H 0.6570 0.9670 0.3161
H21 H 0.7382 0.9075 0.3882
N1 N 0.85820(9) 1.0257(2) 0.71854(11)
N2 N 0.48527(11) 0.6649(3) 0.74602(12)
N3 N 0.17510(10) 0.4786(2) 0.32578(15)
O1 O 0.12335(9) 0.4200(2) 0.36217(12)
O2 O 0.16518(9) 0.4916(2) 0.24017(12)
O3 O 0.64198(7) 0.90328(17) 0.44012(8)
C21? C 0.9388(6) 1.1611(13) 0.6235(7)
H22? H 0.9806 1.1442 0.5904
H23? H 0.9554 1.2505 0.6695
H24? H 0.8882 1.1926 0.5792
C22? C 0.9266(4) 1.0000(12) 0.6723(6)
H25? H 0.9133 0.9072 0.6268
H26? H 0.9767 0.9704 0.7196
C23? C 0.8810(8) 1.0657(14) 0.8231(5)
H27? H 0.8326 1.1080 0.8404
H28? H 0.9217 1.1563 0.8354
C24? C 0.9150(4) 0.9131(10) 0.8858(5)
H29? H 0.9252 0.9456 0.9512
H30? H 0.9654 0.8761 0.8729
H31? H 0.8758 0.8214 0.8728
loop_
_geom_bond_atom_site_label_1
_geom_bond_atom_site_label_2
_geom_bond_site_symmetry_1
_geom_bond_site_symmetry_2
C1 H1 1_555 1_555
H2 C1 1_555 1_555
H3 C1 1_555 1_555
C2 C1 1_555 1_555
H4 C2 1_555 1_555
H5 C2 1_555 1_555
C3 H6 1_555 1_555
H7 C3 1_555 1_555
C4 C3 1_555 1_555
H8 C4 1_555 1_555
H9 C4 1_555 1_555
H10 C4 1_555 1_555
C5 C6 1_555 1_555
C6 H11 1_555 1_555
C7 C6 1_555 1_555
H12 C7 1_555 1_555
C8 C7 1_555 1_555
C9 C8 1_555 1_555
C10 C5 1_555 1_555
H13 C10 1_555 1_555
C11 C8 1_555 1_555
H14 C11 1_555 1_555
C12 C11 1_555 1_555
C13 C12 1_555 1_555
C14 C12 1_555 1_555
C15 C14 1_555 1_555
H15 C15 1_555 1_555
C16 C15 1_555 1_555
H16 C16 1_555 1_555
C17 C16 1_555 1_555
C18 C17 1_555 1_555
H17 C18 1_555 1_555
C19 C14 1_555 1_555
H18 C19 1_555 1_555
C20 H19 1_555 1_555
H20 C20 1_555 1_555
H21 C20 1_555 1_555
N1 C2 1_555 1_555
N2 C13 1_555 1_555
N3 C17 1_555 1_555
O1 N3 1_555 1_555
O2 N3 1_555 1_555
O3 C9 1_555 1_555
C3 N1 1_555 1_555
C5 N1 1_555 1_555
C9 C10 1_555 1_555
C18 C19 1_555 1_555
C20 O3 1_555 1_555

#END
