
#######################################################################
#
#                 Cambridge Crystallographic Data Centre
#                                CCDC 
#
#######################################################################
#
# If this CIF has been generated from an entry in the Cambridge 
# Structural Database, then it will include bibliographic, chemical, 
# crystal, experimental, refinement or atomic coordinate data resulting 
# from the CCDC's data processing and validation procedures.
#
#######################################################################

data_ANUDEU
_chemical_formula_moiety         'C26 H25 N3 O3'
_chemical_name_systematic        
3-(2-(benzyloxy)-4-(diethylamino)phenyl)-2-(4-nitrophenyl)acrylonitrile
_symmetry_cell_setting           orthorhombic
_symmetry_space_group_name_H-M   'P 21 21 21'
_symmetry_Int_Tables_number      19
_space_group_name_Hall           'P 2ac 2ab'
loop_
_symmetry_equiv_pos_site_id
_symmetry_equiv_pos_as_xyz
1 x,y,z
2 1/2-x,-y,1/2+z
3 -x,1/2+y,1/2-z
4 1/2+x,1/2-y,-z
_cell_length_a                   4.7847(6)
_cell_length_b                   18.296(2)
_cell_length_c                   25.580(3)
_cell_angle_alpha                90
_cell_angle_beta                 90
_cell_angle_gamma                90
_cell_volume                     2239.3
_exptl_crystal_colour            red
_exptl_crystal_description       rodlike
_cell_formula_units_Z            4
loop_
_atom_site_label
_atom_site_type_symbol
_atom_site_fract_x
_atom_site_fract_y
_atom_site_fract_z
C1 C 0.1591(4) 1.06025(9) 0.24244(5)
C2 C 0.5143(4) 1.13126(8) 0.18699(6)
C3 C 0.9704(5) 1.06118(11) 0.07687(7)
H1 H 1.0128 1.0170 0.0607
C4 C 1.0890(4) 1.12493(11) 0.05990(6)
C5 C 0.7146(4) 1.12870(9) 0.14284(6)
C6 C 0.3620(3) 1.07233(9) 0.20201(5)
H2 H 0.3964 1.0310 0.1818
C7 C -0.2369(4) 1.02431(10) 0.32228(6)
C8 C -0.1586(4) 0.97288(10) 0.28425(6)
H3 H -0.2349 0.9262 0.2852
C9 C 0.7864(4) 1.06350(10) 0.11849(6)
H4 H 0.7083 1.0201 0.1306
C10 C 0.0302(4) 0.99080(10) 0.24550(6)
C11 C -0.1161(4) 1.09439(11) 0.31859(7)
H5 H -0.1659 1.1301 0.3427
C12 C 0.8436(4) 1.19179(10) 0.12430(7)
H6 H 0.8038 1.2362 0.1403
C13 C 0.4879(5) 1.20104(11) 0.21210(8)
C14 C -0.5421(4) 0.93342(14) 0.36547(8)
H7 H -0.5920 0.9162 0.3308
H8 H -0.7126 0.9363 0.3859
C15 C 0.0346(5) 0.84227(10) 0.15035(6)
C16 C 0.0727(4) 1.11097(10) 0.28027(6)
H9 H 0.1471 1.1579 0.2792
C17 C 1.0285(5) 1.19044(12) 0.08298(8)
H10 H 1.1107 1.2334 0.0710
C18 C -0.0340(5) 0.87511(10) 0.20295(7)
H11 H -0.2342 0.8823 0.2061
H12 H 0.0263 0.8426 0.2307
C19 C -0.5124(5) 1.05982(14) 0.39945(7)
H13 H -0.6998 1.0473 0.4109
H14 H -0.5214 1.1075 0.3829
C20 C -0.3524(6) 0.87846(14) 0.39030(9)
H15 H -0.1937 0.8703 0.3681
H16 H -0.4515 0.8333 0.3952
H17 H -0.2902 0.8965 0.4236
C21 C -0.1086(6) 0.78038(11) 0.13485(8)
H18 H -0.2425 0.7600 0.1568
C22 C 0.2267(6) 0.87215(14) 0.11663(9)
H19 H 0.3227 0.9143 0.1262
C23 C 0.1410(6) 0.77779(13) 0.05432(9)
H20 H 0.1804 0.7554 0.0225
C24 C -0.3264(6) 1.06518(15) 0.44697(8)
H21 H -0.3174 1.0185 0.4640
H22 H -0.4014 1.1007 0.4707
H23 H -0.1421 1.0797 0.4364
C25 C -0.0546(7) 0.74854(12) 0.08705(9)
H24 H -0.1521 0.7069 0.0770
C26 C 0.2790(6) 0.84032(16) 0.06850(9)
H25 H 0.4078 0.8614 0.0458
N1 N 1.2875(4) 1.12188(13) 0.01591(7)
N2 N -0.4238(4) 1.00682(10) 0.36082(5)
N3 N 0.4719(6) 1.25777(11) 0.23059(9)
O1 O 0.1058(3) 0.94288(7) 0.20708(5)
O2 O 1.3355(4) 1.06289(12) -0.00397(6)
O3 O 1.3984(5) 1.17820(12) 0.00224(7)
loop_
_geom_bond_atom_site_label_1
_geom_bond_atom_site_label_2
_geom_bond_site_symmetry_1
_geom_bond_site_symmetry_2
C1 C6 1_555 1_555
C2 C5 1_555 1_555
C3 H1 1_555 1_555
C4 C3 1_555 1_555
C5 C9 1_555 1_555
C6 C2 1_555 1_555
H2 C6 1_555 1_555
C7 C8 1_555 1_555
C8 H3 1_555 1_555
C9 C3 1_555 1_555
H4 C9 1_555 1_555
C10 C1 1_555 1_555
C11 C7 1_555 1_555
H5 C11 1_555 1_555
C12 C5 1_555 1_555
H6 C12 1_555 1_555
C13 C2 1_555 1_555
C14 H7 1_555 1_555
H8 C14 1_555 1_555
C15 C18 1_555 1_555
C16 C1 1_555 1_555
H9 C16 1_555 1_555
C17 C4 1_555 1_555
H10 C17 1_555 1_555
C18 H11 1_555 1_555
H12 C18 1_555 1_555
C19 H13 1_555 1_555
H14 C19 1_555 1_555
C20 C14 1_555 1_555
H15 C20 1_555 1_555
H16 C20 1_555 1_555
H17 C20 1_555 1_555
C21 C15 1_555 1_555
H18 C21 1_555 1_555
C22 C15 1_555 1_555
H19 C22 1_555 1_555
C23 H20 1_555 1_555
C24 C19 1_555 1_555
H21 C24 1_555 1_555
H22 C24 1_555 1_555
H23 C24 1_555 1_555
C25 C21 1_555 1_555
H24 C25 1_555 1_555
C26 C22 1_555 1_555
H25 C26 1_555 1_555
N1 C4 1_555 1_555
N2 C7 1_555 1_555
N3 C13 1_555 1_555
O1 C10 1_555 1_555
O2 N1 1_555 1_555
O3 N1 1_555 1_555
C8 C10 1_555 1_555
C11 C16 1_555 1_555
C12 C17 1_555 1_555
C14 N2 1_555 1_555
C18 O1 1_555 1_555
C19 N2 1_555 1_555
C23 C25 1_555 1_555
C23 C26 1_555 1_555

#END
