
#######################################################################
#
#                 Cambridge Crystallographic Data Centre
#                                CCDC 
#
#######################################################################
#
# If this CIF has been generated from an entry in the Cambridge 
# Structural Database, then it will include bibliographic, chemical, 
# crystal, experimental, refinement or atomic coordinate data resulting 
# from the CCDC's data processing and validation procedures.
#
#######################################################################

data_ANUHOI01
_chemical_formula_moiety         'C39 H28 O1'
_chemical_name_systematic        
2,7-bis(2'-methylbiphenyl-4-yl)-9H-fluoren-9-one
_symmetry_cell_setting           monoclinic
_symmetry_space_group_name_H-M   'C 2'
_symmetry_Int_Tables_number      5
_space_group_name_Hall           'C 2y'
loop_
_symmetry_equiv_pos_site_id
_symmetry_equiv_pos_as_xyz
1 x,y,z
2 -x,y,-z
3 1/2+x,1/2+y,z
4 1/2-x,1/2+y,-z
_cell_length_a                   27.852(3)
_cell_length_b                   5.1630(4)
_cell_length_c                   20.8582(18)
_cell_angle_alpha                90
_cell_angle_beta                 115.191(3)
_cell_angle_gamma                90
_cell_volume                     2714.14
_exptl_crystal_colour            yellow
_exptl_crystal_description       block
_cell_formula_units_Z            4
loop_
_atom_site_label
_atom_site_type_symbol
_atom_site_fract_x
_atom_site_fract_y
_atom_site_fract_z
O1 O 0.25453(12) 0.9363(8) 0.29335(16)
C1 C 0.23942(16) 0.7616(10) 0.3184(2)
C2 C 0.27111(15) 0.5965(9) 0.38151(19)
C3 C 0.32482(15) 0.6112(9) 0.42774(19)
H1 H 0.3464 0.7353 0.4208
C4 C 0.34607(15) 0.4382(9) 0.48454(19)
C5 C 0.31175(15) 0.2561(9) 0.49166(19)
H2 H 0.3254 0.1374 0.5286
C6 C 0.25808(15) 0.2437(9) 0.4460(2)
H3 H 0.2363 0.1194 0.4522
C7 C 0.23787(15) 0.4213(9) 0.39096(19)
C8 C 0.18340(14) 0.4613(9) 0.33667(18)
C9 C 0.13662(16) 0.3490(10) 0.3263(2)
H4 H 0.1358 0.2157 0.3559
C10 C 0.08968(16) 0.4342(11) 0.2711(2)
H5 H 0.0579 0.3548 0.2643
C11 C 0.08895(15) 0.6343(9) 0.22605(19)
C12 C 0.13764(16) 0.7442(10) 0.23802(19)
H6 H 0.1389 0.8759 0.2084
C13 C 0.18352(15) 0.6629(9) 0.2923(2)
C14 C 0.40217(15) 0.4527(10) 0.53578(18)
C15 C 0.4263(3) 0.694(2) 0.5501(4)
H7 H 0.4077 0.8426 0.5280
C16 C 0.4791(3) 0.7075(19) 0.5986(4)
H8 H 0.4960 0.8677 0.6077
C17 C 0.50967(15) 0.4783(10) 0.6363(2)
C18 C 0.4808(3) 0.2550(18) 0.6152(4)
H9 H 0.4980 0.1008 0.6350
C19 C 0.4270(3) 0.2388(19) 0.5657(4)
H10 H 0.4097 0.0799 0.5546
C20 C 0.56554(15) 0.5005(9) 0.6900(2)
C21 C 0.60741(17) 0.3580(9) 0.6874(2)
C22 C 0.65898(17) 0.3963(11) 0.7387(2)
H11 H 0.6869 0.3024 0.7370
C23 C 0.6684(2) 0.5745(14) 0.7921(3)
H12 H 0.7029 0.6007 0.8261
C24 C 0.6285(2) 0.7104(14) 0.7956(3)
H13 H 0.6355 0.8294 0.8319
C25 C 0.57696(18) 0.6738(11) 0.7452(2)
H14 H 0.5496 0.7673 0.7485
C26 C 0.59983(15) 0.1593(10) 0.6319(2)
H15 H 0.6321 0.1403 0.6264
H16 H 0.5719 0.2133 0.5878
H17 H 0.5906 -0.0035 0.6459
C27 C 0.03798(16) 0.7163(9) 0.1684(2)
C28 C 0.0275(3) 0.966(2) 0.1550(4)
H18 H 0.0533 1.0862 0.1813
C29 C -0.0212(3) 1.0587(18) 0.1025(4)
H19 H -0.0281 1.2354 0.0967
C30 C -0.05985(16) 0.8747(11) 0.0583(2)
C31 C -0.0512(3) 0.630(2) 0.0733(4)
H20 H -0.0778 0.5119 0.0483
C32 C -0.0033(3) 0.5397(19) 0.1257(4)
H21 H 0.0020 0.3623 0.1331
C33 C -0.10954(15) 0.9586(10) -0.00077(19)
C34 C -0.15948(17) 0.8747(10) -0.0128(2)
C35 C -0.2034(2) 0.9665(16) -0.0704(3)
H22 H -0.2370 0.9086 -0.0778
C36 C -0.1985(2) 1.1408(17) -0.1166(3)
H23 H -0.2285 1.1979 -0.1555
C37 C -0.1494(2) 1.2308(13) -0.1056(3)
H24 H -0.1460 1.3505 -0.1367
C38 C -0.10487(18) 1.1444(10) -0.0483(2)
H25 H -0.0716 1.2077 -0.0407
C39 C -0.16950(17) 0.6765(12) 0.0337(2)
H26 H -0.2033 0.5954 0.0075
H27 H -0.1695 0.7610 0.0747
H28 H -0.1421 0.5477 0.0484
C40? C 0.4448(3) 0.5390(18) 0.5213(4)
H29? H 0.4370 0.5934 0.4754
C41? C 0.4963(3) 0.5478(17) 0.5697(4)
H30? H 0.5223 0.6029 0.5560
C42? C 0.4730(3) 0.3857(18) 0.6597(4)
H31? H 0.4835 0.3378 0.7068
C43? C 0.4210(3) 0.3673(17) 0.6113(4)
H32? H 0.3964 0.2989 0.6259
C44? C -0.0042(3) 0.7870(18) 0.1812(4)
H33? H -0.0009 0.7897 0.2275
C45? C -0.0519(3) 0.8548(17) 0.1261(4)
H34? H -0.0804 0.8889 0.1369
C46? C -0.0142(3) 0.7994(17) 0.0448(3)
H35? H -0.0177 0.7961 -0.0016
C47? C 0.0336(3) 0.7339(17) 0.0989(4)
H36? H 0.0629 0.7014 0.0896
loop_
_geom_bond_atom_site_label_1
_geom_bond_atom_site_label_2
_geom_bond_site_symmetry_1
_geom_bond_site_symmetry_2
O1 C1 1_555 1_555
C1 C2 1_555 1_555
C2 C3 1_555 1_555
C3 H1 1_555 1_555
C4 C3 1_555 1_555
C5 C4 1_555 1_555
H2 C5 1_555 1_555
C6 C5 1_555 1_555
H3 C6 1_555 1_555
C7 C2 1_555 1_555
C8 C7 1_555 1_555
C9 C8 1_555 1_555
H4 C9 1_555 1_555
C10 C9 1_555 1_555
H5 C10 1_555 1_555
C11 C10 1_555 1_555
C12 C11 1_555 1_555
H6 C12 1_555 1_555
C13 C1 1_555 1_555
C14 C4 1_555 1_555
C15 C14 1_555 1_555
H7 C15 1_555 1_555
C16 C15 1_555 1_555
H8 C16 1_555 1_555
C17 C16 1_555 1_555
C18 C17 1_555 1_555
H9 C18 1_555 1_555
C19 C14 1_555 1_555
H10 C19 1_555 1_555
C20 C17 1_555 1_555
C21 C20 1_555 1_555
C22 C21 1_555 1_555
H11 C22 1_555 1_555
C23 C22 1_555 1_555
H12 C23 1_555 1_555
C24 C23 1_555 1_555
H13 C24 1_555 1_555
C25 C20 1_555 1_555
H14 C25 1_555 1_555
C26 C21 1_555 1_555
H15 C26 1_555 1_555
H16 C26 1_555 1_555
H17 C26 1_555 1_555
C27 C11 1_555 1_555
C28 C27 1_555 1_555
H18 C28 1_555 1_555
C29 C28 1_555 1_555
H19 C29 1_555 1_555
C30 C29 1_555 1_555
C31 C30 1_555 1_555
H20 C31 1_555 1_555
C32 C27 1_555 1_555
H21 C32 1_555 1_555
C33 C30 1_555 1_555
C34 C33 1_555 1_555
C35 C34 1_555 1_555
H22 C35 1_555 1_555
C36 C35 1_555 1_555
H23 C36 1_555 1_555
C37 C36 1_555 1_555
H24 C37 1_555 1_555
C38 C33 1_555 1_555
H25 C38 1_555 1_555
C39 C34 1_555 1_555
H26 C39 1_555 1_555
H27 C39 1_555 1_555
H28 C39 1_555 1_555
C6 C7 1_555 1_555
C8 C13 1_555 1_555
C12 C13 1_555 1_555
C18 C19 1_555 1_555
C24 C25 1_555 1_555
C31 C32 1_555 1_555
C37 C38 1_555 1_555

#END
