
#######################################################################
#
#                 Cambridge Crystallographic Data Centre
#                                CCDC 
#
#######################################################################
#
# If this CIF has been generated from an entry in the Cambridge 
# Structural Database, then it will include bibliographic, chemical, 
# crystal, experimental, refinement or atomic coordinate data resulting 
# from the CCDC's data processing and validation procedures.
#
#######################################################################

data_ANUKAX
_chemical_formula_moiety         'C14 H29 N4 O5 P1,C1 H4 O1,2(H2 O1)'
_chemical_name_systematic        
'(1S,2S,3R,4R)-(3-((S)-1-acetamido-2-ethylbutyl)-4-carbamimidamido-2-hydroxycyclopentyl)phosphonic acid methanol dihydrate'
_chemical_properties_biological  'Neuraminidase inhibition activity'
_symmetry_cell_setting           monoclinic
_symmetry_space_group_name_H-M   'C 2'
_symmetry_Int_Tables_number      5
_space_group_name_Hall           'C 2y'
loop_
_symmetry_equiv_pos_site_id
_symmetry_equiv_pos_as_xyz
1 x,y,z
2 -x,y,-z
3 1/2+x,1/2+y,z
4 1/2-x,1/2+y,-z
_cell_length_a                   13.0574(5)
_cell_length_b                   10.3431(4)
_cell_length_c                   16.7859(8)
_cell_angle_alpha                90
_cell_angle_beta                 93.564(4)
_cell_angle_gamma                90
_cell_volume                     2262.62
_exptl_crystal_description       Columnar
_chemical_melting_point          '275 deg.C (dec.)'
_cell_formula_units_Z            4
loop_
_atom_site_label
_atom_site_type_symbol
_atom_site_fract_x
_atom_site_fract_y
_atom_site_fract_z
P1 P 0.85219(7) 0.11259(10) 0.43517(6)
O1 O 0.7737(2) 0.0123(3) 0.4123(2)
O2 O 0.8651(2) 0.1239(4) 0.52880(18)
H1 H 0.9266 0.1101 0.5441
O3 O 0.9567(2) 0.0885(4) 0.40256(17)
H2 H 0.9493 0.0729 0.3534
O4 O 0.6718(2) 0.2926(3) 0.2953(2)
O5 O 0.7083(3) 0.7072(5) 0.1763(3)
N1 N 0.8500(3) 0.5842(4) 0.1939(2)
H3 H 0.915(5) 0.581(7) 0.199(4)
N2 N 0.9194(3) 0.5880(4) 0.3673(2)
H4 H 0.981(5) 0.572(7) 0.360(4)
N3 N 0.9796(3) 0.7962(5) 0.3775(3)
H5 H 1.0401 0.7701 0.3637
H6 H 0.9692 0.8784 0.3878
N4 N 0.8131(3) 0.7541(5) 0.4030(3)
H7 H 0.780(6) 0.707(9) 0.412(4)
C1 C 0.8014(3) 0.2689(5) 0.4042(2)
H8 H 0.7337 0.2788 0.4282
C2 C 0.7810(3) 0.2794(4) 0.3125(3)
H9 H 0.8072 0.2009 0.2855
C3 C 0.8403(3) 0.4007(4) 0.2881(3)
H10 H 0.9122 0.3730 0.2799
C4 C 0.8437(3) 0.4835(4) 0.3651(3)
H11 H 0.7742 0.5214 0.3713
C5 C 0.8661(4) 0.3849(5) 0.4302(3)
H12 H 0.8461 0.4180 0.4824
H13 H 0.9399 0.3623 0.4346
C6 C 0.9028(4) 0.7103(5) 0.3829(3)
C7 C 0.7975(3) 0.4630(5) 0.2098(3)
H14 H 0.7237 0.4839 0.2162
C8 C 0.8019(4) 0.3703(6) 0.1390(3)
H15 H 0.7696 0.2875 0.1553
C9 C 0.9122(4) 0.3373(7) 0.1182(3)
H16 H 0.9527 0.3172 0.1663
H17 H 0.9421 0.4112 0.0941
C10 C 0.9226(13) 0.187(2) 0.0983(18)
H18 H 0.8704 0.1630 0.0564
H19 H 0.9128 0.1361 0.1464
H20 H 0.9910 0.1700 0.0797
C11 C 0.7397(5) 0.4179(7) 0.0651(3)
H21 H 0.7545 0.3616 0.0195
H22 H 0.7626 0.5064 0.0525
C12 C 0.6230(4) 0.4200(8) 0.0732(4)
H23 H 0.5885 0.4510 0.0232
H24 H 0.6070 0.4780 0.1169
H25 H 0.5991 0.3325 0.0845
C13 C 0.8024(4) 0.6961(6) 0.1790(3)
C14 C 0.8707(5) 0.8111(7) 0.1645(4)
H26 H 0.8282 0.8879 0.1538
H27 H 0.9112 0.7935 0.1185
H28 H 0.9170 0.8262 0.2118
H29 H 0.666(4) 0.259(5) 0.250(3)
O6 O 0.5911(3) 0.1061(5) 0.1828(2)
C16 C 0.6346(5) 0.0463(8) 0.1158(4)
H33 H 0.7076 0.0686 0.1156
H34 H 0.5989 0.0772 0.0663
H35 H 0.6272 -0.0477 0.1195
H36 H 0.601(4) 0.059(6) 0.226(3)
O7 O 0.6056(3) -0.0260(4) 0.3187(3)
H37 H 0.649(5) -0.023(7) 0.342(4)
H38 H 0.616(5) -0.117(8) 0.313(4)
O8 O 0.5668(4) 0.7238(5) 0.2895(4)
H39 H 0.585(7) 0.672(13) 0.313(8)
H40 H 0.612(7) 0.666(10) 0.258(6)
C15? C 0.918(2) 0.224(4) 0.0675(19)
H30? H 0.9065 0.2493 0.0115
H31? H 0.8661 0.1609 0.0812
H32? H 0.9866 0.1847 0.0757
loop_
_geom_bond_atom_site_label_1
_geom_bond_atom_site_label_2
_geom_bond_site_symmetry_1
_geom_bond_site_symmetry_2
P1 O1 1_555 1_555
O2 P1 1_555 1_555
H1 O2 1_555 1_555
O3 P1 1_555 1_555
H2 O3 1_555 1_555
O4 C2 1_555 1_555
O5 C13 1_555 1_555
N1 H3 1_555 1_555
N2 H4 1_555 1_555
N3 H5 1_555 1_555
H6 N3 1_555 1_555
N4 H7 1_555 1_555
C1 P1 1_555 1_555
H8 C1 1_555 1_555
C2 C1 1_555 1_555
H9 C2 1_555 1_555
C3 C2 1_555 1_555
H10 C3 1_555 1_555
C4 N2 1_555 1_555
H11 C4 1_555 1_555
C5 C1 1_555 1_555
H12 C5 1_555 1_555
H13 C5 1_555 1_555
C6 N2 1_555 1_555
C7 N1 1_555 1_555
H14 C7 1_555 1_555
C8 C7 1_555 1_555
H15 C8 1_555 1_555
C9 C8 1_555 1_555
H16 C9 1_555 1_555
H17 C9 1_555 1_555
C10 C9 1_555 1_555
H18 C10 1_555 1_555
H19 C10 1_555 1_555
H20 C10 1_555 1_555
C11 C8 1_555 1_555
H21 C11 1_555 1_555
H22 C11 1_555 1_555
C12 C11 1_555 1_555
H23 C12 1_555 1_555
H24 C12 1_555 1_555
H25 C12 1_555 1_555
C13 N1 1_555 1_555
C14 C13 1_555 1_555
H26 C14 1_555 1_555
H27 C14 1_555 1_555
H28 C14 1_555 1_555
H29 O4 1_555 1_555
O6 C16 1_555 1_555
C16 H33 1_555 1_555
H34 C16 1_555 1_555
H35 C16 1_555 1_555
H36 O6 1_555 1_555
O7 H37 1_555 1_555
H38 O7 1_555 1_555
O8 H39 1_555 1_555
H40 O8 1_555 1_555
N3 C6 1_555 1_555
N4 C6 1_555 1_555
C3 C4 1_555 1_555
C3 C7 1_555 1_555
C4 C5 1_555 1_555

#END
