
#######################################################################
#
#                 Cambridge Crystallographic Data Centre
#                                CCDC 
#
#######################################################################
#
# If this CIF has been generated from an entry in the Cambridge 
# Structural Database, then it will include bibliographic, chemical, 
# crystal, experimental, refinement or atomic coordinate data resulting 
# from the CCDC's data processing and validation procedures.
#
#######################################################################

data_ANUKEB
_chemical_formula_moiety         'C24 H47 I1 N2 O4 Si1'
_chemical_name_systematic        
't-Butyl (1R,2S,3S,4S)-(2-((S)-1-acetamido-2-ethylbutyl)-3-((t-butyldimethylsilyl)oxy)-4-iodocyclopentyl)carbamate'
_symmetry_cell_setting           monoclinic
_symmetry_space_group_name_H-M   'P 21'
_symmetry_Int_Tables_number      4
_space_group_name_Hall           'P 2yb'
loop_
_symmetry_equiv_pos_site_id
_symmetry_equiv_pos_as_xyz
1 x,y,z
2 -x,1/2+y,-z
_cell_length_a                   13.4461(8)
_cell_length_b                   22.1789(15)
_cell_length_c                   16.1509(7)
_cell_angle_alpha                90
_cell_angle_beta                 101.489(5)
_cell_angle_gamma                90
_cell_volume                     4720.01
_exptl_crystal_description       Columnar
_cell_formula_units_Z            6
loop_
_atom_site_label
_atom_site_type_symbol
_atom_site_fract_x
_atom_site_fract_y
_atom_site_fract_z
I1 I 0.12746(11) 0.79405(7) 0.37417(6)
Si1 Si 0.1771(3) 0.75059(16) 0.06496(19)
C1 C 0.175(2) 0.6817(7) 0.1296(13)
H1 H 0.1221 0.6849 0.1612
H2 H 0.2394 0.6774 0.1678
H3 H 0.1634 0.6471 0.0932
C2 C 0.2835(12) 0.7489(13) 0.0012(12)
H4 H 0.2822 0.7855 -0.0306
H5 H 0.2735 0.7151 -0.0368
H6 H 0.3480 0.7451 0.0391
C3 C 0.0576(9) 0.7569(6) -0.0087(7)
C4 C 0.0483(18) 0.7042(12) -0.0770(12)
H7 H -0.0153 0.7077 -0.1162
H8 H 0.0516 0.6659 -0.0489
H9 H 0.1030 0.7073 -0.1070
C5 C -0.0299(11) 0.7597(13) 0.0366(11)
H10 H -0.0924 0.7635 -0.0039
H11 H -0.0217 0.7939 0.0738
H12 H -0.0314 0.7235 0.0690
C6 C 0.059(2) 0.8176(10) -0.0593(15)
H13 H -0.0046 0.8220 -0.0988
H14 H 0.1134 0.8168 -0.0894
H15 H 0.0675 0.8509 -0.0207
O1 O 0.1934(5) 0.8098(3) 0.1271(3)
O2 O 0.4608(13) 1.0394(7) 0.2180(11)
O3 O 0.0884(9) 1.0272(5) 0.1993(6)
O4 O 0.1932(7) 1.0637(4) 0.3141(4)
N1 N 0.4015(6) 0.9413(4) 0.2345(5)
H16 H 0.4186 0.9505 0.2871
N2 N 0.1995(7) 0.9701(4) 0.2808(5)
H17 H 0.2413 0.9680 0.3285
C7 C 0.1136(10) 0.8191(8) 0.2448(7)
H18 H 0.0638 0.7924 0.2103
C8 C 0.2130(7) 0.8124(5) 0.2165(6)
H19 H 0.2516 0.7774 0.2423
C9 C 0.2657(6) 0.8721(5) 0.2465(5)
H20 H 0.2831 0.8703 0.3083
C10 C 0.1822(7) 0.9166(5) 0.2242(6)
H21 H 0.1810 0.9304 0.1664
C11 C 0.0815(10) 0.8835(10) 0.2248(10)
H22 H 0.0479 0.9000 0.2676
H23 H 0.0361 0.8864 0.1701
C12 C 0.3552(8) 0.8779(4) 0.2189(7)
H24 H 0.3340 0.8761 0.1572
C13 C 0.4209(8) 0.9860(6) 0.1812(7)
C14 C 0.4049(6) 0.9730(4) 0.1014(5)
H25 H 0.3815 0.9322 0.0931
H26 H 0.4669 0.9775 0.0810
H27 H 0.3545 0.9998 0.0708
C15 C 0.4452(9) 0.8336(5) 0.2376(8)
H28 H 0.4167 0.7940 0.2195
C16 C 0.4794(10) 0.8296(8) 0.3386(10)
H29 H 0.5469 0.8467 0.3550
H30 H 0.4337 0.8541 0.3639
C17 C 0.481(3) 0.7697(14) 0.3728(15)
H31 H 0.5018 0.7713 0.4331
H32 H 0.5272 0.7451 0.3496
H33 H 0.4138 0.7526 0.3585
C18 C 0.5389(12) 0.8391(11) 0.2018(14)
C19 C 0.5246(15) 0.8324(10) 0.1109(12)
H34 H 0.5876 0.8400 0.0934
H35 H 0.4744 0.8607 0.0838
H36 H 0.5023 0.7921 0.0953
C20 C 0.1515(10) 1.0199(7) 0.2581(7)
C21 C 0.1631(14) 1.1248(8) 0.2971(9)
C22 C 0.0599(19) 1.1370(10) 0.2995(15)
H37 H 0.0166 1.1147 0.2558
H38 H 0.0469 1.1794 0.2910
H39 H 0.0466 1.1253 0.3535
C23 C 0.1906(15) 1.1455(9) 0.2191(10)
H40 H 0.2616 1.1384 0.2217
H41 H 0.1768 1.1878 0.2122
H42 H 0.1517 1.1239 0.1722
C24 C 0.2332(14) 1.1589(7) 0.3702(10)
H43 H 0.3028 1.1498 0.3694
H44 H 0.2180 1.1465 0.4232
H45 H 0.2222 1.2015 0.3631
I2 I 0.64127(9) 0.69565(5) -0.05148(6)
Si2 Si 0.8322(2) 0.66604(16) 0.25775(18)
O5 O 0.7364(5) 0.6272(3) 0.1996(4)
O6 O 0.5987(7) 0.4403(4) 0.2317(5)
O7 O 0.3425(6) 0.5605(6) 0.0604(6)
O8 O 0.3450(6) 0.5071(5) -0.0579(6)
N3 N 0.6425(6) 0.4583(4) 0.1047(5)
H46 H 0.6351 0.4461 0.0532
N4 N 0.4780(7) 0.5616(6) 0.0145(6)
H47 H 0.4944 0.5672 -0.0338
C25 C 0.6369(8) 0.6725(5) 0.0779(6)
H48 H 0.6505 0.7085 0.1135
C26 C 0.7160(7) 0.6249(4) 0.1094(5)
H49 H 0.7776 0.6304 0.0865
C27 C 0.6622(6) 0.5653(4) 0.0810(5)
H50 H 0.6670 0.5587 0.0220
C28 C 0.5526(7) 0.5749(5) 0.0834(6)
H51 H 0.5369 0.5554 0.1337
C29 C 0.5387(9) 0.6439(6) 0.0897(9)
H52 H 0.4828 0.6576 0.0463
H53 H 0.5246 0.6545 0.1445
C30 C 0.9564(9) 0.6342(8) 0.2478(10)
H54 H 0.9605 0.5930 0.2662
H55 H 1.0098 0.6571 0.2821
H56 H 0.9633 0.6361 0.1898
C31 C 0.8268(10) 0.7485(5) 0.2211(7)
H57 H 0.7624 0.7656 0.2255
H58 H 0.8349 0.7503 0.1634
H59 H 0.8803 0.7709 0.2561
C32 C 0.8096(11) 0.6594(7) 0.3664(8)
C33 C 0.8006(14) 0.5929(6) 0.3911(8)
H60 H 0.7887 0.5906 0.4477
H61 H 0.8624 0.5721 0.3881
H62 H 0.7451 0.5744 0.3529
C34 C 0.9023(13) 0.6892(9) 0.4296(8)
H63 H 0.8908 0.6867 0.4863
H64 H 0.9083 0.7308 0.4147
H65 H 0.9637 0.6682 0.4259
C35 C 0.7067(11) 0.6904(8) 0.3709(10)
H66 H 0.6948 0.6877 0.4274
H67 H 0.6526 0.6706 0.3328
H68 H 0.7092 0.7321 0.3552
C36 C 0.7069(7) 0.5102(4) 0.1313(6)
H69 H 0.7049 0.5179 0.1908
C37 C 0.5929(10) 0.4279(5) 0.1584(9)
C38 C 0.5258(13) 0.3763(6) 0.1131(10)
H70 H 0.4921 0.3564 0.1526
H71 H 0.5675 0.3478 0.0910
H72 H 0.4761 0.3927 0.0677
C39 C 0.8212(8) 0.4971(5) 0.1263(7)
H73 H 0.8595 0.5335 0.1472
C40 C 0.8351(9) 0.4884(7) 0.0369(6)
H74 H 0.8148 0.4477 0.0190
H75 H 0.7909 0.5161 0.0002
C41 C 0.9382(14) 0.4980(15) 0.0272(12)
H76 H 0.9431 0.4908 -0.0304
H77 H 0.9825 0.4709 0.0636
H78 H 0.9576 0.5389 0.0421
C42 C 0.8632(11) 0.4478(9) 0.1848(9)
H79 H 0.8364 0.4106 0.1574
H80 H 0.9357 0.4473 0.1863
C43 C 0.852(2) 0.4432(16) 0.2681(13)
H81 H 0.8850 0.4072 0.2928
H82 H 0.7811 0.4414 0.2699
H83 H 0.8820 0.4777 0.2992
C44 C 0.3873(9) 0.5419(7) 0.0114(8)
C45 C 0.2351(11) 0.4942(10) -0.0739(11)
C46 C 0.2119(16) 0.4562(12) -0.0045(16)
H84 H 0.2177 0.4800 0.0458
H85 H 0.2590 0.4232 0.0058
H86 H 0.1441 0.4408 -0.0203
C47 C 0.2198(13) 0.4562(12) -0.1499(13)
H87 H 0.2333 0.4793 -0.1967
H88 H 0.1510 0.4420 -0.1625
H89 H 0.2652 0.4223 -0.1401
C48 C 0.1782(13) 0.5493(12) -0.0838(16)
H90 H 0.1965 0.5727 -0.1285
H91 H 0.1930 0.5719 -0.0321
H92 H 0.1070 0.5403 -0.0974
I3 I 0.74429(12) 0.84574(10) 0.79187(9)
Si3 Si 0.8162(6) 0.9507(4) 0.5213(5)
C49 C 0.8546(17) 1.0232(12) 0.5745(19)
H93 H 0.8006 1.0520 0.5594
H94 H 0.9144 1.0380 0.5572
H95 H 0.8686 1.0174 0.6346
C50 C 0.9369(12) 0.8922(14) 0.5565(14)
H96 H 0.9201 0.8537 0.5303
H97 H 0.9512 0.8876 0.6168
H98 H 0.9956 0.9082 0.5387
C51 C 0.8169(15) 0.9517(11) 0.4132(12)
C52 C 0.7193(18) 0.9964(12) 0.3859(15)
H99 H 0.7060 1.0023 0.3258
H100 H 0.7335 1.0345 0.4138
H101 H 0.6609 0.9785 0.4020
C53 C 0.9220(16) 0.9718(12) 0.3996(15)
H102 H 0.9220 0.9730 0.3402
H103 H 0.9725 0.9437 0.4267
H104 H 0.9371 1.0112 0.4234
C54 C 0.7977(18) 0.8841(11) 0.3830(15)
H105 H 0.7952 0.8817 0.3233
H106 H 0.7344 0.8704 0.3952
H107 H 0.8519 0.8592 0.4123
O9 O 0.7122(5) 0.9237(4) 0.5454(5)
O10 O 0.3659(6) 0.9536(4) 0.4318(4)
O11 O 0.4178(10) 0.7567(5) 0.5820(8)
O12 O 0.3462(9) 0.7857(5) 0.6884(6)
N5 N 0.4172(6) 0.9670(4) 0.5717(5)
H108 H 0.3977 0.9700 0.6192
N6 N 0.4661(8) 0.8407(5) 0.6546(6)
H109 H 0.4593 0.8625 0.6972
C55 C 0.7206(13) 0.8509(8) 0.6536(10)
H110 H 0.7821 0.8381 0.6345
C56 C 0.6951(8) 0.9188(7) 0.6277(7)
H111 H 0.7347 0.9477 0.6668
C57 C 0.5839(7) 0.9216(5) 0.6274(5)
H112 H 0.5764 0.9282 0.6859
C58 C 0.5410(8) 0.8574(5) 0.6009(7)
H113 H 0.5057 0.8588 0.5417
C59 C 0.6321(11) 0.8175(7) 0.6079(12)
H114 H 0.6225 0.7809 0.6382
H115 H 0.6423 0.8065 0.5520
C60 C 0.5237(8) 0.9731(4) 0.5722(5)
H116 H 0.5320 0.9660 0.5141
C61 C 0.3473(8) 0.9572(4) 0.5029(6)
C62 C 0.2402(9) 0.9455(7) 0.5173(8)
H117 H 0.1953 0.9387 0.4640
H118 H 0.2173 0.9798 0.5446
H119 H 0.2406 0.9105 0.5525
C63 C 0.5667(10) 1.0348(5) 0.5965(7)
H120 H 0.6378 1.0371 0.5909
C64 C 0.5549(11) 1.0545(6) 0.6886(7)
H121 H 0.4878 1.0715 0.6858
H122 H 0.5610 1.0193 0.7248
C65 C 0.6303(18) 1.0982(12) 0.7248(12)
H123 H 0.6221 1.1081 0.7809
H124 H 0.6223 1.1340 0.6906
H125 H 0.6968 1.0817 0.7270
C66 C 0.5002(14) 1.0825(7) 0.5373(10)
H126 H 0.4313 1.0673 0.5227
H127 H 0.4984 1.1194 0.5694
C67 C 0.531(3) 1.097(2) 0.464(2)
H128 H 0.4880 1.1273 0.4345
H129 H 0.5282 1.0613 0.4295
H130 H 0.5999 1.1112 0.4774
C68 C 0.4112(12) 0.7920(8) 0.6350(9)
C69 C 0.2816(13) 0.7331(8) 0.6857(10)
C70 C 0.214(2) 0.7322(15) 0.6042(15)
H131 H 0.1761 0.7691 0.5961
H132 H 0.1682 0.6987 0.6016
H133 H 0.2529 0.7281 0.5607
C71 C 0.351(2) 0.6823(10) 0.7204(16)
H134 H 0.3905 0.6936 0.7746
H135 H 0.3961 0.6738 0.6825
H136 H 0.3120 0.6471 0.7265
C72 C 0.225(3) 0.7480(12) 0.7510(17)
H137 H 0.1771 0.7795 0.7310
H138 H 0.2708 0.7613 0.8009
H139 H 0.1889 0.7129 0.7640
H140? H 0.4714 1.0626 0.1812
H141? H 0.6023 0.8464 0.2356
loop_
_geom_bond_atom_site_label_1
_geom_bond_atom_site_label_2
_geom_bond_site_symmetry_1
_geom_bond_site_symmetry_2
I1 C7 1_555 1_555
Si1 C1 1_555 1_555
C1 H1 1_555 1_555
H2 C1 1_555 1_555
H3 C1 1_555 1_555
C2 Si1 1_555 1_555
H4 C2 1_555 1_555
H5 C2 1_555 1_555
H6 C2 1_555 1_555
C3 Si1 1_555 1_555
C4 C3 1_555 1_555
H7 C4 1_555 1_555
H8 C4 1_555 1_555
H9 C4 1_555 1_555
C5 C3 1_555 1_555
H10 C5 1_555 1_555
H11 C5 1_555 1_555
H12 C5 1_555 1_555
C6 C3 1_555 1_555
H13 C6 1_555 1_555
H14 C6 1_555 1_555
H15 C6 1_555 1_555
O1 Si1 1_555 1_555
O2 C13 1_555 1_555
O3 C20 1_555 1_555
O4 C20 1_555 1_555
N1 H16 1_555 1_555
N2 H17 1_555 1_555
C7 H18 1_555 1_555
C8 O1 1_555 1_555
H19 C8 1_555 1_555
C9 C8 1_555 1_555
H20 C9 1_555 1_555
C10 N2 1_555 1_555
H21 C10 1_555 1_555
C11 C7 1_555 1_555
H22 C11 1_555 1_555
H23 C11 1_555 1_555
C12 N1 1_555 1_555
H24 C12 1_555 1_555
C13 N1 1_555 1_555
C14 C13 1_555 1_555
H25 C14 1_555 1_555
H26 C14 1_555 1_555
H27 C14 1_555 1_555
C15 C12 1_555 1_555
H28 C15 1_555 1_555
C16 C15 1_555 1_555
H29 C16 1_555 1_555
H30 C16 1_555 1_555
C17 C16 1_555 1_555
H31 C17 1_555 1_555
H32 C17 1_555 1_555
H33 C17 1_555 1_555
C18 C15 1_555 1_555
C19 C18 1_555 1_555
H34 C19 1_555 1_555
H35 C19 1_555 1_555
H36 C19 1_555 1_555
C20 N2 1_555 1_555
C21 O4 1_555 1_555
C22 C21 1_555 1_555
H37 C22 1_555 1_555
H38 C22 1_555 1_555
H39 C22 1_555 1_555
C23 C21 1_555 1_555
H40 C23 1_555 1_555
H41 C23 1_555 1_555
H42 C23 1_555 1_555
C24 C21 1_555 1_555
H43 C24 1_555 1_555
H44 C24 1_555 1_555
H45 C24 1_555 1_555
I2 C25 1_555 1_555
Si2 O5 1_555 1_555
O5 C26 1_555 1_555
O6 C37 1_555 1_555
O7 C44 1_555 1_555
O8 C44 1_555 1_555
N3 H46 1_555 1_555
N4 H47 1_555 1_555
C25 H48 1_555 1_555
C26 C25 1_555 1_555
H49 C26 1_555 1_555
C27 C26 1_555 1_555
H50 C27 1_555 1_555
C28 N4 1_555 1_555
H51 C28 1_555 1_555
C29 C25 1_555 1_555
H52 C29 1_555 1_555
H53 C29 1_555 1_555
C30 Si2 1_555 1_555
H54 C30 1_555 1_555
H55 C30 1_555 1_555
H56 C30 1_555 1_555
C31 Si2 1_555 1_555
H57 C31 1_555 1_555
H58 C31 1_555 1_555
H59 C31 1_555 1_555
C32 Si2 1_555 1_555
C33 C32 1_555 1_555
H60 C33 1_555 1_555
H61 C33 1_555 1_555
H62 C33 1_555 1_555
C34 C32 1_555 1_555
H63 C34 1_555 1_555
H64 C34 1_555 1_555
H65 C34 1_555 1_555
C35 C32 1_555 1_555
H66 C35 1_555 1_555
H67 C35 1_555 1_555
H68 C35 1_555 1_555
C36 N3 1_555 1_555
H69 C36 1_555 1_555
C37 N3 1_555 1_555
C38 C37 1_555 1_555
H70 C38 1_555 1_555
H71 C38 1_555 1_555
H72 C38 1_555 1_555
C39 C36 1_555 1_555
H73 C39 1_555 1_555
C40 C39 1_555 1_555
H74 C40 1_555 1_555
H75 C40 1_555 1_555
C41 C40 1_555 1_555
H76 C41 1_555 1_555
H77 C41 1_555 1_555
H78 C41 1_555 1_555
C42 C39 1_555 1_555
H79 C42 1_555 1_555
H80 C42 1_555 1_555
C43 C42 1_555 1_555
H81 C43 1_555 1_555
H82 C43 1_555 1_555
H83 C43 1_555 1_555
C44 N4 1_555 1_555
C45 O8 1_555 1_555
C46 C45 1_555 1_555
H84 C46 1_555 1_555
H85 C46 1_555 1_555
H86 C46 1_555 1_555
C47 C45 1_555 1_555
H87 C47 1_555 1_555
H88 C47 1_555 1_555
H89 C47 1_555 1_555
C48 C45 1_555 1_555
H90 C48 1_555 1_555
H91 C48 1_555 1_555
H92 C48 1_555 1_555
I3 C55 1_555 1_555
Si3 C49 1_555 1_555
C49 H93 1_555 1_555
H94 C49 1_555 1_555
H95 C49 1_555 1_555
C50 Si3 1_555 1_555
H96 C50 1_555 1_555
H97 C50 1_555 1_555
H98 C50 1_555 1_555
C51 Si3 1_555 1_555
C52 C51 1_555 1_555
H99 C52 1_555 1_555
H100 C52 1_555 1_555
H101 C52 1_555 1_555
C53 C51 1_555 1_555
H102 C53 1_555 1_555
H103 C53 1_555 1_555
H104 C53 1_555 1_555
C54 C51 1_555 1_555
H105 C54 1_555 1_555
H106 C54 1_555 1_555
H107 C54 1_555 1_555
O9 Si3 1_555 1_555
O10 C61 1_555 1_555
O11 C68 1_555 1_555
O12 C68 1_555 1_555
N5 H108 1_555 1_555
N6 H109 1_555 1_555
C55 H110 1_555 1_555
C56 O9 1_555 1_555
H111 C56 1_555 1_555
C57 C56 1_555 1_555
H112 C57 1_555 1_555
C58 N6 1_555 1_555
H113 C58 1_555 1_555
C59 C55 1_555 1_555
H114 C59 1_555 1_555
H115 C59 1_555 1_555
C60 N5 1_555 1_555
H116 C60 1_555 1_555
C61 N5 1_555 1_555
C62 C61 1_555 1_555
H117 C62 1_555 1_555
H118 C62 1_555 1_555
H119 C62 1_555 1_555
C63 C60 1_555 1_555
H120 C63 1_555 1_555
C64 C63 1_555 1_555
H121 C64 1_555 1_555
H122 C64 1_555 1_555
C65 C64 1_555 1_555
H123 C65 1_555 1_555
H124 C65 1_555 1_555
H125 C65 1_555 1_555
C66 C63 1_555 1_555
H126 C66 1_555 1_555
H127 C66 1_555 1_555
C67 C66 1_555 1_555
H128 C67 1_555 1_555
H129 C67 1_555 1_555
H130 C67 1_555 1_555
C68 N6 1_555 1_555
C69 O12 1_555 1_555
C70 C69 1_555 1_555
H131 C70 1_555 1_555
H132 C70 1_555 1_555
H133 C70 1_555 1_555
C71 C69 1_555 1_555
H134 C71 1_555 1_555
H135 C71 1_555 1_555
H136 C71 1_555 1_555
C72 C69 1_555 1_555
H137 C72 1_555 1_555
H138 C72 1_555 1_555
H139 C72 1_555 1_555
C7 C8 1_555 1_555
C9 C10 1_555 1_555
C9 C12 1_555 1_555
C10 C11 1_555 1_555
C27 C28 1_555 1_555
C27 C36 1_555 1_555
C28 C29 1_555 1_555
C55 C56 1_555 1_555
C57 C58 1_555 1_555
C57 C60 1_555 1_555
C58 C59 1_555 1_555

#END
