
#######################################################################
#
#                 Cambridge Crystallographic Data Centre
#                                CCDC 
#
#######################################################################
#
# If this CIF has been generated from an entry in the Cambridge 
# Structural Database, then it will include bibliographic, chemical, 
# crystal, experimental, refinement or atomic coordinate data resulting 
# from the CCDC's data processing and validation procedures.
#
#######################################################################

data_ANUKOL
_chemical_formula_moiety         'C8 H20 N1 1+,C24 H51 N7 S3,Cl1 1-'
_chemical_name_systematic        
"Tetraethylammonium 1,1',1''-(nitrilotriethane-2,1-diyl)tris(3-(2-methylbutan-2-yl)(thiourea)) chloride"
_symmetry_cell_setting           monoclinic
_symmetry_space_group_name_H-M   'P 21/c'
_symmetry_Int_Tables_number      14
_space_group_name_Hall           '-P 2ybc'
loop_
_symmetry_equiv_pos_site_id
_symmetry_equiv_pos_as_xyz
1 x,y,z
2 -x,1/2+y,1/2-z
3 -x,-y,-z
4 x,1/2-y,1/2+z
_cell_length_a                   10.6344(3)
_cell_length_b                   35.5597(7)
_cell_length_c                   10.6467(3)
_cell_angle_alpha                90
_cell_angle_beta                 106.039(3)
_cell_angle_gamma                90
_cell_volume                     3869.39
_exptl_crystal_colour            colorless
_exptl_crystal_description       block
_cell_formula_units_Z            4
loop_
_atom_site_label
_atom_site_type_symbol
_atom_site_fract_x
_atom_site_fract_y
_atom_site_fract_z
S1 S 0.25938(4) 0.68818(2) 0.81779(4)
S2 S 0.96006(4) 0.56681(2) 0.96081(4)
S3 S 0.86657(4) 0.68040(2) 0.29817(5)
N1 N 0.73079(12) 0.69240(3) 0.73900(13)
N2 N 0.46202(13) 0.67697(4) 0.72620(15)
N3 N 0.30894(12) 0.63228(3) 0.66831(13)
N4 N 0.80057(15) 0.61615(4) 0.81519(15)
N5 N 0.75115(13) 0.55627(3) 0.75611(14)
N6 N 0.74713(15) 0.67270(4) 0.48255(15)
N7 N 0.73657(13) 0.62156(4) 0.35862(13)
C1 C 0.6315(2) 0.72250(5) 0.7272(2)
H1 H 0.5960 0.7289 0.6356
H2 H 0.6740 0.7448 0.7722
C2 C 0.52090(16) 0.71160(4) 0.7826(2)
H3 H 0.5537 0.7088 0.8766
H4 H 0.4555 0.7314 0.7649
C3 C 0.34652(14) 0.66403(4) 0.73456(15)
C4 C 0.20856(15) 0.60490(4) 0.67904(15)
C5 C 0.21906(16) 0.57335(4) 0.58629(17)
H5 H 0.2003 0.5830 0.4989
H6 H 0.1574 0.5539 0.5897
H7 H 0.3061 0.5632 0.6117
C6 C 0.07252(16) 0.62172(5) 0.63385(19)
H8 H 0.0655 0.6422 0.6902
H9 H 0.0089 0.6028 0.6368
H10 H 0.0570 0.6307 0.5459
C7 C 0.23601(17) 0.59029(4) 0.81848(17)
H11 H 0.2119 0.6096 0.8718
H12 H 0.1803 0.5687 0.8185
C8 C 0.3757(2) 0.57906(5) 0.88082(19)
H13 H 0.4026 0.5610 0.8263
H14 H 0.3829 0.5681 0.9649
H15 H 0.4308 0.6009 0.8910
C9 C 0.7807(2) 0.68141(5) 0.8758(2)
H16 H 0.7080 0.6755 0.9108
H17 H 0.8286 0.7023 0.9256
C10 C 0.87217(18) 0.64678(4) 0.89052(18)
H18 H 0.9474 0.6529 0.8597
H19 H 0.9032 0.6396 0.9818
C11 C 0.83172(15) 0.57961(4) 0.83848(15)
C12 C 0.74414(16) 0.51494(4) 0.75777(16)
C13 C 0.71468(18) 0.50155(4) 0.88183(18)
H20 H 0.7864 0.5079 0.9559
H21 H 0.7025 0.4748 0.8781
H22 H 0.6365 0.5135 0.8901
C14 C 0.63044(16) 0.50488(4) 0.64149(18)
H23 H 0.5519 0.5164 0.6511
H24 H 0.6197 0.4781 0.6369
H25 H 0.6476 0.5138 0.5628
C15 C 0.86988(16) 0.49660(4) 0.74522(16)
H26 H 0.9377 0.5003 0.8265
H27 H 0.8552 0.4698 0.7334
C16 C 0.91873(18) 0.51124(5) 0.63491(18)
H28 H 0.8540 0.5068 0.5534
H29 H 0.9984 0.4985 0.6348
H30 H 0.9350 0.5378 0.6460
C17 C 0.8337(2) 0.70645(6) 0.6865(2)
H31 H 0.9091 0.6899 0.7133
H32 H 0.8602 0.7312 0.7224
C18 C 0.79060(19) 0.70891(5) 0.53805(18)
H33 H 0.7200 0.7270 0.5108
H34 H 0.8631 0.7175 0.5067
C19 C 0.78082(15) 0.65644(4) 0.38331(15)
C20 C 0.75756(15) 0.59329(4) 0.26558(15)
C21 C 0.90214(16) 0.58496(5) 0.29078(17)
H35 H 0.9476 0.6076 0.2813
H36 H 0.9143 0.5666 0.2291
H37 H 0.9362 0.5754 0.3779
C22 C 0.69714(17) 0.60603(5) 0.12614(16)
H38 H 0.6042 0.6084 0.1106
H39 H 0.7156 0.5879 0.0670
H40 H 0.7334 0.6299 0.1125
C23 C 0.68575(18) 0.55877(4) 0.29599(17)
H41 H 0.7255 0.5516 0.3861
H42 H 0.5959 0.5658 0.2886
C24 C 0.68459(19) 0.52474(5) 0.2105(2)
H43 H 0.6378 0.5306 0.1219
H44 H 0.6424 0.5042 0.2410
H45 H 0.7729 0.5178 0.2144
H46 H 0.5040(19) 0.6632(5) 0.6885(19)
H47 H 0.3669(16) 0.6235(4) 0.6355(16)
H48 H 0.740(2) 0.6216(5) 0.755(2)
H49 H 0.6916(17) 0.5662(5) 0.7003(17)
H50 H 0.7020(19) 0.6608(5) 0.5202(18)
H51 H 0.6934(18) 0.6143(5) 0.4058(18)
N8 N 0.27297(12) 0.67953(3) 0.23387(12)
C28 C 0.42053(14) 0.68093(4) 0.27335(16)
H64 H 0.4488 0.7024 0.3305
H65 H 0.4537 0.6585 0.3232
C29 C 0.48067(16) 0.68377(5) 0.16132(18)
H66 H 0.4517 0.6630 0.1027
H67 H 0.5743 0.6831 0.1943
H68 H 0.4545 0.7070 0.1155
C30 C 0.22258(15) 0.64612(4) 0.14689(15)
H69 H 0.1284 0.6448 0.1315
H70 H 0.2398 0.6503 0.0632
C31 C 0.28030(18) 0.60884(4) 0.19932(18)
H71 H 0.2387 0.5892 0.1407
H72 H 0.2667 0.6046 0.2837
H73 H 0.3724 0.6089 0.2071
C32 C 0.22173(14) 0.71486(4) 0.15936(15)
H74 H 0.2623 0.7363 0.2112
H75 H 0.2487 0.7151 0.0794
C33 C 0.07620(16) 0.71972(5) 0.12445(19)
H76 H 0.0522 0.7425 0.0750
H77 H 0.0486 0.7211 0.2029
H78 H 0.0346 0.6987 0.0731
C34 C 0.22771(16) 0.67599(4) 0.35569(15)
H79 H 0.1351 0.6700 0.3301
H80 H 0.2732 0.6550 0.4067
C35 C 0.2488(2) 0.71028(5) 0.44129(17)
H81 H 0.2029 0.7312 0.3925
H82 H 0.3406 0.7159 0.4705
H83 H 0.2163 0.7057 0.5155
Cl1 Cl 0.54126(3) 0.61078(2) 0.54367(3)
C25? C 0.6808(7) 0.7024(2) 0.8426(8)
H52? H 0.7260 0.7245 0.8866
H53? H 0.6935 0.6821 0.9054
H54? H 0.4838 0.7197 0.8517
H55? H 0.5070 0.7312 0.7168
C26? C 0.8727(6) 0.68084(18) 0.7911(7)
H56? H 0.9252 0.7016 0.8362
H57? H 0.9075 0.6726 0.7205
H58? H 0.9611 0.6390 0.9337
H59? H 0.8306 0.6546 0.9566
C27? C 0.7185(8) 0.72029(18) 0.6392(8)
H60? H 0.7538 0.7439 0.6793
H61? H 0.6266 0.7241 0.5952
H62? H 0.7746 0.7276 0.4691
H63? H 0.8840 0.7081 0.5797
loop_
_geom_bond_atom_site_label_1
_geom_bond_atom_site_label_2
_geom_bond_site_symmetry_1
_geom_bond_site_symmetry_2
S1 C3 1_555 1_555
S2 C11 1_555 1_555
S3 C19 1_555 1_555
N1 C1 1_555 1_555
N2 C2 1_555 1_555
N3 C3 1_555 1_555
N4 C10 1_555 1_555
N5 C11 1_555 1_555
N6 C18 1_555 1_555
N7 C19 1_555 1_555
C1 H1 1_555 1_555
H2 C1 1_555 1_555
C2 C1 1_555 1_555
H3 C2 1_555 1_555
H4 C2 1_555 1_555
C3 N2 1_555 1_555
C4 N3 1_555 1_555
C5 C4 1_555 1_555
H5 C5 1_555 1_555
H6 C5 1_555 1_555
H7 C5 1_555 1_555
C6 C4 1_555 1_555
H8 C6 1_555 1_555
H9 C6 1_555 1_555
H10 C6 1_555 1_555
C7 C4 1_555 1_555
H11 C7 1_555 1_555
H12 C7 1_555 1_555
C8 C7 1_555 1_555
H13 C8 1_555 1_555
H14 C8 1_555 1_555
H15 C8 1_555 1_555
C9 N1 1_555 1_555
H16 C9 1_555 1_555
H17 C9 1_555 1_555
C10 C9 1_555 1_555
H18 C10 1_555 1_555
H19 C10 1_555 1_555
C11 N4 1_555 1_555
C12 N5 1_555 1_555
C13 C12 1_555 1_555
H20 C13 1_555 1_555
H21 C13 1_555 1_555
H22 C13 1_555 1_555
C14 C12 1_555 1_555
H23 C14 1_555 1_555
H24 C14 1_555 1_555
H25 C14 1_555 1_555
C15 C12 1_555 1_555
H26 C15 1_555 1_555
H27 C15 1_555 1_555
C16 C15 1_555 1_555
H28 C16 1_555 1_555
H29 C16 1_555 1_555
H30 C16 1_555 1_555
C17 N1 1_555 1_555
H31 C17 1_555 1_555
H32 C17 1_555 1_555
C18 C17 1_555 1_555
H33 C18 1_555 1_555
H34 C18 1_555 1_555
C19 N6 1_555 1_555
C20 N7 1_555 1_555
C21 C20 1_555 1_555
H35 C21 1_555 1_555
H36 C21 1_555 1_555
H37 C21 1_555 1_555
C22 C20 1_555 1_555
H38 C22 1_555 1_555
H39 C22 1_555 1_555
H40 C22 1_555 1_555
C23 C20 1_555 1_555
H41 C23 1_555 1_555
H42 C23 1_555 1_555
C24 C23 1_555 1_555
H43 C24 1_555 1_555
H44 C24 1_555 1_555
H45 C24 1_555 1_555
H46 N2 1_555 1_555
H47 N3 1_555 1_555
H48 N4 1_555 1_555
H49 N5 1_555 1_555
H50 N6 1_555 1_555
H51 N7 1_555 1_555
N8 C28 1_555 1_555
C28 H64 1_555 1_555
H65 C28 1_555 1_555
C29 C28 1_555 1_555
H66 C29 1_555 1_555
H67 C29 1_555 1_555
H68 C29 1_555 1_555
C30 N8 1_555 1_555
H69 C30 1_555 1_555
H70 C30 1_555 1_555
C31 C30 1_555 1_555
H71 C31 1_555 1_555
H72 C31 1_555 1_555
H73 C31 1_555 1_555
C32 N8 1_555 1_555
H74 C32 1_555 1_555
H75 C32 1_555 1_555
C33 C32 1_555 1_555
H76 C33 1_555 1_555
H77 C33 1_555 1_555
H78 C33 1_555 1_555
C34 N8 1_555 1_555
H79 C34 1_555 1_555
H80 C34 1_555 1_555
C35 C34 1_555 1_555
H81 C35 1_555 1_555
H82 C35 1_555 1_555
H83 C35 1_555 1_555

#END
