
#######################################################################
#
#                 Cambridge Crystallographic Data Centre
#                                CCDC 
#
#######################################################################
#
# If this CIF has been generated from an entry in the Cambridge 
# Structural Database, then it will include bibliographic, chemical, 
# crystal, experimental, refinement or atomic coordinate data resulting 
# from the CCDC's data processing and validation procedures.
#
#######################################################################

data_ANUSEJ
_chemical_formula_moiety         'C15 H21 N1 O2'
_chemical_name_systematic        
4-(2-hydroxy-2-methylpropyl)-2,4-dimethyl-3,4-dihydroisoquinolin-1(2H)-one
_symmetry_cell_setting           monoclinic
_symmetry_space_group_name_H-M   'P 21/c'
_symmetry_Int_Tables_number      14
_space_group_name_Hall           '-P 2ybc'
loop_
_symmetry_equiv_pos_site_id
_symmetry_equiv_pos_as_xyz
1 x,y,z
2 -x,1/2+y,1/2-z
3 -x,-y,-z
4 x,1/2-y,1/2+z
_cell_length_a                   8.5353(12)
_cell_length_b                   10.6984(15)
_cell_length_c                   15.609(2)
_cell_angle_alpha                90
_cell_angle_beta                 104.429(2)
_cell_angle_gamma                90
_cell_volume                     1380.36
_exptl_crystal_description       block
_cell_formula_units_Z            4
loop_
_atom_site_label
_atom_site_type_symbol
_atom_site_fract_x
_atom_site_fract_y
_atom_site_fract_z
C1 C 0.3896(2) 0.64454(15) 0.04681(10)
H1 H 0.4622 0.6256 0.0131
C2 C 0.2681(2) 0.56178(15) 0.04992(11)
H2 H 0.2597 0.4863 0.0195
C3 C 0.1595(2) 0.59133(15) 0.09816(12)
H3 H 0.0759 0.5362 0.0997
C4 C 0.17313(19) 0.70252(14) 0.14464(10)
H4 H 0.0978 0.7215 0.1767
C5 C 0.29758(15) 0.78655(12) 0.14437(8)
C6 C 0.40494(16) 0.75667(12) 0.09366(8)
C7 C 0.53715(16) 0.84383(14) 0.08604(9)
C8 C 0.49230(15) 0.94758(13) 0.21706(8)
H5 H 0.5034 1.0321 0.2402
H6 H 0.5507 0.8924 0.2634
C9 C 0.31340(15) 0.91155(12) 0.19302(8)
C10 C 0.69800(18) 1.02550(17) 0.14048(12)
H7 H 0.7921 1.0013 0.1853
H8 H 0.6677 1.1092 0.1517
H9 H 0.7217 1.0220 0.0835
C11 C 0.20428(14) 1.00390(11) 0.12805(8)
H10 H 0.2285 0.9922 0.0711
H11 H 0.0936 0.9762 0.1213
C12 C 0.20586(15) 1.14624(12) 0.14467(8)
C13 C 0.1806(2) 1.18408(14) 0.23427(11)
H12 H 0.2750 1.1628 0.2799
H13 H 0.0884 1.1407 0.2445
H14 H 0.1624 1.2726 0.2350
C14 C 0.07348(18) 1.20403(15) 0.07044(12)
H15 H 0.0761 1.2934 0.0764
H16 H -0.0303 1.1734 0.0742
H17 H 0.0917 1.1815 0.0142
C15 C 0.2646(2) 0.89756(15) 0.28109(10)
H18 H 0.1490 0.8923 0.2696
H19 H 0.3023 0.9687 0.3180
H20 H 0.3122 0.8229 0.3106
N1 N 0.56536(12) 0.94065(11) 0.14184(7)
O1 O 0.61528(15) 0.82776(13) 0.03001(8)
O2 O 0.35848(11) 1.19904(9) 0.14223(7)
H21 H 0.3724(19) 1.1886(14) 0.0887(11)
loop_
_geom_bond_atom_site_label_1
_geom_bond_atom_site_label_2
_geom_bond_site_symmetry_1
_geom_bond_site_symmetry_2
C1 H1 1_555 1_555
C2 C1 1_555 1_555
H2 C2 1_555 1_555
C3 C2 1_555 1_555
H3 C3 1_555 1_555
C4 C3 1_555 1_555
H4 C4 1_555 1_555
C5 C4 1_555 1_555
C6 C1 1_555 1_555
C7 C6 1_555 1_555
C8 H5 1_555 1_555
H6 C8 1_555 1_555
C9 C5 1_555 1_555
C10 H7 1_555 1_555
H8 C10 1_555 1_555
H9 C10 1_555 1_555
C11 C9 1_555 1_555
H10 C11 1_555 1_555
H11 C11 1_555 1_555
C12 C11 1_555 1_555
C13 C12 1_555 1_555
H12 C13 1_555 1_555
H13 C13 1_555 1_555
H14 C13 1_555 1_555
C14 C12 1_555 1_555
H15 C14 1_555 1_555
H16 C14 1_555 1_555
H17 C14 1_555 1_555
C15 C9 1_555 1_555
H18 C15 1_555 1_555
H19 C15 1_555 1_555
H20 C15 1_555 1_555
N1 C7 1_555 1_555
O1 C7 1_555 1_555
O2 C12 1_555 1_555
H21 O2 1_555 1_555
C5 C6 1_555 1_555
C8 C9 1_555 1_555
C8 N1 1_555 1_555
C10 N1 1_555 1_555

#END
