
#######################################################################
#
#                 Cambridge Crystallographic Data Centre
#                                CCDC 
#
#######################################################################
#
# If this CIF has been generated from an entry in the Cambridge 
# Structural Database, then it will include bibliographic, chemical, 
# crystal, experimental, refinement or atomic coordinate data resulting 
# from the CCDC's data processing and validation procedures.
#
#######################################################################

data_ANUSAF
_chemical_formula_moiety         'C14 H15 N1 O3'
_chemical_name_systematic        
1-acetyl-2-hydroxy-3-methyl-2,3,3a,8a-tetrahydroindeno[2,1-b]pyrrol-8(1H)-one
_symmetry_cell_setting           orthorhombic
_symmetry_space_group_name_H-M   'P 21 21 21'
_symmetry_Int_Tables_number      19
_space_group_name_Hall           'P 2ac 2ab'
loop_
_symmetry_equiv_pos_site_id
_symmetry_equiv_pos_as_xyz
1 x,y,z
2 1/2-x,-y,1/2+z
3 1/2+x,1/2-y,-z
4 -x,1/2+y,1/2-z
_cell_length_a                   5.04780(10)
_cell_length_b                   14.4096(3)
_cell_length_c                   16.6991(4)
_cell_angle_alpha                90
_cell_angle_beta                 90
_cell_angle_gamma                90
_cell_volume                     1214.64
_cell_formula_units_Z            4
loop_
_atom_site_label
_atom_site_type_symbol
_atom_site_fract_x
_atom_site_fract_y
_atom_site_fract_z
C1 C -0.0302(4) 0.35665(13) -0.04528(11)
C2 C 0.1097(4) 0.36776(11) 0.09570(11)
H1 H 0.0793 0.3009 0.1016
C3 C -0.0239(4) 0.42118(12) 0.16322(10)
H2 H -0.1942 0.3907 0.1732
C4 C -0.0879(4) 0.51849(11) 0.12689(10)
H3 H -0.2643 0.5388 0.1440
C5 C -0.0851(4) 0.50190(11) 0.03534(10)
H4 H -0.2542 0.5190 0.0106
C6 C 0.1457(4) 0.56121(11) 0.00298(11)
C7 C 0.2382(4) 0.62058(11) 0.06887(11)
C8 C 0.1113(4) 0.59572(12) 0.13940(10)
C9 C 0.1737(5) 0.64407(13) 0.20893(12)
H5 H 0.0918 0.6290 0.2571
C10 C 0.3588(5) 0.71475(14) 0.20581(13)
H6 H 0.4002 0.7470 0.2524
C11 C 0.4846(5) 0.73876(13) 0.13449(14)
H7 H 0.6077 0.7868 0.1337
C12 C 0.4265(5) 0.69140(13) 0.06535(13)
H8 H 0.5105 0.7061 0.0174
C13 C -0.1925(5) 0.39757(16) -0.11196(12)
H9 H -0.1875 0.3570 -0.1575
H10 H -0.1213 0.4570 -0.1265
H11 H -0.3725 0.4049 -0.0945
C14 C 0.1267(5) 0.41979(15) 0.24173(12)
H12 H 0.1503 0.3567 0.2589
H13 H 0.0284 0.4533 0.2815
H14 H 0.2967 0.4484 0.2345
N1 N -0.0265(3) 0.40330(9) 0.02498(9)
O1 O 0.3820(3) 0.38719(8) 0.09315(8)
H15 H 0.4620 0.3416 0.0765
O2 O 0.0878(3) 0.28229(9) -0.05283(8)
O3 O 0.2344(4) 0.55697(10) -0.06411(8)
loop_
_geom_bond_atom_site_label_1
_geom_bond_atom_site_label_2
_geom_bond_site_symmetry_1
_geom_bond_site_symmetry_2
C1 C13 1_555 1_555
C2 H1 1_555 1_555
C3 C2 1_555 1_555
H2 C3 1_555 1_555
C4 C3 1_555 1_555
H3 C4 1_555 1_555
C5 C4 1_555 1_555
H4 C5 1_555 1_555
C6 C5 1_555 1_555
C7 C6 1_555 1_555
C8 C4 1_555 1_555
C9 C8 1_555 1_555
H5 C9 1_555 1_555
C10 C9 1_555 1_555
H6 C10 1_555 1_555
C11 C10 1_555 1_555
H7 C11 1_555 1_555
C12 C7 1_555 1_555
H8 C12 1_555 1_555
C13 H9 1_555 1_555
H10 C13 1_555 1_555
H11 C13 1_555 1_555
C14 C3 1_555 1_555
H12 C14 1_555 1_555
H13 C14 1_555 1_555
H14 C14 1_555 1_555
N1 C1 1_555 1_555
O1 C2 1_555 1_555
H15 O1 1_555 1_555
O2 C1 1_555 1_555
O3 C6 1_555 1_555
C2 N1 1_555 1_555
C5 N1 1_555 1_555
C7 C8 1_555 1_555
C11 C12 1_555 1_555

#END
