
#######################################################################
#
#                 Cambridge Crystallographic Data Centre
#                                CCDC 
#
#######################################################################
#
# If this CIF has been generated from an entry in the Cambridge 
# Structural Database, then it will include bibliographic, chemical, 
# crystal, experimental, refinement or atomic coordinate data resulting 
# from the CCDC's data processing and validation procedures.
#
#######################################################################

data_ANUVUC
_chemical_formula_moiety         'C15 H16 O4'
_chemical_name_systematic        'ethyl 5-(4-methoxyphenyl)-2-methyl-3-furoate'
_symmetry_cell_setting           monoclinic
_symmetry_space_group_name_H-M   'P 21/c'
_symmetry_Int_Tables_number      14
_space_group_name_Hall           '-P 2ybc'
loop_
_symmetry_equiv_pos_site_id
_symmetry_equiv_pos_as_xyz
1 x,y,z
2 -x,1/2+y,1/2-z
3 -x,-y,-z
4 x,1/2-y,1/2+z
_cell_length_a                   7.4665(8)
_cell_length_b                   21.583(2)
_cell_length_c                   8.4033(9)
_cell_angle_alpha                90
_cell_angle_beta                 107.586(2)
_cell_angle_gamma                90
_cell_volume                     1290.9
_exptl_crystal_colour            colorless
_exptl_crystal_description       block
_cell_formula_units_Z            4
loop_
_atom_site_label
_atom_site_type_symbol
_atom_site_fract_x
_atom_site_fract_y
_atom_site_fract_z
O1 O 0.24837(12) 0.57244(4) 0.82933(10)
O2 O 0.57978(13) 0.71425(4) 1.20902(11)
O3 O 0.55889(12) 0.61922(4) 1.31232(10)
O4 O -0.09362(12) 0.63317(4) 0.06496(10)
C1 C 0.28113(14) 0.62621(5) 0.75254(13)
C2 C 0.38701(15) 0.66531(5) 0.86965(13)
H1 H 0.4296 0.7054 0.8511
C3 C 0.42217(15) 0.63427(5) 1.02722(13)
C4 C 0.33562(16) 0.57786(5) 0.99641(14)
C5 C 0.3150(2) 0.52377(6) 1.09784(16)
H2 H 0.1839 0.5204 1.0975
H3 H 0.3964 0.5291 1.2127
H4 H 0.3509 0.4860 1.0504
C6 C 0.52815(15) 0.66074(5) 1.18925(13)
C7 C 0.66080(17) 0.63985(6) 1.47879(14)
H5 H 0.5932 0.6742 1.5138
H6 H 0.7879 0.6544 1.4831
C8 C 0.67309(19) 0.58425(6) 1.59022(15)
H7 H 0.5463 0.5716 1.5882
H8 H 0.7466 0.5949 1.7047
H9 H 0.7344 0.5501 1.5502
C9 C 0.19469(14) 0.62867(5) 0.57271(13)
C10 C 0.20308(15) 0.68189(5) 0.48160(14)
H10 H 0.2728 0.7166 0.5368
C11 C 0.11115(16) 0.68504(5) 0.31107(14)
H11 H 0.1186 0.7216 0.2506
C12 C 0.00798(15) 0.63430(5) 0.22919(14)
C13 C 0.00432(16) 0.58006(5) 0.31819(14)
H12 H -0.0620 0.5448 0.2624
C14 C 0.09684(16) 0.57744(5) 0.48713(14)
H13 H 0.0940 0.5402 0.5464
C15 C -0.1020(2) 0.68908(6) -0.02690(16)
H14 H -0.1452 0.7229 0.0302
H15 H -0.1898 0.6839 -0.1393
H16 H 0.0232 0.6989 -0.0348
loop_
_geom_bond_atom_site_label_1
_geom_bond_atom_site_label_2
_geom_bond_site_symmetry_1
_geom_bond_site_symmetry_2
O1 C1 1_555 1_555
O2 C6 1_555 1_555
O3 C6 1_555 1_555
O4 C12 1_555 1_555
C1 C2 1_555 1_555
C2 H1 1_555 1_555
C3 C2 1_555 1_555
C4 O1 1_555 1_555
C5 C4 1_555 1_555
H2 C5 1_555 1_555
H3 C5 1_555 1_555
H4 C5 1_555 1_555
C6 C3 1_555 1_555
C7 O3 1_555 1_555
H5 C7 1_555 1_555
H6 C7 1_555 1_555
C8 C7 1_555 1_555
H7 C8 1_555 1_555
H8 C8 1_555 1_555
H9 C8 1_555 1_555
C9 C1 1_555 1_555
C10 C9 1_555 1_555
H10 C10 1_555 1_555
C11 C10 1_555 1_555
H11 C11 1_555 1_555
C12 C11 1_555 1_555
C13 C12 1_555 1_555
H12 C13 1_555 1_555
C14 C9 1_555 1_555
H13 C14 1_555 1_555
C15 O4 1_555 1_555
H14 C15 1_555 1_555
H15 C15 1_555 1_555
H16 C15 1_555 1_555
C3 C4 1_555 1_555
C13 C14 1_555 1_555

#END
