
#######################################################################
#
#                 Cambridge Crystallographic Data Centre
#                                CCDC 
#
#######################################################################
#
# If this CIF has been generated from an entry in the Cambridge 
# Structural Database, then it will include bibliographic, chemical, 
# crystal, experimental, refinement or atomic coordinate data resulting 
# from the CCDC's data processing and validation procedures.
#
#######################################################################

data_ANUWEM
_chemical_formula_moiety         'C13 H18 N4 O3 S1'
_chemical_name_systematic        
'(Z)-2-Ethoxyethyl 2-cyano-3-(((4-methyl-1,2,3-thiadiazol-5-yl)methyl)amino)but-2-enoate'
_chemical_properties_biological  'tested for herbicidal activity'
_symmetry_cell_setting           triclinic
_symmetry_space_group_name_H-M   'P -1'
_symmetry_Int_Tables_number      2
_space_group_name_Hall           '-P 1'
loop_
_symmetry_equiv_pos_site_id
_symmetry_equiv_pos_as_xyz
1 x,y,z
2 -x,-y,-z
_cell_length_a                   5.9030(12)
_cell_length_b                   7.3409(15)
_cell_length_c                   19.045(4)
_cell_angle_alpha                80.15(3)
_cell_angle_beta                 85.61(3)
_cell_angle_gamma                67.30(3)
_cell_volume                     750.082
_chemical_melting_point          '60-61 deg.C'
_cell_formula_units_Z            2
_exptl_crystal_recrystallization_method 'ethyl acetate'
loop_
_atom_site_label
_atom_site_type_symbol
_atom_site_fract_x
_atom_site_fract_y
_atom_site_fract_z
S1 S 0.31295(7) 0.53006(6) 0.414361(19)
O1 O 0.5414(2) 0.38605(16) 0.18263(6)
O2 O 0.68056(19) 0.06465(15) 0.16501(5)
O3 O 0.9101(2) -0.16432(16) 0.04680(5)
N1 N 0.0063(3) 0.7552(2) 0.48867(7)
N2 N 0.2319(3) 0.6284(2) 0.49062(7)
N3 N 0.1453(2) 0.49644(18) 0.27126(6)
N4 N 0.3564(2) -0.18572(19) 0.24846(7)
C1 C -0.3713(4) 0.9223(3) 0.41660(10)
H1 H -0.4148 0.9439 0.3675
H2 H -0.3891 1.0470 0.4304
H3 H -0.4772 0.8678 0.4457
C2 C -0.1113(3) 0.7794(2) 0.42634(8)
C3 C 0.0324(3) 0.6625(2) 0.37847(8)
C4 C -0.0413(3) 0.6517(2) 0.30593(8)
H4 H -0.1920 0.6267 0.3105
H5 H -0.0746 0.7799 0.2759
C5 C 0.1564(3) 0.3110(2) 0.27490(7)
C6 C -0.0304(3) 0.2516(2) 0.32032(8)
H6 H -0.0258 0.2761 0.3680
H7 H 0.0060 0.1121 0.3209
H8 H -0.1910 0.3286 0.3011
C7 C 0.3385(3) 0.1740(2) 0.23781(7)
C8 C 0.3469(3) -0.0246(2) 0.24370(7)
C9 C 0.5237(3) 0.2236(2) 0.19316(8)
C10 C 0.8724(3) 0.0936(2) 0.11755(8)
H9 H 0.9713 0.1423 0.1418
H10 H 0.8004 0.1910 0.0760
C11 C 1.0291(3) -0.1044(2) 0.09538(8)
H11 H 1.1793 -0.0962 0.0734
H12 H 1.0737 -0.2055 0.1375
C12 C 0.7829(3) -0.2882(2) 0.07907(9)
H13 H 0.6607 -0.2207 0.1128
H14 H 0.8972 -0.4121 0.1043
C13 C 0.6610(3) -0.3302(3) 0.02057(10)
H15 H 0.5532 -0.2063 -0.0052
H16 H 0.5681 -0.4090 0.0410
H17 H 0.7841 -0.4021 -0.0113
H18 H 0.254(3) 0.529(2) 0.2457(9)
loop_
_geom_bond_atom_site_label_1
_geom_bond_atom_site_label_2
_geom_bond_site_symmetry_1
_geom_bond_site_symmetry_2
S1 N2 1_555 1_555
O1 C9 1_555 1_555
O2 C9 1_555 1_555
O3 C11 1_555 1_555
N1 N2 1_555 1_555
N3 C4 1_555 1_555
N4 C8 1_555 1_555
C1 H1 1_555 1_555
H2 C1 1_555 1_555
H3 C1 1_555 1_555
C2 N1 1_555 1_555
C3 S1 1_555 1_555
C4 C3 1_555 1_555
H4 C4 1_555 1_555
H5 C4 1_555 1_555
C5 N3 1_555 1_555
C6 C5 1_555 1_555
H6 C6 1_555 1_555
H7 C6 1_555 1_555
H8 C6 1_555 1_555
C7 C5 1_555 1_555
C8 C7 1_555 1_555
C9 C7 1_555 1_555
C10 O2 1_555 1_555
H9 C10 1_555 1_555
H10 C10 1_555 1_555
C11 C10 1_555 1_555
H11 C11 1_555 1_555
H12 C11 1_555 1_555
C12 O3 1_555 1_555
H13 C12 1_555 1_555
H14 C12 1_555 1_555
C13 C12 1_555 1_555
H15 C13 1_555 1_555
H16 C13 1_555 1_555
H17 C13 1_555 1_555
H18 N3 1_555 1_555
C1 C2 1_555 1_555
C2 C3 1_555 1_555

#END
