
#######################################################################
#
#                 Cambridge Crystallographic Data Centre
#                                CCDC 
#
#######################################################################
#
# If this CIF has been generated from an entry in the Cambridge 
# Structural Database, then it will include bibliographic, chemical, 
# crystal, experimental, refinement or atomic coordinate data resulting 
# from the CCDC's data processing and validation procedures.
#
#######################################################################

data_ANUXUD
_chemical_formula_moiety         'C25 H27 N1 O6'
_chemical_name_systematic        
'3,6,10a-Trimethyl-2-oxo-3,4,5,5a,6,7,9,10,10a,10b-decahydro-2H-1-oxabenzo[cd]cyclopenta[h]azulen-9-yl 4-nitrobenzoate'
_symmetry_cell_setting           monoclinic
_symmetry_space_group_name_H-M   'P 21'
_symmetry_Int_Tables_number      4
_space_group_name_Hall           'P 2yb'
loop_
_symmetry_equiv_pos_site_id
_symmetry_equiv_pos_as_xyz
1 x,y,z
2 -x,1/2+y,-z
_cell_length_a                   10.280(2)
_cell_length_b                   10.274(2)
_cell_length_c                   10.758(2)
_cell_angle_alpha                90
_cell_angle_beta                 96.23(3)
_cell_angle_gamma                90
_cell_volume                     1129.51
_cell_formula_units_Z            2
loop_
_atom_site_label
_atom_site_type_symbol
_atom_site_fract_x
_atom_site_fract_y
_atom_site_fract_z
C1 C 0.5092(2) 0.8152(2) 0.27554(17)
C2 C 0.4255(2) 0.8208(2) 0.38255(18)
H1 H 0.4744 0.7803 0.4583
C3 C 0.2889(2) 0.7592(2) 0.36000(18)
C4 C 0.2932(2) 0.6303(2) 0.29221(18)
C5 C 0.4073(2) 0.5398(2) 0.3129(2)
H2 H 0.3766 0.4485 0.3057
H3 H 0.4528 0.5526 0.3979
C6 C 0.5026(2) 0.5670(2) 0.2145(2)
H4 H 0.4491 0.5667 0.1311
C7 C 0.5739(2) 0.6981(2) 0.2261(2)
H5 H 0.6568 0.6837 0.2821
C8 C 0.6147(3) 0.7358(3) 0.0944(3)
H6 H 0.6699 0.6657 0.0651
H7 H 0.5350 0.7428 0.0342
C9 C 0.6873(4) 0.8602(3) 0.0961(3)
H8 H 0.7129 0.8767 0.0114
H9 H 0.7686 0.8516 0.1540
C10 C 0.6105(3) 0.9768(3) 0.1359(2)
H10 H 0.5488 1.0051 0.0625
C11 C 0.5312(2) 0.9368(2) 0.23849(19)
C12 C 0.4663(2) 1.0278(2) 0.3179(2)
C13 C 0.7062(3) 1.0881(3) 0.1704(3)
H11 H 0.7730 1.0594 0.2366
H12 H 0.6587 1.1626 0.2000
H13 H 0.7483 1.1137 0.0966
C14 C 0.1888(2) 0.6162(2) 0.2076(2)
H14 H 0.1705 0.5403 0.1583
C15 C 0.1044(2) 0.7351(2) 0.2003(2)
H15 H 0.0230 0.7208 0.2416
C16 C 0.1921(2) 0.8382(2) 0.2689(2)
H16 H 0.1401 0.8989 0.3152
H17 H 0.2394 0.8887 0.2095
C17 C -0.0199(2) 0.7123(2) 0.0015(2)
C18 C -0.0371(2) 0.7600(2) -0.1304(2)
C19 C 0.0455(2) 0.8512(2) -0.1737(2)
H18 H 0.1162 0.8850 -0.1189
C20 C 0.0260(2) 0.8939(3) -0.2968(2)
H19 H 0.0822 0.9569 -0.3275
C21 C -0.0772(2) 0.8422(3) -0.3730(2)
C22 C -0.1618(3) 0.7520(3) -0.3324(2)
H20 H -0.2328 0.7193 -0.3876
C23 C -0.1418(3) 0.7098(3) -0.2100(3)
H21 H -0.1986 0.6470 -0.1801
C24 C 0.5992(3) 0.4538(3) 0.2136(4)
H22 H 0.6517 0.4482 0.2951
H23 H 0.6570 0.4684 0.1482
H24 H 0.5509 0.3723 0.1968
C25 C 0.2338(3) 0.7397(3) 0.4866(2)
H25 H 0.2925 0.6829 0.5401
H26 H 0.1469 0.6996 0.4725
H27 H 0.2269 0.8243 0.5276
N1 N -0.0979(3) 0.8897(3) -0.5030(2)
O1 O 0.40858(16) 0.95859(17) 0.40533(14)
O2 O 0.46038(18) 1.14557(18) 0.31643(19)
O3 O 0.07398(15) 0.77802(16) 0.07068(14)
O4 O -0.08213(18) 0.62490(19) 0.04051(17)
O5 O -0.0298(2) 0.9735(3) -0.53730(19)
O6 O -0.1847(5) 0.8392(6) -0.5727(3)
loop_
_geom_bond_atom_site_label_1
_geom_bond_atom_site_label_2
_geom_bond_site_symmetry_1
_geom_bond_site_symmetry_2
C1 C2 1_555 1_555
C2 H1 1_555 1_555
C3 C2 1_555 1_555
C4 C3 1_555 1_555
C5 C4 1_555 1_555
H2 C5 1_555 1_555
H3 C5 1_555 1_555
C6 C5 1_555 1_555
H4 C6 1_555 1_555
C7 C1 1_555 1_555
H5 C7 1_555 1_555
C8 C7 1_555 1_555
H6 C8 1_555 1_555
H7 C8 1_555 1_555
C9 C8 1_555 1_555
H8 C9 1_555 1_555
H9 C9 1_555 1_555
C10 C9 1_555 1_555
H10 C10 1_555 1_555
C11 C1 1_555 1_555
C12 C11 1_555 1_555
C13 C10 1_555 1_555
H11 C13 1_555 1_555
H12 C13 1_555 1_555
H13 C13 1_555 1_555
C14 C4 1_555 1_555
H14 C14 1_555 1_555
C15 C14 1_555 1_555
H15 C15 1_555 1_555
C16 C3 1_555 1_555
H16 C16 1_555 1_555
H17 C16 1_555 1_555
C17 C18 1_555 1_555
C18 C19 1_555 1_555
C19 H18 1_555 1_555
C20 C19 1_555 1_555
H19 C20 1_555 1_555
C21 C20 1_555 1_555
C22 C21 1_555 1_555
H20 C22 1_555 1_555
C23 C18 1_555 1_555
H21 C23 1_555 1_555
C24 C6 1_555 1_555
H22 C24 1_555 1_555
H23 C24 1_555 1_555
H24 C24 1_555 1_555
C25 C3 1_555 1_555
H25 C25 1_555 1_555
H26 C25 1_555 1_555
H27 C25 1_555 1_555
N1 C21 1_555 1_555
O1 C2 1_555 1_555
O2 C12 1_555 1_555
O3 C15 1_555 1_555
O4 C17 1_555 1_555
O5 N1 1_555 1_555
O6 N1 1_555 1_555
C6 C7 1_555 1_555
C10 C11 1_555 1_555
C12 O1 1_555 1_555
C15 C16 1_555 1_555
C17 O3 1_555 1_555
C22 C23 1_555 1_555

#END
