
#######################################################################
#
#                 Cambridge Crystallographic Data Centre
#                                CCDC 
#
#######################################################################
#
# If this CIF has been generated from an entry in the Cambridge 
# Structural Database, then it will include bibliographic, chemical, 
# crystal, experimental, refinement or atomic coordinate data resulting 
# from the CCDC's data processing and validation procedures.
#
#######################################################################

data_ANUXEN
_chemical_formula_moiety         'C18 H24 N2 O2'
_chemical_name_systematic        
(5RS,6S)-5-sec-Butyl-3-(1-((2,6-dimethylphenyl)amino)ethylidene)pyrrolidine-2,4-dione
_chemical_properties_biological  'tested for herbicidal activity'
_symmetry_cell_setting           monoclinic
_symmetry_space_group_name_H-M   'C 2'
_symmetry_Int_Tables_number      5
_space_group_name_Hall           'C 2y'
loop_
_symmetry_equiv_pos_site_id
_symmetry_equiv_pos_as_xyz
1 x,y,z
2 -x,y,-z
3 1/2+x,1/2+y,z
4 1/2-x,1/2+y,-z
_cell_length_a                   23.332(3)
_cell_length_b                   12.3665(14)
_cell_length_c                   17.806(2)
_cell_angle_alpha                90
_cell_angle_beta                 136.2650(10)
_cell_angle_gamma                90
_cell_volume                     3551.79
_exptl_crystal_colour            colorless
_exptl_crystal_description       block
_chemical_melting_point          '182-184 deg.C'
_cell_formula_units_Z            8
loop_
_atom_site_label
_atom_site_type_symbol
_atom_site_fract_x
_atom_site_fract_y
_atom_site_fract_z
C1 C 0.3819(3) 0.6723(4) 0.6250(3)
C2 C 0.3096(3) 0.6236(4) 0.5363(3)
C3 C 0.2365(3) 0.6649(4) 0.4978(4)
H1 H 0.1861 0.6329 0.4380
C4 C 0.2381(3) 0.7511(5) 0.5467(4)
H2 H 0.1888 0.7767 0.5204
C5 C 0.3116(3) 0.8009(4) 0.6343(4)
H3 H 0.3115 0.8617 0.6649
C6 C 0.3853(3) 0.7610(4) 0.6770(4)
C7 C 0.5048(2) 0.6767(4) 0.6595(3)
C8 C 0.5777(2) 0.6268(4) 0.7077(3)
C9 C 0.6081(2) 0.5283(4) 0.7669(3)
C10 C 0.6892(3) 0.4994(3) 0.8059(4)
H4 H 0.7339 0.5011 0.8855
C11 C 0.6395(2) 0.6651(3) 0.7105(3)
C12 C 0.6877(2) 0.3897(4) 0.7669(3)
H5 H 0.6841 0.3348 0.8030
C13 C 0.7678(2) 0.3689(4) 0.7985(3)
H6 H 0.7645 0.2977 0.7728
H7 H 0.7713 0.4213 0.7615
C14 C 0.8467(3) 0.3754(4) 0.9198(3)
H8 H 0.8426 0.4346 0.9506
H9 H 0.8933 0.3867 0.9314
H10 H 0.8540 0.3091 0.9540
C15 C 0.3092(3) 0.5299(4) 0.4826(4)
H11 H 0.3416 0.5476 0.4697
H12 H 0.2533 0.5145 0.4148
H13 H 0.3325 0.4677 0.5290
C16 C 0.4653(3) 0.8100(4) 0.7745(4)
H14 H 0.4596 0.8873 0.7710
H15 H 0.5069 0.7911 0.7776
H16 H 0.4815 0.7836 0.8384
C17 C 0.4749(2) 0.7797(4) 0.5980(3)
H17 H 0.4180 0.7720 0.5293
H18 H 0.5079 0.7972 0.5860
H19 H 0.4796 0.8366 0.6389
C18 C 0.6134(2) 0.3747(4) 0.6446(3)
H20 H 0.5643 0.3640 0.6276
H21 H 0.6223 0.3127 0.6216
H22 H 0.6069 0.4378 0.6076
N1 N 0.4584(2) 0.6304(3) 0.6688(3)
H23 H 0.4759 0.5705 0.7039
N2 N 0.6996(2) 0.5892(3) 0.7636(3)
H24 H 0.7406 0.5935 0.7716
O1 O 0.5768(2) 0.4711(3) 0.7855(3)
O2 O 0.63870(18) 0.7519(3) 0.6703(2)
C19 C 1.1024(3) 0.7149(4) 0.8628(3)
C20 C 1.1747(3) 0.7236(4) 0.9715(4)
C21 C 1.2454(3) 0.6778(4) 1.0080(4)
H25 H 1.2952 0.6834 1.0812
C22 C 1.2437(3) 0.6243(4) 0.9387(4)
H26 H 1.2910 0.5904 0.9653
C23 C 1.1727(3) 0.6217(4) 0.8319(4)
H27 H 1.1726 0.5883 0.7850
C24 C 1.0996(3) 0.6670(4) 0.7891(3)
C25 C 0.9805(3) 0.7167(3) 0.8293(3)
C26 C 0.9081(3) 0.7659(4) 0.7832(3)
C27 C 0.8765(3) 0.8649(4) 0.7212(4)
C28 C 0.7897(3) 0.8852(4) 0.6722(4)
H28 H 0.7487 0.8753 0.5934
C29 C 0.8457(3) 0.7261(4) 0.7795(3)
C30 C 0.7777(3) 0.9972(4) 0.6948(3)
H29 H 0.7957 1.0509 0.6747
C31 C 0.8267(3) 1.0158(4) 0.8128(3)
H30 H 0.8441 0.9471 0.8503
H31 H 0.7925 1.0527 0.8172
C32 C 0.9023(3) 1.0844(4) 0.8655(4)
H32 H 0.9387 1.0442 0.8676
H33 H 0.9311 1.1029 0.9382
H34 H 0.8849 1.1493 0.8240
C33 C 1.1750(3) 0.7767(4) 1.0476(3)
H35 H 1.2161 0.7431 1.1177
H36 H 1.1214 0.7688 1.0196
H37 H 1.1876 0.8521 1.0540
C34 C 1.0219(3) 0.6625(4) 0.6708(3)
H38 H 0.9869 0.6060 0.6567
H39 H 1.0351 0.6481 0.6317
H40 H 0.9935 0.7305 0.6475
C35 C 1.0084(3) 0.6120(4) 0.8902(4)
H41 H 1.0534 0.5827 0.9039
H42 H 0.9631 0.5616 0.8476
H43 H 1.0266 0.6247 0.9579
C36 C 0.6872(2) 1.0177(4) 0.6265(3)
H44 H 0.6679 0.9646 0.6434
H45 H 0.6554 1.0128 0.5509
H46 H 0.6810 1.0886 0.6419
N3 N 1.0268(2) 0.7619(3) 0.8206(3)
H47 H 1.0110 0.8232 0.7877
N4 N 0.7818(2) 0.7959(3) 0.7177(3)
H48 H 0.7392 0.7884 0.7057
O3 O 0.90900(18) 0.9215(3) 0.7052(3)
O4 O 0.8475(2) 0.6402(3) 0.8216(3)
loop_
_geom_bond_atom_site_label_1
_geom_bond_atom_site_label_2
_geom_bond_site_symmetry_1
_geom_bond_site_symmetry_2
C1 C2 1_555 1_555
C2 C3 1_555 1_555
C3 H1 1_555 1_555
C4 C3 1_555 1_555
H2 C4 1_555 1_555
C5 C4 1_555 1_555
H3 C5 1_555 1_555
C6 C1 1_555 1_555
C7 C8 1_555 1_555
C8 C9 1_555 1_555
C9 C10 1_555 1_555
C10 H4 1_555 1_555
C11 C8 1_555 1_555
C12 C10 1_555 1_555
H5 C12 1_555 1_555
C13 C12 1_555 1_555
H6 C13 1_555 1_555
H7 C13 1_555 1_555
C14 C13 1_555 1_555
H8 C14 1_555 1_555
H9 C14 1_555 1_555
H10 C14 1_555 1_555
C15 C2 1_555 1_555
H11 C15 1_555 1_555
H12 C15 1_555 1_555
H13 C15 1_555 1_555
C16 C6 1_555 1_555
H14 C16 1_555 1_555
H15 C16 1_555 1_555
H16 C16 1_555 1_555
C17 C7 1_555 1_555
H17 C17 1_555 1_555
H18 C17 1_555 1_555
H19 C17 1_555 1_555
C18 C12 1_555 1_555
H20 C18 1_555 1_555
H21 C18 1_555 1_555
H22 C18 1_555 1_555
N1 C1 1_555 1_555
H23 N1 1_555 1_555
N2 C10 1_555 1_555
H24 N2 1_555 1_555
O1 C9 1_555 1_555
O2 C11 1_555 1_555
C19 C20 1_555 1_555
C20 C21 1_555 1_555
C21 H25 1_555 1_555
C22 C21 1_555 1_555
H26 C22 1_555 1_555
C23 C22 1_555 1_555
H27 C23 1_555 1_555
C24 C19 1_555 1_555
C25 C26 1_555 1_555
C26 C27 1_555 1_555
C27 C28 1_555 1_555
C28 H28 1_555 1_555
C29 C26 1_555 1_555
C30 C28 1_555 1_555
H29 C30 1_555 1_555
C31 C30 1_555 1_555
H30 C31 1_555 1_555
H31 C31 1_555 1_555
C32 C31 1_555 1_555
H32 C32 1_555 1_555
H33 C32 1_555 1_555
H34 C32 1_555 1_555
C33 C20 1_555 1_555
H35 C33 1_555 1_555
H36 C33 1_555 1_555
H37 C33 1_555 1_555
C34 C24 1_555 1_555
H38 C34 1_555 1_555
H39 C34 1_555 1_555
H40 C34 1_555 1_555
C35 C25 1_555 1_555
H41 C35 1_555 1_555
H42 C35 1_555 1_555
H43 C35 1_555 1_555
C36 C30 1_555 1_555
H44 C36 1_555 1_555
H45 C36 1_555 1_555
H46 C36 1_555 1_555
N3 C19 1_555 1_555
H47 N3 1_555 1_555
N4 C28 1_555 1_555
H48 N4 1_555 1_555
O3 C27 1_555 1_555
O4 C29 1_555 1_555
C5 C6 1_555 1_555
C7 N1 1_555 1_555
C11 N2 1_555 1_555
C23 C24 1_555 1_555
C25 N3 1_555 1_555
C29 N4 1_555 1_555

#END
