
#######################################################################
#
#                 Cambridge Crystallographic Data Centre
#                                CCDC 
#
#######################################################################
#
# If this CIF has been generated from an entry in the Cambridge 
# Structural Database, then it will include bibliographic, chemical, 
# crystal, experimental, refinement or atomic coordinate data resulting 
# from the CCDC's data processing and validation procedures.
#
#######################################################################

data_APADEC
_chemical_formula_moiety         'C21 H27 N3 O4'
_chemical_name_systematic        
't-butyl 2-oxo-3-(2-((pyridin-2-ylcarbonyl)amino)cyclohexyl)-2,5-dihydro-1H-pyrrole-1-carboxylate'
_symmetry_cell_setting           monoclinic
_symmetry_space_group_name_H-M   'I 2'
_symmetry_Int_Tables_number      5
_space_group_name_Hall           'I 2y'
loop_
_symmetry_equiv_pos_site_id
_symmetry_equiv_pos_as_xyz
1 x,y,z
2 -x,y,-z
3 1/2+x,1/2+y,1/2+z
4 1/2-x,1/2+y,1/2-z
_cell_length_a                   16.8244(6)
_cell_length_b                   6.0896(2)
_cell_length_c                   41.9414(16)
_cell_angle_alpha                90
_cell_angle_beta                 101.245(4)
_cell_angle_gamma                90
_cell_volume                     4214.56
_exptl_crystal_colour            'light colorless'
_exptl_crystal_description       block
_cell_formula_units_Z            8
loop_
_atom_site_label
_atom_site_type_symbol
_atom_site_fract_x
_atom_site_fract_y
_atom_site_fract_z
O1 O -0.15368(16) -0.9057(5) -0.59425(7)
O2 O -0.05897(15) -0.7815(5) -0.63679(6)
O3 O -0.1008(2) -0.4781(7) -0.66607(9)
O4 O -0.23360(19) -0.1776(6) -0.51256(9)
N1 N -0.16348(16) -0.5893(5) -0.62607(7)
N2 N -0.2184(2) -0.5387(6) -0.51906(8)
H1 H -0.1837 -0.6440 -0.5160
C1 C -0.2988(2) -0.5878(8) -0.53776(8)
H2 H -0.3249 -0.4494 -0.5459
C2 C -0.3490(3) -0.6948(10) -0.51559(9)
H3 H -0.3213 -0.8253 -0.5059
H4 H -0.3539 -0.5940 -0.4982
C3 C -0.4324(3) -0.7570(13) -0.53354(11)
H5 H -0.4616 -0.6264 -0.5424
H6 H -0.4623 -0.8260 -0.5187
C4 C -0.4255(3) -0.9140(13) -0.56077(10)
H7 H -0.4793 -0.9530 -0.5725
H8 H -0.3985 -1.0473 -0.5518
C5 C -0.3780(2) -0.8084(10) -0.58393(9)
H9 H -0.4079 -0.6825 -0.5942
H10 H -0.3726 -0.9126 -0.6009
C6 C -0.2935(2) -0.7338(7) -0.56664(7)
H11 H -0.2625 -0.8651 -0.5584
C7 C -0.25123(19) -0.6266(7) -0.59062(8)
C8 C -0.2686(3) -0.4390(8) -0.60631(11)
H12 H -0.3094 -0.3444 -0.6028
C9 C -0.2156(2) -0.3957(7) -0.63030(10)
H13 H -0.2469 -0.3862 -0.6523
H14 H -0.1845 -0.2619 -0.6251
C10 C -0.1841(2) -0.7303(6) -0.60271(8)
C11 C -0.1052(2) -0.6069(8) -0.64512(10)
C12 C 0.0075(2) -0.8323(9) -0.65399(12)
C13 C 0.0699(3) -0.6558(11) -0.64807(18)
H15 H 0.0515 -0.5319 -0.6617
H16 H 0.1197 -0.7098 -0.6531
H17 H 0.0787 -0.6120 -0.6257
C14 C 0.0425(3) -1.0388(10) -0.63691(18)
H18 H 0.0649 -1.0062 -0.6146
H19 H 0.0844 -1.0947 -0.6473
H20 H 0.0006 -1.1470 -0.6380
C15 C -0.0259(4) -0.8811(18) -0.68804(14)
H21 H -0.0689 -0.9864 -0.6893
H22 H 0.0159 -0.9403 -0.6982
H23 H -0.0467 -0.7488 -0.6990
C16 C -0.1946(2) -0.3454(8) -0.50650(9)
C17 C -0.1142(3) -0.3409(8) -0.48362(10)
C18 C -0.0786(3) -0.1494(9) -0.47234(12)
H24 H -0.1041 -0.0165 -0.4787
C19 C -0.0047(3) -0.1524(11) -0.45151(14)
H25 H 0.0205 -0.0213 -0.4440
C20 C 0.0299(4) -0.3388(12) -0.44240(17)
H26 H 0.0664 -0.3518 -0.4228
N3 N -0.0648(5) -0.5297(16) -0.4827(2)
C21 C 0.0099(6) -0.525(2) -0.4637(3)
H27 H 0.0470 -0.6372 -0.4643
O5 O -0.46275(16) -1.3031(4) -0.65009(7)
O6 O -0.5726(2) -1.3639(5) -0.60779(9)
O7 O -0.64088(15) -1.0522(5) -0.60238(6)
O8 O -0.55169(19) -0.4596(7) -0.73757(8)
N5 N -0.55476(17) -1.0525(5) -0.63587(7)
N6 N -0.51324(17) -0.8113(7) -0.74344(7)
H30 H -0.5282 -0.9356 -0.7524
N7 N -0.65326(19) -0.8935(7) -0.78427(8)
C23 C -0.4328(2) -0.7956(8) -0.72301(8)
H31 H -0.4267 -0.6485 -0.7133
C24 C -0.3678(2) -0.8253(10) -0.74388(9)
H32 H -0.3746 -0.9676 -0.7544
H33 H -0.3748 -0.7135 -0.7607
C25 C -0.2822(2) -0.8087(10) -0.72322(10)
H34 H -0.2426 -0.8344 -0.7368
H35 H -0.2735 -0.6620 -0.7142
C26 C -0.2706(2) -0.9745(9) -0.69604(9)
H36 H -0.2172 -0.9568 -0.6825
H37 H -0.2743 -1.1217 -0.7050
C27 C -0.33531(18) -0.9437(8) -0.67538(8)
H38 H -0.3288 -0.8002 -0.6652
H39 H -0.3278 -1.0535 -0.6583
C28 C -0.42108(18) -0.9634(7) -0.69566(7)
H40 H -0.4267 -1.1101 -0.7055
C29 C -0.48176(18) -0.9426(6) -0.67416(7)
C30 C -0.5269(2) -0.7748(6) -0.66878(8)
H41 H -0.5281 -0.6407 -0.6795
C31 C -0.5755(2) -0.8245(6) -0.64369(8)
H42 H -0.5600 -0.7308 -0.6248
H43 H -0.6330 -0.8075 -0.6523
C32 C -0.4957(2) -1.1246(6) -0.65307(8)
C33 C -0.5887(3) -1.1755(7) -0.61426(10)
C34 C -0.6864(3) -1.1403(8) -0.57838(11)
C35 C -0.6271(3) -1.2060(11) -0.54788(11)
H44 H -0.5998 -1.3387 -0.5519
H45 H -0.6560 -1.2300 -0.5306
H46 H -0.5881 -1.0910 -0.5419
C36 C -0.7419(3) -1.3232(10) -0.59428(16)
H47 H -0.7663 -1.2810 -0.6161
H48 H -0.7836 -1.3487 -0.5820
H49 H -0.7110 -1.4551 -0.5948
C37 C -0.7350(3) -0.9431(10) -0.57178(13)
H50 H -0.6990 -0.8236 -0.5643
H51 H -0.7656 -0.9795 -0.5555
H52 H -0.7713 -0.9008 -0.5914
C38 C -0.5650(2) -0.6428(10) -0.74904(8)
C39 C -0.6454(2) -0.6983(9) -0.77022(8)
C40 C -0.7074(2) -0.5461(9) -0.77359(9)
H53 H -0.6994 -0.4085 -0.7639
C41 C -0.7823(3) -0.6057(11) -0.79202(10)
H54 H -0.8262 -0.5105 -0.7940
C42 C -0.7907(3) -0.8059(11) -0.80719(11)
H55 H -0.8399 -0.8466 -0.8201
C43 C -0.7253(3) -0.9458(11) -0.80295(11)
H56 H -0.7310 -1.0813 -0.8134
H28? H 0.0854 -0.3561 -0.4353
N4? N -0.0982(5) -0.5277(15) -0.46685(17)
C22? C -0.0300(6) -0.523(2) -0.4446(3)
H29? H -0.0190 -0.6380 -0.4299
loop_
_geom_bond_atom_site_label_1
_geom_bond_atom_site_label_2
_geom_bond_site_symmetry_1
_geom_bond_site_symmetry_2
O1 C10 1_555 1_555
O2 C11 1_555 1_555
O3 C11 1_555 1_555
O4 C16 1_555 1_555
N1 C9 1_555 1_555
N2 H1 1_555 1_555
C1 N2 1_555 1_555
H2 C1 1_555 1_555
C2 C1 1_555 1_555
H3 C2 1_555 1_555
H4 C2 1_555 1_555
C3 C2 1_555 1_555
H5 C3 1_555 1_555
H6 C3 1_555 1_555
C4 C3 1_555 1_555
H7 C4 1_555 1_555
H8 C4 1_555 1_555
C5 C4 1_555 1_555
H9 C5 1_555 1_555
H10 C5 1_555 1_555
C6 C1 1_555 1_555
H11 C6 1_555 1_555
C7 C6 1_555 1_555
C8 C7 1_555 1_555
H12 C8 1_555 1_555
C9 C8 1_555 1_555
H13 C9 1_555 1_555
H14 C9 1_555 1_555
C10 N1 1_555 1_555
C11 N1 1_555 1_555
C12 O2 1_555 1_555
C13 C12 1_555 1_555
H15 C13 1_555 1_555
H16 C13 1_555 1_555
H17 C13 1_555 1_555
C14 C12 1_555 1_555
H18 C14 1_555 1_555
H19 C14 1_555 1_555
H20 C14 1_555 1_555
C15 C12 1_555 1_555
H21 C15 1_555 1_555
H22 C15 1_555 1_555
H23 C15 1_555 1_555
C16 N2 1_555 1_555
C17 C16 1_555 1_555
C18 C17 1_555 1_555
H24 C18 1_555 1_555
C19 C18 1_555 1_555
H25 C19 1_555 1_555
C20 C19 1_555 1_555
H26 C20 1_555 1_555
N3 C17 1_555 1_555
C21 C20 1_555 1_555
H27 C21 1_555 1_555
O5 C32 1_555 1_555
O6 C33 1_555 1_555
O7 C33 1_555 1_555
O8 C38 1_555 1_555
N5 C31 1_555 1_555
N6 H30 1_555 1_555
N7 C39 1_555 1_555
C23 N6 1_555 1_555
H31 C23 1_555 1_555
C24 C23 1_555 1_555
H32 C24 1_555 1_555
H33 C24 1_555 1_555
C25 C24 1_555 1_555
H34 C25 1_555 1_555
H35 C25 1_555 1_555
C26 C25 1_555 1_555
H36 C26 1_555 1_555
H37 C26 1_555 1_555
C27 C26 1_555 1_555
H38 C27 1_555 1_555
H39 C27 1_555 1_555
C28 C23 1_555 1_555
H40 C28 1_555 1_555
C29 C28 1_555 1_555
C30 C29 1_555 1_555
H41 C30 1_555 1_555
C31 C30 1_555 1_555
H42 C31 1_555 1_555
H43 C31 1_555 1_555
C32 N5 1_555 1_555
C33 N5 1_555 1_555
C34 O7 1_555 1_555
C35 C34 1_555 1_555
H44 C35 1_555 1_555
H45 C35 1_555 1_555
H46 C35 1_555 1_555
C36 C34 1_555 1_555
H47 C36 1_555 1_555
H48 C36 1_555 1_555
H49 C36 1_555 1_555
C37 C34 1_555 1_555
H50 C37 1_555 1_555
H51 C37 1_555 1_555
H52 C37 1_555 1_555
C38 N6 1_555 1_555
C39 C38 1_555 1_555
C40 C39 1_555 1_555
H53 C40 1_555 1_555
C41 C40 1_555 1_555
H54 C41 1_555 1_555
C42 C41 1_555 1_555
H55 C42 1_555 1_555
C43 N7 1_555 1_555
H56 C43 1_555 1_555
C5 C6 1_555 1_555
C7 C10 1_555 1_555
N3 C21 1_555 1_555
C27 C28 1_555 1_555
C29 C32 1_555 1_555
C42 C43 1_555 1_555

#END
