
#######################################################################
#
#                 Cambridge Crystallographic Data Centre
#                                CCDC 
#
#######################################################################
#
# If this CIF has been generated from an entry in the Cambridge 
# Structural Database, then it will include bibliographic, chemical, 
# crystal, experimental, refinement or atomic coordinate data resulting 
# from the CCDC's data processing and validation procedures.
#
#######################################################################

data_APAGAB
_chemical_formula_moiety         'C21 H17 N1 O3 S1 Se1'
_chemical_name_systematic        
'2-(1-phenyl-2-(phenylselanyl)ethyl)-1,2-benzothiazol-3(2H)-one 1,1-dioxide'
_symmetry_cell_setting           triclinic
_symmetry_space_group_name_H-M   'P -1'
_symmetry_Int_Tables_number      2
_space_group_name_Hall           '-P 1'
loop_
_symmetry_equiv_pos_site_id
_symmetry_equiv_pos_as_xyz
1 x,y,z
2 -x,-y,-z
_cell_length_a                   9.7234(4)
_cell_length_b                   9.8305(4)
_cell_length_c                   22.0952(9)
_cell_angle_alpha                102.367(3)
_cell_angle_beta                 94.393(3)
_cell_angle_gamma                107.218(3)
_cell_volume                     1948.22
_exptl_crystal_colour            colorless
_exptl_crystal_description       Block
_cell_formula_units_Z            4
loop_
_atom_site_label
_atom_site_type_symbol
_atom_site_fract_x
_atom_site_fract_y
_atom_site_fract_z
Se1 Se 0.32713(3) 0.80343(3) 0.116142(14)
S1 S 0.34069(8) 0.24916(9) 0.07288(4)
O1 O 0.0293(2) 0.3218(2) -0.00896(9)
C1 C 0.4886(3) 0.7973(3) 0.16953(13)
N1 N 0.2282(2) 0.3427(2) 0.05952(10)
C2 C 0.4749(3) 0.7836(3) 0.22961(13)
H1 H 0.3873 0.7788 0.2447
C3 C 0.2481(3) 0.4892(3) 0.10187(11)
H2 H 0.3376 0.5133 0.1312
C4 C 0.1427(3) 0.1335(3) -0.02330(12)
C5 C 0.2764(3) 0.6043(3) 0.06372(12)
H3 H 0.1900 0.5846 0.0339
H4 H 0.3552 0.5965 0.0402
C6 C -0.0949(4) 0.4575(3) 0.21407(15)
H5 H -0.1696 0.4483 0.2383
C7 C 0.1221(3) 0.2728(3) 0.00757(12)
C8 C 0.0303(4) 0.4358(3) 0.23430(14)
H6 H 0.0413 0.4121 0.2725
C9 C 0.2571(3) 0.1053(3) 0.00718(13)
C10 C 0.1268(3) 0.4825(3) 0.14080(12)
O2 O 0.3182(3) 0.2050(3) 0.12958(10)
C11 C 0.5900(4) 0.7770(4) 0.26733(14)
H7 H 0.5804 0.7684 0.3080
C12 C -0.0013(3) 0.5055(3) 0.12106(14)
H8 H -0.0132 0.5297 0.0830
C13 C 0.1415(3) 0.4487(3) 0.19847(12)
H9 H 0.2273 0.4346 0.2130
C14 C 0.6191(3) 0.8046(4) 0.14816(15)
H10 H 0.6298 0.8146 0.1077
C15 C -0.1113(4) 0.4929(3) 0.15760(16)
H11 H -0.1970 0.5085 0.1439
O3 O 0.4843(2) 0.3290(3) 0.06632(12)
C16 C 0.2951(4) -0.0184(3) -0.01448(17)
H12 H 0.3715 -0.0362 0.0069
C17 C 0.0623(4) 0.0333(4) -0.07795(14)
H13 H -0.0162 0.0488 -0.0989
C18 C 0.7194(4) 0.7830(4) 0.24539(17)
H14 H 0.7971 0.7775 0.2710
C19 C 0.1017(5) -0.0898(4) -0.10041(18)
H15 H 0.0502 -0.1569 -0.1374
C20 C 0.2152(5) -0.1149(4) -0.0692(2)
H16 H 0.2389 -0.1990 -0.0854
C21 C 0.7337(4) 0.7971(4) 0.18609(18)
H17 H 0.8214 0.8017 0.1712
Se2 Se -0.16655(3) 0.57190(4) 0.446373(15)
S2 S 0.26068(7) 0.65472(7) 0.40434(3)
O4 O 0.1763(2) 0.50541(19) 0.39683(9)
C22 C 0.3433(3) 0.8398(3) 0.51134(12)
C23 C 0.0701(3) 0.8797(3) 0.34782(12)
O5 O 0.3313(2) 0.6913(2) 0.35345(9)
O6 O 0.1590(2) 0.9555(2) 0.50489(9)
C24 C 0.0338(3) 0.7549(3) 0.38060(11)
H18 H 0.0129 0.6635 0.3480
C25 C 0.2125(3) 0.8642(3) 0.48281(12)
C26 C -0.1026(3) 0.7425(3) 0.41202(14)
H19 H -0.1813 0.7397 0.3815
H20 H -0.0839 0.8304 0.4456
N2 N 0.1607(2) 0.7640(2) 0.42512(9)
C27 C 0.4272(3) 0.9173(3) 0.56884(13)
H21 H 0.4049 0.9941 0.5942
C28 C -0.2636(3) 0.4278(3) 0.37005(15)
C29 C 0.4976(3) 0.6874(3) 0.49250(15)
H22 H 0.5204 0.6112 0.4670
C30 C 0.1159(3) 0.8564(3) 0.28987(13)
H23 H 0.1254 0.7657 0.2719
C31 C 0.3799(3) 0.7281(3) 0.47472(12)
C32 C 0.0549(3) 1.0149(3) 0.37349(14)
H24 H 0.0229 1.0319 0.4121
C33 C 0.5458(3) 0.8764(4) 0.58728(15)
H25 H 0.6032 0.9260 0.6259
C34 C -0.2184(4) 0.3078(4) 0.3500(2)
H26 H -0.1380 0.2988 0.3724
C35 C -0.3838(4) 0.4389(4) 0.33599(17)
H27 H -0.4168 0.5185 0.3490
C36 C 0.5799(3) 0.7644(4) 0.54967(16)
H28 H 0.6604 0.7401 0.5632
C37 C 0.0874(3) 1.1250(3) 0.34164(18)
H29 H 0.0776 1.2158 0.3592
C38 C 0.1338(3) 1.1010(4) 0.28464(19)
H30 H 0.1560 1.1756 0.2637
C39 C 0.1477(3) 0.9670(4) 0.25829(15)
H31 H 0.1783 0.9503 0.2193
C40 C -0.4543(5) 0.3304(5) 0.2824(2)
H32 H -0.5342 0.3382 0.2592
C41 C -0.2923(7) 0.2007(5) 0.2964(3)
H33 H -0.2617 0.1195 0.2831
C42 C -0.4086(7) 0.2131(6) 0.2634(3)
H34 H -0.4575 0.1408 0.2274
loop_
_geom_bond_atom_site_label_1
_geom_bond_atom_site_label_2
_geom_bond_site_symmetry_1
_geom_bond_site_symmetry_2
Se1 C1 1_555 1_555
S1 N1 1_555 1_555
O1 C7 1_555 1_555
C1 C2 1_555 1_555
N1 C3 1_555 1_555
C2 H1 1_555 1_555
C3 H2 1_555 1_555
C4 C7 1_555 1_555
C5 Se1 1_555 1_555
H3 C5 1_555 1_555
H4 C5 1_555 1_555
C6 H5 1_555 1_555
C7 N1 1_555 1_555
C8 C6 1_555 1_555
H6 C8 1_555 1_555
C9 S1 1_555 1_555
C10 C3 1_555 1_555
O2 S1 1_555 1_555
C11 C2 1_555 1_555
H7 C11 1_555 1_555
C12 C10 1_555 1_555
H8 C12 1_555 1_555
C13 C8 1_555 1_555
H9 C13 1_555 1_555
C14 C1 1_555 1_555
H10 C14 1_555 1_555
C15 C6 1_555 1_555
H11 C15 1_555 1_555
O3 S1 1_555 1_555
C16 C9 1_555 1_555
H12 C16 1_555 1_555
C17 C4 1_555 1_555
H13 C17 1_555 1_555
C18 C11 1_555 1_555
H14 C18 1_555 1_555
C19 C17 1_555 1_555
H15 C19 1_555 1_555
C20 C16 1_555 1_555
H16 C20 1_555 1_555
C21 C14 1_555 1_555
H17 C21 1_555 1_555
Se2 C26 1_555 1_555
S2 O4 1_555 1_555
C22 C25 1_555 1_555
C23 C24 1_555 1_555
O5 S2 1_555 1_555
O6 C25 1_555 1_555
C24 H18 1_555 1_555
C25 N2 1_555 1_555
C26 C24 1_555 1_555
H19 C26 1_555 1_555
H20 C26 1_555 1_555
N2 S2 1_555 1_555
C27 C22 1_555 1_555
H21 C27 1_555 1_555
C28 Se2 1_555 1_555
C29 H22 1_555 1_555
C30 C23 1_555 1_555
H23 C30 1_555 1_555
C31 S2 1_555 1_555
C32 C23 1_555 1_555
H24 C32 1_555 1_555
C33 C27 1_555 1_555
H25 C33 1_555 1_555
C34 C28 1_555 1_555
H26 C34 1_555 1_555
C35 C28 1_555 1_555
H27 C35 1_555 1_555
C36 C29 1_555 1_555
H28 C36 1_555 1_555
C37 C32 1_555 1_555
H29 C37 1_555 1_555
C38 C37 1_555 1_555
H30 C38 1_555 1_555
C39 C30 1_555 1_555
H31 C39 1_555 1_555
C40 C35 1_555 1_555
H32 C40 1_555 1_555
C41 C34 1_555 1_555
H33 C41 1_555 1_555
C42 C40 1_555 1_555
H34 C42 1_555 1_555
C3 C5 1_555 1_555
C4 C9 1_555 1_555
C10 C13 1_555 1_555
C12 C15 1_555 1_555
C18 C21 1_555 1_555
C19 C20 1_555 1_555
C22 C31 1_555 1_555
C24 N2 1_555 1_555
C29 C31 1_555 1_555
C33 C36 1_555 1_555
C38 C39 1_555 1_555
C41 C42 1_555 1_555

#END
