
#######################################################################
#
#                 Cambridge Crystallographic Data Centre
#                                CCDC 
#
#######################################################################
#
# If this CIF has been generated from an entry in the Cambridge 
# Structural Database, then it will include bibliographic, chemical, 
# crystal, experimental, refinement or atomic coordinate data resulting 
# from the CCDC's data processing and validation procedures.
#
#######################################################################

data_APAJEH
_chemical_formula_moiety         'C8 H11 N3 S1'
_chemical_name_systematic        1-(2-Aminophenyl)-3-methylthiourea
_symmetry_cell_setting           monoclinic
_symmetry_space_group_name_H-M   'P 21/n'
_symmetry_Int_Tables_number      14
_space_group_name_Hall           '-P 2yn'
loop_
_symmetry_equiv_pos_site_id
_symmetry_equiv_pos_as_xyz
1 x,y,z
2 1/2-x,1/2+y,1/2-z
3 -x,-y,-z
4 1/2+x,1/2-y,1/2+z
_cell_length_a                   14.7266(6)
_cell_length_b                   7.6637(3)
_cell_length_c                   16.2667(7)
_cell_angle_alpha                90
_cell_angle_beta                 105.323(4)
_cell_angle_gamma                90
_cell_volume                     1770.6
_exptl_crystal_colour            colorless
_exptl_crystal_description       block
_cell_formula_units_Z            8
_exptl_crystal_recrystallization_method methanol
loop_
_atom_site_label
_atom_site_type_symbol
_atom_site_fract_x
_atom_site_fract_y
_atom_site_fract_z
S1 S 0.22371(4) 0.09019(6) 0.10271(3)
N1 N 0.37999(11) 0.2390(2) 0.19349(11)
H1 H 0.4034 0.1910 0.1559
N2 N 0.50022(13) 0.4850(2) 0.15408(12)
C2 C 0.50484(14) 0.4506(2) 0.24009(13)
C3 C 0.28568(14) 0.2225(2) 0.18088(12)
C9 C 0.44495(13) 0.3261(2) 0.26129(13)
C10 C 0.57146(15) 0.5324(3) 0.30582(15)
H9 H 0.6128 0.6128 0.2927
C11 C 0.45257(15) 0.2875(3) 0.34613(14)
H10 H 0.4135 0.2031 0.3598
C12 C 0.14355(14) 0.3058(3) 0.22337(15)
H11 H 0.1102 0.3497 0.1684
H12 H 0.1291 0.3762 0.2670
H13 H 0.1249 0.1874 0.2292
C13 C 0.51740(15) 0.3726(3) 0.41064(14)
H14 H 0.5212 0.3478 0.4674
C15 C 0.57694(15) 0.4959(3) 0.38970(14)
H16 H 0.6207 0.5540 0.4327
N6 N 0.24462(12) 0.3121(2) 0.23174(11)
H18 H 0.2793 0.3762 0.2711
H20 H 0.4393(19) 0.473(3) 0.1173(17)
H22 H 0.520(2) 0.583(4) 0.1493(19)
S2 S 0.47488(3) 1.03985(6) -0.13913(3)
N3 N 0.37830(12) 0.7837(2) -0.09302(11)
H2 H 0.4154 0.7185 -0.1124
N4 N 0.34387(12) 1.0596(2) -0.05437(12)
H3 H 0.3014 1.0126 -0.0341
N5 N 0.23711(14) 0.6027(3) -0.21050(12)
C1 C 0.39393(14) 0.9569(3) -0.09136(12)
C4 C 0.30471(14) 0.6983(2) -0.06507(13)
C5 C 0.30506(14) 0.6968(2) 0.02011(13)
H4 H 0.3533 0.7526 0.0600
C6 C 0.23356(14) 0.6132(3) -0.12636(13)
C7 C 0.35703(15) 1.2478(3) -0.04634(14)
H5 H 0.3411 1.2999 -0.1020
H6 H 0.4216 1.2730 -0.0180
H7 H 0.3171 1.2947 -0.0137
C8 C 0.16241(15) 0.5294(3) -0.09918(15)
H8 H 0.1143 0.4725 -0.1387
C14 C 0.16281(16) 0.5301(3) -0.01412(16)
H15 H 0.1146 0.4745 0.0028
C16 C 0.23410(16) 0.6127(3) 0.04650(15)
H17 H 0.2343 0.6117 0.1037
H19 H 0.2706(18) 0.680(3) -0.2271(17)
H21 H 0.179(2) 0.588(4) -0.247(2)
loop_
_geom_bond_atom_site_label_1
_geom_bond_atom_site_label_2
_geom_bond_site_symmetry_1
_geom_bond_site_symmetry_2
S1 C3 1_555 1_555
S2 C1 1_555 1_555
N1 H1 1_555 1_555
N2 C2 1_555 1_555
N3 H2 1_555 1_555
N4 H3 1_555 1_555
N5 C6 1_555 1_555
C1 N3 1_555 1_555
C2 C9 1_555 1_555
C3 N1 1_555 1_555
C4 N3 1_555 1_555
C5 C4 1_555 1_555
H4 C5 1_555 1_555
C6 C4 1_555 1_555
C7 N4 1_555 1_555
H5 C7 1_555 1_555
H6 C7 1_555 1_555
H7 C7 1_555 1_555
C8 C6 1_555 1_555
H8 C8 1_555 1_555
C9 N1 1_555 1_555
C10 C2 1_555 1_555
H9 C10 1_555 1_555
C11 C9 1_555 1_555
H10 C11 1_555 1_555
C12 H11 1_555 1_555
H12 C12 1_555 1_555
H13 C12 1_555 1_555
C13 C11 1_555 1_555
H14 C13 1_555 1_555
C14 C8 1_555 1_555
H15 C14 1_555 1_555
C15 C10 1_555 1_555
H16 C15 1_555 1_555
C16 C5 1_555 1_555
H17 C16 1_555 1_555
N6 C3 1_555 1_555
H18 N6 1_555 1_555
H19 N5 1_555 1_555
H20 N2 1_555 1_555
H21 N5 1_555 1_555
H22 N2 1_555 1_555
N4 C1 1_555 1_555
C12 N6 1_555 1_555
C13 C15 1_555 1_555
C14 C16 1_555 1_555

#END
