
#######################################################################
#
#                 Cambridge Crystallographic Data Centre
#                                CCDC 
#
#######################################################################
#
# If this CIF has been generated from an entry in the Cambridge 
# Structural Database, then it will include bibliographic, chemical, 
# crystal, experimental, refinement or atomic coordinate data resulting 
# from the CCDC's data processing and validation procedures.
#
#######################################################################

data_APAKAE
_chemical_name_common            
1-Isopropyl-3-(2-(3-isopropyl-thioureido)phenyl)thiourea
_chemical_formula_moiety         'C14 H22 N4 S2'
_chemical_name_systematic        
1,1'-(1,2-Phenylene)bis(3-isopropyl(thiourea))
_symmetry_cell_setting           triclinic
_symmetry_space_group_name_H-M   'P -1'
_symmetry_Int_Tables_number      2
_space_group_name_Hall           '-P 1'
loop_
_symmetry_equiv_pos_site_id
_symmetry_equiv_pos_as_xyz
1 x,y,z
2 -x,-y,-z
_cell_length_a                   9.4599(6)
_cell_length_b                   9.5946(6)
_cell_length_c                   11.0971(7)
_cell_angle_alpha                78.984(1)
_cell_angle_beta                 66.485(1)
_cell_angle_gamma                65.045(1)
_cell_volume                     837.034
_exptl_crystal_colour            colorless
_exptl_crystal_description       block
_cell_formula_units_Z            2
_exptl_crystal_recrystallization_method ethanol
loop_
_atom_site_label
_atom_site_type_symbol
_atom_site_fract_x
_atom_site_fract_y
_atom_site_fract_z
S1 S 0.39540(5) 0.54798(4) 0.34386(4)
S2 S -0.26011(5) 0.94895(5) 0.65841(4)
N1 N 0.09372(16) 0.76393(15) 0.46540(12)
H1 H 0.0277 0.8287 0.5299
N2 N 0.29778(17) 0.70957(15) 0.54894(13)
H2 H 0.4023 0.6563 0.5425
N3 N -0.19003(17) 0.68085(16) 0.56058(13)
H3 H -0.1979 0.5904 0.5774
N4 N -0.29609(18) 0.69146(17) 0.78216(13)
H4 H -0.2865 0.5971 0.7780
C1 C 0.02309(19) 0.75434(17) 0.37740(15)
C2 C 0.0934(2) 0.78229(19) 0.24272(16)
H5 H 0.1860 0.8123 0.2102
C3 C 0.0285(2) 0.7664(2) 0.15652(16)
H6 H 0.0778 0.7839 0.0649
C4 C -0.1088(2) 0.7248(2) 0.20420(18)
H7 H -0.1515 0.7112 0.1448
C5 C -0.1835(2) 0.7032(2) 0.33806(17)
H8 H -0.2794 0.6780 0.3703
C6 C -0.11890(19) 0.71808(18) 0.42615(15)
C7 C 0.25212(19) 0.68330(16) 0.45940(14)
C8 C -0.24803(19) 0.76678(18) 0.66759(15)
C9 C 0.1938(2) 0.81731(19) 0.65737(17)
H9 H 0.1101 0.9081 0.6287
C10 C 0.3082(3) 0.8715(2) 0.6843(2)
H10 H 0.3648 0.9193 0.6041
H11 H 0.3914 0.7833 0.7118
H12 H 0.2418 0.9467 0.7542
C11 C 0.1010(3) 0.7410(3) 0.77769(19)
H13 H 0.0303 0.7075 0.7550
H14 H 0.0311 0.8148 0.8486
H15 H 0.1818 0.6518 0.8067
C12 C -0.3630(2) 0.7532(2) 0.91327(16)
H16 H -0.3047 0.8204 0.9107
C13 C -0.3214(3) 0.6183(2) 1.00801(18)
H17 H -0.2003 0.5605 0.9778
H18 H -0.3769 0.5507 1.0114
H19 H -0.3601 0.6568 1.0959
C14 C -0.5493(2) 0.8494(2) 0.95571(18)
H20 H -0.5704 0.9348 0.8923
H21 H -0.5890 0.8902 1.0428
H22 H -0.6086 0.7851 0.9594
loop_
_geom_bond_atom_site_label_1
_geom_bond_atom_site_label_2
_geom_bond_site_symmetry_1
_geom_bond_site_symmetry_2
S1 C7 1_555 1_555
S2 C8 1_555 1_555
N1 H1 1_555 1_555
N2 H2 1_555 1_555
N3 H3 1_555 1_555
N4 H4 1_555 1_555
C1 N1 1_555 1_555
C2 C1 1_555 1_555
H5 C2 1_555 1_555
C3 C2 1_555 1_555
H6 C3 1_555 1_555
C4 C3 1_555 1_555
H7 C4 1_555 1_555
C5 C4 1_555 1_555
H8 C5 1_555 1_555
C6 N3 1_555 1_555
C7 N1 1_555 1_555
C8 N3 1_555 1_555
C9 N2 1_555 1_555
H9 C9 1_555 1_555
C10 C9 1_555 1_555
H10 C10 1_555 1_555
H11 C10 1_555 1_555
H12 C10 1_555 1_555
C11 C9 1_555 1_555
H13 C11 1_555 1_555
H14 C11 1_555 1_555
H15 C11 1_555 1_555
C12 N4 1_555 1_555
H16 C12 1_555 1_555
C13 C12 1_555 1_555
H17 C13 1_555 1_555
H18 C13 1_555 1_555
H19 C13 1_555 1_555
C14 C12 1_555 1_555
H20 C14 1_555 1_555
H21 C14 1_555 1_555
H22 C14 1_555 1_555
N2 C7 1_555 1_555
N4 C8 1_555 1_555
C1 C6 1_555 1_555
C5 C6 1_555 1_555

#END
