
#######################################################################
#
#                 Cambridge Crystallographic Data Centre
#                                CCDC 
#
#######################################################################
#
# If this CIF has been generated from an entry in the Cambridge 
# Structural Database, then it will include bibliographic, chemical, 
# crystal, experimental, refinement or atomic coordinate data resulting 
# from the CCDC's data processing and validation procedures.
#
#######################################################################

data_APAPOX
_chemical_formula_moiety         'C28 H29 N1 O3'
_chemical_name_systematic        
'Methyl 6-t-butyl-2-((4-methylphenyl)amino)-4-phenyl-2H-chromene-2-carboxylate'
_symmetry_cell_setting           orthorhombic
_symmetry_space_group_name_H-M   'P 21 21 21'
_symmetry_Int_Tables_number      19
_space_group_name_Hall           'P 2ac 2ab'
loop_
_symmetry_equiv_pos_site_id
_symmetry_equiv_pos_as_xyz
1 x,y,z
2 1/2-x,-y,1/2+z
3 -x,1/2+y,1/2-z
4 1/2+x,1/2-y,-z
_cell_length_a                   6.0368(12)
_cell_length_b                   13.398(3)
_cell_length_c                   29.789(6)
_cell_angle_alpha                90
_cell_angle_beta                 90
_cell_angle_gamma                90
_cell_volume                     2409.37
_exptl_crystal_colour            colorless
_exptl_crystal_description       platelet
_cell_formula_units_Z            4
loop_
_atom_site_label
_atom_site_type_symbol
_atom_site_fract_x
_atom_site_fract_y
_atom_site_fract_z
O1 O 0.1746(4) 0.62376(18) 0.24613(7)
O2 O 0.4541(3) 0.7217(2) 0.22672(9)
O3 O 0.1963(3) 0.85279(15) 0.18820(6)
N1 N -0.0855(4) 0.79798(19) 0.23803(7)
H1 H -0.2222 0.7940 0.2301
C1 C 0.3279(6) 0.5543(3) 0.26599(13)
H2 H 0.2476 0.4992 0.2786
H3 H 0.4107 0.5872 0.2892
H4 H 0.4277 0.5301 0.2434
C2 C 0.2611(5) 0.7043(3) 0.22737(9)
C3 C 0.0783(4) 0.7680(2) 0.20615(9)
C4 C -0.0370(5) 0.7120(2) 0.16916(9)
H5 H -0.0498 0.6429 0.1707
C5 C -0.1201(5) 0.7610(2) 0.13453(9)
C6 C -0.2527(5) 0.7106(2) 0.09888(9)
C7 C -0.4513(6) 0.6663(3) 0.10917(13)
H6 H -0.5038 0.6677 0.1385
C8 C -0.5736(7) 0.6193(3) 0.07595(17)
H7 H -0.7084 0.5895 0.0829
C9 C -0.4962(10) 0.6170(3) 0.03317(17)
H8 H -0.5793 0.5859 0.0109
C10 C -0.2996(9) 0.6592(3) 0.02257(12)
H9 H -0.2470 0.6561 -0.0067
C11 C -0.1763(6) 0.7072(2) 0.05542(10)
H10 H -0.0421 0.7371 0.0480
C12 C -0.0850(5) 0.8698(2) 0.13136(9)
C13 C -0.2010(5) 0.9316(2) 0.10249(10)
H11 H -0.3090 0.9038 0.0840
C14 C -0.1614(5) 1.0339(2) 0.10010(10)
C15 C 0.0042(6) 1.0714(3) 0.12778(11)
H12 H 0.0373 1.1391 0.1266
C16 C 0.1204(6) 1.0117(2) 0.15682(11)
H13 H 0.2297 1.0394 0.1750
C17 C 0.0759(5) 0.9112(2) 0.15923(9)
C18 C -0.2899(6) 1.1035(2) 0.06894(11)
C19 C -0.4033(7) 1.1854(3) 0.09674(13)
H14 H -0.2940 1.2207 0.1140
H15 H -0.5095 1.1556 0.1166
H16 H -0.4773 1.2312 0.0770
C20 C -0.1316(7) 1.1523(3) 0.03562(13)
H17 H -0.0607 1.1016 0.0179
H18 H -0.0214 1.1896 0.0517
H19 H -0.2129 1.1963 0.0163
C21 C -0.4716(7) 1.0494(2) 0.04289(12)
H20 H -0.4065 0.9979 0.0248
H21 H -0.5477 1.0961 0.0239
H22 H -0.5748 1.0202 0.0636
C22 C -0.0391(5) 0.8334(2) 0.28134(9)
C23 C 0.1589(5) 0.8786(2) 0.29251(10)
H23 H 0.2688 0.8865 0.2709
C24 C 0.1931(6) 0.9119(2) 0.33588(10)
H24 H 0.3277 0.9419 0.3429
C25 C 0.0378(6) 0.9027(2) 0.36882(10)
C26 C -0.1626(6) 0.8598(2) 0.35687(10)
H25 H -0.2742 0.8547 0.3783
C27 C -0.2008(5) 0.8243(2) 0.31403(10)
H26 H -0.3355 0.7943 0.3071
C28 C 0.0802(8) 0.9345(2) 0.41683(10)
H27 H 0.2266 0.9619 0.4192
H28 H 0.0674 0.8776 0.4363
H29 H -0.0265 0.9840 0.4254
loop_
_geom_bond_atom_site_label_1
_geom_bond_atom_site_label_2
_geom_bond_site_symmetry_1
_geom_bond_site_symmetry_2
O1 C1 1_555 1_555
O2 C2 1_555 1_555
O3 C3 1_555 1_555
N1 H1 1_555 1_555
C1 H2 1_555 1_555
H3 C1 1_555 1_555
H4 C1 1_555 1_555
C2 O1 1_555 1_555
C3 N1 1_555 1_555
C4 C3 1_555 1_555
H5 C4 1_555 1_555
C5 C4 1_555 1_555
C6 C5 1_555 1_555
C7 C6 1_555 1_555
H6 C7 1_555 1_555
C8 C7 1_555 1_555
H7 C8 1_555 1_555
C9 C8 1_555 1_555
H8 C9 1_555 1_555
C10 C9 1_555 1_555
H9 C10 1_555 1_555
C11 C6 1_555 1_555
H10 C11 1_555 1_555
C12 C5 1_555 1_555
C13 C12 1_555 1_555
H11 C13 1_555 1_555
C14 C13 1_555 1_555
C15 C14 1_555 1_555
H12 C15 1_555 1_555
C16 C15 1_555 1_555
H13 C16 1_555 1_555
C17 O3 1_555 1_555
C18 C14 1_555 1_555
C19 C18 1_555 1_555
H14 C19 1_555 1_555
H15 C19 1_555 1_555
H16 C19 1_555 1_555
C20 C18 1_555 1_555
H17 C20 1_555 1_555
H18 C20 1_555 1_555
H19 C20 1_555 1_555
C21 C18 1_555 1_555
H20 C21 1_555 1_555
H21 C21 1_555 1_555
H22 C21 1_555 1_555
C22 N1 1_555 1_555
C23 C22 1_555 1_555
H23 C23 1_555 1_555
C24 C23 1_555 1_555
H24 C24 1_555 1_555
C25 C24 1_555 1_555
C26 C25 1_555 1_555
H25 C26 1_555 1_555
C27 C22 1_555 1_555
H26 C27 1_555 1_555
C28 C25 1_555 1_555
H27 C28 1_555 1_555
H28 C28 1_555 1_555
H29 C28 1_555 1_555
C2 C3 1_555 1_555
C10 C11 1_555 1_555
C12 C17 1_555 1_555
C16 C17 1_555 1_555
C26 C27 1_555 1_555

#END
