
#######################################################################
#
#                 Cambridge Crystallographic Data Centre
#                                CCDC 
#
#######################################################################
#
# If this CIF has been generated from an entry in the Cambridge 
# Structural Database, then it will include bibliographic, chemical, 
# crystal, experimental, refinement or atomic coordinate data resulting 
# from the CCDC's data processing and validation procedures.
#
#######################################################################

data_APAQUF
_chemical_formula_moiety         'C22 H15 Cl1 N4 O3'
_chemical_name_systematic        
4-(3-(3-chlorophenyl)-1-phenyl-1H-1,2,4-triazol-5-yl)-1-oxa-4-azaspiro[4.5]deca-6,9-diene-3,8-dione
_symmetry_cell_setting           triclinic
_symmetry_space_group_name_H-M   'P -1'
_symmetry_Int_Tables_number      2
_space_group_name_Hall           '-P 1'
loop_
_symmetry_equiv_pos_site_id
_symmetry_equiv_pos_as_xyz
1 x,y,z
2 -x,-y,-z
_cell_length_a                   8.7564(18)
_cell_length_b                   9.2855(18)
_cell_length_c                   12.643(3)
_cell_angle_alpha                108.548(4)
_cell_angle_beta                 95.167(4)
_cell_angle_gamma                96.016(4)
_cell_volume                     960.872
_exptl_crystal_colour            colorless
_exptl_crystal_description       prismatic
_cell_formula_units_Z            2
loop_
_atom_site_label
_atom_site_type_symbol
_atom_site_fract_x
_atom_site_fract_y
_atom_site_fract_z
Cl1 Cl 0.08042(11) 1.02034(10) 1.37644(7)
N1 N 0.3711(2) 0.7945(2) 0.83774(16)
N2 N 0.3326(2) 0.9281(2) 0.90488(16)
N3 N 0.2861(2) 0.7412(2) 0.98149(15)
N4 N 0.3631(2) 0.5324(2) 0.83664(15)
O1 O 0.61073(19) 0.55383(19) 0.92098(14)
O2 O 0.3104(2) 0.27478(18) 0.75159(15)
O3 O -0.2351(2) 0.3779(3) 0.6958(2)
C1 C 0.1912(3) 0.9675(3) 1.1768(2)
H1 H 0.2288 0.8838 1.1899
C2 C 0.1128(3) 1.0608(3) 1.2549(2)
C3 C 0.0591(3) 1.1878(3) 1.2382(3)
H2 H 0.0059 1.2504 1.2909
C4 C 0.0864(3) 1.2192(3) 1.1417(3)
H3 H 0.0520 1.3051 1.1300
C5 C 0.1631(3) 1.1271(3) 1.0621(2)
H4 H 0.1809 1.1508 0.9977
C6 C 0.2138(3) 0.9983(2) 1.0792(2)
C7 C 0.2818(3) 0.8908(2) 0.98925(19)
C8 C 0.3414(2) 0.6854(2) 0.88601(19)
C9 C 0.4932(3) 0.4764(3) 0.86668(18)
C10 C 0.4570(3) 0.3048(3) 0.8177(2)
H5 H 0.5350 0.2630 0.7716
H6 H 0.4530 0.2596 0.8770
C11 C 0.2337(3) 0.4078(3) 0.78048(19)
C12 C 0.1188(3) 0.3978(3) 0.8596(2)
H7 H 0.1553 0.3976 0.9309
C13 C -0.0317(3) 0.3893(3) 0.8327(2)
H8 H -0.0976 0.3829 0.8852
C14 C -0.0970(3) 0.3898(3) 0.7227(2)
C15 C 0.0128(3) 0.4091(3) 0.6455(2)
H9 H -0.0251 0.4141 0.5758
C16 C 0.1630(3) 0.4197(3) 0.6720(2)
H10 H 0.2280 0.4352 0.6212
C17 C 0.4216(3) 0.7848(3) 0.73119(19)
C18 C 0.3555(3) 0.8692(3) 0.6712(2)
H11 H 0.2827 0.9320 0.7001
C19 C 0.4010(4) 0.8574(4) 0.5669(3)
H12 H 0.3565 0.9112 0.5243
C20 C 0.5112(4) 0.7671(4) 0.5259(3)
H13 H 0.5415 0.7601 0.4560
C21 C 0.5765(3) 0.6871(3) 0.5885(2)
H14 H 0.6511 0.6261 0.5605
C22 C 0.5332(3) 0.6960(3) 0.6916(2)
H15 H 0.5788 0.6427 0.7341
loop_
_geom_bond_atom_site_label_1
_geom_bond_atom_site_label_2
_geom_bond_site_symmetry_1
_geom_bond_site_symmetry_2
Cl1 C2 1_555 1_555
N1 N2 1_555 1_555
N2 C7 1_555 1_555
N3 C7 1_555 1_555
N4 C8 1_555 1_555
O1 C9 1_555 1_555
O2 C10 1_555 1_555
O3 C14 1_555 1_555
C1 H1 1_555 1_555
C2 C1 1_555 1_555
C3 C2 1_555 1_555
H2 C3 1_555 1_555
C4 C3 1_555 1_555
H3 C4 1_555 1_555
C5 C4 1_555 1_555
H4 C5 1_555 1_555
C6 C1 1_555 1_555
C7 C6 1_555 1_555
C8 N1 1_555 1_555
C9 N4 1_555 1_555
C10 C9 1_555 1_555
H5 C10 1_555 1_555
H6 C10 1_555 1_555
C11 N4 1_555 1_555
C12 C11 1_555 1_555
H7 C12 1_555 1_555
C13 C12 1_555 1_555
H8 C13 1_555 1_555
C14 C13 1_555 1_555
C15 C14 1_555 1_555
H9 C15 1_555 1_555
C16 C11 1_555 1_555
H10 C16 1_555 1_555
C17 N1 1_555 1_555
C18 C17 1_555 1_555
H11 C18 1_555 1_555
C19 C18 1_555 1_555
H12 C19 1_555 1_555
C20 C19 1_555 1_555
H13 C20 1_555 1_555
C21 C20 1_555 1_555
H14 C21 1_555 1_555
C22 C17 1_555 1_555
H15 C22 1_555 1_555
N3 C8 1_555 1_555
O2 C11 1_555 1_555
C5 C6 1_555 1_555
C15 C16 1_555 1_555
C21 C22 1_555 1_555

#END
