
#######################################################################
#
#                 Cambridge Crystallographic Data Centre
#                                CCDC 
#
#######################################################################
#
# If this CIF has been generated from an entry in the Cambridge 
# Structural Database, then it will include bibliographic, chemical, 
# crystal, experimental, refinement or atomic coordinate data resulting 
# from the CCDC's data processing and validation procedures.
#
#######################################################################

data_APEGAF
_chemical_formula_moiety         'C19 H26 O3'
_chemical_name_systematic        
9,9,12a-trimethyl-5,7,8,8a,9,10,11,12,12a,13-decahydrobenzo[7,8]cyclonona[1,2-b]pyran-4,6-dione
_symmetry_cell_setting           orthorhombic
_symmetry_space_group_name_H-M   'P 21 21 21'
_symmetry_Int_Tables_number      19
_space_group_name_Hall           'P 2ac 2ab'
loop_
_symmetry_equiv_pos_site_id
_symmetry_equiv_pos_as_xyz
1 x,y,z
2 1/2-x,-y,1/2+z
3 1/2+x,1/2-y,-z
4 -x,1/2+y,1/2-z
_cell_length_a                   6.49546(6)
_cell_length_b                   11.74349(13)
_cell_length_c                   21.65156(19)
_cell_angle_alpha                90
_cell_angle_beta                 90
_cell_angle_gamma                90
_cell_volume                     1651.57
_cell_formula_units_Z            4
loop_
_atom_site_label
_atom_site_type_symbol
_atom_site_fract_x
_atom_site_fract_y
_atom_site_fract_z
O1 O 0.17831(16) -0.02172(8) 0.22841(4)
O2 O 0.44734(18) 0.25386(11) 0.38889(6)
O3 O 0.5497(2) 0.25370(10) 0.23932(6)
C1 C -0.08980(19) -0.02513(11) 0.35671(6)
C2 C 0.2466(2) 0.15985(11) 0.27236(6)
C3 C 0.0052(2) -0.14333(11) 0.34500(6)
H1 H -0.0787 -0.1835 0.3150
H2 H 0.1412 -0.1336 0.3273
C4 C 0.2649(2) 0.25365(11) 0.37815(6)
C5 C -0.0535(2) 0.15657(12) 0.42277(7)
H3 H -0.1473 0.1773 0.3898
H4 H -0.1326 0.1535 0.4607
C6 C 0.03184(18) 0.03556(10) 0.40924(5)
H5 H 0.1696 0.0483 0.3922
C7 C -0.0790(2) 0.04467(12) 0.29546(6)
H6 H -0.1632 0.0056 0.2651
H7 H -0.1432 0.1179 0.3031
C8 C 0.1078(3) 0.25025(13) 0.42901(7)
H8 H 0.0379 0.3232 0.4304
H9 H 0.1790 0.2404 0.4680
C9 C 0.4369(2) 0.16992(12) 0.23665(7)
C10 C 0.4784(2) 0.07344(14) 0.19690(7)
H10 H 0.5954 0.0740 0.1721
C11 C 0.1256(2) 0.06653(11) 0.26677(5)
C12 C 0.1872(2) 0.26051(11) 0.31197(6)
H11 H 0.0383 0.2666 0.3126
H12 H 0.2408 0.3293 0.2931
C13 C 0.3538(2) -0.01539(14) 0.19505(6)
H13 H 0.3885 -0.0763 0.1697
C14 C 0.0228(3) -0.21513(12) 0.40269(8)
H14 H 0.0857 -0.2877 0.3926
H15 H -0.1134 -0.2298 0.4193
C15 C 0.0681(2) -0.03654(13) 0.46903(6)
C16 C -0.3222(2) -0.03647(16) 0.37031(8)
H16 H -0.3767 0.0365 0.3819
H17 H -0.3426 -0.0896 0.4035
H18 H -0.3919 -0.0634 0.3340
C17 C 0.2326(3) 0.02160(17) 0.50904(7)
H19 H 0.3524 0.0367 0.4844
H20 H 0.2690 -0.0275 0.5428
H21 H 0.1791 0.0919 0.5249
C18 C 0.1522(3) -0.15393(14) 0.45051(7)
H22 H 0.2905 -0.1446 0.4344
H23 H 0.1613 -0.2012 0.4872
C19 C -0.1232(3) -0.05204(17) 0.51010(7)
H24 H -0.1791 0.0212 0.5204
H25 H -0.0852 -0.0913 0.5473
H26 H -0.2248 -0.0957 0.4882
loop_
_geom_bond_atom_site_label_1
_geom_bond_atom_site_label_2
_geom_bond_site_symmetry_1
_geom_bond_site_symmetry_2
O1 C11 1_555 1_555
O2 C4 1_555 1_555
O3 C9 1_555 1_555
C1 C3 1_555 1_555
C2 C9 1_555 1_555
C3 H1 1_555 1_555
H2 C3 1_555 1_555
C4 C8 1_555 1_555
C5 H3 1_555 1_555
H4 C5 1_555 1_555
C6 C1 1_555 1_555
H5 C6 1_555 1_555
C7 C1 1_555 1_555
H6 C7 1_555 1_555
H7 C7 1_555 1_555
C8 C5 1_555 1_555
H8 C8 1_555 1_555
H9 C8 1_555 1_555
C9 C10 1_555 1_555
C10 H10 1_555 1_555
C11 C2 1_555 1_555
C12 C2 1_555 1_555
H11 C12 1_555 1_555
H12 C12 1_555 1_555
C13 O1 1_555 1_555
H13 C13 1_555 1_555
C14 C3 1_555 1_555
H14 C14 1_555 1_555
H15 C14 1_555 1_555
C15 C6 1_555 1_555
C16 C1 1_555 1_555
H16 C16 1_555 1_555
H17 C16 1_555 1_555
H18 C16 1_555 1_555
C17 C15 1_555 1_555
H19 C17 1_555 1_555
H20 C17 1_555 1_555
H21 C17 1_555 1_555
C18 C14 1_555 1_555
H22 C18 1_555 1_555
H23 C18 1_555 1_555
C19 C15 1_555 1_555
H24 C19 1_555 1_555
H25 C19 1_555 1_555
H26 C19 1_555 1_555
C4 C12 1_555 1_555
C5 C6 1_555 1_555
C7 C11 1_555 1_555
C10 C13 1_555 1_555
C15 C18 1_555 1_555

#END
