
#######################################################################
#
#                 Cambridge Crystallographic Data Centre
#                                CCDC 
#
#######################################################################
#
# If this CIF has been generated from an entry in the Cambridge 
# Structural Database, then it will include bibliographic, chemical, 
# crystal, experimental, refinement or atomic coordinate data resulting 
# from the CCDC's data processing and validation procedures.
#
#######################################################################

data_APEJOW
_chemical_formula_moiety         'C24 H23 N1 O3 S1'
_chemical_name_systematic        
1-((4-methylphenyl)sulfonyl)-3-(1-phenylvinyl)-1,2,3,4-tetrahydroquinolin-4-ol
_symmetry_cell_setting           triclinic
_symmetry_space_group_name_H-M   'P -1'
_symmetry_Int_Tables_number      2
_space_group_name_Hall           '-P 1'
loop_
_symmetry_equiv_pos_site_id
_symmetry_equiv_pos_as_xyz
1 x,y,z
2 -x,-y,-z
_cell_length_a                   9.2832(19)
_cell_length_b                   10.302(2)
_cell_length_c                   12.390(2)
_cell_angle_alpha                76.387(4)
_cell_angle_beta                 83.994(5)
_cell_angle_gamma                64.267(4)
_cell_volume                     1037.42
_exptl_crystal_colour            colorless
_exptl_crystal_description       prismatic
_cell_formula_units_Z            2
loop_
_atom_site_label
_atom_site_type_symbol
_atom_site_fract_x
_atom_site_fract_y
_atom_site_fract_z
S1 S 0.12580(8) 1.15529(7) 0.32851(6)
N1 N 0.0918(2) 1.11296(19) 0.21526(16)
O1 O 0.1564(2) 0.87143(19) 0.01329(15)
H1 H 0.0708 0.8840 0.0450
O2 O 0.0064(2) 1.1440(2) 0.40628(16)
O3 O 0.1387(3) 1.29140(19) 0.29493(16)
C1 C 0.1624(3) 1.1495(2) 0.11077(19)
C2 C 0.1421(3) 1.2942(3) 0.0667(2)
H2 H 0.0835 1.3676 0.1060
C3 C 0.2078(3) 1.3289(3) -0.0340(2)
H3 H 0.1967 1.4250 -0.0610
C4 C 0.2903(3) 1.2234(3) -0.0960(2)
H4 H 0.3347 1.2475 -0.1643
C5 C 0.3055(3) 1.0826(3) -0.0551(2)
H5 H 0.3595 1.0115 -0.0971
C6 C 0.2426(2) 1.0427(2) 0.04757(18)
C7 C 0.2586(2) 0.8876(2) 0.08260(18)
H6 H 0.3693 0.8207 0.0693
C8 C 0.2212(2) 0.8488(2) 0.20573(19)
H7 H 0.3091 0.8412 0.2479
C9 C 0.0692(3) 0.9755(2) 0.2346(2)
H8 H -0.0185 0.9913 0.1894
H9 H 0.0419 0.9496 0.3120
C10 C 0.2171(3) 0.6998(2) 0.2333(2)
C11 C 0.0841(3) 0.6821(3) 0.2576(3)
H10 H 0.0861 0.5889 0.2678
H11 H -0.0118 0.7627 0.2644
C12 C 0.3718(3) 0.5725(2) 0.2219(2)
C13 C 0.3816(4) 0.4767(3) 0.1577(3)
H12 H 0.2906 0.4906 0.1227
C14 C 0.5261(5) 0.3595(3) 0.1450(3)
H13 H 0.5309 0.2948 0.1021
C15 C 0.6605(4) 0.3382(3) 0.1944(3)
H14 H 0.7574 0.2603 0.1844
C16 C 0.6530(3) 0.4309(3) 0.2583(3)
H15 H 0.7447 0.4155 0.2933
C17 C 0.5095(3) 0.5489(3) 0.2720(2)
H16 H 0.5060 0.6126 0.3153
C18 C 0.3111(3) 1.0163(3) 0.37872(19)
C19 C 0.3189(4) 0.8943(3) 0.4583(2)
H17 H 0.2261 0.8897 0.4913
C20 C 0.4657(4) 0.7800(3) 0.4879(2)
H18 H 0.4706 0.6986 0.5422
C21 C 0.6051(4) 0.7816(4) 0.4403(2)
C22 C 0.5942(4) 0.9063(4) 0.3646(2)
H19 H 0.6877 0.9117 0.3337
C23 C 0.4500(4) 1.0234(3) 0.3329(2)
H20 H 0.4461 1.1065 0.2812
C24 C 0.7652(4) 0.6512(5) 0.4704(3)
H21 H 0.7603 0.5980 0.5445
H22 H 0.8468 0.6858 0.4663
H23 H 0.7899 0.5871 0.4194
loop_
_geom_bond_atom_site_label_1
_geom_bond_atom_site_label_2
_geom_bond_site_symmetry_1
_geom_bond_site_symmetry_2
S1 N1 1_555 1_555
N1 C1 1_555 1_555
O1 H1 1_555 1_555
O2 S1 1_555 1_555
O3 S1 1_555 1_555
C1 C2 1_555 1_555
C2 H2 1_555 1_555
C3 C2 1_555 1_555
H3 C3 1_555 1_555
C4 C3 1_555 1_555
H4 C4 1_555 1_555
C5 C4 1_555 1_555
H5 C5 1_555 1_555
C6 C1 1_555 1_555
C7 O1 1_555 1_555
H6 C7 1_555 1_555
C8 C7 1_555 1_555
H7 C8 1_555 1_555
C9 N1 1_555 1_555
H8 C9 1_555 1_555
H9 C9 1_555 1_555
C10 C8 1_555 1_555
C11 C10 1_555 1_555
H10 C11 1_555 1_555
H11 C11 1_555 1_555
C12 C10 1_555 1_555
C13 C12 1_555 1_555
H12 C13 1_555 1_555
C14 C13 1_555 1_555
H13 C14 1_555 1_555
C15 C14 1_555 1_555
H14 C15 1_555 1_555
C16 C15 1_555 1_555
H15 C16 1_555 1_555
C17 C12 1_555 1_555
H16 C17 1_555 1_555
C18 S1 1_555 1_555
C19 C18 1_555 1_555
H17 C19 1_555 1_555
C20 C19 1_555 1_555
H18 C20 1_555 1_555
C21 C20 1_555 1_555
C22 C21 1_555 1_555
H19 C22 1_555 1_555
C23 C18 1_555 1_555
H20 C23 1_555 1_555
C24 C21 1_555 1_555
H21 C24 1_555 1_555
H22 C24 1_555 1_555
H23 C24 1_555 1_555
C5 C6 1_555 1_555
C6 C7 1_555 1_555
C8 C9 1_555 1_555
C16 C17 1_555 1_555
C22 C23 1_555 1_555

#END
