
#######################################################################
#
#                 Cambridge Crystallographic Data Centre
#                                CCDC 
#
#######################################################################
#
# If this CIF has been generated from an entry in the Cambridge 
# Structural Database, then it will include bibliographic, chemical, 
# crystal, experimental, refinement or atomic coordinate data resulting 
# from the CCDC's data processing and validation procedures.
#
#######################################################################

data_APELAK
_chemical_formula_moiety         'C12 H18 O4'
_chemical_name_systematic        
'methyl 7,7-dimethyl-1-oxohexahydro-2-benzofuran-3a(3H)-carboxylate'
_symmetry_cell_setting           triclinic
_symmetry_space_group_name_H-M   'P -1'
_symmetry_Int_Tables_number      2
_space_group_name_Hall           '-P 1'
loop_
_symmetry_equiv_pos_site_id
_symmetry_equiv_pos_as_xyz
1 x,y,z
2 -x,-y,-z
_cell_length_a                   9.5712(8)
_cell_length_b                   11.3652(9)
_cell_length_c                   18.3894(13)
_cell_angle_alpha                72.646(7)
_cell_angle_beta                 84.919(7)
_cell_angle_gamma                72.923(7)
_cell_volume                     1825.14
_exptl_crystal_colour            'light colorless'
_cell_formula_units_Z            6
loop_
_atom_site_label
_atom_site_type_symbol
_atom_site_fract_x
_atom_site_fract_y
_atom_site_fract_z
O1 O 0.0747(2) 1.0893(2) 0.29195(12)
O2 O -0.10509(19) 1.0787(2) 0.22859(14)
O3 O 0.53981(19) 0.88026(19) 0.22377(14)
O4 O 0.41755(18) 1.07118(17) 0.14967(13)
C1 C 0.2807(2) 0.9598(2) 0.24436(12)
C2 C 0.15067(19) 1.00267(17) 0.18860(11)
H1 H 0.1653 1.0752 0.1469
C3 C 0.1340(2) 0.9026(2) 0.15236(16)
C4 C 0.1448(3) 0.7746(3) 0.2143(2)
H2 H 0.0598 0.7848 0.2472
H3 H 0.1440 0.7096 0.1902
C5 C 0.2820(3) 0.7291(2) 0.2623(2)
H4 H 0.2826 0.6493 0.3009
H5 H 0.3673 0.7125 0.2302
C6 C 0.2902(3) 0.8274(3) 0.30006(16)
H6 H 0.3815 0.7968 0.3279
H7 H 0.2112 0.8357 0.3367
C7 C 0.2316(3) 1.0639(3) 0.28638(16)
H8 H 0.2755 1.0331 0.3366
H9 H 0.2585 1.1408 0.2578
C8 C 0.0240(2) 1.0573(2) 0.23647(14)
C9 C 0.4272(2) 0.9631(2) 0.20616(15)
C10 C 0.5516(3) 1.0819(3) 0.1088(3)
H10 H 0.5327 1.1615 0.0689
H11 H 0.5884 1.0116 0.0871
H12 H 0.6226 1.0796 0.1433
C11 C -0.0127(4) 0.9476(4) 0.1102(2)
H13 H -0.0911 0.9484 0.1465
H14 H -0.0134 0.8898 0.0814
H15 H -0.0249 1.0325 0.0763
C12 C 0.2558(4) 0.8860(3) 0.0924(2)
H16 H 0.2451 0.9660 0.0534
H17 H 0.2486 0.8216 0.0701
H18 H 0.3494 0.8598 0.1164
O5 O 0.94135(16) 0.31344(17) 0.06208(10)
O6 O 1.09306(15) 0.32784(17) 0.13997(10)
O7 O 0.46423(18) 0.5660(2) 0.07524(14)
O8 O 0.54601(18) 0.3727(2) 0.15900(12)
C13 C 0.72387(18) 0.46221(19) 0.08498(11)
C14 C 0.82719(17) 0.41591(16) 0.15455(10)
H19 H 0.7951 0.3481 0.1929
C15 C 0.8300(2) 0.5169(2) 0.19308(12)
C16 C 0.8490(3) 0.6382(2) 0.13344(19)
H20 H 0.8393 0.7045 0.1582
H21 H 0.9468 0.6194 0.1123
C17 C 0.7382(4) 0.6893(2) 0.06854(19)
H22 H 0.6407 0.7176 0.0885
H23 H 0.7591 0.7629 0.0312
C18 C 0.7435(3) 0.5871(2) 0.03045(13)
H24 H 0.8368 0.5683 0.0047
H25 H 0.6675 0.6210 -0.0080
C19 C 0.7859(2) 0.3504(3) 0.04936(15)
H26 H 0.7454 0.2795 0.0740
H27 H 0.7643 0.3783 -0.0047
C20 C 0.97034(19) 0.35102(18) 0.12090(11)
C21 C 0.5638(2) 0.4753(2) 0.10536(13)
C22 C 0.3981(3) 0.3778(5) 0.1835(2)
H28 H 0.3427 0.3782 0.1423
H29 H 0.3550 0.4544 0.1987
H30 H 0.3976 0.3040 0.2259
C23 C 0.9534(3) 0.4658(3) 0.25244(16)
H31 H 0.9508 0.3827 0.2847
H32 H 0.9403 0.5239 0.2828
H33 H 1.0460 0.4590 0.2268
C24 C 0.6849(3) 0.5490(3) 0.23609(16)
H34 H 0.6049 0.5793 0.2010
H35 H 0.6836 0.6144 0.2594
H36 H 0.6757 0.4733 0.2747
O9 O 0.55898(18) 0.97275(16) 0.38636(10)
O10 O 0.39745(17) 0.90588(19) 0.46902(11)
O11 O 1.0362(2) 0.7162(2) 0.42923(14)
O12 O 0.93908(17) 0.84396(18) 0.50264(13)
C25 C 0.7735(2) 0.80420(18) 0.42933(11)
C26 C 0.66219(18) 0.80623(17) 0.49506(10)
H37 H 0.6889 0.8513 0.5272
C27 C 0.6553(2) 0.6730(2) 0.54682(12)
C28 C 0.6494(3) 0.5861(2) 0.49845(17)
H38 H 0.6567 0.5004 0.5318
H39 H 0.5553 0.6179 0.4731
C29 C 0.7695(3) 0.5779(2) 0.43868(16)
H40 H 0.7568 0.5248 0.4086
H41 H 0.8639 0.5382 0.4636
C30 C 0.7652(3) 0.7111(2) 0.38684(13)
H42 H 0.8462 0.7038 0.3513
H43 H 0.6754 0.7456 0.3575
C31 C 0.5234(2) 0.89460(19) 0.45188(12)
C32 C 0.7156(3) 0.9440(2) 0.37880(15)
H44 H 0.7519 1.0019 0.3964
H45 H 0.7449 0.9511 0.3262
C33 C 0.9307(2) 0.7812(2) 0.45300(14)
C34 C 1.0838(3) 0.8267(4) 0.5291(3)
H46 H 1.1420 0.8587 0.4867
H47 H 1.1290 0.7370 0.5522
H48 H 1.0765 0.8730 0.5659
C35 C 0.7927(3) 0.6148(2) 0.59750(14)
H49 H 0.8782 0.6160 0.5661
H50 H 0.7974 0.5278 0.6257
H51 H 0.7882 0.6642 0.6323
C36 C 0.5225(3) 0.6857(4) 0.60033(18)
H52 H 0.5188 0.7508 0.6244
H53 H 0.5309 0.6051 0.6386
H54 H 0.4347 0.7091 0.5715
loop_
_geom_bond_atom_site_label_1
_geom_bond_atom_site_label_2
_geom_bond_site_symmetry_1
_geom_bond_site_symmetry_2
O1 C7 1_555 1_555
O2 C8 1_555 1_555
O3 C9 1_555 1_555
O4 C9 1_555 1_555
C1 C2 1_555 1_555
C2 H1 1_555 1_555
C3 C2 1_555 1_555
C4 C3 1_555 1_555
H2 C4 1_555 1_555
H3 C4 1_555 1_555
C5 C4 1_555 1_555
H4 C5 1_555 1_555
H5 C5 1_555 1_555
C6 C1 1_555 1_555
H6 C6 1_555 1_555
H7 C6 1_555 1_555
C7 C1 1_555 1_555
H8 C7 1_555 1_555
H9 C7 1_555 1_555
C8 O1 1_555 1_555
C9 C1 1_555 1_555
C10 O4 1_555 1_555
H10 C10 1_555 1_555
H11 C10 1_555 1_555
H12 C10 1_555 1_555
C11 C3 1_555 1_555
H13 C11 1_555 1_555
H14 C11 1_555 1_555
H15 C11 1_555 1_555
C12 C3 1_555 1_555
H16 C12 1_555 1_555
H17 C12 1_555 1_555
H18 C12 1_555 1_555
O5 C19 1_555 1_555
O6 C20 1_555 1_555
O7 C21 1_555 1_555
O8 C21 1_555 1_555
C13 C14 1_555 1_555
C14 H19 1_555 1_555
C15 C14 1_555 1_555
C16 C15 1_555 1_555
H20 C16 1_555 1_555
H21 C16 1_555 1_555
C17 C16 1_555 1_555
H22 C17 1_555 1_555
H23 C17 1_555 1_555
C18 C13 1_555 1_555
H24 C18 1_555 1_555
H25 C18 1_555 1_555
C19 C13 1_555 1_555
H26 C19 1_555 1_555
H27 C19 1_555 1_555
C20 O5 1_555 1_555
C21 C13 1_555 1_555
C22 O8 1_555 1_555
H28 C22 1_555 1_555
H29 C22 1_555 1_555
H30 C22 1_555 1_555
C23 C15 1_555 1_555
H31 C23 1_555 1_555
H32 C23 1_555 1_555
H33 C23 1_555 1_555
C24 C15 1_555 1_555
H34 C24 1_555 1_555
H35 C24 1_555 1_555
H36 C24 1_555 1_555
O9 C31 1_555 1_555
O10 C31 1_555 1_555
O11 C33 1_555 1_555
O12 C33 1_555 1_555
C25 C26 1_555 1_555
C26 H37 1_555 1_555
C27 C26 1_555 1_555
C28 C27 1_555 1_555
H38 C28 1_555 1_555
H39 C28 1_555 1_555
C29 C28 1_555 1_555
H40 C29 1_555 1_555
H41 C29 1_555 1_555
C30 C25 1_555 1_555
H42 C30 1_555 1_555
H43 C30 1_555 1_555
C31 C26 1_555 1_555
C32 O9 1_555 1_555
H44 C32 1_555 1_555
H45 C32 1_555 1_555
C33 C25 1_555 1_555
C34 O12 1_555 1_555
H46 C34 1_555 1_555
H47 C34 1_555 1_555
H48 C34 1_555 1_555
C35 C27 1_555 1_555
H49 C35 1_555 1_555
H50 C35 1_555 1_555
H51 C35 1_555 1_555
C36 C27 1_555 1_555
H52 C36 1_555 1_555
H53 C36 1_555 1_555
H54 C36 1_555 1_555
C2 C8 1_555 1_555
C5 C6 1_555 1_555
C14 C20 1_555 1_555
C17 C18 1_555 1_555
C25 C32 1_555 1_555
C29 C30 1_555 1_555

#END
