
#######################################################################
#
#                 Cambridge Crystallographic Data Centre
#                                CCDC 
#
#######################################################################
#
# If this CIF has been generated from an entry in the Cambridge 
# Structural Database, then it will include bibliographic, chemical, 
# crystal, experimental, refinement or atomic coordinate data resulting 
# from the CCDC's data processing and validation procedures.
#
#######################################################################

data_APEMIT
_chemical_formula_moiety         'C19 H16 N2 O3'
_chemical_name_systematic        
'methyl 4-(hydroxy(2-(pyridin-2-yl)phenyl)amino)benzoate'
_symmetry_cell_setting           triclinic
_symmetry_space_group_name_H-M   'P -1'
_symmetry_Int_Tables_number      2
_space_group_name_Hall           '-P 1'
loop_
_symmetry_equiv_pos_site_id
_symmetry_equiv_pos_as_xyz
1 x,y,z
2 -x,-y,-z
_cell_length_a                   6.2622(10)
_cell_length_b                   10.5075(16)
_cell_length_c                   12.874(2)
_cell_angle_alpha                82.787(12)
_cell_angle_beta                 80.414(12)
_cell_angle_gamma                73.332(11)
_cell_volume                     797.467
_exptl_crystal_colour            colorless
_exptl_crystal_description       needle
_cell_formula_units_Z            2
loop_
_atom_site_label
_atom_site_type_symbol
_atom_site_fract_x
_atom_site_fract_y
_atom_site_fract_z
O1 O 0.4661(2) 1.23146(13) 0.52357(11)
O2 O 0.7690(3) 1.30582(14) 0.51676(12)
O3 O 1.2837(2) 0.71047(14) 0.77671(12)
H1 H 1.324(4) 0.726(2) 0.8464(18)
N1 N 0.4491(3) 0.75938(17) 0.94753(13)
N2 N 1.0432(3) 0.74525(16) 0.79297(12)
C1 C 0.4458(5) 0.8724(2) 1.09807(18)
H2 H 0.3650 0.9307 1.1485
C2 C 0.3427(4) 0.8421(2) 1.02277(19)
H3 H 0.1892 0.8813 1.0236
C3 C 0.6705(3) 0.70508(19) 0.94606(15)
C4 C 0.7835(3) 0.61109(18) 0.86347(14)
C5 C 0.9687(3) 0.62767(19) 0.79206(14)
C6 C 0.9512(3) 0.85965(19) 0.72816(14)
C7 C 0.7436(3) 0.88092(19) 0.69397(15)
H4 H 0.6648 0.8167 0.7114
C8 C 0.6540(3) 0.99668(19) 0.63443(15)
H5 H 0.5154 1.0091 0.6118
C9 C 0.7659(3) 1.09487(19) 0.60763(14)
C10 C 0.6735(4) 1.2204(2) 0.54500(16)
C11 C 0.3606(4) 1.3509(2) 0.46207(17)
H6 H 0.3562 1.4278 0.4965
H7 H 0.2100 1.3506 0.4560
H8 H 0.4454 1.3538 0.3929
C12 C 0.6711(5) 0.8145(2) 1.09711(18)
H9 H 0.7463 0.8318 1.1480
C13 C 0.7861(4) 0.7305(2) 1.02049(17)
H10 H 0.9398 0.6911 1.0186
C14 C 0.7016(3) 0.50324(19) 0.85524(15)
H11 H 0.5753 0.4918 0.9007
C15 C 0.8042(4) 0.4133(2) 0.78103(16)
H12 H 0.7466 0.3423 0.7763
C16 C 0.9922(4) 0.4285(2) 0.71377(17)
H13 H 1.0642 0.3663 0.6650
C17 C 1.0732(4) 0.5356(2) 0.71873(16)
H14 H 1.1991 0.5464 0.6726
C18 C 1.0657(3) 0.9575(2) 0.70110(16)
H15 H 1.2047 0.9450 0.7233
C19 C 0.9738(4) 1.0727(2) 0.64158(16)
H16 H 1.0524 1.1369 0.6238
loop_
_geom_bond_atom_site_label_1
_geom_bond_atom_site_label_2
_geom_bond_site_symmetry_1
_geom_bond_site_symmetry_2
O1 C10 1_555 1_555
O2 C10 1_555 1_555
O3 H1 1_555 1_555
N1 C2 1_555 1_555
N2 O3 1_555 1_555
C1 H2 1_555 1_555
C2 C1 1_555 1_555
H3 C2 1_555 1_555
C3 N1 1_555 1_555
C4 C3 1_555 1_555
C5 N2 1_555 1_555
C6 N2 1_555 1_555
C7 C6 1_555 1_555
H4 C7 1_555 1_555
C8 C7 1_555 1_555
H5 C8 1_555 1_555
C9 C8 1_555 1_555
C10 C9 1_555 1_555
C11 O1 1_555 1_555
H6 C11 1_555 1_555
H7 C11 1_555 1_555
H8 C11 1_555 1_555
C12 C1 1_555 1_555
H9 C12 1_555 1_555
C13 C3 1_555 1_555
H10 C13 1_555 1_555
C14 C4 1_555 1_555
H11 C14 1_555 1_555
C15 C14 1_555 1_555
H12 C15 1_555 1_555
C16 C15 1_555 1_555
H13 C16 1_555 1_555
C17 C5 1_555 1_555
H14 C17 1_555 1_555
C18 C6 1_555 1_555
H15 C18 1_555 1_555
C19 C9 1_555 1_555
H16 C19 1_555 1_555
C4 C5 1_555 1_555
C12 C13 1_555 1_555
C16 C17 1_555 1_555
C18 C19 1_555 1_555

#END
