
#######################################################################
#
#                 Cambridge Crystallographic Data Centre
#                                CCDC 
#
#######################################################################
#
# If this CIF has been generated from an entry in the Cambridge 
# Structural Database, then it will include bibliographic, chemical, 
# crystal, experimental, refinement or atomic coordinate data resulting 
# from the CCDC's data processing and validation procedures.
#
#######################################################################

data_APENIU
_chemical_formula_moiety         'C5 H3 N11 O2'
_chemical_name_systematic        
N-(3-nitro-1H-1,2,4-triazol-1-yl)[1,2,4]triazolo[4,3-b][1,2,4,5]tetrazin-6-amine
_symmetry_cell_setting           monoclinic
_symmetry_space_group_name_H-M   'C c'
_symmetry_Int_Tables_number      9
_space_group_name_Hall           'C -2yc'
loop_
_symmetry_equiv_pos_site_id
_symmetry_equiv_pos_as_xyz
1 x,y,z
2 x,-y,1/2+z
3 1/2+x,1/2+y,z
4 1/2+x,1/2-y,1/2+z
_cell_length_a                   19.461(3)
_cell_length_b                   8.7866(12)
_cell_length_c                   11.3296(16)
_cell_angle_alpha                90
_cell_angle_beta                 106.997(2)
_cell_angle_gamma                90
_cell_volume                     1852.69
_exptl_crystal_colour            yellow
_exptl_crystal_description       plate
_cell_formula_units_Z            8
loop_
_atom_site_label
_atom_site_type_symbol
_atom_site_fract_x
_atom_site_fract_y
_atom_site_fract_z
O1 O -0.15451(16) 0.3883(4) 0.6949(3)
O2 O -0.10003(17) 0.5614(4) 0.8233(3)
N1 N 0.07289(18) -0.2331(4) 0.3944(3)
N2 N 0.0395(2) -0.2999(4) 0.4741(3)
N3 N 0.03825(17) -0.0547(3) 0.5027(3)
N4 N 0.02841(16) 0.0891(3) 0.5408(3)
N5 N 0.09036(16) 0.1652(4) 0.3913(3)
N6 N 0.09759(17) 0.0269(4) 0.3569(3)
N7 N 0.05368(16) 0.3423(3) 0.5055(3)
H1 H 0.0475 0.4204 0.4521
N8 N 0.02770(16) 0.3900(3) 0.6004(3)
N9 N -0.04141(16) 0.3722(4) 0.6011(3)
N10 N 0.02256(16) 0.5222(4) 0.7599(3)
N11 N -0.10253(18) 0.4689(4) 0.7424(3)
C1 C 0.0710(2) -0.0860(4) 0.4127(3)
C2 C 0.0187(2) -0.1903(5) 0.5366(4)
H2 H -0.0062 -0.2056 0.5963
C3 C 0.05549(18) 0.1887(4) 0.4822(3)
C4 C 0.0646(2) 0.4809(4) 0.6940(3)
H3 H 0.1134 0.5101 0.7095
C5 C -0.03968(19) 0.4543(4) 0.6994(3)
O3 O 0.44201(16) 0.3825(4) 0.7435(3)
O4 O 0.38792(17) 0.5579(4) 0.8174(3)
N12 N 0.21538(19) -0.2313(4) 0.2147(3)
N13 N 0.2487(2) -0.2976(4) 0.3277(3)
N14 N 0.24942(16) -0.0527(3) 0.3579(3)
N15 N 0.25958(17) 0.0913(3) 0.4037(3)
N16 N 0.19708(16) 0.1660(4) 0.1926(3)
N17 N 0.18986(17) 0.0280(4) 0.1515(3)
N18 N 0.23380(16) 0.3450(4) 0.3431(3)
H4 H 0.2478 0.4127 0.2952
N19 N 0.25971(16) 0.3920(3) 0.4643(3)
N20 N 0.32882(17) 0.3715(4) 0.5353(3)
N21 N 0.26637(16) 0.5245(4) 0.6295(3)
N22 N 0.39071(19) 0.4661(4) 0.7386(3)
C6 C 0.2167(2) -0.0837(4) 0.2346(3)
C7 C 0.2691(2) -0.1876(4) 0.4111(4)
H5 H 0.2939 -0.2027 0.4958
C8 C 0.23240(18) 0.1905(4) 0.3184(3)
C9 C 0.22338(19) 0.4851(4) 0.5208(3)
H6 H 0.1749 0.5167 0.4874
C10 C 0.3276(2) 0.4536(4) 0.6321(4)
loop_
_geom_bond_atom_site_label_1
_geom_bond_atom_site_label_2
_geom_bond_site_symmetry_1
_geom_bond_site_symmetry_2
O1 N11 1_555 1_555
O2 N11 1_555 1_555
N1 N2 1_555 1_555
N2 C2 1_555 1_555
N3 N4 1_555 1_555
N4 C3 1_555 1_555
N5 N6 1_555 1_555
N6 C1 1_555 1_555
N7 H1 1_555 1_555
N8 N7 1_555 1_555
N9 N8 1_555 1_555
N10 C4 1_555 1_555
N11 C5 1_555 1_555
C1 N1 1_555 1_555
C2 N3 1_555 1_555
H2 C2 1_555 1_555
C3 N5 1_555 1_555
C4 N8 1_555 1_555
H3 C4 1_555 1_555
C5 N9 1_555 1_555
O3 N22 1_555 1_555
O4 N22 1_555 1_555
N12 N13 1_555 1_555
N13 C7 1_555 1_555
N14 N15 1_555 1_555
N15 C8 1_555 1_555
N16 N17 1_555 1_555
N17 C6 1_555 1_555
N18 H4 1_555 1_555
N19 N18 1_555 1_555
N20 N19 1_555 1_555
N21 C9 1_555 1_555
N22 C10 1_555 1_555
C6 N12 1_555 1_555
C7 N14 1_555 1_555
H5 C7 1_555 1_555
C8 N16 1_555 1_555
C9 N19 1_555 1_555
H6 C9 1_555 1_555
C10 N20 1_555 1_555
N3 C1 1_555 1_555
N7 C3 1_555 1_555
N10 C5 1_555 1_555
N14 C6 1_555 1_555
N18 C8 1_555 1_555
N21 C10 1_555 1_555

#END
