
#######################################################################
#
#                 Cambridge Crystallographic Data Centre
#                                CCDC 
#
#######################################################################
#
# If this CIF has been generated from an entry in the Cambridge 
# Structural Database, then it will include bibliographic, chemical, 
# crystal, experimental, refinement or atomic coordinate data resulting 
# from the CCDC's data processing and validation procedures.
#
#######################################################################

data_APEPAO
_chemical_compound_source        'Marine sponge Theonella swinhoei'
_chemical_name_common            'Swinhoeisterol B'
_chemical_formula_moiety         'C29 H46 O3'
_chemical_name_systematic        
3-(5,6-dimethylheptan-2-yl)-9,11b-dihydroxy-2a,11a-dimethyl-8-methylene-1,2,2a,3,4,5,7,7a,8,9,10,11,11a,11b-tetradecahydro-6H-naphtho[1,2,3-cd]azulen-6-one
_chemical_properties_biological  '(h)p300 inhibitory activity'
_symmetry_cell_setting           hexagonal
_symmetry_space_group_name_H-M   'P 61'
_symmetry_Int_Tables_number      169
_space_group_name_Hall           'P 61'
loop_
_symmetry_equiv_pos_site_id
_symmetry_equiv_pos_as_xyz
1 x,y,z
2 -y,x-y,1/3+z
3 -x+y,-x,2/3+z
4 -x,-y,1/2+z
5 y,-x+y,5/6+z
6 x-y,x,1/6+z
_cell_length_a                   26.5740(4)
_cell_length_b                   26.5740(4)
_cell_length_c                   6.56120(10)
_cell_angle_alpha                90
_cell_angle_beta                 90
_cell_angle_gamma                120
_cell_volume                     4012.62
_exptl_crystal_colour            colorless
_cell_formula_units_Z            6
_exptl_crystal_recrystallization_method acetone/methanol
loop_
_atom_site_label
_atom_site_type_symbol
_atom_site_fract_x
_atom_site_fract_y
_atom_site_fract_z
O1 O 0.63800(16) 0.28959(14) 0.9845(5)
H1 H 0.6617 0.3006 1.0820
O2 O 0.61519(16) 0.08638(14) 0.5712(5)
H2 H 0.6009 0.0532 0.5185
O3 O 0.55346(16) -0.01696(14) 1.3279(5)
C1 C 0.6909(2) 0.19901(18) 0.7134(8)
H3 H 0.6664 0.1882 0.5893
H4 H 0.7305 0.2089 0.6711
C2 C 0.6933(2) 0.25261(19) 0.8082(8)
H5 H 0.7224 0.2673 0.9195
H6 H 0.7060 0.2835 0.7039
C3 C 0.6347(2) 0.23920(18) 0.8924(8)
H7 H 0.6068 0.2273 0.7759
C4 C 0.61218(19) 0.18947(18) 1.0402(7)
C5 C 0.60692(19) 0.13481(18) 0.9428(7)
H8 H 0.5800 0.1250 0.8240
C6 C 0.5801(2) 0.08205(18) 1.0832(7)
H9 H 0.5977 0.0944 1.2201
H10 H 0.5381 0.0682 1.0968
C7 C 0.58736(19) 0.03146(18) 1.0133(7)
C8 C 0.62248(19) 0.03601(17) 0.8616(7)
C9 C 0.6529(2) 0.09134(18) 0.7340(7)
C10 C 0.66664(19) 0.14668(18) 0.8555(7)
C11 C 0.7060(2) 0.0903(2) 0.6491(9)
H11 H 0.7383 0.1062 0.7487
H12 H 0.7196 0.1126 0.5205
C12 C 0.6826(2) 0.0251(2) 0.6124(9)
H13 H 0.7149 0.0169 0.5995
H14 H 0.6588 0.0120 0.4868
C13 C 0.6447(2) -0.0058(2) 0.8039(8)
C14 C 0.55652(19) -0.02118(19) 1.1441(8)
C15 C 0.5247(2) -0.08082(19) 1.0459(8)
H15 H 0.4969 -0.0808 0.9456
H16 H 0.5016 -0.1094 1.1530
C16 C 0.5611(2) -0.1025(2) 0.9383(9)
H17 H 0.5351 -0.1433 0.8968
H18 H 0.5894 -0.1021 1.0372
C17 C 0.5944(2) -0.06780(18) 0.7502(9)
H19 H 0.5659 -0.0616 0.6702
C18 C 0.6845(3) -0.0030(2) 0.9789(10)
H20 H 0.6999 -0.0289 0.9486
H21 H 0.6621 -0.0154 1.1060
H22 H 0.7167 0.0369 0.9937
C19 C 0.7096(2) 0.1583(2) 1.0306(8)
H23 H 0.7469 0.1658 0.9745
H24 H 0.6939 0.1243 1.1203
H25 H 0.7153 0.1922 1.1086
C20 C 0.6113(4) -0.1043(2) 0.6079(11)
H26 H 0.6368 -0.0777 0.4978
C21 C 0.5581(4) -0.1526(3) 0.5062(11)
H27 H 0.5373 -0.1362 0.4339
H28 H 0.5326 -0.1801 0.6096
H29 H 0.5699 -0.1728 0.4089
C22 C 0.6481(3) -0.1289(3) 0.7244(16)
H30 H 0.6767 -0.0977 0.8138
H31 H 0.6211 -0.1612 0.8137
C23 C 0.6801(4) -0.1503(3) 0.5946(19)
H32 H 0.6522 -0.1823 0.5143
H33 H 0.6982 -0.1650 0.6846
C24 C 0.7308(8) -0.1066(8) 0.464(3)
H34 H 0.7155 -0.0876 0.3814
C25 C 0.7577(11) -0.1344(13) 0.337(3)
H35 H 0.7963 -0.1022 0.2910
C26 C 0.7242(15) -0.1643(12) 0.148(4)
H36 H 0.7449 -0.1804 0.0732
H37 H 0.7205 -0.1363 0.0617
H38 H 0.6855 -0.1958 0.1860
C27 C 0.7694(14) -0.1765(14) 0.457(6)
H39 H 0.7868 -0.1930 0.3671
H40 H 0.7327 -0.2078 0.5121
H41 H 0.7961 -0.1558 0.5697
C28 C 0.7824(8) -0.0637(10) 0.591(5)
H42 H 0.8126 -0.0351 0.5014
H43 H 0.7979 -0.0847 0.6677
H44 H 0.7698 -0.0438 0.6868
C29 C 0.6010(2) 0.1942(2) 1.2302(9)
H45 H 0.6071 0.2303 1.2808
H46 H 0.5868 0.1615 1.3182
C30? C 0.7407(7) -0.1002(8) 0.530(3)
H47? H 0.7345 -0.0703 0.4748
C31? C 0.7679(10) -0.1136(11) 0.350(3)
H48? H 0.8058 -0.0775 0.3220
C32? C 0.7347(15) -0.1308(12) 0.152(3)
H49? H 0.7253 -0.1010 0.1119
H50? H 0.6987 -0.1680 0.1697
H51? H 0.7585 -0.1347 0.0461
C33? C 0.7812(13) -0.1625(12) 0.377(6)
H52? H 0.8025 -0.1641 0.2573
H53? H 0.7448 -0.1994 0.3905
H54? H 0.8049 -0.1554 0.4992
C34? C 0.7853(8) -0.0729(12) 0.700(4)
H55? H 0.8230 -0.0448 0.6414
H56? H 0.7889 -0.1033 0.7714
H57? H 0.7727 -0.0532 0.7958
loop_
_geom_bond_atom_site_label_1
_geom_bond_atom_site_label_2
_geom_bond_site_symmetry_1
_geom_bond_site_symmetry_2
O1 H1 1_555 1_555
O2 H2 1_555 1_555
O3 C14 1_555 1_555
C1 H3 1_555 1_555
H4 C1 1_555 1_555
C2 C1 1_555 1_555
H5 C2 1_555 1_555
H6 C2 1_555 1_555
C3 O1 1_555 1_555
H7 C3 1_555 1_555
C4 C3 1_555 1_555
C5 C4 1_555 1_555
H8 C5 1_555 1_555
C6 C5 1_555 1_555
H9 C6 1_555 1_555
H10 C6 1_555 1_555
C7 C6 1_555 1_555
C8 C7 1_555 1_555
C9 O2 1_555 1_555
C10 C1 1_555 1_555
C11 C9 1_555 1_555
H11 C11 1_555 1_555
H12 C11 1_555 1_555
C12 C11 1_555 1_555
H13 C12 1_555 1_555
H14 C12 1_555 1_555
C13 C8 1_555 1_555
C14 C7 1_555 1_555
C15 C14 1_555 1_555
H15 C15 1_555 1_555
H16 C15 1_555 1_555
C16 C15 1_555 1_555
H17 C16 1_555 1_555
H18 C16 1_555 1_555
C17 C13 1_555 1_555
H19 C17 1_555 1_555
C18 C13 1_555 1_555
H20 C18 1_555 1_555
H21 C18 1_555 1_555
H22 C18 1_555 1_555
C19 C10 1_555 1_555
H23 C19 1_555 1_555
H24 C19 1_555 1_555
H25 C19 1_555 1_555
C20 C17 1_555 1_555
H26 C20 1_555 1_555
C21 C20 1_555 1_555
H27 C21 1_555 1_555
H28 C21 1_555 1_555
H29 C21 1_555 1_555
C22 C20 1_555 1_555
H30 C22 1_555 1_555
H31 C22 1_555 1_555
C23 C22 1_555 1_555
H32 C23 1_555 1_555
H33 C23 1_555 1_555
C24 C23 1_555 1_555
H34 C24 1_555 1_555
C25 C24 1_555 1_555
H35 C25 1_555 1_555
C26 C25 1_555 1_555
H36 C26 1_555 1_555
H37 C26 1_555 1_555
H38 C26 1_555 1_555
C27 C25 1_555 1_555
H39 C27 1_555 1_555
H40 C27 1_555 1_555
H41 C27 1_555 1_555
C28 C24 1_555 1_555
H42 C28 1_555 1_555
H43 C28 1_555 1_555
H44 C28 1_555 1_555
C29 C4 1_555 1_555
H45 C29 1_555 1_555
H46 C29 1_555 1_555
C2 C3 1_555 1_555
C5 C10 1_555 1_555
C8 C9 1_555 1_555
C9 C10 1_555 1_555
C12 C13 1_555 1_555
C16 C17 1_555 1_555

#END
