
#######################################################################
#
#                 Cambridge Crystallographic Data Centre
#                                CCDC 
#
#######################################################################
#
# If this CIF has been generated from an entry in the Cambridge 
# Structural Database, then it will include bibliographic, chemical, 
# crystal, experimental, refinement or atomic coordinate data resulting 
# from the CCDC's data processing and validation procedures.
#
#######################################################################

data_APERIX
_chemical_formula_moiety         'C24 H21 N3 O3'
_chemical_name_systematic        
4-(1H-Indol-2-yl)-6-methoxy-2-(4-nitrophenyl)-1,2,3,4-tetrahydroquinoline
_symmetry_cell_setting           monoclinic
_symmetry_space_group_name_H-M   'P 21'
_symmetry_Int_Tables_number      4
_space_group_name_Hall           'P 2yb'
loop_
_symmetry_equiv_pos_site_id
_symmetry_equiv_pos_as_xyz
1 x,y,z
2 -x,1/2+y,-z
_cell_length_a                   10.5425(15)
_cell_length_b                   6.9493(10)
_cell_length_c                   14.339(2)
_cell_angle_alpha                90
_cell_angle_beta                 107.378(2)
_cell_angle_gamma                90
_cell_volume                     1002.57
_cell_formula_units_Z            2
loop_
_atom_site_label
_atom_site_type_symbol
_atom_site_fract_x
_atom_site_fract_y
_atom_site_fract_z
C1 C 1.0772(4) 0.8918(7) 0.6138(4)
H1 H 1.0893 0.9517 0.6761
H2 H 1.0679 0.9892 0.5647
H3 H 1.1528 0.8128 0.6164
C2 C 0.9556(4) 0.6263(6) 0.6507(3)
C3 C 1.0530(4) 0.5837(6) 0.7363(3)
H4 H 1.1309 0.6556 0.7557
C4 C 1.0332(4) 0.4324(6) 0.7928(3)
H5 H 1.0986 0.4045 0.8510
C5 C 0.9193(3) 0.3213(6) 0.7658(3)
C6 C 0.8224(3) 0.3605(5) 0.6775(2)
C7 C 0.8422(3) 0.5142(6) 0.6220(2)
H6 H 0.7774 0.5429 0.5637
C8 C 0.6940(3) 0.2427(6) 0.6436(2)
H7 H 0.6215 0.3283 0.6467
C9 C 0.6941(4) 0.0743(6) 0.7115(3)
H8 H 0.7362 -0.0355 0.6913
H9 H 0.6030 0.0392 0.7056
C10 C 0.7665(3) 0.1195(6) 0.8182(2)
H10 H 0.7238 0.2297 0.8392
C11 C 0.7630(4) -0.0527(6) 0.8828(2)
C12 C 0.8495(4) -0.2048(6) 0.8884(3)
H11 H 0.9131 -0.1977 0.8554
C13 C 0.8429(4) -0.3664(6) 0.9420(3)
H12 H 0.9020 -0.4675 0.9460
C14 C 0.7481(4) -0.3764(6) 0.9892(2)
C15 C 0.6605(4) -0.2266(7) 0.9845(3)
H13 H 0.5965 -0.2346 1.0171
C16 C 0.6689(4) -0.0668(6) 0.9316(3)
H14 H 0.6101 0.0345 0.9283
C17 C 0.6621(3) 0.1753(5) 0.5392(2)
C18 C 0.5682(4) 0.2345(6) 0.4582(3)
H15 H 0.5079 0.3337 0.4552
C19 C 0.5767(3) 0.1203(6) 0.3777(2)
C20 C 0.5099(4) 0.1071(7) 0.2780(3)
H16 H 0.4416 0.1929 0.2496
C21 C 0.5434(4) -0.0290(8) 0.2220(3)
H17 H 0.4987 -0.0340 0.1555
C22 C 0.6436(5) -0.1614(8) 0.2624(3)
H18 H 0.6631 -0.2570 0.2235
C23 C 0.7139(4) -0.1512(7) 0.3600(3)
H19 H 0.7831 -0.2363 0.3872
C24 C 0.6796(3) -0.0126(5) 0.4165(2)
N1 N 0.9021(3) 0.1686(5) 0.8249(2)
H20 H 0.946(4) 0.181(7) 0.882(3)
N2 N 0.7408(4) -0.5492(6) 1.0452(2)
N3 N 0.7307(3) 0.0276(5) 0.5143(2)
H21 H 0.791(4) -0.030(6) 0.550(3)
O1 O 0.9621(3) 0.7772(4) 0.59040(19)
O2 O 0.8175(4) -0.6815(5) 1.0466(2)
O3 O 0.6563(4) -0.5549(7) 1.0870(3)
loop_
_geom_bond_atom_site_label_1
_geom_bond_atom_site_label_2
_geom_bond_site_symmetry_1
_geom_bond_site_symmetry_2
C1 H1 1_555 1_555
H2 C1 1_555 1_555
H3 C1 1_555 1_555
C2 C3 1_555 1_555
C3 H4 1_555 1_555
C4 C3 1_555 1_555
H5 C4 1_555 1_555
C5 C4 1_555 1_555
C6 C5 1_555 1_555
C7 C2 1_555 1_555
H6 C7 1_555 1_555
C8 C6 1_555 1_555
H7 C8 1_555 1_555
C9 C8 1_555 1_555
H8 C9 1_555 1_555
H9 C9 1_555 1_555
C10 C9 1_555 1_555
H10 C10 1_555 1_555
C11 C10 1_555 1_555
C12 C11 1_555 1_555
H11 C12 1_555 1_555
C13 C12 1_555 1_555
H12 C13 1_555 1_555
C14 C13 1_555 1_555
C15 C14 1_555 1_555
H13 C15 1_555 1_555
C16 C11 1_555 1_555
H14 C16 1_555 1_555
C17 C8 1_555 1_555
C18 C17 1_555 1_555
H15 C18 1_555 1_555
C19 C18 1_555 1_555
C20 C19 1_555 1_555
H16 C20 1_555 1_555
C21 C20 1_555 1_555
H17 C21 1_555 1_555
C22 C21 1_555 1_555
H18 C22 1_555 1_555
C23 C22 1_555 1_555
H19 C23 1_555 1_555
C24 C19 1_555 1_555
N1 C5 1_555 1_555
H20 N1 1_555 1_555
N2 C14 1_555 1_555
N3 C17 1_555 1_555
H21 N3 1_555 1_555
O1 C1 1_555 1_555
O2 N2 1_555 1_555
O3 N2 1_555 1_555
C2 O1 1_555 1_555
C6 C7 1_555 1_555
C10 N1 1_555 1_555
C15 C16 1_555 1_555
C23 C24 1_555 1_555
C24 N3 1_555 1_555

#END
