
#######################################################################
#
#                 Cambridge Crystallographic Data Centre
#                                CCDC 
#
#######################################################################
#
# If this CIF has been generated from an entry in the Cambridge 
# Structural Database, then it will include bibliographic, chemical, 
# crystal, experimental, refinement or atomic coordinate data resulting 
# from the CCDC's data processing and validation procedures.
#
#######################################################################

data_APGPAL01
_chemical_formula_moiety         'C18 H23 N3 O5'
_chemical_name_systematic        N-Acetylprolyl-glycyl-phenylalanine
_symmetry_cell_setting           orthorhombic
_symmetry_space_group_name_H-M   'P 21 21 21'
_symmetry_Int_Tables_number      19
_space_group_name_Hall           'P 2ac 2ab'
loop_
_symmetry_equiv_pos_site_id
_symmetry_equiv_pos_as_xyz
1 x,y,z
2 1/2-x,-y,1/2+z
3 1/2+x,1/2-y,-z
4 -x,1/2+y,1/2-z
_cell_length_a                   10.455(6)
_cell_length_b                   22.93(1)
_cell_length_c                   7.452(4)
_cell_angle_alpha                90
_cell_angle_beta                 90
_cell_angle_gamma                90
_cell_volume                     1786.49
_exptl_crystal_colour            colorless
_exptl_crystal_description       plate
_cell_formula_units_Z            4
_exptl_crystal_recrystallization_method 
'ethanol/acetone/petroleum ether (2:1:4)'
loop_
_atom_site_label
_atom_site_type_symbol
_atom_site_fract_x
_atom_site_fract_y
_atom_site_fract_z
O1 O -0.4517(5) -0.2328(2) 0.4292(6)
O2 O -0.2490(4) -0.2437(2) -0.0144(7)
O3 O -0.4234(4) -0.0717(2) -0.0843(6)
O4 O -0.1914(4) -0.0763(2) 0.2941(8)
O5 O -0.2802(4) 0.0088(2) 0.3463(7)
N1 N -0.4937(5) -0.3111(2) 0.2615(7)
N2 N -0.4618(5) -0.2273(2) 0.0009(7)
N3 N -0.4302(5) -0.1215(2) 0.1776(6)
C1 C -0.5210(6) -0.2747(3) 0.395(1)
C2 C -0.6408(7) -0.2870(3) 0.503(1)
C3 C -0.5693(6) -0.3627(3) 0.204(1)
C4 C -0.4983(7) -0.3827(3) 0.036(1)
C5 C -0.3607(7) -0.3672(3) 0.075(1)
C6 C -0.3692(5) -0.3084(2) 0.1735(8)
C7 C -0.3555(7) -0.2566(3) 0.0442(9)
C8 C -0.4562(6) -0.1739(2) -0.1069(8)
C9 C -0.4337(6) -0.1178(3) 0.0007(9)
C10 C -0.4197(6) -0.0686(3) 0.2872(9)
C11 C -0.4771(6) -0.0798(3) 0.4744(9)
C12 C -0.6214(6) -0.0783(3) 0.470(1)
C13 C -0.6937(7) -0.1251(3) 0.417(1)
C14 C -0.8265(9) -0.1189(5) 0.403(1)
C15 C -0.8860(9) -0.0668(5) 0.438(2)
C16 C -0.814(1) -0.0223(4) 0.495(2)
C17 C -0.6825(8) -0.0275(3) 0.514(1)
C18 C -0.2838(6) -0.0470(3) 0.308(1)
H1 H -0.6852 -0.3201 0.4587
H2 H -0.6202 -0.2934 0.6268
H3 H -0.6985 -0.2540 0.4982
H4 H -0.6571 -0.3528 0.1799
H5 H -0.5687 -0.3925 0.2940
H6 H -0.5302 -0.3602 -0.0647
H7 H -0.5131 -0.4223 0.0149
H8 H -0.3083 -0.3646 -0.0312
H9 H -0.3192 -0.3970 0.1509
H10 H -0.3043 -0.3058 0.2657
H11 H -0.5554 -0.2401 0.0490
H12 H -0.3866 -0.1787 -0.1950
H13 H -0.5333 -0.1701 -0.1796
H14 H -0.4355 -0.1602 0.2452
H15 H -0.4721 -0.0369 0.2300
H16 H -0.4479 -0.1186 0.5161
H17 H -0.4431 -0.0528 0.5635
H18 H -0.6548 -0.1634 0.3924
H19 H -0.8822 -0.1532 0.3650
H20 H -0.9745 -0.0657 0.4122
H21 H -0.8648 0.0122 0.5219
H22 H -0.6384 0.0061 0.5713
loop_
_geom_bond_atom_site_label_1
_geom_bond_atom_site_label_2
_geom_bond_site_symmetry_1
_geom_bond_site_symmetry_2
O1 C1 1_555 1_555
O2 C7 1_555 1_555
O3 C9 1_555 1_555
O4 C18 1_555 1_555
O5 C18 1_555 1_555
N1 C1 1_555 1_555
N2 C7 1_555 1_555
N3 C9 1_555 1_555
C1 C2 1_555 1_555
C2 H1 1_555 1_555
C3 N1 1_555 1_555
C4 C3 1_555 1_555
C5 C4 1_555 1_555
C6 N1 1_555 1_555
C7 C6 1_555 1_555
C8 N2 1_555 1_555
C9 C8 1_555 1_555
C10 N3 1_555 1_555
C11 C10 1_555 1_555
C12 C11 1_555 1_555
C13 C12 1_555 1_555
C14 C13 1_555 1_555
C15 C14 1_555 1_555
C16 C15 1_555 1_555
C17 C12 1_555 1_555
C18 C10 1_555 1_555
H2 C2 1_555 1_555
H3 C2 1_555 1_555
H4 C3 1_555 1_555
H5 C3 1_555 1_555
H6 C4 1_555 1_555
H7 C4 1_555 1_555
H8 C5 1_555 1_555
H9 C5 1_555 1_555
H10 C6 1_555 1_555
H11 N2 1_555 1_555
H12 C8 1_555 1_555
H13 C8 1_555 1_555
H14 N3 1_555 1_555
H15 C10 1_555 1_555
H16 C11 1_555 1_555
H17 C11 1_555 1_555
H18 C13 1_555 1_555
H19 C14 1_555 1_555
H20 C15 1_555 1_555
H21 C16 1_555 1_555
H22 C17 1_555 1_555
C5 C6 1_555 1_555
C16 C17 1_555 1_555

#END
