
#######################################################################
#
#                 Cambridge Crystallographic Data Centre
#                                CCDC 
#
#######################################################################
#
# If this CIF has been generated from an entry in the Cambridge 
# Structural Database, then it will include bibliographic, chemical, 
# crystal, experimental, refinement or atomic coordinate data resulting 
# from the CCDC's data processing and validation procedures.
#
#######################################################################

data_APHOUB
_chemical_formula_moiety         
'2(C24 H32 N2 O7),2(K1 1+),2(C1 N1 S1 1-),H2 O1'
_chemical_name_systematic        
'1,11-bis(2-Acetylaminophenoxy)-3,6,9-trioxa-undecane potassium thiocyanate monohydrate'
_symmetry_cell_setting           monoclinic
_symmetry_space_group_name_H-M   'P 21'
_symmetry_Int_Tables_number      4
_space_group_name_Hall           'P 2yb'
loop_
_symmetry_equiv_pos_site_id
_symmetry_equiv_pos_as_xyz
1 x,y,z
2 -x,1/2+y,-z
_cell_length_a                   11.044(3)
_cell_length_b                   18.310(4)
_cell_length_c                   14.485(4)
_cell_angle_alpha                90
_cell_angle_beta                 97.49(2)
_cell_angle_gamma                90
_cell_volume                     2904.1
_chemical_melting_point          111deg.C
_cell_formula_units_Z            2
loop_
_atom_site_label
_atom_site_type_symbol
_atom_site_fract_x
_atom_site_fract_y
_atom_site_fract_z
K1 K 0.69410 0.36680 0.04910
S1 S 0.47630 0.62830 -0.37950
C1 C 0.54010 0.57700 -0.29420
N1 N 0.58270 0.54070 -0.23500
O1 O 0.96440 0.24940 0.52330
C2 C 0.86160 0.23510 0.47930
N2 N 0.85760 0.20750 0.39210
C3 C 0.95750 0.19010 0.34220
C4 C 0.92040 0.17090 0.24680
O2 O 0.79580 0.17280 0.22210
C5 C 0.75060 0.16830 0.12470
C6 C 0.61890 0.17890 0.11510
O3 O 0.58680 0.24960 0.13980
C7 C 0.45890 0.25990 0.13620
C8 C 0.43330 0.33010 0.18040
O4 O 0.47710 0.38690 0.13100
C9 C 0.45200 0.45730 0.16260
C10 C 0.48650 0.51380 0.09220
O5 O 0.61370 0.51240 0.09570
C11 C 0.65290 0.56900 0.03860
C12 C 0.79300 0.56800 0.04500
O6 O 0.81910 0.50620 -0.01340
C13 C 0.94110 0.49680 -0.02710
C14 C 0.95520 0.46020 -0.11080
N3 N 0.84650 0.43780 -0.16550
C15 C 0.83480 0.38490 -0.23580
O7 O 0.92900 0.35620 -0.25960
C16 C 0.70910 0.36750 -0.27650
C17 C 1.07220 0.44840 -0.12690
C18 C 1.17150 0.47250 -0.06520
C19 C 1.15670 0.51090 0.01260
C20 C 1.03770 0.52340 0.03580
C21 C 0.74860 0.24770 0.51950
C22 C 1.08140 0.18950 0.37590
C23 C 1.16580 0.16890 0.32250
C24 C 1.13060 0.14850 0.23100
C25 C 1.00870 0.15010 0.19350
K2 K 1.11550 0.29230 0.66700
S2 S 1.49100 0.25650 0.87010
C26 C 1.34350 0.25930 0.85600
N4 N 1.23510 0.25890 0.84800
O8 O 0.86210 0.38440 0.20660
C27 C 0.95290 0.38170 0.26720
N5 N 0.94190 0.39500 0.36080
C28 C 0.83530 0.41710 0.39890
C29 C 0.85890 0.45760 0.48460
O9 O 0.98100 0.46740 0.51130
C30 C 1.01110 0.49860 0.60000
C31 C 1.14830 0.50290 0.61650
O10 O 1.20350 0.43520 0.62190
C32 C 1.33150 0.43010 0.62650
C33 C 1.37490 0.37010 0.56920
O11 O 1.32680 0.31080 0.58980
C34 C 1.38390 0.25370 0.54600
C35 C 1.38340 0.19460 0.61020
O12 O 1.25930 0.17630 0.62180
C36 C 1.25400 0.11610 0.68340
C37 C 1.12060 0.09310 0.67770
O13 O 1.05980 0.14380 0.73270
C38 C 0.93420 0.13460 0.73320
C39 C 0.88450 0.17340 0.80140
N6 N 0.97000 0.21450 0.86580
C40 C 0.94440 0.25940 0.93800
O14 O 0.83340 0.27160 0.94570
C41 C 1.05200 0.28800 0.99950
C42 C 0.75830 0.16670 0.80450
C43 C 0.68650 0.12170 0.74190
C44 C 0.73500 0.08410 0.67650
C45 C 0.86150 0.08750 0.67150
C46 C 1.07930 0.36410 0.24520
C47 C 0.71400 0.40020 0.36040
C48 C 0.62400 0.42720 0.41110
C49 C 0.64620 0.46990 0.49080
C50 C 0.76230 0.48260 0.52730
O15 O 0.55470 0.43200 -0.10280
loop_
_geom_bond_atom_site_label_1
_geom_bond_atom_site_label_2
_geom_bond_site_symmetry_1
_geom_bond_site_symmetry_2
S1 C1 1_555 1_555
C1 N1 1_555 1_555
O1 C2 1_555 1_555
C2 N2 1_555 1_555
N2 C3 1_555 1_555
C3 C4 1_555 1_555
C4 O2 1_555 1_555
O2 C5 1_555 1_555
C5 C6 1_555 1_555
C6 O3 1_555 1_555
O3 C7 1_555 1_555
C7 C8 1_555 1_555
C8 O4 1_555 1_555
O4 C9 1_555 1_555
C9 C10 1_555 1_555
C10 O5 1_555 1_555
O5 C11 1_555 1_555
C11 C12 1_555 1_555
C12 O6 1_555 1_555
O6 C13 1_555 1_555
C13 C14 1_555 1_555
C14 N3 1_555 1_555
N3 C15 1_555 1_555
C15 O7 1_555 1_555
C16 C15 1_555 1_555
C17 C14 1_555 1_555
C18 C17 1_555 1_555
C19 C18 1_555 1_555
C20 C13 1_555 1_555
C21 C2 1_555 1_555
C22 C3 1_555 1_555
C23 C22 1_555 1_555
C24 C23 1_555 1_555
C25 C4 1_555 1_555
S2 C26 1_555 1_555
C26 N4 1_555 1_555
O8 C27 1_555 1_555
C27 N5 1_555 1_555
N5 C28 1_555 1_555
C28 C29 1_555 1_555
C29 O9 1_555 1_555
O9 C30 1_555 1_555
C30 C31 1_555 1_555
C31 O10 1_555 1_555
O10 C32 1_555 1_555
C32 C33 1_555 1_555
C33 O11 1_555 1_555
O11 C34 1_555 1_555
C34 C35 1_555 1_555
C35 O12 1_555 1_555
O12 C36 1_555 1_555
C36 C37 1_555 1_555
C37 O13 1_555 1_555
O13 C38 1_555 1_555
C38 C39 1_555 1_555
C39 N6 1_555 1_555
N6 C40 1_555 1_555
C40 O14 1_555 1_555
C41 C40 1_555 1_555
C42 C39 1_555 1_555
C43 C42 1_555 1_555
C44 C43 1_555 1_555
C45 C38 1_555 1_555
C46 C27 1_555 1_555
C47 C28 1_555 1_555
C48 C47 1_555 1_555
C49 C48 1_555 1_555
C50 C29 1_555 1_555
C19 C20 1_555 1_555
C24 C25 1_555 1_555
C44 C45 1_555 1_555
C49 C50 1_555 1_555

#END
