
#######################################################################
#
#                 Cambridge Crystallographic Data Centre
#                                CCDC 
#
#######################################################################
#
# If this CIF has been generated from an entry in the Cambridge 
# Structural Database, then it will include bibliographic, chemical, 
# crystal, experimental, refinement or atomic coordinate data resulting 
# from the CCDC's data processing and validation procedures.
#
#######################################################################

data_APICIM
_chemical_name_common            'peganol peganin'
_chemical_formula_moiety         '0.85(C11 H12 N2 O1),0.15(C11 H12 N2 O1)'
_chemical_name_systematic        
'3-Hydroxypyrrolo(2,1-b)quinazoline 9-hydroxypyrrolo(2,1-b)quinazoline'
_symmetry_cell_setting           triclinic
_symmetry_space_group_name_H-M   'P -1'
_symmetry_Int_Tables_number      2
_space_group_name_Hall           '-P 1'
loop_
_symmetry_equiv_pos_site_id
_symmetry_equiv_pos_as_xyz
1 x,y,z
2 -x,-y,-z
_cell_length_a                   7.3490(15)
_cell_length_b                   8.4640(17)
_cell_length_c                   15.256(3)
_cell_angle_alpha                95.65(3)
_cell_angle_beta                 92.71(3)
_cell_angle_gamma                93.24(3)
_cell_volume                     941.499
_exptl_crystal_colour            'dark yellow'
_exptl_crystal_description       prism
_chemical_melting_point          '403 K'
_cell_formula_units_Z            4
_exptl_crystal_recrystallization_method ethanol
loop_
_atom_site_label
_atom_site_type_symbol
_atom_site_fract_x
_atom_site_fract_y
_atom_site_fract_z
O1 O 0.4782(2) -0.19573(17) 0.13835(10)
N1 N 0.3038(2) 0.09414(17) -0.00707(10)
C1 C 0.2340(2) -0.0503(2) -0.01405(12)
N2 N 0.2208(2) -0.14206(17) 0.05214(10)
C2 C 0.3222(3) -0.1069(2) 0.13504(12)
H1 H 0.2437 -0.1369 0.1816
C3 C 0.3652(2) 0.0686(2) 0.14944(12)
C4 C 0.4157(3) 0.1421(3) 0.23328(15)
H2 H 0.4188 0.0821 0.2812
C5 C 0.4609(3) 0.3024(3) 0.24589(19)
H3 H 0.4947 0.3503 0.3022
C6 C 0.4565(3) 0.3921(3) 0.1761(2)
H4 H 0.4866 0.5009 0.1850
C7 C 0.4077(3) 0.3215(2) 0.09314(17)
H5 H 0.4060 0.3832 0.0459
C8 C 0.3605(2) 0.1590(2) 0.07811(13)
C9 C 0.1495(3) -0.1379(3) -0.09663(14)
H6 H 0.2360 -0.1433 -0.1428
H7 H 0.0432 -0.0862 -0.1170
C10 C 0.0962(3) -0.3013(3) -0.07223(17)
H8 H -0.0310 -0.3298 -0.0896
H9 H 0.1704 -0.3794 -0.1016
C11 C 0.1265(3) -0.2963(3) 0.02538(17)
H10 H 0.0112 -0.3057 0.0534
H11 H 0.2006 -0.3817 0.0408
H23 H 0.563(4) -0.165(4) 0.101(2)
O2 O 0.5200(2) 1.2253(2) 0.47903(12)
N3 N 0.2607(2) 0.94930(17) 0.42269(10)
C12 C 0.2246(2) 1.0945(2) 0.44468(11)
N4 N 0.0802(2) 1.16649(18) 0.41675(10)
C13 C -0.0207(3) 0.9230(2) 0.32933(12)
C14 C -0.0629(3) 1.0906(3) 0.35766(14)
H12 H -0.0759 1.1490 0.3063
H13 H -0.1774 1.0910 0.3868
C15 C -0.1378(3) 0.8292(3) 0.26992(14)
H14 H -0.2437 0.8704 0.2483
C16 C -0.1004(3) 0.6758(3) 0.24225(15)
H15 H -0.1808 0.6136 0.2023
C17 C 0.0557(3) 0.6143(3) 0.27355(14)
H16 H 0.0819 0.5106 0.2546
C18 C 0.1730(3) 0.7061(2) 0.33279(13)
H17 H 0.2788 0.6640 0.3538
C19 C 0.1364(2) 0.8610(2) 0.36191(11)
C20 C 0.3451(3) 1.2104(2) 0.50633(14)
H18 H 0.3485 1.1737 0.5653
C21 C 0.2473(4) 1.3624(3) 0.5088(2)
H19 H 0.2230 1.3992 0.5691
H20 H 0.3220 1.4445 0.4850
C22 C 0.0724(3) 1.3287(2) 0.45472(15)
H21 H -0.0314 1.3399 0.4913
H22 H 0.0634 1.4002 0.4090
H24 H 0.581(5) 1.167(4) 0.518(3)
O3? O 0.4118(12) 1.1569(11) 0.5801(5)
loop_
_geom_bond_atom_site_label_1
_geom_bond_atom_site_label_2
_geom_bond_site_symmetry_1
_geom_bond_site_symmetry_2
O1 C2 1_555 1_555
O2 C20 1_555 1_555
N1 C1 1_555 1_555
C1 N2 1_555 1_555
N2 C2 1_555 1_555
C2 H1 1_555 1_555
C3 C2 1_555 1_555
C4 C3 1_555 1_555
H2 C4 1_555 1_555
C5 C4 1_555 1_555
H3 C5 1_555 1_555
C6 C5 1_555 1_555
H4 C6 1_555 1_555
C7 C6 1_555 1_555
H5 C7 1_555 1_555
C8 N1 1_555 1_555
C9 C1 1_555 1_555
H6 C9 1_555 1_555
H7 C9 1_555 1_555
C10 C9 1_555 1_555
H8 C10 1_555 1_555
H9 C10 1_555 1_555
C11 N2 1_555 1_555
H10 C11 1_555 1_555
H11 C11 1_555 1_555
N3 C12 1_555 1_555
C12 N4 1_555 1_555
N4 C14 1_555 1_555
C13 C14 1_555 1_555
C14 H12 1_555 1_555
H13 C14 1_555 1_555
C15 C13 1_555 1_555
H14 C15 1_555 1_555
C16 C15 1_555 1_555
H15 C16 1_555 1_555
C17 C16 1_555 1_555
H16 C17 1_555 1_555
C18 C17 1_555 1_555
H17 C18 1_555 1_555
C19 N3 1_555 1_555
C20 C12 1_555 1_555
H18 C20 1_555 1_555
C21 C20 1_555 1_555
H19 C21 1_555 1_555
H20 C21 1_555 1_555
C22 N4 1_555 1_555
H21 C22 1_555 1_555
H22 C22 1_555 1_555
H23 O1 1_555 1_555
H24 O2 1_555 1_555
C3 C8 1_555 1_555
C7 C8 1_555 1_555
C10 C11 1_555 1_555
C13 C19 1_555 1_555
C18 C19 1_555 1_555
C21 C22 1_555 1_555

#END
