
#######################################################################
#
#                 Cambridge Crystallographic Data Centre
#                                CCDC 
#
#######################################################################
#
# If this CIF has been generated from an entry in the Cambridge 
# Structural Database, then it will include bibliographic, chemical, 
# crystal, experimental, refinement or atomic coordinate data resulting 
# from the CCDC's data processing and validation procedures.
#
#######################################################################

data_APIPIA
_chemical_formula_moiety         'C19 H11 F3 N2 O2'
_chemical_name_systematic        
11-benzoyl-7-(trifluoromethyl)pyrido[1',2':3,4]imidazo[1,2-a]pyridin-5-ium-4-olate
_symmetry_cell_setting           triclinic
_symmetry_space_group_name_H-M   'P -1'
_symmetry_Int_Tables_number      2
_space_group_name_Hall           '-P 1'
loop_
_symmetry_equiv_pos_site_id
_symmetry_equiv_pos_as_xyz
1 x,y,z
2 -x,-y,-z
_cell_length_a                   7.5256(15)
_cell_length_b                   7.9629(16)
_cell_length_c                   13.641(3)
_cell_angle_alpha                103.84(3)
_cell_angle_beta                 91.68(3)
_cell_angle_gamma                98.51(3)
_cell_volume                     783.189
_exptl_crystal_colour            red
_exptl_crystal_description       BLOCK
_cell_formula_units_Z            2
loop_
_atom_site_label
_atom_site_type_symbol
_atom_site_fract_x
_atom_site_fract_y
_atom_site_fract_z
O1 O 0.2271(3) 0.9536(2) 0.58334(16)
N1 N 0.6643(3) 0.6959(3) 0.51464(16)
C1 C 0.8112(4) 0.6806(3) 0.5720(2)
H1 H 0.9011 0.6218 0.5417
F1 F 0.7016(4) 0.7890(3) 0.88079(15)
O2 O 0.8328(3) 0.4433(2) 0.37963(15)
N2 N 0.4085(3) 0.7851(3) 0.48384(16)
C2 C 0.8243(4) 0.7521(3) 0.6738(2)
H2 H 0.9237 0.7421 0.7129
F2 F 0.8626(3) 1.0204(3) 0.86176(15)
F3 F 0.5779(3) 1.0059(3) 0.86564(15)
C3 C 0.6893(4) 0.8408(3) 0.7200(2)
C4 C 0.5423(4) 0.8590(3) 0.6624(2)
H3 H 0.4519 0.9176 0.6923
C5 C 0.5338(4) 0.7881(3) 0.5598(2)
C6 C 0.2493(4) 0.8664(3) 0.4983(2)
C7 C 0.1387(4) 0.8323(3) 0.4079(2)
H4 H 0.0304 0.8758 0.4100
C8 C 0.1861(4) 0.7366(4) 0.3166(2)
H5 H 0.1073 0.7172 0.2597
C9 C 0.3456(4) 0.6680(3) 0.3058(2)
H6 H 0.3747 0.6069 0.2428
C10 C 0.4599(3) 0.6930(3) 0.3907(2)
C11 C 0.6251(3) 0.6390(3) 0.41057(19)
C12 C 0.7351(4) 0.5311(3) 0.3454(2)
C13 C 0.7339(4) 0.5310(4) 0.2367(2)
C14 C 0.7262(4) 0.6836(4) 0.2047(2)
H7 H 0.7127 0.7864 0.2514
C15 C 0.7386(5) 0.6820(5) 0.1033(2)
H8 H 0.7311 0.7833 0.0818
C16 C 0.7618(6) 0.5329(6) 0.0351(3)
H9 H 0.7717 0.5333 -0.0326
C17 C 0.7707(6) 0.3800(6) 0.0658(3)
H10 H 0.7859 0.2784 0.0186
C18 C 0.7571(5) 0.3788(4) 0.1665(2)
H11 H 0.7634 0.2766 0.1872
C19 C 0.7073(5) 0.9126(4) 0.8304(2)
loop_
_geom_bond_atom_site_label_1
_geom_bond_atom_site_label_2
_geom_bond_site_symmetry_1
_geom_bond_site_symmetry_2
O1 C6 1_555 1_555
N1 C1 1_555 1_555
C1 H1 1_555 1_555
F1 C19 1_555 1_555
O2 C12 1_555 1_555
N2 C5 1_555 1_555
C2 C1 1_555 1_555
H2 C2 1_555 1_555
F2 C19 1_555 1_555
F3 C19 1_555 1_555
C3 C2 1_555 1_555
C4 C3 1_555 1_555
H3 C4 1_555 1_555
C5 N1 1_555 1_555
C6 N2 1_555 1_555
C7 C6 1_555 1_555
H4 C7 1_555 1_555
C8 C7 1_555 1_555
H5 C8 1_555 1_555
C9 C8 1_555 1_555
H6 C9 1_555 1_555
C10 N2 1_555 1_555
C11 N1 1_555 1_555
C12 C11 1_555 1_555
C13 C12 1_555 1_555
C14 C13 1_555 1_555
H7 C14 1_555 1_555
C15 C14 1_555 1_555
H8 C15 1_555 1_555
C16 C15 1_555 1_555
H9 C16 1_555 1_555
C17 C16 1_555 1_555
H10 C17 1_555 1_555
C18 C13 1_555 1_555
H11 C18 1_555 1_555
C19 C3 1_555 1_555
C4 C5 1_555 1_555
C9 C10 1_555 1_555
C10 C11 1_555 1_555
C17 C18 1_555 1_555

#END
