
#######################################################################
#
#                 Cambridge Crystallographic Data Centre
#                                CCDC 
#
#######################################################################
#
# If this CIF has been generated from an entry in the Cambridge 
# Structural Database, then it will include bibliographic, chemical, 
# crystal, experimental, refinement or atomic coordinate data resulting 
# from the CCDC's data processing and validation procedures.
#
#######################################################################

data_APIQIB
_chemical_formula_moiety         'C78 H10 O1'
_chemical_name_systematic        Methoxy-benzyl-C70fullerene
_symmetry_cell_setting           monoclinic
_symmetry_space_group_name_H-M   'P 21/c'
_symmetry_Int_Tables_number      14
_space_group_name_Hall           '-P 2ybc'
loop_
_symmetry_equiv_pos_site_id
_symmetry_equiv_pos_as_xyz
1 x,y,z
2 -x,1/2+y,1/2-z
3 -x,-y,-z
4 x,1/2-y,1/2+z
_cell_length_a                   10.9318(8)
_cell_length_b                   17.8483(13)
_cell_length_c                   20.0007(15)
_cell_angle_alpha                90
_cell_angle_beta                 102.8830(10)
_cell_angle_gamma                90
_cell_volume                     3804.18
_cell_formula_units_Z            4
loop_
_atom_site_label
_atom_site_type_symbol
_atom_site_fract_x
_atom_site_fract_y
_atom_site_fract_z
C1 C -0.1363(2) 0.20913(12) 0.07087(13)
C2 C -0.1494(2) 0.12183(13) 0.08662(13)
C3 C -0.0413(2) 0.07320(13) 0.07232(13)
C4 C 0.0459(2) 0.09910(14) 0.03779(13)
C5 C 0.0570(2) 0.17878(14) 0.02375(12)
C6 C -0.0187(2) 0.22913(13) 0.04546(12)
C7 C 0.0324(2) 0.29835(12) 0.07546(12)
C8 C -0.0264(2) 0.31679(12) 0.12989(13)
C9 C -0.11533(19) 0.25922(12) 0.13424(13)
C10 C -0.12912(19) 0.23701(13) 0.19751(13)
C11 C -0.13845(19) 0.15699(13) 0.21197(13)
C12 C -0.13656(19) 0.10456(13) 0.16246(13)
C13 C -0.0619(2) 0.03828(12) 0.18104(14)
C14 C -0.0038(2) 0.01936(12) 0.12545(14)
C15 C 0.1169(2) -0.01168(13) 0.13992(15)
C16 C 0.2063(2) 0.01409(14) 0.10262(15)
C17 C 0.1722(2) 0.06898(15) 0.05357(14)
C18 C 0.2586(2) 0.12871(15) 0.04783(13)
C19 C 0.1879(2) 0.19628(15) 0.03024(12)
C20 C 0.2389(2) 0.26682(15) 0.05299(12)
C21 C 0.1577(2) 0.32060(13) 0.07674(13)
C22 C 0.2114(2) 0.37279(13) 0.12733(14)
C23 C 0.1534(2) 0.39118(12) 0.18236(14)
C24 C 0.0388(2) 0.35753(12) 0.18791(13)
C25 C 0.0231(2) 0.33400(12) 0.25540(13)
C26 C -0.0563(2) 0.27213(13) 0.25847(13)
C27 C -0.0712(2) 0.14548(14) 0.28173(13)
C28 C -0.0210(2) 0.21600(14) 0.31049(13)
C29 C 0.0934(2) 0.22073(14) 0.36037(12)
C30 C 0.1660(2) 0.15181(14) 0.37907(12)
C31 C 0.3892(2) 0.02585(13) 0.27667(15)
C32 C 0.3830(2) 0.13035(15) 0.08909(14)
C33 C 0.1242(2) 0.34586(13) 0.31299(13)
C34 C 0.4185(2) 0.07286(14) 0.14199(15)
C35 C 0.3293(2) 0.01784(14) 0.14927(15)
C36 C 0.3148(2) -0.00529(13) 0.21566(15)
C37 C -0.0031(2) 0.08049(14) 0.30006(14)
C38 C 0.1181(2) 0.08391(14) 0.34712(13)
C39 C 0.1835(2) -0.02295(12) 0.21019(15)
C40 C 0.1276(2) -0.00494(12) 0.26335(15)
C41 C 0.0017(2) 0.02565(13) 0.24867(14)
C42 C 0.3698(2) 0.26868(15) 0.08203(13)
C43 C 0.4401(2) 0.20150(16) 0.09955(14)
C44 C 0.5092(2) 0.09146(14) 0.20250(14)
C45 C 0.4945(2) 0.06829(13) 0.26846(14)
C46 C 0.3783(2) 0.10450(13) 0.37707(13)
C47 C 0.2985(2) 0.15728(14) 0.40013(12)
C48 C 0.1582(2) 0.28965(14) 0.36454(13)
C49 C 0.2361(2) 0.38463(12) 0.30595(14)
C50 C 0.2509(2) 0.40720(12) 0.24227(15)
C51 C 0.3288(2) 0.04480(13) 0.33287(14)
C52 C 0.1985(2) 0.03108(13) 0.32410(14)
C53 C 0.3465(2) 0.37765(13) 0.15328(14)
C54 C 0.4228(2) 0.32668(15) 0.13080(14)
C55 C 0.5295(2) 0.29508(15) 0.17895(14)
C56 C 0.5387(2) 0.21726(15) 0.15984(14)
C57 C 0.5720(2) 0.16329(15) 0.21003(15)
C58 C 0.5984(2) 0.18470(14) 0.28158(14)
C59 C 0.5889(2) 0.25883(14) 0.30025(14)
C60 C 0.5537(2) 0.31515(14) 0.24755(15)
C61 C 0.4724(2) 0.36876(13) 0.27070(14)
C62 C 0.3708(2) 0.39918(13) 0.22404(15)
C63 C 0.4575(2) 0.34551(13) 0.33762(14)
C64 C 0.5298(2) 0.27769(13) 0.35577(13)
C65 C 0.4815(2) 0.22050(14) 0.39018(12)
C66 C 0.3421(2) 0.35323(13) 0.35486(13)
C67 C 0.2930(2) 0.29386(14) 0.39040(12)
C68 C 0.4907(2) 0.14327(14) 0.37029(13)
C69 C 0.5480(2) 0.12559(13) 0.31765(14)
C70 C 0.3615(2) 0.22915(14) 0.40781(12)
C71 C -0.2545(2) 0.23618(13) 0.01446(13)
H1 H -0.2558 0.2089 -0.0288
H2 H -0.3318 0.2226 0.0298
C72 C -0.2568(2) 0.31936(13) 0.00003(12)
C73 C -0.1912(2) 0.35096(15) -0.04482(13)
H3 H -0.1440 0.3196 -0.0681
C74 C -0.1937(3) 0.42739(18) -0.05615(16)
H4 H -0.1464 0.4486 -0.0859
C75 C -0.2656(3) 0.47303(16) -0.02377(16)
H5 H -0.2673 0.5256 -0.0311
C76 C -0.3336(3) 0.44206(16) 0.01861(14)
H6 H -0.3853 0.4730 0.0394
C77 C -0.3279(2) 0.36609(14) 0.03148(13)
H7 H -0.3735 0.3455 0.0624
C78 C -0.3151(2) 0.02791(13) 0.06084(15)
H8 H -0.2519 -0.0107 0.0597
H9 H -0.3923 0.0159 0.0270
H10 H -0.3329 0.0297 0.1067
O1 O -0.26909(15) 0.09880(9) 0.04503(10)
loop_
_geom_bond_atom_site_label_1
_geom_bond_atom_site_label_2
_geom_bond_site_symmetry_1
_geom_bond_site_symmetry_2
C1 C2 1_555 1_555
C2 C3 1_555 1_555
C3 C4 1_555 1_555
C4 C5 1_555 1_555
C5 C6 1_555 1_555
C6 C1 1_555 1_555
C7 C6 1_555 1_555
C8 C7 1_555 1_555
C9 C1 1_555 1_555
C10 C9 1_555 1_555
C11 C10 1_555 1_555
C12 C2 1_555 1_555
C13 C12 1_555 1_555
C14 C3 1_555 1_555
C15 C14 1_555 1_555
C16 C15 1_555 1_555
C17 C4 1_555 1_555
C18 C17 1_555 1_555
C19 C5 1_555 1_555
C20 C19 1_555 1_555
C21 C7 1_555 1_555
C22 C21 1_555 1_555
C23 C22 1_555 1_555
C24 C8 1_555 1_555
C25 C24 1_555 1_555
C26 C10 1_555 1_555
C27 C11 1_555 1_555
C28 C26 1_555 1_555
C29 C28 1_555 1_555
C30 C29 1_555 1_555
C31 C36 1_555 1_555
C32 C18 1_555 1_555
C33 C25 1_555 1_555
C34 C32 1_555 1_555
C35 C16 1_555 1_555
C36 C35 1_555 1_555
C37 C27 1_555 1_555
C38 C30 1_555 1_555
C39 C15 1_555 1_555
C40 C39 1_555 1_555
C41 C13 1_555 1_555
C42 C20 1_555 1_555
C43 C32 1_555 1_555
C44 C34 1_555 1_555
C45 C31 1_555 1_555
C46 C47 1_555 1_555
C47 C30 1_555 1_555
C48 C29 1_555 1_555
C49 C33 1_555 1_555
C50 C23 1_555 1_555
C51 C31 1_555 1_555
C52 C38 1_555 1_555
C53 C22 1_555 1_555
C54 C42 1_555 1_555
C55 C54 1_555 1_555
C56 C43 1_555 1_555
C57 C44 1_555 1_555
C58 C57 1_555 1_555
C59 C58 1_555 1_555
C60 C55 1_555 1_555
C61 C60 1_555 1_555
C62 C50 1_555 1_555
C63 C61 1_555 1_555
C64 C59 1_555 1_555
C65 C64 1_555 1_555
C66 C49 1_555 1_555
C67 C48 1_555 1_555
C68 C46 1_555 1_555
C69 C45 1_555 1_555
C70 C47 1_555 1_555
C71 C1 1_555 1_555
H1 C71 1_555 1_555
H2 C71 1_555 1_555
C72 C71 1_555 1_555
C73 C72 1_555 1_555
H3 C73 1_555 1_555
C74 C73 1_555 1_555
H4 C74 1_555 1_555
C75 C74 1_555 1_555
H5 C75 1_555 1_555
C76 C75 1_555 1_555
H6 C76 1_555 1_555
C77 C72 1_555 1_555
H7 C77 1_555 1_555
C78 H8 1_555 1_555
H9 C78 1_555 1_555
H10 C78 1_555 1_555
O1 C2 1_555 1_555
C8 C9 1_555 1_555
C11 C12 1_555 1_555
C13 C14 1_555 1_555
C16 C17 1_555 1_555
C18 C19 1_555 1_555
C20 C21 1_555 1_555
C23 C24 1_555 1_555
C25 C26 1_555 1_555
C27 C28 1_555 1_555
C33 C48 1_555 1_555
C34 C35 1_555 1_555
C36 C39 1_555 1_555
C37 C38 1_555 1_555
C37 C41 1_555 1_555
C40 C41 1_555 1_555
C40 C52 1_555 1_555
C42 C43 1_555 1_555
C44 C45 1_555 1_555
C46 C51 1_555 1_555
C49 C50 1_555 1_555
C51 C52 1_555 1_555
C53 C54 1_555 1_555
C53 C62 1_555 1_555
C55 C56 1_555 1_555
C56 C57 1_555 1_555
C58 C69 1_555 1_555
C59 C60 1_555 1_555
C61 C62 1_555 1_555
C63 C64 1_555 1_555
C63 C66 1_555 1_555
C65 C68 1_555 1_555
C65 C70 1_555 1_555
C66 C67 1_555 1_555
C67 C70 1_555 1_555
C68 C69 1_555 1_555
C76 C77 1_555 1_555
C78 O1 1_555 1_555

#END
