
#######################################################################
#
#                 Cambridge Crystallographic Data Centre
#                                CCDC 
#
#######################################################################
#
# If this CIF has been generated from an entry in the Cambridge 
# Structural Database, then it will include bibliographic, chemical, 
# crystal, experimental, refinement or atomic coordinate data resulting 
# from the CCDC's data processing and validation procedures.
#
#######################################################################

data_APITEA
_chemical_formula_moiety         'C1 H3 N5 O1'
_chemical_name_systematic        1-amino-1,4-dihydro-5H-tetrazol-5-one
_symmetry_cell_setting           orthorhombic
_symmetry_space_group_name_H-M   'P b c a'
_symmetry_Int_Tables_number      61
_space_group_name_Hall           '-P 2ac 2ab'
loop_
_symmetry_equiv_pos_site_id
_symmetry_equiv_pos_as_xyz
1 x,y,z
2 1/2-x,-y,1/2+z
3 -x,1/2+y,1/2-z
4 1/2+x,1/2-y,-z
5 -x,-y,-z
6 1/2+x,y,1/2-z
7 x,1/2-y,1/2+z
8 1/2-x,1/2+y,z
_cell_length_a                   9.8873(7)
_cell_length_b                   5.5314(3)
_cell_length_c                   13.6734(9)
_cell_angle_alpha                90
_cell_angle_beta                 90
_cell_angle_gamma                90
_cell_volume                     747.807
_cell_formula_units_Z            8
loop_
_atom_site_label
_atom_site_type_symbol
_atom_site_fract_x
_atom_site_fract_y
_atom_site_fract_z
N1 N 0.96247(14) 0.9395(3) 0.65764(10)
N2 N 1.08195(15) 1.0555(3) 0.65180(12)
N3 N 1.15469(16) 0.9438(3) 0.58978(12)
N4 N 1.08236(15) 0.7556(3) 0.55565(12)
H1 H 1.1108 0.6560 0.5119
N5 N 0.86560(16) 1.0191(3) 0.72299(11)
H2 H 0.8528 0.9066 0.7686
H3 H 0.7884 1.0449 0.6912
O1 O 0.86817(13) 0.5970(3) 0.58754(9)
C1 C 0.96010(17) 0.7427(3) 0.59848(12)
loop_
_geom_bond_atom_site_label_1
_geom_bond_atom_site_label_2
_geom_bond_site_symmetry_1
_geom_bond_site_symmetry_2
N1 N2 1_555 1_555
N2 N3 1_555 1_555
N3 N4 1_555 1_555
N4 H1 1_555 1_555
N5 N1 1_555 1_555
H2 N5 1_555 1_555
H3 N5 1_555 1_555
O1 C1 1_555 1_555
C1 N1 1_555 1_555
N4 C1 1_555 1_555

#END
