
#######################################################################
#
#                 Cambridge Crystallographic Data Centre
#                                CCDC 
#
#######################################################################
#
# If this CIF has been generated from an entry in the Cambridge 
# Structural Database, then it will include bibliographic, chemical, 
# crystal, experimental, refinement or atomic coordinate data resulting 
# from the CCDC's data processing and validation procedures.
#
#######################################################################

data_APITAW
_chemical_formula_moiety         'C1 H7 N4 1+,C1 H2 N5 O1 1-'
_chemical_name_systematic        
'aminoguanidinium 4-amino-5-oxo-4,5-dihydrotetrazol-1-ide'
_symmetry_cell_setting           monoclinic
_symmetry_space_group_name_H-M   'P 21/n'
_symmetry_Int_Tables_number      14
_space_group_name_Hall           '-P 2yn'
loop_
_symmetry_equiv_pos_site_id
_symmetry_equiv_pos_as_xyz
1 x,y,z
2 1/2-x,1/2+y,1/2-z
3 -x,-y,-z
4 1/2+x,1/2-y,1/2+z
_cell_length_a                   8.5361(4)
_cell_length_b                   6.5988(3)
_cell_length_c                   13.2935(7)
_cell_angle_alpha                90
_cell_angle_beta                 103.3740(10)
_cell_angle_gamma                90
_cell_volume                     728.49
_cell_formula_units_Z            4
loop_
_atom_site_label
_atom_site_type_symbol
_atom_site_fract_x
_atom_site_fract_y
_atom_site_fract_z
C1 C 0.83071(12) 0.90573(16) 0.91484(8)
H1 H 1.011(2) 0.552(4) 0.8963(16)
H2 H 0.866(3) 0.531(4) 0.8101(18)
H3 H 0.937(2) 0.840(3) 0.8081(12)
N1 N 0.76457(12) 0.82258(15) 0.98504(7)
H4 H 0.7645 0.6930 0.9919
H5 H 0.7215 0.8979 1.0241
N2 N 0.90629(17) 0.58057(17) 0.87003(10)
N3 N 0.83169(13) 1.10566(15) 0.90139(8)
H6 H 0.7884 1.1839 0.9390
H7 H 0.8756 1.1565 0.8550
N4 N 0.89754(13) 0.79112(16) 0.85420(8)
N5 N 0.03395(12) 0.24442(16) 0.73341(7)
H8 H 0.120(2) -0.173(3) 0.6807(12)
H9 H -0.030(2) -0.131(3) 0.6125(14)
N6 N 0.07422(11) 0.10686(14) 0.66805(7)
C2 C 0.14889(12) 0.20131(17) 0.60069(8)
N7 N 0.03345(15) -0.09575(15) 0.67458(8)
N8 N 0.15349(13) 0.39879(15) 0.62583(8)
N9 N 0.08197(14) 0.41741(17) 0.70672(8)
O1 O 0.20125(11) 0.11499(13) 0.53034(7)
loop_
_geom_bond_atom_site_label_1
_geom_bond_atom_site_label_2
_geom_bond_site_symmetry_1
_geom_bond_site_symmetry_2
C1 N1 1_555 1_555
H1 N2 1_555 1_555
H2 N2 1_555 1_555
H3 N4 1_555 1_555
N1 H4 1_555 1_555
H5 N1 1_555 1_555
N2 N4 1_555 1_555
N3 C1 1_555 1_555
H6 N3 1_555 1_555
H7 N3 1_555 1_555
N4 C1 1_555 1_555
N5 N6 1_555 1_555
H8 N7 1_555 1_555
H9 N7 1_555 1_555
N6 C2 1_555 1_555
C2 N8 1_555 1_555
N7 N6 1_555 1_555
N8 N9 1_555 1_555
N9 N5 1_555 1_555
O1 C2 1_555 1_555

#END
