
#######################################################################
#
#                 Cambridge Crystallographic Data Centre
#                                CCDC 
#
#######################################################################
#
# If this CIF has been generated from an entry in the Cambridge 
# Structural Database, then it will include bibliographic, chemical, 
# crystal, experimental, refinement or atomic coordinate data resulting 
# from the CCDC's data processing and validation procedures.
#
#######################################################################

data_APITIE
_chemical_formula_moiety         'C1 H2 N5 O1 1-,H4 N1 1+'
_chemical_name_systematic        
'ammonium 4-amino-5-oxo-4,5-dihydrotetrazol-1-ide'
_symmetry_cell_setting           monoclinic
_symmetry_space_group_name_H-M   'P 21/c'
_symmetry_Int_Tables_number      14
_space_group_name_Hall           '-P 2ybc'
loop_
_symmetry_equiv_pos_site_id
_symmetry_equiv_pos_as_xyz
1 x,y,z
2 -x,1/2+y,1/2-z
3 -x,-y,-z
4 x,1/2-y,1/2+z
_cell_length_a                   10.6535(7)
_cell_length_b                   6.5711(5)
_cell_length_c                   6.9431(6)
_cell_angle_alpha                90
_cell_angle_beta                 101.531(2)
_cell_angle_gamma                90
_cell_volume                     476.243
_cell_formula_units_Z            4
loop_
_atom_site_label
_atom_site_type_symbol
_atom_site_fract_x
_atom_site_fract_y
_atom_site_fract_z
N1 N 0.8210(3) 0.6287(4) 0.8308(5)
N2 N 0.9113(3) 0.7745(4) 0.8517(6)
N3 N 0.8505(3) 0.9438(5) 0.8517(6)
N4 N 0.7224(3) 0.9126(5) 0.8315(5)
N5 N 0.8462(3) 0.4212(4) 0.8187(6)
H1 H 0.8901 0.4003 0.7242
H2 H 0.8922 0.3795 0.9332
O1 O 0.6000(2) 0.6135(4) 0.7986(4)
C1 C 0.7038(3) 0.7117(5) 0.8190(5)
N6 N 0.3945(3) 0.7545(5) 0.4740(4)
H3 H 0.4582 0.7805 0.4098
H4 H 0.3878 0.8613 0.5526
H5 H 0.4122 0.6409 0.5467
H6 H 0.3204 0.7387 0.3866
loop_
_geom_bond_atom_site_label_1
_geom_bond_atom_site_label_2
_geom_bond_site_symmetry_1
_geom_bond_site_symmetry_2
N1 N2 1_555 1_555
N2 N3 1_555 1_555
N3 N4 1_555 1_555
N4 C1 1_555 1_555
N5 N1 1_555 1_555
H1 N5 1_555 1_555
H2 N5 1_555 1_555
O1 C1 1_555 1_555
C1 N1 1_555 1_555
N6 H3 1_555 1_555
H4 N6 1_555 1_555
H5 N6 1_555 1_555
H6 N6 1_555 1_555

#END
