
#######################################################################
#
#                 Cambridge Crystallographic Data Centre
#                                CCDC 
#
#######################################################################
#
# If this CIF has been generated from an entry in the Cambridge 
# Structural Database, then it will include bibliographic, chemical, 
# crystal, experimental, refinement or atomic coordinate data resulting 
# from the CCDC's data processing and validation procedures.
#
#######################################################################

data_APIVAY
_chemical_name_common            
'dimethylguanidinium 4-amino-5-oxo-4,5-dihydrotetrazol-1-ide'
_chemical_formula_moiety         'C1 H8 N5 1+,C1 H2 N5 O1 1-'
_chemical_name_systematic        
'dihydrazinomethaniminium 4-amino-5-oxo-4,5-dihydrotetrazol-1-ide'
_symmetry_cell_setting           monoclinic
_symmetry_space_group_name_H-M   'P 21/n'
_symmetry_Int_Tables_number      14
_space_group_name_Hall           '-P 2yn'
loop_
_symmetry_equiv_pos_site_id
_symmetry_equiv_pos_as_xyz
1 x,y,z
2 1/2-x,1/2+y,1/2-z
3 -x,-y,-z
4 1/2+x,1/2-y,1/2+z
_cell_length_a                   7.0441(5)
_cell_length_b                   12.0324(11)
_cell_length_c                   10.1093(8)
_cell_angle_alpha                90
_cell_angle_beta                 105.964(2)
_cell_angle_gamma                90
_cell_volume                     823.794
_exptl_crystal_colour            white
_exptl_crystal_description       block
_cell_formula_units_Z            4
loop_
_atom_site_label
_atom_site_type_symbol
_atom_site_fract_x
_atom_site_fract_y
_atom_site_fract_z
N1 N 0.4008(3) 0.27227(16) 0.5936(2)
N2 N 0.4068(3) 0.38413(17) 0.5821(2)
N3 N 0.2308(3) 0.41322(17) 0.5116(2)
N4 N 0.1095(3) 0.32254(17) 0.4759(2)
N5 N 0.5691(3) 0.21366(16) 0.6645(2)
H1 H 0.5967 0.1629 0.6085
H2 H 0.5458 0.1800 0.7369
O1 O 0.1690(2) 0.13119(14) 0.52029(19)
C1 C 0.2184(3) 0.2321(2) 0.5281(3)
N6 N 0.2510(3) 0.39866(16) 0.9060(2)
H3 H 0.2113 0.4664 0.9035
H4 H 0.3720 0.3825 0.9464
N7 N -0.1272(3) 0.45305(17) 0.7801(2)
H5 H -0.2246 0.4568 0.8204
H6 H -0.1719 0.4743 0.6927
N8 N -0.0602(3) 0.34248(17) 0.7851(2)
H7 H -0.1403 0.2903 0.7476
N9 N 0.1866(3) 0.21427(17) 0.8519(2)
H8 H 0.3081 0.1976 0.8897
N10 N 0.0480(3) 0.13077(16) 0.7935(2)
H9 H 0.0519 0.0779 0.8559
H10 H 0.0783 0.1016 0.7210
C2 C 0.1259(3) 0.3192(2) 0.8475(3)
loop_
_geom_bond_atom_site_label_1
_geom_bond_atom_site_label_2
_geom_bond_site_symmetry_1
_geom_bond_site_symmetry_2
N1 N2 1_555 1_555
N2 N3 1_555 1_555
N3 N4 1_555 1_555
N4 C1 1_555 1_555
N5 N1 1_555 1_555
H1 N5 1_555 1_555
H2 N5 1_555 1_555
O1 C1 1_555 1_555
C1 N1 1_555 1_555
N6 H3 1_555 1_555
H4 N6 1_555 1_555
N7 H5 1_555 1_555
H6 N7 1_555 1_555
N8 N7 1_555 1_555
H7 N8 1_555 1_555
N9 H8 1_555 1_555
N10 N9 1_555 1_555
H9 N10 1_555 1_555
H10 N10 1_555 1_555
C2 N6 1_555 1_555
N8 C2 1_555 1_555
N9 C2 1_555 1_555

#END
