
#######################################################################
#
#                 Cambridge Crystallographic Data Centre
#                                CCDC 
#
#######################################################################
#
# If this CIF has been generated from an entry in the Cambridge 
# Structural Database, then it will include bibliographic, chemical, 
# crystal, experimental, refinement or atomic coordinate data resulting 
# from the CCDC's data processing and validation procedures.
#
#######################################################################

data_APIWED
_chemical_formula_moiety         'C9 H18 N3 1+,C2 F6 N1 O4 S2 1-'
_chemical_name_systematic        
'1,2,3-tris(dimethylamino)cyclopropenium bis((trifluoromethyl)sulfonyl)amide'
_symmetry_cell_setting           monoclinic
_symmetry_space_group_name_H-M   'P 21/c'
_symmetry_Int_Tables_number      14
_space_group_name_Hall           '-P 2ybc'
loop_
_symmetry_equiv_pos_site_id
_symmetry_equiv_pos_as_xyz
1 x,y,z
2 -x,1/2+y,1/2-z
3 -x,-y,-z
4 x,1/2-y,1/2+z
_cell_length_a                   20.8556(5)
_cell_length_b                   14.7302(4)
_cell_length_c                   18.6770(5)
_cell_angle_alpha                90
_cell_angle_beta                 101.824(2)
_cell_angle_gamma                90
_cell_volume                     5615.96
_exptl_crystal_description       plate
_cell_formula_units_Z            12
loop_
_atom_site_label
_atom_site_type_symbol
_atom_site_fract_x
_atom_site_fract_y
_atom_site_fract_z
S1 S -0.20884(3) 0.80215(4) 0.46185(3)
S2 S -0.29254(3) 0.91239(4) 0.52332(3)
O1 O -0.23896(8) 0.94412(12) 0.57813(9)
F1 F -0.29418(9) 0.76150(11) 0.59849(10)
O2 O -0.17783(9) 0.76875(13) 0.53207(9)
F2 F -0.13601(9) 0.94922(12) 0.48845(9)
O3 O -0.21902(9) 0.74139(13) 0.40074(10)
F3 F -0.35465(9) 0.86800(13) 0.62546(10)
O4 O -0.34389(9) 0.97410(13) 0.49392(11)
F4 F -0.17540(10) 0.92507(13) 0.37491(9)
F5 F -0.09669(9) 0.84305(15) 0.43177(11)
N1 N -0.27415(10) 0.85739(14) 0.45788(11)
F6 F -0.38534(9) 0.79290(14) 0.52592(10)
C1 C -0.33392(14) 0.82828(19) 0.57030(16)
C2 C -0.15156(14) 0.8858(2) 0.43796(15)
S3 S -0.35879(3) 0.31291(4) 0.28531(3)
S4 S -0.45250(3) 0.40727(4) 0.34353(3)
C3 C -0.49353(14) 0.3172(2) 0.38388(16)
O5 O -0.32725(10) 0.28186(14) 0.35582(10)
O6 O -0.50535(9) 0.46618(13) 0.31281(11)
O7 O -0.40344(9) 0.43987(13) 0.40241(9)
F7 F -0.45224(10) 0.25425(13) 0.41524(11)
N2 N -0.42817(10) 0.35877(14) 0.27905(11)
O8 O -0.36253(9) 0.25385(13) 0.22396(10)
F8 F -0.29742(8) 0.46858(12) 0.31772(10)
F9 F -0.53950(9) 0.27663(14) 0.33472(10)
F10 F -0.33298(9) 0.44737(13) 0.20310(10)
F11 F -0.52200(10) 0.35167(15) 0.43508(10)
F12 F -0.24899(8) 0.37465(13) 0.25911(12)
C4 C -0.30743(13) 0.4066(2) 0.26517(16)
S5 S 0.05551(3) 0.66427(4) 0.36139(3)
S6 S 0.13166(3) 0.56089(4) 0.28539(4)
F13 F -0.02463(9) 0.52628(12) 0.32411(9)
O9 O 0.02437(8) 0.70912(12) 0.29588(9)
O10 O 0.07652(9) 0.54712(13) 0.22680(10)
O11 O 0.07045(10) 0.71528(13) 0.42768(9)
F14 F 0.01754(10) 0.53311(14) 0.43797(9)
O12 O 0.17770(10) 0.48933(13) 0.30501(12)
F15 F -0.05795(9) 0.62733(15) 0.39043(12)
N3 N 0.11660(10) 0.60325(14) 0.35774(11)
C5 C -0.00538(14) 0.5825(2) 0.37924(15)
F16 F 0.14505(8) 0.72586(11) 0.23653(9)
F17 F 0.19665(9) 0.62277(13) 0.19096(9)
F18 F 0.23309(8) 0.66911(14) 0.30070(10)
C6 C 0.17965(13) 0.6501(2) 0.25250(15)
C7 C -0.08026(11) 0.56493(16) 0.15668(12)
N4 N -0.07882(10) 0.47589(14) 0.14815(11)
C8 C -0.10638(12) 0.64020(16) 0.18387(12)
C9 C -0.05884(12) 0.65055(16) 0.14355(12)
N5 N -0.14638(11) 0.67654(14) 0.22267(11)
C10 C -0.12135(13) 0.41717(17) 0.18020(15)
H1 H -0.0998 0.4017 0.2304
H2 H -0.1304 0.3615 0.1511
H3 H -0.1626 0.4487 0.1807
C11 C -0.19137(14) 0.6201(2) 0.25326(15)
H4 H -0.2339 0.6183 0.2193
H5 H -0.1968 0.6456 0.3001
H6 H -0.1737 0.5584 0.2609
N6 N -0.02122(11) 0.70468(15) 0.11306(12)
C12 C -0.02936(14) 0.43317(19) 0.11473(16)
H7 H -0.0035 0.4801 0.0964
H8 H -0.0508 0.3946 0.0740
H9 H -0.0004 0.3960 0.1512
C13 C -0.14950(15) 0.77491(19) 0.22987(17)
H10 H -0.1050 0.7994 0.2440
H11 H -0.1743 0.7901 0.2675
H12 H -0.1713 0.8013 0.1830
C14 C -0.02318(17) 0.8021(2) 0.12293(18)
H13 H -0.0660 0.8196 0.1324
H14 H -0.0161 0.8326 0.0786
H15 H 0.0113 0.8201 0.1645
C15 C 0.02698(14) 0.6687(2) 0.07441(15)
H16 H 0.0707 0.6733 0.1057
H17 H 0.0257 0.7037 0.0295
H18 H 0.0171 0.6049 0.0620
C16 C -0.42294(12) 0.81423(17) 0.34469(14)
N7 N -0.42459(11) 0.72466(15) 0.34776(13)
N8 N -0.49042(11) 0.94484(16) 0.38825(14)
C17 C -0.39621(12) 0.89389(18) 0.32477(15)
N9 N -0.35317(11) 0.93615(17) 0.29378(14)
C18 C -0.44794(12) 0.89691(17) 0.35985(14)
C19 C -0.53764(15) 0.8984(2) 0.42212(16)
H19 H -0.5687 0.8652 0.3847
H20 H -0.5614 0.9428 0.4458
H21 H -0.5148 0.8555 0.4588
C20 C -0.47761(14) 0.67970(19) 0.37297(17)
H22 H -0.5025 0.7245 0.3949
H23 H -0.4596 0.6338 0.4096
H24 H -0.5066 0.6504 0.3315
C21 C -0.37749(14) 0.6694(2) 0.32024(16)
H25 H -0.3969 0.6483 0.2708
H26 H -0.3654 0.6169 0.3524
H27 H -0.3383 0.7055 0.3189
C22 C -0.31100(15) 0.8842(3) 0.25652(17)
H28 H -0.2884 0.8372 0.2894
H29 H -0.2786 0.9247 0.2420
H30 H -0.3374 0.8556 0.2129
C23 C -0.35018(18) 1.0348(2) 0.2965(2)
H31 H -0.3905 1.0600 0.2669
H32 H -0.3125 1.0558 0.2772
H33 H -0.3456 1.0551 0.3473
C24 C -0.4945(2) 1.0420(2) 0.37525(19)
H34 H -0.4508 1.0689 0.3896
H35 H -0.5238 1.0692 0.4042
H36 H -0.5118 1.0535 0.3232
N10 N 0.25569(11) 0.76861(14) 0.47448(11)
N11 N 0.31980(10) 0.54468(14) 0.43565(11)
C25 C 0.22873(12) 0.60066(17) 0.50228(13)
C26 C 0.25521(12) 0.67885(17) 0.48026(12)
N12 N 0.18647(11) 0.55889(15) 0.53529(12)
C27 C 0.27922(12) 0.59521(17) 0.46505(13)
C28 C 0.21661(14) 0.82380(19) 0.51419(15)
H37 H 0.1743 0.7942 0.5129
H38 H 0.2094 0.8838 0.4913
H39 H 0.2398 0.8305 0.5651
C29 C 0.30939(15) 0.8130(2) 0.44964(18)
H40 H 0.3457 0.8230 0.4914
H41 H 0.2945 0.8715 0.4273
H42 H 0.3243 0.7745 0.4135
C30 C 0.37530(14) 0.5865(2) 0.41216(15)
H43 H 0.3606 0.6409 0.3833
H44 H 0.3941 0.5433 0.3822
H45 H 0.4086 0.6034 0.4552
C31 C 0.14598(14) 0.6095(2) 0.57559(15)
H46 H 0.1653 0.6696 0.5880
H47 H 0.1434 0.5768 0.6206
H48 H 0.1019 0.6164 0.5454
C32 C 0.17956(18) 0.4613(2) 0.53014(19)
H49 H 0.1823 0.4416 0.4807
H50 H 0.1370 0.4436 0.5403
H51 H 0.2147 0.4326 0.5659
C33 C 0.32274(16) 0.44761(19) 0.45016(16)
H52 H 0.3407 0.4371 0.5022
H53 H 0.3510 0.4185 0.4209
H54 H 0.2786 0.4218 0.4371
loop_
_geom_bond_atom_site_label_1
_geom_bond_atom_site_label_2
_geom_bond_site_symmetry_1
_geom_bond_site_symmetry_2
S1 O2 1_555 1_555
S2 O1 1_555 1_555
F1 C1 1_555 1_555
F2 C2 1_555 1_555
O3 S1 1_555 1_555
F3 C1 1_555 1_555
O4 S2 1_555 1_555
F4 C2 1_555 1_555
F5 C2 1_555 1_555
N1 S1 1_555 1_555
F6 C1 1_555 1_555
C1 S2 1_555 1_555
C2 S1 1_555 1_555
S3 O5 1_555 1_555
S4 C3 1_555 1_555
C3 F7 1_555 1_555
O6 S4 1_555 1_555
O7 S4 1_555 1_555
N2 S3 1_555 1_555
O8 S3 1_555 1_555
F8 C4 1_555 1_555
F9 C3 1_555 1_555
F10 C4 1_555 1_555
F11 C3 1_555 1_555
F12 C4 1_555 1_555
C4 S3 1_555 1_555
S5 O9 1_555 1_555
S6 O10 1_555 1_555
F13 C5 1_555 1_555
O11 S5 1_555 1_555
F14 C5 1_555 1_555
O12 S6 1_555 1_555
F15 C5 1_555 1_555
N3 S5 1_555 1_555
C5 S5 1_555 1_555
F16 C6 1_555 1_555
F17 C6 1_555 1_555
F18 C6 1_555 1_555
C6 S6 1_555 1_555
C7 N4 1_555 1_555
N4 C10 1_555 1_555
C8 C7 1_555 1_555
C9 C7 1_555 1_555
N5 C8 1_555 1_555
C10 H1 1_555 1_555
H2 C10 1_555 1_555
H3 C10 1_555 1_555
C11 N5 1_555 1_555
H4 C11 1_555 1_555
H5 C11 1_555 1_555
H6 C11 1_555 1_555
N6 C9 1_555 1_555
C12 N4 1_555 1_555
H7 C12 1_555 1_555
H8 C12 1_555 1_555
H9 C12 1_555 1_555
C13 N5 1_555 1_555
H10 C13 1_555 1_555
H11 C13 1_555 1_555
H12 C13 1_555 1_555
C14 N6 1_555 1_555
H13 C14 1_555 1_555
H14 C14 1_555 1_555
H15 C14 1_555 1_555
C15 N6 1_555 1_555
H16 C15 1_555 1_555
H17 C15 1_555 1_555
H18 C15 1_555 1_555
C16 N7 1_555 1_555
N7 C20 1_555 1_555
N8 C18 1_555 1_555
C17 C16 1_555 1_555
N9 C17 1_555 1_555
C18 C16 1_555 1_555
C19 N8 1_555 1_555
H19 C19 1_555 1_555
H20 C19 1_555 1_555
H21 C19 1_555 1_555
C20 H22 1_555 1_555
H23 C20 1_555 1_555
H24 C20 1_555 1_555
C21 N7 1_555 1_555
H25 C21 1_555 1_555
H26 C21 1_555 1_555
H27 C21 1_555 1_555
C22 N9 1_555 1_555
H28 C22 1_555 1_555
H29 C22 1_555 1_555
H30 C22 1_555 1_555
C23 N9 1_555 1_555
H31 C23 1_555 1_555
H32 C23 1_555 1_555
H33 C23 1_555 1_555
C24 N8 1_555 1_555
H34 C24 1_555 1_555
H35 C24 1_555 1_555
H36 C24 1_555 1_555
N10 C26 1_555 1_555
N11 C27 1_555 1_555
C25 C26 1_555 1_555
C26 C27 1_555 1_555
N12 C25 1_555 1_555
C27 C25 1_555 1_555
C28 N10 1_555 1_555
H37 C28 1_555 1_555
H38 C28 1_555 1_555
H39 C28 1_555 1_555
C29 N10 1_555 1_555
H40 C29 1_555 1_555
H41 C29 1_555 1_555
H42 C29 1_555 1_555
C30 N11 1_555 1_555
H43 C30 1_555 1_555
H44 C30 1_555 1_555
H45 C30 1_555 1_555
C31 N12 1_555 1_555
H46 C31 1_555 1_555
H47 C31 1_555 1_555
H48 C31 1_555 1_555
C32 N12 1_555 1_555
H49 C32 1_555 1_555
H50 C32 1_555 1_555
H51 C32 1_555 1_555
C33 N11 1_555 1_555
H52 C33 1_555 1_555
H53 C33 1_555 1_555
H54 C33 1_555 1_555
S2 N1 1_555 1_555
S4 N2 1_555 1_555
S6 N3 1_555 1_555
C8 C9 1_555 1_555
C17 C18 1_555 1_555

#END
