
#######################################################################
#
#                 Cambridge Crystallographic Data Centre
#                                CCDC 
#
#######################################################################
#
# If this CIF has been generated from an entry in the Cambridge 
# Structural Database, then it will include bibliographic, chemical, 
# crystal, experimental, refinement or atomic coordinate data resulting 
# from the CCDC's data processing and validation procedures.
#
#######################################################################

data_APIWOM
_chemical_formula_moiety         'C16 H24 N2 O6'
_chemical_name_systematic        
13-(4-Nitrophenyl)-1,4,7,10-tetraoxa-13-azacyclopentadecane
_symmetry_cell_setting           monoclinic
_symmetry_space_group_name_H-M   'P 21/c'
_symmetry_Int_Tables_number      14
_space_group_name_Hall           '-P 2ybc'
loop_
_symmetry_equiv_pos_site_id
_symmetry_equiv_pos_as_xyz
1 x,y,z
2 -x,1/2+y,1/2-z
3 -x,-y,-z
4 x,1/2-y,1/2+z
_cell_length_a                   24.361(7)
_cell_length_b                   15.160(4)
_cell_length_c                   8.906(2)
_cell_angle_alpha                90
_cell_angle_beta                 91.934(4)
_cell_angle_gamma                90
_cell_volume                     3287.23
_exptl_crystal_colour            yellow
_exptl_crystal_description       needle
_chemical_melting_point          '126-128 deg.C'
_cell_formula_units_Z            8
loop_
_atom_site_label
_atom_site_type_symbol
_atom_site_fract_x
_atom_site_fract_y
_atom_site_fract_z
O1 O 0.27661(11) 0.45530(19) 0.0586(3)
O2 O 0.20021(12) 0.6096(2) 0.0844(3)
O3 O 0.25376(11) 0.75895(19) 0.2043(3)
O4 O 0.35269(10) 0.67296(18) 0.3150(3)
O5 O 0.57741(12) 0.7026(2) -0.3572(4)
O6 O 0.52993(13) 0.6133(2) -0.4987(3)
N1 N 0.41384(13) 0.5536(2) 0.1127(4)
N2 N 0.53971(13) 0.6490(2) -0.3746(4)
C1 C 0.44316(15) 0.5791(2) -0.0074(4)
C2 C 0.48867(15) 0.6374(3) 0.0107(4)
C3 C 0.51935(15) 0.6613(3) -0.1105(4)
C4 C 0.50613(15) 0.6271(3) -0.2512(4)
C5 C 0.46140(16) 0.5715(3) -0.2731(5)
C6 C 0.43007(15) 0.5494(3) -0.1550(5)
C7 C 0.37006(16) 0.4877(3) 0.0970(5)
C8 C 0.31414(16) 0.5267(3) 0.0496(5)
C9 C 0.22434(17) 0.4697(3) -0.0141(5)
C10 C 0.18549(16) 0.5201(3) 0.0840(5)
C11 C 0.17411(16) 0.6609(3) 0.1937(5)
C12 C 0.19529(17) 0.7540(3) 0.1848(5)
C13 C 0.27107(17) 0.7553(3) 0.3579(5)
C14 C 0.33303(17) 0.7554(3) 0.3658(5)
C15 C 0.41069(16) 0.6733(3) 0.3080(5)
C16 C 0.42975(17) 0.5823(3) 0.2646(5)
H1 H 0.4994(15) 0.661(2) 0.101(4)
H2 H 0.5477(19) 0.698(3) -0.106(5)
H3 H 0.4518(18) 0.550(3) -0.369(5)
H4 H 0.403(2) 0.515(4) -0.171(7)
H5 H 0.3665(18) 0.460(3) 0.195(5)
H6 H 0.379(2) 0.437(3) 0.025(6)
H7 H 0.3067(19) 0.571(3) 0.111(5)
H8 H 0.3157(15) 0.546(2) -0.051(4)
H9 H 0.2123(17) 0.408(3) -0.029(5)
H10 H 0.2289(17) 0.501(3) -0.108(5)
H11 H 0.150(2) 0.509(3) 0.049(5)
H12 H 0.189(2) 0.491(3) 0.190(6)
H13 H 0.1841(15) 0.631(2) 0.289(4)
H14 H 0.1341(18) 0.658(3) 0.175(5)
H15 H 0.1857(18) 0.778(3) 0.090(5)
H16 H 0.1776(19) 0.795(3) 0.266(6)
H17 H 0.256(2) 0.703(4) 0.393(6)
H18 H 0.2594(15) 0.803(2) 0.410(4)
H19 H 0.345(2) 0.804(3) 0.307(6)
H20 H 0.345(2) 0.756(3) 0.483(6)
H21 H 0.4273(17) 0.690(3) 0.413(5)
H22 H 0.4218(18) 0.719(3) 0.235(5)
H23 H 0.467(3) 0.575(4) 0.281(7)
H24 H 0.4112(16) 0.539(3) 0.326(4)
O7 O 0.21445(12) 0.53607(19) 0.5161(4)
O8 O 0.31170(12) 0.4559(2) 0.6912(3)
O9 O 0.25585(12) 0.29240(19) 0.6930(4)
O10 O 0.14735(11) 0.30776(19) 0.7882(4)
O11 O -0.08097(12) 0.2942(2) 0.1180(4)
O12 O -0.03546(14) 0.3860(2) -0.0148(4)
N3 N 0.08227(13) 0.4429(2) 0.6184(4)
N4 N -0.04449(13) 0.3502(2) 0.1065(4)
C17 C 0.05194(15) 0.4206(2) 0.4945(5)
C18 C 0.00589(15) 0.3620(3) 0.5019(5)
C19 C -0.02472(15) 0.3394(3) 0.3758(5)
C20 C -0.01174(15) 0.3737(3) 0.2371(4)
C21 C 0.03202(15) 0.4317(3) 0.2237(5)
C22 C 0.06345(15) 0.4531(3) 0.3485(5)
C23 C 0.12771(15) 0.5056(3) 0.6094(5)
C24 C 0.18057(15) 0.4649(3) 0.5577(5)
C25 C 0.26636(16) 0.5114(3) 0.4600(5)
C26 C 0.31217(18) 0.5214(3) 0.5772(5)
C27 C 0.33530(18) 0.3745(3) 0.6457(6)
C28 C 0.31203(18) 0.3017(3) 0.7369(6)
C29 C 0.23059(18) 0.2255(3) 0.7751(5)
C30 C 0.16986(19) 0.2276(3) 0.7364(6)
C31 C 0.08925(17) 0.3099(3) 0.7793(6)
C32 C 0.07063(16) 0.4044(3) 0.7619(5)
H25 H -0.0018(17) 0.338(3) 0.611(5)
H26 H -0.056(2) 0.300(3) 0.390(6)
H27 H 0.0413(18) 0.452(3) 0.121(5)
H28 H 0.0942(17) 0.498(3) 0.340(5)
H29 H 0.1341(17) 0.534(3) 0.709(5)
H30 H 0.1181(18) 0.553(3) 0.538(5)
H31 H 0.2017(17) 0.431(3) 0.634(5)
H32 H 0.176(2) 0.428(4) 0.473(6)
H33 H 0.2755(19) 0.550(3) 0.374(5)
H34 H 0.2649(18) 0.445(3) 0.429(5)
H35 H 0.3524(18) 0.520(3) 0.534(5)
H36 H 0.306(2) 0.577(4) 0.635(6)
H37 H 0.375(2) 0.378(3) 0.663(6)
H38 H 0.3244(18) 0.360(3) 0.533(5)
H39 H 0.332(2) 0.248(4) 0.711(7)
H40 H 0.315(2) 0.312(3) 0.852(6)
H41 H 0.236(2) 0.231(4) 0.901(6)
H42 H 0.249(2) 0.172(3) 0.735(5)
H43 H 0.163(2) 0.221(3) 0.625(6)
H44 H 0.1535(18) 0.176(3) 0.790(5)
H45 H 0.0747(17) 0.285(3) 0.886(5)
H46 H 0.0764(18) 0.275(3) 0.701(5)
H47 H 0.0316(16) 0.406(2) 0.777(4)
H48 H 0.0894(17) 0.442(3) 0.841(5)
loop_
_geom_bond_atom_site_label_1
_geom_bond_atom_site_label_2
_geom_bond_site_symmetry_1
_geom_bond_site_symmetry_2
O1 C8 1_555 1_555
O2 C10 1_555 1_555
O3 C12 1_555 1_555
O4 C14 1_555 1_555
O5 N2 1_555 1_555
O6 N2 1_555 1_555
O7 C24 1_555 1_555
O8 C26 1_555 1_555
O9 C28 1_555 1_555
O10 C30 1_555 1_555
O11 N4 1_555 1_555
O12 N4 1_555 1_555
N1 C1 1_555 1_555
N2 C4 1_555 1_555
N3 C17 1_555 1_555
N4 C20 1_555 1_555
C1 C2 1_555 1_555
C2 C3 1_555 1_555
C3 C4 1_555 1_555
C4 C5 1_555 1_555
C5 C6 1_555 1_555
C6 C1 1_555 1_555
C7 N1 1_555 1_555
C8 C7 1_555 1_555
C9 O1 1_555 1_555
C10 C9 1_555 1_555
C11 O2 1_555 1_555
C12 C11 1_555 1_555
C13 O3 1_555 1_555
C14 C13 1_555 1_555
C15 O4 1_555 1_555
C16 N1 1_555 1_555
C17 C18 1_555 1_555
C18 C19 1_555 1_555
C19 C20 1_555 1_555
C20 C21 1_555 1_555
C21 C22 1_555 1_555
C22 C17 1_555 1_555
C23 N3 1_555 1_555
C24 C23 1_555 1_555
C25 O7 1_555 1_555
C26 C25 1_555 1_555
C27 O8 1_555 1_555
C28 C27 1_555 1_555
C29 O9 1_555 1_555
C30 C29 1_555 1_555
C31 O10 1_555 1_555
C32 N3 1_555 1_555
H1 C2 1_555 1_555
H2 C3 1_555 1_555
H3 C5 1_555 1_555
H4 C6 1_555 1_555
H5 C7 1_555 1_555
H6 C7 1_555 1_555
H7 C8 1_555 1_555
H8 C8 1_555 1_555
H9 C9 1_555 1_555
H10 C9 1_555 1_555
H11 C10 1_555 1_555
H12 C10 1_555 1_555
H13 C11 1_555 1_555
H14 C11 1_555 1_555
H15 C12 1_555 1_555
H16 C12 1_555 1_555
H17 C13 1_555 1_555
H18 C13 1_555 1_555
H19 C14 1_555 1_555
H20 C14 1_555 1_555
H21 C15 1_555 1_555
H22 C15 1_555 1_555
H23 C16 1_555 1_555
H24 C16 1_555 1_555
H25 C18 1_555 1_555
H26 C19 1_555 1_555
H27 C21 1_555 1_555
H28 C22 1_555 1_555
H29 C23 1_555 1_555
H30 C23 1_555 1_555
H31 C24 1_555 1_555
H32 C24 1_555 1_555
H33 C25 1_555 1_555
H34 C25 1_555 1_555
H35 C26 1_555 1_555
H36 C26 1_555 1_555
H37 C27 1_555 1_555
H38 C27 1_555 1_555
H39 C28 1_555 1_555
H40 C28 1_555 1_555
H41 C29 1_555 1_555
H42 C29 1_555 1_555
H43 C30 1_555 1_555
H44 C30 1_555 1_555
H45 C31 1_555 1_555
H46 C31 1_555 1_555
H47 C32 1_555 1_555
H48 C32 1_555 1_555
C15 C16 1_555 1_555
C31 C32 1_555 1_555

#END
