
#######################################################################
#
#                 Cambridge Crystallographic Data Centre
#                                CCDC 
#
#######################################################################
#
# If this CIF has been generated from an entry in the Cambridge 
# Structural Database, then it will include bibliographic, chemical, 
# crystal, experimental, refinement or atomic coordinate data resulting 
# from the CCDC's data processing and validation procedures.
#
#######################################################################

data_APOBUD
_chemical_formula_moiety         'C12 H11 N1 O4'
_chemical_name_systematic        
'(4-Hydroxy-1-methyl-2-oxo-1,2-dihydroquinolin-3-yl)acetic acid'
_symmetry_cell_setting           triclinic
_symmetry_space_group_name_H-M   'P -1'
_symmetry_Int_Tables_number      2
_space_group_name_Hall           '-P 1'
loop_
_symmetry_equiv_pos_site_id
_symmetry_equiv_pos_as_xyz
1 x,y,z
2 -x,-y,-z
_cell_length_a                   7.493(2)
_cell_length_b                   12.196(3)
_cell_length_c                   12.356(2)
_cell_angle_alpha                96.49(2)
_cell_angle_beta                 103.58(2)
_cell_angle_gamma                92.60(2)
_cell_volume                     1087.52
_exptl_crystal_colour            colorless
_exptl_crystal_description       block
_chemical_melting_point          '248-250deg. C(dec.)'
_cell_formula_units_Z            4
_exptl_crystal_recrystallization_method ethanol
loop_
_atom_site_label
_atom_site_type_symbol
_atom_site_fract_x
_atom_site_fract_y
_atom_site_fract_z
N1 N 0.27869(13) 0.06059(8) 0.58555(8)
O1 O 0.28820(13) 0.23884(7) 0.67124(7)
O2 O 0.04035(15) 0.15846(8) 0.27859(7)
H1 H 0.007(2) 0.2283(15) 0.2736(14)
O3 O 0.43330(13) 0.36931(7) 0.48023(9)
O4 O 0.25868(16) 0.50795(8) 0.50746(11)
H2 H 0.365(3) 0.5479(16) 0.5111(16)
C1 C 0.24703(15) -0.01481(9) 0.48767(10)
C2 C 0.29703(19) -0.12504(11) 0.48857(13)
H3 H 0.359(2) -0.1507(12) 0.5600(13)
C3 C 0.2626(2) -0.19680(12) 0.39006(14)
H4 H 0.294(2) -0.2721(13) 0.3900(12)
C4 C 0.1789(2) -0.16279(12) 0.28836(13)
H5 H 0.155(2) -0.2134(13) 0.2169(14)
C5 C 0.1314(2) -0.05535(11) 0.28557(12)
H6 H 0.074(2) -0.0302(14) 0.2153(15)
C6 C 0.16488(16) 0.02063(9) 0.38412(10)
C7 C 0.11867(16) 0.13428(10) 0.38208(9)
C8 C 0.15642(15) 0.20708(9) 0.47782(9)
C9 C 0.24504(15) 0.17105(10) 0.58352(9)
C10 C 0.11822(17) 0.32720(10) 0.48244(10)
H7 H 0.021(2) 0.3439(11) 0.4189(12)
H8 H 0.0701(19) 0.3494(11) 0.5486(12)
C11 C 0.28574(18) 0.40222(10) 0.49029(10)
C12 C 0.3504(3) 0.02269(14) 0.69487(13)
H9 H 0.286(2) -0.0503(15) 0.6912(14)
H10 H 0.321(3) 0.0776(17) 0.7509(17)
H11 H 0.481(3) 0.0169(16) 0.7131(17)
N2 N 0.83588(13) 0.47388(8) 1.11094(8)
O5 O 0.89017(14) 0.34224(7) 1.22790(7)
O6 O 0.51124(14) 0.23828(8) 0.87098(8)
H12 H 0.451(3) 0.2576(17) 0.8052(18)
O7 O 0.95117(13) 0.13094(7) 1.00599(8)
O8 O 0.77674(15) -0.00979(8) 1.03682(9)
H13 H 0.871(3) -0.0483(16) 1.0192(16)
C13 C 0.75891(15) 0.50654(10) 1.00645(10)
C14 C 0.79461(19) 0.61506(11) 0.98409(12)
H14 H 0.880(2) 0.6697(12) 1.0434(12)
C15 C 0.7155(2) 0.64587(13) 0.88078(13)
H15 H 0.745(2) 0.7215(14) 0.8687(13)
C16 C 0.5988(2) 0.57216(13) 0.79783(13)
H16 H 0.540(2) 0.5910(14) 0.7210(15)
C17 C 0.56406(19) 0.46480(12) 0.81740(11)
H17 H 0.485(2) 0.4122(12) 0.7578(12)
C18 C 0.64417(16) 0.42987(10) 0.92117(9)
C19 C 0.61700(16) 0.31797(10) 0.94532(9)
C20 C 0.70148(16) 0.28727(9) 1.04610(9)
C21 C 0.81418(16) 0.36653(10) 1.13296(9)
C22 C 0.67685(18) 0.16959(10) 1.06837(11)
H18 H 0.555(2) 0.1352(11) 1.0291(11)
H19 H 0.6920(19) 0.1638(11) 1.1465(12)
C23 C 0.81490(18) 0.09611(10) 1.03348(10)
C24 C 0.9453(2) 0.55585(13) 1.20173(13)
H20 H 0.878(2) 0.6155(14) 1.2159(12)
H21 H 0.963(3) 0.5206(18) 1.269(2)
H22 H 1.067(3) 0.5797(13) 1.1805(14)
loop_
_geom_bond_atom_site_label_1
_geom_bond_atom_site_label_2
_geom_bond_site_symmetry_1
_geom_bond_site_symmetry_2
N1 C1 1_555 1_555
O1 C9 1_555 1_555
O2 H1 1_555 1_555
O3 C11 1_555 1_555
O4 H2 1_555 1_555
C1 C2 1_555 1_555
C2 H3 1_555 1_555
C3 C2 1_555 1_555
H4 C3 1_555 1_555
C4 C3 1_555 1_555
H5 C4 1_555 1_555
C5 C4 1_555 1_555
H6 C5 1_555 1_555
C6 C1 1_555 1_555
C7 O2 1_555 1_555
C8 C7 1_555 1_555
C9 N1 1_555 1_555
C10 C8 1_555 1_555
H7 C10 1_555 1_555
H8 C10 1_555 1_555
C11 O4 1_555 1_555
C12 N1 1_555 1_555
H9 C12 1_555 1_555
H10 C12 1_555 1_555
H11 C12 1_555 1_555
N2 C13 1_555 1_555
O5 C21 1_555 1_555
O6 H12 1_555 1_555
O7 C23 1_555 1_555
O8 H13 1_555 1_555
C13 C14 1_555 1_555
C14 H14 1_555 1_555
C15 C14 1_555 1_555
H15 C15 1_555 1_555
C16 C15 1_555 1_555
H16 C16 1_555 1_555
C17 C16 1_555 1_555
H17 C17 1_555 1_555
C18 C13 1_555 1_555
C19 O6 1_555 1_555
C20 C19 1_555 1_555
C21 N2 1_555 1_555
C22 C20 1_555 1_555
H18 C22 1_555 1_555
H19 C22 1_555 1_555
C23 O8 1_555 1_555
C24 N2 1_555 1_555
H20 C24 1_555 1_555
H21 C24 1_555 1_555
H22 C24 1_555 1_555
C5 C6 1_555 1_555
C6 C7 1_555 1_555
C8 C9 1_555 1_555
C10 C11 1_555 1_555
C17 C18 1_555 1_555
C18 C19 1_555 1_555
C20 C21 1_555 1_555
C22 C23 1_555 1_555

#END
