
#######################################################################
#
#                 Cambridge Crystallographic Data Centre
#                                CCDC 
#
#######################################################################
#
# If this CIF has been generated from an entry in the Cambridge 
# Structural Database, then it will include bibliographic, chemical, 
# crystal, experimental, refinement or atomic coordinate data resulting 
# from the CCDC's data processing and validation procedures.
#
#######################################################################

data_APODUG
_chemical_formula_moiety         'C15 H24 O2'
_chemical_name_systematic        
4-(hydroxymethyl)-1,4-dimethyltricyclo[6.3.1.0^2,5^]dodec-9-en-8-ol
_symmetry_cell_setting           trigonal
_symmetry_space_group_name_H-M   'P 31'
_symmetry_Int_Tables_number      144
_space_group_name_Hall           'P 31'
loop_
_symmetry_equiv_pos_site_id
_symmetry_equiv_pos_as_xyz
1 x,y,z
2 -y,x-y,1/3+z
3 -x+y,-x,2/3+z
_cell_length_a                   13.7688(17)
_cell_length_b                   13.7688(17)
_cell_length_c                   6.1919(8)
_cell_angle_alpha                90
_cell_angle_beta                 90
_cell_angle_gamma                120
_cell_volume                     1016.59
_exptl_crystal_colour            colorless
_exptl_crystal_description       prism
_cell_formula_units_Z            3
loop_
_atom_site_label
_atom_site_type_symbol
_atom_site_fract_x
_atom_site_fract_y
_atom_site_fract_z
O1 O 0.40549(7) 0.66932(7) 0.34835(13)
H1 H 0.3537 0.6405 0.2567
O2 O 0.06636(6) 0.08353(6) 0.25761(12)
H2 H 0.0179 0.0578 0.3560
C1 C 0.29687(9) 0.11251(8) 0.52965(17)
H3 H 0.3066 0.0723 0.6443
C2 C 0.38667(9) 0.16330(9) 0.36055(18)
H4 H 0.3795 0.1037 0.2612
H5 H 0.4611 0.1965 0.4309
C3 C 0.37923(8) 0.25450(8) 0.22991(15)
C4 C 0.41508(8) 0.35742(8) 0.37822(16)
H6 H 0.4130 0.3318 0.5301
C5 C 0.52535(8) 0.47112(8) 0.35215(18)
H7 H 0.5516 0.4897 0.2009
H8 H 0.5866 0.4800 0.4486
C6 C 0.46159(8) 0.53086(8) 0.43542(16)
C7 C 0.48539(9) 0.63430(9) 0.30657(18)
H9 H 0.5613 0.6962 0.3431
H10 H 0.4844 0.6180 0.1506
C8 C 0.45391(9) 0.28375(9) 0.02936(17)
H11 H 0.5315 0.3103 0.0739
H12 H 0.4503 0.3427 -0.0528
H13 H 0.4276 0.2169 -0.0613
C9 C 0.20446(9) 0.12039(8) 0.52871(16)
H14 H 0.1559 0.0924 0.6501
C10 C 0.17219(8) 0.17143(8) 0.34540(16)
C11 C 0.14880(8) 0.26509(8) 0.41963(17)
H15 H 0.1201 0.2873 0.2936
H16 H 0.0877 0.2324 0.5279
C12 C 0.24631(8) 0.37221(8) 0.51734(16)
H17 H 0.2225 0.4285 0.5378
H18 H 0.2653 0.3546 0.6609
C13 C 0.34993(8) 0.42151(8) 0.37421(15)
H19 H 0.3287 0.4272 0.2223
C14 C 0.25631(8) 0.20470(8) 0.15820(15)
H20 H 0.2502 0.2603 0.0665
H21 H 0.2353 0.1375 0.0685
C15 C 0.47669(10) 0.55624(9) 0.67662(17)
H22 H 0.5532 0.6173 0.7044
H23 H 0.4637 0.4891 0.7557
H24 H 0.4229 0.5786 0.7249
loop_
_geom_bond_atom_site_label_1
_geom_bond_atom_site_label_2
_geom_bond_site_symmetry_1
_geom_bond_site_symmetry_2
O1 H1 1_555 1_555
O2 H2 1_555 1_555
C1 H3 1_555 1_555
C2 C1 1_555 1_555
H4 C2 1_555 1_555
H5 C2 1_555 1_555
C3 C2 1_555 1_555
C4 C3 1_555 1_555
H6 C4 1_555 1_555
C5 C4 1_555 1_555
H7 C5 1_555 1_555
H8 C5 1_555 1_555
C6 C5 1_555 1_555
C7 O1 1_555 1_555
H9 C7 1_555 1_555
H10 C7 1_555 1_555
C8 C3 1_555 1_555
H11 C8 1_555 1_555
H12 C8 1_555 1_555
H13 C8 1_555 1_555
C9 C1 1_555 1_555
H14 C9 1_555 1_555
C10 O2 1_555 1_555
C11 C10 1_555 1_555
H15 C11 1_555 1_555
H16 C11 1_555 1_555
C12 C11 1_555 1_555
H17 C12 1_555 1_555
H18 C12 1_555 1_555
C13 C4 1_555 1_555
H19 C13 1_555 1_555
C14 C3 1_555 1_555
H20 C14 1_555 1_555
H21 C14 1_555 1_555
C15 C6 1_555 1_555
H22 C15 1_555 1_555
H23 C15 1_555 1_555
H24 C15 1_555 1_555
C6 C7 1_555 1_555
C6 C13 1_555 1_555
C9 C10 1_555 1_555
C10 C14 1_555 1_555
C12 C13 1_555 1_555

#END
