
#######################################################################
#
#                 Cambridge Crystallographic Data Centre
#                                CCDC 
#
#######################################################################
#
# If this CIF has been generated from an entry in the Cambridge 
# Structural Database, then it will include bibliographic, chemical, 
# crystal, experimental, refinement or atomic coordinate data resulting 
# from the CCDC's data processing and validation procedures.
#
#######################################################################

data_APOGIX
_chemical_formula_moiety         'C13 H16 O5'
_chemical_name_systematic        
'ethyl 2-hydroxy-4-(4-methoxyphenyl)-4-oxobutanoate'
_symmetry_cell_setting           monoclinic
_symmetry_space_group_name_H-M   'P 21'
_symmetry_Int_Tables_number      4
_space_group_name_Hall           'P 2yb'
loop_
_symmetry_equiv_pos_site_id
_symmetry_equiv_pos_as_xyz
1 x,y,z
2 -x,1/2+y,-z
_cell_length_a                   5.0181(11)
_cell_length_b                   11.253(2)
_cell_length_c                   22.901(5)
_cell_angle_alpha                90
_cell_angle_beta                 90.618(4)
_cell_angle_gamma                90
_cell_volume                     1293.11
_cell_formula_units_Z            4
loop_
_atom_site_label
_atom_site_type_symbol
_atom_site_fract_x
_atom_site_fract_y
_atom_site_fract_z
O1 O 0.6972(6) 0.6430(3) 1.13319(12)
O2 O -0.0194(5) 0.4730(2) 0.92255(12)
O3 O -0.5432(5) 0.7218(3) 0.85863(13)
H1 H -0.6863 0.6959 0.8466
O4 O -0.3452(5) 0.5140(3) 0.78775(11)
O5 O -0.0055(5) 0.6326(3) 0.80728(11)
C1 C 0.7251(10) 0.7545(4) 1.1623(2)
H2 H 0.7904 0.8128 1.1354
H3 H 0.8486 0.7465 1.1943
H4 H 0.5550 0.7793 1.1767
C2 C 0.5217(7) 0.6348(3) 1.08856(16)
C3 C 0.3612(7) 0.7248(3) 1.06843(16)
H5 H 0.3690 0.7994 1.0858
C4 C 0.1877(7) 0.7045(3) 1.02221(15)
H6 H 0.0797 0.7662 1.0089
C5 C 0.1704(6) 0.5952(3) 0.99530(14)
C6 C 0.3353(7) 0.5043(3) 1.01626(17)
H7 H 0.3274 0.4297 0.9989
C7 C 0.5077(8) 0.5231(4) 1.06176(17)
H8 H 0.6163 0.4616 1.0750
C8 C -0.0130(7) 0.5702(3) 0.94584(15)
C9 C -0.1954(7) 0.6684(3) 0.92330(15)
H9 H -0.3055 0.6968 0.9550
H10 H -0.0881 0.7345 0.9099
C10 C -0.3731(7) 0.6256(3) 0.87369(15)
H11 H -0.4798 0.5578 0.8867
C11 C -0.2156(7) 0.5912(4) 0.82075(16)
C12 C -0.2225(10) 0.4806(6) 0.73272(18)
H12 H -0.2005 0.5506 0.7085
H13 H -0.0476 0.4469 0.7403
C13 C -0.3813(13) 0.3976(5) 0.7032(2)
H14 H -0.3723 0.3226 0.7232
H15 H -0.3183 0.3881 0.6641
H16 H -0.5626 0.4249 0.7022
O6 O 1.2397(6) 0.6254(2) 0.64107(11)
O7 O 0.5117(6) 0.4451(2) 0.43407(12)
O8 O -0.0218(5) 0.6898(3) 0.37119(13)
H17 H -0.1453 0.6640 0.3512
O9 O 0.1665(5) 0.4901(3) 0.29733(13)
O10 O 0.5200(5) 0.6002(3) 0.31742(11)
C14 C 1.2651(10) 0.7386(4) 0.66856(18)
H18 H 1.3228 0.7962 0.6405
H19 H 1.3936 0.7336 0.6998
H20 H 1.0958 0.7621 0.6839
C15 C 1.0603(7) 0.6141(4) 0.59658(15)
C16 C 0.8978(7) 0.7041(3) 0.57650(16)
H21 H 0.9068 0.7794 0.5932
C17 C 0.7206(7) 0.6812(3) 0.53112(15)
H22 H 0.6111 0.7421 0.5175
C18 C 0.7023(7) 0.5697(3) 0.50544(14)
C19 C 0.8693(7) 0.4808(3) 0.52666(16)
H23 H 0.8614 0.4054 0.5101
C20 C 1.0459(8) 0.5025(3) 0.57170(17)
H24 H 1.1559 0.4419 0.5854
C21 C 0.5166(7) 0.5436(3) 0.45636(16)
C22 C 0.3354(7) 0.6388(3) 0.43375(15)
H25 H 0.4420 0.7046 0.4198
H26 H 0.2270 0.6679 0.4655
C23 C 0.1556(7) 0.5964(3) 0.38510(15)
H27 H 0.0537 0.5275 0.3985
C24 C 0.3059(7) 0.5633(4) 0.33099(17)
C25 C 0.2743(10) 0.4611(8) 0.2400(2)
H28 H 0.3974 0.5232 0.2287
H29 H 0.3746 0.3876 0.2431
C26 C 0.0970(13) 0.4493(7) 0.1995(2)
H30 H 0.1824 0.4314 0.1633
H31 H -0.0020 0.5219 0.1956
H32 H -0.0220 0.3858 0.2095
loop_
_geom_bond_atom_site_label_1
_geom_bond_atom_site_label_2
_geom_bond_site_symmetry_1
_geom_bond_site_symmetry_2
O1 C1 1_555 1_555
O2 C8 1_555 1_555
O3 H1 1_555 1_555
O4 C11 1_555 1_555
O5 C11 1_555 1_555
C1 H2 1_555 1_555
H3 C1 1_555 1_555
H4 C1 1_555 1_555
C2 O1 1_555 1_555
C3 C2 1_555 1_555
H5 C3 1_555 1_555
C4 C3 1_555 1_555
H6 C4 1_555 1_555
C5 C4 1_555 1_555
C6 C5 1_555 1_555
H7 C6 1_555 1_555
C7 C2 1_555 1_555
H8 C7 1_555 1_555
C8 C5 1_555 1_555
C9 C8 1_555 1_555
H9 C9 1_555 1_555
H10 C9 1_555 1_555
C10 O3 1_555 1_555
H11 C10 1_555 1_555
C11 C10 1_555 1_555
C12 O4 1_555 1_555
H12 C12 1_555 1_555
H13 C12 1_555 1_555
C13 C12 1_555 1_555
H14 C13 1_555 1_555
H15 C13 1_555 1_555
H16 C13 1_555 1_555
O6 C14 1_555 1_555
O7 C21 1_555 1_555
O8 H17 1_555 1_555
O9 C24 1_555 1_555
O10 C24 1_555 1_555
C14 H18 1_555 1_555
H19 C14 1_555 1_555
H20 C14 1_555 1_555
C15 O6 1_555 1_555
C16 C15 1_555 1_555
H21 C16 1_555 1_555
C17 C16 1_555 1_555
H22 C17 1_555 1_555
C18 C17 1_555 1_555
C19 C18 1_555 1_555
H23 C19 1_555 1_555
C20 C15 1_555 1_555
H24 C20 1_555 1_555
C21 C18 1_555 1_555
C22 C21 1_555 1_555
H25 C22 1_555 1_555
H26 C22 1_555 1_555
C23 O8 1_555 1_555
H27 C23 1_555 1_555
C24 C23 1_555 1_555
C25 O9 1_555 1_555
H28 C25 1_555 1_555
H29 C25 1_555 1_555
C26 C25 1_555 1_555
H30 C26 1_555 1_555
H31 C26 1_555 1_555
H32 C26 1_555 1_555
C6 C7 1_555 1_555
C9 C10 1_555 1_555
C19 C20 1_555 1_555
C22 C23 1_555 1_555

#END
