
#######################################################################
#
#                 Cambridge Crystallographic Data Centre
#                                CCDC 
#
#######################################################################
#
# If this CIF has been generated from an entry in the Cambridge 
# Structural Database, then it will include bibliographic, chemical, 
# crystal, experimental, refinement or atomic coordinate data resulting 
# from the CCDC's data processing and validation procedures.
#
#######################################################################

data_APOHOE
_chemical_formula_moiety         'C35 H28 Cl1 N1 O5'
_chemical_name_systematic        
'(S)-t-butyl 3-(2-(4-chlorophenyl)-2-oxoethyl)-2-oxo-3-(10-oxo-9,10-dihydroanthr acen-9-yl)indoline-1-carboxylate'
_symmetry_cell_setting           monoclinic
_symmetry_space_group_name_H-M   'P 21'
_symmetry_Int_Tables_number      4
_space_group_name_Hall           'P 2yb'
loop_
_symmetry_equiv_pos_site_id
_symmetry_equiv_pos_as_xyz
1 x,y,z
2 -x,1/2+y,-z
_cell_length_a                   9.6372(4)
_cell_length_b                   15.6851(7)
_cell_length_c                   9.8491(4)
_cell_angle_alpha                90
_cell_angle_beta                 100.7964(11)
_cell_angle_gamma                90
_cell_volume                     1462.44
_exptl_crystal_colour            colorless
_exptl_crystal_description       block
_chemical_melting_point          '395 K'
_cell_formula_units_Z            2
_exptl_crystal_recrystallization_method 'Ethyl acetate/n-hexane'
loop_
_atom_site_label
_atom_site_type_symbol
_atom_site_fract_x
_atom_site_fract_y
_atom_site_fract_z
Cl1 Cl 1.73550(17) 1.24480(13) 0.8483(2)
O1 O 0.8069(4) 1.0881(2) 0.5648(4)
O2 O 0.6847(5) 0.9955(3) 0.3546(5)
O3 O 0.7403(6) 0.8567(3) 0.3555(6)
O4 O 1.1307(5) 1.0621(4) 0.5566(4)
O5 O 0.9160(6) 0.7586(3) 1.0042(5)
N1 N 0.8578(4) 0.9463(2) 0.5194(4)
C1 C 0.8671(5) 1.0227(3) 0.5972(5)
C2 C 0.9619(5) 1.0045(3) 0.7375(5)
C3 C 1.0225(5) 0.9181(3) 0.7148(5)
C4 C 0.9545(5) 0.8851(3) 0.5885(5)
C5 C 1.1263(6) 0.8712(4) 0.7982(6)
H1 H 1.1722 0.8927 0.8827
C6 C 1.0899(8) 0.7580(4) 0.6297(7)
H2 H 1.1126 0.7036 0.6032
C7 C 0.9870(7) 0.8045(4) 0.5462(6)
H3 H 0.9400 0.7823 0.4627
C8 C 1.1603(8) 0.7925(5) 0.7541(7)
H4 H 1.2321 0.7613 0.8084
C9 C 1.0709(6) 1.0750(3) 0.7774(5)
H5 H 1.0221 1.1277 0.7898
H6 H 1.1302 1.0607 0.8653
C10 C 1.5640(6) 1.2061(4) 0.7947(7)
C11 C 1.5223(7) 1.1803(4) 0.6613(7)
H7 H 1.5823 1.1865 0.5981
C12 C 1.1636(6) 1.0893(3) 0.6717(5)
C13 C 1.3441(7) 1.1661(4) 0.8489(6)
H8 H 1.2831 1.1630 0.9116
C14 C 1.4760(8) 1.2020(4) 0.8890(7)
H9 H 1.5047 1.2229 0.9782
C15 C 1.3889(6) 1.1447(4) 0.6207(6)
H10 H 1.3585 1.1277 0.5295
C16 C 1.3013(5) 1.1345(3) 0.7158(5)
C17 C 0.9333(5) 0.9885(3) 0.9923(5)
C18 C 0.8556(5) 1.0013(3) 0.8452(5)
H11 H 0.8082 1.0567 0.8415
C19 C 0.9498(5) 0.9058(3) 1.0466(5)
C20 C 0.9862(6) 1.0573(4) 1.0755(6)
H12 H 0.9774 1.1123 1.0394
C21 C 0.8838(6) 0.8321(3) 0.9684(6)
C22 C 1.0176(6) 0.8944(4) 1.1840(5)
H13 H 1.0289 0.8396 1.2207
C23 C 1.0682(7) 0.9638(5) 1.2666(6)
H14 H 1.1127 0.9555 1.3579
C24 C 1.0521(7) 1.0446(5) 1.2124(6)
H15 H 1.0855 1.0912 1.2674
C25 C 0.7647(6) 0.8516(3) 0.8525(6)
C26 C 0.7431(5) 0.9348(3) 0.8029(5)
C27 C 0.6194(6) 0.9537(4) 0.7122(6)
H16 H 0.6035 1.0090 0.6789
C28 C 0.5443(8) 0.8078(6) 0.7148(8)
H17 H 0.4786 0.7654 0.6833
C29 C 0.6663(8) 0.7884(4) 0.8054(7)
H18 H 0.6835 0.7325 0.8356
C30 C 0.5198(8) 0.8919(6) 0.6704(8)
H19 H 0.4354 0.9062 0.6122
C31 C 0.7560(6) 0.9273(3) 0.4003(6)
C32 C 0.5614(7) 0.9922(4) 0.2418(7)
C33 C 0.5997(10) 0.9557(10) 0.1150(8)
H20 H 0.6701 0.9909 0.0856
H21 H 0.5174 0.9534 0.0432
H22 H 0.6366 0.8992 0.1341
C34 C 0.4487(9) 0.9382(9) 0.2904(11)
H23 H 0.4667 0.8790 0.2763
H24 H 0.3574 0.9532 0.2387
H25 H 0.4509 0.9484 0.3869
C35 C 0.5128(13) 1.0820(6) 0.2294(11)
H26 H 0.5057 1.1035 0.3190
H27 H 0.4220 1.0849 0.1696
H28 H 0.5794 1.1157 0.1914
loop_
_geom_bond_atom_site_label_1
_geom_bond_atom_site_label_2
_geom_bond_site_symmetry_1
_geom_bond_site_symmetry_2
Cl1 C10 1_555 1_555
O1 C1 1_555 1_555
O2 C31 1_555 1_555
O3 C31 1_555 1_555
O4 C12 1_555 1_555
O5 C21 1_555 1_555
N1 C1 1_555 1_555
C1 C2 1_555 1_555
C2 C3 1_555 1_555
C3 C4 1_555 1_555
C4 N1 1_555 1_555
C5 C3 1_555 1_555
H1 C5 1_555 1_555
C6 H2 1_555 1_555
C7 C4 1_555 1_555
H3 C7 1_555 1_555
C8 C5 1_555 1_555
H4 C8 1_555 1_555
C9 C2 1_555 1_555
H5 C9 1_555 1_555
H6 C9 1_555 1_555
C10 C11 1_555 1_555
C11 H7 1_555 1_555
C12 C9 1_555 1_555
C13 H8 1_555 1_555
C14 C10 1_555 1_555
H9 C14 1_555 1_555
C15 C11 1_555 1_555
H10 C15 1_555 1_555
C16 C12 1_555 1_555
C17 C18 1_555 1_555
C18 C2 1_555 1_555
H11 C18 1_555 1_555
C19 C17 1_555 1_555
C20 C17 1_555 1_555
H12 C20 1_555 1_555
C21 C19 1_555 1_555
C22 C19 1_555 1_555
H13 C22 1_555 1_555
C23 C22 1_555 1_555
H14 C23 1_555 1_555
C24 C20 1_555 1_555
H15 C24 1_555 1_555
C25 C21 1_555 1_555
C26 C18 1_555 1_555
C27 C26 1_555 1_555
H16 C27 1_555 1_555
C28 H17 1_555 1_555
C29 C25 1_555 1_555
H18 C29 1_555 1_555
C30 C27 1_555 1_555
H19 C30 1_555 1_555
C31 N1 1_555 1_555
C32 O2 1_555 1_555
C33 C32 1_555 1_555
H20 C33 1_555 1_555
H21 C33 1_555 1_555
H22 C33 1_555 1_555
C34 C32 1_555 1_555
H23 C34 1_555 1_555
H24 C34 1_555 1_555
H25 C34 1_555 1_555
C35 C32 1_555 1_555
H26 C35 1_555 1_555
H27 C35 1_555 1_555
H28 C35 1_555 1_555
C6 C7 1_555 1_555
C6 C8 1_555 1_555
C13 C14 1_555 1_555
C13 C16 1_555 1_555
C15 C16 1_555 1_555
C23 C24 1_555 1_555
C25 C26 1_555 1_555
C28 C29 1_555 1_555
C28 C30 1_555 1_555

#END
