
#######################################################################
#
#                 Cambridge Crystallographic Data Centre
#                                CCDC 
#
#######################################################################
#
# If this CIF has been generated from an entry in the Cambridge 
# Structural Database, then it will include bibliographic, chemical, 
# crystal, experimental, refinement or atomic coordinate data resulting 
# from the CCDC's data processing and validation procedures.
#
#######################################################################

data_APOMEY
_chemical_formula_moiety         '2(C1 H6 N3 1+),C10 H6 O6 S2 2-,3(C6 H4 S2)'
_chemical_name_systematic        
'bis(Guanidinium) naphthalene-2,6-disulfonate tris(thieno[3,2-b]thiophene) clathrate'
_symmetry_cell_setting           monoclinic
_symmetry_space_group_name_H-M   'P 21/n'
_symmetry_Int_Tables_number      14
_space_group_name_Hall           '-P 2yn'
loop_
_symmetry_equiv_pos_site_id
_symmetry_equiv_pos_as_xyz
1 x,y,z
2 1/2-x,1/2+y,1/2-z
3 -x,-y,-z
4 1/2+x,1/2-y,1/2+z
_cell_length_a                   7.6803(5)
_cell_length_b                   20.1103(13)
_cell_length_c                   11.9293(8)
_cell_angle_alpha                90
_cell_angle_beta                 92.019(1)
_cell_angle_gamma                90
_cell_volume                     1841.37
_exptl_crystal_colour            colorless
_exptl_crystal_description       block
_cell_formula_units_Z            2
_exptl_crystal_recrystallization_method methanol
loop_
_atom_site_label
_atom_site_type_symbol
_atom_site_fract_x
_atom_site_fract_y
_atom_site_fract_z
C1 C 0.9009(5) 0.26379(17) 0.3438(3)
N1 N 0.9012(4) 0.27218(18) 0.4544(3)
H1 H 1.0006 0.2759 0.4930
H2 H 0.8021 0.2740 0.4891
N2 N 1.0501(4) 0.26103(16) 0.2915(3)
H3 H 1.0498 0.2568 0.2181
H4 H 1.1496 0.2634 0.3302
N3 N 0.7509(4) 0.26017(16) 0.2850(3)
H5 H 0.7508 0.2560 0.2116
H6 H 0.6516 0.2620 0.3196
C2 C 0.9301(4) 0.12124(17) 1.0147(3)
C3 C 1.0014(4) 0.08368(18) 0.9322(3)
H7 H 1.0346 0.1039 0.8642
C4 C 1.0254(4) 0.01458(18) 0.9486(3)
C5 C 1.1006(5) -0.02626(19) 0.8653(3)
H8 H 1.1359 -0.0070 0.7971
C6 C 0.8780(5) 0.09287(19) 1.1169(3)
H9 H 0.8284 0.1200 1.1726
S1 S 0.91223(10) 0.20840(4) 0.99758(7)
O1 O 1.0661(3) 0.23697(13) 1.0552(2)
O2 O 0.7511(3) 0.22803(13) 1.0501(2)
O3 O 0.9092(3) 0.22166(13) 0.8773(2)
C2B C 1.0699(4) -0.12124(17) 0.9853(3)
C3B C 0.9986(4) -0.08368(18) 1.0678(3)
H7B H 0.9654 -0.1039 1.1358
C4B C 0.9746(4) -0.01458(18) 1.0514(3)
C5B C 0.8994(5) 0.02626(19) 1.1347(3)
H8B H 0.8641 0.0070 1.2029
C6B C 1.1220(5) -0.09287(19) 0.8831(3)
H9B H 1.1716 -0.1200 0.8274
S1B S 1.08777(10) -0.20840(4) 1.00242(7)
O1B O 0.9339(3) -0.23697(13) 0.9448(2)
O2B O 1.2489(3) -0.22803(13) 0.9499(2)
O3B O 1.0908(3) -0.22166(13) 1.1227(2)
S2 S 0.02115(18) 0.44103(6) 0.33283(12)
S3 S 0.00666(15) 0.61657(6) 0.14903(9)
C7 C -0.0764(4) 0.42560(15) 0.2142(3)
H10 H -0.1198 0.3823 0.1976
C8 C -0.0969(5) 0.4784(2) 0.1337(4)
H11 H -0.1481 0.4766 0.0601
C9 C -0.0237(5) 0.5330(2) 0.1896(3)
C10 C 0.0459(5) 0.5259(2) 0.2952(3)
C11 C 0.1233(6) 0.5807(3) 0.3486(4)
H12 H 0.1783 0.5836 0.4210
C12 C 0.0991(4) 0.62938(17) 0.2692(3)
H13 H 0.1393 0.6730 0.2865
S4 S 1.00174(19) 0.09693(7) 0.44297(12)
C13 C 1.0362(5) 0.0117(2) 0.4515(3)
C14 C 1.1187(6) -0.0364(3) 0.3850(4)
H14 H 1.1765 -0.0272 0.3176
C15 C 0.8961(8) 0.0944(3) 0.5707(5)
H15 H 0.8525 0.1333 0.6050
S4B S 0.99826(19) -0.09693(7) 0.55703(12)
C13B C 0.9638(5) -0.0117(2) 0.5485(3)
C14B C 0.8813(6) 0.0364(3) 0.6150(4)
H14B H 0.8235 0.0272 0.6824
C15B C 1.1039(8) -0.0944(3) 0.4293(5)
H15B H 1.1475 -0.1333 0.3950
loop_
_geom_bond_atom_site_label_1
_geom_bond_atom_site_label_2
_geom_bond_site_symmetry_1
_geom_bond_site_symmetry_2
C1 N1 1_555 1_555
N1 H1 1_555 1_555
H2 N1 1_555 1_555
N2 C1 1_555 1_555
H3 N2 1_555 1_555
H4 N2 1_555 1_555
N3 C1 1_555 1_555
H5 N3 1_555 1_555
H6 N3 1_555 1_555
C2 C3 1_555 1_555
C3 H7 1_555 1_555
C4 C3 1_555 1_555
C5 C4 1_555 1_555
H8 C5 1_555 1_555
C6 C2 1_555 1_555
H9 C6 1_555 1_555
S1 C2 1_555 1_555
O1 S1 1_555 1_555
O2 S1 1_555 1_555
O3 S1 1_555 1_555
S2 C7 1_555 1_555
S3 C9 1_555 1_555
C7 H10 1_555 1_555
C8 C7 1_555 1_555
H11 C8 1_555 1_555
C9 C8 1_555 1_555
C10 S2 1_555 1_555
C11 C10 1_555 1_555
H12 C11 1_555 1_555
C12 S3 1_555 1_555
H13 C12 1_555 1_555
S4 C13 1_555 1_555
C13 C14 1_555 1_555
C14 H14 1_555 1_555
C15 S4 1_555 1_555
H15 C15 1_555 1_555
C2B C3B 1_555 1_555
C3B H7B 1_555 1_555
C4B C4 1_555 1_555
C5B C6 1_555 1_555
H8B C5B 1_555 1_555
C6B C5 1_555 1_555
H9B C6B 1_555 1_555
S1B C2B 1_555 1_555
O1B S1B 1_555 1_555
O2B S1B 1_555 1_555
O3B S1B 1_555 1_555
S4B C13B 1_555 1_555
C13B C13 1_555 1_555
C14B C15 1_555 1_555
H14B C14B 1_555 1_555
C15B C14 1_555 1_555
H15B C15B 1_555 1_555
C9 C10 1_555 1_555
C11 C12 1_555 1_555
C2B C6B 1_555 1_555
C3B C4B 1_555 1_555
C4B C5B 1_555 1_555
S4B C15B 1_555 1_555
C13B C14B 1_555 1_555

#END
