
#######################################################################
#
#                 Cambridge Crystallographic Data Centre
#                                CCDC 
#
#######################################################################
#
# If this CIF has been generated from an entry in the Cambridge 
# Structural Database, then it will include bibliographic, chemical, 
# crystal, experimental, refinement or atomic coordinate data resulting 
# from the CCDC's data processing and validation procedures.
#
#######################################################################

data_APOMOI
_chemical_formula_moiety         '2(C1 H6 N3 1+),C10 H6 O6 S2 2-,0.5(C8 H6 S2)'
_chemical_name_systematic        
"bis(Guanidinium) naphthalene-2,6-disulfonate hemikis(2,2'-bithiophene) clathrate"
_symmetry_cell_setting           triclinic
_symmetry_space_group_name_H-M   'P -1'
_symmetry_Int_Tables_number      2
_space_group_name_Hall           '-P 1'
loop_
_symmetry_equiv_pos_site_id
_symmetry_equiv_pos_as_xyz
1 x,y,z
2 -x,-y,-z
_cell_length_a                   7.1188(5)
_cell_length_b                   12.3016(9)
_cell_length_c                   13.0373(9)
_cell_angle_alpha                81.629(4)
_cell_angle_beta                 75.620(3)
_cell_angle_gamma                79.022(4)
_cell_volume                     1079.89
_exptl_crystal_colour            colorless
_exptl_crystal_description       needle
_cell_formula_units_Z            2
_exptl_crystal_recrystallization_method methanol
loop_
_atom_site_label
_atom_site_type_symbol
_atom_site_fract_x
_atom_site_fract_y
_atom_site_fract_z
S1 S 0.20405(8) 0.65530(4) 0.06180(4)
O1 O 0.1037(2) 0.58952(13) 0.01506(12)
O2 O 0.4168(2) 0.63351(13) 0.02342(11)
O3 O 0.1458(2) 0.64464(12) 0.17790(11)
C1 C 0.1286(3) 0.79583(18) 0.01846(17)
C2 C 0.0363(3) 0.86962(18) 0.09030(17)
H1 H 0.0100 0.8450 0.1642
C3 C -0.0211(3) 0.98319(18) 0.05562(16)
C4 C -0.1165(3) 1.06210(19) 0.12760(17)
H2 H -0.1436 1.0392 0.2019
C5 C 0.1707(3) 0.82905(18) -0.09260(17)
H3 H 0.2355 0.7764 -0.1418
S1A S -0.20405(8) 1.34470(4) -0.06180(4)
O1A O -0.1037(2) 1.41048(13) -0.01506(12)
O2A O -0.4168(2) 1.36649(13) -0.02342(11)
O3A O -0.1458(2) 1.35536(12) -0.17790(11)
C1A C -0.1286(3) 1.20417(18) -0.01846(17)
C2A C -0.0363(3) 1.13038(18) -0.09030(17)
H1A H -0.0100 1.1550 -0.1642
C3A C 0.0211(3) 1.01681(18) -0.05562(16)
C4A C 0.1165(3) 0.93790(19) -0.12760(17)
H2A H 0.1436 0.9608 -0.2019
C5A C -0.1707(3) 1.17095(18) 0.09260(17)
H3A H -0.2355 1.2236 0.1418
S2 S 0.64120(8) 0.30709(4) 0.42823(4)
O4 O 0.7282(2) 0.37904(13) 0.47587(12)
O5 O 0.4348(2) 0.30447(13) 0.47707(12)
O6 O 0.6778(2) 0.32993(13) 0.31286(11)
C6 C 0.7675(3) 0.17018(18) 0.45306(16)
C7 C 0.9263(3) 0.15436(19) 0.49803(16)
H4 H 0.9661 0.2161 0.5181
C8 C 1.0316(3) 0.04549(18) 0.51465(16)
C9 C 0.7028(3) 0.08022(19) 0.42362(17)
H5 H 0.5919 0.0929 0.3927
C10 C 1.1988(3) 0.02580(19) 0.55999(17)
H6 H 1.2428 0.0866 0.5791
S2A S 1.35880(8) -0.30709(4) 0.57177(4)
O4A O 1.2718(2) -0.37904(13) 0.52413(12)
O5A O 1.5652(2) -0.30447(13) 0.52293(12)
O6A O 1.3222(2) -0.32993(13) 0.68714(11)
C6A C 1.2325(3) -0.17018(18) 0.54694(16)
C7A C 1.0737(3) -0.15436(19) 0.50197(16)
H4A H 1.0339 -0.2161 0.4819
C8A C 0.9684(3) -0.04549(18) 0.48535(16)
C9A C 1.2972(3) -0.08022(19) 0.57638(17)
H5A H 1.4081 -0.0929 0.6073
C10A C 0.8012(3) -0.02580(19) 0.44001(17)
H6A H 0.7572 -0.0866 0.4209
C11 C 0.6357(3) 0.60974(18) 0.25282(17)
N1 N 0.7633(3) 0.61399(17) 0.31085(15)
H7 H 0.8893 0.6096 0.2807
H8 H 0.7217 0.6211 0.3793
N2 N 0.6975(3) 0.59902(17) 0.15008(14)
H9 H 0.6129 0.5954 0.1121
H10 H 0.8232 0.5955 0.1196
N3 N 0.4466(3) 0.61502(17) 0.29821(15)
H11 H 0.3625 0.6114 0.2599
H12 H 0.4049 0.6222 0.3667
C12 C 0.1907(3) 0.38379(17) 0.24021(17)
N4 N 0.3763(3) 0.38530(16) 0.19184(14)
H13 H 0.4125 0.3880 0.1220
H14 H 0.4641 0.3836 0.2294
N5 N 0.1383(3) 0.37839(17) 0.34625(14)
H15 H 0.2274 0.3759 0.3832
H16 H 0.0147 0.3773 0.3793
N6 N 0.0544(3) 0.38624(15) 0.18595(14)
H17 H 0.0872 0.3889 0.1161
H18 H -0.0688 0.3852 0.2199
S3 S 0.4940(2) -0.10430(11) 0.15314(12)
C13 C 0.384(3) -0.0233(15) 0.2551(11)
H19 H 0.3703 -0.0492 0.3284
C14 C 0.319(8) 0.083(2) 0.2177(14)
H20 H 0.2495 0.1393 0.2620
C15 C 0.3682(15) 0.0995(6) 0.1043(8)
H21 H 0.3373 0.1695 0.0654
C16 C 0.4629(3) 0.0067(2) 0.05643(18)
S3A S 0.5060(2) 0.10430(11) -0.15314(12)
C13A C 0.616(3) 0.0233(15) -0.2551(11)
H19A H 0.6297 0.0492 -0.3284
C14A C 0.681(8) -0.083(2) -0.2177(14)
H20A H 0.7505 -0.1393 -0.2620
C15A C 0.6318(15) -0.0995(6) -0.1043(8)
H21A H 0.6627 -0.1695 -0.0654
C16A C 0.5371(3) -0.0067(2) -0.05643(18)
C17? C 0.302(11) 0.077(3) 0.227(2)
C18? C 0.371(4) -0.035(2) 0.2357(17)
C19? C 0.4715(17) -0.0745(8) 0.1371(9)
H22? H 0.2396 0.1186 0.2861
H23? H 0.3526 -0.0808 0.3013
H24? H 0.5365 -0.1488 0.1290
S4? S 0.3436(5) 0.13168(17) 0.0970(2)
loop_
_geom_bond_atom_site_label_1
_geom_bond_atom_site_label_2
_geom_bond_site_symmetry_1
_geom_bond_site_symmetry_2
S1 O1 1_555 1_555
O2 S1 1_555 1_555
O3 S1 1_555 1_555
C1 S1 1_555 1_555
C2 C1 1_555 1_555
H1 C2 1_555 1_555
C3 C2 1_555 1_555
C4 C3 1_555 1_555
H2 C4 1_555 1_555
C5 C1 1_555 1_555
H3 C5 1_555 1_555
S2 O4 1_555 1_555
O5 S2 1_555 1_555
O6 S2 1_555 1_555
C6 S2 1_555 1_555
C7 C6 1_555 1_555
H4 C7 1_555 1_555
C8 C7 1_555 1_555
C9 C6 1_555 1_555
H5 C9 1_555 1_555
C10 C8 1_555 1_555
H6 C10 1_555 1_555
C11 N1 1_555 1_555
N1 H7 1_555 1_555
H8 N1 1_555 1_555
N2 C11 1_555 1_555
H9 N2 1_555 1_555
H10 N2 1_555 1_555
N3 C11 1_555 1_555
H11 N3 1_555 1_555
H12 N3 1_555 1_555
C12 N4 1_555 1_555
N4 H13 1_555 1_555
H14 N4 1_555 1_555
N5 C12 1_555 1_555
H15 N5 1_555 1_555
H16 N5 1_555 1_555
N6 C12 1_555 1_555
H17 N6 1_555 1_555
H18 N6 1_555 1_555
S3 C13 1_555 1_555
C13 H19 1_555 1_555
C14 C13 1_555 1_555
H20 C14 1_555 1_555
C15 C14 1_555 1_555
H21 C15 1_555 1_555
C16 S3 1_555 1_555
S1A O1A 1_555 1_555
O2A S1A 1_555 1_555
O3A S1A 1_555 1_555
C1A S1A 1_555 1_555
C2A C1A 1_555 1_555
H1A C2A 1_555 1_555
C3A C3 1_555 1_555
C4A C5 1_555 1_555
H2A C4A 1_555 1_555
C5A C4 1_555 1_555
H3A C5A 1_555 1_555
S2A O4A 1_555 1_555
O5A S2A 1_555 1_555
O6A S2A 1_555 1_555
C6A S2A 1_555 1_555
C7A C6A 1_555 1_555
H4A C7A 1_555 1_555
C8A C8 1_555 1_555
C9A C10 1_555 1_555
H5A C9A 1_555 1_555
C10A C9 1_555 1_555
H6A C10A 1_555 1_555
S3A C13A 1_555 1_555
C13A H19A 1_555 1_555
C14A C13A 1_555 1_555
H20A C14A 1_555 1_555
C15A C14A 1_555 1_555
H21A C15A 1_555 1_555
C16A C16 1_555 1_555
C15 C16 1_555 1_555
C1A C5A 1_555 1_555
C2A C3A 1_555 1_555
C3A C4A 1_555 1_555
C6A C9A 1_555 1_555
C7A C8A 1_555 1_555
C8A C10A 1_555 1_555
S3A C16A 1_555 1_555
C15A C16A 1_555 1_555

#END
