
#######################################################################
#
#                 Cambridge Crystallographic Data Centre
#                                CCDC 
#
#######################################################################
#
# If this CIF has been generated from an entry in the Cambridge 
# Structural Database, then it will include bibliographic, chemical, 
# crystal, experimental, refinement or atomic coordinate data resulting 
# from the CCDC's data processing and validation procedures.
#
#######################################################################

data_APONOJ
_chemical_formula_moiety         '2(C1 H6 N3 1+),C10 H6 O6 S2 2-,0.5(C12 H10)'
_chemical_name_systematic        
'bis(Guanidinium) naphthalene-2,6-disulfonate hemikis(biphenyl) clathrate'
_symmetry_cell_setting           triclinic
_symmetry_space_group_name_H-M   'P 1'
_symmetry_Int_Tables_number      1
_space_group_name_Hall           'P 1'
loop_
_symmetry_equiv_pos_site_id
_symmetry_equiv_pos_as_xyz
1 x,y,z
_cell_length_a                   7.1426(9)
_cell_length_b                   12.7521(15)
_cell_length_c                   13.1674(16)
_cell_angle_alpha                91.845(2)
_cell_angle_beta                 104.765(2)
_cell_angle_gamma                104.145(2)
_cell_volume                     1118.84
_exptl_crystal_colour            colorless
_exptl_crystal_description       rod
_cell_formula_units_Z            2
_exptl_crystal_recrystallization_method methanol
loop_
_atom_site_label
_atom_site_type_symbol
_atom_site_fract_x
_atom_site_fract_y
_atom_site_fract_z
S1 S 0.33003(3) 0.295626(16) 0.815491(15)
S2 S 0.84250(3) 0.977856(17) 0.946728(16)
C1 C 0.45540(12) 0.43445(7) 0.85991(7)
C2 C 0.72027(12) 0.84045(8) 0.90412(7)
C3 C 0.53181(12) 0.62555(8) 0.82718(6)
C4 C 0.64022(13) 0.65218(7) 0.93462(7)
C5 C 0.43881(13) 0.51072(8) 0.79183(7)
H1 H 0.3657 0.4893 0.7201
C6 C 0.73510(13) 0.76102(8) 0.97220(8)
H2 H 0.8092 0.7801 1.0441
C7 C 0.56259(14) 0.45969(7) 0.96645(7)
H3 H 0.5716 0.4039 1.0122
C8 C 0.65539(15) 0.56776(8) 1.00387(8)
H4 H 0.7296 0.5862 1.0758
C9 C 0.52030(15) 0.70608(9) 0.76020(7)
H5 H 0.4482 0.6873 0.6880
C10 C 0.60969(15) 0.81037(9) 0.79597(8)
H6 H 0.5996 0.8650 0.7490
O1 O 0.27696(9) 0.28554(5) 0.69959(5)
O2 O 0.89775(10) 0.98851(6) 1.06118(5)
O3 O 0.15278(9) 0.27135(6) 0.85502(5)
O4 O 1.02024(9) 1.00138(6) 0.90660(5)
O5 O 0.47204(10) 0.23411(5) 0.86159(5)
O6 O 0.70198(10) 1.04046(5) 0.90126(5)
S3 S -0.33361(3) 0.325536(17) 0.307344(16)
S4 S 0.50731(3) 0.947853(18) 0.455015(16)
C11 C -0.18516(13) 0.46201(8) 0.33035(7)
C12 C 0.35913(13) 0.81121(8) 0.42965(7)
C13 C 0.01176(12) 0.48557(7) 0.38271(7)
H7 H 0.0703 0.4287 0.4076
C14 C 0.04161(12) 0.67819(7) 0.36211(7)
C15 C -0.27718(14) 0.54270(8) 0.29281(8)
H8 H -0.4165 0.5244 0.2579
C16 C 0.13217(13) 0.59495(8) 0.40093(7)
C17 C 0.15896(14) 0.78680(8) 0.37658(7)
H9 H 0.0998 0.8429 0.3497
C18 C 0.34343(13) 0.62507(8) 0.45285(8)
H10 H 0.4079 0.5698 0.4760
C19 C 0.44989(14) 0.72702(8) 0.46915(8)
H11 H 0.5876 0.7448 0.5073
C20 C -0.16284(14) 0.65200(8) 0.30669(8)
H12 H -0.2234 0.7073 0.2789
O7 O -0.19926(9) 0.26024(5) 0.35567(5)
O8 O -0.40421(9) 0.30304(6) 0.19250(5)
O9 O 0.57923(10) 0.96984(6) 0.56925(5)
O10 O 0.37486(9) 1.01408(5) 0.40833(5)
O11 O -0.49547(9) 0.32014(6) 0.35594(5)
O12 O 0.67135(9) 0.95241(6) 0.40600(5)
C21 C 0.13710(14) 0.01955(7) 0.64329(7)
N1 N 0.08864(12) 0.01199(8) 0.53705(6)
H13 H -0.0345 0.0097 0.5008
H14 H 0.1801 0.0093 0.5039
N2 N -0.00396(11) 0.02331(7) 0.68994(6)
H15 H 0.0242 0.0294 0.7593
H16 H -0.1264 0.0197 0.6518
N3 N 0.32475(11) 0.02448(7) 0.69514(6)
H17 H 0.3607 0.0306 0.7646
H18 H 0.4134 0.0216 0.6601
C22 C 0.03819(12) 0.25293(7) 0.12298(7)
N4 N 0.08369(12) 0.26086(8) 0.22561(6)
H19 H 0.2076 0.2657 0.2624
H20 H -0.0094 0.2614 0.2582
N5 N 0.17609(12) 0.25196(7) 0.07172(6)
H21 H 0.3007 0.2567 0.1073
H22 H 0.1427 0.2465 0.0023
N6 N -0.14737(12) 0.24826(7) 0.06575(7)
H23 H -0.2413 0.2505 0.0973
H24 H -0.1760 0.2429 -0.0036
C23 C 0.46133(14) 0.03621(7) 0.13882(6)
N7 N 0.42233(12) 0.04267(7) 0.03265(6)
H25 H 0.3024 0.0457 -0.0040
H26 H 0.5170 0.0438 0.0008
N8 N 0.32018(12) 0.03471(7) 0.18348(6)
H27 H 0.3424 0.0301 0.2518
H28 H 0.2015 0.0383 0.1456
N9 N 0.64461(11) 0.03110(7) 0.19024(6)
H29 H 0.6749 0.0264 0.2587
H30 H 0.7356 0.0324 0.1558
C24 C 0.71020(12) 0.23758(8) 0.62865(8)
N10 N 0.85650(11) 0.23994(7) 0.57766(6)
H31 H 0.9765 0.2362 0.6134
H32 H 0.8302 0.2452 0.5093
N11 N 0.53189(12) 0.24120(7) 0.56890(6)
H33 H 0.4322 0.2383 0.5974
H34 H 0.5135 0.2465 0.5008
N12 N 0.74656(12) 0.22998(7) 0.72770(6)
H35 H 0.6512 0.2269 0.7595
H36 H 0.8671 0.2278 0.7643
C25 C 0.2007(2) 0.55429(10) 1.10113(10)
H37 H 0.1903 0.4899 1.1360
C26 C -0.11806(16) 0.62285(9) 0.60136(9)
H38 H -0.1608 0.6187 0.5265
C27 C 0.12876(12) 0.63813(8) 0.93808(8)
C28 C 0.2899(2) 0.74233(10) 1.10706(10)
H39 H 0.3393 0.8109 1.1480
C29 C -0.0611(2) 0.53766(10) 0.76015(10)
H40 H -0.0698 0.4718 0.7926
C30 C 0.04099(14) 0.63262(8) 0.82209(9)
C31 C 0.12303(18) 0.54693(9) 0.98810(10)
H41 H 0.0675 0.4777 0.9485
C32 C 0.0600(2) 0.72552(11) 0.76653(12)
H42 H 0.1323 0.7940 0.8049
C33 C -0.0184(2) 0.72202(11) 0.66306(13)
H43 H -0.0067 0.7878 0.6304
C34 C 0.2229(2) 0.73815(11) 0.99826(11)
H44 H 0.2410 0.8032 0.9646
C35 C 0.28623(17) 0.64974(11) 1.15664(10)
H45 H 0.3448 0.6540 1.2305
C36 C -0.1512(2) 0.53132(12) 0.65484(12)
H46 H -0.2364 0.4643 0.6182
loop_
_geom_bond_atom_site_label_1
_geom_bond_atom_site_label_2
_geom_bond_site_symmetry_1
_geom_bond_site_symmetry_2
S1 C1 1_555 1_555
S2 C2 1_555 1_555
C1 C5 1_555 1_555
C2 C6 1_555 1_555
C3 C4 1_555 1_555
C4 C6 1_555 1_555
C5 C3 1_555 1_555
H1 C5 1_555 1_555
C6 H2 1_555 1_555
C7 C1 1_555 1_555
H3 C7 1_555 1_555
C8 C4 1_555 1_555
H4 C8 1_555 1_555
C9 C3 1_555 1_555
H5 C9 1_555 1_555
C10 C2 1_555 1_555
H6 C10 1_555 1_555
O1 S1 1_555 1_555
O2 S2 1_555 1_555
O3 S1 1_555 1_555
O4 S2 1_555 1_555
O5 S1 1_555 1_555
O6 S2 1_555 1_555
S3 C11 1_555 1_555
S4 C12 1_555 1_555
C11 C13 1_555 1_555
C12 C17 1_555 1_555
C13 H7 1_555 1_555
C14 C16 1_555 1_555
C15 C11 1_555 1_555
H8 C15 1_555 1_555
C16 C13 1_555 1_555
C17 C14 1_555 1_555
H9 C17 1_555 1_555
C18 C16 1_555 1_555
H10 C18 1_555 1_555
C19 C12 1_555 1_555
H11 C19 1_555 1_555
C20 C14 1_555 1_555
H12 C20 1_555 1_555
O7 S3 1_555 1_555
O8 S3 1_555 1_555
O9 S4 1_555 1_555
O10 S4 1_555 1_555
O11 S3 1_555 1_555
O12 S4 1_555 1_555
C21 N1 1_555 1_555
N1 H13 1_555 1_555
H14 N1 1_555 1_555
N2 C21 1_555 1_555
H15 N2 1_555 1_555
H16 N2 1_555 1_555
N3 C21 1_555 1_555
H17 N3 1_555 1_555
H18 N3 1_555 1_555
C22 N4 1_555 1_555
N4 H19 1_555 1_555
H20 N4 1_555 1_555
N5 C22 1_555 1_555
H21 N5 1_555 1_555
H22 N5 1_555 1_555
N6 C22 1_555 1_555
H23 N6 1_555 1_555
H24 N6 1_555 1_555
C23 N7 1_555 1_555
N7 H25 1_555 1_555
H26 N7 1_555 1_555
N8 C23 1_555 1_555
H27 N8 1_555 1_555
H28 N8 1_555 1_555
N9 C23 1_555 1_555
H29 N9 1_555 1_555
H30 N9 1_555 1_555
C24 N10 1_555 1_555
N10 H31 1_555 1_555
H32 N10 1_555 1_555
N11 C24 1_555 1_555
H33 N11 1_555 1_555
H34 N11 1_555 1_555
N12 C24 1_555 1_555
H35 N12 1_555 1_555
H36 N12 1_555 1_555
C25 H37 1_555 1_555
C26 H38 1_555 1_555
C27 C30 1_555 1_555
C28 H39 1_555 1_555
C29 H40 1_555 1_555
C30 C29 1_555 1_555
C31 C25 1_555 1_555
H41 C31 1_555 1_555
C32 C30 1_555 1_555
H42 C32 1_555 1_555
C33 C26 1_555 1_555
H43 C33 1_555 1_555
C34 C27 1_555 1_555
H44 C34 1_555 1_555
C35 C25 1_555 1_555
H45 C35 1_555 1_555
C36 C26 1_555 1_555
H46 C36 1_555 1_555
C7 C8 1_555 1_555
C9 C10 1_555 1_555
C15 C20 1_555 1_555
C18 C19 1_555 1_555
C27 C31 1_555 1_555
C28 C34 1_555 1_555
C28 C35 1_555 1_555
C29 C36 1_555 1_555
C32 C33 1_555 1_555

#END
