
#######################################################################
#
#                 Cambridge Crystallographic Data Centre
#                                CCDC 
#
#######################################################################
#
# If this CIF has been generated from an entry in the Cambridge 
# Structural Database, then it will include bibliographic, chemical, 
# crystal, experimental, refinement or atomic coordinate data resulting 
# from the CCDC's data processing and validation procedures.
#
#######################################################################

data_APONID
_chemical_formula_moiety         '2(C1 H6 N3 1+),C14 H10 O6 S2 2-,C8 H6 S2'
_chemical_name_systematic        
"bis(Guanidinium) 4,4'-stilbenedisulfonate 2,2'-bithiophene clathrate"
_symmetry_cell_setting           triclinic
_symmetry_space_group_name_H-M   'P -1'
_symmetry_Int_Tables_number      2
_space_group_name_Hall           '-P 1'
loop_
_symmetry_equiv_pos_site_id
_symmetry_equiv_pos_as_xyz
1 x,y,z
2 -x,-y,-z
_cell_length_a                   6.1517(4)
_cell_length_b                   7.2099(5)
_cell_length_c                   16.0369(10)
_cell_angle_alpha                94.010(4)
_cell_angle_beta                 96.867(4)
_cell_angle_gamma                93.349(3)
_cell_volume                     702.852
_exptl_crystal_colour            brown
_exptl_crystal_description       plate
_cell_formula_units_Z            1
_exptl_crystal_recrystallization_method methanol
loop_
_atom_site_label
_atom_site_type_symbol
_atom_site_fract_x
_atom_site_fract_y
_atom_site_fract_z
S1 S 0.31130(6) 0.75525(6) 0.37730(2)
O1 O 0.39738(18) 0.94938(16) 0.38649(7)
O2 O 0.07575(17) 0.73845(16) 0.38334(7)
O3 O 0.43490(18) 0.63891(17) 0.43378(7)
C1 C 0.3443(3) 0.6706(2) 0.27345(10)
C2 C 0.1751(3) 0.5647(2) 0.22354(10)
H1 H 0.0405 0.5363 0.2449
C3 C 0.2042(3) 0.5006(3) 0.14223(11)
H2 H 0.0887 0.4276 0.1083
C4 C 0.4003(3) 0.5416(2) 0.10939(10)
C5 C 0.5703(3) 0.6453(3) 0.16143(10)
H3 H 0.7061 0.6721 0.1407
C6 C 0.5432(3) 0.7092(3) 0.24280(10)
H4 H 0.6598 0.7792 0.2775
C7 C 0.4190(3) 0.4760(3) 0.02184(11)
H5 H 0.3047 0.3915 -0.0061
S1A S 0.68870(6) 0.24475(6) -0.37730(2)
O1A O 0.60262(18) 0.05062(16) -0.38649(7)
O2A O 0.92425(17) 0.26155(16) -0.38334(7)
O3A O 0.56510(18) 0.36109(17) -0.43378(7)
C1A C 0.6557(3) 0.3294(2) -0.27345(10)
C2A C 0.8249(3) 0.4353(2) -0.22354(10)
H1A H 0.9595 0.4637 -0.2449
C3A C 0.7958(3) 0.4994(3) -0.14223(11)
H2A H 0.9113 0.5724 -0.1083
C4A C 0.5997(3) 0.4584(2) -0.10939(10)
C5A C 0.4297(3) 0.3547(3) -0.16143(10)
H3A H 0.2939 0.3279 -0.1407
C6A C 0.4568(3) 0.2908(3) -0.24280(10)
H4A H 0.3402 0.2208 -0.2775
C7A C 0.5810(3) 0.5240(3) -0.02184(11)
H5A H 0.6953 0.6085 0.0061
N1 N 0.8242(2) 0.3988(2) 0.41144(9)
H6 H 0.6805 0.3846 0.4090
H7 H 0.8892 0.5109 0.4118
N2 N 1.1596(2) 0.2736(2) 0.41667(9)
H8 H 1.2394 0.1761 0.4178
H9 H 1.2233 0.3862 0.4170
N3 N 0.8493(2) 0.0807(2) 0.41397(9)
H10 H 0.9302 -0.0161 0.4151
H11 H 0.7060 0.0643 0.4125
C8 C 0.9432(3) 0.2507(2) 0.41448(9)
C9 C 0.9801(3) 0.0208(3) 0.04345(11)
S2 S 0.7459(3) 0.1067(3) 0.07157(17)
C10 C 1.133(2) -0.0094(17) 0.1137(6)
H12 H 1.2714 -0.0603 0.1115
C11 C 1.0397(11) 0.0518(8) 0.1910(6)
H13 H 1.1176 0.0491 0.2457
C12 C 0.8347(12) 0.1120(8) 0.1780(3)
H14 H 0.7515 0.1516 0.2214
C9A C 1.0199(3) -0.0208(3) -0.04345(11)
S2A S 1.2541(3) -0.1067(3) -0.07157(17)
C10A C 0.867(2) 0.0094(17) -0.1137(6)
H12A H 0.7286 0.0603 -0.1115
C11A C 0.9603(11) -0.0518(8) -0.1910(6)
H13A H 0.8824 -0.0491 -0.2457
C12A C 1.1653(12) -0.1120(8) -0.1780(3)
H14A H 1.2485 -0.1516 -0.2214
C13? C 0.785(2) 0.0913(19) 0.0638(10)
C14? C 0.7983(19) 0.1224(11) 0.1548(4)
C15? C 0.9865(17) 0.0689(12) 0.1976(9)
H15? H 0.6634 0.1151 0.0246
H16? H 0.6854 0.1755 0.1821
H17? H 1.0175 0.0718 0.2572
S3? S 1.1584(8) -0.0043(6) 0.12708(17)
loop_
_geom_bond_atom_site_label_1
_geom_bond_atom_site_label_2
_geom_bond_site_symmetry_1
_geom_bond_site_symmetry_2
S1 O1 1_555 1_555
O2 S1 1_555 1_555
O3 S1 1_555 1_555
C1 S1 1_555 1_555
C2 C1 1_555 1_555
H1 C2 1_555 1_555
C3 C2 1_555 1_555
H2 C3 1_555 1_555
C4 C3 1_555 1_555
C5 C4 1_555 1_555
H3 C5 1_555 1_555
C6 C1 1_555 1_555
H4 C6 1_555 1_555
C7 C4 1_555 1_555
H5 C7 1_555 1_555
N1 H6 1_555 1_555
H7 N1 1_555 1_555
N2 H8 1_555 1_555
H9 N2 1_555 1_555
N3 H10 1_555 1_555
H11 N3 1_555 1_555
C8 N1 1_555 1_555
C9 S2 1_555 1_555
S2 C12 1_555 1_555
C10 C9 1_555 1_555
H12 C10 1_555 1_555
C11 C10 1_555 1_555
H13 C11 1_555 1_555
C12 C11 1_555 1_555
H14 C12 1_555 1_555
S1A O1A 1_555 1_555
O2A S1A 1_555 1_555
O3A S1A 1_555 1_555
C1A S1A 1_555 1_555
C2A C1A 1_555 1_555
H1A C2A 1_555 1_555
C3A C2A 1_555 1_555
H2A C3A 1_555 1_555
C4A C3A 1_555 1_555
C5A C4A 1_555 1_555
H3A C5A 1_555 1_555
C6A C1A 1_555 1_555
H4A C6A 1_555 1_555
C7A C7 1_555 1_555
H5A C7A 1_555 1_555
C9A C9 1_555 1_555
S2A C9A 1_555 1_555
C10A C9A 1_555 1_555
H12A C10A 1_555 1_555
C11A C10A 1_555 1_555
H13A C11A 1_555 1_555
C12A S2A 1_555 1_555
H14A C12A 1_555 1_555
C5 C6 1_555 1_555
N2 C8 1_555 1_555
N3 C8 1_555 1_555
C4A C7A 1_555 1_555
C5A C6A 1_555 1_555
C11A C12A 1_555 1_555

#END
