
#######################################################################
#
#                 Cambridge Crystallographic Data Centre
#                                CCDC 
#
#######################################################################
#
# If this CIF has been generated from an entry in the Cambridge 
# Structural Database, then it will include bibliographic, chemical, 
# crystal, experimental, refinement or atomic coordinate data resulting 
# from the CCDC's data processing and validation procedures.
#
#######################################################################

data_APONUP
_chemical_name_common            'PDB Chemical Component code: BNL'
_chemical_formula_moiety         '2(C1 H6 N3 1+),C12 H8 N2 O6 S2 2-,C12 H10'
_chemical_name_systematic        
"bis(Guanidinium) 4,4'-azobenzenedisulfonate biphenyl clathrate"
_symmetry_cell_setting           triclinic
_symmetry_space_group_name_H-M   'P -1'
_symmetry_Int_Tables_number      2
_space_group_name_Hall           '-P 1'
loop_
_symmetry_equiv_pos_site_id
_symmetry_equiv_pos_as_xyz
1 x,y,z
2 -x,-y,-z
_cell_length_a                   6.1627(4)
_cell_length_b                   7.2125(5)
_cell_length_c                   16.0535(11)
_cell_angle_alpha                95.263(1)
_cell_angle_beta                 94.758(1)
_cell_angle_gamma                94.611(1)
_cell_volume                     705.307
_exptl_crystal_colour            orange
_exptl_crystal_description       slab
_cell_formula_units_Z            1
_exptl_crystal_recrystallization_method methanol
loop_
_atom_site_label
_atom_site_type_symbol
_atom_site_fract_x
_atom_site_fract_y
_atom_site_fract_z
S1 S 0.19308(5) 0.25254(4) 0.130470(18)
C1 C 0.1615(2) 0.32873(17) 0.23677(8)
C2 C -0.0401(2) 0.2892(2) 0.26790(9)
H1 H -0.1576 0.2227 0.2325
C3 C 0.1050(2) 0.44566(19) 0.40150(8)
C4 C 0.3343(2) 0.4257(2) 0.28742(9)
H2 H 0.4711 0.4517 0.2657
C5 C 0.3055(2) 0.4849(2) 0.37045(9)
H3 H 0.4227 0.5520 0.4058
C6 C -0.0681(2) 0.3471(2) 0.35041(9)
H4 H -0.2045 0.3199 0.3722
O1 O 0.42739(15) 0.27344(13) 0.12130(6)
O2 O 0.10463(15) 0.05704(13) 0.11771(6)
O3 O 0.07030(16) 0.37191(14) 0.07935(6)
N1 N 0.0925(2) 0.51477(17) 0.48741(7)
S1A S -0.19308(5) 0.74746(4) 0.869530(18)
C1A C -0.1615(2) 0.67127(17) 0.76323(8)
C2A C 0.0401(2) 0.7108(2) 0.73210(9)
H1A H 0.1576 0.7773 0.7675
C3A C -0.1050(2) 0.55434(19) 0.59850(8)
C4A C -0.3343(2) 0.5743(2) 0.71258(9)
H2A H -0.4711 0.5483 0.7343
C5A C -0.3055(2) 0.5151(2) 0.62955(9)
H3A H -0.4227 0.4480 0.5942
C6A C 0.0681(2) 0.6529(2) 0.64959(9)
H4A H 0.2045 0.6801 0.6278
O1A O -0.42739(15) 0.72656(13) 0.87870(6)
O2A O -0.10463(15) 0.94296(13) 0.88229(6)
O3A O -0.07030(16) 0.62809(14) 0.92065(6)
N1A N -0.0925(2) 0.48523(17) 0.51259(7)
C7 C 0.5574(2) 0.76091(18) 0.08242(8)
N2 N 0.65161(19) 0.93136(16) 0.07961(7)
H5 H 0.5720 1.0273 0.0800
H6 H 0.7939 0.9488 0.0774
N3 N 0.34374(19) 0.73559(17) 0.08576(8)
H7 H 0.2646 0.8319 0.0861
H8 H 0.2805 0.6224 0.0876
N4 N 0.67555(19) 0.61424(16) 0.08281(8)
H9 H 0.6112 0.5017 0.0853
H10 H 0.8180 0.6299 0.0806
C8 C 0.4596(2) 0.02787(19) 0.54137(9)
C9 C 0.3089(3) 0.1390(2) 0.69775(10)
H11 H 0.2588 0.1778 0.7504
C10 C 0.1860(3) 0.1599(2) 0.62374(11)
H12 H 0.0495 0.2119 0.6256
C11 C 0.2606(3) 0.1056(2) 0.54687(10)
H13 H 0.1740 0.1218 0.4967
C12 C 0.5796(3) 0.0055(2) 0.61725(10)
H14 H 0.7149 -0.0488 0.6160
C13 C 0.5056(3) 0.0606(2) 0.69394(10)
H15 H 0.5908 0.0445 0.7444
C8A C 0.5404(2) -0.02787(19) 0.45863(9)
C9A C 0.6911(3) -0.1390(2) 0.30225(10)
H11A H 0.7412 -0.1778 0.2496
C10A C 0.8140(3) -0.1599(2) 0.37626(11)
H12A H 0.9505 -0.2119 0.3744
C11A C 0.7394(3) -0.1056(2) 0.45313(10)
H13A H 0.8260 -0.1218 0.5033
C12A C 0.4204(3) -0.0055(2) 0.38275(10)
H14A H 0.2851 0.0488 0.3840
C13A C 0.4944(3) -0.0606(2) 0.30606(10)
H15A H 0.4092 -0.0445 0.2556
loop_
_geom_bond_atom_site_label_1
_geom_bond_atom_site_label_2
_geom_bond_site_symmetry_1
_geom_bond_site_symmetry_2
S1 C1 1_555 1_555
C1 C2 1_555 1_555
C2 H1 1_555 1_555
C3 C5 1_555 1_555
C4 C1 1_555 1_555
H2 C4 1_555 1_555
C5 C4 1_555 1_555
H3 C5 1_555 1_555
C6 C2 1_555 1_555
H4 C6 1_555 1_555
O1 S1 1_555 1_555
O2 S1 1_555 1_555
O3 S1 1_555 1_555
N1 C3 1_555 1_555
C7 N2 1_555 1_555
N2 H5 1_555 1_555
H6 N2 1_555 1_555
N3 C7 1_555 1_555
H7 N3 1_555 1_555
H8 N3 1_555 1_555
N4 C7 1_555 1_555
H9 N4 1_555 1_555
H10 N4 1_555 1_555
C8 C11 1_555 1_555
C9 H11 1_555 1_555
C10 C9 1_555 1_555
H12 C10 1_555 1_555
C11 C10 1_555 1_555
H13 C11 1_555 1_555
C12 C8 1_555 1_555
H14 C12 1_555 1_555
C13 C9 1_555 1_555
H15 C13 1_555 1_555
S1A C1A 1_555 1_555
C1A C2A 1_555 1_555
C2A H1A 1_555 1_555
C3A C5A 1_555 1_555
C4A C1A 1_555 1_555
H2A C4A 1_555 1_555
C5A C4A 1_555 1_555
H3A C5A 1_555 1_555
C6A C2A 1_555 1_555
H4A C6A 1_555 1_555
O1A S1A 1_555 1_555
O2A S1A 1_555 1_555
O3A S1A 1_555 1_555
N1A N1 1_555 1_555
C8A C8 1_555 1_555
C9A H11A 1_555 1_555
C10A C9A 1_555 1_555
H12A C10A 1_555 1_555
C11A C8A 1_555 1_555
H13A C11A 1_555 1_555
C12A C8A 1_555 1_555
H14A C12A 1_555 1_555
C13A C9A 1_555 1_555
H15A C13A 1_555 1_555
C3 C6 1_555 1_555
C12 C13 1_555 1_555
C3A C6A 1_555 1_555
C3A N1A 1_555 1_555
C10A C11A 1_555 1_555
C12A C13A 1_555 1_555

#END
