
#######################################################################
#
#                 Cambridge Crystallographic Data Centre
#                                CCDC 
#
#######################################################################
#
# If this CIF has been generated from an entry in the Cambridge 
# Structural Database, then it will include bibliographic, chemical, 
# crystal, experimental, refinement or atomic coordinate data resulting 
# from the CCDC's data processing and validation procedures.
#
#######################################################################

data_APOPAX
_chemical_formula_moiety         '2(C1 H6 N3 1+),C10 H6 O6 S2 2-,0.5(C10 H8 S2)'
_chemical_name_systematic        
'bis(Guanidinium) naphthalene-2,6-disulfonate hemikis(trans-1,2-bis(thiophen-2-yl)ethene) clathrate'
_symmetry_cell_setting           triclinic
_symmetry_space_group_name_H-M   'P 1'
_symmetry_Int_Tables_number      1
_space_group_name_Hall           'P 1'
loop_
_symmetry_equiv_pos_site_id
_symmetry_equiv_pos_as_xyz
1 x,y,z
_cell_length_a                   7.1367(6)
_cell_length_b                   12.4838(10)
_cell_length_c                   12.6842(11)
_cell_angle_alpha                83.869(2)
_cell_angle_beta                 77.676(2)
_cell_angle_gamma                85.366(2)
_cell_volume                     1095.76
_exptl_crystal_colour            colorless
_exptl_crystal_description       needle
_cell_formula_units_Z            2
_exptl_crystal_recrystallization_method methanol
loop_
_atom_site_label
_atom_site_type_symbol
_atom_site_fract_x
_atom_site_fract_y
_atom_site_fract_z
S1 S -0.5833(3) 0.03757(14) -1.31765(15)
S2 S -1.0139(3) -0.09115(15) -0.64103(16)
O1 O -0.6031(9) 0.1566(5) -1.3273(5)
O2 O -0.3866(10) -0.0028(5) -1.3363(6)
O3 O -0.6948(9) -0.0103(5) -1.3831(5)
O4 O -1.2175(8) -0.0498(5) -0.6224(5)
O5 O -0.9061(10) -0.0450(5) -0.5744(6)
O6 O -0.9975(9) -0.2075(5) -0.6318(5)
C1 C -0.6843(14) -0.0035(8) -1.1807(8)
C2 C -0.7170(13) 0.0672(7) -1.1018(8)
H1 H -0.6946 0.1415 -1.1208
C3 C -0.7831(13) 0.0295(7) -0.9934(8)
C4 C -0.8186(13) -0.0802(7) -0.9659(7)
C5 C -0.7874(17) -0.1491(8) -1.0481(9)
H2 H -0.8158 -0.2227 -1.0302
C6 C -0.7172(16) -0.1139(7) -1.1538(9)
H3 H -0.6911 -0.1629 -1.2083
C7 C -0.8170(12) 0.1018(7) -0.9102(7)
H4 H -0.7951 0.1762 -0.9286
C8 C -0.8806(14) 0.0645(7) -0.8049(8)
H5 H -0.9011 0.1125 -0.7497
C9 C -0.9160(12) -0.0457(7) -0.7778(7)
C10 C -0.8868(15) -0.1163(7) -0.8537(8)
H6 H -0.9112 -0.1901 -0.8331
S3 S -0.5763(3) -0.46157(14) -1.31682(15)
S4 S -1.0219(3) -0.59173(15) -0.64177(15)
O7 O -0.5924(9) -0.3429(5) -1.3264(5)
O8 O -0.3788(9) -0.5036(5) -1.3298(5)
O9 O -0.6851(9) -0.5085(5) -1.3848(5)
O10 O -1.2227(8) -0.5487(4) -0.6280(5)
O11 O -0.9189(9) -0.5473(5) -0.5723(5)
O12 O -1.0097(9) -0.7087(5) -0.6324(5)
C11 C -0.6874(13) -0.5001(7) -1.1813(8)
C12 C -0.8002(12) -0.5928(6) -1.1608(8)
H7 H -0.8195 -0.6303 -1.2186
C13 C -0.8799(12) -0.6261(7) -1.0545(7)
H8 H -0.9546 -0.6877 -1.0400
C14 C -0.8549(13) -0.5726(7) -0.9670(7)
C15 C -0.7480(13) -0.4793(7) -0.9899(8)
C16 C -0.6673(15) -0.4426(8) -1.0983(8)
H9 H -0.5995 -0.3785 -1.1136
C17 C -0.7229(17) -0.4213(8) -0.9026(8)
H10 H -0.6468 -0.3603 -0.9166
C18 C -0.8096(16) -0.4549(8) -0.7996(8)
H11 H -0.8012 -0.4140 -0.7419
C19 C -0.9104(13) -0.5481(7) -0.7774(7)
C20 C -0.9382(13) -0.6046(7) -0.8581(8)
H12 H -1.0139 -0.6657 -0.8412
C21 C -0.5208(13) -0.2797(8) -0.5887(8)
N1 N -0.5410(11) -0.1780(6) -0.5928(6)
H13 H -0.6551 -0.1453 -0.5919
H14 H -0.4409 -0.1400 -0.5965
N2 N -0.6660(11) -0.3430(6) -0.5829(6)
H15 H -0.7830 -0.3142 -0.5818
H16 H -0.6445 -0.4136 -0.5802
N3 N -0.3408(11) -0.3328(6) -0.5861(7)
H17 H -0.2410 -0.2952 -0.5874
H18 H -0.3276 -0.4037 -0.5833
C22 C -0.0841(13) -0.2655(7) -0.3699(7)
N4 N -0.2464(11) -0.2211(6) -0.3722(7)
H19 H -0.2633 -0.1503 -0.3758
H20 H -0.3440 -0.2606 -0.3701
N5 N 0.0709(11) -0.2107(6) -0.3727(6)
H21 H 0.0612 -0.1397 -0.3763
H22 H 0.1825 -0.2456 -0.3709
N6 N -0.0608(11) -0.3753(6) -0.3567(7)
H23 H -0.1602 -0.4147 -0.3498
H24 H 0.0536 -0.4066 -0.3551
C23 C -0.5279(13) -0.7829(7) -0.5916(7)
N7 N -0.5479(11) -0.6792(6) -0.5967(6)
H25 H -0.6617 -0.6463 -0.5967
H26 H -0.4477 -0.6412 -0.6002
N8 N -0.6747(11) -0.8435(6) -0.5861(6)
H27 H -0.7902 -0.8129 -0.5860
H28 H -0.6565 -0.9142 -0.5827
N9 N -0.3487(11) -0.8346(6) -0.5870(6)
H29 H -0.2502 -0.7963 -0.5876
H30 H -0.3342 -0.9054 -0.5835
C24 C -0.0921(12) -0.7664(6) -0.3721(7)
N10 N -0.2552(11) -0.7234(6) -0.3734(6)
H31 H -0.2738 -0.6526 -0.3769
H32 H -0.3520 -0.7637 -0.3709
N11 N 0.0637(11) -0.7117(6) -0.3757(6)
H33 H 0.0543 -0.6408 -0.3793
H34 H 0.1753 -0.7468 -0.3745
N12 N -0.0658(11) -0.8765(6) -0.3630(7)
H35 H -0.1639 -0.9165 -0.3581
H36 H 0.0492 -0.9074 -0.3620
S5 S -0.2989(5) -0.2430(3) -0.8660(4)
S6 S -0.2942(14) 0.1967(6) -1.0907(5)
C25 C -0.337(5) 0.3189(15) -1.0392(15)
H37 H -0.3224 0.3857 -1.0827
C26 C -0.3924(14) 0.3116(7) -0.9346(9)
H38 H -0.4364 0.3722 -0.8948
C27 C -0.379(2) 0.1899(10) -0.8784(12)
H39 H -0.4031 0.1660 -0.8034
C28 C -0.324(2) 0.1273(8) -0.9679(9)
C29 C -0.307(3) 0.0075(11) -0.9502(15)
H40 H -0.3144 -0.0222 -0.8774
C30 C -0.2847(17) -0.0596(8) -1.0205(10)
H41 H -0.2771 -0.0323 -1.0940
C31 C -0.270(2) -0.1764(8) -0.9956(9)
C32 C -0.2310(18) -0.2211(8) -1.0918(8)
H42 H -0.2219 -0.1907 -1.1646
C33 C -0.206(2) -0.3444(10) -1.0392(10)
H43 H -0.1736 -0.4015 -1.0849
C34 C -0.2307(14) -0.3665(6) -0.9288(8)
H44 H -0.2146 -0.4358 -0.8917
C35? C -0.355(9) 0.3371(19) -0.954(2)
C36? C -0.351(3) 0.3123(14) -1.0530(15)
C37? C -0.304(7) 0.1911(19) -1.077(2)
C38? C -0.296(6) 0.1411(14) -0.972(2)
C39? C -0.299(5) 0.0246(13) -0.943(3)
C40? C -0.318(2) -0.0728(10) -0.9378(13)
C41? C -0.281(3) -0.1838(10) -0.9630(12)
C42? C -0.299(4) -0.2385(17) -0.8594(17)
C43? C -0.249(3) -0.3539(14) -0.8918(13)
C44? C -0.214(2) -0.3740(10) -0.9974(12)
H45? H -0.3634 0.4084 -0.9328
H46? H -0.3748 0.3662 -1.1081
H47? H -0.2869 0.1597 -1.1440
H48? H -0.2454 0.0233 -0.8807
H49? H -0.4260 -0.0798 -0.8796
H50? H -0.3312 -0.2121 -0.7899
H51? H -0.2437 -0.4118 -0.8374
H52? H -0.1881 -0.4437 -1.0227
S7? S -0.2224(12) -0.2560(7) -1.0786(7)
S8? S -0.3427(18) 0.2225(11) -0.8692(10)
loop_
_geom_bond_atom_site_label_1
_geom_bond_atom_site_label_2
_geom_bond_site_symmetry_1
_geom_bond_site_symmetry_2
S1 O1 1_555 1_555
S2 O4 1_555 1_555
O2 S1 1_555 1_555
O3 S1 1_555 1_555
O5 S2 1_555 1_555
O6 S2 1_555 1_555
C1 S1 1_555 1_555
C2 C1 1_555 1_555
H1 C2 1_555 1_555
C3 C2 1_555 1_555
C4 C3 1_555 1_555
C5 C4 1_555 1_555
H2 C5 1_555 1_555
C6 C1 1_555 1_555
H3 C6 1_555 1_555
C7 C3 1_555 1_555
H4 C7 1_555 1_555
C8 C7 1_555 1_555
H5 C8 1_555 1_555
C9 S2 1_555 1_555
C10 C4 1_555 1_555
H6 C10 1_555 1_555
S3 O7 1_555 1_555
S4 O10 1_555 1_555
O8 S3 1_555 1_555
O9 S3 1_555 1_555
O11 S4 1_555 1_555
O12 S4 1_555 1_555
C11 S3 1_555 1_555
C12 C11 1_555 1_555
H7 C12 1_555 1_555
C13 C12 1_555 1_555
H8 C13 1_555 1_555
C14 C13 1_555 1_555
C15 C14 1_555 1_555
C16 C11 1_555 1_555
H9 C16 1_555 1_555
C17 C15 1_555 1_555
H10 C17 1_555 1_555
C18 C17 1_555 1_555
H11 C18 1_555 1_555
C19 S4 1_555 1_555
C20 C14 1_555 1_555
H12 C20 1_555 1_555
C21 N1 1_555 1_555
N1 H13 1_555 1_555
H14 N1 1_555 1_555
N2 C21 1_555 1_555
H15 N2 1_555 1_555
H16 N2 1_555 1_555
N3 C21 1_555 1_555
H17 N3 1_555 1_555
H18 N3 1_555 1_555
C22 N4 1_555 1_555
N4 H19 1_555 1_555
H20 N4 1_555 1_555
N5 C22 1_555 1_555
H21 N5 1_555 1_555
H22 N5 1_555 1_555
N6 C22 1_555 1_555
H23 N6 1_555 1_555
H24 N6 1_555 1_555
C23 N7 1_555 1_555
N7 H25 1_555 1_555
H26 N7 1_555 1_555
N8 C23 1_555 1_555
H27 N8 1_555 1_555
H28 N8 1_555 1_555
N9 C23 1_555 1_555
H29 N9 1_555 1_555
H30 N9 1_555 1_555
C24 N10 1_555 1_555
N10 H31 1_555 1_555
H32 N10 1_555 1_555
N11 C24 1_555 1_555
H33 N11 1_555 1_555
H34 N11 1_555 1_555
N12 C24 1_555 1_555
H35 N12 1_555 1_555
H36 N12 1_555 1_555
S5 C31 1_555 1_555
S6 C25 1_555 1_555
C25 H37 1_555 1_555
C26 C25 1_555 1_555
H38 C26 1_555 1_555
C27 C26 1_555 1_555
H39 C27 1_555 1_555
C28 S6 1_555 1_555
C29 C28 1_555 1_555
H40 C29 1_555 1_555
C30 C29 1_555 1_555
H41 C30 1_555 1_555
C31 C30 1_555 1_555
C32 C31 1_555 1_555
H42 C32 1_555 1_555
C33 C32 1_555 1_555
H43 C33 1_555 1_555
C34 S5 1_555 1_555
H44 C34 1_555 1_555
C5 C6 1_555 1_555
C8 C9 1_555 1_555
C9 C10 1_555 1_555
C15 C16 1_555 1_555
C18 C19 1_555 1_555
C19 C20 1_555 1_555
C27 C28 1_555 1_555
C33 C34 1_555 1_555

#END
