
#######################################################################
#
#                 Cambridge Crystallographic Data Centre
#                                CCDC 
#
#######################################################################
#
# If this CIF has been generated from an entry in the Cambridge 
# Structural Database, then it will include bibliographic, chemical, 
# crystal, experimental, refinement or atomic coordinate data resulting 
# from the CCDC's data processing and validation procedures.
#
#######################################################################

data_APOPOL
_chemical_formula_moiety         
'2(C1 H6 N3 1+),C10 H6 O6 S2 2-,0.5(C12 H10 N2)'
_chemical_name_systematic        
'bis(Guanidinium) naphthalene-2,6-disulfonate hemikis(azobenzene) clathrate'
_symmetry_cell_setting           triclinic
_symmetry_space_group_name_H-M   'P 1'
_symmetry_Int_Tables_number      1
_space_group_name_Hall           'P 1'
loop_
_symmetry_equiv_pos_site_id
_symmetry_equiv_pos_as_xyz
1 x,y,z
_cell_length_a                   7.1097(5)
_cell_length_b                   12.6139(10)
_cell_length_c                   13.8091(11)
_cell_angle_alpha                110.979(1)
_cell_angle_beta                 101.820(1)
_cell_angle_gamma                93.951(1)
_cell_volume                     1118.01
_exptl_crystal_colour            orange
_exptl_crystal_description       rod
_cell_formula_units_Z            2
_exptl_crystal_recrystallization_method methanol
loop_
_atom_site_label
_atom_site_type_symbol
_atom_site_fract_x
_atom_site_fract_y
_atom_site_fract_z
C1 C 0.7812(6) 0.9780(3) 0.0801(3)
N1 N 0.6214(6) 1.0337(3) 0.0788(3)
H1 H 0.6315 1.1032 0.0779
H2 H 0.5091 0.9997 0.0788
N2 N 0.7529(6) 0.8720(3) 0.0809(3)
H3 H 0.8500 0.8324 0.0814
H4 H 0.6373 0.8422 0.0808
N3 N 0.9438(6) 1.0225(3) 0.0801(3)
H5 H 1.0427 0.9843 0.0807
H6 H 0.9594 1.0921 0.0796
C2 C 0.7869(6) 0.4779(3) 0.0806(3)
N4 N 0.7597(6) 0.3742(3) 0.0861(3)
H7 H 0.8571 0.3350 0.0884
H8 H 0.6445 0.3453 0.0875
N5 N 0.6257(6) 0.5335(3) 0.0771(3)
H9 H 0.6353 0.6018 0.0733
H10 H 0.5138 0.5006 0.0787
N6 N 0.9491(6) 0.5216(3) 0.0785(3)
H11 H 1.0487 0.4840 0.0808
H12 H 0.9634 0.5898 0.0749
C3 C 0.1984(6) 0.3503(4) 0.8655(3)
N7 N 0.3434(5) 0.2962(3) 0.8675(3)
H13 H 0.4558 0.3266 0.8641
H14 H 0.3309 0.2285 0.8723
N8 N 0.0194(5) 0.3015(3) 0.8673(3)
H15 H 0.0052 0.2328 0.8699
H16 H -0.0801 0.3391 0.8659
N9 N 0.2090(5) 0.4512(3) 0.8584(3)
H17 H 0.3192 0.4842 0.8548
H18 H 0.1060 0.4860 0.8571
C4 C 0.2044(6) 0.8504(4) 0.8662(3)
N10 N 0.0238(6) 0.8001(3) 0.8658(3)
H19 H 0.0086 0.7301 0.8654
H20 H -0.0752 0.8383 0.8659
N11 N 0.3495(6) 0.7955(3) 0.8660(3)
H21 H 0.4626 0.8272 0.8647
H22 H 0.3360 0.7262 0.8673
N12 N 0.2170(6) 0.9539(3) 0.8645(3)
H23 H 0.3281 0.9880 0.8631
H24 H 0.1145 0.9892 0.8647
C5 C 0.3792(6) 0.3336(4) 0.2724(3)
C6 C 0.4223(7) 0.2401(3) 0.2980(3)
H25 H 0.4052 0.1657 0.2435
C7 C 0.4917(8) 0.2573(4) 0.4058(4)
H26 H 0.5281 0.1952 0.4252
C8 C 0.5070(6) 0.3667(3) 0.4847(3)
C9 C 0.5741(6) 0.3858(4) 0.5982(3)
H27 H 0.6028 0.3232 0.6187
C10 C 0.5951(6) 0.4923(3) 0.6734(3)
C11 C 0.5503(8) 0.5878(4) 0.6435(4)
H28 H 0.5639 0.6624 0.6972
C12 C 0.4900(7) 0.5717(4) 0.5409(3)
H29 H 0.4639 0.6362 0.5232
C13 C 0.4625(6) 0.4608(3) 0.4556(3)
C14 C 0.4016(7) 0.4431(3) 0.3503(3)
H30 H 0.3741 0.5059 0.3300
O1 O 0.4022(5) 0.2331(2) 0.0747(2)
O2 O 0.0824(4) 0.2543(2) 0.1086(2)
O3 O 0.3023(4) 0.4211(2) 0.1251(2)
O4 O 0.6731(4) 0.4048(2) 0.8167(2)
O5 O 0.8883(4) 0.5704(2) 0.8375(2)
O6 O 0.5677(4) 0.5928(2) 0.8677(2)
S1 S 0.28567(13) 0.30899(7) 0.13485(6)
S2 S 0.68750(12) 0.51732(7) 0.80934(6)
C15 C 0.3858(6) 0.8357(3) 0.2720(3)
C16 C 0.4830(7) 0.7541(4) 0.2975(3)
H31 H 0.4948 0.6854 0.2424
C17 C 0.5633(7) 0.7732(4) 0.4043(3)
H32 H 0.6364 0.7199 0.4226
C18 C 0.5346(6) 0.8725(3) 0.4846(3)
C19 C 0.6133(6) 0.8939(4) 0.5974(3)
H33 H 0.6815 0.8396 0.6170
C20 C 0.5895(6) 0.9905(3) 0.6735(3)
C21 C 0.4842(7) 1.0738(4) 0.6465(4)
H34 H 0.4641 1.1403 0.7012
C22 C 0.4153(7) 1.0563(4) 0.5436(4)
H35 H 0.3521 1.1137 0.5268
C23 C 0.4322(6) 0.9551(3) 0.4573(3)
C24 C 0.3614(6) 0.9361(3) 0.3519(3)
H36 H 0.2952 0.9912 0.3327
O7 O 0.0789(4) 0.7569(2) 0.1144(2)
O8 O 0.3924(5) 0.7323(2) 0.0725(2)
O9 O 0.2956(4) 0.9212(2) 0.1245(2)
O10 O 0.6789(4) 0.9049(2) 0.8175(2)
O11 O 0.5765(4) 1.0939(3) 0.8701(2)
O12 O 0.8926(4) 1.0677(2) 0.8325(2)
S3 S 0.28145(13) 0.80931(7) 0.13498(6)
S4 S 0.69178(13) 1.01704(7) 0.80941(6)
N13 N 1.0091(12) 0.4015(5) 0.5076(6)
N14 N 0.9610(14) 0.4294(6) 0.4301(7)
C25 C 0.9893(16) 0.5485(5) 0.4568(7)
C26 C 0.9951(17) 0.5843(6) 0.3731(6)
H37 H 0.9739 0.5291 0.3022
C27 C 1.0320(16) 0.7008(7) 0.3930(7)
H38 H 1.0360 0.7252 0.3358
C28 C 1.0631(17) 0.7816(5) 0.4967(8)
H39 H 1.0883 0.8612 0.5104
C29 C 1.0573(17) 0.7458(7) 0.5805(6)
H40 H 1.0785 0.8010 0.6513
C30 C 1.0204(16) 0.6293(8) 0.5605(6)
H41 H 1.0164 0.6048 0.6177
C31 C 0.9750(12) 0.2790(5) 0.4794(8)
C32 C 0.9687(13) 0.2480(6) 0.5658(6)
H42 H 0.9906 0.3055 0.6356
C33 C 0.9305(12) 0.1326(8) 0.5500(6)
H43 H 0.9262 0.1114 0.6091
C34 C 0.8984(11) 0.0484(5) 0.4479(7)
H44 H 0.8723 -0.0304 0.4371
C35 C 0.9047(14) 0.0795(7) 0.3615(5)
H45 H 0.8828 0.0219 0.2917
C36 C 0.9429(15) 0.1948(8) 0.3773(7)
H46 H 0.9472 0.2160 0.3183
C37? C 1.0043(19) 0.5593(6) 0.4929(8)
C38? C 1.0523(19) 0.6638(8) 0.5798(7)
C39? C 1.0838(18) 0.7656(6) 0.5638(9)
C40? C 1.0673(17) 0.7629(7) 0.4608(10)
C41? C 1.0193(19) 0.6584(9) 0.3739(8)
C42? C 0.988(2) 0.5566(7) 0.3899(7)
C43? C 0.9818(10) 0.2671(5) 0.4694(6)
C44? C 0.9389(16) 0.1657(5) 0.3791(7)
C45? C 0.9105(19) 0.0605(5) 0.3893(9)
C46? C 0.9248(17) 0.0565(6) 0.4898(10)
C47? C 0.9677(15) 0.1579(7) 0.5802(8)
C48? C 0.9962(12) 0.2631(6) 0.5700(6)
H47? H 1.0636 0.6657 0.6501
H48? H 1.1166 0.8370 0.6232
H49? H 1.0888 0.8325 0.4499
H50? H 1.0080 0.6565 0.3035
H51? H 0.9550 0.4852 0.3305
H52? H 0.9291 0.1684 0.3104
H53? H 0.8812 -0.0088 0.3275
H54? H 0.9053 -0.0154 0.4968
H55? H 0.9775 0.1552 0.6489
H56? H 1.0255 0.3324 0.6317
N15? N 0.9845(16) 0.3664(8) 0.4357(7)
N16? N 0.9810(16) 0.4571(7) 0.5141(10)
loop_
_geom_bond_atom_site_label_1
_geom_bond_atom_site_label_2
_geom_bond_site_symmetry_1
_geom_bond_site_symmetry_2
C1 N1 1_555 1_555
N1 H1 1_555 1_555
H2 N1 1_555 1_555
N2 C1 1_555 1_555
H3 N2 1_555 1_555
H4 N2 1_555 1_555
N3 C1 1_555 1_555
H5 N3 1_555 1_555
H6 N3 1_555 1_555
C2 N4 1_555 1_555
N4 H7 1_555 1_555
H8 N4 1_555 1_555
N5 C2 1_555 1_555
H9 N5 1_555 1_555
H10 N5 1_555 1_555
N6 C2 1_555 1_555
H11 N6 1_555 1_555
H12 N6 1_555 1_555
C3 N7 1_555 1_555
N7 H13 1_555 1_555
H14 N7 1_555 1_555
N8 C3 1_555 1_555
H15 N8 1_555 1_555
H16 N8 1_555 1_555
N9 C3 1_555 1_555
H17 N9 1_555 1_555
H18 N9 1_555 1_555
C4 N10 1_555 1_555
N10 H19 1_555 1_555
H20 N10 1_555 1_555
N11 C4 1_555 1_555
H21 N11 1_555 1_555
H22 N11 1_555 1_555
N12 C4 1_555 1_555
H23 N12 1_555 1_555
H24 N12 1_555 1_555
C5 C6 1_555 1_555
C6 H25 1_555 1_555
C7 C6 1_555 1_555
H26 C7 1_555 1_555
C8 C7 1_555 1_555
C9 C8 1_555 1_555
H27 C9 1_555 1_555
C10 C9 1_555 1_555
C11 C10 1_555 1_555
H28 C11 1_555 1_555
C12 C11 1_555 1_555
H29 C12 1_555 1_555
C13 C8 1_555 1_555
C14 C5 1_555 1_555
H30 C14 1_555 1_555
O1 S1 1_555 1_555
O2 S1 1_555 1_555
O3 S1 1_555 1_555
O4 S2 1_555 1_555
O5 S2 1_555 1_555
O6 S2 1_555 1_555
S1 C5 1_555 1_555
S2 C10 1_555 1_555
C15 C16 1_555 1_555
C16 H31 1_555 1_555
C17 C16 1_555 1_555
H32 C17 1_555 1_555
C18 C17 1_555 1_555
C19 C18 1_555 1_555
H33 C19 1_555 1_555
C20 C19 1_555 1_555
C21 C20 1_555 1_555
H34 C21 1_555 1_555
C22 C21 1_555 1_555
H35 C22 1_555 1_555
C23 C18 1_555 1_555
C24 C15 1_555 1_555
H36 C24 1_555 1_555
O7 S3 1_555 1_555
O8 S3 1_555 1_555
O9 S3 1_555 1_555
O10 S4 1_555 1_555
O11 S4 1_555 1_555
O12 S4 1_555 1_555
S3 C15 1_555 1_555
S4 C20 1_555 1_555
N13 N14 1_555 1_555
N14 C25 1_555 1_555
C25 C26 1_555 1_555
C26 H37 1_555 1_555
C27 C26 1_555 1_555
H38 C27 1_555 1_555
C28 C27 1_555 1_555
H39 C28 1_555 1_555
C29 C28 1_555 1_555
H40 C29 1_555 1_555
C30 C25 1_555 1_555
H41 C30 1_555 1_555
C31 N13 1_555 1_555
C32 C31 1_555 1_555
H42 C32 1_555 1_555
C33 C32 1_555 1_555
H43 C33 1_555 1_555
C34 C33 1_555 1_555
H44 C34 1_555 1_555
C35 C34 1_555 1_555
H45 C35 1_555 1_555
C36 C31 1_555 1_555
H46 C36 1_555 1_555
C12 C13 1_555 1_555
C13 C14 1_555 1_555
C22 C23 1_555 1_555
C23 C24 1_555 1_555
C29 C30 1_555 1_555
C35 C36 1_555 1_555

#END
