
#######################################################################
#
#                 Cambridge Crystallographic Data Centre
#                                CCDC 
#
#######################################################################
#
# If this CIF has been generated from an entry in the Cambridge 
# Structural Database, then it will include bibliographic, chemical, 
# crystal, experimental, refinement or atomic coordinate data resulting 
# from the CCDC's data processing and validation procedures.
#
#######################################################################

data_APOQIG
_chemical_formula_moiety         '2(C1 H6 N3 1+),C14 H12 O8 S2 2-,C12 H10 N2'
_chemical_name_systematic        
'bis(Guanidinium) 1,2-bis(4-sulfonatophenoxy)ethane azobenzene clathrate'
_symmetry_cell_setting           triclinic
_symmetry_space_group_name_H-M   'P -1'
_symmetry_Int_Tables_number      2
_space_group_name_Hall           '-P 1'
loop_
_symmetry_equiv_pos_site_id
_symmetry_equiv_pos_as_xyz
1 x,y,z
2 -x,-y,-z
_cell_length_a                   6.1014(4)
_cell_length_b                   7.3115(5)
_cell_length_c                   17.9047(13)
_cell_angle_alpha                91.168(1)
_cell_angle_beta                 97.062(1)
_cell_angle_gamma                95.911(1)
_cell_volume                     788.02
_exptl_crystal_colour            orange
_exptl_crystal_description       plate
_cell_formula_units_Z            1
_exptl_crystal_recrystallization_method methanol
loop_
_atom_site_label
_atom_site_type_symbol
_atom_site_fract_x
_atom_site_fract_y
_atom_site_fract_z
S1 S 0.78853(5) 0.77186(4) 0.385187(16)
C1 C 0.8067(2) 0.71118(16) 0.29034(7)
C3 C 0.8391(2) 0.62513(17) 0.14078(7)
C4 C 0.6534(2) 0.70250(19) 0.15997(7)
H1 H 0.5380 0.7255 0.1218
C5 C 0.9916(2) 0.63411(19) 0.27114(7)
H2 H 1.1068 0.6109 0.3094
C6 C 1.0093(2) 0.59065(19) 0.19618(7)
H3 H 1.1359 0.5381 0.1830
C7 C 0.6366(2) 0.74589(18) 0.23442(7)
H4 H 0.5102 0.7989 0.2475
C10 C 1.0257(2) 0.5124(2) 0.04227(7)
H6 H 1.0451 0.3929 0.0658
H7 H 1.1630 0.5969 0.0561
O1 O 0.55228(15) 0.74538(13) 0.39402(5)
O2 O 0.91951(16) 0.64997(13) 0.43104(5)
O3 O 0.87691(16) 0.96519(13) 0.39639(6)
O4 O 0.83829(17) 0.58880(15) 0.06568(5)
S1A S 1.21147(5) 0.22814(4) -0.385187(16)
C1A C 1.1933(2) 0.28882(16) -0.29034(7)
C3A C 1.1609(2) 0.37487(17) -0.14078(7)
C4A C 1.3466(2) 0.29750(19) -0.15997(7)
H1A H 1.4620 0.2745 -0.1218
C5A C 1.0084(2) 0.36589(19) -0.27114(7)
H2A H 0.8932 0.3891 -0.3094
C6A C 0.9907(2) 0.40935(19) -0.19618(7)
H3A H 0.8641 0.4619 -0.1830
C7A C 1.3634(2) 0.25411(18) -0.23442(7)
H4A H 1.4898 0.2011 -0.2475
C10A C 0.9743(2) 0.4876(2) -0.04227(7)
H6A H 0.9549 0.6071 -0.0658
H7A H 0.8370 0.4031 -0.0561
O1A O 1.44772(15) 0.25462(13) -0.39402(5)
O2A O 1.08049(16) 0.35003(13) -0.43104(5)
O3A O 1.12309(16) 0.03481(13) -0.39639(6)
O4A O 1.16171(17) 0.41120(15) -0.06568(5)
C2 C 0.5647(2) 0.75003(17) 0.57747(7)
N1 N 0.65727(19) 0.92079(15) 0.57390(7)
H12 H 0.5779 1.0136 0.5779
H13 H 0.7983 0.9416 0.5675
N2 N 0.35216(19) 0.71916(16) 0.58705(8)
H14 H 0.2731 0.8122 0.5910
H15 H 0.2902 0.6057 0.5894
N4 N 0.68525(19) 0.60822(16) 0.57375(7)
H16 H 0.8274 0.6281 0.5689
H17 H 0.6224 0.4950 0.5762
C8 C 0.4990(3) 0.2357(2) 0.19656(9)
H5 H 0.6101 0.3116 0.2281
C9 C 0.3772(2) 0.06579(19) 0.08030(8)
C11 C 0.1718(3) 0.0176(2) 0.10427(9)
H8 H 0.0588 -0.0550 0.0722
C12 C 0.2949(3) 0.1844(2) 0.22111(9)
H9 H 0.2673 0.2241 0.2696
C13 C 0.1316(3) 0.0756(2) 0.17497(9)
H10 H -0.0079 0.0406 0.1918
C14 C 0.5413(3) 0.1768(2) 0.12640(9)
H11 H 0.6811 0.2117 0.1097
N3 N 0.4032(2) -0.01099(17) 0.00784(7)
C8A C 0.5010(3) -0.2357(2) -0.19656(9)
H5A H 0.3899 -0.3116 -0.2281
C9A C 0.6228(2) -0.06579(19) -0.08030(8)
C11A C 0.8282(3) -0.0176(2) -0.10427(9)
H8A H 0.9412 0.0550 -0.0722
C12A C 0.7051(3) -0.1844(2) -0.22111(9)
H9A H 0.7327 -0.2241 -0.2696
C13A C 0.8684(3) -0.0756(2) -0.17497(9)
H10A H 1.0079 -0.0406 -0.1918
C14A C 0.4587(3) -0.1768(2) -0.12640(9)
H11A H 0.3189 -0.2117 -0.1097
N3A N 0.5968(2) 0.01099(17) -0.00784(7)
loop_
_geom_bond_atom_site_label_1
_geom_bond_atom_site_label_2
_geom_bond_site_symmetry_1
_geom_bond_site_symmetry_2
S1 C1 1_555 1_555
C1 C5 1_555 1_555
C2 N1 1_555 1_555
C3 C4 1_555 1_555
C4 H1 1_555 1_555
C5 H2 1_555 1_555
C6 C3 1_555 1_555
H3 C6 1_555 1_555
C7 C1 1_555 1_555
H4 C7 1_555 1_555
C8 H5 1_555 1_555
C9 C11 1_555 1_555
C10 H6 1_555 1_555
H7 C10 1_555 1_555
C11 H8 1_555 1_555
C12 C8 1_555 1_555
H9 C12 1_555 1_555
C13 C11 1_555 1_555
H10 C13 1_555 1_555
C14 C8 1_555 1_555
H11 C14 1_555 1_555
N1 H12 1_555 1_555
H13 N1 1_555 1_555
N2 C2 1_555 1_555
H14 N2 1_555 1_555
H15 N2 1_555 1_555
N3 C9 1_555 1_555
N4 C2 1_555 1_555
H16 N4 1_555 1_555
H17 N4 1_555 1_555
O1 S1 1_555 1_555
O2 S1 1_555 1_555
O3 S1 1_555 1_555
O4 C3 1_555 1_555
S1A C1A 1_555 1_555
C1A C5A 1_555 1_555
C3A C4A 1_555 1_555
C4A H1A 1_555 1_555
C5A H2A 1_555 1_555
C6A C3A 1_555 1_555
H3A C6A 1_555 1_555
C7A C1A 1_555 1_555
H4A C7A 1_555 1_555
C8A H5A 1_555 1_555
C9A C11A 1_555 1_555
C10A C10 1_555 1_555
H6A C10A 1_555 1_555
H7A C10A 1_555 1_555
C11A H8A 1_555 1_555
C12A C8A 1_555 1_555
H9A C12A 1_555 1_555
C13A C11A 1_555 1_555
H10A C13A 1_555 1_555
C14A C8A 1_555 1_555
H11A C14A 1_555 1_555
N3A N3 1_555 1_555
O1A S1A 1_555 1_555
O2A S1A 1_555 1_555
O3A S1A 1_555 1_555
O4A C3A 1_555 1_555
C4 C7 1_555 1_555
C5 C6 1_555 1_555
C9 C14 1_555 1_555
C10 O4 1_555 1_555
C12 C13 1_555 1_555
C4A C7A 1_555 1_555
C5A C6A 1_555 1_555
C9A C14A 1_555 1_555
C9A N3A 1_555 1_555
C10A O4A 1_555 1_555
C12A C13A 1_555 1_555

#END
