
#######################################################################
#
#                 Cambridge Crystallographic Data Centre
#                                CCDC 
#
#######################################################################
#
# If this CIF has been generated from an entry in the Cambridge 
# Structural Database, then it will include bibliographic, chemical, 
# crystal, experimental, refinement or atomic coordinate data resulting 
# from the CCDC's data processing and validation procedures.
#
#######################################################################

data_APOQAY
_chemical_formula_moiety         '2(C1 H6 N3 1+),C14 H12 O6 S2 2-,3(C12 H10 N2)'
_chemical_name_systematic        
'bis(Guanidinium) 1,2-bis(4-sulfonatophenyl)ethane tris(azobenzene) clathrate'
_symmetry_cell_setting           monoclinic
_symmetry_space_group_name_H-M   'P 21/n'
_symmetry_Int_Tables_number      14
_space_group_name_Hall           '-P 2yn'
loop_
_symmetry_equiv_pos_site_id
_symmetry_equiv_pos_as_xyz
1 x,y,z
2 1/2-x,1/2+y,1/2-z
3 -x,-y,-z
4 1/2+x,1/2-y,1/2+z
_cell_length_a                   7.6405(4)
_cell_length_b                   30.4156(18)
_cell_length_c                   11.4061(6)
_cell_angle_alpha                90
_cell_angle_beta                 90.726(1)
_cell_angle_gamma                90
_cell_volume                     2650.46
_exptl_crystal_colour            orange
_exptl_crystal_description       plate
_cell_formula_units_Z            2
_exptl_crystal_recrystallization_method methanol
loop_
_atom_site_label
_atom_site_type_symbol
_atom_site_fract_x
_atom_site_fract_y
_atom_site_fract_z
S1 S 0.07895(5) 0.207225(14) 0.42211(4)
C1 C 0.0488(2) 0.15063(5) 0.44681(14)
C3 C -0.0275(2) 0.06300(6) 0.49385(18)
C5 C -0.0487(2) 0.12619(6) 0.36679(16)
H2 H -0.0898 0.1393 0.2960
C7 C 0.1117(2) 0.13143(6) 0.54916(16)
H3 H 0.1805 0.1481 0.6031
C13 C -0.0707(3) 0.01555(6) 0.5207(2)
H8 H -0.1831 0.0077 0.4819
H9 H -0.0852 0.0121 0.6063
C14 C 0.0734(3) 0.08789(6) 0.57197(17)
H10 H 0.1165 0.0747 0.6421
C19 C -0.0857(2) 0.08261(6) 0.39076(18)
H14 H -0.1520 0.0659 0.3357
O1 O 0.08314(16) 0.21390(4) 0.29591(11)
O2 O 0.24213(15) 0.21968(4) 0.48114(11)
O3 O -0.07181(15) 0.22920(4) 0.47417(11)
S1B S -0.07895(5) -0.207225(14) 0.57789(4)
C1B C -0.0488(2) -0.15063(5) 0.55319(14)
C3B C 0.0275(2) -0.06300(6) 0.50615(18)
C5B C 0.0487(2) -0.12619(6) 0.63321(16)
H2B H 0.0898 -0.1393 0.7040
C7B C -0.1117(2) -0.13143(6) 0.45084(16)
H3B H -0.1805 -0.1481 0.3969
C13B C 0.0707(3) -0.01555(6) 0.4793(2)
H8B H 0.1831 -0.0077 0.5181
H9B H 0.0852 -0.0121 0.3937
C14B C -0.0734(3) -0.08789(6) 0.42803(17)
H10B H -0.1165 -0.0747 0.3579
C19B C 0.0857(2) -0.08261(6) 0.60924(18)
H14B H 0.1520 -0.0659 0.6643
O1B O -0.08314(16) -0.21390(4) 0.70409(11)
O2B O -0.24213(15) -0.21968(4) 0.51886(11)
O3B O 0.07181(15) -0.22920(4) 0.52583(11)
C2 C 0.5791(2) 0.23542(6) 0.26691(16)
N1 N 0.5819(2) 0.22250(5) 0.37773(14)
H22 H 0.4831 0.2184 0.4150
H23 H 0.6826 0.2181 0.4142
N4 N 0.7276(2) 0.24084(5) 0.21017(14)
H24 H 0.7256 0.2489 0.1361
H25 H 0.8283 0.2364 0.2465
N5 N 0.4281(2) 0.24209(6) 0.21213(15)
H26 H 0.4263 0.2501 0.1380
H27 H 0.3293 0.2385 0.2498
C4 C 0.5807(3) 0.09880(7) 0.63979(17)
H1 H 0.6195 0.0770 0.5863
C6 C 0.4942(2) 0.08649(6) 0.74090(16)
C8 C 0.5426(3) -0.10608(7) 0.7026(2)
H4 H 0.5840 -0.1280 0.6505
C9 C 0.5626(3) -0.06231(7) 0.67549(19)
H5 H 0.6191 -0.0540 0.6051
C10 C 0.5003(2) -0.03026(6) 0.75094(17)
C11 C 0.5533(3) 0.17437(7) 0.6947(2)
H6 H 0.5752 0.2045 0.6792
C12 C 0.4012(3) -0.08643(7) 0.8813(2)
H7 H 0.3459 -0.0950 0.9519
C15 C 0.4649(3) 0.16226(7) 0.7944(2)
H11 H 0.4248 0.1842 0.8470
C17 C 0.4201(3) -0.04236(7) 0.85488(18)
H12 H 0.3787 -0.0205 0.9072
C18 C 0.4344(3) 0.11832(7) 0.81782(18)
H13 H 0.3729 0.1100 0.8862
C20 C 0.6101(3) 0.14253(7) 0.61728(19)
H15 H 0.6698 0.1510 0.5482
C21 C 0.4630(3) -0.11819(7) 0.8048(2)
H16 H 0.4501 -0.1485 0.8233
N2 N 0.4609(2) 0.04183(6) 0.77656(15)
N3 N 0.5296(2) 0.01425(6) 0.71341(14)
C16 C 0.0190(3) 0.05822(8) 0.9916(2)
C22 C -0.0606(3) 0.07431(9) 0.8909(2)
H17 H -0.1095 0.0548 0.8344
C23 C 0.0937(3) 0.08667(9) 1.0724(2)
H18 H 0.1514 0.0753 1.1401
C24 C -0.0678(3) 0.11886(9) 0.8738(2)
H19 H -0.1223 0.1303 0.8050
C25 C 0.0847(3) 0.13068(9) 1.0553(2)
H20 H 0.1343 0.1501 1.1119
C26 C 0.0041(3) 0.14744(8) 0.9565(2)
H21 H -0.0025 0.1783 0.9448
N6 N 0.0380(3) 0.00935(10) 1.03407(18)
C16B C -0.0190(3) -0.05822(8) 1.0084(2)
C22B C 0.0606(3) -0.07431(9) 1.1091(2)
H17B H 0.1095 -0.0548 1.1656
C23B C -0.0937(3) -0.08667(9) 0.9276(2)
H18B H -0.1514 -0.0753 0.8599
C24B C 0.0678(3) -0.11886(9) 1.1262(2)
H19B H 0.1223 -0.1303 1.1950
C25B C -0.0847(3) -0.13068(9) 0.9447(2)
H20B H -0.1343 -0.1501 0.8881
C26B C -0.0041(3) -0.14744(8) 1.0435(2)
H21B H 0.0025 -0.1783 1.0552
N6B N -0.0380(3) -0.00935(10) 0.96593(18)
loop_
_geom_bond_atom_site_label_1
_geom_bond_atom_site_label_2
_geom_bond_site_symmetry_1
_geom_bond_site_symmetry_2
S1 C1 1_555 1_555
C1 C5 1_555 1_555
C2 N1 1_555 1_555
C3 C13 1_555 1_555
C4 H1 1_555 1_555
C5 H2 1_555 1_555
C6 C4 1_555 1_555
C7 C1 1_555 1_555
H3 C7 1_555 1_555
C8 H4 1_555 1_555
C9 C8 1_555 1_555
H5 C9 1_555 1_555
C10 C9 1_555 1_555
C11 H6 1_555 1_555
C12 H7 1_555 1_555
C13 H8 1_555 1_555
H9 C13 1_555 1_555
C14 C3 1_555 1_555
H10 C14 1_555 1_555
C15 C11 1_555 1_555
H11 C15 1_555 1_555
C16 C22 1_555 1_555
C17 C10 1_555 1_555
H12 C17 1_555 1_555
C18 C6 1_555 1_555
H13 C18 1_555 1_555
C19 C3 1_555 1_555
H14 C19 1_555 1_555
C20 C4 1_555 1_555
H15 C20 1_555 1_555
C21 C8 1_555 1_555
H16 C21 1_555 1_555
C22 H17 1_555 1_555
C23 C16 1_555 1_555
H18 C23 1_555 1_555
C24 C22 1_555 1_555
H19 C24 1_555 1_555
C25 C23 1_555 1_555
H20 C25 1_555 1_555
C26 C24 1_555 1_555
H21 C26 1_555 1_555
N1 H22 1_555 1_555
H23 N1 1_555 1_555
N2 C6 1_555 1_555
N3 C10 1_555 1_555
N4 C2 1_555 1_555
H24 N4 1_555 1_555
H25 N4 1_555 1_555
N5 C2 1_555 1_555
H26 N5 1_555 1_555
H27 N5 1_555 1_555
N6 C16 1_555 1_555
O1 S1 1_555 1_555
O2 S1 1_555 1_555
O3 S1 1_555 1_555
S1B C1B 1_555 1_555
C1B C5B 1_555 1_555
C3B C13B 1_555 1_555
C5B H2B 1_555 1_555
C7B C1B 1_555 1_555
H3B C7B 1_555 1_555
C13B C13 1_555 1_555
H8B C13B 1_555 1_555
H9B C13B 1_555 1_555
C14B C3B 1_555 1_555
H10B C14B 1_555 1_555
C16B C22B 1_555 1_555
C19B C3B 1_555 1_555
H14B C19B 1_555 1_555
C22B H17B 1_555 1_555
C23B C16B 1_555 1_555
H18B C23B 1_555 1_555
C24B C22B 1_555 1_555
H19B C24B 1_555 1_555
C25B C23B 1_555 1_555
H20B C25B 1_555 1_555
C26B C24B 1_555 1_555
H21B C26B 1_555 1_555
N6B N6 1_555 1_555
O1B S1B 1_555 1_555
O2B S1B 1_555 1_555
O3B S1B 1_555 1_555
C5 C19 1_555 1_555
C7 C14 1_555 1_555
C11 C20 1_555 1_555
C12 C17 1_555 1_555
C12 C21 1_555 1_555
C15 C18 1_555 1_555
C25 C26 1_555 1_555
N2 N3 1_555 1_555
C5B C19B 1_555 1_555
C7B C14B 1_555 1_555
C16B N6B 1_555 1_555
C25B C26B 1_555 1_555

#END
