
#######################################################################
#
#                 Cambridge Crystallographic Data Centre
#                                CCDC 
#
#######################################################################
#
# If this CIF has been generated from an entry in the Cambridge 
# Structural Database, then it will include bibliographic, chemical, 
# crystal, experimental, refinement or atomic coordinate data resulting 
# from the CCDC's data processing and validation procedures.
#
#######################################################################

data_APOREE
_chemical_formula_moiety         'C21 H22 N2 O5'
_chemical_name_systematic        
'(E)-ethyl 4-(naphthalen-2-yl)-2-nitro-4-oxo-3-(piperidin-1-yl)but-2-enoate'
_symmetry_cell_setting           monoclinic
_symmetry_space_group_name_H-M   'P 21/n'
_symmetry_Int_Tables_number      14
_space_group_name_Hall           '-P 2yn'
loop_
_symmetry_equiv_pos_site_id
_symmetry_equiv_pos_as_xyz
1 x,y,z
2 1/2-x,1/2+y,1/2-z
3 -x,-y,-z
4 1/2+x,1/2-y,1/2+z
_cell_length_a                   14.2787(9)
_cell_length_b                   9.4954(4)
_cell_length_c                   14.5637(8)
_cell_angle_alpha                90
_cell_angle_beta                 98.003(5)
_cell_angle_gamma                90
_cell_volume                     1955.34
_exptl_crystal_colour            yellow
_exptl_crystal_description       plate
_chemical_melting_point          '417-418 K'
_cell_formula_units_Z            4
_chemical_properties_physical    Heat-sensitive
loop_
_atom_site_label
_atom_site_type_symbol
_atom_site_fract_x
_atom_site_fract_y
_atom_site_fract_z
O1 O 0.65629(15) -0.1690(2) 0.31294(15)
O2 O 0.73157(14) 0.0327(2) 0.04791(14)
N1 N 0.62107(14) 0.1271(2) 0.20065(14)
O3 O 0.51312(18) -0.2533(2) 0.1538(2)
O4 O 0.5994(2) -0.3093(2) 0.05041(18)
C1 C 0.50468(19) -0.0705(3) 0.31642(17)
C2 C 0.34724(19) 0.0291(3) 0.31048(18)
C3 C 0.60822(16) -0.0114(3) 0.18926(17)
N2 N 0.57187(18) -0.2227(2) 0.10331(17)
C4 C 0.43338(18) 0.0129(3) 0.27368(17)
H1 H 0.4417 0.0599 0.2194
C5 C 0.3345(2) -0.0451(3) 0.3921(2)
C6 C 0.59347(19) -0.0931(3) 0.27736(19)
C7 C 0.61022(17) -0.0848(3) 0.10797(18)
C8 C 0.6108(2) 0.2299(3) 0.1242(2)
H2 H 0.5812 0.1851 0.0676
H3 H 0.6726 0.2635 0.1139
O5 O 0.6183(2) -0.0680(3) -0.05269(16)
C9 C 0.2466(3) -0.0319(4) 0.4265(3)
H4 H 0.2367 -0.0807 0.4797
C10 C 0.6517(2) -0.0418(3) 0.0251(2)
C11 C 0.6571(2) 0.1884(3) 0.2921(2)
H5 H 0.7218 0.2193 0.2920
H6 H 0.6571 0.1166 0.3395
C12 C 0.2735(2) 0.1156(4) 0.2678(2)
H7 H 0.2816 0.1664 0.2148
C13 C 0.4919(2) -0.1423(3) 0.3987(2)
H8 H 0.5401 -0.1985 0.4285
C14 C 0.5978(3) 0.3118(3) 0.3155(2)
H9 H 0.6265 0.3541 0.3732
H10 H 0.5352 0.2789 0.3239
C15 C 0.1776(3) 0.0503(4) 0.3831(3)
H11 H 0.1204 0.0571 0.4065
C16 C 0.5504(3) 0.3534(3) 0.1479(3)
H12 H 0.5474 0.4232 0.0989
H13 H 0.4866 0.3207 0.1510
C17 C 0.4086(3) -0.1292(4) 0.4344(2)
H14 H 0.4011 -0.1777 0.4883
C18 C 0.1905(2) 0.1253(4) 0.3037(3)
H15 H 0.1421 0.1824 0.2750
C19 C 0.7720(3) 0.1075(5) -0.0260(3)
H16 H 0.7288 0.1003 -0.0834
H17 H 0.7790 0.2064 -0.0099
C20 C 0.5893(3) 0.4213(4) 0.2392(3)
H18 H 0.5476 0.4965 0.2532
H19 H 0.6510 0.4617 0.2349
C21 C 0.8606(3) 0.0523(6) -0.0395(4)
H20 H 0.8864 0.1074 -0.0852
H21 H 0.8530 -0.0434 -0.0604
H22 H 0.9027 0.0553 0.0179
loop_
_geom_bond_atom_site_label_1
_geom_bond_atom_site_label_2
_geom_bond_site_symmetry_1
_geom_bond_site_symmetry_2
O1 C6 1_555 1_555
O2 C10 1_555 1_555
N1 C3 1_555 1_555
O3 N2 1_555 1_555
O4 N2 1_555 1_555
C1 C4 1_555 1_555
C2 C4 1_555 1_555
C3 C6 1_555 1_555
N2 C7 1_555 1_555
C4 H1 1_555 1_555
C5 C2 1_555 1_555
C6 C1 1_555 1_555
C7 C3 1_555 1_555
C8 N1 1_555 1_555
H2 C8 1_555 1_555
H3 C8 1_555 1_555
O5 C10 1_555 1_555
C9 C5 1_555 1_555
H4 C9 1_555 1_555
C10 C7 1_555 1_555
C11 N1 1_555 1_555
H5 C11 1_555 1_555
H6 C11 1_555 1_555
C12 C2 1_555 1_555
H7 C12 1_555 1_555
C13 C1 1_555 1_555
H8 C13 1_555 1_555
C14 C11 1_555 1_555
H9 C14 1_555 1_555
H10 C14 1_555 1_555
C15 C9 1_555 1_555
H11 C15 1_555 1_555
C16 C8 1_555 1_555
H12 C16 1_555 1_555
H13 C16 1_555 1_555
C17 C5 1_555 1_555
H14 C17 1_555 1_555
C18 C12 1_555 1_555
H15 C18 1_555 1_555
C19 O2 1_555 1_555
H16 C19 1_555 1_555
H17 C19 1_555 1_555
C20 C14 1_555 1_555
H18 C20 1_555 1_555
H19 C20 1_555 1_555
C21 C19 1_555 1_555
H20 C21 1_555 1_555
H21 C21 1_555 1_555
H22 C21 1_555 1_555
C13 C17 1_555 1_555
C15 C18 1_555 1_555
C16 C20 1_555 1_555

#END
