
#######################################################################
#
#                 Cambridge Crystallographic Data Centre
#                                CCDC 
#
#######################################################################
#
# If this CIF has been generated from an entry in the Cambridge 
# Structural Database, then it will include bibliographic, chemical, 
# crystal, experimental, refinement or atomic coordinate data resulting 
# from the CCDC's data processing and validation procedures.
#
#######################################################################

data_APORUT
_chemical_formula_moiety         '2(C1 H6 N3 1+),C12 H8 N2 O6 S2 2-,3(C14 H14)'
_chemical_name_systematic        
"bis(Guanidinium) 4,4'-azobenzenedisulfonate tris(1,2-diphenylethane) clathrate"
_symmetry_cell_setting           monoclinic
_symmetry_space_group_name_H-M   'P 21/n'
_symmetry_Int_Tables_number      14
_space_group_name_Hall           '-P 2yn'
loop_
_symmetry_equiv_pos_site_id
_symmetry_equiv_pos_as_xyz
1 x,y,z
2 1/2-x,1/2+y,1/2-z
3 -x,-y,-z
4 1/2+x,1/2-y,1/2+z
_cell_length_a                   7.7072(6)
_cell_length_b                   29.840(2)
_cell_length_c                   11.4574(9)
_cell_angle_alpha                90
_cell_angle_beta                 90.748(1)
_cell_angle_gamma                90
_cell_volume                     2634.78
_exptl_crystal_colour            orange
_exptl_crystal_description       plate
_cell_formula_units_Z            2
_exptl_crystal_recrystallization_method methanol
loop_
_atom_site_label
_atom_site_type_symbol
_atom_site_fract_x
_atom_site_fract_y
_atom_site_fract_z
S1 S 0.94526(4) 0.205936(9) 0.89625(2)
C2 C 0.89839(15) 0.12703(4) 1.01346(10)
H1 H 0.8375 0.1445 1.0689
C6 C 1.05519(16) 0.12223(4) 0.83165(11)
H4 H 1.1005 0.1363 0.7642
C8 C 1.07807(16) 0.07656(4) 0.84959(11)
H6 H 1.1399 0.0592 0.7944
C13 C 0.92135(15) 0.08160(4) 1.03115(10)
H11 H 0.8770 0.0677 1.0991
C17 C 0.96517(14) 0.14715(4) 0.91362(10)
C22 C 1.01025(15) 0.05625(4) 0.94857(10)
N1 N 1.03675(14) 0.00893(4) 0.95763(9)
O1 O 1.09629(11) 0.22525(3) 0.95661(7)
O2 O 0.78358(11) 0.21871(3) 0.95238(7)
O3 O 0.94539(11) 0.21533(3) 0.77153(7)
S1B S 1.05474(4) -0.205936(9) 1.10375(2)
C2B C 1.10161(15) -0.12703(4) 0.98654(10)
H1B H 1.1625 -0.1445 0.9311
C6B C 0.94481(16) -0.12223(4) 1.16835(11)
H4B H 0.8995 -0.1363 1.2358
C8B C 0.92193(16) -0.07656(4) 1.15041(11)
H6B H 0.8601 -0.0592 1.2056
C13B C 1.07865(15) -0.08160(4) 0.96885(10)
H11B H 1.1230 -0.0677 0.9009
C17B C 1.03483(14) -0.14715(4) 1.08638(10)
C22B C 0.98975(15) -0.05625(4) 1.05143(10)
N1B N 0.96325(14) -0.00893(4) 1.04237(9)
O1B O 0.90371(11) -0.22525(3) 1.04339(7)
O2B O 1.21642(11) -0.21871(3) 1.04762(7)
O3B O 1.05461(11) -0.21533(3) 1.22847(7)
C1 C 0.93888(15) 0.25856(4) 0.24917(10)
N2 N 0.93589(13) 0.27180(3) 0.35974(9)
H26 H 0.8360 0.2762 0.3943
H27 H 1.0338 0.2762 0.3985
N3 N 1.08939(13) 0.25197(4) 0.19682(9)
H28 H 1.0912 0.2433 0.1235
H29 H 1.1874 0.2563 0.2355
N4 N 0.79154(13) 0.25197(4) 0.19056(9)
H30 H 0.7938 0.2433 0.1172
H31 H 0.6916 0.2563 0.2250
C3 C 0.45794(15) 1.05091(4) 0.60765(11)
H2 H 0.4259 1.0270 0.5569
C4 C 0.56153(16) 0.90547(4) 0.91515(11)
H3 H 0.5966 0.9269 0.9721
C5 C 0.47100(15) 0.91954(4) 0.81570(11)
C7 C 0.46207(17) 0.84248(5) 0.74970(12)
H5 H 0.4285 0.8210 0.6925
C9 C 0.59200(16) 1.07685(4) 0.78424(11)
H7 H 0.6516 1.0711 0.8558
C10 C 0.41606(16) 1.09448(4) 0.57669(11)
H8 H 0.3549 1.1003 0.5058
C11 C 0.60121(16) 0.86049(4) 0.93196(12)
H9 H 0.6628 0.8513 1.0003
C12 C 0.55128(16) 0.82895(4) 0.84953(12)
H10 H 0.5780 0.7982 0.8613
C15 C 0.42184(16) 0.88746(4) 0.73328(11)
H13 H 0.3600 0.8965 0.6649
C16 C 0.54619(15) 1.04131(4) 0.71168(11)
C19 C 0.46375(17) 1.12953(4) 0.64965(13)
H16 H 0.4363 1.1595 0.6287
C21 C 0.43201(16) 0.96850(4) 0.79607(12)
H18 H 0.4011 0.9825 0.8713
H19 H 0.3309 0.9714 0.7424
C23 C 0.55158(18) 1.12067(5) 0.75324(13)
H20 H 0.5844 1.1447 0.8034
C27 C 0.58756(16) 0.99340(4) 0.74422(12)
H23 H 0.6845 0.9932 0.8017
H24 H 0.6265 0.9772 0.6738
C14 C 1.03810(16) 0.07422(4) 0.34605(11)
H12 H 1.0650 0.0522 0.2891
C18 C 0.92159(15) 0.01235(4) 0.47315(11)
H14 H 0.8873 -0.0026 0.3992
H15 H 0.8227 0.0102 0.5271
C20 C 1.07887(17) 0.11872(5) 0.32529(12)
H17 H 1.1343 0.1270 0.2550
C24 C 0.95618(18) 0.13885(5) 0.50953(12)
H21 H 0.9268 0.1610 0.5654
C25 C 0.95838(15) 0.06117(4) 0.44895(11)
C26 C 1.03848(18) 0.15110(4) 0.40748(13)
H22 H 1.0671 0.1816 0.3939
C28 C 0.91663(16) 0.09411(4) 0.53020(11)
H25 H 0.8606 0.0859 0.6004
C14B C 0.96190(16) -0.07422(4) 0.65395(11)
H12B H 0.9350 -0.0522 0.7109
C18B C 1.07841(15) -0.01235(4) 0.52685(11)
H14B H 1.1127 0.0026 0.6008
H15B H 1.1773 -0.0102 0.4729
C20B C 0.92113(17) -0.11872(5) 0.67471(12)
H17B H 0.8657 -0.1270 0.7450
C24B C 1.04382(18) -0.13885(5) 0.49047(12)
H21B H 1.0732 -0.1610 0.4346
C25B C 1.04162(15) -0.06117(4) 0.55105(11)
C26B C 0.96152(18) -0.15110(4) 0.59252(13)
H22B H 0.9329 -0.1816 0.6061
C28B C 1.08337(16) -0.09411(4) 0.46980(11)
H25B H 1.1394 -0.0859 0.3996
loop_
_geom_bond_atom_site_label_1
_geom_bond_atom_site_label_2
_geom_bond_site_symmetry_1
_geom_bond_site_symmetry_2
S1 C17 1_555 1_555
C1 N2 1_555 1_555
C2 H1 1_555 1_555
C3 H2 1_555 1_555
C4 H3 1_555 1_555
C5 C4 1_555 1_555
C6 H4 1_555 1_555
C7 H5 1_555 1_555
C8 C6 1_555 1_555
H6 C8 1_555 1_555
C9 H7 1_555 1_555
C10 C3 1_555 1_555
H8 C10 1_555 1_555
C11 C4 1_555 1_555
H9 C11 1_555 1_555
C12 C7 1_555 1_555
H10 C12 1_555 1_555
C13 C2 1_555 1_555
H11 C13 1_555 1_555
C14 H12 1_555 1_555
C15 C5 1_555 1_555
H13 C15 1_555 1_555
C16 C3 1_555 1_555
C17 C2 1_555 1_555
C18 H14 1_555 1_555
H15 C18 1_555 1_555
C19 C10 1_555 1_555
H16 C19 1_555 1_555
C20 C14 1_555 1_555
H17 C20 1_555 1_555
C21 C5 1_555 1_555
H18 C21 1_555 1_555
H19 C21 1_555 1_555
C22 C8 1_555 1_555
C23 C9 1_555 1_555
H20 C23 1_555 1_555
C24 H21 1_555 1_555
C25 C14 1_555 1_555
C26 C20 1_555 1_555
H22 C26 1_555 1_555
C27 C16 1_555 1_555
H23 C27 1_555 1_555
H24 C27 1_555 1_555
C28 C24 1_555 1_555
H25 C28 1_555 1_555
N1 C22 1_555 1_555
N2 H26 1_555 1_555
H27 N2 1_555 1_555
N3 C1 1_555 1_555
H28 N3 1_555 1_555
H29 N3 1_555 1_555
N4 C1 1_555 1_555
H30 N4 1_555 1_555
H31 N4 1_555 1_555
O1 S1 1_555 1_555
O2 S1 1_555 1_555
O3 S1 1_555 1_555
S1B C17B 1_555 1_555
C2B H1B 1_555 1_555
C6B H4B 1_555 1_555
C8B C6B 1_555 1_555
H6B C8B 1_555 1_555
C13B C2B 1_555 1_555
H11B C13B 1_555 1_555
C14B H12B 1_555 1_555
C17B C2B 1_555 1_555
C18B C18 1_555 1_555
H14B C18B 1_555 1_555
H15B C18B 1_555 1_555
C20B C14B 1_555 1_555
H17B C20B 1_555 1_555
C22B C8B 1_555 1_555
C24B H21B 1_555 1_555
C25B C14B 1_555 1_555
C26B C20B 1_555 1_555
H22B C26B 1_555 1_555
C28B C24B 1_555 1_555
H25B C28B 1_555 1_555
N1B N1 1_555 1_555
O1B S1B 1_555 1_555
O2B S1B 1_555 1_555
O3B S1B 1_555 1_555
C6 C17 1_555 1_555
C7 C15 1_555 1_555
C9 C16 1_555 1_555
C11 C12 1_555 1_555
C13 C22 1_555 1_555
C18 C25 1_555 1_555
C19 C23 1_555 1_555
C21 C27 1_555 1_555
C24 C26 1_555 1_555
C25 C28 1_555 1_555
C6B C17B 1_555 1_555
C13B C22B 1_555 1_555
C18B C25B 1_555 1_555
C22B N1B 1_555 1_555
C24B C26B 1_555 1_555
C25B C28B 1_555 1_555

#END
