
#######################################################################
#
#                 Cambridge Crystallographic Data Centre
#                                CCDC 
#
#######################################################################
#
# If this CIF has been generated from an entry in the Cambridge 
# Structural Database, then it will include bibliographic, chemical, 
# crystal, experimental, refinement or atomic coordinate data resulting 
# from the CCDC's data processing and validation procedures.
#
#######################################################################

data_APORED
_chemical_formula_moiety         '2(C1 H6 N3 1+),C14 H12 O8 S2 2-,C14 H12'
_chemical_name_systematic        
'bis(Guanidinium) 1,2-bis(4-sulfonatophenoxy)ethane stilbene clathrate'
_symmetry_cell_setting           triclinic
_symmetry_space_group_name_H-M   'P -1'
_symmetry_Int_Tables_number      2
_space_group_name_Hall           '-P 1'
loop_
_symmetry_equiv_pos_site_id
_symmetry_equiv_pos_as_xyz
1 x,y,z
2 -x,-y,-z
_cell_length_a                   6.0960(4)
_cell_length_b                   7.2875(4)
_cell_length_c                   18.3630(11)
_cell_angle_alpha                97.193(1)
_cell_angle_beta                 98.178(1)
_cell_angle_gamma                92.011(1)
_cell_volume                     799.955
_exptl_crystal_colour            colorless
_exptl_crystal_description       plate
_cell_formula_units_Z            1
_exptl_crystal_recrystallization_method methanol
loop_
_atom_site_label
_atom_site_type_symbol
_atom_site_fract_x
_atom_site_fract_y
_atom_site_fract_z
C1 C 0.4396(2) 0.2404(2) 0.42552(8)
N1 N 0.3427(2) 0.07510(18) 0.42579(7)
H7 H 0.4225 -0.0232 0.4259
H8 H 0.1986 0.0635 0.4258
N2 N 0.6560(2) 0.25603(19) 0.42545(8)
H9 H 0.7346 0.1570 0.4256
H10 H 0.7216 0.3654 0.4253
N3 N 0.3218(2) 0.39020(18) 0.42330(7)
H11 H 0.3881 0.4986 0.4218
H12 H 0.1775 0.3810 0.4233
C2 C 0.8206(2) 0.6517(2) 0.29610(8)
C3 C 1.0125(3) 0.6936(2) 0.26773(8)
H1 H 1.1321 0.7640 0.2988
C4 C 1.0312(3) 0.6335(2) 0.19407(9)
H2 H 1.1631 0.6619 0.1748
C5 C 0.8546(3) 0.5314(2) 0.14898(8)
C6 C 0.6652(3) 0.4844(2) 0.17814(9)
H3 H 0.5473 0.4106 0.1476
C7 C 0.6480(3) 0.5447(2) 0.25145(9)
H4 H 0.5181 0.5129 0.2712
C8 C 1.0363(3) 0.5224(2) 0.04127(8)
H5 H 1.1656 0.4511 0.0574
H6 H 1.0776 0.6562 0.0549
O1 O 0.92147(18) 0.61294(15) 0.43565(6)
O2 O 0.89169(17) 0.92418(14) 0.40285(6)
O3 O 0.56112(17) 0.72403(14) 0.39488(6)
O4 O 0.8497(2) 0.47151(16) 0.07502(6)
S1 S 0.79784(6) 0.73411(5) 0.389469(19)
C2A C 1.1794(2) 0.3483(2) -0.29610(8)
C3A C 0.9875(3) 0.3064(2) -0.26773(8)
H1A H 0.8679 0.2360 -0.2988
C4A C 0.9688(3) 0.3665(2) -0.19407(9)
H2A H 0.8369 0.3381 -0.1748
C5A C 1.1454(3) 0.4686(2) -0.14898(8)
C6A C 1.3348(3) 0.5156(2) -0.17814(9)
H3A H 1.4527 0.5894 -0.1476
C7A C 1.3520(3) 0.4553(2) -0.25145(9)
H4A H 1.4819 0.4871 -0.2712
C8A C 0.9637(3) 0.4776(2) -0.04127(8)
H5A H 0.8344 0.5489 -0.0574
H6A H 0.9224 0.3438 -0.0549
O1A O 1.07853(18) 0.38706(15) -0.43565(6)
O2A O 1.10831(17) 0.07582(14) -0.40285(6)
O3A O 1.43888(17) 0.27597(14) -0.39488(6)
O4A O 1.1503(2) 0.52849(16) -0.07502(6)
S1A S 1.20216(6) 0.26589(5) -0.389469(19)
C9 C 0.463(3) 0.059(3) 0.2308(10)
H13 H 0.5474 0.0718 0.2790
C10 C 0.552(4) -0.036(4) 0.1700(11)
H14 H 0.6951 -0.0838 0.1787
C11 C 0.436(2) -0.060(2) 0.0981(8)
H15 H 0.4975 -0.1255 0.0582
C12 C 0.2281(15) 0.0136(12) 0.0864(6)
C13 C 0.145(2) 0.108(2) 0.1467(7)
H16 H 0.0049 0.1597 0.1375
C14 C 0.257(3) 0.131(3) 0.2211(13)
H17 H 0.1944 0.1929 0.2613
C15 C 0.1043(8) -0.0173(5) 0.0102(3)
H18 H 0.1836 -0.0673 -0.0279
C9A C -0.463(3) -0.059(3) -0.2308(10)
H13A H -0.5474 -0.0718 -0.2790
C10A C -0.552(4) 0.036(4) -0.1700(11)
H14A H -0.6951 0.0838 -0.1787
C11A C -0.436(2) 0.060(2) -0.0981(8)
H15A H -0.4975 0.1255 -0.0582
C12A C -0.2281(15) -0.0136(12) -0.0864(6)
C13A C -0.145(2) -0.108(2) -0.1467(7)
H16A H -0.0049 -0.1597 -0.1375
C14A C -0.257(3) -0.131(3) -0.2211(13)
H17A H -0.1944 -0.1929 -0.2613
C15A C -0.1043(8) 0.0173(5) -0.0102(3)
H18A H -0.1836 0.0673 0.0279
C16? C 0.543(6) -0.044(5) 0.1541(15)
C17? C 0.378(3) -0.037(3) 0.0940(9)
C18? C 0.174(2) 0.0435(17) 0.0988(7)
C19? C 0.141(4) 0.125(3) 0.1674(8)
C20? C 0.310(4) 0.120(4) 0.2246(15)
C21? C 0.0009(9) 0.0410(6) 0.0352(3)
C22? C 0.504(4) 0.035(4) 0.2203(12)
H19? H 0.6775 -0.1018 0.1483
H20? H 0.4054 -0.0901 0.0464
H21? H 0.0073 0.1826 0.1748
H22? H 0.2894 0.1809 0.2718
H23? H -0.1274 0.1053 0.0444
H24? H 0.6090 0.0315 0.2635
loop_
_geom_bond_atom_site_label_1
_geom_bond_atom_site_label_2
_geom_bond_site_symmetry_1
_geom_bond_site_symmetry_2
C1 N1 1_555 1_555
C2 C3 1_555 1_555
C3 H1 1_555 1_555
C4 C3 1_555 1_555
H2 C4 1_555 1_555
C5 C4 1_555 1_555
C6 C5 1_555 1_555
H3 C6 1_555 1_555
C7 C2 1_555 1_555
H4 C7 1_555 1_555
C8 H5 1_555 1_555
H6 C8 1_555 1_555
N1 H7 1_555 1_555
H8 N1 1_555 1_555
N2 C1 1_555 1_555
H9 N2 1_555 1_555
H10 N2 1_555 1_555
N3 C1 1_555 1_555
H11 N3 1_555 1_555
H12 N3 1_555 1_555
O1 S1 1_555 1_555
O2 S1 1_555 1_555
O3 S1 1_555 1_555
O4 C5 1_555 1_555
S1 C2 1_555 1_555
C9 H13 1_555 1_555
C10 C9 1_555 1_555
H14 C10 1_555 1_555
C11 C10 1_555 1_555
H15 C11 1_555 1_555
C12 C11 1_555 1_555
C13 C12 1_555 1_555
H16 C13 1_555 1_555
C14 C9 1_555 1_555
H17 C14 1_555 1_555
C15 C12 1_555 1_555
H18 C15 1_555 1_555
C2A C3A 1_555 1_555
C3A H1A 1_555 1_555
C4A C3A 1_555 1_555
H2A C4A 1_555 1_555
C5A C4A 1_555 1_555
C6A C5A 1_555 1_555
H3A C6A 1_555 1_555
C7A C2A 1_555 1_555
H4A C7A 1_555 1_555
C8A C8 1_555 1_555
H5A C8A 1_555 1_555
H6A C8A 1_555 1_555
O1A S1A 1_555 1_555
O2A S1A 1_555 1_555
O3A S1A 1_555 1_555
O4A C5A 1_555 1_555
S1A C2A 1_555 1_555
C9A H13A 1_555 1_555
C10A C9A 1_555 1_555
H14A C10A 1_555 1_555
C11A C10A 1_555 1_555
H15A C11A 1_555 1_555
C12A C11A 1_555 1_555
C13A C12A 1_555 1_555
H16A C13A 1_555 1_555
C14A C9A 1_555 1_555
H17A C14A 1_555 1_555
C15A C15 1_555 1_555
H18A C15A 1_555 1_555
C6 C7 1_555 1_555
C8 O4 1_555 1_555
C13 C14 1_555 1_555
C6A C7A 1_555 1_555
C8A O4A 1_555 1_555
C12A C15A 1_555 1_555
C13A C14A 1_555 1_555

#END
