
#######################################################################
#
#                 Cambridge Crystallographic Data Centre
#                                CCDC 
#
#######################################################################
#
# If this CIF has been generated from an entry in the Cambridge 
# Structural Database, then it will include bibliographic, chemical, 
# crystal, experimental, refinement or atomic coordinate data resulting 
# from the CCDC's data processing and validation procedures.
#
#######################################################################

data_APOTAB
_chemical_formula_moiety         
'2(C1 H6 N3 1+),C12 H8 N2 O6 S2 2-,3(C12 H8 S3)'
_chemical_name_systematic        
"bis(Guanidinium) 4,4'-azobenzenedisulfonate tris(2,2':5',2''-terthiophene) clathrate"
_symmetry_cell_setting           monoclinic
_symmetry_space_group_name_H-M   'P 21/n'
_symmetry_Int_Tables_number      14
_space_group_name_Hall           '-P 2yn'
loop_
_symmetry_equiv_pos_site_id
_symmetry_equiv_pos_as_xyz
1 x,y,z
2 1/2-x,1/2+y,1/2-z
3 -x,-y,-z
4 1/2+x,1/2-y,1/2+z
_cell_length_a                   7.6167(12)
_cell_length_b                   31.632(5)
_cell_length_c                   11.2812(17)
_cell_angle_alpha                90
_cell_angle_beta                 90.604(2)
_cell_angle_gamma                90
_cell_volume                     2717.84
_exptl_crystal_colour            orange
_exptl_crystal_description       plate
_cell_formula_units_Z            2
_exptl_crystal_recrystallization_method methanol
loop_
_atom_site_label
_atom_site_type_symbol
_atom_site_fract_x
_atom_site_fract_y
_atom_site_fract_z
S1 S 0.01167(6) -0.198153(16) 1.04365(4)
C1 C 0.0874(3) -0.12041(7) 0.94895(19)
H1 H 0.1485 -0.1353 0.8891
C2 C 0.0768(3) -0.07646(8) 0.9456(2)
H2 H 0.1302 -0.0612 0.8830
C3 C 0.0076(3) -0.14216(7) 1.04078(18)
C5 C -0.0125(3) -0.05490(7) 1.0343(2)
C6 C -0.0810(3) -0.12059(7) 1.1291(2)
H4 H -0.1351 -0.1357 1.1917
C8 C -0.0902(3) -0.07691(8) 1.1255(2)
H5 H -0.1501 -0.0620 1.1860
N2 N -0.0360(3) -0.00943(7) 1.04069(17)
O1 O -0.14666(19) -0.21229(5) 0.98035(14)
O2 O 0.17073(19) -0.21115(5) 0.98284(14)
O3 O 0.0111(2) -0.21075(5) 1.16764(14)
S1B S -0.01167(6) 0.198153(16) 0.95635(4)
C1B C -0.0874(3) 0.12041(7) 1.05105(19)
H1B H -0.1485 0.1353 1.1109
C2B C -0.0768(3) 0.07646(8) 1.0544(2)
H2B H -0.1302 0.0612 1.1170
C3B C -0.0076(3) 0.14216(7) 0.95922(18)
C5B C 0.0125(3) 0.05490(7) 0.9657(2)
C6B C 0.0810(3) 0.12059(7) 0.8709(2)
H4B H 0.1351 0.1357 0.8083
C8B C 0.0902(3) 0.07691(8) 0.8745(2)
H5B H 0.1501 0.0620 0.8140
N2B N 0.0360(3) 0.00943(7) 0.95931(17)
O1B O 0.14666(19) 0.21229(5) 1.01965(14)
O2B O -0.17073(19) 0.21115(5) 1.01716(14)
O3B O -0.0111(2) 0.21075(5) 0.83236(14)
S2 S 0.56730(8) 0.026417(19) 0.31814(5)
S3 S 0.42203(9) 0.14332(2) 0.13635(6)
S4 S 0.41853(11) -0.09967(2) 0.19972(7)
C4 C 0.5839(3) -0.07355(7) 0.38536(18)
H3 H 0.6397 -0.0560 0.4428
C7 C 0.5025(3) -0.05844(8) 0.2791(2)
C10 C 0.4854(3) -0.01542(8) 0.2359(2)
C11 C 0.4935(3) 0.06278(8) 0.2146(2)
C12 C 0.5993(3) 0.12824(8) 0.3248(2)
H6 H 0.6596 0.1142 0.3875
C13 C 0.5162(3) 0.10763(8) 0.2338(2)
C14 C 0.5859(4) 0.17267(9) 0.3157(3)
H7 H 0.6359 0.1917 0.3719
C15 C 0.4949(3) 0.18526(9) 0.2189(3)
H8 H 0.4737 0.2140 0.1989
C16 C 0.4123(3) 0.04282(9) 0.1218(2)
H9 H 0.3638 0.0574 0.0555
C17 C 0.4074(3) -0.00141(9) 0.1342(2)
H10 H 0.3549 -0.0197 0.0773
C18 C 0.5713(4) -0.11696(10) 0.3940(3)
H11 H 0.6189 -0.1326 0.4587
C19 C 0.4858(5) -0.13519(9) 0.3028(3)
H12 H 0.4653 -0.1647 0.2967
C9 C 0.9853(3) 0.26334(7) 0.3016(2)
N1 N 0.9852(3) 0.28096(7) 0.40771(17)
H13 H 0.8854 0.2884 0.4403
H14 H 1.0850 0.2853 0.4459
N3 N 0.8359(2) 0.25679(6) 0.24387(17)
H15 H 0.7358 0.2642 0.2761
H16 H 0.8365 0.2450 0.1732
N4 N 1.1361(3) 0.25255(7) 0.25210(18)
H17 H 1.2359 0.2571 0.2900
H18 H 1.1363 0.2408 0.1814
S5? S 1.05388(18) -0.00489(5) 0.43620(12)
S6? S 0.9121(8) -0.1182(2) 0.6271(4)
S7? S 0.9535(7) 0.12319(15) 0.5606(4)
C20? C 0.964(2) -0.1589(4) 0.5620(17)
H19? H 0.9403 -0.1859 0.5950
C21? C 1.0470(12) -0.1548(2) 0.4517(11)
H20? H 1.0778 -0.1773 0.4001
C22? C 1.079(2) -0.1070(6) 0.4294(18)
H21? H 1.1435 -0.0946 0.3666
C23? C 0.990(3) -0.0849(6) 0.5264(15)
C24? C 0.9841(7) -0.0402(2) 0.5428(6)
C25? C 0.9126(7) -0.01888(19) 0.6372(4)
H22? H 0.8675 -0.0327 0.7052
C26? C 0.9131(7) 0.02473(19) 0.6230(5)
H23? H 0.8677 0.0437 0.6804
C27? C 0.9847(7) 0.0379(2) 0.5191(6)
C28? C 1.000(2) 0.0814(6) 0.4774(10)
C29? C 1.0868(6) 0.09108(14) 0.3601(4)
H24? H 1.1324 0.0726 0.3017
C30? C 1.081(3) 0.1323(8) 0.3630(11)
H25? H 1.1184 0.1465 0.2935
C31? C 1.0210(16) 0.1601(4) 0.4634(9)
H26? H 1.0213 0.1900 0.4700
loop_
_geom_bond_atom_site_label_1
_geom_bond_atom_site_label_2
_geom_bond_site_symmetry_1
_geom_bond_site_symmetry_2
S1 C3 1_555 1_555
S2 C10 1_555 1_555
S3 C13 1_555 1_555
S4 C7 1_555 1_555
C1 H1 1_555 1_555
C2 C1 1_555 1_555
H2 C2 1_555 1_555
C3 C1 1_555 1_555
C4 H3 1_555 1_555
C5 C2 1_555 1_555
C6 C3 1_555 1_555
H4 C6 1_555 1_555
C7 C4 1_555 1_555
C8 C5 1_555 1_555
H5 C8 1_555 1_555
C9 N1 1_555 1_555
C10 C7 1_555 1_555
C11 S2 1_555 1_555
C12 H6 1_555 1_555
C13 C11 1_555 1_555
C14 C12 1_555 1_555
H7 C14 1_555 1_555
C15 S3 1_555 1_555
H8 C15 1_555 1_555
C16 C11 1_555 1_555
H9 C16 1_555 1_555
C17 C10 1_555 1_555
H10 C17 1_555 1_555
C18 C4 1_555 1_555
H11 C18 1_555 1_555
C19 S4 1_555 1_555
H12 C19 1_555 1_555
N1 H13 1_555 1_555
H14 N1 1_555 1_555
N2 C5 1_555 1_555
N3 C9 1_555 1_555
H15 N3 1_555 1_555
H16 N3 1_555 1_555
N4 C9 1_555 1_555
H17 N4 1_555 1_555
H18 N4 1_555 1_555
O1 S1 1_555 1_555
O2 S1 1_555 1_555
O3 S1 1_555 1_555
S1B C3B 1_555 1_555
C1B H1B 1_555 1_555
C2B C1B 1_555 1_555
H2B C2B 1_555 1_555
C3B C1B 1_555 1_555
C5B C2B 1_555 1_555
C6B C3B 1_555 1_555
H4B C6B 1_555 1_555
C8B C5B 1_555 1_555
H5B C8B 1_555 1_555
N2B N2 1_555 1_555
O1B S1B 1_555 1_555
O2B S1B 1_555 1_555
O3B S1B 1_555 1_555
C6 C8 1_555 1_555
C12 C13 1_555 1_555
C14 C15 1_555 1_555
C16 C17 1_555 1_555
C18 C19 1_555 1_555
C5B N2B 1_555 1_555
C6B C8B 1_555 1_555

#END
