
#######################################################################
#
#                 Cambridge Crystallographic Data Centre
#                                CCDC 
#
#######################################################################
#
# If this CIF has been generated from an entry in the Cambridge 
# Structural Database, then it will include bibliographic, chemical, 
# crystal, experimental, refinement or atomic coordinate data resulting 
# from the CCDC's data processing and validation procedures.
#
#######################################################################

data_APOXEK
_chemical_formula_moiety         'C9 H6 Br1 N1 O1'
_chemical_name_systematic        5-(4-bromophenyl)-1,2-oxazole
_symmetry_cell_setting           monoclinic
_symmetry_space_group_name_H-M   'P 21/c'
_symmetry_Int_Tables_number      14
_space_group_name_Hall           '-P 2ybc'
loop_
_symmetry_equiv_pos_site_id
_symmetry_equiv_pos_as_xyz
1 x,y,z
2 -x,1/2+y,1/2-z
3 -x,-y,-z
4 x,1/2-y,1/2+z
_cell_length_a                   10.441(10)
_cell_length_b                   13.965(13)
_cell_length_c                   5.949(6)
_cell_angle_alpha                90
_cell_angle_beta                 95.114(13)
_cell_angle_gamma                90
_cell_volume                     863.962
_exptl_crystal_colour            colorless
_exptl_crystal_description       block
_cell_formula_units_Z            4
loop_
_atom_site_label
_atom_site_type_symbol
_atom_site_fract_x
_atom_site_fract_y
_atom_site_fract_z
Br1 Br 1.46590(6) 0.87671(5) 1.21147(11)
C1 C 0.8979(5) 0.8779(3) 0.8183(8)
C2 C 1.2894(5) 0.8790(3) 1.0871(8)
C3 C 1.0336(5) 0.8801(3) 0.9108(8)
N1 N 0.7395(5) 0.8896(4) 0.5357(9)
O1 O 0.8743(4) 0.8968(3) 0.5937(6)
C4 C 0.6921(6) 0.8679(4) 0.7198(10)
H1 H 0.6046 0.8588 0.7307
C5 C 1.2589(5) 0.9142(4) 0.8723(9)
H2 H 1.3229 0.9374 0.7876
C6 C 0.7862(6) 0.8590(4) 0.9061(10)
H3 H 0.7736 0.8437 1.0546
C7 C 1.0687(5) 0.8456(3) 1.1294(8)
H4 H 1.0054 0.8233 1.2168
C8 C 1.1958(5) 0.8444(4) 1.2165(8)
H5 H 1.2183 0.8206 1.3606
C9 C 1.1307(5) 0.9145(4) 0.7843(9)
H6 H 1.1093 0.9379 0.6394
loop_
_geom_bond_atom_site_label_1
_geom_bond_atom_site_label_2
_geom_bond_site_symmetry_1
_geom_bond_site_symmetry_2
Br1 C2 1_555 1_555
C1 C3 1_555 1_555
C2 C5 1_555 1_555
C3 C7 1_555 1_555
N1 O1 1_555 1_555
O1 C1 1_555 1_555
C4 N1 1_555 1_555
H1 C4 1_555 1_555
C5 H2 1_555 1_555
C6 C1 1_555 1_555
H3 C6 1_555 1_555
C7 H4 1_555 1_555
C8 C2 1_555 1_555
H5 C8 1_555 1_555
C9 C3 1_555 1_555
H6 C9 1_555 1_555
C4 C6 1_555 1_555
C5 C9 1_555 1_555
C7 C8 1_555 1_555

#END
