
#######################################################################
#
#                 Cambridge Crystallographic Data Centre
#                                CCDC 
#
#######################################################################
#
# If this CIF has been generated from an entry in the Cambridge 
# Structural Database, then it will include bibliographic, chemical, 
# crystal, experimental, refinement or atomic coordinate data resulting 
# from the CCDC's data processing and validation procedures.
#
#######################################################################

data_APTERN
_chemical_name_common            'Apterin monohydrate'
_chemical_formula_moiety         'C20 H24 O10,H2 O1'
_chemical_name_systematic        
'8-(2-(\b-D-Glucosyloxy)isopropyl)-9-hydroxy-8,9-dihydroangelicin monohydrate'
_symmetry_cell_setting           orthorhombic
_symmetry_space_group_name_H-M   'P 21 21 21'
_symmetry_Int_Tables_number      19
_space_group_name_Hall           'P 2ac 2ab'
loop_
_symmetry_equiv_pos_site_id
_symmetry_equiv_pos_as_xyz
1 x,y,z
2 1/2-x,-y,1/2+z
3 1/2+x,1/2-y,-z
4 -x,1/2+y,1/2-z
_cell_length_a                   8.0438(13)
_cell_length_b                   10.0211(19)
_cell_length_c                   25.5133(56)
_cell_angle_alpha                90
_cell_angle_beta                 90
_cell_angle_gamma                90
_cell_volume                     2056.57
_cell_formula_units_Z            4
loop_
_atom_site_label
_atom_site_type_symbol
_atom_site_fract_x
_atom_site_fract_y
_atom_site_fract_z
O1 O 0.70440 -0.29990 0.45900
O2 O 0.84450 -0.54020 0.49950
O3 O 0.60190 -0.75200 0.49830
O4 O 0.45110 -0.77840 0.39680
O5 O 0.52620 -0.41920 0.40870
O6 O 0.18940 -0.49930 0.37920
O7 O 0.71940 -0.24460 0.34010
O8 O 0.41060 -0.15480 0.42320
O9 O 0.20330 -0.04180 0.32110
O10 O -0.03900 0.05850 0.31830
C1 C 0.68640 -0.42280 0.43320
C2 C 0.68220 -0.52800 0.47690
C3 C 0.62880 -0.66360 0.45530
C4 C 0.47390 -0.65180 0.42270
C5 C 0.48920 -0.54120 0.38150
C6 C 0.33270 -0.52080 0.34950
C7 C 0.78660 -0.18920 0.43240
C8 C 0.77200 -0.07740 0.47210
C9 C 0.96760 -0.22410 0.42210
C10 C 0.70030 -0.14370 0.38160
C11 C 0.51540 -0.10240 0.38240
C12 C 0.46450 -0.14700 0.32880
C13 C 0.58450 -0.23100 0.30880
C14 C 0.56480 -0.29490 0.26000
C15 C 0.42120 -0.27110 0.23240
C16 C 0.29630 -0.18740 0.25120
C17 C 0.14700 -0.15440 0.22380
C18 C 0.03550 -0.07210 0.24420
C19 C 0.05610 -0.01470 0.29490
C20 C 0.32220 -0.12640 0.30030
H1 H -0.07200 -0.04400 0.22100
H2 H 0.12700 -0.20100 0.18700
H3 H 0.40500 -0.32300 0.19500
H4 H 0.65800 -0.36000 0.24500
H5 H 0.50100 0.00000 0.39100
H6 H 0.76900 -0.05300 0.37600
H7 H 0.58400 -0.57100 0.35600
H8 H 0.37200 -0.62800 0.44700
H9 H 0.72600 -0.70200 0.43100
H10 H 0.59100 -0.49800 0.50500
H11 H 0.78200 -0.44400 0.40600
H12 H 0.31300 -0.60300 0.32600
H13 H 0.35000 -0.43900 0.32600
H14 H 0.64900 -0.05300 0.47900
H15 H 0.82600 -0.10300 0.50800
H16 H 0.83300 0.00900 0.45900
H17 H 0.97600 -0.30200 0.39400
H18 H 1.03400 -0.14400 0.40700
H19 H 1.02800 -0.25700 0.45600
H20 H 0.33200 -0.77700 0.39600
H21 H 0.15900 -0.59000 0.38500
H22 H 0.45000 -0.24500 0.41800
H25 H 0.86500 -0.47200 0.52700
H26 H 0.51000 -0.82000 0.50000
O11 O 0.89900 -0.27460 0.10450
H23 H 0.94900 -0.33100 0.13100
H24 H 0.90100 -0.26600 0.06700
loop_
_geom_bond_atom_site_label_1
_geom_bond_atom_site_label_2
_geom_bond_site_symmetry_1
_geom_bond_site_symmetry_2
O1 C1 1_555 1_555
O2 C2 1_555 1_555
O3 C3 1_555 1_555
O4 C4 1_555 1_555
O5 C1 1_555 1_555
O6 C6 1_555 1_555
O7 C10 1_555 1_555
O8 C11 1_555 1_555
O9 C19 1_555 1_555
O10 C19 1_555 1_555
O11 H23 1_555 1_555
C1 C2 1_555 1_555
C2 C3 1_555 1_555
C3 C4 1_555 1_555
C4 C5 1_555 1_555
C5 O5 1_555 1_555
C6 C5 1_555 1_555
C7 O1 1_555 1_555
C8 C7 1_555 1_555
C9 C7 1_555 1_555
C10 C7 1_555 1_555
C11 C10 1_555 1_555
C12 C11 1_555 1_555
C13 O7 1_555 1_555
C14 C13 1_555 1_555
C15 C14 1_555 1_555
C16 C15 1_555 1_555
C17 C16 1_555 1_555
C18 C17 1_555 1_555
C19 C18 1_555 1_555
C20 O9 1_555 1_555
H1 C18 1_555 1_555
H2 C17 1_555 1_555
H3 C15 1_555 1_555
H4 C14 1_555 1_555
H5 C11 1_555 1_555
H6 C10 1_555 1_555
H7 C5 1_555 1_555
H8 C4 1_555 1_555
H9 C3 1_555 1_555
H10 C2 1_555 1_555
H11 C1 1_555 1_555
H12 C6 1_555 1_555
H13 C6 1_555 1_555
H14 C8 1_555 1_555
H15 C8 1_555 1_555
H16 C8 1_555 1_555
H17 C9 1_555 1_555
H18 C9 1_555 1_555
H19 C9 1_555 1_555
H20 O4 1_555 1_555
H21 O6 1_555 1_555
H22 O8 1_555 1_555
H24 O11 1_555 1_555
H25 O2 1_555 1_555
H26 O3 1_555 1_555
C12 C13 1_555 1_555
C12 C20 1_555 1_555
C16 C20 1_555 1_555

#END
