
#######################################################################
#
#                 Cambridge Crystallographic Data Centre
#                                CCDC 
#
#######################################################################
#
# If this CIF has been generated from an entry in the Cambridge 
# Structural Database, then it will include bibliographic, chemical, 
# crystal, experimental, refinement or atomic coordinate data resulting 
# from the CCDC's data processing and validation procedures.
#
#######################################################################

data_APUGAV
_chemical_formula_moiety         'C10 H7 O4 S6 1-,C10 H9 N2 1+'
_chemical_name_systematic        
'2-(pyridin-2-yl)pyridin-1-ium 2-(4,5-bis(methylsulfanyl)-1,3-dithiol-2-ylidene)-5-carboxy-1,3-dithiole-4-carboxylate'
_symmetry_cell_setting           monoclinic
_symmetry_space_group_name_H-M   'P 21/a'
_symmetry_Int_Tables_number      14
_space_group_name_Hall           '-P 2yab'
loop_
_symmetry_equiv_pos_site_id
_symmetry_equiv_pos_as_xyz
1 x,y,z
2 1/2-x,1/2+y,-z
3 -x,-y,-z
4 1/2+x,1/2-y,z
_cell_length_a                   17.140(3)
_cell_length_b                   7.7891(12)
_cell_length_c                   17.338(3)
_cell_angle_alpha                90
_cell_angle_beta                 102.363(4)
_cell_angle_gamma                90
_cell_volume                     2261.04
_exptl_crystal_colour            red
_exptl_crystal_description       Platelet
_cell_formula_units_Z            4
loop_
_atom_site_label
_atom_site_type_symbol
_atom_site_fract_x
_atom_site_fract_y
_atom_site_fract_z
S1 S 0.47881(6) 0.44802(15) 0.23699(6)
S2 S 0.32105(6) 0.56438(15) 0.26005(6)
S3 S 0.26939(7) 0.68385(16) 0.08375(6)
S4 S 0.42333(6) 0.58050(15) 0.04850(6)
S5 S 0.18315(7) 0.67567(16) -0.08675(7)
S6 S 0.35677(7) 0.55018(16) -0.12654(6)
O1 O 0.50946(17) 0.2741(4) 0.45243(17)
O2 O 0.58453(16) 0.2902(4) 0.36218(17)
O3 O 0.27798(18) 0.5140(5) 0.40080(18)
O4 O 0.37953(19) 0.3690(5) 0.47151(18)
C1 C 0.3397(3) 0.5894(5) -0.0317(2)
C2 C 0.1054(3) 0.6033(7) -0.0386(3)
H1 H 0.0537 0.6198 -0.0738
H2 H 0.1076 0.6690 0.0094
H3 H 0.1130 0.4825 -0.0256
C3 C 0.4554(2) 0.4063(5) 0.3288(2)
C4 C 0.3864(2) 0.5432(5) 0.1955(2)
C5 C 0.3833(2) 0.4591(5) 0.3391(2)
C6 C 0.2694(2) 0.6355(5) -0.0150(2)
C7 C 0.3647(2) 0.5960(5) 0.1205(2)
C8 C 0.5226(2) 0.3181(6) 0.3851(2)
C9 C 0.3436(3) 0.4487(6) 0.4083(2)
C10 C 0.3652(3) 0.7655(7) -0.1600(3)
H4 H 0.3752 0.7633 -0.2130
H5 H 0.4092 0.8229 -0.1249
H6 H 0.3160 0.8270 -0.1603
H7 H 0.4254(14) 0.340(7) 0.468(3)
N1 N 0.61389(19) 0.0950(5) 0.5673(2)
N2 N 0.47661(19) 0.1373(5) 0.6144(2)
C11 C 0.6809(2) -0.0288(6) 0.6853(2)
H8 H 0.6828 -0.0635 0.7376
C12 C 0.7440(2) -0.0039(6) 0.5750(2)
H9 H 0.7883 -0.0213 0.5520
C13 C 0.6133(2) 0.0482(5) 0.6419(2)
C14 C 0.6767(2) 0.0720(6) 0.5333(2)
H10 H 0.6740 0.1081 0.4811
C15 C 0.5363(3) 0.0697(6) 0.7491(2)
H11 H 0.5815 0.0346 0.7867
C16 C 0.5390(2) 0.0852(5) 0.6702(2)
C17 C 0.4089(2) 0.1702(6) 0.6376(3)
H12 H 0.3643 0.2046 0.5991
C18 C 0.4002(3) 0.1569(6) 0.7146(3)
H13 H 0.3510 0.1812 0.7280
C19 C 0.7462(3) -0.0547(6) 0.6515(3)
H14 H 0.7923 -0.1075 0.6811
C20 C 0.4652(3) 0.1074(6) 0.7712(3)
H15 H 0.4614 0.0991 0.8243
H16 H 0.5701(15) 0.139(5) 0.540(2)
loop_
_geom_bond_atom_site_label_1
_geom_bond_atom_site_label_2
_geom_bond_site_symmetry_1
_geom_bond_site_symmetry_2
S1 C3 1_555 1_555
S2 C4 1_555 1_555
S3 C6 1_555 1_555
S4 C1 1_555 1_555
S5 C2 1_555 1_555
S6 C1 1_555 1_555
O1 C8 1_555 1_555
O2 C8 1_555 1_555
O3 C9 1_555 1_555
O4 C9 1_555 1_555
C1 C6 1_555 1_555
C2 H1 1_555 1_555
H2 C2 1_555 1_555
H3 C2 1_555 1_555
C3 C5 1_555 1_555
C4 S1 1_555 1_555
C5 S2 1_555 1_555
C6 S5 1_555 1_555
C7 S3 1_555 1_555
C8 C3 1_555 1_555
C9 C5 1_555 1_555
C10 S6 1_555 1_555
H4 C10 1_555 1_555
H5 C10 1_555 1_555
H6 C10 1_555 1_555
H7 O4 1_555 1_555
N1 C13 1_555 1_555
N2 C16 1_555 1_555
C11 H8 1_555 1_555
C12 H9 1_555 1_555
C13 C11 1_555 1_555
C14 N1 1_555 1_555
H10 C14 1_555 1_555
C15 H11 1_555 1_555
C16 C13 1_555 1_555
C17 N2 1_555 1_555
H12 C17 1_555 1_555
C18 C17 1_555 1_555
H13 C18 1_555 1_555
C19 C11 1_555 1_555
H14 C19 1_555 1_555
C20 C15 1_555 1_555
H15 C20 1_555 1_555
H16 N1 1_555 1_555
S4 C7 1_555 1_555
C4 C7 1_555 1_555
C12 C14 1_555 1_555
C12 C19 1_555 1_555
C15 C16 1_555 1_555
C18 C20 1_555 1_555

#END
