
#######################################################################
#
#                 Cambridge Crystallographic Data Centre
#                                CCDC 
#
#######################################################################
#
# If this CIF has been generated from an entry in the Cambridge 
# Structural Database, then it will include bibliographic, chemical, 
# crystal, experimental, refinement or atomic coordinate data resulting 
# from the CCDC's data processing and validation procedures.
#
#######################################################################

data_APUGAU
_chemical_formula_moiety         'C13 H15 Br2 N5 O3 S1,C1 H2 Cl2'
_chemical_name_systematic        
'4-((6,7-Dibromo-1-oxo-1,2,3,4-tetrahydropyrrolo[1,2-a]pyrazin-4-yl)methyl)-N,N-dimethyl-1H-imidazole-1-sulfonamide dichloromethane solvate'
_symmetry_cell_setting           triclinic
_symmetry_space_group_name_H-M   'P -1'
_symmetry_Int_Tables_number      2
_space_group_name_Hall           '-P 1'
loop_
_symmetry_equiv_pos_site_id
_symmetry_equiv_pos_as_xyz
1 x,y,z
2 -x,-y,-z
_cell_length_a                   7.1542(10)
_cell_length_b                   10.4880(14)
_cell_length_c                   15.104(2)
_cell_angle_alpha                71.185(2)
_cell_angle_beta                 82.371(2)
_cell_angle_gamma                74.790(2)
_cell_volume                     1033.73
_exptl_crystal_colour            colorless
_exptl_crystal_description       prism
_cell_formula_units_Z            2
loop_
_atom_site_label
_atom_site_type_symbol
_atom_site_fract_x
_atom_site_fract_y
_atom_site_fract_z
Br1 Br 0.31416(6) -0.44280(4) 0.39853(3)
Br2 Br 0.56516(6) -0.18876(4) 0.41478(2)
S1 S 1.19407(13) 0.17817(10) 0.36461(6)
O1 O 1.1803(4) 0.0882(3) 0.45652(19)
O2 O 1.3653(4) 0.2218(4) 0.3269(2)
O3 O 0.6630(4) -0.2728(2) 0.01258(16)
N1 N 1.0172(5) 0.3104(4) 0.3522(3)
N2 N 1.1583(4) 0.0892(3) 0.29481(17)
N3 N 1.1488(4) 0.0330(3) 0.16663(17)
C1 C 0.4845(4) -0.3412(3) 0.2101(2)
H1 H 0.4421 -0.3984 0.1853
C2 C 0.5417(4) -0.2399(3) 0.3105(2)
C3 C 0.8248(7) 0.2853(6) 0.3904(4)
H2 H 0.7408 0.3693 0.3983
H3 H 0.8381 0.2147 0.4500
H4 H 0.7702 0.2555 0.3480
C4 C 1.0162(9) 0.4267(5) 0.2657(4)
H5 H 0.9767 0.4044 0.2153
H6 H 1.1441 0.4432 0.2509
H7 H 0.9271 0.5083 0.2746
C5 C 1.2114(4) 0.1123(3) 0.2015(2)
H8 H 1.2829 0.1762 0.1673
C6 C 1.0531(4) -0.0117(3) 0.3191(2)
H9 H 0.9960 -0.0487 0.3777
C7 C 1.0506(4) -0.0456(3) 0.2398(2)
C8 C 0.9508(4) -0.1476(3) 0.2273(2)
H10 H 0.9518 -0.2229 0.2852
H11 H 1.0210 -0.1864 0.1788
C9 C 0.7401(4) -0.0783(3) 0.2002(2)
H12 H 0.6856 -0.0121 0.2355
C10 C 0.7191(4) -0.0008(3) 0.0959(2)
H13 H 0.5910 0.0608 0.0868
H14 H 0.8138 0.0555 0.0746
N4 N 0.7467(4) -0.0950(3) 0.03962(18)
C11 C 0.6672(4) -0.2059(3) 0.0657(2)
C12 C 0.5895(4) -0.2446(3) 0.1631(2)
C13 C 0.4538(4) -0.3368(3) 0.3027(2)
N5 N 0.6226(3) -0.1813(2) 0.22468(16)
H17 H 0.775(5) -0.071(4) -0.018(3)
C14 C 0.8438(12) 0.3872(9) 0.0571(6)
H15 H 0.7953 0.4871 0.0384
H16 H 0.9685 0.3671 0.0835
Cl1 Cl 0.8727(8) 0.3495(4) -0.0166(6)
Cl2 Cl 0.6909(8) 0.3177(8) 0.1435(5)
C15? C 0.6475(10) 0.4128(8) 0.0351(6)
Cl3? Cl 0.8135(6) 0.3686(5) -0.0520(3)
Cl4? Cl 0.6195(10) 0.3194(7) 0.1527(5)
H18? H 0.6654 0.5009 0.0360
H19? H 0.5212 0.4329 0.0103
loop_
_geom_bond_atom_site_label_1
_geom_bond_atom_site_label_2
_geom_bond_site_symmetry_1
_geom_bond_site_symmetry_2
Br1 C13 1_555 1_555
Br2 C2 1_555 1_555
S1 O1 1_555 1_555
O2 S1 1_555 1_555
O3 C11 1_555 1_555
N1 S1 1_555 1_555
N2 S1 1_555 1_555
N3 C5 1_555 1_555
C1 H1 1_555 1_555
C2 C13 1_555 1_555
C3 N1 1_555 1_555
H2 C3 1_555 1_555
H3 C3 1_555 1_555
H4 C3 1_555 1_555
C4 N1 1_555 1_555
H5 C4 1_555 1_555
H6 C4 1_555 1_555
H7 C4 1_555 1_555
C5 N2 1_555 1_555
H8 C5 1_555 1_555
C6 N2 1_555 1_555
H9 C6 1_555 1_555
C7 N3 1_555 1_555
C8 C7 1_555 1_555
H10 C8 1_555 1_555
H11 C8 1_555 1_555
C9 C8 1_555 1_555
H12 C9 1_555 1_555
C10 C9 1_555 1_555
H13 C10 1_555 1_555
H14 C10 1_555 1_555
N4 C10 1_555 1_555
C11 N4 1_555 1_555
C12 C1 1_555 1_555
C13 C1 1_555 1_555
N5 C2 1_555 1_555
C14 H15 1_555 1_555
H16 C14 1_555 1_555
Cl1 C14 1_555 1_555
Cl2 C14 1_555 1_555
H17 N4 1_555 1_555
C6 C7 1_555 1_555
C9 N5 1_555 1_555
C11 C12 1_555 1_555
C12 N5 1_555 1_555

#END
