
#######################################################################
#
#                 Cambridge Crystallographic Data Centre
#                                CCDC 
#
#######################################################################
#
# If this CIF has been generated from an entry in the Cambridge 
# Structural Database, then it will include bibliographic, chemical, 
# crystal, experimental, refinement or atomic coordinate data resulting 
# from the CCDC's data processing and validation procedures.
#
#######################################################################

data_APUGEY
_chemical_formula_moiety         'C20 H17 Cl1 O6'
_chemical_name_systematic        
'Ethyl 2-(4-chlorophenyl)-3-formyl-4-hydroxy-7-methoxy-4H-chromene-4-carboxylate'
_symmetry_cell_setting           orthorhombic
_symmetry_space_group_name_H-M   'P 21 21 21'
_symmetry_Int_Tables_number      19
_space_group_name_Hall           'P 2ac 2ab'
loop_
_symmetry_equiv_pos_site_id
_symmetry_equiv_pos_as_xyz
1 x,y,z
2 1/2-x,-y,1/2+z
3 -x,1/2+y,1/2-z
4 1/2+x,1/2-y,-z
_cell_length_a                   7.8779(9)
_cell_length_b                   11.7191(14)
_cell_length_c                   20.476(2)
_cell_angle_alpha                90
_cell_angle_beta                 90
_cell_angle_gamma                90
_cell_volume                     1890.38
_cell_formula_units_Z            4
loop_
_atom_site_label
_atom_site_type_symbol
_atom_site_fract_x
_atom_site_fract_y
_atom_site_fract_z
Cl1 Cl -0.03315(10) 0.61099(6) 1.06986(3)
C1 C 0.0388(3) 0.64017(18) 0.99120(10)
C2 C 0.1574(3) 0.57082(18) 0.96267(11)
H1 H 0.2016 0.5087 0.9853
C3 C 0.2106(3) 0.59443(18) 0.89962(10)
H2 H 0.2918 0.5482 0.8799
C4 C -0.0243(3) 0.7336(2) 0.95894(11)
H3 H -0.1031 0.7808 0.9793
C5 C 0.0287(3) 0.75750(19) 0.89667(11)
H4 H -0.0126 0.8216 0.8751
C6 C 0.1441(2) 0.68602(17) 0.86574(9)
O1 O 0.23669(19) 0.82070(12) 0.78973(6)
C7 C 0.1856(3) 0.63517(19) 0.74673(10)
C8 C 0.3013(3) 0.97793(19) 0.72475(11)
H5 H 0.3016 1.0217 0.7626
C9 C 0.1911(2) 0.70968(17) 0.79688(10)
C10 C 0.2684(3) 0.86275(18) 0.72746(9)
C11 C 0.3339(3) 1.0275(2) 0.66478(12)
C12 C 0.2384(3) 0.66624(19) 0.67849(10)
C13 C 0.2690(3) 0.79303(19) 0.67338(10)
C14 C 0.3344(3) 0.9603(3) 0.60908(12)
H6 H 0.3554 0.9931 0.5685
C15 C 0.3040(3) 0.8456(2) 0.61378(12)
H7 H 0.3068 0.8013 0.5761
O2 O 0.3665(2) 1.14051(15) 0.65557(9)
C16 C 0.1227(3) 0.5197(2) 0.75611(12)
H8 H 0.0817 0.4989 0.7970
O3 O -0.05127(19) 0.66497(14) 0.64872(7)
C17 C 0.1018(3) 0.6337(2) 0.62845(11)
O4 O 0.39196(19) 0.60859(16) 0.66122(8)
H9 H 0.3707 0.5574 0.6352
O5 O 0.1321(2) 0.59025(18) 0.57669(8)
O6 O 0.1217(3) 0.44953(15) 0.71266(9)
C18 C 0.3438(3) 1.2145(2) 0.70971(14)
H10 H 0.2307 1.2061 0.7265
H11 H 0.3611 1.2920 0.6961
H12 H 0.4243 1.1955 0.7432
C19 C -0.1933(4) 0.6511(3) 0.60368(15)
H13 H -0.1635 0.5957 0.5704
H14 H -0.2911 0.6223 0.6273
C20 C -0.2354(5) 0.7573(4) 0.5734(2)
H15 H -0.2596 0.8131 0.6065
H16 H -0.3334 0.7473 0.5461
H17 H -0.1416 0.7828 0.5473
loop_
_geom_bond_atom_site_label_1
_geom_bond_atom_site_label_2
_geom_bond_site_symmetry_1
_geom_bond_site_symmetry_2
Cl1 C1 1_555 1_555
C1 C2 1_555 1_555
C2 H1 1_555 1_555
C3 C2 1_555 1_555
H2 C3 1_555 1_555
C4 C1 1_555 1_555
H3 C4 1_555 1_555
C5 C4 1_555 1_555
H4 C5 1_555 1_555
C6 C3 1_555 1_555
O1 C9 1_555 1_555
C7 C9 1_555 1_555
C8 H5 1_555 1_555
C9 C6 1_555 1_555
C10 O1 1_555 1_555
C11 C8 1_555 1_555
C12 C7 1_555 1_555
C13 C10 1_555 1_555
C14 C11 1_555 1_555
H6 C14 1_555 1_555
C15 C13 1_555 1_555
H7 C15 1_555 1_555
O2 C11 1_555 1_555
C16 C7 1_555 1_555
H8 C16 1_555 1_555
O3 C17 1_555 1_555
C17 C12 1_555 1_555
O4 C12 1_555 1_555
H9 O4 1_555 1_555
O5 C17 1_555 1_555
O6 C16 1_555 1_555
C18 O2 1_555 1_555
H10 C18 1_555 1_555
H11 C18 1_555 1_555
H12 C18 1_555 1_555
C19 O3 1_555 1_555
H13 C19 1_555 1_555
H14 C19 1_555 1_555
C20 C19 1_555 1_555
H15 C20 1_555 1_555
H16 C20 1_555 1_555
H17 C20 1_555 1_555
C5 C6 1_555 1_555
C8 C10 1_555 1_555
C12 C13 1_555 1_555
C14 C15 1_555 1_555

#END
