
#######################################################################
#
#                 Cambridge Crystallographic Data Centre
#                                CCDC 
#
#######################################################################
#
# If this CIF has been generated from an entry in the Cambridge 
# Structural Database, then it will include bibliographic, chemical, 
# crystal, experimental, refinement or atomic coordinate data resulting 
# from the CCDC's data processing and validation procedures.
#
#######################################################################

data_APUGEZ
_chemical_formula_moiety         'C10 H7 O4 S6 1-,C5 H6 N1 1+'
_chemical_name_systematic        
'pyridin-1-ium 2-(4,5-bis(methylsulfanyl)-1,3-dithiol-2-ylidene)-5-carboxy-1,3-dithiole-4-carboxylate'
_symmetry_cell_setting           monoclinic
_symmetry_space_group_name_H-M   'P 21/n'
_symmetry_Int_Tables_number      14
_space_group_name_Hall           '-P 2yn'
loop_
_symmetry_equiv_pos_site_id
_symmetry_equiv_pos_as_xyz
1 x,y,z
2 1/2-x,1/2+y,1/2-z
3 -x,-y,-z
4 1/2+x,1/2-y,1/2+z
_cell_length_a                   8.6319(8)
_cell_length_b                   10.0114(9)
_cell_length_c                   22.265(2)
_cell_angle_alpha                90
_cell_angle_beta                 96.953(2)
_cell_angle_gamma                90
_cell_volume                     1909.93
_exptl_crystal_colour            'dark red'
_exptl_crystal_description       Block
_cell_formula_units_Z            4
loop_
_atom_site_label
_atom_site_type_symbol
_atom_site_fract_x
_atom_site_fract_y
_atom_site_fract_z
S1 S 0.17538(6) 0.10773(5) 0.51623(2)
S2 S 0.10948(6) -0.04721(5) 0.62350(2)
S3 S -0.00712(6) 0.36221(5) 0.56317(2)
S4 S -0.08317(7) 0.20488(5) 0.66822(2)
S5 S -0.11200(7) 0.62162(5) 0.61078(3)
S6 S -0.21918(7) 0.44403(6) 0.72605(3)
C1 C 0.2498(2) -0.05407(19) 0.52358(8)
C2 C 0.2205(2) -0.1257(2) 0.57277(8)
C3 C 0.0878(2) 0.1037(2) 0.58337(8)
C4 C 0.0102(2) 0.20918(19) 0.60220(8)
C5 C -0.0826(2) 0.4494(2) 0.62151(9)
C6 C -0.1193(2) 0.3776(2) 0.66920(9)
C7 C -0.3112(3) 0.6246(3) 0.57808(16)
H1 H -0.3231 0.5713 0.5414
H2 H -0.3423 0.7159 0.5684
H3 H -0.3764 0.5881 0.6066
C8 C -0.1627(4) 0.3359(3) 0.78951(11)
H4 H -0.2105 0.2489 0.7819
H5 H -0.1971 0.3742 0.8257
H6 H -0.0500 0.3264 0.7952
C9 C 0.3379(2) -0.0921(2) 0.47166(9)
C10 C 0.2712(2) -0.2621(2) 0.59380(9)
O1 O 0.35849(19) -0.00455(16) 0.43476(7)
O2 O 0.38500(19) -0.21349(16) 0.46922(7)
O3 O 0.2537(2) -0.29431(16) 0.64539(7)
O4 O 0.33085(19) -0.34254(16) 0.55719(7)
H7 H 0.353(4) -0.300(3) 0.5263(11)
C11 C 0.4701(3) 0.1649(2) 0.66861(11)
H8 H 0.5229 0.0845 0.6634
C12 C 0.4010(3) 0.1860(3) 0.71982(11)
H9 H 0.4063 0.1204 0.7502
C13 C 0.3237(3) 0.3037(3) 0.72651(10)
H10 H 0.2750 0.3189 0.7614
C14 C 0.3176(3) 0.3990(2) 0.68213(11)
H11 H 0.2654 0.4803 0.6864
C15 C 0.3887(3) 0.3743(2) 0.63147(10)
H12 H 0.3856 0.4386 0.6006
N1 N 0.4621(2) 0.2590(2) 0.62626(8)
H13 H 0.508(3) 0.247(3) 0.5937(10)
loop_
_geom_bond_atom_site_label_1
_geom_bond_atom_site_label_2
_geom_bond_site_symmetry_1
_geom_bond_site_symmetry_2
S1 C1 1_555 1_555
S2 C2 1_555 1_555
S3 C4 1_555 1_555
S4 C4 1_555 1_555
S5 C5 1_555 1_555
S6 C6 1_555 1_555
C1 C2 1_555 1_555
C2 C10 1_555 1_555
C3 S1 1_555 1_555
C4 C3 1_555 1_555
C5 S3 1_555 1_555
C6 S4 1_555 1_555
C7 S5 1_555 1_555
H1 C7 1_555 1_555
H2 C7 1_555 1_555
H3 C7 1_555 1_555
C8 S6 1_555 1_555
H4 C8 1_555 1_555
H5 C8 1_555 1_555
H6 C8 1_555 1_555
C9 C1 1_555 1_555
C10 O3 1_555 1_555
O1 C9 1_555 1_555
O2 C9 1_555 1_555
O4 C10 1_555 1_555
H7 O4 1_555 1_555
C11 H8 1_555 1_555
C12 C11 1_555 1_555
H9 C12 1_555 1_555
C13 C12 1_555 1_555
H10 C13 1_555 1_555
C14 C13 1_555 1_555
H11 C14 1_555 1_555
C15 C14 1_555 1_555
H12 C15 1_555 1_555
N1 C11 1_555 1_555
H13 N1 1_555 1_555
S2 C3 1_555 1_555
C5 C6 1_555 1_555
C15 N1 1_555 1_555

#END
