
#######################################################################
#
#                 Cambridge Crystallographic Data Centre
#                                CCDC 
#
#######################################################################
#
# If this CIF has been generated from an entry in the Cambridge 
# Structural Database, then it will include bibliographic, chemical, 
# crystal, experimental, refinement or atomic coordinate data resulting 
# from the CCDC's data processing and validation procedures.
#
#######################################################################

data_APUKUS
_chemical_formula_moiety         'C36 H30 N1 P2 1+,C1 F3 O3 S1 1-'
_chemical_name_systematic        
'bis(Triphenylphosphine)iminium trifluoromethanesulfonate'
_symmetry_cell_setting           monoclinic
_symmetry_space_group_name_H-M   'C c'
_symmetry_Int_Tables_number      9
_space_group_name_Hall           'C -2yc'
loop_
_symmetry_equiv_pos_site_id
_symmetry_equiv_pos_as_xyz
1 x,y,z
2 x,-y,1/2+z
3 1/2+x,1/2+y,z
4 1/2+x,1/2-y,1/2+z
_cell_length_a                   16.2510(12)
_cell_length_b                   14.0236(11)
_cell_length_c                   15.9781(12)
_cell_angle_alpha                90
_cell_angle_beta                 114.2100(10)
_cell_angle_gamma                90
_cell_volume                     3321.11
_exptl_crystal_colour            colorless
_exptl_crystal_description       block
_cell_formula_units_Z            4
loop_
_atom_site_label
_atom_site_type_symbol
_atom_site_fract_x
_atom_site_fract_y
_atom_site_fract_z
P1 P 0.50604(3) 0.60016(4) 0.18247(4)
P2 P 0.69002(3) 0.59139(4) 0.18092(4)
N1 N 0.59773(14) 0.62960(13) 0.17842(15)
C1 C 0.41413(15) 0.60418(16) 0.07142(15)
C2 C 0.43098(17) 0.60115(17) -0.00723(16)
H1 H 0.4912 0.6038 -0.0024
C3 C 0.35921(19) 0.59418(19) -0.09303(18)
H2 H 0.3707 0.5914 -0.1467
C4 C 0.27145(18) 0.59125(18) -0.10074(18)
H3 H 0.2228 0.5866 -0.1595
C5 C 0.25437(17) 0.59507(18) -0.02245(18)
H4 H 0.1940 0.5930 -0.0278
C6 C 0.32531(16) 0.60186(17) 0.06369(17)
H5 H 0.3135 0.6049 0.1171
C7 C 0.50505(15) 0.48302(16) 0.22809(16)
C8 C 0.57168(17) 0.46030(17) 0.31394(16)
H6 H 0.6171 0.5057 0.3459
C9 C 0.57236(18) 0.37203(18) 0.35313(17)
H7 H 0.6183 0.3571 0.4116
C10 C 0.50620(18) 0.30556(18) 0.30714(18)
H8 H 0.5064 0.2452 0.3343
C11 C 0.43967(19) 0.32715(18) 0.22139(19)
H9 H 0.3944 0.2814 0.1898
C12 C 0.43884(17) 0.41532(17) 0.18147(17)
H10 H 0.3933 0.4296 0.1225
C13 C 0.48499(14) 0.68264(16) 0.25788(15)
C14 C 0.52126(15) 0.77465(16) 0.26744(16)
H11 H 0.5542 0.7932 0.2329
C15 C 0.50894(16) 0.83837(17) 0.32730(17)
H12 H 0.5331 0.9010 0.3332
C16 C 0.46205(17) 0.81199(18) 0.37839(18)
H13 H 0.4554 0.8556 0.4207
C17 C 0.42444(18) 0.72153(19) 0.36783(19)
H14 H 0.3912 0.7038 0.4023
C18 C 0.43502(17) 0.65678(18) 0.30729(17)
H15 H 0.4084 0.5953 0.2996
C19 C 0.68912(16) 0.46880(16) 0.14774(16)
C20 C 0.72082(17) 0.39643(17) 0.21281(17)
H16 H 0.7489 0.4118 0.2763
C21 C 0.71141(18) 0.30167(18) 0.18482(19)
H17 H 0.7335 0.2523 0.2292
C22 C 0.67010(18) 0.27895(17) 0.09271(19)
H18 H 0.6629 0.2141 0.0740
C23 C 0.63919(18) 0.35067(18) 0.02752(17)
H19 H 0.6118 0.3349 -0.0358
C24 C 0.64812(17) 0.44546(17) 0.05468(17)
H20 H 0.6263 0.4945 0.0099
C25 C 0.71804(15) 0.66333(16) 0.10232(15)
C26 C 0.77870(16) 0.63235(18) 0.06658(17)
H21 H 0.8054 0.5710 0.0819
C27 C 0.79980(18) 0.6915(2) 0.00869(19)
H22 H 0.8412 0.6706 -0.0156
C28 C 0.76048(17) 0.78124(19) -0.01389(19)
H23 H 0.7744 0.8211 -0.0544
C29 C 0.70132(17) 0.81266(17) 0.02227(18)
H24 H 0.6755 0.8745 0.0076
C30 C 0.67979(16) 0.75369(17) 0.08002(16)
H25 H 0.6387 0.7751 0.1045
C31 C 0.77956(15) 0.60429(16) 0.29369(16)
C32 C 0.86631(16) 0.57049(17) 0.31197(17)
H26 H 0.8786 0.5415 0.2646
C33 C 0.93444(17) 0.57944(17) 0.39965(18)
H27 H 0.9932 0.5561 0.4123
C34 C 0.91685(17) 0.62221(18) 0.46863(17)
H28 H 0.9635 0.6277 0.5286
C35 C 0.83155(17) 0.65697(19) 0.45055(17)
H29 H 0.8200 0.6868 0.4980
C36 C 0.76278(16) 0.64841(17) 0.36334(17)
H30 H 0.7044 0.6726 0.3511
F1 F 0.58001(14) 0.07451(14) 0.27997(13)
F2 F 0.54097(14) 0.16659(13) 0.16145(16)
F3 F 0.47299(11) 0.03305(15) 0.15174(15)
O1 O 0.60026(12) 0.03472(13) 0.05740(12)
O2 O 0.71870(11) 0.06263(13) 0.20902(12)
O3 O 0.62708(12) -0.08093(12) 0.17939(12)
C37 C 0.5537(2) 0.0763(2) 0.1884(2)
S1 S 0.63446(4) 0.01640(4) 0.15469(4)
loop_
_geom_bond_atom_site_label_1
_geom_bond_atom_site_label_2
_geom_bond_site_symmetry_1
_geom_bond_site_symmetry_2
P1 N1 1_555 1_555
P2 N1 1_555 1_555
F1 C37 1_555 1_555
F2 C37 1_555 1_555
F3 C37 1_555 1_555
O1 S1 1_555 1_555
O2 S1 1_555 1_555
O3 S1 1_555 1_555
C1 P1 1_555 1_555
C2 C1 1_555 1_555
H1 C2 1_555 1_555
C3 C2 1_555 1_555
H2 C3 1_555 1_555
C4 C3 1_555 1_555
H3 C4 1_555 1_555
C5 C4 1_555 1_555
H4 C5 1_555 1_555
C6 C1 1_555 1_555
H5 C6 1_555 1_555
C7 P1 1_555 1_555
C8 C7 1_555 1_555
H6 C8 1_555 1_555
C9 C8 1_555 1_555
H7 C9 1_555 1_555
C10 C9 1_555 1_555
H8 C10 1_555 1_555
C11 C10 1_555 1_555
H9 C11 1_555 1_555
C12 C7 1_555 1_555
H10 C12 1_555 1_555
C13 P1 1_555 1_555
C14 C13 1_555 1_555
H11 C14 1_555 1_555
C15 C14 1_555 1_555
H12 C15 1_555 1_555
C16 C15 1_555 1_555
H13 C16 1_555 1_555
C17 C16 1_555 1_555
H14 C17 1_555 1_555
C18 C13 1_555 1_555
H15 C18 1_555 1_555
C19 P2 1_555 1_555
C20 C19 1_555 1_555
H16 C20 1_555 1_555
C21 C20 1_555 1_555
H17 C21 1_555 1_555
C22 C21 1_555 1_555
H18 C22 1_555 1_555
C23 C22 1_555 1_555
H19 C23 1_555 1_555
C24 C19 1_555 1_555
H20 C24 1_555 1_555
C25 P2 1_555 1_555
C26 C25 1_555 1_555
H21 C26 1_555 1_555
C27 C26 1_555 1_555
H22 C27 1_555 1_555
C28 C27 1_555 1_555
H23 C28 1_555 1_555
C29 C28 1_555 1_555
H24 C29 1_555 1_555
C30 C25 1_555 1_555
H25 C30 1_555 1_555
C31 P2 1_555 1_555
C32 C31 1_555 1_555
H26 C32 1_555 1_555
C33 C32 1_555 1_555
H27 C33 1_555 1_555
C34 C33 1_555 1_555
H28 C34 1_555 1_555
C35 C34 1_555 1_555
H29 C35 1_555 1_555
C36 C31 1_555 1_555
H30 C36 1_555 1_555
C37 S1 1_555 1_555
C5 C6 1_555 1_555
C11 C12 1_555 1_555
C17 C18 1_555 1_555
C23 C24 1_555 1_555
C29 C30 1_555 1_555
C35 C36 1_555 1_555

#END
