
#######################################################################
#
#                 Cambridge Crystallographic Data Centre
#                                CCDC 
#
#######################################################################
#
# If this CIF has been generated from an entry in the Cambridge 
# Structural Database, then it will include bibliographic, chemical, 
# crystal, experimental, refinement or atomic coordinate data resulting 
# from the CCDC's data processing and validation procedures.
#
#######################################################################

data_APUKIF
_chemical_formula_moiety         'C32 H28 O2 S2 2+,2(Cl1 O4 1-),C2 H3 N1'
_chemical_name_systematic        
'5,6-bis(Phenoxathiinium-10-yl)cyclo-octene diperchlorate acetonitrile solvate'
_symmetry_cell_setting           monoclinic
_symmetry_space_group_name_H-M   'P 21/c'
_symmetry_Int_Tables_number      14
_space_group_name_Hall           '-P 2ybc'
loop_
_symmetry_equiv_pos_site_id
_symmetry_equiv_pos_as_xyz
1 x,y,z
2 x,1/2-y,1/2+z
3 -x,-y,-z
4 -x,1/2+y,1/2-z
_cell_length_a                   9.3351(19)
_cell_length_b                   16.983(3)
_cell_length_c                   21.505(4)
_cell_angle_alpha                90
_cell_angle_beta                 99.85(3)
_cell_angle_gamma                90
_cell_volume                     3359.1
_exptl_crystal_colour            white
_exptl_crystal_description       needle
_cell_formula_units_Z            4
loop_
_atom_site_label
_atom_site_type_symbol
_atom_site_fract_x
_atom_site_fract_y
_atom_site_fract_z
S1 S 0.30036(10) 0.63865(6) 0.27582(4)
S2 S 0.09531(11) 0.64084(7) 0.44279(5)
O1 O 0.1203(3) 0.78483(16) 0.23907(13)
O2 O 0.2793(4) 0.78033(18) 0.49411(15)
C1 C 0.2756(5) 0.7180(3) 0.5352(2)
C2 C 0.3608(5) 0.7251(3) 0.5938(2)
H1 H 0.4184 0.7694 0.6045
C3 C 0.3583(5) 0.6648(3) 0.6362(2)
H2 H 0.4164 0.6683 0.6758
C4 C 0.2733(5) 0.6000(3) 0.6220(2)
H3 H 0.2713 0.5611 0.6522
C5 C 0.1904(5) 0.5920(3) 0.5630(2)
H4 H 0.1334 0.5474 0.5527
C6 C 0.1933(4) 0.6516(3) 0.51904(18)
C7 C 0.0617(5) 0.7390(3) 0.4234(2)
C8 C -0.0594(6) 0.7592(4) 0.3786(2)
H5 H -0.1261 0.7207 0.3621
C9 C -0.0793(8) 0.8336(5) 0.3593(4)
H6 H -0.1582 0.8465 0.3284
C10 C 0.0165(10) 0.8914(4) 0.3850(4)
H7 H 0.0000 0.9432 0.3715
C11 C 0.1385(8) 0.8741(3) 0.4310(3)
H8 H 0.2032 0.9131 0.4483
C12 C 0.1573(6) 0.7959(3) 0.4495(2)
C13 C 0.2530(4) 0.7970(2) 0.27685(18)
C14 C 0.2898(5) 0.8735(3) 0.2949(2)
H9 H 0.2268 0.9148 0.2814
C15 C 0.4205(6) 0.8874(3) 0.3330(2)
H10 H 0.4455 0.9387 0.3457
C16 C 0.5157(5) 0.8270(3) 0.3531(2)
H11 H 0.6037 0.8379 0.3791
C17 C 0.4818(4) 0.7507(3) 0.33492(19)
H12 H 0.5471 0.7101 0.3477
C18 C 0.3488(4) 0.7353(2) 0.29727(17)
C19 C 0.1900(4) 0.6577(2) 0.20335(17)
C20 C 0.1805(5) 0.6020(3) 0.15490(19)
H13 H 0.2378 0.5569 0.1600
C21 C 0.0851(5) 0.6149(3) 0.0996(2)
H14 H 0.0783 0.5788 0.0668
C22 C -0.0008(5) 0.6818(3) 0.0930(2)
H15 H -0.0682 0.6890 0.0563
C23 C 0.0118(4) 0.7376(3) 0.1396(2)
H16 H -0.0443 0.7831 0.1340
C24 C 0.1075(4) 0.7257(2) 0.19445(18)
C25 C 0.1590(4) 0.6219(2) 0.32664(17)
H17 H 0.1017 0.6705 0.3240
C26 C 0.2380(4) 0.6168(2) 0.39507(16)
H18 H 0.3121 0.6582 0.4018
C27 C 0.3080(4) 0.5399(2) 0.42061(18)
H19 H 0.2322 0.5011 0.4215
H20 H 0.3564 0.5483 0.4637
C28 C 0.4179(4) 0.5068(2) 0.38262(19)
H21 H 0.4834 0.5494 0.3765
H22 H 0.4754 0.4679 0.4089
C29 C 0.3684(6) 0.4702(3) 0.3203(2)
H23 H 0.4426 0.4562 0.2986
C30 C 0.2369(8) 0.4543(3) 0.2906(3)
H24 H 0.2313 0.4298 0.2516
C31 C 0.0947(6) 0.4705(3) 0.3113(3)
H25 H 0.1022 0.4569 0.3555
H26 H 0.0201 0.4375 0.2874
C32 C 0.0503(4) 0.5561(3) 0.3020(2)
H27 H -0.0352 0.5637 0.3214
H28 H 0.0202 0.5645 0.2571
C33 C 0.7172(7) 0.9640(4) 0.4663(3)
H29 H 0.6661 1.0129 0.4576
H30 H 0.7118 0.9344 0.4279
H31 H 0.8172 0.9744 0.4835
C34 C 0.6686(7) 0.9306(4) 0.4997(3)
N1 N 0.5973(7) 0.8840(4) 0.5404(3)
Cl1 Cl 0.28068(12) 0.15601(7) 0.00853(6)
O3 O 0.1953(7) 0.1384(3) -0.0489(2)
O4 O 0.4254(3) 0.1443(3) 0.0047(4)
O5 O 0.2424(8) 0.1076(2) 0.0549(3)
O6 O 0.2592(5) 0.23385(14) 0.02368(19)
Cl5 Cl -0.32251(12) 0.61690(8) 0.22589(5)
O19 O -0.2521(5) 0.68798(18) 0.24022(19)
O20 O -0.2452(4) 0.5723(2) 0.18908(14)
O21 O -0.3309(3) 0.5768(2) 0.28114(12)
O22 O -0.4610(2) 0.6306(3) 0.19303(15)
Cl2? Cl 0.28068(12) 0.15601(7) 0.00853(6)
O7? O 0.1547(5) 0.1266(3) -0.0273(5)
O8? O 0.3932(10) 0.1513(3) -0.0256(5)
O9? O 0.3152(14) 0.1124(3) 0.06337(16)
O10? O 0.2592(5) 0.23385(14) 0.02368(19)
Cl3? Cl 0.28068(12) 0.15601(7) 0.00853(6)
O11? O 0.2756(19) 0.2005(12) -0.0457(6)
O12? O 0.4086(12) 0.1133(10) 0.0194(10)
O13? O 0.1635(14) 0.1050(9) 0.0012(9)
O14? O 0.275(2) 0.2053(11) 0.0593(7)
Cl4? Cl -0.32251(12) 0.61690(8) 0.22589(5)
O15? O -0.2106(16) 0.6712(9) 0.2369(3)
O16? O -0.296(3) 0.5640(3) 0.1802(4)
O17? O -0.3309(3) 0.5768(2) 0.28114(12)
O18? O -0.4524(9) 0.6555(11) 0.2052(6)
loop_
_geom_bond_atom_site_label_1
_geom_bond_atom_site_label_2
_geom_bond_site_symmetry_1
_geom_bond_site_symmetry_2
S1 C18 1_555 1_555
S2 C6 1_555 1_555
O1 C13 1_555 1_555
O2 C1 1_555 1_555
C1 C2 1_555 1_555
C2 H1 1_555 1_555
C3 C2 1_555 1_555
H2 C3 1_555 1_555
C4 C3 1_555 1_555
H3 C4 1_555 1_555
C5 C4 1_555 1_555
H4 C5 1_555 1_555
C6 C1 1_555 1_555
C7 S2 1_555 1_555
C8 C7 1_555 1_555
H5 C8 1_555 1_555
C9 C8 1_555 1_555
H6 C9 1_555 1_555
C10 C9 1_555 1_555
H7 C10 1_555 1_555
C11 C10 1_555 1_555
H8 C11 1_555 1_555
C12 O2 1_555 1_555
C13 C14 1_555 1_555
C14 H9 1_555 1_555
C15 C14 1_555 1_555
H10 C15 1_555 1_555
C16 C15 1_555 1_555
H11 C16 1_555 1_555
C17 C16 1_555 1_555
H12 C17 1_555 1_555
C18 C13 1_555 1_555
C19 S1 1_555 1_555
C20 C19 1_555 1_555
H13 C20 1_555 1_555
C21 C20 1_555 1_555
H14 C21 1_555 1_555
C22 C21 1_555 1_555
H15 C22 1_555 1_555
C23 C22 1_555 1_555
H16 C23 1_555 1_555
C24 O1 1_555 1_555
C25 S1 1_555 1_555
H17 C25 1_555 1_555
C26 S2 1_555 1_555
H18 C26 1_555 1_555
C27 C26 1_555 1_555
H19 C27 1_555 1_555
H20 C27 1_555 1_555
C28 C27 1_555 1_555
H21 C28 1_555 1_555
H22 C28 1_555 1_555
C29 C28 1_555 1_555
H23 C29 1_555 1_555
C30 C29 1_555 1_555
H24 C30 1_555 1_555
C31 C30 1_555 1_555
H25 C31 1_555 1_555
H26 C31 1_555 1_555
C32 C25 1_555 1_555
H27 C32 1_555 1_555
H28 C32 1_555 1_555
C33 H29 1_555 1_555
H30 C33 1_555 1_555
H31 C33 1_555 1_555
C34 C33 1_555 1_555
N1 C34 1_555 1_555
Cl1 O3 1_555 1_555
O4 Cl1 1_555 1_555
O5 Cl1 1_555 1_555
O6 Cl1 1_555 1_555
Cl5 O19 1_555 1_555
O20 Cl5 1_555 1_555
O21 Cl5 1_555 1_555
O22 Cl5 1_555 1_555
C5 C6 1_555 1_555
C7 C12 1_555 1_555
C11 C12 1_555 1_555
C17 C18 1_555 1_555
C19 C24 1_555 1_555
C23 C24 1_555 1_555
C25 C26 1_555 1_555
C31 C32 1_555 1_555

#END
