
#######################################################################
#
#                 Cambridge Crystallographic Data Centre
#                                CCDC 
#
#######################################################################
#
# If this CIF has been generated from an entry in the Cambridge 
# Structural Database, then it will include bibliographic, chemical, 
# crystal, experimental, refinement or atomic coordinate data resulting 
# from the CCDC's data processing and validation procedures.
#
#######################################################################

data_APULIG
_chemical_formula_moiety         'C18 H17 O1 S1 1+,Cl1 O4 1-'
_chemical_name_systematic        
'1-(Phenoxathiinium-10-yl)cyclohexene perchlorate'
_symmetry_cell_setting           triclinic
_symmetry_space_group_name_H-M   'P -1'
_symmetry_Int_Tables_number      2
_space_group_name_Hall           '-P 1'
loop_
_symmetry_equiv_pos_site_id
_symmetry_equiv_pos_as_xyz
1 x,y,z
2 -x,-y,-z
_cell_length_a                   8.5250(17)
_cell_length_b                   9.4980(19)
_cell_length_c                   10.890(2)
_cell_angle_alpha                100.57(3)
_cell_angle_beta                 90.37(3)
_cell_angle_gamma                95.32(3)
_cell_volume                     862.824
_exptl_crystal_colour            colorless
_exptl_crystal_description       prism
_chemical_melting_point          '175-177 deg.C(dec.)'
_cell_formula_units_Z            2
_exptl_crystal_recrystallization_method acetonitrile/ether
loop_
_atom_site_label
_atom_site_type_symbol
_atom_site_fract_x
_atom_site_fract_y
_atom_site_fract_z
S1 S 0.5017(2) 0.8943(2) 0.77497(19)
O1 O 0.5751(7) 0.6653(7) 0.9366(6)
C1 C 0.6731(9) 0.8048(9) 0.7853(7)
C2 C 0.7981(11) 0.8410(10) 0.7098(9)
H1 H 0.7883 0.9071 0.6575
C3 C 0.9341(12) 0.7769(10) 0.7152(9)
H2 H 1.0175 0.7993 0.6653
C4 C 0.9504(12) 0.6821(10) 0.7910(9)
H3 H 1.0440 0.6391 0.7915
C5 C 0.8315(10) 0.6476(9) 0.8676(8)
H4 H 0.8447 0.5841 0.9217
C6 C 0.6892(10) 0.7104(9) 0.8624(8)
C7 C 0.4424(10) 0.7388(9) 0.9635(8)
C8 C 0.3526(10) 0.7017(10) 1.0606(8)
H5 H 0.3825 0.6316 1.1030
C9 C 0.2203(11) 0.7685(10) 1.0934(9)
H6 H 0.1593 0.7423 1.1575
C10 C 0.1760(11) 0.8740(9) 1.0334(8)
H7 H 0.0853 0.9186 1.0567
C11 C 0.2661(10) 0.9140(9) 0.9382(8)
H8 H 0.2379 0.9869 0.8985
C12 C 0.3988(9) 0.8443(8) 0.9025(7)
C13 C 0.3990(9) 0.7945(8) 0.6402(7)
C14 C 0.3555(9) 0.8738(9) 0.5607(7)
H9 H 0.3748 0.9733 0.5814
C15 C 0.2758(11) 0.8078(10) 0.4380(9)
H10 H 0.3242 0.8528 0.3727
H11 H 0.1658 0.8264 0.4411
C16 C 0.2863(13) 0.6456(10) 0.4054(9)
H12 H 0.2100 0.6040 0.3392
H13 H 0.3904 0.6276 0.3744
C17 C 0.2564(11) 0.5744(10) 0.5143(8)
H14 H 0.2641 0.4719 0.4890
H15 H 0.1501 0.5876 0.5424
C18 C 0.3729(10) 0.6342(9) 0.6225(8)
H16 H 0.3324 0.6068 0.6986
H17 H 0.4725 0.5935 0.6056
Cl1 Cl 0.2012(3) 0.2436(3) 0.7161(2)
O2 O 0.3481(14) 0.2133(17) 0.7637(14)
O3 O 0.2110(19) 0.2367(17) 0.5862(9)
O4 O 0.0860(16) 0.1304(14) 0.7378(15)
O5 O 0.1595(19) 0.3760(12) 0.7791(14)
Cl2? Cl 0.2012(3) 0.2436(3) 0.7161(2)
O6? O 0.274(3) 0.362(2) 0.806(2)
O7? O 0.311(3) 0.210(3) 0.620(2)
O8? O 0.154(3) 0.128(2) 0.772(2)
O9? O 0.069(2) 0.296(3) 0.663(3)
Cl3? Cl 0.2012(3) 0.2436(3) 0.7161(2)
O10? O 0.3512(15) 0.273(2) 0.6692(19)
O11? O 0.111(2) 0.1380(18) 0.6225(16)
O12? O 0.212(3) 0.185(2) 0.8252(13)
O13? O 0.118(2) 0.3669(16) 0.737(2)
loop_
_geom_bond_atom_site_label_1
_geom_bond_atom_site_label_2
_geom_bond_site_symmetry_1
_geom_bond_site_symmetry_2
S1 C1 1_555 1_555
O1 C6 1_555 1_555
C1 C2 1_555 1_555
C2 H1 1_555 1_555
C3 C2 1_555 1_555
H2 C3 1_555 1_555
C4 C3 1_555 1_555
H3 C4 1_555 1_555
C5 C4 1_555 1_555
H4 C5 1_555 1_555
C6 C1 1_555 1_555
C7 O1 1_555 1_555
C8 C7 1_555 1_555
H5 C8 1_555 1_555
C9 C8 1_555 1_555
H6 C9 1_555 1_555
C10 C9 1_555 1_555
H7 C10 1_555 1_555
C11 C10 1_555 1_555
H8 C11 1_555 1_555
C12 S1 1_555 1_555
C13 S1 1_555 1_555
C14 C13 1_555 1_555
H9 C14 1_555 1_555
C15 C14 1_555 1_555
H10 C15 1_555 1_555
H11 C15 1_555 1_555
C16 C15 1_555 1_555
H12 C16 1_555 1_555
H13 C16 1_555 1_555
C17 C16 1_555 1_555
H14 C17 1_555 1_555
H15 C17 1_555 1_555
C18 C13 1_555 1_555
H16 C18 1_555 1_555
H17 C18 1_555 1_555
Cl1 O2 1_555 1_555
O3 Cl1 1_555 1_555
O4 Cl1 1_555 1_555
O5 Cl1 1_555 1_555
C5 C6 1_555 1_555
C7 C12 1_555 1_555
C11 C12 1_555 1_555
C17 C18 1_555 1_555

#END
