
#######################################################################
#
#                 Cambridge Crystallographic Data Centre
#                                CCDC 
#
#######################################################################
#
# If this CIF has been generated from an entry in the Cambridge 
# Structural Database, then it will include bibliographic, chemical, 
# crystal, experimental, refinement or atomic coordinate data resulting 
# from the CCDC's data processing and validation procedures.
#
#######################################################################

data_APUMAZ
_chemical_formula_moiety         'C16 H15 S2 1+,Cl1 O4 1-,C2 H3 N1'
_chemical_name_systematic        
'(Z)-2-(Thianthrenium-5-yl)but-2-ene perchlorate acetonitrile solvate'
_symmetry_cell_setting           triclinic
_symmetry_space_group_name_H-M   'P -1'
_symmetry_Int_Tables_number      2
_space_group_name_Hall           '-P 1'
loop_
_symmetry_equiv_pos_site_id
_symmetry_equiv_pos_as_xyz
1 x,y,z
2 -x,-y,-z
_cell_length_a                   7.6869(11)
_cell_length_b                   11.4845(16)
_cell_length_c                   12.1644(17)
_cell_angle_alpha                69.264(2)
_cell_angle_beta                 85.923(2)
_cell_angle_gamma                80.198(2)
_cell_volume                     989.583
_exptl_crystal_colour            colorless
_exptl_crystal_description       'flat plates'
_cell_formula_units_Z            2
loop_
_atom_site_label
_atom_site_type_symbol
_atom_site_fract_x
_atom_site_fract_y
_atom_site_fract_z
S1 S 0.86822(13) -0.27300(9) 0.69751(9)
S2 S 0.8206(2) -0.57058(11) 0.88222(12)
C1 C 0.9909(5) -0.4138(4) 0.6882(3)
C2 C 1.1138(6) -0.3972(5) 0.5969(4)
H1 H 1.1317 -0.3164 0.5498
C3 C 1.2089(6) -0.4997(6) 0.5760(5)
H2 H 1.2908 -0.4887 0.5144
C4 C 1.1824(7) -0.6189(6) 0.6466(5)
H3 H 1.2468 -0.6886 0.6325
C5 C 1.0623(7) -0.6364(5) 0.7375(5)
H4 H 1.0456 -0.7177 0.7839
C6 C 0.9649(5) -0.5341(4) 0.7615(4)
C7 C 0.7674(6) -0.4328(4) 0.9163(4)
C8 C 0.6924(7) -0.4477(5) 1.0282(4)
H5 H 0.6787 -0.5278 1.0796
C9 C 0.6395(7) -0.3460(6) 1.0623(5)
H6 H 0.5883 -0.3574 1.1362
C10 C 0.6609(7) -0.2270(6) 0.9888(5)
H7 H 0.6241 -0.1582 1.0128
C11 C 0.7365(6) -0.2098(4) 0.8799(4)
H8 H 0.7546 -0.1297 0.8308
C12 C 0.7858(5) -0.3112(4) 0.8432(3)
C13 C 0.5587(6) -0.3428(6) 0.6451(5)
H9 H 0.4653 -0.3174 0.5891
H10 H 0.5095 -0.3489 0.7213
H11 H 0.6224 -0.4234 0.6480
C14 C 0.6804(5) -0.2484(5) 0.6093(4)
C15 C 0.6684(8) -0.1446(6) 0.5137(5)
H12 H 0.5704 -0.1301 0.4673
C16 C 0.7886(11) -0.0486(6) 0.4704(6)
H13 H 0.7417 0.0165 0.4000
H14 H 0.9031 -0.0878 0.4538
H15 H 0.7987 -0.0126 0.5294
N1 N 0.7778(7) 0.2254(5) 0.1945(5)
C17 C 0.7860(7) 0.1488(5) 0.1579(5)
C18 C 0.7993(9) 0.0510(6) 0.1101(6)
H16 H 0.6833 0.0348 0.1021
H17 H 0.8674 -0.0241 0.1616
H18 H 0.8563 0.0765 0.0344
Cl1 Cl 1.31770(14) -0.16538(10) 0.27274(10)
O1 O 1.2196(14) -0.1182(8) 0.3431(8)
O2 O 1.2265(13) -0.1355(8) 0.1756(6)
O3 O 1.4654(8) -0.1106(6) 0.2398(8)
O4 O 1.3627(7) -0.2961(4) 0.3222(6)
loop_
_geom_bond_atom_site_label_1
_geom_bond_atom_site_label_2
_geom_bond_site_symmetry_1
_geom_bond_site_symmetry_2
S1 C1 1_555 1_555
S2 C6 1_555 1_555
C1 C2 1_555 1_555
C2 H1 1_555 1_555
C3 C2 1_555 1_555
H2 C3 1_555 1_555
C4 C3 1_555 1_555
H3 C4 1_555 1_555
C5 C4 1_555 1_555
H4 C5 1_555 1_555
C6 C1 1_555 1_555
C7 S2 1_555 1_555
C8 C7 1_555 1_555
H5 C8 1_555 1_555
C9 C8 1_555 1_555
H6 C9 1_555 1_555
C10 C9 1_555 1_555
H7 C10 1_555 1_555
C11 C10 1_555 1_555
H8 C11 1_555 1_555
C12 S1 1_555 1_555
C13 H9 1_555 1_555
H10 C13 1_555 1_555
H11 C13 1_555 1_555
C14 S1 1_555 1_555
C15 C14 1_555 1_555
H12 C15 1_555 1_555
C16 C15 1_555 1_555
H13 C16 1_555 1_555
H14 C16 1_555 1_555
H15 C16 1_555 1_555
N1 C17 1_555 1_555
C17 C18 1_555 1_555
C18 H16 1_555 1_555
H17 C18 1_555 1_555
H18 C18 1_555 1_555
Cl1 O1 1_555 1_555
O2 Cl1 1_555 1_555
O3 Cl1 1_555 1_555
O4 Cl1 1_555 1_555
C5 C6 1_555 1_555
C7 C12 1_555 1_555
C11 C12 1_555 1_555
C13 C14 1_555 1_555

#END
