
#######################################################################
#
#                 Cambridge Crystallographic Data Centre
#                                CCDC 
#
#######################################################################
#
# If this CIF has been generated from an entry in the Cambridge 
# Structural Database, then it will include bibliographic, chemical, 
# crystal, experimental, refinement or atomic coordinate data resulting 
# from the CCDC's data processing and validation procedures.
#
#######################################################################

data_APUMED
_chemical_formula_moiety         'C17 H17 S2 1+,Cl1 O4 1-'
_chemical_name_systematic        
'2-(Thianthrenium-5-yl)-3-methylbut-2-ene perchlorate'
_symmetry_cell_setting           monoclinic
_symmetry_space_group_name_H-M   'P 21/n'
_symmetry_Int_Tables_number      14
_space_group_name_Hall           '-P 2yn'
loop_
_symmetry_equiv_pos_site_id
_symmetry_equiv_pos_as_xyz
1 x,y,z
2 1/2+x,1/2-y,1/2+z
3 -x,-y,-z
4 1/2-x,1/2+y,1/2-z
_cell_length_a                   8.781(2)
_cell_length_b                   10.434(2)
_cell_length_c                   19.438(5)
_cell_angle_alpha                90
_cell_angle_beta                 98.524(5)
_cell_angle_gamma                90
_cell_volume                     1761.26
_exptl_crystal_colour            colorless
_exptl_crystal_description       plate
_chemical_melting_point          '162-163 deg.C(dec.)'
_cell_formula_units_Z            4
loop_
_atom_site_label
_atom_site_type_symbol
_atom_site_fract_x
_atom_site_fract_y
_atom_site_fract_z
S1 S 0.15021(16) 0.88101(14) 0.11027(8)
S2 S 0.0669(2) 0.75432(17) -0.05514(9)
C1 C 0.2059(6) 0.9453(6) 0.0329(3)
C2 C 0.2930(7) 1.0563(6) 0.0455(4)
H1 H 0.3111 1.0914 0.0900
C3 C 0.3517(7) 1.1131(7) -0.0080(5)
H2 H 0.4110 1.1870 -0.0004
C4 C 0.3224(7) 1.0599(7) -0.0732(4)
H3 H 0.3640 1.0972 -0.1097
C5 C 0.2329(7) 0.9530(7) -0.0850(3)
H4 H 0.2115 0.9208 -0.1301
C6 C 0.1730(6) 0.8910(5) -0.0322(3)
C7 C -0.0187(6) 0.7144(5) 0.0169(3)
C8 C -0.1357(7) 0.6210(6) 0.0045(4)
H5 H -0.1645 0.5902 -0.0404
C9 C -0.2064(7) 0.5755(6) 0.0563(5)
H6 H -0.2805 0.5117 0.0469
C10 C -0.1709(8) 0.6217(7) 0.1224(4)
H7 H -0.2205 0.5890 0.1577
C11 C -0.0624(7) 0.7162(6) 0.1369(3)
H8 H -0.0393 0.7493 0.1817
C12 C 0.0121(6) 0.7616(5) 0.0838(3)
C13 C 0.3577(6) 0.6797(6) 0.1085(3)
H9 H 0.4482 0.6402 0.1334
H10 H 0.3777 0.7059 0.0634
H11 H 0.2743 0.6194 0.1034
C14 C 0.3156(6) 0.7941(6) 0.1479(3)
C15 C 0.3886(7) 0.8381(7) 0.2077(3)
C16 C 0.5295(7) 0.7697(7) 0.2451(3)
H12 H 0.5503 0.6952 0.2190
H13 H 0.5109 0.7442 0.2906
H14 H 0.6165 0.8264 0.2494
C17 C 0.3466(8) 0.9558(7) 0.2442(3)
H15 H 0.2570 0.9944 0.2180
H16 H 0.4307 1.0155 0.2485
H17 H 0.3251 0.9333 0.2897
Cl1 Cl -0.0182(2) 0.8262(2) 0.33467(10)
O1 O -0.0814(7) 0.7084(5) 0.3096(3)
O2 O -0.0613(6) 0.9239(5) 0.2855(3)
O3 O 0.1380(6) 0.8076(6) 0.3423(3)
O4 O -0.0547(9) 0.8506(6) 0.3990(3)
loop_
_geom_bond_atom_site_label_1
_geom_bond_atom_site_label_2
_geom_bond_site_symmetry_1
_geom_bond_site_symmetry_2
S1 C1 1_555 1_555
S2 C6 1_555 1_555
Cl1 O1 1_555 1_555
C1 C2 1_555 1_555
C2 H1 1_555 1_555
C3 C2 1_555 1_555
H2 C3 1_555 1_555
C4 C3 1_555 1_555
H3 C4 1_555 1_555
C5 C4 1_555 1_555
H4 C5 1_555 1_555
C6 C1 1_555 1_555
C7 S2 1_555 1_555
C8 C7 1_555 1_555
H5 C8 1_555 1_555
C9 C8 1_555 1_555
H6 C9 1_555 1_555
C10 C9 1_555 1_555
H7 C10 1_555 1_555
C11 C10 1_555 1_555
H8 C11 1_555 1_555
C12 S1 1_555 1_555
C13 H9 1_555 1_555
H10 C13 1_555 1_555
H11 C13 1_555 1_555
C14 S1 1_555 1_555
C15 C14 1_555 1_555
C16 C15 1_555 1_555
H12 C16 1_555 1_555
H13 C16 1_555 1_555
H14 C16 1_555 1_555
C17 C15 1_555 1_555
H15 C17 1_555 1_555
H16 C17 1_555 1_555
H17 C17 1_555 1_555
O2 Cl1 1_555 1_555
O3 Cl1 1_555 1_555
O4 Cl1 1_555 1_555
C5 C6 1_555 1_555
C7 C12 1_555 1_555
C11 C12 1_555 1_555
C13 C14 1_555 1_555

#END
