
#######################################################################
#
#                 Cambridge Crystallographic Data Centre
#                                CCDC 
#
#######################################################################
#
# If this CIF has been generated from an entry in the Cambridge 
# Structural Database, then it will include bibliographic, chemical, 
# crystal, experimental, refinement or atomic coordinate data resulting 
# from the CCDC's data processing and validation procedures.
#
#######################################################################

data_APUQOT
_chemical_formula_moiety         'C12 H6 Br2 N4 S1'
_chemical_name_systematic        
3,3'-(1,2,5-thiadiazole-3,4-diyl)bis(6-bromopyridine)
_symmetry_cell_setting           triclinic
_symmetry_space_group_name_H-M   'P -1'
_symmetry_Int_Tables_number      2
_space_group_name_Hall           '-P 1'
loop_
_symmetry_equiv_pos_site_id
_symmetry_equiv_pos_as_xyz
1 x,y,z
2 -x,-y,-z
_cell_length_a                   7.1617(4)
_cell_length_b                   7.2787(4)
_cell_length_c                   14.4257(8)
_cell_angle_alpha                77.0382(9)
_cell_angle_beta                 78.7453(8)
_cell_angle_gamma                61.5479(7)
_cell_volume                     640.876
_exptl_crystal_colour            yellow
_exptl_crystal_description       prism
_cell_formula_units_Z            2
loop_
_atom_site_label
_atom_site_type_symbol
_atom_site_fract_x
_atom_site_fract_y
_atom_site_fract_z
Br1 Br 0.76469(5) 0.11355(4) 1.18285(2)
Br2 Br 1.23819(5) 0.06797(5) 0.53206(2)
C1 C 0.2757(4) 0.3696(4) 0.83700(18)
C2 C 0.3420(4) 0.3729(4) 0.73593(18)
C3 C 0.4074(4) 0.3033(4) 0.91690(17)
C4 C 0.3258(4) 0.2520(4) 1.00972(18)
H1 H 0.1887 0.2566 1.0185
C5 C 0.6206(4) 0.1910(4) 1.07289(18)
C6 C 0.7177(4) 0.2399(4) 0.98464(19)
H2 H 0.8552 0.2333 0.9785
C7 C 0.6078(4) 0.2985(4) 0.90591(18)
H3 H 0.6683 0.3356 0.8444
C8 C 0.5597(4) 0.3033(4) 0.68630(17)
C9 C 0.7254(4) 0.1039(4) 0.71185(18)
H4 H 0.6961 0.0110 0.7634
C10 C 0.9576(4) 0.1674(4) 0.59460(18)
C11 C 0.8063(4) 0.3673(4) 0.56073(19)
H5 H 0.8404 0.4529 0.5070
C12 C 0.6036(4) 0.4365(4) 0.60855(18)
H6 H 0.4946 0.5736 0.5889
N1 N 0.0649(4) 0.4469(3) 0.85706(16)
N2 N 0.1799(4) 0.4540(4) 0.68361(16)
N3 N 0.4294(4) 0.1969(3) 1.08689(15)
N4 N 0.9244(4) 0.0363(3) 0.66717(16)
S1 S -0.03875(11) 0.52048(11) 0.75638(5)
loop_
_geom_bond_atom_site_label_1
_geom_bond_atom_site_label_2
_geom_bond_site_symmetry_1
_geom_bond_site_symmetry_2
Br1 C5 1_555 1_555
Br2 C10 1_555 1_555
C1 C2 1_555 1_555
C2 C8 1_555 1_555
C3 C1 1_555 1_555
C4 C3 1_555 1_555
H1 C4 1_555 1_555
C5 C6 1_555 1_555
C6 H2 1_555 1_555
C7 C3 1_555 1_555
H3 C7 1_555 1_555
C8 C9 1_555 1_555
C9 H4 1_555 1_555
C10 C11 1_555 1_555
C11 H5 1_555 1_555
C12 C8 1_555 1_555
H6 C12 1_555 1_555
N1 C1 1_555 1_555
N2 C2 1_555 1_555
N3 C4 1_555 1_555
N4 C9 1_555 1_555
S1 N1 1_555 1_555
C5 N3 1_555 1_555
C6 C7 1_555 1_555
C10 N4 1_555 1_555
C11 C12 1_555 1_555
N2 S1 1_555 1_555

#END
