
#######################################################################
#
#                 Cambridge Crystallographic Data Centre
#                                CCDC 
#
#######################################################################
#
# If this CIF has been generated from an entry in the Cambridge 
# Structural Database, then it will include bibliographic, chemical, 
# crystal, experimental, refinement or atomic coordinate data resulting 
# from the CCDC's data processing and validation procedures.
#
#######################################################################

data_APUQUY
_chemical_formula_moiety         
'C122 H117 F5 N24 O18,2.17(C1 H1 Cl3),0.56(C6 H14),5.25(H2 O1)'
_chemical_name_systematic        
"N,N'-bis(2-((2-((6-((6-((6-(t-Butylcarbonylamino)pyridin-2-yl)carbamoyl)pyridin-2-yl)carbonylamino)pyridin-2-yl)carbamoyl)-8-fluoro-4-isobutoxyquinolin-7-yl)carbamoyl)-8-fluoro-4-isobutoxyquinolin-7-yl)-10-fluoro-4,6-di-isobutoxypyrido[3,2-g]quinoline-2,8-dicarboxamide chloroform n-hexane solvate hydrate"
_symmetry_cell_setting           triclinic
_symmetry_space_group_name_H-M   'P -1'
_symmetry_Int_Tables_number      2
_space_group_name_Hall           '-P 1'
loop_
_symmetry_equiv_pos_site_id
_symmetry_equiv_pos_as_xyz
1 x,y,z
2 -x,-y,-z
_cell_length_a                   19.757(4)
_cell_length_b                   22.968(3)
_cell_length_c                   31.494(6)
_cell_angle_alpha                92.40(3)
_cell_angle_beta                 103.25(3)
_cell_angle_gamma                99.67(3)
_cell_volume                     13665
_cell_formula_units_Z            4
loop_
_atom_site_label
_atom_site_type_symbol
_atom_site_fract_x
_atom_site_fract_y
_atom_site_fract_z
Cl1 Cl 0.0803(3) 0.66105(19) 0.18221(14)
Cl3 Cl 0.1574(4) 0.7513(2) 0.14305(19)
Cl8 Cl 0.0253(5) 0.6831(4) 0.0948(3)
C103 C 0.1021(11) 0.6812(7) 0.1338(5)
H113 H 0.1269 0.6519 0.1236
Cl2 Cl 0.1687(2) 0.65387(17) 0.30539(13)
Cl4 Cl 0.0463(3) 0.6573(2) 0.33968(18)
Cl6 Cl 0.1823(3) 0.6661(2) 0.39808(14)
C40 C 0.1273(8) 0.6352(7) 0.3475(5)
H62 H 0.1194 0.5919 0.3479
Cl5 Cl 0.6217(4) 0.6216(5) 0.4370(3)
Cl7 Cl 0.7330(3) 0.5588(3) 0.44141(18)
Cl9 Cl 0.7516(6) 0.6698(3) 0.4114(2)
C204 C 0.7076(11) 0.6271(9) 0.4476(7)
H200 H 0.7280 0.6442 0.4778
O1 O 0.0701(6) 0.8875(5) 0.3824(3)
O2 O 0.2478(7) 1.2836(5) 0.0750(3)
F2 F 0.0284(4) 1.1010(3) 0.1292(2)
F3 F 0.0148(4) 1.1961(3) 0.3473(2)
F4 F 0.2505(4) 1.2417(4) 0.3424(2)
O3 O 0.0325(6) 1.5129(5) 0.2672(4)
F6 F 0.0740(5) 1.3000(4) 0.1595(3)
F10 F -0.0843(4) 1.0584(4) 0.2270(2)
N1 N 0.1792(6) 0.9022(5) 0.3069(4)
O4 O 0.2026(5) 1.0734(4) 0.0008(3)
N2 N -0.0278(6) 0.9890(5) 0.1091(3)
H1 H -0.0336 1.0118 0.1298
O9 O -0.3438(5) 1.1247(5) 0.0624(3)
O10 O 0.0195(5) 1.3546(4) 0.5024(3)
O11 O -0.2063(5) 1.1079(4) 0.3826(3)
O14 O -0.2477(6) 0.8177(4) 0.1676(3)
O16 O -0.0711(5) 0.8946(4) 0.0738(3)
C1 C 0.3245(18) 1.6358(8) 0.2204(7)
H3 H 0.3652 1.6175 0.2331
O17 O 0.2439(6) 1.5420(5) 0.1991(3)
N6 N 0.3841(6) 1.1511(7) 0.2707(3)
H6 H 0.3534 1.1573 0.2851
N9 N -0.1044(6) 0.9706(5) 0.1645(4)
O23 O -0.3409(7) 1.3039(6) 0.2478(4)
N10 N -0.1524(6) 1.0562(5) 0.2911(4)
O24 O 0.3401(6) 1.0977(6) 0.5662(4)
N12 N -0.1126(7) 1.1439(5) 0.3536(3)
H8 H -0.0972 1.1394 0.3305
O25 O -0.2963(6) 0.9033(4) 0.2981(3)
N13 N -0.3232(6) 1.2253(5) 0.1524(4)
O27 O 0.5150(6) 1.4043(5) 0.3386(3)
O28 O 0.4796(6) 1.2020(5) 0.2497(4)
O29 O 0.2468(6) 1.3942(5) 0.4488(3)
N17 N -0.2231(6) 1.2799(5) 0.0396(4)
N18 N 0.1723(6) 0.9529(5) 0.3862(3)
H10 H 0.2030 0.9644 0.3714
N19 N 0.3336(6) 1.0721(5) 0.4950(3)
H11 H 0.3567 1.0746 0.4749
O31 O 0.2515(6) 0.8759(5) 0.2171(3)
N22 N 0.0961(8) 1.2855(5) 0.4025(3)
N23 N 0.2466(6) 1.0144(5) 0.4423(3)
N24 N -0.2719(6) 1.2133(5) 0.0811(4)
H14 H -0.2545 1.2404 0.1023
O32 O -0.1848(8) 1.3543(5) -0.0698(4)
N25 N 0.3657(7) 1.2460(6) 0.3107(4)
N27 N 0.1677(6) 1.2752(5) 0.1163(4)
H16 H 0.1350 1.2494 0.1223
C2 C 0.1858(10) 1.4467(7) 0.1786(4)
C3 C 0.4798(8) 1.1421(6) 0.5889(4)
H17 H 0.5305 1.1512 0.5952
H18 H 0.4654 1.1181 0.6106
H19 H 0.4615 1.1782 0.5892
N28 N -0.0335(10) 1.4285(6) 0.2301(3)
H20 H -0.0318 1.4009 0.2114
N30 N -0.2533(9) 1.3175(6) 0.2112(4)
N31 N 0.2233(7) 1.3266(5) 0.3919(4)
H22 H 0.1909 1.2985 0.3772
C5 C 0.4192(9) 1.0795(10) 0.2260(5)
H24 H 0.4543 1.1077 0.2196
C6 C 0.3259(10) 1.6977(7) 0.2425(6)
H25 H 0.3321 1.6954 0.2735
H26 H 0.2821 1.7105 0.2307
H27 H 0.3644 1.7255 0.2370
N34 N 0.1256(7) 1.1614(6) 0.0927(3)
N38 N 0.3284(7) 1.0552(7) 0.2644(3)
N39 N 0.2648(6) 0.9609(6) 0.2620(3)
H29 H 0.2486 0.9758 0.2823
C7 C 0.2708(8) 1.0590(6) -0.0510(5)
N40 N -0.1808(6) 1.3522(6) 0.0011(4)
H30 H -0.1712 1.3742 0.0252
C8 C 0.2525(9) 1.5996(7) 0.2225(5)
H32 H 0.2508 1.5949 0.2527
H33 H 0.2146 1.6199 0.2092
C10 C 0.1292(8) 0.9825(6) 0.4487(4)
H36 H 0.0843 0.9599 0.4378
C13 C 0.3371(11) 1.3880(7) 0.3871(4)
H37 H 0.3288 1.4187 0.4043
C15 C 0.2880(10) 1.3368(7) 0.3767(5)
C17 C 0.0032(11) 1.2867(6) 0.4427(4)
N46 N -0.1483(11) 1.3758(6) 0.2233(3)
N47 N 0.0766(8) 1.4075(5) 0.1988(4)
C22 C -0.1923(11) 1.4718(9) -0.0729(6)
H43 H -0.1664 1.4590 -0.0928
H44 H -0.1843 1.5144 -0.0698
H45 H -0.2418 1.4567 -0.0843
C25 C 0.2627(9) 1.0461(6) 0.4819(4)
C26 C 0.1755(10) 1.3322(7) 0.1369(5)
C28 C -0.4057(10) 1.1965(10) 0.1955(6)
H50 H -0.4240 1.2045 0.2195
C31 C -0.1024(8) 1.2156(6) 0.4181(4)
H54 H -0.1468 1.1987 0.4216
C32 C 0.2045(7) 1.1639(6) 0.0438(4)
H55 H 0.2396 1.1864 0.0330
C34 C 0.0946(8) 0.8188(7) 0.3153(5)
H56 H 0.0634 0.8014 0.3313
C35 C -0.1579(9) 0.8708(7) 0.1344(4)
H57 H -0.1596 0.8398 0.1141
C37 C 0.0470(11) 1.3338(7) 0.4707(5)
C38 C 0.4729(8) 1.1445(7) 0.5094(5)
H59 H 0.5235 1.1519 0.5146
H60 H 0.4566 1.1815 0.5104
H61 H 0.4525 1.1234 0.4812
C41 C -0.0112(10) 1.2178(6) 0.3802(4)
C43 C -0.2283(6) 0.9096(6) 0.2302(4)
H64 H -0.2617 0.8760 0.2306
C44 C 0.4242(10) 1.2535(7) 0.2957(5)
C45 C 0.0627(8) 1.3977(7) 0.5365(5)
H65 H 0.0788 1.4337 0.5238
H66 H 0.1039 1.3825 0.5514
C47 C -0.1088(11) 1.4612(7) 0.2761(5)
H68 H -0.0751 1.4941 0.2892
C49 C 0.4788(8) 1.0484(7) 0.5431(5)
H69 H 0.5293 1.0563 0.5477
H70 H 0.4580 1.0264 0.5153
H71 H 0.4659 1.0258 0.5659
C50 C 0.2301(8) 1.3787(7) 0.1349(4)
H72 H 0.2634 1.3720 0.1196
C51 C 0.3713(10) 1.0944(6) 0.5368(4)
C55 C 0.1884(9) 1.4996(8) 0.2004(5)
C56 C 0.1140(10) 1.3571(6) 0.4656(4)
H75 H 0.1435 1.3884 0.4841
C58 C 0.4064(10) 1.0232(11) 0.2096(5)
H76 H 0.4324 1.0122 0.1904
C61 C 0.0813(9) 1.4580(8) 0.2201(5)
C63 C 0.0764(11) 1.4472(8) 0.6096(5)
H81 H 0.0514 1.4567 0.6310
H82 H 0.1001 1.4831 0.6010
H83 H 0.1106 1.4236 0.6220
C64 C -0.4107(12) 0.8079(9) 0.2966(8)
H84 H -0.4247 0.7657 0.2956
H85 H -0.3996 0.8184 0.2694
H86 H -0.4487 0.8267 0.3010
C65 C 0.6162(11) 1.4745(10) 0.3375(8)
H87 H 0.6259 1.4747 0.3694
C72 C -0.2400(7) 1.1753(7) 0.0179(5)
H94 H -0.2562 1.1363 0.0226
C73 C 0.4513(8) 1.1084(7) 0.5439(4)
C74 C 0.1491(9) 0.8160(8) 0.2573(5)
H95 H 0.1552 0.7974 0.2320
C75 C 0.0460(8) 0.9830(6) 0.0552(4)
H96 H 0.0283 0.9429 0.0475
C78 C -0.3519(9) 1.1759(8) 0.1272(5)
C79 C 0.0958(7) 1.0120(6) 0.0359(4)
H98 H 0.1100 0.9918 0.0142
C80 C 0.5752(15) 1.5243(13) 0.3245(9)
H99 H 0.5328 1.5182 0.3351
H100 H 0.5628 1.5243 0.2932
H101 H 0.6039 1.5616 0.3371
C81 C -0.1677(11) 1.4489(8) -0.0289(5)
C84 C -0.1878(8) 1.2480(7) -0.0253(5)
H103 H -0.1682 1.2584 -0.0487
C88 C -0.1901(8) 0.9120(6) 0.1974(4)
C89 C 0.4751(8) 1.3041(9) 0.3020(5)
H105 H 0.5137 1.3066 0.2895
C90 C -0.2211(9) 1.4003(8) 0.2673(5)
H106 H -0.2637 1.3910 0.2754
C91 C -0.2385(8) 1.0040(7) 0.3262(4)
H107 H -0.2634 1.0054 0.3479
C92 C 0.4085(9) 1.3504(9) 0.3473(5)
C93 C -0.3492(10) 1.2356(8) 0.1867(6)
C94 C -0.0753(9) 1.1909(6) 0.3826(4)
C95 C 0.1254(7) 1.0707(6) 0.0482(4)
C97 C 0.3979(10) 1.3952(7) 0.3728(6)
H108 H 0.4312 1.4300 0.3804
C98 C -0.0644(10) 1.2616(7) 0.4452(4)
H109 H -0.0838 1.2773 0.4664
C99 C -0.1684(8) 1.0083(7) 0.2624(4)
C101 C 0.1005(8) 1.1030(6) 0.0796(4)
C105 C -0.3204(9) 0.8940(7) 0.3376(5)
H115 H -0.2827 0.9090 0.3632
H116 H -0.3601 0.9137 0.3379
C106 C -0.1735(11) 1.4464(8) 0.2873(6)
H117 H -0.1833 1.4694 0.3093
C109 C -0.2852(14) 0.7932(10) 0.3344(8)
H118 H -0.3045 0.7520 0.3347
H119 H -0.2458 0.8050 0.3592
H120 H -0.2697 0.7993 0.3079
C110 C 0.2130(9) 1.0498(6) 0.5060(4)
H121 H 0.2239 1.0734 0.5322
C111 C 0.2355(9) 1.4337(6) 0.1549(5)
H122 H 0.2726 1.4634 0.1530
C113 C -0.2174(7) 0.9555(6) 0.2617(4)
C114 C -0.4076(9) 1.1352(8) 0.1330(6)
H124 H -0.4265 1.1016 0.1137
C115 C -0.2087(8) 1.1907(7) -0.0182(5)
H125 H -0.2028 1.1607 -0.0370
C116 C 0.1252(10) 1.3450(7) 0.1584(5)
C118 C -0.2515(8) 0.9538(7) 0.2974(4)
C120 C 0.0311(9) 1.2639(6) 0.4084(5)
C122 C -0.0871(13) 1.4716(9) -0.0123(6)
H128 H -0.0631 1.4580 -0.0329
H129 H -0.0706 1.4568 0.0155
H130 H -0.0778 1.5142 -0.0091
C123 C 0.5737(10) 1.4153(8) 0.3191(6)
H131 H 0.5573 1.4148 0.2876
H132 H 0.6024 1.3849 0.3255
C124 C 0.1345(9) 1.3300(7) 0.4303(5)
C127 C -0.1136(7) 0.9261(7) 0.1356(4)
C133 C -0.2436(7) 1.2207(7) 0.0435(5)
C135 C 0.3269(7) 1.0934(7) -0.0733(5)
H142 H 0.3079 1.1244 -0.0886
H143 H 0.3385 1.0665 -0.0935
H144 H 0.3689 1.1102 -0.0513
C137 C 0.1873(9) 0.8724(7) 0.2725(5)
C139 C -0.2601(9) 0.7677(7) 0.1365(5)
H150 H -0.2202 0.7472 0.1426
H151 H -0.2655 0.7806 0.1072
C140 C 0.3772(11) 1.0937(8) 0.2533(5)
C143 C 0.1480(10) 1.0175(7) 0.4894(5)
H155 H 0.1139 1.0182 0.5054
C147 C 0.1754(8) 1.1900(6) 0.0744(4)
C148 C -0.1419(8) 0.9641(6) 0.1968(4)
C150 C 0.6844(12) 1.4839(10) 0.3259(8)
H160 H 0.7090 1.4524 0.3355
H161 H 0.7121 1.5211 0.3398
H162 H 0.6770 1.4844 0.2947
C151 C 0.2543(8) 1.1031(6) -0.0184(4)
H163 H 0.2968 1.1192 0.0039
H164 H 0.2373 1.1357 -0.0336
C152 C 0.3167(8) 0.9998(8) 0.2475(4)
C153 C 0.1308(11) 1.4002(8) 0.1795(4)
C154 C 0.1812(9) 0.9844(6) 0.4272(4)
C156 C -0.3416(12) 0.8299(10) 0.3366(5)
H167 H -0.3564 0.8219 0.3637
C157 C 0.4658(13) 1.3527(7) 0.3287(6)
C158 C 0.3599(10) 1.2955(8) 0.3353(5)
C159 C -0.2079(12) 1.3659(8) 0.2344(5)
C162 C -0.3280(12) 0.7255(9) 0.1398(7)
H169 H -0.3356 0.6905 0.1192
C165 C -0.1303(8) 1.0116(6) 0.2275(4)
C169 C 0.1037(9) 0.7884(7) 0.2787(6)
H170 H 0.0790 0.7502 0.2693
C170 C 0.1813(7) 1.1046(7) 0.0294(4)
C171 C 0.3575(10) 0.9816(8) 0.2198(5)
H171 H 0.3506 0.9422 0.2089
C174 C -0.0984(12) 1.4222(8) 0.2432(5)
C177 C 0.0211(8) 1.0136(6) 0.0867(4)
C180 C 0.1390(13) 1.5071(8) 0.2226(4)
H175 H 0.1420 1.5425 0.2389
C185 C -0.0372(10) 1.4427(9) 0.5486(7)
H177 H -0.0639 1.4484 0.5699
H178 H -0.0675 1.4195 0.5232
H179 H -0.0178 1.4806 0.5404
C186 C 0.1327(9) 0.8755(7) 0.3277(5)
C188 C -0.1972(8) 1.2899(7) 0.0043(6)
C190 C -0.3228(10) 1.1691(7) 0.0881(5)
C193 C 0.0218(11) 1.4111(8) 0.5680(5)
H188 H 0.0009 1.3734 0.5772
C197 C -0.1703(10) 1.1032(7) 0.3558(5)
C202 C -0.3880(15) 0.7542(12) 0.1288(9)
H197 H -0.3930 0.7665 0.0997
H198 H -0.3814 0.7882 0.1491
H199 H -0.4299 0.7270 0.1303
C203 C 0.2986(9) 1.2914(7) 0.3517(5)
C205 C 0.2060(10) 1.3541(7) 0.4254(5)
C208 C -0.1988(8) 0.8649(7) 0.1648(4)
C210 C -0.1881(8) 1.0521(6) 0.3225(4)
C213 C 0.3000(9) 1.0118(8) -0.0267(6)
H203 H 0.3098 0.9836 -0.0468
H204 H 0.2664 0.9923 -0.0119
H205 H 0.3430 1.0288 -0.0056
C219 C 0.0497(7) 1.0708(7) 0.0981(4)
C220 C -0.2057(14) 1.4718(8) 0.0027(6)
H213 H -0.1888 1.4585 0.0310
H214 H -0.2555 1.4572 -0.0074
H215 H -0.1968 1.5144 0.0047
C226 C -0.4336(9) 1.1460(10) 0.1679(7)
H220 H -0.4707 1.1190 0.1734
C227 C -0.325(2) 0.7058(12) 0.1843(11)
H221 H -0.2851 0.6861 0.1929
H222 H -0.3675 0.6789 0.1843
H223 H -0.3194 0.7396 0.2046
C228 C -0.0672(8) 0.9349(8) 0.1031(4)
C231 C 0.2362(9) 0.9017(8) 0.2479(5)
C233 C -0.3154(12) 1.2886(9) 0.2176(6)
C236 C 0.0243(11) 1.4691(8) 0.2415(5)
C237 C 0.4332(10) 1.1995(8) 0.2681(5)
C238 C 0.2028(9) 1.2542(8) 0.0887(5)
C239 C 0.1217(10) 0.9073(7) 0.3682(5)
C242 C -0.1787(9) 1.3804(7) -0.0347(7)
C253 C 0.3158(18) 1.6447(13) 0.1744(10)
H247 H 0.3576 1.6694 0.1701
H248 H 0.2757 1.6634 0.1646
H249 H 0.3085 1.6071 0.1579
F1 F 0.2296(4) 0.3395(3) 0.2565(2)
F5 F 0.0164(4) 0.3219(3) 0.2872(2)
F7 F 0.2357(4) 0.1412(3) 0.1857(2)
F8 F 0.0989(4) 0.0673(3) 0.3519(2)
F9 F 0.0900(4) -0.0100(3) 0.2280(2)
O5 O -0.1008(5) -0.0893(5) 0.3494(3)
O7 O 0.1527(5) -0.1173(4) 0.1104(3)
O8 O 0.1275(5) 0.5063(4) 0.3752(3)
O12 O -0.0982(6) -0.2408(5) 0.2240(3)
O13 O 0.3718(6) 0.0048(4) 0.0765(3)
N3 N -0.0301(8) 0.3506(5) 0.0833(4)
H2 H -0.0578 0.3219 0.0908
O15 O 0.3663(5) 0.5810(5) 0.3393(3)
O18 O 0.5635(7) 0.2240(6) 0.3704(4)
N4 N 0.0979(7) 0.4136(5) 0.3386(3)
H4 H 0.1153 0.3896 0.3244
O19 O 0.4378(8) 0.3782(5) 0.1969(4)
O20 O 0.4599(5) 0.2145(4) 0.0921(3)
N5 N 0.4174(6) -0.0367(6) 0.3421(3)
H5 H 0.4122 -0.0032 0.3529
N7 N -0.0948(11) 0.4129(6) 0.1061(4)
O22 O -0.1790(10) 0.5604(9) 0.1305(7)
N8 N 0.2091(7) 0.4285(4) 0.3083(4)
N11 N 0.1277(6) -0.0546(5) 0.1591(4)
H7 H 0.1384 -0.0178 0.1688
O26 O 0.0528(9) 0.3708(6) 0.0450(4)
N14 N -0.1518(7) 0.1697(5) 0.1709(5)
O30 O -0.1986(7) 0.3457(5) 0.3895(4)
N15 N 0.2223(6) 0.0313(6) 0.1452(3)
N16 N 0.3412(7) 0.3422(5) 0.2222(4)
H9 H 0.3104 0.3109 0.2222
N20 N 0.4697(8) 0.1636(6) 0.3852(4)
H12 H 0.4487 0.1271 0.3812
N21 N -0.1653(16) 0.4630(6) 0.1261(4)
H13 H -0.1866 0.4288 0.1306
O33 O 0.4779(5) -0.0792(5) 0.2987(3)
N26 N -0.1167(7) 0.1580(5) 0.1087(5)
H15 H -0.0965 0.1945 0.1157
O34 O -0.1257(6) 0.0826(5) 0.0579(3)
C4 C 0.3567(8) -0.1408(7) 0.3228(4)
H21 H 0.3728 -0.1440 0.2974
N29 N 0.3769(9) 0.1845(6) 0.4136(4)
O35 O 0.0296(7) 0.1428(5) 0.5154(4)
N32 N 0.3016(5) -0.1203(5) 0.4407(4)
H23 H 0.2948 -0.0857 0.4480
N33 N -0.1138(8) 0.2722(5) 0.2946(3)
O36 O -0.2690(6) 0.1647(5) 0.2687(3)
N35 N -0.0028(6) -0.0683(5) 0.2684(4)
N36 N 0.1451(10) 0.1412(7) 0.4220(4)
N37 N -0.1796(7) 0.1906(5) 0.2352(5)
H28 H -0.1413 0.2161 0.2386
N41 N 0.3534(6) -0.0814(5) 0.3869(3)
N42 N -0.0443(7) 0.2332(7) 0.0640(4)
N43 N 0.2797(9) 0.1976(6) 0.4399(4)
H31 H 0.2611 0.1660 0.4228
C9 C -0.0822(8) -0.1556(8) 0.2751(5)
H34 H -0.1134 -0.1741 0.2905
N44 N 0.5005(7) 0.0694(7) 0.3418(4)
O37 O 0.2612(6) 0.2606(5) 0.4911(4)
N45 N -0.0188(6) -0.0122(6) 0.3363(3)
H35 H -0.0004 0.0004 0.3154
C11 C 0.2779(9) 0.3890(6) 0.2650(4)
C12 C -0.1757(10) 0.2493(6) 0.2995(5)
C14 C 0.3806(9) 0.4913(7) 0.2821(5)
H38 H 0.4152 0.5253 0.2877
C16 C 0.3371(10) 0.3930(7) 0.2473(5)
C18 C 0.4522(14) 0.2929(7) 0.4538(5)
H39 H 0.4778 0.3291 0.4677
C19 C -0.0342(11) 0.1541(8) 0.0177(6)
H40 H -0.0457 0.1138 0.0091
C20 C -0.1730(11) 0.3196(8) 0.3589(6)
C21 C 0.3635(8) 0.6258(6) 0.3730(6)
H41 H 0.3453 0.6071 0.3962
H42 H 0.3331 0.6528 0.3605
O39 O 0.2961(8) -0.2128(5) 0.4613(3)
C23 C 0.3289(8) 0.1823(6) 0.1554(4)
C24 C -0.0378(9) 0.2266(7) 0.5575(5)
H46 H -0.0434 0.2670 0.5619
H47 H -0.0612 0.2027 0.5761
H48 H -0.0584 0.2122 0.5275
C27 C 0.0420(8) -0.1464(7) 0.1597(4)
H49 H 0.0519 -0.1634 0.1350
C29 C 0.4283(8) 0.2763(6) 0.1454(5)
H51 H 0.4623 0.3087 0.1435
C30 C 0.5079(8) 0.2635(7) 0.0833(5)
H52 H 0.5484 0.2743 0.1080
H53 H 0.4848 0.2975 0.0780
C33 C -0.0782(9) 0.3203(6) 0.3224(4)
C36 C 0.0023(10) 0.4177(6) 0.3783(4)
H58 H 0.0292 0.4497 0.3973
C39 C 0.2179(8) -0.0197(6) 0.1256(4)
C42 C 0.3683(8) 0.1179(7) 0.1076(4)
H63 H 0.3987 0.1134 0.0896
C46 C 0.3857(8) 0.4456(7) 0.2559(5)
H67 H 0.4238 0.4494 0.2428
N48 N 0.3316(7) 0.2360(6) 0.1776(3)
C48 C 0.2711(8) 0.0765(6) 0.1389(4)
C52 C 0.3219(9) 0.4871(7) 0.3010(4)
C53 C -0.2684(10) 0.3225(8) 0.3949(6)
H73 H -0.2709 0.2838 0.4063
H74 H -0.3042 0.3204 0.3678
C54 C 0.3130(10) 0.5341(6) 0.3309(5)
C57 C -0.1050(11) 0.3453(7) 0.3557(5)
C59 C 0.3805(10) 0.2797(7) 0.1738(4)
C60 C 0.4707(10) 0.2368(7) 0.0026(5)
H77 H 0.4867 0.2239 -0.0221
H78 H 0.4547 0.2737 -0.0025
H79 H 0.4324 0.2076 0.0067
C62 C -0.2742(10) 0.3700(14) 0.4283(7)
H80 H -0.2644 0.4098 0.4185
C66 C 0.1278(13) 0.1824(9) 0.4917(5)
H88 H 0.1448 0.2099 0.5159
C67 C 0.3187(9) 0.0113(7) 0.0961(5)
C68 C 0.0299(9) 0.3925(6) 0.3444(5)
C69 C 0.0826(11) 0.1086(7) 0.4180(5)
C70 C 0.3801(9) -0.0542(7) 0.0635(5)
H89 H 0.3405 -0.0723 0.0397
H90 H 0.3814 -0.0787 0.0879
C71 C 0.2175(11) -0.1232(10) 0.5102(6)
H91 H 0.1825 -0.1578 0.4985
H92 H 0.2117 -0.0924 0.4907
H93 H 0.2118 -0.1099 0.5383
C76 C 0.4460(11) -0.0496(10) 0.0493(8)
H97 H 0.4331 -0.0355 0.0202
C77 C -0.0229(8) -0.1539(8) 0.2169(4)
C82 C 0.2545(9) 0.5267(6) 0.3464(4)
H102 H 0.2474 0.5564 0.3651
C83 C 0.3225(8) 0.0694(6) 0.1131(4)
C85 C 0.3720(7) 0.1725(6) 0.1270(4)
C86 C -0.0594(9) 0.1743(8) 0.0497(5)
C87 C 0.2957(8) -0.1815(6) 0.3736(5)
H104 H 0.2678 -0.2133 0.3824
C96 C 0.2897(9) -0.1377(7) 0.5152(5)
C100 C -0.0705(9) -0.1849(7) 0.2400(6)
C102 C 0.5923(10) 0.2977(8) 0.0386(6)
H110 H 0.6100 0.2877 0.0139
H111 H 0.6300 0.3033 0.0646
H112 H 0.5736 0.3335 0.0345
C104 C -0.0215(11) 0.0695(8) 0.4410(5)
H114 H -0.0494 0.0703 0.4610
C107 C -0.0480(9) -0.0986(7) 0.2875(5)
C108 C 0.5390(11) 0.1219(10) 0.3435(5)
C112 C 0.5314(8) 0.2454(7) 0.0435(5)
H123 H 0.5501 0.2086 0.0478
C117 C -0.2406(8) 0.0991(7) 0.1914(6)
H126 H -0.2687 0.0879 0.2107
C119 C -0.2087(9) 0.2739(9) 0.3314(6)
H127 H -0.2546 0.2576 0.3323
C121 C 0.0578(8) -0.0646(6) 0.2114(5)
C125 C 0.3468(14) 0.2194(7) 0.4373(5)
C126 C 0.2685(9) -0.0332(7) 0.1007(4)
H133 H 0.2657 -0.0714 0.0885
C128 C 0.5705(10) 0.0296(11) 0.2989(5)
H134 H 0.5804 -0.0028 0.2842
C129 C 0.6104(10) 0.0856(12) 0.3007(6)
H135 H 0.6476 0.0910 0.2869
C130 C 0.3447(11) -0.0839(9) 0.5334(5)
H136 H 0.3909 -0.0936 0.5364
H137 H 0.3394 -0.0705 0.5615
H138 H 0.3392 -0.0531 0.5139
C131 C 0.3157(8) -0.1873(7) 0.3354(5)
H139 H 0.3014 -0.2229 0.3179
C132 C -0.0534(17) 0.5176(9) 0.1256(6)
H140 H -0.0631 0.5541 0.1339
C134 C -0.1505(13) -0.3415(10) 0.2320(7)
H141 H -0.1825 -0.3449 0.2028
C136 C -0.1880(16) -0.3785(10) 0.2629(7)
H145 H -0.2308 -0.3647 0.2640
H146 H -0.1573 -0.3740 0.2917
H147 H -0.1989 -0.4195 0.2520
C141 C -0.0028(10) 0.0262(8) 0.3734(5)
C142 C 0.2959(14) -0.1888(9) 0.5454(6)
H152 H 0.3423 -0.1985 0.5495
H153 H 0.2611 -0.2230 0.5322
H154 H 0.2883 -0.1768 0.5732
C144 C -0.0329(16) 0.4076(7) 0.0990(4)
C145 C -0.0066(9) -0.1786(7) 0.1804(5)
H156 H -0.0282 -0.2172 0.1694
C146 C 0.2694(9) 0.4361(6) 0.2920(4)
C149 C 0.4592(10) -0.1118(9) 0.0388(7)
H157 H 0.4168 -0.1352 0.0206
H158 H 0.4726 -0.1302 0.0655
H159 H 0.4965 -0.1090 0.0237
C160 C 0.4827(10) 0.2582(10) 0.4286(6)
H168 H 0.5280 0.2703 0.4246
C161 C 0.3900(11) 0.3376(8) 0.1973(6)
C163 C 0.2978(8) -0.1624(9) 0.4701(5)
C164 C 0.0753(8) -0.0892(6) 0.1764(5)
C166 C 0.4214(9) 0.2229(7) 0.1212(5)
C167 C 0.4397(13) 0.2031(7) 0.4096(5)
C168 C 0.4676(9) -0.0367(8) 0.3189(5)
C172 C 0.4408(11) 0.6596(8) 0.3912(6)
H172 H 0.4705 0.6300 0.4002
C173 C 0.2041(8) 0.4743(6) 0.3345(4)
C175 C 0.5963(11) 0.1325(10) 0.3220(6)
H173 H 0.6225 0.1703 0.3228
C176 C -0.0644(10) 0.3934(7) 0.3821(5)
H174 H -0.0826 0.4104 0.4034
C178 C -0.1031(13) 0.4608(14) 0.1182(5)
C179 C 0.3736(8) -0.0883(7) 0.3495(5)
C181 C 0.0178(12) 0.4560(8) 0.1038(5)
H176 H 0.0604 0.4529 0.0968
C182 C 0.0424(11) 0.1090(8) 0.4491(5)
C183 C 0.3160(7) -0.1299(7) 0.3990(5)
C184 C 0.5138(10) 0.0231(8) 0.3202(5)
C187 C -0.0033(12) 0.2707(9) 0.0427(7)
C189 C -0.1340(11) -0.2770(9) 0.2511(5)
H180 H -0.1776 -0.2636 0.2525
H181 H -0.1044 -0.2737 0.2806
C191 C -0.0854(15) -0.3628(11) 0.2287(8)
H182 H -0.0974 -0.4025 0.2150
H183 H -0.0556 -0.3624 0.2575
H184 H -0.0607 -0.3374 0.2116
C192 C 0.4657(12) 0.6898(9) 0.3562(7)
H185 H 0.4648 0.6612 0.3329
H186 H 0.5132 0.7109 0.3675
H187 H 0.4355 0.7173 0.3453
C194 C 0.0757(9) 0.2500(8) 0.6171(5)
H189 H 0.0650 0.2889 0.6206
H190 H 0.1261 0.2526 0.6235
H191 H 0.0565 0.2252 0.6368
C195 C -0.2208(13) 0.3630(12) 0.4719(7)
H192 H -0.1736 0.3709 0.4678
H193 H -0.2311 0.3233 0.4801
H194 H -0.2250 0.3905 0.4945
C196 C 0.0240(10) 0.2521(7) 0.0106(6)
H195 H 0.0526 0.2790 -0.0021
C198 C 0.0088(8) -0.0959(7) 0.2330(4)
C199 C 0.0692(13) 0.1468(9) 0.4857(6)
C200 C 0.0426(11) 0.2231(9) 0.5691(6)
H196 H 0.0648 0.2486 0.5500
C201 C -0.1597(9) 0.1339(8) 0.1368(6)
C206 C 0.0077(13) 0.5081(12) 0.1185(6)
H201 H 0.0455 0.5398 0.1241
C207 C 0.3867(12) 0.2745(9) 0.4581(5)
H202 H 0.3669 0.2980 0.4748
C209 C -0.0110(9) 0.3456(6) 0.3188(4)
C211 C 0.2784(8) 0.1329(6) 0.1594(4)
C212 C 0.2335(16) 0.2149(8) 0.4640(5)
C214 C -0.2149(11) 0.1967(7) 0.2676(5)
C216 C -0.0460(9) 0.0282(7) 0.4039(5)
H209 H -0.0894 0.0029 0.3994
C217 C 0.1386(8) 0.4666(7) 0.3526(4)
C218 C 0.4415(12) 0.6975(9) 0.4323(7)
H210 H 0.4232 0.6728 0.4525
H211 H 0.4126 0.7269 0.4245
H212 H 0.4891 0.7167 0.4458
C222 C 0.0575(11) 0.1667(9) 0.5626(6)
H218 H 0.0362 0.1402 0.5811
H219 H 0.1083 0.1684 0.5710
C223 C 0.1657(10) 0.1773(8) 0.4585(7)
C224 C -0.1028(10) 0.1323(8) 0.0726(6)
C225 C -0.0595(10) -0.0674(8) 0.3279(5)
C229 C -0.1934(9) 0.1514(8) 0.1981(6)
C230 C -0.3478(15) 0.3562(14) 0.4369(11)
H224 H -0.3536 0.3871 0.4564
H225 H -0.3535 0.3191 0.4498
H226 H -0.3827 0.3536 0.4097
C232 C 0.0087(11) 0.1901(9) -0.0041(5)
H227 H 0.0262 0.1751 -0.0264
C234 C 0.1623(8) -0.0694(7) 0.1309(5)
C235 C 0.0572(11) 0.0683(8) 0.3810(5)
C240 C 0.5286(10) 0.1772(11) 0.3672(5)
C241 C -0.2034(11) 0.0802(9) 0.1252(6)
H228 H -0.2053 0.0570 0.0999
C243 C 0.0105(14) 0.3362(11) 0.0585(6)
C244 C 0.5007(15) -0.0099(14) 0.0686(14)
H229 H 0.5380 -0.0107 0.0538
H230 H 0.5167 -0.0181 0.0985
H231 H 0.4879 0.0287 0.0678
C245 C -0.2439(10) 0.0634(7) 0.1538(8)
H232 H -0.2748 0.0271 0.1480
C246 C -0.282(2) 0.4916(10) 0.1333(7)
C247 C -0.2008(16) 0.5020(18) 0.1288(7)
C248 C -0.3055(18) 0.443(2) 0.1553(13)
H233 H -0.2874 0.4090 0.1469
H234 H -0.3563 0.4338 0.1478
H235 H -0.2888 0.4522 0.1863
C249 C -0.3310(14) 0.4748(16) 0.0855(8)
H236 H -0.3172 0.5035 0.0664
H237 H -0.3794 0.4744 0.0862
H238 H -0.3261 0.4362 0.0751
C250 C -0.3118(16) 0.5453(15) 0.1420(14)
H239 H -0.2936 0.5770 0.1264
H240 H -0.2984 0.5571 0.1728
H241 H -0.3624 0.5364 0.1323
Cl10 Cl 0.8470(5) 0.7497(3) 0.0528(3)
Cl11 Cl 0.7953(8) 0.6354(5) 0.0615(5)
Cl12 Cl 0.6972(7) 0.7077(7) 0.0197(4)
C255 C 0.776(2) 0.6929(18) 0.0264(15)
H250 H 0.7835 0.6816 -0.0023
O6 O 0.2585(5) 0.0545(4) 0.3391(3)
O21 O 0.3825(5) 0.0480(4) 0.4099(3)
O38 O 0.9163(9) 0.2889(5) 0.1579(4)
O40 O 0.7902(7) 0.3316(6) 0.1277(4)
C138 C 0.442(3) 0.8304(19) 0.1840(17)
H148 H 0.4670 0.7986 0.1795
H149 H 0.4354 0.8287 0.2135
C155 C 0.5721(15) 0.9128(14) 0.1964(9)
H165 H 0.5935 0.8896 0.1785
H166 H 0.5899 0.9045 0.2265
C215 C 0.6023(14) 0.9795(11) 0.1930(6)
H206 H 0.6519 0.9843 0.1943
H207 H 0.5951 1.0033 0.2168
H208 H 0.5782 0.9919 0.1657
C221 C 0.4938(16) 0.8881(12) 0.1844(9)
H216 H 0.4802 0.8979 0.1544
H217 H 0.4758 0.9159 0.2011
C251 C 0.368(3) 0.813(3) 0.1534(18)
H242 H 0.3497 0.8469 0.1417
H243 H 0.3345 0.7911 0.1682
C252 C 0.383(3) 0.772(3) 0.1173(19)
H244 H 0.3406 0.7587 0.0951
H245 H 0.4008 0.7389 0.1301
H246 H 0.4181 0.7944 0.1045
O42 O 0.584(3) 0.351(3) 0.9301(16)
O43 O 0.455(6) 0.431(4) 0.003(3)
O44 O 0.435(3) 0.508(2) 0.1363(17)
Cl13 Cl 0.1510(4) 0.2181(5) 0.2280(4)
Cl14 Cl 0.1484(14) 0.1279(6) 0.2681(5)
C254 C 0.0912(9) 0.1801(11) 0.2559(10)
Cl15 Cl 0.0053(4) 0.1903(3) 0.2186(2)
O45 O 0.5651(7) 0.4704(5) 0.5421(4)
O46 O 0.456(3) 0.446(3) 0.099(2)
O47 O 0.502(4) 0.570(4) 0.185(3)
O48 O -0.4212(6) 0.4509(5) 0.4557(4)
O49 O 0.6965(7) 0.4542(6) 0.5346(4)
O50 O -0.4190(9) 0.3982(8) 0.2053(6)
O41? O 0.372(3) 0.4295(19) 0.070(2)
Cl16? Cl 0.0176(13) 0.1241(12) 0.2570(9)
loop_
_geom_bond_atom_site_label_1
_geom_bond_atom_site_label_2
_geom_bond_site_symmetry_1
_geom_bond_site_symmetry_2
Cl1 C103 1_555 1_555
Cl2 C40 1_555 1_555
Cl3 C103 1_555 1_555
Cl4 C40 1_555 1_555
Cl5 C204 1_555 1_555
Cl6 C40 1_555 1_555
Cl7 C204 1_555 1_555
Cl8 C103 1_555 1_555
Cl9 C204 1_555 1_555
O1 C239 1_555 1_555
F1 C11 1_555 1_555
O2 C238 1_555 1_555
F2 C219 1_555 1_555
Cl10 C255 1_555 1_555
F3 C41 1_555 1_555
F4 C203 1_555 1_555
F5 C209 1_555 1_555
O3 C236 1_555 1_555
F6 C116 1_555 1_555
F7 C211 1_555 1_555
F8 C235 1_555 1_555
F9 C121 1_555 1_555
F10 C165 1_555 1_555
N1 C137 1_555 1_555
O4 C151 1_555 1_555
O5 C225 1_555 1_555
O7 C234 1_555 1_555
N2 H1 1_555 1_555
O8 C217 1_555 1_555
O9 C190 1_555 1_555
O10 C37 1_555 1_555
O11 C197 1_555 1_555
O12 C100 1_555 1_555
O13 C67 1_555 1_555
N3 H2 1_555 1_555
O14 C139 1_555 1_555
O15 C21 1_555 1_555
Cl11 C255 1_555 1_555
O16 C228 1_555 1_555
C1 H3 1_555 1_555
O17 C8 1_555 1_555
O18 C240 1_555 1_555
N4 H4 1_555 1_555
O19 C161 1_555 1_555
O20 C30 1_555 1_555
N5 H5 1_555 1_555
N6 H6 1_555 1_555
N7 C144 1_555 1_555
O22 C247 1_555 1_555
N8 C146 1_555 1_555
N9 C127 1_555 1_555
O23 C233 1_555 1_555
N10 C99 1_555 1_555
O24 C51 1_555 1_555
N11 H7 1_555 1_555
N12 H8 1_555 1_555
O25 C105 1_555 1_555
N13 C78 1_555 1_555
O26 C243 1_555 1_555
N14 C201 1_555 1_555
O27 C123 1_555 1_555
O28 C237 1_555 1_555
O29 C205 1_555 1_555
O30 C20 1_555 1_555
N15 C39 1_555 1_555
N16 H9 1_555 1_555
N17 C133 1_555 1_555
N18 H10 1_555 1_555
N19 H11 1_555 1_555
O31 C231 1_555 1_555
N20 H12 1_555 1_555
N21 H13 1_555 1_555
N22 C120 1_555 1_555
N23 C25 1_555 1_555
N24 H14 1_555 1_555
O32 C242 1_555 1_555
O33 C168 1_555 1_555
N25 C44 1_555 1_555
N26 H15 1_555 1_555
N27 H16 1_555 1_555
C2 C55 1_555 1_555
C3 H17 1_555 1_555
H18 C3 1_555 1_555
H19 C3 1_555 1_555
O34 C224 1_555 1_555
N28 H20 1_555 1_555
C4 H21 1_555 1_555
N29 C125 1_555 1_555
N30 C159 1_555 1_555
N31 H22 1_555 1_555
O35 C199 1_555 1_555
N32 H23 1_555 1_555
N33 C12 1_555 1_555
C5 H24 1_555 1_555
C6 C1 1_555 1_555
H25 C6 1_555 1_555
H26 C6 1_555 1_555
H27 C6 1_555 1_555
N34 C101 1_555 1_555
O36 C214 1_555 1_555
N35 C107 1_555 1_555
N36 C69 1_555 1_555
N37 H28 1_555 1_555
N38 C140 1_555 1_555
N39 H29 1_555 1_555
C7 C135 1_555 1_555
N40 H30 1_555 1_555
N41 C179 1_555 1_555
N42 C86 1_555 1_555
N43 H31 1_555 1_555
C8 C1 1_555 1_555
H32 C8 1_555 1_555
H33 C8 1_555 1_555
C9 H34 1_555 1_555
N44 C108 1_555 1_555
O37 C212 1_555 1_555
N45 H35 1_555 1_555
C10 H36 1_555 1_555
C11 C16 1_555 1_555
C12 C119 1_555 1_555
C13 H37 1_555 1_555
C14 H38 1_555 1_555
C15 N31 1_555 1_555
C16 N16 1_555 1_555
C17 C37 1_555 1_555
C18 H39 1_555 1_555
N46 C159 1_555 1_555
C19 H40 1_555 1_555
C20 C57 1_555 1_555
N47 C61 1_555 1_555
C21 H41 1_555 1_555
H42 C21 1_555 1_555
O39 C163 1_555 1_555
C22 H43 1_555 1_555
H44 C22 1_555 1_555
H45 C22 1_555 1_555
C23 N48 1_555 1_555
C24 H46 1_555 1_555
H47 C24 1_555 1_555
H48 C24 1_555 1_555
C25 N19 1_555 1_555
C26 N27 1_555 1_555
C27 H49 1_555 1_555
C28 H50 1_555 1_555
C29 H51 1_555 1_555
C30 H52 1_555 1_555
H53 C30 1_555 1_555
C31 H54 1_555 1_555
C32 H55 1_555 1_555
C33 N33 1_555 1_555
C34 H56 1_555 1_555
C35 H57 1_555 1_555
C36 H58 1_555 1_555
C37 C56 1_555 1_555
C38 H59 1_555 1_555
H60 C38 1_555 1_555
H61 C38 1_555 1_555
C39 C126 1_555 1_555
C40 H62 1_555 1_555
C41 C94 1_555 1_555
C42 H63 1_555 1_555
C43 H64 1_555 1_555
C44 C89 1_555 1_555
C45 O10 1_555 1_555
H65 C45 1_555 1_555
H66 C45 1_555 1_555
C46 C14 1_555 1_555
H67 C46 1_555 1_555
N48 C59 1_555 1_555
C47 H68 1_555 1_555
C48 N15 1_555 1_555
C49 H69 1_555 1_555
H70 C49 1_555 1_555
H71 C49 1_555 1_555
C50 C26 1_555 1_555
H72 C50 1_555 1_555
C51 N19 1_555 1_555
C52 C14 1_555 1_555
C53 O30 1_555 1_555
H73 C53 1_555 1_555
H74 C53 1_555 1_555
C54 O15 1_555 1_555
C55 O17 1_555 1_555
C56 H75 1_555 1_555
C57 C33 1_555 1_555
C58 C5 1_555 1_555
H76 C58 1_555 1_555
C59 C29 1_555 1_555
C60 H77 1_555 1_555
H78 C60 1_555 1_555
H79 C60 1_555 1_555
C61 C180 1_555 1_555
C62 C53 1_555 1_555
H80 C62 1_555 1_555
C63 H81 1_555 1_555
H82 C63 1_555 1_555
H83 C63 1_555 1_555
C64 H84 1_555 1_555
H85 C64 1_555 1_555
H86 C64 1_555 1_555
C65 H87 1_555 1_555
C66 H88 1_555 1_555
C67 C83 1_555 1_555
C68 N4 1_555 1_555
C69 C182 1_555 1_555
C70 O13 1_555 1_555
H89 C70 1_555 1_555
H90 C70 1_555 1_555
C71 H91 1_555 1_555
H92 C71 1_555 1_555
H93 C71 1_555 1_555
C72 H94 1_555 1_555
C73 C3 1_555 1_555
C74 H95 1_555 1_555
C75 H96 1_555 1_555
C76 C70 1_555 1_555
H97 C76 1_555 1_555
C77 C100 1_555 1_555
C78 C114 1_555 1_555
C79 C75 1_555 1_555
H98 C79 1_555 1_555
C80 C65 1_555 1_555
H99 C80 1_555 1_555
H100 C80 1_555 1_555
H101 C80 1_555 1_555
C81 C22 1_555 1_555
C82 C54 1_555 1_555
H102 C82 1_555 1_555
C83 C42 1_555 1_555
C84 H103 1_555 1_555
C85 C23 1_555 1_555
C86 C19 1_555 1_555
C87 H104 1_555 1_555
C88 C43 1_555 1_555
C89 H105 1_555 1_555
C90 H106 1_555 1_555
C91 H107 1_555 1_555
C92 C97 1_555 1_555
C93 N13 1_555 1_555
C94 N12 1_555 1_555
C95 C79 1_555 1_555
C96 C71 1_555 1_555
C97 C13 1_555 1_555
H108 C97 1_555 1_555
C98 C17 1_555 1_555
H109 C98 1_555 1_555
C99 C113 1_555 1_555
C100 C9 1_555 1_555
C101 C95 1_555 1_555
C102 H110 1_555 1_555
H111 C102 1_555 1_555
H112 C102 1_555 1_555
C103 H113 1_555 1_555
C104 H114 1_555 1_555
C105 H115 1_555 1_555
H116 C105 1_555 1_555
C106 C47 1_555 1_555
H117 C106 1_555 1_555
C107 C9 1_555 1_555
C108 C175 1_555 1_555
C109 H118 1_555 1_555
H119 C109 1_555 1_555
H120 C109 1_555 1_555
C110 C25 1_555 1_555
H121 C110 1_555 1_555
C111 C2 1_555 1_555
H122 C111 1_555 1_555
C112 C30 1_555 1_555
H123 C112 1_555 1_555
C113 C43 1_555 1_555
C114 H124 1_555 1_555
C115 C72 1_555 1_555
H125 C115 1_555 1_555
C116 C26 1_555 1_555
C117 H126 1_555 1_555
C118 O25 1_555 1_555
C119 C20 1_555 1_555
H127 C119 1_555 1_555
C120 C17 1_555 1_555
C121 C164 1_555 1_555
C122 C81 1_555 1_555
H128 C122 1_555 1_555
H129 C122 1_555 1_555
H130 C122 1_555 1_555
C123 C65 1_555 1_555
H131 C123 1_555 1_555
H132 C123 1_555 1_555
C124 N22 1_555 1_555
C125 N43 1_555 1_555
C126 C67 1_555 1_555
H133 C126 1_555 1_555
C127 C35 1_555 1_555
C128 H134 1_555 1_555
C129 C128 1_555 1_555
H135 C129 1_555 1_555
C130 C96 1_555 1_555
H136 C130 1_555 1_555
H137 C130 1_555 1_555
H138 C130 1_555 1_555
C131 C4 1_555 1_555
H139 C131 1_555 1_555
C132 H140 1_555 1_555
C133 N24 1_555 1_555
C134 H141 1_555 1_555
C135 H142 1_555 1_555
H143 C135 1_555 1_555
H144 C135 1_555 1_555
C136 C134 1_555 1_555
H145 C136 1_555 1_555
H146 C136 1_555 1_555
H147 C136 1_555 1_555
C137 C74 1_555 1_555
C138 H148 1_555 1_555
H149 C138 1_555 1_555
C139 H150 1_555 1_555
H151 C139 1_555 1_555
C140 N6 1_555 1_555
C141 N45 1_555 1_555
C142 C96 1_555 1_555
H152 C142 1_555 1_555
H153 C142 1_555 1_555
H154 C142 1_555 1_555
C143 C10 1_555 1_555
H155 C143 1_555 1_555
C144 N3 1_555 1_555
C145 C27 1_555 1_555
H156 C145 1_555 1_555
C146 C11 1_555 1_555
C147 N34 1_555 1_555
C148 N9 1_555 1_555
C149 C76 1_555 1_555
H157 C149 1_555 1_555
H158 C149 1_555 1_555
H159 C149 1_555 1_555
C150 C65 1_555 1_555
H160 C150 1_555 1_555
H161 C150 1_555 1_555
H162 C150 1_555 1_555
C151 C7 1_555 1_555
H163 C151 1_555 1_555
H164 C151 1_555 1_555
C152 N38 1_555 1_555
C153 C2 1_555 1_555
C154 N18 1_555 1_555
C155 H165 1_555 1_555
H166 C155 1_555 1_555
C156 C64 1_555 1_555
H167 C156 1_555 1_555
C157 O27 1_555 1_555
C158 N25 1_555 1_555
C159 C90 1_555 1_555
C160 C18 1_555 1_555
H168 C160 1_555 1_555
C161 N16 1_555 1_555
C162 C139 1_555 1_555
H169 C162 1_555 1_555
C163 N32 1_555 1_555
C164 N11 1_555 1_555
C165 C99 1_555 1_555
C166 O20 1_555 1_555
C167 N20 1_555 1_555
C168 N5 1_555 1_555
C169 C34 1_555 1_555
H170 C169 1_555 1_555
C170 O4 1_555 1_555
C171 C58 1_555 1_555
H171 C171 1_555 1_555
C172 C21 1_555 1_555
H172 C172 1_555 1_555
C173 N8 1_555 1_555
C174 N28 1_555 1_555
C175 C129 1_555 1_555
H173 C175 1_555 1_555
C176 C36 1_555 1_555
H174 C176 1_555 1_555
C177 N2 1_555 1_555
C178 N7 1_555 1_555
C179 N5 1_555 1_555
C180 C55 1_555 1_555
H175 C180 1_555 1_555
C181 C144 1_555 1_555
H176 C181 1_555 1_555
C182 C104 1_555 1_555
C183 N32 1_555 1_555
C184 N44 1_555 1_555
C185 H177 1_555 1_555
H178 C185 1_555 1_555
H179 C185 1_555 1_555
C186 N1 1_555 1_555
C187 N42 1_555 1_555
C188 N17 1_555 1_555
C189 O12 1_555 1_555
H180 C189 1_555 1_555
H181 C189 1_555 1_555
C190 N24 1_555 1_555
C191 C134 1_555 1_555
H182 C191 1_555 1_555
H183 C191 1_555 1_555
H184 C191 1_555 1_555
C192 C172 1_555 1_555
H185 C192 1_555 1_555
H186 C192 1_555 1_555
H187 C192 1_555 1_555
C193 C45 1_555 1_555
H188 C193 1_555 1_555
C194 H189 1_555 1_555
H190 C194 1_555 1_555
H191 C194 1_555 1_555
C195 C62 1_555 1_555
H192 C195 1_555 1_555
H193 C195 1_555 1_555
H194 C195 1_555 1_555
C196 C187 1_555 1_555
H195 C196 1_555 1_555
C197 N12 1_555 1_555
C198 N35 1_555 1_555
C199 C66 1_555 1_555
C200 C24 1_555 1_555
H196 C200 1_555 1_555
C201 N26 1_555 1_555
C202 C162 1_555 1_555
H197 C202 1_555 1_555
H198 C202 1_555 1_555
H199 C202 1_555 1_555
C203 C15 1_555 1_555
C204 H200 1_555 1_555
C205 N31 1_555 1_555
C206 C132 1_555 1_555
H201 C206 1_555 1_555
C207 C18 1_555 1_555
H202 C207 1_555 1_555
C208 O14 1_555 1_555
C209 C33 1_555 1_555
C210 N10 1_555 1_555
C211 C23 1_555 1_555
C212 N43 1_555 1_555
C213 C7 1_555 1_555
H203 C213 1_555 1_555
H204 C213 1_555 1_555
H205 C213 1_555 1_555
C214 N37 1_555 1_555
C215 C155 1_555 1_555
H206 C215 1_555 1_555
H207 C215 1_555 1_555
H208 C215 1_555 1_555
C216 C104 1_555 1_555
H209 C216 1_555 1_555
C217 N4 1_555 1_555
C218 C172 1_555 1_555
H210 C218 1_555 1_555
H211 C218 1_555 1_555
H212 C218 1_555 1_555
C219 C101 1_555 1_555
C220 C81 1_555 1_555
H213 C220 1_555 1_555
H214 C220 1_555 1_555
H215 C220 1_555 1_555
C221 C138 1_555 1_555
H216 C221 1_555 1_555
H217 C221 1_555 1_555
C222 O35 1_555 1_555
H218 C222 1_555 1_555
H219 C222 1_555 1_555
C223 N36 1_555 1_555
C224 N26 1_555 1_555
C225 N45 1_555 1_555
C226 C28 1_555 1_555
H220 C226 1_555 1_555
C227 C162 1_555 1_555
H221 C227 1_555 1_555
H222 C227 1_555 1_555
H223 C227 1_555 1_555
C228 N2 1_555 1_555
C229 N14 1_555 1_555
C230 C62 1_555 1_555
H224 C230 1_555 1_555
H225 C230 1_555 1_555
H226 C230 1_555 1_555
C231 N39 1_555 1_555
C232 C19 1_555 1_555
H227 C232 1_555 1_555
C233 N30 1_555 1_555
C234 N11 1_555 1_555
C235 C69 1_555 1_555
C236 N28 1_555 1_555
C237 N6 1_555 1_555
C238 N27 1_555 1_555
C239 N18 1_555 1_555
C240 N20 1_555 1_555
C241 C201 1_555 1_555
H228 C241 1_555 1_555
C242 N40 1_555 1_555
C243 N3 1_555 1_555
C244 C76 1_555 1_555
H229 C244 1_555 1_555
H230 C244 1_555 1_555
H231 C244 1_555 1_555
C245 C117 1_555 1_555
H232 C245 1_555 1_555
C246 C247 1_555 1_555
C247 N21 1_555 1_555
C248 C246 1_555 1_555
H233 C248 1_555 1_555
H234 C248 1_555 1_555
H235 C248 1_555 1_555
C249 C246 1_555 1_555
H236 C249 1_555 1_555
H237 C249 1_555 1_555
H238 C249 1_555 1_555
C250 C246 1_555 1_555
H239 C250 1_555 1_555
H240 C250 1_555 1_555
H241 C250 1_555 1_555
C251 C138 1_555 1_555
H242 C251 1_555 1_555
H243 C251 1_555 1_555
Cl12 C255 1_555 1_555
C252 C251 1_555 1_555
H244 C252 1_555 1_555
H245 C252 1_555 1_555
H246 C252 1_555 1_555
C253 C1 1_555 1_555
H247 C253 1_555 1_555
H248 C253 1_555 1_555
H249 C253 1_555 1_555
Cl13 C254 1_555 1_555
Cl14 C254 1_555 1_555
C254 Cl15 1_555 1_555
C255 H250 1_555 1_555
N21 C178 1_555 1_555
N23 C154 1_555 1_555
C4 C179 1_555 1_555
N29 C167 1_555 1_555
C5 C140 1_555 1_555
N37 C229 1_555 1_555
N39 C152 1_555 1_555
N40 C188 1_555 1_555
N41 C183 1_555 1_555
C10 C154 1_555 1_555
C12 C214 1_555 1_555
C13 C15 1_555 1_555
C16 C46 1_555 1_555
N46 C174 1_555 1_555
N47 C153 1_555 1_555
C27 C164 1_555 1_555
C28 C93 1_555 1_555
C29 C166 1_555 1_555
C31 C94 1_555 1_555
C31 C98 1_555 1_555
C32 C147 1_555 1_555
C32 C170 1_555 1_555
C34 C186 1_555 1_555
C35 C208 1_555 1_555
C36 C68 1_555 1_555
C38 C73 1_555 1_555
C39 C234 1_555 1_555
C41 C120 1_555 1_555
C42 C85 1_555 1_555
C44 C237 1_555 1_555
C47 C174 1_555 1_555
C48 C83 1_555 1_555
C48 C211 1_555 1_555
C49 C73 1_555 1_555
C50 C111 1_555 1_555
C51 C73 1_555 1_555
C52 C54 1_555 1_555
C52 C146 1_555 1_555
C56 C124 1_555 1_555
C57 C176 1_555 1_555
C59 C161 1_555 1_555
C60 C112 1_555 1_555
C61 C236 1_555 1_555
C63 C193 1_555 1_555
C66 C223 1_555 1_555
C68 C209 1_555 1_555
C72 C133 1_555 1_555
C74 C169 1_555 1_555
C75 C177 1_555 1_555
C77 C145 1_555 1_555
C77 C198 1_555 1_555
C78 C190 1_555 1_555
C81 C242 1_555 1_555
C82 C173 1_555 1_555
C84 C115 1_555 1_555
C84 C188 1_555 1_555
C85 C166 1_555 1_555
C86 C224 1_555 1_555
C87 C131 1_555 1_555
C87 C183 1_555 1_555
C88 C148 1_555 1_555
C88 C208 1_555 1_555
C89 C157 1_555 1_555
C90 C106 1_555 1_555
C91 C118 1_555 1_555
C91 C210 1_555 1_555
C92 C157 1_555 1_555
C92 C158 1_555 1_555
C93 C233 1_555 1_555
C95 C170 1_555 1_555
C96 C163 1_555 1_555
C102 C112 1_555 1_555
C105 C156 1_555 1_555
C107 C225 1_555 1_555
C108 C240 1_555 1_555
C109 C156 1_555 1_555
C110 C143 1_555 1_555
C113 C118 1_555 1_555
C114 C226 1_555 1_555
C116 C153 1_555 1_555
C117 C229 1_555 1_555
C121 C198 1_555 1_555
C124 C205 1_555 1_555
C125 C207 1_555 1_555
C127 C228 1_555 1_555
C128 C184 1_555 1_555
C132 C178 1_555 1_555
C134 C189 1_555 1_555
C137 C231 1_555 1_555
C141 C216 1_555 1_555
C141 C235 1_555 1_555
C147 C238 1_555 1_555
C148 C165 1_555 1_555
C152 C171 1_555 1_555
C155 C221 1_555 1_555
C158 C203 1_555 1_555
C160 C167 1_555 1_555
C168 C184 1_555 1_555
C173 C217 1_555 1_555
C177 C219 1_555 1_555
C181 C206 1_555 1_555
C182 C199 1_555 1_555
C185 C193 1_555 1_555
C186 C239 1_555 1_555
C187 C243 1_555 1_555
C194 C200 1_555 1_555
C196 C232 1_555 1_555
C197 C210 1_555 1_555
C200 C222 1_555 1_555
C212 C223 1_555 1_555
C241 C245 1_555 1_555

#END
