
#######################################################################
#
#                 Cambridge Crystallographic Data Centre
#                                CCDC 
#
#######################################################################
#
# If this CIF has been generated from an entry in the Cambridge 
# Structural Database, then it will include bibliographic, chemical, 
# crystal, experimental, refinement or atomic coordinate data resulting 
# from the CCDC's data processing and validation procedures.
#
#######################################################################

data_APURIN
_chemical_formula_moiety         
'C45 H58 N4 O5,C178 H169 F9 N32 O26,1.83(C1 H1 Cl3),1.17(C1 H4 O1),17.83(H2 O1)'
_chemical_name_systematic        
"[2]-(bis(4,4-Diphenylbutyl) [carbonylbis(iminopentane-5,1-diyl)]biscarbamate)-(N,N'-bis(2-((2-((2-((2-((6-((6-((6-(t-butylcarbonylamino)pyridin-2-yl)carbamoyl)pyridin-2-yl)carbonylamino)pyridin-2-yl)carbamoyl)-8-fluoro-4-isobutoxyquinolin-7-yl)carbamoyl)-8-fluoro-4-isobutoxyquinolin-7-yl)carbamoyl)-8-fluoro-4-isobutoxyquinolin-7-yl)carbamoyl)-8-fluoro-4-isobutoxyquinolin-7-yl)-10-fluoro-4,6-di-isobutoxypyrido[3,2-g]quinoline-2,8-dicarboxamide)-helical-pseudorotaxane chloroform methanol unknown solvate hydrate"
_symmetry_cell_setting           monoclinic
_symmetry_space_group_name_H-M   'C 2/c'
_symmetry_Int_Tables_number      15
_space_group_name_Hall           '-C 2yn'
loop_
_symmetry_equiv_pos_site_id
_symmetry_equiv_pos_as_xyz
1 x,y,z
2 -x,y,1/2-z
3 1/2+x,1/2+y,z
4 1/2-x,1/2+y,1/2-z
5 -x,-y,-z
6 x,-y,1/2+z
7 1/2-x,1/2-y,-z
8 1/2+x,1/2-y,1/2+z
_cell_length_a                   40.797(8)
_cell_length_b                   32.399(7)
_cell_length_c                   42.089(8)
_cell_angle_alpha                90
_cell_angle_beta                 114.82(3)
_cell_angle_gamma                90
_cell_volume                     50493.8
_cell_formula_units_Z            8
loop_
_atom_site_label
_atom_site_type_symbol
_atom_site_fract_x
_atom_site_fract_y
_atom_site_fract_z
C1 C 0.21699(14) 0.28438(15) 0.99669(15)
C2 C 0.31972(18) 0.50924(18) 0.96474(18)
H1 H 0.3034 0.5100 0.9413
C3 C 0.23255(14) 0.34154(16) 0.96696(15)
C4 C 0.41384(15) 0.35412(16) 1.15893(15)
C5 C 0.21123(14) 0.23048(16) 1.03745(17)
C6 C 0.19487(16) 0.44346(17) 0.97441(17)
C7 C 0.44606(15) 0.29446(17) 1.17453(15)
C8 C 0.38465(15) 0.41985(18) 1.23211(16)
C9 C 0.23764(14) 0.31758(14) 0.99707(14)
C10 C 0.26546(17) 0.25036(15) 1.13008(17)
C11 C 0.14909(16) 0.45198(19) 0.90348(17)
H2 H 0.1339 0.4548 0.8798
C12 C 0.31899(17) 0.56255(15) 1.06924(17)
C13 C 0.44711(16) 0.46268(17) 1.17105(18)
C14 C 0.43531(16) 0.51118(17) 1.1286(2)
C15 C 0.18962(14) 0.27127(16) 0.96397(16)
H3 H 0.1760 0.2478 0.9628
C16 C 0.37820(16) 0.45145(17) 1.20771(16)
C17 C 0.23013(18) 0.53674(18) 0.95499(17)
C18 C 0.34772(18) 0.58051(16) 1.09816(18)
C19 C 0.3056(2) 0.28063(17) 1.18662(18)
C20 C 0.41445(18) 0.27027(19) 1.16158(18)
H4 H 0.4156 0.2416 1.1633
C21 C 0.44001(16) 0.41999(16) 1.18235(17)
C22 C 0.42165(17) 0.49623(19) 1.24971(18)
H5 H 0.4343 0.5210 1.2553
C23 C 0.14416(16) 0.41924(18) 0.92243(17)
C24 C 0.5355(2) 0.2348(2) 1.20643(19)
C25 C 0.41576(15) 0.3973(2) 1.29332(17)
C26 C 0.42827(17) 0.4667(2) 1.27544(19)
H6 H 0.4451 0.4723 1.2981
C27 C 0.18849(19) 0.56154(18) 1.0200(2)
C28 C 0.15638(19) 0.3047(2) 1.0495(2)
C29 C 0.11421(16) 0.39110(18) 0.90720(19)
C30 C 0.35208(18) 0.31583(19) 1.23808(18)
C31 C 0.38765(18) 0.57860(18) 1.15596(18)
C32 C 0.37222(15) 0.35603(18) 1.24870(16)
C33 C 0.3897(2) 0.63744(19) 1.1232(2)
C34 C 0.27007(17) 0.43484(18) 0.94428(16)
C35 C 0.15897(18) 0.54451(17) 0.99173(18)
C36 C 0.18313(17) 0.51508(18) 0.90141(16)
C37 C 0.3069(2) 0.5837(2) 1.1683(2)
C38 C 0.20957(19) 0.54322(19) 0.91959(19)
H7 H 0.2136 0.5661 0.9084
C39 C 0.4029(2) 0.61665(19) 1.1529(2)
H8 H 0.4225 0.6272 1.1721
C40 C 0.20452(19) 0.59867(18) 1.01774(18)
C41 C 0.49462(18) 0.24156(19) 1.18749(17)
C42 C 0.40301(18) 0.55619(18) 1.19005(19)
C43 C 0.2966(3) 0.2470(2) 1.2032(2)
H9 H 0.3061 0.2464 1.2275
C44 C 0.3178(2) 0.6191(2) 1.0322(2)
H10 H 0.3081 0.6319 1.0104
C45 C 0.16325(19) 0.3674(2) 0.84499(16)
H11 H 0.1829 0.3670 0.8378
H12 H 0.1598 0.3955 0.8508
C46 C 0.3031(2) 0.61856(18) 1.1465(2)
C47 C 0.0734(2) 0.3810(2) 1.0053(3)
H13 H 0.0622 0.3827 0.9810
C48 C 0.4496(2) 0.3761(2) 1.35295(18)
H14 H 0.4561 0.3505 1.3451
H15 H 0.4292 0.3708 1.3585
C49 C 0.1022(2) 0.5110(2) 0.9368(2)
H16 H 0.0836 0.4979 0.9183
C50 C 0.34427(19) 0.63808(18) 1.05917(19)
H17 H 0.3522 0.6639 1.0558
C51 C 0.1913(2) 0.6188(2) 0.9850(2)
H18 H 0.2017 0.6435 0.9827
C52 C 0.2043(4) 0.1202(3) 1.1256(3)
H19 H 0.2092 0.1111 1.1061
H20 H 0.1793 0.1291 1.1169
C53 C 0.1818(4) 0.0508(3) 1.1316(4)
H21 H 0.1831 0.0280 1.1467
H22 H 0.1860 0.0412 1.1121
H23 H 0.1583 0.0633 1.1233
C54 C 0.3438(2) 0.53955(19) 0.9794(2)
H24 H 0.3442 0.5619 0.9656
C55 C 0.2745(3) 0.2154(2) 1.1847(2)
H25 H 0.2700 0.1933 1.1964
C56 C 0.1802(2) 0.31923(19) 1.0825(2)
C57 C 0.2347(3) 0.1858(2) 1.1270(2)
C58 C 0.2759(2) 0.65099(18) 1.0934(2)
C59 C 0.4619(2) 0.5378(2) 1.1524(3)
H26 H 0.4663 0.5635 1.1452
C60 C 0.3258(2) 0.6538(2) 1.1626(2)
C61 C 0.25879(18) 0.56832(18) 0.9759(2)
C62 C 0.1460(2) 0.5655(2) 0.9607(2)
C63 C 0.1371(2) 0.2697(2) 1.0471(3)
H27 H 0.1216 0.2601 1.0250
C64 C 0.13179(19) 0.32484(19) 0.9864(2)
C65 C 0.2124(4) 0.0849(3) 1.1535(3)
H28 H 0.2070 0.0953 1.1727
C66 C 0.11592(19) 0.4935(2) 0.9700(2)
C67 C 0.2488(2) 0.64876(19) 1.0569(2)
C68 C 0.0826(3) 0.3487(2) 1.0588(5)
H29 H 0.0776 0.3273 1.0708
C69 C 0.1627(2) 0.6021(2) 0.9559(2)
H30 H 0.1549 0.6146 0.9340
C70 C 0.5435(3) 0.1903(3) 1.2070(3)
H31 H 0.5692 0.1860 1.2186
H32 H 0.5347 0.1802 1.1834
H33 H 0.5319 0.1757 1.2192
C71 C 0.0986(2) 0.4112(2) 1.0248(3)
C72 C 0.5534(3) 0.2579(3) 1.2411(3)
H34 H 0.5461 0.2863 1.2377
H35 H 0.5792 0.2562 1.2495
H36 H 0.5461 0.2457 1.2579
C73 C 0.1624(3) 0.2627(2) 1.1097(3)
C74 C 0.2973(3) 0.6877(2) 1.1071(3)
H37 H 0.2944 0.7107 1.0930
C75 C 0.0559(2) 0.3794(3) 0.8613(3)
H38 H 0.0579 0.3504 0.8567
H39 H 0.0464 0.3813 0.8789
C76 C 0.4806(2) 0.5250(2) 1.1858(3)
H40 H 0.4979 0.5420 1.2021
C77 C 0.0983(2) 0.4547(2) 0.9751(3)
C78 C 0.11553(19) 0.5467(2) 0.9313(2)
C79 C 0.1835(2) 0.2988(2) 1.1126(2)
C80 C 0.2755(3) 0.3709(3) 1.2338(3)
C81 C 0.1154(3) 0.3836(3) 0.7860(2)
H41 H 0.0931 0.3743 0.7676
H42 H 0.1332 0.3871 0.7769
H43 H 0.1114 0.4094 0.7950
C82 C 0.3519(3) 0.6164(3) 1.2177(2)
H44 H 0.3678 0.6161 1.2413
C83 C 0.48048(19) 0.3914(2) 1.38432(18)
H45 H 0.4731 0.4180 1.3903
C84 C 0.4876(2) 0.3625(4) 1.4154(2)
H46 H 0.5071 0.3733 1.4359
H47 H 0.4940 0.3356 1.4102
H48 H 0.4663 0.3605 1.4196
C85 C 0.3584(2) 0.4859(3) 1.3030(2)
H49 H 0.3744 0.5038 1.3196
C86 C 0.3401(2) 0.4961(3) 1.2659(2)
C87 C 0.4317(3) 0.6930(3) 1.1449(3)
H50 H 0.4263 0.6975 1.1650
H51 H 0.4523 0.6746 1.1519
C88 C 0.3258(2) 0.4210(3) 1.2863(2)
C89 C 0.1659(3) 0.5508(3) 0.8465(2)
H52 H 0.1910 0.5527 0.8504
H53 H 0.1590 0.5766 0.8536
C90 C 0.0658(3) 0.3505(3) 1.0214(4)
H54 H 0.0496 0.3301 1.0086
C91 C 0.5128(2) 0.3995(3) 1.3778(2)
H55 H 0.5317 0.4104 1.3986
H56 H 0.5069 0.4193 1.3592
H57 H 0.5207 0.3743 1.3713
C92 C 0.3212(3) 0.6879(2) 1.1401(3)
C93 C 0.3305(2) 0.5824(2) 1.2026(2)
C94 C 0.2848(2) 0.4092(2) 1.2267(2)
C95 C 0.1329(3) 0.3100(3) 0.8047(2)
H58 H 0.1104 0.3011 0.7866
H59 H 0.1400 0.2914 0.8242
H60 H 0.1511 0.3102 0.7959
C96 C 0.1288(2) 0.3511(3) 0.81591(19)
H61 H 0.1106 0.3495 0.8253
C97 C 0.3495(3) 0.6515(2) 1.1972(3)
H62 H 0.3645 0.6739 1.2075
C98 C 0.3101(2) 0.4360(3) 1.2528(2)
C99 C 0.3161(3) 0.3807(4) 1.2942(3)
H63 H 0.3267 0.3709 1.3170
C100 C 0.3487(3) 0.5392(3) 1.2556(2)
C101 C 0.3411(4) 0.7564(2) 1.1357(3)
H64 H 0.3163 0.7659 1.1247
H65 H 0.3490 0.7501 1.1175
C102 C 0.5511(3) 0.2580(4) 1.1835(4)
H66 H 0.5451 0.2868 1.1825
H67 H 0.5409 0.2467 1.1603
H68 H 0.5768 0.2549 1.1935
C103 C 0.2086(3) 0.2942(3) 1.1724(3)
N1 N 0.1894(3) 0.5990(4) 1.1372(4)
C104 C 0.1073(3) 0.3807(3) 1.0770(3)
C105 C 0.1905(4) 0.2580(3) 1.1729(3)
H69 H 0.1933 0.2459 1.1939
C106 C 0.0745(3) 0.5506(3) 0.8705(2)
H70 H 0.0550 0.5434 0.8768
H71 H 0.0822 0.5257 0.8627
C107 C 0.2513(4) 0.5417(9) 1.2320(4)
H72 H 0.2634 0.5273 1.2528
C108 C 0.3500(3) 0.4467(4) 1.3115(2)
C109 C 0.1389(6) 0.5866(5) 0.7909(3)
H73 H 0.1281 0.6058 0.8010
H74 H 0.1237 0.5837 0.7663
H75 H 0.1622 0.5965 0.7940
C110 C 0.0297(3) 0.4485(3) 0.8378(4)
H76 H 0.0234 0.4518 0.8573
H77 H 0.0118 0.4616 0.8175
H78 H 0.0528 0.4609 0.8434
C111 C 0.1587(4) 0.5065(5) 0.7973(3)
H79 H 0.1439 0.5012 0.7730
H80 H 0.1592 0.4825 0.8109
H81 H 0.1828 0.5131 0.8004
C112 C 0.1692(5) 0.2412(4) 1.1424(4)
C113 C 0.1432(3) 0.5429(4) 0.8096(3)
H82 H 0.1193 0.5347 0.8076
C114 C 0.1395(3) 0.2485(3) 1.0754(3)
H83 H 0.1261 0.2245 1.0727
C115 C 0.2926(3) 0.3578(4) 1.2694(3)
H84 H 0.2869 0.3320 1.2752
C116 C 0.0296(7) 0.5617(6) 0.8109(4)
H85 H 0.0215 0.5806 0.7915
H86 H 0.0102 0.5565 0.8177
H87 H 0.0370 0.5363 0.8042
C117 C 0.2531(5) 0.0645(4) 1.1704(4)
H88 H 0.2706 0.0855 1.1824
H89 H 0.2584 0.0530 1.1520
H90 H 0.2542 0.0431 1.1865
C118 C 0.0316(3) 0.3993(4) 0.8299(3)
H91 H 0.0075 0.3879 0.8243
C119 C 0.0478(4) 0.6225(6) 0.8568(6)
H92 H 0.0394 0.6431 0.8387
H93 H 0.0673 0.6335 0.8771
H94 H 0.0284 0.6147 0.8627
C120 C 0.1484(4) 0.6210(3) 1.0652(4)
H95 H 0.1278 0.6319 1.0457
H96 H 0.1417 0.5958 1.0730
H97 H 0.1675 0.6156 1.0581
C121 C 0.1541(7) 0.3399(5) 1.2018(5)
H98 H 0.1409 0.3155 1.1958
C122 C 0.1316(5) 0.6611(6) 1.1056(5)
H99 H 0.1105 0.6701 1.0856
H100 H 0.1391 0.6825 1.1230
H101 H 0.1260 0.6366 1.1152
C123 C 0.1896(4) 0.4163(6) 1.2183(4)
C124 C 0.1612(5) 0.6522(3) 1.0948(4)
C125 C 0.2348(4) 0.3120(3) 1.2084(3)
C126 C 0.4400(5) 0.7323(5) 1.1328(5)
H102 H 0.4177 0.7486 1.1251
C127 C 0.4463(7) 0.7273(9) 1.1041(6)
H103 H 0.4516 0.7536 1.0968
H104 H 0.4254 0.7156 1.0856
H105 H 0.4666 0.7092 1.1094
C128 C 0.0621(3) 0.5810(3) 0.8423(3)
H106 H 0.0815 0.5884 0.8355
C129 C 0.2101(6) 0.5807(5) 1.1670(6)
C130 C 0.1517(4) 0.3707(5) 1.1765(4)
C131 C 0.1725(7) 0.6917(4) 1.0763(6)
H107 H 0.1518 0.7004 1.0559
H108 H 0.1913 0.6834 1.0697
H109 H 0.1808 0.7141 1.0927
C132 C 0.2437(5) 0.5998(5) 1.1962(5)
H110 H 0.2520 0.6257 1.1934
C133 C 0.4665(6) 0.7551(5) 1.1612(5)
H111 H 0.4563 0.7641 1.1768
H112 H 0.4740 0.7787 1.1521
H113 H 0.4870 0.7378 1.1736
C134 C 0.1415(6) 0.1860(6) 1.1632(5)
H114 H 0.1648 0.1776 1.1809
H115 H 0.1271 0.1613 1.1538
C135 C 0.3643(6) 0.7885(5) 1.1592(5)
H116 H 0.3892 0.7782 1.1693
C136 C 0.2175(6) 0.5248(5) 1.2002(6)
C137 C 0.3899(4) 0.4578(4) 1.3729(3)
H117 H 0.3798 0.4849 1.3727
H118 H 0.4124 0.4608 1.3706
C138 C 0.36635(16) 0.50457(16) 1.03408(17)
C139 C 0.24768(15) 0.39679(16) 0.94133(16)
C140 C 0.22056(17) 0.38687(19) 0.90862(16)
H119 H 0.2170 0.4030 0.8892
C141 C 0.19895(16) 0.35266(18) 0.90534(16)
C142 C 0.3538(8) 0.7997(5) 1.1909(6)
H120 H 0.3705 0.8197 1.2058
H121 H 0.3548 0.7752 1.2041
H122 H 0.3298 0.8109 1.1817
C143 C 0.2122(8) 0.4595(8) 1.2293(8)
C144 C 0.1267(4) 0.3569(5) 1.1379(4)
C145 C 0.1958(7) 0.3873(7) 1.2458(5)
H123 H 0.2111 0.3935 1.2689
C146 C 0.1781(6) 0.3492(7) 1.2367(5)
H124 H 0.1822 0.3296 1.2540
C147 C 0.3626(8) 0.8280(5) 1.1358(6)
H125 H 0.3771 0.8497 1.1505
H126 H 0.3380 0.8372 1.1240
H127 H 0.3715 0.8208 1.1188
C148 C 0.39651(16) 0.3612(2) 1.28339(17)
H128 H 0.3997 0.3405 1.2997
C149 C 0.28920(16) 0.28062(16) 1.15086(16)
C150 C 0.39632(15) 0.48923(17) 1.21576(17)
C151 C 0.2588(2) 0.21667(19) 1.14842(19)
C152 C 0.20489(14) 0.32847(16) 0.93483(14)
C153 C 0.41449(17) 0.52524(17) 1.09159(19)
C154 C 0.47395(18) 0.4870(2) 1.1953(2)
H129 H 0.4873 0.4774 1.2179
C155 C 0.16726(16) 0.41466(17) 0.95920(16)
C156 C 0.18352(15) 0.29323(17) 0.93437(16)
H130 H 0.1650 0.2851 0.9133
C157 C 0.22722(15) 0.22435(15) 1.07675(17)
C158 C 0.20020(15) 0.47692(16) 0.95565(16)
C159 C 0.36014(18) 0.61946(17) 1.09251(19)
C160 C 0.38076(15) 0.33307(18) 1.14532(16)
H131 H 0.3588 0.3470 1.1359
C161 C 0.30449(17) 0.58024(16) 1.03610(18)
C162 C 0.3683(2) 0.53853(18) 1.0147(2)
H132 H 0.3851 0.5595 1.0247
C163 C 0.38266(17) 0.28989(19) 1.14663(18)
H133 H 0.3615 0.2745 1.1370
C164 C 0.32041(18) 0.47563(17) 0.98706(18)
C165 C 0.3961(6) 0.4343(6) 1.4073(3)
H134 H 0.4118 0.4107 1.4092
C166 C 0.2608(7) 0.5785(5) 1.2260(7)
H135 H 0.2809 0.5908 1.2437
C167 C 0.21783(19) 0.19087(18) 1.09087(19)
H136 H 0.2007 0.1720 1.0767
C168 C 0.41030(15) 0.42857(19) 1.26835(17)
C169 C 0.17658(16) 0.48042(17) 0.91977(16)
C170 C 0.13616(16) 0.35798(17) 0.96357(19)
C171 C 0.11115(17) 0.35996(18) 0.9284(2)
H137 H 0.0927 0.3406 0.9194
N2 N 0.11012(17) 0.44440(16) 1.01019(19)
H138 H 0.1264 0.4601 1.0248
N3 N 0.1152(2) 0.41132(17) 1.0593(2)
N4 N 0.48188(13) 0.27865(14) 1.19171(13)
H139 H 0.4974 0.2949 1.2067
N5 N 0.44590(12) 0.33489(13) 1.17367(12)
N6 N 0.41551(12) 0.39714(14) 1.15649(13)
H140 H 0.4005 0.4093 1.1380
N7 N 0.42792(13) 0.47469(14) 1.13817(15)
N8 N 0.38875(14) 0.49846(13) 1.06957(15)
H141 H 0.3862 0.4755 1.0786
N9 N 0.34301(13) 0.47362(13) 1.01991(14)
N10 N 0.29699(13) 0.44188(14) 0.97562(13)
H142 H 0.3004 0.4229 0.9910
N11 N 0.25422(12) 0.37476(13) 0.97060(12)
N12 N 0.22436(12) 0.26570(12) 1.02920(12)
H143 H 0.2398 0.2787 1.0470
N13 N 0.25047(11) 0.25393(12) 1.09513(13)
N14 N 0.32875(15) 0.31376(15) 1.20441(13)
H144 H 0.3276 0.3352 1.1920
N15 N 0.36569(12) 0.38375(13) 1.22314(12)
N16 N 0.38779(14) 0.51765(13) 1.18829(14)
H145 H 0.3714 0.5103 1.1683
N17 N 0.36103(14) 0.56031(13) 1.12942(15)
N18 N 0.27670(15) 0.55877(14) 1.00974(15)
H146 H 0.2702 0.5362 1.0162
N19 N 0.22660(14) 0.50529(13) 0.97325(13)
N20 N 0.16314(14) 0.38404(14) 0.97929(14)
N21 N 0.15514(14) 0.32970(15) 1.02095(16)
H147 H 0.1704 0.3496 1.0259
N22 N 0.2072(2) 0.31479(19) 1.1445(2)
N23 N 0.2504(2) 0.3478(2) 1.2062(2)
H148 H 0.2442 0.3577 1.1855
N24 N 0.31774(19) 0.4729(2) 1.24184(16)
N25 N 0.33101(19) 0.54615(18) 1.22199(16)
H149 H 0.3179 0.5260 1.2099
N26 N 0.27903(17) 0.61756(14) 1.11311(16)
N27 N 0.23321(16) 0.61161(15) 1.04834(16)
H150 H 0.2423 0.5929 1.0641
N28 N 0.14330(15) 0.50946(15) 0.99761(16)
N29 N 0.1266(3) 0.3853(2) 1.1136(3)
H151 H 0.1391 0.4074 1.1211
N30 N 0.1690(3) 0.4070(3) 1.1838(4)
N31 N 0.2035(3) 0.4837(4) 1.2002(2)
H152 H 0.1886 0.4738 1.1805
N32 N 0.2003(3) 0.5440(4) 1.1720(3)
O1 O 0.40086(17) 0.67491(14) 1.11642(16)
O2 O 0.42096(14) 0.55878(13) 1.08173(15)
O3 O 0.10942(13) 0.29707(14) 0.97448(15)
O4 O 0.47426(13) 0.21445(13) 1.16836(15)
O5 O 0.2293(2) 0.15367(16) 1.14536(15)
O6 O 0.16112(13) 0.51653(14) 0.86725(12)
O7 O 0.09120(13) 0.39828(13) 0.87452(13)
O8 O 0.26393(14) 0.59893(14) 0.96173(13)
O9 O 0.24114(17) 0.67894(14) 1.03635(16)
O10 O 0.07521(15) 0.43688(14) 0.95026(17)
O11 O 0.45788(11) 0.40885(12) 1.21179(12)
O12 O 0.26239(14) 0.45693(14) 0.91821(12)
O13 O 0.17122(11) 0.34054(13) 0.87477(10)
O14 O 0.18932(11) 0.20700(11) 1.01663(11)
O15 O 0.35649(13) 0.28830(14) 1.26037(13)
O16 O 0.43989(12) 0.40734(14) 1.32534(11)
O17 O 0.42673(14) 0.57122(13) 1.21600(14)
O18 O 0.1463(4) 0.2074(3) 1.1356(2)
O19 O 0.2399(3) 0.2929(3) 1.2352(2)
O20 O 0.3655(2) 0.4332(3) 1.34587(19)
O21 O 0.3684(2) 0.56309(19) 1.27768(17)
O22 O 0.3435(2) 0.72054(17) 1.15618(19)
O23 O 0.10452(15) 0.56761(16) 0.90067(15)
O24 O 0.1119(3) 0.3216(3) 1.1310(3)
O25 O 0.2308(4) 0.4625(6) 1.2584(3)
F1 F 0.26400(7) 0.32959(8) 1.02814(7)
F2 F 0.29630(8) 0.31368(8) 1.13409(8)
F3 F 0.35348(9) 0.44506(9) 1.17476(8)
F4 F 0.30572(9) 0.52652(9) 1.07369(9)
F5 F 0.21706(9) 0.44004(9) 1.00840(9)
F6 F 0.19951(10) 0.35434(10) 1.08518(10)
F7 F 0.26931(15) 0.42273(12) 1.19316(11)
F8 F 0.28623(11) 0.55063(10) 1.15377(10)
F9 F 0.20191(11) 0.54192(10) 1.05150(11)
O26 O 0.2204(3) 0.6592(3) 1.1413(4)
C172 C 0.0388(4) 0.3932(7) 0.7999(4)
H153 H 0.0213 0.4080 0.7804
H154 H 0.0374 0.3644 0.7944
H155 H 0.0626 0.4033 0.8047
C173 C 0.1927(6) 0.6372(4) 1.1257(5)
C174 C 0.1227(8) 0.2135(9) 1.1796(7)
H156 H 0.1414 0.2348 1.1892
C175 C 0.3626(6) 0.4174(10) 1.4131(6)
H157 H 0.3483 0.3997 1.3939
H158 H 0.3480 0.4401 1.4143
H159 H 0.3710 0.4020 1.4346
C176 C 0.4189(10) 0.4666(8) 1.4351(4)
H160 H 0.4293 0.4539 1.4578
H161 H 0.4037 0.4891 1.4353
H162 H 0.4378 0.4768 1.4293
C177 C 0.1340(14) 0.1862(15) 1.2123(11)
H163 H 0.1177 0.1905 1.2230
H164 H 0.1581 0.1933 1.2285
H165 H 0.1333 0.1578 1.2057
C178 C 0.0893(18) 0.242(2) 1.1629(19)
H166 H 0.0808 0.2497 1.1803
H167 H 0.0705 0.2285 1.1439
H168 H 0.0961 0.2671 1.1545
C179 C 0.3395(2) 0.39714(18) 0.06054(17)
C180 C 0.3747(2) 0.3567(2) 0.03679(17)
H169 H 0.3916 0.3795 0.0425
H170 H 0.3702 0.3473 0.0134
C181 C 0.0259(2) 0.5650(2) -0.0068(3)
H171 H 0.0065 0.5703 0.0006
C182 C 0.0085(2) 0.5502(3) -0.0434(3)
C183 C 0.2284(2) 0.4513(2) 0.0948(2)
H172 H 0.2351 0.4739 0.0836
H173 H 0.2112 0.4340 0.0766
C184 C 0.2115(3) 0.4677(3) 0.1166(3)
H174 H 0.2282 0.4863 0.1339
H175 H 0.2060 0.4453 0.1288
C185 C 0.0184(2) 0.5136(2) -0.0553(3)
H176 H 0.0359 0.4966 -0.0392
C186 C 0.3922(2) 0.3217(2) 0.0626(2)
H177 H 0.4023 0.3325 0.0863
H178 H 0.3740 0.3014 0.0607
C187 C 0.0440(2) 0.6062(3) -0.0061(3)
C188 C 0.2953(2) 0.43038(19) 0.0774(2)
H179 H 0.2777 0.4509 0.0638
H180 H 0.3161 0.4447 0.0946
C189 C 0.2625(2) 0.4256(3) 0.1172(2)
H181 H 0.2562 0.4055 0.1307
H182 H 0.2806 0.4439 0.1336
C190 C 0.0513(2) 0.5333(2) 0.0190(2)
H183 H 0.0723 0.5297 0.0140
H184 H 0.0390 0.5069 0.0152
C191 C 0.0644(2) 0.5456(3) 0.0585(2)
H185 H 0.0772 0.5717 0.0626
H186 H 0.0435 0.5494 0.0637
C192 C 0.0372(3) 0.6404(3) 0.0099(3)
H187 H 0.0218 0.6378 0.0210
C193 C 0.0882(2) 0.5142(3) 0.0822(2)
H188 H 0.0917 0.5197 0.1060
H189 H 0.0774 0.4871 0.0755
C194 C 0.2792(2) 0.4029(2) 0.0955(2)
H190 H 0.2978 0.3844 0.1109
H191 H 0.2607 0.3861 0.0781
C195 C 0.4656(3) 0.2441(3) 0.0738(3)
H192 H 0.4851 0.2620 0.0749
H193 H 0.4530 0.2344 0.0499
C196 C 0.4408(2) 0.2674(2) 0.0833(2)
H194 H 0.4540 0.2801 0.1060
H195 H 0.4230 0.2488 0.0851
C197 C -0.0221(3) 0.5274(3) -0.1141(3)
H196 H -0.0309 0.5201 -0.1376
C198 C 0.5791(3) 0.1088(4) 0.1551(3)
H197 H 0.5955 0.1030 0.1443
H198 H 0.5746 0.1382 0.1528
C199 C 0.4210(2) 0.3017(2) 0.0556(2)
H199 H 0.4384 0.3223 0.0560
H200 H 0.4106 0.2894 0.0324
C200 C 0.0529(3) 0.6785(3) 0.0097(4)
H201 H 0.0485 0.7009 0.0212
C201 C 0.5449(2) 0.0886(3) 0.1332(3)
H202 H 0.5313 0.0846 0.1472
H203 H 0.5501 0.0615 0.1267
C202 C -0.0344(3) 0.5621(3) -0.1049(3)
H204 H -0.0527 0.5778 -0.1214
C203 C 0.5211(3) 0.1117(3) 0.1000(3)
H205 H 0.5348 0.1190 0.0868
H206 H 0.5008 0.0947 0.0854
C204 C 0.0747(4) 0.6829(3) -0.0073(4)
H207 H 0.0830 0.7089 -0.0096
C205 C -0.0188(3) 0.5734(3) -0.0701(3)
H208 H -0.0267 0.5976 -0.0637
C206 C 0.0035(2) 0.5022(3) -0.0891(3)
H209 H 0.0102 0.4775 -0.0959
C207 C 0.1482(2) 0.4904(3) 0.1018(3)
C208 C 0.0687(3) 0.6101(3) -0.0213(3)
H210 H 0.0742 0.5870 -0.0313
C209 C 0.4957(3) 0.1785(3) 0.0865(3)
C210 C 0.0851(3) 0.6474(3) -0.0217(4)
H211 H 0.1021 0.6495 -0.0310
C211 C 0.6121(2) 0.0298(3) 0.18495(19)
H212 H 0.6255 0.0418 0.1741
C212 C 0.6102(3) -0.0129(3) 0.1867(2)
H213 H 0.6222 -0.0295 0.1770
C213 C 0.5902(3) -0.0308(3) 0.2028(3)
H214 H 0.5889 -0.0594 0.2040
C214 C 0.5722(2) -0.0060(5) 0.2173(2)
H215 H 0.5588 -0.0180 0.2281
C215 C 0.5741(2) 0.0367(4) 0.2156(2)
H216 H 0.5621 0.0533 0.2253
C216 C 0.5941(2) 0.0546(2) 0.1994(2)
C217 C 0.5977(4) 0.1011(6) 0.1897(4)
H217 H 0.5837 0.1161 0.2000
C218 C 0.6375(3) 0.1661(3) 0.2007(2)
H218 H 0.6164 0.1796 0.1861
C219 C 0.6697(4) 0.1879(3) 0.2161(3)
H219 H 0.6702 0.2160 0.2119
C220 C 0.7012(3) 0.1677(3) 0.2379(3)
H220 H 0.7228 0.1822 0.2482
C221 C 0.7005(2) 0.1256(3) 0.2442(3)
H221 H 0.7216 0.1121 0.2588
C222 C 0.6683(3) 0.1038(3) 0.2288(3)
H222 H 0.6678 0.0757 0.2330
C223 C 0.6368(2) 0.1241(3) 0.2070(2)
N33 N 0.48081(18) 0.20885(18) 0.09679(19)
H223 H 0.4801 0.2078 0.1169
N34 N 0.17731(19) 0.4905(2) 0.09460(19)
H224 H 0.1764 0.5042 0.0767
N35 N 0.30611(16) 0.40734(18) 0.05510(18)
H225 H 0.2892 0.3989 0.0358
N36 N 0.34209(15) 0.37112(16) 0.03658(15)
H226 H 0.3223 0.3628 0.0200
O27 O 0.12303(14) 0.51527(15) 0.07986(15)
O28 O 0.50853(17) 0.14838(17) 0.11083(15)
O29 O 0.4977(2) 0.1767(2) 0.0577(2)
O30 O 0.14539(19) 0.4719(2) 0.12528(18)
O31 O 0.36798(12) 0.41275(12) 0.08430(11)
Cl1 Cl 0.7287(2) 0.4408(3) 0.1380(5)
Cl2 Cl 0.7677(4) 0.3649(6) 0.1366(6)
Cl3 Cl 0.6894(5) 0.3651(7) 0.1068(3)
C224 C 0.7247(4) 0.3921(7) 0.1117(5)
H227 H 0.7233 0.3996 0.0886
O32 O 0.52197(12) 0.35516(14) 0.22335(14)
O33 O 0.6463(2) 0.2227(3) 0.9566(3)
O34 O 0.3745(2) 0.2834(4) 0.3449(4)
O35 O 0.0423(5) 0.0289(8) 0.1387(4)
O36 O 0.2142(6) 0.9804(6) 0.1794(5)
O37 O 0.9905(6) 0.6771(7) 0.9021(6)
O38 O 0.4268(9) 0.4466(10) 0.0021(9)
O39 O 0.4132(8) 0.6449(9) 0.0113(7)
C225 C 0.4417(11) 0.6177(11) 0.0162(9)
O40 O 0.0807(7) 0.0868(8) 0.1290(7)
O41 O 0.3854(9) 0.3012(10) 0.4022(9)
O42 O 0.1623(8) 0.2412(9) 0.2510(7)
O43 O 0.3788(7) 0.4050(8) 0.9595(7)
O44 O 0.0263(9) 0.2356(10) 0.0213(9)
O45 O 0.70957(16) 0.27231(18) 0.98208(15)
O46 O 0.7117(3) 0.2418(3) 0.1957(2)
O47 O 0.2271(2) 0.1905(3) 0.2571(2)
O48 O 0.6526(3) 0.2768(3) 1.0061(3)
O49 O 0.4320(2) 0.2463(3) 0.4026(2)
O50 O 0.2136(4) 0.2214(4) 0.2792(3)
Cl4? Cl 0.0352(3) 0.1322(3) 1.1987(3)
Cl5? Cl 0.0446(2) 0.1952(3) 1.2498(2)
Cl6? Cl 0.0000 0.1275(3) 1.2500
C226? C 0.0357(4) 0.1436(4) 1.2404(4)
H228? H 0.0569 0.1292 1.2574
loop_
_geom_bond_atom_site_label_1
_geom_bond_atom_site_label_2
_geom_bond_site_symmetry_1
_geom_bond_site_symmetry_2
C1 C9 1_555 1_555
C2 H1 1_555 1_555
C3 C9 1_555 1_555
C4 C160 1_555 1_555
C5 C157 1_555 1_555
C6 C155 1_555 1_555
C7 C20 1_555 1_555
C8 C16 1_555 1_555
C9 F1 1_555 1_555
C10 C149 1_555 1_555
C11 H2 1_555 1_555
C12 C18 1_555 1_555
C13 C21 1_555 1_555
C14 C59 1_555 1_555
C15 C1 1_555 1_555
H3 C15 1_555 1_555
C16 C150 1_555 1_555
C17 C38 1_555 1_555
C18 C159 1_555 1_555
C19 C43 1_555 1_555
C20 H4 1_555 1_555
C21 N6 1_555 1_555
C22 H5 1_555 1_555
C23 C11 1_555 1_555
C24 C41 1_555 1_555
C25 C148 1_555 1_555
C26 C22 1_555 1_555
H6 C26 1_555 1_555
C27 C35 1_555 1_555
C28 C56 1_555 1_555
C29 C23 1_555 1_555
C30 C32 1_555 1_555
C31 C39 1_555 1_555
C32 C148 1_555 1_555
C33 C39 1_555 1_555
C34 C139 1_555 1_555
C35 C62 1_555 1_555
C36 C38 1_555 1_555
C37 C46 1_555 1_555
C38 H7 1_555 1_555
C39 H8 1_555 1_555
C40 C27 1_555 1_555
C41 N4 1_555 1_555
C42 C31 1_555 1_555
C43 H9 1_555 1_555
C44 H10 1_555 1_555
C45 H11 1_555 1_555
H12 C45 1_555 1_555
C46 C60 1_555 1_555
C47 H13 1_555 1_555
C48 H14 1_555 1_555
H15 C48 1_555 1_555
C49 H16 1_555 1_555
C50 C44 1_555 1_555
H17 C50 1_555 1_555
C51 C40 1_555 1_555
H18 C51 1_555 1_555
C52 H19 1_555 1_555
H20 C52 1_555 1_555
C53 H21 1_555 1_555
H22 C53 1_555 1_555
H23 C53 1_555 1_555
C54 C2 1_555 1_555
H24 C54 1_555 1_555
C55 C43 1_555 1_555
H25 C55 1_555 1_555
C56 C79 1_555 1_555
C57 C151 1_555 1_555
C58 C67 1_555 1_555
C59 H26 1_555 1_555
C60 C92 1_555 1_555
C61 C17 1_555 1_555
C62 C69 1_555 1_555
C63 C28 1_555 1_555
H27 C63 1_555 1_555
C64 C170 1_555 1_555
C65 C52 1_555 1_555
H28 C65 1_555 1_555
C66 C49 1_555 1_555
C67 N27 1_555 1_555
C68 H29 1_555 1_555
C69 C51 1_555 1_555
H30 C69 1_555 1_555
C70 C24 1_555 1_555
H31 C70 1_555 1_555
H32 C70 1_555 1_555
H33 C70 1_555 1_555
C71 C47 1_555 1_555
C72 C24 1_555 1_555
H34 C72 1_555 1_555
H35 C72 1_555 1_555
H36 C72 1_555 1_555
C73 C79 1_555 1_555
C74 C58 1_555 1_555
H37 C74 1_555 1_555
C75 H38 1_555 1_555
H39 C75 1_555 1_555
C76 C59 1_555 1_555
H40 C76 1_555 1_555
C77 C66 1_555 1_555
C78 C49 1_555 1_555
C79 N22 1_555 1_555
C80 C94 1_555 1_555
C81 H41 1_555 1_555
H42 C81 1_555 1_555
H43 C81 1_555 1_555
C82 H44 1_555 1_555
C83 C48 1_555 1_555
H45 C83 1_555 1_555
C84 C83 1_555 1_555
H46 C84 1_555 1_555
H47 C84 1_555 1_555
H48 C84 1_555 1_555
C85 H49 1_555 1_555
C86 C85 1_555 1_555
C87 H50 1_555 1_555
H51 C87 1_555 1_555
C88 C98 1_555 1_555
C89 H52 1_555 1_555
H53 C89 1_555 1_555
C90 C47 1_555 1_555
H54 C90 1_555 1_555
C91 C83 1_555 1_555
H55 C91 1_555 1_555
H56 C91 1_555 1_555
H57 C91 1_555 1_555
C92 C74 1_555 1_555
C93 C37 1_555 1_555
C94 C98 1_555 1_555
C95 H58 1_555 1_555
H59 C95 1_555 1_555
H60 C95 1_555 1_555
C96 C45 1_555 1_555
H61 C96 1_555 1_555
C97 C60 1_555 1_555
H62 C97 1_555 1_555
C98 N24 1_555 1_555
C99 C88 1_555 1_555
H63 C99 1_555 1_555
C100 C86 1_555 1_555
C101 H64 1_555 1_555
H65 C101 1_555 1_555
C102 C24 1_555 1_555
H66 C102 1_555 1_555
H67 C102 1_555 1_555
H68 C102 1_555 1_555
C103 C105 1_555 1_555
N1 C129 1_555 1_555
C104 C68 1_555 1_555
C105 H69 1_555 1_555
C106 H70 1_555 1_555
H71 C106 1_555 1_555
C107 H72 1_555 1_555
C108 C85 1_555 1_555
C109 H73 1_555 1_555
H74 C109 1_555 1_555
H75 C109 1_555 1_555
C110 H76 1_555 1_555
H77 C110 1_555 1_555
H78 C110 1_555 1_555
C111 H79 1_555 1_555
H80 C111 1_555 1_555
H81 C111 1_555 1_555
C112 C73 1_555 1_555
C113 C89 1_555 1_555
H82 C113 1_555 1_555
C114 C63 1_555 1_555
H83 C114 1_555 1_555
C115 C80 1_555 1_555
H84 C115 1_555 1_555
C116 H85 1_555 1_555
H86 C116 1_555 1_555
H87 C116 1_555 1_555
C117 C65 1_555 1_555
H88 C117 1_555 1_555
H89 C117 1_555 1_555
H90 C117 1_555 1_555
C118 C75 1_555 1_555
H91 C118 1_555 1_555
C119 H92 1_555 1_555
H93 C119 1_555 1_555
H94 C119 1_555 1_555
C120 H95 1_555 1_555
H96 C120 1_555 1_555
H97 C120 1_555 1_555
C121 H98 1_555 1_555
C122 H99 1_555 1_555
H100 C122 1_555 1_555
H101 C122 1_555 1_555
C123 C143 1_555 1_555
C124 C120 1_555 1_555
C125 C103 1_555 1_555
C126 C87 1_555 1_555
H102 C126 1_555 1_555
C127 C126 1_555 1_555
H103 C127 1_555 1_555
H104 C127 1_555 1_555
H105 C127 1_555 1_555
C128 C106 1_555 1_555
H106 C128 1_555 1_555
C129 C132 1_555 1_555
C130 C121 1_555 1_555
C131 C124 1_555 1_555
H107 C131 1_555 1_555
H108 C131 1_555 1_555
H109 C131 1_555 1_555
C132 H110 1_555 1_555
C133 C126 1_555 1_555
H111 C133 1_555 1_555
H112 C133 1_555 1_555
H113 C133 1_555 1_555
C134 H114 1_555 1_555
H115 C134 1_555 1_555
C135 C101 1_555 1_555
H116 C135 1_555 1_555
C136 C107 1_555 1_555
C137 H117 1_555 1_555
H118 C137 1_555 1_555
C138 C162 1_555 1_555
C139 C140 1_555 1_555
C140 H119 1_555 1_555
C141 C140 1_555 1_555
C142 C135 1_555 1_555
H120 C142 1_555 1_555
H121 C142 1_555 1_555
H122 C142 1_555 1_555
C143 N31 1_555 1_555
C144 C130 1_555 1_555
C145 C123 1_555 1_555
H123 C145 1_555 1_555
C146 C121 1_555 1_555
H124 C146 1_555 1_555
C147 C135 1_555 1_555
H125 C147 1_555 1_555
H126 C147 1_555 1_555
H127 C147 1_555 1_555
C148 H128 1_555 1_555
C149 C19 1_555 1_555
C150 C22 1_555 1_555
C151 C10 1_555 1_555
C152 C3 1_555 1_555
C153 C14 1_555 1_555
C154 C13 1_555 1_555
H129 C154 1_555 1_555
C155 C23 1_555 1_555
C156 C15 1_555 1_555
H130 C156 1_555 1_555
C157 C167 1_555 1_555
C158 C6 1_555 1_555
C159 C33 1_555 1_555
C160 H131 1_555 1_555
C161 C12 1_555 1_555
C162 C54 1_555 1_555
H132 C162 1_555 1_555
C163 C20 1_555 1_555
H133 C163 1_555 1_555
C164 C2 1_555 1_555
C165 C137 1_555 1_555
H134 C165 1_555 1_555
C166 C107 1_555 1_555
H135 C166 1_555 1_555
C167 C57 1_555 1_555
H136 C167 1_555 1_555
C168 C8 1_555 1_555
C169 C11 1_555 1_555
C170 C171 1_555 1_555
C171 C29 1_555 1_555
H137 C171 1_555 1_555
N2 C71 1_555 1_555
H138 N2 1_555 1_555
N3 C71 1_555 1_555
N4 C7 1_555 1_555
H139 N4 1_555 1_555
N5 C4 1_555 1_555
N6 C4 1_555 1_555
H140 N6 1_555 1_555
N7 C13 1_555 1_555
N8 C138 1_555 1_555
H141 N8 1_555 1_555
N9 C138 1_555 1_555
N10 C34 1_555 1_555
H142 N10 1_555 1_555
N11 C3 1_555 1_555
N12 C1 1_555 1_555
H143 N12 1_555 1_555
N13 C10 1_555 1_555
N14 C19 1_555 1_555
H144 N14 1_555 1_555
N15 C8 1_555 1_555
N16 C42 1_555 1_555
H145 N16 1_555 1_555
N17 C18 1_555 1_555
N18 C61 1_555 1_555
H146 N18 1_555 1_555
N19 C17 1_555 1_555
N20 C155 1_555 1_555
N21 C28 1_555 1_555
H147 N21 1_555 1_555
N22 C103 1_555 1_555
N23 C80 1_555 1_555
H148 N23 1_555 1_555
N24 C86 1_555 1_555
N25 C93 1_555 1_555
H149 N25 1_555 1_555
N26 C46 1_555 1_555
N27 C40 1_555 1_555
H150 N27 1_555 1_555
N28 C35 1_555 1_555
N29 C104 1_555 1_555
H151 N29 1_555 1_555
N30 C123 1_555 1_555
N31 C136 1_555 1_555
H152 N31 1_555 1_555
N32 C129 1_555 1_555
O1 C33 1_555 1_555
O2 C153 1_555 1_555
O3 C64 1_555 1_555
O4 C41 1_555 1_555
O5 C52 1_555 1_555
O6 C36 1_555 1_555
O7 C29 1_555 1_555
O8 C61 1_555 1_555
O9 C67 1_555 1_555
O10 C77 1_555 1_555
O11 C21 1_555 1_555
O12 C34 1_555 1_555
O13 C45 1_555 1_555
O14 C5 1_555 1_555
O15 C30 1_555 1_555
O16 C25 1_555 1_555
O17 C42 1_555 1_555
O18 C112 1_555 1_555
O19 C125 1_555 1_555
O20 C108 1_555 1_555
O21 C100 1_555 1_555
O22 C92 1_555 1_555
O23 C78 1_555 1_555
O24 C144 1_555 1_555
O25 C143 1_555 1_555
F2 C149 1_555 1_555
F3 C16 1_555 1_555
F4 C12 1_555 1_555
F5 C6 1_555 1_555
F6 C56 1_555 1_555
F7 C94 1_555 1_555
F8 C37 1_555 1_555
F9 C27 1_555 1_555
O26 C173 1_555 1_555
C172 C118 1_555 1_555
H153 C172 1_555 1_555
H154 C172 1_555 1_555
H155 C172 1_555 1_555
C173 N1 1_555 1_555
C174 C134 1_555 1_555
H156 C174 1_555 1_555
C175 C165 1_555 1_555
H157 C175 1_555 1_555
H158 C175 1_555 1_555
H159 C175 1_555 1_555
C176 C165 1_555 1_555
H160 C176 1_555 1_555
H161 C176 1_555 1_555
H162 C176 1_555 1_555
C177 C174 1_555 1_555
H163 C177 1_555 1_555
H164 C177 1_555 1_555
H165 C177 1_555 1_555
C178 C174 1_555 1_555
H166 C178 1_555 1_555
H167 C178 1_555 1_555
H168 C178 1_555 1_555
C179 N35 1_555 1_555
C180 H169 1_555 1_555
H170 C180 1_555 1_555
C181 H171 1_555 1_555
C182 C181 1_555 1_555
C183 H172 1_555 1_555
H173 C183 1_555 1_555
C184 C183 1_555 1_555
H174 C184 1_555 1_555
H175 C184 1_555 1_555
C185 C182 1_555 1_555
H176 C185 1_555 1_555
C186 C180 1_555 1_555
H177 C186 1_555 1_555
H178 C186 1_555 1_555
C187 C181 1_555 1_555
C188 H179 1_555 1_555
H180 C188 1_555 1_555
C189 C183 1_555 1_555
H181 C189 1_555 1_555
H182 C189 1_555 1_555
C190 C181 1_555 1_555
H183 C190 1_555 1_555
H184 C190 1_555 1_555
C191 C190 1_555 1_555
H185 C191 1_555 1_555
H186 C191 1_555 1_555
C192 C187 1_555 1_555
H187 C192 1_555 1_555
C193 C191 1_555 1_555
H188 C193 1_555 1_555
H189 C193 1_555 1_555
C194 C188 1_555 1_555
H190 C194 1_555 1_555
H191 C194 1_555 1_555
C195 H192 1_555 1_555
H193 C195 1_555 1_555
C196 C195 1_555 1_555
H194 C196 1_555 1_555
H195 C196 1_555 1_555
C197 H196 1_555 1_555
C198 H197 1_555 1_555
H198 C198 1_555 1_555
C199 C186 1_555 1_555
H199 C199 1_555 1_555
H200 C199 1_555 1_555
C200 C192 1_555 1_555
H201 C200 1_555 1_555
C201 C198 1_555 1_555
H202 C201 1_555 1_555
H203 C201 1_555 1_555
C202 C197 1_555 1_555
H204 C202 1_555 1_555
C203 C201 1_555 1_555
H205 C203 1_555 1_555
H206 C203 1_555 1_555
C204 C200 1_555 1_555
H207 C204 1_555 1_555
C205 C182 1_555 1_555
H208 C205 1_555 1_555
C206 C185 1_555 1_555
H209 C206 1_555 1_555
C207 N34 1_555 1_555
C208 C187 1_555 1_555
H210 C208 1_555 1_555
C209 N33 1_555 1_555
C210 C204 1_555 1_555
H211 C210 1_555 1_555
C211 H212 1_555 1_555
C212 C211 1_555 1_555
H213 C212 1_555 1_555
C213 C212 1_555 1_555
H214 C213 1_555 1_555
C214 C213 1_555 1_555
H215 C214 1_555 1_555
C215 C214 1_555 1_555
H216 C215 1_555 1_555
C216 C211 1_555 1_555
C217 C198 1_555 1_555
H217 C217 1_555 1_555
C218 H218 1_555 1_555
C219 C218 1_555 1_555
H219 C219 1_555 1_555
C220 C219 1_555 1_555
H220 C220 1_555 1_555
C221 C220 1_555 1_555
H221 C221 1_555 1_555
C222 C221 1_555 1_555
H222 C222 1_555 1_555
C223 C217 1_555 1_555
N33 C195 1_555 1_555
H223 N33 1_555 1_555
N34 C184 1_555 1_555
H224 N34 1_555 1_555
N35 C188 1_555 1_555
H225 N35 1_555 1_555
N36 C179 1_555 1_555
H226 N36 1_555 1_555
O27 C193 1_555 1_555
O28 C203 1_555 1_555
O29 C209 1_555 1_555
O30 C207 1_555 1_555
O31 C179 1_555 1_555
Cl1 C224 1_555 1_555
Cl2 C224 1_555 1_555
Cl3 C224 1_555 1_555
C224 H227 1_555 1_555
O39 C225 1_555 1_555
C5 N12 1_555 1_555
C7 N5 1_555 1_555
C14 N7 1_555 1_555
C25 C168 1_555 1_555
C26 C168 1_555 1_555
C30 N14 1_555 1_555
C31 N17 1_555 1_555
C32 N15 1_555 1_555
C36 C169 1_555 1_555
C44 C161 1_555 1_555
C48 O16 1_555 1_555
C50 C159 1_555 1_555
C53 C65 1_555 1_555
C55 C151 1_555 1_555
C57 O5 1_555 1_555
C58 N26 1_555 1_555
C62 C78 1_555 1_555
C64 N21 1_555 1_555
C66 N28 1_555 1_555
C68 C90 1_555 1_555
C73 C114 1_555 1_555
C75 O7 1_555 1_555
C76 C154 1_555 1_555
C77 N2 1_555 1_555
C81 C96 1_555 1_555
C82 C93 1_555 1_555
C82 C97 1_555 1_555
C87 O1 1_555 1_555
C88 C108 1_555 1_555
C89 O6 1_555 1_555
C95 C96 1_555 1_555
C99 C115 1_555 1_555
C100 N25 1_555 1_555
C101 O22 1_555 1_555
C104 N3 1_555 1_555
C105 C112 1_555 1_555
C106 O23 1_555 1_555
C109 C113 1_555 1_555
C110 C118 1_555 1_555
C111 C113 1_555 1_555
C116 C128 1_555 1_555
C119 C128 1_555 1_555
C122 C124 1_555 1_555
C124 C173 1_555 1_555
C125 N23 1_555 1_555
C130 N30 1_555 1_555
C132 C166 1_555 1_555
C134 O18 1_555 1_555
C136 N32 1_555 1_555
C137 O20 1_555 1_555
C139 N11 1_555 1_555
C141 C152 1_555 1_555
C141 O13 1_555 1_555
C144 N29 1_555 1_555
C145 C146 1_555 1_555
C150 N16 1_555 1_555
C152 C156 1_555 1_555
C153 N8 1_555 1_555
C157 N13 1_555 1_555
C158 C169 1_555 1_555
C158 N19 1_555 1_555
C160 C163 1_555 1_555
C161 N18 1_555 1_555
C164 N9 1_555 1_555
C164 N10 1_555 1_555
C170 N20 1_555 1_555
C180 N36 1_555 1_555
C189 C194 1_555 1_555
C196 C199 1_555 1_555
C197 C206 1_555 1_555
C202 C205 1_555 1_555
C207 O27 1_555 1_555
C208 C210 1_555 1_555
C209 O28 1_555 1_555
C215 C216 1_555 1_555
C216 C217 1_555 1_555
C218 C223 1_555 1_555
C222 C223 1_555 1_555

#END
