
#######################################################################
#
#                 Cambridge Crystallographic Data Centre
#                                CCDC 
#
#######################################################################
#
# If this CIF has been generated from an entry in the Cambridge 
# Structural Database, then it will include bibliographic, chemical, 
# crystal, experimental, refinement or atomic coordinate data resulting 
# from the CCDC's data processing and validation procedures.
#
#######################################################################

data_APURUZ
_chemical_formula_moiety         'C94 H91 F3 N20 O14,C1 H1 Cl3,H2 O1'
_chemical_name_systematic        
"N,N'-bis(2-((6-(((6-((6-(t-Butylcarbonylamino)pyridin-2-yl)carbamoyl)pyridin-2-yl)carbonyl)amino)pyridin-2-yl)carbamoyl)-8-fluoro-4-isobutoxyquinolin-7-yl)-10-fluoro-4,6-diisobutoxypyrido[3,2-g]quinoline-2,8-dicarboxamide chloroform solvate monohydrate"
_symmetry_cell_setting           monoclinic
_symmetry_space_group_name_H-M   'C 2/c'
_symmetry_Int_Tables_number      15
_space_group_name_Hall           '-C 2yn'
loop_
_symmetry_equiv_pos_site_id
_symmetry_equiv_pos_as_xyz
1 x,y,z
2 -x,y,1/2-z
3 1/2+x,1/2+y,z
4 1/2-x,1/2+y,1/2-z
5 -x,-y,-z
6 x,-y,1/2+z
7 1/2-x,1/2-y,-z
8 1/2+x,1/2-y,1/2+z
_cell_length_a                   35.415(7)
_cell_length_b                   22.130(4)
_cell_length_c                   25.416(5)
_cell_angle_alpha                90
_cell_angle_beta                 111.62(3)
_cell_angle_gamma                90
_cell_volume                     18518
_cell_formula_units_Z            8
loop_
_atom_site_label
_atom_site_type_symbol
_atom_site_fract_x
_atom_site_fract_y
_atom_site_fract_z
Cl1 Cl 0.65451(8) 0.06923(13) 0.06611(13)
Cl2 Cl 0.70606(11) 0.05507(17) 0.18052(14)
Cl3 Cl 0.64982(13) 0.15426(17) 0.14722(16)
C77 C 0.6585(3) 0.0798(5) 0.1351(4)
H52 H 0.6378 0.0549 0.1417
F1 F 0.46235(12) 0.0747(2) 0.69295(17)
F2 F 0.45071(12) 0.24554(17) 0.79854(17)
F3 F 0.54452(11) 0.39525(19) 0.79604(17)
O1 O 0.35575(16) 0.3741(2) 0.9149(2)
N1 N 0.48775(19) 0.4437(3) 0.8299(2)
H1 H 0.4878 0.4064 0.8203
O2 O 0.61365(16) 0.6426(3) 0.8157(2)
O3 O 0.32574(16) 0.1595(2) 0.8855(2)
N2 N 0.44044(18) 0.3551(3) 0.8367(2)
C1 C 0.4177(2) 0.3076(4) 0.8431(3)
N3 N 0.6061(2) 0.4570(3) 0.7824(3)
C2 C 0.5470(3) 0.4551(3) 0.8073(3)
N4 N 0.68515(19) 0.2996(4) 0.7689(3)
N5 N 0.4024(2) 0.3249(3) 0.5967(3)
C3 C 0.4229(2) 0.2510(4) 0.8232(3)
O4 O 0.38212(17) -0.0073(3) 0.7968(2)
N6 N 0.40880(18) 0.1462(3) 0.8052(2)
C4 C 0.5790(2) 0.4868(4) 0.7995(3)
O5 O 0.30490(16) 0.2467(3) 0.6083(2)
N7 N 0.3412(2) 0.3315(3) 0.6091(3)
H2 H 0.3402 0.3702 0.6058
N8 N 0.4939(2) -0.0056(3) 0.6401(3)
N9 N 0.41833(18) 0.0447(3) 0.7549(3)
H3 H 0.4249 0.0810 0.7495
C5 C 0.3735(2) 0.2056(4) 0.8548(3)
C6 C 0.3523(2) 0.1531(4) 0.8591(3)
N10 N 0.46199(18) 0.3192(3) 0.5780(3)
H4 H 0.4809 0.2946 0.5782
C7 C 0.6883(2) 0.3540(4) 0.7493(4)
N11 N 0.70517(19) 0.2009(4) 0.7871(3)
H5 H 0.6932 0.2021 0.8109
N12 N 0.64411(19) 0.1281(3) 0.9110(3)
H6 H 0.6564 0.1551 0.8988
O6 O 0.45255(17) 0.5108(3) 0.8632(3)
O7 O 0.5524(2) -0.0641(3) 0.5655(3)
C8 C 0.4719(2) -0.0266(4) 0.6698(3)
N13 N 0.6852(2) 0.1061(3) 0.8402(3)
O8 O 0.68861(18) 0.4856(2) 0.7402(3)
C9 C 0.4323(2) -0.0009(4) 0.7282(3)
C10 C 0.5806(2) 0.5491(4) 0.8098(3)
C11 C 0.4016(2) 0.1996(4) 0.8267(3)
O9 O 0.43737(19) 0.4128(3) 0.5451(2)
C12 C 0.5180(2) 0.4810(4) 0.8234(3)
C13 C 0.3881(2) 0.3121(4) 0.8688(3)
N14 N 0.54411(19) 0.1247(4) 0.5436(3)
C14 C 0.4555(2) 0.0164(4) 0.6972(3)
N15 N 0.66229(19) 0.3972(3) 0.7582(3)
H7 H 0.6424 0.3833 0.7661
N16 N 0.53308(19) 0.0324(4) 0.5748(3)
H8 H 0.5199 0.0531 0.5911
N17 N 0.5124(2) 0.3232(3) 0.5211(3)
C15 C 0.4387(3) 0.2987(4) 0.6078(4)
C16 C 0.7121(2) 0.3677(4) 0.7186(3)
H9 H 0.7121 0.4061 0.7037
C17 C 0.3883(2) 0.0997(4) 0.8119(3)
N18 N 0.6350(2) 0.1979(4) 0.9726(3)
C18 C 0.6744(3) 0.0600(4) 0.8635(4)
C19 C 0.6349(2) 0.4912(4) 0.7748(3)
C20 C 0.6647(3) 0.4586(4) 0.7556(3)
N19 N 0.5499(2) 0.2195(4) 0.5145(3)
H10 H 0.5322 0.2260 0.5295
C21 C 0.4250(2) -0.0624(4) 0.7337(4)
H11 H 0.4096 -0.0742 0.7546
C22 C 0.6135(3) 0.5833(4) 0.8036(3)
C23 C 0.3962(2) 0.0396(4) 0.7874(3)
N20 N 0.6318(2) 0.2710(3) 1.0342(3)
H12 H 0.6549 0.2811 1.0327
C24 C 0.4051(2) 0.4189(4) 0.8813(3)
H13 H 0.4015 0.4576 0.8931
C25 C 0.4332(2) 0.4083(4) 0.8552(3)
C26 C 0.3829(2) 0.3707(4) 0.8890(3)
O10 O 0.73773(18) 0.1361(3) 0.7470(3)
O11 O 0.5883(2) 0.2687(3) 0.4742(3)
C27 C 0.3598(2) 0.0988(4) 0.8387(3)
H14 H 0.3469 0.0634 0.8423
C28 C 0.5612(3) 0.1594(5) 0.5152(4)
C29 C 0.3672(2) 0.2618(4) 0.8742(3)
H15 H 0.3483 0.2655 0.8914
O12 O 0.4775(2) -0.1894(3) 0.6628(3)
C30 C 0.5204(2) 0.5436(4) 0.8329(3)
H16 H 0.5009 0.5624 0.8436
C31 C 0.4897(3) 0.3726(5) 0.5191(4)
C32 C 0.5507(3) 0.5775(4) 0.8268(3)
H17 H 0.5518 0.6188 0.8337
C33 C 0.7077(3) 0.0951(5) 0.8086(4)
C34 C 0.4604(3) 0.3695(5) 0.5493(4)
C35 C 0.7190(3) 0.1458(5) 0.7779(4)
C36 C 0.4524(3) 0.2514(4) 0.6448(4)
H18 H 0.4772 0.2331 0.6504
C37 C 0.5517(3) 0.0655(5) 0.5433(4)
C38 C 0.5392(3) 0.3253(5) 0.4954(4)
C39 C 0.3918(3) 0.2576(4) 0.6638(4)
H19 H 0.3754 0.2452 0.6832
C40 C 0.4284(3) 0.2315(4) 0.6737(3)
H20 H 0.4373 0.2002 0.6998
C41 C 0.7087(3) 0.2563(4) 0.7612(4)
C42 C 0.6392(3) 0.5538(4) 0.7850(3)
H21 H 0.6600 0.5748 0.7788
C43 C 0.6201(3) 0.1472(4) 0.9417(4)
C44 C 0.3065(3) 0.3018(5) 0.5998(3)
C45 C 0.7351(3) 0.2639(5) 0.7333(4)
H22 H 0.7514 0.2325 0.7297
C46 C 0.4842(3) -0.1301(4) 0.6538(4)
O13 O 0.5843(2) 0.3000(3) 1.0677(3)
C47 C 0.4589(2) 0.4603(4) 0.8495(3)
C48 C 0.5337(3) -0.0278(5) 0.5821(4)
C49 C 0.3797(3) 0.3031(4) 0.6242(4)
C50 C 0.4643(3) -0.0884(4) 0.6776(4)
C51 C 0.2664(3) 0.3384(4) 0.5739(4)
C52 C 0.6130(3) 0.2194(4) 1.0018(4)
C53 C 0.5449(3) 0.3779(5) 0.4696(4)
H23 H 0.5650 0.3792 0.4542
C54 C 0.3470(3) 0.4313(4) 0.9332(4)
H24 H 0.3354 0.4581 0.9011
H25 H 0.3717 0.4495 0.9594
C55 C 0.5856(3) 0.1185(4) 0.9395(4)
H26 H 0.5767 0.0837 0.9179
C56 C 0.5218(3) 0.4273(5) 0.4666(4)
H27 H 0.5254 0.4621 0.4485
O14 O 0.6336(2) 0.0272(3) 0.9146(3)
C57 C 0.3041(3) 0.1069(4) 0.8922(4)
H28 H 0.3227 0.0784 0.9179
H29 H 0.2908 0.0872 0.8560
C58 C 0.5066(3) -0.1094(4) 0.6228(4)
H30 H 0.5193 -0.1360 0.6063
C59 C 0.7362(3) 0.3212(5) 0.7107(4)
H31 H 0.7529 0.3284 0.6904
C60 C 0.6481(3) 0.3543(4) 1.1039(4)
C61 C 0.5776(3) 0.1937(5) 1.0019(4)
H32 H 0.5635 0.2106 1.0227
C62 C 0.5870(3) 0.1379(5) 0.4874(4)
H33 H 0.5993 0.1636 0.4695
C63 C 0.6399(3) 0.7428(4) 0.8267(5)
H34 H 0.6133 0.7557 0.7998
C64 C 0.6460(3) 0.6780(4) 0.8120(4)
H35 H 0.6462 0.6760 0.7740
H36 H 0.6718 0.6629 0.8382
C65 C 0.5093(2) -0.0475(4) 0.6176(3)
C66 C 0.4402(3) -0.1042(4) 0.7090(4)
H37 H 0.4347 -0.1448 0.7126
C67 C 0.5759(2) 0.0392(4) 0.5162(4)
H38 H 0.5803 -0.0022 0.5170
C68 C 0.5922(3) 0.0773(6) 0.4890(4)
H39 H 0.6080 0.0610 0.4702
C69 C 0.5619(3) 0.2699(5) 0.4943(4)
C70 C 0.2724(4) 0.1290(6) 0.9165(6)
H40 H 0.2542 0.1587 0.8909
C71 C 0.4930(3) 0.4251(4) 0.4907(4)
H41 H 0.4761 0.4580 0.4882
C72 C 0.2331(3) 0.3080(4) 0.5855(4)
H42 H 0.2298 0.2677 0.5705
H43 H 0.2084 0.3302 0.5679
H44 H 0.2396 0.3064 0.6256
C73 C 0.6486(3) 0.0690(5) 0.8998(4)
C74 C 0.7189(3) 0.0360(5) 0.8001(4)
H45 H 0.7346 0.0294 0.7784
C75 C 0.2579(3) 0.3450(5) 0.5101(4)
H46 H 0.2557 0.3057 0.4933
H47 H 0.2797 0.3668 0.5050
H48 H 0.2329 0.3667 0.4923
C76 C 0.6229(3) 0.4090(4) 1.1111(4)
H49 H 0.6066 0.4246 1.0745
H50 H 0.6410 0.4400 1.1327
H51 H 0.6056 0.3962 1.1305
C78 C 0.6664(2) 0.3213(4) 1.1623(3)
H53 H 0.6452 0.3123 1.1760
H54 H 0.6862 0.3470 1.1889
H55 H 0.6792 0.2844 1.1578
C79 C 0.7066(3) -0.0113(5) 0.8238(5)
H56 H 0.7134 -0.0506 0.8178
C80 C 0.5640(3) 0.1424(4) 0.9703(4)
H57 H 0.5403 0.1237 0.9696
C81 C 0.6181(3) 0.3069(4) 1.0674(4)
C82 C 0.6842(3) -0.0008(5) 0.8564(4)
H58 H 0.6757 -0.0324 0.8735
C83 C 0.6712(3) 0.7840(5) 0.8179(5)
H59 H 0.6657 0.8251 0.8249
H60 H 0.6700 0.7802 0.7797
H61 H 0.6978 0.7729 0.8437
C84 C 0.4907(4) -0.2386(4) 0.6378(5)
H62 H 0.4912 -0.2239 0.6021
H63 H 0.4693 -0.2688 0.6285
C85 C 0.2717(3) 0.4018(4) 0.5973(4)
H64 H 0.2472 0.4243 0.5792
H65 H 0.2937 0.4211 0.5902
H66 H 0.2778 0.4004 0.6373
C86 C 0.3174(4) 0.4209(5) 0.9618(6)
H67 H 0.3092 0.4607 0.9707
C87 C 0.6817(3) 0.3752(4) 1.0854(4)
H68 H 0.7012 0.3433 1.0911
H69 H 0.6948 0.4098 1.1072
H70 H 0.6706 0.3857 1.0460
C88 C 0.6387(4) 0.7493(5) 0.8847(5)
H71 H 0.6193 0.7213 0.8891
H72 H 0.6308 0.7898 0.8897
H73 H 0.6651 0.7410 0.9126
C89 C 0.2480(4) 0.0691(6) 0.9176(6)
H74 H 0.2652 0.0419 0.9456
H75 H 0.2392 0.0500 0.8811
H76 H 0.2247 0.0790 0.9267
C90 C 0.3382(4) 0.3871(5) 1.0190(6)
H77 H 0.3246 0.3971 1.0443
H78 H 0.3661 0.3990 1.0355
H79 H 0.3366 0.3443 1.0123
C91 C 0.2915(5) 0.1542(8) 0.9711(8)
H80 H 0.2990 0.1225 0.9988
H81 H 0.2731 0.1815 0.9789
H82 H 0.3154 0.1759 0.9726
C92 C 0.5308(6) -0.2725(12) 0.6670(8)
H83 H 0.5346 -0.3033 0.6417
C93 C 0.2816(5) 0.3892(13) 0.9310(8)
H84 H 0.2885 0.3502 0.9207
H85 H 0.2665 0.4115 0.8974
H86 H 0.2655 0.3844 0.9539
C94 C 0.5646(5) -0.2238(7) 0.6809(6)
H87 H 0.5722 -0.2180 0.6486
H88 H 0.5878 -0.2369 0.7126
H89 H 0.5547 -0.1865 0.6900
C95 C 0.5319(7) -0.3002(11) 0.7203(12)
H90 H 0.5575 -0.3204 0.7383
H91 H 0.5102 -0.3289 0.7124
H92 H 0.5289 -0.2694 0.7450
O15 O 0.63628(18) 0.4446(2) 0.9364(2)
loop_
_geom_bond_atom_site_label_1
_geom_bond_atom_site_label_2
_geom_bond_site_symmetry_1
_geom_bond_site_symmetry_2
Cl1 C77 1_555 1_555
F1 C14 1_555 1_555
F2 C3 1_555 1_555
F3 C2 1_555 1_555
O1 C26 1_555 1_555
Cl2 C77 1_555 1_555
N1 H1 1_555 1_555
O2 C22 1_555 1_555
O3 C6 1_555 1_555
N2 C1 1_555 1_555
C1 C3 1_555 1_555
N3 C4 1_555 1_555
Cl3 C77 1_555 1_555
C2 C4 1_555 1_555
N4 C7 1_555 1_555
N5 C15 1_555 1_555
C3 C11 1_555 1_555
O4 C23 1_555 1_555
N6 C11 1_555 1_555
C4 C10 1_555 1_555
O5 C44 1_555 1_555
N7 H2 1_555 1_555
N8 C8 1_555 1_555
N9 H3 1_555 1_555
C5 C6 1_555 1_555
C6 C27 1_555 1_555
N10 H4 1_555 1_555
C7 N15 1_555 1_555
N11 H5 1_555 1_555
N12 H6 1_555 1_555
O6 C47 1_555 1_555
O7 C48 1_555 1_555
C8 C14 1_555 1_555
N13 C18 1_555 1_555
O8 C20 1_555 1_555
C9 N9 1_555 1_555
C10 C22 1_555 1_555
C11 C5 1_555 1_555
O9 C34 1_555 1_555
C12 N1 1_555 1_555
C13 C1 1_555 1_555
N14 C28 1_555 1_555
C14 C9 1_555 1_555
N15 H7 1_555 1_555
N16 H8 1_555 1_555
N17 C31 1_555 1_555
C15 N10 1_555 1_555
C16 C7 1_555 1_555
H9 C16 1_555 1_555
C17 N6 1_555 1_555
N18 C43 1_555 1_555
C18 C73 1_555 1_555
C19 N3 1_555 1_555
C20 N15 1_555 1_555
N19 H10 1_555 1_555
C21 C9 1_555 1_555
H11 C21 1_555 1_555
C22 C42 1_555 1_555
C23 N9 1_555 1_555
N20 H12 1_555 1_555
C24 H13 1_555 1_555
C25 N2 1_555 1_555
C26 C13 1_555 1_555
O10 C35 1_555 1_555
O11 C69 1_555 1_555
C27 C17 1_555 1_555
H14 C27 1_555 1_555
C28 N19 1_555 1_555
C29 C5 1_555 1_555
H15 C29 1_555 1_555
O12 C46 1_555 1_555
C30 C12 1_555 1_555
H16 C30 1_555 1_555
C31 C34 1_555 1_555
C32 C10 1_555 1_555
H17 C32 1_555 1_555
C33 N13 1_555 1_555
C34 N10 1_555 1_555
C35 N11 1_555 1_555
C36 C15 1_555 1_555
H18 C36 1_555 1_555
C37 N14 1_555 1_555
C38 N17 1_555 1_555
C39 H19 1_555 1_555
C40 C36 1_555 1_555
H20 C40 1_555 1_555
C41 N4 1_555 1_555
C42 C19 1_555 1_555
H21 C42 1_555 1_555
C43 N12 1_555 1_555
C44 N7 1_555 1_555
C45 C41 1_555 1_555
H22 C45 1_555 1_555
C46 C50 1_555 1_555
O13 C81 1_555 1_555
C47 N1 1_555 1_555
C48 N16 1_555 1_555
C49 N5 1_555 1_555
C50 C8 1_555 1_555
C51 C44 1_555 1_555
C52 N18 1_555 1_555
C53 C38 1_555 1_555
H23 C53 1_555 1_555
C54 O1 1_555 1_555
H24 C54 1_555 1_555
H25 C54 1_555 1_555
C55 C43 1_555 1_555
H26 C55 1_555 1_555
C56 C53 1_555 1_555
H27 C56 1_555 1_555
O14 C73 1_555 1_555
C57 O3 1_555 1_555
H28 C57 1_555 1_555
H29 C57 1_555 1_555
C58 C46 1_555 1_555
H30 C58 1_555 1_555
C59 C16 1_555 1_555
H31 C59 1_555 1_555
C60 C76 1_555 1_555
C61 C52 1_555 1_555
H32 C61 1_555 1_555
C62 C28 1_555 1_555
H33 C62 1_555 1_555
C63 H34 1_555 1_555
C64 O2 1_555 1_555
H35 C64 1_555 1_555
H36 C64 1_555 1_555
C65 N8 1_555 1_555
C66 C21 1_555 1_555
H37 C66 1_555 1_555
C67 C37 1_555 1_555
H38 C67 1_555 1_555
C68 C62 1_555 1_555
H39 C68 1_555 1_555
C69 N19 1_555 1_555
C70 C57 1_555 1_555
H40 C70 1_555 1_555
C71 C31 1_555 1_555
H41 C71 1_555 1_555
C72 C51 1_555 1_555
H42 C72 1_555 1_555
H43 C72 1_555 1_555
H44 C72 1_555 1_555
C73 N12 1_555 1_555
C74 C33 1_555 1_555
H45 C74 1_555 1_555
C75 C51 1_555 1_555
H46 C75 1_555 1_555
H47 C75 1_555 1_555
H48 C75 1_555 1_555
C76 H49 1_555 1_555
H50 C76 1_555 1_555
H51 C76 1_555 1_555
C77 H52 1_555 1_555
C78 C60 1_555 1_555
H53 C78 1_555 1_555
H54 C78 1_555 1_555
H55 C78 1_555 1_555
C79 C74 1_555 1_555
H56 C79 1_555 1_555
C80 C55 1_555 1_555
H57 C80 1_555 1_555
C81 N20 1_555 1_555
C82 C18 1_555 1_555
H58 C82 1_555 1_555
C83 C63 1_555 1_555
H59 C83 1_555 1_555
H60 C83 1_555 1_555
H61 C83 1_555 1_555
C84 O12 1_555 1_555
H62 C84 1_555 1_555
H63 C84 1_555 1_555
C85 C51 1_555 1_555
H64 C85 1_555 1_555
H65 C85 1_555 1_555
H66 C85 1_555 1_555
C86 C54 1_555 1_555
H67 C86 1_555 1_555
C87 C60 1_555 1_555
H68 C87 1_555 1_555
H69 C87 1_555 1_555
H70 C87 1_555 1_555
C88 C63 1_555 1_555
H71 C88 1_555 1_555
H72 C88 1_555 1_555
H73 C88 1_555 1_555
C89 C70 1_555 1_555
H74 C89 1_555 1_555
H75 C89 1_555 1_555
H76 C89 1_555 1_555
C90 C86 1_555 1_555
H77 C90 1_555 1_555
H78 C90 1_555 1_555
H79 C90 1_555 1_555
C91 C70 1_555 1_555
H80 C91 1_555 1_555
H81 C91 1_555 1_555
H82 C91 1_555 1_555
C92 C84 1_555 1_555
H83 C92 1_555 1_555
C93 C86 1_555 1_555
H84 C93 1_555 1_555
H85 C93 1_555 1_555
H86 C93 1_555 1_555
C94 C92 1_555 1_555
H87 C94 1_555 1_555
H88 C94 1_555 1_555
H89 C94 1_555 1_555
C95 C92 1_555 1_555
H90 C95 1_555 1_555
H91 C95 1_555 1_555
H92 C95 1_555 1_555
C2 C12 1_555 1_555
N7 C49 1_555 1_555
N11 C41 1_555 1_555
C13 C29 1_555 1_555
N16 C37 1_555 1_555
C17 C23 1_555 1_555
C19 C20 1_555 1_555
N20 C52 1_555 1_555
C24 C25 1_555 1_555
C24 C26 1_555 1_555
C25 C47 1_555 1_555
C30 C32 1_555 1_555
C33 C35 1_555 1_555
C38 C69 1_555 1_555
C39 C40 1_555 1_555
C39 C49 1_555 1_555
C45 C59 1_555 1_555
C48 C65 1_555 1_555
C50 C66 1_555 1_555
C56 C71 1_555 1_555
C58 C65 1_555 1_555
C60 C81 1_555 1_555
C61 C80 1_555 1_555
C63 C64 1_555 1_555
C67 C68 1_555 1_555
C79 C82 1_555 1_555

#END
