
#######################################################################
#
#                 Cambridge Crystallographic Data Centre
#                                CCDC 
#
#######################################################################
#
# If this CIF has been generated from an entry in the Cambridge 
# Structural Database, then it will include bibliographic, chemical, 
# crystal, experimental, refinement or atomic coordinate data resulting 
# from the CCDC's data processing and validation procedures.
#
#######################################################################

data_APURAF
_chemical_formula_moiety         
'C122 H117 F5 N24 O18,C37 H42 N2 O4,4(C1 H1 Cl3)'
_chemical_name_systematic        
"[2]-(bis(4,4-Diphenylbutyl) propane-1,3-diylbiscarbamate)-(N,N'-bis(2-((2-((6-((6-((6-(t-butylcarbonylamino)pyridin-2-yl)carbamoyl)pyridin-2-yl)carbonylamino)pyridin-2-yl)carbamoyl)-8-fluoro-4-isobutoxyquinolin-7-yl)carbamoyl)-8-fluoro-4-isobutoxyquinolin-7-yl)-10-fluoro-4,6-di-isobutoxypyrido[3,2-g]quinoline-2,8-dicarboxamide)-helical-pseudorotaxane chloroform unknown solvate"
_symmetry_cell_setting           triclinic
_symmetry_space_group_name_H-M   'P -1'
_symmetry_Int_Tables_number      2
_space_group_name_Hall           '-P 1'
loop_
_symmetry_equiv_pos_site_id
_symmetry_equiv_pos_as_xyz
1 x,y,z
2 -x,-y,-z
_cell_length_a                   18.372(4)
_cell_length_b                   19.185(4)
_cell_length_c                   24.904(5)
_cell_angle_alpha                81.34(3)
_cell_angle_beta                 70.43(3)
_cell_angle_gamma                85.92(3)
_cell_volume                     8174.45
_cell_formula_units_Z            2
loop_
_atom_site_label
_atom_site_type_symbol
_atom_site_fract_x
_atom_site_fract_y
_atom_site_fract_z
Cl1 Cl 0.91692(19) 0.08271(17) 0.41433(12)
Cl2 Cl 0.9392(4) 0.19928(17) 0.47205(15)
Cl3 Cl 1.04921(16) 0.0820(3) 0.44881(12)
C136 C 0.9501(5) 0.1113(5) 0.4654(3)
H118 H 0.9215 0.0857 0.5029
F1 F 0.33891(14) 0.65104(13) 0.24050(11)
F2 F 0.52803(17) 0.90421(14) 0.32119(12)
F3 F 0.55428(16) 0.72089(15) 0.09567(11)
F4 F 0.34054(17) 0.74549(16) 0.40356(11)
F5 F 0.6741(2) 0.7821(2) 0.19647(14)
O1 O 0.07177(17) 0.45839(17) 0.33864(13)
O2 O 0.5052(2) 0.90837(16) 0.52254(13)
O3 O 0.7833(2) 1.09861(17) 0.28909(15)
O4 O 0.1288(2) 0.5805(2) 0.49020(16)
O8 O 0.1981(2) 0.4632(2) 0.13408(15)
O9 O 0.3208(2) 0.71299(17) 0.64979(14)
O11 O 0.4342(2) 0.5974(2) -0.00986(15)
O12 O 0.6552(3) 0.7987(2) 0.44640(18)
O13 O 0.8453(2) 0.8964(2) 0.01287(17)
O14 O 0.7480(2) 0.8247(2) -0.14504(15)
O15 O 0.8672(3) 0.9384(2) 0.2857(2)
O16 O 0.7496(2) 1.06330(19) 0.10017(16)
N1 N 0.3522(2) 0.6101(2) 0.13857(16)
O17 O 0.5062(3) 0.8778(2) -0.04525(17)
N2 N 0.2329(2) 0.60004(19) 0.34135(16)
N3 N 0.6345(2) 0.98817(19) 0.23889(16)
N4 N 0.3946(2) 0.80049(19) 0.47750(16)
O18 O 0.1731(3) 0.9475(3) 0.4300(3)
N6 N 0.2405(2) 0.6384(2) 0.43609(18)
H2 H 0.2700 0.6485 0.4011
O19 O 0.3743(3) 0.4335(2) 0.2389(2)
N7 N 0.6430(3) 0.9939(2) 0.12882(17)
H3 H 0.6098 0.9733 0.1593
N8 N 0.4959(3) 0.8923(2) 0.04693(18)
H4 H 0.4690 0.8805 0.0824
O20 O 0.1989(2) 0.7286(2) 0.1875(2)
C1 C 0.2323(2) 0.5778(2) 0.29160(19)
N9 N 0.5746(2) 0.94600(19) 0.08279(17)
N10 N 0.5054(2) 0.8933(2) 0.43313(16)
H5 H 0.4825 0.8699 0.4168
N11 N 0.4624(3) 0.5036(2) 0.2510(2)
H6 H 0.4725 0.5232 0.2764
N12 N 0.2741(3) 0.8103(2) 0.2019(2)
H7 H 0.3126 0.8374 0.1841
N13 N 0.4679(2) 0.6608(2) 0.04949(17)
H8 H 0.4529 0.6697 0.0844
N14 N 0.6842(2) 0.7932(2) 0.03405(18)
N15 N 0.5794(3) 0.5455(2) 0.1900(2)
N16 N 0.6927(3) 0.8036(2) 0.2963(2)
C3 C 0.3137(3) 0.7195(3) 0.46064(19)
C4 C 0.5729(3) 0.9431(2) 0.3383(2)
N17 N 0.3613(3) 0.8185(2) 0.0867(2)
N18 N 0.2655(3) 0.8636(3) 0.2804(2)
C5 C 0.2889(2) 0.6039(2) 0.23983(19)
N19 N 0.7548(2) 0.8412(3) 0.09319(19)
H9 H 0.7152 0.8151 0.1024
C6 C 0.3443(3) 0.7460(2) 0.59538(18)
C7 C 0.1784(2) 0.5295(2) 0.28913(19)
C8 C 0.6329(3) 0.9854(3) 0.0768(2)
C10 C 0.1208(2) 0.5050(2) 0.3426(2)
N21 N 0.6057(3) 0.7320(2) 0.3982(2)
H12 H 0.6062 0.7280 0.3641
C13 C 0.2954(2) 0.5827(2) 0.18678(19)
C15 C 0.7365(3) 1.0644(2) 0.2710(2)
C16 C 0.5617(3) 0.9382(2) 0.39600(19)
C17 C 0.1199(2) 0.5281(2) 0.3925(2)
H15 H 0.0823 0.5136 0.4275
C18 C 0.3579(3) 0.5870(3) 0.0900(2)
C19 C 0.3423(2) 0.7488(2) 0.49789(19)
C20 C 0.2620(3) 0.6663(3) 0.4778(2)
C21 C 0.6770(3) 1.0248(2) 0.3141(2)
C22 C 0.3081(3) 0.5365(3) 0.0845(2)
H16 H 0.3155 0.5217 0.0491
O21 O 0.7808(4) 0.5750(5) 0.0489(3)
N22 N 0.4347(3) 0.5545(2) 0.4365(2)
H17 H 0.4523 0.5582 0.3996
C23 C 0.2410(3) 0.5331(2) 0.18709(19)
C24 C 0.4808(3) 0.8806(2) 0.49165(19)
C25 C 0.2065(4) 0.4338(4) 0.0819(3)
H18 H 0.2547 0.4070 0.0701
H19 H 0.2063 0.4712 0.0510
C26 C 0.6285(3) 0.9863(2) 0.2953(2)
C27 C 0.3936(3) 0.8012(2) 0.57546(19)
H20 H 0.4101 0.8226 0.6004
C28 C 0.4228(3) 0.6153(3) 0.0376(2)
N23 N 0.2688(3) 0.9247(3) 0.3514(2)
H21 H 0.3131 0.9386 0.3280
C29 C 0.6447(3) 0.7641(3) 0.0054(2)
C30 C 0.6661(3) 1.0201(2) 0.3735(2)
H22 H 0.6975 1.0455 0.3856
C31 C 0.3511(3) 0.7339(2) 0.6914(2)
H23 H 0.3216 0.7737 0.7082
H24 H 0.4047 0.7472 0.6731
C32 C 0.3141(3) 0.7187(2) 0.5575(2)
C33 C 0.1837(2) 0.5074(2) 0.23715(19)
H25 H 0.1487 0.4754 0.2361
C35 C 0.4190(3) 0.8248(2) 0.51527(19)
C36 C 0.1785(3) 0.5749(2) 0.3887(2)
O22 O 0.3442(3) 0.4988(3) 0.5159(2)
N24 N 0.3841(3) 0.4839(2) 0.3673(2)
N25 N 0.5188(3) 0.6437(2) 0.42342(18)
C38 C 0.2615(3) 0.6641(3) 0.5751(2)
H28 H 0.2435 0.6452 0.6137
C39 C 0.5777(3) 0.7257(3) 0.0377(2)
C40 C 0.5607(3) 0.9349(2) 0.0353(2)
C41 C 0.2355(3) 0.6375(3) 0.5368(2)
H29 H 0.2008 0.6008 0.5495
C42 C 0.2504(3) 0.5109(3) 0.1314(2)
C43 C 0.7427(3) 1.0654(2) 0.2136(2)
H30 H 0.7808 1.0913 0.1844
C44 C 0.6897(3) 1.0262(2) 0.2008(2)
C46 C 0.5346(3) 0.6946(3) 0.0129(2)
C47 C 0.6522(3) 0.7824(3) 0.4006(2)
C48 C 0.5568(3) 0.6850(3) 0.4423(2)
C49 C 0.1794(3) 0.5981(3) 0.4441(2)
C50 C 0.7043(3) 0.8171(2) 0.3436(2)
C51 C 0.0161(3) 0.4255(3) 0.3905(2)
H31 H -0.0238 0.4594 0.4071
H32 H 0.0410 0.4069 0.4185
N26 N 0.7003(3) 0.5860(3) 0.1397(2)
H33 H 0.6982 0.6039 0.1698
C56 C 0.6978(3) 1.0302(2) 0.1378(2)
C59 C 0.7621(4) 0.8616(3) 0.3439(3)
H42 H 0.7673 0.8691 0.3784
C60 C 0.4724(3) 0.8685(3) 0.0066(2)
C62 C 0.6098(3) 0.9785(2) 0.4135(2)
H45 H 0.6031 0.9766 0.4524
C63 C 0.3446(3) 0.6704(3) 0.7374(2)
H46 H 0.3601 0.6857 0.7678
C64 C 0.8106(3) 0.8938(3) 0.2923(3)
C65 C 0.3992(3) 0.4625(2) 0.2696(3)
C66 C 0.7309(3) 0.8254(3) 0.1930(2)
C67 C 0.6069(3) 0.9624(3) -0.0201(2)
H47 H 0.5968 0.9533 -0.0525
C69 C 0.7740(3) 0.8567(3) 0.1405(3)
C70 C 0.5497(4) 0.6816(3) 0.5004(3)
H49 H 0.5766 0.7114 0.5130
C71 C 0.6305(3) 0.5600(3) 0.1384(2)
C72 C 0.8467(3) 0.9138(3) 0.1845(3)
H50 H 0.8864 0.9432 0.1815
C73 C -0.0185(3) 0.3662(3) 0.3732(2)
H51 H -0.0563 0.3429 0.4081
C74 C 0.5591(3) 0.6997(3) -0.0480(2)
H52 H 0.5314 0.6775 -0.0654
C75 C 0.7410(3) 0.8364(2) 0.2447(2)
C78 C 0.6201(4) 0.5502(3) 0.0867(3)
H55 H 0.6573 0.5626 0.0511
C79 C 0.8343(3) 0.9021(3) 0.1356(3)
H56 H 0.8647 0.9234 0.0998
C80 C 0.8090(3) 0.8728(4) -0.1782(2)
H57 H 0.8580 0.8540 -0.1750
H58 H 0.7988 0.9179 -0.1638
C81 C 0.7451(3) 0.8291(3) 0.0028(2)
C82 C 0.5128(3) 0.5171(3) 0.1941(3)
C84 C 0.8002(3) 0.8819(3) 0.2403(3)
C86 C 0.3577(3) 0.4530(3) 0.3329(3)
C87 C 0.8949(3) 1.1650(3) 0.2761(2)
H61 H 0.9182 1.1247 0.2942
C88 C 0.7310(3) 0.8148(3) -0.0871(2)
C91 C 0.6235(3) 0.7371(3) -0.0813(2)
H65 H 0.6388 0.7402 -0.1212
C92 C 0.7721(3) 0.8425(3) -0.0576(2)
H66 H 0.8159 0.8690 -0.0773
C93 C 0.6669(3) 0.7711(3) -0.0558(2)
C94 C 0.2520(3) 0.7695(3) 0.1696(3)
C95 C 0.6843(3) 1.0161(3) 0.0226(2)
H67 H 0.7260 1.0429 0.0197
C96 C 0.2623(4) 0.6447(3) 0.7651(3)
H68 H 0.2288 0.6828 0.7804
H69 H 0.2604 0.6070 0.7956
H70 H 0.2456 0.6279 0.7368
C98 C 0.2970(3) 0.7809(3) 0.1053(2)
C100 C 0.3987(4) 0.8269(3) 0.0305(2)
C101 C -0.0618(3) 0.3947(3) 0.3310(3)
H74 H -0.0829 0.3561 0.3210
H75 H -0.0266 0.4196 0.2968
H76 H -0.1029 0.4262 0.3487
C102 C 0.8457(3) 1.1376(3) 0.2459(2)
H77 H 0.8251 1.1766 0.2253
H78 H 0.8766 1.1072 0.2185
C104 C 0.2403(3) 0.8120(3) 0.2604(3)
C105 C 0.8488(4) 1.2093(3) 0.3215(3)
H81 H 0.8824 1.2261 0.3389
H82 H 0.8093 1.1814 0.3504
H83 H 0.8254 1.2488 0.3043
C106 C 0.2358(3) 0.8695(3) 0.3359(3)
C107 C 0.6676(3) 1.0031(3) -0.0248(2)
H84 H 0.6985 1.0225 -0.0612
C109 C 0.7882(3) 0.8606(3) 0.0356(2)
C110 C 0.4971(4) 0.5023(3) 0.1452(3)
H86 H 0.4518 0.4807 0.1485
C112 C 0.4599(4) 0.5872(3) 0.5208(2)
H89 H 0.4272 0.5535 0.5467
C114 C 0.1559(4) 0.7729(3) 0.3528(3)
H90 H 0.1193 0.7417 0.3780
C115 C 0.2911(4) 0.4111(3) 0.3548(4)
H91 H 0.2734 0.3904 0.3301
C116 C 0.4703(3) 0.5950(3) 0.4619(2)
C117 C 0.3709(4) 0.7995(4) -0.0084(3)
H92 H 0.3974 0.8074 -0.0478
C118 C 0.4007(4) 0.6123(3) 0.7135(3)
H93 H 0.4520 0.6306 0.6970
H94 H 0.3864 0.5949 0.6843
H95 H 0.3995 0.5746 0.7438
C119 C 0.8124(3) 0.8821(3) -0.2416(2)
H96 H 0.7615 0.8998 -0.2428
C120 C 0.4997(4) 0.6310(3) 0.5386(3)
H97 H 0.4933 0.6271 0.5775
C121 C 0.1828(4) 0.7651(3) 0.2960(3)
H98 H 0.1642 0.7308 0.2816
C122 C 0.2391(3) 0.9586(4) 0.3990(3)
C124 C 0.5520(4) 0.5214(4) 0.0925(3)
H100 H 0.5420 0.5144 0.0595
C125 C 0.2876(4) 1.0132(4) 0.4069(3)
C126 C 0.8920(5) 0.9438(4) 0.3336(4)
H101 H 0.8473 0.9443 0.3681
H102 H 0.9187 0.9878 0.3269
C127 C 0.9715(6) 0.8969(6) 0.3939(4)
H103 H 1.0033 0.8578 0.4024
H104 H 0.9270 0.9015 0.4272
H105 H 1.0005 0.9394 0.3834
C129 C 0.8698(5) 0.9378(5) -0.2750(3)
H107 H 0.8711 0.9454 -0.3143
H108 H 0.9202 0.9227 -0.2735
H109 H 0.8550 0.9810 -0.2586
C130 C 0.0427(4) 0.3111(3) 0.3489(3)
H110 H 0.0192 0.2745 0.3384
H111 H 0.0655 0.2912 0.3775
H112 H 0.0820 0.3329 0.3156
C131 C 0.2669(4) 0.7523(3) 0.0694(3)
H113 H 0.2214 0.7272 0.0844
C132 C 0.1377(4) 0.3859(4) 0.0958(3)
H114 H 0.1460 0.3622 0.0620
C133 C 0.1806(4) 0.8250(3) 0.3743(3)
H115 H 0.1610 0.8301 0.4132
C134 C 0.2806(4) 0.4331(3) 0.4488(4)
H116 H 0.2554 0.4263 0.4884
C137 C 0.3465(3) 0.4748(3) 0.4239(3)
C139 C 0.2543(4) 0.4019(3) 0.4109(4)
H120 H 0.2105 0.3745 0.4256
C141 C 0.8279(4) 0.8131(4) -0.2654(3)
H122 H 0.8288 0.8206 -0.3046
H123 H 0.7880 0.7807 -0.2430
H124 H 0.8770 0.7938 -0.2639
C142 C 1.0124(5) 0.8773(5) 0.2917(4)
H125 H 1.0432 0.8371 0.2996
H126 H 1.0424 0.9191 0.2824
H127 H 0.9962 0.8714 0.2599
C143 C 0.3750(4) 0.5097(3) 0.4632(3)
C144 C 0.3054(5) 0.7618(4) 0.0119(3)
H128 H 0.2870 0.7426 -0.0131
C147 C 0.9599(4) 1.2093(4) 0.2308(3)
H131 H 0.9912 1.2275 0.2495
H132 H 0.9377 1.2478 0.2116
H133 H 0.9915 1.1803 0.2032
C149 C 0.8210(8) 0.6589(6) 0.1555(8)
H135 H 0.8647 0.6665 0.1666
H136 H 0.7771 0.6475 0.1892
H137 H 0.8097 0.7010 0.1332
C150 C 0.1359(5) 0.3284(4) 0.1457(3)
H138 H 0.0925 0.2989 0.1536
H139 H 0.1314 0.3497 0.1792
H140 H 0.1827 0.3004 0.1356
C151 C 0.9446(5) 0.8838(4) 0.3423(4)
H141 H 0.9158 0.8399 0.3530
C152 C 0.2732(5) 1.0819(4) 0.3765(4)
H142 H 0.2827 1.0777 0.3368
H143 H 0.3070 1.1161 0.3793
H144 H 0.2205 1.0967 0.3937
C153 C 0.3763(5) 0.9926(4) 0.3798(5)
H145 H 0.3894 0.9943 0.3389
H146 H 0.3859 0.9457 0.3962
H147 H 0.4073 1.0252 0.3879
C154 C 0.7710(6) 0.5851(5) 0.0970(4)
C155 C 0.8404(6) 0.5947(6) 0.1174(4)
C157 C 0.0613(5) 0.4277(5) 0.1053(5)
H149 H 0.0199 0.3957 0.1133
H150 H 0.0640 0.4600 0.0714
H151 H 0.0520 0.4534 0.1373
C158 C 0.8523(7) 0.5288(6) 0.1570(6)
H152 H 0.8627 0.4887 0.1364
H153 H 0.8064 0.5209 0.1899
H154 H 0.8951 0.5354 0.1694
C159 C 0.2702(10) 1.0106(10) 0.4707(5)
H155 H 0.3006 1.0447 0.4777
H156 H 0.2826 0.9643 0.4866
H157 H 0.2163 1.0211 0.4886
C160 C 0.9170(7) 0.5972(7) 0.0659(6)
H158 H 0.9207 0.5571 0.0462
H159 H 0.9599 0.5963 0.0798
H160 H 0.9176 0.6397 0.0399
Cl4 Cl 0.89893(13) 0.1376(2) 0.06030(15)
Cl5 Cl 1.0103(2) 0.2302(3) 0.06958(14)
Cl6 Cl 1.0024(2) 0.21977(16) -0.04355(13)
C161 C 0.9884(6) 0.1789(6) 0.0245(5)
H161 H 1.0268 0.1402 0.0201
O5 O 0.4332(2) 0.99087(16) 0.21129(14)
O6 O 0.4026(2) 0.91059(17) 0.16447(14)
O7 O 0.54354(19) 0.55909(18) 0.32076(15)
O10 O 0.6574(2) 0.61209(18) 0.30037(17)
N5 N 0.4745(3) 0.8797(2) 0.2244(2)
H1 H 0.4942 0.8954 0.2470
C2 C 0.4719(3) 1.2064(2) 0.2631(2)
C9 C 0.5028(3) 1.1513(2) 0.2927(2)
H10 H 0.5361 1.1185 0.2723
N20 N 0.5623(3) 0.6721(2) 0.2771(2)
H11 H 0.5945 0.7058 0.2632
C11 C 0.4851(3) 1.1443(2) 0.3521(2)
H13 H 0.5056 1.1064 0.3709
C12 C 0.5681(3) 1.2476(2) 0.1672(2)
C14 C 0.4911(3) 1.2140(2) 0.1982(2)
H14 H 0.4519 1.2461 0.1886
C34 C 0.4352(3) 0.9250(2) 0.1970(2)
C37 C 0.3970(3) 1.0450(2) 0.1811(2)
H26 H 0.3430 1.0345 0.1898
H27 H 0.4224 1.0471 0.1399
C45 C 0.9154(3) 0.6439(3) 0.2984(3)
C52 C 0.5719(4) 1.3194(3) 0.1448(3)
H34 H 0.5266 1.3461 0.1489
C53 C 0.7671(3) 0.5569(3) 0.3238(4)
H35 H 0.7960 0.5728 0.2839
H36 H 0.7886 0.5115 0.3347
C54 C 0.6375(3) 1.2104(3) 0.1605(2)
H37 H 0.6363 1.1629 0.1752
C55 C 0.5846(3) 0.6113(3) 0.3007(2)
C57 C 0.4852(3) 1.1427(2) 0.1776(2)
H38 H 0.5028 1.1488 0.1359
H39 H 0.5193 1.1081 0.1903
C58 C 0.4037(3) 1.1147(3) 0.2003(2)
H40 H 0.3698 1.1493 0.1874
H41 H 0.3861 1.1091 0.2420
C61 C 0.4852(4) 0.8054(3) 0.2174(3)
H43 H 0.5396 0.7949 0.1990
H44 H 0.4572 0.7946 0.1930
C68 C 0.4368(3) 1.1936(3) 0.3837(2)
H48 H 0.4245 1.1891 0.4234
C76 C 0.6442(4) 1.3512(3) 0.1160(3)
H53 H 0.6465 1.3985 0.1001
C77 C 0.7097(4) 1.3128(3) 0.1117(2)
H54 H 0.7572 1.3344 0.0941
C83 C 0.9790(4) 0.6058(4) 0.2693(5)
H59 H 0.9884 0.5606 0.2854
C85 C 0.4233(3) 1.2564(3) 0.2958(2)
H60 H 0.4017 1.2940 0.2775
C89 C 0.8615(3) 0.6133(3) 0.3589(3)
H62 H 0.8790 0.5646 0.3668
C90 C 0.7760(3) 0.6107(3) 0.3620(3)
H63 H 0.7439 0.5971 0.4015
H64 H 0.7587 0.6572 0.3490
C97 C 0.7077(3) 1.2412(3) 0.1330(3)
H71 H 0.7533 1.2147 0.1286
C99 C 0.6825(3) 0.5484(3) 0.3297(3)
H72 H 0.6773 0.5077 0.3126
H73 H 0.6511 0.5417 0.3700
C103 C 0.4837(3) 0.6830(3) 0.2742(3)
H79 H 0.4484 0.6543 0.3066
H80 H 0.4822 0.6675 0.2393
C108 C 0.4076(4) 1.2498(3) 0.3544(3)
H85 H 0.3766 1.2839 0.3748
C111 C 0.4564(3) 0.7606(3) 0.2749(2)
H87 H 0.4004 0.7626 0.2885
H88 H 0.4738 0.7804 0.3021
C113 C 0.8720(4) 0.6542(3) 0.4046(3)
C123 C 1.0151(4) 0.7008(4) 0.1926(4)
H99 H 1.0490 0.7202 0.1574
C128 C 0.9027(4) 0.7114(3) 0.2733(4)
H106 H 0.8605 0.7383 0.2925
C135 C 1.0291(4) 0.6337(5) 0.2165(5)
H117 H 1.0719 0.6075 0.1973
C138 C 0.8190(4) 0.7022(3) 0.4305(3)
H119 H 0.7744 0.7105 0.4205
C140 C 0.9397(4) 0.6427(4) 0.4190(4)
H121 H 0.9768 0.6106 0.4009
C145 C 0.8288(6) 0.7401(4) 0.4721(4)
H129 H 0.7915 0.7725 0.4896
C146 C 0.9520(4) 0.7388(3) 0.2204(4)
H130 H 0.9420 0.7835 0.2035
C148 C 0.8983(7) 0.7264(6) 0.4859(5)
H134 H 0.9073 0.7502 0.5129
C156 C 0.9528(5) 0.6774(5) 0.4589(4)
H148 H 0.9980 0.6683 0.4680
Cl7 Cl 0.0201(3) 0.9791(3) 0.0506(3)
Cl8 Cl 0.1395(5) 0.9128(5) 0.1173(6)
Cl9 Cl 0.04082(16) 1.03789(18) 0.14199(13)
C162 C 0.0907(6) 0.9824(5) 0.0871(6)
H162 H 0.1319 1.0118 0.0595
Cl10 Cl 0.1503(18) 0.6121(10) 0.0478(16)
Cl11 Cl 0.0857(9) 0.6353(10) -0.0495(14)
Cl12 Cl 0.050(2) 0.5214(16) 0.024(2)
C163 C 0.1337(19) 0.5722(16) -0.012(2)
H163 H 0.1782 0.5474 -0.0363
Cl13? Cl 0.0596(4) 0.9155(3) 0.0862(3)
Cl14? Cl 0.8819(6) 0.2007(5) 0.4613(4)
Cl15? Cl 0.9860(6) 0.1077(5) 0.3895(4)
loop_
_geom_bond_atom_site_label_1
_geom_bond_atom_site_label_2
_geom_bond_site_symmetry_1
_geom_bond_site_symmetry_2
Cl1 C136 1_555 1_555
Cl2 C136 1_555 1_555
F1 C5 1_555 1_555
Cl3 C136 1_555 1_555
F2 C4 1_555 1_555
F3 C39 1_555 1_555
Cl4 C161 1_555 1_555
F4 C3 1_555 1_555
Cl5 C161 1_555 1_555
F5 C66 1_555 1_555
Cl6 C161 1_555 1_555
O1 C10 1_555 1_555
O2 C24 1_555 1_555
O3 C15 1_555 1_555
O4 C49 1_555 1_555
O5 C34 1_555 1_555
O6 C34 1_555 1_555
O7 C55 1_555 1_555
O8 C25 1_555 1_555
O9 C6 1_555 1_555
O10 C55 1_555 1_555
O11 C28 1_555 1_555
O12 C47 1_555 1_555
O13 C109 1_555 1_555
O14 C80 1_555 1_555
O15 C64 1_555 1_555
O16 C56 1_555 1_555
N1 C13 1_555 1_555
O17 C60 1_555 1_555
N2 C1 1_555 1_555
N3 C26 1_555 1_555
N4 C19 1_555 1_555
O18 C122 1_555 1_555
N5 H1 1_555 1_555
N6 H2 1_555 1_555
O19 C65 1_555 1_555
N7 H3 1_555 1_555
N8 H4 1_555 1_555
O20 C94 1_555 1_555
C1 C5 1_555 1_555
N9 C8 1_555 1_555
N10 H5 1_555 1_555
N11 H6 1_555 1_555
N12 H7 1_555 1_555
N13 H8 1_555 1_555
N14 C29 1_555 1_555
N15 C71 1_555 1_555
N16 C50 1_555 1_555
Cl7 C162 1_555 1_555
C2 C9 1_555 1_555
C3 C19 1_555 1_555
C4 C16 1_555 1_555
N17 C98 1_555 1_555
N18 C104 1_555 1_555
C5 C13 1_555 1_555
N19 H9 1_555 1_555
C6 C27 1_555 1_555
C7 C1 1_555 1_555
C8 N7 1_555 1_555
C9 H10 1_555 1_555
N20 H11 1_555 1_555
C10 C7 1_555 1_555
N21 H12 1_555 1_555
C11 C9 1_555 1_555
H13 C11 1_555 1_555
C12 C14 1_555 1_555
C13 C23 1_555 1_555
C14 C2 1_555 1_555
H14 C14 1_555 1_555
C15 C21 1_555 1_555
C16 N10 1_555 1_555
C17 C10 1_555 1_555
H15 C17 1_555 1_555
C18 N1 1_555 1_555
C19 C32 1_555 1_555
C20 N6 1_555 1_555
C21 C26 1_555 1_555
C22 C18 1_555 1_555
H16 C22 1_555 1_555
O21 C154 1_555 1_555
N22 H17 1_555 1_555
C23 C33 1_555 1_555
C24 N10 1_555 1_555
C25 H18 1_555 1_555
H19 C25 1_555 1_555
C26 C4 1_555 1_555
C27 H20 1_555 1_555
C28 N13 1_555 1_555
N23 H21 1_555 1_555
C29 C39 1_555 1_555
C30 C21 1_555 1_555
H22 C30 1_555 1_555
C31 O9 1_555 1_555
H23 C31 1_555 1_555
H24 C31 1_555 1_555
C32 C6 1_555 1_555
C33 C7 1_555 1_555
H25 C33 1_555 1_555
C34 N5 1_555 1_555
C35 N4 1_555 1_555
C36 N2 1_555 1_555
O22 C143 1_555 1_555
N24 C86 1_555 1_555
C37 O5 1_555 1_555
H26 C37 1_555 1_555
H27 C37 1_555 1_555
N25 C48 1_555 1_555
C38 C32 1_555 1_555
H28 C38 1_555 1_555
C39 C46 1_555 1_555
C40 N8 1_555 1_555
C41 C20 1_555 1_555
H29 C41 1_555 1_555
C42 O8 1_555 1_555
C43 C15 1_555 1_555
H30 C43 1_555 1_555
C44 N3 1_555 1_555
C45 C83 1_555 1_555
C46 N13 1_555 1_555
C47 N21 1_555 1_555
C48 N21 1_555 1_555
C49 N6 1_555 1_555
C50 C47 1_555 1_555
C51 O1 1_555 1_555
H31 C51 1_555 1_555
H32 C51 1_555 1_555
N26 H33 1_555 1_555
C52 C12 1_555 1_555
H34 C52 1_555 1_555
C53 H35 1_555 1_555
H36 C53 1_555 1_555
C54 C12 1_555 1_555
H37 C54 1_555 1_555
C55 N20 1_555 1_555
C56 N7 1_555 1_555
C57 C14 1_555 1_555
H38 C57 1_555 1_555
H39 C57 1_555 1_555
C58 C37 1_555 1_555
H40 C58 1_555 1_555
H41 C58 1_555 1_555
C59 C50 1_555 1_555
H42 C59 1_555 1_555
C60 N8 1_555 1_555
C61 N5 1_555 1_555
H43 C61 1_555 1_555
H44 C61 1_555 1_555
C62 C16 1_555 1_555
H45 C62 1_555 1_555
C63 C31 1_555 1_555
H46 C63 1_555 1_555
C64 C59 1_555 1_555
C65 N11 1_555 1_555
C66 C69 1_555 1_555
C67 C40 1_555 1_555
H47 C67 1_555 1_555
C68 C11 1_555 1_555
H48 C68 1_555 1_555
C69 N19 1_555 1_555
C70 C48 1_555 1_555
H49 C70 1_555 1_555
C71 N26 1_555 1_555
C72 H50 1_555 1_555
C73 C51 1_555 1_555
H51 C73 1_555 1_555
C74 C46 1_555 1_555
H52 C74 1_555 1_555
C75 N16 1_555 1_555
C76 C52 1_555 1_555
H53 C76 1_555 1_555
C77 C76 1_555 1_555
H54 C77 1_555 1_555
C78 C71 1_555 1_555
H55 C78 1_555 1_555
C79 C69 1_555 1_555
H56 C79 1_555 1_555
C80 H57 1_555 1_555
H58 C80 1_555 1_555
C81 N14 1_555 1_555
C82 N11 1_555 1_555
C83 H59 1_555 1_555
C84 C64 1_555 1_555
C85 C2 1_555 1_555
H60 C85 1_555 1_555
C86 C65 1_555 1_555
C87 H61 1_555 1_555
C88 O14 1_555 1_555
C89 C45 1_555 1_555
H62 C89 1_555 1_555
C90 C53 1_555 1_555
H63 C90 1_555 1_555
H64 C90 1_555 1_555
C91 C74 1_555 1_555
H65 C91 1_555 1_555
C92 C81 1_555 1_555
H66 C92 1_555 1_555
C93 C29 1_555 1_555
C94 N12 1_555 1_555
C95 C8 1_555 1_555
H67 C95 1_555 1_555
C96 C63 1_555 1_555
H68 C96 1_555 1_555
H69 C96 1_555 1_555
H70 C96 1_555 1_555
C97 C54 1_555 1_555
H71 C97 1_555 1_555
C98 C94 1_555 1_555
C99 O10 1_555 1_555
H72 C99 1_555 1_555
H73 C99 1_555 1_555
C100 N17 1_555 1_555
C101 C73 1_555 1_555
H74 C101 1_555 1_555
H75 C101 1_555 1_555
H76 C101 1_555 1_555
C102 O3 1_555 1_555
H77 C102 1_555 1_555
H78 C102 1_555 1_555
C103 N20 1_555 1_555
H79 C103 1_555 1_555
H80 C103 1_555 1_555
C104 N12 1_555 1_555
C105 C87 1_555 1_555
H81 C105 1_555 1_555
H82 C105 1_555 1_555
H83 C105 1_555 1_555
C106 N18 1_555 1_555
C107 C67 1_555 1_555
H84 C107 1_555 1_555
C108 C68 1_555 1_555
H85 C108 1_555 1_555
C109 N19 1_555 1_555
C110 C82 1_555 1_555
H86 C110 1_555 1_555
C111 C61 1_555 1_555
H87 C111 1_555 1_555
H88 C111 1_555 1_555
Cl8 C162 1_555 1_555
C112 H89 1_555 1_555
C113 C89 1_555 1_555
C114 H90 1_555 1_555
C115 C86 1_555 1_555
H91 C115 1_555 1_555
C116 N22 1_555 1_555
C117 C100 1_555 1_555
H92 C117 1_555 1_555
C118 C63 1_555 1_555
H93 C118 1_555 1_555
H94 C118 1_555 1_555
H95 C118 1_555 1_555
C119 C80 1_555 1_555
H96 C119 1_555 1_555
C120 C70 1_555 1_555
H97 C120 1_555 1_555
C121 C104 1_555 1_555
H98 C121 1_555 1_555
C122 N23 1_555 1_555
C123 H99 1_555 1_555
C124 C78 1_555 1_555
H100 C124 1_555 1_555
C125 C122 1_555 1_555
C126 O15 1_555 1_555
H101 C126 1_555 1_555
H102 C126 1_555 1_555
C127 H103 1_555 1_555
H104 C127 1_555 1_555
H105 C127 1_555 1_555
C128 C45 1_555 1_555
H106 C128 1_555 1_555
C129 C119 1_555 1_555
H107 C129 1_555 1_555
H108 C129 1_555 1_555
H109 C129 1_555 1_555
C130 C73 1_555 1_555
H110 C130 1_555 1_555
H111 C130 1_555 1_555
H112 C130 1_555 1_555
C131 C98 1_555 1_555
H113 C131 1_555 1_555
C132 C25 1_555 1_555
H114 C132 1_555 1_555
C133 C106 1_555 1_555
H115 C133 1_555 1_555
C134 H116 1_555 1_555
C135 C83 1_555 1_555
H117 C135 1_555 1_555
C136 H118 1_555 1_555
C137 N24 1_555 1_555
C138 C113 1_555 1_555
H119 C138 1_555 1_555
C139 C115 1_555 1_555
H120 C139 1_555 1_555
C140 C113 1_555 1_555
H121 C140 1_555 1_555
C141 C119 1_555 1_555
H122 C141 1_555 1_555
H123 C141 1_555 1_555
H124 C141 1_555 1_555
C142 H125 1_555 1_555
H126 C142 1_555 1_555
H127 C142 1_555 1_555
C143 N22 1_555 1_555
C144 C117 1_555 1_555
H128 C144 1_555 1_555
C145 C138 1_555 1_555
H129 C145 1_555 1_555
C146 C123 1_555 1_555
H130 C146 1_555 1_555
C147 C87 1_555 1_555
H131 C147 1_555 1_555
H132 C147 1_555 1_555
H133 C147 1_555 1_555
C148 C145 1_555 1_555
H134 C148 1_555 1_555
C149 H135 1_555 1_555
H136 C149 1_555 1_555
H137 C149 1_555 1_555
C150 C132 1_555 1_555
H138 C150 1_555 1_555
H139 C150 1_555 1_555
H140 C150 1_555 1_555
C151 C126 1_555 1_555
H141 C151 1_555 1_555
C152 C125 1_555 1_555
H142 C152 1_555 1_555
H143 C152 1_555 1_555
H144 C152 1_555 1_555
C153 C125 1_555 1_555
H145 C153 1_555 1_555
H146 C153 1_555 1_555
H147 C153 1_555 1_555
C154 N26 1_555 1_555
C155 C149 1_555 1_555
C156 C140 1_555 1_555
H148 C156 1_555 1_555
C157 C132 1_555 1_555
H149 C157 1_555 1_555
H150 C157 1_555 1_555
H151 C157 1_555 1_555
C158 C155 1_555 1_555
H152 C158 1_555 1_555
H153 C158 1_555 1_555
H154 C158 1_555 1_555
C159 C125 1_555 1_555
H155 C159 1_555 1_555
H156 C159 1_555 1_555
H157 C159 1_555 1_555
C160 C155 1_555 1_555
H158 C160 1_555 1_555
H159 C160 1_555 1_555
H160 C160 1_555 1_555
C161 H161 1_555 1_555
Cl9 C162 1_555 1_555
Cl10 C163 1_555 1_555
C162 H162 1_555 1_555
Cl11 C163 1_555 1_555
Cl12 C163 1_555 1_555
C163 H163 1_555 1_555
N9 C40 1_555 1_555
N15 C82 1_555 1_555
C3 C20 1_555 1_555
C17 C36 1_555 1_555
C18 C28 1_555 1_555
C22 C42 1_555 1_555
C23 C42 1_555 1_555
C24 C35 1_555 1_555
C27 C35 1_555 1_555
N23 C106 1_555 1_555
C30 C62 1_555 1_555
C36 C49 1_555 1_555
N25 C116 1_555 1_555
C38 C41 1_555 1_555
C43 C44 1_555 1_555
C44 C56 1_555 1_555
C53 C99 1_555 1_555
C57 C58 1_555 1_555
C60 C100 1_555 1_555
C66 C75 1_555 1_555
C72 C79 1_555 1_555
C72 C84 1_555 1_555
C75 C84 1_555 1_555
C77 C97 1_555 1_555
C81 C109 1_555 1_555
C85 C108 1_555 1_555
C87 C102 1_555 1_555
C88 C92 1_555 1_555
C88 C93 1_555 1_555
C89 C90 1_555 1_555
C91 C93 1_555 1_555
C95 C107 1_555 1_555
C103 C111 1_555 1_555
C110 C124 1_555 1_555
C112 C116 1_555 1_555
C112 C120 1_555 1_555
C114 C121 1_555 1_555
C114 C133 1_555 1_555
C123 C135 1_555 1_555
C127 C151 1_555 1_555
C128 C146 1_555 1_555
C131 C144 1_555 1_555
C134 C137 1_555 1_555
C134 C139 1_555 1_555
C137 C143 1_555 1_555
C142 C151 1_555 1_555
C148 C156 1_555 1_555
C154 C155 1_555 1_555

#END
