
#######################################################################
#
#                 Cambridge Crystallographic Data Centre
#                                CCDC 
#
#######################################################################
#
# If this CIF has been generated from an entry in the Cambridge 
# Structural Database, then it will include bibliographic, chemical, 
# crystal, experimental, refinement or atomic coordinate data resulting 
# from the CCDC's data processing and validation procedures.
#
#######################################################################

data_APUSEL
_chemical_formula_moiety         'C7 H6 F2 N2 O2,2(H2 O1)'
_chemical_name_systematic        
'methyl 5-(1,2-difluorovinyl)-1H-pyrazole-3-carboxylate dihydrate'
_symmetry_cell_setting           monoclinic
_symmetry_space_group_name_H-M   'P 21/m'
_symmetry_Int_Tables_number      11
_space_group_name_Hall           '-P 2yb'
loop_
_symmetry_equiv_pos_site_id
_symmetry_equiv_pos_as_xyz
1 x,y,z
2 -x,1/2+y,-z
3 -x,-y,-z
4 x,1/2-y,z
_cell_length_a                   5.5882(15)
_cell_length_b                   6.623(4)
_cell_length_c                   11.439(4)
_cell_angle_alpha                90
_cell_angle_beta                 101.50(3)
_cell_angle_gamma                90
_cell_volume                     414.866
_cell_formula_units_Z            2
loop_
_atom_site_label
_atom_site_type_symbol
_atom_site_fract_x
_atom_site_fract_y
_atom_site_fract_z
O1 O 0.4537(9) 0.2500 0.3261(4)
C1 C 0.1791(10) 0.2500 0.4600(5)
N1 N -0.0501(9) 0.2500 0.4755(5)
N2 N -0.0562(10) 0.2500 0.5930(5)
H1 H -0.1839 0.2500 0.6243
F1 F 0.0450(9) 0.2500 0.8357(4)
C2 C 0.2465(14) 0.2500 0.3426(6)
O2 O 0.0479(9) 0.2500 0.2545(5)
C3 C 0.2405(14) 0.2500 0.7747(7)
C4 C 0.3317(11) 0.2500 0.5672(6)
H2 H 0.5015 0.2500 0.5836
C5 C 0.1714(11) 0.2500 0.6494(6)
C6 C 0.0879(19) 0.2500 0.1369(8)
H3 H -0.0657 0.2500 0.0815
H4 H 0.1790 0.3683 0.1247
F2 F 0.4949(12) 0.2500 0.9597(5)
C7 C 0.457(2) 0.2500 0.8464(8)
H5 H 0.5931 0.2500 0.8111
H4C H 0.1790 0.1317 0.1247
loop_
_geom_bond_atom_site_label_1
_geom_bond_atom_site_label_2
_geom_bond_site_symmetry_1
_geom_bond_site_symmetry_2
O1 C2 1_555 1_555
C1 N1 1_555 1_555
N1 N2 1_555 1_555
N2 H1 1_555 1_555
F1 C3 1_555 1_555
C2 C1 1_555 1_555
O2 C2 1_555 1_555
C3 C5 1_555 1_555
C4 C1 1_555 1_555
H2 C4 1_555 1_555
C5 N2 1_555 1_555
C6 O2 1_555 1_555
H3 C6 1_555 1_555
H4 C6 1_555 1_555
F2 C7 1_555 1_555
C7 C3 1_555 1_555
H5 C7 1_555 1_555
H4C C6 1_555 1_555
C4 C5 1_555 1_555

#END
