
#######################################################################
#
#                 Cambridge Crystallographic Data Centre
#                                CCDC 
#
#######################################################################
#
# If this CIF has been generated from an entry in the Cambridge 
# Structural Database, then it will include bibliographic, chemical, 
# crystal, experimental, refinement or atomic coordinate data resulting 
# from the CCDC's data processing and validation procedures.
#
#######################################################################

data_APUTOU
_chemical_formula_moiety         'C28 H32 N4 P4'
_chemical_name_systematic        
2,trans-4,cis-6,trans-8-Tetramethyl-2,4,6,8-tetraphenylcyclotetraphosphazene
_symmetry_cell_setting           triclinic
_symmetry_space_group_name_H-M   'P -1'
_symmetry_Int_Tables_number      2
_space_group_name_Hall           '-P 1'
loop_
_symmetry_equiv_pos_site_id
_symmetry_equiv_pos_as_xyz
1 x,y,z
2 -x,-y,-z
_cell_length_a                   9.2385(8)
_cell_length_b                   10.6957(8)
_cell_length_c                   16.4620(10)
_cell_angle_alpha                82.353(6)
_cell_angle_beta                 84.901(7)
_cell_angle_gamma                65.694(6)
_cell_volume                     1468.23
_exptl_crystal_colour            colorless
_exptl_crystal_description       plates
_chemical_melting_point          '143 deg.C'
_cell_formula_units_Z            2
_exptl_crystal_recrystallization_method 'ethyl acetate'
loop_
_atom_site_label
_atom_site_type_symbol
_atom_site_fract_x
_atom_site_fract_y
_atom_site_fract_z
P1 P 0.52061(8) 0.18155(7) 0.63089(4)
P2 P 0.60847(8) 0.10798(7) 0.80370(4)
P3 P 0.40309(8) 0.39260(7) 0.82871(4)
P4 P 0.43017(8) 0.46847(6) 0.65648(4)
N1 N 0.5630(3) 0.0912(2) 0.71712(14)
N2 N 0.5609(3) 0.2556(2) 0.83363(13)
N3 N 0.3332(2) 0.4656(2) 0.74144(13)
N4 N 0.5258(3) 0.3292(2) 0.61590(12)
C1 C 0.6535(4) 0.0834(3) 0.5539(2)
H1 H 0.6498 -0.0056 0.5577
H2 H 0.7598 0.0721 0.5624
H3 H 0.6218 0.1312 0.5006
C2 C 0.5334(4) 0.0050(3) 0.8757(2)
H4 H 0.5686 0.0012 0.9295
H5 H 0.5721 -0.0867 0.8598
H6 H 0.4193 0.0455 0.8764
C3 C 0.4474(4) 0.5077(3) 0.88195(19)
H7 H 0.3540 0.5915 0.8860
H8 H 0.5307 0.5282 0.8524
H9 H 0.4812 0.4649 0.9360
C4 C 0.2872(4) 0.5896(3) 0.58575(17)
H10 H 0.2386 0.6776 0.6069
H11 H 0.2071 0.5569 0.5789
H12 H 0.3398 0.5988 0.5337
C5 C 0.3289(3) 0.1904(3) 0.60645(15)
C6 C 0.2528(4) 0.1192(3) 0.6548(2)
H13 H 0.2988 0.0668 0.7028
C7 C 0.1087(4) 0.1241(4) 0.6334(3)
H14 H 0.0592 0.0747 0.6667
C8 C 0.0399(4) 0.2011(4) 0.5637(2)
H15 H -0.0568 0.2046 0.5492
C9 C 0.1122(4) 0.2729(4) 0.5152(2)
H16 H 0.0646 0.3255 0.4676
C10 C 0.2554(4) 0.2688(3) 0.53577(17)
H17 H 0.3033 0.3189 0.5020
C11 C 0.8218(3) 0.0232(2) 0.81407(16)
C12 C 0.9110(3) -0.0954(3) 0.77743(19)
H18 H 0.8617 -0.1297 0.7448
C13 C 1.0721(4) -0.1636(3) 0.7885(2)
H19 H 1.1299 -0.2448 0.7648
C14 C 1.1467(4) -0.1128(4) 0.8338(2)
H20 H 1.2559 -0.1579 0.8401
C15 C 1.0617(4) 0.0039(4) 0.8699(3)
H21 H 1.1127 0.0391 0.9010
C16 C 0.8999(4) 0.0706(4) 0.8608(2)
H22 H 0.8426 0.1495 0.8869
C17 C 0.2393(4) 0.3683(3) 0.88752(17)
C18 C 0.2537(5) 0.3157(4) 0.9688(2)
H23 H 0.3476 0.2944 0.9949
C19 C 0.1283(6) 0.2945(4) 1.0120(3)
H24 H 0.1395 0.2580 1.0667
C20 C -0.0086(6) 0.3259(4) 0.9760(3)
H25 H -0.0921 0.3118 1.0058
C21 C -0.0248(6) 0.3779(6) 0.8965(3)
H26 H -0.1195 0.3995 0.8712
C22 C 0.0996(4) 0.3993(4) 0.8523(2)
H27 H 0.0869 0.4355 0.7976
C23 C 0.5740(3) 0.5400(3) 0.66609(15)
C24 C 0.7333(4) 0.4562(3) 0.66517(19)
H28 H 0.7663 0.3647 0.6552
C25 C 0.8453(4) 0.5043(4) 0.6787(3)
H29 H 0.9526 0.4456 0.6779
C26 C 0.7986(5) 0.6382(4) 0.6933(3)
H30 H 0.8742 0.6703 0.7031
C27 C 0.6410(5) 0.7254(4) 0.6934(2)
H31 H 0.6100 0.8168 0.7031
C28 C 0.5272(4) 0.6780(3) 0.67922(19)
H32 H 0.4203 0.7378 0.6785
loop_
_geom_bond_atom_site_label_1
_geom_bond_atom_site_label_2
_geom_bond_site_symmetry_1
_geom_bond_site_symmetry_2
P1 N1 1_555 1_555
P2 N1 1_555 1_555
P3 N2 1_555 1_555
P4 N3 1_555 1_555
N2 P2 1_555 1_555
N3 P3 1_555 1_555
N4 P1 1_555 1_555
C1 P1 1_555 1_555
H1 C1 1_555 1_555
H2 C1 1_555 1_555
H3 C1 1_555 1_555
C2 P2 1_555 1_555
H4 C2 1_555 1_555
H5 C2 1_555 1_555
H6 C2 1_555 1_555
C3 P3 1_555 1_555
H7 C3 1_555 1_555
H8 C3 1_555 1_555
H9 C3 1_555 1_555
C4 P4 1_555 1_555
H10 C4 1_555 1_555
H11 C4 1_555 1_555
H12 C4 1_555 1_555
C5 P1 1_555 1_555
C6 C5 1_555 1_555
H13 C6 1_555 1_555
C7 C6 1_555 1_555
H14 C7 1_555 1_555
C8 C7 1_555 1_555
H15 C8 1_555 1_555
C9 C8 1_555 1_555
H16 C9 1_555 1_555
C10 C5 1_555 1_555
H17 C10 1_555 1_555
C11 P2 1_555 1_555
C12 C11 1_555 1_555
H18 C12 1_555 1_555
C13 C12 1_555 1_555
H19 C13 1_555 1_555
C14 C13 1_555 1_555
H20 C14 1_555 1_555
C15 C14 1_555 1_555
H21 C15 1_555 1_555
C16 C11 1_555 1_555
H22 C16 1_555 1_555
C17 P3 1_555 1_555
C18 C17 1_555 1_555
H23 C18 1_555 1_555
C19 C18 1_555 1_555
H24 C19 1_555 1_555
C20 C19 1_555 1_555
H25 C20 1_555 1_555
C21 C20 1_555 1_555
H26 C21 1_555 1_555
C22 C17 1_555 1_555
H27 C22 1_555 1_555
C23 P4 1_555 1_555
C24 C23 1_555 1_555
H28 C24 1_555 1_555
C25 C24 1_555 1_555
H29 C25 1_555 1_555
C26 C25 1_555 1_555
H30 C26 1_555 1_555
C27 C26 1_555 1_555
H31 C27 1_555 1_555
C28 C23 1_555 1_555
H32 C28 1_555 1_555
P4 N4 1_555 1_555
C9 C10 1_555 1_555
C15 C16 1_555 1_555
C21 C22 1_555 1_555
C27 C28 1_555 1_555

#END
