
#######################################################################
#
#                 Cambridge Crystallographic Data Centre
#                                CCDC 
#
#######################################################################
#
# If this CIF has been generated from an entry in the Cambridge 
# Structural Database, then it will include bibliographic, chemical, 
# crystal, experimental, refinement or atomic coordinate data resulting 
# from the CCDC's data processing and validation procedures.
#
#######################################################################

data_APUTIO
_chemical_formula_moiety         'C28 H32 N4 P4'
_chemical_name_systematic        
2,cis-4,trans-6,trans-8-Tetramethyl-2,4,6,8-tetraphenylcyclotetraphosphazene
_symmetry_cell_setting           orthorhombic
_symmetry_space_group_name_H-M   'P b c a'
_symmetry_Int_Tables_number      61
_space_group_name_Hall           '-P 2ac 2ab'
loop_
_symmetry_equiv_pos_site_id
_symmetry_equiv_pos_as_xyz
1 x,y,z
2 1/2+x,y,1/2-z
3 x,1/2-y,1/2+z
4 1/2-x,1/2+y,z
5 -x,-y,-z
6 1/2-x,-y,1/2+z
7 -x,1/2+y,1/2-z
8 1/2+x,1/2-y,-z
_cell_length_a                   13.738(1)
_cell_length_b                   10.766(1)
_cell_length_c                   19.522(2)
_cell_angle_alpha                90
_cell_angle_beta                 90
_cell_angle_gamma                90
_cell_volume                     2887.37
_exptl_crystal_colour            colorless
_exptl_crystal_description       plates
_chemical_melting_point          '163 deg.C'
_cell_formula_units_Z            4
_exptl_crystal_recrystallization_method 'ethyl acetate'
loop_
_atom_site_label
_atom_site_type_symbol
_atom_site_fract_x
_atom_site_fract_y
_atom_site_fract_z
P1 P 0.54851(5) -0.04069(6) 0.39830(3)
P2 P 0.46790(4) 0.17129(5) 0.47152(3)
N1 N 0.47904(17) 0.0751(2) 0.40997(10)
N2 N 0.58327(14) -0.12422(18) 0.46034(9)
C1 C 0.4879(2) -0.1339(3) 0.33442(14)
H1 H 0.4778 -0.0851 0.2939
H2 H 0.4263 -0.1614 0.3519
H3 H 0.5275 -0.2047 0.3235
C2 C 0.5817(2) 0.2456(3) 0.49053(17)
H4 H 0.6098 0.2770 0.4490
H5 H 0.6252 0.1864 0.5109
H6 H 0.5709 0.3129 0.5218
C3 C 0.66000(19) 0.0092(2) 0.35644(11)
C4 C 0.7452(2) -0.0565(3) 0.36378(14)
H7 H 0.7462 -0.1268 0.3914
C5 C 0.8292(2) -0.0196(4) 0.33085(16)
H8 H 0.8866 -0.0639 0.3370
C6 C 0.8275(3) 0.0836(4) 0.28874(18)
H9 H 0.8836 0.1079 0.2657
C7 C 0.7439(3) 0.1495(3) 0.28091(17)
H10 H 0.7430 0.2192 0.2527
C8 C 0.6602(3) 0.1134(3) 0.31463(15)
H11 H 0.6034 0.1594 0.3093
C9 C 0.39205(16) 0.2938(2) 0.43814(12)
C10 C 0.3883(2) 0.3161(3) 0.36806(13)
H12 H 0.4225 0.2651 0.3381
C11 C 0.3340(2) 0.4135(3) 0.34283(14)
H13 H 0.3324 0.4282 0.2959
C12 C 0.2822(2) 0.4890(3) 0.38613(14)
H14 H 0.2450 0.5538 0.3687
C13 C 0.2859(2) 0.4680(3) 0.45544(14)
H15 H 0.2517 0.5196 0.4851
C14 C 0.34004(18) 0.3709(2) 0.48137(13)
H16 H 0.3416 0.3572 0.5284
N2D N 0.41673(14) 0.12422(18) 0.53966(9)
P1D P 0.45149(5) 0.04069(6) 0.60170(3)
N1D N 0.52096(17) -0.0751(2) 0.59003(10)
P2D P 0.53210(4) -0.17129(5) 0.52848(3)
C2D C 0.4183(2) -0.2456(3) 0.50947(17)
H4D H 0.3902 -0.2770 0.5510
H5D H 0.3748 -0.1864 0.4891
H6D H 0.4291 -0.3129 0.4782
C9D C 0.60795(16) -0.2938(2) 0.56186(12)
C10D C 0.6117(2) -0.3161(3) 0.63194(13)
H12D H 0.5775 -0.2651 0.6619
C11D C 0.6660(2) -0.4135(3) 0.65717(14)
H13D H 0.6676 -0.4282 0.7041
C12D C 0.7178(2) -0.4890(3) 0.61387(14)
H14D H 0.7550 -0.5538 0.6313
C13D C 0.7141(2) -0.4680(3) 0.54456(14)
H15D H 0.7483 -0.5196 0.5149
C14D C 0.65996(18) -0.3709(2) 0.51863(13)
H16D H 0.6584 -0.3572 0.4716
C1D C 0.5121(2) 0.1339(3) 0.66558(14)
H1D H 0.5222 0.0851 0.7061
H2D H 0.5737 0.1614 0.6481
H3D H 0.4725 0.2047 0.6765
C3D C 0.34000(19) -0.0092(2) 0.64356(11)
C4D C 0.2548(2) 0.0565(3) 0.63622(14)
H7D H 0.2538 0.1268 0.6086
C5D C 0.1708(2) 0.0196(4) 0.66915(16)
H8D H 0.1134 0.0639 0.6630
C6D C 0.1725(3) -0.0836(4) 0.71126(18)
H9D H 0.1164 -0.1079 0.7343
C7D C 0.2561(3) -0.1495(3) 0.71909(17)
H10D H 0.2570 -0.2192 0.7473
C8D C 0.3398(3) -0.1134(3) 0.68537(15)
H11D H 0.3966 -0.1594 0.6907
loop_
_geom_bond_atom_site_label_1
_geom_bond_atom_site_label_2
_geom_bond_site_symmetry_1
_geom_bond_site_symmetry_2
P1 N1 1_555 1_555
P2 N1 1_555 1_555
N2 P1 1_555 1_555
C1 P1 1_555 1_555
H1 C1 1_555 1_555
H2 C1 1_555 1_555
H3 C1 1_555 1_555
C2 P2 1_555 1_555
H4 C2 1_555 1_555
H5 C2 1_555 1_555
H6 C2 1_555 1_555
C3 P1 1_555 1_555
C4 C3 1_555 1_555
H7 C4 1_555 1_555
C5 C4 1_555 1_555
H8 C5 1_555 1_555
C6 C5 1_555 1_555
H9 C6 1_555 1_555
C7 C6 1_555 1_555
H10 C7 1_555 1_555
C8 C3 1_555 1_555
H11 C8 1_555 1_555
C9 P2 1_555 1_555
C10 C9 1_555 1_555
H12 C10 1_555 1_555
C11 C10 1_555 1_555
H13 C11 1_555 1_555
C12 C11 1_555 1_555
H14 C12 1_555 1_555
C13 C12 1_555 1_555
H15 C13 1_555 1_555
C14 C9 1_555 1_555
H16 C14 1_555 1_555
N2D P2 1_555 1_555
P1D N2D 1_555 1_555
N1D P1D 1_555 1_555
P2D N2 1_555 1_555
C2D P2D 1_555 1_555
H4D C2D 1_555 1_555
H5D C2D 1_555 1_555
H6D C2D 1_555 1_555
C9D P2D 1_555 1_555
C10D C9D 1_555 1_555
H12D C10D 1_555 1_555
C11D C10D 1_555 1_555
H13D C11D 1_555 1_555
C12D C11D 1_555 1_555
H14D C12D 1_555 1_555
C13D C12D 1_555 1_555
H15D C13D 1_555 1_555
C14D C9D 1_555 1_555
H16D C14D 1_555 1_555
C1D P1D 1_555 1_555
H1D C1D 1_555 1_555
H2D C1D 1_555 1_555
H3D C1D 1_555 1_555
C3D P1D 1_555 1_555
C4D C3D 1_555 1_555
H7D C4D 1_555 1_555
C5D C4D 1_555 1_555
H8D C5D 1_555 1_555
C6D C5D 1_555 1_555
H9D C6D 1_555 1_555
C7D C6D 1_555 1_555
H10D C7D 1_555 1_555
C8D C3D 1_555 1_555
H11D C8D 1_555 1_555
C7 C8 1_555 1_555
C13 C14 1_555 1_555
N1D P2D 1_555 1_555
C13D C14D 1_555 1_555
C7D C8D 1_555 1_555

#END
