
#######################################################################
#
#                 Cambridge Crystallographic Data Centre
#                                CCDC 
#
#######################################################################
#
# If this CIF has been generated from an entry in the Cambridge 
# Structural Database, then it will include bibliographic, chemical, 
# crystal, experimental, refinement or atomic coordinate data resulting 
# from the CCDC's data processing and validation procedures.
#
#######################################################################

data_APUVEO
_chemical_formula_moiety         'C68 H72 N2 O4'
_chemical_name_systematic        
3,8-bis((4-((3,4-bis(hexyloxy)phenyl)ethynyl)phenyl)ethynyl)-1,10-phenanthroline
_symmetry_cell_setting           triclinic
_symmetry_space_group_name_H-M   'P -1'
_symmetry_Int_Tables_number      2
_space_group_name_Hall           '-P 1'
loop_
_symmetry_equiv_pos_site_id
_symmetry_equiv_pos_as_xyz
1 x,y,z
2 -x,-y,-z
_cell_length_a                   10.3183(4)
_cell_length_b                   17.5597(6)
_cell_length_c                   17.9247(6)
_cell_angle_alpha                118.281(2)
_cell_angle_beta                 100.373(2)
_cell_angle_gamma                94.895(2)
_cell_volume                     2758.18
_exptl_crystal_colour            yellow
_exptl_crystal_description       needle
_cell_formula_units_Z            2
loop_
_atom_site_label
_atom_site_type_symbol
_atom_site_fract_x
_atom_site_fract_y
_atom_site_fract_z
C1 C 0.3756(3) 0.20502(17) 0.08623(17)
H1 H 0.3350 0.2482 0.0811
C2 C 0.5151(3) 0.22436(16) 0.11727(17)
C3 C 0.5764(3) 0.16170(16) 0.12776(16)
H2 H 0.6690 0.1727 0.1493
C4 C 0.4972(3) 0.08139(16) 0.10563(16)
C5 C 0.3580(3) 0.06794(16) 0.07322(17)
C6 C 0.5544(3) 0.01284(16) 0.11410(16)
H3 H 0.6467 0.0221 0.1359
C7 C 0.4761(3) -0.06453(16) 0.09085(17)
H4 H 0.5153 -0.1078 0.0968
C8 C 0.3341(3) -0.08079(16) 0.05723(16)
C9 C 0.2729(3) -0.01487(16) 0.04811(16)
C10 C 0.2484(3) -0.16019(16) 0.03285(17)
H5 H 0.2840 -0.2052 0.0374
C11 C 0.1119(3) -0.17102(16) 0.00235(16)
C12 C 0.0618(3) -0.10172(16) -0.00474(17)
H6 H -0.0305 -0.1091 -0.0250
C13 C 0.0210(3) -0.24942(16) -0.01978(18)
C14 C -0.0552(3) -0.31492(17) -0.03930(18)
C15 C -0.1433(3) -0.39479(16) -0.06203(18)
C16 C -0.1418(4) -0.4236(2) -0.0017(2)
H7 H -0.0843 -0.3907 0.0540
C17 C -0.2263(4) -0.5016(2) -0.0247(2)
H8 H -0.2254 -0.5196 0.0165
C18 C -0.3121(3) -0.55328(17) -0.10803(18)
C19 C -0.3110(3) -0.52414(17) -0.16863(18)
H9 H -0.3662 -0.5577 -0.2250
C20 C -0.2288(3) -0.44639(17) -0.14516(18)
H10 H -0.2306 -0.4278 -0.1860
C21 C -0.4008(3) -0.63109(18) -0.12957(19)
C22 C -0.4836(3) -0.69530(17) -0.14932(18)
C23 C -0.5841(3) -0.76888(16) -0.17164(18)
C24 C -0.6609(3) -0.76567(17) -0.11423(18)
H11 H -0.6472 -0.7145 -0.0605
C25 C -0.7580(3) -0.83785(17) -0.13598(18)
H12 H -0.8079 -0.8345 -0.0965
C26 C -0.7808(3) -0.91384(16) -0.21492(17)
C27 C -0.7065(3) -0.91827(16) -0.27582(18)
C28 C -0.6100(3) -0.84665(16) -0.25391(18)
H13 H -0.5613 -0.8496 -0.2938
C29 C -0.9502(3) -0.98635(16) -0.18249(17)
H14 H -1.0081 -0.9440 -0.1758
H15 H -0.8932 -0.9686 -0.1254
C30 C -1.0339(3) -1.07817(16) -0.22195(17)
H16 H -1.0840 -1.0967 -0.2810
H17 H -1.0984 -1.0758 -0.1880
C31 C -0.9505(3) -1.14695(16) -0.22496(18)
H18 H -0.8908 -1.1249 -0.1676
H19 H -0.8955 -1.1561 -0.2659
C32 C -1.0388(3) -1.23505(16) -0.25256(18)
H20 H -1.0941 -1.2587 -0.3115
H21 H -1.0984 -1.2249 -0.2140
C33 C -0.9582(3) -1.30348(18) -0.25015(19)
H22 H -0.8984 -1.2780 -0.1922
H23 H -1.0201 -1.3538 -0.2595
C34 C -0.8751(3) -1.3359(2) -0.3176(2)
H24 H -0.9328 -1.3598 -0.3752
H25 H -0.8318 -1.3808 -0.3141
H26 H -0.8082 -1.2875 -0.3059
C35 C -0.6605(3) -1.00633(16) -0.41576(17)
H27 H -0.5650 -0.9914 -0.3881
H28 H -0.6804 -0.9682 -0.4397
C36 C -0.7004(3) -1.10228(17) -0.48732(18)
H29 H -0.7937 -1.1141 -0.5181
H30 H -0.6929 -1.1393 -0.4608
C37 C -0.6137(3) -1.12697(17) -0.55331(17)
H31 H -0.6236 -1.0914 -0.5813
H32 H -0.5200 -1.1133 -0.5223
C38 C -0.6511(3) -1.22460(17) -0.62368(18)
H33 H -0.7481 -1.2409 -0.6460
H34 H -0.6126 -1.2326 -0.6718
C39 C -0.6044(3) -1.28679(18) -0.59226(18)
H35 H -0.6314 -1.2727 -0.5388
H36 H -0.6495 -1.3467 -0.6359
C40 C -0.4546(3) -1.2829(2) -0.5751(2)
H37 H -0.4273 -1.2996 -0.6283
H38 H -0.4326 -1.3227 -0.5543
H39 H -0.4088 -1.2239 -0.5317
C41 C 0.5934(3) 0.30781(17) 0.13806(17)
C42 C 0.6561(3) 0.37528(16) 0.15335(18)
C43 C 0.7330(3) 0.45883(16) 0.17485(18)
C44 C 0.6737(3) 0.53186(18) 0.1978(2)
H40 H 0.5834 0.5268 0.1984
C45 C 0.7480(3) 0.61298(18) 0.2201(2)
H41 H 0.7072 0.6618 0.2364
C46 C 0.8811(3) 0.62184(16) 0.21811(17)
C47 C 0.9419(3) 0.54760(17) 0.19599(19)
H42 H 1.0321 0.5524 0.1951
C48 C 0.8688(3) 0.46851(17) 0.17575(19)
H43 H 0.9106 0.4204 0.1624
C49 C 0.9581(3) 0.70453(17) 0.23918(18)
C50 C 1.0243(3) 0.77309(16) 0.25566(17)
C51 C 1.1097(3) 0.85314(16) 0.27722(17)
C52 C 1.2089(3) 0.85009(15) 0.23325(16)
H44 H 1.2170 0.7966 0.1878
C53 C 1.2962(3) 0.92785(16) 0.25768(17)
H45 H 1.3618 0.9259 0.2277
C54 C 1.2865(3) 1.00785(15) 0.32585(16)
C55 C 1.1875(3) 1.01081(16) 0.37111(17)
C56 C 1.0990(3) 0.93431(16) 0.34601(17)
H46 H 1.0318 0.9366 0.3749
C57 C 1.4496(3) 1.08914(16) 0.29820(17)
H47 H 1.3951 1.0650 0.2390
H48 H 1.5173 1.0538 0.2969
C58 C 1.5161(3) 1.18319(16) 0.33314(17)
H49 H 1.5833 1.1837 0.3018
H50 H 1.5623 1.2082 0.3943
C59 C 1.4199(3) 1.24134(16) 0.32551(18)
H51 H 1.3566 1.2447 0.3604
H52 H 1.3693 1.2147 0.2650
C60 C 1.4923(3) 1.33412(16) 0.3557(2)
H53 H 1.5385 1.3617 0.4172
H54 H 1.5597 1.3302 0.3234
C61 C 1.3996(4) 1.39247(18) 0.3437(2)
H55 H 1.3489 1.3635 0.2830
H56 H 1.3361 1.4003 0.3794
C62 C 1.4769(4) 1.4822(2) 0.3689(3)
H57 H 1.5233 1.5124 0.4298
H58 H 1.4155 1.5163 0.3585
H59 H 1.5409 1.4747 0.3344
C63 C 1.0745(3) 1.10278(17) 0.47631(18)
H60 H 1.0775 1.0728 0.5100
H61 H 0.9908 1.0778 0.4312
C64 C 1.0845(3) 1.20102(17) 0.53541(18)
H62 H 1.1678 1.2247 0.5808
H63 H 1.0108 1.2101 0.5635
C65 C 1.0803(3) 1.25088(18) 0.48507(19)
H64 H 1.0061 1.2200 0.4331
H65 H 1.1626 1.2506 0.4660
C66 C 1.0642(3) 1.34633(18) 0.5379(2)
H66 H 1.1278 1.3745 0.5948
H67 H 1.0851 1.3779 0.5081
C67 C 0.9224(3) 1.35284(19) 0.5505(2)
H68 H 0.8580 1.3162 0.4943
H69 H 0.9071 1.3300 0.5887
C68 C 0.8979(4) 1.4465(2) 0.5894(2)
H70 H 0.9583 1.4825 0.6462
H71 H 0.8068 1.4465 0.5944
H72 H 0.9129 1.4695 0.5520
N1 N 0.1386(2) -0.02681(13) 0.01579(14)
N2 N 0.2962(2) 0.12999(13) 0.06344(14)
O1 O -0.86930(18) -0.98978(10) -0.24127(11)
O2 O -0.73788(19) -0.99627(11) -0.35331(12)
O3 O 1.36693(18) 1.08680(11) 0.35358(11)
O4 O 1.18682(19) 1.09284(11) 0.43772(12)
loop_
_geom_bond_atom_site_label_1
_geom_bond_atom_site_label_2
_geom_bond_site_symmetry_1
_geom_bond_site_symmetry_2
C1 H1 1_555 1_555
C2 C1 1_555 1_555
C3 C2 1_555 1_555
H2 C3 1_555 1_555
C4 C3 1_555 1_555
C5 C4 1_555 1_555
C6 C4 1_555 1_555
H3 C6 1_555 1_555
C7 C6 1_555 1_555
H4 C7 1_555 1_555
C8 C7 1_555 1_555
C9 C5 1_555 1_555
C10 C8 1_555 1_555
H5 C10 1_555 1_555
C11 C10 1_555 1_555
C12 C11 1_555 1_555
H6 C12 1_555 1_555
C13 C11 1_555 1_555
C14 C13 1_555 1_555
C15 C14 1_555 1_555
C16 C15 1_555 1_555
H7 C16 1_555 1_555
C17 C16 1_555 1_555
H8 C17 1_555 1_555
C18 C17 1_555 1_555
C19 C18 1_555 1_555
H9 C19 1_555 1_555
C20 C15 1_555 1_555
H10 C20 1_555 1_555
C21 C18 1_555 1_555
C22 C21 1_555 1_555
C23 C22 1_555 1_555
C24 C23 1_555 1_555
H11 C24 1_555 1_555
C25 C24 1_555 1_555
H12 C25 1_555 1_555
C26 C25 1_555 1_555
C27 C26 1_555 1_555
C28 C23 1_555 1_555
H13 C28 1_555 1_555
C29 H14 1_555 1_555
H15 C29 1_555 1_555
C30 C29 1_555 1_555
H16 C30 1_555 1_555
H17 C30 1_555 1_555
C31 C30 1_555 1_555
H18 C31 1_555 1_555
H19 C31 1_555 1_555
C32 C31 1_555 1_555
H20 C32 1_555 1_555
H21 C32 1_555 1_555
C33 C32 1_555 1_555
H22 C33 1_555 1_555
H23 C33 1_555 1_555
C34 C33 1_555 1_555
H24 C34 1_555 1_555
H25 C34 1_555 1_555
H26 C34 1_555 1_555
C35 H27 1_555 1_555
H28 C35 1_555 1_555
C36 C35 1_555 1_555
H29 C36 1_555 1_555
H30 C36 1_555 1_555
C37 C36 1_555 1_555
H31 C37 1_555 1_555
H32 C37 1_555 1_555
C38 C37 1_555 1_555
H33 C38 1_555 1_555
H34 C38 1_555 1_555
C39 C38 1_555 1_555
H35 C39 1_555 1_555
H36 C39 1_555 1_555
C40 C39 1_555 1_555
H37 C40 1_555 1_555
H38 C40 1_555 1_555
H39 C40 1_555 1_555
C41 C2 1_555 1_555
C42 C41 1_555 1_555
C43 C42 1_555 1_555
C44 C43 1_555 1_555
H40 C44 1_555 1_555
C45 C44 1_555 1_555
H41 C45 1_555 1_555
C46 C45 1_555 1_555
C47 C46 1_555 1_555
H42 C47 1_555 1_555
C48 C43 1_555 1_555
H43 C48 1_555 1_555
C49 C46 1_555 1_555
C50 C49 1_555 1_555
C51 C50 1_555 1_555
C52 C51 1_555 1_555
H44 C52 1_555 1_555
C53 C52 1_555 1_555
H45 C53 1_555 1_555
C54 C53 1_555 1_555
C55 C54 1_555 1_555
C56 C51 1_555 1_555
H46 C56 1_555 1_555
C57 H47 1_555 1_555
H48 C57 1_555 1_555
C58 C57 1_555 1_555
H49 C58 1_555 1_555
H50 C58 1_555 1_555
C59 C58 1_555 1_555
H51 C59 1_555 1_555
H52 C59 1_555 1_555
C60 C59 1_555 1_555
H53 C60 1_555 1_555
H54 C60 1_555 1_555
C61 C60 1_555 1_555
H55 C61 1_555 1_555
H56 C61 1_555 1_555
C62 C61 1_555 1_555
H57 C62 1_555 1_555
H58 C62 1_555 1_555
H59 C62 1_555 1_555
C63 H60 1_555 1_555
H61 C63 1_555 1_555
C64 C63 1_555 1_555
H62 C64 1_555 1_555
H63 C64 1_555 1_555
C65 C64 1_555 1_555
H64 C65 1_555 1_555
H65 C65 1_555 1_555
C66 C65 1_555 1_555
H66 C66 1_555 1_555
H67 C66 1_555 1_555
C67 C66 1_555 1_555
H68 C67 1_555 1_555
H69 C67 1_555 1_555
C68 C67 1_555 1_555
H70 C68 1_555 1_555
H71 C68 1_555 1_555
H72 C68 1_555 1_555
N1 C9 1_555 1_555
N2 C1 1_555 1_555
O1 C26 1_555 1_555
O2 C27 1_555 1_555
O3 C54 1_555 1_555
O4 C55 1_555 1_555
C5 N2 1_555 1_555
C8 C9 1_555 1_555
C12 N1 1_555 1_555
C19 C20 1_555 1_555
C27 C28 1_555 1_555
C29 O1 1_555 1_555
C35 O2 1_555 1_555
C47 C48 1_555 1_555
C55 C56 1_555 1_555
C57 O3 1_555 1_555
C63 O4 1_555 1_555

#END
