
#######################################################################
#
#                 Cambridge Crystallographic Data Centre
#                                CCDC 
#
#######################################################################
#
# If this CIF has been generated from an entry in the Cambridge 
# Structural Database, then it will include bibliographic, chemical, 
# crystal, experimental, refinement or atomic coordinate data resulting 
# from the CCDC's data processing and validation procedures.
#
#######################################################################

data_APUXOY
_chemical_formula_moiety         'C25 H28 F6 N2 O2'
_chemical_name_systematic        
(S)-5-((R)-1-(3,5-bis(trifluoromethyl)phenyl)ethoxymethyl)-(R)-2-t-butyl-3-methyl-5-phenyl-4-imidazolidin-4-one
_symmetry_cell_setting           orthorhombic
_symmetry_space_group_name_H-M   'P 21 21 21'
_symmetry_Int_Tables_number      19
_space_group_name_Hall           'P 2ac 2ab'
loop_
_symmetry_equiv_pos_site_id
_symmetry_equiv_pos_as_xyz
1 x,y,z
2 1/2-x,-y,1/2+z
3 1/2+x,1/2-y,-z
4 -x,1/2+y,1/2-z
_cell_length_a                   17.566(2)
_cell_length_b                   23.502(3)
_cell_length_c                   6.082(1)
_cell_angle_alpha                90
_cell_angle_beta                 90
_cell_angle_gamma                90
_cell_volume                     2510.87
_exptl_crystal_colour            colorless
_exptl_crystal_description       needle
_chemical_melting_point          '380.7-381.2 K'
_cell_formula_units_Z            4
_exptl_crystal_recrystallization_method pentane
loop_
_atom_site_label
_atom_site_type_symbol
_atom_site_fract_x
_atom_site_fract_y
_atom_site_fract_z
C1 C 0.3308(2) 0.3280(1) -0.5234(5)
N1 N 0.2563(1) 0.3245(1) -0.4743(4)
C2 C 0.2375(2) 0.3465(1) -0.2564(5)
N2 N 0.3114(1) 0.3626(1) -0.1641(4)
C3 C 0.3726(2) 0.3514(1) -0.3217(5)
O1 O 0.3600(1) 0.3122(1) -0.6960(4)
C4 C 0.2069(2) 0.2890(2) -0.6054(6)
C5 C 0.1818(2) 0.3978(1) -0.2578(5)
C6 C 0.2144(2) 0.4470(2) -0.3909(7)
C7 C 0.1716(2) 0.4162(2) -0.0190(6)
C8 C 0.1035(2) 0.3809(2) -0.3490(8)
C9 C 0.4222(2) 0.4033(1) -0.3630(5)
C10 C 0.4307(2) 0.4442(1) -0.2006(6)
C11 C 0.4804(2) 0.4892(2) -0.2277(8)
C12 C 0.5212(2) 0.4952(2) -0.4174(9)
C13 C 0.5126(3) 0.4558(2) -0.5811(9)
C14 C 0.4636(3) 0.4095(2) -0.5558(7)
C15 C 0.4250(2) 0.3039(1) -0.2373(6)
O2 O 0.3800(1) 0.2547(1) -0.2056(4)
C16 C 0.4105(2) 0.2137(1) -0.0604(6)
C17 C 0.4708(2) 0.1781(2) -0.1745(9)
C18 C 0.3444(2) 0.1779(1) 0.0227(6)
C19 C 0.2720(2) 0.1860(1) -0.0624(7)
C20 C 0.2116(2) 0.1535(1) 0.0180(7)
C21 C 0.2219(2) 0.1134(1) 0.1784(7)
C22 C 0.2952(2) 0.1054(1) 0.2625(7)
C23 C 0.3554(2) 0.1373(1) 0.1857(6)
C24 C 0.1334(2) 0.1655(2) -0.0747(10)
F1 F 0.0819(1) 0.1293(1) -0.0106(7)
F2 F 0.1326(2) 0.1637(2) -0.2919(7)
F3 F 0.1101(1) 0.2162(1) -0.0287(11)
C25 C 0.3085(3) 0.0617(2) 0.4359(8)
F4 F 0.2431(3) 0.0324(2) 0.4842(10)
F5 F 0.3532(3) 0.0220(2) 0.3735(9)
F6 F 0.3293(4) 0.0829(2) 0.6188(7)
H1 H 0.2083 0.3157 -0.1639
H2 H 0.3206 0.3405 -0.0301
H3 H 0.1688 0.2672 -0.5023
H4 H 0.2400 0.2595 -0.6931
H5 H 0.1762 0.3144 -0.7161
H6 H 0.1758 0.4811 -0.3895
H7 H 0.2662 0.4600 -0.3213
H8 H 0.2236 0.4337 -0.5536
H9 H 0.1342 0.4510 -0.0119
H10 H 0.1491 0.3823 0.0725
H11 H 0.2246 0.4280 0.0467
H12 H 0.0673 0.4165 -0.3477
H13 H 0.1096 0.3661 -0.5109
H14 H 0.0800 0.3486 -0.2508
H15 H 0.4004 0.4411 -0.0619
H16 H 0.4866 0.5177 -0.1070
H17 H 0.5569 0.5280 -0.4364
H18 H 0.5419 0.4602 -0.7211
H19 H 0.4583 0.3809 -0.6764
H20 H 0.4500 0.3162 -0.0878
H21 H 0.4678 0.2956 -0.3533
H22 H 0.4380 0.2332 0.0732
H23 H 0.4926 0.1480 -0.0637
H24 H 0.4465 0.1571 -0.3096
H25 H 0.5150 0.2046 -0.2291
H26 H 0.2631 0.2149 -0.1804
H27 H 0.1781 0.0904 0.2341
H28 H 0.4075 0.1312 0.2478
F7? F 0.3874(6) 0.0617(4) 0.5069(19)
F8? F 0.2944(8) 0.0154(3) 0.3977(16)
F9? F 0.2700(8) 0.0721(5) 0.6101(16)
loop_
_geom_bond_atom_site_label_1
_geom_bond_atom_site_label_2
_geom_bond_site_symmetry_1
_geom_bond_site_symmetry_2
C1 N1 1_555 1_555
N1 C2 1_555 1_555
C2 N2 1_555 1_555
N2 C3 1_555 1_555
C3 C1 1_555 1_555
O1 C1 1_555 1_555
C4 N1 1_555 1_555
C5 C2 1_555 1_555
C6 C5 1_555 1_555
C7 C5 1_555 1_555
C8 C5 1_555 1_555
C9 C3 1_555 1_555
C10 C9 1_555 1_555
C11 C10 1_555 1_555
C12 C11 1_555 1_555
C13 C12 1_555 1_555
C14 C9 1_555 1_555
C15 C3 1_555 1_555
O2 C15 1_555 1_555
C16 O2 1_555 1_555
C17 C16 1_555 1_555
C18 C16 1_555 1_555
C19 C18 1_555 1_555
C20 C19 1_555 1_555
C21 C20 1_555 1_555
C22 C21 1_555 1_555
C23 C18 1_555 1_555
C24 C20 1_555 1_555
F1 C24 1_555 1_555
F2 C24 1_555 1_555
F3 C24 1_555 1_555
C25 C22 1_555 1_555
F4 C25 1_555 1_555
F5 C25 1_555 1_555
F6 C25 1_555 1_555
H1 C2 1_555 1_555
H2 N2 1_555 1_555
H3 C4 1_555 1_555
H4 C4 1_555 1_555
H5 C4 1_555 1_555
H6 C6 1_555 1_555
H7 C6 1_555 1_555
H8 C6 1_555 1_555
H9 C7 1_555 1_555
H10 C7 1_555 1_555
H11 C7 1_555 1_555
H12 C8 1_555 1_555
H13 C8 1_555 1_555
H14 C8 1_555 1_555
H15 C10 1_555 1_555
H16 C11 1_555 1_555
H17 C12 1_555 1_555
H18 C13 1_555 1_555
H19 C14 1_555 1_555
H20 C15 1_555 1_555
H21 C15 1_555 1_555
H22 C16 1_555 1_555
H23 C17 1_555 1_555
H24 C17 1_555 1_555
H25 C17 1_555 1_555
H26 C19 1_555 1_555
H27 C21 1_555 1_555
H28 C23 1_555 1_555
C13 C14 1_555 1_555
C22 C23 1_555 1_555

#END
