
#######################################################################
#
#                 Cambridge Crystallographic Data Centre
#                                CCDC 
#
#######################################################################
#
# If this CIF has been generated from an entry in the Cambridge 
# Structural Database, then it will include bibliographic, chemical, 
# crystal, experimental, refinement or atomic coordinate data resulting 
# from the CCDC's data processing and validation procedures.
#
#######################################################################

data_APUYUH
_chemical_formula_moiety         'C29 H23 N3 O5'
_chemical_name_systematic        
'ethyl 3-(1,3-dioxo-1,3-dihydro-2H-isoindol-2-yl)-4-oxo-2-phenyl-4-(quinolin-8-ylamino)butanoate'
_symmetry_cell_setting           orthorhombic
_symmetry_space_group_name_H-M   'P 21 21 21'
_symmetry_Int_Tables_number      19
_space_group_name_Hall           'P 2ac 2ab'
loop_
_symmetry_equiv_pos_site_id
_symmetry_equiv_pos_as_xyz
1 x,y,z
2 1/2-x,-y,1/2+z
3 1/2+x,1/2-y,-z
4 -x,1/2+y,1/2-z
_cell_length_a                   7.7318(4)
_cell_length_b                   14.2451(8)
_cell_length_c                   21.9203(17)
_cell_angle_alpha                90
_cell_angle_beta                 90
_cell_angle_gamma                90
_cell_volume                     2414.31
_exptl_crystal_colour            colorless
_exptl_crystal_description       plate
_cell_formula_units_Z            4
loop_
_atom_site_label
_atom_site_type_symbol
_atom_site_fract_x
_atom_site_fract_y
_atom_site_fract_z
O1 O 0.3309(3) 0.43516(18) 0.77602(12)
O2 O 0.8357(3) 0.53109(18) 0.86502(11)
O3 O 0.5553(3) 0.53573(16) 0.99123(10)
O4 O 0.2222(3) 0.63467(17) 0.95263(11)
O5 O 0.4307(3) 0.74489(15) 0.96023(10)
N1 N 0.5624(3) 0.48191(19) 0.83548(12)
N2 N 0.5459(4) 0.38818(19) 0.95078(12)
H1 H 0.5407 0.3586 0.9156
N3 N 0.5525(5) 0.2034(2) 0.93282(14)
C1 C 0.6179(5) 0.4157(2) 0.67511(16)
H2 H 0.5128 0.3961 0.6566
C2 C 0.7721(5) 0.4174(3) 0.64288(17)
H3 H 0.7719 0.4004 0.6010
C3 C 0.9259(5) 0.4430(3) 0.67014(17)
H4 H 1.0295 0.4419 0.6468
C4 C 0.9326(5) 0.4707(2) 0.73147(17)
H5 H 1.0380 0.4887 0.7505
C5 C 0.7781(4) 0.4704(2) 0.76267(16)
C6 C 0.6241(4) 0.4439(2) 0.73554(15)
C7 C 0.4829(4) 0.4513(2) 0.78117(16)
C8 C 0.7405(4) 0.4987(2) 0.82646(15)
C9 C 0.4666(4) 0.5204(2) 0.88683(15)
H6 H 0.3436 0.5001 0.8821
C10 C 0.5303(4) 0.4829(2) 0.94847(16)
C11 C 0.5695(5) 0.3313(2) 1.00265(15)
C12 C 0.5899(6) 0.3647(3) 1.06098(16)
H7 H 0.5941 0.4303 1.0685
C13 C 0.6047(6) 0.3001(3) 1.10970(17)
H8 H 0.6204 0.3236 1.1499
C14 C 0.5971(5) 0.2062(3) 1.10112(17)
H9 H 0.6047 0.1649 1.1350
C15 C 0.5779(5) 0.1697(3) 1.04145(16)
C16 C 0.5674(4) 0.2328(2) 0.99200(15)
C17 C 0.5526(7) 0.1126(3) 0.92299(19)
H10 H 0.5470 0.0916 0.8819
C18 C 0.5603(6) 0.0445(3) 0.96908(19)
H11 H 0.5570 -0.0205 0.9593
C19 C 0.5724(5) 0.0734(3) 1.02795(18)
H12 H 0.5772 0.0285 1.0600
C20 C 0.4681(4) 0.6284(2) 0.88559(15)
H13 H 0.5898 0.6503 0.8916
C21 C 0.4046(5) 0.6642(2) 0.82425(15)
C22 C 0.2285(5) 0.6682(3) 0.81109(16)
H14 H 0.1461 0.6504 0.8411
C23 C 0.1733(5) 0.6984(3) 0.75405(18)
H15 H 0.0531 0.7024 0.7455
C24 C 0.2928(5) 0.7227(3) 0.70955(18)
H16 H 0.2547 0.7420 0.6703
C25 C 0.4663(5) 0.7187(3) 0.72251(17)
H17 H 0.5484 0.7354 0.6922
C26 C 0.5222(5) 0.6904(2) 0.77959(16)
H18 H 0.6426 0.6889 0.7883
C27 C 0.3587(4) 0.6669(2) 0.93686(15)
C28 C 0.3446(5) 0.7863(2) 1.01310(15)
H19 H 0.2191 0.7916 1.0049
H20 H 0.3906 0.8503 1.0203
C29 C 0.3734(5) 0.7267(3) 1.06942(16)
H21 H 0.3129 0.6667 1.0647
H22 H 0.3284 0.7597 1.1053
H23 H 0.4975 0.7152 1.0747
loop_
_geom_bond_atom_site_label_1
_geom_bond_atom_site_label_2
_geom_bond_site_symmetry_1
_geom_bond_site_symmetry_2
O1 C7 1_555 1_555
O2 C8 1_555 1_555
O3 C10 1_555 1_555
O4 C27 1_555 1_555
O5 C27 1_555 1_555
N1 C7 1_555 1_555
N2 H1 1_555 1_555
N3 C16 1_555 1_555
C1 H2 1_555 1_555
C2 C1 1_555 1_555
H3 C2 1_555 1_555
C3 C2 1_555 1_555
H4 C3 1_555 1_555
C4 C3 1_555 1_555
H5 C4 1_555 1_555
C5 C4 1_555 1_555
C6 C1 1_555 1_555
C7 C6 1_555 1_555
C8 N1 1_555 1_555
C9 N1 1_555 1_555
H6 C9 1_555 1_555
C10 N2 1_555 1_555
C11 N2 1_555 1_555
C12 C11 1_555 1_555
H7 C12 1_555 1_555
C13 C12 1_555 1_555
H8 C13 1_555 1_555
C14 C13 1_555 1_555
H9 C14 1_555 1_555
C15 C14 1_555 1_555
C16 C11 1_555 1_555
C17 N3 1_555 1_555
H10 C17 1_555 1_555
C18 C17 1_555 1_555
H11 C18 1_555 1_555
C19 C15 1_555 1_555
H12 C19 1_555 1_555
C20 C9 1_555 1_555
H13 C20 1_555 1_555
C21 C20 1_555 1_555
C22 C21 1_555 1_555
H14 C22 1_555 1_555
C23 C22 1_555 1_555
H15 C23 1_555 1_555
C24 C23 1_555 1_555
H16 C24 1_555 1_555
C25 C24 1_555 1_555
H17 C25 1_555 1_555
C26 C21 1_555 1_555
H18 C26 1_555 1_555
C27 C20 1_555 1_555
C28 O5 1_555 1_555
H19 C28 1_555 1_555
H20 C28 1_555 1_555
C29 C28 1_555 1_555
H21 C29 1_555 1_555
H22 C29 1_555 1_555
H23 C29 1_555 1_555
C5 C6 1_555 1_555
C5 C8 1_555 1_555
C9 C10 1_555 1_555
C15 C16 1_555 1_555
C18 C19 1_555 1_555
C25 C26 1_555 1_555

#END
