
#######################################################################
#
#                 Cambridge Crystallographic Data Centre
#                                CCDC 
#
#######################################################################
#
# If this CIF has been generated from an entry in the Cambridge 
# Structural Database, then it will include bibliographic, chemical, 
# crystal, experimental, refinement or atomic coordinate data resulting 
# from the CCDC's data processing and validation procedures.
#
#######################################################################

data_AQACEA
_chemical_compound_source        'Schisandra lancifolia'
_chemical_formula_moiety         'C30 H38 O10,H2 O1'
_chemical_name_systematic        'Lancifodilactone A monohydrate'
_chemical_properties_biological  
'traditionally used to treat fractures and reduce swelling'
_symmetry_cell_setting           monoclinic
_symmetry_space_group_name_H-M   'P 21'
_symmetry_Int_Tables_number      4
_space_group_name_Hall           'P 2yb'
loop_
_symmetry_equiv_pos_site_id
_symmetry_equiv_pos_as_xyz
1 x,y,z
2 -x,1/2+y,-z
_cell_length_a                   10.624(1)
_cell_length_b                   9.272(1)
_cell_length_c                   15.262(1)
_cell_angle_alpha                90
_cell_angle_beta                 109.23(1)
_cell_angle_gamma                90
_cell_volume                     1419.51
_exptl_crystal_colour            colorless
_exptl_crystal_description       needles
_chemical_melting_point          '178-179 deg.C'
_cell_formula_units_Z            2
_exptl_crystal_recrystallization_method methanol
loop_
_atom_site_label
_atom_site_type_symbol
_atom_site_fract_x
_atom_site_fract_y
_atom_site_fract_z
O1 O 0.7478(4) 0.3560(5) 0.1070(3)
O2 O 0.6648(5) 0.5523(6) 0.1522(4)
O3 O 0.7186(4) 0.1362(6) 0.2357(3)
O4 O 0.8025(4) 0.3449(5) -0.0569(3)
O5 O 1.0071(5) 0.1677(6) 0.0114(3)
O6 O 0.7313(4) 0.4259(1) -0.2476(3)
O7 O 0.5467(5) 0.5633(7) -0.2872(4)
O8 O 0.6300(4) 0.0550(6) -0.3118(3)
O9 O 0.4282(5) 0.0889(7) -0.5012(4)
O10 O 0.2302(7) 0.1846(9) -0.5122(6)
C1 C 0.6256(7) 0.1723(9) 0.1469(5)
C2 C 0.5621(7) 0.3168(9) 0.1560(5)
C3 C 0.6600(7) 0.4263(9) 0.1408(5)
C4 C 0.8185(7) 0.0400(9) 0.2176(5)
C5 C 0.8382(6) 0.1108(8) 0.1277(5)
C6 C 0.8714(7) -0.0035(9) 0.0658(5)
C7 C 0.9087(7) 0.0518(9) -0.0160(5)
C8 C 0.7911(6) 0.0973(8) -0.1030(4)
C9 C 0.7079(6) 0.2260(8) -0.0889(5)
C10 C 0.7112(6) 0.2016(8) 0.0862(4)
C11 C 0.6004(6) 0.2701(9) -0.1798(5)
C12 C 0.6489(6) 0.2967(8) -0.2622(5)
C13 C 0.7294(6) 0.1695(8) -0.2759(5)
C14 C 0.8315(7) 0.1182(9) -0.1870(5)
C15 C 0.9511(6) 0.0852(10) -0.1995(5)
C16 C 0.9398(6) 0.1049(10) -0.3002(5)
C17 C 0.8053(7) 0.1851(9) -0.3466(5)
C18 C 0.6370(6) 0.1929(8) -0.0166(5)
C19 C 0.7111(7) 0.1159(9) -0.4349(4)
C20 C 0.7750(8) 0.0588(11) -0.5053(5)
C21 C 0.6395(6) -0.0002(8) -0.3969(4)
C22 C 0.5019(7) -0.0418(9) -0.4609(5)
C23 C 0.4143(7) -0.1151(8) -0.4155(4)
C24 C 0.3055(7) -0.0370(10) -0.4280(5)
C25 C 0.3071(8) 0.0878(11) -0.4816(6)
C26 C 0.1864(9) -0.0635(14) -0.3952(7)
C27 C 0.9431(7) 0.0526(12) 0.3019(5)
C28 C 0.7641(8) -0.1110(11) 0.2052(6)
C29 C 0.6651(7) 0.5537(10) -0.2614(5)
C30 C 0.7615(8) 0.6792(10) -0.2401(6)
H1 H 0.819 0.377 0.005
H2 H 1.023 0.192 0.079
H3 H 0.551 0.089 0.118
H4 H 0.552 0.327 0.223
H5 H 0.464 0.327 0.103
H6 H 0.923 0.186 0.151
H7 H 0.783 -0.071 0.038
H8 H 0.952 -0.068 0.109
H9 H 0.957 -0.038 -0.039
H10 H 0.722 0.008 -0.118
H11 H 0.527 0.184 -0.197
H12 H 0.553 0.368 -0.167
H13 H 0.562 0.310 -0.324
H14 H 1.039 0.051 -0.146
H15 H 1.024 0.169 -0.306
H16 H 0.940 0.002 -0.334
H17 H 0.821 0.300 -0.359
H18 H 0.600 0.083 -0.031
H19 H 0.553 0.266 -0.030
H20 H 0.637 0.195 -0.472
H21 H 0.699 0.021 -0.568
H22 H 0.839 -0.034 -0.475
H23 H 0.833 0.146 -0.519
H24 H 0.701 -0.097 -0.383
H25 H 0.512 -0.111 -0.516
H26 H 0.438 -0.217 -0.377
H27 H 0.186 -0.169 -0.368
H28 H 0.093 -0.039 -0.448
H29 H 0.202 0.016 -0.338
H30 H 1.017 0.099 0.276
H31 H 0.969 -0.058 0.322
H32 H 0.919 0.118 0.354
H33 H 0.829 -0.171 0.175
H34 H 0.666 -0.104 0.153
H35 H 0.764 -0.151 0.272
H36 H 0.865 0.644 -0.217
H37 H 0.746 0.751 -0.189
H38 H 0.740 0.736 -0.306
O11 O 0.2729(5) 0.1296(7) 0.0169(4)
H39 H 0.204 0.164 0.013
H40 H 0.280 0.086 0.065
loop_
_geom_bond_atom_site_label_1
_geom_bond_atom_site_label_2
_geom_bond_site_symmetry_1
_geom_bond_site_symmetry_2
O1 C3 1_555 1_555
O2 C3 1_555 1_555
O3 C1 1_555 1_555
O4 C9 1_555 1_555
O5 C7 1_555 1_555
O6 C12 1_555 1_555
O7 C29 1_555 1_555
O8 C13 1_555 1_555
O9 C22 1_555 1_555
O10 C25 1_555 1_555
C1 C2 1_555 1_555
C2 C3 1_555 1_555
C4 O3 1_555 1_555
C5 C4 1_555 1_555
C6 C5 1_555 1_555
C7 C6 1_555 1_555
C8 C7 1_555 1_555
C9 C8 1_555 1_555
C10 O1 1_555 1_555
C11 C9 1_555 1_555
C12 C11 1_555 1_555
C13 C12 1_555 1_555
C14 C8 1_555 1_555
C15 C14 1_555 1_555
C16 C15 1_555 1_555
C17 C13 1_555 1_555
C18 C9 1_555 1_555
C19 C17 1_555 1_555
C20 C19 1_555 1_555
C21 O8 1_555 1_555
C22 C21 1_555 1_555
C23 C22 1_555 1_555
C24 C23 1_555 1_555
C25 O9 1_555 1_555
C26 C24 1_555 1_555
C27 C4 1_555 1_555
C28 C4 1_555 1_555
C29 O6 1_555 1_555
C30 C29 1_555 1_555
O11 H39 1_555 1_555
H1 O4 1_555 1_555
H2 O5 1_555 1_555
H3 C1 1_555 1_555
H4 C2 1_555 1_555
H5 C2 1_555 1_555
H6 C5 1_555 1_555
H7 C6 1_555 1_555
H8 C6 1_555 1_555
H9 C7 1_555 1_555
H10 C8 1_555 1_555
H11 C11 1_555 1_555
H12 C11 1_555 1_555
H13 C12 1_555 1_555
H14 C15 1_555 1_555
H15 C16 1_555 1_555
H16 C16 1_555 1_555
H17 C17 1_555 1_555
H18 C18 1_555 1_555
H19 C18 1_555 1_555
H20 C19 1_555 1_555
H21 C20 1_555 1_555
H22 C20 1_555 1_555
H23 C20 1_555 1_555
H24 C21 1_555 1_555
H25 C22 1_555 1_555
H26 C23 1_555 1_555
H27 C26 1_555 1_555
H28 C26 1_555 1_555
H29 C26 1_555 1_555
H30 C27 1_555 1_555
H31 C27 1_555 1_555
H32 C27 1_555 1_555
H33 C28 1_555 1_555
H34 C28 1_555 1_555
H35 C28 1_555 1_555
H36 C30 1_555 1_555
H37 C30 1_555 1_555
H38 C30 1_555 1_555
H40 O11 1_555 1_555
C1 C10 1_555 1_555
C5 C10 1_555 1_555
C10 C18 1_555 1_555
C13 C14 1_555 1_555
C16 C17 1_555 1_555
C19 C21 1_555 1_555
C24 C25 1_555 1_555

#END
