
#######################################################################
#
#                 Cambridge Crystallographic Data Centre
#                                CCDC 
#
#######################################################################
#
# If this CIF has been generated from an entry in the Cambridge 
# Structural Database, then it will include bibliographic, chemical, 
# crystal, experimental, refinement or atomic coordinate data resulting 
# from the CCDC's data processing and validation procedures.
#
#######################################################################

data_AQACAW
_chemical_compound_source        'Schisandra micrantha'
_chemical_formula_moiety         'C29 H36 O12,H2 O1'
_chemical_name_systematic        'Micrandilactone A monohydrate'
_chemical_properties_biological  
'traditional treatment for rheumatic lumbago and traumatic injuries'
_symmetry_cell_setting           orthorhombic
_symmetry_space_group_name_H-M   'P 21 21 21'
_symmetry_Int_Tables_number      19
_space_group_name_Hall           'P 2ac 2ab'
loop_
_symmetry_equiv_pos_site_id
_symmetry_equiv_pos_as_xyz
1 x,y,z
2 1/2-x,-y,1/2+z
3 1/2+x,1/2-y,-z
4 -x,1/2+y,1/2-z
_cell_length_a                   10.9000(2)
_cell_length_b                   15.5290(5)
_cell_length_c                   16.7270(5)
_cell_angle_alpha                90
_cell_angle_beta                 90
_cell_angle_gamma                90
_cell_volume                     2831.31
_exptl_crystal_colour            colorless
_exptl_crystal_description       prisms
_cell_formula_units_Z            4
loop_
_atom_site_label
_atom_site_type_symbol
_atom_site_fract_x
_atom_site_fract_y
_atom_site_fract_z
O1 O -0.8315(3) -0.4454(2) -0.0389(2)
O2 O -0.7871(47) -0.3987(3) 0.0835(2)
O3 O -0.5621(3) -0.4627(3) -0.1142(2)
O4 O -1.0383(4) -0.3737(2) -0.2704(2)
O5 O -1.0442(3) -0.5403(2) -0.0589(2)
O6 O -1.2577(4) -0.4596(3) -0.1957(2)
O7 O -1.1775(4) -0.7839(2) -0.0067(3)
O8 O -1.0605(3) -0.6269(2) 0.0777(2)
O9 O -1.3954(3) -0.5937(2) 0.0672(2)
O10 O -1.3376(4) -0.4347(2) 0.1082(2)
O11 O -1.3751(5) -0.2936(3) 0.1203(3)
O12 O -1.1690(3) -0.4245(2) -0.0324(2)
C1 C -0.6438(5) -0.5195(3) -0.0730(3)
C2 C -0.6443(6) -0.4983(4) 0.0159(3)
C3 C -0.7567(6) -0.4416(4) 0.0265(3)
C4 C -0.6125(5) -0.4489(4) -0.1943(3)
C5 C -0.7508(5) -0.4349(3) -0.1751(3)
C6 C -0.8419(5) -0.4407(4) -0.2440(3)
C7 C -0.9724(5) -0.4236(3) -0.2121(3)
C8 C -1.0429(5) -0.5082(3) -0.1978(3)
C9 C -0.9918(4) -0.5706(3) -0.1349(3)
C10 C -0.7756(5) -0.4962(3) -0.1041(3)
C11 C -1.0388(5) -0.6631(3) -0.1483(3)
C12 C -1.1794(5) -0.6747(3) -0.1524(3)
C13 C -1.2561(5) -0.6579(3) -0.0755(3)
C14 C -1.2664(4) -0.5641(3) -0.0435(3)
C15 C -1.1630(5) -0.5048(3) -0.0714(3)
C16 C -1.1677(5) -0.4864(3) -0.1622(3)
C17 C -1.2020(5) -0.7086(3) -0.0046(3)
C18 C -1.3865(5) -0.6943(4) -0.0927(4)
C19 C -0.8525(5) -0.5766(3) -0.1200(3)
C20 C -1.1878(4) -0.6515(3) 0.0704(3)
C21 C -1.2180(5) -0.6992(3) 0.1470(3)
C22 C -1.2710(4) -0.5721(3) 0.0500(3)
C23 C -1.2300(5) -0.4906(3) 0.0949(3)
C24 C -1.1393(5) -0.4313(3) 0.0519(3)
C25 C -1.1666(6) -0.3429(4) 0.0879(3)
C26 C -1.3029(6) -0.3503(4) 0.1063(4)
C27 C -1.1287(8) -0.2647(4) 0.0362(4)
C28 C -0.5518(6) -0.3679(5) -0.2271(4)
C29 C -0.5851(6) -0.5274(5) -0.2469(4)
H1 H -1.080 -0.328 -0.237
H2 H -1.038 -0.613 0.025
H3 H -1.411 -0.592 0.122
H4 H -0.623 -0.588 -0.083
H5 H -0.650 -0.556 0.053
H6 H -0.561 -0.463 0.033
H7 H -0.759 -0.369 -0.151
H8 H -0.838 -0.505 -0.271
H9 H -0.820 -0.394 -0.291
H10 H -0.966 -0.389 -0.155
H11 H -1.054 -0.542 -0.255
H12 H -1.005 -0.704 -0.100
H13 H -0.999 -0.686 -0.204
H14 H -1.213 -0.630 -0.198
H15 H -1.199 -0.740 -0.172
H16 H -1.353 -0.537 -0.064
H17 H -1.424 -0.664 -0.146
H18 H -1.382 -0.763 -0.102
H19 H -1.441 -0.678 -0.040
H20 H -0.839 -0.619 -0.068
H21 H -0.812 -0.608 -0.171
H22 H -1.206 -0.657 0.198
H23 H -1.312 -0.721 0.145
H24 H -1.155 -0.753 0.149
H25 H -1.192 -0.510 0.152
H26 H -1.044 -0.452 0.062
H27 H -1.115 -0.338 0.144
H28 H -1.159 -0.205 0.063
H29 H -1.030 -0.262 0.028
H30 H -1.174 -0.274 -0.022
H31 H -0.580 -0.355 -0.288
H32 H -0.573 -0.312 -0.191
H33 H -0.454 -0.381 -0.225
H34 H -0.626 -0.585 -0.222
H35 H -0.621 -0.518 -0.307
H36 H -0.486 -0.533 -0.249
O13 O -1.1186(5) -0.2266(4) -0.1830(3)
H37 H -1.169 -0.192 -0.158
H38 H -1.054 -0.216 -0.158
loop_
_geom_bond_atom_site_label_1
_geom_bond_atom_site_label_2
_geom_bond_site_symmetry_1
_geom_bond_site_symmetry_2
O1 C3 1_555 1_555
O2 C3 1_555 1_555
O3 C1 1_555 1_555
O4 C7 1_555 1_555
O5 C9 1_555 1_555
O6 C16 1_555 1_555
O7 C17 1_555 1_555
O8 C20 1_555 1_555
O9 C22 1_555 1_555
O10 C23 1_555 1_555
O11 C26 1_555 1_555
O12 C15 1_555 1_555
C1 C2 1_555 1_555
C2 C3 1_555 1_555
C4 O3 1_555 1_555
C5 C4 1_555 1_555
C6 C5 1_555 1_555
C7 C6 1_555 1_555
C8 C7 1_555 1_555
C9 C8 1_555 1_555
C10 O1 1_555 1_555
C11 C9 1_555 1_555
C12 C11 1_555 1_555
C13 C12 1_555 1_555
C14 C13 1_555 1_555
C15 O5 1_555 1_555
C16 C8 1_555 1_555
C17 C13 1_555 1_555
C18 C13 1_555 1_555
C19 C9 1_555 1_555
C20 C17 1_555 1_555
C21 C20 1_555 1_555
C22 C14 1_555 1_555
C23 C22 1_555 1_555
C24 O12 1_555 1_555
C25 C24 1_555 1_555
C26 O10 1_555 1_555
C27 C25 1_555 1_555
C28 C4 1_555 1_555
C29 C4 1_555 1_555
O13 H37 1_555 1_555
H1 O4 1_555 1_555
H2 O8 1_555 1_555
H3 O9 1_555 1_555
H4 C1 1_555 1_555
H5 C2 1_555 1_555
H6 C2 1_555 1_555
H7 C5 1_555 1_555
H8 C6 1_555 1_555
H9 C6 1_555 1_555
H10 C7 1_555 1_555
H11 C8 1_555 1_555
H12 C11 1_555 1_555
H13 C11 1_555 1_555
H14 C12 1_555 1_555
H15 C12 1_555 1_555
H16 C14 1_555 1_555
H17 C18 1_555 1_555
H18 C18 1_555 1_555
H19 C18 1_555 1_555
H20 C19 1_555 1_555
H21 C19 1_555 1_555
H22 C21 1_555 1_555
H23 C21 1_555 1_555
H24 C21 1_555 1_555
H25 C23 1_555 1_555
H26 C24 1_555 1_555
H27 C25 1_555 1_555
H28 C27 1_555 1_555
H29 C27 1_555 1_555
H30 C27 1_555 1_555
H31 C28 1_555 1_555
H32 C28 1_555 1_555
H33 C28 1_555 1_555
H34 C29 1_555 1_555
H35 C29 1_555 1_555
H36 C29 1_555 1_555
H38 O13 1_555 1_555
C1 C10 1_555 1_555
C5 C10 1_555 1_555
C10 C19 1_555 1_555
C14 C15 1_555 1_555
C15 C16 1_555 1_555
C20 C22 1_555 1_555
C23 C24 1_555 1_555
C25 C26 1_555 1_555

#END
