
#######################################################################
#
#                 Cambridge Crystallographic Data Centre
#                                CCDC 
#
#######################################################################
#
# If this CIF has been generated from an entry in the Cambridge 
# Structural Database, then it will include bibliographic, chemical, 
# crystal, experimental, refinement or atomic coordinate data resulting 
# from the CCDC's data processing and validation procedures.
#
#######################################################################

data_AQAGOO
_chemical_formula_moiety         'C12 H22 N2 O1'
_chemical_name_systematic        N-Nitrosodicyclohexylamine
_symmetry_cell_setting           monoclinic
_symmetry_space_group_name_H-M   'P 21/n'
_symmetry_Int_Tables_number      14
_space_group_name_Hall           '-P 2yn'
loop_
_symmetry_equiv_pos_site_id
_symmetry_equiv_pos_as_xyz
1 x,y,z
2 1/2-x,1/2+y,1/2-z
3 -x,-y,-z
4 1/2+x,1/2-y,1/2+z
_cell_length_a                   5.762(4)
_cell_length_b                   19.53(2)
_cell_length_c                   10.835(9)
_cell_angle_alpha                90
_cell_angle_beta                 94.04(3)
_cell_angle_gamma                90
_cell_volume                     1216.25
_exptl_crystal_colour            colorless
_exptl_crystal_description       block
_cell_formula_units_Z            4
loop_
_atom_site_label
_atom_site_type_symbol
_atom_site_fract_x
_atom_site_fract_y
_atom_site_fract_z
O1 O 0.1315(3) 0.71326(8) 0.9304(1)
N1 N 0.2735(3) 0.75341(9) 0.7633(1)
N2 N 0.1661(3) 0.76487(10) 0.8661(2)
C1 C 0.3256(3) 0.8158(1) 0.6927(2)
C2 C 0.1050(4) 0.8513(1) 0.6412(2)
C3 C 0.1644(4) 0.9147(1) 0.5669(2)
C4 C 0.3188(4) 0.9637(1) 0.6434(2)
C5 C 0.5390(4) 0.9280(1) 0.6940(2)
C6 C 0.4837(4) 0.8644(1) 0.7689(2)
C7 C 0.3525(3) 0.6851(1) 0.7262(2)
C8 C 0.2688(4) 0.6681(1) 0.5922(2)
C9 C 0.3473(4) 0.5958(1) 0.5603(2)
C10 C 0.6093(4) 0.5871(1) 0.5834(2)
C11 C 0.6918(4) 0.6059(1) 0.7162(2)
C12 C 0.6167(3) 0.6784(1) 0.7475(2)
H1 H 0.4076 0.8016 0.6240
H2 H 0.0167 0.8205 0.5888
H3 H 0.0162 0.8647 0.7077
H4 H 0.2428 0.9007 0.4968
H5 H 0.0242 0.9376 0.5400
H6 H 0.3594 1.0011 0.5930
H7 H 0.2370 0.9803 0.7104
H8 H 0.6267 0.9147 0.6269
H9 H 0.6283 0.9588 0.7459
H10 H 0.4086 0.8781 0.8402
H11 H 0.6248 0.8414 0.7936
H12 H 0.2848 0.6525 0.7779
H13 H 0.1037 0.6706 0.5831
H14 H 0.3329 0.7001 0.5379
H15 H 0.2716 0.5638 0.6100
H16 H 0.3048 0.5870 0.4755
H17 H 0.6489 0.5407 0.5686
H18 H 0.6851 0.6159 0.5281
H19 H 0.6269 0.5745 0.7712
H20 H 0.8568 0.6031 0.7253
H21 H 0.6895 0.7101 0.6962
H22 H 0.6620 0.6878 0.8318
loop_
_geom_bond_atom_site_label_1
_geom_bond_atom_site_label_2
_geom_bond_site_symmetry_1
_geom_bond_site_symmetry_2
O1 N2 1_555 1_555
N1 N2 1_555 1_555
C1 N1 1_555 1_555
C2 C1 1_555 1_555
C3 C2 1_555 1_555
C4 C3 1_555 1_555
C5 C4 1_555 1_555
C6 C1 1_555 1_555
C7 N1 1_555 1_555
C8 C7 1_555 1_555
C9 C8 1_555 1_555
C10 C9 1_555 1_555
C11 C10 1_555 1_555
C12 C7 1_555 1_555
H1 C1 1_555 1_555
H2 C2 1_555 1_555
H3 C2 1_555 1_555
H4 C3 1_555 1_555
H5 C3 1_555 1_555
H6 C4 1_555 1_555
H7 C4 1_555 1_555
H8 C5 1_555 1_555
H9 C5 1_555 1_555
H10 C6 1_555 1_555
H11 C6 1_555 1_555
H12 C7 1_555 1_555
H13 C8 1_555 1_555
H14 C8 1_555 1_555
H15 C9 1_555 1_555
H16 C9 1_555 1_555
H17 C10 1_555 1_555
H18 C10 1_555 1_555
H19 C11 1_555 1_555
H20 C11 1_555 1_555
H21 C12 1_555 1_555
H22 C12 1_555 1_555
C5 C6 1_555 1_555
C11 C12 1_555 1_555

#END
