
#######################################################################
#
#                 Cambridge Crystallographic Data Centre
#                                CCDC 
#
#######################################################################
#
# If this CIF has been generated from an entry in the Cambridge 
# Structural Database, then it will include bibliographic, chemical, 
# crystal, experimental, refinement or atomic coordinate data resulting 
# from the CCDC's data processing and validation procedures.
#
#######################################################################

data_AQAWEW
_chemical_formula_moiety         'C28 H40 S4 Si4'
_chemical_name_systematic        
tristhieno[2',3':3,4;3'',2'':5,6;3''',2''':7,8]cycloocta[1,2-b]thiene-2,5,8,11-tetrayltetrakis(trimethylsilane)
_symmetry_cell_setting           monoclinic
_symmetry_space_group_name_H-M   'P 21/n'
_symmetry_Int_Tables_number      14
_space_group_name_Hall           '-P 2yn'
loop_
_symmetry_equiv_pos_site_id
_symmetry_equiv_pos_as_xyz
1 x,y,z
2 1/2-x,1/2+y,1/2-z
3 -x,-y,-z
4 1/2+x,1/2-y,1/2+z
_cell_length_a                   10.310(3)
_cell_length_b                   12.900(4)
_cell_length_c                   27.078(8)
_cell_angle_alpha                90
_cell_angle_beta                 94.648(7)
_cell_angle_gamma                90
_cell_volume                     3589.5
_exptl_crystal_colour            'light green'
_exptl_crystal_description       block
_cell_formula_units_Z            4
loop_
_atom_site_label
_atom_site_type_symbol
_atom_site_fract_x
_atom_site_fract_y
_atom_site_fract_z
Si1 Si 0.28924(10) 1.22267(8) 0.03546(4)
Si2 Si 0.20094(13) 0.59225(9) -0.09731(4)
Si3 Si 0.34915(12) 0.53661(10) 0.23982(4)
Si4 Si -0.35833(11) 0.91823(11) 0.16334(4)
S1 S 0.2871(3) 0.9864(3) 0.01805(9)
S2 S 0.1980(3) 0.5954(3) 0.01639(14)
S3 S 0.3116(5) 0.6024(3) 0.12831(18)
S4 S -0.1168(5) 0.7784(3) 0.16016(16)
C1 C 0.1419(11) 1.0518(8) 0.0772(4)
H1 H 0.1026 1.0970 0.0982
C2 C 0.1890(12) 0.7629(8) -0.0251(4)
H2 H 0.1835 0.8123 -0.0502
C3 C 0.1691(11) 0.6850(9) 0.1852(3)
H3 H 0.1306 0.7031 0.2139
C4 C -0.1175(14) 0.9368(8) 0.1121(5)
H4 H -0.1452 0.9987 0.0972
C5 C 0.1094(3) 0.9445(2) 0.07689(12)
C6 C 0.1858(3) 0.9013(2) 0.04335(12)
C7 C 0.1881(3) 0.7939(3) 0.02540(12)
C8 C 0.1947(3) 0.7046(2) 0.05186(13)
C9 C 0.2031(3) 0.6889(3) 0.10529(14)
C10 C 0.1273(3) 0.7320(2) 0.13944(12)
C11 C 0.0178(3) 0.8047(3) 0.13089(12)
C12 C 0.0096(3) 0.8948(3) 0.10460(12)
C13 C 0.2308(3) 1.0883(2) 0.04668(12)
C14 C 0.1983(3) 0.6595(3) -0.03649(13)
C15 C 0.2674(3) 0.6120(3) 0.18699(13)
C16 C -0.1956(3) 0.8840(3) 0.14158(13)
C17 C 0.3159(9) 1.2883(4) 0.0958(2)
H5 H 0.3466 1.3575 0.0910
H6 H 0.3794 1.2507 0.1166
H7 H 0.2355 1.2910 0.1113
C18 C 0.1652(5) 1.2913(3) -0.0048(2)
H8 H 0.1947 1.3604 -0.0109
H9 H 0.0854 1.2943 0.0111
H10 H 0.1508 1.2550 -0.0357
C19 C 0.4406(5) 1.2154(5) 0.0038(3)
H11 H 0.4715 1.2841 -0.0020
H12 H 0.4238 1.1801 -0.0273
H13 H 0.5053 1.1780 0.0242
C20 C 0.2341(7) 0.6907(5) -0.14393(19)
H14 H 0.2360 0.6583 -0.1758
H15 H 0.3166 0.7228 -0.1349
H16 H 0.1668 0.7424 -0.1454
C21 C 0.3374(6) 0.4984(4) -0.0926(2)
H17 H 0.3413 0.4634 -0.1237
H18 H 0.3238 0.4486 -0.0672
H19 H 0.4176 0.5346 -0.0845
C22 C 0.0468(6) 0.5206(5) -0.1107(2)
H20 H 0.0476 0.4865 -0.1421
H21 H -0.0249 0.5681 -0.1115
H22 H 0.0377 0.4698 -0.0852
C23 C 0.4556(7) 0.4392(6) 0.2164(2)
H23 H 0.4967 0.4004 0.2436
H24 H 0.5210 0.4725 0.1987
H25 H 0.4055 0.3931 0.1945
C24 C 0.4556(8) 0.6242(6) 0.2796(2)
H26 H 0.4975 0.5853 0.3066
H27 H 0.4039 0.6783 0.2924
H28 H 0.5203 0.6541 0.2604
C25 C 0.2281(6) 0.4820(7) 0.2770(3)
H29 H 0.2704 0.4429 0.3038
H30 H 0.1713 0.4373 0.2568
H31 H 0.1782 0.5369 0.2901
C26 C -0.4547(10) 0.8041(7) 0.1653(6)
H32 H -0.4582 0.7700 0.1337
H33 H -0.5412 0.8225 0.1728
H34 H -0.4168 0.7584 0.1905
C27 C -0.3317(6) 0.9827(8) 0.2237(2)
H35 H -0.4141 1.0007 0.2355
H36 H -0.2811 1.0444 0.2202
H37 H -0.2858 0.9368 0.2469
C28 C -0.4365(7) 1.0148(7) 0.1206(2)
H38 H -0.4529 0.9846 0.0883
H39 H -0.3801 1.0736 0.1186
H40 H -0.5173 1.0367 0.1325
C29? C 0.2759(12) 0.9833(11) 0.0068(5)
H41? H 0.3245 0.9761 -0.0205
C30? C 0.2221(15) 0.5858(14) 0.0216(6)
H42? H 0.2403 0.5176 0.0308
C31? C 0.3209(17) 0.5904(16) 0.1270(6)
H43? H 0.3814 0.5481 0.1131
C32? C -0.1161(14) 0.7699(12) 0.1642(6)
H44? H -0.1360 0.7154 0.1847
S5? S 0.1122(6) 1.0778(4) 0.0871(2)
S6? S 0.1889(7) 0.7922(4) -0.0398(2)
S7? S 0.1415(6) 0.6918(5) 0.20302(17)
S8? S -0.1271(7) 0.9714(5) 0.1050(3)
loop_
_geom_bond_atom_site_label_1
_geom_bond_atom_site_label_2
_geom_bond_site_symmetry_1
_geom_bond_site_symmetry_2
Si1 C13 1_555 1_555
Si2 C14 1_555 1_555
Si3 C15 1_555 1_555
Si4 C16 1_555 1_555
S1 C6 1_555 1_555
S2 C8 1_555 1_555
S3 C9 1_555 1_555
S4 C11 1_555 1_555
C1 H1 1_555 1_555
C2 H2 1_555 1_555
C3 H3 1_555 1_555
C4 H4 1_555 1_555
C5 C1 1_555 1_555
C6 C5 1_555 1_555
C7 C2 1_555 1_555
C8 C7 1_555 1_555
C9 C8 1_555 1_555
C10 C3 1_555 1_555
C11 C10 1_555 1_555
C12 C4 1_555 1_555
C13 S1 1_555 1_555
C14 S2 1_555 1_555
C15 S3 1_555 1_555
C16 S4 1_555 1_555
C17 Si1 1_555 1_555
H5 C17 1_555 1_555
H6 C17 1_555 1_555
H7 C17 1_555 1_555
C18 Si1 1_555 1_555
H8 C18 1_555 1_555
H9 C18 1_555 1_555
H10 C18 1_555 1_555
C19 Si1 1_555 1_555
H11 C19 1_555 1_555
H12 C19 1_555 1_555
H13 C19 1_555 1_555
C20 Si2 1_555 1_555
H14 C20 1_555 1_555
H15 C20 1_555 1_555
H16 C20 1_555 1_555
C21 Si2 1_555 1_555
H17 C21 1_555 1_555
H18 C21 1_555 1_555
H19 C21 1_555 1_555
C22 Si2 1_555 1_555
H20 C22 1_555 1_555
H21 C22 1_555 1_555
H22 C22 1_555 1_555
C23 Si3 1_555 1_555
H23 C23 1_555 1_555
H24 C23 1_555 1_555
H25 C23 1_555 1_555
C24 Si3 1_555 1_555
H26 C24 1_555 1_555
H27 C24 1_555 1_555
H28 C24 1_555 1_555
C25 Si3 1_555 1_555
H29 C25 1_555 1_555
H30 C25 1_555 1_555
H31 C25 1_555 1_555
C26 Si4 1_555 1_555
H32 C26 1_555 1_555
H33 C26 1_555 1_555
H34 C26 1_555 1_555
C27 Si4 1_555 1_555
H35 C27 1_555 1_555
H36 C27 1_555 1_555
H37 C27 1_555 1_555
C28 Si4 1_555 1_555
H38 C28 1_555 1_555
H39 C28 1_555 1_555
H40 C28 1_555 1_555
C1 C13 1_555 1_555
C2 C14 1_555 1_555
C3 C15 1_555 1_555
C4 C16 1_555 1_555
C5 C12 1_555 1_555
C6 C7 1_555 1_555
C9 C10 1_555 1_555
C11 C12 1_555 1_555

#END
