
#######################################################################
#
#                 Cambridge Crystallographic Data Centre
#                                CCDC 
#
#######################################################################
#
# If this CIF has been generated from an entry in the Cambridge 
# Structural Database, then it will include bibliographic, chemical, 
# crystal, experimental, refinement or atomic coordinate data resulting 
# from the CCDC's data processing and validation procedures.
#
#######################################################################

data_AQAWAS
_chemical_formula_moiety         'C28 H40 S4 Si4,H2 O1'
_chemical_name_systematic        
"tristhieno[2',3':3,4;2'',3'':5,6;3''',2''':7,8]cycloocta[1,2-b]thiene-2,5,8,11-tetrayltetrakis(trimethylsilane) monohydrate"
_symmetry_cell_setting           triclinic
_symmetry_space_group_name_H-M   'P -1'
_symmetry_Int_Tables_number      2
_space_group_name_Hall           '-P 1'
loop_
_symmetry_equiv_pos_site_id
_symmetry_equiv_pos_as_xyz
1 x,y,z
2 -x,-y,-z
_cell_length_a                   12.8830(10)
_cell_length_b                   12.9010(10)
_cell_length_c                   13.9980(11)
_cell_angle_alpha                113.8950(10)
_cell_angle_beta                 109.7700(10)
_cell_angle_gamma                93.7470(10)
_cell_volume                     1945.58
_exptl_crystal_colour            colorless
_exptl_crystal_description       block
_cell_formula_units_Z            2
loop_
_atom_site_label
_atom_site_type_symbol
_atom_site_fract_x
_atom_site_fract_y
_atom_site_fract_z
Si1 Si 0.27361(14) 0.62772(14) 0.08900(19)
Si2 Si 1.04648(13) 0.77125(15) 0.44547(12)
Si3 Si 0.84887(15) 0.81089(14) -0.20953(13)
Si4 Si 0.61671(13) 1.34259(11) 0.27554(14)
S1 S 0.5334(2) 0.6673(3) 0.1592(3)
S2 S 0.7951(3) 0.7698(5) 0.3381(4)
S3 S 0.8495(8) 0.7755(8) -0.0073(6)
S4 S 0.7143(3) 1.1479(3) 0.1515(3)
C1 C 0.4423(17) 0.825(2) 0.125(3)
H1 H 0.3878 0.8644 0.1044
C2 C 0.9226(12) 0.8243(19) 0.2519(15)
H2 H 0.9878 0.8440 0.2424
C3 C 0.7400(18) 0.9182(16) -0.0448(14)
H3 H 0.7037 0.9599 -0.0815
C4 C 0.580(2) 1.0918(15) 0.231(2)
H4 H 0.5354 1.0987 0.2716
C5 C 0.4134(4) 0.7166(4) 0.1257(4)
C6 C 0.9256(4) 0.7895(4) 0.3386(4)
C7 C 0.8068(4) 0.8414(4) -0.0871(4)
C8 C 0.6300(4) 1.1884(4) 0.2212(4)
C9 C 0.6175(4) 0.7915(3) 0.1814(3)
C10 C 0.7400(4) 0.8002(3) 0.2225(3)
C11 C 0.8148(3) 0.8265(3) 0.1826(4)
C12 C 0.7904(3) 0.8486(4) 0.0824(4)
C13 C 0.7330(3) 0.9263(3) 0.0592(3)
C14 C 0.6812(3) 1.0064(3) 0.1271(3)
C15 C 0.6070(3) 0.9819(4) 0.1700(3)
C16 C 0.5599(3) 0.8689(4) 0.1583(3)
C17 C 0.1746(7) 0.7236(10) 0.0925(12)
H5 H 0.1651 0.7475 0.0340
H6 H 0.2043 0.7912 0.1656
H7 H 0.1025 0.6825 0.0797
C18 C 0.2897(9) 0.5764(9) 0.2025(12)
H8 H 0.3082 0.6427 0.2748
H9 H 0.3492 0.5353 0.2078
H10 H 0.2197 0.5255 0.1819
C19 C 0.2273(11) 0.4959(9) -0.0456(10)
H11 H 0.2169 0.5167 -0.1062
H12 H 0.1569 0.4506 -0.0597
H13 H 0.2837 0.4509 -0.0421
C20 C 1.0134(13) 0.788(2) 0.5618(11)
H14 H 0.9482 0.7279 0.5366
H15 H 0.9971 0.8630 0.5939
H16 H 1.0767 0.7819 0.6185
C21 C 1.0794(8) 0.6348(8) 0.3728(8)
H17 H 1.0176 0.5714 0.3481
H18 H 1.1472 0.6277 0.4238
H19 H 1.0910 0.6326 0.3078
C22 C 1.1694(11) 0.8879(10) 0.4965(15)
H20 H 1.2333 0.8804 0.5516
H21 H 1.1526 0.9621 0.5312
H22 H 1.1871 0.8823 0.4334
C23 C 0.7664(11) 0.6789(11) -0.3238(9)
H23 H 0.7889 0.6638 -0.3861
H24 H 0.6880 0.6821 -0.3471
H25 H 0.7766 0.6177 -0.3017
C24 C 0.9935(10) 0.8092(17) -0.1684(10)
H26 H 1.0141 0.7929 -0.2320
H27 H 1.0070 0.7499 -0.1440
H28 H 1.0384 0.8838 -0.1069
C25 C 0.8726(13) 0.9325(9) -0.2234(10)
H29 H 0.8946 0.9154 -0.2862
H30 H 0.9322 0.9911 -0.1546
H31 H 0.8046 0.9607 -0.2373
C26 C 0.7540(7) 1.4411(6) 0.3356(11)
H32 H 0.7813 1.4281 0.2767
H33 H 0.8066 1.4272 0.3941
H34 H 0.7469 1.5203 0.3677
C27 C 0.5068(6) 1.3557(5) 0.1601(7)
H35 H 0.5297 1.3384 0.0979
H36 H 0.4960 1.4337 0.1873
H37 H 0.4369 1.3017 0.1345
C28 C 0.5780(11) 1.3752(8) 0.3996(9)
H38 H 0.5698 1.4541 0.4297
H39 H 0.6366 1.3655 0.4574
H40 H 0.5076 1.3228 0.3756
O1 O 0.4447(19) 0.959(2) 0.3891(19)
S5? S 0.4164(9) 0.8404(9) 0.1246(15)
S6? S 0.9563(5) 0.8207(7) 0.2421(6)
S7? S 0.7293(7) 0.9405(6) -0.0615(6)
S8? S 0.5547(9) 1.0970(6) 0.2429(11)
C29? C 0.5320(12) 0.7023(14) 0.1720(17)
H41? H 0.5497 0.6435 0.1926
C30? C 0.8092(15) 0.782(3) 0.314(2)
H42? H 0.7777 0.7648 0.3580
C31? C 0.835(3) 0.799(3) -0.004(2)
H43? H 0.8784 0.7444 -0.0047
C32? C 0.6903(19) 1.1251(14) 0.155(2)
H44? H 0.7343 1.1621 0.1325
O2? O 0.529(3) 0.905(3) 0.427(3)
O3? O 0.478(2) 0.841(2) 0.462(2)
loop_
_geom_bond_atom_site_label_1
_geom_bond_atom_site_label_2
_geom_bond_site_symmetry_1
_geom_bond_site_symmetry_2
Si1 C5 1_555 1_555
Si2 C6 1_555 1_555
Si3 C7 1_555 1_555
Si4 C8 1_555 1_555
S1 C5 1_555 1_555
S2 C6 1_555 1_555
S3 C7 1_555 1_555
S4 C8 1_555 1_555
C1 H1 1_555 1_555
C2 H2 1_555 1_555
C3 H3 1_555 1_555
C4 H4 1_555 1_555
C5 C1 1_555 1_555
C6 C2 1_555 1_555
C7 C3 1_555 1_555
C8 C4 1_555 1_555
C9 S1 1_555 1_555
C10 S2 1_555 1_555
C11 C2 1_555 1_555
C12 S3 1_555 1_555
C13 C3 1_555 1_555
C14 S4 1_555 1_555
C15 C4 1_555 1_555
C16 C1 1_555 1_555
C17 Si1 1_555 1_555
H5 C17 1_555 1_555
H6 C17 1_555 1_555
H7 C17 1_555 1_555
C18 Si1 1_555 1_555
H8 C18 1_555 1_555
H9 C18 1_555 1_555
H10 C18 1_555 1_555
C19 Si1 1_555 1_555
H11 C19 1_555 1_555
H12 C19 1_555 1_555
H13 C19 1_555 1_555
C20 Si2 1_555 1_555
H14 C20 1_555 1_555
H15 C20 1_555 1_555
H16 C20 1_555 1_555
C21 Si2 1_555 1_555
H17 C21 1_555 1_555
H18 C21 1_555 1_555
H19 C21 1_555 1_555
C22 Si2 1_555 1_555
H20 C22 1_555 1_555
H21 C22 1_555 1_555
H22 C22 1_555 1_555
C23 Si3 1_555 1_555
H23 C23 1_555 1_555
H24 C23 1_555 1_555
H25 C23 1_555 1_555
C24 Si3 1_555 1_555
H26 C24 1_555 1_555
H27 C24 1_555 1_555
H28 C24 1_555 1_555
C25 Si3 1_555 1_555
H29 C25 1_555 1_555
H30 C25 1_555 1_555
H31 C25 1_555 1_555
C26 Si4 1_555 1_555
H32 C26 1_555 1_555
H33 C26 1_555 1_555
H34 C26 1_555 1_555
C27 Si4 1_555 1_555
H35 C27 1_555 1_555
H36 C27 1_555 1_555
H37 C27 1_555 1_555
C28 Si4 1_555 1_555
H38 C28 1_555 1_555
H39 C28 1_555 1_555
H40 C28 1_555 1_555
C9 C10 1_555 1_555
C9 C16 1_555 1_555
C10 C11 1_555 1_555
C11 C12 1_555 1_555
C12 C13 1_555 1_555
C13 C14 1_555 1_555
C14 C15 1_555 1_555
C15 C16 1_555 1_555

#END
