
#######################################################################
#
#                 Cambridge Crystallographic Data Centre
#                                CCDC 
#
#######################################################################
#
# If this CIF has been generated from an entry in the Cambridge 
# Structural Database, then it will include bibliographic, chemical, 
# crystal, experimental, refinement or atomic coordinate data resulting 
# from the CCDC's data processing and validation procedures.
#
#######################################################################

data_AQEBOP
_chemical_formula_moiety         'C28 H40 S4 Si4,0.5(C1 H1 Cl3),0.5(H2 O1)'
_chemical_name_systematic        
"tristhieno[2',3':3,4;2'',3'':5,6;2''',3''':7,8]cycloocta[1,2-b]thiene-2,5,8,11-tetrayltetrakis(trimethylsilane) chloroform solvate hemihydrate"
_symmetry_cell_setting           orthorhombic
_symmetry_space_group_name_H-M   'P n a 21'
_symmetry_Int_Tables_number      33
_space_group_name_Hall           'P 2c -2n'
loop_
_symmetry_equiv_pos_site_id
_symmetry_equiv_pos_as_xyz
1 x,y,z
2 -x,-y,1/2+z
3 1/2+x,1/2-y,z
4 1/2-x,1/2+y,1/2+z
_cell_length_a                   12.877(2)
_cell_length_b                   17.258(3)
_cell_length_c                   18.330(4)
_cell_angle_alpha                90
_cell_angle_beta                 90
_cell_angle_gamma                90
_cell_volume                     4073.5
_exptl_crystal_colour            colorless
_exptl_crystal_description       rod
_cell_formula_units_Z            4
loop_
_atom_site_label
_atom_site_type_symbol
_atom_site_fract_x
_atom_site_fract_y
_atom_site_fract_z
S1 S 1.14138(13) 0.64980(9) 0.37556(12)
S2 S 1.14121(13) 0.35139(9) 0.37601(12)
S3 S 0.86526(15) 0.43384(11) 0.56170(11)
S4 S 0.76428(13) 0.57222(10) 0.32171(10)
Si1 Si 1.37133(15) 0.65026(11) 0.42792(15)
Si2 Si 1.06744(17) 0.17817(10) 0.38509(16)
Si3 Si 0.70389(17) 0.53196(15) 0.64843(11)
Si4 Si 0.77833(16) 0.65572(13) 0.17022(11)
C1 C 1.0651(4) 0.5678(3) 0.3744(3)
C2 C 1.1147(4) 0.5056(3) 0.4037(3)
C3 C 1.0702(4) 0.4269(3) 0.4090(3)
C4 C 0.9779(5) 0.4031(3) 0.4395(3)
C5 C 0.9038(4) 0.4550(3) 0.4734(3)
C6 C 0.8536(4) 0.5194(3) 0.4469(3)
C7 C 0.8698(4) 0.5516(3) 0.3746(3)
C8 C 0.9595(4) 0.5741(3) 0.3420(3)
C9 C 1.2444(5) 0.5998(3) 0.4135(4)
C10 C 1.2234(4) 0.5183(4) 0.4278(3)
H1 H 1.2685 0.4819 0.4477
C11 C 1.0484(5) 0.2837(3) 0.4035(4)
C12 C 0.9569(6) 0.3168(3) 0.4375(3)
H2 H 0.8984 0.2908 0.4544
C13 C 0.7799(5) 0.5107(4) 0.5638(3)
C14 C 0.7790(4) 0.5565(4) 0.4971(3)
H3 H 0.7393 0.6004 0.4880
C15 C 0.8390(4) 0.6138(4) 0.2539(3)
C16 C 0.9500(5) 0.6110(3) 0.2686(3)
H4 H 1.0035 0.6284 0.2387
C17 C 1.3452(13) 0.7483(8) 0.4525(13)
H5 H 1.3102 0.7496 0.4987
H6 H 1.3018 0.7717 0.4160
H7 H 1.4093 0.7764 0.4559
C18 C 1.4468(17) 0.5966(14) 0.4952(14)
H8 H 1.4088 0.5939 0.5402
H9 H 1.5117 0.6226 0.5034
H10 H 1.4598 0.5452 0.4775
C19 C 1.4474(13) 0.6476(12) 0.3405(11)
H11 H 1.5128 0.6732 0.3475
H12 H 1.4090 0.6736 0.3029
H13 H 1.4592 0.5947 0.3266
C20 C 1.1242(18) 0.1338(11) 0.4629(14)
H14 H 1.0751 0.1337 0.5023
H15 H 1.1850 0.1622 0.4772
H16 H 1.1431 0.0814 0.4514
C21 C 0.9487(12) 0.1345(8) 0.3560(12)
H17 H 0.8956 0.1442 0.3916
H18 H 0.9585 0.0797 0.3507
H19 H 0.9281 0.1563 0.3100
C22 C 1.1875(19) 0.1659(12) 0.3286(14)
H20 H 1.1987 0.1118 0.3192
H21 H 1.2461 0.1866 0.3545
H22 H 1.1794 0.1930 0.2832
C23 C 0.7767(9) 0.4948(9) 0.7256(6)
H23 H 0.7815 0.4394 0.7221
H24 H 0.7419 0.5086 0.7701
H25 H 0.8452 0.5168 0.7254
C24 C 0.5773(7) 0.4844(9) 0.6465(7)
H26 H 0.5867 0.4293 0.6456
H27 H 0.5400 0.5004 0.6036
H28 H 0.5385 0.4987 0.6892
C25 C 0.6875(13) 0.6429(7) 0.6479(9)
H29 H 0.7546 0.6671 0.6486
H30 H 0.6488 0.6586 0.6901
H31 H 0.6508 0.6583 0.6046
C26 C 0.6716(12) 0.7187(12) 0.1905(8)
H32 H 0.6959 0.7622 0.2183
H33 H 0.6204 0.6909 0.2182
H34 H 0.6411 0.7367 0.1458
C27 C 0.7284(15) 0.5701(11) 0.1149(11)
H35 H 0.6965 0.5886 0.0709
H36 H 0.6783 0.5419 0.1431
H37 H 0.7854 0.5365 0.1028
C28 C 0.8893(15) 0.7023(15) 0.1207(13)
H38 H 0.9144 0.7456 0.1485
H39 H 0.8662 0.7200 0.0737
H40 H 0.9442 0.6653 0.1145
C29 C 0.989(2) 0.3737(14) 0.1529(7)
H41 H 1.0472 0.4106 0.1543
Cl1 Cl 0.9396(9) 0.3875(9) 0.0731(5)
Cl2 Cl 0.9307(7) 0.3883(9) 0.2306(5)
Cl3 Cl 1.0464(9) 0.2904(8) 0.1632(9)
O1 O 0.2736(11) 0.1332(14) 0.1354(13)
loop_
_geom_bond_atom_site_label_1
_geom_bond_atom_site_label_2
_geom_bond_site_symmetry_1
_geom_bond_site_symmetry_2
S1 C1 1_555 1_555
S2 C3 1_555 1_555
S3 C5 1_555 1_555
S4 C7 1_555 1_555
Si1 C9 1_555 1_555
Si2 C11 1_555 1_555
Si3 C13 1_555 1_555
Si4 C15 1_555 1_555
C1 C2 1_555 1_555
C2 C3 1_555 1_555
C3 C4 1_555 1_555
C4 C5 1_555 1_555
C5 C6 1_555 1_555
C6 C7 1_555 1_555
C7 C8 1_555 1_555
C8 C1 1_555 1_555
C9 S1 1_555 1_555
C10 C2 1_555 1_555
H1 C10 1_555 1_555
C11 S2 1_555 1_555
C12 C4 1_555 1_555
H2 C12 1_555 1_555
C13 S3 1_555 1_555
C14 C6 1_555 1_555
H3 C14 1_555 1_555
C15 S4 1_555 1_555
C16 C8 1_555 1_555
H4 C16 1_555 1_555
C17 Si1 1_555 1_555
H5 C17 1_555 1_555
H6 C17 1_555 1_555
H7 C17 1_555 1_555
C18 Si1 1_555 1_555
H8 C18 1_555 1_555
H9 C18 1_555 1_555
H10 C18 1_555 1_555
C19 Si1 1_555 1_555
H11 C19 1_555 1_555
H12 C19 1_555 1_555
H13 C19 1_555 1_555
C20 Si2 1_555 1_555
H14 C20 1_555 1_555
H15 C20 1_555 1_555
H16 C20 1_555 1_555
C21 Si2 1_555 1_555
H17 C21 1_555 1_555
H18 C21 1_555 1_555
H19 C21 1_555 1_555
C22 Si2 1_555 1_555
H20 C22 1_555 1_555
H21 C22 1_555 1_555
H22 C22 1_555 1_555
C23 Si3 1_555 1_555
H23 C23 1_555 1_555
H24 C23 1_555 1_555
H25 C23 1_555 1_555
C24 Si3 1_555 1_555
H26 C24 1_555 1_555
H27 C24 1_555 1_555
H28 C24 1_555 1_555
C25 Si3 1_555 1_555
H29 C25 1_555 1_555
H30 C25 1_555 1_555
H31 C25 1_555 1_555
C26 Si4 1_555 1_555
H32 C26 1_555 1_555
H33 C26 1_555 1_555
H34 C26 1_555 1_555
C27 Si4 1_555 1_555
H35 C27 1_555 1_555
H36 C27 1_555 1_555
H37 C27 1_555 1_555
C28 Si4 1_555 1_555
H38 C28 1_555 1_555
H39 C28 1_555 1_555
H40 C28 1_555 1_555
C29 H41 1_555 1_555
Cl1 C29 1_555 1_555
Cl2 C29 1_555 1_555
Cl3 C29 1_555 1_555
C9 C10 1_555 1_555
C11 C12 1_555 1_555
C13 C14 1_555 1_555
C15 C16 1_555 1_555

#END
