
#######################################################################
#
#                 Cambridge Crystallographic Data Centre
#                                CCDC 
#
#######################################################################
#
# If this CIF has been generated from an entry in the Cambridge 
# Structural Database, then it will include bibliographic, chemical, 
# crystal, experimental, refinement or atomic coordinate data resulting 
# from the CCDC's data processing and validation procedures.
#
#######################################################################

data_AQEHOV
_chemical_formula_moiety         'C26 H34 B2 Br2 O4'
_chemical_name_systematic        
2,2'-(3,3'-bis(bromomethyl)biphenyl-4,4'-diyl)bis(4,4,5,5-tetramethyl-1,3,2-dioxaborolane)
_symmetry_cell_setting           monoclinic
_symmetry_space_group_name_H-M   'P 21/n'
_symmetry_Int_Tables_number      14
_space_group_name_Hall           '-P 2yn'
loop_
_symmetry_equiv_pos_site_id
_symmetry_equiv_pos_as_xyz
1 x,y,z
2 1/2-x,1/2+y,1/2-z
3 -x,-y,-z
4 1/2+x,1/2-y,1/2+z
_cell_length_a                   19.0571(3)
_cell_length_b                   26.6288(4)
_cell_length_c                   22.2563(4)
_cell_angle_alpha                90
_cell_angle_beta                 100.2067(16)
_cell_angle_gamma                90
_cell_volume                     11115.6
_exptl_crystal_colour            colorless
_exptl_crystal_description       plate
_cell_formula_units_Z            16
loop_
_atom_site_label
_atom_site_type_symbol
_atom_site_fract_x
_atom_site_fract_y
_atom_site_fract_z
Br1 Br 0.53277(3) 0.26487(2) 0.29259(3)
Br2 Br 0.87613(3) 0.47924(2) 0.04961(2)
O1 O 0.51349(19) 0.37636(13) 0.36460(15)
O2 O 0.49784(18) 0.44892(13) 0.30972(15)
O3 O 0.84724(17) 0.32122(14) -0.02574(15)
O4 O 0.95277(18) 0.34914(14) 0.02960(15)
C1 C 0.7026(2) 0.37308(18) 0.2137(2)
C2 C 0.6838(2) 0.33612(17) 0.2522(2)
H1 H 0.7065 0.3043 0.2538
C3 C 0.6324(3) 0.34486(18) 0.2885(2)
C4 C 0.5965(2) 0.39190(18) 0.2849(2)
C5 C 0.6167(3) 0.42846(18) 0.2470(2)
H2 H 0.5939 0.4603 0.2445
C6 C 0.6696(3) 0.41972(19) 0.2127(2)
H3 H 0.6833 0.4459 0.1882
C7 C 0.6175(3) 0.3044(2) 0.3307(2)
H4 H 0.6087 0.3195 0.3694
H5 H 0.6594 0.2820 0.3403
C8 C 0.4463(3) 0.3977(2) 0.3758(2)
C9 C 0.4521(3) 0.4533(2) 0.3557(2)
C10 C 0.3866(3) 0.3691(2) 0.3348(3)
H6 H 0.3909 0.3332 0.3443
H7 H 0.3902 0.3745 0.2920
H8 H 0.3403 0.3814 0.3421
C11 C 0.4410(3) 0.3902(2) 0.4420(3)
H9 H 0.4832 0.4046 0.4679
H10 H 0.4383 0.3542 0.4505
H11 H 0.3981 0.4070 0.4506
C12 C 0.3824(3) 0.4775(2) 0.3266(3)
H12 H 0.3626 0.4595 0.2890
H13 H 0.3908 0.5126 0.3170
H14 H 0.3486 0.4760 0.3551
C13 C 0.4927(3) 0.4863(2) 0.4060(2)
H15 H 0.4941 0.5209 0.3911
H16 H 0.5414 0.4737 0.4179
H17 H 0.4686 0.4857 0.4415
C14 C 0.7539(2) 0.36326(18) 0.1717(2)
C15 C 0.8048(2) 0.39908(18) 0.1629(2)
H18 H 0.8091 0.4289 0.1866
C16 C 0.8493(2) 0.39221(17) 0.1205(2)
C17 C 0.8409(2) 0.34921(18) 0.0822(2)
C18 C 0.7903(3) 0.31320(18) 0.0922(2)
H19 H 0.7845 0.2837 0.0677
C19 C 0.7485(3) 0.31953(18) 0.1370(2)
H20 H 0.7162 0.2939 0.1439
C20 C 0.9057(2) 0.43022(18) 0.1163(2)
H21 H 0.9494 0.4128 0.1093
H22 H 0.9173 0.4485 0.1556
C21 C 0.9023(3) 0.3086(2) -0.0618(2)
C22 C 0.9649(3) 0.34309(19) -0.0334(2)
C23 C 0.9173(3) 0.2528(2) -0.0511(3)
H23 H 0.8727 0.2339 -0.0613
H24 H 0.9382 0.2472 -0.0081
H25 H 0.9508 0.2414 -0.0770
C24 C 0.8721(3) 0.3182(3) -0.1291(2)
H26 H 0.8567 0.3533 -0.1345
H27 H 0.8313 0.2960 -0.1422
H28 H 0.9090 0.3115 -0.1536
C25 C 1.0380(3) 0.3202(2) -0.0321(3)
H29 H 1.0413 0.2883 -0.0096
H30 H 1.0746 0.3433 -0.0117
H31 H 1.0454 0.3140 -0.0739
C26 C 0.9617(4) 0.3952(2) -0.0612(3)
H32 H 0.9957 0.4172 -0.0353
H33 H 0.9134 0.4088 -0.0640
H34 H 0.9739 0.3934 -0.1021
B1 B 0.5357(3) 0.4048(2) 0.3213(2)
B2 B 0.8826(3) 0.3404(2) 0.0286(2)
Br3 Br -0.05857(3) 0.72964(2) 0.74787(3)
Br4 Br 0.28820(3) 0.52400(2) 0.50591(3)
O5 O -0.07369(19) 0.61781(13) 0.81876(15)
O6 O -0.08276(19) 0.54699(14) 0.76014(16)
O7 O 0.36004(18) 0.65526(14) 0.47827(15)
O8 O 0.25415(17) 0.68641(13) 0.42741(15)
C27 C 0.1204(2) 0.62836(18) 0.6709(2)
C28 C 0.0987(3) 0.66503(18) 0.7091(2)
H35 H 0.1185 0.6978 0.7100
C29 C 0.0485(2) 0.65415(18) 0.7459(2)
C30 C 0.0158(2) 0.60643(18) 0.7436(2)
C31 C 0.0405(3) 0.56981(18) 0.7066(2)
H36 H 0.0212 0.5369 0.7058
C32 C 0.0919(3) 0.58016(18) 0.6715(2)
H37 H 0.1078 0.5543 0.6478
C33 C 0.0295(3) 0.69429(19) 0.7871(2)
H38 H 0.0692 0.7187 0.7962
H39 H 0.0219 0.6792 0.8260
C34 C -0.1411(3) 0.5943(2) 0.8255(2)
C35 C -0.1323(3) 0.5401(2) 0.8024(2)
C36 C -0.1510(3) 0.5995(2) 0.8907(3)
H40 H -0.1109 0.5836 0.9177
H41 H -0.1956 0.5832 0.8960
H42 H -0.1529 0.6352 0.9011
C37 C -0.1993(3) 0.6235(3) 0.7836(3)
H43 H -0.1952 0.6593 0.7939
H44 H -0.2463 0.6112 0.7891
H45 H -0.1939 0.6188 0.7410
C38 C -0.0956(3) 0.5047(2) 0.8527(3)
H46 H -0.0809 0.4739 0.8341
H47 H -0.1289 0.4961 0.8800
H48 H -0.0536 0.5213 0.8761
C39 C -0.1995(3) 0.5159(2) 0.7681(3)
H49 H -0.2183 0.5361 0.7320
H50 H -0.2352 0.5139 0.7947
H51 H -0.1885 0.4820 0.7553
C40 C 0.1693(3) 0.63949(18) 0.6277(2)
C41 C 0.2219(2) 0.60510(18) 0.6185(2)
H52 H 0.2296 0.5759 0.6433
C42 C 0.2632(2) 0.61298(18) 0.5738(2)
C43 C 0.2520(2) 0.65527(18) 0.5353(2)
C44 C 0.2002(3) 0.68997(18) 0.5461(2)
H53 H 0.1921 0.7191 0.5212
C45 C 0.1604(3) 0.68298(18) 0.5923(2)
H54 H 0.1272 0.7078 0.5997
C46 C 0.3207(3) 0.57543(18) 0.5685(2)
H55 H 0.3359 0.5588 0.6085
H56 H 0.3625 0.5932 0.5580
C47 C 0.3692(3) 0.6626(2) 0.4145(2)
C48 C 0.3076(3) 0.69873(19) 0.3893(2)
C49 C 0.3632(3) 0.6108(2) 0.3854(3)
H57 H 0.3976 0.5881 0.4096
H58 H 0.3731 0.6131 0.3438
H59 H 0.3148 0.5978 0.3841
C50 C 0.4436(3) 0.6840(2) 0.4149(2)
H60 H 0.4499 0.7146 0.4397
H61 H 0.4493 0.6920 0.3730
H62 H 0.4795 0.6592 0.4322
C51 C 0.2740(3) 0.6904(3) 0.3228(2)
H63 H 0.2556 0.6560 0.3175
H64 H 0.3100 0.6955 0.2969
H65 H 0.2348 0.7142 0.3111
C52 C 0.3249(3) 0.7544(2) 0.4005(3)
H66 H 0.2809 0.7741 0.3910
H67 H 0.3582 0.7653 0.3743
H68 H 0.3466 0.7595 0.4434
B3 B -0.0474(3) 0.5910(2) 0.7755(2)
B4 B 0.2899(3) 0.6655(2) 0.4800(2)
Br5 Br 0.79285(3) 0.59963(2) 0.04186(3)
Br6 Br 0.62807(4) 0.59920(2) 0.41942(3)
O9 O 0.64401(19) 0.67684(15) -0.05109(16)
O10 O 0.53585(19) 0.67262(15) -0.02076(16)
O11 O 0.76139(18) 0.68429(14) 0.50513(15)
O12 O 0.87182(18) 0.67601(14) 0.48001(15)
C53 C 0.6934(3) 0.68491(17) 0.1939(2)
C54 C 0.7396(2) 0.67983(17) 0.1525(2)
H69 H 0.7893 0.6780 0.1677
C55 C 0.7161(2) 0.67735(17) 0.0896(2)
C56 C 0.6419(2) 0.67894(17) 0.0656(2)
C57 C 0.5960(3) 0.68436(18) 0.1077(2)
H70 H 0.5461 0.6858 0.0929
C58 C 0.6205(3) 0.68781(18) 0.1702(2)
H71 H 0.5874 0.6922 0.1970
C59 C 0.7705(3) 0.67161(18) 0.0495(2)
H72 H 0.8143 0.6902 0.0672
H73 H 0.7519 0.6858 0.0087
C60 C 0.5901(3) 0.6827(2) -0.1063(2)
C61 C 0.5226(3) 0.6614(2) -0.0855(2)
C62 C 0.5837(4) 0.7394(3) -0.1180(3)
H74 H 0.5650 0.7556 -0.0846
H75 H 0.5512 0.7455 -0.1566
H76 H 0.6308 0.7532 -0.1203
C63 C 0.6137(4) 0.6561(3) -0.1583(3)
H77 H 0.6542 0.6740 -0.1699
H78 H 0.5743 0.6551 -0.1932
H79 H 0.6281 0.6218 -0.1460
C64 C 0.4526(3) 0.6850(3) -0.1147(3)
H80 H 0.4132 0.6678 -0.1004
H81 H 0.4467 0.6820 -0.1592
H82 H 0.4525 0.7206 -0.1034
C65 C 0.5180(4) 0.6036(3) -0.0912(3)
H83 H 0.5649 0.5889 -0.0758
H84 H 0.5029 0.5944 -0.1341
H85 H 0.4833 0.5909 -0.0673
C66 C 0.7203(2) 0.68528(17) 0.2610(2)
C67 C 0.6722(2) 0.67988(18) 0.3015(2)
H86 H 0.6226 0.6773 0.2858
C68 C 0.6956(3) 0.67815(17) 0.3644(2)
C69 C 0.7686(3) 0.68142(18) 0.3895(2)
C70 C 0.8162(3) 0.68690(18) 0.3487(2)
H87 H 0.8659 0.6893 0.3643
C71 C 0.7925(3) 0.68891(18) 0.2855(2)
H88 H 0.8261 0.6928 0.2590
C72 C 0.6397(3) 0.67109(19) 0.4037(2)
H89 H 0.5938 0.6853 0.3828
H90 H 0.6541 0.6891 0.4428
C73 C 0.8095(3) 0.6741(2) 0.5622(2)
C74 C 0.8835(3) 0.6864(2) 0.5462(2)
C75 C 0.7998(4) 0.6185(2) 0.5759(3)
H91 H 0.7515 0.6129 0.5839
H92 H 0.8346 0.6087 0.6119
H93 H 0.8072 0.5983 0.5407
C76 C 0.7873(3) 0.7059(3) 0.6121(3)
H94 H 0.7857 0.7413 0.5999
H95 H 0.8219 0.7017 0.6500
H96 H 0.7401 0.6953 0.6188
C77 C 0.9438(3) 0.6550(3) 0.5779(3)
H97 H 0.9357 0.6198 0.5657
H98 H 0.9468 0.6580 0.6222
H99 H 0.9885 0.6666 0.5666
C78 C 0.9023(4) 0.7418(3) 0.5530(3)
H100 H 0.9413 0.7492 0.5310
H101 H 0.9172 0.7498 0.5963
H102 H 0.8604 0.7620 0.5360
B5 B 0.6083(3) 0.6757(2) -0.0027(3)
B6 B 0.8001(3) 0.6802(2) 0.4596(3)
Br7 Br 0.04684(3) 0.36438(2) 0.79151(3)
Br8 Br 0.54104(3) 0.35643(2) 0.75408(3)
O13 O -0.02279(18) 0.44398(14) 0.66906(15)
O14 O 0.03130(18) 0.43777(15) 0.58527(15)
O15 O 0.56509(18) 0.44137(16) 0.95149(16)
O16 O 0.61344(18) 0.44408(16) 0.86495(16)
C79 C 0.2584(2) 0.44802(16) 0.7542(2)
C80 C 0.1998(3) 0.44336(17) 0.7838(2)
H103 H 0.2079 0.4405 0.8270
C81 C 0.1299(2) 0.44287(17) 0.7519(2)
C82 C 0.1155(2) 0.44659(17) 0.6878(2)
C83 C 0.1747(3) 0.45199(18) 0.6587(2)
H104 H 0.1666 0.4548 0.6155
C84 C 0.2439(3) 0.45345(18) 0.6899(2)
H105 H 0.2820 0.4581 0.6682
C85 C 0.0713(3) 0.43664(18) 0.7885(2)
H106 H 0.0288 0.4560 0.7694
H107 H 0.0872 0.4496 0.8304
C86 C -0.0794(3) 0.4448(2) 0.6152(2)
C87 C -0.0427(3) 0.4218(2) 0.5657(2)
C88 C -0.1428(3) 0.4158(2) 0.6303(3)
H108 H -0.1598 0.4318 0.6647
H109 H -0.1283 0.3812 0.6413
H110 H -0.1812 0.4155 0.5946
C89 C -0.1001(3) 0.5003(2) 0.6033(3)
H111 H -0.0592 0.5189 0.5934
H112 H -0.1142 0.5148 0.6398
H113 H -0.1401 0.5026 0.5690
C90 C -0.0426(3) 0.3647(2) 0.5675(3)
H114 H -0.0299 0.3533 0.6099
H115 H -0.0076 0.3518 0.5439
H116 H -0.0901 0.3521 0.5499
C91 C -0.0689(3) 0.4404(2) 0.5015(2)
H117 H -0.0436 0.4228 0.4731
H118 H -0.0600 0.4766 0.4996
H119 H -0.1202 0.4340 0.4902
C92 C 0.3321(2) 0.44675(17) 0.7883(2)
C93 C 0.3893(2) 0.43803(17) 0.7578(2)
H120 H 0.3797 0.4320 0.7151
C94 C 0.4588(3) 0.43788(17) 0.7877(2)
C95 C 0.4755(2) 0.44569(17) 0.8511(2)
C96 C 0.4182(3) 0.45355(19) 0.8818(2)
H121 H 0.4277 0.4586 0.9247
C97 C 0.3482(3) 0.45414(19) 0.8514(2)
H122 H 0.3107 0.4596 0.8736
C98 C 0.5158(3) 0.42877(19) 0.7501(2)
H123 H 0.5585 0.4492 0.7661
H124 H 0.4983 0.4387 0.7072
C99 C 0.6397(3) 0.4280(3) 0.9689(3)
C100 C 0.6724(3) 0.4469(3) 0.9167(3)
C101 C 0.6669(3) 0.4440(4) 1.0319(3)
H125 H 0.6387 0.4282 1.0595
H126 H 0.6633 0.4806 1.0348
H127 H 0.7170 0.4339 1.0435
C102 C 0.6409(4) 0.3688(3) 0.9698(4)
H128 H 0.6328 0.3560 0.9279
H129 H 0.6033 0.3563 0.9909
H130 H 0.6874 0.3571 0.9914
C103 C 0.6929(4) 0.5027(3) 0.9253(4)
H131 H 0.6560 0.5206 0.9424
H132 H 0.6971 0.5174 0.8858
H133 H 0.7387 0.5056 0.9533
C104 C 0.7348(3) 0.4209(3) 0.9000(3)
H134 H 0.7485 0.4374 0.8645
H135 H 0.7226 0.3858 0.8902
H136 H 0.7748 0.4224 0.9344
B7 B 0.0404(3) 0.4430(2) 0.6479(2)
B8 B 0.5520(3) 0.4443(2) 0.8894(3)
loop_
_geom_bond_atom_site_label_1
_geom_bond_atom_site_label_2
_geom_bond_site_symmetry_1
_geom_bond_site_symmetry_2
Br1 C7 1_555 1_555
Br2 C20 1_555 1_555
O1 C8 1_555 1_555
O2 C9 1_555 1_555
O3 C21 1_555 1_555
O4 C22 1_555 1_555
C1 C2 1_555 1_555
C2 H1 1_555 1_555
C3 C2 1_555 1_555
C4 C3 1_555 1_555
C5 C4 1_555 1_555
H2 C5 1_555 1_555
C6 C1 1_555 1_555
H3 C6 1_555 1_555
C7 C3 1_555 1_555
H4 C7 1_555 1_555
H5 C7 1_555 1_555
C8 C9 1_555 1_555
C9 C12 1_555 1_555
C10 C8 1_555 1_555
H6 C10 1_555 1_555
H7 C10 1_555 1_555
H8 C10 1_555 1_555
C11 C8 1_555 1_555
H9 C11 1_555 1_555
H10 C11 1_555 1_555
H11 C11 1_555 1_555
C12 H12 1_555 1_555
H13 C12 1_555 1_555
H14 C12 1_555 1_555
C13 C9 1_555 1_555
H15 C13 1_555 1_555
H16 C13 1_555 1_555
H17 C13 1_555 1_555
C14 C1 1_555 1_555
C15 C14 1_555 1_555
H18 C15 1_555 1_555
C16 C15 1_555 1_555
C17 C16 1_555 1_555
C18 C17 1_555 1_555
H19 C18 1_555 1_555
C19 C14 1_555 1_555
H20 C19 1_555 1_555
C20 C16 1_555 1_555
H21 C20 1_555 1_555
H22 C20 1_555 1_555
C21 C22 1_555 1_555
C22 C25 1_555 1_555
C23 C21 1_555 1_555
H23 C23 1_555 1_555
H24 C23 1_555 1_555
H25 C23 1_555 1_555
C24 C21 1_555 1_555
H26 C24 1_555 1_555
H27 C24 1_555 1_555
H28 C24 1_555 1_555
C25 H29 1_555 1_555
H30 C25 1_555 1_555
H31 C25 1_555 1_555
C26 C22 1_555 1_555
H32 C26 1_555 1_555
H33 C26 1_555 1_555
H34 C26 1_555 1_555
B1 O1 1_555 1_555
B2 O3 1_555 1_555
Br3 C33 1_555 1_555
Br4 C46 1_555 1_555
O5 C34 1_555 1_555
O6 C35 1_555 1_555
O7 C47 1_555 1_555
O8 C48 1_555 1_555
C27 C28 1_555 1_555
C28 H35 1_555 1_555
C29 C28 1_555 1_555
C30 C29 1_555 1_555
C31 C30 1_555 1_555
H36 C31 1_555 1_555
C32 C27 1_555 1_555
H37 C32 1_555 1_555
C33 C29 1_555 1_555
H38 C33 1_555 1_555
H39 C33 1_555 1_555
C34 C35 1_555 1_555
C35 C38 1_555 1_555
C36 C34 1_555 1_555
H40 C36 1_555 1_555
H41 C36 1_555 1_555
H42 C36 1_555 1_555
C37 C34 1_555 1_555
H43 C37 1_555 1_555
H44 C37 1_555 1_555
H45 C37 1_555 1_555
C38 H46 1_555 1_555
H47 C38 1_555 1_555
H48 C38 1_555 1_555
C39 C35 1_555 1_555
H49 C39 1_555 1_555
H50 C39 1_555 1_555
H51 C39 1_555 1_555
C40 C27 1_555 1_555
C41 C40 1_555 1_555
H52 C41 1_555 1_555
C42 C41 1_555 1_555
C43 C42 1_555 1_555
C44 C43 1_555 1_555
H53 C44 1_555 1_555
C45 C40 1_555 1_555
H54 C45 1_555 1_555
C46 C42 1_555 1_555
H55 C46 1_555 1_555
H56 C46 1_555 1_555
C47 C48 1_555 1_555
C48 C51 1_555 1_555
C49 C47 1_555 1_555
H57 C49 1_555 1_555
H58 C49 1_555 1_555
H59 C49 1_555 1_555
C50 C47 1_555 1_555
H60 C50 1_555 1_555
H61 C50 1_555 1_555
H62 C50 1_555 1_555
C51 H63 1_555 1_555
H64 C51 1_555 1_555
H65 C51 1_555 1_555
C52 C48 1_555 1_555
H66 C52 1_555 1_555
H67 C52 1_555 1_555
H68 C52 1_555 1_555
B3 O5 1_555 1_555
B4 O7 1_555 1_555
Br5 C59 1_555 1_555
Br6 C72 1_555 1_555
O9 C60 1_555 1_555
O10 C61 1_555 1_555
O11 C73 1_555 1_555
O12 C74 1_555 1_555
C53 C54 1_555 1_555
C54 H69 1_555 1_555
C55 C54 1_555 1_555
C56 C55 1_555 1_555
C57 C56 1_555 1_555
H70 C57 1_555 1_555
C58 C53 1_555 1_555
H71 C58 1_555 1_555
C59 C55 1_555 1_555
H72 C59 1_555 1_555
H73 C59 1_555 1_555
C60 C61 1_555 1_555
C61 C64 1_555 1_555
C62 C60 1_555 1_555
H74 C62 1_555 1_555
H75 C62 1_555 1_555
H76 C62 1_555 1_555
C63 C60 1_555 1_555
H77 C63 1_555 1_555
H78 C63 1_555 1_555
H79 C63 1_555 1_555
C64 H80 1_555 1_555
H81 C64 1_555 1_555
H82 C64 1_555 1_555
C65 C61 1_555 1_555
H83 C65 1_555 1_555
H84 C65 1_555 1_555
H85 C65 1_555 1_555
C66 C53 1_555 1_555
C67 C66 1_555 1_555
H86 C67 1_555 1_555
C68 C67 1_555 1_555
C69 C68 1_555 1_555
C70 C69 1_555 1_555
H87 C70 1_555 1_555
C71 C66 1_555 1_555
H88 C71 1_555 1_555
C72 C68 1_555 1_555
H89 C72 1_555 1_555
H90 C72 1_555 1_555
C73 C74 1_555 1_555
C74 C77 1_555 1_555
C75 C73 1_555 1_555
H91 C75 1_555 1_555
H92 C75 1_555 1_555
H93 C75 1_555 1_555
C76 C73 1_555 1_555
H94 C76 1_555 1_555
H95 C76 1_555 1_555
H96 C76 1_555 1_555
C77 H97 1_555 1_555
H98 C77 1_555 1_555
H99 C77 1_555 1_555
C78 C74 1_555 1_555
H100 C78 1_555 1_555
H101 C78 1_555 1_555
H102 C78 1_555 1_555
B5 O9 1_555 1_555
B6 O11 1_555 1_555
Br7 C85 1_555 1_555
Br8 C98 1_555 1_555
O13 C86 1_555 1_555
O14 C87 1_555 1_555
O15 C99 1_555 1_555
O16 C100 1_555 1_555
C79 C80 1_555 1_555
C80 H103 1_555 1_555
C81 C80 1_555 1_555
C82 C81 1_555 1_555
C83 C82 1_555 1_555
H104 C83 1_555 1_555
C84 C79 1_555 1_555
H105 C84 1_555 1_555
C85 C81 1_555 1_555
H106 C85 1_555 1_555
H107 C85 1_555 1_555
C86 C87 1_555 1_555
C87 C90 1_555 1_555
C88 C86 1_555 1_555
H108 C88 1_555 1_555
H109 C88 1_555 1_555
H110 C88 1_555 1_555
C89 C86 1_555 1_555
H111 C89 1_555 1_555
H112 C89 1_555 1_555
H113 C89 1_555 1_555
C90 H114 1_555 1_555
H115 C90 1_555 1_555
H116 C90 1_555 1_555
C91 C87 1_555 1_555
H117 C91 1_555 1_555
H118 C91 1_555 1_555
H119 C91 1_555 1_555
C92 C79 1_555 1_555
C93 C92 1_555 1_555
H120 C93 1_555 1_555
C94 C93 1_555 1_555
C95 C94 1_555 1_555
C96 C95 1_555 1_555
H121 C96 1_555 1_555
C97 C92 1_555 1_555
H122 C97 1_555 1_555
C98 C94 1_555 1_555
H123 C98 1_555 1_555
H124 C98 1_555 1_555
C99 C100 1_555 1_555
C100 C103 1_555 1_555
C101 C99 1_555 1_555
H125 C101 1_555 1_555
H126 C101 1_555 1_555
H127 C101 1_555 1_555
C102 C99 1_555 1_555
H128 C102 1_555 1_555
H129 C102 1_555 1_555
H130 C102 1_555 1_555
C103 H131 1_555 1_555
H132 C103 1_555 1_555
H133 C103 1_555 1_555
C104 C100 1_555 1_555
H134 C104 1_555 1_555
H135 C104 1_555 1_555
H136 C104 1_555 1_555
B7 O13 1_555 1_555
B8 O15 1_555 1_555
O2 B1 1_555 1_555
O4 B2 1_555 1_555
C4 B1 1_555 1_555
C5 C6 1_555 1_555
C17 B2 1_555 1_555
C18 C19 1_555 1_555
O6 B3 1_555 1_555
O8 B4 1_555 1_555
C30 B3 1_555 1_555
C31 C32 1_555 1_555
C43 B4 1_555 1_555
C44 C45 1_555 1_555
O10 B5 1_555 1_555
O12 B6 1_555 1_555
C56 B5 1_555 1_555
C57 C58 1_555 1_555
C69 B6 1_555 1_555
C70 C71 1_555 1_555
O14 B7 1_555 1_555
O16 B8 1_555 1_555
C82 B7 1_555 1_555
C83 C84 1_555 1_555
C95 B8 1_555 1_555
C96 C97 1_555 1_555

#END
