
#######################################################################
#
#                 Cambridge Crystallographic Data Centre
#                                CCDC 
#
#######################################################################
#
# If this CIF has been generated from an entry in the Cambridge 
# Structural Database, then it will include bibliographic, chemical, 
# crystal, experimental, refinement or atomic coordinate data resulting 
# from the CCDC's data processing and validation procedures.
#
#######################################################################

data_AQEPES
_chemical_formula_moiety         'C11 H13 N1 O3'
_chemical_name_systematic        (E)-3-(3,4-Dihydroxyphenyl)-N-ethylacrylamide
_symmetry_cell_setting           monoclinic
_symmetry_space_group_name_H-M   'P 21/n'
_symmetry_Int_Tables_number      14
_space_group_name_Hall           '-P 2yn'
loop_
_symmetry_equiv_pos_site_id
_symmetry_equiv_pos_as_xyz
1 x,y,z
2 1/2-x,1/2+y,1/2-z
3 -x,-y,-z
4 1/2+x,1/2-y,1/2+z
_cell_length_a                   6.780(2)
_cell_length_b                   11.397(3)
_cell_length_c                   13.849(4)
_cell_angle_alpha                90
_cell_angle_beta                 96.743(4)
_cell_angle_gamma                90
_cell_volume                     1062.73
_exptl_crystal_colour            'pale yellow'
_exptl_crystal_description       block
_cell_formula_units_Z            4
_exptl_crystal_recrystallization_method ethanol
loop_
_atom_site_label
_atom_site_type_symbol
_atom_site_fract_x
_atom_site_fract_y
_atom_site_fract_z
N1 N 0.03274(17) 0.46001(10) 1.26263(8)
H1 H -0.0859 0.4861 1.2476
C1 C -0.1032(3) 0.3845(2) 1.40549(14)
H2 H -0.0727 0.3372 1.4627
H3 H -0.2140 0.3510 1.3653
H4 H -0.1362 0.4626 1.4241
C2 C 0.0730(2) 0.38869(15) 1.35012(11)
H5 H 0.1855 0.4212 1.3912
H6 H 0.1073 0.3096 1.3322
C3 C 0.16883(18) 0.48663(11) 1.20528(9)
C4 C 0.1076(2) 0.56451(12) 1.12269(9)
H7 H -0.0206 0.5949 1.1150
C5 C 0.2315(2) 0.59247(12) 1.05875(10)
H8 H 0.3557 0.5568 1.0681
C6 C 0.1980(2) 0.67215(11) 0.97546(10)
C7 C 0.3418(2) 0.67808(12) 0.91109(10)
H9 H 0.4528 0.6298 0.9215
C8 C 0.32412(19) 0.75344(12) 0.83244(10)
C9 C 0.15991(19) 0.82817(11) 0.81770(10)
C10 C 0.0156(2) 0.82262(13) 0.88062(11)
H10 H -0.0947 0.8715 0.8705
C11 C 0.0330(2) 0.74544(13) 0.95828(11)
H11 H -0.0661 0.7424 0.9993
O1 O 0.34345(13) 0.44807(8) 1.22254(7)
O2 O 0.46161(15) 0.76058(10) 0.76840(8)
H12 H 0.5240 0.6989 0.7691
O3 O 0.15183(14) 0.90369(9) 0.74037(7)
H13 H 0.0540 0.9461 0.7400
loop_
_geom_bond_atom_site_label_1
_geom_bond_atom_site_label_2
_geom_bond_site_symmetry_1
_geom_bond_site_symmetry_2
N1 H1 1_555 1_555
C1 H2 1_555 1_555
H3 C1 1_555 1_555
H4 C1 1_555 1_555
C2 N1 1_555 1_555
H5 C2 1_555 1_555
H6 C2 1_555 1_555
C3 N1 1_555 1_555
C4 C3 1_555 1_555
H7 C4 1_555 1_555
C5 C4 1_555 1_555
H8 C5 1_555 1_555
C6 C5 1_555 1_555
C7 C6 1_555 1_555
H9 C7 1_555 1_555
C8 C7 1_555 1_555
C9 C8 1_555 1_555
C10 C9 1_555 1_555
H10 C10 1_555 1_555
C11 C6 1_555 1_555
H11 C11 1_555 1_555
O1 C3 1_555 1_555
O2 C8 1_555 1_555
H12 O2 1_555 1_555
O3 C9 1_555 1_555
H13 O3 1_555 1_555
C1 C2 1_555 1_555
C10 C11 1_555 1_555

#END
