
#######################################################################
#
#                 Cambridge Crystallographic Data Centre
#                                CCDC 
#
#######################################################################
#
# If this CIF has been generated from an entry in the Cambridge 
# Structural Database, then it will include bibliographic, chemical, 
# crystal, experimental, refinement or atomic coordinate data resulting 
# from the CCDC's data processing and validation procedures.
#
#######################################################################

data_AQEQUK
_chemical_formula_moiety         'C19 H19 N3 O2'
_chemical_name_systematic        
7-(diethylamino)-3-((pyridin-2-ylimino)methyl)-2H-chromen-2-one
_symmetry_cell_setting           monoclinic
_symmetry_space_group_name_H-M   'P 21/c'
_symmetry_Int_Tables_number      14
_space_group_name_Hall           '-P 2ybc'
loop_
_symmetry_equiv_pos_site_id
_symmetry_equiv_pos_as_xyz
1 x,y,z
2 -x,1/2+y,1/2-z
3 -x,-y,-z
4 x,1/2-y,1/2+z
_cell_length_a                   7.9685(9)
_cell_length_b                   10.0372(13)
_cell_length_c                   20.628(3)
_cell_angle_alpha                90
_cell_angle_beta                 91.778(8)
_cell_angle_gamma                90
_cell_volume                     1649.06
_exptl_crystal_colour            red
_exptl_crystal_description       rod
_cell_formula_units_Z            4
loop_
_atom_site_label
_atom_site_type_symbol
_atom_site_fract_x
_atom_site_fract_y
_atom_site_fract_z
O1 O 0.1943(2) 0.89319(18) -0.05280(8)
O2 O 0.2418(3) 0.9796(2) -0.14829(9)
N1 N 0.4873(3) 1.4112(2) -0.17859(11)
N2 N 0.4018(3) 1.3397(2) -0.07371(10)
N3 N 0.0814(3) 0.6760(2) 0.14622(10)
C1 C 0.4891(4) 1.6440(3) -0.20400(15)
H1 H 0.5078 1.7107 -0.2342
C2 C 0.5116(4) 1.5125(3) -0.21937(13)
H2 H 0.5461 1.4924 -0.2609
C3 C 0.4372(3) 1.4424(3) -0.11890(13)
C4 C 0.3596(3) 1.2270(3) -0.09750(13)
H3 H 0.3616 1.2149 -0.1422
C5 C 0.3083(3) 1.1168(3) -0.05681(12)
C6 C 0.2486(3) 0.9988(3) -0.09022(14)
C7 C 0.1959(3) 0.8978(3) 0.01418(11)
C8 C 0.1392(3) 0.7874(3) 0.04535(12)
H4 H 0.1006 0.7143 0.0215
C9 C 0.1390(3) 0.7843(3) 0.11371(12)
C10 C 0.0042(4) 0.5622(3) 0.11256(14)
H5 H -0.0590 0.5946 0.0748
H6 H -0.0747 0.5205 0.1411
C11 C 0.1273(4) 0.4575(3) 0.09074(15)
H7 H 0.2011 0.4959 0.0599
H8 H 0.0668 0.3847 0.0709
H9 H 0.1919 0.4255 0.1276
C12 C -0.0503(4) 0.7242(3) 0.25144(14)
H10 H -0.0655 0.8152 0.2382
H11 H -0.0282 0.7208 0.2974
H12 H -0.1502 0.6744 0.2407
C13 C 0.0961(4) 0.6649(3) 0.21677(12)
H13 H 0.1983 0.7092 0.2317
H14 H 0.1060 0.5715 0.2283
C14 C 0.3097(3) 1.1202(3) 0.00912(12)
H15 H 0.3477 1.1968 0.0303
C15 C 0.2557(3) 1.0117(3) 0.04648(12)
C16 C 0.2542(4) 1.0076(3) 0.11479(12)
H16 H 0.2917 1.0814 0.1383
C17 C 0.1993(3) 0.8986(3) 0.14739(12)
H17 H 0.2014 0.8993 0.1925
C18 C 0.4379(4) 1.6745(3) -0.14268(15)
H18 H 0.4179 1.7625 -0.1312
C19 C 0.4164(4) 1.5734(3) -0.09827(14)
H19 H 0.3888 1.5922 -0.0558
loop_
_geom_bond_atom_site_label_1
_geom_bond_atom_site_label_2
_geom_bond_site_symmetry_1
_geom_bond_site_symmetry_2
O1 C6 1_555 1_555
O2 C6 1_555 1_555
N1 C2 1_555 1_555
N2 C3 1_555 1_555
N3 C9 1_555 1_555
C1 H1 1_555 1_555
C2 C1 1_555 1_555
H2 C2 1_555 1_555
C3 N1 1_555 1_555
C4 N2 1_555 1_555
H3 C4 1_555 1_555
C5 C4 1_555 1_555
C6 C5 1_555 1_555
C7 O1 1_555 1_555
C8 C7 1_555 1_555
H4 C8 1_555 1_555
C9 C8 1_555 1_555
C10 N3 1_555 1_555
H5 C10 1_555 1_555
H6 C10 1_555 1_555
C11 C10 1_555 1_555
H7 C11 1_555 1_555
H8 C11 1_555 1_555
H9 C11 1_555 1_555
C12 H10 1_555 1_555
H11 C12 1_555 1_555
H12 C12 1_555 1_555
C13 N3 1_555 1_555
H13 C13 1_555 1_555
H14 C13 1_555 1_555
C14 C5 1_555 1_555
H15 C14 1_555 1_555
C15 C7 1_555 1_555
C16 C15 1_555 1_555
H16 C16 1_555 1_555
C17 C9 1_555 1_555
H17 C17 1_555 1_555
C18 C1 1_555 1_555
H18 C18 1_555 1_555
C19 C3 1_555 1_555
H19 C19 1_555 1_555
C12 C13 1_555 1_555
C14 C15 1_555 1_555
C16 C17 1_555 1_555
C18 C19 1_555 1_555

#END
