
#######################################################################
#
#                 Cambridge Crystallographic Data Centre
#                                CCDC 
#
#######################################################################
#
# If this CIF has been generated from an entry in the Cambridge 
# Structural Database, then it will include bibliographic, chemical, 
# crystal, experimental, refinement or atomic coordinate data resulting 
# from the CCDC's data processing and validation procedures.
#
#######################################################################

data_AQEREU
_chemical_formula_moiety         'C17 H19 Br1 O4'
_chemical_name_systematic        
'Methyl 4-(4-bromophenyl)-8a-hydroxy-4a,5,6,7,8,8a-hexahydro-4H-chromene-2-carboxylate'
_symmetry_cell_setting           orthorhombic
_symmetry_space_group_name_H-M   'P 21 21 21'
_symmetry_Int_Tables_number      19
_space_group_name_Hall           'P 2ac 2ab'
loop_
_symmetry_equiv_pos_site_id
_symmetry_equiv_pos_as_xyz
1 x,y,z
2 1/2-x,-y,1/2+z
3 1/2+x,1/2-y,-z
4 -x,1/2+y,1/2-z
_cell_length_a                   7.5414(2)
_cell_length_b                   9.8212(2)
_cell_length_c                   20.9811(4)
_cell_angle_alpha                90
_cell_angle_beta                 90
_cell_angle_gamma                90
_cell_volume                     1553.98
_exptl_crystal_colour            colorless
_exptl_crystal_description       prism
_cell_formula_units_Z            4
loop_
_atom_site_label
_atom_site_type_symbol
_atom_site_fract_x
_atom_site_fract_y
_atom_site_fract_z
Br1 Br 1.22736(5) 0.62763(4) 0.756275(16)
O1 O 0.4239(3) 0.2798(2) 0.51986(11)
O2 O 0.2370(4) 0.4669(2) 0.53083(11)
H1 H 0.153(5) 0.442(6) 0.509(2)
O3 O 0.4411(4) 0.0187(3) 0.55652(12)
O4 O 0.4042(4) 0.0810(3) 0.65876(12)
C1 C 0.3995(5) 0.4243(4) 0.50536(18)
C2 C 0.4108(5) 0.4340(4) 0.43343(17)
H2 H 0.3135 0.3804 0.4141
H3 H 0.5247 0.3949 0.4188
C3 C 0.3973(6) 0.5818(4) 0.41155(17)
H4 H 0.4145 0.5863 0.3648
H5 H 0.2773 0.6171 0.4213
C4 C 0.5350(6) 0.6703(4) 0.44422(19)
H6 H 0.5150 0.7666 0.4323
H7 H 0.6546 0.6440 0.4291
C5 C 0.5274(6) 0.6565(4) 0.51692(17)
H8 H 0.6250 0.7099 0.5362
H9 H 0.4138 0.6942 0.5327
C6 C 0.5436(6) 0.5077(4) 0.53768(17)
H10 H 0.6612 0.4727 0.5230
C7 C 0.5348(5) 0.4923(4) 0.61077(17)
H11 H 0.4380 0.5521 0.6274
C8 C 0.4908(4) 0.3461(4) 0.62674(17)
H12 H 0.4956 0.3187 0.6701
C9 C 0.4458(5) 0.2541(4) 0.58341(17)
C10 C 0.4292(5) 0.1061(4) 0.59678(16)
C11 C 0.3939(7) -0.0603(4) 0.67735(19)
H13 H 0.2767 -0.0965 0.6663
H14 H 0.4123 -0.0680 0.7234
H15 H 0.4855 -0.1123 0.6549
C12 C 0.7067(5) 0.5316(3) 0.64310(15)
C13 C 0.8652(5) 0.4632(4) 0.62937(18)
H16 H 0.8665 0.3953 0.5971
C14 C 1.0190(5) 0.4924(4) 0.66181(17)
H17 H 1.1258 0.4454 0.6523
C15 C 1.0152(5) 0.5922(4) 0.70882(17)
C16 C 0.8630(5) 0.6626(4) 0.72264(18)
H18 H 0.8625 0.7308 0.7548
C17 C 0.7118(5) 0.6329(4) 0.68932(15)
H19 H 0.6069 0.6831 0.6981
loop_
_geom_bond_atom_site_label_1
_geom_bond_atom_site_label_2
_geom_bond_site_symmetry_1
_geom_bond_site_symmetry_2
Br1 C15 1_555 1_555
O1 C1 1_555 1_555
O2 H1 1_555 1_555
O3 C10 1_555 1_555
O4 C10 1_555 1_555
C1 O2 1_555 1_555
C2 C1 1_555 1_555
H2 C2 1_555 1_555
H3 C2 1_555 1_555
C3 C2 1_555 1_555
H4 C3 1_555 1_555
H5 C3 1_555 1_555
C4 C3 1_555 1_555
H6 C4 1_555 1_555
H7 C4 1_555 1_555
C5 C4 1_555 1_555
H8 C5 1_555 1_555
H9 C5 1_555 1_555
C6 C1 1_555 1_555
H10 C6 1_555 1_555
C7 C6 1_555 1_555
H11 C7 1_555 1_555
C8 C7 1_555 1_555
H12 C8 1_555 1_555
C9 O1 1_555 1_555
C10 C9 1_555 1_555
C11 O4 1_555 1_555
H13 C11 1_555 1_555
H14 C11 1_555 1_555
H15 C11 1_555 1_555
C12 C7 1_555 1_555
C13 C12 1_555 1_555
H16 C13 1_555 1_555
C14 C13 1_555 1_555
H17 C14 1_555 1_555
C15 C14 1_555 1_555
C16 C15 1_555 1_555
H18 C16 1_555 1_555
C17 C12 1_555 1_555
H19 C17 1_555 1_555
C5 C6 1_555 1_555
C8 C9 1_555 1_555
C16 C17 1_555 1_555

#END
