
#######################################################################
#
#                 Cambridge Crystallographic Data Centre
#                                CCDC 
#
#######################################################################
#
# If this CIF has been generated from an entry in the Cambridge 
# Structural Database, then it will include bibliographic, chemical, 
# crystal, experimental, refinement or atomic coordinate data resulting 
# from the CCDC's data processing and validation procedures.
#
#######################################################################

data_AQESEV
_chemical_formula_moiety         'C24 H30 Cl1 N2 O6 1+,Cl1 1-,C1 H4 O1'
_chemical_name_systematic        
'19-(Chloromethyl)-21,22-dihydroxy-2,3-dimethoxy-10-oxo-21,22-dihydrostrychnidin-19-ium chloride methanol solvate'
_symmetry_cell_setting           orthorhombic
_symmetry_space_group_name_H-M   'P 21 21 21'
_symmetry_Int_Tables_number      19
_space_group_name_Hall           'P 2ac 2ab'
loop_
_symmetry_equiv_pos_site_id
_symmetry_equiv_pos_as_xyz
1 x,y,z
2 1/2-x,-y,1/2+z
3 1/2+x,1/2-y,-z
4 -x,1/2+y,1/2-z
_cell_length_a                   7.8139(2)
_cell_length_b                   14.7225(3)
_cell_length_c                   21.7678(4)
_cell_angle_alpha                90
_cell_angle_beta                 90
_cell_angle_gamma                90
_cell_volume                     2504.17
_exptl_crystal_colour            colorless
_exptl_crystal_description       rod
_chemical_melting_point          147-149deg.C
_cell_formula_units_Z            4
_exptl_crystal_recrystallization_method dichloromethane/methanol
loop_
_atom_site_label
_atom_site_type_symbol
_atom_site_fract_x
_atom_site_fract_y
_atom_site_fract_z
C1 C 0.3728(2) 0.22000(12) 0.65724(7)
H1 H 0.2764 0.2521 0.6726
C2 C 0.3679(2) 0.12614(12) 0.65031(8)
O1 O 0.23322(16) 0.07192(8) 0.66625(6)
O2 O 0.49430(16) -0.01324(8) 0.62314(6)
C3 C 0.5124(2) 0.07926(12) 0.62748(7)
C4 C 0.6606(2) 0.12485(11) 0.61120(7)
H2 H 0.7574 0.0934 0.5956
C5 C 0.6617(2) 0.21939(12) 0.61869(7)
C6 C 0.5222(2) 0.26600(11) 0.64115(7)
C7 C 0.5669(2) 0.36547(11) 0.65178(7)
C8 C 0.7411(2) 0.37455(11) 0.61703(7)
H3 H 0.8259 0.4075 0.6432
N1 N 0.79833(18) 0.27947(9) 0.60677(6)
C9 C 0.9328(2) 0.26403(12) 0.56775(7)
O3 O 0.97239(16) 0.18829(9) 0.54932(6)
C10 C 1.0295(2) 0.34932(12) 0.55160(8)
H4 H 1.1121 0.3348 0.5185
H5 H 1.0961 0.3687 0.5880
C11 C 0.9179(2) 0.42962(12) 0.53039(8)
H6 H 0.9186 0.4323 0.4845
C12 C 0.7338(2) 0.41771(11) 0.55270(7)
H7 H 0.6854 0.3691 0.5258
C13 C 0.6097(2) 0.49757(12) 0.54570(7)
H8 H 0.6075 0.5148 0.5013
C14 C 0.4330(2) 0.45848(11) 0.56198(7)
H9 H 0.3434 0.5043 0.5534
H10 H 0.4097 0.4043 0.5364
C15 C 0.4286(2) 0.43243(11) 0.62943(7)
H11 H 0.3137 0.4058 0.6387
C16 C 0.5830(2) 0.38735(12) 0.72198(7)
H12 H 0.5357 0.3369 0.7468
H13 H 0.7045 0.3960 0.7333
C17 C 0.4819(2) 0.47437(11) 0.73357(7)
H14 H 0.3710 0.4606 0.7535
H15 H 0.5472 0.5163 0.7603
N2 N 0.45409(18) 0.51601(9) 0.67039(6)
C18 C 0.6130(2) 0.56826(12) 0.65259(8)
H16 H 0.7143 0.5343 0.6674
H17 H 0.6114 0.6275 0.6742
O4 O 0.50166(18) 0.64483(9) 0.56343(6)
H18 H 0.540(4) 0.689(2) 0.5579(13)
C19 C 0.6350(2) 0.58602(12) 0.58357(8)
C20 C 0.8124(2) 0.63499(11) 0.57685(9)
H19 H 0.8690 0.6351 0.6181
O5 O 0.78201(19) 0.72684(9) 0.55972(7)
H20 H 0.840(4) 0.759(2) 0.5863(15)
C21 C 0.9362(3) 0.59288(12) 0.53112(9)
H21 H 0.8768 0.5822 0.4916
H22 H 1.0323 0.6353 0.5235
O6 O 1.00116(16) 0.50899(9) 0.55416(6)
C22 C 0.0917(2) 0.11390(13) 0.69642(10)
H23 H 0.0070 0.0675 0.7073
H24 H 0.0392 0.1586 0.6689
H25 H 0.1316 0.1444 0.7338
C23 C 0.6461(3) -0.06440(13) 0.61069(9)
H26 H 0.6202 -0.1294 0.6131
H27 H 0.7341 -0.0491 0.6411
H28 H 0.6879 -0.0497 0.5694
C24 C 0.2935(2) 0.57210(12) 0.66840(8)
H29 H 0.1934 0.5327 0.6765
H30 H 0.2800 0.5986 0.6269
Cl1 Cl 0.29999(6) 0.66066(3) 0.72372(2)
Cl2 Cl 0.06684(6) 0.38361(3) 0.73297(2)
O7 O 0.9914(2) 0.80776(12) 0.63672(8)
H31 H 0.971(4) 0.831(2) 0.6731(17)
C25 C 1.1458(3) 0.84585(17) 0.61547(11)
H32 H 1.1383 0.9122 0.6172
H33 H 1.1661 0.8266 0.5730
H34 H 1.2405 0.8252 0.6415
loop_
_geom_bond_atom_site_label_1
_geom_bond_atom_site_label_2
_geom_bond_site_symmetry_1
_geom_bond_site_symmetry_2
C1 H1 1_555 1_555
C2 C1 1_555 1_555
O1 C2 1_555 1_555
O2 C3 1_555 1_555
C3 C2 1_555 1_555
C4 C3 1_555 1_555
H2 C4 1_555 1_555
C5 C4 1_555 1_555
C6 C1 1_555 1_555
C7 C6 1_555 1_555
C8 C7 1_555 1_555
H3 C8 1_555 1_555
N1 C5 1_555 1_555
C9 N1 1_555 1_555
O3 C9 1_555 1_555
C10 C9 1_555 1_555
H4 C10 1_555 1_555
H5 C10 1_555 1_555
C11 C10 1_555 1_555
H6 C11 1_555 1_555
C12 C8 1_555 1_555
H7 C12 1_555 1_555
C13 C12 1_555 1_555
H8 C13 1_555 1_555
C14 C13 1_555 1_555
H9 C14 1_555 1_555
H10 C14 1_555 1_555
C15 C7 1_555 1_555
H11 C15 1_555 1_555
C16 C7 1_555 1_555
H12 C16 1_555 1_555
H13 C16 1_555 1_555
C17 C16 1_555 1_555
H14 C17 1_555 1_555
H15 C17 1_555 1_555
N2 C15 1_555 1_555
C18 N2 1_555 1_555
H16 C18 1_555 1_555
H17 C18 1_555 1_555
O4 H18 1_555 1_555
C19 C13 1_555 1_555
C20 C19 1_555 1_555
H19 C20 1_555 1_555
O5 C20 1_555 1_555
H20 O5 1_555 1_555
C21 C20 1_555 1_555
H21 C21 1_555 1_555
H22 C21 1_555 1_555
O6 C11 1_555 1_555
C22 O1 1_555 1_555
H23 C22 1_555 1_555
H24 C22 1_555 1_555
H25 C22 1_555 1_555
C23 O2 1_555 1_555
H26 C23 1_555 1_555
H27 C23 1_555 1_555
H28 C23 1_555 1_555
C24 N2 1_555 1_555
H29 C24 1_555 1_555
H30 C24 1_555 1_555
Cl1 C24 1_555 1_555
O7 H31 1_555 1_555
C25 O7 1_555 1_555
H32 C25 1_555 1_555
H33 C25 1_555 1_555
H34 C25 1_555 1_555
C5 C6 1_555 1_555
C8 N1 1_555 1_555
C11 C12 1_555 1_555
C14 C15 1_555 1_555
C17 N2 1_555 1_555
C18 C19 1_555 1_555
O4 C19 1_555 1_555
C21 O6 1_555 1_555

#END
