
#######################################################################
#
#                 Cambridge Crystallographic Data Centre
#                                CCDC 
#
#######################################################################
#
# If this CIF has been generated from an entry in the Cambridge 
# Structural Database, then it will include bibliographic, chemical, 
# crystal, experimental, refinement or atomic coordinate data resulting 
# from the CCDC's data processing and validation procedures.
#
#######################################################################

data_AQEYUS
_chemical_formula_moiety         'C36 H23 N5 O4'
_chemical_name_systematic        
3,3'-((phenylimino)di-4,1-phenylene)bis(2-(4-nitrophenyl)acrylonitrile)
_symmetry_cell_setting           monoclinic
_symmetry_space_group_name_H-M   'C 2/c'
_symmetry_Int_Tables_number      15
_space_group_name_Hall           '-C 2yn'
loop_
_symmetry_equiv_pos_site_id
_symmetry_equiv_pos_as_xyz
1 x,y,z
2 -x,y,1/2-z
3 1/2+x,1/2+y,z
4 1/2-x,1/2+y,1/2-z
5 -x,-y,-z
6 x,-y,1/2+z
7 1/2-x,1/2-y,-z
8 1/2+x,1/2-y,1/2+z
_cell_length_a                   34.868(3)
_cell_length_b                   9.7729(9)
_cell_length_c                   29.980(3)
_cell_angle_alpha                90
_cell_angle_beta                 119.721(3)
_cell_angle_gamma                90
_cell_volume                     8872.11
_exptl_crystal_colour            red
_exptl_crystal_description       block
_cell_formula_units_Z            12
loop_
_atom_site_label
_atom_site_type_symbol
_atom_site_fract_x
_atom_site_fract_y
_atom_site_fract_z
N1 N 0.17093(7) 0.65235(19) 0.26985(7)
C1 C 0.15070(8) 0.4828(2) 0.12985(9)
C2 C 0.17362(9) 0.5788(2) 0.31166(9)
C3 C 0.18252(9) 0.3616(3) 0.44015(10)
H1 H 0.1657 0.2820 0.4298
C4 C 0.17972(9) 0.4416(2) 0.39786(9)
C5 C 0.15529(9) 0.3887(3) 0.34822(10)
H2 H 0.1408 0.3055 0.3436
C6 C 0.17093(8) 0.4078(2) 0.17536(9)
H3 H 0.1801 0.3189 0.1747
C7 C 0.20249(9) 0.1026(3) 0.59905(10)
C8 C 0.20068(10) 0.5674(3) 0.40279(10)
H4 H 0.2172 0.6062 0.4352
C9 C 0.17780(8) 0.4609(2) 0.22114(9)
H5 H 0.1918 0.4081 0.2508
C10 C 0.19749(9) 0.6342(3) 0.36109(10)
H6 H 0.2115 0.7183 0.3656
C11 C 0.14493(9) 0.4175(3) 0.08355(9)
H7 H 0.1586 0.3325 0.0891
C12 C 0.12103(9) 0.3723(3) -0.00857(10)
C13 C 0.16414(8) 0.5922(2) 0.22356(9)
C14 C 0.20350(8) 0.2833(3) 0.52868(9)
O1 O 0.08171(8) 0.1220(3) -0.16890(9)
C15 C 0.17485(9) 0.7984(2) 0.27449(9)
C16 C 0.15182(9) 0.4549(3) 0.30597(10)
H8 H 0.1349 0.4170 0.2735
C17 C 0.12353(9) 0.4566(3) 0.03389(9)
C18 C 0.13775(10) 0.6151(3) 0.13330(10)
H9 H 0.1244 0.6690 0.1039
C19 C 0.20471(8) 0.3798(2) 0.49156(10)
C20 C 0.11442(10) 0.2021(3) -0.08544(10)
C21 C 0.23263(10) 0.4967(3) 0.51470(11)
C22 C 0.09989(11) 0.5823(4) 0.01884(10)
C23 C 0.14398(9) 0.6687(3) 0.17856(10)
H10 H 0.1346 0.7573 0.1792
N2 N 0.20330(9) 0.0034(3) 0.63593(11)
C24 C 0.21035(10) 0.8630(3) 0.27596(10)
H11 H 0.2320 0.8121 0.2740
C25 C 0.08688(10) 0.3862(3) -0.05879(10)
H12 H 0.0660 0.4548 -0.0666
N3 N 0.10973(10) 0.1020(4) -0.12476(11)
C26 C 0.22713(11) 0.2156(3) 0.61551(11)
H13 H 0.2438 0.2335 0.6505
C27 C 0.14307(10) 0.8729(3) 0.27771(11)
H14 H 0.1190 0.8287 0.2766
O2 O 0.13362(10) 0.0009(3) -0.11109(10)
C28 C 0.15309(10) 0.2765(3) 0.00091(10)
H15 H 0.1774 0.2696 0.0337
C29 C 0.21387(11) 1.0044(3) 0.28039(12)
H16 H 0.2378 1.0487 0.2812
O3 O 0.18328(12) -0.0993(3) 0.62099(10)
C30 C 0.17732(12) 0.0772(3) 0.54855(12)
H17 H 0.1595 -0.0003 0.5374
C31 C 0.08306(10) 0.3008(3) -0.09740(10)
H18 H 0.0597 0.3103 -0.1308
O4 O 0.22581(10) 0.0249(3) 0.68067(10)
C32 C 0.22771(11) 0.3054(3) 0.58053(11)
H19 H 0.2451 0.3836 0.5925
C33 C 0.18218(12) 1.0780(3) 0.28358(12)
H20 H 0.1845 1.1728 0.2865
C34 C 0.17806(12) 0.1665(4) 0.51347(11)
H21 H 0.1609 0.1475 0.4786
C35 C 0.14666(11) 1.0133(3) 0.28256(12)
H22 H 0.1252 1.0640 0.2851
C36 C 0.14995(10) 0.1905(3) -0.03723(11)
H23 H 0.1717 0.1257 -0.0302
N4 N 0.08122(11) 0.6827(4) 0.00655(10)
N5 N 0.25482(10) 0.5877(3) 0.53570(11)
N6 N 0.0000 0.7196(3) 0.7500
C37 C -0.00390(9) 0.9777(3) 0.83766(10)
H24 H -0.0188 1.0586 0.8354
C38 C 0.02247(9) 1.0983(3) 0.94775(9)
C39 C 0.0000 0.5733(4) 0.7500
C40 C 0.02662(9) 0.9256(3) 0.88605(9)
C41 C -0.01203(9) 0.9101(3) 0.79348(9)
H25 H -0.0325 0.9462 0.7618
C42 C 0.00957(9) 0.7897(3) 0.79528(9)
C43 C 0.04798(9) 0.8043(3) 0.88699(9)
H26 H 0.0685 0.7677 0.9186
C44 C 0.03988(9) 0.7370(3) 0.84307(9)
H27 H 0.0547 0.6559 0.8452
C45 C 0.03738(9) 0.9871(3) 0.93544(10)
H28 H 0.0587 0.9393 0.9637
C46 C 0.06157(11) 1.2347(4) 1.09873(11)
C47 C 0.03693(9) 1.1449(3) 1.00093(10)
C48 C 0.06470(10) 1.0682(3) 1.04365(10)
H29 H 0.0753 0.9847 1.0394
C49 C 0.02210(11) 1.2670(3) 1.00948(12)
H30 H 0.0032 1.3208 0.9815
O5 O 0.09770(11) 1.2103(3) 1.18716(10)
N7 N 0.07417(11) 1.2827(4) 1.15138(12)
C50 C -0.01007(11) 1.1836(4) 0.90862(12)
C51 C -0.02380(11) 0.5021(3) 0.76773(11)
H31 H -0.0401 0.5490 0.7797
C52 C 0.07702(11) 1.1139(4) 1.09278(11)
H32 H 0.0958 1.0616 1.1213
C53 C 0.03438(12) 1.3124(4) 1.05855(13)
H33 H 0.0240 1.3954 1.0635
O6 O 0.06040(11) 1.3925(4) 1.15525(11)
C54 C -0.02345(14) 0.3604(4) 0.76767(13)
H34 H -0.0394 0.3124 0.7798
N8 N -0.03588(12) 1.2536(4) 0.87846(12)
C55 C 0.0000 0.2911(6) 0.7500
H35 H 0.0000 0.1959 0.7500
C37A C 0.00390(9) 0.9777(3) 0.66234(10)
H24A H 0.0188 1.0586 0.6646
C38A C -0.02247(9) 1.0983(3) 0.55225(9)
C40A C -0.02662(9) 0.9256(3) 0.61395(9)
C41A C 0.01203(9) 0.9101(3) 0.70652(9)
H25A H 0.0325 0.9462 0.7382
C42A C -0.00957(9) 0.7897(3) 0.70472(9)
C43A C -0.04798(9) 0.8043(3) 0.61301(9)
H26A H -0.0685 0.7677 0.5814
C44A C -0.03988(9) 0.7370(3) 0.65693(9)
H27A H -0.0547 0.6559 0.6548
C45A C -0.03738(9) 0.9871(3) 0.56456(10)
H28A H -0.0587 0.9393 0.5363
C46A C -0.06157(11) 1.2347(4) 0.40127(11)
C47A C -0.03693(9) 1.1449(3) 0.49907(10)
C48A C -0.06470(10) 1.0682(3) 0.45635(10)
H29A H -0.0753 0.9847 0.4606
C49A C -0.02210(11) 1.2670(3) 0.49052(12)
H30A H -0.0032 1.3208 0.5185
O5A O -0.09770(11) 1.2103(3) 0.31284(10)
N7A N -0.07417(11) 1.2827(4) 0.34862(12)
C50A C 0.01007(11) 1.1836(4) 0.59138(12)
C51A C 0.02380(11) 0.5021(3) 0.73227(11)
H31A H 0.0401 0.5490 0.7203
C52A C -0.07702(11) 1.1139(4) 0.40722(11)
H32A H -0.0958 1.0616 0.3787
C53A C -0.03438(12) 1.3124(4) 0.44145(13)
H33A H -0.0240 1.3954 0.4365
O6A O -0.06040(11) 1.3925(4) 0.34475(11)
C54A C 0.02345(14) 0.3604(4) 0.73233(13)
H34A H 0.0394 0.3124 0.7202
N8A N 0.03588(12) 1.2536(4) 0.62154(12)
loop_
_geom_bond_atom_site_label_1
_geom_bond_atom_site_label_2
_geom_bond_site_symmetry_1
_geom_bond_site_symmetry_2
N1 C2 1_555 1_555
C1 C6 1_555 1_555
C2 C10 1_555 1_555
C3 H1 1_555 1_555
C4 C3 1_555 1_555
C5 C4 1_555 1_555
H2 C5 1_555 1_555
C6 H3 1_555 1_555
C7 N2 1_555 1_555
C8 C4 1_555 1_555
H4 C8 1_555 1_555
C9 C6 1_555 1_555
H5 C9 1_555 1_555
C10 C8 1_555 1_555
H6 C10 1_555 1_555
C11 C1 1_555 1_555
H7 C11 1_555 1_555
C12 C17 1_555 1_555
C13 N1 1_555 1_555
C14 C19 1_555 1_555
O1 N3 1_555 1_555
C15 N1 1_555 1_555
C16 C2 1_555 1_555
H8 C16 1_555 1_555
C17 C11 1_555 1_555
C18 C1 1_555 1_555
H9 C18 1_555 1_555
C19 C3 1_555 1_555
C20 N3 1_555 1_555
C21 C19 1_555 1_555
C22 C17 1_555 1_555
C23 C13 1_555 1_555
H10 C23 1_555 1_555
N2 O3 1_555 1_555
C24 C15 1_555 1_555
H11 C24 1_555 1_555
C25 C12 1_555 1_555
H12 C25 1_555 1_555
N3 O2 1_555 1_555
C26 C7 1_555 1_555
H13 C26 1_555 1_555
C27 C15 1_555 1_555
H14 C27 1_555 1_555
C28 C12 1_555 1_555
H15 C28 1_555 1_555
C29 C24 1_555 1_555
H16 C29 1_555 1_555
C30 C7 1_555 1_555
H17 C30 1_555 1_555
C31 C20 1_555 1_555
H18 C31 1_555 1_555
O4 N2 1_555 1_555
C32 C14 1_555 1_555
H19 C32 1_555 1_555
C33 C29 1_555 1_555
H20 C33 1_555 1_555
C34 C14 1_555 1_555
H21 C34 1_555 1_555
C35 C27 1_555 1_555
H22 C35 1_555 1_555
C36 C20 1_555 1_555
H23 C36 1_555 1_555
N4 C22 1_555 1_555
N5 C21 1_555 1_555
N6 C39 1_555 1_555
C37 H24 1_555 1_555
C38 C45 1_555 1_555
C39 C51 1_555 1_555
C40 C37 1_555 1_555
C41 C37 1_555 1_555
H25 C41 1_555 1_555
C42 N6 1_555 1_555
C43 C40 1_555 1_555
H26 C43 1_555 1_555
C44 C42 1_555 1_555
H27 C44 1_555 1_555
C45 C40 1_555 1_555
H28 C45 1_555 1_555
C46 N7 1_555 1_555
C47 C38 1_555 1_555
C48 C47 1_555 1_555
H29 C48 1_555 1_555
C49 C47 1_555 1_555
H30 C49 1_555 1_555
O5 N7 1_555 1_555
N7 O6 1_555 1_555
C50 C38 1_555 1_555
C51 H31 1_555 1_555
C52 C46 1_555 1_555
H32 C52 1_555 1_555
C53 C46 1_555 1_555
H33 C53 1_555 1_555
C54 C51 1_555 1_555
H34 C54 1_555 1_555
N8 C50 1_555 1_555
C55 C54 1_555 1_555
H35 C55 1_555 1_555
C37A H24A 1_555 1_555
C38A C45A 1_555 1_555
C40A C37A 1_555 1_555
C41A C37A 1_555 1_555
H25A C41A 1_555 1_555
C42A N6 1_555 1_555
C43A C40A 1_555 1_555
H26A C43A 1_555 1_555
C44A C42A 1_555 1_555
H27A C44A 1_555 1_555
C45A C40A 1_555 1_555
H28A C45A 1_555 1_555
C46A N7A 1_555 1_555
C47A C38A 1_555 1_555
C48A C47A 1_555 1_555
H29A C48A 1_555 1_555
C49A C47A 1_555 1_555
H30A C49A 1_555 1_555
O5A N7A 1_555 1_555
N7A O6A 1_555 1_555
C50A C38A 1_555 1_555
C51A C39 1_555 1_555
H31A C51A 1_555 1_555
C52A C46A 1_555 1_555
H32A C52A 1_555 1_555
C53A C46A 1_555 1_555
H33A C53A 1_555 1_555
C54A C55 1_555 1_555
H34A C54A 1_555 1_555
N8A C50A 1_555 1_555
C5 C16 1_555 1_555
C9 C13 1_555 1_555
C18 C23 1_555 1_555
C25 C31 1_555 1_555
C26 C32 1_555 1_555
C28 C36 1_555 1_555
C30 C34 1_555 1_555
C33 C35 1_555 1_555
C41 C42 1_555 1_555
C43 C44 1_555 1_555
C48 C52 1_555 1_555
C49 C53 1_555 1_555
C41A C42A 1_555 1_555
C43A C44A 1_555 1_555
C48A C52A 1_555 1_555
C49A C53A 1_555 1_555
C51A C54A 1_555 1_555

#END
