
#######################################################################
#
#                 Cambridge Crystallographic Data Centre
#                                CCDC 
#
#######################################################################
#
# If this CIF has been generated from an entry in the Cambridge 
# Structural Database, then it will include bibliographic, chemical, 
# crystal, experimental, refinement or atomic coordinate data resulting 
# from the CCDC's data processing and validation procedures.
#
#######################################################################

data_AQIBOT
_chemical_formula_moiety         'C66 H70 S2'
_chemical_name_systematic        
2,4,6,8-tetrakis((4-hexylphenyl)ethynyl)thieno[2,3-f][1]benzothiophene
_symmetry_cell_setting           triclinic
_symmetry_space_group_name_H-M   'P -1'
_symmetry_Int_Tables_number      2
_space_group_name_Hall           '-P 1'
loop_
_symmetry_equiv_pos_site_id
_symmetry_equiv_pos_as_xyz
1 x,y,z
2 -x,-y,-z
_cell_length_a                   8.6659(17)
_cell_length_b                   13.122(3)
_cell_length_c                   13.694(3)
_cell_angle_alpha                112.960(4)
_cell_angle_beta                 93.861(4)
_cell_angle_gamma                97.858(4)
_cell_volume                     1407.89
_exptl_crystal_colour            yellow
_exptl_crystal_description       prismatic
_cell_formula_units_Z            1
loop_
_atom_site_label
_atom_site_type_symbol
_atom_site_fract_x
_atom_site_fract_y
_atom_site_fract_z
C1 C -0.7410(3) 0.6538(2) 0.0388(2)
C2 C -0.6093(5) 0.5720(4) 0.0187(4)
C3 C -0.4662(6) 0.6087(4) 0.0865(4)
C4 C -0.3577(5) 0.5341(4) 0.0649(3)
C5 C -0.1383(5) 0.4408(4) 0.0661(3)
C6 C 0.0092(7) 0.4121(4) 0.0915(4)
C7 C 0.1288(7) 0.3853(5) 0.1122(4)
C8 C 0.2711(6) 0.3512(6) 0.1332(5)
C9 C 0.3918(8) 0.4268(6) 0.2076(5)
H1 H 0.3799 0.5009 0.2448
C10 C 0.5271(10) 0.3935(9) 0.2268(7)
H2 H 0.6089 0.4472 0.2742
C11 C 0.5489(8) 0.2894(10) 0.1819(8)
C12 C 0.4348(11) 0.2139(7) 0.1050(8)
H3 H 0.4507 0.1409 0.0673
C13 C 0.2932(8) 0.2456(7) 0.0821(7)
H4 H 0.2144 0.1927 0.0311
C14 C 0.7039(10) 0.2648(10) 0.2185(9)
H5 H 0.7882 0.3178 0.2122
H6 H 0.7072 0.2798 0.2939
C15 C 0.7354(10) 0.1594(8) 0.1666(9)
H7 H 0.7422 0.1453 0.0922
H8 H 0.6497 0.1048 0.1689
C16 C 0.8944(11) 0.1437(9) 0.2185(9)
H9 H 0.9814 0.1921 0.2085
H10 H 0.8925 0.1667 0.2948
C17 C 0.9187(10) 0.0327(8) 0.1738(8)
H11 H 0.9162 0.0102 0.0972
H12 H 0.8310 -0.0144 0.1847
C18 C 1.0700(11) 0.0074(9) 0.2156(8)
H13 H 1.1582 0.0517 0.2020
H14 H 1.0749 0.0321 0.2926
C19 C 1.0876(13) -0.1017(9) 0.1735(9)
H15 H 0.9868 -0.1492 0.1586
H16 H 1.1552 -0.1157 0.2235
H17 H 1.1333 -0.1174 0.1083
C20 C -0.4280(6) 0.7169(4) 0.1740(4)
C21 C -0.3984(6) 0.8073(4) 0.2461(4)
C22 C -0.3657(6) 0.9141(4) 0.3346(4)
C23 C -0.4494(6) 0.9979(5) 0.3422(5)
H18 H -0.5295 0.9854 0.2880
C24 C -0.4167(8) 1.0997(5) 0.4285(7)
H19 H -0.4745 1.1551 0.4304
C25 C -0.3040(10) 1.1226(5) 0.5103(6)
C26 C -0.2226(8) 1.0391(5) 0.5034(5)
H20 H -0.1437 1.0523 0.5586
C27 C -0.2516(8) 0.9365(4) 0.4190(5)
H21 H -0.1940 0.8815 0.4184
C28 C -0.2721(9) 1.2367(5) 0.6028(5)
H22 H -0.3710 1.2626 0.6176
H23 H -0.2270 1.2291 0.6659
C29 C -0.1624(15) 1.3242(8) 0.5829(10)
H24 H -0.2142 1.3373 0.5249
H25 H -0.1476 1.3940 0.6463
C30 C -0.0026(11) 1.2988(7) 0.5557(8)
H26 H -0.0172 1.2256 0.4965
H27 H 0.0529 1.2927 0.6166
C31 C 0.102(2) 1.3813(15) 0.5261(14)
H28 H 0.1166 1.4564 0.5823
H29 H 0.0566 1.3829 0.4601
C32 C 0.2614(18) 1.3386(12) 0.5120(12)
H30 H 0.3069 1.3398 0.5792
H31 H 0.2439 1.2616 0.4590
C33 C 0.370(2) 1.4102(16) 0.4777(16)
H32 H 0.4567 1.3734 0.4522
H33 H 0.4084 1.4807 0.5371
H34 H 0.3159 1.4232 0.4213
S1 S -0.1811(2) 0.56732(16) 0.14015(15)
C1A C -0.2590(3) 0.3462(2) -0.0388(2)
C2A C -0.3907(5) 0.4280(4) -0.0187(4)
C3A C -0.5338(6) 0.3913(4) -0.0865(4)
C4A C -0.6423(5) 0.4659(4) -0.0649(3)
C5A C -0.8617(5) 0.5592(4) -0.0661(3)
C6A C -1.0092(7) 0.5879(4) -0.0915(4)
C7A C -1.1288(7) 0.6147(5) -0.1122(4)
C8A C -1.2711(6) 0.6488(6) -0.1332(5)
C9A C -1.3918(8) 0.5732(6) -0.2076(5)
H1A H -1.3799 0.4991 -0.2448
C10A C -1.5271(10) 0.6065(9) -0.2268(7)
H2A H -1.6089 0.5528 -0.2742
C11A C -1.5489(8) 0.7106(10) -0.1819(8)
C12A C -1.4348(11) 0.7861(7) -0.1050(8)
H3A H -1.4507 0.8591 -0.0673
C13A C -1.2932(8) 0.7544(7) -0.0821(7)
H4A H -1.2144 0.8073 -0.0311
C14A C -1.7039(10) 0.7352(10) -0.2185(9)
H5A H -1.7882 0.6822 -0.2122
H6A H -1.7072 0.7202 -0.2939
C15A C -1.7354(10) 0.8406(8) -0.1666(9)
H7A H -1.7422 0.8547 -0.0922
H8A H -1.6497 0.8952 -0.1689
C16A C -1.8944(11) 0.8563(9) -0.2185(9)
H9A H -1.9814 0.8079 -0.2085
H10A H -1.8925 0.8333 -0.2948
C17A C -1.9187(10) 0.9673(8) -0.1738(8)
H11A H -1.9162 0.9898 -0.0972
H12A H -1.8310 1.0144 -0.1847
C18A C -2.0700(11) 0.9926(9) -0.2156(8)
H13A H -2.1582 0.9483 -0.2020
H14A H -2.0749 0.9679 -0.2926
C19A C -2.0876(13) 1.1017(9) -0.1735(9)
H15A H -1.9868 1.1492 -0.1586
H16A H -2.1552 1.1157 -0.2235
H17A H -2.1333 1.1174 -0.1083
C20A C -0.5720(6) 0.2831(4) -0.1740(4)
C21A C -0.6016(6) 0.1927(4) -0.2461(4)
C22A C -0.6343(6) 0.0859(4) -0.3346(4)
C23A C -0.5506(6) 0.0021(5) -0.3422(5)
H18A H -0.4705 0.0146 -0.2880
C24A C -0.5833(8) -0.0997(5) -0.4285(7)
H19A H -0.5255 -0.1551 -0.4304
C25A C -0.6960(10) -0.1226(5) -0.5103(6)
C26A C -0.7774(8) -0.0391(5) -0.5034(5)
H20A H -0.8563 -0.0523 -0.5586
C27A C -0.7484(8) 0.0635(4) -0.4190(5)
H21A H -0.8060 0.1185 -0.4184
C28A C -0.7279(9) -0.2367(5) -0.6028(5)
H22A H -0.6290 -0.2626 -0.6176
H23A H -0.7730 -0.2291 -0.6659
C29A C -0.8376(15) -0.3242(8) -0.5829(10)
H24A H -0.7858 -0.3373 -0.5249
H25A H -0.8524 -0.3940 -0.6463
C30A C -0.9974(11) -0.2988(7) -0.5557(8)
H26A H -0.9828 -0.2256 -0.4965
H27A H -1.0529 -0.2927 -0.6166
C31A C -1.102(2) -0.3813(15) -0.5261(14)
H28A H -1.1166 -0.4564 -0.5823
H29A H -1.0566 -0.3829 -0.4601
C32A C -1.2614(18) -0.3386(12) -0.5120(12)
H30A H -1.3069 -0.3398 -0.5792
H31A H -1.2439 -0.2616 -0.4590
C33A C -1.370(2) -0.4102(16) -0.4777(16)
H32A H -1.4567 -0.3734 -0.4522
H33A H -1.4084 -0.4807 -0.5371
H34A H -1.3159 -0.4232 -0.4213
S1A S -0.8189(2) 0.43268(16) -0.14015(15)
S2? S -0.7410(3) 0.6538(2) 0.0388(2)
H35? H -0.2417 1.2205 0.6633
H36? H -0.3716 1.2607 0.6136
C34? C -0.136(4) 1.305(3) 0.620(2)
H37? H -0.0588 1.2787 0.6539
H38? H -0.1481 1.3785 0.6718
C35? C -0.064(4) 1.325(4) 0.527(3)
H39? H -0.0619 1.2527 0.4693
H40? H -0.1301 1.3641 0.4990
C36? C 0.101(3) 1.392(3) 0.561(2)
H41? H 0.1580 1.3584 0.6002
H42? H 0.0923 1.4667 0.6126
C37? C 0.206(3) 1.410(2) 0.481(2)
H43? H 0.1450 1.4250 0.4283
H44? H 0.2896 1.4743 0.5188
C38? C 0.276(3) 1.3077(19) 0.428(2)
H45? H 0.3380 1.3178 0.3759
H46? H 0.1932 1.2438 0.3931
H47? H 0.3412 1.2955 0.4804
C39? C -0.1811(2) 0.56732(16) 0.14015(15)
loop_
_geom_bond_atom_site_label_1
_geom_bond_atom_site_label_2
_geom_bond_site_symmetry_1
_geom_bond_site_symmetry_2
C1 C2 1_555 1_555
C2 C3 1_555 1_555
C3 C4 1_555 1_555
C4 S1 1_555 1_555
C5 C6 1_555 1_555
C6 C7 1_555 1_555
C7 C8 1_555 1_555
C8 C9 1_555 1_555
C9 H1 1_555 1_555
C10 C9 1_555 1_555
H2 C10 1_555 1_555
C11 C10 1_555 1_555
C12 C11 1_555 1_555
H3 C12 1_555 1_555
C13 C8 1_555 1_555
H4 C13 1_555 1_555
C14 C11 1_555 1_555
H5 C14 1_555 1_555
H6 C14 1_555 1_555
C15 C14 1_555 1_555
H7 C15 1_555 1_555
H8 C15 1_555 1_555
C16 C15 1_555 1_555
H9 C16 1_555 1_555
H10 C16 1_555 1_555
C17 C16 1_555 1_555
H11 C17 1_555 1_555
H12 C17 1_555 1_555
C18 C17 1_555 1_555
H13 C18 1_555 1_555
H14 C18 1_555 1_555
C19 C18 1_555 1_555
H15 C19 1_555 1_555
H16 C19 1_555 1_555
H17 C19 1_555 1_555
C20 C3 1_555 1_555
C21 C20 1_555 1_555
C22 C21 1_555 1_555
C23 C22 1_555 1_555
H18 C23 1_555 1_555
C24 C23 1_555 1_555
H19 C24 1_555 1_555
C25 C24 1_555 1_555
C26 C25 1_555 1_555
H20 C26 1_555 1_555
C27 C22 1_555 1_555
H21 C27 1_555 1_555
C28 C25 1_555 1_555
H22 C28 1_555 1_555
H23 C28 1_555 1_555
C29 C28 1_555 1_555
H24 C29 1_555 1_555
H25 C29 1_555 1_555
C30 C29 1_555 1_555
H26 C30 1_555 1_555
H27 C30 1_555 1_555
C31 C30 1_555 1_555
H28 C31 1_555 1_555
H29 C31 1_555 1_555
C32 C31 1_555 1_555
H30 C32 1_555 1_555
H31 C32 1_555 1_555
C33 C32 1_555 1_555
H32 C33 1_555 1_555
H33 C33 1_555 1_555
H34 C33 1_555 1_555
S1 C5 1_555 1_555
C1A C5 1_555 1_555
C2A C4 1_555 1_555
C3A C2A 1_555 1_555
C4A C2 1_555 1_555
C5A C1 1_555 1_555
C6A C5A 1_555 1_555
C7A C6A 1_555 1_555
C8A C7A 1_555 1_555
C9A C8A 1_555 1_555
H1A C9A 1_555 1_555
C10A C9A 1_555 1_555
H2A C10A 1_555 1_555
C11A C10A 1_555 1_555
C12A C11A 1_555 1_555
H3A C12A 1_555 1_555
C13A C8A 1_555 1_555
H4A C13A 1_555 1_555
C14A C11A 1_555 1_555
H5A C14A 1_555 1_555
H6A C14A 1_555 1_555
C15A C14A 1_555 1_555
H7A C15A 1_555 1_555
H8A C15A 1_555 1_555
C16A C15A 1_555 1_555
H9A C16A 1_555 1_555
H10A C16A 1_555 1_555
C17A C16A 1_555 1_555
H11A C17A 1_555 1_555
H12A C17A 1_555 1_555
C18A C17A 1_555 1_555
H13A C18A 1_555 1_555
H14A C18A 1_555 1_555
C19A C18A 1_555 1_555
H15A C19A 1_555 1_555
H16A C19A 1_555 1_555
H17A C19A 1_555 1_555
C20A C3A 1_555 1_555
C21A C20A 1_555 1_555
C22A C21A 1_555 1_555
C23A C22A 1_555 1_555
H18A C23A 1_555 1_555
C24A C23A 1_555 1_555
H19A C24A 1_555 1_555
C25A C24A 1_555 1_555
C26A C25A 1_555 1_555
H20A C26A 1_555 1_555
C27A C22A 1_555 1_555
H21A C27A 1_555 1_555
C28A C25A 1_555 1_555
H22A C28A 1_555 1_555
H23A C28A 1_555 1_555
C29A C28A 1_555 1_555
H24A C29A 1_555 1_555
H25A C29A 1_555 1_555
C30A C29A 1_555 1_555
H26A C30A 1_555 1_555
H27A C30A 1_555 1_555
C31A C30A 1_555 1_555
H28A C31A 1_555 1_555
H29A C31A 1_555 1_555
C32A C31A 1_555 1_555
H30A C32A 1_555 1_555
H31A C32A 1_555 1_555
C33A C32A 1_555 1_555
H32A C33A 1_555 1_555
H33A C33A 1_555 1_555
H34A C33A 1_555 1_555
S1A C4A 1_555 1_555
C12 C13 1_555 1_555
C26 C27 1_555 1_555
C1A C2A 1_555 1_555
C3A C4A 1_555 1_555
C5A S1A 1_555 1_555
C12A C13A 1_555 1_555
C26A C27A 1_555 1_555

#END
