
#######################################################################
#
#                 Cambridge Crystallographic Data Centre
#                                CCDC 
#
#######################################################################
#
# If this CIF has been generated from an entry in the Cambridge 
# Structural Database, then it will include bibliographic, chemical, 
# crystal, experimental, refinement or atomic coordinate data resulting 
# from the CCDC's data processing and validation procedures.
#
#######################################################################

data_AQILUI
_chemical_formula_moiety         'C17 H20 N2 O6'
_chemical_name_systematic        
'Ethyl 2-(4-((4,6-dimethoxypyrimidin-2-yl)oxy)phenoxy)propanoate'
_symmetry_cell_setting           monoclinic
_symmetry_space_group_name_H-M   'P 21/c'
_symmetry_Int_Tables_number      14
_space_group_name_Hall           '-P 2ybc'
loop_
_symmetry_equiv_pos_site_id
_symmetry_equiv_pos_as_xyz
1 x,y,z
2 -x,1/2+y,1/2-z
3 -x,-y,-z
4 x,1/2-y,1/2+z
_cell_length_a                   15.3720(7)
_cell_length_b                   8.4772(4)
_cell_length_c                   14.2308(6)
_cell_angle_alpha                90
_cell_angle_beta                 112.1300(10)
_cell_angle_gamma                90
_cell_volume                     1717.82
_exptl_crystal_colour            colorless
_exptl_crystal_description       block
_cell_formula_units_Z            4
loop_
_atom_site_label
_atom_site_type_symbol
_atom_site_fract_x
_atom_site_fract_y
_atom_site_fract_z
C1 C 0.81312(15) 0.0407(2) 0.61810(17)
H1 H 0.8208 0.1444 0.5952
H2 H 0.8731 -0.0105 0.6462
H3 H 0.7866 0.0488 0.6691
C2 C 0.41010(14) 0.3587(2) 0.39375(16)
H4 H 0.4075 0.3577 0.3253
H5 H 0.3947 0.4623 0.4100
H6 H 0.3659 0.2839 0.4004
C3 C 0.66413(12) 0.00624(19) 0.48524(13)
C4 C 0.63056(12) 0.14661(18) 0.50584(13)
H7 H 0.6672 0.2142 0.5569
C5 C 0.53870(12) 0.18050(17) 0.44569(12)
C6 C 0.52590(12) -0.04475(17) 0.36146(13)
C7 C 0.38760(12) -0.11114(18) 0.21711(12)
C8 C 0.31519(13) -0.21459(19) 0.20357(13)
H8 H 0.3234 -0.3000 0.2471
C9 C 0.23006(12) -0.1909(2) 0.12488(13)
H9 H 0.1808 -0.2608 0.1153
C10 C 0.21766(12) -0.06446(18) 0.06050(13)
C11 C 0.29074(12) 0.04059(18) 0.07542(13)
H10 H 0.2824 0.1270 0.0326
C12 C 0.37593(12) 0.01648(19) 0.15396(13)
H11 H 0.4253 0.0863 0.1641
C13 C 0.11143(12) 0.0732(2) -0.08619(14)
H12 H 0.1367 0.1716 -0.0500
C14 C 0.15397(13) 0.0424(2) -0.16477(14)
C15 C 0.17475(18) 0.1592(3) -0.30662(18)
H13 H 0.2236 0.0803 -0.2944
H14 H 0.1990 0.2592 -0.3193
C16 C 0.0918(2) 0.1139(3) -0.39633(17)
H15 H 0.0689 0.0134 -0.3845
H16 H 0.1090 0.1068 -0.4544
H17 H 0.0436 0.1919 -0.4084
C17 C 0.00558(15) 0.0856(3) -0.13793(18)
H18 H -0.0190 -0.0115 -0.1725
H19 H -0.0101 0.1706 -0.1860
H20 H -0.0212 0.1053 -0.0880
N1 N 0.61272(10) -0.09214(15) 0.41196(11)
N2 N 0.48403(10) 0.08590(14) 0.37287(10)
O1 O 0.12993(8) -0.05253(14) -0.01626(9)
O2 O 0.75182(9) -0.04945(13) 0.53446(10)
O3 O 0.50306(8) 0.31735(13) 0.46188(9)
O4 O 0.47513(8) -0.15139(13) 0.29067(9)
O5 O 0.18377(13) -0.08016(16) -0.17967(12)
O6 O 0.15044(10) 0.17299(14) -0.21742(10)
loop_
_geom_bond_atom_site_label_1
_geom_bond_atom_site_label_2
_geom_bond_site_symmetry_1
_geom_bond_site_symmetry_2
C1 H1 1_555 1_555
H2 C1 1_555 1_555
H3 C1 1_555 1_555
C2 H4 1_555 1_555
H5 C2 1_555 1_555
H6 C2 1_555 1_555
C3 C4 1_555 1_555
C4 H7 1_555 1_555
C5 C4 1_555 1_555
C6 N1 1_555 1_555
C7 C8 1_555 1_555
C8 H8 1_555 1_555
C9 C8 1_555 1_555
H9 C9 1_555 1_555
C10 C9 1_555 1_555
C11 C10 1_555 1_555
H10 C11 1_555 1_555
C12 C7 1_555 1_555
H11 C12 1_555 1_555
C13 H12 1_555 1_555
C14 C13 1_555 1_555
C15 H13 1_555 1_555
H14 C15 1_555 1_555
C16 C15 1_555 1_555
H15 C16 1_555 1_555
H16 C16 1_555 1_555
H17 C16 1_555 1_555
C17 C13 1_555 1_555
H18 C17 1_555 1_555
H19 C17 1_555 1_555
H20 C17 1_555 1_555
N1 C3 1_555 1_555
N2 C5 1_555 1_555
O1 C10 1_555 1_555
O2 C1 1_555 1_555
O3 C2 1_555 1_555
O4 C6 1_555 1_555
O5 C14 1_555 1_555
O6 C14 1_555 1_555
C3 O2 1_555 1_555
C5 O3 1_555 1_555
C6 N2 1_555 1_555
C7 O4 1_555 1_555
C11 C12 1_555 1_555
C13 O1 1_555 1_555
C15 O6 1_555 1_555

#END
