
#######################################################################
#
#                 Cambridge Crystallographic Data Centre
#                                CCDC 
#
#######################################################################
#
# If this CIF has been generated from an entry in the Cambridge 
# Structural Database, then it will include bibliographic, chemical, 
# crystal, experimental, refinement or atomic coordinate data resulting 
# from the CCDC's data processing and validation procedures.
#
#######################################################################

data_AQIWAY
_chemical_formula_moiety         'C17 H42 N4 Si4'
_chemical_name_systematic        
1-Vinyl-N,N',N''-tris(trimethylsilyl)azasilatrane
_symmetry_cell_setting           triclinic
_symmetry_space_group_name_H-M   'P -1'
_symmetry_Int_Tables_number      2
_space_group_name_Hall           '-P 1'
loop_
_symmetry_equiv_pos_site_id
_symmetry_equiv_pos_as_xyz
1 x,y,z
2 -x,-y,-z
_cell_length_a                   9.3714(9)
_cell_length_b                   9.4736(10)
_cell_length_c                   14.5188(14)
_cell_angle_alpha                87.778(8)
_cell_angle_beta                 81.159(8)
_cell_angle_gamma                74.794(8)
_cell_volume                     1229.08
_exptl_crystal_colour            colorless
_exptl_crystal_description       prism
_cell_formula_units_Z            2
loop_
_atom_site_label
_atom_site_type_symbol
_atom_site_fract_x
_atom_site_fract_y
_atom_site_fract_z
C1 C 0.24701(14) 0.66410(15) 0.69653(10)
C2 C 0.20638(16) 0.67704(18) 0.61249(11)
C3 C 0.22310(15) 0.95207(15) 0.90918(9)
H1 H 0.1579 0.9571 0.9701
H2 H 0.1716 1.0284 0.8683
C4 C 0.37133(16) 0.98078(17) 0.92296(10)
H3 H 0.3542 1.0831 0.9435
H4 H 0.4150 0.9151 0.9719
C5 C 0.61801(15) 0.85016(17) 0.83603(10)
H5 H 0.6570 0.8587 0.8946
H6 H 0.6903 0.8701 0.7832
C6 C 0.59935(15) 0.69696(16) 0.82724(9)
H7 H 0.6985 0.6254 0.8203
H8 H 0.5383 0.6723 0.8844
C7 C 0.46332(16) 1.07251(15) 0.76848(11)
H9 H 0.5565 1.1054 0.7595
H10 H 0.3789 1.1567 0.7912
C8 C 0.43900(15) 1.01742(15) 0.67630(10)
H11 H 0.4184 1.1002 0.6323
H12 H 0.5309 0.9449 0.6486
C9 C 0.2031(3) 0.7032(2) 1.06104(12)
H13 H 0.3061 0.7028 1.0668
H14 H 0.1747 0.6246 1.0992
H15 H 0.1357 0.7976 1.0825
C10 C -0.00930(18) 0.6854(2) 0.92765(16)
H16 H -0.0707 0.7847 0.9432
H17 H -0.0446 0.6157 0.9711
H18 H -0.0172 0.6615 0.8639
C11 C 0.31005(18) 0.48618(17) 0.90492(12)
H19 H 0.2595 0.4377 0.8666
H20 H 0.3276 0.4293 0.9618
H21 H 0.4060 0.4932 0.8698
C12 C 0.64578(17) 0.39071(15) 0.66386(10)
H22 H 0.6819 0.3548 0.7225
H23 H 0.7140 0.3361 0.6115
H24 H 0.5456 0.3770 0.6645
C13 C 0.57190(15) 0.65987(15) 0.53865(9)
H25 H 0.4891 0.6196 0.5289
H26 H 0.6542 0.6301 0.4871
H27 H 0.5376 0.7669 0.5412
C14 C 0.83287(15) 0.60948(16) 0.64288(10)
H28 H 0.8312 0.7133 0.6376
H29 H 0.8950 0.5569 0.5879
H30 H 0.8745 0.5687 0.6990
C15 C -0.01980(15) 0.99750(16) 0.71453(11)
H31 H -0.0221 0.9103 0.6812
H32 H -0.1112 1.0749 0.7098
H33 H -0.0134 0.9735 0.7803
C16 C 0.11615(19) 1.25303(17) 0.70537(15)
H34 H 0.1068 1.2521 0.7735
H35 H 0.0244 1.3157 0.6863
H36 H 0.2014 1.2911 0.6791
C17 C 0.15513(19) 1.0765(2) 0.53244(12)
H37 H 0.2453 1.1061 0.5054
H38 H 0.0665 1.1497 0.5173
H39 H 0.1582 0.9814 0.5068
N1 N 0.24853(11) 0.80674(12) 0.86692(7)
N2 N 0.52555(11) 0.68809(11) 0.74534(7)
N3 N 0.31196(11) 0.94906(11) 0.69060(7)
N4 N 0.47380(12) 0.95523(13) 0.83613(8)
Si1 Si 0.33898(4) 0.78561(3) 0.75222(2)
Si2 Si 0.18986(4) 0.67418(4) 0.93672(3)
Si3 Si 0.63799(4) 0.58936(4) 0.65064(2)
Si4 Si 0.14635(4) 1.06210(4) 0.66177(3)
H40 H 0.2273(19) 0.584(2) 0.7319(12)
H41 H 0.160(2) 0.609(2) 0.5875(13)
H42 H 0.224(2) 0.757(2) 0.5680(13)
loop_
_geom_bond_atom_site_label_1
_geom_bond_atom_site_label_2
_geom_bond_site_symmetry_1
_geom_bond_site_symmetry_2
C1 C2 1_555 1_555
C2 H41 1_555 1_555
C3 H1 1_555 1_555
H2 C3 1_555 1_555
C4 C3 1_555 1_555
H3 C4 1_555 1_555
H4 C4 1_555 1_555
C5 H5 1_555 1_555
H6 C5 1_555 1_555
C6 C5 1_555 1_555
H7 C6 1_555 1_555
H8 C6 1_555 1_555
C7 H9 1_555 1_555
H10 C7 1_555 1_555
C8 C7 1_555 1_555
H11 C8 1_555 1_555
H12 C8 1_555 1_555
C9 H13 1_555 1_555
H14 C9 1_555 1_555
H15 C9 1_555 1_555
C10 H16 1_555 1_555
H17 C10 1_555 1_555
H18 C10 1_555 1_555
C11 H19 1_555 1_555
H20 C11 1_555 1_555
H21 C11 1_555 1_555
C12 H22 1_555 1_555
H23 C12 1_555 1_555
H24 C12 1_555 1_555
C13 H25 1_555 1_555
H26 C13 1_555 1_555
H27 C13 1_555 1_555
C14 H28 1_555 1_555
H29 C14 1_555 1_555
H30 C14 1_555 1_555
C15 H31 1_555 1_555
H32 C15 1_555 1_555
H33 C15 1_555 1_555
C16 H34 1_555 1_555
H35 C16 1_555 1_555
H36 C16 1_555 1_555
C17 H37 1_555 1_555
H38 C17 1_555 1_555
H39 C17 1_555 1_555
N1 C3 1_555 1_555
N2 C6 1_555 1_555
N3 C8 1_555 1_555
N4 C4 1_555 1_555
Si1 C1 1_555 1_555
Si2 C9 1_555 1_555
Si3 C12 1_555 1_555
Si4 C15 1_555 1_555
H40 C1 1_555 1_555
H42 C2 1_555 1_555
C5 N4 1_555 1_555
C7 N4 1_555 1_555
C10 Si2 1_555 1_555
C11 Si2 1_555 1_555
C13 Si3 1_555 1_555
C14 Si3 1_555 1_555
C16 Si4 1_555 1_555
C17 Si4 1_555 1_555
N1 Si1 1_555 1_555
N1 Si2 1_555 1_555
N2 Si3 1_555 1_555
N2 Si1 1_555 1_555
N3 Si1 1_555 1_555
N3 Si4 1_555 1_555

#END
