
#######################################################################
#
#                 Cambridge Crystallographic Data Centre
#                                CCDC 
#
#######################################################################
#
# If this CIF has been generated from an entry in the Cambridge 
# Structural Database, then it will include bibliographic, chemical, 
# crystal, experimental, refinement or atomic coordinate data resulting 
# from the CCDC's data processing and validation procedures.
#
#######################################################################

data_AQIWOO
_chemical_formula_moiety         'C31 H47 N1 O9'
_chemical_name_systematic        bufalin-3\b-N-glucose
_symmetry_cell_setting           triclinic
_symmetry_space_group_name_H-M   'P 1'
_symmetry_Int_Tables_number      1
_space_group_name_Hall           'P 1'
loop_
_symmetry_equiv_pos_site_id
_symmetry_equiv_pos_as_xyz
1 x,y,z
_cell_length_a                   10.4551(7)
_cell_length_b                   10.4670(6)
_cell_length_c                   15.8564(10)
_cell_angle_alpha                80.728(5)
_cell_angle_beta                 73.259(6)
_cell_angle_gamma                65.749(6)
_cell_volume                     1513.22
_exptl_crystal_colour            colorless
_exptl_crystal_description       Block
_cell_formula_units_Z            2
_exptl_crystal_recrystallization_method methanol
loop_
_atom_site_label
_atom_site_type_symbol
_atom_site_fract_x
_atom_site_fract_y
_atom_site_fract_z
N1 N -0.0440(7) -0.0056(9) -0.0289(5)
O1 O -0.9289(10) -0.5768(12) 0.1262(7)
O2 O -1.0707(9) -0.5792(10) 0.0453(7)
O3 O -0.6462(7) -0.2894(7) -0.0569(4)
H1 H -0.6119 -0.2792 -0.1098
O4 O 0.0650(7) -0.0377(7) 0.0196(5)
O5 O 0.1391(6) -0.0713(6) -0.1589(4)
O6 O -0.0766(6) 0.2887(7) -0.0920(5)
H2 H -0.0708 0.3247 -0.0517
O7 O 0.1916(9) 0.2998(8) -0.2029(6)
H3 H 0.2352 0.3184 -0.2520
O8 O 0.3027(8) 0.1045(8) -0.3466(5)
H4 H 0.3360 0.1649 -0.3527
O9 O 0.4229(8) -0.2436(8) -0.2486(5)
H5 H 0.3902 -0.2508 -0.1953
C1 C -0.2872(10) -0.0760(10) 0.1041(7)
H6 H -0.2885 0.0164 0.1069
H7 H -0.3232 -0.1078 0.1637
C2 C -0.1281(11) -0.1782(11) 0.0683(7)
H8 H -0.0690 -0.1771 0.1052
H9 H -0.1248 -0.2728 0.0715
C3 C -0.0664(10) -0.1394(10) -0.0251(6)
H10 H 0.0274 -0.2144 -0.0474
C4 C -0.1663(11) -0.1218(12) -0.0832(7)
H11 H -0.1287 -0.0864 -0.1412
H12 H -0.1635 -0.2136 -0.0897
C5 C -0.3224(10) -0.0253(9) -0.0501(6)
H13 H -0.3232 0.0686 -0.0498
C6 C -0.4162(11) -0.0140(10) -0.1110(7)
H14 H -0.3698 0.0059 -0.1712
H15 H -0.5092 0.0629 -0.0942
C7 C -0.4393(10) -0.1504(10) -0.1061(7)
H16 H -0.3469 -0.2253 -0.1280
H17 H -0.5015 -0.1395 -0.1441
C8 C -0.5084(10) -0.1924(9) -0.0112(6)
H18 H -0.6011 -0.1156 0.0102
C9 C -0.4069(9) -0.2087(9) 0.0480(6)
H19 H -0.3110 -0.2780 0.0223
C10 C -0.3915(9) -0.0642(9) 0.0465(7)
C11 C -0.4601(10) -0.2633(11) 0.1419(6)
H20 H -0.3915 -0.2789 0.1763
H21 H -0.5527 -0.1944 0.1704
C12 C -0.4758(10) -0.3994(10) 0.1373(6)
H22 H -0.5069 -0.4344 0.1968
H23 H -0.3817 -0.4681 0.1106
C13 C -0.5846(9) -0.3860(10) 0.0842(6)
C14 C -0.5370(9) -0.3226(9) -0.0099(6)
C15 C -0.4102(10) -0.4501(11) -0.0562(7)
H24 H -0.3191 -0.4540 -0.0498
H25 H -0.4063 -0.4433 -0.1185
C16 C -0.4369(10) -0.5829(10) -0.0118(9)
H26 H -0.3522 -0.6499 0.0072
H27 H -0.4572 -0.6272 -0.0528
C17 C -0.5708(9) -0.5339(10) 0.0701(7)
H28 H -0.5441 -0.5946 0.1213
C18 C -0.5357(12) 0.0520(10) 0.0887(9)
H29 H -0.5214 0.1377 0.0860
H30 H -0.5688 0.0248 0.1491
H31 H -0.6066 0.0661 0.0572
C19 C -0.7365(9) -0.2949(10) 0.1345(7)
H32 H -0.7600 -0.3385 0.1917
H33 H -0.8054 -0.2851 0.1024
H34 H -0.7395 -0.2040 0.1410
C20 C -0.7044(11) -0.5451(10) 0.0583(7)
C21 C -0.8052(12) -0.5664(13) 0.1323(7)
H35 H -0.7883 -0.5738 0.1877
C22 C -0.7402(12) -0.5286(12) -0.0195(7)
H36 H -0.6802 -0.5070 -0.0705
C23 C -0.8643(12) -0.5430(11) -0.0255(7)
H37 H -0.8840 -0.5346 -0.0802
C24 C -0.9586(12) -0.5702(12) 0.0509(8)
C25 C 0.0073(14) 0.0509(12) 0.0913(7)
H38 H 0.0795 0.0299 0.1232
H39 H -0.0753 0.0358 0.1298
H40 H -0.0214 0.1470 0.0695
C26 C 0.0127(9) 0.0436(10) -0.1164(6)
H41 H -0.0608 0.0718 -0.1500
C27 C 0.0540(9) 0.1651(9) -0.1173(6)
H42 H 0.1150 0.1448 -0.0762
C28 C 0.1328(11) 0.1985(11) -0.2095(7)
H43 H 0.0620 0.2423 -0.2453
C29 C 0.2556(9) 0.0741(10) -0.2573(6)
H44 H 0.3369 0.0404 -0.2295
C30 C 0.1938(11) -0.0436(10) -0.2475(6)
H45 H 0.1134 -0.0071 -0.2762
C31 C 0.3049(12) -0.1767(11) -0.2914(8)
H46 H 0.2586 -0.2411 -0.2893
H47 H 0.3428 -0.1544 -0.3529
N2 N -0.3100(8) -0.4390(8) -0.5279(5)
O10 O 0.3618(9) 0.3592(8) -0.6843(5)
O11 O 0.3180(10) 0.5536(8) -0.6239(6)
O12 O -0.0355(7) 0.1702(7) -0.4837(5)
H48 H -0.0672 0.1526 -0.4314
O13 O -0.2576(7) -0.5660(7) -0.5787(5)
O14 O -0.2900(6) -0.5800(6) -0.3957(4)
O15 O -0.6215(7) -0.3903(6) -0.4712(5)
H49 H -0.6376 -0.4080 -0.5147
O16 O -0.6704(7) -0.6229(8) -0.3627(5)
H50 H -0.7289 -0.5683 -0.3899
O17 O -0.5358(8) -0.6748(8) -0.2119(5)
H51 H -0.5965 -0.7078 -0.2072
O18 O -0.1577(10) -0.8278(10) -0.2978(7)
H52 H -0.1267 -0.8184 -0.3512
C32 C -0.1917(11) -0.2380(11) -0.6519(7)
H53 H -0.1404 -0.2192 -0.7110
H54 H -0.2828 -0.2374 -0.6559
C33 C -0.1011(10) -0.3870(11) -0.6193(6)
H55 H -0.0879 -0.4553 -0.6590
H56 H -0.0063 -0.3916 -0.6198
C34 C -0.1752(10) -0.4228(10) -0.5268(6)
H57 H -0.1096 -0.5112 -0.5048
C35 C -0.2135(10) -0.3044(10) -0.4647(7)
H58 H -0.2702 -0.3234 -0.4076
H59 H -0.1245 -0.3059 -0.4563
C36 C -0.2985(10) -0.1571(10) -0.4999(7)
H60 H -0.3922 -0.1553 -0.5016
C37 C -0.3292(12) -0.0485(12) -0.4350(8)
H61 H -0.3655 -0.0809 -0.3756
H62 H -0.4037 0.0392 -0.4485
C38 C -0.1919(12) -0.0227(12) -0.4387(8)
H63 H -0.2180 0.0534 -0.4013
H64 H -0.1233 -0.1063 -0.4161
C39 C -0.1216(10) 0.0135(9) -0.5310(7)
H65 H -0.1922 0.1000 -0.5512
C40 C -0.0811(10) -0.1015(9) -0.5963(6)
H66 H -0.0182 -0.1900 -0.5727
C41 C -0.2240(9) -0.1198(10) -0.5952(7)
C42 C -0.0001(11) -0.0749(10) -0.6853(7)
H67 H -0.0603 0.0105 -0.7117
H68 H 0.0253 -0.1517 -0.7219
C43 C 0.1385(10) -0.0602(10) -0.6810(6)
H69 H 0.1988 -0.1460 -0.6549
H70 H 0.1926 -0.0466 -0.7403
C44 C 0.1034(10) 0.0636(9) -0.6265(7)
C45 C 0.0151(9) 0.0445(8) -0.5338(6)
C46 C 0.1249(10) -0.0690(10) -0.4893(7)
H71 H 0.1383 -0.1612 -0.5033
H72 H 0.0929 -0.0618 -0.4258
C47 C 0.2697(11) -0.0442(11) -0.5261(8)
H73 H 0.2852 0.0011 -0.4833
H74 H 0.3515 -0.1324 -0.5398
C48 C 0.2507(10) 0.0520(10) -0.6108(7)
H75 H 0.3284 0.0011 -0.6598
C49 C -0.3336(12) 0.0124(12) -0.6316(10)
H76 H -0.4184 -0.0040 -0.6293
H77 H -0.2905 0.0332 -0.6916
H78 H -0.3601 0.0903 -0.5966
C50 C 0.0359(11) 0.2010(11) -0.6774(7)
H79 H -0.0535 0.2066 -0.6859
H80 H 0.1013 0.2039 -0.7337
H81 H 0.0178 0.2787 -0.6446
C51 C 0.2661(9) 0.1872(10) -0.6080(6)
C52 C 0.3435(11) 0.2372(11) -0.6803(7)
H82 H 0.3866 0.1840 -0.7300
C53 C 0.2060(11) 0.2727(12) -0.5332(6)
H83 H 0.1546 0.2435 -0.4810
C54 C 0.2221(10) 0.3917(10) -0.5372(7)
H84 H 0.1811 0.4433 -0.4868
C55 C 0.2981(11) 0.4471(11) -0.6134(7)
C56 C -0.3174(14) -0.5293(15) -0.6519(8)
H85 H -0.2835 -0.6106 -0.6855
H86 H -0.2885 -0.4583 -0.6882
H87 H -0.4210 -0.4941 -0.6323
C57 C -0.3872(9) -0.4695(9) -0.4417(6)
H88 H -0.4291 -0.3848 -0.4081
C58 C -0.5112(9) -0.5116(9) -0.4429(7)
H89 H -0.4757 -0.5872 -0.4833
C59 C -0.5776(9) -0.5568(9) -0.3521(6)
H90 H -0.6377 -0.4734 -0.3176
C60 C -0.4696(9) -0.6585(9) -0.3026(6)
H91 H -0.4221 -0.7497 -0.3296
C61 C -0.3567(9) -0.5974(9) -0.3066(6)
H92 H -0.4055 -0.5059 -0.2800
C62 C -0.2368(10) -0.6923(10) -0.2613(7)
H93 H -0.2893 -0.7118 -0.2020
O19? O -0.177(3) -0.603(3) -0.2482(14)
H94? H -0.1113 -0.6475 -0.2240
loop_
_geom_bond_atom_site_label_1
_geom_bond_atom_site_label_2
_geom_bond_site_symmetry_1
_geom_bond_site_symmetry_2
N1 O4 1_555 1_555
O1 C21 1_555 1_555
O2 C24 1_555 1_555
O3 H1 1_555 1_555
O4 C25 1_555 1_555
O5 C26 1_555 1_555
O6 H2 1_555 1_555
O7 H3 1_555 1_555
O8 H4 1_555 1_555
O9 H5 1_555 1_555
C1 H6 1_555 1_555
H7 C1 1_555 1_555
C2 C1 1_555 1_555
H8 C2 1_555 1_555
H9 C2 1_555 1_555
C3 N1 1_555 1_555
H10 C3 1_555 1_555
C4 C3 1_555 1_555
H11 C4 1_555 1_555
H12 C4 1_555 1_555
C5 C4 1_555 1_555
H13 C5 1_555 1_555
C6 C5 1_555 1_555
H14 C6 1_555 1_555
H15 C6 1_555 1_555
C7 C6 1_555 1_555
H16 C7 1_555 1_555
H17 C7 1_555 1_555
C8 C7 1_555 1_555
H18 C8 1_555 1_555
C9 C8 1_555 1_555
H19 C9 1_555 1_555
C10 C1 1_555 1_555
C11 C9 1_555 1_555
H20 C11 1_555 1_555
H21 C11 1_555 1_555
C12 C11 1_555 1_555
H22 C12 1_555 1_555
H23 C12 1_555 1_555
C13 C12 1_555 1_555
C14 O3 1_555 1_555
C15 C14 1_555 1_555
H24 C15 1_555 1_555
H25 C15 1_555 1_555
C16 C15 1_555 1_555
H26 C16 1_555 1_555
H27 C16 1_555 1_555
C17 C13 1_555 1_555
H28 C17 1_555 1_555
C18 C10 1_555 1_555
H29 C18 1_555 1_555
H30 C18 1_555 1_555
H31 C18 1_555 1_555
C19 C13 1_555 1_555
H32 C19 1_555 1_555
H33 C19 1_555 1_555
H34 C19 1_555 1_555
C20 C17 1_555 1_555
C21 C20 1_555 1_555
H35 C21 1_555 1_555
C22 C20 1_555 1_555
H36 C22 1_555 1_555
C23 C22 1_555 1_555
H37 C23 1_555 1_555
C24 O1 1_555 1_555
C25 H38 1_555 1_555
H39 C25 1_555 1_555
H40 C25 1_555 1_555
C26 N1 1_555 1_555
H41 C26 1_555 1_555
C27 O6 1_555 1_555
H42 C27 1_555 1_555
C28 O7 1_555 1_555
H43 C28 1_555 1_555
C29 O8 1_555 1_555
H44 C29 1_555 1_555
C30 O5 1_555 1_555
H45 C30 1_555 1_555
C31 O9 1_555 1_555
H46 C31 1_555 1_555
H47 C31 1_555 1_555
N2 O13 1_555 1_555
O10 C52 1_555 1_555
O11 C55 1_555 1_555
O12 H48 1_555 1_555
O13 C56 1_555 1_555
O14 C57 1_555 1_555
O15 H49 1_555 1_555
O16 H50 1_555 1_555
O17 H51 1_555 1_555
O18 H52 1_555 1_555
C32 H53 1_555 1_555
H54 C32 1_555 1_555
C33 C32 1_555 1_555
H55 C33 1_555 1_555
H56 C33 1_555 1_555
C34 N2 1_555 1_555
H57 C34 1_555 1_555
C35 C34 1_555 1_555
H58 C35 1_555 1_555
H59 C35 1_555 1_555
C36 C35 1_555 1_555
H60 C36 1_555 1_555
C37 C36 1_555 1_555
H61 C37 1_555 1_555
H62 C37 1_555 1_555
C38 C37 1_555 1_555
H63 C38 1_555 1_555
H64 C38 1_555 1_555
C39 C38 1_555 1_555
H65 C39 1_555 1_555
C40 C39 1_555 1_555
H66 C40 1_555 1_555
C41 C32 1_555 1_555
C42 C40 1_555 1_555
H67 C42 1_555 1_555
H68 C42 1_555 1_555
C43 C42 1_555 1_555
H69 C43 1_555 1_555
H70 C43 1_555 1_555
C44 C43 1_555 1_555
C45 O12 1_555 1_555
C46 C45 1_555 1_555
H71 C46 1_555 1_555
H72 C46 1_555 1_555
C47 C46 1_555 1_555
H73 C47 1_555 1_555
H74 C47 1_555 1_555
C48 C44 1_555 1_555
H75 C48 1_555 1_555
C49 C41 1_555 1_555
H76 C49 1_555 1_555
H77 C49 1_555 1_555
H78 C49 1_555 1_555
C50 C44 1_555 1_555
H79 C50 1_555 1_555
H80 C50 1_555 1_555
H81 C50 1_555 1_555
C51 C48 1_555 1_555
C52 C51 1_555 1_555
H82 C52 1_555 1_555
C53 C51 1_555 1_555
H83 C53 1_555 1_555
C54 C53 1_555 1_555
H84 C54 1_555 1_555
C55 O10 1_555 1_555
C56 H85 1_555 1_555
H86 C56 1_555 1_555
H87 C56 1_555 1_555
C57 N2 1_555 1_555
H88 C57 1_555 1_555
C58 O15 1_555 1_555
H89 C58 1_555 1_555
C59 O16 1_555 1_555
H90 C59 1_555 1_555
C60 O17 1_555 1_555
H91 C60 1_555 1_555
C61 O14 1_555 1_555
H92 C61 1_555 1_555
C62 O18 1_555 1_555
H93 C62 1_555 1_555
C2 C3 1_555 1_555
C5 C10 1_555 1_555
C8 C14 1_555 1_555
C9 C10 1_555 1_555
C13 C14 1_555 1_555
C16 C17 1_555 1_555
C23 C24 1_555 1_555
C26 C27 1_555 1_555
C27 C28 1_555 1_555
C28 C29 1_555 1_555
C29 C30 1_555 1_555
C30 C31 1_555 1_555
C33 C34 1_555 1_555
C36 C41 1_555 1_555
C39 C45 1_555 1_555
C40 C41 1_555 1_555
C44 C45 1_555 1_555
C47 C48 1_555 1_555
C54 C55 1_555 1_555
C57 C58 1_555 1_555
C58 C59 1_555 1_555
C59 C60 1_555 1_555
C60 C61 1_555 1_555
C61 C62 1_555 1_555

#END
