
#######################################################################
#
#                 Cambridge Crystallographic Data Centre
#                                CCDC 
#
#######################################################################
#
# If this CIF has been generated from an entry in the Cambridge 
# Structural Database, then it will include bibliographic, chemical, 
# crystal, experimental, refinement or atomic coordinate data resulting 
# from the CCDC's data processing and validation procedures.
#
#######################################################################

data_AQOFET
_chemical_formula_moiety         'C21 H32 O4 Si1'
_chemical_name_systematic        
'methyl 4-((t-butyl(dimethyl)silyl)oxy)-2-(4-methoxyphenyl)-4-methylhexa-2,5-dienoate'
_symmetry_cell_setting           triclinic
_symmetry_space_group_name_H-M   'P -1'
_symmetry_Int_Tables_number      2
_space_group_name_Hall           '-P 1'
loop_
_symmetry_equiv_pos_site_id
_symmetry_equiv_pos_as_xyz
1 x,y,z
2 -x,-y,-z
_cell_length_a                   6.3198(8)
_cell_length_b                   16.898(2)
_cell_length_c                   20.873(4)
_cell_angle_alpha                78.215(13)
_cell_angle_beta                 88.155(13)
_cell_angle_gamma                89.974(11)
_cell_volume                     2180.91
_cell_formula_units_Z            4
loop_
_atom_site_label
_atom_site_type_symbol
_atom_site_fract_x
_atom_site_fract_y
_atom_site_fract_z
C1 C 0.7640(10) 0.5361(4) 0.3463(3)
C2 C 0.7062(9) 0.4604(4) 0.3380(3)
H1 H 0.5789 0.4535 0.3167
C3 C 0.8334(10) 0.3934(4) 0.3608(3)
H2 H 0.7865 0.3408 0.3582
C4 C 1.0203(10) 0.4030(4) 0.3862(3)
C5 C 1.0827(11) 0.4792(4) 0.3947(4)
H3 H 1.2124 0.4861 0.4147
C6 C 0.9523(11) 0.5449(4) 0.3734(4)
H4 H 0.9961 0.5972 0.3779
C7 C 0.6248(9) 0.6073(4) 0.3250(3)
C8 C 0.5958(11) 0.6502(4) 0.2656(3)
H5 H 0.4965 0.6928 0.2636
C9 C 0.6952(14) 0.6427(5) 0.2000(3)
C10 C 0.9041(15) 0.5964(6) 0.2020(4)
H6 H 0.9514 0.5938 0.1573
H7 H 0.8830 0.5415 0.2278
H8 H 1.0115 0.6244 0.2221
C11 C 0.5346(15) 0.6062(5) 0.1620(4)
H9 H 0.4924 0.5518 0.1789
C12 C 0.4492(15) 0.6432(6) 0.1080(4)
H10 H 0.4870 0.6976 0.0894
H11 H 0.3492 0.6156 0.0873
C13 C 1.0885(11) 0.2624(4) 0.4104(4)
H12 H 0.9510 0.2513 0.4335
H13 H 1.1927 0.2234 0.4314
H14 H 1.0754 0.2577 0.3647
C14 C 0.4951(10) 0.6354(4) 0.3768(3)
C15 C 0.4022(11) 0.6103(5) 0.4916(3)
H15 H 0.4263 0.6674 0.4921
H16 H 0.4485 0.5768 0.5327
H17 H 0.2511 0.6009 0.4867
C16 C 1.1110(11) 0.7797(6) 0.2155(4)
H18 H 1.0937 0.7359 0.2541
H19 H 1.1702 0.8275 0.2284
H20 H 1.2072 0.7624 0.1833
C17 C 0.6911(12) 0.8553(4) 0.2355(3)
H21 H 0.5698 0.8817 0.2121
H22 H 0.7777 0.8958 0.2502
H23 H 0.6404 0.8148 0.2735
C18 C 0.8880(12) 0.8721(4) 0.0976(3)
C19 C 0.9944(15) 0.9522(5) 0.1050(5)
H24 H 1.0125 0.9880 0.0618
H25 H 1.1331 0.9406 0.1243
H26 H 0.9050 0.9788 0.1334
C20 C 0.6717(12) 0.8915(5) 0.0678(4)
H27 H 0.6855 0.9374 0.0306
H28 H 0.5730 0.9054 0.1009
H29 H 0.6179 0.8443 0.0528
C21 C 1.0338(15) 0.8313(5) 0.0522(4)
H30 H 0.9852 0.7757 0.0543
H31 H 1.1797 0.8306 0.0668
H32 H 1.0281 0.8619 0.0070
O1 O 0.7340(7) 0.7245(3) 0.1636(2)
O2 O 0.3719(7) 0.6910(3) 0.3695(2)
O3 O 0.5216(7) 0.5890(3) 0.4372(2)
O4 O 1.1558(7) 0.3419(3) 0.4127(2)
Si1 Si 0.8543(3) 0.80458(12) 0.17942(9)
C22 C 0.7421(10) 0.9651(4) 0.6493(3)
C23 C 0.9372(10) 0.9584(4) 0.6195(4)
H33 H 0.9852 0.9062 0.6156
C24 C 1.0673(10) 1.0253(4) 0.5949(4)
H34 H 1.1952 1.0198 0.5711
C25 C 1.0061(10) 1.0977(4) 0.6060(4)
C26 C 0.8188(10) 1.1077(4) 0.6370(3)
H35 H 0.7770 1.1599 0.6427
C27 C 0.6885(10) 1.0411(4) 0.6604(3)
H36 H 0.5613 1.0476 0.6843
C28 C 0.6079(10) 0.8927(4) 0.6729(3)
C29 C 0.4727(10) 0.8654(4) 0.6236(3)
C30 C 0.4036(11) 0.8867(4) 0.5100(3)
H37 H 0.4572 0.8346 0.5029
H38 H 0.4266 0.9279 0.4699
H39 H 0.2518 0.8818 0.5213
C31 C 0.5816(11) 0.8493(4) 0.7332(3)
H40 H 0.4807 0.8066 0.7380
C32 C 0.6874(13) 0.8573(4) 0.7954(3)
C33 C 0.9103(14) 0.8932(5) 0.7868(4)
H41 H 0.9789 0.8827 0.8291
H42 H 0.9026 0.9517 0.7701
H43 H 0.9928 0.8684 0.7557
C34 C 0.5423(16) 0.9014(5) 0.8352(5)
H44 H 0.5090 0.9556 0.8155
C35 C 0.4600(18) 0.8748(7) 0.8915(5)
H45 H 0.4874 0.8210 0.9137
H46 H 0.3707 0.9085 0.9117
C36 C 1.0864(12) 1.2394(4) 0.5846(4)
H47 H 0.9541 1.2534 0.5618
H48 H 1.1980 1.2776 0.5644
H49 H 1.0657 1.2424 0.6308
C37 C 1.0780(14) 0.7013(6) 0.8029(5)
H50 H 1.0952 0.7365 0.7595
H51 H 1.1367 0.6479 0.8016
H52 H 1.1530 0.7249 0.8349
C38 C 0.6756(11) 0.6427(4) 0.7648(3)
H53 H 0.5249 0.6356 0.7773
H54 H 0.7391 0.5898 0.7646
H55 H 0.6912 0.6770 0.7210
C39 C 0.7858(11) 0.6252(4) 0.9113(3)
C40 C 0.8957(14) 0.6645(5) 0.9599(4)
H56 H 0.8446 0.6401 1.0044
H57 H 0.8651 0.7225 0.9509
H58 H 1.0489 0.6565 0.9561
C41 C 0.5523(13) 0.6127(6) 0.9293(4)
H59 H 0.5338 0.5666 0.9661
H60 H 0.4772 0.6019 0.8916
H61 H 0.4947 0.6614 0.9418
C42 C 0.8883(14) 0.5428(5) 0.9125(5)
H62 H 1.0367 0.5506 0.8974
H63 H 0.8127 0.5144 0.8835
H64 H 0.8811 0.5107 0.9572
O5 O 0.7024(7) 0.7765(3) 0.8345(2)
O6 O 0.3523(7) 0.8091(3) 0.6332(2)
O7 O 0.5149(7) 0.9099(3) 0.5630(2)
O8 O 1.1455(7) 1.1609(3) 0.5800(2)
Si2 Si 0.8124(3) 0.69155(12) 0.82522(9)
loop_
_geom_bond_atom_site_label_1
_geom_bond_atom_site_label_2
_geom_bond_site_symmetry_1
_geom_bond_site_symmetry_2
C1 C2 1_555 1_555
C2 H1 1_555 1_555
C3 C2 1_555 1_555
H2 C3 1_555 1_555
C4 C3 1_555 1_555
C5 C4 1_555 1_555
H3 C5 1_555 1_555
C6 C1 1_555 1_555
H4 C6 1_555 1_555
C7 C1 1_555 1_555
C8 C7 1_555 1_555
H5 C8 1_555 1_555
C9 C8 1_555 1_555
C10 C9 1_555 1_555
H6 C10 1_555 1_555
H7 C10 1_555 1_555
H8 C10 1_555 1_555
C11 C9 1_555 1_555
H9 C11 1_555 1_555
C12 C11 1_555 1_555
H10 C12 1_555 1_555
H11 C12 1_555 1_555
C13 H12 1_555 1_555
H13 C13 1_555 1_555
H14 C13 1_555 1_555
C14 C7 1_555 1_555
C15 H15 1_555 1_555
H16 C15 1_555 1_555
H17 C15 1_555 1_555
C16 H18 1_555 1_555
H19 C16 1_555 1_555
H20 C16 1_555 1_555
C17 H21 1_555 1_555
H22 C17 1_555 1_555
H23 C17 1_555 1_555
C18 C19 1_555 1_555
C19 H24 1_555 1_555
H25 C19 1_555 1_555
H26 C19 1_555 1_555
C20 C18 1_555 1_555
H27 C20 1_555 1_555
H28 C20 1_555 1_555
H29 C20 1_555 1_555
C21 C18 1_555 1_555
H30 C21 1_555 1_555
H31 C21 1_555 1_555
H32 C21 1_555 1_555
O1 C9 1_555 1_555
O2 C14 1_555 1_555
O3 C14 1_555 1_555
O4 C4 1_555 1_555
Si1 C16 1_555 1_555
C22 C23 1_555 1_555
C23 H33 1_555 1_555
C24 C23 1_555 1_555
H34 C24 1_555 1_555
C25 C24 1_555 1_555
C26 C25 1_555 1_555
H35 C26 1_555 1_555
C27 C22 1_555 1_555
H36 C27 1_555 1_555
C28 C22 1_555 1_555
C29 C28 1_555 1_555
C30 H37 1_555 1_555
H38 C30 1_555 1_555
H39 C30 1_555 1_555
C31 C28 1_555 1_555
H40 C31 1_555 1_555
C32 C31 1_555 1_555
C33 C32 1_555 1_555
H41 C33 1_555 1_555
H42 C33 1_555 1_555
H43 C33 1_555 1_555
C34 C32 1_555 1_555
H44 C34 1_555 1_555
C35 C34 1_555 1_555
H45 C35 1_555 1_555
H46 C35 1_555 1_555
C36 H47 1_555 1_555
H48 C36 1_555 1_555
H49 C36 1_555 1_555
C37 H50 1_555 1_555
H51 C37 1_555 1_555
H52 C37 1_555 1_555
C38 H53 1_555 1_555
H54 C38 1_555 1_555
H55 C38 1_555 1_555
C39 C40 1_555 1_555
C40 H56 1_555 1_555
H57 C40 1_555 1_555
H58 C40 1_555 1_555
C41 C39 1_555 1_555
H59 C41 1_555 1_555
H60 C41 1_555 1_555
H61 C41 1_555 1_555
C42 C39 1_555 1_555
H62 C42 1_555 1_555
H63 C42 1_555 1_555
H64 C42 1_555 1_555
O5 C32 1_555 1_555
O6 C29 1_555 1_555
O7 C29 1_555 1_555
O8 C25 1_555 1_555
Si2 C37 1_555 1_555
C5 C6 1_555 1_555
C13 O4 1_555 1_555
C15 O3 1_555 1_555
C17 Si1 1_555 1_555
C18 Si1 1_555 1_555
O1 Si1 1_555 1_555
C26 C27 1_555 1_555
C30 O7 1_555 1_555
C36 O8 1_555 1_555
C38 Si2 1_555 1_555
C39 Si2 1_555 1_555
O5 Si2 1_555 1_555

#END
