
#######################################################################
#
#                 Cambridge Crystallographic Data Centre
#                                CCDC 
#
#######################################################################
#
# If this CIF has been generated from an entry in the Cambridge 
# Structural Database, then it will include bibliographic, chemical, 
# crystal, experimental, refinement or atomic coordinate data resulting 
# from the CCDC's data processing and validation procedures.
#
#######################################################################

data_AQONEB
_chemical_formula_moiety         'C28 H27 N1 O9'
_chemical_name_systematic        
'tetramethyl 1-(4-methoxyphenyl)-6-(2-phenylvinyl)-1,6-dihydropyridine-2,3,4,5-tetracarboxylate'
_symmetry_cell_setting           monoclinic
_symmetry_space_group_name_H-M   'P 21/c'
_symmetry_Int_Tables_number      14
_space_group_name_Hall           '-P 2ybc'
loop_
_symmetry_equiv_pos_site_id
_symmetry_equiv_pos_as_xyz
1 x,y,z
2 -x,1/2+y,1/2-z
3 -x,-y,-z
4 x,1/2-y,1/2+z
_cell_length_a                   13.205(4)
_cell_length_b                   12.605(3)
_cell_length_c                   20.048(4)
_cell_angle_alpha                90
_cell_angle_beta                 127.011(12)
_cell_angle_gamma                90
_cell_volume                     2664.64
_exptl_crystal_colour            yellow
_exptl_crystal_description       block
_cell_formula_units_Z            4
loop_
_atom_site_label
_atom_site_type_symbol
_atom_site_fract_x
_atom_site_fract_y
_atom_site_fract_z
C1 C 1.2461(2) 0.6437(2) 0.78332(17)
H1 H 1.2293 0.6453 0.8222
C2 C 1.3589(3) 0.6852(2) 0.8045(2)
H2 H 1.4181 0.7132 0.8575
C3 C 1.3830(3) 0.6849(2) 0.7467(2)
H3 H 1.4596 0.7112 0.7611
C4 C 1.2950(3) 0.6464(2) 0.6686(2)
H4 H 1.3105 0.6490 0.6290
C5 C 1.1831(3) 0.6035(2) 0.64743(17)
H5 H 1.1242 0.5769 0.5939
C6 C 1.1574(2) 0.59964(18) 0.70488(15)
C7 C 1.0408(2) 0.54770(18) 0.68221(14)
H6 H 0.9760 0.5392 0.6255
C8 C 1.01898(19) 0.51212(18) 0.73402(13)
H7 H 1.0849 0.5189 0.7907
C9 C 0.89849(18) 0.46141(17) 0.71172(12)
H8 H 0.9180 0.3894 0.7347
C10 C 0.77457(18) 0.35684(15) 0.57874(12)
C11 C 0.87574(19) 0.29237(17) 0.60056(13)
H9 H 0.9583 0.3130 0.6432
C12 C 0.8540(2) 0.19852(18) 0.55940(14)
H10 H 0.9219 0.1550 0.5750
C13 C 0.7321(2) 0.16818(17) 0.49493(14)
C14 C 0.6038(3) 0.0517(3) 0.3782(2)
H11 H 0.5408 0.0377 0.3867
H12 H 0.6133 -0.0095 0.3540
H13 H 0.5778 0.1113 0.3414
C15 C 0.6306(2) 0.23081(18) 0.47408(14)
H14 H 0.5482 0.2100 0.4315
C16 C 0.65239(19) 0.32455(16) 0.51686(13)
H15 H 0.5843 0.3659 0.5038
C17 C 0.74013(18) 0.54764(16) 0.58141(12)
C18 C 0.6857(2) 0.55251(16) 0.49027(13)
C19 C 0.5006(3) 0.5575(2) 0.35221(14)
H16 H 0.5382 0.6127 0.3407
H17 H 0.4114 0.5709 0.3218
H18 H 0.5128 0.4904 0.3354
C20 C 0.74032(19) 0.63278(17) 0.62487(13)
C21 C 0.7034(2) 0.73792(19) 0.5847(2)
C22 C 0.6646(4) 0.9170(3) 0.5848(3)
H19 H 0.7236 0.9364 0.5738
H20 H 0.6651 0.9701 0.6194
H21 H 0.5810 0.9116 0.5331
C23 C 0.77872(19) 0.61266(17) 0.70851(13)
C24 C 0.7298(2) 0.68395(18) 0.74405(15)
C25 C 0.7871(3) 0.8082(2) 0.84875(18)
H22 H 0.7236 0.8581 0.8097
H23 H 0.8603 0.8458 0.8937
H24 H 0.7538 0.7646 0.8706
C26 C 0.84692(19) 0.52449(17) 0.74950(13)
C27 C 0.8762(2) 0.4900(2) 0.82957(14)
C28 C 0.9964(4) 0.3665(3) 0.94063(17)
H25 H 1.0459 0.4174 0.9846
H26 H 1.0455 0.3034 0.9532
H27 H 0.9215 0.3494 0.9359
N1 N 0.79869(15) 0.45560(13) 0.62118(10)
O1 O 0.72162(19) 0.07501(14) 0.45638(12)
O2 O 0.75141(15) 0.54990(13) 0.46778(10)
O3 O 0.55975(14) 0.55537(12) 0.44071(9)
O4 O 0.6788(2) 0.75309(14) 0.51553(14)
O5 O 0.70199(18) 0.81327(13) 0.62850(12)
O6 O 0.62136(15) 0.68640(14) 0.71845(11)
O7 O 0.82279(15) 0.74209(13) 0.80692(10)
O8 O 0.83267(19) 0.52768(17) 0.86205(11)
O9 O 0.96047(17) 0.41081(15) 0.86260(10)
C29? C 0.6807(9) 0.8632(8) 0.5045(6)
H28? H 0.6125 0.8962 0.5014
H29? H 0.6708 0.8764 0.4537
H30? H 0.7601 0.8920 0.5508
loop_
_geom_bond_atom_site_label_1
_geom_bond_atom_site_label_2
_geom_bond_site_symmetry_1
_geom_bond_site_symmetry_2
C1 H1 1_555 1_555
C2 C1 1_555 1_555
H2 C2 1_555 1_555
C3 C2 1_555 1_555
H3 C3 1_555 1_555
C4 C3 1_555 1_555
H4 C4 1_555 1_555
C5 C4 1_555 1_555
H5 C5 1_555 1_555
C6 C1 1_555 1_555
C7 C6 1_555 1_555
H6 C7 1_555 1_555
C8 C7 1_555 1_555
H7 C8 1_555 1_555
C9 C8 1_555 1_555
H8 C9 1_555 1_555
C10 C11 1_555 1_555
C11 H9 1_555 1_555
C12 C11 1_555 1_555
H10 C12 1_555 1_555
C13 C12 1_555 1_555
C14 H11 1_555 1_555
H12 C14 1_555 1_555
H13 C14 1_555 1_555
C15 C13 1_555 1_555
H14 C15 1_555 1_555
C16 C10 1_555 1_555
H15 C16 1_555 1_555
C17 C18 1_555 1_555
C18 O2 1_555 1_555
C19 H16 1_555 1_555
H17 C19 1_555 1_555
H18 C19 1_555 1_555
C20 C17 1_555 1_555
C21 C20 1_555 1_555
C22 H19 1_555 1_555
H20 C22 1_555 1_555
H21 C22 1_555 1_555
C23 C20 1_555 1_555
C24 C23 1_555 1_555
C25 H22 1_555 1_555
H23 C25 1_555 1_555
H24 C25 1_555 1_555
C26 C9 1_555 1_555
C27 C26 1_555 1_555
C28 H25 1_555 1_555
H26 C28 1_555 1_555
H27 C28 1_555 1_555
N1 C9 1_555 1_555
O1 C13 1_555 1_555
O3 C18 1_555 1_555
O4 C21 1_555 1_555
O5 C21 1_555 1_555
O6 C24 1_555 1_555
O7 C24 1_555 1_555
O8 C27 1_555 1_555
O9 C27 1_555 1_555
C5 C6 1_555 1_555
C10 N1 1_555 1_555
C14 O1 1_555 1_555
C15 C16 1_555 1_555
C17 N1 1_555 1_555
C19 O3 1_555 1_555
C22 O5 1_555 1_555
C23 C26 1_555 1_555
C25 O7 1_555 1_555
C28 O9 1_555 1_555

#END
