
#######################################################################
#
#                 Cambridge Crystallographic Data Centre
#                                CCDC 
#
#######################################################################
#
# If this CIF has been generated from an entry in the Cambridge 
# Structural Database, then it will include bibliographic, chemical, 
# crystal, experimental, refinement or atomic coordinate data resulting 
# from the CCDC's data processing and validation procedures.
#
#######################################################################

data_AQOQED
_chemical_formula_moiety         'C15 H27 N2 O2 1+,Br1 1-'
_chemical_name_systematic        
'1-(Carboxymethyl)-3-decyl-1H-imidazol-3-ium bromide'
_symmetry_cell_setting           monoclinic
_symmetry_space_group_name_H-M   'P 21/c'
_symmetry_Int_Tables_number      14
_space_group_name_Hall           '-P 2ybc'
loop_
_symmetry_equiv_pos_site_id
_symmetry_equiv_pos_as_xyz
1 x,y,z
2 -x,1/2+y,1/2-z
3 -x,-y,-z
4 x,1/2-y,1/2+z
_cell_length_a                   7.7796(5)
_cell_length_b                   4.7083(3)
_cell_length_c                   47.139(3)
_cell_angle_alpha                90
_cell_angle_beta                 91.573(3)
_cell_angle_gamma                90
_cell_volume                     1725.99
_exptl_crystal_colour            colorless
_exptl_crystal_description       columnar
_chemical_melting_point          '101.9 deg.C'
_cell_formula_units_Z            4
_exptl_crystal_recrystallization_method methanol/ether
loop_
_atom_site_label
_atom_site_type_symbol
_atom_site_fract_x
_atom_site_fract_y
_atom_site_fract_z
Br1 Br 0.10766(3) 0.60571(7) 0.168850(6)
O1 O 0.1355(3) -0.4064(4) -0.27161(4)
H1 H 0.1435 -0.3195 -0.2866
O2 O 0.3047(3) -0.0598(5) -0.25418(4)
N1 N 0.3633(3) 0.0035(5) -0.16599(4)
N2 N 0.3057(3) -0.2793(5) -0.20078(4)
C1 C 0.2374(3) -0.1068(5) -0.18182(5)
H2 H 0.1208 -0.0700 -0.1800
C2 C 0.5166(4) -0.1049(7) -0.17481(6)
H3 H 0.6249 -0.0661 -0.1669
C3 C 0.4820(4) -0.2750(8) -0.19664(6)
H4 H 0.5618 -0.3733 -0.2072
C4 C 0.2104(4) -0.4266(6) -0.22340(5)
H5 H 0.0904 -0.4408 -0.2185
H6 H 0.2553 -0.6176 -0.2253
C5 C 0.2238(4) -0.2722(6) -0.25137(5)
C6 C 0.3413(4) 0.1877(6) -0.14134(6)
H7 H 0.2435 0.3118 -0.1448
H8 H 0.4427 0.3056 -0.1386
C7 C 0.3133(4) 0.0166(6) -0.11462(5)
H9 H 0.2084 -0.0933 -0.1169
H10 H 0.4080 -0.1153 -0.1118
C8 C 0.3005(4) 0.2052(6) -0.08872(6)
H11 H 0.2030 0.3319 -0.0913
H12 H 0.4034 0.3208 -0.0869
C9 C 0.2796(4) 0.0354(6) -0.06164(6)
H13 H 0.3754 -0.0953 -0.0595
H14 H 0.1752 -0.0765 -0.0634
C10 C 0.2710(4) 0.2183(7) -0.03502(6)
H15 H 0.1742 0.3471 -0.0371
H16 H 0.3747 0.3324 -0.0334
C11 C 0.2526(4) 0.0488(6) -0.00751(6)
H17 H 0.1493 -0.0661 -0.0091
H18 H 0.3497 -0.0793 -0.0053
C12 C 0.2432(4) 0.2307(7) 0.01874(6)
H19 H 0.1463 0.3593 0.0165
H20 H 0.3467 0.3451 0.0204
C13 C 0.2241(4) 0.0619(6) 0.04631(6)
H21 H 0.1208 -0.0529 0.0447
H22 H 0.3211 -0.0664 0.0485
C14 C 0.2143(4) 0.2436(8) 0.07269(6)
H23 H 0.1178 0.3729 0.0705
H24 H 0.3181 0.3572 0.0745
C15 C 0.1939(5) 0.0733(10) 0.09994(7)
H25 H 0.1885 0.2010 0.1158
H26 H 0.2904 -0.0518 0.1026
H27 H 0.0900 -0.0363 0.0986
loop_
_geom_bond_atom_site_label_1
_geom_bond_atom_site_label_2
_geom_bond_site_symmetry_1
_geom_bond_site_symmetry_2
O1 H1 1_555 1_555
O2 C5 1_555 1_555
N1 C1 1_555 1_555
N2 C1 1_555 1_555
C1 H2 1_555 1_555
C2 N1 1_555 1_555
H3 C2 1_555 1_555
C3 N2 1_555 1_555
H4 C3 1_555 1_555
C4 N2 1_555 1_555
H5 C4 1_555 1_555
H6 C4 1_555 1_555
C5 O1 1_555 1_555
C6 N1 1_555 1_555
H7 C6 1_555 1_555
H8 C6 1_555 1_555
C7 C6 1_555 1_555
H9 C7 1_555 1_555
H10 C7 1_555 1_555
C8 C7 1_555 1_555
H11 C8 1_555 1_555
H12 C8 1_555 1_555
C9 C8 1_555 1_555
H13 C9 1_555 1_555
H14 C9 1_555 1_555
C10 C9 1_555 1_555
H15 C10 1_555 1_555
H16 C10 1_555 1_555
C11 C10 1_555 1_555
H17 C11 1_555 1_555
H18 C11 1_555 1_555
C12 C11 1_555 1_555
H19 C12 1_555 1_555
H20 C12 1_555 1_555
C13 C12 1_555 1_555
H21 C13 1_555 1_555
H22 C13 1_555 1_555
C14 C13 1_555 1_555
H23 C14 1_555 1_555
H24 C14 1_555 1_555
C15 C14 1_555 1_555
H25 C15 1_555 1_555
H26 C15 1_555 1_555
H27 C15 1_555 1_555
C2 C3 1_555 1_555
C4 C5 1_555 1_555

#END
