
#######################################################################
#
#                 Cambridge Crystallographic Data Centre
#                                CCDC 
#
#######################################################################
#
# If this CIF has been generated from an entry in the Cambridge 
# Structural Database, then it will include bibliographic, chemical, 
# crystal, experimental, refinement or atomic coordinate data resulting 
# from the CCDC's data processing and validation procedures.
#
#######################################################################

data_AQOSOQ
_chemical_formula_moiety         'C12 H8 N4 O2,H2 O1'
_chemical_name_systematic        
'6-(1H-tetrazol-5-yl)-2-naphthoic acid monohydrate'
_symmetry_cell_setting           monoclinic
_symmetry_space_group_name_H-M   'P 21/c'
_symmetry_Int_Tables_number      14
_space_group_name_Hall           '-P 2ybc'
loop_
_symmetry_equiv_pos_site_id
_symmetry_equiv_pos_as_xyz
1 x,y,z
2 -x,1/2+y,1/2-z
3 -x,-y,-z
4 x,1/2-y,1/2+z
_cell_length_a                   10.018(2)
_cell_length_b                   5.4970(11)
_cell_length_c                   43.932(9)
_cell_angle_alpha                90
_cell_angle_beta                 90.58(3)
_cell_angle_gamma                90
_cell_volume                     2419.16
_exptl_crystal_colour            colorless
_exptl_crystal_description       block
_cell_formula_units_Z            8
loop_
_atom_site_label
_atom_site_type_symbol
_atom_site_fract_x
_atom_site_fract_y
_atom_site_fract_z
O1 O 0.2229(3) 0.1953(4) 0.27077(5)
H1 H 0.2881 0.1085 0.2768
H2 H 0.1756 0.1147 0.2581
O2 O 0.6242(2) 0.7083(4) 0.49272(4)
O3 O 0.6821(2) 0.3672(4) 0.46541(5)
H3 H 0.7453 0.3663 0.4774
N1 N 0.0754(3) 0.5697(4) 0.29814(5)
H4 H 0.1172 0.4396 0.2930
N2 N 0.0114(3) 0.8950(5) 0.32437(5)
N3 N -0.0638(3) 0.8734(5) 0.29756(5)
N4 N -0.0260(3) 0.6799(5) 0.28156(5)
C1 C 0.3946(3) 0.5255(5) 0.39548(6)
C2 C 0.2830(3) 0.4280(6) 0.34591(6)
H5 H 0.2733 0.3275 0.3290
C3 C 0.5061(3) 0.6243(6) 0.44506(6)
C4 C 0.6103(3) 0.5665(6) 0.46958(6)
C5 C 0.3104(3) 0.7424(5) 0.39852(6)
C6 C 0.3789(3) 0.3703(5) 0.36866(6)
H6 H 0.4323 0.2330 0.3665
C7 C 0.4924(3) 0.4715(5) 0.41921(6)
H7 H 0.5467 0.3351 0.4174
C8 C 0.0982(3) 0.7035(5) 0.32428(6)
C9 C 0.1995(3) 0.6431(6) 0.34873(6)
C10 C 0.4223(3) 0.8401(6) 0.44807(6)
H8 H 0.4323 0.9406 0.4650
C11 C 0.3263(3) 0.8969(6) 0.42543(6)
H9 H 0.2727 1.0337 0.4276
C12 C 0.2127(3) 0.7962(5) 0.37452(6)
H10 H 0.1584 0.9327 0.3762
O4 O 0.8758(2) 0.2920(4) 0.50732(4)
O5 O 0.8172(2) 0.6323(4) 0.53464(4)
H11 H 0.7740 0.6621 0.5191
N5 N 1.4244(3) 0.4288(5) 0.70180(5)
H12 H 1.3818 0.5579 0.7070
N6 N 1.5259(3) 0.3208(5) 0.71823(5)
N7 N 1.4883(3) 0.1038(5) 0.67556(5)
N8 N 1.5634(3) 0.1263(5) 0.70232(5)
C13 C 1.1893(3) 0.2592(5) 0.60145(6)
C14 C 1.1058(3) 0.4740(5) 0.60457(6)
C15 C 1.0072(3) 0.5291(5) 0.58076(6)
H13 H 0.9532 0.6658 0.5826
C16 C 1.3004(3) 0.3578(6) 0.65109(6)
C17 C 1.0780(3) 0.1607(6) 0.55191(6)
H14 H 1.0685 0.0605 0.5350
C18 C 0.9933(3) 0.3756(6) 0.55495(6)
C19 C 1.1737(3) 0.1045(6) 0.57450(6)
H15 H 1.2276 -0.0320 0.5723
C20 C 1.1212(3) 0.6298(6) 0.63144(6)
H16 H 1.0672 0.7661 0.6336
C21 C 0.8893(3) 0.4331(6) 0.53045(6)
C22 C 1.4022(3) 0.2949(5) 0.67555(6)
C23 C 1.2163(3) 0.5750(5) 0.65382(6)
H17 H 1.2264 0.6769 0.6706
C24 C 1.2872(3) 0.2039(5) 0.62535(6)
H18 H 1.3411 0.0669 0.6237
O6 O 1.2771(3) 0.8049(4) 0.72929(5)
H19 H 1.3235 0.8872 0.7419
H20 H 1.2167 0.8949 0.7215
loop_
_geom_bond_atom_site_label_1
_geom_bond_atom_site_label_2
_geom_bond_site_symmetry_1
_geom_bond_site_symmetry_2
O1 H1 1_555 1_555
H2 O1 1_555 1_555
O2 C4 1_555 1_555
O3 H3 1_555 1_555
N1 H4 1_555 1_555
N2 N3 1_555 1_555
N3 N4 1_555 1_555
N4 N1 1_555 1_555
C1 C5 1_555 1_555
C2 H5 1_555 1_555
C3 C4 1_555 1_555
C4 O3 1_555 1_555
C5 C11 1_555 1_555
C6 C1 1_555 1_555
H6 C6 1_555 1_555
C7 C1 1_555 1_555
H7 C7 1_555 1_555
C8 N1 1_555 1_555
C9 C2 1_555 1_555
C10 C3 1_555 1_555
H8 C10 1_555 1_555
C11 C10 1_555 1_555
H9 C11 1_555 1_555
C12 C5 1_555 1_555
H10 C12 1_555 1_555
O4 C21 1_555 1_555
O5 H11 1_555 1_555
N5 H12 1_555 1_555
N6 N5 1_555 1_555
N7 N8 1_555 1_555
N8 N6 1_555 1_555
C13 C14 1_555 1_555
C14 C15 1_555 1_555
C15 H13 1_555 1_555
C16 C22 1_555 1_555
C17 H14 1_555 1_555
C18 C15 1_555 1_555
C19 C13 1_555 1_555
H15 C19 1_555 1_555
C20 C14 1_555 1_555
H16 C20 1_555 1_555
C21 O5 1_555 1_555
C22 N5 1_555 1_555
C23 C16 1_555 1_555
H17 C23 1_555 1_555
C24 C13 1_555 1_555
H18 C24 1_555 1_555
O6 H19 1_555 1_555
H20 O6 1_555 1_555
N2 C8 1_555 1_555
C2 C6 1_555 1_555
C3 C7 1_555 1_555
C8 C9 1_555 1_555
C9 C12 1_555 1_555
N7 C22 1_555 1_555
C16 C24 1_555 1_555
C17 C18 1_555 1_555
C17 C19 1_555 1_555
C18 C21 1_555 1_555
C20 C23 1_555 1_555

#END
