
#######################################################################
#
#                 Cambridge Crystallographic Data Centre
#                                CCDC 
#
#######################################################################
#
# If this CIF has been generated from an entry in the Cambridge 
# Structural Database, then it will include bibliographic, chemical, 
# crystal, experimental, refinement or atomic coordinate data resulting 
# from the CCDC's data processing and validation procedures.
#
#######################################################################

data_AQOSAB
_chemical_formula_moiety         'C1 H8 N4 O1 2+,2(C3 H2 N5 O4 1-)'
_chemical_name_systematic        
"2,2'-Carbonyldihydraziniumm bis(4-amino-3,5-dinitropyrazol-1-ide)"
_symmetry_cell_setting           monoclinic
_symmetry_space_group_name_H-M   'C 2/c'
_symmetry_Int_Tables_number      15
_space_group_name_Hall           '-C 2yn'
loop_
_symmetry_equiv_pos_site_id
_symmetry_equiv_pos_as_xyz
1 x,y,z
2 -x,y,1/2-z
3 1/2+x,1/2+y,z
4 1/2-x,1/2+y,1/2-z
5 -x,-y,-z
6 x,-y,1/2+z
7 1/2-x,1/2-y,-z
8 1/2+x,1/2-y,1/2+z
_cell_length_a                   12.571(2)
_cell_length_b                   9.3810(16)
_cell_length_c                   13.169(2)
_cell_angle_alpha                90
_cell_angle_beta                 97.658(2)
_cell_angle_gamma                90
_cell_volume                     1539.15
_exptl_crystal_colour            orange
_exptl_crystal_description       plate
_chemical_melting_point          '193 deg.C (dec.)'
_cell_formula_units_Z            4
_exptl_crystal_recrystallization_method water
_exptl_crystal_preparation       explosive
loop_
_atom_site_label
_atom_site_type_symbol
_atom_site_fract_x
_atom_site_fract_y
_atom_site_fract_z
N1 N 0.81859(9) 0.46298(12) 0.35458(9)
N2 N 0.83697(9) 0.33577(12) 0.39624(9)
C1 C 0.87218(10) 0.35554(14) 0.49812(10)
C2 C 0.87796(10) 0.50076(14) 0.52578(10)
C3 C 0.84280(10) 0.56261(14) 0.42995(10)
N3 N 0.89769(9) 0.24050(12) 0.56444(9)
O1 O 0.88850(8) 0.11634(10) 0.53345(8)
O2 O 0.92955(8) 0.27123(11) 0.65650(7)
N4 N 0.90630(9) 0.56105(13) 0.61765(9)
H1 H 0.9043 0.6543 0.6241
H2 H 0.9269 0.5073 0.6715
N5 N 0.82966(9) 0.70758(12) 0.40757(9)
O3 O 0.86016(8) 0.79583(10) 0.47661(8)
O4 O 0.78849(8) 0.74450(10) 0.32043(8)
O5 O 1.0000 0.19648(15) 0.2500
C4 C 1.0000 0.0663(2) 0.2500
N6 N 0.92279(9) -0.01672(13) 0.28318(10)
H3 H 0.9284 -0.1102 0.2826
N7 N 0.83366(9) 0.04917(12) 0.31858(9)
H4 H 0.8249 0.0131 0.3811
H5 H 0.7736 0.0320 0.2736
H6 H 0.8451 0.1448 0.3239
N6A N 1.07721(9) -0.01672(13) 0.21682(10)
H3A H 1.0716 -0.1102 0.2174
N7A N 1.16634(9) 0.04917(12) 0.18142(9)
H4A H 1.1751 0.0131 0.1189
H5A H 1.2264 0.0320 0.2264
H6A H 1.1549 0.1448 0.1761
loop_
_geom_bond_atom_site_label_1
_geom_bond_atom_site_label_2
_geom_bond_site_symmetry_1
_geom_bond_site_symmetry_2
N1 N2 1_555 1_555
N2 C1 1_555 1_555
C1 C2 1_555 1_555
C2 C3 1_555 1_555
C3 N1 1_555 1_555
N3 C1 1_555 1_555
O1 N3 1_555 1_555
O2 N3 1_555 1_555
N4 C2 1_555 1_555
H1 N4 1_555 1_555
H2 N4 1_555 1_555
N5 C3 1_555 1_555
O3 N5 1_555 1_555
O4 N5 1_555 1_555
O5 C4 1_555 1_555
C4 N6 1_555 1_555
N6 H3 1_555 1_555
N7 N6 1_555 1_555
H4 N7 1_555 1_555
H5 N7 1_555 1_555
H6 N7 1_555 1_555
N6A C4 1_555 1_555
H3A N6A 1_555 1_555
N7A N6A 1_555 1_555
H4A N7A 1_555 1_555
H5A N7A 1_555 1_555
H6A N7A 1_555 1_555

#END
