
#######################################################################
#
#                 Cambridge Crystallographic Data Centre
#                                CCDC 
#
#######################################################################
#
# If this CIF has been generated from an entry in the Cambridge 
# Structural Database, then it will include bibliographic, chemical, 
# crystal, experimental, refinement or atomic coordinate data resulting 
# from the CCDC's data processing and validation procedures.
#
#######################################################################

data_AQOTAC
_chemical_name_common            1,2,2-Triphenyl-1-pyrenylethene
_chemical_formula_moiety         'C36 H24'
_chemical_name_systematic        1-(Triphenylvinyl)pyrene
_symmetry_cell_setting           triclinic
_symmetry_space_group_name_H-M   'P -1'
_symmetry_Int_Tables_number      2
_space_group_name_Hall           '-P 1'
loop_
_symmetry_equiv_pos_site_id
_symmetry_equiv_pos_as_xyz
1 x,y,z
2 -x,-y,-z
_cell_length_a                   9.5346(6)
_cell_length_b                   9.5932(6)
_cell_length_c                   13.9476(9)
_cell_angle_alpha                96.674(5)
_cell_angle_beta                 105.479(6)
_cell_angle_gamma                94.841(5)
_cell_volume                     1212.24
_exptl_crystal_colour            yellow
_exptl_crystal_description       block
_chemical_melting_point          '203 deg.C'
_cell_formula_units_Z            2
loop_
_atom_site_label
_atom_site_type_symbol
_atom_site_fract_x
_atom_site_fract_y
_atom_site_fract_z
C1 C 0.63119(13) 0.52058(13) 0.23015(9)
C2 C 0.63727(13) 0.40136(13) 0.17042(9)
C3 C 0.51824(14) 0.53872(13) 0.28597(9)
C4 C 0.47979(15) 0.43693(15) 0.34159(9)
H1 H 0.5280 0.3542 0.3462
C5 C 0.37168(17) 0.45598(16) 0.39012(11)
H2 H 0.3463 0.3861 0.4276
C6 C 0.30091(17) 0.57562(17) 0.38430(11)
H3 H 0.2256 0.5871 0.4164
C7 C 0.33988(17) 0.67907(17) 0.33149(12)
H4 H 0.2925 0.7623 0.3282
C8 C 0.44850(15) 0.66060(15) 0.28331(10)
H5 H 0.4757 0.7324 0.2479
C9 C 0.52900(14) 0.27069(13) 0.14721(9)
C10 C 0.37825(14) 0.27619(14) 0.12350(9)
H6 H 0.3411 0.3648 0.1200
C11 C 0.28228(15) 0.15299(14) 0.10499(10)
H7 H 0.1798 0.1582 0.0901
C12 C 0.33367(17) 0.02311(15) 0.10794(11)
H8 H 0.2672 -0.0606 0.0966
C13 C 0.48215(17) 0.01539(15) 0.12740(11)
H9 H 0.5181 -0.0740 0.1275
C14 C 0.57910(15) 0.13851(14) 0.14679(10)
H10 H 0.6813 0.1324 0.1600
C15 C 0.76001(14) 0.38805(13) 0.12293(9)
C16 C 0.90495(15) 0.40088(14) 0.18038(10)
H11 H 0.9281 0.4235 0.2514
C17 C 1.01655(15) 0.38104(15) 0.13547(11)
H12 H 1.1152 0.3889 0.1757
C18 C 0.98399(16) 0.34972(14) 0.03169(11)
H13 H 1.0603 0.3365 0.0008
C19 C 0.84066(16) 0.33791(14) -0.02647(10)
H14 H 0.8184 0.3174 -0.0976
C20 C 0.72868(15) 0.35592(14) 0.01846(10)
H15 H 0.6300 0.3464 -0.0221
C21 C 0.73740(13) 0.64968(13) 0.23891(9)
C22 C 0.84670(13) 0.70154(13) 0.32966(9)
C23 C 0.86325(15) 0.63590(14) 0.41877(9)
H16 H 0.7958 0.5569 0.4182
C24 C 0.97279(16) 0.68384(14) 0.50364(10)
H17 H 0.9793 0.6386 0.5615
C25 C 1.07935(15) 0.80139(14) 0.50828(10)
C26 C 1.06566(14) 0.87006(13) 0.42195(10)
C27 C 0.94888(14) 0.82138(13) 0.33293(9)
C28 C 0.93705(15) 0.89000(14) 0.24647(10)
C29 C 0.82540(15) 0.83802(14) 0.15952(10)
H18 H 0.8146 0.8847 0.1020
C30 C 0.72944(15) 0.71873(14) 0.15554(10)
H19 H 0.6566 0.6834 0.0943
C31 C 1.19731(17) 0.84817(16) 0.59352(12)
H20 H 1.2076 0.8023 0.6514
C32 C 1.29923(18) 0.96048(18) 0.59452(13)
H21 H 1.3789 0.9906 0.6530
C33 C 1.28618(17) 1.02909(16) 0.51131(12)
H22 H 1.3569 1.1061 0.5134
C34 C 1.17044(16) 0.98685(15) 0.42409(11)
C35 C 1.15343(17) 1.05457(15) 0.33597(12)
H23 H 1.2220 1.1327 0.3365
C36 C 1.04198(17) 1.00960(15) 0.25216(11)
H24 H 1.0327 1.0582 0.1956
loop_
_geom_bond_atom_site_label_1
_geom_bond_atom_site_label_2
_geom_bond_site_symmetry_1
_geom_bond_site_symmetry_2
C1 C2 1_555 1_555
C2 C9 1_555 1_555
C3 C1 1_555 1_555
C4 C3 1_555 1_555
H1 C4 1_555 1_555
C5 C4 1_555 1_555
H2 C5 1_555 1_555
C6 C5 1_555 1_555
H3 C6 1_555 1_555
C7 C6 1_555 1_555
H4 C7 1_555 1_555
C8 C3 1_555 1_555
H5 C8 1_555 1_555
C9 C10 1_555 1_555
C10 H6 1_555 1_555
C11 C10 1_555 1_555
H7 C11 1_555 1_555
C12 C11 1_555 1_555
H8 C12 1_555 1_555
C13 C12 1_555 1_555
H9 C13 1_555 1_555
C14 C9 1_555 1_555
H10 C14 1_555 1_555
C15 C2 1_555 1_555
C16 C15 1_555 1_555
H11 C16 1_555 1_555
C17 C16 1_555 1_555
H12 C17 1_555 1_555
C18 C17 1_555 1_555
H13 C18 1_555 1_555
C19 C18 1_555 1_555
H14 C19 1_555 1_555
C20 C15 1_555 1_555
H15 C20 1_555 1_555
C21 C1 1_555 1_555
C22 C21 1_555 1_555
C23 C22 1_555 1_555
H16 C23 1_555 1_555
C24 C23 1_555 1_555
H17 C24 1_555 1_555
C25 C24 1_555 1_555
C26 C25 1_555 1_555
C27 C22 1_555 1_555
C28 C27 1_555 1_555
C29 C28 1_555 1_555
H18 C29 1_555 1_555
C30 C21 1_555 1_555
H19 C30 1_555 1_555
C31 C25 1_555 1_555
H20 C31 1_555 1_555
C32 C31 1_555 1_555
H21 C32 1_555 1_555
C33 C32 1_555 1_555
H22 C33 1_555 1_555
C34 C26 1_555 1_555
C35 C34 1_555 1_555
H23 C35 1_555 1_555
C36 C28 1_555 1_555
H24 C36 1_555 1_555
C7 C8 1_555 1_555
C13 C14 1_555 1_555
C19 C20 1_555 1_555
C26 C27 1_555 1_555
C29 C30 1_555 1_555
C33 C34 1_555 1_555
C35 C36 1_555 1_555

#END
