
#######################################################################
#
#                 Cambridge Crystallographic Data Centre
#                                CCDC 
#
#######################################################################
#
# If this CIF has been generated from an entry in the Cambridge 
# Structural Database, then it will include bibliographic, chemical, 
# crystal, experimental, refinement or atomic coordinate data resulting 
# from the CCDC's data processing and validation procedures.
#
#######################################################################

data_AQOTEG
_chemical_name_common            
'cis-1,2-Diphenyl-1,2-dipyrenylethene chloroform solvate'
_chemical_formula_moiety         'C46 H28,C1 H1 Cl3'
_chemical_name_systematic        
"cis-1,1'-(1,2-Diphenylethene-1,2-diyl)dipyrene chloroform solvate"
_symmetry_cell_setting           triclinic
_symmetry_space_group_name_H-M   'P -1'
_symmetry_Int_Tables_number      2
_space_group_name_Hall           '-P 1'
loop_
_symmetry_equiv_pos_site_id
_symmetry_equiv_pos_as_xyz
1 x,y,z
2 -x,-y,-z
_cell_length_a                   8.7695(6)
_cell_length_b                   13.3414(11)
_cell_length_c                   15.9829(11)
_cell_angle_alpha                77.119(8)
_cell_angle_beta                 89.166(6)
_cell_angle_gamma                71.187(6)
_cell_volume                     1722.18
_exptl_crystal_colour            yellow
_exptl_crystal_description       block
_chemical_melting_point          '279 deg.C'
_cell_formula_units_Z            2
loop_
_atom_site_label
_atom_site_type_symbol
_atom_site_fract_x
_atom_site_fract_y
_atom_site_fract_z
C1 C 0.4529(4) 0.7494(3) 0.1662(2)
H1 H 0.5584 0.6973 0.1558
Cl1 Cl 0.33936(12) 0.80640(8) 0.06852(6)
Cl2 Cl 0.35302(13) 0.67626(10) 0.23945(7)
Cl3 Cl 0.49232(14) 0.84791(10) 0.21002(8)
C2 C 0.5574(3) 0.2134(2) 0.25638(18)
C3 C 0.7173(3) 0.1405(2) 0.23812(18)
C4 C 0.8040(4) 0.1796(3) 0.1729(2)
H2 H 0.7634 0.2535 0.1421
C5 C 0.9509(4) 0.1113(4) 0.1520(2)
H3 H 1.0090 0.1394 0.1074
C6 C 1.0111(4) 0.0045(4) 0.1953(2)
H4 H 1.1107 -0.0415 0.1811
C7 C 0.9246(4) -0.0357(3) 0.2605(2)
H5 H 0.9656 -0.1097 0.2908
C8 C 0.7788(4) 0.0313(3) 0.2816(2)
H6 H 0.7207 0.0026 0.3259
C9 C 0.4966(3) 0.2153(2) 0.33364(18)
C10 C 0.5875(3) 0.1613(2) 0.41982(17)
C11 C 0.7484(3) 0.1508(2) 0.4326(2)
H7 H 0.8050 0.1762 0.3860
C12 C 0.8274(4) 0.1030(3) 0.5138(2)
H8 H 0.9379 0.0956 0.5219
C13 C 0.7471(4) 0.0661(3) 0.5827(2)
H9 H 0.8013 0.0339 0.6380
C14 C 0.5872(4) 0.0768(3) 0.5697(2)
H10 H 0.5312 0.0505 0.6163
C15 C 0.5068(3) 0.1255(3) 0.4897(2)
H11 H 0.3955 0.1344 0.4824
C16 C 0.4599(3) 0.2925(2) 0.17786(18)
C17 C 0.3928(3) 0.2601(2) 0.11363(18)
C18 C 0.4090(3) 0.1478(2) 0.1177(2)
H12 H 0.4706 0.0928 0.1646
C19 C 0.3383(4) 0.1191(3) 0.0563(2)
H13 H 0.3528 0.0444 0.0605
C20 C 0.2418(4) 0.1994(3) -0.0152(2)
C21 C 0.2254(3) 0.3094(3) -0.02227(19)
C22 C 0.3009(3) 0.3399(2) 0.04167(18)
C23 C 0.2809(4) 0.4525(3) 0.0353(2)
C24 C 0.3521(4) 0.4807(3) 0.0987(2)
H14 H 0.3419 0.5549 0.0939
C25 C 0.4382(4) 0.4030(3) 0.1693(2)
H15 H 0.4835 0.4251 0.2128
C26 C 0.1641(4) 0.1719(4) -0.0779(2)
H16 H 0.1746 0.0978 -0.0739
C27 C 0.0720(5) 0.2511(4) -0.1458(3)
H17 H 0.0208 0.2309 -0.1882
C28 C 0.0539(4) 0.3592(4) -0.1525(2)
H18 H -0.0113 0.4126 -0.1991
C29 C 0.1297(4) 0.3917(3) -0.0921(2)
C30 C 0.1137(4) 0.5022(3) -0.0971(2)
H19 H 0.0511 0.5567 -0.1440
C31 C 0.1850(4) 0.5314(3) -0.0373(2)
H20 H 0.1718 0.6062 -0.0429
C32 C 0.3206(3) 0.2757(2) 0.33613(18)
C33 C 0.2632(3) 0.3720(2) 0.36554(17)
C34 C 0.3696(3) 0.4211(2) 0.39653(18)
H21 H 0.4829 0.3854 0.3997
C35 C 0.3126(3) 0.5160(2) 0.42098(19)
H22 H 0.3866 0.5451 0.4413
C36 C 0.1426(3) 0.5742(2) 0.41718(19)
C37 C 0.0340(3) 0.5281(2) 0.38755(17)
C38 C 0.0938(3) 0.4278(2) 0.36233(17)
C39 C -0.0166(3) 0.3836(2) 0.33293(18)
C40 C 0.0439(3) 0.2862(2) 0.30559(19)
H23 H -0.0287 0.2558 0.2855
C41 C 0.2091(3) 0.2335(2) 0.30750(19)
H24 H 0.2474 0.1674 0.2890
C42 C 0.0811(4) 0.6730(3) 0.4407(2)
H25 H 0.1537 0.7044 0.4594
C43 C -0.0829(4) 0.7269(3) 0.4377(2)
H26 H -0.1223 0.7938 0.4550
C44 C -0.1907(4) 0.6823(3) 0.4090(2)
H27 H -0.3034 0.7196 0.4068
C45 C -0.1357(3) 0.5845(3) 0.38385(19)
C46 C -0.2426(3) 0.5360(3) 0.3544(2)
H28 H -0.3558 0.5718 0.3522
C47 C -0.1881(4) 0.4432(3) 0.3302(2)
H29 H -0.2631 0.4145 0.3104
loop_
_geom_bond_atom_site_label_1
_geom_bond_atom_site_label_2
_geom_bond_site_symmetry_1
_geom_bond_site_symmetry_2
C1 H1 1_555 1_555
Cl1 C1 1_555 1_555
Cl2 C1 1_555 1_555
Cl3 C1 1_555 1_555
C2 C3 1_555 1_555
C3 C4 1_555 1_555
C4 H2 1_555 1_555
C5 C4 1_555 1_555
H3 C5 1_555 1_555
C6 C5 1_555 1_555
H4 C6 1_555 1_555
C7 C6 1_555 1_555
H5 C7 1_555 1_555
C8 C3 1_555 1_555
H6 C8 1_555 1_555
C9 C2 1_555 1_555
C10 C9 1_555 1_555
C11 C10 1_555 1_555
H7 C11 1_555 1_555
C12 C11 1_555 1_555
H8 C12 1_555 1_555
C13 C12 1_555 1_555
H9 C13 1_555 1_555
C14 C13 1_555 1_555
H10 C14 1_555 1_555
C15 C10 1_555 1_555
H11 C15 1_555 1_555
C16 C2 1_555 1_555
C17 C16 1_555 1_555
C18 C17 1_555 1_555
H12 C18 1_555 1_555
C19 C18 1_555 1_555
H13 C19 1_555 1_555
C20 C19 1_555 1_555
C21 C20 1_555 1_555
C22 C17 1_555 1_555
C23 C22 1_555 1_555
C24 C23 1_555 1_555
H14 C24 1_555 1_555
C25 C16 1_555 1_555
H15 C25 1_555 1_555
C26 C20 1_555 1_555
H16 C26 1_555 1_555
C27 C26 1_555 1_555
H17 C27 1_555 1_555
C28 C27 1_555 1_555
H18 C28 1_555 1_555
C29 C21 1_555 1_555
C30 C29 1_555 1_555
H19 C30 1_555 1_555
C31 C23 1_555 1_555
H20 C31 1_555 1_555
C32 C9 1_555 1_555
C33 C32 1_555 1_555
C34 C33 1_555 1_555
H21 C34 1_555 1_555
C35 C34 1_555 1_555
H22 C35 1_555 1_555
C36 C35 1_555 1_555
C37 C36 1_555 1_555
C38 C33 1_555 1_555
C39 C38 1_555 1_555
C40 C39 1_555 1_555
H23 C40 1_555 1_555
C41 C32 1_555 1_555
H24 C41 1_555 1_555
C42 C36 1_555 1_555
H25 C42 1_555 1_555
C43 C42 1_555 1_555
H26 C43 1_555 1_555
C44 C43 1_555 1_555
H27 C44 1_555 1_555
C45 C37 1_555 1_555
C46 C45 1_555 1_555
H28 C46 1_555 1_555
C47 C39 1_555 1_555
H29 C47 1_555 1_555
C7 C8 1_555 1_555
C14 C15 1_555 1_555
C21 C22 1_555 1_555
C24 C25 1_555 1_555
C28 C29 1_555 1_555
C30 C31 1_555 1_555
C37 C38 1_555 1_555
C40 C41 1_555 1_555
C44 C45 1_555 1_555
C46 C47 1_555 1_555

#END
