
#######################################################################
#
#                 Cambridge Crystallographic Data Centre
#                                CCDC 
#
#######################################################################
#
# If this CIF has been generated from an entry in the Cambridge 
# Structural Database, then it will include bibliographic, chemical, 
# crystal, experimental, refinement or atomic coordinate data resulting 
# from the CCDC's data processing and validation procedures.
#
#######################################################################

data_AQOVUZ
_chemical_formula_moiety         'C23 H25 N2 O5 P1'
_chemical_name_systematic        
'diethyl (2-(1,3-dioxo-1,3-dihydro-2H-isoindol-2-yl)-2-(1H-indol-3-yl)propyl)phosphonate'
_symmetry_cell_setting           orthorhombic
_symmetry_space_group_name_H-M   'P b c a'
_symmetry_Int_Tables_number      61
_space_group_name_Hall           '-P 2ac 2ab'
loop_
_symmetry_equiv_pos_site_id
_symmetry_equiv_pos_as_xyz
1 x,y,z
2 1/2-x,-y,1/2+z
3 1/2+x,1/2-y,-z
4 -x,1/2+y,1/2-z
5 -x,-y,-z
6 1/2+x,y,1/2-z
7 1/2-x,1/2+y,z
8 x,1/2-y,1/2+z
_cell_length_a                   14.067(3)
_cell_length_b                   17.217(3)
_cell_length_c                   18.001(4)
_cell_angle_alpha                90
_cell_angle_beta                 90
_cell_angle_gamma                90
_cell_volume                     4359.69
_exptl_crystal_colour            white
_cell_formula_units_Z            8
_exptl_crystal_recrystallization_method 'ether and dichloromethane'
loop_
_atom_site_label
_atom_site_type_symbol
_atom_site_fract_x
_atom_site_fract_y
_atom_site_fract_z
P1 P -0.02067(8) 0.35192(8) 0.09119(7)
O1 O 0.2567(3) 0.2437(3) 0.0736(2)
O2 O 0.1365(2) 0.39047(18) 0.2649(2)
O3 O -0.0028(3) 0.3062(3) 0.02239(18)
O4 O -0.12408(19) 0.38569(16) 0.09734(16)
N1 N 0.1729(2) 0.30319(19) 0.16971(18)
N2 N 0.0714(3) 0.1885(2) 0.3803(2)
H1 H 0.046(3) 0.183(3) 0.4257(12)
C1 C 0.2470(3) 0.2948(3) 0.1182(3)
C2 C 0.3155(3) 0.3596(3) 0.1341(3)
C3 C 0.4006(4) 0.3772(4) 0.0982(4)
H2 H 0.4229 0.3492 0.0562
C4 C 0.4508(5) 0.4400(5) 0.1294(6)
H3 H 0.5103 0.4542 0.1085
C5 C 0.4164(5) 0.4816(4) 0.1893(6)
H4 H 0.4525 0.5241 0.2077
C6 C 0.3315(4) 0.4633(3) 0.2233(4)
H5 H 0.3084 0.4916 0.2649
C7 C 0.2816(3) 0.4011(3) 0.1931(3)
C8 C 0.1887(3) 0.3675(2) 0.2165(3)
C9 C 0.0894(3) 0.2506(2) 0.1834(2)
C10 C 0.0884(3) 0.1817(3) 0.1273(2)
H6 H 0.1469 0.1513 0.1327
H7 H 0.0843 0.2021 0.0765
H8 H 0.0333 0.1485 0.1372
C11 C -0.0024(3) 0.2982(2) 0.1754(2)
H9 H -0.0050 0.3354 0.2173
H10 H -0.0567 0.2621 0.1814
O5 O 0.0471(4) 0.4200(3) 0.0803(4)
C12 C 0.0295(6) 0.4882(5) 0.1250(5)
H11 H 0.0338 0.4754 0.1785
H12 H -0.0346 0.5093 0.1147
C13 C 0.1064(9) 0.5477(9) 0.1036(10)
H13 H 0.0980 0.5950 0.1331
H14 H 0.1008 0.5602 0.0507
H15 H 0.1694 0.5256 0.1135
C14 C -0.2051(3) 0.3346(3) 0.0881(3)
H16 H -0.2191 0.3079 0.1356
H17 H -0.1907 0.2946 0.0502
C15 C -0.2894(3) 0.3816(3) 0.0643(3)
H18 H -0.3442 0.3472 0.0572
H19 H -0.2749 0.4081 0.0174
H20 H -0.3042 0.4202 0.1025
C16 C 0.0994(3) 0.2193(2) 0.2615(2)
C17 C 0.0362(3) 0.2237(2) 0.3179(2)
H21 H -0.0243 0.2480 0.3147
C18 C 0.1605(3) 0.1610(2) 0.3654(2)
C19 C 0.2245(4) 0.1226(2) 0.4117(2)
H22 H 0.2091 0.1112 0.4619
C20 C 0.3113(4) 0.1016(3) 0.3815(3)
H23 H 0.3567 0.0756 0.4116
C21 C 0.3331(3) 0.1180(3) 0.3077(3)
H24 H 0.3930 0.1023 0.2885
C22 C 0.2702(3) 0.1565(2) 0.2615(2)
H25 H 0.2864 0.1675 0.2114
C23 C 0.1814(3) 0.1788(2) 0.2909(2)
O6? O 0.0336(6) 0.4329(4) 0.1212(5)
C24? C 0.0444(8) 0.5025(6) 0.0761(7)
H26? H -0.0135 0.5349 0.0805
H27? H 0.0519 0.4876 0.0233
C25? C 0.1310(16) 0.5496(17) 0.1009(19)
H28? H 0.1373 0.5958 0.0695
H29? H 0.1884 0.5176 0.0963
H30? H 0.1229 0.5655 0.1528
loop_
_geom_bond_atom_site_label_1
_geom_bond_atom_site_label_2
_geom_bond_site_symmetry_1
_geom_bond_site_symmetry_2
P1 O3 1_555 1_555
O1 C1 1_555 1_555
O2 C8 1_555 1_555
O4 P1 1_555 1_555
N1 C1 1_555 1_555
N2 H1 1_555 1_555
C1 C2 1_555 1_555
C2 C3 1_555 1_555
C3 H2 1_555 1_555
C4 C3 1_555 1_555
H3 C4 1_555 1_555
C5 C4 1_555 1_555
H4 C5 1_555 1_555
C6 C5 1_555 1_555
H5 C6 1_555 1_555
C7 C2 1_555 1_555
C8 N1 1_555 1_555
C9 N1 1_555 1_555
C10 C9 1_555 1_555
H6 C10 1_555 1_555
H7 C10 1_555 1_555
H8 C10 1_555 1_555
C11 P1 1_555 1_555
H9 C11 1_555 1_555
H10 C11 1_555 1_555
O5 P1 1_555 1_555
C12 O5 1_555 1_555
H11 C12 1_555 1_555
H12 C12 1_555 1_555
C13 C12 1_555 1_555
H13 C13 1_555 1_555
H14 C13 1_555 1_555
H15 C13 1_555 1_555
C14 O4 1_555 1_555
H16 C14 1_555 1_555
H17 C14 1_555 1_555
C15 C14 1_555 1_555
H18 C15 1_555 1_555
H19 C15 1_555 1_555
H20 C15 1_555 1_555
C16 C9 1_555 1_555
C17 N2 1_555 1_555
H21 C17 1_555 1_555
C18 N2 1_555 1_555
C19 C18 1_555 1_555
H22 C19 1_555 1_555
C20 C19 1_555 1_555
H23 C20 1_555 1_555
C21 C20 1_555 1_555
H24 C21 1_555 1_555
C22 C21 1_555 1_555
H25 C22 1_555 1_555
C23 C16 1_555 1_555
C6 C7 1_555 1_555
C7 C8 1_555 1_555
C9 C11 1_555 1_555
C16 C17 1_555 1_555
C18 C23 1_555 1_555
C22 C23 1_555 1_555

#END
