
#######################################################################
#
#                 Cambridge Crystallographic Data Centre
#                                CCDC 
#
#######################################################################
#
# If this CIF has been generated from an entry in the Cambridge 
# Structural Database, then it will include bibliographic, chemical, 
# crystal, experimental, refinement or atomic coordinate data resulting 
# from the CCDC's data processing and validation procedures.
#
#######################################################################

data_AQOWAG
_chemical_formula_moiety         'C19 H23 N2 O5 P1'
_chemical_name_systematic        
'diethyl (2-(1,3-dioxo-1,3-dihydro-2H-isoindol-2-yl)-2-(1H-pyrrol-2-yl)propyl)phosphonate'
_symmetry_cell_setting           monoclinic
_symmetry_space_group_name_H-M   'P 21/c'
_symmetry_Int_Tables_number      14
_space_group_name_Hall           '-P 2ybc'
loop_
_symmetry_equiv_pos_site_id
_symmetry_equiv_pos_as_xyz
1 x,y,z
2 -x,1/2+y,1/2-z
3 -x,-y,-z
4 x,1/2-y,1/2+z
_cell_length_a                   12.744(3)
_cell_length_b                   7.7256(15)
_cell_length_c                   20.770(4)
_cell_angle_alpha                90
_cell_angle_beta                 109.09(3)
_cell_angle_gamma                90
_cell_volume                     1932.45
_exptl_crystal_colour            'white solid'
_cell_formula_units_Z            4
loop_
_atom_site_label
_atom_site_type_symbol
_atom_site_fract_x
_atom_site_fract_y
_atom_site_fract_z
P1 P 0.8159(2) 0.5904(3) 0.11080(12)
O1 O 0.5944(5) 0.2313(9) 0.0638(3)
O2 O 0.9633(5) 0.1024(9) 0.1051(3)
O3 O 0.7994(6) 0.7732(9) 0.1238(3)
O4 O 0.9389(6) 0.5315(9) 0.1216(3)
O5 O 0.7526(5) 0.5330(8) 0.0347(3)
N1 N 0.7854(6) 0.1812(10) 0.1040(4)
N2 N 0.7137(8) -0.0102(12) 0.2020(4)
C1 C 0.6764(8) 0.1766(12) 0.0539(5)
C2 C 0.6895(8) 0.0925(12) -0.0059(4)
C3 C 0.6094(9) 0.0509(13) -0.0677(5)
H1 H 0.5329 0.0743 -0.0756
C4 C 0.6455(9) -0.0265(12) -0.1176(5)
H2 H 0.5936 -0.0542 -0.1609
C5 C 0.7560(10) -0.0622(14) -0.1038(5)
H3 H 0.7791 -0.1159 -0.1380
C6 C 0.8359(8) -0.0226(13) -0.0414(5)
H4 H 0.9122 -0.0490 -0.0323
C7 C 0.7989(8) 0.0556(12) 0.0058(5)
C8 C 0.8640(8) 0.1133(12) 0.0769(5)
C9 C 0.8020(7) 0.2555(12) 0.1731(4)
C10 C 0.7246(8) 0.1689(13) 0.2048(5)
C11 C 0.6605(8) 0.2280(14) 0.2410(5)
H5 H 0.6510 0.3462 0.2505
C12 C 0.6108(9) 0.0880(15) 0.2622(5)
H6 H 0.5631 0.0924 0.2890
C13 C 0.6448(8) -0.0579(15) 0.2364(5)
H7 H 0.6234 -0.1733 0.2419
C14 C 0.9228(8) 0.2330(14) 0.2205(5)
H8 H 0.9425 0.1099 0.2237
H9 H 0.9298 0.2774 0.2659
H10 H 0.9727 0.2973 0.2020
C15 C 0.7722(8) 0.4514(11) 0.1670(5)
H11 H 0.8022 0.5013 0.2133
H12 H 0.6903 0.4599 0.1533
C16 C 1.0020(8) 0.6305(13) 0.0863(5)
H13 H 1.0092 0.7527 0.1014
H14 H 0.9638 0.6273 0.0364
C17 C 1.1147(9) 0.5470(15) 0.1040(5)
H15 H 1.1563 0.5680 0.1521
H16 H 1.1552 0.5966 0.0756
H17 H 1.1059 0.4221 0.0958
C18 C 0.6442(7) 0.6064(12) -0.0019(5)
H18 H 0.6486 0.7343 -0.0015
H19 H 0.5895 0.5712 0.0202
C19 C 0.6090(9) 0.5413(13) -0.0737(5)
H20 H 0.6642 0.5750 -0.0949
H21 H 0.5368 0.5914 -0.0995
H22 H 0.6029 0.4149 -0.0737
H23 H 0.762(7) -0.091(10) 0.190(4)
loop_
_geom_bond_atom_site_label_1
_geom_bond_atom_site_label_2
_geom_bond_site_symmetry_1
_geom_bond_site_symmetry_2
P1 O3 1_555 1_555
O1 C1 1_555 1_555
O2 C8 1_555 1_555
O4 P1 1_555 1_555
O5 P1 1_555 1_555
N1 C1 1_555 1_555
N2 C10 1_555 1_555
C1 C2 1_555 1_555
C2 C3 1_555 1_555
C3 H1 1_555 1_555
C4 C3 1_555 1_555
H2 C4 1_555 1_555
C5 C4 1_555 1_555
H3 C5 1_555 1_555
C6 C5 1_555 1_555
H4 C6 1_555 1_555
C7 C2 1_555 1_555
C8 N1 1_555 1_555
C9 N1 1_555 1_555
C10 C9 1_555 1_555
C11 C10 1_555 1_555
H5 C11 1_555 1_555
C12 C11 1_555 1_555
H6 C12 1_555 1_555
C13 N2 1_555 1_555
H7 C13 1_555 1_555
C14 C9 1_555 1_555
H8 C14 1_555 1_555
H9 C14 1_555 1_555
H10 C14 1_555 1_555
C15 P1 1_555 1_555
H11 C15 1_555 1_555
H12 C15 1_555 1_555
C16 O4 1_555 1_555
H13 C16 1_555 1_555
H14 C16 1_555 1_555
C17 C16 1_555 1_555
H15 C17 1_555 1_555
H16 C17 1_555 1_555
H17 C17 1_555 1_555
C18 O5 1_555 1_555
H18 C18 1_555 1_555
H19 C18 1_555 1_555
C19 C18 1_555 1_555
H20 C19 1_555 1_555
H21 C19 1_555 1_555
H22 C19 1_555 1_555
H23 N2 1_555 1_555
C6 C7 1_555 1_555
C7 C8 1_555 1_555
C9 C15 1_555 1_555
C12 C13 1_555 1_555

#END
