
#######################################################################
#
#                 Cambridge Crystallographic Data Centre
#                                CCDC 
#
#######################################################################
#
# If this CIF has been generated from an entry in the Cambridge 
# Structural Database, then it will include bibliographic, chemical, 
# crystal, experimental, refinement or atomic coordinate data resulting 
# from the CCDC's data processing and validation procedures.
#
#######################################################################

data_AQOZAJ
_chemical_formula_moiety         'C10 H21 N3 O2,H2 O1'
_chemical_name_systematic        
'2-((bis(dimethylamino)methylene)azaniumyl)-3-methylbutanoate monohydrate'
_symmetry_cell_setting           orthorhombic
_symmetry_space_group_name_H-M   'P 21 21 21'
_symmetry_Int_Tables_number      19
_space_group_name_Hall           'P 2ac 2ab'
loop_
_symmetry_equiv_pos_site_id
_symmetry_equiv_pos_as_xyz
1 x,y,z
2 1/2-x,-y,1/2+z
3 -x,1/2+y,1/2-z
4 1/2+x,1/2-y,-z
_cell_length_a                   8.1091(11)
_cell_length_b                   9.7730(13)
_cell_length_c                   16.327(2)
_cell_angle_alpha                90
_cell_angle_beta                 90
_cell_angle_gamma                90
_cell_volume                     1293.92
_exptl_crystal_colour            colorless
_exptl_crystal_description       Prism
_cell_formula_units_Z            4
loop_
_atom_site_label
_atom_site_type_symbol
_atom_site_fract_x
_atom_site_fract_y
_atom_site_fract_z
O1 O 0.6560(2) 0.30023(19) 0.22948(11)
O2 O 0.5959(2) 0.46113(16) 0.32049(10)
N1 N 0.3197(2) 0.21488(18) 0.25594(10)
H1 H 0.349(3) 0.141(2) 0.2295(13)
N2 N 0.1727(2) 0.28249(19) 0.14176(11)
N3 N 0.1149(2) 0.38106(19) 0.26691(11)
C1 C 0.5739(3) 0.3479(2) 0.28627(12)
C2 C 0.4318(2) 0.2594(2) 0.32161(12)
H2 H 0.3684 0.3157 0.3610
C3 C 0.2034(2) 0.2932(2) 0.22208(12)
C4 C 0.2964(3) 0.2347(3) 0.08375(14)
H3 H 0.4056 0.2545 0.1049
H4 H 0.2814 0.2809 0.0317
H5 H 0.2847 0.1368 0.0760
C5 C 0.0072(3) 0.2976(3) 0.10745(15)
H6 H -0.0712 0.3123 0.1514
H7 H -0.0221 0.2152 0.0777
H8 H 0.0052 0.3753 0.0705
C6 C 0.0568(3) 0.5113(3) 0.23399(16)
H9 H 0.1003 0.5239 0.1792
H10 H 0.0944 0.5854 0.2689
H11 H -0.0627 0.5112 0.2321
C7 C 0.0635(3) 0.3526(3) 0.35047(14)
H12 H -0.0549 0.3649 0.3551
H13 H 0.1191 0.4148 0.3876
H14 H 0.0918 0.2590 0.3645
C8 C 0.5001(3) 0.1337(2) 0.36709(13)
H15 H 0.5516 0.0722 0.3262
C9 C 0.6320(3) 0.1766(3) 0.42780(15)
H16 H 0.7223 0.2200 0.3988
H17 H 0.6725 0.0966 0.4566
H18 H 0.5854 0.2406 0.4669
C10 C 0.3646(3) 0.0548(3) 0.41043(16)
H19 H 0.3112 0.1138 0.4502
H20 H 0.4119 -0.0237 0.4382
H21 H 0.2840 0.0239 0.3706
O3 O 0.6672(3) 0.1008(2) 0.10310(14)
H22 H 0.669(5) 0.162(4) 0.140(2)
H23 H 0.592(5) 0.052(3) 0.120(2)
loop_
_geom_bond_atom_site_label_1
_geom_bond_atom_site_label_2
_geom_bond_site_symmetry_1
_geom_bond_site_symmetry_2
O1 C1 1_555 1_555
O2 C1 1_555 1_555
N1 H1 1_555 1_555
N2 C3 1_555 1_555
N3 C3 1_555 1_555
C1 C2 1_555 1_555
C2 N1 1_555 1_555
H2 C2 1_555 1_555
C3 N1 1_555 1_555
C4 N2 1_555 1_555
H3 C4 1_555 1_555
H4 C4 1_555 1_555
H5 C4 1_555 1_555
C5 N2 1_555 1_555
H6 C5 1_555 1_555
H7 C5 1_555 1_555
H8 C5 1_555 1_555
C6 N3 1_555 1_555
H9 C6 1_555 1_555
H10 C6 1_555 1_555
H11 C6 1_555 1_555
C7 N3 1_555 1_555
H12 C7 1_555 1_555
H13 C7 1_555 1_555
H14 C7 1_555 1_555
C8 C2 1_555 1_555
H15 C8 1_555 1_555
C9 C8 1_555 1_555
H16 C9 1_555 1_555
H17 C9 1_555 1_555
H18 C9 1_555 1_555
C10 C8 1_555 1_555
H19 C10 1_555 1_555
H20 C10 1_555 1_555
H21 C10 1_555 1_555
O3 H22 1_555 1_555
H23 O3 1_555 1_555

#END
