
#######################################################################
#
#                 Cambridge Crystallographic Data Centre
#                                CCDC 
#
#######################################################################
#
# If this CIF has been generated from an entry in the Cambridge 
# Structural Database, then it will include bibliographic, chemical, 
# crystal, experimental, refinement or atomic coordinate data resulting 
# from the CCDC's data processing and validation procedures.
#
#######################################################################

data_AQUDIA
_chemical_name_common            
'((4,11-Dibenzyl-4,8,11-triaza-1-azoniacyclotetradecan-8-yl)acetyl)amino tosylate'
_chemical_formula_moiety         'C33 H45 N5 O3 S1'
_chemical_name_systematic        
((4-Methylphenyl)sulfonyl)(4,11-dibenzyl-4,8,11-triaza-1-azoniacyclotetradecan-8-ylacetyl)azanide
_symmetry_cell_setting           monoclinic
_symmetry_space_group_name_H-M   'P 21/c'
_symmetry_Int_Tables_number      14
_space_group_name_Hall           '-P 2ybc'
loop_
_symmetry_equiv_pos_site_id
_symmetry_equiv_pos_as_xyz
1 x,y,z
2 -x,1/2+y,1/2-z
3 -x,-y,-z
4 x,1/2-y,1/2+z
_cell_length_a                   11.8976(2)
_cell_length_b                   19.2804(4)
_cell_length_c                   16.2070(3)
_cell_angle_alpha                90
_cell_angle_beta                 123.135(1)
_cell_angle_gamma                90
_cell_volume                     3113.17
_exptl_crystal_colour            colorless
_exptl_crystal_description       prism
_cell_formula_units_Z            4
loop_
_atom_site_label
_atom_site_type_symbol
_atom_site_fract_x
_atom_site_fract_y
_atom_site_fract_z
C1 C 0.49198(16) 0.65215(8) 0.34607(11)
H1 H 0.4243 0.6417 0.3619
H2 H 0.5814 0.6427 0.4061
C2 C 0.47045(16) 0.60215(8) 0.26570(11)
H3 H 0.4813 0.5542 0.2908
H4 H 0.3768 0.6070 0.2086
C3 C 0.70192(15) 0.59788(8) 0.31142(11)
H5 H 0.7171 0.5471 0.3185
H6 H 0.7181 0.6159 0.3742
C4 C 0.80112(16) 0.63120(8) 0.29205(11)
H7 H 0.8913 0.6113 0.3381
H8 H 0.7748 0.6196 0.2242
C5 C 0.80903(14) 0.70925(8) 0.30373(10)
H9 H 0.8310 0.7214 0.3703
H10 H 0.8817 0.7272 0.2972
C6 C 0.68724(15) 0.81959(7) 0.23440(11)
H11 H 0.7674 0.8356 0.2359
H12 H 0.6963 0.8349 0.2961
C7 C 0.56198(15) 0.85155(7) 0.14652(11)
H13 H 0.5667 0.9026 0.1542
H14 H 0.5594 0.8406 0.0858
C8 C 0.41838(15) 0.85884(8) 0.20824(11)
H15 H 0.3883 0.9073 0.1881
H16 H 0.5052 0.8602 0.2728
C9 C 0.31606(15) 0.82095(9) 0.21991(11)
H17 H 0.2264 0.8262 0.1583
H18 H 0.3126 0.8433 0.2735
C10 C 0.34483(15) 0.74405(9) 0.24294(11)
H19 H 0.2829 0.7256 0.2605
H20 H 0.3247 0.7198 0.1825
C11 C 0.52092(14) 0.76650(8) 0.41198(10)
H21 H 0.4668 0.7484 0.4368
H22 H 0.4929 0.8152 0.3918
C12 C 0.66685(14) 0.76740(7) 0.49799(10)
C13 C 0.98328(13) 0.81248(7) 0.60468(10)
C14 C 1.01707(15) 0.84127(8) 0.54273(11)
H23 H 0.9986 0.8169 0.4856
C15 C 1.07811(15) 0.90589(8) 0.56461(11)
H24 H 1.1012 0.9256 0.5220
C16 C 1.10600(14) 0.94224(7) 0.64758(11)
C17 C 1.07296(15) 0.91207(7) 0.70980(11)
H25 H 1.0928 0.9359 0.7676
C18 C 1.01155(14) 0.84772(7) 0.68833(11)
H26 H 0.9888 0.8278 0.7310
C19 C 1.17183(16) 1.01261(8) 0.67127(12)
H27 H 1.1965 1.0237 0.6241
H28 H 1.2527 1.0122 0.7382
H29 H 1.1091 1.0477 0.6669
C20 C 0.31978(14) 0.83308(7) 0.03429(10)
H30 H 0.2461 0.8056 0.0295
H31 H 0.3415 0.8116 -0.0108
C21 C 0.26762(14) 0.90563(7) -0.00282(10)
C22 C 0.33699(15) 0.95224(8) -0.02478(11)
H32 H 0.4200 0.9388 -0.0155
C23 C 0.28675(16) 1.01778(8) -0.05988(11)
H33 H 0.3366 1.0492 -0.0730
C24 C 0.16524(17) 1.03814(8) -0.07611(11)
H34 H 0.1305 1.0830 -0.1014
C25 C 0.09455(17) 0.99247(8) -0.05522(11)
H35 H 0.0102 1.0058 -0.0667
C26 C 0.14661(15) 0.92705(8) -0.01734(11)
H36 H 0.0987 0.8966 -0.0012
C27 C 0.52386(17) 0.56425(8) 0.14930(11)
H37 H 0.5201 0.5167 0.1706
H38 H 0.5966 0.5651 0.1369
C28 C 0.39248(15) 0.57855(8) 0.05285(11)
C29 C 0.32270(16) 0.52320(9) -0.00995(12)
H39 H 0.3536 0.4772 0.0111
C30 C 0.20816(17) 0.53460(9) -0.10328(12)
H40 H 0.1622 0.4964 -0.1456
C31 C 0.16093(16) 0.60107(9) -0.13469(11)
H41 H 0.0831 0.6089 -0.1985
C32 C 0.22842(16) 0.65613(9) -0.07209(11)
H42 H 0.1958 0.7020 -0.0928
C33 C 0.34321(16) 0.64516(8) 0.02057(11)
H43 H 0.3887 0.6836 0.0625
N1 N 0.48406(12) 0.72710(6) 0.32351(8)
N2 N 0.56076(12) 0.61178(6) 0.23126(9)
N3 N 0.67956(12) 0.74258(6) 0.22818(9)
H44 H 0.6153 0.7232 0.2364
H45 H 0.6590 0.7278 0.1639
N4 N 0.43858(12) 0.82656(6) 0.13572(9)
N5 N 0.75618(11) 0.73559(6) 0.48505(8)
O1 O 0.97661(10) 0.68826(5) 0.54308(7)
O2 O 0.91936(10) 0.70385(5) 0.66614(7)
O3 O 0.68936(10) 0.79945(6) 0.57276(7)
S1 S 0.90887(3) 0.728896(17) 0.57812(3)
loop_
_geom_bond_atom_site_label_1
_geom_bond_atom_site_label_2
_geom_bond_site_symmetry_1
_geom_bond_site_symmetry_2
C1 H1 1_555 1_555
H2 C1 1_555 1_555
C2 C1 1_555 1_555
H3 C2 1_555 1_555
H4 C2 1_555 1_555
C3 H5 1_555 1_555
H6 C3 1_555 1_555
C4 C3 1_555 1_555
H7 C4 1_555 1_555
H8 C4 1_555 1_555
C5 C4 1_555 1_555
H9 C5 1_555 1_555
H10 C5 1_555 1_555
C6 H11 1_555 1_555
H12 C6 1_555 1_555
C7 C6 1_555 1_555
H13 C7 1_555 1_555
H14 C7 1_555 1_555
C8 H15 1_555 1_555
H16 C8 1_555 1_555
C9 C8 1_555 1_555
H17 C9 1_555 1_555
H18 C9 1_555 1_555
C10 C9 1_555 1_555
H19 C10 1_555 1_555
H20 C10 1_555 1_555
C11 H21 1_555 1_555
H22 C11 1_555 1_555
C12 C11 1_555 1_555
C13 C14 1_555 1_555
C14 H23 1_555 1_555
C15 C14 1_555 1_555
H24 C15 1_555 1_555
C16 C15 1_555 1_555
C17 C16 1_555 1_555
H25 C17 1_555 1_555
C18 C13 1_555 1_555
H26 C18 1_555 1_555
C19 C16 1_555 1_555
H27 C19 1_555 1_555
H28 C19 1_555 1_555
H29 C19 1_555 1_555
C20 H30 1_555 1_555
H31 C20 1_555 1_555
C21 C20 1_555 1_555
C22 C21 1_555 1_555
H32 C22 1_555 1_555
C23 C22 1_555 1_555
H33 C23 1_555 1_555
C24 C23 1_555 1_555
H34 C24 1_555 1_555
C25 C24 1_555 1_555
H35 C25 1_555 1_555
C26 C21 1_555 1_555
H36 C26 1_555 1_555
C27 H37 1_555 1_555
H38 C27 1_555 1_555
C28 C27 1_555 1_555
C29 C28 1_555 1_555
H39 C29 1_555 1_555
C30 C29 1_555 1_555
H40 C30 1_555 1_555
C31 C30 1_555 1_555
H41 C31 1_555 1_555
C32 C31 1_555 1_555
H42 C32 1_555 1_555
C33 C28 1_555 1_555
H43 C33 1_555 1_555
N1 C1 1_555 1_555
N2 C2 1_555 1_555
N3 C5 1_555 1_555
H44 N3 1_555 1_555
H45 N3 1_555 1_555
N4 C7 1_555 1_555
N5 C12 1_555 1_555
O1 S1 1_555 1_555
O2 S1 1_555 1_555
O3 C12 1_555 1_555
S1 C13 1_555 1_555
C3 N2 1_555 1_555
C6 N3 1_555 1_555
C8 N4 1_555 1_555
C10 N1 1_555 1_555
C11 N1 1_555 1_555
C17 C18 1_555 1_555
C20 N4 1_555 1_555
C25 C26 1_555 1_555
C27 N2 1_555 1_555
C32 C33 1_555 1_555
N5 S1 1_555 1_555

#END
