
#######################################################################
#
#                 Cambridge Crystallographic Data Centre
#                                CCDC 
#
#######################################################################
#
# If this CIF has been generated from an entry in the Cambridge 
# Structural Database, then it will include bibliographic, chemical, 
# crystal, experimental, refinement or atomic coordinate data resulting 
# from the CCDC's data processing and validation procedures.
#
#######################################################################

data_AQUFEZ
_chemical_formula_moiety         'C33 H27 N3 O5 S1'
_chemical_name_systematic        
1'-benzyl-2-((4-methylphenyl)sulfonyl)-5a,6-dihydro-2H-spiro[chromeno[4,3-c][1,2]diazepine-5,3'-indole]-2',3(1'H,4H)-dione
_symmetry_cell_setting           orthorhombic
_symmetry_space_group_name_H-M   'P 21 21 21'
_symmetry_Int_Tables_number      19
_space_group_name_Hall           'P 2ac 2ab'
loop_
_symmetry_equiv_pos_site_id
_symmetry_equiv_pos_as_xyz
1 x,y,z
2 1/2-x,-y,1/2+z
3 -x,1/2+y,1/2-z
4 1/2+x,1/2-y,-z
_cell_length_a                   5.8471(7)
_cell_length_b                   19.421(2)
_cell_length_c                   24.806(3)
_cell_angle_alpha                90
_cell_angle_beta                 90
_cell_angle_gamma                90
_cell_volume                     2816.88
_exptl_crystal_colour            colorless
_exptl_crystal_description       block
_cell_formula_units_Z            4
loop_
_atom_site_label
_atom_site_type_symbol
_atom_site_fract_x
_atom_site_fract_y
_atom_site_fract_z
S1 S 0.52613(18) 0.38888(5) 0.37508(4)
O1 O 0.5498(5) 0.46055(13) 0.36532(11)
O2 O 0.7144(5) 0.34338(15) 0.36537(11)
O3 O 0.2895(5) 0.25744(13) 0.36973(10)
O4 O 0.2422(4) 0.38753(13) 0.13510(9)
O5 O -0.1304(4) 0.29594(14) 0.17886(10)
N1 N 0.3137(6) 0.36390(16) 0.33279(12)
N2 N 0.2074(6) 0.41658(16) 0.30109(12)
N3 N 0.0983(5) 0.20146(16) 0.16296(12)
C1 C 0.2078(9) 0.3529(3) 0.60456(16)
H1 H 0.3218 0.3261 0.6246
H2 H 0.0603 0.3290 0.6056
H3 H 0.1918 0.3985 0.6210
C2 C 0.2843(8) 0.3607(2) 0.54671(16)
C3 C 0.4725(8) 0.3250(2) 0.52741(16)
H4 H 0.5549 0.2954 0.5510
C4 C 0.5422(7) 0.3317(2) 0.47434(15)
H5 H 0.6695 0.3063 0.4613
C5 C 0.4250(7) 0.37569(19) 0.44060(14)
C6 C 0.2370(8) 0.4122(2) 0.45891(17)
H6 H 0.1564 0.4422 0.4354
C7 C 0.1677(8) 0.4044(3) 0.51196(17)
H7 H 0.0388 0.4292 0.5247
C8 C 0.2323(7) 0.29642(19) 0.33411(15)
C9 C 0.0817(7) 0.2761(2) 0.28741(14)
H8 H -0.0470 0.3090 0.2846
H9 H 0.0169 0.2298 0.2943
C10 C 0.2138(7) 0.27503(19) 0.23379(14)
C11 C 0.3458(6) 0.34428(19) 0.22607(14)
H10 H 0.4888 0.3399 0.2479
C12 C 0.2166(7) 0.40387(19) 0.24989(14)
C13 C 0.0890(7) 0.44869(19) 0.21290(15)
C14 C 0.1094(7) 0.43807(19) 0.15735(15)
C15 C -0.0112(7) 0.47885(18) 0.12110(16)
H11 H 0.0067 0.4722 0.0834
C16 C -0.1577(7) 0.5293(2) 0.14034(17)
H12 H -0.2392 0.5576 0.1157
C17 C -0.1862(7) 0.5388(2) 0.19545(17)
H13 H -0.2892 0.5728 0.2083
C18 C -0.0650(7) 0.49869(19) 0.23150(15)
H14 H -0.0860 0.5050 0.2691
C19 C 0.4231(6) 0.36168(19) 0.16900(14)
H15 H 0.5462 0.3966 0.1709
H16 H 0.4882 0.3198 0.1522
C20 C 0.0377(7) 0.26129(19) 0.18856(14)
C21 C 0.2930(6) 0.17131(19) 0.18760(14)
C22 C 0.3691(6) 0.21333(19) 0.22890(14)
C23 C 0.5574(7) 0.19442(19) 0.25901(14)
H17 H 0.6107 0.2228 0.2876
C24 C 0.6676(7) 0.13285(19) 0.24655(15)
H18 H 0.7988 0.1194 0.2665
C25 C 0.5889(7) 0.09131(19) 0.20572(15)
H19 H 0.6660 0.0493 0.1982
C26 C 0.3970(6) 0.1096(2) 0.17488(15)
H20 H 0.3415 0.0810 0.1467
C27 C -0.0333(7) 0.1700(2) 0.12001(14)
H21 H -0.1738 0.1975 0.1142
H22 H -0.0807 0.1234 0.1316
C28 C 0.0944(7) 0.1642(2) 0.06691(15)
C29 C -0.0046(8) 0.1262(2) 0.02579(15)
H23 H -0.1447 0.1027 0.0319
C30 C 0.1002(8) 0.1224(2) -0.02424(16)
H24 H 0.0300 0.0969 -0.0524
C31 C 0.3060(8) 0.1555(2) -0.03354(17)
H25 H 0.3764 0.1532 -0.0680
C32 C 0.4087(8) 0.1920(2) 0.00821(15)
H26 H 0.5520 0.2139 0.0026
C33 C 0.3023(7) 0.1965(2) 0.05796(15)
H27 H 0.3725 0.2219 0.0862
loop_
_geom_bond_atom_site_label_1
_geom_bond_atom_site_label_2
_geom_bond_site_symmetry_1
_geom_bond_site_symmetry_2
S1 O1 1_555 1_555
O2 S1 1_555 1_555
O3 C8 1_555 1_555
O4 C14 1_555 1_555
O5 C20 1_555 1_555
N1 S1 1_555 1_555
N2 N1 1_555 1_555
N3 C20 1_555 1_555
C1 H1 1_555 1_555
H2 C1 1_555 1_555
H3 C1 1_555 1_555
C2 C1 1_555 1_555
C3 C2 1_555 1_555
H4 C3 1_555 1_555
C4 C3 1_555 1_555
H5 C4 1_555 1_555
C5 S1 1_555 1_555
C6 C5 1_555 1_555
H6 C6 1_555 1_555
C7 C2 1_555 1_555
H7 C7 1_555 1_555
C8 N1 1_555 1_555
C9 C8 1_555 1_555
H8 C9 1_555 1_555
H9 C9 1_555 1_555
C10 C9 1_555 1_555
C11 C10 1_555 1_555
H10 C11 1_555 1_555
C12 N2 1_555 1_555
C13 C12 1_555 1_555
C14 C13 1_555 1_555
C15 C14 1_555 1_555
H11 C15 1_555 1_555
C16 C15 1_555 1_555
H12 C16 1_555 1_555
C17 C16 1_555 1_555
H13 C17 1_555 1_555
C18 C13 1_555 1_555
H14 C18 1_555 1_555
C19 O4 1_555 1_555
H15 C19 1_555 1_555
H16 C19 1_555 1_555
C20 C10 1_555 1_555
C21 N3 1_555 1_555
C22 C10 1_555 1_555
C23 C22 1_555 1_555
H17 C23 1_555 1_555
C24 C23 1_555 1_555
H18 C24 1_555 1_555
C25 C24 1_555 1_555
H19 C25 1_555 1_555
C26 C21 1_555 1_555
H20 C26 1_555 1_555
C27 N3 1_555 1_555
H21 C27 1_555 1_555
H22 C27 1_555 1_555
C28 C27 1_555 1_555
C29 C28 1_555 1_555
H23 C29 1_555 1_555
C30 C29 1_555 1_555
H24 C30 1_555 1_555
C31 C30 1_555 1_555
H25 C31 1_555 1_555
C32 C31 1_555 1_555
H26 C32 1_555 1_555
C33 C28 1_555 1_555
H27 C33 1_555 1_555
C4 C5 1_555 1_555
C6 C7 1_555 1_555
C11 C12 1_555 1_555
C11 C19 1_555 1_555
C17 C18 1_555 1_555
C21 C22 1_555 1_555
C25 C26 1_555 1_555
C32 C33 1_555 1_555

#END
