
#######################################################################
#
#                 Cambridge Crystallographic Data Centre
#                                CCDC 
#
#######################################################################
#
# If this CIF has been generated from an entry in the Cambridge 
# Structural Database, then it will include bibliographic, chemical, 
# crystal, experimental, refinement or atomic coordinate data resulting 
# from the CCDC's data processing and validation procedures.
#
#######################################################################

data_AQUMEG
_chemical_formula_moiety         'C22 H29 N2 O1 1+,Br1 1-'
_chemical_name_systematic        
'6-(3-formyl-9H-carbazol-9-yl)-N,N,N-trimethylhexan-1-aminium bromide'
_symmetry_cell_setting           orthorhombic
_symmetry_space_group_name_H-M   'P b c a'
_symmetry_Int_Tables_number      61
_space_group_name_Hall           '-P 2ac 2ab'
loop_
_symmetry_equiv_pos_site_id
_symmetry_equiv_pos_as_xyz
1 x,y,z
2 1/2-x,-y,1/2+z
3 1/2+x,1/2-y,-z
4 -x,1/2+y,1/2-z
5 -x,-y,-z
6 1/2+x,y,1/2-z
7 1/2-x,1/2+y,z
8 x,1/2-y,1/2+z
_cell_length_a                   9.046(5)
_cell_length_b                   13.976(5)
_cell_length_c                   34.055(5)
_cell_angle_alpha                90
_cell_angle_beta                 90
_cell_angle_gamma                90
_cell_volume                     4305.47
_exptl_crystal_colour            yellow
_exptl_crystal_description       stick-like
_cell_formula_units_Z            8
loop_
_atom_site_label
_atom_site_type_symbol
_atom_site_fract_x
_atom_site_fract_y
_atom_site_fract_z
Br1 Br 0.73002(7) 0.60592(5) 0.02608(2)
N1 N 0.3071(4) 0.1334(2) 0.03609(9)
C1 C 0.3170(5) 0.2251(3) 0.05993(12)
H1 H 0.2675 0.2754 0.0454
H2 H 0.2625 0.2157 0.0841
N2 N 0.6840(5) 0.6270(3) 0.16347(11)
C2 C 0.5766(6) 0.4859(3) 0.13099(14)
H3 H 0.5442 0.4622 0.1563
H4 H 0.4983 0.5258 0.1205
C3 C 0.3799(5) 0.0513(3) 0.05672(12)
H5 H 0.3426 0.0469 0.0830
H6 H 0.4849 0.0615 0.0574
H7 H 0.3590 -0.0070 0.0429
C4 C 0.3789(5) 0.1450(3) -0.00347(11)
H8 H 0.3527 0.0919 -0.0199
H9 H 0.4843 0.1471 -0.0004
H10 H 0.3455 0.2034 -0.0154
C5 C 0.6929(6) 0.6223(4) 0.20427(14)
C6 C 0.7138(6) 0.5472(4) 0.13690(14)
H11 H 0.7926 0.5080 0.1476
H12 H 0.7466 0.5718 0.1117
C7 C 0.6243(6) 0.7045(4) 0.22021(14)
C8 C 0.6060(5) 0.7087(3) 0.15369(13)
C9 C 0.4543(5) 0.3537(3) 0.09245(15)
H13 H 0.3982 0.3420 0.1162
H14 H 0.3977 0.3977 0.0764
C10 C 0.4703(5) 0.2600(3) 0.07038(14)
H15 H 0.5282 0.2696 0.0467
H16 H 0.5203 0.2131 0.0867
C11 C 0.1448(5) 0.1113(4) 0.03055(15)
H17 H 0.0997 0.1007 0.0557
H18 H 0.1344 0.0549 0.0147
H19 H 0.0973 0.1643 0.0178
C12 C 0.5997(6) 0.4014(3) 0.10356(16)
H20 H 0.6633 0.3548 0.1163
H21 H 0.6491 0.4232 0.0799
C13 C 0.5669(6) 0.7588(3) 0.18791(14)
C14 C 0.6234(8) 0.7145(4) 0.26074(15)
H22 H 0.5787 0.7677 0.2721
C15 C 0.4861(7) 0.8444(4) 0.18471(17)
H23 H 0.4587 0.8786 0.2070
C16 C 0.5705(6) 0.7422(4) 0.11604(14)
H24 H 0.5985 0.7094 0.0935
C17 C 0.4909(7) 0.8276(4) 0.11432(17)
H25 H 0.4655 0.8523 0.0899
C18 C 0.7562(8) 0.5509(5) 0.22750(18)
H26 H 0.7980 0.4967 0.2162
C19 C 0.4485(7) 0.8765(4) 0.1477(2)
H27 H 0.3933 0.9324 0.1452
C20 C 0.7547(8) 0.5635(5) 0.26811(18)
H28 H 0.7971 0.5176 0.2844
C21 C 0.6888(9) 0.6457(4) 0.28464(16)
C22 C 0.6918(12) 0.6585(6) 0.32673(19)
O1 O 0.7361(8) 0.6010(5) 0.35103(15)
loop_
_geom_bond_atom_site_label_1
_geom_bond_atom_site_label_2
_geom_bond_site_symmetry_1
_geom_bond_site_symmetry_2
N1 C1 1_555 1_555
C1 H1 1_555 1_555
H2 C1 1_555 1_555
N2 C5 1_555 1_555
C2 H3 1_555 1_555
H4 C2 1_555 1_555
C3 N1 1_555 1_555
H5 C3 1_555 1_555
H6 C3 1_555 1_555
H7 C3 1_555 1_555
C4 N1 1_555 1_555
H8 C4 1_555 1_555
H9 C4 1_555 1_555
H10 C4 1_555 1_555
C5 C7 1_555 1_555
C6 N2 1_555 1_555
H11 C6 1_555 1_555
H12 C6 1_555 1_555
C7 C13 1_555 1_555
C8 N2 1_555 1_555
C9 H13 1_555 1_555
H14 C9 1_555 1_555
C10 C1 1_555 1_555
H15 C10 1_555 1_555
H16 C10 1_555 1_555
C11 N1 1_555 1_555
H17 C11 1_555 1_555
H18 C11 1_555 1_555
H19 C11 1_555 1_555
C12 C2 1_555 1_555
H20 C12 1_555 1_555
H21 C12 1_555 1_555
C13 C8 1_555 1_555
C14 C7 1_555 1_555
H22 C14 1_555 1_555
C15 C13 1_555 1_555
H23 C15 1_555 1_555
C16 C8 1_555 1_555
H24 C16 1_555 1_555
C17 C16 1_555 1_555
H25 C17 1_555 1_555
C18 C5 1_555 1_555
H26 C18 1_555 1_555
C19 C15 1_555 1_555
H27 C19 1_555 1_555
C20 C18 1_555 1_555
H28 C20 1_555 1_555
C21 C14 1_555 1_555
C22 C21 1_555 1_555
O1 C22 1_555 1_555
C2 C6 1_555 1_555
C9 C10 1_555 1_555
C9 C12 1_555 1_555
C17 C19 1_555 1_555
C20 C21 1_555 1_555

#END
