
#######################################################################
#
#                 Cambridge Crystallographic Data Centre
#                                CCDC 
#
#######################################################################
#
# If this CIF has been generated from an entry in the Cambridge 
# Structural Database, then it will include bibliographic, chemical, 
# crystal, experimental, refinement or atomic coordinate data resulting 
# from the CCDC's data processing and validation procedures.
#
#######################################################################

data_AQUTAJ
_chemical_formula_moiety         'C17 H13 N1 O2'
_chemical_name_systematic        (5-methoxyisoquinolin-1-yl)(phenyl)methanone
_symmetry_cell_setting           monoclinic
_symmetry_space_group_name_H-M   'P 21/c'
_symmetry_Int_Tables_number      14
_space_group_name_Hall           '-P 2ybc'
loop_
_symmetry_equiv_pos_site_id
_symmetry_equiv_pos_as_xyz
1 x,y,z
2 -x,1/2+y,1/2-z
3 -x,-y,-z
4 x,1/2-y,1/2+z
_cell_length_a                   8.9419(18)
_cell_length_b                   20.446(4)
_cell_length_c                   7.9832(16)
_cell_angle_alpha                90
_cell_angle_beta                 111.874(3)
_cell_angle_gamma                90
_cell_volume                     1354.46
_exptl_crystal_colour            'metallic light orange'
_exptl_crystal_description       block
_cell_formula_units_Z            4
loop_
_atom_site_label
_atom_site_type_symbol
_atom_site_fract_x
_atom_site_fract_y
_atom_site_fract_z
O1 O -0.1035(3) 0.92181(11) 0.4711(3)
O2 O 0.4316(2) 0.69124(11) 0.7389(3)
N1 N -0.0892(3) 0.78821(11) 0.7047(3)
C1 C -0.2566(4) 0.98924(14) 0.6657(5)
H1 H -0.2786 1.0018 0.5470
C2 C -0.3185(5) 1.02455(17) 0.7697(6)
H2 H -0.3823 1.0610 0.7214
C3 C -0.2871(5) 1.00672(19) 0.9447(6)
H3 H -0.3300 1.0309 1.0148
C4 C -0.1911(5) 0.95251(19) 1.0180(5)
H4 H -0.1692 0.9404 1.1371
C5 C -0.1289(4) 0.91684(15) 0.9123(4)
H5 H -0.0646 0.8806 0.9608
C6 C -0.1610(3) 0.93446(12) 0.7354(3)
C7 C -0.0907(3) 0.90050(13) 0.6184(3)
C8 C -0.0018(3) 0.83627(12) 0.6785(3)
C9 C -0.0211(3) 0.72764(13) 0.7374(4)
H6 H -0.0810 0.6935 0.7577
C10 C 0.1293(3) 0.71415(13) 0.7422(4)
H7 H 0.1687 0.6716 0.7621
C11 C 0.2248(3) 0.76490(12) 0.7170(3)
C12 C 0.3833(3) 0.75471(14) 0.7195(4)
C13 C 0.4725(3) 0.80666(16) 0.7010(4)
H8 H 0.5768 0.8000 0.7052
C14 C 0.4071(4) 0.86975(16) 0.6758(4)
H9 H 0.4697 0.9046 0.6651
C15 C 0.2543(4) 0.88157(14) 0.6664(4)
H10 H 0.2127 0.9238 0.6468
C16 C 0.1595(3) 0.82894(12) 0.6867(3)
C17 C 0.5879(4) 0.6776(2) 0.7385(6)
H11 H 0.5931 0.6915 0.6258
H12 H 0.6084 0.6314 0.7534
H13 H 0.6675 0.7007 0.8358
loop_
_geom_bond_atom_site_label_1
_geom_bond_atom_site_label_2
_geom_bond_site_symmetry_1
_geom_bond_site_symmetry_2
O1 C7 1_555 1_555
O2 C12 1_555 1_555
N1 C8 1_555 1_555
C1 H1 1_555 1_555
C2 C1 1_555 1_555
H2 C2 1_555 1_555
C3 C2 1_555 1_555
H3 C3 1_555 1_555
C4 C3 1_555 1_555
H4 C4 1_555 1_555
C5 C4 1_555 1_555
H5 C5 1_555 1_555
C6 C1 1_555 1_555
C7 C6 1_555 1_555
C8 C7 1_555 1_555
C9 N1 1_555 1_555
H6 C9 1_555 1_555
C10 C9 1_555 1_555
H7 C10 1_555 1_555
C11 C10 1_555 1_555
C12 C11 1_555 1_555
C13 C12 1_555 1_555
H8 C13 1_555 1_555
C14 C13 1_555 1_555
H9 C14 1_555 1_555
C15 C14 1_555 1_555
H10 C15 1_555 1_555
C16 C8 1_555 1_555
C17 O2 1_555 1_555
H11 C17 1_555 1_555
H12 C17 1_555 1_555
H13 C17 1_555 1_555
C5 C6 1_555 1_555
C11 C16 1_555 1_555
C15 C16 1_555 1_555

#END
