
#######################################################################
#
#                 Cambridge Crystallographic Data Centre
#                                CCDC 
#
#######################################################################
#
# If this CIF has been generated from an entry in the Cambridge 
# Structural Database, then it will include bibliographic, chemical, 
# crystal, experimental, refinement or atomic coordinate data resulting 
# from the CCDC's data processing and validation procedures.
#
#######################################################################

data_ARAHAD
_chemical_formula_moiety         'C34 H31 N1 O4'
_chemical_name_systematic        
1-(6-(4-Methoxyphenyl)-4-((4-methoxyphenyl)ethynyl)-2,3-diphenyl-1,2-oxazinan-4-yl)ethanone
_symmetry_cell_setting           monoclinic
_symmetry_space_group_name_H-M   'P 21'
_symmetry_Int_Tables_number      4
_space_group_name_Hall           'P 2yb'
loop_
_symmetry_equiv_pos_site_id
_symmetry_equiv_pos_as_xyz
1 x,y,z
2 -x,1/2+y,-z
_cell_length_a                   10.433(2)
_cell_length_b                   13.814(3)
_cell_length_c                   10.471(2)
_cell_angle_alpha                90
_cell_angle_beta                 114.652(6)
_cell_angle_gamma                90
_cell_volume                     1371.55
_exptl_crystal_colour            colorless
_exptl_crystal_description       block
_cell_formula_units_Z            2
loop_
_atom_site_label
_atom_site_type_symbol
_atom_site_fract_x
_atom_site_fract_y
_atom_site_fract_z
N1 N 0.2027(3) 0.4439(2) 0.0828(3)
O1 O -0.3730(3) 0.3602(2) 0.3454(3)
O2 O 0.6148(3) -0.1082(2) 0.3982(3)
O3 O -0.0843(3) 0.2723(3) -0.3143(3)
O4 O 0.0765(2) 0.45392(16) 0.1063(3)
C1 C 0.4167(4) 0.5301(3) 0.1211(5)
H1 H 0.4402 0.4800 0.0725
C2 C 0.5076(4) 0.6059(3) 0.1774(5)
H2 H 0.5922 0.6090 0.1641
C3 C 0.4790(4) 0.6774(3) 0.2527(5)
H3 H 0.5443 0.7284 0.2940
C4 C 0.3527(4) 0.6739(3) 0.2673(5)
H4 H 0.3311 0.7231 0.3186
C5 C 0.2586(4) 0.5995(3) 0.2080(4)
H5 H 0.1719 0.5985 0.2175
C6 C 0.2888(4) 0.5266(3) 0.1352(4)
C7 C -0.0482(4) 0.5357(3) -0.1840(5)
H6 H -0.0895 0.5132 -0.1241
C8 C -0.1156(5) 0.6055(3) -0.2828(5)
H7 H -0.2030 0.6307 -0.2901
C9 C -0.0595(6) 0.6389(3) -0.3702(6)
H8 H -0.091(6) 0.689(4) -0.439(7)
C10 C 0.0696(5) 0.6036(3) -0.3581(5)
H9 H 0.1103 0.6275 -0.4178
C11 C 0.1382(4) 0.5342(3) -0.2599(4)
H10 H 0.2265 0.5105 -0.2524
C12 C 0.0814(4) 0.4975(2) -0.1710(4)
C13 C 0.4732(4) 0.1342(3) 0.2792(4)
H11 H 0.4823 0.1989 0.3128
C14 C 0.5550(4) 0.0624(3) 0.3666(5)
H12 H 0.6209 0.0781 0.4591
C15 C 0.5415(4) -0.0321(3) 0.3202(4)
C16 C 0.4489(4) -0.0534(3) 0.1829(4)
H13 H 0.4418 -0.1179 0.1491
C17 C 0.3680(4) 0.0179(3) 0.0958(4)
H14 H 0.3045 0.0023 0.0024
C18 C 0.3776(4) 0.1134(3) 0.1426(4)
C19 C -0.2019(4) 0.3004(3) 0.1185(4)
H15 H -0.2148 0.2550 0.0459
C20 C -0.2948(4) 0.3023(3) 0.1815(5)
H16 H -0.3707 0.2574 0.1520
C21 C -0.2800(4) 0.3671(3) 0.2850(4)
C22 C -0.1733(4) 0.4354(3) 0.3240(4)
H17 H -0.1644 0.4829 0.3927
C23 C -0.0794(4) 0.4335(3) 0.2614(4)
H18 H -0.0064 0.4805 0.2880
C24 C -0.0890(4) 0.3651(3) 0.1615(4)
C25 C 0.0232(4) 0.3577(3) 0.1055(4)
H19 H 0.1019 0.3165 0.1713
C26 C -0.0272(4) 0.3154(3) -0.0403(4)
H20 H -0.1089 0.3530 -0.1060
H21 H -0.0581 0.2477 -0.0397
C27 C 0.0927(4) 0.3180(2) -0.0906(4)
C28 C 0.1626(4) 0.4209(2) -0.0658(4)
H22 H 0.2532 0.4125 -0.0757
C29 C -0.3506(5) 0.4189(4) 0.4635(5)
H23 H -0.4249 0.4065 0.4957
H24 H -0.3529 0.4873 0.4376
H25 H -0.2585 0.4037 0.5393
C30 C 0.7136(5) -0.0897(4) 0.5385(5)
H26 H 0.7590 -0.1505 0.5827
H27 H 0.6646 -0.0617 0.5917
H28 H 0.7853 -0.0442 0.5376
C31 C 0.0385(5) 0.2904(3) -0.2455(4)
C32 C 0.1441(3) 0.28290(17) -0.3075(3)
H29 H 0.2259 0.3236 -0.2537
H30 H 0.1010 0.3048 -0.4054
H31 H 0.1745 0.2154 -0.3039
C33 C 0.2849(3) 0.18615(17) 0.0559(3)
C34 C 0.2011(3) 0.24649(17) -0.0105(3)
loop_
_geom_bond_atom_site_label_1
_geom_bond_atom_site_label_2
_geom_bond_site_symmetry_1
_geom_bond_site_symmetry_2
N1 O4 1_555 1_555
O1 C21 1_555 1_555
O2 C15 1_555 1_555
O3 C31 1_555 1_555
O4 C25 1_555 1_555
C1 H1 1_555 1_555
C2 C1 1_555 1_555
H2 C2 1_555 1_555
C3 C2 1_555 1_555
H3 C3 1_555 1_555
C4 C3 1_555 1_555
H4 C4 1_555 1_555
C5 C4 1_555 1_555
H5 C5 1_555 1_555
C6 N1 1_555 1_555
C7 H6 1_555 1_555
C8 C7 1_555 1_555
H7 C8 1_555 1_555
C9 C8 1_555 1_555
H8 C9 1_555 1_555
C10 C9 1_555 1_555
H9 C10 1_555 1_555
C11 C10 1_555 1_555
H10 C11 1_555 1_555
C12 C7 1_555 1_555
C13 H11 1_555 1_555
C14 C13 1_555 1_555
H12 C14 1_555 1_555
C15 C14 1_555 1_555
C16 C15 1_555 1_555
H13 C16 1_555 1_555
C17 C16 1_555 1_555
H14 C17 1_555 1_555
C18 C13 1_555 1_555
C19 H15 1_555 1_555
C20 C19 1_555 1_555
H16 C20 1_555 1_555
C21 C20 1_555 1_555
C22 C21 1_555 1_555
H17 C22 1_555 1_555
C23 C22 1_555 1_555
H18 C23 1_555 1_555
C24 C19 1_555 1_555
C25 C24 1_555 1_555
H19 C25 1_555 1_555
C26 C25 1_555 1_555
H20 C26 1_555 1_555
H21 C26 1_555 1_555
C27 C26 1_555 1_555
C28 N1 1_555 1_555
H22 C28 1_555 1_555
C29 O1 1_555 1_555
H23 C29 1_555 1_555
H24 C29 1_555 1_555
H25 C29 1_555 1_555
C30 O2 1_555 1_555
H26 C30 1_555 1_555
H27 C30 1_555 1_555
H28 C30 1_555 1_555
C31 C27 1_555 1_555
C32 C31 1_555 1_555
H29 C32 1_555 1_555
H30 C32 1_555 1_555
H31 C32 1_555 1_555
C33 C18 1_555 1_555
C34 C27 1_555 1_555
C1 C6 1_555 1_555
C5 C6 1_555 1_555
C11 C12 1_555 1_555
C12 C28 1_555 1_555
C17 C18 1_555 1_555
C23 C24 1_555 1_555
C27 C28 1_555 1_555
C33 C34 1_555 1_555

#END
