
#######################################################################
#
#                 Cambridge Crystallographic Data Centre
#                                CCDC 
#
#######################################################################
#
# If this CIF has been generated from an entry in the Cambridge 
# Structural Database, then it will include bibliographic, chemical, 
# crystal, experimental, refinement or atomic coordinate data resulting 
# from the CCDC's data processing and validation procedures.
#
#######################################################################

data_ARAQIV
_chemical_formula_moiety         'C4 H1 N9 O5 2-,2(C1 H7 N4 1+),H2 O1'
_chemical_name_systematic        
'bis(amino(hydrazino)methaniminium) nitro(3-(4-(nitroazanidyl)-1,2,5-oxadiazol-3-yl)-1H-1,2,4-triazol-5-yl)amide monohydrate'
_symmetry_cell_setting           triclinic
_symmetry_space_group_name_H-M   'P -1'
_symmetry_Int_Tables_number      2
_space_group_name_Hall           '-P 1'
loop_
_symmetry_equiv_pos_site_id
_symmetry_equiv_pos_as_xyz
1 x,y,z
2 -x,-y,-z
_cell_length_a                   9.5300(8)
_cell_length_b                   9.9735(8)
_cell_length_c                   10.2345(8)
_cell_angle_alpha                108.687(3)
_cell_angle_beta                 107.064(3)
_cell_angle_gamma                101.591(3)
_cell_volume                     832.885
_exptl_crystal_description       column
_cell_formula_units_Z            2
loop_
_atom_site_label
_atom_site_type_symbol
_atom_site_fract_x
_atom_site_fract_y
_atom_site_fract_z
C1 C 0.5915(3) 0.6343(3) 0.4209(3)
C2 C 0.7381(3) 0.6430(3) 0.4074(3)
C3 C 1.0672(3) 0.9619(3) 0.6477(3)
C4 C 0.8900(3) 0.7597(3) 0.4953(3)
N1 N 0.4874(3) 0.5069(3) 0.3178(3)
N2 N 0.7222(3) 0.5218(3) 0.2976(3)
N3 N 0.5777(3) 0.7469(2) 0.5313(2)
N4 N 0.4388(3) 0.7297(3) 0.5337(3)
N5 N 1.0167(3) 0.7334(2) 0.4810(2)
N6 N 1.1292(3) 0.8654(3) 0.5788(3)
H1 H 1.222(3) 0.877(3) 0.594(3)
N7 N 0.9132(3) 0.8983(2) 0.5956(2)
N8 N 1.1358(3) 1.1034(2) 0.7613(3)
N9 N 1.2860(3) 1.1646(3) 0.8048(3)
O1 O 0.5679(2) 0.4352(2) 0.2401(2)
O2 O 0.4299(2) 0.8367(2) 0.6379(2)
O3 O 0.3203(2) 0.6202(2) 0.4447(2)
O4 O 1.3659(2) 1.1071(2) 0.7396(2)
O5 O 1.3509(3) 1.2879(2) 0.9171(2)
C5 C 0.2194(3) 0.7830(3) 0.2036(3)
N10 N 0.2383(3) 0.5603(3) 0.0471(3)
H2 H 0.258(4) 0.554(3) -0.033(3)
H3 H 0.292(4) 0.515(3) 0.088(3)
N11 N 0.3070(3) 0.7111(3) 0.1499(3)
H4 H 0.398(4) 0.752(3) 0.176(3)
N12 N 0.0708(3) 0.7141(3) 0.1638(3)
H5 H 0.011(3) 0.765(3) 0.191(3)
H6 H 0.027(3) 0.619(2) 0.098(3)
N13 N 0.2858(3) 0.9251(3) 0.2986(3)
H7 H 0.228(3) 0.974(3) 0.334(3)
H8 H 0.383(2) 0.975(3) 0.323(3)
C6 C 0.0229(3) 0.2970(3) 0.1923(3)
N14 N 0.1965(3) 0.1751(3) 0.1280(3)
H9 H 0.261(4) 0.154(3) 0.195(3)
H10 H 0.238(4) 0.195(3) 0.069(3)
N15 N 0.1675(3) 0.3049(3) 0.2050(3)
H11 H 0.241(4) 0.381(3) 0.260(3)
N16 N -0.0014(3) 0.4196(3) 0.2673(3)
H12 H -0.096(2) 0.414(3) 0.262(3)
H13 H 0.075(3) 0.504(2) 0.330(3)
N17 N -0.0925(3) 0.1705(3) 0.1060(3)
H14 H -0.073(3) 0.091(2) 0.055(3)
H15 H -0.189(2) 0.166(3) 0.101(3)
O6 O 0.3995(3) 0.8512(3) 0.9112(3)
H16 H 0.422(11) 0.843(17) 0.837(6)
H17 H 0.445(7) 0.942(3) 0.964(7)
H18? H 0.398(11) 0.826(16) 0.826(4)
H19? H 0.442(8) 0.797(6) 0.941(7)
loop_
_geom_bond_atom_site_label_1
_geom_bond_atom_site_label_2
_geom_bond_site_symmetry_1
_geom_bond_site_symmetry_2
C1 C2 1_555 1_555
C2 C4 1_555 1_555
C3 N6 1_555 1_555
C4 N5 1_555 1_555
N1 C1 1_555 1_555
N2 C2 1_555 1_555
N3 C1 1_555 1_555
N4 N3 1_555 1_555
N5 N6 1_555 1_555
N6 H1 1_555 1_555
N7 C3 1_555 1_555
N8 C3 1_555 1_555
N9 N8 1_555 1_555
O1 N1 1_555 1_555
O2 N4 1_555 1_555
O3 N4 1_555 1_555
O4 N9 1_555 1_555
O5 N9 1_555 1_555
C5 N11 1_555 1_555
N10 H2 1_555 1_555
H3 N10 1_555 1_555
N11 N10 1_555 1_555
H4 N11 1_555 1_555
N12 C5 1_555 1_555
H5 N12 1_555 1_555
H6 N12 1_555 1_555
N13 C5 1_555 1_555
H7 N13 1_555 1_555
H8 N13 1_555 1_555
C6 N15 1_555 1_555
N14 H9 1_555 1_555
H10 N14 1_555 1_555
N15 N14 1_555 1_555
H11 N15 1_555 1_555
N16 C6 1_555 1_555
H12 N16 1_555 1_555
H13 N16 1_555 1_555
N17 C6 1_555 1_555
H14 N17 1_555 1_555
H15 N17 1_555 1_555
O6 H16 1_555 1_555
H17 O6 1_555 1_555
C4 N7 1_555 1_555
N2 O1 1_555 1_555

#END
