
#######################################################################
#
#                 Cambridge Crystallographic Data Centre
#                                CCDC 
#
#######################################################################
#
# If this CIF has been generated from an entry in the Cambridge 
# Structural Database, then it will include bibliographic, chemical, 
# crystal, experimental, refinement or atomic coordinate data resulting 
# from the CCDC's data processing and validation procedures.
#
#######################################################################

data_AREDOS
_chemical_formula_moiety         'C48 H34 N4'
_chemical_name_systematic        
3,3'-(1,4-phenylene)bis(2-(4-(diphenylamino)phenyl)acrylonitrile)
_symmetry_cell_setting           orthorhombic
_symmetry_space_group_name_H-M   'P c a 21'
_symmetry_Int_Tables_number      29
_space_group_name_Hall           'P 2c -2ac'
loop_
_symmetry_equiv_pos_site_id
_symmetry_equiv_pos_as_xyz
1 x,y,z
2 -x,-y,1/2+z
3 1/2+x,-y,z
4 1/2-x,y,1/2+z
_cell_length_a                   12.279(3)
_cell_length_b                   16.264(3)
_cell_length_c                   36.106(7)
_cell_angle_alpha                90
_cell_angle_beta                 90
_cell_angle_gamma                90
_cell_volume                     7210.57
_exptl_crystal_colour            yellow
_exptl_crystal_description       block
_cell_formula_units_Z            8
loop_
_atom_site_label
_atom_site_type_symbol
_atom_site_fract_x
_atom_site_fract_y
_atom_site_fract_z
C1 C 0.7848(6) -0.0374(3) 0.34844(14)
C2 C 0.8781(6) -0.0488(3) 0.36885(14)
H1 H 0.9005 -0.1021 0.3743
C3 C 0.9393(6) 0.0160(3) 0.38144(14)
C4 C 1.0369(6) 0.0120(3) 0.40497(15)
C5 C 1.0933(5) -0.0529(3) 0.41768(13)
C6 C 1.0628(6) -0.1356(4) 0.40792(15)
C7 C 1.1875(5) -0.0440(3) 0.44268(14)
C8 C 1.2282(6) -0.1130(3) 0.46102(15)
C9 C 1.3131(6) -0.1045(3) 0.48550(16)
C10 C 1.3604(5) -0.0302(3) 0.49259(14)
C11 C 1.3210(6) 0.0364(3) 0.47394(16)
C12 C 1.2366(6) 0.0301(3) 0.44977(16)
C13 C 1.5074(5) -0.0920(3) 0.52850(14)
C14 C 1.5529(6) -0.1426(3) 0.50291(16)
H2 H 1.5412 -0.1324 0.4779
C15 C 1.6164(6) -0.2091(4) 0.5132(2)
H3 H 1.6484 -0.2424 0.4953
C16 C 1.6311(7) -0.2249(4) 0.5493(3)
H4 H 1.6727 -0.2700 0.5564
C17 C 1.5868(9) -0.1765(5) 0.5753(2)
H5 H 1.5975 -0.1883 0.6002
C18 C 1.5253(6) -0.1090(4) 0.56514(16)
H6 H 1.4959 -0.0750 0.5833
C19 C 1.4651(7) 0.0523(3) 0.53707(15)
C20 C 1.5696(7) 0.0824(4) 0.53722(16)
H7 H 1.6251 0.0547 0.5249
C21 C 1.5906(7) 0.1545(4) 0.5559(2)
H8 H 1.6610 0.1757 0.5559
C22 C 1.5110(10) 0.1952(5) 0.5744(2)
H9 H 1.5271 0.2432 0.5873
C23 C 1.4097(10) 0.1662(5) 0.5741(2)
H10 H 1.3552 0.1948 0.5865
C24 C 1.3839(7) 0.0945(5) 0.55564(18)
H11 H 1.3129 0.0747 0.5557
C25 C 0.9025(6) 0.0948(3) 0.37274(16)
C26 C 0.8103(6) 0.1077(4) 0.35147(17)
C27 C 0.7485(6) 0.0407(3) 0.33907(14)
C28 C 0.6495(5) 0.0474(3) 0.31747(14)
C29 C 0.5978(6) 0.1131(3) 0.30283(13)
C30 C 0.6416(6) 0.1936(4) 0.30492(15)
C31 C 0.4967(5) 0.1074(3) 0.28145(13)
C32 C 0.4389(6) 0.1779(3) 0.27215(16)
C33 C 0.3448(6) 0.1740(3) 0.25158(16)
C34 C 0.3028(5) 0.1002(3) 0.24053(13)
C35 C 0.3586(6) 0.0289(3) 0.25013(14)
C36 C 0.4525(6) 0.0339(3) 0.27041(15)
C37 C 0.2083(6) 0.0372(3) 0.18931(15)
C38 C 0.2946(6) 0.0351(4) 0.16479(18)
C39 C 0.2967(7) -0.0215(4) 0.13641(17)
H12 H 0.3562 -0.0233 0.1205
C40 C 0.2129(8) -0.0748(4) 0.13137(19)
C41 C 0.1256(7) -0.0725(4) 0.15507(18)
H13 H 0.0665 -0.1073 0.1514
C42 C 0.1261(7) -0.0181(4) 0.18448(18)
C43 C 0.1128(6) 0.1359(3) 0.22903(16)
C44 C 0.0312(6) 0.1509(3) 0.20273(19)
C45 C -0.0642(7) 0.1870(4) 0.2138(3)
C46 C -0.0785(7) 0.2110(3) 0.2506(3)
H14 H -0.1437 0.2351 0.2580
C47 C 0.0019(8) 0.1991(4) 0.2755(2)
C48 C 0.0974(6) 0.1609(3) 0.26517(15)
H15 H 0.1517 0.1519 0.2827
H16 H 0.736(6) -0.093(3) 0.3373(15)
H17 H 1.056(4) 0.074(2) 0.4159(10)
H18 H 1.191(4) -0.167(2) 0.4540(9)
H19 H 1.345(4) -0.152(2) 0.4951(11)
H20 H 1.348(4) 0.086(2) 0.4796(10)
H21 H 1.209(4) 0.074(2) 0.4372(11)
H22 H 0.306(5) 0.228(3) 0.2441(15)
H23 H 0.952(5) 0.151(3) 0.3826(11)
H24 H 0.783(4) 0.171(3) 0.3480(11)
H25 H 0.614(4) -0.010(3) 0.3123(11)
H26 H 0.467(4) 0.227(2) 0.2799(10)
H27 H 0.322(5) -0.027(3) 0.2423(13)
H28 H 0.502(4) -0.018(2) 0.2751(10)
H29 H 0.353(4) 0.071(2) 0.1682(11)
H30 H 0.213(5) -0.114(3) 0.1099(15)
H31 H 0.063(4) -0.017(2) 0.1996(11)
H32 H 0.043(4) 0.126(2) 0.1781(13)
H33 H -0.131(5) 0.192(3) 0.1909(15)
H34 H 0.010(7) 0.226(4) 0.308(2)
N1 N 1.0476(6) -0.2027(3) 0.40062(16)
N2 N 0.6750(6) 0.2589(3) 0.30534(16)
N3 N 1.4446(4) -0.0238(2) 0.51860(12)
N4 N 0.2077(5) 0.0941(2) 0.21841(11)
C49 C 0.8799(6) 0.3785(3) 0.35035(15)
C50 C 0.9721(6) 0.3673(4) 0.37056(17)
C51 C 1.0226(6) 0.4309(3) 0.38954(14)
C52 C 1.1193(6) 0.4242(3) 0.41204(15)
C53 C 1.1811(5) 0.3613(3) 0.42329(13)
C54 C 1.1486(6) 0.2796(4) 0.41279(16)
C55 C 1.2771(5) 0.3672(3) 0.44660(13)
C56 C 1.3441(6) 0.3009(3) 0.45338(17)
C57 C 1.4342(6) 0.3071(3) 0.47586(17)
C58 C 1.4622(5) 0.3815(3) 0.49114(13)
C59 C 1.3984(6) 0.4485(3) 0.48385(16)
C60 C 1.3060(6) 0.4399(3) 0.46264(16)
C61 C 1.6576(6) 0.3654(3) 0.50111(16)
C62 C 1.6791(7) 0.3530(3) 0.46375(18)
C63 C 1.7814(9) 0.3318(3) 0.4523(2)
H35 H 1.7946 0.3242 0.4272
C64 C 1.8645(7) 0.3216(4) 0.4769(3)
H36 H 1.9339 0.3075 0.4688
C65 C 1.8435(7) 0.3323(3) 0.5134(2)
H37 H 1.8994 0.3245 0.5305
C66 C 1.7426(7) 0.3542(3) 0.52597(19)
H38 H 1.7308 0.3617 0.5512
C67 C 1.5425(6) 0.4430(3) 0.54538(15)
C68 C 1.4542(6) 0.4310(3) 0.56762(17)
H39 H 1.4079 0.3868 0.5631
C69 C 1.4327(8) 0.4834(5) 0.59672(18)
H40 H 1.3709 0.4763 0.6113
C70 C 1.5029(9) 0.5451(5) 0.6036(2)
H41 H 1.4888 0.5810 0.6230
C71 C 1.5943(8) 0.5562(4) 0.5827(2)
H42 H 1.6430 0.5980 0.5887
C72 C 1.6154(6) 0.5048(3) 0.55201(16)
H43 H 1.6761 0.5126 0.5370
C73 C 0.9747(6) 0.5083(3) 0.38700(16)
C74 C 0.8810(6) 0.5211(4) 0.36642(16)
C75 C 0.8312(5) 0.4564(3) 0.34777(14)
C76 C 0.7346(5) 0.4622(3) 0.32440(14)
C77 C 0.6823(6) 0.5284(3) 0.31125(14)
C78 C 0.7185(5) 0.6102(4) 0.31770(14)
C79 C 0.5851(5) 0.5214(3) 0.28698(13)
C80 C 0.5558(6) 0.5852(3) 0.26390(16)
C81 C 0.4729(6) 0.5771(3) 0.23855(16)
C82 C 0.4150(5) 0.5047(3) 0.23619(14)
C83 C 0.4396(5) 0.4417(3) 0.26056(14)
H44 H 0.3991 0.3934 0.2605
C84 C 0.5250(6) 0.4517(3) 0.28493(15)
C85 C 0.3081(6) 0.4201(3) 0.19246(13)
C86 C 0.3877(5) 0.3628(3) 0.18626(13)
H45 H 0.4592 0.3734 0.1934
C87 C 0.3618(7) 0.2893(3) 0.16952(15)
H46 H 0.4164 0.2509 0.1652
C88 C 0.2584(8) 0.2721(3) 0.15928(17)
H47 H 0.2419 0.2217 0.1485
C89 C 0.1792(7) 0.3284(4) 0.16484(16)
H48 H 0.1085 0.3170 0.1572
C90 C 0.2020(6) 0.4033(4) 0.18181(16)
C91 C 0.2802(5) 0.5684(3) 0.19541(15)
C92 C 0.2895(6) 0.5869(3) 0.15816(15)
H49 H 0.3290 0.5527 0.1424
C93 C 0.2391(8) 0.6571(4) 0.14451(19)
H50 H 0.2436 0.6702 0.1195
C94 C 0.1847(7) 0.7051(4) 0.1675(2)
H51 H 0.1519 0.7522 0.1581
C95 C 0.1746(6) 0.6891(4) 0.2039(2)
H52 H 0.1354 0.7240 0.2192
C96 C 0.2240(5) 0.6194(3) 0.21777(15)
H53 H 0.2185 0.6075 0.2429
H54 H 0.840(4) 0.322(3) 0.3373(11)
H55 H 1.000(4) 0.309(2) 0.3722(11)
H56 H 1.152(4) 0.474(2) 0.4183(10)
H57 H 1.310(6) 0.245(3) 0.4473(15)
H58 H 1.477(3) 0.2607(19) 0.4834(9)
H59 H 1.422(4) 0.509(3) 0.4967(13)
H60 H 1.278(4) 0.483(2) 0.4547(10)
H61 H 1.619(4) 0.3612(19) 0.4451(10)
H62 H 1.020(5) 0.556(3) 0.4014(14)
H63 H 0.854(5) 0.579(3) 0.3623(13)
H64 H 0.701(6) 0.404(4) 0.3178(17)
H65 H 0.594(4) 0.636(2) 0.2669(10)
H66 H 0.455(4) 0.619(3) 0.2219(12)
H67 H 0.539(4) 0.406(2) 0.2988(9)
H68 H 0.140(5) 0.451(3) 0.1869(16)
N5 N 1.1290(6) 0.2121(3) 0.40574(18)
N6 N 0.7454(5) 0.6765(3) 0.32144(14)
N7 N 1.5543(5) 0.3896(3) 0.51391(12)
N8 N 0.3327(4) 0.4967(2) 0.20963(12)
loop_
_geom_bond_atom_site_label_1
_geom_bond_atom_site_label_2
_geom_bond_site_symmetry_1
_geom_bond_site_symmetry_2
C1 C2 1_555 1_555
C2 H1 1_555 1_555
C3 C2 1_555 1_555
C4 C3 1_555 1_555
C5 C4 1_555 1_555
C6 C5 1_555 1_555
C7 C5 1_555 1_555
C8 C7 1_555 1_555
C9 C8 1_555 1_555
C10 C9 1_555 1_555
C11 C10 1_555 1_555
C12 C7 1_555 1_555
C13 C14 1_555 1_555
C14 H2 1_555 1_555
C15 C14 1_555 1_555
H3 C15 1_555 1_555
C16 C15 1_555 1_555
H4 C16 1_555 1_555
C17 C16 1_555 1_555
H5 C17 1_555 1_555
C18 C13 1_555 1_555
H6 C18 1_555 1_555
C19 C20 1_555 1_555
C20 H7 1_555 1_555
C21 C20 1_555 1_555
H8 C21 1_555 1_555
C22 C21 1_555 1_555
H9 C22 1_555 1_555
C23 C22 1_555 1_555
H10 C23 1_555 1_555
C24 C19 1_555 1_555
H11 C24 1_555 1_555
C25 C3 1_555 1_555
C26 C25 1_555 1_555
C27 C1 1_555 1_555
C28 C27 1_555 1_555
C29 C28 1_555 1_555
C30 C29 1_555 1_555
C31 C29 1_555 1_555
C32 C31 1_555 1_555
C33 C32 1_555 1_555
C34 C33 1_555 1_555
C35 C34 1_555 1_555
C36 C31 1_555 1_555
C37 C38 1_555 1_555
C38 C39 1_555 1_555
C39 H12 1_555 1_555
C40 C39 1_555 1_555
C41 C40 1_555 1_555
H13 C41 1_555 1_555
C42 C37 1_555 1_555
C43 C44 1_555 1_555
C44 C45 1_555 1_555
C45 C46 1_555 1_555
C46 H14 1_555 1_555
C47 C46 1_555 1_555
C48 C43 1_555 1_555
H15 C48 1_555 1_555
H16 C1 1_555 1_555
H17 C4 1_555 1_555
H18 C8 1_555 1_555
H19 C9 1_555 1_555
H20 C11 1_555 1_555
H21 C12 1_555 1_555
H22 C33 1_555 1_555
H23 C25 1_555 1_555
H24 C26 1_555 1_555
H25 C28 1_555 1_555
H26 C32 1_555 1_555
H27 C35 1_555 1_555
H28 C36 1_555 1_555
H29 C38 1_555 1_555
H30 C40 1_555 1_555
H31 C42 1_555 1_555
H32 C44 1_555 1_555
H33 C45 1_555 1_555
H34 C47 1_555 1_555
N1 C6 1_555 1_555
N2 C30 1_555 1_555
N3 C10 1_555 1_555
N4 C34 1_555 1_555
C49 C50 1_555 1_555
C50 C51 1_555 1_555
C51 C52 1_555 1_555
C52 C53 1_555 1_555
C53 C54 1_555 1_555
C54 N5 1_555 1_555
C55 C53 1_555 1_555
C56 C55 1_555 1_555
C57 C56 1_555 1_555
C58 C57 1_555 1_555
C59 C58 1_555 1_555
C60 C55 1_555 1_555
C61 C62 1_555 1_555
C62 C63 1_555 1_555
C63 H35 1_555 1_555
C64 C63 1_555 1_555
H36 C64 1_555 1_555
C65 C64 1_555 1_555
H37 C65 1_555 1_555
C66 C61 1_555 1_555
H38 C66 1_555 1_555
C67 C68 1_555 1_555
C68 H39 1_555 1_555
C69 C68 1_555 1_555
H40 C69 1_555 1_555
C70 C69 1_555 1_555
H41 C70 1_555 1_555
C71 C70 1_555 1_555
H42 C71 1_555 1_555
C72 C67 1_555 1_555
H43 C72 1_555 1_555
C73 C51 1_555 1_555
C74 C73 1_555 1_555
C75 C49 1_555 1_555
C76 C75 1_555 1_555
C77 C76 1_555 1_555
C78 C77 1_555 1_555
C79 C77 1_555 1_555
C80 C79 1_555 1_555
C81 C80 1_555 1_555
C82 C81 1_555 1_555
C83 C82 1_555 1_555
H44 C83 1_555 1_555
C84 C79 1_555 1_555
C85 C86 1_555 1_555
C86 H45 1_555 1_555
C87 C86 1_555 1_555
H46 C87 1_555 1_555
C88 C87 1_555 1_555
H47 C88 1_555 1_555
C89 C88 1_555 1_555
H48 C89 1_555 1_555
C90 C85 1_555 1_555
C91 C92 1_555 1_555
C92 H49 1_555 1_555
C93 C92 1_555 1_555
H50 C93 1_555 1_555
C94 C93 1_555 1_555
H51 C94 1_555 1_555
C95 C94 1_555 1_555
H52 C95 1_555 1_555
C96 C91 1_555 1_555
H53 C96 1_555 1_555
H54 C49 1_555 1_555
H55 C50 1_555 1_555
H56 C52 1_555 1_555
H57 C56 1_555 1_555
H58 C57 1_555 1_555
H59 C59 1_555 1_555
H60 C60 1_555 1_555
H61 C62 1_555 1_555
H62 C73 1_555 1_555
H63 C74 1_555 1_555
H64 C76 1_555 1_555
H65 C80 1_555 1_555
H66 C81 1_555 1_555
H67 C84 1_555 1_555
H68 C90 1_555 1_555
N6 C78 1_555 1_555
N7 C58 1_555 1_555
N8 C82 1_555 1_555
C11 C12 1_555 1_555
C13 N3 1_555 1_555
C17 C18 1_555 1_555
C19 N3 1_555 1_555
C23 C24 1_555 1_555
C26 C27 1_555 1_555
C35 C36 1_555 1_555
C37 N4 1_555 1_555
C41 C42 1_555 1_555
C43 N4 1_555 1_555
C47 C48 1_555 1_555
C59 C60 1_555 1_555
C61 N7 1_555 1_555
C65 C66 1_555 1_555
C67 N7 1_555 1_555
C71 C72 1_555 1_555
C74 C75 1_555 1_555
C83 C84 1_555 1_555
C85 N8 1_555 1_555
C89 C90 1_555 1_555
C91 N8 1_555 1_555
C95 C96 1_555 1_555

#END
