
#######################################################################
#
#                 Cambridge Crystallographic Data Centre
#                                CCDC 
#
#######################################################################
#
# If this CIF has been generated from an entry in the Cambridge 
# Structural Database, then it will include bibliographic, chemical, 
# crystal, experimental, refinement or atomic coordinate data resulting 
# from the CCDC's data processing and validation procedures.
#
#######################################################################

data_AREKAL
_chemical_formula_moiety         'C23 H19 Cl1 N2 O2'
_chemical_name_systematic        
11-(2-chlorophenyl)-3-(2-furyl)-2,3,4,5,10,11-hexahydro-1H-dibenzo[b,e][1,4]diazepin-1-one
_symmetry_cell_setting           orthorhombic
_symmetry_space_group_name_H-M   'P b c a'
_symmetry_Int_Tables_number      61
_space_group_name_Hall           '-P 2ac 2ab'
loop_
_symmetry_equiv_pos_site_id
_symmetry_equiv_pos_as_xyz
1 x,y,z
2 1/2-x,-y,1/2+z
3 -x,1/2+y,1/2-z
4 1/2+x,1/2-y,-z
5 -x,-y,-z
6 1/2+x,y,1/2-z
7 x,1/2-y,1/2+z
8 1/2-x,1/2+y,z
_cell_length_a                   12.399(3)
_cell_length_b                   13.886(3)
_cell_length_c                   21.879(5)
_cell_angle_alpha                90
_cell_angle_beta                 90
_cell_angle_gamma                90
_cell_volume                     3766.96
_cell_formula_units_Z            8
loop_
_atom_site_label
_atom_site_type_symbol
_atom_site_fract_x
_atom_site_fract_y
_atom_site_fract_z
C1 C 0.6896(2) 0.40204(19) 0.63268(13)
C2 C 0.5884(2) 0.4522(2) 0.61258(15)
H1 H 0.5411 0.4595 0.6476
H2 H 0.5515 0.4119 0.5830
C3 C 0.6076(2) 0.5510(2) 0.58428(14)
H3 H 0.5383 0.5848 0.5831
C4 C 0.6827(2) 0.6076(2) 0.62629(14)
H4 H 0.7018 0.6677 0.6065
H5 H 0.6443 0.6232 0.6636
C5 C 0.7844(2) 0.55424(18) 0.64250(11)
C6 C 0.7859(2) 0.45528(17) 0.64658(11)
C7 C 0.8811(2) 0.39586(18) 0.66649(11)
H6 H 0.8508 0.3376 0.6851
C8 C 1.0142(2) 0.5182(2) 0.69945(11)
C9 C 0.9765(2) 0.60101(19) 0.67047(11)
C10 C 1.0465(2) 0.6778(2) 0.66075(13)
H7 H 1.0214 0.7327 0.6411
C11 C 1.1527(3) 0.6739(3) 0.67978(14)
H8 H 1.1978 0.7266 0.6742
C12 C 1.1911(3) 0.5919(3) 0.70686(14)
H9 H 1.2629 0.5882 0.7189
C13 C 1.1232(2) 0.5149(3) 0.71616(13)
H10 H 1.1504 0.4592 0.7340
C14 C 0.6494(2) 0.5462(2) 0.52068(15)
C15 C 0.7272(5) 0.4881(4) 0.43907(18)
H11 H 0.7607 0.4452 0.4125
C16 C 0.7039(4) 0.5746(4) 0.4264(2)
H12 H 0.7172 0.6063 0.3897
C17 C 0.6535(3) 0.6140(3) 0.4794(2)
H13 H 0.6280 0.6767 0.4837
C18 C 0.9513(2) 0.36106(18) 0.61351(12)
C19 C 1.0279(2) 0.2886(2) 0.62085(14)
C20 C 1.0893(3) 0.2544(3) 0.57296(18)
H14 H 1.1396 0.2059 0.5796
C21 C 1.0762(3) 0.2921(3) 0.51573(18)
H15 H 1.1170 0.2688 0.4833
C22 C 1.0024(3) 0.3644(3) 0.50640(15)
H16 H 0.9936 0.3907 0.4676
C23 C 0.9412(3) 0.3980(2) 0.55497(13)
H17 H 0.8916 0.4470 0.5480
Cl1 Cl 1.04666(6) 0.23482(6) 0.69237(4)
N1 N 0.86766(18) 0.61496(15) 0.65314(10)
H18 H 0.8509 0.6746 0.6484
N2 N 0.94465(18) 0.44320(17) 0.71516(9)
H19 H 0.9388 0.4248 0.7525
O1 O 0.68711(19) 0.31359(15) 0.63740(13)
O2 O 0.6958(3) 0.4669(2) 0.49774(13)
loop_
_geom_bond_atom_site_label_1
_geom_bond_atom_site_label_2
_geom_bond_site_symmetry_1
_geom_bond_site_symmetry_2
C1 C2 1_555 1_555
C2 H1 1_555 1_555
H2 C2 1_555 1_555
C3 C2 1_555 1_555
H3 C3 1_555 1_555
C4 C3 1_555 1_555
H4 C4 1_555 1_555
H5 C4 1_555 1_555
C5 C4 1_555 1_555
C6 C1 1_555 1_555
C7 C6 1_555 1_555
H6 C7 1_555 1_555
C8 C9 1_555 1_555
C9 C10 1_555 1_555
C10 H7 1_555 1_555
C11 C10 1_555 1_555
H8 C11 1_555 1_555
C12 C11 1_555 1_555
H9 C12 1_555 1_555
C13 C8 1_555 1_555
H10 C13 1_555 1_555
C14 C3 1_555 1_555
C15 H11 1_555 1_555
C16 C15 1_555 1_555
H12 C16 1_555 1_555
C17 C14 1_555 1_555
H13 C17 1_555 1_555
C18 C7 1_555 1_555
C19 C18 1_555 1_555
C20 C19 1_555 1_555
H14 C20 1_555 1_555
C21 C20 1_555 1_555
H15 C21 1_555 1_555
C22 C21 1_555 1_555
H16 C22 1_555 1_555
C23 C18 1_555 1_555
H17 C23 1_555 1_555
Cl1 C19 1_555 1_555
N1 C5 1_555 1_555
H18 N1 1_555 1_555
N2 C7 1_555 1_555
H19 N2 1_555 1_555
O1 C1 1_555 1_555
O2 C14 1_555 1_555
C5 C6 1_555 1_555
C8 N2 1_555 1_555
C9 N1 1_555 1_555
C12 C13 1_555 1_555
C15 O2 1_555 1_555
C16 C17 1_555 1_555
C22 C23 1_555 1_555

#END
