
#######################################################################
#
#                 Cambridge Crystallographic Data Centre
#                                CCDC 
#
#######################################################################
#
# If this CIF has been generated from an entry in the Cambridge 
# Structural Database, then it will include bibliographic, chemical, 
# crystal, experimental, refinement or atomic coordinate data resulting 
# from the CCDC's data processing and validation procedures.
#
#######################################################################

data_AREKEP
_chemical_formula_moiety         'C23 H19 Cl1 N2 O2,H2 O1'
_chemical_name_systematic        
'11-(4-chlorophenyl)-3-(2-furyl)-2,3,4,5,10,11-hexahydro-1H-dibenzo[b,e][1,4]diazepin-1-one monohydrate'
_symmetry_cell_setting           monoclinic
_symmetry_space_group_name_H-M   'P 21/c'
_symmetry_Int_Tables_number      14
_space_group_name_Hall           '-P 2ybc'
loop_
_symmetry_equiv_pos_site_id
_symmetry_equiv_pos_as_xyz
1 x,y,z
2 -x,1/2+y,1/2-z
3 -x,-y,-z
4 x,1/2-y,1/2+z
_cell_length_a                   14.2967(11)
_cell_length_b                   8.0027(6)
_cell_length_c                   18.5928(15)
_cell_angle_alpha                90
_cell_angle_beta                 105.6100(10)
_cell_angle_gamma                90
_cell_volume                     2048.78
_cell_formula_units_Z            4
loop_
_atom_site_label
_atom_site_type_symbol
_atom_site_fract_x
_atom_site_fract_y
_atom_site_fract_z
C1 C 0.9811(2) 0.7257(4) 0.71600(16)
C2 C 1.0879(2) 0.7615(5) 0.73111(18)
H1 H 1.1072 0.8365 0.7735
H2 H 1.1232 0.6577 0.7447
C3 C 1.1157(2) 0.8356(6) 0.6687(2)
H3 H 1.0876 0.9481 0.6640
C4 C 1.0718(2) 0.7565(4) 0.59574(17)
H4 H 1.1087 0.6569 0.5916
H5 H 1.0772 0.8326 0.5565
C5 C 0.96638(19) 0.7077(3) 0.58292(15)
C6 C 0.92449(19) 0.6953(3) 0.64110(15)
C7 C 0.82051(19) 0.6508(3) 0.63306(15)
H6 H 0.8179 0.6072 0.6817
C8 C 0.8282(2) 0.6295(3) 0.46993(15)
C9 C 0.8032(2) 0.6544(5) 0.39303(17)
H7 H 0.8461 0.7103 0.3716
C10 C 0.7164(3) 0.5988(5) 0.34849(19)
H8 H 0.7015 0.6140 0.2971
C11 C 0.6514(3) 0.5205(5) 0.3792(2)
H9 H 0.5925 0.4824 0.3489
C12 C 0.6740(2) 0.4977(4) 0.45603(19)
H10 H 0.6289 0.4475 0.4770
C13 C 0.7627(2) 0.5493(3) 0.50209(15)
C14 C 1.2221(2) 0.8640(5) 0.6834(2)
C15 C 1.3470(3) 0.9737(7) 0.6569(4)
H11 H 1.3858 1.0319 0.6326
C16 C 1.3796(3) 0.9045(8) 0.7210(3)
H12 H 1.4438 0.9017 0.7497
C17 C 1.2977(2) 0.8262(6) 0.7417(2)
H13 H 1.2973 0.7674 0.7848
C18 C 0.74992(19) 0.7963(3) 0.61600(15)
C19 C 0.7652(2) 0.9376(4) 0.57900(19)
H14 H 0.8225 0.9472 0.5646
C20 C 0.6983(3) 1.0661(4) 0.5626(2)
H15 H 0.7093 1.1596 0.5363
C21 C 0.6157(2) 1.0535(4) 0.58613(19)
C22 C 0.5978(3) 0.9134(5) 0.6231(2)
H16 H 0.5409 0.9045 0.6380
C23 C 0.6649(2) 0.7870(5) 0.6378(2)
H17 H 0.6530 0.6925 0.6631
Cl1 Cl 0.53141(8) 1.21645(14) 0.56857(7)
N1 N 0.92312(17) 0.6806(3) 0.50991(12)
H18 H 0.9609 0.6976 0.4816
N2 N 0.78742(17) 0.5115(3) 0.57867(13)
H19 H 0.7837 0.4108 0.5938
O1 O 0.94427(17) 0.7200(4) 0.76931(12)
O2 O 1.2500(2) 0.9522(4) 0.62974(19)
O3 O 0.05097(17) 0.7411(3) 0.41507(12)
H20 H 0.0194 0.6588 0.3791
H21 H 0.0394 0.8503 0.3931
loop_
_geom_bond_atom_site_label_1
_geom_bond_atom_site_label_2
_geom_bond_site_symmetry_1
_geom_bond_site_symmetry_2
C1 C2 1_555 1_555
C2 H1 1_555 1_555
H2 C2 1_555 1_555
C3 C2 1_555 1_555
H3 C3 1_555 1_555
C4 C3 1_555 1_555
H4 C4 1_555 1_555
H5 C4 1_555 1_555
C5 C4 1_555 1_555
C6 C1 1_555 1_555
C7 C6 1_555 1_555
H6 C7 1_555 1_555
C8 C9 1_555 1_555
C9 H7 1_555 1_555
C10 C9 1_555 1_555
H8 C10 1_555 1_555
C11 C10 1_555 1_555
H9 C11 1_555 1_555
C12 C11 1_555 1_555
H10 C12 1_555 1_555
C13 C8 1_555 1_555
C14 C3 1_555 1_555
C15 H11 1_555 1_555
C16 C15 1_555 1_555
H12 C16 1_555 1_555
C17 C14 1_555 1_555
H13 C17 1_555 1_555
C18 C7 1_555 1_555
C19 C18 1_555 1_555
H14 C19 1_555 1_555
C20 C19 1_555 1_555
H15 C20 1_555 1_555
C21 C20 1_555 1_555
C22 C21 1_555 1_555
H16 C22 1_555 1_555
C23 C18 1_555 1_555
H17 C23 1_555 1_555
Cl1 C21 1_555 1_555
N1 C5 1_555 1_555
H18 N1 1_555 1_555
N2 C7 1_555 1_555
H19 N2 1_555 1_555
O1 C1 1_555 1_555
O2 C14 1_555 1_555
O3 H20 1_555 1_555
H21 O3 1_555 1_555
C5 C6 1_555 1_555
C8 N1 1_555 1_555
C12 C13 1_555 1_555
C13 N2 1_555 1_555
C15 O2 1_555 1_555
C16 C17 1_555 1_555
C22 C23 1_555 1_555

#END
