
#######################################################################
#
#                 Cambridge Crystallographic Data Centre
#                                CCDC 
#
#######################################################################
#
# If this CIF has been generated from an entry in the Cambridge 
# Structural Database, then it will include bibliographic, chemical, 
# crystal, experimental, refinement or atomic coordinate data resulting 
# from the CCDC's data processing and validation procedures.
#
#######################################################################

data_AREKIT
_chemical_formula_moiety         'C24 H22 N2 O3'
_chemical_name_systematic        
3-(2-furyl)-11-(4-methoxyphenyl)-2,3,4,5,10,11-hexahydro-1H-dibenzo[b,e][1,4]diazepin-1-one
_symmetry_cell_setting           monoclinic
_symmetry_space_group_name_H-M   'P 21/c'
_symmetry_Int_Tables_number      14
_space_group_name_Hall           '-P 2ybc'
loop_
_symmetry_equiv_pos_site_id
_symmetry_equiv_pos_as_xyz
1 x,y,z
2 -x,1/2+y,1/2-z
3 -x,-y,-z
4 x,1/2-y,1/2+z
_cell_length_a                   11.3413(13)
_cell_length_b                   19.154(2)
_cell_length_c                   9.2622(11)
_cell_angle_alpha                90
_cell_angle_beta                 106.585(2)
_cell_angle_gamma                90
_cell_volume                     1928.33
_cell_formula_units_Z            4
loop_
_atom_site_label
_atom_site_type_symbol
_atom_site_fract_x
_atom_site_fract_y
_atom_site_fract_z
C1 C 0.9051(2) 0.12654(15) 0.3150(3)
C2 C 0.9103(3) 0.19545(15) 0.2371(3)
H1 H 0.9932 0.2029 0.2305
H2 H 0.8910 0.2330 0.2969
C3 C 0.8206(3) 0.19754(14) 0.0795(3)
H3 H 0.8335 0.2411 0.0306
C4 C 0.8506(3) 0.13687(14) -0.0088(3)
H4 H 0.7901 0.1348 -0.1069
H5 H 0.9306 0.1445 -0.0244
C5 C 0.8514(2) 0.06843(14) 0.0711(3)
C6 C 0.8725(2) 0.06416(14) 0.2230(3)
C7 C 0.8645(2) -0.00217(14) 0.3064(3)
H6 H 0.9095 0.0067 0.4119
C8 C 0.8274(2) -0.05918(15) -0.0131(3)
C9 C 0.7853(3) -0.09727(16) -0.1449(4)
H7 H 0.7554 -0.0735 -0.2356
C10 C 0.7861(3) -0.16924(18) -0.1459(4)
H8 H 0.7588 -0.1935 -0.2363
C11 C 0.8278(3) -0.20486(18) -0.0116(5)
H9 H 0.8283 -0.2534 -0.0103
C12 C 0.8689(3) -0.16774(17) 0.1205(4)
H10 H 0.8942 -0.1922 0.2108
C13 C 0.8741(2) -0.09509(15) 0.1249(4)
C14 C 0.6911(3) 0.19530(14) 0.0844(3)
C15 C 0.4902(3) 0.1812(2) 0.0181(6)
H11 H 0.4102 0.1703 -0.0376
C16 C 0.5227(4) 0.2033(2) 0.1538(6)
H12 H 0.4698 0.2117 0.2122
C17 C 0.6506(3) 0.21277(16) 0.2011(3)
H13 H 0.6978 0.2282 0.2951
C18 C 0.7337(2) -0.02118(14) 0.3054(3)
C19 C 0.6293(3) 0.00771(15) 0.2083(3)
H14 H 0.6379 0.0393 0.1357
C20 C 0.5122(3) -0.00897(16) 0.2154(3)
H15 H 0.4439 0.0110 0.1473
C21 C 0.4963(3) -0.05463(15) 0.3223(3)
C22 C 0.5991(3) -0.08604(16) 0.4189(4)
H16 H 0.5898 -0.1185 0.4895
C23 C 0.7159(3) -0.06890(15) 0.4101(3)
H17 H 0.7840 -0.0900 0.4761
C24 C 0.3573(3) -0.1081(2) 0.4417(4)
H18 H 0.2706 -0.1121 0.4292
H19 H 0.3966 -0.0868 0.5371
H20 H 0.3914 -0.1538 0.4382
N1 N 0.8280(2) 0.01364(12) -0.0280(3)
H21 H 0.8094 0.0269 -0.1204
N2 N 0.9289(2) -0.06086(12) 0.2578(3)
H22 H 1.0004 -0.0736 0.3125
O1 O 0.9309(2) 0.12560(11) 0.4533(2)
O2 O 0.5964(2) 0.17584(14) -0.0341(3)
O3 O 0.37720(19) -0.06635(11) 0.3239(2)
loop_
_geom_bond_atom_site_label_1
_geom_bond_atom_site_label_2
_geom_bond_site_symmetry_1
_geom_bond_site_symmetry_2
C1 C2 1_555 1_555
C2 H1 1_555 1_555
H2 C2 1_555 1_555
C3 C2 1_555 1_555
H3 C3 1_555 1_555
C4 C3 1_555 1_555
H4 C4 1_555 1_555
H5 C4 1_555 1_555
C5 C4 1_555 1_555
C6 C1 1_555 1_555
C7 C6 1_555 1_555
H6 C7 1_555 1_555
C8 C9 1_555 1_555
C9 H7 1_555 1_555
C10 C9 1_555 1_555
H8 C10 1_555 1_555
C11 C10 1_555 1_555
H9 C11 1_555 1_555
C12 C11 1_555 1_555
H10 C12 1_555 1_555
C13 C8 1_555 1_555
C14 C3 1_555 1_555
C15 H11 1_555 1_555
C16 C15 1_555 1_555
H12 C16 1_555 1_555
C17 C14 1_555 1_555
H13 C17 1_555 1_555
C18 C7 1_555 1_555
C19 C18 1_555 1_555
H14 C19 1_555 1_555
C20 C19 1_555 1_555
H15 C20 1_555 1_555
C21 C20 1_555 1_555
C22 C21 1_555 1_555
H16 C22 1_555 1_555
C23 C18 1_555 1_555
H17 C23 1_555 1_555
C24 H18 1_555 1_555
H19 C24 1_555 1_555
H20 C24 1_555 1_555
N1 C5 1_555 1_555
H21 N1 1_555 1_555
N2 C7 1_555 1_555
H22 N2 1_555 1_555
O1 C1 1_555 1_555
O2 C14 1_555 1_555
O3 C21 1_555 1_555
C5 C6 1_555 1_555
C8 N1 1_555 1_555
C12 C13 1_555 1_555
C13 N2 1_555 1_555
C15 O2 1_555 1_555
C16 C17 1_555 1_555
C22 C23 1_555 1_555
C24 O3 1_555 1_555

#END
