
#######################################################################
#
#                 Cambridge Crystallographic Data Centre
#                                CCDC 
#
#######################################################################
#
# If this CIF has been generated from an entry in the Cambridge 
# Structural Database, then it will include bibliographic, chemical, 
# crystal, experimental, refinement or atomic coordinate data resulting 
# from the CCDC's data processing and validation procedures.
#
#######################################################################

data_ARELOY
_chemical_compound_source        'Verticillium hemipterigenum BCC 1449'
_chemical_name_common            (3S,6S)-bis(Dethio)di(methylthio)hyalodendrin
_chemical_formula_moiety         'C15 H20 N2 O3 S2'
_chemical_name_systematic        
(3S,6S)-6-Benzyl-3-hydroxymethyl-1-methyl-3,6-bis(methylsulfanyl)piperazine-2,5-dione
_chemical_properties_biological  'no antimalarial activity'
_symmetry_cell_setting           monoclinic
_symmetry_space_group_name_H-M   'P 21'
_symmetry_Int_Tables_number      4
_space_group_name_Hall           'P 2yb'
loop_
_symmetry_equiv_pos_site_id
_symmetry_equiv_pos_as_xyz
1 x,y,z
2 -x,1/2+y,-z
_cell_length_a                   10.9100(4)
_cell_length_b                   8.0070(3)
_cell_length_c                   19.0200(9)
_cell_angle_alpha                90
_cell_angle_beta                 94.81(1)
_cell_angle_gamma                90
_cell_volume                     1655.67
_exptl_crystal_colour            colorless
_exptl_crystal_description       prism
_chemical_melting_point          154-157deg.C
_cell_formula_units_Z            4
loop_
_atom_site_label
_atom_site_type_symbol
_atom_site_fract_x
_atom_site_fract_y
_atom_site_fract_z
S1 S -0.78329(8) -0.25164(13) -0.09966(5)
S2 S -0.54248(9) -0.31280(13) -0.29699(4)
O1 O -0.4672(2) -0.3446(3) 0.01924(11)
N1 N -0.5179(2) -0.4563(3) -0.16695(13)
O2 O -0.6325(2) -0.5702(3) -0.08598(12)
C1 C -0.5870(3) -0.4465(4) -0.11213(16)
C2 C -0.3328(3) -0.3225(5) -0.21230(16)
C3 C -0.6134(2) -0.2780(4) -0.08032(14)
O3 O -0.4623(3) -0.0173(3) -0.19755(14)
C4 C -0.4736(3) -0.3122(4) -0.20555(14)
C5 C -0.4968(3) -0.1446(4) -0.17102(16)
N2 N -0.5449(2) -0.1454(3) -0.10805(13)
C6 C -0.5886(3) -0.2887(4) -0.00008(14)
C7 C -0.5006(4) -0.6252(4) -0.1955(2)
C8 C -0.7023(3) -0.2982(5) -0.28561(18)
C9 C -0.2539(3) -0.3071(4) -0.14327(16)
C10 C -0.1049(4) -0.2830(6) -0.0178(2)
C11 C -0.2180(3) -0.1542(5) -0.1164(2)
C12 C -0.2144(3) -0.4490(5) -0.1064(2)
C13 C -0.1439(4) -0.1407(6) -0.0533(2)
C14 C -0.1393(4) -0.4370(6) -0.0441(2)
C15 C -0.7965(4) -0.0379(6) -0.1264(3)
H1 H -0.4277 -0.2693 0.0397
H2 H -0.3131 -0.4276 -0.2329
H3 H -0.3089 -0.2332 -0.2419
H4 H -0.5291 -0.0457 -0.0807
H5 H -0.5991 -0.1801 0.0199
H6 H -0.6451 -0.3656 0.0186
H7 H -0.4502 -0.6192 -0.2345
H8 H -0.5795 -0.6710 -0.2114
H9 H -0.4615 -0.6955 -0.1594
H10 H -0.7480 -0.2975 -0.3310
H11 H -0.7179 -0.1969 -0.2609
H12 H -0.7271 -0.3922 -0.2588
H13 H -0.0520 -0.2757 0.0251
H14 H -0.2444 -0.0547 -0.1414
H15 H -0.2400 -0.5575 -0.1234
H16 H -0.1206 -0.0334 -0.0340
H17 H -0.1113 -0.5354 -0.0188
H18 H -0.8810 -0.0087 -0.1382
H19 H -0.7508 -0.0212 -0.1669
H20 H -0.7629 0.0312 -0.0884
S3 S -0.05812(9) 0.24076(13) -0.20599(5)
S4 S 0.23819(8) 0.28172(11) -0.35990(5)
O4 O 0.0935(2) -0.0661(3) -0.39821(12)
O5 O -0.0173(2) 0.1609(3) -0.52062(11)
N3 N 0.0081(2) 0.3642(3) -0.39157(14)
N4 N -0.0306(2) 0.0619(3) -0.32654(14)
C16 C -0.0959(3) 0.2078(4) -0.30151(16)
C17 C 0.0475(3) 0.0633(4) -0.37734(16)
C18 C 0.0869(2) 0.2281(4) -0.40690(15)
O6 O -0.1276(2) 0.4955(3) -0.32840(16)
C19 C -0.0713(3) 0.3682(4) -0.34085(18)
C20 C -0.2900(3) 0.1305(4) -0.38113(19)
C21 C 0.0966(3) 0.2147(4) -0.48634(15)
C22 C -0.3896(4) 0.0379(8) -0.5153(2)
C23 C -0.3261(3) -0.0300(5) -0.3964(2)
C24 C -0.2376(3) 0.1792(5) -0.30887(18)
C25 C -0.0508(3) -0.1015(4) -0.2935(2)
C26 C -0.3764(4) -0.0760(6) -0.4623(2)
C27 C -0.3041(3) 0.2455(6) -0.4361(2)
C28 C 0.3450(4) 0.1221(5) -0.3812(3)
C29 C 0.0768(5) 0.3664(7) -0.2000(2)
C30 C -0.3530(4) 0.1957(7) -0.5030(2)
H21 H -0.0520 0.2403 -0.5410
H22 H 0.0092 0.4651 -0.4188
H23 H 0.1175 0.3221 -0.5044
H24 H 0.1593 0.1355 -0.4956
H25 H -0.4255 0.0019 -0.5605
H26 H -0.3163 -0.1145 -0.3605
H27 H -0.2583 0.0914 -0.2776
H28 H -0.2778 0.2805 -0.2968
H29 H -0.0960 -0.1729 -0.3269
H30 H -0.0966 -0.0860 -0.2530
H31 H 0.0272 -0.1517 -0.2790
H32 H -0.4008 -0.1904 -0.4694
H33 H -0.2780 0.3588 -0.4279
H34 H 0.4246 0.1452 -0.3579
H35 H 0.3502 0.1215 -0.4314
H36 H 0.3170 0.0151 -0.3664
H37 H 0.1014 0.3893 -0.1513
H38 H 0.0593 0.4695 -0.2246
H39 H 0.1419 0.3091 -0.2209
H40 H -0.3611 0.2772 -0.5401
loop_
_geom_bond_atom_site_label_1
_geom_bond_atom_site_label_2
_geom_bond_site_symmetry_1
_geom_bond_site_symmetry_2
S1 C3 1_555 1_555
S2 C4 1_555 1_555
O1 C6 1_555 1_555
N1 C1 1_555 1_555
O2 C1 1_555 1_555
C1 C3 1_555 1_555
C2 C4 1_555 1_555
C3 N2 1_555 1_555
O3 C5 1_555 1_555
C4 N1 1_555 1_555
C5 C4 1_555 1_555
N2 C5 1_555 1_555
C6 C3 1_555 1_555
C7 N1 1_555 1_555
C8 S2 1_555 1_555
C9 C2 1_555 1_555
C10 C13 1_555 1_555
C11 C9 1_555 1_555
C12 C9 1_555 1_555
C13 C11 1_555 1_555
C14 C10 1_555 1_555
C15 S1 1_555 1_555
H1 O1 1_555 1_555
H2 C2 1_555 1_555
H3 C2 1_555 1_555
H4 N2 1_555 1_555
H5 C6 1_555 1_555
H6 C6 1_555 1_555
H7 C7 1_555 1_555
H8 C7 1_555 1_555
H9 C7 1_555 1_555
H10 C8 1_555 1_555
H11 C8 1_555 1_555
H12 C8 1_555 1_555
H13 C10 1_555 1_555
H14 C11 1_555 1_555
H15 C12 1_555 1_555
H16 C13 1_555 1_555
H17 C14 1_555 1_555
H18 C15 1_555 1_555
H19 C15 1_555 1_555
H20 C15 1_555 1_555
S3 C16 1_555 1_555
S4 C18 1_555 1_555
O4 C17 1_555 1_555
O5 C21 1_555 1_555
N3 C18 1_555 1_555
N4 C16 1_555 1_555
C16 C19 1_555 1_555
C17 N4 1_555 1_555
C18 C17 1_555 1_555
O6 C19 1_555 1_555
C19 N3 1_555 1_555
C20 C23 1_555 1_555
C21 C18 1_555 1_555
C22 C26 1_555 1_555
C23 C26 1_555 1_555
C24 C16 1_555 1_555
C25 N4 1_555 1_555
C26 H32 1_555 1_555
C27 C20 1_555 1_555
C28 S4 1_555 1_555
C29 S3 1_555 1_555
C30 C22 1_555 1_555
H21 O5 1_555 1_555
H22 N3 1_555 1_555
H23 C21 1_555 1_555
H24 C21 1_555 1_555
H25 C22 1_555 1_555
H26 C23 1_555 1_555
H27 C24 1_555 1_555
H28 C24 1_555 1_555
H29 C25 1_555 1_555
H30 C25 1_555 1_555
H31 C25 1_555 1_555
H33 C27 1_555 1_555
H34 C28 1_555 1_555
H35 C28 1_555 1_555
H36 C28 1_555 1_555
H37 C29 1_555 1_555
H38 C29 1_555 1_555
H39 C29 1_555 1_555
H40 C30 1_555 1_555
C12 C14 1_555 1_555
C20 C24 1_555 1_555
C27 C30 1_555 1_555

#END
