
#######################################################################
#
#                 Cambridge Crystallographic Data Centre
#                                CCDC 
#
#######################################################################
#
# If this CIF has been generated from an entry in the Cambridge 
# Structural Database, then it will include bibliographic, chemical, 
# crystal, experimental, refinement or atomic coordinate data resulting 
# from the CCDC's data processing and validation procedures.
#
#######################################################################

data_AREPIY
_chemical_formula_moiety         'C17 H16 N2 O3 S1'
_chemical_name_systematic        
(Z)-3-(dimethylamino)-1-(4-nitrophenyl)-2-(phenylthio)prop-2-en-1-one
_symmetry_cell_setting           monoclinic
_symmetry_space_group_name_H-M   'P 21/c'
_symmetry_Int_Tables_number      14
_space_group_name_Hall           '-P 2ybc'
loop_
_symmetry_equiv_pos_site_id
_symmetry_equiv_pos_as_xyz
1 x,y,z
2 -x,1/2+y,1/2-z
3 -x,-y,-z
4 x,1/2-y,1/2+z
_cell_length_a                   8.1434(13)
_cell_length_b                   10.9011(17)
_cell_length_c                   18.392(3)
_cell_angle_alpha                90
_cell_angle_beta                 99.801(5)
_cell_angle_gamma                90
_cell_volume                     1608.87
_exptl_crystal_colour            yellow
_exptl_crystal_description       block
_chemical_melting_point          '419-420 K'
_cell_formula_units_Z            4
_exptl_crystal_recrystallization_method 'ethyl acetate'
loop_
_atom_site_label
_atom_site_type_symbol
_atom_site_fract_x
_atom_site_fract_y
_atom_site_fract_z
C1 C 0.3674(3) 0.4375(2) 0.41179(14)
H1 H 0.2846 0.3929 0.4345
H2 H 0.4782 0.4256 0.4414
H3 H 0.3666 0.4064 0.3617
C2 C 0.4549(3) 0.6490(2) 0.38685(15)
H4 H 0.4341 0.6595 0.3331
H5 H 0.5648 0.6118 0.4023
H6 H 0.4515 0.7292 0.4106
C3 C 0.1772(2) 0.60418(19) 0.41962(12)
H7 H 0.1161 0.5415 0.439
C4 C 0.0926(2) 0.71524(19) 0.40842(11)
C5 C -0.0704(2) 0.71658(19) 0.42898(12)
C6 C -0.1819(2) 0.82663(19) 0.40843(12)
C7 C -0.2187(3) 0.9008(2) 0.46469(12)
H8 H -0.1684 0.8847 0.5143
C8 C -0.3280(3) 0.9981(2) 0.44925(13)
H9 H -0.3524 1.0501 0.4875
C9 C -0.4004(3) 1.01748(19) 0.37680(13)
C10 C -0.3699(2) 0.9443(2) 0.31979(12)
H10 H -0.4241 0.9591 0.2706
C11 C -0.2578(2) 0.84815(19) 0.33585(12)
H11 H -0.233 0.797 0.2973
C12 C 0.1369(2) 0.81394(19) 0.27265(12)
C13 C 0.0808(3) 0.7015(2) 0.24234(13)
H12 H 0.0496 0.6387 0.2731
C14 C 0.0702(3) 0.6812(2) 0.16754(13)
H13 H 0.0318 0.6041 0.1473
C15 C 0.1147(3) 0.7711(2) 0.12166(13)
H14 H 0.1084 0.7559 0.0704
C16 C 0.1686(3) 0.8838(2) 0.15140(14)
H15 H 0.1981 0.9466 0.1202
C17 C 0.1798(3) 0.9057(2) 0.22637(14)
H16 H 0.2167 0.9833 0.2463
N1 N 0.3264(2) 0.56904(17) 0.40848(10)
N2 N -0.5167(2) 1.12147(18) 0.36032(13)
O1 O -0.12672(16) 0.63304(13) 0.46308(9)
O2 O -0.5650(2) 1.14911(16) 0.29550(11)
O3 O -0.5583(3) 1.17621(17) 0.41225(12)
S1 S 0.16216(6) 0.84821(5) 0.36845(3)
loop_
_geom_bond_atom_site_label_1
_geom_bond_atom_site_label_2
_geom_bond_site_symmetry_1
_geom_bond_site_symmetry_2
C1 H1 1_555 1_555
H2 C1 1_555 1_555
H3 C1 1_555 1_555
C2 H4 1_555 1_555
H5 C2 1_555 1_555
H6 C2 1_555 1_555
C3 H7 1_555 1_555
C4 C3 1_555 1_555
C5 C4 1_555 1_555
C6 C5 1_555 1_555
C7 C6 1_555 1_555
H8 C7 1_555 1_555
C8 C7 1_555 1_555
H9 C8 1_555 1_555
C9 C8 1_555 1_555
C10 C9 1_555 1_555
H10 C10 1_555 1_555
C11 C6 1_555 1_555
H11 C11 1_555 1_555
C12 C13 1_555 1_555
C13 H12 1_555 1_555
C14 C13 1_555 1_555
H13 C14 1_555 1_555
C15 C14 1_555 1_555
H14 C15 1_555 1_555
C16 C15 1_555 1_555
H15 C16 1_555 1_555
C17 C12 1_555 1_555
H16 C17 1_555 1_555
N1 C1 1_555 1_555
N2 C9 1_555 1_555
O1 C5 1_555 1_555
O2 N2 1_555 1_555
O3 N2 1_555 1_555
S1 C4 1_555 1_555
C2 N1 1_555 1_555
C3 N1 1_555 1_555
C10 C11 1_555 1_555
C12 S1 1_555 1_555
C16 C17 1_555 1_555

#END
