
#######################################################################
#
#                 Cambridge Crystallographic Data Centre
#                                CCDC 
#
#######################################################################
#
# If this CIF has been generated from an entry in the Cambridge 
# Structural Database, then it will include bibliographic, chemical, 
# crystal, experimental, refinement or atomic coordinate data resulting 
# from the CCDC's data processing and validation procedures.
#
#######################################################################

data_AREXAY
_chemical_name_common            
'[1]-(((2-((4-aminobutyl)amino)-2-oxoethyl)oxy)(n-butyloxy)octakis(methoxy)pillar[5]arene)pseudorotaxane hydrate'
_chemical_formula_moiety         'C53 H66 N2 O11,0.2(H2 O1)'
_chemical_name_systematic        
'N-(4-aminobutyl)-2-((34-butoxy-9,14,19,24,26,28,30,32-octamethoxyhexacyclo[21.2.2.2^3,6^.2^8,11^.2^13,16^.2^18,21^]pentatriaconta-1(25),3,5,8,10,13,15,18,20,23,26,28,30,32,34-pentadecaen-4-yl)oxy)acetamide hydrate'
_symmetry_cell_setting           monoclinic
_symmetry_space_group_name_H-M   'P 21/n'
_symmetry_Int_Tables_number      14
_space_group_name_Hall           '-P 2yn'
loop_
_symmetry_equiv_pos_site_id
_symmetry_equiv_pos_as_xyz
1 x,y,z
2 1/2-x,1/2+y,1/2-z
3 -x,-y,-z
4 1/2+x,1/2-y,1/2+z
_cell_length_a                   12.182(2)
_cell_length_b                   27.998(6)
_cell_length_c                   14.384(3)
_cell_angle_alpha                90
_cell_angle_beta                 103.486(7)
_cell_angle_gamma                90
_cell_volume                     4770.7
_exptl_crystal_colour            colorless
_exptl_crystal_description       block
_cell_formula_units_Z            4
loop_
_atom_site_label
_atom_site_type_symbol
_atom_site_fract_x
_atom_site_fract_y
_atom_site_fract_z
C1 C 0.4245(5) 0.0775(2) 0.6043(4)
C2 C 0.4996(4) 0.08782(19) 0.6889(4)
C3 C 0.5227(4) 0.13559(18) 0.7105(4)
H1 H 0.5728 0.1434 0.7678
C4 C 0.4745(4) 0.1718(2) 0.6503(4)
C5 C 0.3993(5) 0.1615(2) 0.5645(4)
C6 C 0.3748(4) 0.1141(2) 0.5431(4)
H2 H 0.3236 0.1064 0.4863
C7 C 0.3413(5) 0.2004(2) 0.4965(4)
H3 H 0.3910 0.2278 0.5013
H4 H 0.3267 0.1886 0.4313
C8 C 0.2307(5) 0.2158(2) 0.5189(4)
C9 C 0.1292(5) 0.1951(2) 0.4706(4)
C10 C 0.0316(5) 0.2092(2) 0.4960(4)
H5 H -0.0365 0.1956 0.4642
C11 C 0.0301(5) 0.2421(2) 0.5653(5)
C12 C 0.1310(6) 0.2622(2) 0.6121(5)
C13 C 0.2301(5) 0.24990(19) 0.5875(4)
H6 H 0.2972 0.2648 0.6175
C14 C -0.0782(5) 0.2550(2) 0.5941(5)
H7 H -0.0750 0.2882 0.6138
H8 H -0.1414 0.2514 0.5393
C15 C -0.0974(5) 0.2239(2) 0.6751(5)
C16 C -0.1649(5) 0.1832(2) 0.6585(5)
C17 C -0.1784(4) 0.1555(2) 0.7353(4)
H9 H -0.2253 0.1288 0.7233
C18 C -0.1253(4) 0.16590(19) 0.8282(4)
C19 C -0.0555(5) 0.2062(2) 0.8433(5)
C20 C -0.0460(5) 0.2347(2) 0.7674(5)
H10 H -0.0028 0.2624 0.7796
C21 C -0.1389(4) 0.13450(19) 0.9109(4)
H11 H -0.1425 0.1545 0.9652
H12 H -0.2093 0.1170 0.8926
C22 C -0.0427(5) 0.0997(2) 0.9398(4)
C23 C -0.0399(5) 0.0566(2) 0.8926(4)
C24 C 0.0528(4) 0.02640(19) 0.9154(4)
H13 H 0.0523 -0.0022 0.8824
C25 C 0.1462(5) 0.0385(2) 0.9872(4)
C26 C 0.1438(5) 0.0810(2) 1.0357(4)
C27 C 0.0503(5) 0.1113(2) 1.0137(4)
H14 H 0.0498 0.1393 1.0484
C28 C 0.2484(4) 0.0061(2) 1.0086(4)
H15 H 0.2237 -0.0268 1.0003
H16 H 0.2884 0.0104 1.0747
C29 C 0.3285(4) 0.01636(19) 0.9440(4)
C30 C 0.3178(5) -0.00658(19) 0.8579(4)
C31 C 0.3910(4) 0.00244(18) 0.8002(4)
H17 H 0.3840 -0.0145 0.7435
C32 C 0.4751(4) 0.03667(19) 0.8259(4)
C33 C 0.4858(4) 0.06089(18) 0.9104(4)
C34 C 0.4140(4) 0.05020(18) 0.9702(4)
H18 H 0.4233 0.0659 1.0285
C35 C 0.5508(4) 0.04881(19) 0.7579(4)
H19 H 0.6241 0.0591 0.7948
H20 H 0.5617 0.0205 0.7224
C36 C 0.3226(6) 0.0171(2) 0.4992(5)
H21 H 0.2515 0.0319 0.4994
H22 H 0.3134 -0.0170 0.4960
H23 H 0.3485 0.0280 0.4448
C37 C 0.5716(5) 0.2325(2) 0.7571(4)
H24 H 0.5434 0.2200 0.8092
H25 H 0.5774 0.2666 0.7624
H26 H 0.6448 0.2191 0.7592
C38 C 0.0338(6) 0.1371(3) 0.3609(5)
H27 H 0.0065 0.1203 0.4092
H28 H 0.0490 0.1146 0.3150
H29 H -0.0221 0.1595 0.3294
C39 C 0.2336(7) 0.3071(3) 0.7465(7)
H30 H 0.2700 0.2782 0.7739
H31 H 0.2202 0.3274 0.7965
H32 H 0.2813 0.3233 0.7122
C40 C -0.2724(6) 0.1300(2) 0.5428(4)
H33 H -0.2241 0.1037 0.5682
H34 H -0.2979 0.1265 0.4748
H35 H -0.3364 0.1304 0.5712
C41 C 0.0867(5) 0.2498(2) 0.9564(5)
H36 H 0.1443 0.2416 0.9237
H37 H 0.1191 0.2516 1.0239
H38 H 0.0548 0.2802 0.9339
C42 C -0.1373(5) 0.0054(2) 0.7647(4)
H39 H -0.2149 -0.0021 0.7333
H40 H -0.1077 -0.0212 0.8064
C43 C -0.0698(7) 0.0104(3) 0.6905(6)
C44 C 0.0332(8) 0.0634(4) 0.6067(7)
H41 H 0.0708 0.0344 0.5940
H42 H -0.0132 0.0755 0.5472
C45 C 0.1127(9) 0.0984(4) 0.6533(7)
H43 H 0.1768 0.0916 0.6261
H44 H 0.0803 0.1274 0.6214
C46 C 0.1678(8) 0.1164(4) 0.7457(7)
H45 H 0.1059 0.1213 0.7765
H46 H 0.2080 0.0887 0.7771
C47 C 0.2405(10) 0.1540(4) 0.7801(8)
H47 H 0.2040 0.1821 0.7473
H48 H 0.3065 0.1485 0.7547
C48 C 0.2390(5) 0.1336(2) 1.1577(4)
H49 H 0.1814 0.1324 1.1942
H50 H 0.2261 0.1614 1.1164
C49 C 0.3564(7) 0.1350(3) 1.2238(5)
H51 H 0.4111 0.1392 1.1850
H52 H 0.3613 0.1628 1.2648
C50 C 0.3887(7) 0.0927(3) 1.2843(5)
H53 H 0.3880 0.0650 1.2439
H54 H 0.3333 0.0876 1.3220
C51 C 0.5076(6) 0.0977(2) 1.3526(5)
H55 H 0.5628 0.1028 1.3156
H56 H 0.5254 0.0690 1.3896
H57 H 0.5079 0.1243 1.3946
C52 C 0.5810(5) 0.1218(2) 1.0166(4)
H58 H 0.5116 0.1383 1.0155
H59 H 0.6408 0.1446 1.0211
H60 H 0.5982 0.1007 1.0708
C53 C 0.2086(6) -0.0610(2) 0.7445(5)
H61 H 0.1994 -0.0365 0.6965
H62 H 0.1410 -0.0798 0.7347
H63 H 0.2710 -0.0811 0.7400
N1 N -0.0340(6) 0.0553(3) 0.6784(4)
H64 H -0.0502 0.0786 0.7117
N2 N 0.2832(8) 0.1686(3) 0.8745(6)
H65 H 0.2327 0.1856 0.8963
H66 H 0.3404 0.1874 0.8692
O1 O 0.4037(4) 0.02957(14) 0.5851(3)
O2 O 0.4964(3) 0.22006(13) 0.6690(3)
O3 O 0.1341(4) 0.16161(17) 0.4037(3)
O4 O 0.1289(4) 0.29558(15) 0.6826(4)
O5 O -0.2121(3) 0.17325(16) 0.5638(3)
O6 O -0.0004(3) 0.21400(13) 0.9380(3)
O7 O -0.1359(3) 0.04697(13) 0.8208(3)
O8 O -0.0518(5) -0.0245(2) 0.6422(4)
O9 O 0.2383(3) 0.09130(15) 1.1037(3)
O10 O 0.2298(3) -0.03982(14) 0.8354(3)
O11 O 0.5695(3) 0.09478(13) 0.9314(3)
O12 O 0.233(2) 0.2690(10) 0.8877(16)
loop_
_geom_bond_atom_site_label_1
_geom_bond_atom_site_label_2
_geom_bond_site_symmetry_1
_geom_bond_site_symmetry_2
C1 C2 1_555 1_555
C2 C3 1_555 1_555
C3 H1 1_555 1_555
C4 C3 1_555 1_555
C5 C4 1_555 1_555
C6 C1 1_555 1_555
H2 C6 1_555 1_555
C7 C5 1_555 1_555
H3 C7 1_555 1_555
H4 C7 1_555 1_555
C8 C7 1_555 1_555
C9 C8 1_555 1_555
C10 C9 1_555 1_555
H5 C10 1_555 1_555
C11 C10 1_555 1_555
C12 C11 1_555 1_555
C13 C8 1_555 1_555
H6 C13 1_555 1_555
C14 C11 1_555 1_555
H7 C14 1_555 1_555
H8 C14 1_555 1_555
C15 C14 1_555 1_555
C16 C15 1_555 1_555
C17 C16 1_555 1_555
H9 C17 1_555 1_555
C18 C17 1_555 1_555
C19 C18 1_555 1_555
C20 C15 1_555 1_555
H10 C20 1_555 1_555
C21 C18 1_555 1_555
H11 C21 1_555 1_555
H12 C21 1_555 1_555
C22 C21 1_555 1_555
C23 C22 1_555 1_555
C24 C23 1_555 1_555
H13 C24 1_555 1_555
C25 C24 1_555 1_555
C26 C25 1_555 1_555
C27 C22 1_555 1_555
H14 C27 1_555 1_555
C28 C25 1_555 1_555
H15 C28 1_555 1_555
H16 C28 1_555 1_555
C29 C28 1_555 1_555
C30 C29 1_555 1_555
C31 C30 1_555 1_555
H17 C31 1_555 1_555
C32 C31 1_555 1_555
C33 C32 1_555 1_555
C34 C29 1_555 1_555
H18 C34 1_555 1_555
C35 C2 1_555 1_555
H19 C35 1_555 1_555
H20 C35 1_555 1_555
C36 H21 1_555 1_555
H22 C36 1_555 1_555
H23 C36 1_555 1_555
C37 H24 1_555 1_555
H25 C37 1_555 1_555
H26 C37 1_555 1_555
C38 H27 1_555 1_555
H28 C38 1_555 1_555
H29 C38 1_555 1_555
C39 H30 1_555 1_555
H31 C39 1_555 1_555
H32 C39 1_555 1_555
C40 H33 1_555 1_555
H34 C40 1_555 1_555
H35 C40 1_555 1_555
C41 H36 1_555 1_555
H37 C41 1_555 1_555
H38 C41 1_555 1_555
C42 H39 1_555 1_555
H40 C42 1_555 1_555
C43 C42 1_555 1_555
C44 H41 1_555 1_555
H42 C44 1_555 1_555
C45 C44 1_555 1_555
H43 C45 1_555 1_555
H44 C45 1_555 1_555
C46 C45 1_555 1_555
H45 C46 1_555 1_555
H46 C46 1_555 1_555
C47 C46 1_555 1_555
H47 C47 1_555 1_555
H48 C47 1_555 1_555
C48 H49 1_555 1_555
H50 C48 1_555 1_555
C49 C48 1_555 1_555
H51 C49 1_555 1_555
H52 C49 1_555 1_555
C50 C49 1_555 1_555
H53 C50 1_555 1_555
H54 C50 1_555 1_555
C51 C50 1_555 1_555
H55 C51 1_555 1_555
H56 C51 1_555 1_555
H57 C51 1_555 1_555
C52 H58 1_555 1_555
H59 C52 1_555 1_555
H60 C52 1_555 1_555
C53 H61 1_555 1_555
H62 C53 1_555 1_555
H63 C53 1_555 1_555
N1 C43 1_555 1_555
H64 N1 1_555 1_555
N2 C47 1_555 1_555
H65 N2 1_555 1_555
H66 N2 1_555 1_555
O1 C1 1_555 1_555
O2 C4 1_555 1_555
O3 C9 1_555 1_555
O4 C12 1_555 1_555
O5 C16 1_555 1_555
O6 C19 1_555 1_555
O7 C23 1_555 1_555
O8 C43 1_555 1_555
O9 C26 1_555 1_555
O10 C30 1_555 1_555
O11 C33 1_555 1_555
C5 C6 1_555 1_555
C12 C13 1_555 1_555
C19 C20 1_555 1_555
C26 C27 1_555 1_555
C32 C35 1_555 1_555
C33 C34 1_555 1_555
C36 O1 1_555 1_555
C37 O2 1_555 1_555
C38 O3 1_555 1_555
C39 O4 1_555 1_555
C40 O5 1_555 1_555
C41 O6 1_555 1_555
C42 O7 1_555 1_555
C44 N1 1_555 1_555
C48 O9 1_555 1_555
C52 O11 1_555 1_555
C53 O10 1_555 1_555

#END
