
#######################################################################
#
#                 Cambridge Crystallographic Data Centre
#                                CCDC 
#
#######################################################################
#
# If this CIF has been generated from an entry in the Cambridge 
# Structural Database, then it will include bibliographic, chemical, 
# crystal, experimental, refinement or atomic coordinate data resulting 
# from the CCDC's data processing and validation procedures.
#
#######################################################################

data_AREXEC
_chemical_name_common            
'[1]-(((2-((6-aminohexyl)amino)-2-oxoethyl)oxy)(n-butyloxy)octakis(methoxy)pillar[5]arene)pseudorotaxane unknown solvate'
_chemical_formula_moiety         'C55 H70 N2 O11'
_chemical_name_systematic        
'N-(6-aminohexyl)-2-((34-butoxy-9,14,19,24,26,28,30,32-octamethoxyhexacyclo[21.2.2.2^3,6^.2^8,11^.2^13,16^.2^18,21^]pentatriaconta-1(25),3,5,8,10,13,15,18,20,23,26,28,30,32,34-pentadecaen-4-yl)oxy)acetamide unknown solvate'
_symmetry_cell_setting           orthorhombic
_symmetry_space_group_name_H-M   'P 21 21 21'
_symmetry_Int_Tables_number      19
_space_group_name_Hall           'P 2ac 2ab'
loop_
_symmetry_equiv_pos_site_id
_symmetry_equiv_pos_as_xyz
1 x,y,z
2 1/2-x,-y,1/2+z
3 -x,1/2+y,1/2-z
4 1/2+x,1/2-y,-z
_cell_length_a                   12.3202(7)
_cell_length_b                   20.3876(11)
_cell_length_c                   22.4509(13)
_cell_angle_alpha                90
_cell_angle_beta                 90
_cell_angle_gamma                90
_cell_volume                     5639.2
_exptl_crystal_colour            colorless
_exptl_crystal_description       block
_cell_formula_units_Z            4
loop_
_atom_site_label
_atom_site_type_symbol
_atom_site_fract_x
_atom_site_fract_y
_atom_site_fract_z
C1 C 1.0197(6) 0.3792(3) 0.5185(3)
H1 H 1.0181 0.3479 0.4865
H2 H 1.0712 0.4131 0.5095
H3 H 0.9490 0.3981 0.5233
C2 C 0.9790(5) 0.3036(3) 0.5945(3)
C3 C 0.8896(5) 0.2786(3) 0.5634(3)
H4 H 0.8774 0.2918 0.5243
C4 C 0.8189(4) 0.2344(3) 0.5900(3)
C5 C 0.8399(5) 0.2155(3) 0.6479(3)
C6 C 0.9292(4) 0.2383(3) 0.6783(3)
H5 H 0.9426 0.2240 0.7170
C7 C 0.9992(4) 0.2827(3) 0.6515(3)
C8 C 0.7903(7) 0.1457(4) 0.7308(4)
H6 H 0.8551 0.1197 0.7285
H7 H 0.7312 0.1190 0.7444
H8 H 0.8013 0.1813 0.7582
C9 C 1.0935(4) 0.3111(4) 0.6890(3)
H9 H 1.1163 0.2791 0.7184
H10 H 1.1548 0.3206 0.6633
C10 C 1.0570(4) 0.3737(3) 0.7201(3)
C11 C 1.0651(4) 0.4331(3) 0.6931(3)
H11 H 1.0965 0.4358 0.6555
C12 C 1.0271(5) 0.4902(3) 0.7205(3)
C13 C 0.9826(5) 0.4863(4) 0.7763(3)
C14 C 0.9782(5) 0.4260(4) 0.8042(3)
H12 H 0.9488 0.4235 0.8423
C15 C 1.0154(5) 0.3698(4) 0.7781(3)
C16 C 0.9858(9) 0.2990(5) 0.8621(4)
H13 H 1.0442 0.3136 0.8871
H14 H 0.9719 0.2534 0.8694
H15 H 0.9217 0.3240 0.8706
C17 C 1.0831(7) 0.5553(4) 0.6440(4)
H16 H 1.1523 0.5338 0.6468
H17 H 1.0937 0.6008 0.6346
H18 H 1.0406 0.5349 0.6133
C18 C 0.9363(5) 0.5441(4) 0.8077(4)
H19 H 0.9829 0.5817 0.8006
H20 H 0.9368 0.5355 0.8502
C19 C 0.8197(5) 0.5621(3) 0.7889(3)
C20 C 0.8001(5) 0.6016(3) 0.7437(3)
H21 H 0.8586 0.6205 0.7238
C21 C 0.6947(5) 0.6164(3) 0.7243(3)
C22 C 0.6067(5) 0.5875(3) 0.7547(3)
C23 C 0.6279(5) 0.5480(3) 0.8013(3)
H22 H 0.5702 0.5294 0.8220
C24 C 0.7317(5) 0.5343(3) 0.8190(3)
C25 C 0.6694(7) 0.4757(5) 0.9044(4)
H23 H 0.6163 0.5101 0.9047
H24 H 0.6967 0.4691 0.9440
H25 H 0.6366 0.4359 0.8903
C26 C 0.7588(7) 0.6911(4) 0.6487(4)
H26 H 0.7945 0.7199 0.6762
H27 H 0.7312 0.7160 0.6158
H28 H 0.8096 0.6591 0.6344
C27 C 0.4895(5) 0.6018(3) 0.7331(3)
H29 H 0.4416 0.6045 0.7673
H30 H 0.4881 0.6438 0.7129
C28 C 0.4493(4) 0.5506(3) 0.6923(3)
C29 C 0.4685(5) 0.5552(3) 0.6315(3)
H31 H 0.5020 0.5930 0.6174
C30 C 0.4411(5) 0.5072(3) 0.5902(3)
C31 C 0.3844(4) 0.4498(2) 0.6117(3)
C32 C 0.3616(4) 0.4472(3) 0.6726(3)
H32 H 0.3238 0.4111 0.6871
C33 C 0.3920(4) 0.4951(3) 0.7122(3)
C34 C 0.3573(4) 0.3947(2) 0.5702(3)
H33 H 0.3412 0.4125 0.5312
H34 H 0.2929 0.3724 0.5845
C35 C 0.4496(4) 0.3455(2) 0.5649(2)
C36 C 0.5243(5) 0.3500(3) 0.5205(2)
H35 H 0.5168 0.3827 0.4919
C37 C 0.6132(5) 0.3063(3) 0.5166(3)
C38 C 0.6238(4) 0.2577(2) 0.5584(3)
C39 C 0.5496(4) 0.2539(3) 0.6024(3)
H36 H 0.5571 0.2212 0.6310
C40 C 0.4629(4) 0.2967(2) 0.6067(2)
C41 C 0.3845(6) 0.2394(3) 0.6879(3)
H37 H 0.3664 0.2012 0.6650
H38 H 0.3313 0.2457 0.7186
H39 H 0.4548 0.2338 0.7056
C42 C 0.6704(8) 0.3478(4) 0.4240(4)
H40 H 0.6035 0.3351 0.4054
H41 H 0.7289 0.3428 0.3961
H42 H 0.6658 0.3928 0.4364
C43 C 0.7210(5) 0.2103(3) 0.5551(3)
H43 H 0.6990 0.1679 0.5706
H44 H 0.7415 0.2044 0.5137
C44 C 0.5265(8) 0.5582(4) 0.5094(4)
H45 H 0.5231 0.5568 0.4663
H46 H 0.4940 0.5992 0.5221
C45 C 0.6382(8) 0.5586(5) 0.5266(4)
C46 C 0.7789(8) 0.4961(5) 0.5750(4)
H47 H 0.8306 0.4870 0.5435
H48 H 0.7996 0.5372 0.5936
C47 C 0.7836(8) 0.4458(5) 0.6174(5)
H49 H 0.8505 0.4540 0.6389
H50 H 0.7966 0.4064 0.5942
C48 C 0.7032(8) 0.4242(5) 0.6656(5)
H51 H 0.6886 0.4639 0.6880
H52 H 0.6369 0.4149 0.6438
C49 C 0.7083(9) 0.3736(5) 0.7101(6)
H53 H 0.7698 0.3834 0.7356
H54 H 0.7247 0.3328 0.6898
C50 C 0.6165(8) 0.3615(4) 0.7484(3)
H55 H 0.6013 0.4027 0.7683
H56 H 0.5554 0.3532 0.7222
C51 C 0.6125(7) 0.3079(4) 0.7972(4)
H57 H 0.5567 0.3181 0.8262
H58 H 0.5962 0.2656 0.7796
C52 C 0.3192(6) 0.4388(4) 0.7937(2)
H59 H 0.3483 0.3984 0.7774
H60 H 0.2447 0.4428 0.7801
C53 C 0.3191(8) 0.4340(4) 0.8593(3)
H61 H 0.3914 0.4204 0.8713
H62 H 0.2701 0.3986 0.8700
C54 C 0.2896(11) 0.4913(4) 0.8957(3)
H63 H 0.2198 0.5089 0.8836
H64 H 0.3440 0.5255 0.8924
C55 C 0.2843(10) 0.4635(5) 0.9619(3)
H65 H 0.2391 0.4251 0.9628
H66 H 0.2545 0.4963 0.9879
H67 H 0.3560 0.4522 0.9750
N1 N 0.6776(5) 0.5026(4) 0.5507(3)
H68 H 0.6360 0.4687 0.5507
N2 N 0.7179(6) 0.3064(5) 0.8254(4)
H69 H 0.7693 0.2942 0.7999
H70 H 0.7178 0.2793 0.8565
O1 O 1.0498(4) 0.3480(2) 0.5706(2)
O2 O 0.7653(3) 0.1716(2) 0.6729(3)
O3 O 1.0305(4) 0.5502(2) 0.6966(2)
O4 O 1.0143(4) 0.3075(3) 0.8029(3)
O5 O 0.6691(4) 0.6579(2) 0.6787(3)
O6 O 0.7568(4) 0.4935(3) 0.8658(2)
O7 O 0.3778(3) 0.4903(2) 0.7716(2)
O8 O 0.7044(6) 0.6020(3) 0.5253(4)
O9 O 0.4637(4) 0.5071(2) 0.53156(19)
O10 O 0.6892(4) 0.3085(3) 0.4730(2)
O11 O 0.3859(3) 0.29417(18) 0.65062(18)
loop_
_geom_bond_atom_site_label_1
_geom_bond_atom_site_label_2
_geom_bond_site_symmetry_1
_geom_bond_site_symmetry_2
C1 H1 1_555 1_555
H2 C1 1_555 1_555
H3 C1 1_555 1_555
C2 C3 1_555 1_555
C3 H4 1_555 1_555
C4 C3 1_555 1_555
C5 C4 1_555 1_555
C6 C5 1_555 1_555
H5 C6 1_555 1_555
C7 C2 1_555 1_555
C8 H6 1_555 1_555
H7 C8 1_555 1_555
H8 C8 1_555 1_555
C9 C7 1_555 1_555
H9 C9 1_555 1_555
H10 C9 1_555 1_555
C10 C9 1_555 1_555
C11 C10 1_555 1_555
H11 C11 1_555 1_555
C12 C11 1_555 1_555
C13 C12 1_555 1_555
C14 C13 1_555 1_555
H12 C14 1_555 1_555
C15 C10 1_555 1_555
C16 H13 1_555 1_555
H14 C16 1_555 1_555
H15 C16 1_555 1_555
C17 H16 1_555 1_555
H17 C17 1_555 1_555
H18 C17 1_555 1_555
C18 C13 1_555 1_555
H19 C18 1_555 1_555
H20 C18 1_555 1_555
C19 C18 1_555 1_555
C20 C19 1_555 1_555
H21 C20 1_555 1_555
C21 C20 1_555 1_555
C22 C21 1_555 1_555
C23 C22 1_555 1_555
H22 C23 1_555 1_555
C24 C19 1_555 1_555
C25 H23 1_555 1_555
H24 C25 1_555 1_555
H25 C25 1_555 1_555
C26 H26 1_555 1_555
H27 C26 1_555 1_555
H28 C26 1_555 1_555
C27 C22 1_555 1_555
H29 C27 1_555 1_555
H30 C27 1_555 1_555
C28 C27 1_555 1_555
C29 C28 1_555 1_555
H31 C29 1_555 1_555
C30 C29 1_555 1_555
C31 C30 1_555 1_555
C32 C31 1_555 1_555
H32 C32 1_555 1_555
C33 C28 1_555 1_555
C34 C31 1_555 1_555
H33 C34 1_555 1_555
H34 C34 1_555 1_555
C35 C34 1_555 1_555
C36 C35 1_555 1_555
H35 C36 1_555 1_555
C37 C36 1_555 1_555
C38 C37 1_555 1_555
C39 C38 1_555 1_555
H36 C39 1_555 1_555
C40 C35 1_555 1_555
C41 H37 1_555 1_555
H38 C41 1_555 1_555
H39 C41 1_555 1_555
C42 H40 1_555 1_555
H41 C42 1_555 1_555
H42 C42 1_555 1_555
C43 C4 1_555 1_555
H43 C43 1_555 1_555
H44 C43 1_555 1_555
C44 H45 1_555 1_555
H46 C44 1_555 1_555
C45 C44 1_555 1_555
C46 H47 1_555 1_555
H48 C46 1_555 1_555
C47 C46 1_555 1_555
H49 C47 1_555 1_555
H50 C47 1_555 1_555
C48 C47 1_555 1_555
H51 C48 1_555 1_555
H52 C48 1_555 1_555
C49 C48 1_555 1_555
H53 C49 1_555 1_555
H54 C49 1_555 1_555
C50 C49 1_555 1_555
H55 C50 1_555 1_555
H56 C50 1_555 1_555
C51 C50 1_555 1_555
H57 C51 1_555 1_555
H58 C51 1_555 1_555
C52 H59 1_555 1_555
H60 C52 1_555 1_555
C53 C52 1_555 1_555
H61 C53 1_555 1_555
H62 C53 1_555 1_555
C54 C53 1_555 1_555
H63 C54 1_555 1_555
H64 C54 1_555 1_555
C55 C54 1_555 1_555
H65 C55 1_555 1_555
H66 C55 1_555 1_555
H67 C55 1_555 1_555
N1 C45 1_555 1_555
H68 N1 1_555 1_555
N2 C51 1_555 1_555
H69 N2 1_555 1_555
H70 N2 1_555 1_555
O1 C1 1_555 1_555
O2 C5 1_555 1_555
O3 C12 1_555 1_555
O4 C15 1_555 1_555
O5 C21 1_555 1_555
O6 C24 1_555 1_555
O7 C33 1_555 1_555
O8 C45 1_555 1_555
O9 C30 1_555 1_555
O10 C37 1_555 1_555
O11 C40 1_555 1_555
C2 O1 1_555 1_555
C6 C7 1_555 1_555
C8 O2 1_555 1_555
C14 C15 1_555 1_555
C16 O4 1_555 1_555
C17 O3 1_555 1_555
C23 C24 1_555 1_555
C25 O6 1_555 1_555
C26 O5 1_555 1_555
C32 C33 1_555 1_555
C38 C43 1_555 1_555
C39 C40 1_555 1_555
C41 O11 1_555 1_555
C42 O10 1_555 1_555
C44 O9 1_555 1_555
C46 N1 1_555 1_555
C52 O7 1_555 1_555

#END
