
#######################################################################
#
#                 Cambridge Crystallographic Data Centre
#                                CCDC 
#
#######################################################################
#
# If this CIF has been generated from an entry in the Cambridge 
# Structural Database, then it will include bibliographic, chemical, 
# crystal, experimental, refinement or atomic coordinate data resulting 
# from the CCDC's data processing and validation procedures.
#
#######################################################################

data_AREXUS
_chemical_formula_moiety         'C20 H20 B2 N4'
_chemical_name_systematic        
1,6-dimethyl-5,10-diphenyl-1H,6H-5,10-diimidazo[2,1-c:2',1'-f][1,4,2,5]diazadiborinine
_symmetry_cell_setting           monoclinic
_symmetry_space_group_name_H-M   'C 2/c'
_symmetry_Int_Tables_number      15
_space_group_name_Hall           '-C 2yn'
loop_
_symmetry_equiv_pos_site_id
_symmetry_equiv_pos_as_xyz
1 x,y,z
2 -x,y,1/2-z
3 1/2+x,1/2+y,z
4 1/2-x,1/2+y,1/2-z
5 -x,-y,-z
6 x,-y,1/2+z
7 1/2-x,1/2-y,-z
8 1/2+x,1/2-y,1/2+z
_cell_length_a                   28.875(4)
_cell_length_b                   8.4730(15)
_cell_length_c                   19.549(3)
_cell_angle_alpha                90
_cell_angle_beta                 132.202(4)
_cell_angle_gamma                90
_cell_volume                     3543.02
_exptl_crystal_colour            orange
_exptl_crystal_description       block
_cell_formula_units_Z            8
loop_
_atom_site_label
_atom_site_type_symbol
_atom_site_fract_x
_atom_site_fract_y
_atom_site_fract_z
B1 B 0.22562(8) 0.3409(2) 0.03736(13)
C1 C 0.29125(7) 0.3263(2) -0.00558(11)
C2 C 0.29047(8) 0.5631(2) 0.04808(12)
H1 H 0.282 0.6438 0.0721
C3 C 0.32601(8) 0.5785(2) 0.02690(12)
H2 H 0.3467 0.6721 0.0332
C4 C 0.35951(9) 0.4078(2) -0.03760(14)
H3 H 0.3843 0.5009 -0.0253
H4 H 0.3287 0.3868 -0.1041
H5 H 0.3872 0.3164 -0.0052
C5 C 0.19989(8) 0.4554(2) 0.06950(12)
C6 C 0.13620(8) 0.4977(2) 0.00830(12)
H6 H 0.1082 0.4498 -0.051
C7 C 0.11282(8) 0.6072(2) 0.03154(13)
H7 H 0.0697 0.6335 -0.0119
C8 C 0.15219(9) 0.6778(2) 0.11771(14)
H8 H 0.1363 0.7519 0.134
C9 C 0.21525(9) 0.6388(2) 0.17999(14)
H9 H 0.2427 0.6865 0.2394
C10 C 0.23840(8) 0.5302(2) 0.15592(13)
H10 H 0.2818 0.5059 0.1995
N1 N 0.26801(6) 0.40731(16) 0.02858(9)
N2 N 0.32742(7) 0.43632(17) -0.00526(10)
B1F B 0.27438(8) 0.1591(2) -0.03736(13)
C1F C 0.20875(7) 0.1737(2) 0.00558(11)
C2F C 0.20953(8) -0.0631(2) -0.04808(12)
H1F H 0.218 -0.1438 -0.0721
C3F C 0.17399(8) -0.0785(2) -0.02690(12)
H2F H 0.1533 -0.1721 -0.0332
C4F C 0.14049(9) 0.0922(2) 0.03760(14)
H3F H 0.1157 -0.0009 0.0253
H4F H 0.1713 0.1132 0.1041
H5F H 0.1128 0.1836 0.0052
C5F C 0.30011(8) 0.0446(2) -0.06950(12)
C6F C 0.36380(8) 0.0023(2) -0.00830(12)
H6F H 0.3918 0.0502 0.051
C7F C 0.38718(8) -0.1072(2) -0.03154(13)
H7F H 0.4303 -0.1335 0.0119
C8F C 0.34781(9) -0.1778(2) -0.11771(14)
H8F H 0.3637 -0.2519 -0.134
C9F C 0.28475(9) -0.1388(2) -0.17999(14)
H9F H 0.2573 -0.1865 -0.2394
C10F C 0.26160(8) -0.0302(2) -0.15592(13)
H10F H 0.2182 -0.0059 -0.1995
N1F N 0.23199(6) 0.09269(16) -0.02858(9)
N2F N 0.17258(7) 0.06368(17) 0.00526(10)
B2 B 0.53668(9) 0.3982(2) 0.58625(13)
C11 C 0.47492(7) 0.4295(2) 0.41468(11)
C12 C 0.51163(8) 0.1840(2) 0.47415(12)
H11 H 0.5325 0.0984 0.5164
C13 C 0.47892(8) 0.1763(2) 0.38288(12)
H12 H 0.4726 0.0841 0.3499
C14 C 0.41581(9) 0.3612(2) 0.24809(12)
H13 H 0.3988 0.2633 0.212
H14 H 0.4399 0.4168 0.2369
H15 H 0.3814 0.4285 0.2295
C15 C 0.57153(7) 0.27925(19) 0.66974(11)
C16 C 0.54973(8) 0.2516(2) 0.71513(11)
H16 H 0.5133 0.305 0.6943
C17 C 0.58004(8) 0.1487(2) 0.78940(12)
H17 H 0.5641 0.1326 0.8184
C18 C 0.63338(8) 0.0692(2) 0.82147(12)
H18 H 0.6545 0.0003 0.873
C19 C 0.65556(8) 0.0917(2) 0.77740(12)
H19 H 0.6918 0.0368 0.7984
C20 C 0.62505(8) 0.1938(2) 0.70299(12)
H20 H 0.6407 0.2067 0.6734
N3 N 0.50960(6) 0.33992(16) 0.49603(9)
N4 N 0.45616(7) 0.32400(17) 0.34547(10)
B2D B 0.46332(9) 0.6018(2) 0.41375(13)
C11D C 0.52508(7) 0.5705(2) 0.58532(11)
C12D C 0.48837(8) 0.8160(2) 0.52585(12)
H11D H 0.4675 0.9016 0.4836
C13D C 0.52108(8) 0.8237(2) 0.61712(12)
H12D H 0.5274 0.9159 0.6501
C14D C 0.58419(9) 0.6388(2) 0.75191(12)
H13D H 0.6012 0.7367 0.788
H14D H 0.5601 0.5832 0.7631
H15D H 0.6186 0.5715 0.7705
C15D C 0.42847(7) 0.72075(19) 0.33026(11)
C16D C 0.45027(8) 0.7484(2) 0.28487(11)
H16D H 0.4867 0.695 0.3057
C17D C 0.41996(8) 0.8513(2) 0.21060(12)
H17D H 0.4359 0.8674 0.1816
C18D C 0.36662(8) 0.9308(2) 0.17853(12)
H18D H 0.3455 0.9997 0.127
C19D C 0.34444(8) 0.9083(2) 0.22260(12)
H19D H 0.3082 0.9632 0.2016
C20D C 0.37495(8) 0.8062(2) 0.29701(12)
H20D H 0.3593 0.7933 0.3266
N3D N 0.49040(6) 0.66008(16) 0.50397(9)
N4D N 0.54384(7) 0.67600(17) 0.65453(10)
loop_
_geom_bond_atom_site_label_1
_geom_bond_atom_site_label_2
_geom_bond_site_symmetry_1
_geom_bond_site_symmetry_2
B1 C5 1_555 1_555
C1 N1 1_555 1_555
C2 H1 1_555 1_555
C3 C2 1_555 1_555
H2 C3 1_555 1_555
C4 H3 1_555 1_555
H4 C4 1_555 1_555
H5 C4 1_555 1_555
C5 C6 1_555 1_555
C6 H6 1_555 1_555
C7 C6 1_555 1_555
H7 C7 1_555 1_555
C8 C7 1_555 1_555
H8 C8 1_555 1_555
C9 C8 1_555 1_555
H9 C9 1_555 1_555
C10 C5 1_555 1_555
H10 C10 1_555 1_555
N1 B1 1_555 1_555
N2 C1 1_555 1_555
B2 C15 1_555 1_555
C11 N3 1_555 1_555
C12 H11 1_555 1_555
C13 C12 1_555 1_555
H12 C13 1_555 1_555
C14 H13 1_555 1_555
H14 C14 1_555 1_555
H15 C14 1_555 1_555
C15 C16 1_555 1_555
C16 H16 1_555 1_555
C17 C16 1_555 1_555
H17 C17 1_555 1_555
C18 C17 1_555 1_555
H18 C18 1_555 1_555
C19 C18 1_555 1_555
H19 C19 1_555 1_555
C20 C15 1_555 1_555
H20 C20 1_555 1_555
N3 B2 1_555 1_555
N4 C11 1_555 1_555
B1F C1 1_555 1_555
C1F B1 1_555 1_555
C2F H1F 1_555 1_555
C3F C2F 1_555 1_555
H2F C3F 1_555 1_555
C4F H3F 1_555 1_555
H4F C4F 1_555 1_555
H5F C4F 1_555 1_555
C5F B1F 1_555 1_555
C6F C5F 1_555 1_555
H6F C6F 1_555 1_555
C7F C6F 1_555 1_555
H7F C7F 1_555 1_555
C8F C7F 1_555 1_555
H8F C8F 1_555 1_555
C9F C8F 1_555 1_555
H9F C9F 1_555 1_555
C10F C5F 1_555 1_555
H10F C10F 1_555 1_555
N1F B1F 1_555 1_555
N2F C1F 1_555 1_555
B2D C11 1_555 1_555
C11D B2 1_555 1_555
C12D H11D 1_555 1_555
C13D C12D 1_555 1_555
H12D C13D 1_555 1_555
C14D H13D 1_555 1_555
H14D C14D 1_555 1_555
H15D C14D 1_555 1_555
C15D B2D 1_555 1_555
C16D C15D 1_555 1_555
H16D C16D 1_555 1_555
C17D C16D 1_555 1_555
H17D C17D 1_555 1_555
C18D C17D 1_555 1_555
H18D C18D 1_555 1_555
C19D C18D 1_555 1_555
H19D C19D 1_555 1_555
C20D C15D 1_555 1_555
H20D C20D 1_555 1_555
N3D B2D 1_555 1_555
N4D C11D 1_555 1_555
C2 N1 1_555 1_555
C3 N2 1_555 1_555
C4 N2 1_555 1_555
C9 C10 1_555 1_555
C12 N3 1_555 1_555
C13 N4 1_555 1_555
C14 N4 1_555 1_555
C19 C20 1_555 1_555
C1F N1F 1_555 1_555
C2F N1F 1_555 1_555
C3F N2F 1_555 1_555
C4F N2F 1_555 1_555
C9F C10F 1_555 1_555
C11D N3D 1_555 1_555
C12D N3D 1_555 1_555
C13D N4D 1_555 1_555
C14D N4D 1_555 1_555
C19D C20D 1_555 1_555

#END
