
#######################################################################
#
#                 Cambridge Crystallographic Data Centre
#                                CCDC 
#
#######################################################################
#
# If this CIF has been generated from an entry in the Cambridge 
# Structural Database, then it will include bibliographic, chemical, 
# crystal, experimental, refinement or atomic coordinate data resulting 
# from the CCDC's data processing and validation procedures.
#
#######################################################################

data_AREYUT
_chemical_formula_moiety         'C21 H20 B2 N4 O2'
_chemical_name_systematic        
5,11-dimethyl-1,7-diphenyl-13-oxa-2,5,8,11-tetraaza-1,7-diboratetracyclo[5.5.2.0^2,6^.0^8,12^]tetradeca-2(6),3,8(12),9-tetraen-14-one
_symmetry_cell_setting           orthorhombic
_symmetry_space_group_name_H-M   'P n a 21'
_symmetry_Int_Tables_number      33
_space_group_name_Hall           'P 2c -2n'
loop_
_symmetry_equiv_pos_site_id
_symmetry_equiv_pos_as_xyz
1 x,y,z
2 -x,-y,1/2+z
3 1/2+x,1/2-y,z
4 1/2-x,1/2+y,1/2+z
_cell_length_a                   15.071(5)
_cell_length_b                   8.378(3)
_cell_length_c                   14.966(5)
_cell_angle_alpha                90
_cell_angle_beta                 90
_cell_angle_gamma                90
_cell_volume                     1889.68
_exptl_crystal_colour            colorless
_exptl_crystal_description       plate
_cell_formula_units_Z            4
loop_
_atom_site_label
_atom_site_type_symbol
_atom_site_fract_x
_atom_site_fract_y
_atom_site_fract_z
B1 B 0.6516(9) 0.7413(14) 0.4110(8)
B2 B 0.6814(9) 0.7422(13) 0.5928(8)
C1 C 0.6375(7) 0.7532(12) 0.3066(7)
C2 C 0.5698(7) 0.8420(12) 0.2683(7)
H1 H 0.5294 0.8964 0.3063
C3 C 0.5587(8) 0.8546(13) 0.1762(7)
H2 H 0.5118 0.9172 0.1523
C4 C 0.6166(8) 0.7750(13) 0.1196(8)
H3 H 0.6103 0.7842 0.0566
C5 C 0.6831(8) 0.6825(13) 0.1554(9)
H4 H 0.723 0.628 0.1169
C6 C 0.6921(7) 0.6684(12) 0.2472(8)
H5 H 0.7365 0.5996 0.2706
C7 C 0.6255(6) 0.5810(10) 0.4647(7)
C8 C 0.5515(7) 0.3848(12) 0.3590(7)
H6 H 0.4873 0.4041 0.3592
H7 H 0.5628 0.2705 0.351
H8 H 0.5788 0.4444 0.3098
C9 C 0.5854(7) 0.3461(11) 0.5228(8)
H9 H 0.563 0.2405 0.528
C10 C 0.6185(7) 0.4355(12) 0.5872(7)
H10 H 0.6238 0.4046 0.648
C11 C 0.7695(7) 0.7657(10) 0.5300(7)
C12 C 0.9076(7) 0.8055(13) 0.6208(7)
H11 H 0.9433 0.9033 0.6209
H12 H 0.9468 0.7126 0.626
H13 H 0.8664 0.8073 0.6714
C13 C 0.8945(8) 0.8122(11) 0.4540(8)
H14 H 0.9553 0.8308 0.4411
C14 C 0.8287(8) 0.7973(13) 0.3943(9)
H15 H 0.834 0.8061 0.3313
C15 C 0.6918(7) 0.7401(11) 0.6988(7)
C16 C 0.6437(6) 0.8468(12) 0.7525(7)
H16 H 0.6035 0.9191 0.7251
C17 C 0.6534(7) 0.8492(13) 0.8442(8)
H17 H 0.6188 0.9201 0.8794
C18 C 0.7136(7) 0.7478(12) 0.8844(7)
H18 H 0.7221 0.7518 0.9472
C19 C 0.7615(7) 0.6406(13) 0.8336(7)
H19 H 0.8031 0.5711 0.8613
C20 C 0.7487(7) 0.6352(11) 0.7424(7)
H20 H 0.7796 0.5573 0.7084
C21 C 0.5997(14) 0.877(2) 0.4795(11)
O1 O 0.6193(10) 0.8713(15) 0.5685(6)
O2 O 0.5459(6) 0.9850(9) 0.4581(6)
N1 N 0.5900(5) 0.4383(9) 0.4452(6)
N2 N 0.6440(5) 0.5812(8) 0.5524(5)
N3 N 0.7519(6) 0.7668(8) 0.4414(6)
N4 N 0.8574(6) 0.7955(8) 0.5372(6)
C22? C 0.616(4) 0.876(5) 0.536(2)
O3? O 0.605(2) 0.866(4) 0.4463(17)
O4? O 0.5835(15) 0.993(3) 0.5717(14)
loop_
_geom_bond_atom_site_label_1
_geom_bond_atom_site_label_2
_geom_bond_site_symmetry_1
_geom_bond_site_symmetry_2
B1 C1 1_555 1_555
B2 C11 1_555 1_555
C1 C2 1_555 1_555
C2 H1 1_555 1_555
C3 C2 1_555 1_555
H2 C3 1_555 1_555
C4 C3 1_555 1_555
H3 C4 1_555 1_555
C5 C4 1_555 1_555
H4 C5 1_555 1_555
C6 C1 1_555 1_555
H5 C6 1_555 1_555
C7 B1 1_555 1_555
C8 H6 1_555 1_555
H7 C8 1_555 1_555
H8 C8 1_555 1_555
C9 H9 1_555 1_555
C10 C9 1_555 1_555
H10 C10 1_555 1_555
C11 N3 1_555 1_555
C12 H11 1_555 1_555
H12 C12 1_555 1_555
H13 C12 1_555 1_555
C13 H14 1_555 1_555
C14 C13 1_555 1_555
H15 C14 1_555 1_555
C15 B2 1_555 1_555
C16 C15 1_555 1_555
H16 C16 1_555 1_555
C17 C16 1_555 1_555
H17 C17 1_555 1_555
C18 C17 1_555 1_555
H18 C18 1_555 1_555
C19 C18 1_555 1_555
H19 C19 1_555 1_555
C20 C15 1_555 1_555
H20 C20 1_555 1_555
C21 B1 1_555 1_555
O1 B2 1_555 1_555
O2 C21 1_555 1_555
N1 C7 1_555 1_555
N2 B2 1_555 1_555
N3 B1 1_555 1_555
N4 C11 1_555 1_555
C5 C6 1_555 1_555
C7 N2 1_555 1_555
C8 N1 1_555 1_555
C9 N1 1_555 1_555
C10 N2 1_555 1_555
C12 N4 1_555 1_555
C13 N4 1_555 1_555
C14 N3 1_555 1_555
C19 C20 1_555 1_555
C21 O1 1_555 1_555

#END
