
#######################################################################
#
#                 Cambridge Crystallographic Data Centre
#                                CCDC 
#
#######################################################################
#
# If this CIF has been generated from an entry in the Cambridge 
# Structural Database, then it will include bibliographic, chemical, 
# crystal, experimental, refinement or atomic coordinate data resulting 
# from the CCDC's data processing and validation procedures.
#
#######################################################################

data_AREYED
_chemical_formula_moiety         'C26 H33 B3 N4 O2'
_chemical_name_systematic        
1,6-dimethyl-5,10-diphenyl-5-(4,4,5,5-tetramethyl-1,3,2-dioxaborolan-2-yl)-1,5,6,10-tetrahydro-4,9,5,10-diimidazo[2,1-c:2',1'-f][1,4,2,5]diazadiborinine
_symmetry_cell_setting           monoclinic
_symmetry_space_group_name_H-M   'C 2/c'
_symmetry_Int_Tables_number      15
_space_group_name_Hall           '-C 2yn'
loop_
_symmetry_equiv_pos_site_id
_symmetry_equiv_pos_as_xyz
1 x,y,z
2 -x,y,1/2-z
3 1/2+x,1/2+y,z
4 1/2-x,1/2+y,1/2-z
5 -x,-y,-z
6 x,-y,1/2+z
7 1/2-x,1/2-y,-z
8 1/2+x,1/2-y,1/2+z
_cell_length_a                   29.987(3)
_cell_length_b                   7.0147(7)
_cell_length_c                   25.999(3)
_cell_angle_alpha                90
_cell_angle_beta                 110.164(4)
_cell_angle_gamma                90
_cell_volume                     5133.7
_exptl_crystal_colour            colorless
_exptl_crystal_description       plate
_cell_formula_units_Z            8
loop_
_atom_site_label
_atom_site_type_symbol
_atom_site_fract_x
_atom_site_fract_y
_atom_site_fract_z
B1 B 0.23954(10) 0.5196(4) 0.59165(12)
B2 B 0.35396(10) 0.5426(4) 0.65467(12)
B3 B 0.39321(10) 0.4533(4) 0.62537(12)
C1 C 0.19469(9) 0.5965(3) 0.60633(10)
C2 C 0.14798(9) 0.5683(4) 0.57190(11)
H1 H 0.1419 0.4886 0.5407
C3 C 0.10986(10) 0.6535(4) 0.58197(13)
H2 H 0.0783 0.6306 0.558
C4 C 0.11787(10) 0.7713(4) 0.62683(12)
H3 H 0.0921 0.8335 0.6331
C5 C 0.16372(10) 0.7979(4) 0.66244(12)
H4 H 0.1695 0.8757 0.694
C6 C 0.20130(9) 0.7115(3) 0.65233(11)
H5 H 0.2326 0.7308 0.6774
C7 C 0.27427(8) 0.6930(3) 0.59014(10)
C8 C 0.21299(9) 0.9187(4) 0.53054(10)
H6 H 0.1954 0.8084 0.5104
H7 H 0.214 1.0183 0.5045
H8 H 0.1972 0.9681 0.5551
C9 C 0.30136(9) 0.9736(3) 0.57224(10)
H9 H 0.3023 1.0978 0.558
C10 C 0.33851(9) 0.8743(3) 0.60525(10)
H10 H 0.3706 0.9155 0.6186
C11 C 0.31801(8) 0.3821(3) 0.66111(10)
C12 C 0.37842(8) 0.1767(4) 0.72987(11)
H11 H 0.3885 0.0659 0.7137
H12 H 0.379 0.1446 0.7668
H13 H 0.4001 0.2835 0.732
C13 C 0.28970(9) 0.1320(3) 0.69289(11)
H14 H 0.2881 0.0202 0.7128
C14 C 0.25283(9) 0.2234(3) 0.65656(11)
H15 H 0.2203 0.188 0.6463
C15 C 0.38041(8) 0.6393(3) 0.71460(10)
C16 C 0.35474(9) 0.6800(3) 0.74962(10)
H16 H 0.3218 0.6503 0.7376
C17 C 0.37552(9) 0.7614(3) 0.80088(11)
H17 H 0.3569 0.7867 0.8232
C18 C 0.42350(9) 0.8061(3) 0.81959(11)
H18 H 0.4381 0.8618 0.8547
C19 C 0.44989(9) 0.7682(3) 0.78629(11)
H19 H 0.4828 0.7984 0.7987
C20 C 0.42874(9) 0.6867(3) 0.73515(11)
H20 H 0.4477 0.6621 0.7132
C21 C 0.44079(9) 0.4316(3) 0.57211(11)
C22 C 0.40719(9) 0.3965(4) 0.51395(11)
H21 H 0.3786 0.3315 0.515
H22 H 0.423 0.3168 0.4945
H23 H 0.3983 0.5187 0.4949
C23 C 0.48621(9) 0.5261(4) 0.57135(11)
H24 H 0.4782 0.6397 0.548
H25 H 0.504 0.4365 0.5569
H26 H 0.5057 0.5631 0.6087
C24 C 0.44824(9) 0.2539(3) 0.60956(11)
C25 C 0.44793(9) 0.0642(3) 0.58126(11)
H27 H 0.4534 -0.0393 0.608
H28 H 0.4731 0.0635 0.5652
H29 H 0.4171 0.046 0.5523
C26 C 0.49202(9) 0.2664(4) 0.66154(11)
H30 H 0.4927 0.391 0.6789
H31 H 0.5207 0.2509 0.6521
H32 H 0.4907 0.1654 0.687
N1 N 0.26157(7) 0.8608(3) 0.56286(8)
N2 N 0.32155(7) 0.7010(3) 0.61627(8)
N3 N 0.33017(7) 0.2308(3) 0.69574(8)
N4 N 0.27051(7) 0.3783(3) 0.63677(8)
O1 O 0.41637(6) 0.5620(2) 0.59767(7)
O2 O 0.40697(6) 0.2636(2) 0.62723(7)
H33 H 0.2271(8) 0.435(3) 0.5498(10)
loop_
_geom_bond_atom_site_label_1
_geom_bond_atom_site_label_2
_geom_bond_site_symmetry_1
_geom_bond_site_symmetry_2
B1 C1 1_555 1_555
B2 B3 1_555 1_555
B3 O1 1_555 1_555
C1 C2 1_555 1_555
C2 H1 1_555 1_555
C3 C2 1_555 1_555
H2 C3 1_555 1_555
C4 C3 1_555 1_555
H3 C4 1_555 1_555
C5 C4 1_555 1_555
H4 C5 1_555 1_555
C6 C1 1_555 1_555
H5 C6 1_555 1_555
C7 B1 1_555 1_555
C8 H6 1_555 1_555
H7 C8 1_555 1_555
H8 C8 1_555 1_555
C9 H9 1_555 1_555
C10 C9 1_555 1_555
H10 C10 1_555 1_555
C11 B2 1_555 1_555
C12 H11 1_555 1_555
H12 C12 1_555 1_555
H13 C12 1_555 1_555
C13 H14 1_555 1_555
C14 C13 1_555 1_555
H15 C14 1_555 1_555
C15 B2 1_555 1_555
C16 C15 1_555 1_555
H16 C16 1_555 1_555
C17 C16 1_555 1_555
H17 C17 1_555 1_555
C18 C17 1_555 1_555
H18 C18 1_555 1_555
C19 C18 1_555 1_555
H19 C19 1_555 1_555
C20 C15 1_555 1_555
H20 C20 1_555 1_555
C21 C22 1_555 1_555
C22 H21 1_555 1_555
H22 C22 1_555 1_555
H23 C22 1_555 1_555
C23 C21 1_555 1_555
H24 C23 1_555 1_555
H25 C23 1_555 1_555
H26 C23 1_555 1_555
C24 C21 1_555 1_555
C25 C24 1_555 1_555
H27 C25 1_555 1_555
H28 C25 1_555 1_555
H29 C25 1_555 1_555
C26 C24 1_555 1_555
H30 C26 1_555 1_555
H31 C26 1_555 1_555
H32 C26 1_555 1_555
N1 C7 1_555 1_555
N2 B2 1_555 1_555
N3 C11 1_555 1_555
N4 B1 1_555 1_555
O1 C21 1_555 1_555
O2 B3 1_555 1_555
H33 B1 1_555 1_555
C5 C6 1_555 1_555
C7 N2 1_555 1_555
C8 N1 1_555 1_555
C9 N1 1_555 1_555
C10 N2 1_555 1_555
C11 N4 1_555 1_555
C12 N3 1_555 1_555
C13 N3 1_555 1_555
C14 N4 1_555 1_555
C19 C20 1_555 1_555
C24 O2 1_555 1_555

#END
