
#######################################################################
#
#                 Cambridge Crystallographic Data Centre
#                                CCDC 
#
#######################################################################
#
# If this CIF has been generated from an entry in the Cambridge 
# Structural Database, then it will include bibliographic, chemical, 
# crystal, experimental, refinement or atomic coordinate data resulting 
# from the CCDC's data processing and validation procedures.
#
#######################################################################

data_AREYAZ
_chemical_formula_moiety         'C22 H23 B2 F3 N4 O3 S1'
_chemical_name_systematic        
1,5,6-trimethyl-5,10-diphenyl-10-(((trifluoromethyl)sulfonyl)oxy)-1,5,6,10-tetrahydro-4,9,5,10-diimidazo[2,1-c:2',1'-f][1,4,2,5]diazadiborinine
_symmetry_cell_setting           monoclinic
_symmetry_space_group_name_H-M   'P 21/c'
_symmetry_Int_Tables_number      14
_space_group_name_Hall           '-P 2ybc'
loop_
_symmetry_equiv_pos_site_id
_symmetry_equiv_pos_as_xyz
1 x,y,z
2 -x,1/2+y,1/2-z
3 -x,-y,-z
4 x,1/2-y,1/2+z
_cell_length_a                   7.2251(7)
_cell_length_b                   14.5333(12)
_cell_length_c                   22.5468(19)
_cell_angle_alpha                90
_cell_angle_beta                 91.921(5)
_cell_angle_gamma                90
_cell_volume                     2366.19
_exptl_crystal_colour            colorless
_exptl_crystal_description       plate
_cell_formula_units_Z            4
loop_
_atom_site_label
_atom_site_type_symbol
_atom_site_fract_x
_atom_site_fract_y
_atom_site_fract_z
B1 B 0.2548(8) 0.2923(4) 0.2207(2)
B2 B 0.2792(8) 0.3293(3) 0.3621(2)
C1 C 0.3384(8) 0.1947(4) 0.1981(2)
H1 H 0.3883 0.1599 0.2322
H2 H 0.4373 0.2065 0.1704
H3 H 0.2396 0.1591 0.178
C2 C 0.1592(6) 0.3568(3) 0.1689(2)
C3 C 0.1160(7) 0.3232(4) 0.1121(2)
H4 H 0.146 0.2614 0.1026
C4 C 0.0295(8) 0.3788(4) 0.0694(2)
H5 H 0.0017 0.3546 0.031
C5 C -0.0164(7) 0.4683(4) 0.0817(2)
H6 H -0.0764 0.5057 0.0524
C6 C 0.0255(7) 0.5025(3) 0.1368(2)
H7 H -0.0056 0.5643 0.146
C7 C 0.1137(7) 0.4475(3) 0.1797(2)
H8 H 0.1435 0.4731 0.2176
C8 C 0.4126(6) 0.3486(3) 0.2581(2)
C9 C 0.6147(8) 0.3882(4) 0.1734(2)
H9 H 0.7034 0.3384 0.1672
H10 H 0.6713 0.4472 0.1634
H11 H 0.5038 0.3782 0.148
C10 C 0.6672(7) 0.4295(3) 0.2811(2)
H12 H 0.7799 0.4624 0.2773
C11 C 0.5789(7) 0.4135(3) 0.3313(2)
H13 H 0.6176 0.4329 0.37
C12 C 0.1072(6) 0.2881(3) 0.3253(2)
C13 C -0.1013(7) 0.2605(4) 0.4101(2)
H14 H -0.0023 0.2324 0.4347
H15 H -0.2173 0.2271 0.4155
H16 H -0.1168 0.3249 0.4219
C14 C -0.1589(7) 0.2180(3) 0.3025(2)
H17 H -0.2775 0.1907 0.306
C15 C -0.0647(7) 0.2261(3) 0.2526(2)
H18 H -0.1044 0.2052 0.2143
C16 C 0.3693(6) 0.2566(3) 0.4081(2)
C17 C 0.4157(7) 0.1693(3) 0.3892(2)
H19 H 0.3891 0.1531 0.349
C18 C 0.4984(7) 0.1050(3) 0.4259(2)
H20 H 0.5289 0.046 0.411
C19 C 0.5372(7) 0.1267(4) 0.4850(2)
H21 H 0.5959 0.083 0.5108
C20 C 0.4903(8) 0.2111(4) 0.5054(2)
H22 H 0.5148 0.2261 0.5459
C21 C 0.4079(7) 0.2750(3) 0.4683(2)
H23 H 0.376 0.3334 0.4839
C22 C 0.2445(10) 0.5788(4) 0.4306(3)
F1 F 0.4249(5) 0.5796(2) 0.42081(17)
F2 F 0.2284(6) 0.5566(3) 0.48681(17)
F3 F 0.1819(6) 0.6631(3) 0.4234(2)
N1 N 0.5631(6) 0.3892(3) 0.23582(17)
N2 N 0.4212(5) 0.3634(2) 0.31666(16)
N3 N -0.0526(5) 0.2564(2) 0.34773(16)
N4 N 0.1008(5) 0.2703(2) 0.26659(15)
O1 O 0.2212(5) 0.4136(2) 0.40019(13)
O2 O 0.1613(7) 0.5281(3) 0.32359(17)
O3 O -0.0633(5) 0.5014(3) 0.4003(2)
S1 S 0.1234(2) 0.50040(9) 0.38162(6)
loop_
_geom_bond_atom_site_label_1
_geom_bond_atom_site_label_2
_geom_bond_site_symmetry_1
_geom_bond_site_symmetry_2
B1 C1 1_555 1_555
B2 C12 1_555 1_555
C1 H1 1_555 1_555
H2 C1 1_555 1_555
H3 C1 1_555 1_555
C2 B1 1_555 1_555
C3 C2 1_555 1_555
H4 C3 1_555 1_555
C4 C3 1_555 1_555
H5 C4 1_555 1_555
C5 C4 1_555 1_555
H6 C5 1_555 1_555
C6 C5 1_555 1_555
H7 C6 1_555 1_555
C7 C2 1_555 1_555
H8 C7 1_555 1_555
C8 B1 1_555 1_555
C9 H9 1_555 1_555
H10 C9 1_555 1_555
H11 C9 1_555 1_555
C10 H12 1_555 1_555
C11 C10 1_555 1_555
H13 C11 1_555 1_555
C12 N3 1_555 1_555
C13 H14 1_555 1_555
H15 C13 1_555 1_555
H16 C13 1_555 1_555
C14 H17 1_555 1_555
C15 C14 1_555 1_555
H18 C15 1_555 1_555
C16 B2 1_555 1_555
C17 C16 1_555 1_555
H19 C17 1_555 1_555
C18 C17 1_555 1_555
H20 C18 1_555 1_555
C19 C18 1_555 1_555
H21 C19 1_555 1_555
C20 C19 1_555 1_555
H22 C20 1_555 1_555
C21 C16 1_555 1_555
H23 C21 1_555 1_555
C22 F1 1_555 1_555
F2 C22 1_555 1_555
F3 C22 1_555 1_555
N1 C8 1_555 1_555
N2 B2 1_555 1_555
N3 C13 1_555 1_555
N4 B1 1_555 1_555
O1 B2 1_555 1_555
O2 S1 1_555 1_555
O3 S1 1_555 1_555
S1 C22 1_555 1_555
C6 C7 1_555 1_555
C8 N2 1_555 1_555
C9 N1 1_555 1_555
C10 N1 1_555 1_555
C11 N2 1_555 1_555
C12 N4 1_555 1_555
C14 N3 1_555 1_555
C15 N4 1_555 1_555
C20 C21 1_555 1_555
O1 S1 1_555 1_555

#END
