
#######################################################################
#
#                 Cambridge Crystallographic Data Centre
#                                CCDC 
#
#######################################################################
#
# If this CIF has been generated from an entry in the Cambridge 
# Structural Database, then it will include bibliographic, chemical, 
# crystal, experimental, refinement or atomic coordinate data resulting 
# from the CCDC's data processing and validation procedures.
#
#######################################################################

data_AREYON
_chemical_formula_moiety         'C32 H29 B2 F2 N4 P1,0.5(C6 H6)'
_chemical_name_systematic        
"5-(bis(4-fluorophenyl)phosphino)-1,6-dimethyl-5,10-diphenyl-1,5,6,10-tetrahydro-4,9,5,10-diimidazo[2,1-c:2',1'-f][1,4,2,5]diazadiborinine benzene solvate"
_symmetry_cell_setting           triclinic
_symmetry_space_group_name_H-M   'P -1'
_symmetry_Int_Tables_number      2
_space_group_name_Hall           '-P 1'
loop_
_symmetry_equiv_pos_site_id
_symmetry_equiv_pos_as_xyz
1 x,y,z
2 -x,-y,-z
_cell_length_a                   8.1150(8)
_cell_length_b                   13.1620(13)
_cell_length_c                   16.2320(16)
_cell_angle_alpha                106.603(3)
_cell_angle_beta                 102.639(3)
_cell_angle_gamma                104.799(3)
_cell_volume                     1524.6
_exptl_crystal_colour            colorless
_exptl_crystal_description       block
_cell_formula_units_Z            2
loop_
_atom_site_label
_atom_site_type_symbol
_atom_site_fract_x
_atom_site_fract_y
_atom_site_fract_z
B1 B 0.0103(3) 0.41655(17) 0.28680(14)
H1 H 0.036(2) 0.3550(16) 0.3206(13)
B2 B 0.2750(3) 0.67798(17) 0.38484(14)
C1 C -0.2880(3) 0.24833(16) 0.18440(14)
H2 H -0.272 0.217 0.2303
C2 C -0.4373(3) 0.19085(17) 0.10648(15)
H3 H -0.5212 0.1216 0.1001
C3 C -0.4629(3) 0.23474(17) 0.03870(14)
H4 H -0.5635 0.1954 -0.0146
C4 C -0.3416(2) 0.33596(17) 0.04899(13)
H5 H -0.3589 0.367 0.003
C5 C -0.1936(2) 0.39254(16) 0.12707(12)
H6 H -0.1114 0.4622 0.1332
C6 C -0.1615(2) 0.35054(15) 0.19680(12)
C7 C -0.1643(3) 0.49596(18) 0.39003(13)
H7 H -0.2587 0.4265 0.3725
C8 C -0.1452(3) 0.59438(18) 0.45225(14)
H8 H -0.223 0.6072 0.4871
C9 C 0.0790(3) 0.78902(17) 0.52124(14)
H9 H 0.1704 0.7947 0.5747
H10 H -0.0186 0.8101 0.5395
H11 H 0.1332 0.8399 0.4932
C10 C 0.0844(2) 0.62297(15) 0.39696(12)
C11 C 0.1933(2) 0.47450(14) 0.26992(11)
C12 C 0.1955(3) 0.30186(15) 0.15462(13)
H12 H 0.1018 0.2613 0.1742
H13 H 0.2901 0.268 0.1566
H14 H 0.1433 0.2969 0.0926
C13 C 0.4382(2) 0.49245(16) 0.22527(12)
H15 H 0.521 0.4754 0.195
C14 C 0.4594(2) 0.59219(16) 0.28697(12)
H16 H 0.5613 0.6587 0.3083
C15 C 0.4297(2) 0.72462(15) 0.48214(12)
C16 C 0.5223(2) 0.83850(16) 0.53678(13)
H17 H 0.4956 0.8948 0.516
C17 C 0.6513(3) 0.87170(16) 0.62002(13)
H18 H 0.7144 0.9496 0.654
C18 C 0.6885(3) 0.79169(16) 0.65372(13)
H19 H 0.777 0.8141 0.7106
C19 C 0.5944(2) 0.67814(16) 0.60300(13)
H20 H 0.6159 0.6224 0.6261
C20 C 0.4690(2) 0.64598(15) 0.51860(12)
H21 H 0.4079 0.5679 0.4845
C21 C 0.0823(2) 0.72669(15) 0.22709(12)
C22 C -0.0971(3) 0.71511(16) 0.22134(13)
H22 H -0.1248 0.7446 0.2752
C23 C -0.2352(3) 0.66207(18) 0.13958(14)
H23 H -0.3562 0.6534 0.1371
C24 C -0.1912(3) 0.62249(16) 0.06246(13)
C25 C -0.0183(3) 0.63073(15) 0.06331(13)
H24 H 0.0077 0.6025 0.0087
C26 C 0.1172(2) 0.68151(15) 0.14620(13)
H25 H 0.2367 0.6857 0.1481
C27 C 0.4548(2) 0.86262(15) 0.31046(12)
C28 C 0.4401(3) 0.90774(16) 0.24147(13)
H26 H 0.3242 0.8994 0.206
C29 C 0.5900(3) 0.96414(16) 0.22357(14)
H27 H 0.5773 0.9931 0.1761
C30 C 0.7576(3) 0.97704(16) 0.27620(14)
C31 C 0.7806(3) 0.93603(16) 0.34488(14)
H28 H 0.8976 0.9465 0.3805
C32 C 0.6292(3) 0.87872(15) 0.36140(13)
H29 H 0.6445 0.8496 0.4087
F1 F -0.32484(15) 0.57072(10) -0.01873(8)
F2 F 0.90459(16) 1.03295(11) 0.25951(9)
N1 N -0.02187(19) 0.51398(12) 0.35603(10)
N2 N 0.0077(2) 0.67309(13) 0.45618(11)
N3 N 0.30700(19) 0.58144(12) 0.31421(10)
N4 N 0.27198(19) 0.41992(12) 0.21479(10)
P1 P 0.25270(7) 0.80359(4) 0.33902(3)
C33 C 0.1061(3) 0.93514(18) 0.01422(16)
H30 H 0.179 0.8909 0.0239
C34 C 0.0006(3) 0.95778(19) 0.06932(16)
H31 H 0.0007 0.9289 0.1167
C35 C -0.1045(3) 1.02282(19) 0.05465(16)
H32 H -0.1763 1.0387 0.0924
C33A C -0.1061(3) 1.06486(18) -0.01422(16)
H30A H -0.179 1.1091 -0.0239
C34A C -0.0006(3) 1.04222(19) -0.06932(16)
H31A H -0.0007 1.0711 -0.1167
C35A C 0.1045(3) 0.97718(19) -0.05465(16)
H32A H 0.1763 0.9613 -0.0924
loop_
_geom_bond_atom_site_label_1
_geom_bond_atom_site_label_2
_geom_bond_site_symmetry_1
_geom_bond_site_symmetry_2
B1 H1 1_555 1_555
B2 C10 1_555 1_555
C1 H2 1_555 1_555
C2 C1 1_555 1_555
H3 C2 1_555 1_555
C3 C2 1_555 1_555
H4 C3 1_555 1_555
C4 C3 1_555 1_555
H5 C4 1_555 1_555
C5 C4 1_555 1_555
H6 C5 1_555 1_555
C6 B1 1_555 1_555
C7 H7 1_555 1_555
C8 C7 1_555 1_555
H8 C8 1_555 1_555
C9 H9 1_555 1_555
H10 C9 1_555 1_555
H11 C9 1_555 1_555
C10 N1 1_555 1_555
C11 B1 1_555 1_555
C12 H12 1_555 1_555
H13 C12 1_555 1_555
H14 C12 1_555 1_555
C13 H15 1_555 1_555
C14 C13 1_555 1_555
H16 C14 1_555 1_555
C15 B2 1_555 1_555
C16 C15 1_555 1_555
H17 C16 1_555 1_555
C17 C16 1_555 1_555
H18 C17 1_555 1_555
C18 C17 1_555 1_555
H19 C18 1_555 1_555
C19 C18 1_555 1_555
H20 C19 1_555 1_555
C20 C15 1_555 1_555
H21 C20 1_555 1_555
C21 C22 1_555 1_555
C22 H22 1_555 1_555
C23 C22 1_555 1_555
H23 C23 1_555 1_555
C24 C23 1_555 1_555
C25 C24 1_555 1_555
H24 C25 1_555 1_555
C26 C21 1_555 1_555
H25 C26 1_555 1_555
C27 C28 1_555 1_555
C28 H26 1_555 1_555
C29 C28 1_555 1_555
H27 C29 1_555 1_555
C30 C29 1_555 1_555
C31 C30 1_555 1_555
H28 C31 1_555 1_555
C32 C27 1_555 1_555
H29 C32 1_555 1_555
F1 C24 1_555 1_555
F2 C30 1_555 1_555
N1 B1 1_555 1_555
N2 C8 1_555 1_555
N3 B2 1_555 1_555
N4 C11 1_555 1_555
P1 B2 1_555 1_555
C33 H30 1_555 1_555
C34 C33 1_555 1_555
H31 C34 1_555 1_555
C35 C34 1_555 1_555
H32 C35 1_555 1_555
C33A C35 1_555 1_555
H30A C33A 1_555 1_555
C34A C33A 1_555 1_555
H31A C34A 1_555 1_555
C35A C33 1_555 1_555
H32A C35A 1_555 1_555
C1 C6 1_555 1_555
C5 C6 1_555 1_555
C7 N1 1_555 1_555
C9 N2 1_555 1_555
C10 N2 1_555 1_555
C11 N3 1_555 1_555
C12 N4 1_555 1_555
C13 N4 1_555 1_555
C14 N3 1_555 1_555
C19 C20 1_555 1_555
C21 P1 1_555 1_555
C25 C26 1_555 1_555
C27 P1 1_555 1_555
C31 C32 1_555 1_555
C34A C35A 1_555 1_555

#END
