
#######################################################################
#
#                 Cambridge Crystallographic Data Centre
#                                CCDC 
#
#######################################################################
#
# If this CIF has been generated from an entry in the Cambridge 
# Structural Database, then it will include bibliographic, chemical, 
# crystal, experimental, refinement or atomic coordinate data resulting 
# from the CCDC's data processing and validation procedures.
#
#######################################################################

data_AREZEE
_chemical_formula_moiety         'C35 H32 B2 N4'
_chemical_name_systematic        
5,11-dimethyl-14-methylene-1,7,13,13-tetraphenyl-2,5,8,11-tetraaza-1,7-diboratetracyclo[5.5.2.0^2,6^.0^8,12^]tetradeca-2(6),3,8(12),9-tetraene
_symmetry_cell_setting           monoclinic
_symmetry_space_group_name_H-M   'P 21'
_symmetry_Int_Tables_number      4
_space_group_name_Hall           'P 2yb'
loop_
_symmetry_equiv_pos_site_id
_symmetry_equiv_pos_as_xyz
1 x,y,z
2 -x,1/2+y,-z
_cell_length_a                   9.1900(10)
_cell_length_b                   30.098(3)
_cell_length_c                   10.4179(11)
_cell_angle_alpha                90
_cell_angle_beta                 102.688(3)
_cell_angle_gamma                90
_cell_volume                     2811.23
_exptl_crystal_colour            colorless
_exptl_crystal_description       block
_cell_formula_units_Z            4
loop_
_atom_site_label
_atom_site_type_symbol
_atom_site_fract_x
_atom_site_fract_y
_atom_site_fract_z
B1 B 0.5079(5) 0.39292(16) 0.4892(5)
B2 B 0.3421(5) 0.36191(17) 0.2461(5)
C1 C 0.6207(5) 0.40992(14) 0.6200(4)
C2 C 0.6025(5) 0.39880(14) 0.7454(4)
H1 H 0.513 0.3845 0.7541
C3 C 0.7120(6) 0.40801(15) 0.8592(5)
H2 H 0.6959 0.4001 0.9432
C4 C 0.8421(5) 0.42846(17) 0.8486(5)
H3 H 0.9162 0.435 0.9253
C5 C 0.8651(5) 0.43957(17) 0.7249(5)
H4 H 0.9551 0.4537 0.717
C6 C 0.7563(5) 0.42998(16) 0.6129(5)
H5 H 0.7744 0.4372 0.529
C7 C 0.5620(4) 0.34718(13) 0.4313(4)
C8 C 0.7857(4) 0.31688(16) 0.5947(4)
H6 H 0.8246 0.2867 0.6144
H7 H 0.7447 0.3278 0.6681
H8 H 0.8665 0.3365 0.5822
C9 C 0.6562(4) 0.28290(14) 0.3809(4)
H9 H 0.7168 0.2571 0.386
C10 C 0.5417(4) 0.29431(13) 0.2808(4)
H10 H 0.5069 0.2776 0.2027
C11 C 0.4109(4) 0.41237(14) 0.2523(4)
C12 C 0.3061(5) 0.44877(17) 0.0319(4)
H11 H 0.3599 0.4328 -0.0253
H12 H 0.291 0.4797 0.0028
H13 H 0.209 0.4346 0.0274
C13 C 0.4641(5) 0.48387(14) 0.2343(5)
H14 H 0.4679 0.5129 0.1991
C14 C 0.5272(5) 0.47098(15) 0.3579(5)
H15 H 0.5835 0.489 0.4258
C15 C 0.3296(4) 0.38666(14) 0.4864(4)
C16 C 0.2614(5) 0.40666(16) 0.5697(4)
H16 H 0.156 0.4051 0.5567
H17 H 0.3179 0.4226 0.6426
C17 C 0.2405(4) 0.36020(13) 0.3656(4)
C18 C 0.0875(4) 0.38171(14) 0.3173(4)
C19 C 0.0771(5) 0.42610(15) 0.2756(4)
H18 H 0.1663 0.4428 0.2837
C20 C -0.0573(4) 0.44648(15) 0.2232(4)
H19 H -0.059 0.4764 0.194
C21 C -0.1905(4) 0.42328(16) 0.2130(4)
H20 H -0.2835 0.4369 0.1758
C22 C -0.1846(4) 0.38008(15) 0.2579(4)
H21 H -0.2747 0.364 0.253
C23 C -0.0486(4) 0.35960(14) 0.3103(4)
H22 H -0.0479 0.33 0.3421
C24 C 0.2278(4) 0.31114(13) 0.4033(4)
C25 C 0.2867(4) 0.29542(15) 0.5298(4)
H23 H 0.3355 0.3156 0.5953
C26 C 0.2758(5) 0.25092(15) 0.5632(4)
H24 H 0.3181 0.2413 0.6503
C27 C 0.2036(4) 0.22028(14) 0.4700(4)
H25 H 0.194 0.19 0.4928
C28 C 0.1461(4) 0.23539(14) 0.3429(4)
H26 H 0.0967 0.2152 0.2776
C29 C 0.1602(4) 0.27973(14) 0.3106(4)
H27 H 0.1224 0.289 0.2224
C30 C 0.2751(4) 0.34580(14) 0.0970(4)
C31 C 0.1232(4) 0.34435(13) 0.0369(4)
H28 H 0.0519 0.3507 0.0881
C32 C 0.0731(4) 0.33385(14) -0.0963(4)
H29 H -0.0309 0.3336 -0.1339
C33 C 0.1730(5) 0.32386(15) -0.1739(4)
H30 H 0.1387 0.3162 -0.2639
C34 C 0.3245(5) 0.32534(15) -0.1173(4)
H31 H 0.3951 0.3188 -0.169
C35 C 0.3731(4) 0.33624(15) 0.0141(4)
H32 H 0.4774 0.3373 0.0501
N1 N 0.6679(4) 0.31621(12) 0.4745(3)
N2 N 0.4843(4) 0.33415(11) 0.3114(3)
N3 N 0.4941(4) 0.42637(11) 0.3670(3)
N4 N 0.3933(4) 0.44752(12) 0.1679(3)
B3 B 0.6063(5) 0.60693(16) 1.1023(5)
B4 B 0.4443(5) 0.63670(15) 0.8548(4)
C36 C 0.7187(5) 0.58996(14) 1.2331(4)
C37 C 0.8564(5) 0.57075(16) 1.2272(5)
H33 H 0.8779 0.5653 1.1435
C38 C 0.9627(6) 0.55936(17) 1.3400(5)
H34 H 1.0551 0.5468 1.332
C39 C 0.9343(6) 0.56625(18) 1.4627(5)
H35 H 1.0055 0.5579 1.5395
C40 C 0.8002(6) 0.58553(18) 1.4726(5)
H36 H 0.7797 0.5906 1.5569
C41 C 0.6955(5) 0.59746(16) 1.3600(4)
H37 H 0.6052 0.6111 1.3694
C42 C 0.6619(4) 0.65195(13) 1.0419(4)
C43 C 0.8853(5) 0.68247(16) 1.2045(4)
H38 H 0.8476 0.6676 1.2744
H39 H 0.9143 0.713 1.2314
H40 H 0.9721 0.6663 1.1886
C44 C 0.7586(5) 0.71573(14) 0.9891(4)
H41 H 0.8199 0.7413 0.9936
C45 C 0.6447(4) 0.70425(13) 0.8884(4)
H42 H 0.6111 0.7204 0.809
C46 C 0.5112(4) 0.58658(14) 0.8642(4)
C47 C 0.4157(5) 0.54948(16) 0.6426(4)
H43 H 0.3142 0.5608 0.6352
H44 H 0.4112 0.5186 0.6124
H45 H 0.4672 0.5676 0.5882
C48 C 0.5679(4) 0.51517(15) 0.8477(4)
H46 H 0.5741 0.4862 0.8129
C49 C 0.6266(4) 0.52858(14) 0.9722(4)
H47 H 0.6814 0.5106 1.0411
C50 C 0.4286(4) 0.61470(14) 1.0987(4)
C51 C 0.3559(5) 0.59791(14) 1.1847(4)
H48 H 0.2506 0.601 1.1702
H49 H 0.4092 0.5829 1.2608
C52 C 0.3397(4) 0.63941(13) 0.9738(4)
C53 C 0.3244(4) 0.68880(13) 1.0077(4)
C54 C 0.3839(4) 0.70612(14) 1.1328(4)
H50 H 0.4358 0.6869 1.1998
C55 C 0.3688(4) 0.75085(15) 1.1615(4)
H51 H 0.4104 0.7616 1.2475
C56 C 0.2950(4) 0.77964(15) 1.0679(4)
H52 H 0.2838 0.81 1.0887
C57 C 0.2365(5) 0.76373(14) 0.9414(4)
H53 H 0.1858 0.7834 0.8753
C58 C 0.2518(4) 0.71930(14) 0.9114(4)
H54 H 0.2126 0.7092 0.8243
C59 C 0.1882(4) 0.61653(14) 0.9279(4)
C60 C 0.0513(4) 0.63750(15) 0.9173(4)
H55 H 0.049 0.6676 0.9442
C61 C -0.0829(4) 0.61536(16) 0.8679(4)
H56 H -0.1749 0.6307 0.8587
C62 C -0.0823(5) 0.57113(16) 0.8325(4)
H57 H -0.1734 0.5562 0.7975
C63 C 0.0521(5) 0.54881(16) 0.8484(5)
H58 H 0.0531 0.5181 0.8275
C64 C 0.1857(4) 0.57119(15) 0.8949(4)
H59 H 0.2772 0.5555 0.9046
C65 C 0.3772(5) 0.65213(14) 0.7061(4)
C66 C 0.4739(4) 0.66248(14) 0.6228(4)
H60 H 0.5784 0.6617 0.658
C67 C 0.4234(4) 0.67372(15) 0.4918(4)
H61 H 0.4931 0.6813 0.4403
C68 C 0.2722(5) 0.67400(16) 0.4350(4)
H62 H 0.2373 0.6816 0.345
C69 C 0.1729(5) 0.66287(16) 0.5132(4)
H63 H 0.0688 0.6626 0.476
C70 C 0.2240(5) 0.65214(15) 0.6444(4)
H64 H 0.1534 0.6445 0.6951
N5 N 0.7687(4) 0.68323(12) 1.0840(3)
N6 N 0.5866(3) 0.66473(11) 0.9225(3)
N7 N 0.5928(4) 0.57283(11) 0.9815(3)
N8 N 0.4972(4) 0.55167(11) 0.7806(3)
loop_
_geom_bond_atom_site_label_1
_geom_bond_atom_site_label_2
_geom_bond_site_symmetry_1
_geom_bond_site_symmetry_2
B1 C1 1_555 1_555
B2 C11 1_555 1_555
C1 C2 1_555 1_555
C2 H1 1_555 1_555
C3 C2 1_555 1_555
H2 C3 1_555 1_555
C4 C3 1_555 1_555
H3 C4 1_555 1_555
C5 C4 1_555 1_555
H4 C5 1_555 1_555
C6 C1 1_555 1_555
H5 C6 1_555 1_555
C7 B1 1_555 1_555
C8 H6 1_555 1_555
H7 C8 1_555 1_555
H8 C8 1_555 1_555
C9 H9 1_555 1_555
C10 C9 1_555 1_555
H10 C10 1_555 1_555
C11 N3 1_555 1_555
C12 H11 1_555 1_555
H12 C12 1_555 1_555
H13 C12 1_555 1_555
C13 H14 1_555 1_555
C14 C13 1_555 1_555
H15 C14 1_555 1_555
C15 B1 1_555 1_555
C16 C15 1_555 1_555
H16 C16 1_555 1_555
H17 C16 1_555 1_555
C17 B2 1_555 1_555
C18 C17 1_555 1_555
C19 C18 1_555 1_555
H18 C19 1_555 1_555
C20 C19 1_555 1_555
H19 C20 1_555 1_555
C21 C20 1_555 1_555
H20 C21 1_555 1_555
C22 C21 1_555 1_555
H21 C22 1_555 1_555
C23 C18 1_555 1_555
H22 C23 1_555 1_555
C24 C17 1_555 1_555
C25 C24 1_555 1_555
H23 C25 1_555 1_555
C26 C25 1_555 1_555
H24 C26 1_555 1_555
C27 C26 1_555 1_555
H25 C27 1_555 1_555
C28 C27 1_555 1_555
H26 C28 1_555 1_555
C29 C24 1_555 1_555
H27 C29 1_555 1_555
C30 B2 1_555 1_555
C31 C30 1_555 1_555
H28 C31 1_555 1_555
C32 C31 1_555 1_555
H29 C32 1_555 1_555
C33 C32 1_555 1_555
H30 C33 1_555 1_555
C34 C33 1_555 1_555
H31 C34 1_555 1_555
C35 C30 1_555 1_555
H32 C35 1_555 1_555
N1 C7 1_555 1_555
N2 B2 1_555 1_555
N3 B1 1_555 1_555
N4 C11 1_555 1_555
B3 C36 1_555 1_555
B4 C46 1_555 1_555
C36 C37 1_555 1_555
C37 H33 1_555 1_555
C38 C37 1_555 1_555
H34 C38 1_555 1_555
C39 C38 1_555 1_555
H35 C39 1_555 1_555
C40 C39 1_555 1_555
H36 C40 1_555 1_555
C41 C36 1_555 1_555
H37 C41 1_555 1_555
C42 B3 1_555 1_555
C43 H38 1_555 1_555
H39 C43 1_555 1_555
H40 C43 1_555 1_555
C44 H41 1_555 1_555
C45 C44 1_555 1_555
H42 C45 1_555 1_555
C46 N7 1_555 1_555
C47 H43 1_555 1_555
H44 C47 1_555 1_555
H45 C47 1_555 1_555
C48 H46 1_555 1_555
C49 C48 1_555 1_555
H47 C49 1_555 1_555
C50 B3 1_555 1_555
C51 C50 1_555 1_555
H48 C51 1_555 1_555
H49 C51 1_555 1_555
C52 B4 1_555 1_555
C53 C52 1_555 1_555
C54 C53 1_555 1_555
H50 C54 1_555 1_555
C55 C54 1_555 1_555
H51 C55 1_555 1_555
C56 C55 1_555 1_555
H52 C56 1_555 1_555
C57 C56 1_555 1_555
H53 C57 1_555 1_555
C58 C53 1_555 1_555
H54 C58 1_555 1_555
C59 C52 1_555 1_555
C60 C59 1_555 1_555
H55 C60 1_555 1_555
C61 C60 1_555 1_555
H56 C61 1_555 1_555
C62 C61 1_555 1_555
H57 C62 1_555 1_555
C63 C62 1_555 1_555
H58 C63 1_555 1_555
C64 C59 1_555 1_555
H59 C64 1_555 1_555
C65 B4 1_555 1_555
C66 C65 1_555 1_555
H60 C66 1_555 1_555
C67 C66 1_555 1_555
H61 C67 1_555 1_555
C68 C67 1_555 1_555
H62 C68 1_555 1_555
C69 C68 1_555 1_555
H63 C69 1_555 1_555
C70 C65 1_555 1_555
H64 C70 1_555 1_555
N5 C42 1_555 1_555
N6 B4 1_555 1_555
N7 B3 1_555 1_555
N8 C46 1_555 1_555
C5 C6 1_555 1_555
C7 N2 1_555 1_555
C8 N1 1_555 1_555
C9 N1 1_555 1_555
C10 N2 1_555 1_555
C12 N4 1_555 1_555
C13 N4 1_555 1_555
C14 N3 1_555 1_555
C15 C17 1_555 1_555
C22 C23 1_555 1_555
C28 C29 1_555 1_555
C34 C35 1_555 1_555
C40 C41 1_555 1_555
C42 N6 1_555 1_555
C43 N5 1_555 1_555
C44 N5 1_555 1_555
C45 N6 1_555 1_555
C47 N8 1_555 1_555
C48 N8 1_555 1_555
C49 N7 1_555 1_555
C50 C52 1_555 1_555
C57 C58 1_555 1_555
C63 C64 1_555 1_555
C69 C70 1_555 1_555

#END
