
#######################################################################
#
#                 Cambridge Crystallographic Data Centre
#                                CCDC 
#
#######################################################################
#
# If this CIF has been generated from an entry in the Cambridge 
# Structural Database, then it will include bibliographic, chemical, 
# crystal, experimental, refinement or atomic coordinate data resulting 
# from the CCDC's data processing and validation procedures.
#
#######################################################################

data_ARIBUA
_chemical_formula_moiety         'C25 H24 O1'
_chemical_name_systematic        1,3-diphenyl-2-(1-phenylethyl)pent-4-en-1-one
_symmetry_cell_setting           triclinic
_symmetry_space_group_name_H-M   'P -1'
_symmetry_Int_Tables_number      2
_space_group_name_Hall           '-P 1'
loop_
_symmetry_equiv_pos_site_id
_symmetry_equiv_pos_as_xyz
1 x,y,z
2 -x,-y,-z
_cell_length_a                   8.0107(13)
_cell_length_b                   11.3987(18)
_cell_length_c                   21.671(3)
_cell_angle_alpha                90.066(4)
_cell_angle_beta                 97.728(4)
_cell_angle_gamma                91.878(4)
_cell_volume                     1959.76
_exptl_crystal_colour            colorless
_exptl_crystal_description       prismatic
_cell_formula_units_Z            4
loop_
_atom_site_label
_atom_site_type_symbol
_atom_site_fract_x
_atom_site_fract_y
_atom_site_fract_z
O1 O 0.1286(5) 1.0606(3) 0.25558(14)
C1 C 0.1198(5) 0.8022(4) 0.15742(19)
H1 H 0.1779 0.7503 0.1848
C2 C 0.0595(6) 0.7666(4) 0.0980(2)
H2 H 0.0772 0.6906 0.0853
C3 C -0.0262(6) 0.8415(5) 0.0573(2)
H3 H -0.0639 0.8174 0.0166
C4 C -0.0564(6) 0.9515(5) 0.0763(2)
H4 H -0.1171 1.0017 0.0486
C5 C 0.0018(5) 0.9903(4) 0.1365(2)
H5 H -0.0213 1.0653 0.1493
C6 C 0.0942(5) 0.9160(3) 0.17692(17)
C7 C 0.1707(6) 0.9650(4) 0.23889(18)
C8 C 0.3102(5) 0.9011(4) 0.27892(16)
H6 H 0.2988 0.8179 0.2671
C9 C 0.4848(6) 0.9472(4) 0.26444(19)
H7 H 0.5680 0.9021 0.2911
C10 C 0.5086(5) 0.9168(4) 0.19771(18)
C11 C 0.5672(6) 0.8082(4) 0.1827(3)
H8 H 0.5993 0.7550 0.2142
C12 C 0.5784(7) 0.7786(4) 0.1224(3)
H9 H 0.6221 0.7068 0.1137
C13 C 0.5268(7) 0.8521(5) 0.0751(2)
H10 H 0.5303 0.8290 0.0342
C14 C 0.4693(6) 0.9606(4) 0.0876(2)
H11 H 0.4342 1.0118 0.0553
C15 C 0.4644(5) 0.9927(4) 0.14935(19)
H12 H 0.4305 1.0674 0.1582
C16 C 0.5250(9) 1.0758(4) 0.2820(2)
H13 H 0.6420 1.0936 0.2798
H14 H 0.5013 1.0895 0.3236
H15 H 0.4569 1.1250 0.2536
C17 C 0.2872(6) 0.9098(4) 0.34887(18)
H16 H 0.2891 0.9927 0.3566
C18 C 0.4298(6) 0.8513(4) 0.38980(18)
C19 C 0.5377(7) 0.9173(4) 0.4320(2)
H17 H 0.5230 0.9975 0.4351
C20 C 0.6670(7) 0.8664(6) 0.4698(2)
H18 H 0.7388 0.9123 0.4980
C21 C 0.6901(8) 0.7493(6) 0.4659(2)
H19 H 0.7772 0.7147 0.4915
C22 C 0.5830(8) 0.6819(5) 0.4235(3)
H20 H 0.5981 0.6016 0.4206
C23 C 0.4562(7) 0.7321(4) 0.3861(2)
H21 H 0.3856 0.6859 0.3576
C24 C 0.125(2) 0.864(2) 0.3658(12)
H22 H 0.1283 0.8536 0.4085
C25 C -0.0144(19) 0.8368(15) 0.3359(7)
H23 H -0.0313 0.8440 0.2928
H24 H -0.1019 0.8091 0.3568
O2 O 0.2287(4) 0.5704(3) 0.25743(13)
C28 C 0.3326(5) 0.5011(4) 0.1473(2)
H29 H 0.3591 0.5772 0.1618
C29 C 0.3782(6) 0.4673(4) 0.0913(2)
H30 H 0.4351 0.5201 0.0681
C30 C 0.3398(6) 0.3563(5) 0.0698(2)
H31 H 0.3678 0.3341 0.0313
C31 C 0.2599(5) 0.2765(4) 0.1043(2)
H32 H 0.2367 0.2001 0.0897
C32 C 0.2145(5) 0.3104(3) 0.16057(18)
H33 H 0.1607 0.2564 0.1840
C33 C 0.2482(5) 0.4246(3) 0.18279(17)
C34 C 0.1879(5) 0.4688(4) 0.23973(18)
C35 C 0.0725(5) 0.3957(3) 0.27603(16)
H34 H 0.0870 0.3131 0.2661
C36 C 0.1239(6) 0.4115(4) 0.34623(17)
H35 H 0.1227 0.4958 0.3549
C37 C 0.0044(6) 0.3520(4) 0.38549(18)
C38 C -0.0245(7) 0.2328(4) 0.3823(2)
H36 H 0.0263 0.1894 0.3541
C39 C -0.1262(8) 0.1756(5) 0.4196(3)
H37 H -0.1405 0.0944 0.4171
C40 C -0.2069(8) 0.2378(6) 0.4604(3)
H38 H -0.2775 0.1997 0.4852
C41 C -0.1811(8) 0.3566(6) 0.4638(2)
H39 H -0.2342 0.4001 0.4913
C42 C -0.0766(7) 0.4128(4) 0.4265(2)
H40 H -0.0609 0.4940 0.4294
C43 C 0.3116(8) 0.3728(5) 0.3649(2)
H41 H 0.3759 0.3910 0.3316
H42 H 0.3123 0.2898 0.3725
H43 H 0.3606 0.4141 0.4019
C44 C -0.1173(6) 0.4245(4) 0.25253(18)
H44 H -0.1881 0.3719 0.2746
C45 C -0.1603(5) 0.3979(4) 0.18418(18)
C46 C -0.1396(5) 0.4800(4) 0.13866(19)
H45 H -0.1046 0.5563 0.1505
C47 C -0.1695(6) 0.4519(4) 0.0761(2)
H46 H -0.1535 0.5083 0.0463
C48 C -0.2222(6) 0.3416(5) 0.0586(2)
H47 H -0.2407 0.3221 0.0165
C49 C -0.2484(6) 0.2592(4) 0.1013(2)
H48 H -0.2866 0.1840 0.0885
C50 C -0.2181(5) 0.2874(4) 0.1645(2)
H49 H -0.2372 0.2306 0.1937
C51 C -0.1554(9) 0.5481(6) 0.2691(3)
C52 C -0.242(2) 0.5890(16) 0.3078(7)
H50 H -0.3572 0.5719 0.3039
H51 H -0.1908 0.6364 0.3404
H52 H -0.120(9) 0.619(4) 0.249(3)
H25? H 0.2853 0.9900 0.3620
C26? C 0.126(2) 0.842(2) 0.3537(12)
H26? H 0.1094 0.7656 0.3378
C27? C 0.015(2) 0.8882(16) 0.3792(7)
H27? H 0.0326 0.9642 0.3950
H28? H -0.0856 0.8472 0.3826
C53? C -0.3060(19) 0.5435(16) 0.2777(8)
H53? H -0.3396 0.5832 0.3112
H54? H -0.3849 0.5003 0.2507
loop_
_geom_bond_atom_site_label_1
_geom_bond_atom_site_label_2
_geom_bond_site_symmetry_1
_geom_bond_site_symmetry_2
O1 C7 1_555 1_555
C1 H1 1_555 1_555
C2 C1 1_555 1_555
H2 C2 1_555 1_555
C3 C2 1_555 1_555
H3 C3 1_555 1_555
C4 C3 1_555 1_555
H4 C4 1_555 1_555
C5 C4 1_555 1_555
H5 C5 1_555 1_555
C6 C1 1_555 1_555
C7 C6 1_555 1_555
C8 C7 1_555 1_555
H6 C8 1_555 1_555
C9 C8 1_555 1_555
H7 C9 1_555 1_555
C10 C9 1_555 1_555
C11 C10 1_555 1_555
H8 C11 1_555 1_555
C12 C11 1_555 1_555
H9 C12 1_555 1_555
C13 C12 1_555 1_555
H10 C13 1_555 1_555
C14 C13 1_555 1_555
H11 C14 1_555 1_555
C15 C10 1_555 1_555
H12 C15 1_555 1_555
C16 C9 1_555 1_555
H13 C16 1_555 1_555
H14 C16 1_555 1_555
H15 C16 1_555 1_555
C17 C8 1_555 1_555
H16 C17 1_555 1_555
C18 C17 1_555 1_555
C19 C18 1_555 1_555
H17 C19 1_555 1_555
C20 C19 1_555 1_555
H18 C20 1_555 1_555
C21 C20 1_555 1_555
H19 C21 1_555 1_555
C22 C21 1_555 1_555
H20 C22 1_555 1_555
C23 C18 1_555 1_555
H21 C23 1_555 1_555
C24 C17 1_555 1_555
H22 C24 1_555 1_555
C25 C24 1_555 1_555
H23 C25 1_555 1_555
H24 C25 1_555 1_555
O2 C34 1_555 1_555
C28 H29 1_555 1_555
C29 C28 1_555 1_555
H30 C29 1_555 1_555
C30 C29 1_555 1_555
H31 C30 1_555 1_555
C31 C30 1_555 1_555
H32 C31 1_555 1_555
C32 C31 1_555 1_555
H33 C32 1_555 1_555
C33 C28 1_555 1_555
C34 C33 1_555 1_555
C35 C34 1_555 1_555
H34 C35 1_555 1_555
C36 C35 1_555 1_555
H35 C36 1_555 1_555
C37 C36 1_555 1_555
C38 C37 1_555 1_555
H36 C38 1_555 1_555
C39 C38 1_555 1_555
H37 C39 1_555 1_555
C40 C39 1_555 1_555
H38 C40 1_555 1_555
C41 C40 1_555 1_555
H39 C41 1_555 1_555
C42 C37 1_555 1_555
H40 C42 1_555 1_555
C43 C36 1_555 1_555
H41 C43 1_555 1_555
H42 C43 1_555 1_555
H43 C43 1_555 1_555
C44 C35 1_555 1_555
H44 C44 1_555 1_555
C45 C44 1_555 1_555
C46 C45 1_555 1_555
H45 C46 1_555 1_555
C47 C46 1_555 1_555
H46 C47 1_555 1_555
C48 C47 1_555 1_555
H47 C48 1_555 1_555
C49 C48 1_555 1_555
H48 C49 1_555 1_555
C50 C45 1_555 1_555
H49 C50 1_555 1_555
C51 C44 1_555 1_555
C52 C51 1_555 1_555
H50 C52 1_555 1_555
H51 C52 1_555 1_555
H52 C51 1_555 1_555
C5 C6 1_555 1_555
C14 C15 1_555 1_555
C22 C23 1_555 1_555
C32 C33 1_555 1_555
C41 C42 1_555 1_555
C49 C50 1_555 1_555

#END
