
#######################################################################
#
#                 Cambridge Crystallographic Data Centre
#                                CCDC 
#
#######################################################################
#
# If this CIF has been generated from an entry in the Cambridge 
# Structural Database, then it will include bibliographic, chemical, 
# crystal, experimental, refinement or atomic coordinate data resulting 
# from the CCDC's data processing and validation procedures.
#
#######################################################################

data_ARIBOU
_chemical_formula_moiety         'C21 H24 O1'
_chemical_name_systematic        
2-isopropyl-3-(2-methylphenyl)-1-phenylpent-4-en-1-one
_symmetry_cell_setting           orthorhombic
_symmetry_space_group_name_H-M   'P b c a'
_symmetry_Int_Tables_number      61
_space_group_name_Hall           '-P 2ac 2ab'
loop_
_symmetry_equiv_pos_site_id
_symmetry_equiv_pos_as_xyz
1 x,y,z
2 1/2-x,-y,1/2+z
3 -x,1/2+y,1/2-z
4 1/2+x,1/2-y,-z
5 -x,-y,-z
6 1/2+x,y,1/2-z
7 x,1/2-y,1/2+z
8 1/2-x,1/2+y,z
_cell_length_a                   7.3682(5)
_cell_length_b                   11.4357(8)
_cell_length_c                   41.662(3)
_cell_angle_alpha                90
_cell_angle_beta                 90
_cell_angle_gamma                90
_cell_volume                     3510.46
_exptl_crystal_colour            colorless
_exptl_crystal_description       prismatic
_cell_formula_units_Z            8
loop_
_atom_site_label
_atom_site_type_symbol
_atom_site_fract_x
_atom_site_fract_y
_atom_site_fract_z
O1 O 0.7910(3) 0.05089(17) 0.10388(5)
C1 C 0.8640(4) 0.3206(3) 0.06114(7)
H1 H 0.8099 0.3740 0.0750
C2 C 0.9522(4) 0.3603(3) 0.03411(8)
H2 H 0.9590 0.4401 0.0300
C3 C 1.0304(5) 0.2820(4) 0.01317(8)
H3 H 1.0896 0.3087 -0.0051
C4 C 1.0205(5) 0.1653(4) 0.01943(8)
H4 H 1.0730 0.1121 0.0053
C5 C 0.9334(4) 0.1260(3) 0.04643(7)
H5 H 0.9271 0.0460 0.0503
C6 C 0.8549(3) 0.2022(2) 0.06793(6)
C7 C 0.7667(3) 0.1545(2) 0.09734(7)
C8 C 0.6493(4) 0.2286(2) 0.11922(6)
H6 H 0.6785 0.3108 0.1150
C9 C 0.6978(4) 0.2029(3) 0.15414(7)
H7 H 0.6803 0.1184 0.1565
C10 C 0.5723(3) 0.2572(2) 0.17880(7)
C11 C 0.5226(4) 0.3737(3) 0.17645(8)
H8 H 0.5649 0.4181 0.1593
C12 C 0.4110(4) 0.4253(3) 0.19917(10)
H9 H 0.3783 0.5036 0.1972
C13 C 0.3497(5) 0.3605(4) 0.22432(10)
H10 H 0.2739 0.3944 0.2395
C14 C 0.3987(5) 0.2465(4) 0.22730(8)
H11 H 0.3562 0.2037 0.2447
C15 C 0.5103(4) 0.1925(3) 0.20507(7)
C16 C 0.5628(5) 0.0673(3) 0.21016(9)
H12 H 0.5192 0.0415 0.2307
H13 H 0.6926 0.0603 0.2095
H14 H 0.5103 0.0199 0.1936
C17 C 0.4456(4) 0.2101(3) 0.11108(7)
H15 H 0.3778 0.2579 0.1265
C18 C 0.3986(5) 0.2577(4) 0.07835(10)
H16 H 0.4532 0.2096 0.0621
H17 H 0.4434 0.3363 0.0764
H18 H 0.2692 0.2576 0.0757
C19 C 0.3787(5) 0.0870(3) 0.11556(10)
H19 H 0.2501 0.0844 0.1119
H20 H 0.4043 0.0617 0.1371
H21 H 0.4388 0.0363 0.1006
C20 C 0.8920(9) 0.2235(6) 0.1633(2)
H22 H 0.9234 0.1845 0.1821
C21 C 1.0143(12) 0.2768(8) 0.1526(2)
H23 H 0.9993 0.3195 0.1338
H24 H 1.1261 0.2763 0.1630
H25? H 0.692(11) 0.126(7) 0.1549(19)
C22? C 0.8758(17) 0.2760(12) 0.1576(3)
H26? H 0.8937 0.3401 0.1442
C23? C 0.993(2) 0.2513(12) 0.1775(4)
H27? H 0.9767 0.1875 0.1911
H28? H 1.0975 0.2964 0.1791
loop_
_geom_bond_atom_site_label_1
_geom_bond_atom_site_label_2
_geom_bond_site_symmetry_1
_geom_bond_site_symmetry_2
O1 C7 1_555 1_555
C1 H1 1_555 1_555
C2 C1 1_555 1_555
H2 C2 1_555 1_555
C3 C2 1_555 1_555
H3 C3 1_555 1_555
C4 C3 1_555 1_555
H4 C4 1_555 1_555
C5 C4 1_555 1_555
H5 C5 1_555 1_555
C6 C1 1_555 1_555
C7 C6 1_555 1_555
C8 C7 1_555 1_555
H6 C8 1_555 1_555
C9 C8 1_555 1_555
H7 C9 1_555 1_555
C10 C9 1_555 1_555
C11 C10 1_555 1_555
H8 C11 1_555 1_555
C12 C11 1_555 1_555
H9 C12 1_555 1_555
C13 C12 1_555 1_555
H10 C13 1_555 1_555
C14 C13 1_555 1_555
H11 C14 1_555 1_555
C15 C10 1_555 1_555
C16 C15 1_555 1_555
H12 C16 1_555 1_555
H13 C16 1_555 1_555
H14 C16 1_555 1_555
C17 C8 1_555 1_555
H15 C17 1_555 1_555
C18 C17 1_555 1_555
H16 C18 1_555 1_555
H17 C18 1_555 1_555
H18 C18 1_555 1_555
C19 C17 1_555 1_555
H19 C19 1_555 1_555
H20 C19 1_555 1_555
H21 C19 1_555 1_555
C20 C9 1_555 1_555
H22 C20 1_555 1_555
C21 C20 1_555 1_555
H23 C21 1_555 1_555
H24 C21 1_555 1_555
C5 C6 1_555 1_555
C14 C15 1_555 1_555

#END
