
#######################################################################
#
#                 Cambridge Crystallographic Data Centre
#                                CCDC 
#
#######################################################################
#
# If this CIF has been generated from an entry in the Cambridge 
# Structural Database, then it will include bibliographic, chemical, 
# crystal, experimental, refinement or atomic coordinate data resulting 
# from the CCDC's data processing and validation procedures.
#
#######################################################################

data_ARIDOW
_chemical_compound_source        
'Isolated from cultures of a fungicolous isolate of Penicillium lanosum (MYC-1813 = NRRL 66231) and also encountered in cultures of P. corylophilum (MYC-418 = NRRL 28126).'
_chemical_name_common            'haenamindole methanol solvate hemihydrate'
_chemical_formula_moiety         'C29 H28 N4 O5,0.5(H2 O1),2.35(C1 H4 O1)'
_chemical_name_systematic        
'3-benzyl-1-hydroxy-6-((10-hydroxy-4-oxo-2-phenyl-1,2,3,4,10,10a-hexahydropyrimido[1,2-a]indol-10-yl)methyl)piperazine-2,5-dione methanol solvate hemihydrate'
_symmetry_cell_setting           monoclinic
_symmetry_space_group_name_H-M   'C 2'
_symmetry_Int_Tables_number      5
_space_group_name_Hall           'C 2y'
loop_
_symmetry_equiv_pos_site_id
_symmetry_equiv_pos_as_xyz
1 x,y,z
2 -x,y,-z
3 1/2+x,1/2+y,z
4 1/2-x,1/2+y,-z
_cell_length_a                   28.749(3)
_cell_length_b                   13.8962(14)
_cell_length_c                   15.0911(15)
_cell_angle_alpha                90
_cell_angle_beta                 110.989(5)
_cell_angle_gamma                90
_cell_volume                     5628.9
_exptl_crystal_colour            colorless
_exptl_crystal_description       'thin plate'
_cell_formula_units_Z            8
loop_
_atom_site_label
_atom_site_type_symbol
_atom_site_fract_x
_atom_site_fract_y
_atom_site_fract_z
N5 N 0.2159(3) 0.0473(5) 0.3038(4)
C30 C 0.2213(3) 0.1113(6) 0.3876(4)
H29 H 0.2365 0.1735 0.3785
C31 C 0.2599(3) 0.0573(6) 0.4724(5)
O6 O 0.23709(18) 0.0101(3) 0.5306(3)
H30 H 0.2412 0.0434 0.5793
C32 C 0.2795(3) -0.0193(5) 0.4238(5)
C33 C 0.3173(4) -0.0845(6) 0.4651(7)
H31 H 0.3349 -0.0842 0.5317
C34 C 0.3293(4) -0.1512(7) 0.4065(10)
H32 H 0.3553 -0.1962 0.4338
C35 C 0.3037(5) -0.1520(8) 0.3105(10)
H33 H 0.3127 -0.1971 0.2722
C36 C 0.2651(4) -0.0885(7) 0.2682(6)
H34 H 0.2469 -0.0895 0.2018
C37 C 0.2539(4) -0.0224(6) 0.3283(6)
C38 C 0.1750(4) 0.0505(6) 0.2247(7)
O7 O 0.1709(3) 0.0021(4) 0.1526(4)
C39 C 0.1326(4) 0.1081(6) 0.2268(5)
H35 H 0.1054 0.0633 0.2248
H36 H 0.1205 0.1472 0.1681
C40 C 0.1416(3) 0.1773(5) 0.3129(5)
H37 H 0.1581 0.2369 0.3013
N6 N 0.1751(3) 0.1323(5) 0.3998(4)
H38 H 0.162(3) 0.075(3) 0.408(5)
C41 C 0.3003(3) 0.1268(5) 0.5298(5)
H39 H 0.3168 0.1536 0.4879
H40 H 0.3257 0.0905 0.5810
C42 C 0.2818(3) 0.2106(5) 0.5746(4)
H41 H 0.2458 0.2215 0.5366
C43 C 0.2866(3) 0.1844(6) 0.6745(5)
O8 O 0.2597(2) 0.1190(4) 0.6854(3)
N7 N 0.3187(3) 0.2298(5) 0.7483(4)
H42 H 0.3183 0.2154 0.8048
C44 C 0.3548(3) 0.3025(6) 0.7433(5)
H43 H 0.3528 0.3569 0.7852
C45 C 0.3447(3) 0.3451(6) 0.6452(5)
O9 O 0.3669(2) 0.4158(4) 0.6344(4)
N8 N 0.3091(2) 0.3003(4) 0.5744(4)
O10 O 0.2995(2) 0.3309(4) 0.4806(3)
H44 H 0.2941 0.3904 0.4767
C46 C 0.0941(3) 0.2058(6) 0.3244(6)
C47 C 0.0567(5) 0.2467(6) 0.2460(7)
H45 H 0.0618 0.2558 0.1878
C48 C 0.0130(5) 0.2730(8) 0.2546(10)
H46 H -0.0115 0.3012 0.2006
C49 C 0.0014(4) 0.2623(9) 0.3343(11)
H47 H -0.0293 0.2838 0.3376
C50 C 0.0391(5) 0.2158(11) 0.4129(9)
H48 H 0.0332 0.2006 0.4694
C51 C 0.0845(4) 0.1939(8) 0.4037(8)
H49 H 0.1103 0.1687 0.4576
C52 C 0.4086(3) 0.2643(6) 0.7834(6)
H50 H 0.4315 0.3177 0.7839
H51 H 0.4161 0.2444 0.8501
C53 C 0.4191(3) 0.1824(6) 0.7309(7)
C54 C 0.4114(3) 0.0876(8) 0.7545(8)
H52 H 0.3996 0.0734 0.8043
C55 C 0.4223(5) 0.0140(9) 0.6996(14)
H53 H 0.4197 -0.0506 0.7179
C56 C 0.4358(5) 0.0269(15) 0.6251(13)
H54 H 0.4407 -0.0255 0.5889
C57 C 0.4425(4) 0.1220(13) 0.6035(9)
H55 H 0.4530 0.1350 0.5517
C58 C 0.4345(3) 0.1968(8) 0.6540(7)
H56 H 0.4395 0.2606 0.6367
O11 O 0.5000 -0.1475(7) 1.0000
N1 N 0.1607(3) 0.2103(5) 1.0246(4)
C1 C 0.1963(3) 0.1531(6) 1.0004(5)
H1 H 0.1997 0.0900 1.0341
C2 C 0.2462(3) 0.2068(6) 1.0437(5)
O1 O 0.2555(2) 0.2643(5) 0.9733(4)
H2 H 0.283(2) 0.244(8) 0.970(7)
C3 C 0.2356(4) 0.2737(6) 1.1126(5)
C4 C 0.2681(4) 0.3341(7) 1.1808(7)
H3 H 0.3029 0.3315 1.1937
C5 C 0.2489(5) 0.3981(7) 1.2298(7)
H4 H 0.2703 0.4413 1.2749
C6 C 0.1986(5) 0.3980(7) 1.2121(7)
H5 H 0.1862 0.4412 1.2470
C7 C 0.1649(3) 0.3385(7) 1.1463(6)
H6 H 0.1302 0.3397 1.1354
C8 C 0.1852(3) 0.2774(6) 1.0975(5)
C9 C 0.1112(4) 0.2026(6) 0.9749(6)
O2 O 0.0809(2) 0.2519(5) 0.9986(4)
C10 C 0.0954(3) 0.1455(8) 0.8869(6)
H7 H 0.0805 0.1901 0.8330
H8 H 0.0686 0.1013 0.8883
C11 C 0.1335(3) 0.0876(6) 0.8666(5)
H9 H 0.1370 0.0269 0.9040
N2 N 0.1824(3) 0.1329(6) 0.9006(4)
H10 H 0.177(3) 0.190(3) 0.871(6)
C12 C 0.2904(3) 0.1404(7) 1.0895(5)
H11 H 0.2836 0.1004 1.1378
H12 H 0.3201 0.1800 1.1227
C13 C 0.3022(4) 0.0735(8) 1.0187(6)
H13 H 0.2717 0.0707 0.9599
C14 C 0.3432(4) 0.1097(11) 0.9908(6)
O3 O 0.3364(3) 0.1868(7) 0.9427(4)
N3 N 0.3858(3) 0.0654(8) 1.0204(5)
H14 H 0.4093 0.0874 1.0011
C15 C 0.3983(5) -0.0202(10) 1.0849(7)
H15 H 0.4141 -0.0687 1.0556
C16 C 0.3540(5) -0.0688(12) 1.0972(8)
O4 O 0.3608(3) -0.1454(7) 1.1398(6)
N4 N 0.3123(4) -0.0205(9) 1.0536(6)
O5 O 0.2696(4) -0.0571(5) 1.0677(5)
H16 H 0.2692 -0.1174 1.0630
C17 C 0.1186(3) 0.0567(6) 0.7625(5)
C18 C 0.0712(4) 0.0191(7) 0.7170(6)
H17 H 0.0490 0.0152 0.7507
C19 C 0.0551(4) -0.0131(7) 0.6232(6)
H18 H 0.0229 -0.0402 0.5935
C20 C 0.0884(5) -0.0041(9) 0.5744(7)
H19 H 0.0786 -0.0240 0.5101
C21 C 0.1340(4) 0.0328(9) 0.6189(6)
H20 H 0.1565 0.0374 0.5859
C22 C 0.1491(3) 0.0647(8) 0.7134(6)
H21 H 0.1812 0.0922 0.7428
C23 C 0.4393(3) 0.0101(8) 1.1829(7)
H22 H 0.4520 -0.0482 1.2217
H23 H 0.4676 0.0406 1.1709
C24 C 0.4194(3) 0.0788(8) 1.2375(6)
C25 C 0.4271(3) 0.1768(9) 1.2349(7)
H24 H 0.4455 0.2006 1.1982
C26 C 0.4086(4) 0.2420(8) 1.2850(7)
H25 H 0.4132 0.3093 1.2807
C27 C 0.3838(4) 0.2068(9) 1.3399(7)
H26 H 0.3719 0.2496 1.3760
C28 C 0.3762(4) 0.1109(8) 1.3429(6)
H27 H 0.3581 0.0875 1.3801
C29 C 0.3936(3) 0.0479(7) 1.2945(6)
H28 H 0.3881 -0.0190 1.2993
O12? O 0.4702(5) 0.0386(11) 0.9792(12)
loop_
_geom_bond_atom_site_label_1
_geom_bond_atom_site_label_2
_geom_bond_site_symmetry_1
_geom_bond_site_symmetry_2
N1 C1 1_555 1_555
C1 H1 1_555 1_555
C2 C1 1_555 1_555
O1 C2 1_555 1_555
H2 O1 1_555 1_555
C3 C2 1_555 1_555
C4 C3 1_555 1_555
H3 C4 1_555 1_555
C5 C4 1_555 1_555
H4 C5 1_555 1_555
C6 C5 1_555 1_555
H5 C6 1_555 1_555
C7 C6 1_555 1_555
H6 C7 1_555 1_555
C8 N1 1_555 1_555
C9 N1 1_555 1_555
O2 C9 1_555 1_555
C10 C9 1_555 1_555
H7 C10 1_555 1_555
H8 C10 1_555 1_555
C11 C10 1_555 1_555
H9 C11 1_555 1_555
N2 C1 1_555 1_555
H10 N2 1_555 1_555
C12 C2 1_555 1_555
H11 C12 1_555 1_555
H12 C12 1_555 1_555
C13 C12 1_555 1_555
H13 C13 1_555 1_555
C14 C13 1_555 1_555
O3 C14 1_555 1_555
N3 C14 1_555 1_555
H14 N3 1_555 1_555
C15 N3 1_555 1_555
H15 C15 1_555 1_555
C16 C15 1_555 1_555
O4 C16 1_555 1_555
N4 C13 1_555 1_555
O5 N4 1_555 1_555
H16 O5 1_555 1_555
C17 C11 1_555 1_555
C18 C17 1_555 1_555
H17 C18 1_555 1_555
C19 C18 1_555 1_555
H18 C19 1_555 1_555
C20 C19 1_555 1_555
H19 C20 1_555 1_555
C21 C20 1_555 1_555
H20 C21 1_555 1_555
C22 C17 1_555 1_555
H21 C22 1_555 1_555
C23 C15 1_555 1_555
H22 C23 1_555 1_555
H23 C23 1_555 1_555
C24 C23 1_555 1_555
C25 C24 1_555 1_555
H24 C25 1_555 1_555
C26 C25 1_555 1_555
H25 C26 1_555 1_555
C27 C26 1_555 1_555
H26 C27 1_555 1_555
C28 C27 1_555 1_555
H27 C28 1_555 1_555
C29 C24 1_555 1_555
H28 C29 1_555 1_555
N5 C30 1_555 1_555
C30 H29 1_555 1_555
C31 C30 1_555 1_555
O6 C31 1_555 1_555
H30 O6 1_555 1_555
C32 C31 1_555 1_555
C33 C32 1_555 1_555
H31 C33 1_555 1_555
C34 C33 1_555 1_555
H32 C34 1_555 1_555
C35 C34 1_555 1_555
H33 C35 1_555 1_555
C36 C35 1_555 1_555
H34 C36 1_555 1_555
C37 N5 1_555 1_555
C38 N5 1_555 1_555
O7 C38 1_555 1_555
C39 C38 1_555 1_555
H35 C39 1_555 1_555
H36 C39 1_555 1_555
C40 C39 1_555 1_555
H37 C40 1_555 1_555
N6 C30 1_555 1_555
H38 N6 1_555 1_555
C41 C31 1_555 1_555
H39 C41 1_555 1_555
H40 C41 1_555 1_555
C42 C41 1_555 1_555
H41 C42 1_555 1_555
C43 C42 1_555 1_555
O8 C43 1_555 1_555
N7 C43 1_555 1_555
H42 N7 1_555 1_555
C44 N7 1_555 1_555
H43 C44 1_555 1_555
C45 C44 1_555 1_555
O9 C45 1_555 1_555
N8 C42 1_555 1_555
O10 N8 1_555 1_555
H44 O10 1_555 1_555
C46 C40 1_555 1_555
C47 C46 1_555 1_555
H45 C47 1_555 1_555
C48 C47 1_555 1_555
H46 C48 1_555 1_555
C49 C48 1_555 1_555
H47 C49 1_555 1_555
C50 C49 1_555 1_555
H48 C50 1_555 1_555
C51 C46 1_555 1_555
H49 C51 1_555 1_555
C52 C44 1_555 1_555
H50 C52 1_555 1_555
H51 C52 1_555 1_555
C53 C52 1_555 1_555
C54 C53 1_555 1_555
H52 C54 1_555 1_555
C55 C54 1_555 1_555
H53 C55 1_555 1_555
C56 C55 1_555 1_555
H54 C56 1_555 1_555
C57 C56 1_555 1_555
H55 C57 1_555 1_555
C58 C53 1_555 1_555
H56 C58 1_555 1_555
C3 C8 1_555 1_555
C7 C8 1_555 1_555
C11 N2 1_555 1_555
C16 N4 1_555 1_555
C21 C22 1_555 1_555
C28 C29 1_555 1_555
C32 C37 1_555 1_555
C36 C37 1_555 1_555
C40 N6 1_555 1_555
C45 N8 1_555 1_555
C50 C51 1_555 1_555
C57 C58 1_555 1_555

#END
