
#######################################################################
#
#                 Cambridge Crystallographic Data Centre
#                                CCDC 
#
#######################################################################
#
# If this CIF has been generated from an entry in the Cambridge 
# Structural Database, then it will include bibliographic, chemical, 
# crystal, experimental, refinement or atomic coordinate data resulting 
# from the CCDC's data processing and validation procedures.
#
#######################################################################

data_ARIFEN
_chemical_name_common            
2,2'-(Biphenyl-4,4'-diyldiethene-2,1-diyl)bis(thieno[3,2-b]thiophene)
_chemical_formula_moiety         'C28 H18 S4'
_chemical_name_systematic        4,4'-bis(2-Thieno[3,2-b]thienylvinyl)biphenyl
_symmetry_cell_setting           triclinic
_symmetry_space_group_name_H-M   'P -1'
_symmetry_Int_Tables_number      2
_space_group_name_Hall           '-P 1'
loop_
_symmetry_equiv_pos_site_id
_symmetry_equiv_pos_as_xyz
1 x,y,z
2 -x,-y,-z
_cell_length_a                   5.7260(8)
_cell_length_b                   7.5580(10)
_cell_length_c                   25.600(4)
_cell_angle_alpha                94.782(2)
_cell_angle_beta                 94.095(2)
_cell_angle_gamma                90.214(2)
_cell_volume                     1101.17
_exptl_crystal_colour            yellow
_exptl_crystal_description       plate
_cell_formula_units_Z            2
_exptl_crystal_recrystallization_method sublimation
loop_
_atom_site_label
_atom_site_type_symbol
_atom_site_fract_x
_atom_site_fract_y
_atom_site_fract_z
S1 S 0.20190(14) 0.71166(10) 0.43364(3)
C1 C -0.0631(5) 0.6120(4) 0.44070(11)
H1 H -0.1250 0.6073 0.4732
S2 S -0.06212(12) 0.51382(9) 0.28535(3)
C2 C -0.1737(5) 0.5415(3) 0.39576(10)
H2 H -0.3187 0.4843 0.3930
C3 C -0.0331(4) 0.5681(3) 0.35232(9)
C4 C 0.1736(4) 0.6587(3) 0.36668(9)
C5 C 0.3121(4) 0.6850(3) 0.32326(9)
H3 H 0.4563 0.7434 0.3264
C6 C 0.2068(4) 0.6144(3) 0.27756(9)
C7 C 0.3023(5) 0.6148(3) 0.22640(10)
C8 C 0.2077(5) 0.5324(3) 0.18204(10)
C9 C 0.2991(4) 0.5278(3) 0.13013(9)
C10 C 0.5079(4) 0.6090(3) 0.11947(9)
H4 H 0.5972 0.6715 0.1468
C11 C 0.5848(4) 0.5988(3) 0.06974(9)
H5 H 0.7250 0.6545 0.0643
C12 C 0.4573(4) 0.5065(3) 0.02686(8)
C13 C 0.2485(4) 0.4267(3) 0.03766(9)
H6 H 0.1585 0.3651 0.0103
C14 C 0.1712(4) 0.4361(3) 0.08739(9)
H7 H 0.0309 0.3805 0.0929
H16 H 0.449(5) 0.685(3) 0.2270(10)
H17 H 0.066(6) 0.464(4) 0.1866(12)
S1A S 0.79810(14) 0.28834(10) -0.43364(3)
C1A C 1.0631(5) 0.3880(4) -0.44070(11)
H1A H 1.1250 0.3927 -0.4732
S2A S 1.06212(12) 0.48618(9) -0.28535(3)
C2A C 1.1737(5) 0.4585(3) -0.39576(10)
H2A H 1.3187 0.5157 -0.3930
C3A C 1.0331(4) 0.4319(3) -0.35232(9)
C4A C 0.8264(4) 0.3413(3) -0.36668(9)
C5A C 0.6879(4) 0.3150(3) -0.32326(9)
H3A H 0.5437 0.2566 -0.3264
C6A C 0.7932(4) 0.3856(3) -0.27756(9)
C7A C 0.6977(5) 0.3852(3) -0.22640(10)
C8A C 0.7923(5) 0.4676(3) -0.18204(10)
C9A C 0.7009(4) 0.4722(3) -0.13013(9)
C10A C 0.4921(4) 0.3910(3) -0.11947(9)
H4A H 0.4028 0.3285 -0.1468
C11A C 0.4152(4) 0.4012(3) -0.06974(9)
H5A H 0.2750 0.3455 -0.0643
C12A C 0.5427(4) 0.4935(3) -0.02686(8)
C13A C 0.7515(4) 0.5733(3) -0.03766(9)
H6A H 0.8415 0.6349 -0.0103
C14A C 0.8288(4) 0.5639(3) -0.08739(9)
H7A H 0.9691 0.6195 -0.0929
H16A H 0.551(5) 0.315(3) -0.2270(10)
H17A H 0.934(6) 0.536(4) -0.1866(12)
S3 S 0.71270(13) 0.06826(10) 0.43504(3)
S4 S 0.43959(11) 0.16166(9) 0.28544(2)
C15 C 0.4461(5) 0.1706(4) 0.44161(10)
H8 H 0.3847 0.1973 0.4740
C16 C 0.3340(4) 0.2085(3) 0.39553(10)
H9 H 0.1890 0.2631 0.3922
C17 C 0.4710(4) 0.1525(3) 0.35274(9)
C18 C 0.6788(4) 0.0738(3) 0.36757(9)
C19 C 0.8161(4) 0.0180(3) 0.32473(9)
H10 H 0.9600 -0.0379 0.3283
C20 C 0.7084(4) 0.0575(3) 0.27794(9)
C21 C 0.8020(5) 0.0240(3) 0.22697(10)
C22 C 0.7074(5) 0.0778(3) 0.18198(10)
C23 C 0.7984(4) 0.0505(3) 0.13016(9)
C24 C 0.6711(4) 0.1160(3) 0.08721(9)
H11 H 0.5311 0.1746 0.0925
C25 C 0.7484(4) 0.0957(3) 0.03732(9)
H12 H 0.6590 0.1410 0.0098
C26 C 0.9571(4) 0.0092(3) 0.02684(8)
C27 C 1.0826(4) -0.0579(3) 0.06993(9)
H13 H 1.2214 -0.1180 0.0646
C28 C 1.0062(4) -0.0374(3) 0.11984(9)
H14 H 1.0951 -0.0832 0.1473
H15 H 0.569(5) 0.150(4) 0.1835(10)
H18 H 0.952(5) -0.047(4) 0.2293(11)
S3A S 1.28730(13) -0.06826(10) -0.43504(3)
S4A S 1.56041(11) -0.16166(9) -0.28544(2)
C15A C 1.5539(5) -0.1706(4) -0.44161(10)
H8A H 1.6153 -0.1973 -0.4740
C16A C 1.6660(4) -0.2085(3) -0.39553(10)
H9A H 1.8110 -0.2631 -0.3922
C17A C 1.5290(4) -0.1525(3) -0.35274(9)
C18A C 1.3212(4) -0.0738(3) -0.36757(9)
C19A C 1.1839(4) -0.0180(3) -0.32473(9)
H10A H 1.0400 0.0379 -0.3283
C20A C 1.2916(4) -0.0575(3) -0.27794(9)
C21A C 1.1980(5) -0.0240(3) -0.22697(10)
C22A C 1.2926(5) -0.0778(3) -0.18198(10)
C23A C 1.2016(4) -0.0505(3) -0.13016(9)
C24A C 1.3289(4) -0.1160(3) -0.08721(9)
H11A H 1.4689 -0.1746 -0.0925
C25A C 1.2516(4) -0.0957(3) -0.03732(9)
H12A H 1.3410 -0.1410 -0.0098
C26A C 1.0429(4) -0.0092(3) -0.02684(8)
C27A C 0.9174(4) 0.0579(3) -0.06993(9)
H13A H 0.7786 0.1180 -0.0646
C28A C 0.9938(4) 0.0374(3) -0.11984(9)
H14A H 0.9049 0.0832 -0.1473
H15A H 1.431(5) -0.150(4) -0.1835(10)
H18A H 1.048(5) 0.047(4) -0.2293(11)
loop_
_geom_bond_atom_site_label_1
_geom_bond_atom_site_label_2
_geom_bond_site_symmetry_1
_geom_bond_site_symmetry_2
S1 C1 1_555 1_555
C1 H1 1_555 1_555
S2 C3 1_555 1_555
C2 C1 1_555 1_555
H2 C2 1_555 1_555
S3 C15 1_555 1_555
C3 C2 1_555 1_555
S4 C17 1_555 1_555
C4 S1 1_555 1_555
C5 C4 1_555 1_555
H3 C5 1_555 1_555
C6 S2 1_555 1_555
C7 C6 1_555 1_555
C8 C7 1_555 1_555
C9 C8 1_555 1_555
C10 C9 1_555 1_555
H4 C10 1_555 1_555
C11 C10 1_555 1_555
H5 C11 1_555 1_555
C12 C11 1_555 1_555
C13 C12 1_555 1_555
H6 C13 1_555 1_555
C14 C9 1_555 1_555
H7 C14 1_555 1_555
C15 H8 1_555 1_555
C16 C15 1_555 1_555
H9 C16 1_555 1_555
C17 C16 1_555 1_555
C18 S3 1_555 1_555
C19 C18 1_555 1_555
H10 C19 1_555 1_555
C20 S4 1_555 1_555
C21 C20 1_555 1_555
C22 C21 1_555 1_555
C23 C22 1_555 1_555
C24 C23 1_555 1_555
H11 C24 1_555 1_555
C25 C24 1_555 1_555
H12 C25 1_555 1_555
C26 C25 1_555 1_555
C27 C26 1_555 1_555
H13 C27 1_555 1_555
C28 C23 1_555 1_555
H14 C28 1_555 1_555
H15 C22 1_555 1_555
H16 C7 1_555 1_555
H17 C8 1_555 1_555
H18 C21 1_555 1_555
S1A C1A 1_555 1_555
C1A H1A 1_555 1_555
S2A C3A 1_555 1_555
C2A C1A 1_555 1_555
H2A C2A 1_555 1_555
S3A C15A 1_555 1_555
C3A C2A 1_555 1_555
S4A C17A 1_555 1_555
C4A S1A 1_555 1_555
C5A C4A 1_555 1_555
H3A C5A 1_555 1_555
C6A S2A 1_555 1_555
C7A C6A 1_555 1_555
C8A C7A 1_555 1_555
C9A C8A 1_555 1_555
C10A C9A 1_555 1_555
H4A C10A 1_555 1_555
C11A C10A 1_555 1_555
H5A C11A 1_555 1_555
C12A C12 1_555 1_555
C13A C12A 1_555 1_555
H6A C13A 1_555 1_555
C14A C9A 1_555 1_555
H7A C14A 1_555 1_555
C15A H8A 1_555 1_555
C16A C15A 1_555 1_555
H9A C16A 1_555 1_555
C17A C16A 1_555 1_555
C18A S3A 1_555 1_555
C19A C18A 1_555 1_555
H10A C19A 1_555 1_555
C20A S4A 1_555 1_555
C21A C20A 1_555 1_555
C22A C21A 1_555 1_555
C23A C22A 1_555 1_555
C24A C23A 1_555 1_555
H11A C24A 1_555 1_555
C25A C24A 1_555 1_555
H12A C25A 1_555 1_555
C26A C26 1_555 1_555
C27A C26A 1_555 1_555
H13A C27A 1_555 1_555
C28A C23A 1_555 1_555
H14A C28A 1_555 1_555
H15A C22A 1_555 1_555
H16A C7A 1_555 1_555
H17A C8A 1_555 1_555
H18A C21A 1_555 1_555
C3 C4 1_555 1_555
C5 C6 1_555 1_555
C13 C14 1_555 1_555
C17 C18 1_555 1_555
C19 C20 1_555 1_555
C27 C28 1_555 1_555
C3A C4A 1_555 1_555
C5A C6A 1_555 1_555
C11A C12A 1_555 1_555
C13A C14A 1_555 1_555
C17A C18A 1_555 1_555
C19A C20A 1_555 1_555
C25A C26A 1_555 1_555
C27A C28A 1_555 1_555

#END
