
#######################################################################
#
#                 Cambridge Crystallographic Data Centre
#                                CCDC 
#
#######################################################################
#
# If this CIF has been generated from an entry in the Cambridge 
# Structural Database, then it will include bibliographic, chemical, 
# crystal, experimental, refinement or atomic coordinate data resulting 
# from the CCDC's data processing and validation procedures.
#
#######################################################################

data_ARIGEP01
_chemical_formula_moiety         'C20 H13 F1 S1'
_chemical_name_systematic        6-fluoro-2,3-diphenyl-1-benzothiophene
_symmetry_cell_setting           monoclinic
_symmetry_space_group_name_H-M   'P 21/c'
_symmetry_Int_Tables_number      14
_space_group_name_Hall           '-P 2ybc'
loop_
_symmetry_equiv_pos_site_id
_symmetry_equiv_pos_as_xyz
1 x,y,z
2 -x,1/2+y,1/2-z
3 -x,-y,-z
4 x,1/2-y,1/2+z
_cell_length_a                   6.0149(4)
_cell_length_b                   13.4117(9)
_cell_length_c                   18.2153(12)
_cell_angle_alpha                90
_cell_angle_beta                 91.601(2)
_cell_angle_gamma                90
_cell_volume                     1468.86
_exptl_crystal_colour            colorless
_exptl_crystal_description       prism
_cell_formula_units_Z            4
loop_
_atom_site_label
_atom_site_type_symbol
_atom_site_fract_x
_atom_site_fract_y
_atom_site_fract_z
F1 F 0.9541(2) 0.60427(9) 0.53262(6)
S1 S 0.30301(8) 0.44723(3) 0.66979(2)
C1 C 0.5169(3) 0.53002(13) 0.65237(10)
C2 C 0.6535(3) 0.53073(13) 0.59141(10)
H1 H 0.6347 0.484 0.5525
C3 C 0.8160(3) 0.60241(14) 0.59083(10)
C4 C 0.8492(3) 0.67285(14) 0.64583(11)
H2 H 0.9638 0.7212 0.6425
C5 C 0.7129(3) 0.67134(13) 0.70540(10)
H3 H 0.7317 0.7197 0.7432
C6 C 0.5461(3) 0.59850(13) 0.71042(9)
C7 C 0.3939(3) 0.58159(12) 0.76903(9)
C8 C 0.2544(3) 0.50339(13) 0.75507(9)
C9 C 0.3949(3) 0.64581(12) 0.83560(9)
C10 C 0.5823(3) 0.65044(13) 0.88237(10)
H4 H 0.7101 0.6119 0.8719
C11 C 0.5829(3) 0.71115(14) 0.94410(10)
H5 H 0.7109 0.7138 0.9758
C12 C 0.3979(3) 0.76792(13) 0.95972(10)
H6 H 0.3989 0.8092 1.0021
C13 C 0.2109(3) 0.76443(14) 0.91337(10)
H7 H 0.0838 0.8035 0.9238
C14 C 0.2102(3) 0.70372(14) 0.85177(10)
H8 H 0.0821 0.7016 0.8201
C15 C 0.0812(3) 0.45888(12) 0.80091(10)
C16 C -0.1070(3) 0.41505(13) 0.76777(10)
H9 H -0.1217 0.4134 0.7157
C17 C -0.2725(3) 0.37402(14) 0.80971(11)
H10 H -0.3995 0.3446 0.7863
C18 C -0.2535(3) 0.37579(14) 0.88542(11)
H11 H -0.3688 0.3491 0.9141
C19 C -0.0658(3) 0.41659(13) 0.91929(11)
H12 H -0.0514 0.4166 0.9714
C20 C 0.1018(3) 0.45754(13) 0.87779(10)
H13 H 0.2307 0.4847 0.9016
loop_
_geom_bond_atom_site_label_1
_geom_bond_atom_site_label_2
_geom_bond_site_symmetry_1
_geom_bond_site_symmetry_2
F1 C3 1_555 1_555
S1 C1 1_555 1_555
C1 C2 1_555 1_555
C2 H1 1_555 1_555
C3 C2 1_555 1_555
C4 C3 1_555 1_555
H2 C4 1_555 1_555
C5 C4 1_555 1_555
H3 C5 1_555 1_555
C6 C1 1_555 1_555
C7 C6 1_555 1_555
C8 S1 1_555 1_555
C9 C7 1_555 1_555
C10 C9 1_555 1_555
H4 C10 1_555 1_555
C11 C10 1_555 1_555
H5 C11 1_555 1_555
C12 C11 1_555 1_555
H6 C12 1_555 1_555
C13 C12 1_555 1_555
H7 C13 1_555 1_555
C14 C9 1_555 1_555
H8 C14 1_555 1_555
C15 C8 1_555 1_555
C16 C15 1_555 1_555
H9 C16 1_555 1_555
C17 C16 1_555 1_555
H10 C17 1_555 1_555
C18 C17 1_555 1_555
H11 C18 1_555 1_555
C19 C18 1_555 1_555
H12 C19 1_555 1_555
C20 C15 1_555 1_555
H13 C20 1_555 1_555
C5 C6 1_555 1_555
C7 C8 1_555 1_555
C13 C14 1_555 1_555
C19 C20 1_555 1_555

#END
