
#######################################################################
#
#                 Cambridge Crystallographic Data Centre
#                                CCDC 
#
#######################################################################
#
# If this CIF has been generated from an entry in the Cambridge 
# Structural Database, then it will include bibliographic, chemical, 
# crystal, experimental, refinement or atomic coordinate data resulting 
# from the CCDC's data processing and validation procedures.
#
#######################################################################

data_ARIHAM
_chemical_name_common            
'phenyl-(S-methyl-S-phenylsulfoximidoyl)-iodonium tosylate'
_chemical_formula_moiety         'C13 H13 I1 N1 O1 S1 1+,C7 H7 O3 S1 1-'
_chemical_name_systematic        
'((methyl(oxido)phenylsulfanylidene)amino)(phenyl)iodonium 4-methylbenzenesulfonate'
_symmetry_cell_setting           monoclinic
_symmetry_space_group_name_H-M   'P 21/n'
_symmetry_Int_Tables_number      14
_space_group_name_Hall           '-P 2yn'
loop_
_symmetry_equiv_pos_site_id
_symmetry_equiv_pos_as_xyz
1 x,y,z
2 1/2-x,1/2+y,1/2-z
3 -x,-y,-z
4 1/2+x,1/2-y,1/2+z
_cell_length_a                   13.772(3)
_cell_length_b                   5.9903(11)
_cell_length_c                   25.425(5)
_cell_angle_alpha                90
_cell_angle_beta                 102.867(4)
_cell_angle_gamma                90
_cell_volume                     2044.85
_exptl_crystal_colour            'yellow brown'
_exptl_crystal_description       needle
_cell_formula_units_Z            4
loop_
_atom_site_label
_atom_site_type_symbol
_atom_site_fract_x
_atom_site_fract_y
_atom_site_fract_z
I1 I 0.86943(1) 0.777480(10) 0.54261(1)
S1 S 0.71416(2) 0.42625(5) 0.502050(10)
C1 C 0.85865(8) 0.76878(19) 0.62358(4)
C2 C 0.53910(9) 0.2267(2) 0.45609(5)
C3 C 0.59716(8) 0.4168(2) 0.45604(4)
C4 C 0.82352(9) 0.9576(2) 0.64482(5)
C5 C 0.88897(9) 0.5780(2) 0.65381(5)
C6 C 0.81953(10) 0.9542(3) 0.69913(5)
C7 C 0.85062(10) 0.7667(3) 0.73043(5)
C8 C 0.44754(10) 0.2131(3) 0.41947(6)
C9 C 0.56711(10) 0.5918(2) 0.42017(5)
C10 C 0.88465(10) 0.5788(3) 0.70819(5)
C11 C 0.47529(11) 0.5745(3) 0.38388(6)
C12 C 0.41619(10) 0.3864(3) 0.38371(6)
C13 C 0.79881(9) 0.3169(2) 0.46542(5)
O1 O 0.71232(7) 0.27500(16) 0.54648(3)
N1 N 0.72755(7) 0.68259(17) 0.51223(4)
H1 H 0.8495(16) 0.770(3) 0.7695(9)
H2 H 0.5590(14) 0.109(4) 0.4800(8)
H3 H 0.3575(15) 0.371(4) 0.3610(8)
H4 H 0.8022(13) 1.088(3) 0.6241(7)
H5 H 0.7956(13) 1.078(3) 0.7153(7)
H6 H 0.9065(13) 0.449(3) 0.7277(7)
H7 H 0.9151(13) 0.455(3) 0.6382(7)
H8 H 0.4012(16) 0.083(4) 0.4192(9)
H9 H 0.4509(15) 0.694(4) 0.3616(8)
H10 H 0.6084(17) 0.711(4) 0.4210(9)
H11 H 0.8638(13) 0.303(3) 0.4902(7)
H12 H 0.7781(14) 0.175(3) 0.4528(7)
H13 H 0.7968(13) 0.404(3) 0.4355(7)
S2 S 1.07346(2) 0.13838(5) 0.595930(10)
O2 O 1.16303(7) 0.18967(16) 0.57666(3)
O3 O 1.05000(6) -0.10159(14) 0.59299(3)
C14 C 1.10019(8) 0.20871(19) 0.66550(4)
C15 C 1.09113(9) 0.1269(2) 0.75691(4)
C16 C 1.15555(9) 0.4797(2) 0.73559(4)
C17 C 1.14016(9) 0.4181(2) 0.68166(4)
C18 C 1.07620(9) 0.0618(2) 0.70309(4)
C19 C 1.13071(9) 0.3359(2) 0.77386(4)
O4 O 0.98803(7) 0.27379(16) 0.57062(4)
C20 C 1.14625(12) 0.4068(3) 0.83182(5)
H14 H 1.0711(12) 0.023(3) 0.7831(6)
H15 H 1.0502(12) -0.086(3) 0.6913(6)
H16 H 1.1527(13) 0.518(3) 0.6563(7)
H17 H 1.1860(13) 0.620(3) 0.7461(7)
H18 H 1.10399 0.31760 0.85344
H19 H 1.19525 0.41280 0.84479
H20 H 1.10018 0.53855 0.83963
loop_
_geom_bond_atom_site_label_1
_geom_bond_atom_site_label_2
_geom_bond_site_symmetry_1
_geom_bond_site_symmetry_2
I1 C1 1_555 1_555
S1 C3 1_555 1_555
C1 C4 1_555 1_555
C2 C3 1_555 1_555
C3 C9 1_555 1_555
C4 C6 1_555 1_555
C5 C1 1_555 1_555
C6 C7 1_555 1_555
C7 C10 1_555 1_555
C8 C2 1_555 1_555
C9 C11 1_555 1_555
C10 C5 1_555 1_555
C11 C12 1_555 1_555
C12 C8 1_555 1_555
C13 S1 1_555 1_555
O1 S1 1_555 1_555
N1 I1 1_555 1_555
H1 C7 1_555 1_555
H2 C2 1_555 1_555
H3 C12 1_555 1_555
H4 C4 1_555 1_555
H5 C6 1_555 1_555
H6 C10 1_555 1_555
H7 C5 1_555 1_555
H8 C8 1_555 1_555
H9 C11 1_555 1_555
H10 C9 1_555 1_555
H11 C13 1_555 1_555
H12 C13 1_555 1_555
H13 C13 1_555 1_555
S2 O2 1_555 1_555
O3 S2 1_555 1_555
C14 S2 1_555 1_555
C15 C18 1_555 1_555
C16 C17 1_555 1_555
C17 C14 1_555 1_555
C18 C14 1_555 1_555
C19 C15 1_555 1_555
O4 S2 1_555 1_555
C20 C19 1_555 1_555
H14 C15 1_555 1_555
H15 C18 1_555 1_555
H16 C17 1_555 1_555
H17 C16 1_555 1_555
H18 C20 1_555 1_555
H19 C20 1_555 1_555
H20 C20 1_555 1_555
S1 N1 1_555 1_555
C16 C19 1_555 1_555

#END
