
#######################################################################
#
#                 Cambridge Crystallographic Data Centre
#                                CCDC 
#
#######################################################################
#
# If this CIF has been generated from an entry in the Cambridge 
# Structural Database, then it will include bibliographic, chemical, 
# crystal, experimental, refinement or atomic coordinate data resulting 
# from the CCDC's data processing and validation procedures.
#
#######################################################################

data_ARIQEY
_chemical_compound_source        
'mangrove Bruguiera gymnorrhiza (L.) Savigny (Rhizophoraceae)'
_chemical_name_common            
cis-3,3'-Dihydroxy-1,5,1',5'-tetrathiacyclodecane
_chemical_formula_moiety         'C6 H12 O2 S4'
_chemical_name_systematic        cis-1,2,6,7-Tetrathiecane-4,9-diol
_chemical_properties_biological  
'Tested in-vitro and found to be inactive for PTP1B inhibitory activity (for the treatment of type-II diabetes and obesity).'
_symmetry_cell_setting           monoclinic
_symmetry_space_group_name_H-M   'P 21/n'
_symmetry_Int_Tables_number      14
_space_group_name_Hall           '-P 2yn'
loop_
_symmetry_equiv_pos_site_id
_symmetry_equiv_pos_as_xyz
1 x,y,z
2 1/2-x,1/2+y,1/2-z
3 -x,-y,-z
4 1/2+x,1/2-y,1/2+z
_cell_length_a                   13.660(4)
_cell_length_b                   15.382(4)
_cell_length_c                   13.792(4)
_cell_angle_alpha                90
_cell_angle_beta                 109.424(4)
_cell_angle_gamma                90
_cell_volume                     2733.01
_exptl_crystal_colour            colorless
_exptl_crystal_description       prism
_chemical_melting_point          '383-385 K'
_cell_formula_units_Z            10
_exptl_crystal_recrystallization_method chloroform
loop_
_atom_site_label
_atom_site_type_symbol
_atom_site_fract_x
_atom_site_fract_y
_atom_site_fract_z
S1 S 0.50520(14) 0.04015(10) 0.71367(12)
S2 S 0.60278(13) 0.25158(11) 0.51492(14)
S3 S 0.53153(14) 0.16645(12) 0.40079(13)
S4 S 0.35685(12) 0.07250(10) 0.62757(12)
O1 O 0.5970(3) 0.2919(3) 0.7464(3)
H1 H 0.5508 0.3277 0.7224
O2 O 0.2497(3) 0.2074(3) 0.4243(3)
H2 H 0.2258 0.2052 0.4715
C1 C 0.5658(5) 0.1402(4) 0.7730(4)
H3 H 0.5294 0.1616 0.8178
H4 H 0.6368 0.1280 0.8153
C2 C 0.5661(4) 0.2101(4) 0.6970(4)
H5 H 0.4946 0.2165 0.6503
C3 C 0.6330(4) 0.1880(4) 0.6318(4)
H6 H 0.6243 0.1268 0.6137
H7 H 0.7053 0.1971 0.6724
C4 C 0.3934(4) 0.1863(4) 0.3685(4)
H8 H 0.3783 0.2446 0.3409
H9 H 0.3560 0.1460 0.3149
C5 C 0.3526(4) 0.1769(3) 0.4588(4)
H10 H 0.3939 0.2144 0.5151
C6 C 0.3605(5) 0.0836(4) 0.4978(4)
H11 H 0.4249 0.0586 0.4953
H12 H 0.3038 0.0502 0.4516
S5 S 0.6361(2) 0.59039(15) -0.03447(17)
S6 S 0.64167(13) 0.87774(11) 0.09840(12)
S7 S 0.57495(15) 0.90691(13) -0.05346(14)
S8 S 0.47877(18) 0.60707(13) -0.08669(14)
O3 O 0.6821(3) 0.6999(3) 0.2436(3)
H13 H 0.6450 0.6679 0.2639
O4 O 0.3211(3) 0.7633(4) -0.0733(3)
H14 H 0.2839 0.7696 -0.1333
C7 C 0.6762(6) 0.6098(5) 0.1030(5)
H15 H 0.6448 0.5658 0.1335
H16 H 0.7509 0.6023 0.1314
C8 C 0.6496(4) 0.6969(4) 0.1344(4)
H17 H 0.5741 0.7043 0.1072
C9 C 0.6994(4) 0.7715(4) 0.0980(4)
H18 H 0.6976 0.7590 0.0285
H19 H 0.7718 0.7744 0.1410
C10 C 0.4404(5) 0.8752(5) -0.0847(5)
H20 H 0.4089 0.9104 -0.0446
H21 H 0.4043 0.8875 -0.1567
C11 C 0.4255(4) 0.7798(4) -0.0645(4)
H22 H 0.4675 0.7683 0.0072
C12 C 0.4630(5) 0.7179(5) -0.1306(4)
H23 H 0.5290 0.7388 -0.1333
H24 H 0.4139 0.7192 -0.2001
S9 S 0.17017(16) 1.00981(19) 1.08958(16)
S10 S 0.11656(18) 0.95273(14) 1.19285(14)
O5 O 0.0614(13) 0.8918(11) 0.8230(16)
H25 H 0.0075 0.8992 0.7747
C13 C 0.1256(14) 0.9314(9) 0.9850(9)
H26 H 0.1821 0.8917 0.9894
H27 H 0.0696 0.8976 0.9947
C14 C 0.0886(13) 0.9699(10) 0.8803(12)
H28 H 0.1521 0.9892 0.8686
C15 C -0.0217(8) 0.9528(12) 1.1413(14)
H29 H -0.0450 0.9172 1.1873
H30 H -0.0393 0.9212 1.0769
S9B S -0.17017(16) 0.99019(19) 0.91042(16)
S10B S -0.11656(18) 1.04727(14) 0.80715(14)
O5B O -0.0614(13) 1.1082(11) 1.1770(16)
H25B H -0.0075 1.1008 1.2253
C13B C -0.1256(14) 1.0686(9) 1.0150(9)
H26B H -0.1821 1.1083 1.0106
H27B H -0.0696 1.1024 1.0053
C14B C -0.0886(13) 1.0301(10) 1.1197(12)
H28B H -0.1521 1.0108 1.1314
C15B C 0.0217(8) 1.0472(12) 0.8587(14)
H29B H 0.0450 1.0828 0.8127
H30B H 0.0393 1.0788 0.9231
O6? O 0.059(2) 0.9170(16) 0.7843(18)
H31? H 0.0199 0.9492 0.7409
C16? C 0.1696(16) 0.9554(14) 0.9770(11)
H32? H 0.2076 0.9883 0.9412
H33? H 0.2010 0.8983 0.9933
C17? C 0.0566(15) 0.9478(10) 0.9121(13)
H34? H 0.0094 0.9170 0.9404
C18? C 0.0211(9) 1.032(2) 0.856(4)
H35? H 0.0475 1.0352 0.7988
H36? H 0.0517 1.0797 0.9021
loop_
_geom_bond_atom_site_label_1
_geom_bond_atom_site_label_2
_geom_bond_site_symmetry_1
_geom_bond_site_symmetry_2
S1 S4 1_555 1_555
S2 S3 1_555 1_555
S3 C4 1_555 1_555
S4 C6 1_555 1_555
O1 H1 1_555 1_555
O2 H2 1_555 1_555
C1 S1 1_555 1_555
H3 C1 1_555 1_555
H4 C1 1_555 1_555
C2 O1 1_555 1_555
H5 C2 1_555 1_555
C3 S2 1_555 1_555
H6 C3 1_555 1_555
H7 C3 1_555 1_555
C4 H8 1_555 1_555
H9 C4 1_555 1_555
C5 O2 1_555 1_555
H10 C5 1_555 1_555
C6 C5 1_555 1_555
H11 C6 1_555 1_555
H12 C6 1_555 1_555
S5 S8 1_555 1_555
S6 S7 1_555 1_555
S7 C10 1_555 1_555
S8 C12 1_555 1_555
O3 H13 1_555 1_555
O4 H14 1_555 1_555
C7 S5 1_555 1_555
H15 C7 1_555 1_555
H16 C7 1_555 1_555
C8 O3 1_555 1_555
H17 C8 1_555 1_555
C9 S6 1_555 1_555
H18 C9 1_555 1_555
H19 C9 1_555 1_555
C10 H20 1_555 1_555
H21 C10 1_555 1_555
C11 O4 1_555 1_555
H22 C11 1_555 1_555
C12 C11 1_555 1_555
H23 C12 1_555 1_555
H24 C12 1_555 1_555
S9 S10 1_555 1_555
S10 C15 1_555 1_555
O5 H25 1_555 1_555
C13 S9 1_555 1_555
H26 C13 1_555 1_555
H27 C13 1_555 1_555
C14 O5 1_555 1_555
H28 C14 1_555 1_555
C15 H29 1_555 1_555
H30 C15 1_555 1_555
S9B S10B 1_555 1_555
S10B C15B 1_555 1_555
O5B H25B 1_555 1_555
C13B S9B 1_555 1_555
H26B C13B 1_555 1_555
H27B C13B 1_555 1_555
C14B C15 1_555 1_555
H28B C14B 1_555 1_555
C15B C14 1_555 1_555
H29B C15B 1_555 1_555
H30B C15B 1_555 1_555
C1 C2 1_555 1_555
C2 C3 1_555 1_555
C4 C5 1_555 1_555
C7 C8 1_555 1_555
C8 C9 1_555 1_555
C10 C11 1_555 1_555
C13 C14 1_555 1_555
O5B C14B 1_555 1_555
C13B C14B 1_555 1_555

#END
