
#######################################################################
#
#                 Cambridge Crystallographic Data Centre
#                                CCDC 
#
#######################################################################
#
# If this CIF has been generated from an entry in the Cambridge 
# Structural Database, then it will include bibliographic, chemical, 
# crystal, experimental, refinement or atomic coordinate data resulting 
# from the CCDC's data processing and validation procedures.
#
#######################################################################

data_ARIQUN
_chemical_formula_moiety         'C30 H36 N2 O3 Si2'
_chemical_name_systematic        
rac-1,3-bis(2-(Dimethylaminomethyl)phenyl)-1,3-diphenyldisiloxane-1,3-diol
_symmetry_cell_setting           triclinic
_symmetry_space_group_name_H-M   'P -1'
_symmetry_Int_Tables_number      2
_space_group_name_Hall           '-P 1'
loop_
_symmetry_equiv_pos_site_id
_symmetry_equiv_pos_as_xyz
1 x,y,z
2 -x,-y,-z
_cell_length_a                   9.2917(8)
_cell_length_b                   11.1847(9)
_cell_length_c                   14.6458(12)
_cell_angle_alpha                81.124(2)
_cell_angle_beta                 84.490(2)
_cell_angle_gamma                85.139(2)
_cell_volume                     1493.1
_exptl_crystal_colour            colorless
_cell_formula_units_Z            2
_exptl_crystal_recrystallization_method hexane/dichloromethane
loop_
_atom_site_label
_atom_site_type_symbol
_atom_site_fract_x
_atom_site_fract_y
_atom_site_fract_z
Si1 Si 0.09323(16) 0.11759(13) 0.69577(10)
Si2 Si 0.05029(16) 0.35549(13) 0.79180(10)
O1 O -0.0650(4) 0.1064(4) 0.6628(3)
O2 O -0.1089(5) 0.3411(4) 0.8449(3)
O3 O 0.1018(4) 0.2416(3) 0.7385(2)
N1 N -0.1990(5) -0.0264(4) 0.8074(4)
N2 N -0.2807(5) 0.4392(4) 0.7105(3)
C1 C -0.3467(10) 0.0274(10) 0.8276(8)
C2 C -0.2055(11) -0.1557(8) 0.8021(7)
C3 C -0.1026(8) -0.0082(7) 0.8773(5)
C4 C -0.3881(12) 0.3561(11) 0.6937(8)
C5 C -0.3534(11) 0.5570(8) 0.7241(8)
C6 C -0.1713(7) 0.4495(6) 0.6318(5)
C7 C 0.0509(7) -0.0611(6) 0.8620(4)
C8 C 0.0996(12) -0.1581(7) 0.9245(5)
C9 C 0.2377(12) -0.2078(8) 0.9138(6)
C10 C 0.3314(10) -0.1649(7) 0.8410(6)
C11 C 0.2819(8) -0.0694(6) 0.7783(5)
C12 C 0.1419(6) -0.0121(4) 0.7851(4)
C13 C 0.2258(5) 0.1247(5) 0.5931(4)
C14 C 0.2163(8) 0.0567(6) 0.5228(5)
C15 C 0.3137(10) 0.0624(8) 0.4449(5)
C16 C 0.4226(10) 0.1388(8) 0.4355(5)
C17 C 0.4371(8) 0.2073(7) 0.5035(6)
C18 C 0.3388(7) 0.1989(6) 0.5804(5)
C19 C 0.1820(6) 0.3567(5) 0.8785(4)
C20 C 0.3022(7) 0.2734(6) 0.8885(5)
C21 C 0.4017(8) 0.2780(7) 0.9489(5)
C22 C 0.3861(9) 0.3665(7) 1.0050(5)
C23 C 0.2678(8) 0.4495(6) 1.0000(5)
C24 C 0.1689(8) 0.4450(6) 0.9372(5)
C25 C -0.0495(6) 0.5292(5) 0.6400(4)
C26 C -0.0399(9) 0.6356(6) 0.5780(5)
C27 C 0.0706(9) 0.7093(7) 0.5795(5)
C28 C 0.1682(9) 0.6818(7) 0.6433(5)
C29 C 0.1601(7) 0.5763(6) 0.7056(4)
C30 C 0.0517(6) 0.4962(5) 0.7060(4)
H1 H 0.033(8) -0.182(6) 0.968(5)
H2 H 0.269(7) -0.271(6) 0.957(5)
H3 H 0.436(8) -0.206(7) 0.834(5)
H4 H 0.333(4) -0.041(4) 0.731(3)
H5 H 0.137(6) 0.008(5) 0.528(4)
H6 H 0.294(7) 0.009(6) 0.404(5)
H7 H 0.499(7) 0.144(6) 0.378(5)
H8 H 0.516(7) 0.264(6) 0.491(4)
H9 H 0.343(4) 0.249(4) 0.622(3)
H10 H 0.308(5) 0.220(5) 0.843(4)
H11 H 0.481(6) 0.211(5) 0.961(4)
H12 H 0.455(5) 0.375(4) 1.043(3)
H13 H 0.250(5) 0.508(5) 1.048(4)
H14 H 0.092(5) 0.504(4) 0.930(3)
H15 H -0.109(7) 0.662(6) 0.534(4)
H16 H 0.069(5) 0.777(4) 0.543(3)
H17 H 0.248(5) 0.723(4) 0.654(3)
H18 H 0.231(5) 0.550(5) 0.752(4)
H19 H -0.366(8) -0.009(7) 0.892(6)
H20 H -0.417(8) 0.021(6) 0.778(5)
H21 H -0.325(8) 0.112(7) 0.846(5)
H22 H -0.118(5) -0.183(4) 0.778(4)
H23 H -0.283(7) -0.165(6) 0.751(5)
H24 H -0.238(8) -0.196(7) 0.861(6)
H25 H -0.132(5) -0.045(5) 0.940(4)
H26 H -0.104(6) 0.078(6) 0.876(4)
H27 H -0.457(8) 0.351(7) 0.748(5)
H28 H -0.429(8) 0.402(7) 0.639(5)
H29 H -0.328(9) 0.287(8) 0.676(6)
H30 H -0.424(7) 0.548(5) 0.773(4)
H31 H -0.397(9) 0.613(8) 0.663(6)
H32 H -0.266(8) 0.606(7) 0.724(5)
H33 H -0.124(5) 0.363(5) 0.625(3)
H34 H -0.207(5) 0.482(4) 0.568(4)
H35 H -0.177(5) 0.367(4) 0.815(3)
H36 H -0.113(6) 0.064(5) 0.699(4)
loop_
_geom_bond_atom_site_label_1
_geom_bond_atom_site_label_2
_geom_bond_site_symmetry_1
_geom_bond_site_symmetry_2
Si1 O1 1_555 1_555
Si2 O2 1_555 1_555
O1 H36 1_555 1_555
O2 H35 1_555 1_555
O3 Si1 1_555 1_555
N1 C1 1_555 1_555
N2 C4 1_555 1_555
C1 H19 1_555 1_555
C2 N1 1_555 1_555
C3 N1 1_555 1_555
C4 H27 1_555 1_555
C5 N2 1_555 1_555
C6 N2 1_555 1_555
C7 C3 1_555 1_555
C8 C7 1_555 1_555
C9 C8 1_555 1_555
C10 C9 1_555 1_555
C11 C10 1_555 1_555
C12 Si1 1_555 1_555
C13 Si1 1_555 1_555
C14 C13 1_555 1_555
C15 C14 1_555 1_555
C16 C15 1_555 1_555
C17 C16 1_555 1_555
C18 C13 1_555 1_555
C19 Si2 1_555 1_555
C20 C19 1_555 1_555
C21 C20 1_555 1_555
C22 C21 1_555 1_555
C23 C22 1_555 1_555
C24 C19 1_555 1_555
C25 C6 1_555 1_555
C26 C25 1_555 1_555
C27 C26 1_555 1_555
C28 C27 1_555 1_555
C29 C28 1_555 1_555
C30 Si2 1_555 1_555
H1 C8 1_555 1_555
H2 C9 1_555 1_555
H3 C10 1_555 1_555
H4 C11 1_555 1_555
H5 C14 1_555 1_555
H6 C15 1_555 1_555
H7 C16 1_555 1_555
H8 C17 1_555 1_555
H9 C18 1_555 1_555
H10 C20 1_555 1_555
H11 C21 1_555 1_555
H12 C22 1_555 1_555
H13 C23 1_555 1_555
H14 C24 1_555 1_555
H15 C26 1_555 1_555
H16 C27 1_555 1_555
H17 C28 1_555 1_555
H18 C29 1_555 1_555
H20 C1 1_555 1_555
H21 C1 1_555 1_555
H22 C2 1_555 1_555
H23 C2 1_555 1_555
H24 C2 1_555 1_555
H25 C3 1_555 1_555
H26 C3 1_555 1_555
H28 C4 1_555 1_555
H29 C4 1_555 1_555
H30 C5 1_555 1_555
H31 C5 1_555 1_555
H32 C5 1_555 1_555
H33 C6 1_555 1_555
H34 C6 1_555 1_555
Si2 O3 1_555 1_555
C7 C12 1_555 1_555
C11 C12 1_555 1_555
C17 C18 1_555 1_555
C23 C24 1_555 1_555
C25 C30 1_555 1_555
C29 C30 1_555 1_555

#END
