
#######################################################################
#
#                 Cambridge Crystallographic Data Centre
#                                CCDC 
#
#######################################################################
#
# If this CIF has been generated from an entry in the Cambridge 
# Structural Database, then it will include bibliographic, chemical, 
# crystal, experimental, refinement or atomic coordinate data resulting 
# from the CCDC's data processing and validation procedures.
#
#######################################################################

data_ARIRAU
_chemical_formula_moiety         'C30 H36 N2 O3 Si2'
_chemical_name_systematic        
rac-1,3-bis(2-(Dimethylaminomethyl)phenyl)-1,3-diphenyldisiloxane-1,3-diol
_symmetry_cell_setting           orthorhombic
_symmetry_space_group_name_H-M   'I b a 2'
_symmetry_Int_Tables_number      45
_space_group_name_Hall           'I 2 -2c'
loop_
_symmetry_equiv_pos_site_id
_symmetry_equiv_pos_as_xyz
1 x,y,z
2 -x,-y,z
3 1/2+x,1/2-y,z
4 1/2-x,1/2+y,z
5 1/2+x,1/2+y,1/2+z
6 1/2-x,1/2-y,1/2+z
7 x,-y,1/2+z
8 -x,y,1/2+z
_cell_length_a                   19.212(9)
_cell_length_b                   8.985(4)
_cell_length_c                   16.867(8)
_cell_angle_alpha                90
_cell_angle_beta                 90
_cell_angle_gamma                90
_cell_volume                     2911.58
_exptl_crystal_colour            colorless
_cell_formula_units_Z            4
_exptl_crystal_recrystallization_method 'diethyl ether'
loop_
_atom_site_label
_atom_site_type_symbol
_atom_site_fract_x
_atom_site_fract_y
_atom_site_fract_z
Si1 Si 0.08097(4) 0.02703(8) 0.59147(6)
O1 O 0.12799(14) -0.1136(3) 0.61827(18)
C1 C 0.09603(16) -0.0501(4) 0.4234(2)
O2 O 0.0000 0.0000 0.6147(2)
C2 C 0.08863(14) 0.0627(4) 0.4820(2)
C3 C 0.08488(15) 0.2094(4) 0.4567(2)
H1 H 0.0804 0.2841 0.4945
C4 C 0.18313(16) 0.2153(4) 0.6604(2)
H2 H 0.2145 0.1444 0.6420
C5 C 0.11156(15) 0.1945(3) 0.64688(17)
C6 C 0.06685(17) 0.3034(4) 0.6755(2)
H3 H 0.0191 0.2932 0.6680
N1 N 0.16105(13) -0.2602(3) 0.4872(2)
C7 C 0.08762(19) 0.2492(6) 0.3767(3)
H4 H 0.0839 0.3485 0.3617
C8 C 0.09971(19) -0.0071(7) 0.3435(3)
H5 H 0.1049 -0.0797 0.3046
C9 C 0.0958(2) 0.1417(6) 0.3212(2)
H6 H 0.0988 0.1675 0.2679
C10 C 0.09778(17) -0.2124(4) 0.4433(2)
H7 H 0.0571 -0.2362 0.4750
H8 H 0.0947 -0.2691 0.3945
C11 C 0.0928(2) 0.4290(5) 0.7156(3)
H9 H 0.0623 0.5012 0.7345
C12 C 0.20782(18) 0.3383(4) 0.7001(3)
H10 H 0.2554 0.3489 0.7088
C13 C 0.1629(2) 0.4450(4) 0.7268(2)
H11 H 0.1800 0.5287 0.7528
C14 C 0.2233(2) -0.2350(6) 0.4396(3)
H12 H 0.2637 -0.2654 0.4691
H13 H 0.2270 -0.1311 0.4269
H14 H 0.2204 -0.2919 0.3916
C15 C 0.1558(3) -0.4172(5) 0.5079(3)
H15 H 0.1966 -0.4470 0.5366
H16 H 0.1519 -0.4754 0.4603
H17 H 0.1153 -0.4327 0.5403
H18 H 0.142(2) -0.162(5) 0.570(3)
Si1A Si -0.08097(4) -0.02703(8) 0.59147(6)
O1A O -0.12799(14) 0.1136(3) 0.61827(18)
H18A H -0.142(2) 0.162(5) 0.570(3)
C2A C -0.08863(14) -0.0627(4) 0.4820(2)
C1A C -0.09603(16) 0.0501(4) 0.4234(2)
C8A C -0.09971(19) 0.0071(7) 0.3435(3)
H5A H -0.1049 0.0797 0.3046
C9A C -0.0958(2) -0.1417(6) 0.3212(2)
C7A C -0.08762(19) -0.2492(6) 0.3767(3)
C3A C -0.08488(15) -0.2094(4) 0.4567(2)
H1A H -0.0804 -0.2841 0.4945
H4A H -0.0839 -0.3485 0.3617
H6A H -0.0988 -0.1675 0.2679
C10A C -0.09778(17) 0.2124(4) 0.4433(2)
N1A N -0.16105(13) 0.2602(3) 0.4872(2)
C14A C -0.2233(2) 0.2350(6) 0.4396(3)
H12A H -0.2637 0.2654 0.4691
H13A H -0.2270 0.1311 0.4269
H14A H -0.2204 0.2919 0.3916
C15A C -0.1558(3) 0.4172(5) 0.5079(3)
H15A H -0.1966 0.4470 0.5366
H16A H -0.1519 0.4754 0.4603
H17A H -0.1153 0.4327 0.5403
H7A H -0.0571 0.2362 0.4750
H8A H -0.0947 0.2691 0.3945
C5A C -0.11156(15) -0.1945(3) 0.64688(17)
C4A C -0.18313(16) -0.2153(4) 0.6604(2)
H2A H -0.2145 -0.1444 0.6420
C12A C -0.20782(18) -0.3383(4) 0.7001(3)
H10A H -0.2554 -0.3489 0.7088
C13A C -0.1629(2) -0.4450(4) 0.7268(2)
C11A C -0.0928(2) -0.4290(5) 0.7156(3)
C6A C -0.06685(17) -0.3034(4) 0.6755(2)
H3A H -0.0191 -0.2932 0.6680
H9A H -0.0623 -0.5012 0.7345
H11A H -0.1800 -0.5287 0.7528
loop_
_geom_bond_atom_site_label_1
_geom_bond_atom_site_label_2
_geom_bond_site_symmetry_1
_geom_bond_site_symmetry_2
Si1 O1 1_555 1_555
O1 H18 1_555 1_555
C1 C2 1_555 1_555
O2 Si1 1_555 1_555
C2 Si1 1_555 1_555
C3 C2 1_555 1_555
H1 C3 1_555 1_555
C4 H2 1_555 1_555
C5 Si1 1_555 1_555
C6 C5 1_555 1_555
H3 C6 1_555 1_555
N1 C10 1_555 1_555
C7 C3 1_555 1_555
H4 C7 1_555 1_555
C8 C1 1_555 1_555
H5 C8 1_555 1_555
C9 C7 1_555 1_555
H6 C9 1_555 1_555
C10 C1 1_555 1_555
H7 C10 1_555 1_555
H8 C10 1_555 1_555
C11 C6 1_555 1_555
H9 C11 1_555 1_555
C12 C4 1_555 1_555
H10 C12 1_555 1_555
C13 C11 1_555 1_555
H11 C13 1_555 1_555
C14 N1 1_555 1_555
H12 C14 1_555 1_555
H13 C14 1_555 1_555
H14 C14 1_555 1_555
C15 N1 1_555 1_555
H15 C15 1_555 1_555
H16 C15 1_555 1_555
H17 C15 1_555 1_555
Si1A O2 1_555 1_555
O1A Si1A 1_555 1_555
H18A O1A 1_555 1_555
C2A Si1A 1_555 1_555
C1A C2A 1_555 1_555
C8A C1A 1_555 1_555
H5A C8A 1_555 1_555
C9A C8A 1_555 1_555
C7A C9A 1_555 1_555
C3A C2A 1_555 1_555
H1A C3A 1_555 1_555
H4A C7A 1_555 1_555
H6A C9A 1_555 1_555
C10A C1A 1_555 1_555
N1A C10A 1_555 1_555
C14A N1A 1_555 1_555
H12A C14A 1_555 1_555
H13A C14A 1_555 1_555
H14A C14A 1_555 1_555
C15A N1A 1_555 1_555
H15A C15A 1_555 1_555
H16A C15A 1_555 1_555
H17A C15A 1_555 1_555
H7A C10A 1_555 1_555
H8A C10A 1_555 1_555
C5A Si1A 1_555 1_555
C4A C5A 1_555 1_555
H2A C4A 1_555 1_555
C12A C4A 1_555 1_555
H10A C12A 1_555 1_555
C13A C12A 1_555 1_555
C11A C13A 1_555 1_555
C6A C5A 1_555 1_555
H3A C6A 1_555 1_555
H9A C11A 1_555 1_555
H11A C13A 1_555 1_555
C4 C5 1_555 1_555
C8 C9 1_555 1_555
C12 C13 1_555 1_555
C7A C3A 1_555 1_555
C11A C6A 1_555 1_555

#END
