
#######################################################################
#
#                 Cambridge Crystallographic Data Centre
#                                CCDC 
#
#######################################################################
#
# If this CIF has been generated from an entry in the Cambridge 
# Structural Database, then it will include bibliographic, chemical, 
# crystal, experimental, refinement or atomic coordinate data resulting 
# from the CCDC's data processing and validation procedures.
#
#######################################################################

data_ARIRID
_chemical_formula_moiety         'C23 H23 N1 Si1'
_chemical_name_systematic        
N-(9H-Fluoren-9-ylidene(phenyl)methyl)-1,1,1-trimethylsilanamine
_symmetry_cell_setting           orthorhombic
_symmetry_space_group_name_H-M   'P b c a'
_symmetry_Int_Tables_number      61
_space_group_name_Hall           '-P 2ac 2ab'
loop_
_symmetry_equiv_pos_site_id
_symmetry_equiv_pos_as_xyz
1 x,y,z
2 1/2-x,-y,1/2+z
3 -x,1/2+y,1/2-z
4 1/2+x,1/2-y,-z
5 -x,-y,-z
6 1/2+x,y,1/2-z
7 x,1/2-y,1/2+z
8 1/2-x,1/2+y,z
_cell_length_a                   18.334(4)
_cell_length_b                   6.7957(14)
_cell_length_c                   31.270(6)
_cell_angle_alpha                90
_cell_angle_beta                 90
_cell_angle_gamma                90
_cell_volume                     3896
_exptl_crystal_colour            colorless
_exptl_crystal_description       block
_cell_formula_units_Z            8
loop_
_atom_site_label
_atom_site_type_symbol
_atom_site_fract_x
_atom_site_fract_y
_atom_site_fract_z
Si1 Si 0.40513(7) 0.55993(18) 0.07899(4)
C1 C 0.4409(2) 1.0619(6) 0.17460(13)
C2 C 0.5686(2) 1.0852(6) 0.16493(12)
C3 C 0.6433(2) 1.0676(7) 0.15556(14)
H1 H 0.6599 0.9696 0.1362
C4 C 0.5970(3) 1.3581(7) 0.21380(13)
H2 H 0.5814 1.4555 0.2336
N1 N 0.4425(2) 0.6807(5) 0.12353(11)
H3 H 0.4205 0.6570 0.1480
C5 C 0.3649(2) 1.0276(7) 0.17383(14)
H4 H 0.3453 0.9238 0.1570
C6 C 0.5465(2) 1.2329(6) 0.19418(13)
C7 C 0.5034(2) 0.9697(6) 0.15190(12)
C8 C 0.6042(2) 0.5814(6) 0.10580(14)
H5 H 0.5890 0.4949 0.1279
C9 C 0.5863(2) 0.8748(7) 0.06407(13)
H6 H 0.5592 0.9908 0.0580
C10 C 0.5019(2) 0.8085(6) 0.12590(12)
C11 C 0.4210(3) 1.3391(7) 0.22348(14)
H7 H 0.4399 1.4442 0.2401
C12 C 0.4672(2) 1.2216(6) 0.19931(13)
C13 C 0.6702(3) 1.3374(7) 0.20384(15)
H8 H 0.7052 1.4213 0.2169
C14 C 0.6930(2) 1.1953(7) 0.17494(15)
H9 H 0.7433 1.1847 0.1682
C15 C 0.6654(3) 0.5356(7) 0.08124(15)
H10 H 0.6929 0.4207 0.0874
C16 C 0.6464(2) 0.8272(7) 0.03904(14)
H11 H 0.6604 0.9103 0.0160
C17 C 0.5652(2) 0.7543(6) 0.09797(12)
C18 C 0.3465(3) 1.3003(8) 0.22292(15)
H12 H 0.3143 1.3785 0.2396
C19 C 0.6861(2) 0.6575(7) 0.04778(14)
H13 H 0.7273 0.6250 0.0308
C20 C 0.3188(2) 1.1477(8) 0.19801(15)
H14 H 0.2677 1.1248 0.1975
C21 C 0.4617(3) 0.3495(8) 0.06037(17)
H15 H 0.4677 0.2550 0.0838
H16 H 0.5096 0.3977 0.0513
H17 H 0.4375 0.2849 0.0362
C22 C 0.3920(3) 0.7446(8) 0.03543(16)
H18 H 0.4396 0.7917 0.0256
H19 H 0.3634 0.8558 0.0463
H20 H 0.3659 0.6833 0.0115
C23 C 0.3149(3) 0.4695(8) 0.09793(17)
H21 H 0.3221 0.3727 0.1208
H22 H 0.2887 0.4079 0.0741
H23 H 0.2863 0.5804 0.1089
loop_
_geom_bond_atom_site_label_1
_geom_bond_atom_site_label_2
_geom_bond_site_symmetry_1
_geom_bond_site_symmetry_2
Si1 N1 1_555 1_555
C1 C5 1_555 1_555
C2 C3 1_555 1_555
C3 H1 1_555 1_555
C4 H2 1_555 1_555
N1 H3 1_555 1_555
C5 H4 1_555 1_555
C6 C2 1_555 1_555
C7 C1 1_555 1_555
C8 H5 1_555 1_555
C9 H6 1_555 1_555
C10 N1 1_555 1_555
C11 H7 1_555 1_555
C12 C1 1_555 1_555
C13 C4 1_555 1_555
H8 C13 1_555 1_555
C14 C3 1_555 1_555
H9 C14 1_555 1_555
C15 C8 1_555 1_555
H10 C15 1_555 1_555
C16 C9 1_555 1_555
H11 C16 1_555 1_555
C17 C8 1_555 1_555
C18 C11 1_555 1_555
H12 C18 1_555 1_555
C19 C15 1_555 1_555
H13 C19 1_555 1_555
C20 C5 1_555 1_555
H14 C20 1_555 1_555
C21 Si1 1_555 1_555
H15 C21 1_555 1_555
H16 C21 1_555 1_555
H17 C21 1_555 1_555
C22 Si1 1_555 1_555
H18 C22 1_555 1_555
H19 C22 1_555 1_555
H20 C22 1_555 1_555
C23 Si1 1_555 1_555
H21 C23 1_555 1_555
H22 C23 1_555 1_555
H23 C23 1_555 1_555
C2 C7 1_555 1_555
C4 C6 1_555 1_555
C6 C12 1_555 1_555
C7 C10 1_555 1_555
C9 C17 1_555 1_555
C10 C17 1_555 1_555
C11 C12 1_555 1_555
C13 C14 1_555 1_555
C16 C19 1_555 1_555
C18 C20 1_555 1_555

#END
