
#######################################################################
#
#                 Cambridge Crystallographic Data Centre
#                                CCDC 
#
#######################################################################
#
# If this CIF has been generated from an entry in the Cambridge 
# Structural Database, then it will include bibliographic, chemical, 
# crystal, experimental, refinement or atomic coordinate data resulting 
# from the CCDC's data processing and validation procedures.
#
#######################################################################

data_ARITOM
_chemical_formula_moiety         'C28 H36 B20 Br2'
_chemical_name_systematic        
1,1'-(biphenyl-4,4'-diyl)-2,2'-bis(4-bromophenyl)bis(1,2-dicarba-closo-dodecaborane)
_symmetry_cell_setting           monoclinic
_symmetry_space_group_name_H-M   'C 2/c'
_symmetry_Int_Tables_number      15
_space_group_name_Hall           '-C 2yn'
loop_
_symmetry_equiv_pos_site_id
_symmetry_equiv_pos_as_xyz
1 x,y,z
2 -x,y,1/2-z
3 1/2+x,1/2+y,z
4 1/2-x,1/2+y,1/2-z
5 -x,-y,-z
6 x,-y,1/2+z
7 1/2-x,1/2-y,-z
8 1/2+x,1/2-y,1/2+z
_cell_length_a                   21.3146(16)
_cell_length_b                   14.7729(11)
_cell_length_c                   11.4903(9)
_cell_angle_alpha                90
_cell_angle_beta                 96.186(5)
_cell_angle_gamma                90
_cell_volume                     3596.98
_exptl_crystal_colour            colorless
_exptl_crystal_description       Cubic
_cell_formula_units_Z            4
loop_
_atom_site_label
_atom_site_type_symbol
_atom_site_fract_x
_atom_site_fract_y
_atom_site_fract_z
C1 C 0.16108(9) 0.74053(13) 0.22603(15)
C2 C 0.13948(9) 0.64813(14) 0.13621(16)
C3 C 0.09770(8) 0.66078(13) 0.02258(15)
C4 C 0.12311(9) 0.67909(15) -0.08093(17)
H1 H 0.1664 0.6881 -0.0795
C5 C 0.08506(9) 0.68425(15) -0.18674(17)
H2 H 0.1032 0.6980 -0.2547
C6 C 0.02025(9) 0.66926(13) -0.19285(16)
C7 C -0.00477(9) 0.65080(16) -0.08890(17)
H3 H -0.0479 0.6409 -0.0904
C8 C 0.03305(10) 0.64672(16) 0.01763(18)
H4 H 0.0149 0.6345 0.0860
C9 C 0.13636(9) 0.83232(14) 0.18877(17)
C10 C 0.10063(12) 0.88025(16) 0.2614(2)
H5 H 0.0919 0.8545 0.3317
C11 C 0.07765(12) 0.96578(17) 0.2314(2)
H6 H 0.0548 0.9980 0.2822
C12 C 0.08898(11) 1.00249(15) 0.1256(2)
C13 C 0.12498(11) 0.95761(16) 0.0526(2)
H7 H 0.1332 0.9836 -0.0179
C14 C 0.14912(11) 0.87295(15) 0.08468(19)
H8 H 0.1743 0.8429 0.0358
B1 B 0.14899(13) 0.58968(19) 0.3681(2)
B2 B 0.10686(11) 0.66273(17) 0.26616(19)
B3 B 0.16740(12) 0.70630(18) 0.36997(19)
B4 B 0.22961(12) 0.62620(18) 0.3862(2)
B5 B 0.20722(13) 0.53262(19) 0.2941(2)
B6 B 0.13109(12) 0.55467(17) 0.2200(2)
B7 B 0.19937(12) 0.57109(18) 0.1463(2)
B8 B 0.26032(12) 0.61633(19) 0.2482(2)
B9 B 0.23559(11) 0.72356(19) 0.2965(2)
B10 B 0.21586(10) 0.68875(17) 0.1487(2)
H9 H 0.1244(12) 0.5609(18) 0.436(2)
H10 H 0.0573(10) 0.6848(14) 0.2621(18)
H11 H 0.1562(10) 0.7530(16) 0.432(2)
H12 H 0.2572(13) 0.6216(16) 0.466(2)
H13 H 0.2212(12) 0.4640(19) 0.315(2)
H14 H 0.0926(10) 0.5081(15) 0.1846(19)
H15 H 0.2054(10) 0.5334(16) 0.068(2)
H16 H 0.3083(13) 0.6042(16) 0.237(2)
H17 H 0.2647(10) 0.7835(15) 0.3077(18)
H18 H 0.2311(10) 0.7242(15) 0.0752(19)
Br1 Br 0.05331(2) 1.11725(2) 0.08315(3)
C1A C -0.16108(9) 0.74053(13) -0.72603(15)
C2A C -0.13948(9) 0.64813(14) -0.63621(16)
C3A C -0.09770(8) 0.66078(13) -0.52258(15)
C4A C -0.12311(9) 0.67909(15) -0.41907(17)
H1A H -0.1664 0.6881 -0.4205
C5A C -0.08506(9) 0.68425(15) -0.31326(17)
H2A H -0.1032 0.6980 -0.2453
C6A C -0.02025(9) 0.66926(13) -0.30715(16)
C7A C 0.00477(9) 0.65080(16) -0.41110(17)
H3A H 0.0479 0.6409 -0.4096
C8A C -0.03305(10) 0.64672(16) -0.51763(18)
H4A H -0.0149 0.6345 -0.5860
C9A C -0.13636(9) 0.83232(14) -0.68877(17)
C10A C -0.10063(12) 0.88025(16) -0.7614(2)
H5A H -0.0919 0.8545 -0.8317
C11A C -0.07765(12) 0.96578(17) -0.7314(2)
H6A H -0.0548 0.9980 -0.7822
C12A C -0.08898(11) 1.00249(15) -0.6256(2)
C13A C -0.12498(11) 0.95761(16) -0.5526(2)
H7A H -0.1332 0.9836 -0.4821
C14A C -0.14912(11) 0.87295(15) -0.58468(19)
H8A H -0.1743 0.8429 -0.5358
B1A B -0.14899(13) 0.58968(19) -0.8681(2)
B2A B -0.10686(11) 0.66273(17) -0.76616(19)
B3A B -0.16740(12) 0.70630(18) -0.86997(19)
B4A B -0.22961(12) 0.62620(18) -0.8862(2)
B5A B -0.20722(13) 0.53262(19) -0.7941(2)
B6A B -0.13109(12) 0.55467(17) -0.7200(2)
B7A B -0.19937(12) 0.57109(18) -0.6463(2)
B8A B -0.26032(12) 0.61633(19) -0.7482(2)
B9A B -0.23559(11) 0.72356(19) -0.7965(2)
B10A B -0.21586(10) 0.68875(17) -0.6487(2)
H9A H -0.1244(12) 0.5609(18) -0.936(2)
H10A H -0.0573(10) 0.6848(14) -0.7621(18)
H11A H -0.1562(10) 0.7530(16) -0.932(2)
H12A H -0.2572(13) 0.6216(16) -0.966(2)
H13A H -0.2212(12) 0.4640(19) -0.815(2)
H14A H -0.0926(10) 0.5081(15) -0.6846(19)
H15A H -0.2054(10) 0.5334(16) -0.568(2)
H16A H -0.3083(13) 0.6042(16) -0.737(2)
H17A H -0.2647(10) 0.7835(15) -0.8077(18)
H18A H -0.2311(10) 0.7242(15) -0.5752(19)
Br1A Br -0.05331(2) 1.11725(2) -0.58315(3)
loop_
_geom_bond_atom_site_label_1
_geom_bond_atom_site_label_2
_geom_bond_site_symmetry_1
_geom_bond_site_symmetry_2
C1 C2 1_555 1_555
C2 C3 1_555 1_555
C3 C4 1_555 1_555
C4 H1 1_555 1_555
C5 C4 1_555 1_555
H2 C5 1_555 1_555
C6 C5 1_555 1_555
C7 C6 1_555 1_555
H3 C7 1_555 1_555
C8 C3 1_555 1_555
H4 C8 1_555 1_555
C9 C1 1_555 1_555
C10 C9 1_555 1_555
H5 C10 1_555 1_555
C11 C10 1_555 1_555
H6 C11 1_555 1_555
C12 C11 1_555 1_555
C13 C12 1_555 1_555
H7 C13 1_555 1_555
C14 C9 1_555 1_555
H8 C14 1_555 1_555
B1 B2 1_555 1_555
B2 C1 1_555 1_555
B3 C1 1_555 1_555
B4 B1 1_555 1_555
B5 B1 1_555 1_555
B6 C2 1_555 1_555
B7 C2 1_555 1_555
B8 B4 1_555 1_555
B9 C1 1_555 1_555
B10 C1 1_555 1_555
H9 B1 1_555 1_555
H10 B2 1_555 1_555
H11 B3 1_555 1_555
H12 B4 1_555 1_555
H13 B5 1_555 1_555
H14 B6 1_555 1_555
H15 B7 1_555 1_555
H16 B8 1_555 1_555
H17 B9 1_555 1_555
H18 B10 1_555 1_555
Br1 C12 1_555 1_555
C1A C2A 1_555 1_555
C2A C3A 1_555 1_555
C3A C4A 1_555 1_555
C4A H1A 1_555 1_555
C5A C4A 1_555 1_555
H2A C5A 1_555 1_555
C6A C6 1_555 1_555
C7A C6A 1_555 1_555
H3A C7A 1_555 1_555
C8A C3A 1_555 1_555
H4A C8A 1_555 1_555
C9A C1A 1_555 1_555
C10A C9A 1_555 1_555
H5A C10A 1_555 1_555
C11A C10A 1_555 1_555
H6A C11A 1_555 1_555
C12A C11A 1_555 1_555
C13A C12A 1_555 1_555
H7A C13A 1_555 1_555
C14A C9A 1_555 1_555
H8A C14A 1_555 1_555
B1A B2A 1_555 1_555
B2A C1A 1_555 1_555
B3A C1A 1_555 1_555
B4A B1A 1_555 1_555
B5A B1A 1_555 1_555
B6A C2A 1_555 1_555
B7A C2A 1_555 1_555
B8A B4A 1_555 1_555
B9A C1A 1_555 1_555
B10A C1A 1_555 1_555
H9A B1A 1_555 1_555
H10A B2A 1_555 1_555
H11A B3A 1_555 1_555
H12A B4A 1_555 1_555
H13A B5A 1_555 1_555
H14A B6A 1_555 1_555
H15A B7A 1_555 1_555
H16A B8A 1_555 1_555
H17A B9A 1_555 1_555
H18A B10A 1_555 1_555
Br1A C12A 1_555 1_555
C2 B2 1_555 1_555
C2 B10 1_555 1_555
C7 C8 1_555 1_555
C13 C14 1_555 1_555
B1 B3 1_555 1_555
B1 B6 1_555 1_555
B2 B3 1_555 1_555
B2 B6 1_555 1_555
B3 B4 1_555 1_555
B3 B9 1_555 1_555
B4 B5 1_555 1_555
B4 B9 1_555 1_555
B5 B6 1_555 1_555
B5 B7 1_555 1_555
B5 B8 1_555 1_555
B6 B7 1_555 1_555
B7 B8 1_555 1_555
B7 B10 1_555 1_555
B8 B9 1_555 1_555
B8 B10 1_555 1_555
B9 B10 1_555 1_555
C2A B2A 1_555 1_555
C2A B10A 1_555 1_555
C5A C6A 1_555 1_555
C7A C8A 1_555 1_555
C13A C14A 1_555 1_555
B1A B3A 1_555 1_555
B1A B6A 1_555 1_555
B2A B3A 1_555 1_555
B2A B6A 1_555 1_555
B3A B4A 1_555 1_555
B3A B9A 1_555 1_555
B4A B5A 1_555 1_555
B4A B9A 1_555 1_555
B5A B6A 1_555 1_555
B5A B7A 1_555 1_555
B5A B8A 1_555 1_555
B6A B7A 1_555 1_555
B7A B8A 1_555 1_555
B7A B10A 1_555 1_555
B8A B9A 1_555 1_555
B8A B10A 1_555 1_555
B9A B10A 1_555 1_555

#END
