
#######################################################################
#
#                 Cambridge Crystallographic Data Centre
#                                CCDC 
#
#######################################################################
#
# If this CIF has been generated from an entry in the Cambridge 
# Structural Database, then it will include bibliographic, chemical, 
# crystal, experimental, refinement or atomic coordinate data resulting 
# from the CCDC's data processing and validation procedures.
#
#######################################################################

data_ARIVOM
_chemical_formula_moiety         'C24 H30 O1 Si1'
_chemical_name_systematic        
9-(4-Biphenyl)-9-(trimethylsiloxy)bicyclo[4.2.1]non-2-ene
_symmetry_cell_setting           monoclinic
_symmetry_space_group_name_H-M   'P 21/n'
_symmetry_Int_Tables_number      14
_space_group_name_Hall           '-P 2yn'
loop_
_symmetry_equiv_pos_site_id
_symmetry_equiv_pos_as_xyz
1 x,y,z
2 1/2+x,1/2-y,1/2+z
3 -x,-y,-z
4 1/2-x,1/2+y,1/2-z
_cell_length_a                   17.722(6)
_cell_length_b                   7.263(2)
_cell_length_c                   18.688(6)
_cell_angle_alpha                90
_cell_angle_beta                 117.818(5)
_cell_angle_gamma                90
_cell_volume                     2127.44
_exptl_crystal_colour            colorless
_chemical_melting_point          68-70deg.C
_cell_formula_units_Z            4
_exptl_crystal_recrystallization_method 'petroleum ether/dichloromethane'
loop_
_atom_site_label
_atom_site_type_symbol
_atom_site_fract_x
_atom_site_fract_y
_atom_site_fract_z
Si1 Si 0.67288(10) 0.38760(18) 0.52457(9)
O1 O 0.77130(19) 0.3456(4) 0.59312(17)
C1 C 0.8446(3) 0.4613(6) 0.6410(3)
C2 C 0.9180(4) 0.3185(6) 0.6828(3)
H1 H 0.915(2) 0.238(4) 0.6372(17)
C3 C 1.0069(3) 0.4046(6) 0.7255(3)
H2 H 1.0482 0.3070 0.7363
H3 H 1.0122 0.4889 0.6878
C4 C 1.0325(3) 0.5079(7) 0.8041(3)
H4 H 1.0322 0.4214 0.8435
H5 H 1.0908 0.5502 0.8239
C5 C 0.9798(4) 0.6671(7) 0.8011(3)
H6 H 1.0092 0.7684 0.8318
C6 C 0.8966(4) 0.6848(7) 0.7607(3)
C7 C 0.8335(3) 0.5362(7) 0.7113(3)
C8 C 0.8417(3) 0.3638(6) 0.7631(3)
H7 H 0.8725 0.3934 0.8203
H8 H 0.7858 0.3171 0.7511
C9 C 0.8910(3) 0.2210(6) 0.7408(3)
H9 H 0.8550 0.1158 0.7143
H10 H 0.9408 0.1787 0.7889
C10 C 0.8552(3) 0.5979(6) 0.5850(2)
C11 C 0.8261(3) 0.7770(6) 0.5771(3)
H11 H 0.8053 0.8202 0.6113
C12 C 0.8276(3) 0.8957(6) 0.5179(3)
H12 H 0.8068 1.0150 0.5133
C13 C 0.8591(3) 0.8382(7) 0.4670(3)
C14 C 0.8880(3) 0.6575(7) 0.4746(3)
H13 H 0.9091 0.6149 0.4405
C15 C 0.8859(3) 0.5393(6) 0.5321(3)
H14 H 0.9052 0.4190 0.5355
C16 C 0.8586(4) 0.9624(6) 0.4047(3)
C17 C 0.9254(3) 0.9690(6) 0.3875(3)
H15 H 0.9732 0.8956 0.4163
C18 C 0.9224(4) 1.0843(8) 0.3274(4)
H16 H 0.9686 1.0879 0.3166
C19 C 0.8535(4) 1.1923(8) 0.2838(3)
H17 H 0.8521 1.2672 0.2428
C20 C 0.7862(4) 1.1902(7) 0.3006(3)
H18 H 0.7392 1.2654 0.2717
C21 C 0.7886(3) 1.0751(7) 0.3611(3)
H19 H 0.7429 1.0735 0.3724
C22 C 0.6178(3) 0.1656(5) 0.5212(2)
H20 H 0.6491 0.0653 0.5142
H21 H 0.5611 0.1679 0.4767
H22 H 0.6149 0.1496 0.5709
C23 C 0.6195(3) 0.5772(6) 0.5522(3)
H23 H 0.6147 0.5425 0.5996
H24 H 0.5636 0.5984 0.5082
H25 H 0.6527 0.6877 0.5631
C24 C 0.6659(3) 0.4416(5) 0.4257(2)
H26 H 0.6838 0.5664 0.4257
H27 H 0.6080 0.4272 0.3842
H28 H 0.7021 0.3596 0.4153
H29 H 0.866(2) 0.799(5) 0.767(2)
H30 H 0.776(2) 0.579(5) 0.6896(19)
loop_
_geom_bond_atom_site_label_1
_geom_bond_atom_site_label_2
_geom_bond_site_symmetry_1
_geom_bond_site_symmetry_2
Si1 O1 1_555 1_555
O1 C1 1_555 1_555
C1 C2 1_555 1_555
C2 H1 1_555 1_555
C3 C2 1_555 1_555
H2 C3 1_555 1_555
H3 C3 1_555 1_555
C4 C3 1_555 1_555
H4 C4 1_555 1_555
H5 C4 1_555 1_555
C5 C4 1_555 1_555
H6 C5 1_555 1_555
C6 C5 1_555 1_555
C7 C1 1_555 1_555
C8 C7 1_555 1_555
H7 C8 1_555 1_555
H8 C8 1_555 1_555
C9 C2 1_555 1_555
H9 C9 1_555 1_555
H10 C9 1_555 1_555
C10 C1 1_555 1_555
C11 C10 1_555 1_555
H11 C11 1_555 1_555
C12 C11 1_555 1_555
H12 C12 1_555 1_555
C13 C12 1_555 1_555
C14 C13 1_555 1_555
H13 C14 1_555 1_555
C15 C10 1_555 1_555
H14 C15 1_555 1_555
C16 C13 1_555 1_555
C17 C16 1_555 1_555
H15 C17 1_555 1_555
C18 C17 1_555 1_555
H16 C18 1_555 1_555
C19 C18 1_555 1_555
H17 C19 1_555 1_555
C20 C19 1_555 1_555
H18 C20 1_555 1_555
C21 C16 1_555 1_555
H19 C21 1_555 1_555
C22 Si1 1_555 1_555
H20 C22 1_555 1_555
H21 C22 1_555 1_555
H22 C22 1_555 1_555
C23 Si1 1_555 1_555
H23 C23 1_555 1_555
H24 C23 1_555 1_555
H25 C23 1_555 1_555
C24 Si1 1_555 1_555
H26 C24 1_555 1_555
H27 C24 1_555 1_555
H28 C24 1_555 1_555
H29 C6 1_555 1_555
H30 C7 1_555 1_555
C6 C7 1_555 1_555
C8 C9 1_555 1_555
C14 C15 1_555 1_555
C20 C21 1_555 1_555

#END
