
#######################################################################
#
#                 Cambridge Crystallographic Data Centre
#                                CCDC 
#
#######################################################################
#
# If this CIF has been generated from an entry in the Cambridge 
# Structural Database, then it will include bibliographic, chemical, 
# crystal, experimental, refinement or atomic coordinate data resulting 
# from the CCDC's data processing and validation procedures.
#
#######################################################################

data_AROBUG
_chemical_formula_moiety         
'C36 H32 N4 2+,C28 H34 N4 3+,5(F6 P1 1-),4(C2 H3 N1)'
_chemical_name_systematic        
'1,6(1,4)-dibenzena-3,8(1,4)-dipyridinia-4,9(4,1)-dipyridinacyclodecaphane diradical 1-(2-(3,5-dimethylpyridinium-1-yl)ethyl)-4-(1-(2-(3,5-dimethylpyridinium-1-yl)ethyl)pyridin-4-yl)pyridinium radical pentakis(hexafluorophosphate) acetonitrile unknown solvate'
_symmetry_cell_setting           triclinic
_symmetry_space_group_name_H-M   'P -1'
_symmetry_Int_Tables_number      2
_space_group_name_Hall           '-P 1'
loop_
_symmetry_equiv_pos_site_id
_symmetry_equiv_pos_as_xyz
1 x,y,z
2 -x,-y,-z
_cell_length_a                   13.9238(14)
_cell_length_b                   18.0258(17)
_cell_length_c                   19.2008(18)
_cell_angle_alpha                87.542(5)
_cell_angle_beta                 74.700(6)
_cell_angle_gamma                83.934(6)
_cell_volume                     4621.77
_exptl_crystal_colour            purple
_exptl_crystal_description       needle
_cell_formula_units_Z            2
loop_
_atom_site_label
_atom_site_type_symbol
_atom_site_fract_x
_atom_site_fract_y
_atom_site_fract_z
P1 P -0.3197(4) 0.8124(2) 0.3542(3)
F1 F -0.3207(9) 0.7474(5) 0.2995(7)
F2 F -0.3158(12) 0.8774(5) 0.4071(9)
F3 F -0.3941(16) 0.8620(7) 0.3185(13)
F4 F -0.4031(8) 0.7748(7) 0.4142(8)
F5 F -0.2355(9) 0.7657(6) 0.3851(5)
F6 F -0.2231(13) 0.8417(8) 0.2909(7)
P2 P 0.0224(3) 0.77998(12) 0.02748(13)
F7 F 0.0913(7) 0.8005(5) 0.0744(5)
F8 F -0.0545(8) 0.7595(7) -0.0150(5)
F9 F 0.1092(7) 0.7535(14) -0.0396(7)
F10 F 0.0304(13) 0.8595(5) -0.0095(6)
F11 F -0.0608(10) 0.8166(7) 0.0926(7)
F12 F -0.0039(10) 0.7091(5) 0.0762(6)
P3 P 0.3312(6) 0.7895(7) 0.2127(6)
F13 F 0.3328(13) 0.7271(9) 0.1594(8)
F14 F 0.3211(15) 0.8540(10) 0.2648(10)
F15 F 0.2321(17) 0.8329(12) 0.1903(10)
F16 F 0.2621(9) 0.7468(8) 0.2751(8)
F17 F 0.4215(11) 0.7620(15) 0.2333(11)
F18 F 0.3999(18) 0.8328(14) 0.1555(14)
P4 P -0.3287(3) 0.20639(19) 0.2898(3)
F19 F -0.3214(7) 0.1416(5) 0.2328(8)
F20 F -0.3285(7) 0.2699(4) 0.3439(6)
F21 F -0.4232(8) 0.2490(6) 0.2659(9)
F22 F -0.3998(9) 0.1638(7) 0.3532(10)
F23 F -0.2299(8) 0.1639(6) 0.3129(9)
F24 F -0.2567(6) 0.2523(4) 0.2238(6)
P5 P 0.3241(3) 0.18604(16) 0.1392(3)
F25 F 0.3232(10) 0.1199(5) 0.0859(9)
F26 F 0.3173(7) 0.2514(5) 0.1957(7)
F27 F 0.2341(6) 0.2285(4) 0.1156(5)
F28 F 0.2372(13) 0.1537(8) 0.2041(6)
F29 F 0.4071(13) 0.1431(6) 0.1674(13)
F30 F 0.3961(7) 0.2305(6) 0.0772(7)
N1 N 0.2723(4) 0.4644(3) 0.0378(3)
N2 N -0.2550(4) 0.4841(3) 0.1337(3)
N3 N -0.2690(4) 0.5294(4) 0.4621(3)
N4 N 0.2555(4) 0.5116(3) 0.3673(3)
C1 C 0.3649(5) 0.5078(4) 0.3339(4)
H1 H 0.3999 0.4661 0.3556
H2 H 0.3909 0.5548 0.3421
C2 C 0.3831(4) 0.4958(4) 0.2534(4)
C3 C 0.3831(5) 0.5575(4) 0.2064(4)
H3 H 0.3798 0.6064 0.2240
C4 C 0.3879(5) 0.5471(4) 0.1336(4)
H4 H 0.3890 0.5888 0.1015
C5 C 0.3909(5) 0.4754(4) 0.1084(4)
C6 C 0.3945(5) 0.4152(4) 0.1545(4)
H5 H 0.3992 0.3662 0.1369
C7 C 0.3915(5) 0.4251(4) 0.2266(4)
H6 H 0.3953 0.3829 0.2575
C8 C 0.3791(5) 0.4642(5) 0.0335(4)
H7 H 0.4076 0.5047 0.0006
H8 H 0.4154 0.4161 0.0143
C9 C 0.2165(5) 0.5331(4) 0.0437(3)
H9 H 0.2491 0.5776 0.0355
C10 C 0.1142(5) 0.5369(3) 0.0614(3)
H10 H 0.0764 0.5843 0.0652
C11 C 0.0629(5) 0.4701(4) 0.0744(3)
C12 C 0.1251(5) 0.4028(4) 0.0672(4)
H11 H 0.0960 0.3568 0.0740
C13 C 0.2237(5) 0.4022(4) 0.0510(4)
H12 H 0.2625 0.3553 0.0486
C14 C -0.0456(5) 0.4765(3) 0.0943(3)
C15 C -0.1047(5) 0.5451(3) 0.1015(3)
H13 H -0.0732 0.5901 0.0928
C16 C -0.2074(5) 0.5484(4) 0.1209(3)
H14 H -0.2459 0.5955 0.1256
C17 C -0.1991(5) 0.4169(4) 0.1254(4)
H15 H -0.2323 0.3726 0.1332
C18 C -0.0982(5) 0.4110(4) 0.1063(4)
H16 H -0.0616 0.3631 0.1009
C19 C -0.3643(5) 0.4920(5) 0.1679(4)
H17 H -0.3939 0.4467 0.1594
H18 H -0.3966 0.5354 0.1465
C20 C -0.3818(4) 0.5026(4) 0.2475(3)
C21 C -0.3876(5) 0.5729(4) 0.2729(4)
H19 H -0.3889 0.6149 0.2414
C22 C -0.3917(5) 0.5832(5) 0.3454(4)
H20 H -0.3957 0.6321 0.3631
C23 C -0.3899(5) 0.5217(4) 0.3919(3)
C24 C -0.3878(5) 0.4503(4) 0.3661(4)
H21 H -0.3891 0.4081 0.3977
C25 C -0.3838(4) 0.4410(4) 0.2939(3)
H22 H -0.3824 0.3925 0.2761
C26 C -0.3789(5) 0.5330(4) 0.4668(4)
H23 H -0.4127 0.5820 0.4852
H24 H -0.4098 0.4935 0.5001
C27 C -0.2252(5) 0.5939(4) 0.4512(4)
H25 H -0.2650 0.6404 0.4546
C28 C -0.1215(5) 0.5916(4) 0.4350(4)
H26 H -0.0910 0.6370 0.4298
C29 C -0.0603(5) 0.5228(4) 0.4261(3)
C30 C -0.1141(5) 0.4584(4) 0.4394(3)
H27 H -0.0776 0.4105 0.4364
C31 C -0.2133(5) 0.4628(4) 0.4560(3)
H28 H -0.2458 0.4182 0.4637
C32 C 0.0448(5) 0.5208(4) 0.4071(3)
C33 C 0.0991(5) 0.5837(4) 0.3960(4)
H29 H 0.0633 0.6318 0.4031
C34 C 0.2016(5) 0.5785(4) 0.3754(4)
H30 H 0.2349 0.6227 0.3668
C35 C 0.2072(5) 0.4501(4) 0.3788(3)
H31 H 0.2460 0.4031 0.3725
C36 C 0.1073(5) 0.4508(4) 0.3987(3)
H32 H 0.0775 0.4051 0.4074
N5 N 0.0167(8) 0.8627(5) 0.3311(5)
N6 N 0.0176(7) 0.6858(4) 0.2334(4)
N7 N -0.0058(7) 0.2975(4) 0.2632(4)
N8 N -0.0050(8) 0.1219(5) 0.1654(5)
C37 C 0.0978(14) 0.8926(8) 0.3134(11)
H33 H 0.1596 0.8659 0.2897
C38 C 0.0896(18) 0.9724(11) 0.3321(11)
C39 C 0.0102(19) 1.0121(9) 0.3588(10)
H34 H 0.0084 1.0639 0.3669
C40 C -0.0722(17) 0.9758(7) 0.3749(10)
C41 C -0.0693(14) 0.8998(7) 0.3619(9)
H35 H -0.1289 0.8754 0.3752
C42 C 0.187(2) 1.0062(11) 0.3087(17)
H36 H 0.2310 0.9791 0.2671
H37 H 0.2195 1.0028 0.3485
H38 H 0.1752 1.0587 0.2951
C43 C -0.172(3) 1.0235(12) 0.393(3)
H39 H -0.1608 1.0764 0.3894
H40 H -0.2096 1.0119 0.4428
H41 H -0.2110 1.0128 0.3597
C44 C 0.0160(8) 0.7815(5) 0.3193(5)
H42 H -0.0453 0.7636 0.3516
H43 H 0.0744 0.7536 0.3320
C45 C 0.0196(9) 0.7658(5) 0.2401(5)
H44 H -0.0386 0.7933 0.2269
H45 H 0.0815 0.7825 0.2074
C46 C 0.1006(7) 0.6376(6) 0.2216(4)
H46 H 0.1643 0.6563 0.2105
C47 C 0.0953(6) 0.5661(5) 0.2251(4)
H47 H 0.1562 0.5345 0.2133
C48 C 0.0038(6) 0.5315(5) 0.2456(4)
C49 C -0.0833(7) 0.5824(4) 0.2562(4)
H48 H -0.1468 0.5636 0.2663
C50 C -0.0784(8) 0.6583(5) 0.2523(4)
H49 H -0.1377 0.6917 0.2619
C51 C 0.0017(5) 0.4527(4) 0.2526(4)
C52 C 0.0893(6) 0.4013(5) 0.2422(4)
H50 H 0.1534 0.4193 0.2315
C53 C 0.0815(8) 0.3275(5) 0.2474(5)
H51 H 0.1414 0.2948 0.2395
C54 C -0.0928(8) 0.3450(5) 0.2780(4)
H52 H -0.1553 0.3245 0.2917
C55 C -0.0914(6) 0.4205(6) 0.2736(4)
H53 H -0.1525 0.4518 0.2846
C56 C -0.0076(11) 0.2156(5) 0.2557(6)
H54 H -0.0674 0.1980 0.2903
H55 H 0.0528 0.1881 0.2658
C57 C -0.0104(9) 0.2022(5) 0.1786(5)
H56 H -0.0730 0.2275 0.1701
H57 H 0.0466 0.2238 0.1445
C58 C 0.0803(13) 0.0832(7) 0.1373(9)
H58 H 0.1399 0.1073 0.1216
C59 C 0.0831(15) 0.0052(7) 0.1304(10)
C60 C 0.0034(14) -0.0250(7) 0.1374(9)
H59 H 0.0066 -0.0752 0.1232
C61 C -0.0838(14) 0.0123(7) 0.1640(9)
C62 C -0.0934(11) 0.0918(7) 0.1801(8)
H60 H -0.1560 0.1198 0.1991
C63 C 0.179(2) -0.0399(14) 0.111(3)
H61 H 0.1718 -0.0860 0.0881
H62 H 0.2027 -0.0522 0.1539
H63 H 0.2281 -0.0117 0.0763
C64 C -0.1896(18) -0.0159(12) 0.192(2)
H64 H -0.1870 -0.0675 0.1767
H65 H -0.2376 0.0159 0.1719
H66 H -0.2105 -0.0140 0.2448
N9 N 0.3877(6) 0.6498(4) -0.0407(5)
C65 C 0.3654(9) 0.7131(6) -0.0437(8)
C66 C 0.3488(13) 0.7907(8) -0.052(2)
H67 H 0.2986 0.8110 -0.0094
H68 H 0.3247 0.8022 -0.0951
H69 H 0.4115 0.8131 -0.0571
N10 N 0.3902(9) 0.3204(5) 0.4058(5)
C67 C 0.3666(10) 0.2656(7) 0.3991(7)
C68 C 0.331(3) 0.1962(11) 0.3937(18)
H70 H 0.3679 0.1735 0.3475
H71 H 0.2599 0.2035 0.3963
H72 H 0.3422 0.1633 0.4335
N11 N -0.3886(8) 0.6833(6) 0.0987(6)
C69 C -0.3573(10) 0.7386(8) 0.0976(7)
C70 C -0.313(2) 0.8052(10) 0.0975(18)
H73 H -0.3081 0.8316 0.0512
H74 H -0.2453 0.7934 0.1043
H75 H -0.3533 0.8369 0.1368
N12 N -0.3823(7) 0.3475(5) 0.5411(5)
C71 C -0.3636(11) 0.2887(11) 0.5400(10)
C72 C -0.332(2) 0.2092(9) 0.519(2)
H76 H -0.3729 0.1941 0.4885
H77 H -0.3422 0.1775 0.5627
H78 H -0.2616 0.2039 0.4925
F31? F 0.0964(18) 0.7239(13) 0.0585(13)
F32? F -0.040(2) 0.8393(13) -0.0081(17)
F33? F -0.021(2) 0.7039(11) 0.0227(15)
F34? F 0.085(2) 0.757(3) -0.0507(6)
F35? F 0.0936(17) 0.8419(10) 0.0316(15)
F36? F -0.055(2) 0.7928(15) 0.1031(10)
P6? P 0.0552(16) 0.2120(8) 0.4540(7)
F37? F -0.042(2) 0.171(2) 0.4651(19)
F38? F 0.006(3) 0.2655(17) 0.5187(14)
F39? F 0.155(2) 0.250(2) 0.4421(18)
F40? F 0.014(3) 0.2701(15) 0.4028(17)
F41? F 0.091(3) 0.1546(15) 0.5075(17)
F42? F 0.106(3) 0.1623(19) 0.3867(15)
P7? P -0.0168(4) 0.21423(15) 0.47185(15)
F43? F -0.0882(10) 0.1974(7) 0.4264(6)
F44? F 0.0651(7) 0.2296(7) 0.5120(6)
F45? F 0.0023(12) 0.2898(5) 0.4301(6)
F46? F -0.0988(7) 0.2405(7) 0.5420(4)
F47? F -0.0097(11) 0.1342(4) 0.5075(5)
F48? F 0.0662(8) 0.1842(6) 0.4040(4)
loop_
_geom_bond_atom_site_label_1
_geom_bond_atom_site_label_2
_geom_bond_site_symmetry_1
_geom_bond_site_symmetry_2
P1 F1 1_555 1_555
F2 P1 1_555 1_555
F3 P1 1_555 1_555
F4 P1 1_555 1_555
F5 P1 1_555 1_555
F6 P1 1_555 1_555
P2 F7 1_555 1_555
F8 P2 1_555 1_555
F9 P2 1_555 1_555
F10 P2 1_555 1_555
F11 P2 1_555 1_555
F12 P2 1_555 1_555
P3 F13 1_555 1_555
F14 P3 1_555 1_555
F15 P3 1_555 1_555
F16 P3 1_555 1_555
F17 P3 1_555 1_555
F18 P3 1_555 1_555
P4 F19 1_555 1_555
F20 P4 1_555 1_555
F21 P4 1_555 1_555
F22 P4 1_555 1_555
F23 P4 1_555 1_555
F24 P4 1_555 1_555
P5 F25 1_555 1_555
F26 P5 1_555 1_555
F27 P5 1_555 1_555
F28 P5 1_555 1_555
F29 P5 1_555 1_555
F30 P5 1_555 1_555
N1 C8 1_555 1_555
N2 C16 1_555 1_555
N3 C26 1_555 1_555
N4 C1 1_555 1_555
C1 H1 1_555 1_555
H2 C1 1_555 1_555
C2 C1 1_555 1_555
C3 C2 1_555 1_555
H3 C3 1_555 1_555
C4 C3 1_555 1_555
H4 C4 1_555 1_555
C5 C4 1_555 1_555
C6 C5 1_555 1_555
H5 C6 1_555 1_555
C7 C2 1_555 1_555
H6 C7 1_555 1_555
C8 C5 1_555 1_555
H7 C8 1_555 1_555
H8 C8 1_555 1_555
C9 N1 1_555 1_555
H9 C9 1_555 1_555
C10 C9 1_555 1_555
H10 C10 1_555 1_555
C11 C10 1_555 1_555
C12 C11 1_555 1_555
H11 C12 1_555 1_555
C13 N1 1_555 1_555
H12 C13 1_555 1_555
C14 C11 1_555 1_555
C15 C14 1_555 1_555
H13 C15 1_555 1_555
C16 C15 1_555 1_555
H14 C16 1_555 1_555
C17 N2 1_555 1_555
H15 C17 1_555 1_555
C18 C14 1_555 1_555
H16 C18 1_555 1_555
C19 N2 1_555 1_555
H17 C19 1_555 1_555
H18 C19 1_555 1_555
C20 C19 1_555 1_555
C21 C20 1_555 1_555
H19 C21 1_555 1_555
C22 C21 1_555 1_555
H20 C22 1_555 1_555
C23 C22 1_555 1_555
C24 C23 1_555 1_555
H21 C24 1_555 1_555
C25 C20 1_555 1_555
H22 C25 1_555 1_555
C26 C23 1_555 1_555
H23 C26 1_555 1_555
H24 C26 1_555 1_555
C27 N3 1_555 1_555
H25 C27 1_555 1_555
C28 C27 1_555 1_555
H26 C28 1_555 1_555
C29 C28 1_555 1_555
C30 C29 1_555 1_555
H27 C30 1_555 1_555
C31 N3 1_555 1_555
H28 C31 1_555 1_555
C32 C29 1_555 1_555
C33 C32 1_555 1_555
H29 C33 1_555 1_555
C34 N4 1_555 1_555
H30 C34 1_555 1_555
C35 N4 1_555 1_555
H31 C35 1_555 1_555
C36 C32 1_555 1_555
H32 C36 1_555 1_555
N5 C37 1_555 1_555
N6 C45 1_555 1_555
N7 C53 1_555 1_555
N8 C57 1_555 1_555
C37 H33 1_555 1_555
C38 C37 1_555 1_555
C39 C38 1_555 1_555
H34 C39 1_555 1_555
C40 C39 1_555 1_555
C41 N5 1_555 1_555
H35 C41 1_555 1_555
C42 C38 1_555 1_555
H36 C42 1_555 1_555
H37 C42 1_555 1_555
H38 C42 1_555 1_555
C43 C40 1_555 1_555
H39 C43 1_555 1_555
H40 C43 1_555 1_555
H41 C43 1_555 1_555
C44 N5 1_555 1_555
H42 C44 1_555 1_555
H43 C44 1_555 1_555
C45 C44 1_555 1_555
H44 C45 1_555 1_555
H45 C45 1_555 1_555
C46 N6 1_555 1_555
H46 C46 1_555 1_555
C47 C46 1_555 1_555
H47 C47 1_555 1_555
C48 C47 1_555 1_555
C49 C48 1_555 1_555
H48 C49 1_555 1_555
C50 N6 1_555 1_555
H49 C50 1_555 1_555
C51 C48 1_555 1_555
C52 C51 1_555 1_555
H50 C52 1_555 1_555
C53 C52 1_555 1_555
H51 C53 1_555 1_555
C54 N7 1_555 1_555
H52 C54 1_555 1_555
C55 C51 1_555 1_555
H53 C55 1_555 1_555
C56 N7 1_555 1_555
H54 C56 1_555 1_555
H55 C56 1_555 1_555
C57 C56 1_555 1_555
H56 C57 1_555 1_555
H57 C57 1_555 1_555
C58 N8 1_555 1_555
H58 C58 1_555 1_555
C59 C58 1_555 1_555
C60 C59 1_555 1_555
H59 C60 1_555 1_555
C61 C60 1_555 1_555
C62 N8 1_555 1_555
H60 C62 1_555 1_555
C63 C59 1_555 1_555
H61 C63 1_555 1_555
H62 C63 1_555 1_555
H63 C63 1_555 1_555
C64 C61 1_555 1_555
H64 C64 1_555 1_555
H65 C64 1_555 1_555
H66 C64 1_555 1_555
N9 C65 1_555 1_555
C65 C66 1_555 1_555
C66 H67 1_555 1_555
H68 C66 1_555 1_555
H69 C66 1_555 1_555
N10 C67 1_555 1_555
C67 C68 1_555 1_555
C68 H70 1_555 1_555
H71 C68 1_555 1_555
H72 C68 1_555 1_555
N11 C69 1_555 1_555
C69 C70 1_555 1_555
C70 H73 1_555 1_555
H74 C70 1_555 1_555
H75 C70 1_555 1_555
N12 C71 1_555 1_555
C71 C72 1_555 1_555
C72 H76 1_555 1_555
H77 C72 1_555 1_555
H78 C72 1_555 1_555
C6 C7 1_555 1_555
C12 C13 1_555 1_555
C17 C18 1_555 1_555
C24 C25 1_555 1_555
C30 C31 1_555 1_555
C33 C34 1_555 1_555
C35 C36 1_555 1_555
C40 C41 1_555 1_555
C49 C50 1_555 1_555
C54 C55 1_555 1_555
C61 C62 1_555 1_555

#END
