
#######################################################################
#
#                 Cambridge Crystallographic Data Centre
#                                CCDC 
#
#######################################################################
#
# If this CIF has been generated from an entry in the Cambridge 
# Structural Database, then it will include bibliographic, chemical, 
# crystal, experimental, refinement or atomic coordinate data resulting 
# from the CCDC's data processing and validation procedures.
#
#######################################################################

data_AROCOB
_chemical_formula_moiety         
'C36 H32 N4 2+,2(C28 H30 N2 1+),7(F6 P1 1-),9(C2 H3 N1),C36 H32 N4 3+'
_chemical_name_systematic        
'1,6(1,4)-dibenzena-3,8(1,4)-dipyridinia-4,9(4,1)-dipyridinacyclodecaphane diradical 1,6(1,4)-dibenzena-3,8(1,4),4(4,1)-tripyridinia-9(4,1)-pyridinacyclodecaphane diradical bis(4-(1-(3,5-dimethylbenzyl)pyridin-4-yl)-1-(3,5-dimethylbenzyl)pyridinium radical) heptakis(hexafluorophosphate) acetonitrile solvate'
_symmetry_cell_setting           monoclinic
_symmetry_space_group_name_H-M   'P 21/n'
_symmetry_Int_Tables_number      14
_space_group_name_Hall           '-P 2yn'
loop_
_symmetry_equiv_pos_site_id
_symmetry_equiv_pos_as_xyz
1 x,y,z
2 1/2-x,1/2+y,1/2-z
3 -x,-y,-z
4 1/2+x,1/2-y,1/2+z
_cell_length_a                   16.6492(7)
_cell_length_b                   19.7296(9)
_cell_length_c                   22.6647(10)
_cell_angle_alpha                90
_cell_angle_beta                 95.147(3)
_cell_angle_gamma                90
_cell_volume                     7414.93
_exptl_crystal_colour            black
_exptl_crystal_description       lath
_cell_formula_units_Z            2
loop_
_atom_site_label
_atom_site_type_symbol
_atom_site_fract_x
_atom_site_fract_y
_atom_site_fract_z
N3 N 0.60025(16) 0.66711(14) 0.63862(12)
N4 N 0.40329(16) 0.65876(14) 0.34923(12)
C19 C 0.6400(2) 0.65343(19) 0.69872(15)
H17 H 0.6084 0.6742 0.7290
H18 H 0.6947 0.6735 0.7026
C20 C 0.5184(2) 0.66752(16) 0.62979(15)
H19 H 0.4876 0.6676 0.6631
C21 C 0.4795(2) 0.66787(16) 0.57441(14)
H20 H 0.4222 0.6691 0.5699
C22 C 0.52275(19) 0.66641(15) 0.52298(14)
C23 C 0.60785(19) 0.66607(16) 0.53430(14)
H21 H 0.6404 0.6659 0.5019
C24 C 0.6438(2) 0.66595(17) 0.59057(15)
H22 H 0.7010 0.6650 0.5965
C25 C 0.48278(19) 0.66559(15) 0.46424(14)
C26 C 0.3973(2) 0.66450(16) 0.45343(15)
H23 H 0.3653 0.6664 0.4860
C27 C 0.3606(2) 0.66076(16) 0.39775(14)
H24 H 0.3034 0.6595 0.3924
C28 C 0.4853(2) 0.66092(16) 0.35757(15)
H25 H 0.5154 0.6599 0.3239
C29 C 0.5256(2) 0.66446(16) 0.41266(14)
H26 H 0.5829 0.6662 0.4166
C30 C 0.3629(2) 0.63958(18) 0.29056(14)
H27 H 0.3945 0.6566 0.2587
H28 H 0.3085 0.6602 0.2853
C31 C 0.35611(18) 0.56392(18) 0.28682(13)
C32 C 0.29933(18) 0.53000(19) 0.31791(13)
H29 H 0.2610 0.5551 0.3375
C33 C 0.29893(18) 0.45972(18) 0.32019(13)
H30 H 0.2601 0.4371 0.3413
C34 C 0.35473(18) 0.42197(18) 0.29190(13)
C35 C 0.40810(18) 0.45533(18) 0.25815(14)
H31 H 0.4443 0.4299 0.2367
C36 C 0.40880(18) 0.52593(18) 0.25552(14)
H32 H 0.4454 0.5483 0.2323
N3B N 0.39975(16) 0.33289(14) 0.36138(12)
N4B N 0.59671(16) 0.34124(14) 0.65077(12)
C19B C 0.3600(2) 0.34657(19) 0.30128(15)
H17B H 0.3916 0.3258 0.2710
H18B H 0.3053 0.3265 0.2974
C20B C 0.4816(2) 0.33248(16) 0.37021(15)
H19B H 0.5124 0.3324 0.3369
C21B C 0.5205(2) 0.33213(16) 0.42559(14)
H20B H 0.5778 0.3309 0.4301
C22B C 0.47725(19) 0.33359(15) 0.47702(14)
C23B C 0.39215(19) 0.33393(16) 0.46570(14)
H21B H 0.3596 0.3341 0.4981
C24B C 0.3562(2) 0.33405(17) 0.40943(15)
H22B H 0.2990 0.3350 0.4035
C25B C 0.51722(19) 0.33441(15) 0.53576(14)
C26B C 0.6027(2) 0.33550(16) 0.54657(15)
H23B H 0.6347 0.3336 0.5140
C27B C 0.6394(2) 0.33924(16) 0.60225(14)
H24B H 0.6966 0.3405 0.6076
C28B C 0.5147(2) 0.33908(16) 0.64243(15)
H25B H 0.4846 0.3401 0.6761
C29B C 0.4744(2) 0.33554(16) 0.58734(14)
H26B H 0.4171 0.3338 0.5834
C30B C 0.6371(2) 0.36042(18) 0.70944(14)
H27B H 0.6055 0.3434 0.7413
H28B H 0.6915 0.3398 0.7147
C31B C 0.64389(18) 0.43608(18) 0.71318(13)
C32B C 0.70067(18) 0.47000(19) 0.68209(13)
H29B H 0.7390 0.4449 0.6625
C33B C 0.70107(18) 0.54028(18) 0.67981(13)
H30B H 0.7399 0.5629 0.6587
C34B C 0.64527(18) 0.57803(18) 0.70810(13)
C35B C 0.59190(18) 0.54467(18) 0.74185(14)
H31B H 0.5557 0.5701 0.7633
C36B C 0.59120(18) 0.47407(18) 0.74448(14)
H32B H 0.5546 0.4517 0.7677
N5 N 0.63898(14) 1.00785(13) 0.39183(11)
C37 C 0.55866(17) 1.00923(16) 0.37570(14)
H33 H 0.5402 1.0123 0.3349
C38 C 0.50381(17) 1.00631(15) 0.41673(13)
H34 H 0.4479 1.0068 0.4040
C39 C 0.52858(17) 1.00250(14) 0.47791(13)
C40 C 0.61304(18) 1.00307(15) 0.49299(14)
H35 H 0.6334 1.0016 0.5335
C41 C 0.66548(18) 1.00564(16) 0.45014(14)
H36 H 0.7218 1.0059 0.4614
C42 C 0.69694(18) 1.00718(17) 0.34524(14)
H37 H 0.7524 1.0000 0.3638
H38 H 0.6953 1.0513 0.3243
C43 C 0.67456(17) 0.95098(17) 0.30180(14)
C44 C 0.68665(19) 0.88434(18) 0.31815(15)
H39 H 0.7128 0.8742 0.3561
C45 C 0.6613(2) 0.83150(19) 0.28022(17)
C46 C 0.6242(2) 0.8480(2) 0.22505(17)
H40 H 0.6061 0.8124 0.1989
C47 C 0.61234(19) 0.9146(2) 0.20639(16)
C48 C 0.63794(18) 0.96622(18) 0.24579(14)
H41 H 0.6303 1.0122 0.2342
C49 C 0.6730(3) 0.7588(2) 0.2997(3)
H42 H 0.6858 0.7571 0.3428
H43 H 0.7175 0.7388 0.2801
H44 H 0.6235 0.7331 0.2889
C50 C 0.5724(2) 0.9313(3) 0.14594(17)
H45 H 0.5535 0.9783 0.1454
H46 H 0.5263 0.9009 0.1367
H47 H 0.6112 0.9254 0.1163
N5B N 0.36102(14) 0.99215(13) 0.60817(11)
C37B C 0.44134(17) 0.99077(16) 0.62430(14)
H33B H 0.4598 0.9877 0.6651
C38B C 0.49619(17) 0.99369(15) 0.58327(13)
H34B H 0.5521 0.9932 0.5960
C39B C 0.47142(17) 0.99750(14) 0.52209(13)
C40B C 0.38696(18) 0.99693(15) 0.50701(14)
H35B H 0.3666 0.9984 0.4665
C41B C 0.33452(18) 0.99436(16) 0.54986(14)
H36B H 0.2782 0.9941 0.5386
C42B C 0.30306(18) 0.99282(17) 0.65476(14)
H37B H 0.2476 1.0000 0.6362
H38B H 0.3047 0.9487 0.6757
C43B C 0.32544(17) 1.04902(17) 0.69820(14)
C44B C 0.31335(19) 1.11566(18) 0.68185(15)
H39B H 0.2872 1.1258 0.6439
C45B C 0.3387(2) 1.16850(19) 0.71978(17)
C46B C 0.3758(2) 1.1520(2) 0.77495(17)
H40B H 0.3939 1.1876 0.8011
C47B C 0.38766(19) 1.0854(2) 0.79361(16)
C48B C 0.36206(18) 1.03378(18) 0.75421(14)
H41B H 0.3697 0.9878 0.7658
C49B C 0.3270(3) 1.2412(2) 0.7003(3)
H42B H 0.3142 1.2429 0.6572
H43B H 0.2825 1.2612 0.7199
H44B H 0.3765 1.2669 0.7111
C50B C 0.4276(2) 1.0687(3) 0.85406(17)
H45B H 0.4465 1.0217 0.8546
H46B H 0.4737 1.0991 0.8633
H47B H 0.3888 1.0746 0.8837
N6 N 0.63767(14) 0.49460(14) 0.39063(11)
C51 C 0.55792(17) 0.49661(16) 0.37499(14)
H48 H 0.5391 0.4967 0.3342
C52 C 0.50356(17) 0.49860(15) 0.41640(13)
H49 H 0.4476 0.4998 0.4039
C53 C 0.52871(17) 0.49883(15) 0.47760(13)
C54 C 0.61312(18) 0.49691(16) 0.49206(14)
H50 H 0.6339 0.4972 0.5325
C55 C 0.66492(18) 0.49463(17) 0.44922(14)
H51 H 0.7213 0.4930 0.4602
C56 C 0.69891(19) 0.4924(2) 0.34607(15)
H52 H 0.7312 0.4505 0.3520
H53 H 0.7360 0.5315 0.3528
C57 C 0.66089(18) 0.49446(19) 0.28304(14)
C58 C 0.63887(18) 0.43406(19) 0.25405(14)
H54 H 0.6491 0.3920 0.2737
C59 C 0.60159(18) 0.43522(19) 0.19587(14)
C60 C 0.58813(19) 0.49765(19) 0.16894(15)
H55 H 0.5627 0.4990 0.1297
C61 C 0.61018(19) 0.5581(2) 0.19666(15)
C62 C 0.64708(19) 0.55543(19) 0.25439(15)
H56 H 0.6629 0.5964 0.2742
C63 C 0.5783(2) 0.3702(2) 0.16410(17)
H57 H 0.6249 0.3522 0.1457
H58 H 0.5342 0.3790 0.1335
H59 H 0.5607 0.3371 0.1925
C64 C 0.5953(3) 0.6246(2) 0.16542(19)
H60 H 0.5413 0.6410 0.1719
H61 H 0.5994 0.6184 0.1229
H62 H 0.6357 0.6577 0.1811
N6B N 0.36233(14) 0.50540(14) 0.60937(11)
C51B C 0.44208(17) 0.50339(16) 0.62501(14)
H48B H 0.4609 0.5033 0.6658
C52B C 0.49644(17) 0.50140(15) 0.58360(13)
H49B H 0.5524 0.5002 0.5961
C53B C 0.47129(17) 0.50117(15) 0.52240(13)
C54B C 0.38688(18) 0.50309(16) 0.50794(14)
H50B H 0.3661 0.5028 0.4675
C55B C 0.33508(18) 0.50537(17) 0.55078(14)
H51B H 0.2787 0.5070 0.5398
C56B C 0.30109(19) 0.5076(2) 0.65393(15)
H52B H 0.2688 0.5495 0.6480
H53B H 0.2640 0.4685 0.6472
C57B C 0.33911(18) 0.50554(19) 0.71696(14)
C58B C 0.36113(18) 0.56594(19) 0.74595(14)
H54B H 0.3509 0.6080 0.7263
C59B C 0.39841(18) 0.56478(19) 0.80413(14)
C60B C 0.41187(19) 0.50235(19) 0.83106(15)
H55B H 0.4373 0.5010 0.8703
C61B C 0.38982(19) 0.4419(2) 0.80334(15)
C62B C 0.35292(19) 0.44457(19) 0.74561(15)
H56B H 0.3371 0.4036 0.7258
C63B C 0.4217(2) 0.6298(2) 0.83590(17)
H57B H 0.3751 0.6478 0.8543
H58B H 0.4658 0.6210 0.8665
H59B H 0.4393 0.6629 0.8075
C64B C 0.4047(3) 0.3754(2) 0.83458(19)
H60B H 0.4587 0.3590 0.8281
H61B H 0.4006 0.3816 0.8771
H62B H 0.3643 0.3423 0.8189
N7 N 0.7241(3) 0.3420(3) 0.4189(3)
C65 C 0.7730(3) 0.3083(3) 0.4215(2)
C66 C 0.8548(6) 0.2824(5) 0.4448(4)
H63 H 0.8666 0.2404 0.4242
H64 H 0.8958 0.3165 0.4380
H65 H 0.8552 0.2735 0.4873
P1 P 0.14579(5) 0.90674(5) 0.46306(4)
F1 F 0.20126(12) 0.96871(11) 0.44546(8)
F2 F 0.06752(12) 0.94546(12) 0.43567(10)
F3 F 0.13733(13) 0.94202(13) 0.52570(9)
F4 F 0.15586(14) 0.87195(13) 0.40059(11)
F5 F 0.09105(13) 0.84473(12) 0.48081(12)
F6 F 0.22509(14) 0.86855(14) 0.49088(12)
P2 P 0.38679(5) 0.75961(5) 0.14123(4)
F7 F 0.31009(11) 0.76501(11) 0.17944(9)
F8 F 0.44442(12) 0.75604(12) 0.20141(10)
F9 F 0.46206(13) 0.75412(13) 0.10332(10)
F10 F 0.39306(15) 0.83989(12) 0.14198(11)
F11 F 0.32749(13) 0.76162(14) 0.08192(10)
F12 F 0.37844(14) 0.67875(11) 0.14247(10)
P3 P 0.1298(2) 0.54014(17) 0.4484(2)
F13 F 0.2046(3) 0.4911(3) 0.44259(19)
F14 F 0.0726(6) 0.4765(6) 0.4512(5)
F15 F 0.1469(2) 0.5381(3) 0.51859(16)
F16 F 0.0558(2) 0.5904(3) 0.4549(2)
F17 F 0.1133(3) 0.5429(3) 0.37853(19)
F18 F 0.1884(3) 0.6047(3) 0.4459(3)
P5 P 0.37885(10) 0.80474(10) 0.73457(8)
F25 F 0.4619(2) 0.76231(18) 0.73420(15)
F26 F 0.29785(19) 0.84790(18) 0.7346(2)
F27 F 0.3836(3) 0.7977(2) 0.80471(19)
F28 F 0.4314(4) 0.8729(3) 0.7396(3)
F29 F 0.3751(2) 0.8110(2) 0.66385(16)
F30 F 0.3283(2) 0.73626(19) 0.72776(17)
N9 N 0.7409(2) 0.6437(2) 0.42440(19)
C70 C 0.8042(3) 0.6607(3) 0.4375(2)
C71 C 0.8829(5) 0.7013(8) 0.4448(5)
H72 H 0.9234 0.6760 0.4700
H73 H 0.9027 0.7087 0.4059
H74 H 0.8731 0.7452 0.4632
N10 N 0.7877(2) 0.8682(2) 0.46331(17)
C73 C 0.8466(2) 0.8811(2) 0.49025(18)
C74 C 0.9214(2) 0.8977(2) 0.52454(19)
H78 H 0.9531 0.9282 0.5016
H79 H 0.9521 0.8561 0.5339
H80 H 0.9097 0.9201 0.5614
N11 N 0.19874(19) 0.73965(17) 0.31794(14)
C75 C 0.1444(2) 0.73151(19) 0.34518(18)
C76 C 0.0754(3) 0.7214(3) 0.3781(3)
H81 H 0.0388 0.6886 0.3573
H82 H 0.0473 0.7646 0.3818
H83 H 0.0932 0.7040 0.4176
N1 N 0.62199(16) 0.83264(14) 0.62679(12)
N2 N 0.39912(15) 0.84056(13) 0.34771(11)
C1 C 0.6664(2) 0.84651(18) 0.68525(15)
H1 H 0.7227 0.8302 0.6854
H2 H 0.6405 0.8222 0.7167
C2 C 0.54041(19) 0.83136(16) 0.62279(14)
H3 H 0.5136 0.8317 0.6581
C3 C 0.49578(19) 0.82961(15) 0.56942(14)
H4 H 0.4386 0.8275 0.5681
C4 C 0.53357(18) 0.83096(15) 0.51577(14)
C5 C 0.61874(19) 0.83205(17) 0.52231(15)
H5 H 0.6475 0.8321 0.4879
C6 C 0.66051(19) 0.83305(17) 0.57669(15)
H6 H 0.7178 0.8341 0.5796
C7 C 0.48780(18) 0.83162(16) 0.45869(14)
C8 C 0.40182(18) 0.83055(16) 0.45213(14)
H7 H 0.3730 0.8268 0.4863
C9 C 0.36068(18) 0.83479(15) 0.39829(13)
H8 H 0.3034 0.8338 0.3954
C10 C 0.48113(19) 0.84026(16) 0.35200(14)
H9 H 0.5082 0.8436 0.3169
C11 C 0.52526(18) 0.83527(16) 0.40511(14)
H10 H 0.5824 0.8342 0.4064
C12 C 0.3534(2) 0.86165(18) 0.29173(14)
H11 H 0.2998 0.8396 0.2880
H12 H 0.3826 0.8476 0.2576
C13 C 0.34348(18) 0.93760(17) 0.29176(13)
C14 C 0.39419(18) 0.97943(18) 0.26235(13)
H13 H 0.4322 0.9601 0.2384
C15 C 0.38922(18) 1.04959(18) 0.26797(13)
H14 H 0.4238 1.0779 0.2477
C16 C 0.33413(18) 1.07833(17) 0.30298(13)
C17 C 0.28170(18) 1.03669(18) 0.33062(13)
H15 H 0.2425 1.0563 0.3534
C18 C 0.28609(18) 0.96689(18) 0.32531(13)
H16 H 0.2500 0.9388 0.3445
N1B N 0.37801(16) 1.16736(14) 0.37321(12)
N2B N 0.60088(15) 1.15944(13) 0.65229(11)
C1B C 0.3336(2) 1.15349(18) 0.31475(15)
H1B H 0.2773 1.1698 0.3146
H2B H 0.3595 1.1778 0.2833
C2B C 0.45959(19) 1.16864(16) 0.37721(14)
H3B H 0.4864 1.1683 0.3419
C3B C 0.50422(19) 1.17039(15) 0.43058(14)
H4B H 0.5614 1.1725 0.4319
C4B C 0.46643(18) 1.16904(15) 0.48423(14)
C5B C 0.38126(19) 1.16795(17) 0.47769(15)
H5B H 0.3525 1.1679 0.5121
C6B C 0.33949(19) 1.16695(17) 0.42331(15)
H6B H 0.2822 1.1659 0.4204
C7B C 0.51220(18) 1.16838(16) 0.54131(14)
C8B C 0.59818(18) 1.16945(16) 0.54787(14)
H7B H 0.6270 1.1732 0.5137
C9B C 0.63932(18) 1.16521(15) 0.60171(13)
H8B H 0.6966 1.1662 0.6046
C10B C 0.51887(19) 1.15974(16) 0.64800(14)
H9B H 0.4918 1.1564 0.6831
C11B C 0.47474(18) 1.16473(16) 0.59489(14)
H10B H 0.4176 1.1658 0.5936
C12B C 0.6466(2) 1.13835(18) 0.70827(14)
H11B H 0.7002 1.1604 0.7120
H12B H 0.6174 1.1524 0.7424
C13B C 0.65652(18) 1.06240(17) 0.70824(13)
C14B C 0.60581(18) 1.02057(18) 0.73765(13)
H13B H 0.5678 1.0399 0.7616
C15B C 0.61078(18) 0.95041(18) 0.73203(13)
H14B H 0.5762 0.9221 0.7523
C16B C 0.66587(18) 0.92167(17) 0.69702(13)
C17B C 0.71830(18) 0.96331(18) 0.66938(13)
H15B H 0.7575 0.9437 0.6466
C18B C 0.71391(18) 1.03311(18) 0.67469(13)
H16B H 0.7500 1.0612 0.6555
C67? C 0.8076(6) 0.2433(5) 0.4006(5)
H66? H 0.8618 0.2367 0.4203
H67? H 0.7730 0.2053 0.4102
H68? H 0.8105 0.2453 0.3576
N8? N 0.1828(9) 0.5498(10) 0.4292(6)
C68? C 0.1403(12) 0.5141(11) 0.4473(10)
C69? C 0.0807(17) 0.4728(16) 0.4714(10)
H69? H 0.0460 0.4521 0.4391
H70? H 0.0478 0.5009 0.4956
H71? H 0.1073 0.4371 0.4961
P4? P 0.40662(19) 0.83135(18) 0.77502(19)
F19? F 0.4921(4) 0.7959(4) 0.7658(4)
F20? F 0.3237(4) 0.8688(4) 0.7827(4)
F21? F 0.4006(6) 0.7893(4) 0.8341(4)
F22? F 0.4537(4) 0.8892(4) 0.8134(4)
F23? F 0.4169(8) 0.8757(7) 0.7164(5)
F24? F 0.3618(6) 0.7714(6) 0.7369(4)
C72? C 0.8855(6) 0.6606(10) 0.4655(6)
H75? H 0.9135 0.7017 0.4544
H76? H 0.8841 0.6593 0.5087
H77? H 0.9142 0.6206 0.4526
loop_
_geom_bond_atom_site_label_1
_geom_bond_atom_site_label_2
_geom_bond_site_symmetry_1
_geom_bond_site_symmetry_2
N1 C1 1_555 1_555
N2 C9 1_555 1_555
C1 H1 1_555 1_555
H2 C1 1_555 1_555
C2 N1 1_555 1_555
H3 C2 1_555 1_555
C3 C2 1_555 1_555
H4 C3 1_555 1_555
C4 C3 1_555 1_555
C5 C4 1_555 1_555
H5 C5 1_555 1_555
C6 N1 1_555 1_555
H6 C6 1_555 1_555
C7 C4 1_555 1_555
C8 C7 1_555 1_555
H7 C8 1_555 1_555
C9 C8 1_555 1_555
H8 C9 1_555 1_555
C10 N2 1_555 1_555
H9 C10 1_555 1_555
C11 C7 1_555 1_555
H10 C11 1_555 1_555
C12 N2 1_555 1_555
H11 C12 1_555 1_555
H12 C12 1_555 1_555
C13 C12 1_555 1_555
C14 C13 1_555 1_555
H13 C14 1_555 1_555
C15 C14 1_555 1_555
H14 C15 1_555 1_555
C16 C15 1_555 1_555
C17 C16 1_555 1_555
H15 C17 1_555 1_555
C18 C13 1_555 1_555
H16 C18 1_555 1_555
N3 C19 1_555 1_555
N4 C27 1_555 1_555
C19 H17 1_555 1_555
H18 C19 1_555 1_555
C20 N3 1_555 1_555
H19 C20 1_555 1_555
C21 C20 1_555 1_555
H20 C21 1_555 1_555
C22 C21 1_555 1_555
C23 C22 1_555 1_555
H21 C23 1_555 1_555
C24 N3 1_555 1_555
H22 C24 1_555 1_555
C25 C22 1_555 1_555
C26 C25 1_555 1_555
H23 C26 1_555 1_555
C27 C26 1_555 1_555
H24 C27 1_555 1_555
C28 N4 1_555 1_555
H25 C28 1_555 1_555
C29 C25 1_555 1_555
H26 C29 1_555 1_555
C30 N4 1_555 1_555
H27 C30 1_555 1_555
H28 C30 1_555 1_555
C31 C30 1_555 1_555
C32 C31 1_555 1_555
H29 C32 1_555 1_555
C33 C32 1_555 1_555
H30 C33 1_555 1_555
C34 C33 1_555 1_555
C35 C34 1_555 1_555
H31 C35 1_555 1_555
C36 C31 1_555 1_555
H32 C36 1_555 1_555
N5 C37 1_555 1_555
C37 H33 1_555 1_555
C38 C37 1_555 1_555
H34 C38 1_555 1_555
C39 C38 1_555 1_555
C40 C39 1_555 1_555
H35 C40 1_555 1_555
C41 N5 1_555 1_555
H36 C41 1_555 1_555
C42 N5 1_555 1_555
H37 C42 1_555 1_555
H38 C42 1_555 1_555
C43 C42 1_555 1_555
C44 C43 1_555 1_555
H39 C44 1_555 1_555
C45 C44 1_555 1_555
C46 C45 1_555 1_555
H40 C46 1_555 1_555
C47 C46 1_555 1_555
C48 C43 1_555 1_555
H41 C48 1_555 1_555
C49 C45 1_555 1_555
H42 C49 1_555 1_555
H43 C49 1_555 1_555
H44 C49 1_555 1_555
C50 C47 1_555 1_555
H45 C50 1_555 1_555
H46 C50 1_555 1_555
H47 C50 1_555 1_555
N6 C51 1_555 1_555
C51 H48 1_555 1_555
C52 C51 1_555 1_555
H49 C52 1_555 1_555
C53 C52 1_555 1_555
C54 C53 1_555 1_555
H50 C54 1_555 1_555
C55 N6 1_555 1_555
H51 C55 1_555 1_555
C56 N6 1_555 1_555
H52 C56 1_555 1_555
H53 C56 1_555 1_555
C57 C56 1_555 1_555
C58 C57 1_555 1_555
H54 C58 1_555 1_555
C59 C58 1_555 1_555
C60 C59 1_555 1_555
H55 C60 1_555 1_555
C61 C60 1_555 1_555
C62 C57 1_555 1_555
H56 C62 1_555 1_555
C63 C59 1_555 1_555
H57 C63 1_555 1_555
H58 C63 1_555 1_555
H59 C63 1_555 1_555
C64 C61 1_555 1_555
H60 C64 1_555 1_555
H61 C64 1_555 1_555
H62 C64 1_555 1_555
N7 C65 1_555 1_555
C65 C66 1_555 1_555
C66 H63 1_555 1_555
H64 C66 1_555 1_555
H65 C66 1_555 1_555
P1 F1 1_555 1_555
F2 P1 1_555 1_555
F3 P1 1_555 1_555
F4 P1 1_555 1_555
F5 P1 1_555 1_555
F6 P1 1_555 1_555
P2 F7 1_555 1_555
F8 P2 1_555 1_555
F9 P2 1_555 1_555
F10 P2 1_555 1_555
F11 P2 1_555 1_555
F12 P2 1_555 1_555
P3 F13 1_555 1_555
F14 P3 1_555 1_555
F15 P3 1_555 1_555
F16 P3 1_555 1_555
F17 P3 1_555 1_555
F18 P3 1_555 1_555
P5 F25 1_555 1_555
F26 P5 1_555 1_555
F27 P5 1_555 1_555
F28 P5 1_555 1_555
F29 P5 1_555 1_555
F30 P5 1_555 1_555
N9 C70 1_555 1_555
C70 C71 1_555 1_555
C71 H72 1_555 1_555
H73 C71 1_555 1_555
H74 C71 1_555 1_555
N10 C73 1_555 1_555
C73 C74 1_555 1_555
C74 H78 1_555 1_555
H79 C74 1_555 1_555
H80 C74 1_555 1_555
N11 C75 1_555 1_555
C75 C76 1_555 1_555
C76 H81 1_555 1_555
H82 C76 1_555 1_555
H83 C76 1_555 1_555
N1B C1B 1_555 1_555
N2B C9B 1_555 1_555
C1B C16 1_555 1_555
H1B C1B 1_555 1_555
H2B C1B 1_555 1_555
C2B N1B 1_555 1_555
H3B C2B 1_555 1_555
C3B C2B 1_555 1_555
H4B C3B 1_555 1_555
C4B C3B 1_555 1_555
C5B C4B 1_555 1_555
H5B C5B 1_555 1_555
C6B N1B 1_555 1_555
H6B C6B 1_555 1_555
C7B C4B 1_555 1_555
C8B C7B 1_555 1_555
H7B C8B 1_555 1_555
C9B C8B 1_555 1_555
H8B C9B 1_555 1_555
C10B N2B 1_555 1_555
H9B C10B 1_555 1_555
C11B C7B 1_555 1_555
H10B C11B 1_555 1_555
C12B N2B 1_555 1_555
H11B C12B 1_555 1_555
H12B C12B 1_555 1_555
C13B C12B 1_555 1_555
C14B C13B 1_555 1_555
H13B C14B 1_555 1_555
C15B C14B 1_555 1_555
H14B C15B 1_555 1_555
C16B C1 1_555 1_555
C17B C16B 1_555 1_555
H15B C17B 1_555 1_555
C18B C13B 1_555 1_555
H16B C18B 1_555 1_555
N3B C19B 1_555 1_555
N4B C27B 1_555 1_555
C19B C34 1_555 1_555
H17B C19B 1_555 1_555
H18B C19B 1_555 1_555
C20B N3B 1_555 1_555
H19B C20B 1_555 1_555
C21B C20B 1_555 1_555
H20B C21B 1_555 1_555
C22B C21B 1_555 1_555
C23B C22B 1_555 1_555
H21B C23B 1_555 1_555
C24B N3B 1_555 1_555
H22B C24B 1_555 1_555
C25B C22B 1_555 1_555
C26B C25B 1_555 1_555
H23B C26B 1_555 1_555
C27B C26B 1_555 1_555
H24B C27B 1_555 1_555
C28B N4B 1_555 1_555
H25B C28B 1_555 1_555
C29B C25B 1_555 1_555
H26B C29B 1_555 1_555
C30B N4B 1_555 1_555
H27B C30B 1_555 1_555
H28B C30B 1_555 1_555
C31B C30B 1_555 1_555
C32B C31B 1_555 1_555
H29B C32B 1_555 1_555
C33B C32B 1_555 1_555
H30B C33B 1_555 1_555
C34B C19 1_555 1_555
C35B C34B 1_555 1_555
H31B C35B 1_555 1_555
C36B C31B 1_555 1_555
H32B C36B 1_555 1_555
N5B C37B 1_555 1_555
C37B H33B 1_555 1_555
C38B C37B 1_555 1_555
H34B C38B 1_555 1_555
C39B C39 1_555 1_555
C40B C39B 1_555 1_555
H35B C40B 1_555 1_555
C41B N5B 1_555 1_555
H36B C41B 1_555 1_555
C42B N5B 1_555 1_555
H37B C42B 1_555 1_555
H38B C42B 1_555 1_555
C43B C42B 1_555 1_555
C44B C43B 1_555 1_555
H39B C44B 1_555 1_555
C45B C44B 1_555 1_555
C46B C45B 1_555 1_555
H40B C46B 1_555 1_555
C47B C46B 1_555 1_555
C48B C43B 1_555 1_555
H41B C48B 1_555 1_555
C49B C45B 1_555 1_555
H42B C49B 1_555 1_555
H43B C49B 1_555 1_555
H44B C49B 1_555 1_555
C50B C47B 1_555 1_555
H45B C50B 1_555 1_555
H46B C50B 1_555 1_555
H47B C50B 1_555 1_555
N6B C51B 1_555 1_555
C51B H48B 1_555 1_555
C52B C51B 1_555 1_555
H49B C52B 1_555 1_555
C53B C53 1_555 1_555
C54B C53B 1_555 1_555
H50B C54B 1_555 1_555
C55B N6B 1_555 1_555
H51B C55B 1_555 1_555
C56B N6B 1_555 1_555
H52B C56B 1_555 1_555
H53B C56B 1_555 1_555
C57B C56B 1_555 1_555
C58B C57B 1_555 1_555
H54B C58B 1_555 1_555
C59B C58B 1_555 1_555
C60B C59B 1_555 1_555
H55B C60B 1_555 1_555
C61B C60B 1_555 1_555
C62B C57B 1_555 1_555
H56B C62B 1_555 1_555
C63B C59B 1_555 1_555
H57B C63B 1_555 1_555
H58B C63B 1_555 1_555
H59B C63B 1_555 1_555
C64B C61B 1_555 1_555
H60B C64B 1_555 1_555
H61B C64B 1_555 1_555
H62B C64B 1_555 1_555
C5 C6 1_555 1_555
C10 C11 1_555 1_555
C17 C18 1_555 1_555
C23 C24 1_555 1_555
C28 C29 1_555 1_555
C35 C36 1_555 1_555
C40 C41 1_555 1_555
C47 C48 1_555 1_555
C54 C55 1_555 1_555
C61 C62 1_555 1_555
C5B C6B 1_555 1_555
C10B C11B 1_555 1_555
C15B C16B 1_555 1_555
C17B C18B 1_555 1_555
C23B C24B 1_555 1_555
C28B C29B 1_555 1_555
C33B C34B 1_555 1_555
C35B C36B 1_555 1_555
C38B C39B 1_555 1_555
C40B C41B 1_555 1_555
C47B C48B 1_555 1_555
C52B C53B 1_555 1_555
C54B C55B 1_555 1_555
C61B C62B 1_555 1_555

#END
