
#######################################################################
#
#                 Cambridge Crystallographic Data Centre
#                                CCDC 
#
#######################################################################
#
# If this CIF has been generated from an entry in the Cambridge 
# Structural Database, then it will include bibliographic, chemical, 
# crystal, experimental, refinement or atomic coordinate data resulting 
# from the CCDC's data processing and validation procedures.
#
#######################################################################

data_AROCIV
_chemical_formula_moiety         
'C36 H32 N4 2+,C26 H26 N2 1+,3(F6 P1 1-),C2 H3 N1'
_chemical_name_systematic        
'1,6(1,4)-dibenzena-3,8(1,4)-dipyridinia-4,9(4,1)-dipyridinacyclodecaphane diradical 4-(1-(3,5-dimethylphenyl)pyridin-4-yl)-1-(3,5-dimethylphenyl)pyridinium radical tris(hexafluorophosphate) acetonitrile unknown solvate'
_symmetry_cell_setting           monoclinic
_symmetry_space_group_name_H-M   'C 2/m'
_symmetry_Int_Tables_number      12
_space_group_name_Hall           '-C 2y'
loop_
_symmetry_equiv_pos_site_id
_symmetry_equiv_pos_as_xyz
1 x,y,z
2 -x,y,-z
3 1/2+x,1/2+y,z
4 1/2-x,1/2+y,-z
5 -x,-y,-z
6 x,-y,z
7 1/2-x,1/2-y,-z
8 1/2+x,1/2-y,z
_cell_length_a                   27.8633(18)
_cell_length_b                   19.6876(13)
_cell_length_c                   14.3635(9)
_cell_angle_alpha                90
_cell_angle_beta                 121.019(2)
_cell_angle_gamma                90
_cell_volume                     6752.5
_exptl_crystal_colour            black
_exptl_crystal_description       lath
_cell_formula_units_Z            4
loop_
_atom_site_label
_atom_site_type_symbol
_atom_site_fract_x
_atom_site_fract_y
_atom_site_fract_z
N1 N 0.87966(17) 0.4085(2) 0.7698(3)
N2 N 0.60814(17) 0.4125(2) 0.3064(3)
C1 C 0.9359(2) 0.3894(3) 0.8606(5)
H1 H 0.9389 0.3998 0.9309
H2 H 0.9650 0.4156 0.8563
C2 C 0.8347(2) 0.4083(3) 0.7804(4)
H3 H 0.8400 0.4053 0.8510
C3 C 0.7814(2) 0.4121(2) 0.6925(4)
H4 H 0.7506 0.4127 0.7037
C4 C 0.7710(2) 0.4153(2) 0.5854(4)
C5 C 0.8198(2) 0.4181(2) 0.5779(4)
H5 H 0.8161 0.4220 0.5085
C6 C 0.8721(2) 0.4153(2) 0.6689(5)
H6 H 0.9039 0.4182 0.6614
C7 C 0.71613(19) 0.4155(2) 0.4921(4)
C8 C 0.6670(2) 0.4105(2) 0.4976(4)
H7 H 0.6702 0.4086 0.5667
C9 C 0.6156(2) 0.4083(3) 0.4070(5)
H8 H 0.5838 0.4037 0.4142
C10 C 0.6538(2) 0.4178(2) 0.2967(4)
H9 H 0.6489 0.4202 0.2262
C11 C 0.70637(19) 0.4198(2) 0.3847(4)
H10 H 0.7373 0.4242 0.3746
C12 C 0.5528(2) 0.3979(3) 0.2093(5)
H11 H 0.5472 0.4266 0.1479
H12 H 0.5228 0.4087 0.2246
C13 C 0.54987(18) 0.3239(3) 0.1798(4)
C14 C 0.53333(18) 0.2763(3) 0.2308(4)
H13 H 0.5208 0.2913 0.2776
C15 C 0.53536(19) 0.2081(3) 0.2132(4)
H14 H 0.5231 0.1761 0.2460
C16 C 0.55548(17) 0.1856(3) 0.1466(4)
C17 C 0.57015(18) 0.2326(3) 0.0948(3)
H15 H 0.5822 0.2174 0.0474
C18 C 0.56771(18) 0.3016(3) 0.1103(4)
H16 H 0.5781 0.3334 0.0741
N1F N 0.62034(17) 0.0915(2) 0.2302(3)
N2F N 0.89186(17) 0.0875(2) 0.6936(3)
C1F C 0.5641(2) 0.1106(3) 0.1394(5)
H1F H 0.5611 0.1002 0.0691
H2F H 0.5350 0.0844 0.1437
C2F C 0.6653(2) 0.0917(3) 0.2196(4)
H3F H 0.6600 0.0947 0.1490
C3F C 0.7186(2) 0.0879(2) 0.3075(4)
H4F H 0.7494 0.0873 0.2963
C4F C 0.7290(2) 0.0847(2) 0.4146(4)
C5F C 0.6802(2) 0.0819(2) 0.4221(4)
H5F H 0.6839 0.0780 0.4915
C6F C 0.6279(2) 0.0847(2) 0.3311(5)
H6F H 0.5961 0.0818 0.3386
C7F C 0.78387(19) 0.0845(2) 0.5079(4)
C8F C 0.8330(2) 0.0895(2) 0.5024(4)
H7F H 0.8298 0.0914 0.4333
C9F C 0.8844(2) 0.0917(3) 0.5930(5)
H8F H 0.9162 0.0963 0.5858
C10F C 0.8462(2) 0.0822(2) 0.7033(4)
H9F H 0.8511 0.0798 0.7738
C11F C 0.79363(19) 0.0802(2) 0.6153(4)
H10F H 0.7627 0.0758 0.6254
C12F C 0.9472(2) 0.1021(3) 0.7907(5)
H11F H 0.9528 0.0734 0.8521
H12F H 0.9772 0.0913 0.7754
C13F C 0.95013(18) 0.1761(3) 0.8202(4)
C14F C 0.96667(18) 0.2237(3) 0.7692(4)
H13F H 0.9792 0.2087 0.7224
C15F C 0.96464(19) 0.2919(3) 0.7868(4)
H14F H 0.9769 0.3239 0.7540
C16F C 0.94452(17) 0.3144(3) 0.8534(4)
C17F C 0.92985(18) 0.2674(3) 0.9052(3)
H15F H 0.9178 0.2826 0.9526
C18F C 0.93229(18) 0.1984(3) 0.8897(4)
H16F H 0.9219 0.1666 0.9259
N3 N 0.78009(14) 0.2741(2) 0.2915(3)
C19 C 0.72564(17) 0.2701(2) 0.2680(3)
H17 H 0.6959 0.2741 0.1946
C20 C 0.71338(16) 0.2607(2) 0.3465(3)
H18 H 0.6753 0.2581 0.3270
C21 C 0.75620(16) 0.2545(2) 0.4581(3)
C22 C 0.81171(16) 0.2586(2) 0.4786(3)
H19 H 0.8422 0.2552 0.5513
C23 C 0.82223(17) 0.2673(2) 0.3978(3)
H20 H 0.8600 0.2688 0.4149
C24 C 0.79222(17) 0.2837(3) 0.2064(3)
C25 C 0.7665(2) 0.3345(3) 0.1319(4)
H21 H 0.7401 0.3634 0.1352
C26 C 0.7795(2) 0.3434(4) 0.0503(4)
C27 C 0.8168(2) 0.3017(4) 0.0471(4)
H22 H 0.8256 0.3082 -0.0080
C28 C 0.8434(2) 0.2487(4) 0.1224(4)
C29 C 0.8311(2) 0.2404(3) 0.2027(4)
H23 H 0.8488 0.2055 0.2554
C30 C 0.7533(3) 0.4008(4) -0.0303(5)
H24 H 0.7275 0.3822 -0.1026
H25 H 0.7827 0.4270 -0.0322
H26 H 0.7326 0.4306 -0.0084
C31 C 0.8828(3) 0.1998(5) 0.1134(5)
H27 H 0.9052 0.1757 0.1824
H28 H 0.9077 0.2252 0.0967
H29 H 0.8610 0.1670 0.0553
N3F N 0.71991(14) 0.2259(2) 0.7085(3)
C19F C 0.77436(17) 0.2299(2) 0.7320(3)
H17F H 0.8041 0.2259 0.8054
C20F C 0.78662(16) 0.2393(2) 0.6535(3)
H18F H 0.8247 0.2419 0.6730
C21F C 0.74380(16) 0.2455(2) 0.5419(3)
C22F C 0.68829(16) 0.2414(2) 0.5214(3)
H19F H 0.6578 0.2448 0.4487
C23F C 0.67777(17) 0.2327(2) 0.6022(3)
H20F H 0.6400 0.2312 0.5851
C24F C 0.70778(17) 0.2163(3) 0.7936(3)
C25F C 0.7335(2) 0.1655(3) 0.8681(4)
H21F H 0.7599 0.1366 0.8648
C26F C 0.7205(2) 0.1566(4) 0.9497(4)
C27F C 0.6832(2) 0.1983(4) 0.9529(4)
H22F H 0.6744 0.1918 1.0080
C28F C 0.6566(2) 0.2513(4) 0.8776(4)
C29F C 0.6689(2) 0.2596(3) 0.7973(4)
H23F H 0.6512 0.2945 0.7446
C30F C 0.7467(3) 0.0992(4) 1.0303(5)
H24F H 0.7725 0.1178 1.1026
H25F H 0.7173 0.0730 1.0322
H26F H 0.7674 0.0694 1.0084
C31F C 0.6172(3) 0.3002(5) 0.8866(5)
H27F H 0.5948 0.3243 0.8176
H28F H 0.5923 0.2748 0.9033
H29F H 0.6390 0.3330 0.9447
P1 P 0.60847(7) 0.5000 -0.01132(15)
F1 F 0.5684(2) 0.5559(4) -0.0881(4)
F2 F 0.64157(16) 0.5000 -0.0730(3)
F3 F 0.65084(16) 0.4435(2) 0.0703(3)
F4 F 0.5775(2) 0.5000 0.0572(5)
F1E F 0.5684(2) 0.4441(4) -0.0881(4)
F3E F 0.65084(16) 0.5565(2) 0.0703(3)
P2 P 0.42378(7) 0.0000 0.10176(13)
F5 F 0.45836(16) 0.0000 0.0408(3)
F6 F 0.36742(18) 0.0000 -0.0146(4)
F7 F 0.42362(15) 0.08073(15) 0.1000(3)
F8 F 0.3873(2) 0.0000 0.1578(5)
F9 F 0.4800(2) 0.0000 0.2143(4)
F7E F 0.42362(15) -0.08073(15) 0.1000(3)
N4 N 0.6749(5) 0.5000 0.7175(7)
C32 C 0.6304(4) 0.5000 0.6992(6)
C33 C 0.5743(4) 0.5000 0.6729(7)
H30? H 0.5508 0.5220 0.6023
H31? H 0.5712 0.5249 0.7287
H32? H 0.5616 0.4531 0.6694
P3? P 0.5000 0.31534(16) 0.5000
F10? F 0.4477(3) 0.2791(4) 0.4530(5)
F11? F 0.4839(3) 0.3768(4) 0.5409(5)
F12? F 0.4916(3) 0.3520(4) 0.3968(5)
F13? F 0.5187(3) 0.2838(4) 0.6131(4)
F14? F 0.5329(3) 0.2550(4) 0.4729(5)
F15? F 0.5651(3) 0.3477(4) 0.5554(5)
loop_
_geom_bond_atom_site_label_1
_geom_bond_atom_site_label_2
_geom_bond_site_symmetry_1
_geom_bond_site_symmetry_2
N1 C1 1_555 1_555
N2 C9 1_555 1_555
C1 H1 1_555 1_555
H2 C1 1_555 1_555
C2 N1 1_555 1_555
H3 C2 1_555 1_555
C3 C2 1_555 1_555
H4 C3 1_555 1_555
C4 C3 1_555 1_555
C5 C4 1_555 1_555
H5 C5 1_555 1_555
C6 N1 1_555 1_555
H6 C6 1_555 1_555
C7 C4 1_555 1_555
C8 C7 1_555 1_555
H7 C8 1_555 1_555
C9 C8 1_555 1_555
H8 C9 1_555 1_555
C10 N2 1_555 1_555
H9 C10 1_555 1_555
C11 C7 1_555 1_555
H10 C11 1_555 1_555
C12 N2 1_555 1_555
H11 C12 1_555 1_555
H12 C12 1_555 1_555
C13 C12 1_555 1_555
C14 C13 1_555 1_555
H13 C14 1_555 1_555
C15 C14 1_555 1_555
H14 C15 1_555 1_555
C16 C15 1_555 1_555
C17 C16 1_555 1_555
H15 C17 1_555 1_555
C18 C13 1_555 1_555
H16 C18 1_555 1_555
N3 C19 1_555 1_555
C19 H17 1_555 1_555
C20 C19 1_555 1_555
H18 C20 1_555 1_555
C21 C20 1_555 1_555
C22 C21 1_555 1_555
H19 C22 1_555 1_555
C23 N3 1_555 1_555
H20 C23 1_555 1_555
C24 N3 1_555 1_555
C25 C24 1_555 1_555
H21 C25 1_555 1_555
C26 C25 1_555 1_555
C27 C26 1_555 1_555
H22 C27 1_555 1_555
C28 C27 1_555 1_555
C29 C24 1_555 1_555
H23 C29 1_555 1_555
C30 C26 1_555 1_555
H24 C30 1_555 1_555
H25 C30 1_555 1_555
H26 C30 1_555 1_555
C31 C28 1_555 1_555
H27 C31 1_555 1_555
H28 C31 1_555 1_555
H29 C31 1_555 1_555
P1 F1 1_555 1_555
F2 P1 1_555 1_555
F3 P1 1_555 1_555
F4 P1 1_555 1_555
P2 F5 1_555 1_555
F6 P2 1_555 1_555
F7 P2 1_555 1_555
F8 P2 1_555 1_555
F9 P2 1_555 1_555
N4 C32 1_555 1_555
C32 C33 1_555 1_555
N1F C1F 1_555 1_555
N2F C9F 1_555 1_555
C1F C16 1_555 1_555
H1F C1F 1_555 1_555
H2F C1F 1_555 1_555
C2F N1F 1_555 1_555
H3F C2F 1_555 1_555
C3F C2F 1_555 1_555
H4F C3F 1_555 1_555
C4F C3F 1_555 1_555
C5F C4F 1_555 1_555
H5F C5F 1_555 1_555
C6F N1F 1_555 1_555
H6F C6F 1_555 1_555
C7F C4F 1_555 1_555
C8F C7F 1_555 1_555
H7F C8F 1_555 1_555
C9F C8F 1_555 1_555
H8F C9F 1_555 1_555
C10F N2F 1_555 1_555
H9F C10F 1_555 1_555
C11F C7F 1_555 1_555
H10F C11F 1_555 1_555
C12F N2F 1_555 1_555
H11F C12F 1_555 1_555
H12F C12F 1_555 1_555
C13F C12F 1_555 1_555
C14F C13F 1_555 1_555
H13F C14F 1_555 1_555
C15F C14F 1_555 1_555
H14F C15F 1_555 1_555
C16F C1 1_555 1_555
C17F C16F 1_555 1_555
H15F C17F 1_555 1_555
C18F C13F 1_555 1_555
H16F C18F 1_555 1_555
N3F C19F 1_555 1_555
C19F H17F 1_555 1_555
C20F C19F 1_555 1_555
H18F C20F 1_555 1_555
C21F C21 1_555 1_555
C22F C21F 1_555 1_555
H19F C22F 1_555 1_555
C23F N3F 1_555 1_555
H20F C23F 1_555 1_555
C24F N3F 1_555 1_555
C25F C24F 1_555 1_555
H21F C25F 1_555 1_555
C26F C25F 1_555 1_555
C27F C26F 1_555 1_555
H22F C27F 1_555 1_555
C28F C27F 1_555 1_555
C29F C24F 1_555 1_555
H23F C29F 1_555 1_555
C30F C26F 1_555 1_555
H24F C30F 1_555 1_555
H25F C30F 1_555 1_555
H26F C30F 1_555 1_555
C31F C28F 1_555 1_555
H27F C31F 1_555 1_555
H28F C31F 1_555 1_555
H29F C31F 1_555 1_555
F1E P1 1_555 1_555
F3E P1 1_555 1_555
F7E P2 1_555 1_555
C5 C6 1_555 1_555
C10 C11 1_555 1_555
C17 C18 1_555 1_555
C22 C23 1_555 1_555
C28 C29 1_555 1_555
C5F C6F 1_555 1_555
C10F C11F 1_555 1_555
C15F C16F 1_555 1_555
C17F C18F 1_555 1_555
C20F C21F 1_555 1_555
C22F C23F 1_555 1_555
C28F C29F 1_555 1_555

#END
