
#######################################################################
#
#                 Cambridge Crystallographic Data Centre
#                                CCDC 
#
#######################################################################
#
# If this CIF has been generated from an entry in the Cambridge 
# Structural Database, then it will include bibliographic, chemical, 
# crystal, experimental, refinement or atomic coordinate data resulting 
# from the CCDC's data processing and validation procedures.
#
#######################################################################

data_AROCAN
_chemical_formula_moiety         'C36 H32 N4 2+,C23 H30 N3 2+,4(F6 P1 1-)'
_chemical_name_systematic        
'1,6(1,4)-dibenzena-3,8(1,4)-dipyridinia-4,9(4,1)-dipyridinacyclodecaphane diradical 1-(3-(3,5-dimethylpyridinium-1-yl)propyl)-4-(1-(n-propyl)pyridin-4-yl)pyridinium radical tetrakis(hexafluorophosphate) unknown solvate'
_symmetry_cell_setting           triclinic
_symmetry_space_group_name_H-M   'P -1'
_symmetry_Int_Tables_number      2
_space_group_name_Hall           '-P 1'
loop_
_symmetry_equiv_pos_site_id
_symmetry_equiv_pos_as_xyz
1 x,y,z
2 -x,-y,-z
_cell_length_a                   16.640(4)
_cell_length_b                   16.710(3)
_cell_length_c                   17.160(4)
_cell_angle_alpha                75.037(13)
_cell_angle_beta                 70.814(13)
_cell_angle_gamma                62.956(14)
_cell_volume                     3979.96
_exptl_crystal_colour            purple
_exptl_crystal_description       block
_cell_formula_units_Z            2
loop_
_atom_site_label
_atom_site_type_symbol
_atom_site_fract_x
_atom_site_fract_y
_atom_site_fract_z
P1 P 0.8499(2) 0.78244(19) 0.27047(16)
F1 F 0.8009(4) 0.8917(3) 0.2605(3)
F2 F 0.7603(4) 0.7780(4) 0.3396(3)
F3 F 0.8060(4) 0.7832(3) 0.1999(3)
F4 F 0.8985(4) 0.6760(4) 0.2796(4)
F5 F 0.9389(4) 0.7877(4) 0.2026(4)
F6 F 0.8937(5) 0.7837(5) 0.3403(4)
P2 P 1.2740(2) 1.35361(19) -0.02374(19)
F7 F 1.3504(6) 1.2885(5) -0.0830(4)
F8 F 1.3087(5) 1.2878(4) 0.0544(4)
F9 F 1.2357(5) 1.4208(5) -0.0991(5)
F10 F 1.3394(6) 1.4035(5) -0.0348(4)
F11 F 1.1992(7) 1.4205(6) 0.0341(5)
F12 F 1.2153(6) 1.2983(5) -0.0183(5)
P3 P 1.6454(2) 1.21241(18) 0.22906(16)
F13 F 1.6993(4) 1.1054(3) 0.2450(3)
F14 F 1.7352(5) 1.2173(4) 0.1690(5)
F15 F 1.5923(5) 1.3197(4) 0.2100(4)
F16 F 1.6756(6) 1.2193(4) 0.3040(5)
F17 F 1.6144(5) 1.2000(4) 0.1579(5)
F18 F 1.5569(5) 1.2030(5) 0.2940(5)
P4 P 1.2120(2) 0.6496(2) 0.48833(19)
F19 F 1.1821(5) 0.7275(4) 0.4145(4)
F20 F 1.2414(5) 0.5720(4) 0.5603(4)
F21 F 1.2602(5) 0.5788(4) 0.4238(4)
F22 F 1.1630(6) 0.7212(4) 0.5536(4)
F23 F 1.3063(5) 0.6606(5) 0.4665(4)
F24 F 1.1186(5) 0.6365(5) 0.5055(5)
N1 N 1.3214(5) 0.9975(5) -0.0400(4)
N2 N 1.5440(5) 0.9842(6) 0.2492(5)
N3 N 1.1740(5) 1.0100(6) 0.5366(4)
N4 N 0.9492(5) 1.0204(5) 0.2461(4)
C1 C 1.3780(6) 0.9191(6) -0.0075(5)
H1 H 1.3882 0.8647 -0.0244
C2 C 1.4220(6) 0.9138(6) 0.0489(5)
H2 H 1.4599 0.8561 0.0724
C3 C 1.4121(5) 0.9916(5) 0.0726(5)
C4 C 1.3525(6) 1.0754(6) 0.0364(5)
H3 H 1.3425 1.1308 0.0514
C5 C 1.3094(6) 1.0768(6) -0.0198(5)
H4 H 1.2711 1.1331 -0.0449
C6 C 1.4575(6) 0.9888(6) 0.1336(5)
C7 C 1.5168(6) 0.9057(6) 0.1720(6)
H5 H 1.5277 0.8495 0.1584
C8 C 1.5583(7) 0.9074(8) 0.2289(6)
H6 H 1.5980 0.8520 0.2539
C9 C 1.4888(6) 1.0652(7) 0.2147(6)
H7 H 1.4796 1.1196 0.2308
C10 C 1.4458(6) 1.0697(6) 0.1563(5)
H8 H 1.4085 1.1268 0.1316
C11 C 1.5730(7) 0.9835(8) 0.3246(6)
H9 H 1.5892 1.0356 0.3168
H10 H 1.6279 0.9269 0.3330
C12 C 1.4898(7) 0.9897(8) 0.3997(6)
C13 C 1.4771(7) 0.9112(8) 0.4437(6)
H11 H 1.5239 0.8533 0.4309
C14 C 1.3951(8) 0.9175(9) 0.5067(6)
H12 H 1.3870 0.8643 0.5367
C15 C 1.3279(8) 1.0009(9) 0.5240(6)
C16 C 1.3406(8) 1.0770(9) 0.4833(6)
H13 H 1.2947 1.1346 0.4979
C17 C 1.4217(8) 1.0714(9) 0.4191(6)
H14 H 1.4284 1.1253 0.3894
C18 C 1.2367(7) 1.0079(9) 0.5847(5)
H15 H 1.2079 1.0638 0.6114
H16 H 1.2467 0.9552 0.6288
C19 C 1.1190(7) 1.0906(7) 0.5002(5)
H17 H 1.1114 1.1449 0.5151
C20 C 1.0748(6) 1.0972(6) 0.4442(5)
H18 H 1.0367 1.1554 0.4218
C21 C 1.0842(6) 1.0180(6) 0.4178(5)
C22 C 1.1420(6) 0.9340(7) 0.4608(5)
H19 H 1.1490 0.8778 0.4504
C23 C 1.1860(6) 0.9337(7) 0.5148(5)
H20 H 1.2266 0.8774 0.5378
C24 C 1.0375(6) 1.0191(6) 0.3611(4)
C25 C 0.9786(6) 1.1015(6) 0.3216(5)
H21 H 0.9667 1.1582 0.3351
C26 C 0.9400(6) 1.0985(6) 0.2649(5)
H22 H 0.9045 1.1541 0.2368
C27 C 1.0028(6) 0.9417(6) 0.2863(5)
H23 H 1.0100 0.8860 0.2743
C28 C 1.0453(5) 0.9384(6) 0.3411(4)
H24 H 1.0812 0.8814 0.3671
C29 C 0.9251(7) 1.0215(7) 0.1722(5)
H25 H 0.8702 1.0779 0.1634
H26 H 0.9097 0.9692 0.1784
C30 C 1.0089(7) 1.0166(6) 0.0977(5)
C31 C 1.0754(7) 0.9314(7) 0.0753(5)
H27 H 1.0654 0.8780 0.1011
C32 C 1.1580(7) 0.9270(6) 0.0132(5)
H28 H 1.2069 0.8701 0.0001
C33 C 1.1661(7) 1.0077(6) -0.0282(5)
C34 C 1.0969(7) 1.0892(6) -0.0070(5)
H29 H 1.1032 1.1438 -0.0350
C35 C 1.0177(7) 1.0927(6) 0.0551(5)
H30 H 0.9690 1.1498 0.0678
C36 C 1.2593(7) 1.0026(7) -0.0877(6)
H31 H 1.2884 0.9484 -0.1168
H32 H 1.2492 1.0569 -0.1300
N5 N 1.5245(8) 0.5044(6) 0.2386(6)
N6 N 1.3175(6) 0.7895(5) 0.2559(5)
N7 N 1.1572(7) 1.2598(6) 0.2378(5)
C37 C 1.6155(10) 0.4803(7) 0.2171(7)
H33 H 1.6440 0.5004 0.1627
C38 C 1.6717(9) 0.4249(6) 0.2736(7)
C39 C 1.6221(10) 0.3997(7) 0.3539(8)
H34 H 1.6558 0.3619 0.3944
C40 C 1.5267(9) 0.4285(7) 0.3749(8)
C41 C 1.4805(10) 0.4788(7) 0.3181(8)
H35 H 1.4149 0.4981 0.3322
C42 C 1.7770(9) 0.3887(7) 0.2447(8)
H36 H 1.8013 0.4011 0.2830
H37 H 1.7948 0.4185 0.1887
H38 H 1.8028 0.3232 0.2438
C43 C 1.4814(9) 0.3966(8) 0.4635(7)
H39 H 1.4863 0.3353 0.4659
H40 H 1.4156 0.4380 0.4786
H41 H 1.5133 0.3961 0.5026
C44 C 1.4711(9) 0.5601(7) 0.1772(6)
H42 H 1.4176 0.5446 0.1870
H43 H 1.5109 0.5459 0.1209
C45 C 1.4350(8) 0.6623(6) 0.1798(6)
H44 H 1.4863 0.6765 0.1808
H45 H 1.4130 0.6967 0.1292
C46 C 1.3571(8) 0.6905(6) 0.2551(6)
H46 H 1.3078 0.6725 0.2559
H47 H 1.3803 0.6589 0.3057
C47 C 1.2602(7) 0.8470(7) 0.2063(6)
H48 H 1.2446 0.8227 0.1718
C48 C 1.2259(7) 0.9345(6) 0.2044(5)
H49 H 1.1839 0.9720 0.1704
C49 C 1.2494(6) 0.9765(6) 0.2520(5)
C50 C 1.3114(6) 0.9140(6) 0.3018(5)
H50 H 1.3327 0.9358 0.3335
C51 C 1.3406(7) 0.8229(7) 0.3043(6)
H51 H 1.3781 0.7824 0.3412
C52 C 1.2166(6) 1.0710(6) 0.2472(5)
C53 C 1.1587(6) 1.1345(7) 0.1911(5)
H52 H 1.1393 1.1142 0.1565
C54 C 1.1330(7) 1.2275(7) 0.1907(6)
H53 H 1.0959 1.2697 0.1541
C55 C 1.2119(7) 1.2003(7) 0.2896(6)
H54 H 1.2297 1.2238 0.3229
C56 C 1.2411(6) 1.1125(6) 0.2955(5)
H55 H 1.2795 1.0746 0.3324
C57 C 1.1316(17) 1.3597(10) 0.2388(13)
H56 H 1.1806 1.3657 0.2546
H57 H 1.1275 1.3933 0.1826
C58 C 1.0416(15) 1.3984(13) 0.2989(13)
H58 H 1.0061 1.3687 0.2902
H59 H 1.0579 1.3671 0.3525
C59 C 0.9690(19) 1.4832(14) 0.322(2)
H60 H 0.9208 1.4722 0.3693
H61 H 0.9948 1.5169 0.3388
H62 H 0.9418 1.5185 0.2752
C60? C 1.087(3) 1.3580(16) 0.232(3)
H63? H 1.1167 1.3937 0.2397
H64? H 1.0819 1.3750 0.1735
C61? C 0.990(3) 1.395(2) 0.283(2)
H65? H 0.9498 1.3740 0.2691
H66? H 0.9872 1.3786 0.3431
C62? C 0.966(3) 1.490(2) 0.257(3)
H67? H 0.9022 1.5249 0.2858
H68? H 1.0088 1.5078 0.2697
H69? H 0.9719 1.5033 0.1965
loop_
_geom_bond_atom_site_label_1
_geom_bond_atom_site_label_2
_geom_bond_site_symmetry_1
_geom_bond_site_symmetry_2
P1 F1 1_555 1_555
F2 P1 1_555 1_555
F3 P1 1_555 1_555
F4 P1 1_555 1_555
F5 P1 1_555 1_555
F6 P1 1_555 1_555
P2 F7 1_555 1_555
F8 P2 1_555 1_555
F9 P2 1_555 1_555
F10 P2 1_555 1_555
F11 P2 1_555 1_555
F12 P2 1_555 1_555
P3 F13 1_555 1_555
F14 P3 1_555 1_555
F15 P3 1_555 1_555
F16 P3 1_555 1_555
F17 P3 1_555 1_555
F18 P3 1_555 1_555
P4 F19 1_555 1_555
F20 P4 1_555 1_555
F21 P4 1_555 1_555
F22 P4 1_555 1_555
F23 P4 1_555 1_555
F24 P4 1_555 1_555
N1 C1 1_555 1_555
N2 C8 1_555 1_555
N3 C18 1_555 1_555
N4 C26 1_555 1_555
C1 H1 1_555 1_555
C2 C1 1_555 1_555
H2 C2 1_555 1_555
C3 C2 1_555 1_555
C4 C3 1_555 1_555
H3 C4 1_555 1_555
C5 N1 1_555 1_555
H4 C5 1_555 1_555
C6 C3 1_555 1_555
C7 C6 1_555 1_555
H5 C7 1_555 1_555
C8 C7 1_555 1_555
H6 C8 1_555 1_555
C9 N2 1_555 1_555
H7 C9 1_555 1_555
C10 C6 1_555 1_555
H8 C10 1_555 1_555
C11 N2 1_555 1_555
H9 C11 1_555 1_555
H10 C11 1_555 1_555
C12 C11 1_555 1_555
C13 C12 1_555 1_555
H11 C13 1_555 1_555
C14 C13 1_555 1_555
H12 C14 1_555 1_555
C15 C14 1_555 1_555
C16 C15 1_555 1_555
H13 C16 1_555 1_555
C17 C12 1_555 1_555
H14 C17 1_555 1_555
C18 C15 1_555 1_555
H15 C18 1_555 1_555
H16 C18 1_555 1_555
C19 N3 1_555 1_555
H17 C19 1_555 1_555
C20 C19 1_555 1_555
H18 C20 1_555 1_555
C21 C20 1_555 1_555
C22 C21 1_555 1_555
H19 C22 1_555 1_555
C23 N3 1_555 1_555
H20 C23 1_555 1_555
C24 C21 1_555 1_555
C25 C24 1_555 1_555
H21 C25 1_555 1_555
C26 C25 1_555 1_555
H22 C26 1_555 1_555
C27 N4 1_555 1_555
H23 C27 1_555 1_555
C28 C24 1_555 1_555
H24 C28 1_555 1_555
C29 N4 1_555 1_555
H25 C29 1_555 1_555
H26 C29 1_555 1_555
C30 C29 1_555 1_555
C31 C30 1_555 1_555
H27 C31 1_555 1_555
C32 C31 1_555 1_555
H28 C32 1_555 1_555
C33 C32 1_555 1_555
C34 C33 1_555 1_555
H29 C34 1_555 1_555
C35 C30 1_555 1_555
H30 C35 1_555 1_555
C36 N1 1_555 1_555
H31 C36 1_555 1_555
H32 C36 1_555 1_555
N5 C37 1_555 1_555
N6 C46 1_555 1_555
N7 C54 1_555 1_555
C37 H33 1_555 1_555
C38 C37 1_555 1_555
C39 C38 1_555 1_555
H34 C39 1_555 1_555
C40 C39 1_555 1_555
C41 N5 1_555 1_555
H35 C41 1_555 1_555
C42 C38 1_555 1_555
H36 C42 1_555 1_555
H37 C42 1_555 1_555
H38 C42 1_555 1_555
C43 C40 1_555 1_555
H39 C43 1_555 1_555
H40 C43 1_555 1_555
H41 C43 1_555 1_555
C44 N5 1_555 1_555
H42 C44 1_555 1_555
H43 C44 1_555 1_555
C45 C44 1_555 1_555
H44 C45 1_555 1_555
H45 C45 1_555 1_555
C46 C45 1_555 1_555
H46 C46 1_555 1_555
H47 C46 1_555 1_555
C47 N6 1_555 1_555
H48 C47 1_555 1_555
C48 C47 1_555 1_555
H49 C48 1_555 1_555
C49 C48 1_555 1_555
C50 C49 1_555 1_555
H50 C50 1_555 1_555
C51 N6 1_555 1_555
H51 C51 1_555 1_555
C52 C49 1_555 1_555
C53 C52 1_555 1_555
H52 C53 1_555 1_555
C54 C53 1_555 1_555
H53 C54 1_555 1_555
C55 N7 1_555 1_555
H54 C55 1_555 1_555
C56 C52 1_555 1_555
H55 C56 1_555 1_555
C57 N7 1_555 1_555
H56 C57 1_555 1_555
H57 C57 1_555 1_555
C58 C57 1_555 1_555
H58 C58 1_555 1_555
H59 C58 1_555 1_555
C59 C58 1_555 1_555
H60 C59 1_555 1_555
H61 C59 1_555 1_555
H62 C59 1_555 1_555
C4 C5 1_555 1_555
C9 C10 1_555 1_555
C16 C17 1_555 1_555
C22 C23 1_555 1_555
C27 C28 1_555 1_555
C33 C36 1_555 1_555
C34 C35 1_555 1_555
C40 C41 1_555 1_555
C50 C51 1_555 1_555
C55 C56 1_555 1_555

#END
