
#######################################################################
#
#                 Cambridge Crystallographic Data Centre
#                                CCDC 
#
#######################################################################
#
# If this CIF has been generated from an entry in the Cambridge 
# Structural Database, then it will include bibliographic, chemical, 
# crystal, experimental, refinement or atomic coordinate data resulting 
# from the CCDC's data processing and validation procedures.
#
#######################################################################

data_AROCUH
_chemical_formula_moiety         
'C36 H32 N4 2+,C30 H34 N2 1+,2(C2 H3 N1),3(F6 P1 1-)'
_chemical_name_systematic        
'1,6(1,4)-dibenzena-3,8(1,4)-dipyridinia-4,9(4,1)-dipyridinacyclodecaphane diradical 4-(1-(2-(3,5-dimethylphenyl)ethyl)pyridin-4-yl)-1-(2-(3,5-dimethylphenyl)ethyl)pyridinium radical tris(hexafluorophosphate) acetonitrile solvate'
_symmetry_cell_setting           triclinic
_symmetry_space_group_name_H-M   'P -1'
_symmetry_Int_Tables_number      2
_space_group_name_Hall           '-P 1'
loop_
_symmetry_equiv_pos_site_id
_symmetry_equiv_pos_as_xyz
1 x,y,z
2 -x,-y,-z
_cell_length_a                   9.938(2)
_cell_length_b                   13.616(3)
_cell_length_c                   14.482(3)
_cell_angle_alpha                113.563(6)
_cell_angle_beta                 99.933(7)
_cell_angle_gamma                101.953(7)
_cell_volume                     1684.59
_exptl_crystal_colour            purple
_exptl_crystal_description       block
_cell_formula_units_Z            1
loop_
_atom_site_label
_atom_site_type_symbol
_atom_site_fract_x
_atom_site_fract_y
_atom_site_fract_z
N1 N -0.20160(11) 0.21276(9) -0.62336(9)
N2 N -0.18621(11) -0.21299(9) -0.46341(9)
C1 C -0.23633(15) 0.29932(12) -0.65261(12)
H1 H -0.1618(18) 0.3681(14) -0.6101(13)
H2 H -0.2378(18) 0.2739(14) -0.7273(14)
C2 C -0.25515(14) 0.10190(11) -0.69518(10)
H3 H -0.2938(18) 0.0887(14) -0.7651(14)
C3 C -0.25209(13) 0.01885(11) -0.66619(10)
H4 H -0.2906(16) -0.0584(13) -0.7211(12)
C4 C -0.19418(12) 0.04322(11) -0.55916(10)
C5 C -0.13757(13) 0.16007(11) -0.48749(10)
H5 H -0.0931(16) 0.1865(13) -0.4130(13)
C6 C -0.14328(13) 0.24022(11) -0.52027(10)
H6 H -0.1062(17) 0.3186(14) -0.4742(13)
C7 C -0.19151(13) -0.04253(11) -0.52676(10)
C8 C -0.24643(13) -0.15928(11) -0.59915(10)
H7 H -0.2857(16) -0.1855(13) -0.6731(13)
C9 C -0.24307(14) -0.23965(11) -0.56667(11)
H8 H -0.2754(17) -0.3178(14) -0.6148(13)
C10 C -0.13137(13) -0.10231(11) -0.39134(10)
H9 H -0.0923(17) -0.0885(13) -0.3211(13)
C11 C -0.13171(13) -0.01901(11) -0.42042(10)
H10 H -0.0888(17) 0.0584(14) -0.3646(13)
C12 C -0.21279(16) -0.30085(12) -0.42709(12)
H11 H -0.1352(18) -0.2797(13) -0.3664(13)
H12 H -0.2128(17) -0.3713(14) -0.4828(13)
C13 C -0.35545(15) -0.31139(11) -0.40358(11)
C14 C -0.48256(15) -0.37384(11) -0.48507(11)
H13 H -0.4796(17) -0.4175(13) -0.5553(13)
C15 C -0.61410(15) -0.37350(11) -0.46582(11)
H14 H -0.7019(18) -0.4166(14) -0.5230(13)
C16 C -0.62092(14) -0.30990(11) -0.36506(11)
C17 C -0.49435(15) -0.24975(11) -0.28307(11)
H15 H -0.4985(17) -0.2075(14) -0.2144(14)
C18 C -0.36266(15) -0.25096(12) -0.30233(11)
H16 H -0.2759(19) -0.2092(14) -0.2451(13)
N1A N -0.79840(11) -0.21276(9) -0.37664(9)
N2A N -0.81379(11) 0.21299(9) -0.53659(9)
C1A C -0.76367(15) -0.29932(12) -0.34739(12)
H1A H -0.8382(18) -0.3681(14) -0.3899(13)
H2A H -0.7622(18) -0.2739(14) -0.2727(14)
C2A C -0.74485(14) -0.10190(11) -0.30482(10)
H3A H -0.7062(18) -0.0887(14) -0.2349(14)
C3A C -0.74791(13) -0.01885(11) -0.33381(10)
H4A H -0.7094(16) 0.0584(13) -0.2789(12)
C4A C -0.80582(12) -0.04322(11) -0.44084(10)
C5A C -0.86243(13) -0.16007(11) -0.51251(10)
H5A H -0.9069(16) -0.1865(13) -0.5870(13)
C6A C -0.85672(13) -0.24022(11) -0.47973(10)
H6A H -0.8938(17) -0.3186(14) -0.5258(13)
C7A C -0.80849(13) 0.04253(11) -0.47324(10)
C8A C -0.75357(13) 0.15928(11) -0.40085(10)
H7A H -0.7143(16) 0.1855(13) -0.3269(13)
C9A C -0.75693(14) 0.23965(11) -0.43333(11)
H8A H -0.7246(17) 0.3178(14) -0.3852(13)
C10A C -0.86863(13) 0.10231(11) -0.60866(10)
H9A H -0.9077(17) 0.0885(13) -0.6789(13)
C11A C -0.86829(13) 0.01901(11) -0.57958(10)
H10A H -0.9112(17) -0.0584(14) -0.6354(13)
C12A C -0.78721(16) 0.30085(12) -0.57291(12)
H11A H -0.8648(18) 0.2797(13) -0.6336(13)
H12A H -0.7872(17) 0.3713(14) -0.5172(13)
C13A C -0.64455(15) 0.31139(11) -0.59642(11)
C14A C -0.51744(15) 0.37384(11) -0.51493(11)
H13A H -0.5204(17) 0.4175(13) -0.4447(13)
C15A C -0.38590(15) 0.37350(11) -0.53418(11)
H14A H -0.2981(18) 0.4166(14) -0.4770(13)
C16A C -0.37908(14) 0.30990(11) -0.63494(11)
C17A C -0.50565(15) 0.24975(11) -0.71693(11)
H15A H -0.5015(17) 0.2075(14) -0.7856(14)
C18A C -0.63734(15) 0.25096(12) -0.69767(11)
H16A H -0.7241(19) 0.2092(14) -0.7549(13)
N3 N -0.31796(11) 0.20590(9) -0.23879(8)
C19 C -0.35590(14) 0.09417(11) -0.26326(10)
H17 H -0.3296(17) 0.0767(13) -0.2077(13)
C20 C -0.42596(14) 0.01347(11) -0.36286(10)
H18 H -0.4460(16) -0.0641(13) -0.3757(12)
C21 C -0.46479(13) 0.04155(10) -0.44713(10)
C22 C -0.42673(13) 0.15900(11) -0.41694(10)
H19 H -0.4482(16) 0.1866(13) -0.4667(12)
C23 C -0.35575(13) 0.23680(11) -0.31613(10)
H20 H -0.3283(16) 0.3146(14) -0.2969(12)
C24 C -0.24176(14) 0.29150(11) -0.12957(10)
H21 H -0.1670(17) 0.2668(12) -0.1047(12)
H22 H -0.2002(16) 0.3606(13) -0.1329(12)
C25 C -0.34004(14) 0.30806(11) -0.05846(10)
H23 H -0.3693(17) 0.2420(14) -0.0508(12)
H24 H -0.2819(18) 0.3651(14) 0.0128(13)
C26 C -0.46703(14) 0.34178(10) -0.09512(9)
C27 C -0.44941(15) 0.42914(11) -0.12375(10)
H25 H -0.3535(17) 0.4702(13) -0.1192(12)
C28 C -0.56630(15) 0.46028(11) -0.15740(10)
C29 C -0.70206(15) 0.40381(11) -0.16027(10)
H26 H -0.7857(18) 0.4247(14) -0.1838(13)
C30 C -0.72242(14) 0.31731(11) -0.13103(10)
C31 C -0.60406(14) 0.28615(11) -0.09966(10)
H27 H -0.6168(16) 0.2247(13) -0.0800(12)
C32 C -0.54526(19) 0.55384(13) -0.18946(13)
H28 H -0.524(3) 0.625(2) -0.133(2)
H29 H -0.479(3) 0.554(2) -0.228(2)
H30 H -0.630(3) 0.547(2) -0.239(2)
C33 C -0.86956(17) 0.25901(14) -0.13211(13)
H31 H -0.942(2) 0.2627(17) -0.1826(17)
H32 H -0.883(2) 0.2984(17) -0.0625(17)
H33 H -0.882(2) 0.1801(18) -0.1489(16)
N3A N -0.68204(11) -0.20590(9) -0.76121(8)
C19A C -0.64410(14) -0.09417(11) -0.73674(10)
H17A H -0.6704(17) -0.0767(13) -0.7923(13)
C20A C -0.57404(14) -0.01347(11) -0.63714(10)
H18A H -0.5540(16) 0.0641(13) -0.6243(12)
C21A C -0.53521(13) -0.04155(10) -0.55287(10)
C22A C -0.57327(13) -0.15900(11) -0.58306(10)
H19A H -0.5518(16) -0.1866(13) -0.5333(12)
C23A C -0.64425(13) -0.23680(11) -0.68387(10)
H20A H -0.6717(16) -0.3146(14) -0.7031(12)
C24A C -0.75824(14) -0.29150(11) -0.87043(10)
H21A H -0.8330(17) -0.2668(12) -0.8953(12)
H22A H -0.7998(16) -0.3606(13) -0.8671(12)
C25A C -0.65996(14) -0.30806(11) -0.94154(10)
H23A H -0.6307(17) -0.2420(14) -0.9492(12)
H24A H -0.7181(18) -0.3651(14) -1.0128(13)
C26A C -0.53297(14) -0.34178(10) -0.90488(9)
C27A C -0.55059(15) -0.42914(11) -0.87625(10)
H25A H -0.6465(17) -0.4702(13) -0.8808(12)
C28A C -0.43370(15) -0.46028(11) -0.84260(10)
C29A C -0.29794(15) -0.40381(11) -0.83973(10)
H26A H -0.2143(18) -0.4247(14) -0.8162(13)
C30A C -0.27758(14) -0.31731(11) -0.86897(10)
C31A C -0.39594(14) -0.28615(11) -0.90034(10)
H27A H -0.3832(16) -0.2247(13) -0.9200(12)
C32A C -0.45474(19) -0.55384(13) -0.81054(13)
H28A H -0.476(3) -0.625(2) -0.867(2)
H29A H -0.521(3) -0.554(2) -0.772(2)
H30A H -0.370(3) -0.547(2) -0.761(2)
C33A C -0.13044(17) -0.25901(14) -0.86789(13)
H31A H -0.058(2) -0.2627(17) -0.8174(17)
H32A H -0.117(2) -0.2984(17) -0.9375(17)
H33A H -0.118(2) -0.1801(18) -0.8511(16)
P1 P 0.05544(4) 0.45659(3) 0.23980(3)
F1 F 0.05126(9) 0.48497(7) 0.35865(6)
F2 F -0.11531(9) 0.40863(7) 0.19973(7)
F3 F 0.06069(11) 0.42984(8) 0.12290(7)
F4 F 0.22730(9) 0.50563(7) 0.28115(7)
F5 F 0.06446(11) 0.33524(7) 0.22194(7)
F6 F 0.04788(9) 0.57995(7) 0.26078(7)
N4 N -0.01848(15) 0.05818(12) 0.14868(10)
C34 C -0.05498(16) 0.09073(13) 0.09004(11)
C35 C -0.09926(19) 0.13175(15) 0.01474(13)
H34 H -0.013(3) 0.163(2) -0.005(2)
H35 H -0.151(2) 0.1854(18) 0.0427(17)
H36 H -0.164(3) 0.069(2) -0.051(2)
P2 P -0.5000 0.0000 0.0000
F7 F -0.38239(11) -0.06155(9) 0.00691(9)
F8 F -0.45820(11) 0.01520(8) -0.09635(7)
F9 F -0.38268(9) 0.11873(7) 0.08043(6)
F7A F -0.61761(11) 0.06155(9) -0.00691(9)
F8A F -0.54180(11) -0.01520(8) 0.09635(7)
F9A F -0.61732(9) -0.11873(7) -0.08043(6)
loop_
_geom_bond_atom_site_label_1
_geom_bond_atom_site_label_2
_geom_bond_site_symmetry_1
_geom_bond_site_symmetry_2
N1 C1 1_555 1_555
N2 C9 1_555 1_555
C1 H1 1_555 1_555
H2 C1 1_555 1_555
C2 N1 1_555 1_555
H3 C2 1_555 1_555
C3 C2 1_555 1_555
H4 C3 1_555 1_555
C4 C3 1_555 1_555
C5 C4 1_555 1_555
H5 C5 1_555 1_555
C6 N1 1_555 1_555
H6 C6 1_555 1_555
C7 C4 1_555 1_555
C8 C7 1_555 1_555
H7 C8 1_555 1_555
C9 C8 1_555 1_555
H8 C9 1_555 1_555
C10 N2 1_555 1_555
H9 C10 1_555 1_555
C11 C7 1_555 1_555
H10 C11 1_555 1_555
C12 N2 1_555 1_555
H11 C12 1_555 1_555
H12 C12 1_555 1_555
C13 C12 1_555 1_555
C14 C13 1_555 1_555
H13 C14 1_555 1_555
C15 C14 1_555 1_555
H14 C15 1_555 1_555
C16 C15 1_555 1_555
C17 C16 1_555 1_555
H15 C17 1_555 1_555
C18 C13 1_555 1_555
H16 C18 1_555 1_555
N3 C19 1_555 1_555
C19 H17 1_555 1_555
C20 C19 1_555 1_555
H18 C20 1_555 1_555
C21 C20 1_555 1_555
C22 C21 1_555 1_555
H19 C22 1_555 1_555
C23 N3 1_555 1_555
H20 C23 1_555 1_555
C24 N3 1_555 1_555
H21 C24 1_555 1_555
H22 C24 1_555 1_555
C25 C24 1_555 1_555
H23 C25 1_555 1_555
H24 C25 1_555 1_555
C26 C25 1_555 1_555
C27 C26 1_555 1_555
H25 C27 1_555 1_555
C28 C27 1_555 1_555
C29 C28 1_555 1_555
H26 C29 1_555 1_555
C30 C29 1_555 1_555
C31 C26 1_555 1_555
H27 C31 1_555 1_555
C32 C28 1_555 1_555
H28 C32 1_555 1_555
H29 C32 1_555 1_555
H30 C32 1_555 1_555
C33 C30 1_555 1_555
H31 C33 1_555 1_555
H32 C33 1_555 1_555
H33 C33 1_555 1_555
P1 F1 1_555 1_555
F2 P1 1_555 1_555
F3 P1 1_555 1_555
F4 P1 1_555 1_555
F5 P1 1_555 1_555
F6 P1 1_555 1_555
N4 C34 1_555 1_555
C34 C35 1_555 1_555
C35 H34 1_555 1_555
H35 C35 1_555 1_555
H36 C35 1_555 1_555
P2 F7 1_555 1_555
F8 P2 1_555 1_555
F9 P2 1_555 1_555
N1A C1A 1_555 1_555
N2A C9A 1_555 1_555
C1A C16 1_555 1_555
H1A C1A 1_555 1_555
H2A C1A 1_555 1_555
C2A N1A 1_555 1_555
H3A C2A 1_555 1_555
C3A C2A 1_555 1_555
H4A C3A 1_555 1_555
C4A C3A 1_555 1_555
C5A C4A 1_555 1_555
H5A C5A 1_555 1_555
C6A N1A 1_555 1_555
H6A C6A 1_555 1_555
C7A C4A 1_555 1_555
C8A C7A 1_555 1_555
H7A C8A 1_555 1_555
C9A C8A 1_555 1_555
H8A C9A 1_555 1_555
C10A N2A 1_555 1_555
H9A C10A 1_555 1_555
C11A C7A 1_555 1_555
H10A C11A 1_555 1_555
C12A N2A 1_555 1_555
H11A C12A 1_555 1_555
H12A C12A 1_555 1_555
C13A C12A 1_555 1_555
C14A C13A 1_555 1_555
H13A C14A 1_555 1_555
C15A C14A 1_555 1_555
H14A C15A 1_555 1_555
C16A C1 1_555 1_555
C17A C16A 1_555 1_555
H15A C17A 1_555 1_555
C18A C13A 1_555 1_555
H16A C18A 1_555 1_555
N3A C19A 1_555 1_555
C19A H17A 1_555 1_555
C20A C19A 1_555 1_555
H18A C20A 1_555 1_555
C21A C21 1_555 1_555
C22A C21A 1_555 1_555
H19A C22A 1_555 1_555
C23A N3A 1_555 1_555
H20A C23A 1_555 1_555
C24A N3A 1_555 1_555
H21A C24A 1_555 1_555
H22A C24A 1_555 1_555
C25A C24A 1_555 1_555
H23A C25A 1_555 1_555
H24A C25A 1_555 1_555
C26A C25A 1_555 1_555
C27A C26A 1_555 1_555
H25A C27A 1_555 1_555
C28A C27A 1_555 1_555
C29A C28A 1_555 1_555
H26A C29A 1_555 1_555
C30A C29A 1_555 1_555
C31A C26A 1_555 1_555
H27A C31A 1_555 1_555
C32A C28A 1_555 1_555
H28A C32A 1_555 1_555
H29A C32A 1_555 1_555
H30A C32A 1_555 1_555
C33A C30A 1_555 1_555
H31A C33A 1_555 1_555
H32A C33A 1_555 1_555
H33A C33A 1_555 1_555
F7A P2 1_555 1_555
F8A P2 1_555 1_555
F9A P2 1_555 1_555
C5 C6 1_555 1_555
C10 C11 1_555 1_555
C17 C18 1_555 1_555
C22 C23 1_555 1_555
C30 C31 1_555 1_555
C5A C6A 1_555 1_555
C10A C11A 1_555 1_555
C15A C16A 1_555 1_555
C17A C18A 1_555 1_555
C20A C21A 1_555 1_555
C22A C23A 1_555 1_555
C30A C31A 1_555 1_555

#END
