
#######################################################################
#
#                 Cambridge Crystallographic Data Centre
#                                CCDC 
#
#######################################################################
#
# If this CIF has been generated from an entry in the Cambridge 
# Structural Database, then it will include bibliographic, chemical, 
# crystal, experimental, refinement or atomic coordinate data resulting 
# from the CCDC's data processing and validation procedures.
#
#######################################################################

data_ARODES
_chemical_formula_moiety         'C20 H21 Br1 Cl1 F3 N2 O2 S1'
_chemical_name_systematic        
((2-((4-bromobenzyl)aminio)cyclohexyl)sulfonyl)(4-chloro-2-(trifluoromethyl)phenyl)amide
_chemical_properties_biological  
'In vitro fungicidal activities tested against nine pathogenic fungi at 50 mg/L, tested against three strains (CY-09, HLD-15 and DL-11) of B. cinerea and P. grisea'
_symmetry_cell_setting           orthorhombic
_symmetry_space_group_name_H-M   'P b c a'
_symmetry_Int_Tables_number      61
_space_group_name_Hall           '-P 2ac 2ab'
loop_
_symmetry_equiv_pos_site_id
_symmetry_equiv_pos_as_xyz
1 x,y,z
2 1/2-x,-y,1/2+z
3 -x,1/2+y,1/2-z
4 1/2+x,1/2-y,-z
5 -x,-y,-z
6 1/2+x,y,1/2-z
7 x,1/2-y,1/2+z
8 1/2-x,1/2+y,z
_cell_length_a                   12.471(3)
_cell_length_b                   13.921(3)
_cell_length_c                   24.876(5)
_cell_angle_alpha                90
_cell_angle_beta                 90
_cell_angle_gamma                90
_cell_volume                     4318.69
_exptl_crystal_colour            colorless
_exptl_crystal_description       column
_cell_formula_units_Z            8
loop_
_atom_site_label
_atom_site_type_symbol
_atom_site_fract_x
_atom_site_fract_y
_atom_site_fract_z
Br1 Br 1.02665(4) 0.82915(4) 0.266080(18)
Cl1 Cl 0.74970(12) 0.53197(10) 0.28009(4)
S1 S 0.63531(6) 0.69917(6) 0.02369(3)
F1 F 0.96152(16) 0.67734(16) 0.07516(11)
F2 F 1.01791(18) 0.5597(2) 0.12308(12)
F3 F 0.92366(18) 0.53304(17) 0.05254(11)
O1 O 0.55536(18) 0.62439(18) 0.01404(9)
O2 O 0.58821(19) 0.78615(17) 0.04601(10)
N1 N 0.8318(2) 0.82960(19) 0.00886(11)
H1 H 0.896(3) 0.831(2) -0.0037(15)
H2 H 0.823(3) 0.770(3) 0.0281(16)
N2 N 0.7392(2) 0.66292(19) 0.05324(10)
C1 C 0.6930(2) 0.7318(2) -0.03995(12)
H3 H 0.6313 0.7409 -0.0651
C2 C 0.7486(3) 0.8298(2) -0.03591(12)
H4 H 0.6927 0.8784 -0.0264
C3 C 0.7971(3) 0.8590(3) -0.08996(14)
H5 H 0.7384 0.8770 -0.1148
H6 H 0.8428 0.9164 -0.0846
C4 C 0.8641(3) 0.7801(3) -0.11597(14)
H7 H 0.8868 0.8011 -0.1523
H8 H 0.9295 0.7691 -0.0942
C5 C 0.8014(3) 0.6869(3) -0.12047(14)
H9 H 0.8474 0.6366 -0.1366
H10 H 0.7387 0.6965 -0.1443
C6 C 0.7630(3) 0.6540(2) -0.06492(13)
H11 H 0.7214 0.5937 -0.0684
H12 H 0.8255 0.6413 -0.0415
C7 C 0.8184(3) 0.9140(2) 0.04646(14)
H13 H 0.8514 0.9717 0.0301
H14 H 0.7411 0.9271 0.0517
C8 C 0.8696(3) 0.8947(2) 0.09995(13)
C9 C 0.8099(3) 0.8542(2) 0.14092(15)
H15 H 0.7364 0.8396 0.1348
C10 C 0.8546(3) 0.8345(3) 0.19046(15)
H16 H 0.8130 0.8065 0.2183
C11 C 0.9617(3) 0.8564(3) 0.19855(14)
C12 C 1.0229(3) 0.8980(3) 0.15872(15)
H17 H 1.0960 0.9135 0.1651
C13 C 0.9767(3) 0.9169(2) 0.10953(14)
H18 H 1.0185 0.9453 0.0818
C14 C 0.7366(3) 0.6313(2) 0.10622(13)
C15 C 0.8337(3) 0.5960(2) 0.12875(14)
C16 C 0.8374(3) 0.5662(2) 0.18214(15)
H19 H 0.9027 0.5435 0.1971
C17 C 0.7460(3) 0.5698(3) 0.21314(14)
C18 C 0.6505(3) 0.6021(2) 0.19236(14)
H20 H 0.5879 0.6037 0.2141
C19 C 0.6468(3) 0.6320(2) 0.13956(13)
H21 H 0.5804 0.6539 0.1254
C20 C 0.9326(3) 0.5906(3) 0.09530(17)
loop_
_geom_bond_atom_site_label_1
_geom_bond_atom_site_label_2
_geom_bond_site_symmetry_1
_geom_bond_site_symmetry_2
Br1 C11 1_555 1_555
Cl1 C17 1_555 1_555
S1 O1 1_555 1_555
F1 C20 1_555 1_555
F2 C20 1_555 1_555
F3 C20 1_555 1_555
O2 S1 1_555 1_555
N1 H1 1_555 1_555
H2 N1 1_555 1_555
N2 S1 1_555 1_555
C1 S1 1_555 1_555
H3 C1 1_555 1_555
C2 N1 1_555 1_555
H4 C2 1_555 1_555
C3 C2 1_555 1_555
H5 C3 1_555 1_555
H6 C3 1_555 1_555
C4 C3 1_555 1_555
H7 C4 1_555 1_555
H8 C4 1_555 1_555
C5 C4 1_555 1_555
H9 C5 1_555 1_555
H10 C5 1_555 1_555
C6 C1 1_555 1_555
H11 C6 1_555 1_555
H12 C6 1_555 1_555
C7 N1 1_555 1_555
H13 C7 1_555 1_555
H14 C7 1_555 1_555
C8 C7 1_555 1_555
C9 C8 1_555 1_555
H15 C9 1_555 1_555
C10 C9 1_555 1_555
H16 C10 1_555 1_555
C11 C10 1_555 1_555
C12 C11 1_555 1_555
H17 C12 1_555 1_555
C13 C8 1_555 1_555
H18 C13 1_555 1_555
C14 N2 1_555 1_555
C15 C14 1_555 1_555
C16 C15 1_555 1_555
H19 C16 1_555 1_555
C17 C16 1_555 1_555
C18 C17 1_555 1_555
H20 C18 1_555 1_555
C19 C14 1_555 1_555
H21 C19 1_555 1_555
C20 C15 1_555 1_555
C1 C2 1_555 1_555
C5 C6 1_555 1_555
C12 C13 1_555 1_555
C18 C19 1_555 1_555

#END
