
#######################################################################
#
#                 Cambridge Crystallographic Data Centre
#                                CCDC 
#
#######################################################################
#
# If this CIF has been generated from an entry in the Cambridge 
# Structural Database, then it will include bibliographic, chemical, 
# crystal, experimental, refinement or atomic coordinate data resulting 
# from the CCDC's data processing and validation procedures.
#
#######################################################################

data_ARONIG
_chemical_formula_moiety         'C41 H32 N2'
_chemical_name_systematic        
1-(4-t-butylphenyl)-2-(4-(1-naphthyl)phenyl)-1H-phenanthro[9,10-d]imidazole
_symmetry_cell_setting           monoclinic
_symmetry_space_group_name_H-M   'P 21/c'
_symmetry_Int_Tables_number      14
_space_group_name_Hall           '-P 2ybc'
loop_
_symmetry_equiv_pos_site_id
_symmetry_equiv_pos_as_xyz
1 x,y,z
2 -x,1/2+y,1/2-z
3 -x,-y,-z
4 x,1/2-y,1/2+z
_cell_length_a                   6.0705(5)
_cell_length_b                   23.4961(19)
_cell_length_c                   21.2512(17)
_cell_angle_alpha                90
_cell_angle_beta                 93.4460(10)
_cell_angle_gamma                90
_cell_volume                     3025.64
_exptl_crystal_colour            colorless
_exptl_crystal_description       cylinder
_cell_formula_units_Z            4
loop_
_atom_site_label
_atom_site_type_symbol
_atom_site_fract_x
_atom_site_fract_y
_atom_site_fract_z
N1 N 0.0152(2) 0.35059(5) 0.29092(6)
N2 N 0.0823(2) 0.37517(6) 0.19206(6)
C1 C 0.6370(3) 0.26106(7) 0.19156(7)
H1 H 0.7580 0.2681 0.1678
C2 C -0.0873(3) 0.40755(6) 0.21297(8)
C3 C 0.6115(3) 0.20729(6) 0.21841(7)
C4 C 0.7755(3) 0.16095(6) 0.21253(8)
C5 C 0.3030(3) 0.29494(6) 0.23509(7)
C6 C 0.1383(3) 0.34070(6) 0.23923(7)
C7 C 0.2772(3) 0.24122(7) 0.26164(8)
H2 H 0.1552 0.2339 0.2849
C8 C 0.4859(3) 0.30393(7) 0.19963(7)
H3 H 0.5063 0.3393 0.1812
C9 C -0.1322(3) 0.39395(6) 0.27328(8)
C10 C 0.4297(3) 0.19889(7) 0.25391(8)
H4 H 0.4104 0.1637 0.2730
C11 C 0.0144(3) 0.31574(6) 0.34635(7)
C12 C 0.1992(3) 0.31291(8) 0.38733(8)
H5 H 0.3197 0.3364 0.3816
C13 C -0.3002(3) 0.42158(6) 0.30718(8)
C14 C -0.1666(3) 0.28235(7) 0.35667(7)
H6 H -0.2930 0.2850 0.3298
C15 C 0.8412(3) 0.14210(7) 0.15270(8)
C16 C -0.1598(3) 0.24520(7) 0.40669(7)
H7 H -0.2830 0.2229 0.4132
C17 C 0.0266(3) 0.23995(7) 0.44789(7)
C18 C -0.4088(3) 0.46982(7) 0.20472(10)
C19 C 0.8681(3) 0.13568(7) 0.26628(9)
H8 H 0.8198 0.1464 0.3053
C20 C -0.4460(3) 0.45755(7) 0.27072(10)
C21 C -0.2220(3) 0.44773(7) 0.17657(8)
C22 C -0.3215(3) 0.41690(7) 0.37213(9)
H9 H -0.2222 0.3944 0.3961
C23 C 1.0151(3) 0.10160(7) 0.15065(10)
C24 C -0.1760(4) 0.46289(8) 0.11502(9)
H10 H -0.0507 0.4487 0.0973
C25 C 0.2038(3) 0.27512(8) 0.43676(8)
H11 H 0.3300 0.2730 0.4637
C26 C 0.0395(3) 0.19582(9) 0.50094(9)
C27 C 1.1080(3) 0.07882(8) 0.20714(11)
H12 H 1.2227 0.0527 0.2059
C28 C 0.7362(4) 0.15990(8) 0.09473(9)
H13 H 0.6176 0.1849 0.0950
C29 C -0.6172(3) 0.48334(9) 0.30222(13)
H14 H -0.7199 0.5055 0.2791
C30 C 1.0331(3) 0.09430(8) 0.26378(11)
H15 H 1.0914 0.0774 0.3007
C31 C -0.4862(4) 0.44479(9) 0.40121(11)
H16 H -0.4957 0.4420 0.4446
C32 C -0.5489(4) 0.50580(9) 0.16736(12)
H17 H -0.6756 0.5203 0.1840
C33 C 1.0847(4) 0.08445(9) 0.09109(13)
H18 H 1.2026 0.0593 0.0893
C34 C 0.8051(5) 0.14115(10) 0.03853(11)
H19 H 0.7331 0.1533 0.0010
C35 C -0.6381(4) 0.47704(10) 0.36547(14)
H20 H -0.7545 0.4944 0.3846
C36 C -0.1829(4) 0.18261(12) 0.52441(12)
H21 H -0.2596 0.2175 0.5319
H22 H -0.1650 0.1614 0.5630
H23 H -0.2666 0.1605 0.4934
C37 C -0.3159(5) 0.49869(10) 0.08080(11)
H24 H -0.2855 0.5088 0.0399
C38 C 0.1753(5) 0.22039(16) 0.55932(11)
H25 H 0.3253 0.2262 0.5489
H26 H 0.1718 0.1940 0.5938
H27 H 0.1125 0.2560 0.5712
C39 C 0.1561(7) 0.14487(13) 0.47824(16)
H28 H 0.0590 0.1240 0.4494
H29 H 0.2005 0.1211 0.5135
H30 H 0.2841 0.1567 0.4572
C40 C -0.5019(5) 0.51971(11) 0.10710(14)
H31 H -0.5966 0.5437 0.0835
C41 C 0.9839(5) 0.10375(11) 0.03710(13)
H32 H 1.0335 0.0921 -0.0014
loop_
_geom_bond_atom_site_label_1
_geom_bond_atom_site_label_2
_geom_bond_site_symmetry_1
_geom_bond_site_symmetry_2
N1 C6 1_555 1_555
N2 C2 1_555 1_555
C1 H1 1_555 1_555
C2 C9 1_555 1_555
C3 C1 1_555 1_555
C4 C3 1_555 1_555
C5 C6 1_555 1_555
C6 N2 1_555 1_555
C7 C5 1_555 1_555
H2 C7 1_555 1_555
C8 C1 1_555 1_555
H3 C8 1_555 1_555
C9 N1 1_555 1_555
C10 C3 1_555 1_555
H4 C10 1_555 1_555
C11 N1 1_555 1_555
C12 C11 1_555 1_555
H5 C12 1_555 1_555
C13 C9 1_555 1_555
C14 C11 1_555 1_555
H6 C14 1_555 1_555
C15 C4 1_555 1_555
C16 C14 1_555 1_555
H7 C16 1_555 1_555
C17 C16 1_555 1_555
C18 C20 1_555 1_555
C19 C4 1_555 1_555
H8 C19 1_555 1_555
C20 C13 1_555 1_555
C21 C2 1_555 1_555
C22 C13 1_555 1_555
H9 C22 1_555 1_555
C23 C15 1_555 1_555
C24 C21 1_555 1_555
H10 C24 1_555 1_555
C25 C12 1_555 1_555
H11 C25 1_555 1_555
C26 C17 1_555 1_555
C27 C23 1_555 1_555
H12 C27 1_555 1_555
C28 C15 1_555 1_555
H13 C28 1_555 1_555
C29 C20 1_555 1_555
H14 C29 1_555 1_555
C30 C19 1_555 1_555
H15 C30 1_555 1_555
C31 C22 1_555 1_555
H16 C31 1_555 1_555
C32 C18 1_555 1_555
H17 C32 1_555 1_555
C33 C23 1_555 1_555
H18 C33 1_555 1_555
C34 C28 1_555 1_555
H19 C34 1_555 1_555
C35 C29 1_555 1_555
H20 C35 1_555 1_555
C36 C26 1_555 1_555
H21 C36 1_555 1_555
H22 C36 1_555 1_555
H23 C36 1_555 1_555
C37 C24 1_555 1_555
H24 C37 1_555 1_555
C38 C26 1_555 1_555
H25 C38 1_555 1_555
H26 C38 1_555 1_555
H27 C38 1_555 1_555
C39 C26 1_555 1_555
H28 C39 1_555 1_555
H29 C39 1_555 1_555
H30 C39 1_555 1_555
C40 C32 1_555 1_555
H31 C40 1_555 1_555
C41 C33 1_555 1_555
H32 C41 1_555 1_555
C5 C8 1_555 1_555
C7 C10 1_555 1_555
C17 C25 1_555 1_555
C18 C21 1_555 1_555
C27 C30 1_555 1_555
C31 C35 1_555 1_555
C34 C41 1_555 1_555
C37 C40 1_555 1_555

#END
