
#######################################################################
#
#                 Cambridge Crystallographic Data Centre
#                                CCDC 
#
#######################################################################
#
# If this CIF has been generated from an entry in the Cambridge 
# Structural Database, then it will include bibliographic, chemical, 
# crystal, experimental, refinement or atomic coordinate data resulting 
# from the CCDC's data processing and validation procedures.
#
#######################################################################

data_AROQAA
_chemical_formula_moiety         'C20 H14 N2 O2'
_chemical_name_systematic        
1-((Pyridin-3-ylmethyl)amino)-9,10-anthraquinone
_symmetry_cell_setting           triclinic
_symmetry_space_group_name_H-M   'P -1'
_symmetry_Int_Tables_number      2
_space_group_name_Hall           '-P 1'
loop_
_symmetry_equiv_pos_site_id
_symmetry_equiv_pos_as_xyz
1 x,y,z
2 -x,-y,-z
_cell_length_a                   7.2530(9)
_cell_length_b                   7.8323(8)
_cell_length_c                   13.1613(10)
_cell_angle_alpha                102.775(5)
_cell_angle_beta                 90.442(6)
_cell_angle_gamma                91.931(4)
_cell_volume                     728.653
_exptl_crystal_colour            orange
_exptl_crystal_description       plate
_cell_formula_units_Z            2
loop_
_atom_site_label
_atom_site_type_symbol
_atom_site_fract_x
_atom_site_fract_y
_atom_site_fract_z
C1 C 0.4173(7) 0.1939(7) 0.1556(4)
H1 H 0.4287 0.0836 0.1089
C2 C 0.4582(7) 0.2128(7) 0.2608(4)
H2 H 0.4932 0.1142 0.2866
C3 C 0.4479(7) 0.3752(7) 0.3282(4)
H3 H 0.4777 0.3880 0.4000
C4 C 0.3944(7) 0.5190(7) 0.2916(4)
H4 H 0.3879 0.6301 0.3381
C5 C 0.3501(6) 0.5007(6) 0.1859(4)
C6 C 0.2937(7) 0.6536(7) 0.1476(4)
C7 C 0.2357(6) 0.6279(6) 0.0361(4)
C8 C 0.1752(7) 0.7719(6) 0.0022(4)
H5 H 0.1697 0.8827 0.0492
C9 C 0.1225(7) 0.7519(7) -0.1017(4)
H6 H 0.0810 0.8504 -0.1252
C10 C 0.1290(7) 0.5938(6) -0.1707(4)
H7 H 0.0928 0.5841 -0.2413
C11 C 0.1890(7) 0.4451(6) -0.1378(4)
C12 C 0.2451(6) 0.4618(6) -0.0328(4)
C13 C 0.3099(6) 0.3120(6) 0.0057(4)
C14 C 0.3596(7) 0.3370(6) 0.1188(4)
C15 C 0.1353(7) 0.2613(6) -0.3168(3)
H8 H 0.2194 0.3292 -0.3532
H9 H 0.0091 0.3037 -0.3212
C16 C 0.1386(7) 0.0698(6) -0.3687(4)
C17 C 0.2788(7) 0.0054(7) -0.4360(4)
H10 H 0.3717 0.0860 -0.4490
N1 N 0.2913(6) -0.1642(6) -0.4840(3)
C18 C 0.1585(8) -0.2734(7) -0.4641(4)
H11 H 0.1646 -0.3939 -0.4971
C19 C 0.0137(8) -0.2233(7) -0.3993(4)
H12 H -0.0776 -0.3070 -0.3883
C20 C 0.0028(8) -0.0472(7) -0.3498(4)
H13 H -0.0955 -0.0084 -0.3042
N2 N 0.1927(6) 0.2881(5) -0.2079(3)
H14 H 0.2323 0.1974 -0.1859
O1 O 0.3201(5) 0.1652(4) -0.0521(2)
O2 O 0.2911(5) 0.7998(5) 0.2062(3)
loop_
_geom_bond_atom_site_label_1
_geom_bond_atom_site_label_2
_geom_bond_site_symmetry_1
_geom_bond_site_symmetry_2
C1 H1 1_555 1_555
C2 C1 1_555 1_555
H2 C2 1_555 1_555
C3 C2 1_555 1_555
H3 C3 1_555 1_555
C4 C3 1_555 1_555
H4 C4 1_555 1_555
C5 C4 1_555 1_555
C6 C5 1_555 1_555
C7 C6 1_555 1_555
C8 C7 1_555 1_555
H5 C8 1_555 1_555
C9 C8 1_555 1_555
H6 C9 1_555 1_555
C10 C9 1_555 1_555
H7 C10 1_555 1_555
C11 C10 1_555 1_555
C12 C7 1_555 1_555
C13 C12 1_555 1_555
C14 C1 1_555 1_555
C15 H8 1_555 1_555
H9 C15 1_555 1_555
C16 C15 1_555 1_555
C17 C16 1_555 1_555
H10 C17 1_555 1_555
N1 C17 1_555 1_555
C18 N1 1_555 1_555
H11 C18 1_555 1_555
C19 C18 1_555 1_555
H12 C19 1_555 1_555
C20 C16 1_555 1_555
H13 C20 1_555 1_555
N2 C11 1_555 1_555
H14 N2 1_555 1_555
O1 C13 1_555 1_555
O2 C6 1_555 1_555
C5 C14 1_555 1_555
C11 C12 1_555 1_555
C13 C14 1_555 1_555
C15 N2 1_555 1_555
C19 C20 1_555 1_555

#END
