
#######################################################################
#
#                 Cambridge Crystallographic Data Centre
#                                CCDC 
#
#######################################################################
#
# If this CIF has been generated from an entry in the Cambridge 
# Structural Database, then it will include bibliographic, chemical, 
# crystal, experimental, refinement or atomic coordinate data resulting 
# from the CCDC's data processing and validation procedures.
#
#######################################################################

data_AROQEF
_chemical_name_common            1-(p-tolyl)-3-tosylpropan-1-one
_chemical_formula_moiety         'C17 H18 O3 S1'
_chemical_name_systematic        
1-(4-methylphenyl)-3-((4-methylphenyl)sulfonyl)propan-1-one
_symmetry_cell_setting           monoclinic
_symmetry_space_group_name_H-M   'P 21/n'
_symmetry_Int_Tables_number      14
_space_group_name_Hall           '-P 2yn'
loop_
_symmetry_equiv_pos_site_id
_symmetry_equiv_pos_as_xyz
1 x,y,z
2 1/2-x,1/2+y,1/2-z
3 -x,-y,-z
4 1/2+x,1/2-y,1/2+z
_cell_length_a                   16.8641(12)
_cell_length_b                   5.4441(4)
_cell_length_c                   18.5151(14)
_cell_angle_alpha                90
_cell_angle_beta                 114.2150(10)
_cell_angle_gamma                90
_cell_volume                     1550.3
_exptl_crystal_description       block
_cell_formula_units_Z            4
loop_
_atom_site_label
_atom_site_type_symbol
_atom_site_fract_x
_atom_site_fract_y
_atom_site_fract_z
C1 C -0.01470(14) 1.2564(5) 0.18851(14)
H1 H 0.0025 1.4231 0.2039
H2 H -0.0148 1.1666 0.2331
H3 H -0.0720 1.2541 0.1465
C2 C 0.04833(11) 1.1394(4) 0.16034(11)
C3 C 0.05434(14) 1.2202(4) 0.09234(14)
H4 H 0.0191 1.3492 0.0641
C4 C 0.11083(14) 1.1162(4) 0.06484(13)
H5 H 0.1134 1.1733 0.0185
C5 C 0.16349(11) 0.9264(3) 0.10670(11)
C6 C 0.15975(15) 0.8462(4) 0.17537(13)
H6 H 0.1960 0.7200 0.2044
C7 C 0.10200(15) 0.9534(4) 0.20120(13)
H7 H 0.0996 0.8974 0.2477
C8 C 0.32909(11) 0.9842(3) 0.11167(12)
H8 H 0.3132 1.1495 0.0913
H9 H 0.3500 0.9907 0.1689
C9 C 0.40089(11) 0.8898(3) 0.08961(11)
H10 H 0.4163 0.7238 0.1095
H11 H 0.3800 0.8846 0.0324
C10 C 0.48061(11) 1.0518(3) 0.12345(10)
C11 C 0.56288(11) 0.9624(3) 0.12099(9)
C12 C 0.63891(12) 1.0943(3) 0.16035(11)
H12 H 0.6372 1.2391 0.1863
C13 C 0.71689(12) 1.0142(4) 0.16162(11)
H13 H 0.7671 1.1045 0.1892
C14 C 0.72200(12) 0.8021(3) 0.12269(11)
C15 C 0.64590(13) 0.6736(4) 0.08232(12)
H14 H 0.6475 0.5319 0.0549
C16 C 0.56766(13) 0.7499(4) 0.08162(12)
H15 H 0.5177 0.6582 0.0545
C17 C 0.80717(14) 0.7112(5) 0.12522(15)
H16 H 0.8412 0.8481 0.1215
H17 H 0.7966 0.6015 0.0816
H18 H 0.8382 0.6257 0.1741
O1 O 0.26104(10) 0.5550(3) 0.10807(11)
O2 O 0.20152(10) 0.8091(3) -0.01175(9)
O3 O 0.47758(9) 1.2497(2) 0.15222(9)
S1 S 0.23683(3) 0.79240(9) 0.07267(3)
loop_
_geom_bond_atom_site_label_1
_geom_bond_atom_site_label_2
_geom_bond_site_symmetry_1
_geom_bond_site_symmetry_2
C1 H1 1_555 1_555
H2 C1 1_555 1_555
H3 C1 1_555 1_555
C2 C1 1_555 1_555
C3 C2 1_555 1_555
H4 C3 1_555 1_555
C4 C3 1_555 1_555
H5 C4 1_555 1_555
C5 C4 1_555 1_555
C6 C5 1_555 1_555
H6 C6 1_555 1_555
C7 C2 1_555 1_555
H7 C7 1_555 1_555
C8 H8 1_555 1_555
H9 C8 1_555 1_555
C9 C8 1_555 1_555
H10 C9 1_555 1_555
H11 C9 1_555 1_555
C10 C9 1_555 1_555
C11 C10 1_555 1_555
C12 C11 1_555 1_555
H12 C12 1_555 1_555
C13 C12 1_555 1_555
H13 C13 1_555 1_555
C14 C13 1_555 1_555
C15 C14 1_555 1_555
H14 C15 1_555 1_555
C16 C11 1_555 1_555
H15 C16 1_555 1_555
C17 C14 1_555 1_555
H16 C17 1_555 1_555
H17 C17 1_555 1_555
H18 C17 1_555 1_555
O1 S1 1_555 1_555
O2 S1 1_555 1_555
O3 C10 1_555 1_555
S1 C5 1_555 1_555
C6 C7 1_555 1_555
C8 S1 1_555 1_555
C15 C16 1_555 1_555

#END
