
#######################################################################
#
#                 Cambridge Crystallographic Data Centre
#                                CCDC 
#
#######################################################################
#
# If this CIF has been generated from an entry in the Cambridge 
# Structural Database, then it will include bibliographic, chemical, 
# crystal, experimental, refinement or atomic coordinate data resulting 
# from the CCDC's data processing and validation procedures.
#
#######################################################################

data_AROREG
_chemical_formula_moiety         'C16 H12 O4'
_chemical_name_systematic        
7-benzoyl-3,11-dioxatetracyclo[6.2.1.0^1,5^.0^5,7^]undec-9-en-4-one
_symmetry_cell_setting           orthorhombic
_symmetry_space_group_name_H-M   'P b c a'
_symmetry_Int_Tables_number      61
_space_group_name_Hall           '-P 2ac 2ab'
loop_
_symmetry_equiv_pos_site_id
_symmetry_equiv_pos_as_xyz
1 x,y,z
2 1/2-x,-y,1/2+z
3 1/2+x,1/2-y,-z
4 -x,1/2+y,1/2-z
5 -x,-y,-z
6 1/2+x,y,1/2-z
7 1/2-x,1/2+y,z
8 x,1/2-y,1/2+z
_cell_length_a                   7.1642(15)
_cell_length_b                   12.442(3)
_cell_length_c                   28.419(6)
_cell_angle_alpha                90
_cell_angle_beta                 90
_cell_angle_gamma                90
_cell_volume                     2533.18
_cell_formula_units_Z            8
loop_
_atom_site_label
_atom_site_type_symbol
_atom_site_fract_x
_atom_site_fract_y
_atom_site_fract_z
C1 C 1.0205(2) 0.08985(12) 0.08799(5)
C2 C 1.1440(3) 0.00717(15) 0.07692(7)
H1 H 1.1625 -0.0489 0.0981
C3 C 1.2387(3) 0.00816(19) 0.03492(8)
H2 H 1.3196 -0.0478 0.0275
C4 C 1.2141(3) 0.0916(2) 0.00389(8)
H3 H 1.2782 0.0919 -0.0246
C5 C 1.0953(4) 0.17469(18) 0.01465(7)
H4 H 1.0811 0.2316 -0.0063
C6 C 0.9962(3) 0.17401(14) 0.05662(6)
H5 H 0.9141 0.2296 0.0637
C7 C 0.9261(2) 0.08763(13) 0.13452(5)
C8 C 0.7394(2) 0.13953(11) 0.14214(4)
C9 C 0.5687(2) 0.06730(11) 0.14635(4)
C10 C 0.5896(2) 0.14346(13) 0.10579(5)
H6 H 0.6169 0.1130 0.0751
H7 H 0.5095 0.2063 0.1052
C11 C 0.4868(2) 0.09677(11) 0.19503(5)
C12 C 0.7167(3) 0.20413(12) 0.18950(5)
H8 H 0.8295 0.2419 0.1998
C13 C 0.5428(3) 0.27316(13) 0.18779(6)
H9 H 0.5377 0.3474 0.1842
C14 C 0.3995(3) 0.20685(13) 0.19237(6)
H10 H 0.2734 0.2243 0.1936
C15 C 0.3981(2) -0.00638(12) 0.21126(6)
H11 H 0.4265 -0.0197 0.2441
H12 H 0.2637 -0.0034 0.2075
C16 C 0.5701(2) -0.05056(12) 0.14408(6)
O1 O 1.0009(2) 0.04294(15) 0.16763(5)
O2 O 0.6401(2) -0.10784(10) 0.11494(5)
O3 O 0.47822(18) -0.09061(8) 0.18149(5)
O4 O 0.65671(16) 0.11928(9) 0.22035(3)
loop_
_geom_bond_atom_site_label_1
_geom_bond_atom_site_label_2
_geom_bond_site_symmetry_1
_geom_bond_site_symmetry_2
C1 C2 1_555 1_555
C2 H1 1_555 1_555
C3 C2 1_555 1_555
H2 C3 1_555 1_555
C4 C3 1_555 1_555
H3 C4 1_555 1_555
C5 C4 1_555 1_555
H4 C5 1_555 1_555
C6 C1 1_555 1_555
H5 C6 1_555 1_555
C7 C1 1_555 1_555
C8 C7 1_555 1_555
C9 C8 1_555 1_555
C10 C8 1_555 1_555
H6 C10 1_555 1_555
H7 C10 1_555 1_555
C11 C9 1_555 1_555
C12 C8 1_555 1_555
H8 C12 1_555 1_555
C13 C12 1_555 1_555
H9 C13 1_555 1_555
C14 C11 1_555 1_555
H10 C14 1_555 1_555
C15 C11 1_555 1_555
H11 C15 1_555 1_555
H12 C15 1_555 1_555
C16 C9 1_555 1_555
O1 C7 1_555 1_555
O2 C16 1_555 1_555
O3 C15 1_555 1_555
O4 C11 1_555 1_555
C5 C6 1_555 1_555
C9 C10 1_555 1_555
C12 O4 1_555 1_555
C13 C14 1_555 1_555
C16 O3 1_555 1_555

#END
