
#######################################################################
#
#                 Cambridge Crystallographic Data Centre
#                                CCDC 
#
#######################################################################
#
# If this CIF has been generated from an entry in the Cambridge 
# Structural Database, then it will include bibliographic, chemical, 
# crystal, experimental, refinement or atomic coordinate data resulting 
# from the CCDC's data processing and validation procedures.
#
#######################################################################

data_ARUDIC
_chemical_formula_moiety         'C24 H18 N4 O3,2(C1 H4 O1)'
_chemical_name_systematic        
"4,4'-oxybis(N-(pyridin-4-yl)benzamide) methanol solvate"
_symmetry_cell_setting           monoclinic
_symmetry_space_group_name_H-M   'C 2/c'
_symmetry_Int_Tables_number      15
_space_group_name_Hall           '-C 2yn'
loop_
_symmetry_equiv_pos_site_id
_symmetry_equiv_pos_as_xyz
1 x,y,z
2 -x,y,1/2-z
3 1/2+x,1/2+y,z
4 1/2-x,1/2+y,1/2-z
5 -x,-y,-z
6 x,-y,1/2+z
7 1/2-x,1/2-y,-z
8 1/2+x,1/2-y,1/2+z
_cell_length_a                   22.368(2)
_cell_length_b                   8.6548(8)
_cell_length_c                   15.6238(16)
_cell_angle_alpha                90
_cell_angle_beta                 127.127(4)
_cell_angle_gamma                90
_cell_volume                     2411.53
_exptl_crystal_colour            colorless
_exptl_crystal_description       block
_cell_formula_units_Z            4
loop_
_atom_site_label
_atom_site_type_symbol
_atom_site_fract_x
_atom_site_fract_y
_atom_site_fract_z
C1 C 0.01608(13) 0.5622(2) 0.19009(18)
C2 C 0.07227(12) 0.5088(2) 0.18708(17)
H1 H 0.0993 0.4212 0.2259
C3 C 0.08877(11) 0.5856(2) 0.12605(17)
H2 H 0.1278 0.5509 0.1252
C4 C 0.04749(10) 0.7143(2) 0.06604(15)
C5 C -0.01009(12) 0.7644(3) 0.06926(18)
H3 H -0.0386 0.8496 0.0286
C6 C -0.02551(13) 0.6905(3) 0.13137(19)
H4 H -0.0636 0.7262 0.1340
C7 C 0.05923(11) 0.7970(2) -0.00618(16)
C8 C 0.15713(11) 0.8848(3) -0.02143(16)
C9 C 0.11276(14) 0.9112(3) -0.13108(18)
H5 H 0.0626 0.8815 -0.1748
C10 C 0.14371(16) 0.9812(4) -0.1738(2)
H6 H 0.1128 0.9983 -0.2475
C11 C 0.25750(17) 0.9962(4) -0.0133(2)
H7 H 0.3080 1.0227 0.0278
C12 C 0.23148(14) 0.9280(3) 0.03727(18)
H8 H 0.2637 0.9108 0.1109
N1 N 0.13281(9) 0.8135(2) 0.03255(13)
N2 N 0.21463(14) 1.0272(3) -0.11856(18)
O1 O 0.0000 0.4788(2) 0.2500
O2 O 0.00645(8) 0.8487(2) -0.09249(12)
C1A C -0.01608(13) 0.5622(2) 0.30991(18)
C2A C -0.07227(12) 0.5088(2) 0.31292(17)
H1A H -0.0993 0.4212 0.2741
C3A C -0.08877(11) 0.5856(2) 0.37395(17)
H2A H -0.1278 0.5509 0.3748
C4A C -0.04749(10) 0.7143(2) 0.43396(15)
C5A C 0.01009(12) 0.7644(3) 0.43074(18)
H3A H 0.0386 0.8496 0.4714
C6A C 0.02551(13) 0.6905(3) 0.36863(19)
H4A H 0.0636 0.7262 0.3660
C7A C -0.05923(11) 0.7970(2) 0.50618(16)
C8A C -0.15713(11) 0.8848(3) 0.52143(16)
C9A C -0.11276(14) 0.9112(3) 0.63108(18)
H5A H -0.0626 0.8815 0.6748
C10A C -0.14371(16) 0.9812(4) 0.6738(2)
H6A H -0.1128 0.9983 0.7475
C11A C -0.25750(17) 0.9962(4) 0.5133(2)
H7A H -0.3080 1.0227 0.4722
C12A C -0.23148(14) 0.9280(3) 0.46273(18)
H8A H -0.2637 0.9108 0.3891
N1A N -0.13281(9) 0.8135(2) 0.46745(13)
N2A N -0.21463(14) 1.0272(3) 0.61856(18)
O2A O -0.00645(8) 0.8487(2) 0.59249(12)
C13 C 0.3000(2) 0.2880(4) 0.8256(2)
H9 H 0.2814 0.3870 0.7917
H10 H 0.3470 0.2678 0.8382
H11 H 0.3073 0.2881 0.8928
O3 O 0.25024(10) 0.1777(2) 0.76139(12)
H12 H 0.2382 0.1293 0.7940
loop_
_geom_bond_atom_site_label_1
_geom_bond_atom_site_label_2
_geom_bond_site_symmetry_1
_geom_bond_site_symmetry_2
C1 C2 1_555 1_555
C2 H1 1_555 1_555
C3 C2 1_555 1_555
H2 C3 1_555 1_555
C4 C3 1_555 1_555
C5 C4 1_555 1_555
H3 C5 1_555 1_555
C6 C1 1_555 1_555
H4 C6 1_555 1_555
C7 C4 1_555 1_555
C8 C9 1_555 1_555
C9 H5 1_555 1_555
C10 C9 1_555 1_555
H6 C10 1_555 1_555
C11 H7 1_555 1_555
C12 C8 1_555 1_555
H8 C12 1_555 1_555
N1 C7 1_555 1_555
N2 C10 1_555 1_555
O1 C1 1_555 1_555
O2 C7 1_555 1_555
C13 H9 1_555 1_555
H10 C13 1_555 1_555
H11 C13 1_555 1_555
O3 C13 1_555 1_555
H12 O3 1_555 1_555
C1A O1 1_555 1_555
C2A C1A 1_555 1_555
H1A C2A 1_555 1_555
C3A C2A 1_555 1_555
H2A C3A 1_555 1_555
C4A C3A 1_555 1_555
C5A C4A 1_555 1_555
H3A C5A 1_555 1_555
C6A C1A 1_555 1_555
H4A C6A 1_555 1_555
C7A C4A 1_555 1_555
C8A C9A 1_555 1_555
C9A H5A 1_555 1_555
C10A C9A 1_555 1_555
H6A C10A 1_555 1_555
C11A H7A 1_555 1_555
C12A C8A 1_555 1_555
H8A C12A 1_555 1_555
N1A C7A 1_555 1_555
N2A C10A 1_555 1_555
O2A C7A 1_555 1_555
C5 C6 1_555 1_555
C8 N1 1_555 1_555
C11 C12 1_555 1_555
C11 N2 1_555 1_555
C5A C6A 1_555 1_555
C8A N1A 1_555 1_555
C11A C12A 1_555 1_555
C11A N2A 1_555 1_555

#END
