
#######################################################################
#
#                 Cambridge Crystallographic Data Centre
#                                CCDC 
#
#######################################################################
#
# If this CIF has been generated from an entry in the Cambridge 
# Structural Database, then it will include bibliographic, chemical, 
# crystal, experimental, refinement or atomic coordinate data resulting 
# from the CCDC's data processing and validation procedures.
#
#######################################################################

data_ARUFUQ
_chemical_formula_moiety         'C37 H32 N2 O4 S2'
_chemical_name_systematic        
2'-benzyl-1,1'-bis((4-methylphenyl)sulfonyl)-2',3'-dihydro-1H,1'H-2,3'-biindole
_symmetry_cell_setting           monoclinic
_symmetry_space_group_name_H-M   'P 21/c'
_symmetry_Int_Tables_number      14
_space_group_name_Hall           '-P 2ybc'
loop_
_symmetry_equiv_pos_site_id
_symmetry_equiv_pos_as_xyz
1 x,y,z
2 -x,1/2+y,1/2-z
3 -x,-y,-z
4 x,1/2-y,1/2+z
_cell_length_a                   11.638(5)
_cell_length_b                   9.695(3)
_cell_length_c                   28.574(10)
_cell_angle_alpha                90
_cell_angle_beta                 96.741(11)
_cell_angle_gamma                90
_cell_volume                     3201.73
_exptl_crystal_description       block
_cell_formula_units_Z            4
loop_
_atom_site_label
_atom_site_type_symbol
_atom_site_fract_x
_atom_site_fract_y
_atom_site_fract_z
C1 C 0.3311(3) 0.9495(4) 0.38110(14)
H1 H 0.3014 1.0253 0.3604
C2 C 0.2354(3) 0.8361(4) 0.38142(13)
H2 H 0.2039 0.8366 0.4118
C3 C 0.3034(3) 0.7047(4) 0.37644(13)
C4 C 0.4074(4) 0.7322(4) 0.36083(13)
C5 C 0.4838(4) 0.6278(6) 0.35165(15)
H3 H 0.5535 0.6468 0.3401
C6 C 0.4505(5) 0.4936(6) 0.36072(16)
H4 H 0.4993 0.4211 0.3549
C7 C 0.3485(5) 0.4651(5) 0.37786(15)
H5 H 0.3301 0.3744 0.3845
C8 C 0.2722(4) 0.5701(4) 0.38542(13)
H6 H 0.2016 0.5509 0.3963
C9 C 0.3950(4) 0.9551(5) 0.26744(15)
C10 C 0.3860(5) 0.8411(5) 0.23766(19)
H7 H 0.4346 0.7656 0.2443
C11 C 0.3054(5) 0.8398(5) 0.19830(18)
H8 H 0.2998 0.7625 0.1789
C12 C 0.2318(5) 0.9513(5) 0.18670(17)
C13 C 0.2425(5) 1.0643(5) 0.21638(18)
H9 H 0.1947 1.1403 0.2094
C14 C 0.3232(5) 1.0670(5) 0.25651(18)
H10 H 0.3288 1.1442 0.2760
C15 C 0.1462(5) 0.9503(5) 0.14304(16)
H11 H 0.1028 1.0347 0.1412
H12 H 0.0945 0.8736 0.1442
H13 H 0.1867 0.9420 0.1158
C16 C 0.3758(4) 1.0076(4) 0.43010(14)
H14 H 0.4530 1.0438 0.4287
H15 H 0.3268 1.0847 0.4365
C17 C 0.3806(4) 0.9088(4) 0.47114(15)
C18 C 0.4566(4) 0.7979(5) 0.47636(18)
H16 H 0.5082 0.7835 0.4543
C19 C 0.4561(5) 0.7078(5) 0.5145(2)
H17 H 0.5068 0.6334 0.5178
C20 C 0.3812(6) 0.7292(6) 0.5469(2)
H18 H 0.3798 0.6676 0.5717
C21 C 0.3073(5) 0.8406(7) 0.54338(19)
H19 H 0.2583 0.8565 0.5663
C22 C 0.3072(4) 0.9287(5) 0.50511(17)
H20 H 0.2564 1.0031 0.5023
C23 C 0.1382(3) 0.8462(4) 0.34160(13)
C24 C 0.1290(3) 0.7816(4) 0.29960(14)
H21 H 0.1836 0.7211 0.2899
C25 C 0.0233(3) 0.8193(4) 0.27216(14)
C26 C -0.0358(3) 0.9103(4) 0.29845(14)
C27 C -0.1433(4) 0.9614(4) 0.28188(15)
H22 H -0.1824 1.0206 0.3002
C28 C -0.1916(4) 0.9226(4) 0.23748(17)
H23 H -0.2644 0.9556 0.2258
C29 C -0.1336(4) 0.8355(5) 0.20997(16)
H24 H -0.1669 0.8120 0.1798
C30 C -0.0266(4) 0.7832(4) 0.22709(15)
H25 H 0.0121 0.7242 0.2086
C31 C -0.0610(4) 0.8872(4) 0.42180(14)
C32 C -0.1694(4) 0.8377(5) 0.40749(16)
H26 H -0.2112 0.8697 0.3799
C33 C -0.2161(5) 0.7391(5) 0.4347(2)
H27 H -0.2898 0.7049 0.4254
C34 C -0.1539(7) 0.6907(5) 0.4758(2)
C35 C -0.0470(6) 0.7422(6) 0.48911(18)
H28 H -0.0055 0.7102 0.5168
C36 C 0.0022(4) 0.8406(5) 0.46283(16)
H29 H 0.0759 0.8748 0.4724
C37 C -0.2073(6) 0.5818(6) 0.5055(2)
H30 H -0.1536 0.5595 0.5326
H31 H -0.2244 0.5002 0.4870
H32 H -0.2773 0.6173 0.5156
N1 N 0.4267(3) 0.8780(4) 0.35999(12)
N2 N 0.0383(3) 0.9329(3) 0.34158(10)
O1 O 0.5898(3) 0.8761(4) 0.31241(12)
O2 O 0.5047(3) 1.0977(4) 0.33530(12)
O3 O -0.0908(3) 1.1088(3) 0.37067(10)
O4 O 0.1041(2) 1.0653(3) 0.41435(9)
S1 S 0.49105(11) 0.95755(16) 0.31954(5)
S2 S -0.00059(10) 1.01509(11) 0.38833(4)
loop_
_geom_bond_atom_site_label_1
_geom_bond_atom_site_label_2
_geom_bond_site_symmetry_1
_geom_bond_site_symmetry_2
C1 H1 1_555 1_555
C2 C1 1_555 1_555
H2 C2 1_555 1_555
C3 C2 1_555 1_555
C4 C3 1_555 1_555
C5 C4 1_555 1_555
H3 C5 1_555 1_555
C6 C5 1_555 1_555
H4 C6 1_555 1_555
C7 C6 1_555 1_555
H5 C7 1_555 1_555
C8 C3 1_555 1_555
H6 C8 1_555 1_555
C9 C10 1_555 1_555
C10 H7 1_555 1_555
C11 C10 1_555 1_555
H8 C11 1_555 1_555
C12 C11 1_555 1_555
C13 C12 1_555 1_555
H9 C13 1_555 1_555
C14 C9 1_555 1_555
H10 C14 1_555 1_555
C15 C12 1_555 1_555
H11 C15 1_555 1_555
H12 C15 1_555 1_555
H13 C15 1_555 1_555
C16 C1 1_555 1_555
H14 C16 1_555 1_555
H15 C16 1_555 1_555
C17 C16 1_555 1_555
C18 C17 1_555 1_555
H16 C18 1_555 1_555
C19 C18 1_555 1_555
H17 C19 1_555 1_555
C20 C19 1_555 1_555
H18 C20 1_555 1_555
C21 C20 1_555 1_555
H19 C21 1_555 1_555
C22 C17 1_555 1_555
H20 C22 1_555 1_555
C23 C2 1_555 1_555
C24 C23 1_555 1_555
H21 C24 1_555 1_555
C25 C24 1_555 1_555
C26 C25 1_555 1_555
C27 C26 1_555 1_555
H22 C27 1_555 1_555
C28 C27 1_555 1_555
H23 C28 1_555 1_555
C29 C28 1_555 1_555
H24 C29 1_555 1_555
C30 C25 1_555 1_555
H25 C30 1_555 1_555
C31 C32 1_555 1_555
C32 H26 1_555 1_555
C33 C32 1_555 1_555
H27 C33 1_555 1_555
C34 C33 1_555 1_555
C35 C34 1_555 1_555
H28 C35 1_555 1_555
C36 C31 1_555 1_555
H29 C36 1_555 1_555
C37 C34 1_555 1_555
H30 C37 1_555 1_555
H31 C37 1_555 1_555
H32 C37 1_555 1_555
N1 C1 1_555 1_555
N2 C23 1_555 1_555
O1 S1 1_555 1_555
O2 S1 1_555 1_555
O3 S2 1_555 1_555
O4 S2 1_555 1_555
S1 C9 1_555 1_555
S2 C31 1_555 1_555
C4 N1 1_555 1_555
C7 C8 1_555 1_555
C13 C14 1_555 1_555
C21 C22 1_555 1_555
C26 N2 1_555 1_555
C29 C30 1_555 1_555
C35 C36 1_555 1_555
N1 S1 1_555 1_555
N2 S2 1_555 1_555

#END
