
#######################################################################
#
#                 Cambridge Crystallographic Data Centre
#                                CCDC 
#
#######################################################################
#
# If this CIF has been generated from an entry in the Cambridge 
# Structural Database, then it will include bibliographic, chemical, 
# crystal, experimental, refinement or atomic coordinate data resulting 
# from the CCDC's data processing and validation procedures.
#
#######################################################################

data_ARUFOK
_chemical_formula_moiety         'C24 H18 Br1 N1 O3 S1'
_chemical_name_systematic        
(4-bromophenyl)(3-ethynyl-1-((4-methylphenyl)sulfonyl)-2,3-dihydro-1H-indol-2-yl)methanone
_symmetry_cell_setting           hexagonal
_symmetry_space_group_name_H-M   'P 65'
_symmetry_Int_Tables_number      170
_space_group_name_Hall           'P 65'
loop_
_symmetry_equiv_pos_site_id
_symmetry_equiv_pos_as_xyz
1 x,y,z
2 x-y,x,5/6+z
3 y,-x+y,1/6+z
4 -y,x-y,2/3+z
5 -x+y,-x,1/3+z
6 -x,-y,1/2+z
_cell_length_a                   9.4218(11)
_cell_length_b                   9.4218(11)
_cell_length_c                   41.184(5)
_cell_angle_alpha                90
_cell_angle_beta                 90
_cell_angle_gamma                120
_cell_volume                     3166.12
_exptl_crystal_colour            colorless
_exptl_crystal_description       block
_cell_formula_units_Z            6
loop_
_atom_site_label
_atom_site_type_symbol
_atom_site_fract_x
_atom_site_fract_y
_atom_site_fract_z
Br1 Br -0.12594(9) -0.15197(8) 0.47605(2)
N1 N 0.8476(7) 0.2677(6) 0.53665(11)
C1 C 0.3636(8) 0.1265(7) 0.49813(15)
H1 H 0.4400 0.2400 0.5006
C2 C 0.2062(8) 0.0776(7) 0.48944(16)
H2 H 0.1736 0.1566 0.4856
C3 C 0.2977(9) -0.1528(7) 0.49955(19)
H3 H 0.3290 -0.2329 0.5032
C4 C 0.0944(8) -0.0876(7) 0.48624(13)
C5 C 0.1408(9) -0.2023(7) 0.49061(17)
H4 H 0.0644 -0.3153 0.4874
O1 O 0.6093(6) -0.0490(5) 0.52545(14)
C6 C 1.1299(9) 0.4125(7) 0.46784(14)
H5 H 1.1198 0.4133 0.4449
C7 C 1.1576(8) 0.4081(6) 0.53623(15)
H6 H 1.1678 0.4055 0.5591
C8 C 1.2946(9) 0.4758(7) 0.51606(17)
H7 H 1.4002 0.5216 0.5256
C9 C 1.0832(11) 0.8034(9) 0.57616(16)
H8 H 1.1940 0.8825 0.5807
C10 C 0.4141(8) 0.0126(6) 0.50352(13)
C11 C 0.9903(8) 0.3439(6) 0.48818(13)
C12 C 0.7720(9) 0.3543(7) 0.45532(15)
C13 C 0.8115(8) 0.2608(6) 0.47861(15)
H9 H 0.7800 0.1518 0.4688
C14 C 0.7598(10) 0.5720(9) 0.56287(15)
H10 H 0.6489 0.4929 0.5583
C15 C 1.2825(9) 0.4788(7) 0.48266(18)
H11 H 1.3790 0.5265 0.4698
C16 C 0.7404(10) 0.4295(9) 0.43685(18)
H12 H 0.7148 0.4904 0.4219
C17 C 1.0334(15) 1.0354(10) 0.5641(2)
H13 H 1.0081 1.0745 0.5841
H14 H 0.9787 1.0542 0.5457
H15 H 1.1521 1.0951 0.5605
C18 C 1.0322(10) 0.6384(8) 0.57859(14)
H16 H 1.1077 0.6041 0.5847
C19 C 0.5803(8) 0.0540(7) 0.51468(14)
C20 C 0.9736(13) 0.8542(10) 0.56705(16)
C21 C 0.8156(12) 0.7402(11) 0.56044(15)
H17 H 0.7412 0.7753 0.5540
C22 C 0.8724(9) 0.5247(8) 0.57215(13)
S1 S 0.8128(2) 0.31606(19) 0.57323(3)
O2 O 0.9192(7) 0.2965(6) 0.59521(10)
C23 C 1.0054(8) 0.3444(6) 0.52139(13)
C24 C 0.7212(8) 0.2320(6) 0.51187(13)
H18 H 0.6780 0.3093 0.5142
O3 O 0.6381(6) 0.2208(6) 0.57691(11)
loop_
_geom_bond_atom_site_label_1
_geom_bond_atom_site_label_2
_geom_bond_site_symmetry_1
_geom_bond_site_symmetry_2
Br1 C4 1_555 1_555
N1 S1 1_555 1_555
C1 H1 1_555 1_555
C2 C1 1_555 1_555
H2 C2 1_555 1_555
C3 H3 1_555 1_555
C4 C2 1_555 1_555
C5 C3 1_555 1_555
H4 C5 1_555 1_555
O1 C19 1_555 1_555
C6 H5 1_555 1_555
C7 H6 1_555 1_555
C8 C7 1_555 1_555
H7 C8 1_555 1_555
C9 H8 1_555 1_555
C10 C1 1_555 1_555
C11 C6 1_555 1_555
C12 C13 1_555 1_555
C13 C11 1_555 1_555
H9 C13 1_555 1_555
C14 H10 1_555 1_555
C15 C6 1_555 1_555
H11 C15 1_555 1_555
C16 C12 1_555 1_555
H12 C16 1_555 1_555
C17 H13 1_555 1_555
H14 C17 1_555 1_555
H15 C17 1_555 1_555
C18 C9 1_555 1_555
H16 C18 1_555 1_555
C19 C10 1_555 1_555
C20 C9 1_555 1_555
C21 C14 1_555 1_555
H17 C21 1_555 1_555
C22 C14 1_555 1_555
S1 C22 1_555 1_555
O2 S1 1_555 1_555
C23 N1 1_555 1_555
C24 N1 1_555 1_555
H18 C24 1_555 1_555
O3 S1 1_555 1_555
C3 C10 1_555 1_555
C4 C5 1_555 1_555
C7 C23 1_555 1_555
C8 C15 1_555 1_555
C11 C23 1_555 1_555
C13 C24 1_555 1_555
C17 C20 1_555 1_555
C18 C22 1_555 1_555
C19 C24 1_555 1_555
C20 C21 1_555 1_555

#END
