
#######################################################################
#
#                 Cambridge Crystallographic Data Centre
#                                CCDC 
#
#######################################################################
#
# If this CIF has been generated from an entry in the Cambridge 
# Structural Database, then it will include bibliographic, chemical, 
# crystal, experimental, refinement or atomic coordinate data resulting 
# from the CCDC's data processing and validation procedures.
#
#######################################################################

data_ARUPOT
_chemical_formula_moiety         'C66 H54 O24,0.5(C2 H6 O1),2(C1 H2 Cl2)'
_chemical_name_systematic        
'1,3,5-tris(2,3,4,5-tetrakis(Methoxycarbonyl)biphenylyl)benzene dichloromethane ethanol solvate'
_symmetry_cell_setting           triclinic
_symmetry_space_group_name_H-M   'P -1'
_symmetry_Int_Tables_number      2
_space_group_name_Hall           '-P 1'
loop_
_symmetry_equiv_pos_site_id
_symmetry_equiv_pos_as_xyz
1 x,y,z
2 -x,-y,-z
_cell_length_a                   12.0972(3)
_cell_length_b                   14.9120(4)
_cell_length_c                   20.7722(6)
_cell_angle_alpha                72.261(2)
_cell_angle_beta                 77.370(2)
_cell_angle_gamma                89.011(2)
_cell_volume                     3477.73
_cell_formula_units_Z            2
loop_
_atom_site_label
_atom_site_type_symbol
_atom_site_fract_x
_atom_site_fract_y
_atom_site_fract_z
O1 O 0.09899(19) 0.86978(16) 0.70094(12)
O2 O 0.0226(2) 0.72233(19) 0.74526(15)
O3 O 0.0737(2) 0.6205(2) 0.59919(16)
O4 O 0.0276(2) 0.7681(2) 0.59441(18)
O5 O 0.2526(2) 0.71005(19) 0.47828(12)
O6 O 0.3452(2) 0.58101(18) 0.51826(13)
O7 O 0.57012(19) 0.61063(16) 0.59199(12)
O8 O 0.5459(2) 0.72393(19) 0.49708(12)
O9 O 0.3297(2) 1.10381(18) 0.64669(12)
O10 O 0.19389(18) 1.05383(17) 0.74399(13)
O11 O 0.46617(19) 1.32044(15) 0.65639(12)
O12 O 0.2859(2) 1.27079(18) 0.70592(16)
O13 O 0.6670(2) 1.29357(17) 0.75036(13)
O14 O 0.4918(2) 1.32895(18) 0.79411(16)
O15 O 0.6358(2) 1.15739(19) 0.88851(12)
O16 O 0.7441(2) 1.0666(2) 0.83433(17)
O17 O 0.00643(19) 0.88052(15) 0.90969(11)
O18 O 0.1000(2) 0.93031(15) 0.97572(12)
O19 O -0.1283(2) 0.80382(18) 1.06463(12)
O20 O -0.0364(2) 0.7733(2) 1.15107(13)
O21 O -0.10746(19) 0.57238(18) 1.17122(11)
O22 O 0.0569(2) 0.5407(2) 1.20303(13)
O23 O 0.07184(18) 0.42537(14) 1.07911(11)
O24 O 0.24095(19) 0.45080(16) 1.09939(13)
C1 C 0.3089(2) 0.79129(19) 0.75566(13)
C2 C 0.3686(2) 0.87522(19) 0.74614(13)
H1 H 0.4127 0.9088 0.7016
C3 C 0.3639(2) 0.91001(18) 0.80165(13)
C4 C 0.3007(2) 0.85911(18) 0.86709(13)
H2 H 0.2986 0.8821 0.9052
C5 C 0.2410(2) 0.77550(18) 0.87746(13)
C6 C 0.2451(2) 0.74201(18) 0.82122(14)
H3 H 0.2040 0.6851 0.8277
C7 C 0.3102(2) 0.75671(18) 0.69501(13)
C8 C 0.2089(2) 0.75025(19) 0.67425(14)
C9 C 0.2052(2) 0.7151(2) 0.61949(14)
C10 C 0.3045(3) 0.68971(19) 0.58306(14)
C11 C 0.4068(2) 0.69805(18) 0.60214(14)
C12 C 0.4110(2) 0.73007(18) 0.65826(13)
C13 C 0.5227(2) 0.7338(2) 0.67741(15)
C14 C 0.6094(3) 0.7980(3) 0.63274(19)
H4 H 0.5952 0.8446 0.5930
C15 C 0.7169(3) 0.7932(3) 0.6470(3)
H5 H 0.7762 0.8370 0.6168
C16 C 0.7387(3) 0.7246(4) 0.7052(2)
H6 H 0.8125 0.7211 0.7144
C17 C 0.6519(3) 0.6622(3) 0.7491(2)
H7 H 0.6663 0.6153 0.7887
C18 C 0.5441(3) 0.6670(3) 0.73622(17)
H8 H 0.4845 0.6246 0.7676
C19 C 0.0994(3) 0.7780(2) 0.71167(15)
C20 C -0.0039(3) 0.9035(3) 0.7335(2)
H9 H 0.0041 0.9722 0.7225
H10 H -0.0182 0.8743 0.7839
H11 H -0.0676 0.8871 0.7163
C21 C 0.0930(3) 0.7070(3) 0.60186(16)
C22 C -0.0345(4) 0.6064(5) 0.5833(4)
H12 H -0.0427 0.5416 0.5822
H13 H -0.0377 0.6507 0.5379
H14 H -0.0962 0.6174 0.6189
C23 C 0.3034(3) 0.6524(2) 0.52365(15)
C24 C 0.2433(4) 0.6805(4) 0.4194(2)
H15 H 0.2043 0.7278 0.3893
H16 H 0.2000 0.6198 0.4358
H17 H 0.3193 0.6739 0.3934
C25 C 0.5146(2) 0.6794(2) 0.55710(15)
C26 C 0.6816(3) 0.5975(3) 0.5545(2)
H18 H 0.7162 0.5458 0.5841
H19 H 0.7292 0.6557 0.5411
H20 H 0.6751 0.5822 0.5128
C27 C 0.4212(2) 1.00277(18) 0.79152(13)
C28 C 0.3839(2) 1.08507(19) 0.74994(14)
C29 C 0.4317(2) 1.17328(19) 0.74214(14)
C30 C 0.5173(2) 1.18001(19) 0.77553(14)
C31 C 0.5583(2) 1.0978(2) 0.81502(14)
C32 C 0.5100(2) 1.00899(19) 0.82373(14)
C33 C 0.5505(2) 0.9223(2) 0.86839(15)
C34 C 0.5334(3) 0.9066(2) 0.93888(17)
H21 H 0.4967 0.9519 0.9588
C35 C 0.5696(3) 0.8243(3) 0.98151(18)
H22 H 0.5578 0.8140 1.0300
C36 C 0.6222(3) 0.7586(3) 0.9525(2)
H23 H 0.6469 0.7027 0.9811
C37 C 0.6391(3) 0.7740(3) 0.8820(2)
H24 H 0.6760 0.7287 0.8623
C38 C 0.6029(3) 0.8548(2) 0.83980(17)
H25 H 0.6138 0.8642 0.7914
C39 C 0.2897(2) 1.07873(19) 0.71459(15)
C40 C 0.2458(4) 1.1046(4) 0.6060(2)
H26 H 0.2830 1.1242 0.5566
H27 H 0.1880 1.1490 0.6146
H28 H 0.2100 1.0412 0.6193
C41 C 0.3849(3) 1.2596(2) 0.69995(15)
C42 C 0.4277(4) 1.4090(2) 0.61635(19)
H29 H 0.4935 1.4493 0.5858
H30 H 0.3856 1.4412 0.6480
H31 H 0.3782 1.3960 0.5883
C43 C 0.5563(3) 1.2761(2) 0.77460(15)
C44 C 0.7107(4) 1.3822(3) 0.7525(3)
H32 H 0.7928 1.3891 0.7335
H33 H 0.6949 1.3831 0.8006
H34 H 0.6740 1.4344 0.7248
C45 C 0.6575(3) 1.1039(2) 0.84647(16)
C46 C 0.7299(4) 1.1736(4) 0.9171(3)
H35 H 0.7064 1.2131 0.9472
H36 H 0.7938 1.2055 0.8793
H37 H 0.7530 1.1130 0.9442
C47 C 0.1749(2) 0.72277(18) 0.94863(13)
C48 C 0.0932(2) 0.76718(18) 0.98598(13)
C49 C 0.0359(2) 0.7200(2) 1.05401(14)
C50 C 0.0586(2) 0.6267(2) 1.08574(14)
C51 C 0.1369(2) 0.58133(19) 1.04815(14)
C52 C 0.1955(2) 0.62809(18) 0.98036(13)
C53 C 0.2826(2) 0.57542(18) 0.94551(13)
C54 C 0.2494(3) 0.5040(2) 0.92211(16)
H38 H 0.1715 0.4924 0.9244
C55 C 0.3309(3) 0.4498(2) 0.89542(18)
H39 H 0.3088 0.4014 0.8792
C56 C 0.4442(3) 0.4669(2) 0.89267(17)
H40 H 0.4998 0.4294 0.8750
C57 C 0.4767(3) 0.5375(3) 0.91535(18)
H41 H 0.5547 0.5489 0.9131
C58 C 0.3962(3) 0.5924(2) 0.94147(16)
H42 H 0.4192 0.6417 0.9566
C59 C 0.0684(2) 0.86884(19) 0.95615(13)
C60 C -0.0319(4) 0.9760(3) 0.88424(19)
H43 H -0.0769 0.9780 0.8500
H44 H 0.0342 1.0205 0.8626
H45 H -0.0784 0.9933 0.9231
C61 C -0.0459(3) 0.76861(19) 1.09614(14)
C62 C -0.2148(3) 0.8493(3) 1.1019(2)
H46 H -0.2714 0.8727 1.0743
H47 H -0.1799 0.9022 1.1104
H48 H -0.2519 0.8037 1.1463
C63 C 0.0034(3) 0.5754(2) 1.16024(15)
C64 C -0.1690(4) 0.5265(3) 1.2417(2)
H49 H -0.2507 0.5285 1.2438
H50 H -0.1495 0.5591 1.2724
H51 H -0.1484 0.4607 1.2564
C65 C 0.1586(2) 0.47900(19) 1.07968(14)
C66 C 0.0876(3) 0.3254(2) 1.0981(2)
H52 H 0.0198 0.2922 1.0961
H53 H 0.1000 0.3033 1.1454
H54 H 0.1536 0.3127 1.0659
C67 C 0.4046(7) 0.9148(5) 0.4293(4)
H55 H 0.4802 0.9428 0.4173
H56 H 0.4102 0.8477 0.4414
Cl1 Cl 0.3474(2) 0.95097(14) 0.36023(10)
Cl2 Cl 0.3283(4) 0.9421(2) 0.5014(2)
C68 C 0.0347(6) 0.2747(7) 0.6970(4)
H57 H 0.1022 0.2433 0.7112
H58 H 0.0082 0.3153 0.7266
Cl3 Cl 0.0753(3) 0.3471(3) 0.60930(13)
Cl4 Cl -0.0681(2) 0.1919(2) 0.71138(18)
O25 O 0.1236(4) 0.0087(3) 0.5024(3)
H59 H 0.1102 -0.0440 0.4979
C69 C 0.0383(4) 0.0337(3) 0.5333(3)
H60 H 0.0214 -0.0246 0.5733
H61 H -0.0119 0.0257 0.5034
C70 C -0.0342(4) 0.0948(3) 0.5661(3)
H62 H -0.1109 0.0651 0.5853
H63 H -0.0373 0.1559 0.5314
H64 H -0.0029 0.1041 0.6034
C71? C -0.028(3) 0.2250(12) 0.7081(9)
Cl5? Cl 0.4350(13) 0.9638(5) 0.4784(5)
Cl6? Cl 0.0318(7) 0.3495(5) 0.6427(6)
Cl7? Cl -0.0430(4) 0.1631(3) 0.6597(3)
H65? H 0.0263 0.1969 0.7372
H66? H -0.1013 0.2301 0.7386
loop_
_geom_bond_atom_site_label_1
_geom_bond_atom_site_label_2
_geom_bond_site_symmetry_1
_geom_bond_site_symmetry_2
O1 C19 1_555 1_555
O2 C19 1_555 1_555
O3 C21 1_555 1_555
O4 C21 1_555 1_555
O5 C23 1_555 1_555
O6 C23 1_555 1_555
O7 C25 1_555 1_555
O8 C25 1_555 1_555
O9 C39 1_555 1_555
O10 C39 1_555 1_555
O11 C41 1_555 1_555
O12 C41 1_555 1_555
O13 C43 1_555 1_555
O14 C43 1_555 1_555
O15 C45 1_555 1_555
O16 C45 1_555 1_555
O17 C59 1_555 1_555
O18 C59 1_555 1_555
O19 C61 1_555 1_555
O20 C61 1_555 1_555
O21 C63 1_555 1_555
O22 C63 1_555 1_555
O23 C65 1_555 1_555
O24 C65 1_555 1_555
C1 C2 1_555 1_555
C2 H1 1_555 1_555
C3 C2 1_555 1_555
C4 C3 1_555 1_555
H2 C4 1_555 1_555
C5 C4 1_555 1_555
C6 C1 1_555 1_555
H3 C6 1_555 1_555
C7 C1 1_555 1_555
C8 C7 1_555 1_555
C9 C8 1_555 1_555
C10 C9 1_555 1_555
C11 C10 1_555 1_555
C12 C7 1_555 1_555
C13 C12 1_555 1_555
C14 C13 1_555 1_555
H4 C14 1_555 1_555
C15 C14 1_555 1_555
H5 C15 1_555 1_555
C16 C15 1_555 1_555
H6 C16 1_555 1_555
C17 C16 1_555 1_555
H7 C17 1_555 1_555
C18 C13 1_555 1_555
H8 C18 1_555 1_555
C19 C8 1_555 1_555
C20 O1 1_555 1_555
H9 C20 1_555 1_555
H10 C20 1_555 1_555
H11 C20 1_555 1_555
C21 C9 1_555 1_555
C22 O3 1_555 1_555
H12 C22 1_555 1_555
H13 C22 1_555 1_555
H14 C22 1_555 1_555
C23 C10 1_555 1_555
C24 O5 1_555 1_555
H15 C24 1_555 1_555
H16 C24 1_555 1_555
H17 C24 1_555 1_555
C25 C11 1_555 1_555
C26 O7 1_555 1_555
H18 C26 1_555 1_555
H19 C26 1_555 1_555
H20 C26 1_555 1_555
C27 C3 1_555 1_555
C28 C27 1_555 1_555
C29 C28 1_555 1_555
C30 C29 1_555 1_555
C31 C30 1_555 1_555
C32 C27 1_555 1_555
C33 C32 1_555 1_555
C34 C33 1_555 1_555
H21 C34 1_555 1_555
C35 C34 1_555 1_555
H22 C35 1_555 1_555
C36 C35 1_555 1_555
H23 C36 1_555 1_555
C37 C36 1_555 1_555
H24 C37 1_555 1_555
C38 C33 1_555 1_555
H25 C38 1_555 1_555
C39 C28 1_555 1_555
C40 O9 1_555 1_555
H26 C40 1_555 1_555
H27 C40 1_555 1_555
H28 C40 1_555 1_555
C41 C29 1_555 1_555
C42 O11 1_555 1_555
H29 C42 1_555 1_555
H30 C42 1_555 1_555
H31 C42 1_555 1_555
C43 C30 1_555 1_555
C44 O13 1_555 1_555
H32 C44 1_555 1_555
H33 C44 1_555 1_555
H34 C44 1_555 1_555
C45 C31 1_555 1_555
C46 O15 1_555 1_555
H35 C46 1_555 1_555
H36 C46 1_555 1_555
H37 C46 1_555 1_555
C47 C5 1_555 1_555
C48 C47 1_555 1_555
C49 C48 1_555 1_555
C50 C49 1_555 1_555
C51 C50 1_555 1_555
C52 C47 1_555 1_555
C53 C52 1_555 1_555
C54 C53 1_555 1_555
H38 C54 1_555 1_555
C55 C54 1_555 1_555
H39 C55 1_555 1_555
C56 C55 1_555 1_555
H40 C56 1_555 1_555
C57 C56 1_555 1_555
H41 C57 1_555 1_555
C58 C53 1_555 1_555
H42 C58 1_555 1_555
C59 C48 1_555 1_555
C60 O17 1_555 1_555
H43 C60 1_555 1_555
H44 C60 1_555 1_555
H45 C60 1_555 1_555
C61 C49 1_555 1_555
C62 O19 1_555 1_555
H46 C62 1_555 1_555
H47 C62 1_555 1_555
H48 C62 1_555 1_555
C63 C50 1_555 1_555
C64 O21 1_555 1_555
H49 C64 1_555 1_555
H50 C64 1_555 1_555
H51 C64 1_555 1_555
C65 C51 1_555 1_555
C66 O23 1_555 1_555
H52 C66 1_555 1_555
H53 C66 1_555 1_555
H54 C66 1_555 1_555
C67 H55 1_555 1_555
H56 C67 1_555 1_555
Cl1 C67 1_555 1_555
Cl2 C67 1_555 1_555
C68 H57 1_555 1_555
H58 C68 1_555 1_555
Cl3 C68 1_555 1_555
Cl4 C68 1_555 1_555
O25 H59 1_555 1_555
C69 O25 1_555 1_555
H60 C69 1_555 1_555
H61 C69 1_555 1_555
C70 C69 1_555 1_555
H62 C70 1_555 1_555
H63 C70 1_555 1_555
H64 C70 1_555 1_555
C5 C6 1_555 1_555
C11 C12 1_555 1_555
C17 C18 1_555 1_555
C31 C32 1_555 1_555
C37 C38 1_555 1_555
C51 C52 1_555 1_555
C57 C58 1_555 1_555

#END
