
#######################################################################
#
#                 Cambridge Crystallographic Data Centre
#                                CCDC 
#
#######################################################################
#
# If this CIF has been generated from an entry in the Cambridge 
# Structural Database, then it will include bibliographic, chemical, 
# crystal, experimental, refinement or atomic coordinate data resulting 
# from the CCDC's data processing and validation procedures.
#
#######################################################################

data_ARUPIN
_chemical_formula_moiety         'C34 H26 O8'
_chemical_name_systematic        
'anti-Tetramethyl 5,6-bis(1-naphthyl)benzene-1,2,3,4-tetracarboxylate'
_symmetry_cell_setting           monoclinic
_symmetry_space_group_name_H-M   'P 21/n'
_symmetry_Int_Tables_number      14
_space_group_name_Hall           '-P 2yn'
loop_
_symmetry_equiv_pos_site_id
_symmetry_equiv_pos_as_xyz
1 x,y,z
2 1/2-x,1/2+y,1/2-z
3 -x,-y,-z
4 1/2+x,1/2-y,1/2+z
_cell_length_a                   8.79120(10)
_cell_length_b                   13.56520(10)
_cell_length_c                   24.5222(2)
_cell_angle_alpha                90
_cell_angle_beta                 98.6200(10)
_cell_angle_gamma                90
_cell_volume                     2891.35
_cell_formula_units_Z            4
loop_
_atom_site_label
_atom_site_type_symbol
_atom_site_fract_x
_atom_site_fract_y
_atom_site_fract_z
O1 O 0.63804(13) 0.51056(8) 0.06577(5)
O2 O 0.50227(11) 0.38301(7) 0.08977(4)
O3 O 0.86820(16) 0.55605(10) 0.21753(6)
O4 O 0.63497(13) 0.49406(10) 0.19018(5)
O5 O 0.99638(16) 0.37842(13) 0.28637(5)
O6 O 1.19837(13) 0.42038(8) 0.24541(4)
O7 O 1.18394(13) 0.18669(9) 0.23157(5)
O8 O 1.30288(11) 0.25382(9) 0.16653(4)
C1 C 0.82815(13) 0.29778(9) 0.08653(5)
C2 C 0.77026(14) 0.37624(9) 0.11389(5)
C3 C 0.84412(14) 0.40857(9) 0.16521(5)
C4 C 0.97994(14) 0.36284(9) 0.18908(5)
C5 C 1.03917(13) 0.28503(9) 0.16203(5)
C6 C 0.96303(14) 0.24969(9) 0.11152(5)
C7 C 0.74898(14) 0.26786(9) 0.03028(5)
C8 C 0.61955(16) 0.21024(11) 0.02468(5)
H1 H 0.5834 0.1869 0.0560
C9 C 0.54047(17) 0.18591(13) -0.02781(6)
H2 H 0.4534 0.1462 -0.0308
C10 C 0.58968(17) 0.21968(11) -0.07396(6)
H3 H 0.5358 0.2034 -0.1084
C11 C 0.72217(15) 0.27950(9) -0.07048(5)
C12 C 0.77744(19) 0.31455(11) -0.11848(5)
H4 H 0.7245 0.2986 -0.1531
C13 C 0.9064(2) 0.37101(12) -0.11471(7)
H5 H 0.9412 0.3933 -0.1465
C14 C 0.9870(2) 0.39559(11) -0.06267(7)
H6 H 1.0753 0.4341 -0.0603
C15 C 0.93739(16) 0.36377(9) -0.01567(6)
H7 H 0.9919 0.3815 0.0184
C16 C 0.80439(14) 0.30419(8) -0.01769(5)
C17 C 1.01738(14) 0.15599(9) 0.08892(5)
C18 C 1.14124(16) 0.15385(10) 0.06085(5)
H8 H 1.1881 0.2126 0.0530
C19 C 1.19809(18) 0.06380(11) 0.04375(6)
H9 H 1.2837 0.0635 0.0256
C20 C 1.12910(18) -0.02263(11) 0.05355(6)
H10 H 1.1664 -0.0814 0.0412
C21 C 1.00134(16) -0.02412(10) 0.08222(5)
C22 C 0.9294(2) -0.11361(11) 0.09359(7)
H11 H 0.9646 -0.1727 0.0809
C23 C 0.8100(2) -0.11446(13) 0.12271(8)
H12 H 0.7645 -0.1739 0.1300
C24 C 0.7550(2) -0.02591(15) 0.14178(8)
H13 H 0.6735 -0.0270 0.1619
C25 C 0.81991(17) 0.06181(11) 0.13104(6)
H14 H 0.7817 0.1199 0.1439
C26 C 0.94463(14) 0.06592(9) 0.10070(5)
C27 C 0.62997(14) 0.43168(9) 0.08663(5)
C28 C 0.36038(17) 0.43180(14) 0.06730(8)
H15 H 0.2748 0.3901 0.0717
H16 H 0.3602 0.4449 0.0288
H17 H 0.3519 0.4928 0.0865
C29 C 0.78659(16) 0.49500(10) 0.19397(5)
C30 C 0.5650(3) 0.5804(2) 0.21039(9)
H18 H 0.4554 0.5720 0.2057
H19 H 0.5896 0.6373 0.1901
H20 H 0.6035 0.5894 0.2488
C31 C 1.05601(17) 0.38986(11) 0.24610(5)
C32 C 1.2878(3) 0.43773(16) 0.29929(8)
H21 H 1.3892 0.4596 0.2949
H22 H 1.2951 0.3777 0.3203
H23 H 1.2384 0.4874 0.3183
C33 C 1.18214(14) 0.23459(9) 0.19084(5)
C34 C 1.4480(2) 0.2127(2) 0.19226(10)
H24 H 1.5276 0.2311 0.1714
H25 H 1.4402 0.1422 0.1933
H26 H 1.4724 0.2377 0.2292
loop_
_geom_bond_atom_site_label_1
_geom_bond_atom_site_label_2
_geom_bond_site_symmetry_1
_geom_bond_site_symmetry_2
O1 C27 1_555 1_555
O2 C27 1_555 1_555
O3 C29 1_555 1_555
O4 C29 1_555 1_555
O5 C31 1_555 1_555
O6 C31 1_555 1_555
O7 C33 1_555 1_555
O8 C33 1_555 1_555
C1 C2 1_555 1_555
C2 C3 1_555 1_555
C3 C4 1_555 1_555
C4 C5 1_555 1_555
C5 C6 1_555 1_555
C6 C1 1_555 1_555
C7 C1 1_555 1_555
C8 C7 1_555 1_555
H1 C8 1_555 1_555
C9 C8 1_555 1_555
H2 C9 1_555 1_555
C10 C9 1_555 1_555
H3 C10 1_555 1_555
C11 C10 1_555 1_555
C12 C11 1_555 1_555
H4 C12 1_555 1_555
C13 C12 1_555 1_555
H5 C13 1_555 1_555
C14 C13 1_555 1_555
H6 C14 1_555 1_555
C15 C14 1_555 1_555
H7 C15 1_555 1_555
C16 C7 1_555 1_555
C17 C6 1_555 1_555
C18 C17 1_555 1_555
H8 C18 1_555 1_555
C19 C18 1_555 1_555
H9 C19 1_555 1_555
C20 C19 1_555 1_555
H10 C20 1_555 1_555
C21 C20 1_555 1_555
C22 C21 1_555 1_555
H11 C22 1_555 1_555
C23 C22 1_555 1_555
H12 C23 1_555 1_555
C24 C23 1_555 1_555
H13 C24 1_555 1_555
C25 C24 1_555 1_555
H14 C25 1_555 1_555
C26 C17 1_555 1_555
C27 C2 1_555 1_555
C28 O2 1_555 1_555
H15 C28 1_555 1_555
H16 C28 1_555 1_555
H17 C28 1_555 1_555
C29 C3 1_555 1_555
C30 O4 1_555 1_555
H18 C30 1_555 1_555
H19 C30 1_555 1_555
H20 C30 1_555 1_555
C31 C4 1_555 1_555
C32 O6 1_555 1_555
H21 C32 1_555 1_555
H22 C32 1_555 1_555
H23 C32 1_555 1_555
C33 C5 1_555 1_555
C34 O8 1_555 1_555
H24 C34 1_555 1_555
H25 C34 1_555 1_555
H26 C34 1_555 1_555
C11 C16 1_555 1_555
C15 C16 1_555 1_555
C21 C26 1_555 1_555
C25 C26 1_555 1_555

#END
