
#######################################################################
#
#                 Cambridge Crystallographic Data Centre
#                                CCDC 
#
#######################################################################
#
# If this CIF has been generated from an entry in the Cambridge 
# Structural Database, then it will include bibliographic, chemical, 
# crystal, experimental, refinement or atomic coordinate data resulting 
# from the CCDC's data processing and validation procedures.
#
#######################################################################

data_ARUPAF
_chemical_formula_moiety         'C34 H26 O8'
_chemical_name_systematic        
'syn-Tetramethyl 5,6-bis(1-naphthyl)benzene-1,2,3,4-tetracarboxylate'
_symmetry_cell_setting           monoclinic
_symmetry_space_group_name_H-M   'P 21/n'
_symmetry_Int_Tables_number      14
_space_group_name_Hall           '-P 2yn'
loop_
_symmetry_equiv_pos_site_id
_symmetry_equiv_pos_as_xyz
1 x,y,z
2 1/2-x,1/2+y,1/2-z
3 -x,-y,-z
4 1/2+x,1/2-y,1/2+z
_cell_length_a                   11.9034(6)
_cell_length_b                   11.1168(5)
_cell_length_c                   21.4260(9)
_cell_angle_alpha                90
_cell_angle_beta                 97.873(4)
_cell_angle_gamma                90
_cell_volume                     2808.53
_cell_formula_units_Z            4
loop_
_atom_site_label
_atom_site_type_symbol
_atom_site_fract_x
_atom_site_fract_y
_atom_site_fract_z
O1 O 0.1471(5) 0.7774(5) 0.2385(2)
O2 O 0.1852(5) 0.9691(5) 0.2176(2)
O3 O 0.0220(5) 1.1931(6) 0.2477(3)
O4 O 0.0438(5) 1.0346(6) 0.3096(3)
O5 O -0.2240(5) 1.1584(6) 0.2606(3)
O6 O -0.2605(6) 1.2202(5) 0.1621(3)
O7 O -0.3576(6) 1.0302(6) 0.0479(3)
O8 O -0.4080(8) 0.9986(7) 0.1452(4)
C1 C -0.0142(9) 0.7074(10) 0.1216(4)
C2 C 0.0661(9) 0.7179(11) 0.0876(4)
C3 C 0.1238(8) 0.8118(8) 0.0672(4)
H1 H 0.1036 0.8882 0.0821
C4 C 0.2060(10) 0.8147(12) 0.0290(5)
H2 H 0.2410 0.8865 0.0173
C5 C 0.2328(14) 0.7016(11) 0.0090(7)
H3 H 0.2907 0.6974 -0.0173
C6 C 0.1858(11) 0.5962(10) 0.0230(5)
H4 H 0.2093 0.5243 0.0046
C7 C 0.1038(12) 0.5898(10) 0.0634(6)
C8 C 0.0562(9) 0.4830(14) 0.0803(4)
H5 H 0.0796 0.4084 0.0648
C9 C -0.0270(9) 0.4869(10) 0.1208(5)
H6 H -0.0601 0.4152 0.1341
C10 C -0.0606(8) 0.6030(7) 0.1414(4)
H7 H -0.1159 0.6077 0.1693
C11 C -0.2484(8) 0.7845(7) 0.0677(3)
C12 C -0.2328(7) 0.7858(6) 0.0052(3)
C13 C -0.1382(7) 0.8584(6) -0.0188(3)
H8 H -0.0860 0.9047 0.0090
C14 C -0.1326(7) 0.8535(7) -0.0824(3)
H9 H -0.0728 0.8957 -0.0979
C15 C -0.2073(9) 0.7916(8) -0.1246(4)
H10 H -0.2008 0.7940 -0.1683
C16 C -0.2870(8) 0.7299(8) -0.1045(4)
H11 H -0.3364 0.6848 -0.1344
C17 C -0.3051(6) 0.7254(6) -0.0406(3)
C18 C -0.3969(8) 0.6537(7) -0.0208(4)
H12 H -0.4479 0.6102 -0.0505
C19 C -0.4069(7) 0.6516(7) 0.0440(4)
H13 H -0.4646 0.6060 0.0595
C20 C -0.3295(8) 0.7185(7) 0.0845(4)
H14 H -0.3364 0.7158 0.1281
C21 C -0.1722(7) 0.8642(7) 0.1153(3)
C22 C -0.2201(7) 0.9681(7) 0.1343(3)
C23 C -0.1611(7) 1.0409(6) 0.1808(3)
C24 C -0.0515(6) 1.0093(6) 0.2078(3)
C25 C 0.0007(7) 0.9057(6) 0.1879(3)
C26 C -0.0610(8) 0.8308(7) 0.1421(3)
C27 C 0.1183(7) 0.8734(8) 0.2174(3)
C28 C 0.2968(8) 0.9569(10) 0.2546(5)
H15 H 0.3398 1.0314 0.2519
H16 H 0.3375 0.8899 0.2381
H17 H 0.2881 0.9410 0.2987
C29 C 0.0071(9) 1.0855(11) 0.2574(5)
C30 C 0.1255(11) 1.1334(13) 0.3451(5)
H18 H 0.1591 1.1023 0.3862
H19 H 0.0819 1.2063 0.3510
H20 H 0.1858 1.1526 0.3198
C31 C -0.2164(7) 1.1455(7) 0.2058(4)
C32 C -0.3264(12) 1.3196(10) 0.1831(5)
H21 H -0.3553 1.3699 0.1468
H22 H -0.2778 1.3681 0.2141
H23 H -0.3902 1.2875 0.2024
C33 C -0.3409(9) 1.0047(7) 0.1032(5)
C34 C -0.5264(10) 1.0303(15) 0.1084(8)
H24 H -0.5835 1.0283 0.1373
H25 H -0.5463 0.9716 0.0746
H26 H -0.5239 1.1110 0.0902
loop_
_geom_bond_atom_site_label_1
_geom_bond_atom_site_label_2
_geom_bond_site_symmetry_1
_geom_bond_site_symmetry_2
O1 C27 1_555 1_555
O2 C27 1_555 1_555
O3 C29 1_555 1_555
O4 C29 1_555 1_555
O5 C31 1_555 1_555
O6 C31 1_555 1_555
O7 C33 1_555 1_555
O8 C33 1_555 1_555
C1 C2 1_555 1_555
C2 C3 1_555 1_555
C3 H1 1_555 1_555
C4 C3 1_555 1_555
H2 C4 1_555 1_555
C5 C4 1_555 1_555
H3 C5 1_555 1_555
C6 C5 1_555 1_555
H4 C6 1_555 1_555
C7 C2 1_555 1_555
C8 C7 1_555 1_555
H5 C8 1_555 1_555
C9 C8 1_555 1_555
H6 C9 1_555 1_555
C10 C1 1_555 1_555
H7 C10 1_555 1_555
C11 C12 1_555 1_555
C12 C13 1_555 1_555
C13 H8 1_555 1_555
C14 C13 1_555 1_555
H9 C14 1_555 1_555
C15 C14 1_555 1_555
H10 C15 1_555 1_555
C16 C15 1_555 1_555
H11 C16 1_555 1_555
C17 C12 1_555 1_555
C18 C17 1_555 1_555
H12 C18 1_555 1_555
C19 C18 1_555 1_555
H13 C19 1_555 1_555
C20 C11 1_555 1_555
H14 C20 1_555 1_555
C21 C11 1_555 1_555
C22 C21 1_555 1_555
C23 C22 1_555 1_555
C24 C23 1_555 1_555
C25 C24 1_555 1_555
C26 C1 1_555 1_555
C27 C25 1_555 1_555
C28 O2 1_555 1_555
H15 C28 1_555 1_555
H16 C28 1_555 1_555
H17 C28 1_555 1_555
C29 C24 1_555 1_555
C30 O4 1_555 1_555
H18 C30 1_555 1_555
H19 C30 1_555 1_555
H20 C30 1_555 1_555
C31 C23 1_555 1_555
C32 O6 1_555 1_555
H21 C32 1_555 1_555
H22 C32 1_555 1_555
H23 C32 1_555 1_555
C33 C22 1_555 1_555
C34 O8 1_555 1_555
H24 C34 1_555 1_555
H25 C34 1_555 1_555
H26 C34 1_555 1_555
C6 C7 1_555 1_555
C9 C10 1_555 1_555
C16 C17 1_555 1_555
C19 C20 1_555 1_555
C21 C26 1_555 1_555
C25 C26 1_555 1_555

#END
