
#######################################################################
#
#                 Cambridge Crystallographic Data Centre
#                                CCDC 
#
#######################################################################
#
# If this CIF has been generated from an entry in the Cambridge 
# Structural Database, then it will include bibliographic, chemical, 
# crystal, experimental, refinement or atomic coordinate data resulting 
# from the CCDC's data processing and validation procedures.
#
#######################################################################

data_ARUQUA
_chemical_formula_moiety         'C50 H52 N16,4(C1 H4 O1),H2 O1'
_chemical_name_systematic        
'21,43-di-t-butyl-10,10,32,32-tetramethyl-2,3,4,16,17,18,24,25,26,38,39,40,47,48,52,53-hexadecaazaundecacyclo[39.3.1.1^2,5^.1^6,9^.1^11,14^.1^15,18^.1^19,23^.1^24,27^.1^28,31^.1^33,36^.1^37,40^]tetrapentaconta-1(45),3,5(54),6,8,11,13,15(51),16,19(50),20,22,25,27(49),28,30,33,35,37(46),38,41,43-docosaene methanol solvate monohydrate'
_symmetry_cell_setting           monoclinic
_symmetry_space_group_name_H-M   'P 2/c'
_symmetry_Int_Tables_number      13
_space_group_name_Hall           '-P 2yc'
loop_
_symmetry_equiv_pos_site_id
_symmetry_equiv_pos_as_xyz
1 x,y,z
2 -x,y,1/2-z
3 -x,-y,-z
4 x,-y,1/2+z
_cell_length_a                   18.799(4)
_cell_length_b                   7.4924(15)
_cell_length_c                   23.685(5)
_cell_angle_alpha                90
_cell_angle_beta                 125.38(3)
_cell_angle_gamma                90
_cell_volume                     2719.96
_exptl_crystal_colour            colorless
_exptl_crystal_description       prism
_cell_formula_units_Z            2
loop_
_atom_site_label
_atom_site_type_symbol
_atom_site_fract_x
_atom_site_fract_y
_atom_site_fract_z
N1 N 0.4458(2) 1.2440(5) 0.3101(2)
N2 N 0.4639(2) 1.4198(5) 0.3149(2)
N3 N 0.5463(2) 1.4383(5) 0.3686(2)
N4 N 0.7019(2) 1.0867(5) 0.4864(2)
H1 H 0.6790 0.9884 0.4644
N5 N 0.8186(2) 0.6853(5) 0.6560(2)
H2 H 0.8724 0.6542 0.6772
N6 N 0.8619(2) 0.3672(5) 0.7440(2)
N7 N 0.8586(2) 0.2174(5) 0.7716(2)
N8 N 0.7748(2) 0.1949(5) 0.7486(2)
C1 C 0.1892(3) 1.0622(6) 0.1761(3)
H3 H 0.1323 1.0202 0.1469
C2 C 0.2125(3) 1.2226(6) 0.1616(3)
C3 C 0.2989(3) 1.2784(6) 0.2047(3)
H4 H 0.3162 1.3823 0.1943
C4 C 0.3590(3) 1.1808(6) 0.2626(3)
C5 C 0.3362(3) 1.0239(6) 0.2787(3)
H5 H 0.3767 0.9594 0.3183
C6 C 0.5158(3) 1.1532(6) 0.3608(3)
H6 H 0.5196 1.0306 0.3681
C7 C 0.5801(3) 1.2752(6) 0.3992(3)
C8 C 0.6667(3) 1.2538(6) 0.4622(3)
C9 C 0.7230(3) 1.3738(6) 0.5130(3)
H7 H 0.7161 1.4971 0.5112
C10 C 0.7922(3) 1.2763(6) 0.5679(3)
H8 H 0.8394 1.3238 0.6091
C11 C 0.7787(3) 1.1004(6) 0.5507(3)
C12 C 0.8311(3) 0.9341(6) 0.5910(3)
C13 C 0.8470(3) 0.8178(6) 0.5452(3)
H9 H 0.7920 0.7799 0.5046
H10 H 0.8810 0.7150 0.5709
H11 H 0.8779 0.8863 0.5316
C14 C 0.9194(3) 0.9947(7) 0.6559(3)
H12 H 0.9097 1.0669 0.6843
H13 H 0.9503 1.0631 0.6422
H14 H 0.9533 0.8919 0.6816
C15 C 0.7808(3) 0.8267(6) 0.6112(3)
C16 C 0.6951(3) 0.8304(7) 0.5888(3)
H15 H 0.6534 0.9129 0.5581
C17 C 0.6809(3) 0.6878(7) 0.6201(3)
H16 H 0.6286 0.6582 0.6135
C18 C 0.7594(3) 0.6008(6) 0.6622(3)
C19 C 0.7793(3) 0.4393(6) 0.7028(3)
C20 C 0.7247(3) 0.3301(6) 0.7065(3)
H17 H 0.6651 0.3452 0.6846
C21 C 0.7496(3) 0.0345(6) 0.7663(3)
C22 C 0.1426(3) 1.3289(7) 0.0970(3)
C23 C 0.0657(3) 1.3671(8) 0.1023(3)
H18 H 0.0214 1.4332 0.0623
H19 H 0.0862 1.4355 0.1433
H20 H 0.0417 1.2563 0.1044
C24 C 0.1106(4) 1.2165(7) 0.0324(3)
H21 H 0.1584 1.1929 0.0293
H22 H 0.0658 1.2804 -0.0081
H23 H 0.0874 1.1056 0.0354
C25 C 0.1768(3) 1.5088(7) 0.0920(3)
H24 H 0.2247 1.4898 0.0887
H25 H 0.1960 1.5783 0.1325
H26 H 0.1310 1.5712 0.0516
N1B N 0.5542(2) -0.2440(5) 0.6899(2)
N2B N 0.5361(2) -0.4198(5) 0.6851(2)
N3B N 0.4537(2) -0.4383(5) 0.6314(2)
N4B N 0.2981(2) -0.0867(5) 0.5136(2)
H1B H 0.3210 0.0116 0.5356
N5B N 0.1814(2) 0.3147(5) 0.3440(2)
H2B H 0.1276 0.3458 0.3228
N6B N 0.1381(2) 0.6328(5) 0.2560(2)
N7B N 0.1414(2) 0.7826(5) 0.2284(2)
N8B N 0.2252(2) 0.8051(5) 0.2514(2)
C1B C 0.8108(3) -0.0622(6) 0.8239(3)
H3B H 0.8677 -0.0202 0.8531
C2B C 0.7875(3) -0.2226(6) 0.8384(3)
C3B C 0.7011(3) -0.2784(6) 0.7953(3)
H4B H 0.6838 -0.3823 0.8057
C4B C 0.6410(3) -0.1808(6) 0.7374(3)
C5B C 0.6638(3) -0.0239(6) 0.7213(3)
H5B H 0.6233 0.0406 0.6817
C6B C 0.4842(3) -0.1532(6) 0.6392(3)
H6B H 0.4804 -0.0306 0.6319
C7B C 0.4199(3) -0.2752(6) 0.6008(3)
C8B C 0.3333(3) -0.2538(6) 0.5378(3)
C9B C 0.2770(3) -0.3738(6) 0.4870(3)
H7B H 0.2839 -0.4971 0.4888
C10B C 0.2078(3) -0.2763(6) 0.4321(3)
H8B H 0.1606 -0.3238 0.3909
C11B C 0.2213(3) -0.1004(6) 0.4493(3)
C12B C 0.1689(3) 0.0659(6) 0.4090(3)
C13B C 0.1530(3) 0.1822(6) 0.4548(3)
H9B H 0.2080 0.2201 0.4954
H10B H 0.1190 0.2850 0.4291
H11B H 0.1221 0.1137 0.4684
C14B C 0.0806(3) 0.0053(7) 0.3441(3)
H12B H 0.0903 -0.0669 0.3157
H13B H 0.0497 -0.0631 0.3578
H14B H 0.0467 0.1081 0.3184
C15B C 0.2192(3) 0.1733(6) 0.3888(3)
C16B C 0.3049(3) 0.1696(7) 0.4112(3)
H15B H 0.3466 0.0871 0.4419
C17B C 0.3191(3) 0.3122(7) 0.3799(3)
H16B H 0.3714 0.3418 0.3865
C18B C 0.2406(3) 0.3992(6) 0.3378(3)
C19B C 0.2207(3) 0.5607(6) 0.2972(3)
C20B C 0.2753(3) 0.6699(6) 0.2935(3)
H17B H 0.3349 0.6548 0.3154
C21B C 0.2504(3) 0.9655(6) 0.2337(3)
C22B C 0.8574(3) -0.3289(7) 0.9030(3)
C23B C 0.9343(3) -0.3671(8) 0.8977(3)
H18B H 0.9786 -0.4332 0.9377
H19B H 0.9138 -0.4355 0.8567
H20B H 0.9583 -0.2563 0.8956
C24B C 0.8894(4) -0.2165(7) 0.9676(3)
H21B H 0.8416 -0.1929 0.9707
H22B H 0.9342 -0.2804 1.0081
H23B H 0.9126 -0.1056 0.9646
C25B C 0.8232(3) -0.5088(7) 0.9080(3)
H24B H 0.7753 -0.4898 0.9113
H25B H 0.8040 -0.5783 0.8675
H26B H 0.8690 -0.5712 0.9484
C26 C 0.6268(4) 0.8155(8) 0.3354(4)
H27 H 0.6015 0.9295 0.3150
H28 H 0.5969 0.7239 0.3010
H29 H 0.6874 0.8158 0.3529
O1 O 0.6189(2) 0.7825(5) 0.3901(2)
H33 H 0.5993 0.6819 0.3860
C27 C 0.5483(5) 0.2548(10) 0.5308(4)
H30 H 0.5383 0.3776 0.5166
H31 H 0.5154 0.1795 0.4907
H32 H 0.6093 0.2281 0.5551
O2 O 0.5217(3) 0.2241(7) 0.5748(3)
H34 H 0.4730 0.2665 0.5573
O3 O 1.0000 0.5361(6) 0.7500
loop_
_geom_bond_atom_site_label_1
_geom_bond_atom_site_label_2
_geom_bond_site_symmetry_1
_geom_bond_site_symmetry_2
N1 N2 1_555 1_555
N2 N3 1_555 1_555
N3 C7 1_555 1_555
N4 H1 1_555 1_555
N5 H2 1_555 1_555
N6 N7 1_555 1_555
N7 N8 1_555 1_555
N8 C20 1_555 1_555
C1 H3 1_555 1_555
C2 C1 1_555 1_555
C3 C2 1_555 1_555
H4 C3 1_555 1_555
C4 N1 1_555 1_555
C5 C4 1_555 1_555
H5 C5 1_555 1_555
C6 N1 1_555 1_555
H6 C6 1_555 1_555
C7 C6 1_555 1_555
C8 N4 1_555 1_555
C9 C8 1_555 1_555
H7 C9 1_555 1_555
C10 C9 1_555 1_555
H8 C10 1_555 1_555
C11 N4 1_555 1_555
C12 C11 1_555 1_555
C13 C12 1_555 1_555
H9 C13 1_555 1_555
H10 C13 1_555 1_555
H11 C13 1_555 1_555
C14 C12 1_555 1_555
H12 C14 1_555 1_555
H13 C14 1_555 1_555
H14 C14 1_555 1_555
C15 N5 1_555 1_555
C16 C15 1_555 1_555
H15 C16 1_555 1_555
C17 C16 1_555 1_555
H16 C17 1_555 1_555
C18 N5 1_555 1_555
C19 N6 1_555 1_555
C20 C19 1_555 1_555
H17 C20 1_555 1_555
C21 N8 1_555 1_555
C22 C2 1_555 1_555
C23 C22 1_555 1_555
H18 C23 1_555 1_555
H19 C23 1_555 1_555
H20 C23 1_555 1_555
C24 C22 1_555 1_555
H21 C24 1_555 1_555
H22 C24 1_555 1_555
H23 C24 1_555 1_555
C25 C22 1_555 1_555
H24 C25 1_555 1_555
H25 C25 1_555 1_555
H26 C25 1_555 1_555
C26 H27 1_555 1_555
H28 C26 1_555 1_555
H29 C26 1_555 1_555
C27 H30 1_555 1_555
H31 C27 1_555 1_555
H32 C27 1_555 1_555
O1 C26 1_555 1_555
H33 O1 1_555 1_555
O2 C27 1_555 1_555
H34 O2 1_555 1_555
N1B N2B 1_555 1_555
N2B N3B 1_555 1_555
N3B C7B 1_555 1_555
N4B H1B 1_555 1_555
N5B H2B 1_555 1_555
N6B N7B 1_555 1_555
N7B N8B 1_555 1_555
N8B C20B 1_555 1_555
C1B C21 1_555 1_555
H3B C1B 1_555 1_555
C2B C1B 1_555 1_555
C3B C2B 1_555 1_555
H4B C3B 1_555 1_555
C4B N1B 1_555 1_555
C5B C21 1_555 1_555
H5B C5B 1_555 1_555
C6B N1B 1_555 1_555
H6B C6B 1_555 1_555
C7B C6B 1_555 1_555
C8B N4B 1_555 1_555
C9B C8B 1_555 1_555
H7B C9B 1_555 1_555
C10B C9B 1_555 1_555
H8B C10B 1_555 1_555
C11B N4B 1_555 1_555
C12B C11B 1_555 1_555
C13B C12B 1_555 1_555
H9B C13B 1_555 1_555
H10B C13B 1_555 1_555
H11B C13B 1_555 1_555
C14B C12B 1_555 1_555
H12B C14B 1_555 1_555
H13B C14B 1_555 1_555
H14B C14B 1_555 1_555
C15B N5B 1_555 1_555
C16B C15B 1_555 1_555
H15B C16B 1_555 1_555
C17B C16B 1_555 1_555
H16B C17B 1_555 1_555
C18B N5B 1_555 1_555
C19B N6B 1_555 1_555
C20B C19B 1_555 1_555
H17B C20B 1_555 1_555
C21B C1 1_555 1_555
C22B C2B 1_555 1_555
C23B C22B 1_555 1_555
H18B C23B 1_555 1_555
H19B C23B 1_555 1_555
H20B C23B 1_555 1_555
C24B C22B 1_555 1_555
H21B C24B 1_555 1_555
H22B C24B 1_555 1_555
H23B C24B 1_555 1_555
C25B C22B 1_555 1_555
H24B C25B 1_555 1_555
H25B C25B 1_555 1_555
H26B C25B 1_555 1_555
C3 C4 1_555 1_555
C5 C21B 1_555 1_555
C7 C8 1_555 1_555
C10 C11 1_555 1_555
C12 C15 1_555 1_555
C17 C18 1_555 1_555
C18 C19 1_555 1_555
N8B C21B 1_555 1_555
C3B C4B 1_555 1_555
C4B C5B 1_555 1_555
C7B C8B 1_555 1_555
C10B C11B 1_555 1_555
C12B C15B 1_555 1_555
C17B C18B 1_555 1_555
C18B C19B 1_555 1_555

#END
