
#######################################################################
#
#                 Cambridge Crystallographic Data Centre
#                                CCDC 
#
#######################################################################
#
# If this CIF has been generated from an entry in the Cambridge 
# Structural Database, then it will include bibliographic, chemical, 
# crystal, experimental, refinement or atomic coordinate data resulting 
# from the CCDC's data processing and validation procedures.
#
#######################################################################

data_ARUTUD
_chemical_formula_moiety         'C36 H37 Br1 O6'
_chemical_name_systematic        
'5-Benzoyl-4,4-dimethyl-1,7-bis(3-methylbut-2-en-1-yl)-6,8,9-trioxoadamantan-2-yl 4-bromobenzoate'
_symmetry_cell_setting           orthorhombic
_symmetry_space_group_name_H-M   'P n a 21'
_symmetry_Int_Tables_number      33
_space_group_name_Hall           'P 2c -2n'
loop_
_symmetry_equiv_pos_site_id
_symmetry_equiv_pos_as_xyz
1 x,y,z
2 -x,-y,1/2+z
3 1/2+x,1/2-y,z
4 1/2-x,1/2+y,1/2+z
_cell_length_a                   19.7588(9)
_cell_length_b                   7.7830(4)
_cell_length_c                   20.3595(10)
_cell_angle_alpha                90
_cell_angle_beta                 90
_cell_angle_gamma                90
_cell_volume                     3130.94
_exptl_crystal_colour            colorless
_exptl_crystal_description       parallelepiped
_cell_formula_units_Z            4
loop_
_atom_site_label
_atom_site_type_symbol
_atom_site_fract_x
_atom_site_fract_y
_atom_site_fract_z
Br1 Br 0.656219(10) 0.13575(3) 0.670349(17)
O1 O 0.96310(7) -0.12572(18) 0.77786(7)
O2 O 0.98619(7) -0.1278(2) 0.67001(11)
O3 O 1.14541(8) -0.0275(2) 0.98471(8)
O4 O 1.12502(7) -0.48219(18) 0.85686(7)
O5 O 0.95349(8) -0.2391(2) 0.94146(8)
O6 O 1.26690(8) -0.2224(2) 0.87732(8)
C1 C 1.03157(10) -0.1768(3) 0.79159(11)
H1 H 1.0506 -0.2402 0.7531
C2 C 1.07478(10) -0.0185(3) 0.80601(11)
H2 H 1.0746 0.0561 0.7660
C3 C 1.04241(11) 0.0823(3) 0.86211(11)
H3 H 0.9958 0.1159 0.8497
H4 H 1.0687 0.1884 0.8703
C4 C 1.04032(10) -0.0283(3) 0.92588(10)
C5 C 1.11337(11) -0.0789(3) 0.93842(12)
C6 C 1.14664(10) -0.1893(3) 0.88499(11)
C7 C 1.10262(10) -0.3414(3) 0.86508(11)
C8 C 1.02840(10) -0.2971(3) 0.85162(11)
C9 C 1.00171(10) -0.1937(3) 0.91013(11)
C10 C 1.14912(10) -0.0680(3) 0.82126(11)
C11 C 1.19113(12) 0.0922(3) 0.83516(13)
H5 H 1.1829 0.1778 0.8008
H6 H 1.2393 0.0618 0.8357
H7 H 1.1782 0.1399 0.8779
C12 C 1.17955(12) -0.1601(3) 0.76134(11)
H8 H 1.2283 -0.1751 0.7678
H9 H 1.1716 -0.0911 0.7218
H10 H 1.1581 -0.2728 0.7562
C13 C 1.00909(11) 0.0685(3) 0.98329(12)
H11 H 1.0026 -0.0119 1.0204
H12 H 1.0408 0.1594 0.9978
C14 C 0.94199(12) 0.1495(3) 0.96621(13)
H13 H 0.9144 0.0890 0.9358
C15 C 0.91788(12) 0.2946(3) 0.98903(13)
C16 C 0.85001(13) 0.3620(4) 0.96897(17)
H14 H 0.8287 0.2811 0.9385
H15 H 0.8555 0.4737 0.9474
H16 H 0.8214 0.3754 1.0079
C17 C 0.95539(15) 0.4043(4) 1.03773(15)
H17 H 1.0039 0.3788 1.0353
H18 H 0.9389 0.3797 1.0821
H19 H 0.9478 0.5259 1.0275
C18 C 1.21639(11) -0.2546(3) 0.90845(11)
C19 C 1.22112(11) -0.3588(3) 0.97003(11)
C20 C 1.16598(11) -0.4335(3) 1.00157(13)
H20 H 1.1216 -0.4148 0.9852
C21 C 1.17541(13) -0.5343(4) 1.05631(14)
H21 H 1.1374 -0.5852 1.0773
C22 C 1.23929(13) -0.5623(3) 1.08106(13)
H22 H 1.2457 -0.6347 1.1181
C23 C 1.29349(13) -0.4842(3) 1.05141(13)
H23 H 1.3375 -0.4988 1.0693
C24 C 1.28509(12) -0.3854(3) 0.99636(13)
H24 H 1.3234 -0.3345 0.9760
C25 C 0.98416(11) -0.4578(3) 0.84057(11)
H25 H 0.9943 -0.5425 0.8755
H26 H 0.9360 -0.4247 0.8450
C26 C 0.99397(11) -0.5415(3) 0.77564(12)
H27 H 1.0387 -0.5763 0.7650
C27 C 0.94668(12) -0.5725(3) 0.73098(12)
C28 C 0.96537(12) -0.6540(3) 0.66631(17)
H28 H 1.0120 -0.6963 0.6684
H29 H 0.9615 -0.5686 0.6311
H30 H 0.9347 -0.7502 0.6573
C29 C 0.87342(13) -0.5271(4) 0.73810(14)
H31 H 0.8617 -0.4369 0.7065
H32 H 0.8649 -0.4857 0.7828
H33 H 0.8457 -0.6291 0.7297
C30 C 0.94711(12) -0.1046(3) 0.71392(12)
C31 C 0.87560(11) -0.0492(3) 0.70529(11)
C32 C 0.85306(12) -0.0191(3) 0.64243(12)
H34 H 0.8825 -0.0383 0.6063
C33 C 0.78754(12) 0.0393(3) 0.63141(12)
H35 H 0.7719 0.0619 0.5882
C34 C 0.74644(10) 0.0633(3) 0.68428(12)
C35 C 0.76761(11) 0.0327(3) 0.74817(11)
H36 H 0.7377 0.0501 0.7841
C36 C 0.83290(11) -0.0235(3) 0.75863(12)
H37 H 0.8486 -0.0445 0.8020
loop_
_geom_bond_atom_site_label_1
_geom_bond_atom_site_label_2
_geom_bond_site_symmetry_1
_geom_bond_site_symmetry_2
Br1 C34 1_555 1_555
O1 C1 1_555 1_555
O2 C30 1_555 1_555
O3 C5 1_555 1_555
O4 C7 1_555 1_555
O5 C9 1_555 1_555
O6 C18 1_555 1_555
C1 H1 1_555 1_555
C2 C1 1_555 1_555
H2 C2 1_555 1_555
C3 C2 1_555 1_555
H3 C3 1_555 1_555
H4 C3 1_555 1_555
C4 C3 1_555 1_555
C5 C4 1_555 1_555
C6 C5 1_555 1_555
C7 C6 1_555 1_555
C8 C1 1_555 1_555
C9 C4 1_555 1_555
C10 C2 1_555 1_555
C11 C10 1_555 1_555
H5 C11 1_555 1_555
H6 C11 1_555 1_555
H7 C11 1_555 1_555
C12 C10 1_555 1_555
H8 C12 1_555 1_555
H9 C12 1_555 1_555
H10 C12 1_555 1_555
C13 C4 1_555 1_555
H11 C13 1_555 1_555
H12 C13 1_555 1_555
C14 C13 1_555 1_555
H13 C14 1_555 1_555
C15 C14 1_555 1_555
C16 C15 1_555 1_555
H14 C16 1_555 1_555
H15 C16 1_555 1_555
H16 C16 1_555 1_555
C17 C15 1_555 1_555
H17 C17 1_555 1_555
H18 C17 1_555 1_555
H19 C17 1_555 1_555
C18 C6 1_555 1_555
C19 C18 1_555 1_555
C20 C19 1_555 1_555
H20 C20 1_555 1_555
C21 C20 1_555 1_555
H21 C21 1_555 1_555
C22 C21 1_555 1_555
H22 C22 1_555 1_555
C23 C22 1_555 1_555
H23 C23 1_555 1_555
C24 C19 1_555 1_555
H24 C24 1_555 1_555
C25 C8 1_555 1_555
H25 C25 1_555 1_555
H26 C25 1_555 1_555
C26 C25 1_555 1_555
H27 C26 1_555 1_555
C27 C26 1_555 1_555
C28 C27 1_555 1_555
H28 C28 1_555 1_555
H29 C28 1_555 1_555
H30 C28 1_555 1_555
C29 C27 1_555 1_555
H31 C29 1_555 1_555
H32 C29 1_555 1_555
H33 C29 1_555 1_555
C30 O1 1_555 1_555
C31 C30 1_555 1_555
C32 C31 1_555 1_555
H34 C32 1_555 1_555
C33 C32 1_555 1_555
H35 C33 1_555 1_555
C34 C33 1_555 1_555
C35 C34 1_555 1_555
H36 C35 1_555 1_555
C36 C31 1_555 1_555
H37 C36 1_555 1_555
C6 C10 1_555 1_555
C7 C8 1_555 1_555
C8 C9 1_555 1_555
C23 C24 1_555 1_555
C35 C36 1_555 1_555

#END
