
#######################################################################
#
#                 Cambridge Crystallographic Data Centre
#                                CCDC 
#
#######################################################################
#
# If this CIF has been generated from an entry in the Cambridge 
# Structural Database, then it will include bibliographic, chemical, 
# crystal, experimental, refinement or atomic coordinate data resulting 
# from the CCDC's data processing and validation procedures.
#
#######################################################################

data_ASAHAF
_chemical_compound_source        'mangrove endophytic fungus'
_chemical_formula_moiety         'C15 H20 O3'
_chemical_name_systematic        
(6S,6aS)-6,8,8-trimethyl-3a,4,5,6,6a,7,8,9-octahydroazuleno[4,5-c]furan-1,3-dione
_symmetry_cell_setting           monoclinic
_symmetry_space_group_name_H-M   'P 21'
_symmetry_Int_Tables_number      4
_space_group_name_Hall           'P 2yb'
loop_
_symmetry_equiv_pos_site_id
_symmetry_equiv_pos_as_xyz
1 x,y,z
2 -x,1/2+y,-z
_cell_length_a                   8.4525(14)
_cell_length_b                   6.2926(10)
_cell_length_c                   12.938(2)
_cell_angle_alpha                90
_cell_angle_beta                 103.044(7)
_cell_angle_gamma                90
_cell_volume                     670.393
_exptl_crystal_colour            colorless
_exptl_crystal_description       block
_cell_formula_units_Z            2
loop_
_atom_site_label
_atom_site_type_symbol
_atom_site_fract_x
_atom_site_fract_y
_atom_site_fract_z
O1 O 0.6423(3) 0.5220(5) 0.51116(18)
O2 O 0.3848(3) 0.5268(4) 0.41652(15)
O3 O 0.1134(4) 0.5150(7) 0.3635(2)
C1 C 0.4928(3) 0.5305(5) 0.7030(2)
C2 C 0.5004(4) 0.5272(5) 0.5126(2)
C3 C 0.4172(3) 0.5380(5) 0.6005(2)
C4 C 0.2610(4) 0.4049(6) 0.7906(3)
H1 H 0.2315 0.4220 0.8592
C5 C 0.2389(4) 0.5676(5) 0.5523(3)
H2 H 0.2112 0.7162 0.5626
C6 C 0.1177(4) 0.4276(6) 0.5909(3)
H3 H 0.1462 0.2800 0.5833
H4 H 0.0107 0.4510 0.5459
C7 C 0.4081(4) 0.5520(6) 0.7940(2)
H5 H 0.3692 0.6988 0.7936
C8 C 0.6724(3) 0.5083(7) 0.7472(2)
H6 H 0.7328 0.5911 0.7059
H7 H 0.7052 0.3607 0.7464
C9 C 0.2294(4) 0.5339(7) 0.4355(3)
C10 C 0.3016(5) 0.1681(6) 0.7821(3)
H8 H 0.3436 0.1456 0.7200
H9 H 0.2049 0.0848 0.7771
H10 H 0.3814 0.1260 0.8439
C11 C 0.1101(4) 0.4675(7) 0.7060(3)
H11 H 0.0178 0.3903 0.7200
H12 H 0.0898 0.6176 0.7141
C12 C 0.7031(4) 0.5919(6) 0.8618(3)
C13 C 0.7206(6) 0.8331(8) 0.8618(4)
H13 H 0.8175 0.8704 0.8391
H14 H 0.7271 0.8866 0.9321
H15 H 0.6281 0.8941 0.8141
C14 C 0.5454(4) 0.5248(9) 0.8937(3)
H16 H 0.5524 0.3780 0.9171
H17 H 0.5261 0.6138 0.9508
C15 C 0.8530(5) 0.4939(11) 0.9340(3)
H18 H 0.8430 0.3419 0.9324
H19 H 0.8624 0.5438 1.0052
H20 H 0.9479 0.5344 0.9097
loop_
_geom_bond_atom_site_label_1
_geom_bond_atom_site_label_2
_geom_bond_site_symmetry_1
_geom_bond_site_symmetry_2
O1 C2 1_555 1_555
O2 C2 1_555 1_555
O3 C9 1_555 1_555
C1 C3 1_555 1_555
C2 C3 1_555 1_555
C3 C5 1_555 1_555
C4 H1 1_555 1_555
C5 H2 1_555 1_555
C6 C5 1_555 1_555
H3 C6 1_555 1_555
H4 C6 1_555 1_555
C7 C1 1_555 1_555
H5 C7 1_555 1_555
C8 C1 1_555 1_555
H6 C8 1_555 1_555
H7 C8 1_555 1_555
C9 O2 1_555 1_555
C10 C4 1_555 1_555
H8 C10 1_555 1_555
H9 C10 1_555 1_555
H10 C10 1_555 1_555
C11 C4 1_555 1_555
H11 C11 1_555 1_555
H12 C11 1_555 1_555
C12 C8 1_555 1_555
C13 C12 1_555 1_555
H13 C13 1_555 1_555
H14 C13 1_555 1_555
H15 C13 1_555 1_555
C14 C7 1_555 1_555
H16 C14 1_555 1_555
H17 C14 1_555 1_555
C15 C12 1_555 1_555
H18 C15 1_555 1_555
H19 C15 1_555 1_555
H20 C15 1_555 1_555
C4 C7 1_555 1_555
C5 C9 1_555 1_555
C6 C11 1_555 1_555
C12 C14 1_555 1_555

#END
