
#######################################################################
#
#                 Cambridge Crystallographic Data Centre
#                                CCDC 
#
#######################################################################
#
# If this CIF has been generated from an entry in the Cambridge 
# Structural Database, then it will include bibliographic, chemical, 
# crystal, experimental, refinement or atomic coordinate data resulting 
# from the CCDC's data processing and validation procedures.
#
#######################################################################

data_ASAKOU
_chemical_formula_moiety         'C10 F8,C12 H8'
_chemical_name_systematic        'Octafluoronaphthalene biphenylene'
_symmetry_cell_setting           triclinic
_symmetry_space_group_name_H-M   'P -1'
_symmetry_Int_Tables_number      2
_space_group_name_Hall           '-P 1'
loop_
_symmetry_equiv_pos_site_id
_symmetry_equiv_pos_as_xyz
1 x,y,z
2 -x,-y,-z
_cell_length_a                   6.446(1)
_cell_length_b                   7.142(1)
_cell_length_c                   9.751(2)
_cell_angle_alpha                74.46(2)
_cell_angle_beta                 71.53(2)
_cell_angle_gamma                85.97(2)
_cell_volume                     410.169
_exptl_crystal_colour            colorless
_exptl_crystal_description       plate
_chemical_melting_point          '420-422 K'
_cell_formula_units_Z            1
loop_
_atom_site_label
_atom_site_type_symbol
_atom_site_fract_x
_atom_site_fract_y
_atom_site_fract_z
F1 F 0.2730(2) 0.2075(2) 0.27443(17)
C1 C 0.4392(4) 0.1226(4) 0.3233(3)
F2 F 0.6592(2) 0.1823(2) 0.07168(17)
C2 C 0.6355(4) 0.1111(4) 0.2176(3)
F3 F 1.0031(2) 0.0110(2) 0.15594(18)
C3 C 0.8129(4) 0.0204(4) 0.2616(3)
F4 F 0.9631(2) -0.1490(2) 0.44507(18)
C4 C 0.7899(4) -0.0581(4) 0.4086(3)
C5 C 0.4092(4) 0.0473(4) 0.4769(3)
C5A C 0.5908(4) -0.0473(4) 0.5231(3)
C1A C 0.5608(4) -0.1226(4) 0.6767(3)
F1A F 0.7270(2) -0.2075(2) 0.72557(17)
C2A C 0.3645(4) -0.1111(4) 0.7824(3)
F2A F 0.3408(2) -0.1823(2) 0.92832(17)
C3A C 0.1871(4) -0.0204(4) 0.7384(3)
F3A F -0.0031(2) -0.0110(2) 0.84406(18)
C4A C 0.2101(4) 0.0581(4) 0.5914(3)
F4A F 0.0369(2) 0.1490(2) 0.55493(18)
C6 C 0.4668(4) 0.6420(4) 0.2564(3)
H1 H 0.345(5) 0.686(5) 0.227(4)
C7 C 0.6712(5) 0.6459(4) 0.1431(3)
H2 H 0.664(5) 0.699(5) 0.036(4)
C8 C 0.8581(4) 0.5752(4) 0.1783(3)
H3 H 0.997(5) 0.581(5) 0.095(4)
C9 C 0.8589(4) 0.4937(4) 0.3272(3)
H4 H 0.987(5) 0.450(4) 0.348(3)
C10 C 0.6595(4) 0.4895(4) 0.4356(3)
C11 C 0.4675(4) 0.5635(4) 0.3994(3)
C10A C 0.3405(4) 0.5105(4) 0.5644(3)
C9A C 0.1411(4) 0.5063(4) 0.6728(3)
C8A C 0.1419(4) 0.4248(4) 0.8217(3)
C7A C 0.3288(5) 0.3541(4) 0.8569(3)
C6A C 0.5332(4) 0.3580(4) 0.7436(3)
H1A H 0.655(5) 0.314(5) 0.773(4)
C11A C 0.5325(4) 0.4365(4) 0.6006(3)
H2A H 0.336(5) 0.301(5) 0.964(4)
H3A H 0.003(5) 0.419(5) 0.905(4)
H4A H 0.013(5) 0.550(4) 0.652(3)
loop_
_geom_bond_atom_site_label_1
_geom_bond_atom_site_label_2
_geom_bond_site_symmetry_1
_geom_bond_site_symmetry_2
F1 C1 1_555 1_555
C1 C2 1_555 1_555
F2 C2 1_555 1_555
C2 C3 1_555 1_555
F3 C3 1_555 1_555
C3 C4 1_555 1_555
F4 C4 1_555 1_555
C4 C5A 1_555 1_555
C5 C1 1_555 1_555
C6 H1 1_555 1_555
C7 C6 1_555 1_555
H2 C7 1_555 1_555
C8 C7 1_555 1_555
H3 C8 1_555 1_555
C9 C8 1_555 1_555
H4 C9 1_555 1_555
C10 C9 1_555 1_555
C11 C6 1_555 1_555
C5A C5 1_555 1_555
C1A C5A 1_555 1_555
F1A C1A 1_555 1_555
C2A C1A 1_555 1_555
F2A C2A 1_555 1_555
C3A C2A 1_555 1_555
F3A C3A 1_555 1_555
C4A C5 1_555 1_555
F4A C4A 1_555 1_555
C10A C11 1_555 1_555
C9A C10A 1_555 1_555
C8A C9A 1_555 1_555
C7A C8A 1_555 1_555
C6A C7A 1_555 1_555
H1A C6A 1_555 1_555
C11A C10 1_555 1_555
H2A C7A 1_555 1_555
H3A C8A 1_555 1_555
H4A C9A 1_555 1_555
C10 C11 1_555 1_555
C3A C4A 1_555 1_555
C10A C11A 1_555 1_555
C6A C11A 1_555 1_555

#END
