
#######################################################################
#
#                 Cambridge Crystallographic Data Centre
#                                CCDC 
#
#######################################################################
#
# If this CIF has been generated from an entry in the Cambridge 
# Structural Database, then it will include bibliographic, chemical, 
# crystal, experimental, refinement or atomic coordinate data resulting 
# from the CCDC's data processing and validation procedures.
#
#######################################################################

data_ASASET
_chemical_formula_moiety         'C30 H43 N1 O2 Si1'
_chemical_name_systematic        
((2-Amino-4-benzylidene-2-t-butyl-5,5-dipropyldihydrofuran-3(2H)-ylidene)(phenyl)methyl)(dimethyl)silanol
_symmetry_cell_setting           monoclinic
_symmetry_space_group_name_H-M   'P 21/n'
_symmetry_Int_Tables_number      14
_space_group_name_Hall           '-P 2yn'
loop_
_symmetry_equiv_pos_site_id
_symmetry_equiv_pos_as_xyz
1 x,y,z
2 1/2-x,1/2+y,1/2-z
3 -x,-y,-z
4 1/2+x,1/2-y,1/2+z
_cell_length_a                   8.833(4)
_cell_length_b                   11.184(5)
_cell_length_c                   29.474(12)
_cell_angle_alpha                90
_cell_angle_beta                 92.658(5)
_cell_angle_gamma                90
_cell_volume                     2908.55
_exptl_crystal_colour            'light yellow'
_exptl_crystal_description       block
_cell_formula_units_Z            4
loop_
_atom_site_label
_atom_site_type_symbol
_atom_site_fract_x
_atom_site_fract_y
_atom_site_fract_z
Si1 Si 0.58908(9) 0.46684(7) 0.11407(3)
O1 O 0.3895(2) 0.84910(15) 0.05382(6)
N1 N 0.4862(3) 0.66054(19) 0.03286(7)
H1 H 0.4449 0.6607 0.0044
H2 H 0.5769 0.6973 0.0351
O2 O 0.5471(2) 0.43900(17) 0.06082(6)
H3 H 0.5193 0.5027 0.0449
C1 C 0.4609(3) 0.7160(2) 0.11329(8)
C2 C 0.4439(3) 0.8387(2) 0.13172(8)
C3 C 0.4511(3) 0.9222(2) 0.09122(8)
C4 C 0.3901(3) 0.7223(2) 0.06416(8)
C5 C 0.5472(3) 0.6272(2) 0.13225(8)
C6 C 0.6415(3) 0.6503(2) 0.17529(9)
C7 C 0.7630(3) 0.7295(3) 0.17464(11)
H4 H 0.7786 0.7752 0.1481
C8 C 0.8624(4) 0.7425(3) 0.21265(14)
H5 H 0.9446 0.7972 0.2120
C9 C 0.8400(5) 0.6749(4) 0.25134(13)
H6 H 0.9082 0.6825 0.2771
C10 C 0.7206(4) 0.5976(3) 0.25254(11)
H7 H 0.7049 0.5524 0.2792
C11 C 0.6232(4) 0.5853(3) 0.21510(9)
H8 H 0.5409 0.5309 0.2163
C12 C 0.4794(5) 0.3606(3) 0.14843(12)
H9 H 0.4784 0.2816 0.1340
H10 H 0.3752 0.3896 0.1503
H11 H 0.5269 0.3546 0.1791
C13 C 0.7941(4) 0.4395(4) 0.12474(14)
H12 H 0.8201 0.3604 0.1131
H13 H 0.8189 0.4429 0.1575
H14 H 0.8520 0.5008 0.1093
C14 C 0.4169(3) 0.8756(2) 0.17411(8)
H15 H 0.4170 0.9599 0.1782
C15 C 0.3872(3) 0.8055(2) 0.21518(8)
C16 C 0.2940(3) 0.7045(3) 0.21360(9)
H16 H 0.2505 0.6781 0.1853
C17 C 0.2643(4) 0.6422(3) 0.25302(11)
H17 H 0.2004 0.5738 0.2515
C18 C 0.3268(3) 0.6792(3) 0.29416(10)
H18 H 0.3077 0.6356 0.3209
C19 C 0.4176(3) 0.7799(3) 0.29663(10)
H19 H 0.4602 0.8060 0.3251
C20 C 0.4464(3) 0.8427(2) 0.25729(9)
H20 H 0.5077 0.9124 0.2592
C21 C 0.6160(3) 0.9537(2) 0.08132(9)
H21 H 0.6743 0.8784 0.0794
H22 H 0.6165 0.9927 0.0512
C22 C 0.6973(3) 1.0349(2) 0.11578(10)
H23 H 0.6474 1.1142 0.1150
H24 H 0.6874 1.0010 0.1465
C23 C 0.8638(4) 1.0508(3) 0.10718(13)
H25 H 0.9086 1.1084 0.1290
H26 H 0.8746 1.0804 0.0762
H27 H 0.9159 0.9738 0.1108
C24 C 0.3500(3) 1.0330(2) 0.09332(9)
H28 H 0.2466 1.0072 0.1006
H29 H 0.3891 1.0847 0.1185
C25 C 0.3396(4) 1.1067(3) 0.04988(11)
H30 H 0.4399 1.1429 0.0450
H31 H 0.3148 1.0529 0.0239
C26 C 0.2227(4) 1.2045(3) 0.05048(12)
H32 H 0.2213 1.2482 0.0216
H33 H 0.2481 1.2596 0.0755
H34 H 0.1227 1.1694 0.0547
C27 C 0.2224(3) 0.6784(2) 0.05732(9)
C28 C 0.1165(3) 0.7521(3) 0.08618(11)
H35 H 0.1163 0.8355 0.0760
H36 H 0.1519 0.7483 0.1181
H37 H 0.0134 0.7197 0.0829
C29 C 0.1683(4) 0.6942(4) 0.00763(11)
H38 H 0.1853 0.7770 -0.0017
H39 H 0.0599 0.6756 0.0042
H40 H 0.2250 0.6401 -0.0115
C30 C 0.2065(4) 0.5463(3) 0.07045(14)
H41 H 0.2364 0.5360 0.1026
H42 H 0.2720 0.4974 0.0520
H43 H 0.1008 0.5212 0.0651
loop_
_geom_bond_atom_site_label_1
_geom_bond_atom_site_label_2
_geom_bond_site_symmetry_1
_geom_bond_site_symmetry_2
Si1 O2 1_555 1_555
O1 C3 1_555 1_555
N1 H1 1_555 1_555
H2 N1 1_555 1_555
O2 H3 1_555 1_555
C1 C2 1_555 1_555
C2 C3 1_555 1_555
C3 C21 1_555 1_555
C4 O1 1_555 1_555
C5 Si1 1_555 1_555
C6 C5 1_555 1_555
C7 C6 1_555 1_555
H4 C7 1_555 1_555
C8 C7 1_555 1_555
H5 C8 1_555 1_555
C9 C8 1_555 1_555
H6 C9 1_555 1_555
C10 C9 1_555 1_555
H7 C10 1_555 1_555
C11 C6 1_555 1_555
H8 C11 1_555 1_555
C12 Si1 1_555 1_555
H9 C12 1_555 1_555
H10 C12 1_555 1_555
H11 C12 1_555 1_555
C13 Si1 1_555 1_555
H12 C13 1_555 1_555
H13 C13 1_555 1_555
H14 C13 1_555 1_555
C14 C2 1_555 1_555
H15 C14 1_555 1_555
C15 C14 1_555 1_555
C16 C15 1_555 1_555
H16 C16 1_555 1_555
C17 C16 1_555 1_555
H17 C17 1_555 1_555
C18 C17 1_555 1_555
H18 C18 1_555 1_555
C19 C18 1_555 1_555
H19 C19 1_555 1_555
C20 C15 1_555 1_555
H20 C20 1_555 1_555
C21 H21 1_555 1_555
H22 C21 1_555 1_555
C22 C21 1_555 1_555
H23 C22 1_555 1_555
H24 C22 1_555 1_555
C23 C22 1_555 1_555
H25 C23 1_555 1_555
H26 C23 1_555 1_555
H27 C23 1_555 1_555
C24 C3 1_555 1_555
H28 C24 1_555 1_555
H29 C24 1_555 1_555
C25 C24 1_555 1_555
H30 C25 1_555 1_555
H31 C25 1_555 1_555
C26 C25 1_555 1_555
H32 C26 1_555 1_555
H33 C26 1_555 1_555
H34 C26 1_555 1_555
C27 C4 1_555 1_555
C28 C27 1_555 1_555
H35 C28 1_555 1_555
H36 C28 1_555 1_555
H37 C28 1_555 1_555
C29 C27 1_555 1_555
H38 C29 1_555 1_555
H39 C29 1_555 1_555
H40 C29 1_555 1_555
C30 C27 1_555 1_555
H41 C30 1_555 1_555
H42 C30 1_555 1_555
H43 C30 1_555 1_555
N1 C4 1_555 1_555
C1 C4 1_555 1_555
C1 C5 1_555 1_555
C10 C11 1_555 1_555
C19 C20 1_555 1_555

#END
