
#######################################################################
#
#                 Cambridge Crystallographic Data Centre
#                                CCDC 
#
#######################################################################
#
# If this CIF has been generated from an entry in the Cambridge 
# Structural Database, then it will include bibliographic, chemical, 
# crystal, experimental, refinement or atomic coordinate data resulting 
# from the CCDC's data processing and validation procedures.
#
#######################################################################

data_ASATET03
_chemical_formula_moiety         'C7 H6 Cl1 N1 O1'
_chemical_name_systematic        cis-N-(4-chlorophenyl)formamide
_symmetry_cell_setting           monoclinic
_symmetry_space_group_name_H-M   'P 21/c'
_symmetry_Int_Tables_number      14
_space_group_name_Hall           '-P 2ybc'
loop_
_symmetry_equiv_pos_site_id
_symmetry_equiv_pos_as_xyz
1 x,y,z
2 -x,1/2+y,1/2-z
3 -x,-y,-z
4 x,1/2-y,1/2+z
_cell_length_a                   9.5247(4)
_cell_length_b                   6.1301(3)
_cell_length_c                   11.8256(6)
_cell_angle_alpha                90
_cell_angle_beta                 89.9800(10)
_cell_angle_gamma                90
_cell_volume                     690.466
_exptl_crystal_colour            'pale yellow'
_cell_formula_units_Z            4
loop_
_atom_site_label
_atom_site_type_symbol
_atom_site_fract_x
_atom_site_fract_y
_atom_site_fract_z
Cl1 Cl 0.25001(19) 0.9626(3) 0.19987(15)
C1 C 0.2501(8) 0.7287(12) 0.2821(6)
C2 C 0.1239(8) 0.6349(14) 0.3161(7)
H1 H 0.0374 0.6998 0.2946
C3 C 0.1241(8) 0.4465(15) 0.3813(6)
H2 H 0.0377 0.3828 0.4041
C4 C 0.2500(8) 0.3511(13) 0.4131(6)
C5 C 0.3759(8) 0.4466(15) 0.3813(7)
H3 H 0.4623 0.3829 0.4041
C6 C 0.3762(8) 0.6350(14) 0.3162(7)
H4 H 0.4627 0.7001 0.2948
N1 N 0.2246(16) 0.156(3) 0.4751(16)
H5 H 0.1371 0.1258 0.4933
C7 C 0.3240(14) 0.014(3) 0.5079(13)
H6 H 0.2936 -0.1154 0.5448
O1 O 0.4523(11) 0.037(2) 0.4941(10)
Cl1B Cl 0.74999(19) -0.9626(3) 0.80013(15)
C1B C 0.7499(8) -0.7287(12) 0.7179(6)
C2B C 0.8761(8) -0.6349(14) 0.6839(7)
H1B H 0.9626 -0.6998 0.7054
C3B C 0.8759(8) -0.4465(15) 0.6187(6)
H2B H 0.9623 -0.3828 0.5959
C4B C 0.7500(8) -0.3511(13) 0.5869(6)
C5B C 0.6241(8) -0.4466(15) 0.6187(7)
H3B H 0.5377 -0.3829 0.5959
C6B C 0.6238(8) -0.6350(14) 0.6838(7)
H4B H 0.5373 -0.7001 0.7052
N1B N 0.7754(16) -0.156(3) 0.5249(16)
H5B H 0.8629 -0.1258 0.5067
C7B C 0.6760(14) -0.014(3) 0.4921(13)
H6B H 0.7064 0.1154 0.4552
O1B O 0.5477(11) -0.037(2) 0.5059(10)
N2? N 0.2754(16) 0.156(3) 0.4749(16)
H7? H 0.3629 0.1268 0.4931
C8? C 0.1762(14) 0.014(3) 0.5078(13)
H8? H 0.2069 -0.1152 0.5446
O2? O 0.0479(11) 0.037(2) 0.4942(10)
loop_
_geom_bond_atom_site_label_1
_geom_bond_atom_site_label_2
_geom_bond_site_symmetry_1
_geom_bond_site_symmetry_2
Cl1 C1 1_555 1_555
C1 C2 1_555 1_555
C2 H1 1_555 1_555
C3 C2 1_555 1_555
H2 C3 1_555 1_555
C4 C3 1_555 1_555
C5 C4 1_555 1_555
H3 C5 1_555 1_555
C6 C1 1_555 1_555
H4 C6 1_555 1_555
N1 C4 1_555 1_555
H5 N1 1_555 1_555
C7 N1 1_555 1_555
H6 C7 1_555 1_555
O1 C7 1_555 1_555
Cl1B C1B 1_555 1_555
C1B C2B 1_555 1_555
C2B H1B 1_555 1_555
C3B C2B 1_555 1_555
H2B C3B 1_555 1_555
C4B C3B 1_555 1_555
C5B C4B 1_555 1_555
H3B C5B 1_555 1_555
C6B C1B 1_555 1_555
H4B C6B 1_555 1_555
N1B C4B 1_555 1_555
H5B N1B 1_555 1_555
C7B N1B 1_555 1_555
H6B C7B 1_555 1_555
O1B O1 1_555 1_555
C5 C6 1_555 1_555
C5B C6B 1_555 1_555
C7B O1B 1_555 1_555

#END
