
#######################################################################
#
#                 Cambridge Crystallographic Data Centre
#                                CCDC 
#
#######################################################################
#
# If this CIF has been generated from an entry in the Cambridge 
# Structural Database, then it will include bibliographic, chemical, 
# crystal, experimental, refinement or atomic coordinate data resulting 
# from the CCDC's data processing and validation procedures.
#
#######################################################################

data_ASAYEA
_chemical_formula_moiety         'C17 H14 N4 S1,H2 O1'
_chemical_name_systematic        
'N-phenyl-2-(quinolin-2-ylmethylene)hydrazinecarbothioamide monohydrate'
_symmetry_cell_setting           monoclinic
_symmetry_space_group_name_H-M   'P 21/c'
_symmetry_Int_Tables_number      14
_space_group_name_Hall           '-P 2ybc'
loop_
_symmetry_equiv_pos_site_id
_symmetry_equiv_pos_as_xyz
1 x,y,z
2 -x,1/2+y,1/2-z
3 -x,-y,-z
4 x,1/2-y,1/2+z
_cell_length_a                   10.519(5)
_cell_length_b                   7.173(3)
_cell_length_c                   22.858(12)
_cell_angle_alpha                90
_cell_angle_beta                 98.85(5)
_cell_angle_gamma                90
_cell_volume                     1704.17
_exptl_crystal_colour            'brownish brown'
_exptl_crystal_description       block
_cell_formula_units_Z            4
loop_
_atom_site_label
_atom_site_type_symbol
_atom_site_fract_x
_atom_site_fract_y
_atom_site_fract_z
S1 S 0.47100(15) 0.9646(2) 0.09282(7)
N1 N 0.6728(4) 0.8976(6) 0.04357(19)
H1 H 0.6230 0.9194 0.0108
N2 N 0.9904(4) 0.7469(6) -0.06725(19)
C1 C 0.9654(5) 0.7712(7) -0.0133(2)
C2 C 0.6268(5) 0.9131(7) 0.0954(2)
N3 N 0.7991(4) 0.8473(6) 0.04275(19)
N4 N 0.7122(4) 0.8859(6) 0.14332(19)
H2 H 0.7898 0.8656 0.1375
C3 C 0.8338(5) 0.8258(8) -0.0087(2)
H3 H 0.7747 0.8452 -0.0428
C4 C 1.1780(5) 0.6882(8) 0.0316(3)
H4 H 1.2409 0.6748 0.0647
C5 C 1.1101(5) 0.6867(8) -0.0721(3)
C6 C 1.2091(5) 0.6569(8) -0.0238(3)
C7 C 0.6917(6) 0.8860(8) 0.2030(3)
C8 C 1.0568(5) 0.7386(7) 0.0389(2)
H5 H 1.0341 0.7513 0.0764
C9 C 1.1385(6) 0.6542(9) -0.1296(3)
H6 H 1.0748 0.6704 -0.1622
C10 C 0.5923(6) 0.7927(9) 0.2207(3)
H7 H 0.5344 0.7293 0.1928
C11 C 1.3317(6) 0.6040(9) -0.0348(3)
H8 H 1.3975 0.5901 -0.0029
C12 C 0.7772(7) 0.9755(9) 0.2455(3)
H9 H 0.8462 1.0397 0.2341
C13 C 1.3575(7) 0.5725(9) -0.0897(4)
H10 H 1.4389 0.5338 -0.0957
C14 C 0.6619(8) 0.8827(11) 0.3223(3)
H11 H 0.6512 0.8834 0.3619
C15 C 0.5755(7) 0.7902(10) 0.2801(3)
H12 H 0.5062 0.7264 0.2914
C16 C 1.2586(7) 0.5994(9) -0.1377(3)
H13 H 1.2755 0.5793 -0.1759
C17 C 0.7630(8) 0.9726(11) 0.3039(3)
H14 H 0.8233 1.0328 0.3315
O1 O 1.0403(13) 0.9774(15) 0.1610(5)
O2? O 1.1491(14) 0.9850(17) 0.1836(7)
loop_
_geom_bond_atom_site_label_1
_geom_bond_atom_site_label_2
_geom_bond_site_symmetry_1
_geom_bond_site_symmetry_2
S1 C2 1_555 1_555
N1 H1 1_555 1_555
N2 C1 1_555 1_555
C1 C3 1_555 1_555
C2 N1 1_555 1_555
N3 N1 1_555 1_555
N4 C2 1_555 1_555
H2 N4 1_555 1_555
C3 N3 1_555 1_555
H3 C3 1_555 1_555
C4 H4 1_555 1_555
C5 N2 1_555 1_555
C6 C4 1_555 1_555
C7 N4 1_555 1_555
C8 C1 1_555 1_555
H5 C8 1_555 1_555
C9 C5 1_555 1_555
H6 C9 1_555 1_555
C10 C7 1_555 1_555
H7 C10 1_555 1_555
C11 C6 1_555 1_555
H8 C11 1_555 1_555
C12 C7 1_555 1_555
H9 C12 1_555 1_555
C13 C11 1_555 1_555
H10 C13 1_555 1_555
C14 H11 1_555 1_555
C15 C10 1_555 1_555
H12 C15 1_555 1_555
C16 C9 1_555 1_555
H13 C16 1_555 1_555
C17 C12 1_555 1_555
H14 C17 1_555 1_555
C4 C8 1_555 1_555
C5 C6 1_555 1_555
C13 C16 1_555 1_555
C14 C15 1_555 1_555
C14 C17 1_555 1_555

#END
