
#######################################################################
#
#                 Cambridge Crystallographic Data Centre
#                                CCDC 
#
#######################################################################
#
# If this CIF has been generated from an entry in the Cambridge 
# Structural Database, then it will include bibliographic, chemical, 
# crystal, experimental, refinement or atomic coordinate data resulting 
# from the CCDC's data processing and validation procedures.
#
#######################################################################

data_ASAYIE
_chemical_formula_moiety         'C40 H33 N1 O3'
_chemical_name_systematic        
4-methyl-7-((3-oxo-1-(4-(triphenylvinyl)phenyl)butyl)amino)-2H-chromen-2-one
_symmetry_cell_setting           triclinic
_symmetry_space_group_name_H-M   'P -1'
_symmetry_Int_Tables_number      2
_space_group_name_Hall           '-P 1'
loop_
_symmetry_equiv_pos_site_id
_symmetry_equiv_pos_as_xyz
1 x,y,z
2 -x,-y,-z
_cell_length_a                   9.8545(4)
_cell_length_b                   10.7534(5)
_cell_length_c                   17.1587(8)
_cell_angle_alpha                88.737(4)
_cell_angle_beta                 75.181(4)
_cell_angle_gamma                63.066(5)
_cell_volume                     1557.83
_exptl_crystal_description       plate
_cell_formula_units_Z            2
loop_
_atom_site_label
_atom_site_type_symbol
_atom_site_fract_x
_atom_site_fract_y
_atom_site_fract_z
O1 O 0.07980(10) 0.54876(10) 0.12288(6)
O2 O 0.29653(9) 0.55097(8) 0.13343(5)
O3 O 0.77578(13) 0.83709(11) 0.05758(6)
N1 N 0.74530(10) 0.59301(10) 0.15597(6)
H1 H 0.8486 0.5544 0.1474
C1 C 0.22386(13) 0.48658(12) 0.10400(7)
C2 C 0.32311(14) 0.35446(12) 0.05499(7)
H2 H 0.2749 0.3086 0.0342
C3 C 0.48287(14) 0.29277(12) 0.03730(7)
C4 C 0.55618(13) 0.36263(11) 0.06844(6)
C5 C 0.45933(12) 0.49172(11) 0.11568(6)
C6 C 0.72107(13) 0.31172(12) 0.05430(7)
H3 H 0.7914 0.2233 0.0234
C7 C 0.78235(13) 0.38599(12) 0.08381(7)
H4 H 0.8939 0.3486 0.0731
C8 C 0.68127(12) 0.51819(11) 0.13020(6)
C9 C 0.51708(12) 0.56860(11) 0.14729(6)
H5 H 0.4463 0.6548 0.1803
C10 C 0.58336(17) 0.15596(13) -0.01588(8)
H6 H 0.6538 0.1684 -0.0637
H7 H 0.5151 0.1251 -0.0332
H8 H 0.6468 0.0851 0.0145
C11 C 0.64816(12) 0.73444(11) 0.19713(6)
H9 H 0.5705 0.7892 0.1662
C12 C 0.75089(13) 0.80591(12) 0.19807(7)
H10 H 0.6884 0.8905 0.2380
H11 H 0.8425 0.7413 0.2172
C13 C 0.81240(14) 0.84921(12) 0.11796(7)
C14 C 0.91908(17) 0.91306(16) 0.11933(9)
H12 H 1.0171 0.8422 0.1297
H13 H 0.8657 0.9915 0.1623
H14 H 0.9442 0.9473 0.0669
C15 C 0.29741(12) 0.76017(11) 0.53062(6)
C16 C 0.38748(12) 0.75120(11) 0.44481(6)
C17 C 0.31395(12) 0.84101(11) 0.39180(7)
H15 H 0.2050 0.9071 0.4103
C18 C 0.39822(12) 0.83467(11) 0.31252(7)
H16 H 0.3470 0.8981 0.2777
C19 C 0.55621(12) 0.73711(11) 0.28341(6)
C20 C 0.62980(12) 0.64610(12) 0.33570(7)
H17 H 0.7375 0.5774 0.3163
C21 C 0.54752(13) 0.65486(12) 0.41556(7)
H18 H 0.6006 0.5945 0.4510
C22 C 0.15819(13) 0.75416(11) 0.54900(7)
C23 C 0.10269(13) 0.71395(11) 0.48485(7)
C24 C -0.05284(14) 0.79144(13) 0.48096(9)
H19 H -0.1261 0.8673 0.5213
C25 C -0.10214(16) 0.75923(14) 0.41895(10)
H20 H -0.2081 0.8140 0.4166
C26 C 0.00255(17) 0.64764(14) 0.36056(9)
H21 H -0.0306 0.6269 0.3174
C27 C 0.15503(16) 0.56669(13) 0.36521(8)
H22 H 0.2264 0.4885 0.3259
C28 C 0.20486(13) 0.59899(12) 0.42709(7)
H23 H 0.3100 0.5420 0.4301
C29 C 0.37106(12) 0.77925(11) 0.59232(6)
C30 C 0.44371(14) 0.86597(13) 0.57926(7)
H24 H 0.4447 0.9126 0.5316
C31 C 0.51472(15) 0.88496(15) 0.63512(9)
H25 H 0.5646 0.9437 0.6252
C32 C 0.51297(16) 0.81874(15) 0.70489(9)
H26 H 0.5598 0.8331 0.7436
C33 C 0.44290(15) 0.73145(14) 0.71825(8)
H27 H 0.4421 0.6854 0.7661
C34 C 0.37377(13) 0.71072(12) 0.66222(7)
H28 H 0.3277 0.6491 0.6716
C35 C 0.05316(12) 0.78532(12) 0.63326(7)
C36 C 0.01238(13) 0.90480(13) 0.68325(7)
H29 H 0.0474 0.9712 0.6627
C37 C -0.07925(14) 0.92677(15) 0.76295(8)
H30 H -0.1071 1.0085 0.7965
C38 C -0.13027(16) 0.83066(18) 0.79385(8)
H31 H -0.1896 0.8444 0.8489
C39 C -0.09420(17) 0.71448(16) 0.74390(9)
H32 H -0.1306 0.6490 0.7645
C40 C -0.00533(14) 0.69307(13) 0.66413(8)
H33 H 0.0161 0.6143 0.6299
loop_
_geom_bond_atom_site_label_1
_geom_bond_atom_site_label_2
_geom_bond_site_symmetry_1
_geom_bond_site_symmetry_2
O1 C1 1_555 1_555
O2 C1 1_555 1_555
O3 C13 1_555 1_555
N1 H1 1_555 1_555
C1 C2 1_555 1_555
C2 H2 1_555 1_555
C3 C2 1_555 1_555
C4 C3 1_555 1_555
C5 O2 1_555 1_555
C6 C4 1_555 1_555
H3 C6 1_555 1_555
C7 C6 1_555 1_555
H4 C7 1_555 1_555
C8 N1 1_555 1_555
C9 C5 1_555 1_555
H5 C9 1_555 1_555
C10 C3 1_555 1_555
H6 C10 1_555 1_555
H7 C10 1_555 1_555
H8 C10 1_555 1_555
C11 N1 1_555 1_555
H9 C11 1_555 1_555
C12 C11 1_555 1_555
H10 C12 1_555 1_555
H11 C12 1_555 1_555
C13 C12 1_555 1_555
C14 C13 1_555 1_555
H12 C14 1_555 1_555
H13 C14 1_555 1_555
H14 C14 1_555 1_555
C15 C16 1_555 1_555
C16 C17 1_555 1_555
C17 H15 1_555 1_555
C18 C17 1_555 1_555
H16 C18 1_555 1_555
C19 C11 1_555 1_555
C20 C19 1_555 1_555
H17 C20 1_555 1_555
C21 C16 1_555 1_555
H18 C21 1_555 1_555
C22 C15 1_555 1_555
C23 C22 1_555 1_555
C24 C23 1_555 1_555
H19 C24 1_555 1_555
C25 C24 1_555 1_555
H20 C25 1_555 1_555
C26 C25 1_555 1_555
H21 C26 1_555 1_555
C27 C26 1_555 1_555
H22 C27 1_555 1_555
C28 C23 1_555 1_555
H23 C28 1_555 1_555
C29 C15 1_555 1_555
C30 C29 1_555 1_555
H24 C30 1_555 1_555
C31 C30 1_555 1_555
H25 C31 1_555 1_555
C32 C31 1_555 1_555
H26 C32 1_555 1_555
C33 C32 1_555 1_555
H27 C33 1_555 1_555
C34 C29 1_555 1_555
H28 C34 1_555 1_555
C35 C22 1_555 1_555
C36 C35 1_555 1_555
H29 C36 1_555 1_555
C37 C36 1_555 1_555
H30 C37 1_555 1_555
C38 C37 1_555 1_555
H31 C38 1_555 1_555
C39 C38 1_555 1_555
H32 C39 1_555 1_555
C40 C35 1_555 1_555
H33 C40 1_555 1_555
C4 C5 1_555 1_555
C7 C8 1_555 1_555
C8 C9 1_555 1_555
C18 C19 1_555 1_555
C20 C21 1_555 1_555
C27 C28 1_555 1_555
C33 C34 1_555 1_555
C39 C40 1_555 1_555

#END
