
#######################################################################
#
#                 Cambridge Crystallographic Data Centre
#                                CCDC 
#
#######################################################################
#
# If this CIF has been generated from an entry in the Cambridge 
# Structural Database, then it will include bibliographic, chemical, 
# crystal, experimental, refinement or atomic coordinate data resulting 
# from the CCDC's data processing and validation procedures.
#
#######################################################################

data_ASEDUZ
_chemical_formula_moiety         'C19 H18 Br1 N1 O2 S1'
_chemical_name_systematic        
7-(4-bromophenyl)-1-((4-methylphenyl)sulfonyl)-2,3-dihydro-1H-azepine
_symmetry_cell_setting           monoclinic
_symmetry_space_group_name_H-M   'P 21/c'
_symmetry_Int_Tables_number      14
_space_group_name_Hall           '-P 2ybc'
loop_
_symmetry_equiv_pos_site_id
_symmetry_equiv_pos_as_xyz
1 x,y,z
2 -x,1/2+y,1/2-z
3 -x,-y,-z
4 x,1/2-y,1/2+z
_cell_length_a                   18.6214(17)
_cell_length_b                   7.7757(7)
_cell_length_c                   12.6210(12)
_cell_angle_alpha                90
_cell_angle_beta                 99.170(2)
_cell_angle_gamma                90
_cell_volume                     1804.1
_exptl_crystal_colour            colorless
_cell_formula_units_Z            4
loop_
_atom_site_label
_atom_site_type_symbol
_atom_site_fract_x
_atom_site_fract_y
_atom_site_fract_z
Br1 Br 0.51623(2) -0.30453(5) 0.08408(4)
S1 S 0.79938(4) 0.31865(8) 0.27648(5)
O1 O 0.77919(11) 0.1426(2) 0.28018(16)
O2 O 0.81600(11) 0.4159(3) 0.37376(13)
C1 C 0.99924(16) 0.3219(4) 0.1118(2)
C2 C 0.57314(16) -0.1009(4) 0.0909(3)
C3 C 0.61484(17) -0.0731(4) 0.0131(3)
H1 H 0.6145 -0.1517 -0.0426
C4 C 0.65778(15) 0.0733(4) 0.0174(2)
H2 H 0.6863 0.0925 -0.0355
C5 C 0.65863(14) 0.1918(3) 0.1001(2)
C6 C 0.70182(13) 0.3519(3) 0.10047(18)
N1 N 0.73222(11) 0.4209(3) 0.20320(15)
C7 C 0.87571(14) 0.3258(3) 0.21028(18)
C8 C 0.87665(15) 0.2281(4) 0.1183(2)
H3 H 0.8362 0.1631 0.0897
C9 C 0.93770(16) 0.2283(4) 0.0700(2)
H4 H 0.9379 0.1642 0.0078
C10 C 1.06591(19) 0.3189(5) 0.0577(3)
H5 H 1.0940 0.2177 0.0794
H6 H 1.0948 0.4193 0.0780
H7 H 1.0513 0.3177 -0.0188
C11 C 0.57371(18) 0.0117(4) 0.1741(3)
H8 H 0.5456 -0.0098 0.2272
C12 C 0.61635(16) 0.1579(4) 0.1789(2)
H9 H 0.6167 0.2344 0.2356
C13 C 0.93637(16) 0.4202(4) 0.2521(2)
H10 H 0.9361 0.4860 0.3136
C14 C 0.99717(16) 0.4173(4) 0.2033(3)
H11 H 1.0378 0.4810 0.2326
C15 C 0.72268(17) 0.6069(3) 0.2207(2)
H12 H 0.7256 0.6268 0.2971
H13 H 0.6742 0.6396 0.1865
C16 C 0.7767(2) 0.7222(4) 0.1793(3)
H14 H 0.7658 0.8403 0.1958
H15 H 0.8248 0.6959 0.2178
C17 C 0.77856(18) 0.7093(4) 0.0634(3)
H16 H 0.8039 0.7962 0.0347
C18 C 0.74888(18) 0.5901(4) -0.0059(2)
H17 H 0.7555 0.6088 -0.0765
C19 C 0.70807(15) 0.4364(3) 0.0103(2)
H18 H 0.6821 0.3891 -0.0519
loop_
_geom_bond_atom_site_label_1
_geom_bond_atom_site_label_2
_geom_bond_site_symmetry_1
_geom_bond_site_symmetry_2
Br1 C2 1_555 1_555
S1 O1 1_555 1_555
O2 S1 1_555 1_555
C1 C9 1_555 1_555
C2 C3 1_555 1_555
C3 H1 1_555 1_555
C4 C3 1_555 1_555
H2 C4 1_555 1_555
C5 C4 1_555 1_555
C6 C5 1_555 1_555
N1 S1 1_555 1_555
C7 S1 1_555 1_555
C8 C7 1_555 1_555
H3 C8 1_555 1_555
C9 C8 1_555 1_555
H4 C9 1_555 1_555
C10 C1 1_555 1_555
H5 C10 1_555 1_555
H6 C10 1_555 1_555
H7 C10 1_555 1_555
C11 C2 1_555 1_555
H8 C11 1_555 1_555
C12 C5 1_555 1_555
H9 C12 1_555 1_555
C13 C7 1_555 1_555
H10 C13 1_555 1_555
C14 C1 1_555 1_555
H11 C14 1_555 1_555
C15 N1 1_555 1_555
H12 C15 1_555 1_555
H13 C15 1_555 1_555
C16 C15 1_555 1_555
H14 C16 1_555 1_555
H15 C16 1_555 1_555
C17 C16 1_555 1_555
H16 C17 1_555 1_555
C18 C17 1_555 1_555
H17 C18 1_555 1_555
C19 C6 1_555 1_555
H18 C19 1_555 1_555
C6 N1 1_555 1_555
C11 C12 1_555 1_555
C13 C14 1_555 1_555
C18 C19 1_555 1_555

#END
