
#######################################################################
#
#                 Cambridge Crystallographic Data Centre
#                                CCDC 
#
#######################################################################
#
# If this CIF has been generated from an entry in the Cambridge 
# Structural Database, then it will include bibliographic, chemical, 
# crystal, experimental, refinement or atomic coordinate data resulting 
# from the CCDC's data processing and validation procedures.
#
#######################################################################

data_ASEHUD
_chemical_formula_moiety         'C26 H14 Br2 Cl1 N3 O1,C2 H6 O1 S1'
_chemical_name_systematic        
'2-(5-bromo-1H-indol-3-yl)-4-(4-bromophenyl)-5-(4-chlorobenzoyl)-1H-pyrrole-3-carbonitrile dimethyl sulfoxide solvate'
_symmetry_cell_setting           monoclinic
_symmetry_space_group_name_H-M   'P 21/n'
_symmetry_Int_Tables_number      14
_space_group_name_Hall           '-P 2yn'
loop_
_symmetry_equiv_pos_site_id
_symmetry_equiv_pos_as_xyz
1 x,y,z
2 1/2-x,1/2+y,1/2-z
3 -x,-y,-z
4 1/2+x,1/2-y,1/2+z
_cell_length_a                   12.4962(12)
_cell_length_b                   12.8055(10)
_cell_length_c                   17.6834(17)
_cell_angle_alpha                90
_cell_angle_beta                 92.820(3)
_cell_angle_gamma                90
_cell_volume                     2826.27
_exptl_crystal_colour            yellow
_exptl_crystal_description       block
_cell_formula_units_Z            4
loop_
_atom_site_label
_atom_site_type_symbol
_atom_site_fract_x
_atom_site_fract_y
_atom_site_fract_z
C1 C 1.3650(3) 0.7573(3) 0.1460(3)
H1 H 1.3715 0.7143 0.1883
C2 C 1.4030(4) 0.8589(4) 0.1498(3)
H2 H 1.4345 0.8849 0.1947
C3 C 1.3936(4) 0.9203(4) 0.0868(4)
C4 C 1.3434(4) 0.8858(4) 0.0210(3)
H3 H 1.3355 0.9299 -0.0207
C5 C 1.3050(4) 0.7857(4) 0.0172(3)
H4 H 1.2702 0.7618 -0.0272
C6 C 1.3176(3) 0.7199(3) 0.0791(3)
C7 C 1.2789(3) 0.6105(3) 0.0726(3)
C8 C 1.3422(3) 0.5262(3) 0.1073(2)
C9 C 1.4510(3) 0.5131(3) 0.1266(2)
C10 C 1.5384(3) 0.5894(3) 0.1181(2)
C11 C 1.5531(3) 0.6405(3) 0.0511(3)
H5 H 1.5110 0.6223 0.0083
C12 C 1.6288(4) 0.7183(4) 0.0458(3)
H6 H 1.6379 0.7524 0.0001
C13 C 1.6907(4) 0.7445(4) 0.1096(3)
C14 C 1.6812(3) 0.6930(4) 0.1768(3)
H7 H 1.7249 0.7103 0.2190
C15 C 1.6052(3) 0.6148(3) 0.1807(3)
H8 H 1.5988 0.5786 0.2259
C16 C 1.4618(3) 0.4099(3) 0.1543(2)
C17 C 1.5598(4) 0.3568(4) 0.1722(3)
C18 C 1.3605(3) 0.3633(3) 0.1538(2)
C19 C 1.3286(3) 0.2625(3) 0.1812(2)
C20 C 1.3851(3) 0.2061(3) 0.2357(2)
H9 H 1.4483 0.2282 0.2607
C21 C 1.2458(3) 0.1067(3) 0.2000(2)
C22 C 1.2373(3) 0.1996(3) 0.1580(2)
C23 C 1.1506(3) 0.2111(3) 0.1054(2)
H10 H 1.1429 0.2713 0.0761
C24 C 1.0777(3) 0.1317(4) 0.0981(3)
C25 C 1.0879(4) 0.0392(4) 0.1398(3)
H11 H 1.0367 -0.0132 0.1330
C26 C 1.1730(4) 0.0255(3) 0.1906(3)
H12 H 1.1817 -0.0363 0.2179
N1 N 1.2906(3) 0.4344(2) 0.12369(19)
H13 H 1.2231 0.4237 0.1158
N2 N 1.3361(3) 0.1139(3) 0.2479(2)
H14 H 1.3576 0.0674 0.2803
N3 N 1.6377(3) 0.3126(3) 0.1851(3)
O1 O 1.1943(3) 0.5897(3) 0.0367(2)
Cl1 Cl 1.44831(14) 1.04501(10) 0.09004(10)
Br1 Br 0.95687(4) 0.14674(5) 0.03007(4)
Br2 Br 1.79124(5) 0.85467(5) 0.10269(4)
C27 C 0.9319(5) 0.5805(5) 0.0966(4)
H15 H 0.9815 0.6227 0.0702
H16 H 0.9244 0.6082 0.1465
H17 H 0.8635 0.5808 0.0694
C28 C 0.8771(5) 0.3945(6) 0.1528(4)
H18 H 0.8918 0.3218 0.1613
H19 H 0.8107 0.4019 0.1235
H20 H 0.8718 0.4293 0.2005
O2 O 1.0750(2) 0.4536(2) 0.16015(17)
S1 S 0.98089(9) 0.45031(11) 0.10350(8)
loop_
_geom_bond_atom_site_label_1
_geom_bond_atom_site_label_2
_geom_bond_site_symmetry_1
_geom_bond_site_symmetry_2
C1 H1 1_555 1_555
C2 C1 1_555 1_555
H2 C2 1_555 1_555
C3 C2 1_555 1_555
C4 C3 1_555 1_555
H3 C4 1_555 1_555
C5 C4 1_555 1_555
H4 C5 1_555 1_555
C6 C1 1_555 1_555
C7 C6 1_555 1_555
C8 C7 1_555 1_555
C9 C8 1_555 1_555
C10 C9 1_555 1_555
C11 C10 1_555 1_555
H5 C11 1_555 1_555
C12 C11 1_555 1_555
H6 C12 1_555 1_555
C13 C12 1_555 1_555
C14 C13 1_555 1_555
H7 C14 1_555 1_555
C15 C10 1_555 1_555
H8 C15 1_555 1_555
C16 C9 1_555 1_555
C17 C16 1_555 1_555
C18 C16 1_555 1_555
C19 C18 1_555 1_555
C20 C19 1_555 1_555
H9 C20 1_555 1_555
C21 C22 1_555 1_555
C22 C19 1_555 1_555
C23 C22 1_555 1_555
H10 C23 1_555 1_555
C24 C23 1_555 1_555
C25 C24 1_555 1_555
H11 C25 1_555 1_555
C26 C21 1_555 1_555
H12 C26 1_555 1_555
N1 C8 1_555 1_555
H13 N1 1_555 1_555
N2 C20 1_555 1_555
H14 N2 1_555 1_555
N3 C17 1_555 1_555
O1 C7 1_555 1_555
Cl1 C3 1_555 1_555
Br1 C24 1_555 1_555
Br2 C13 1_555 1_555
C27 H15 1_555 1_555
H16 C27 1_555 1_555
H17 C27 1_555 1_555
C28 H18 1_555 1_555
H19 C28 1_555 1_555
H20 C28 1_555 1_555
O2 S1 1_555 1_555
S1 C27 1_555 1_555
C5 C6 1_555 1_555
C14 C15 1_555 1_555
C18 N1 1_555 1_555
C21 N2 1_555 1_555
C25 C26 1_555 1_555
C28 S1 1_555 1_555

#END
