
#######################################################################
#
#                 Cambridge Crystallographic Data Centre
#                                CCDC 
#
#######################################################################
#
# If this CIF has been generated from an entry in the Cambridge 
# Structural Database, then it will include bibliographic, chemical, 
# crystal, experimental, refinement or atomic coordinate data resulting 
# from the CCDC's data processing and validation procedures.
#
#######################################################################

data_ASEJUD
_chemical_formula_moiety         'C13 H13 N1 O3'
_chemical_name_systematic        
N-(4-Hydroxy-3-methoxybenzylidene)furfurylamine
_symmetry_cell_setting           orthorhombic
_symmetry_space_group_name_H-M   'P 21 21 21'
_symmetry_Int_Tables_number      19
_space_group_name_Hall           'P 2ac 2ab'
loop_
_symmetry_equiv_pos_site_id
_symmetry_equiv_pos_as_xyz
1 x,y,z
2 1/2-x,-y,1/2+z
3 1/2+x,1/2-y,-z
4 -x,1/2+y,1/2-z
_cell_length_a                   10.148(2)
_cell_length_b                   10.806(2)
_cell_length_c                   10.937(2)
_cell_angle_alpha                90
_cell_angle_beta                 90
_cell_angle_gamma                90
_cell_volume                     1199.34
_chemical_melting_point          '129.7-130.4 deg.C'
_cell_formula_units_Z            4
loop_
_atom_site_label
_atom_site_type_symbol
_atom_site_fract_x
_atom_site_fract_y
_atom_site_fract_z
O1 O 0.0880(3) 1.1095(3) 0.5490(2)
O2 O 0.8144(3) 1.1014(3) 0.9260(2)
O3 O 0.1430(2) 0.9256(3) 0.7061(2)
N1 N 0.5257(3) 1.1100(3) 0.9758(3)
C1 C 0.9266(4) 1.0310(4) 0.9261(5)
C2 C 0.9374(4) 0.9681(4) 1.0291(4)
C3 C 0.8260(4) 0.9980(4) 1.0991(4)
C4 C 0.7543(3) 1.0793(3) 1.0353(3)
C5 C 0.6317(4) 1.1496(4) 1.0580(4)
C6 C 0.4949(3) 1.1817(4) 0.8886(4)
C7 C 0.3923(3) 1.1578(3) 0.7985(3)
C8 C 0.3631(4) 1.2478(3) 0.7125(3)
C9 C 0.2622(4) 1.2302(3) 0.6280(3)
C10 C 0.1892(4) 1.1223(4) 0.6285(3)
C11 C 0.324 1.045 0.798
C12 C 0.225 1.027 0.711
C13 C 0.228 0.821 0.700
loop_
_geom_bond_atom_site_label_1
_geom_bond_atom_site_label_2
_geom_bond_site_symmetry_1
_geom_bond_site_symmetry_2
O1 C10 1_555 1_555
O2 C1 1_555 1_555
O3 C12 1_555 1_555
N1 C5 1_555 1_555
C1 C2 1_555 1_555
C2 C3 1_555 1_555
C3 C4 1_555 1_555
C4 O2 1_555 1_555
C5 C4 1_555 1_555
C6 N1 1_555 1_555
C7 C6 1_555 1_555
C8 C7 1_555 1_555
C9 C8 1_555 1_555
C10 C9 1_555 1_555
C11 C7 1_555 1_555
C12 C10 1_555 1_555
C13 O3 1_555 1_555
C11 C12 1_555 1_555

#END
