
#######################################################################
#
#                 Cambridge Crystallographic Data Centre
#                                CCDC 
#
#######################################################################
#
# If this CIF has been generated from an entry in the Cambridge 
# Structural Database, then it will include bibliographic, chemical, 
# crystal, experimental, refinement or atomic coordinate data resulting 
# from the CCDC's data processing and validation procedures.
#
#######################################################################

data_ASENOC
_chemical_formula_moiety         'C12 H18 N6 O2'
_chemical_name_systematic        
't-Butyl (2-(6-amino-9H-purin-9-yl)ethyl)carbamate'
_symmetry_cell_setting           monoclinic
_symmetry_space_group_name_H-M   'P 21/c'
_symmetry_Int_Tables_number      14
_space_group_name_Hall           '-P 2ybc'
loop_
_symmetry_equiv_pos_site_id
_symmetry_equiv_pos_as_xyz
1 x,y,z
2 -x,1/2+y,1/2-z
3 -x,-y,-z
4 x,1/2-y,1/2+z
_cell_length_a                   13.245(5)
_cell_length_b                   12.702(5)
_cell_length_c                   8.574(5)
_cell_angle_alpha                90
_cell_angle_beta                 106.846(5)
_cell_angle_gamma                90
_cell_volume                     1380.57
_exptl_crystal_colour            colorless
_cell_formula_units_Z            4
loop_
_atom_site_label
_atom_site_type_symbol
_atom_site_fract_x
_atom_site_fract_y
_atom_site_fract_z
C1 C 0.3606(3) 1.0399(3) 0.5785(4)
H1 H 0.3507 1.0287 0.6803
C2 C 0.3662(2) 0.9793(3) 0.3412(4)
C3 C 0.3896(2) 1.0776(2) 0.2924(4)
C4 C 0.3957(2) 1.1617(2) 0.4017(4)
C5 C 0.3902(3) 0.9714(3) 0.1010(4)
H2 H 0.3954 0.9436 0.0033
C6 C 0.3498(3) 0.7971(3) 0.2163(5)
H3 H 0.3976 0.7672 0.3141
H4 H 0.3668 0.7667 0.1232
C7 C 0.2388(3) 0.7683(3) 0.2090(5)
H5 H 0.2230 0.7932 0.3063
H6 H 0.1900 0.8017 0.1154
C8 C 0.1586(3) 0.6047(3) 0.2566(5)
C9 C 0.0864(4) 0.4283(4) 0.2682(7)
C10 C 0.1220(5) 0.4166(5) 0.4495(9)
H7 H 0.0802 0.3638 0.4817
H8 H 0.1138 0.4826 0.4993
H9 H 0.1949 0.3961 0.4841
C11 C -0.0277(4) 0.4616(5) 0.2076(8)
H10 H -0.0490 0.4647 0.0907
H11 H -0.0358 0.5298 0.2507
H12 H -0.0708 0.4116 0.2428
C12 C 0.0997(5) 0.3305(5) 0.1806(9)
H13 H 0.0788 0.3437 0.0654
H14 H 0.0565 0.2757 0.2044
H15 H 0.1723 0.3091 0.2155
H16 H 0.408(2) 1.315(3) 0.431(5)
H17 H 0.411(3) 1.281(3) 0.275(5)
H18 H 0.244(3) 0.620(4) 0.136(6)
N1 N 0.3833(2) 1.1387(2) 0.5491(3)
N2 N 0.2260(3) 0.6573(3) 0.1968(5)
N3 N 0.3497(2) 0.9550(2) 0.4850(4)
N4 N 0.4152(2) 1.2610(2) 0.3721(4)
N5 N 0.4055(2) 1.0714(2) 0.1392(4)
N6 N 0.3663(2) 0.9126(2) 0.2167(3)
O1 O 0.1109(3) 0.6464(3) 0.3419(5)
O2 O 0.1546(2) 0.5033(2) 0.2155(4)
loop_
_geom_bond_atom_site_label_1
_geom_bond_atom_site_label_2
_geom_bond_site_symmetry_1
_geom_bond_site_symmetry_2
C1 H1 1_555 1_555
C2 C3 1_555 1_555
C3 C4 1_555 1_555
C4 N1 1_555 1_555
C5 H2 1_555 1_555
C6 H3 1_555 1_555
H4 C6 1_555 1_555
C7 C6 1_555 1_555
H5 C7 1_555 1_555
H6 C7 1_555 1_555
C8 N2 1_555 1_555
C9 C10 1_555 1_555
C10 H7 1_555 1_555
H8 C10 1_555 1_555
H9 C10 1_555 1_555
C11 C9 1_555 1_555
H10 C11 1_555 1_555
H11 C11 1_555 1_555
H12 C11 1_555 1_555
C12 C9 1_555 1_555
H13 C12 1_555 1_555
H14 C12 1_555 1_555
H15 C12 1_555 1_555
H16 N4 1_555 1_555
H17 N4 1_555 1_555
H18 N2 1_555 1_555
N1 C1 1_555 1_555
N2 C7 1_555 1_555
N3 C1 1_555 1_555
N4 C4 1_555 1_555
N5 C3 1_555 1_555
N6 C2 1_555 1_555
O1 C8 1_555 1_555
O2 C8 1_555 1_555
C2 N3 1_555 1_555
C5 N5 1_555 1_555
C5 N6 1_555 1_555
C6 N6 1_555 1_555
C9 O2 1_555 1_555

#END
