
#######################################################################
#
#                 Cambridge Crystallographic Data Centre
#                                CCDC 
#
#######################################################################
#
# If this CIF has been generated from an entry in the Cambridge 
# Structural Database, then it will include bibliographic, chemical, 
# crystal, experimental, refinement or atomic coordinate data resulting 
# from the CCDC's data processing and validation procedures.
#
#######################################################################

data_ASETOI
_chemical_name_common            
8-[4-(methoxycarbonyl)phenyl]-1,3,5,7-tetramethyl-4,4-difluoro-3a,4a-diaza-4-bora-s-indacene
_chemical_formula_moiety         'C21 H21 B1 F2 N2 O2'
_chemical_name_systematic        
"Methyl 4-(5,5-difluoro-1,3,7,9-tetramethyl-5H-6\l^5^,5\l^5^-dipyrrolo[1,2-c:2',1'-f][1,3,2]diazaborinin-10-yl)benzoate"
_symmetry_cell_setting           monoclinic
_symmetry_space_group_name_H-M   'C 2'
_symmetry_Int_Tables_number      5
_space_group_name_Hall           'C 2y'
loop_
_symmetry_equiv_pos_site_id
_symmetry_equiv_pos_as_xyz
1 x,y,z
2 -x,y,-z
3 1/2+x,1/2+y,z
4 1/2-x,1/2+y,-z
_cell_length_a                   32.787(6)
_cell_length_b                   7.992(5)
_cell_length_c                   7.252(4)
_cell_angle_alpha                90
_cell_angle_beta                 90.19(4)
_cell_angle_gamma                90
_cell_volume                     1900.26
_exptl_crystal_colour            'red brown'
_exptl_crystal_description       plate
_cell_formula_units_Z            4
loop_
_atom_site_label
_atom_site_type_symbol
_atom_site_fract_x
_atom_site_fract_y
_atom_site_fract_z
F1 F -0.69029(4) 0.38266(15) -0.87399(15)
F2 F -0.72714(3) 0.58752(15) -0.73567(14)
O1 O -0.53937(5) 1.51279(19) -1.1805(2)
O2 O -0.49399(4) 1.31173(19) -1.2489(2)
N1 N -0.65383(5) 0.6159(2) -0.7412(2)
N2 N -0.69500(5) 0.6499(2) -1.0263(2)
C1 C -0.64014(6) 0.5608(3) -0.5753(3)
C2 C -0.60645(6) 0.6566(3) -0.5240(3)
H1 H -0.5913 0.6435 -0.4131
C3 C -0.59865(6) 0.7734(3) -0.6595(3)
C4 C -0.62885(6) 0.7475(3) -0.7986(3)
C5 C -0.63665(6) 0.8280(3) -0.9677(2)
C6 C -0.66905(6) 0.7804(2) -1.0800(3)
C7 C -0.68331(6) 0.8408(3) -1.2552(3)
C8 C -0.71674(6) 0.7456(3) -1.2996(3)
H2 H -0.7326 0.7565 -1.4087
C9 C -0.72364(6) 0.6302(3) -1.1586(3)
C10 C -0.65877(7) 0.4163(3) -0.4761(3)
H3 H -0.6886 0.4231 -0.4854
H4 H -0.6506 0.4194 -0.3460
H5 H -0.6494 0.3114 -0.5317
C11 C -0.56445(7) 0.8984(3) -0.6547(3)
H6 H -0.5514 0.8961 -0.5330
H7 H -0.5753 1.0106 -0.6784
H8 H -0.5444 0.8700 -0.7494
C12 C -0.66786(6) 0.9850(3) -1.3672(3)
H9 H -0.6781 0.9755 -1.4939
H10 H -0.6380 0.9836 -1.3679
H11 H -0.6774 1.0902 -1.3131
C13 C -0.75669(7) 0.5029(3) -1.1461(3)
H12 H -0.7458 0.3927 -1.1790
H13 H -0.7788 0.5326 -1.2312
H14 H -0.7672 0.4997 -1.0198
C14 C -0.60908(6) 0.9665(3) -1.0268(3)
C15 C -0.57142(6) 0.9294(3) -1.1067(2)
H15 H -0.5633 0.8164 -1.1237
C16 C -0.54598(6) 1.0594(3) -1.1610(3)
H16 H -0.5204 1.0347 -1.2155
C17 C -0.55756(6) 1.2253(3) -1.1364(3)
C18 C -0.59519(6) 1.2618(3) -1.0568(3)
H17 H -0.6033 1.3749 -1.0402
C19 C -0.62072(6) 1.1333(2) -1.0019(3)
H18 H -0.6463 1.1585 -0.9469
C20 C -0.53042(6) 1.3663(3) -1.1897(3)
C21 C -0.46462(6) 1.4394(3) -1.2979(3)
H19 H -0.4757 1.5085 -1.3979
H20 H -0.4393 1.3862 -1.3388
H21 H -0.4590 1.5100 -1.1903
B1 B -0.69273(7) 0.5536(3) -0.8416(3)
loop_
_geom_bond_atom_site_label_1
_geom_bond_atom_site_label_2
_geom_bond_site_symmetry_1
_geom_bond_site_symmetry_2
F1 B1 1_555 1_555
F2 B1 1_555 1_555
O1 C20 1_555 1_555
O2 C20 1_555 1_555
N1 C1 1_555 1_555
N2 C6 1_555 1_555
C1 C2 1_555 1_555
C2 H1 1_555 1_555
C3 C2 1_555 1_555
C4 N1 1_555 1_555
C5 C4 1_555 1_555
C6 C5 1_555 1_555
C7 C6 1_555 1_555
C8 C7 1_555 1_555
H2 C8 1_555 1_555
C9 N2 1_555 1_555
C10 C1 1_555 1_555
H3 C10 1_555 1_555
H4 C10 1_555 1_555
H5 C10 1_555 1_555
C11 C3 1_555 1_555
H6 C11 1_555 1_555
H7 C11 1_555 1_555
H8 C11 1_555 1_555
C12 C7 1_555 1_555
H9 C12 1_555 1_555
H10 C12 1_555 1_555
H11 C12 1_555 1_555
C13 C9 1_555 1_555
H12 C13 1_555 1_555
H13 C13 1_555 1_555
H14 C13 1_555 1_555
C14 C5 1_555 1_555
C15 C14 1_555 1_555
H15 C15 1_555 1_555
C16 C15 1_555 1_555
H16 C16 1_555 1_555
C17 C16 1_555 1_555
C18 C17 1_555 1_555
H17 C18 1_555 1_555
C19 C14 1_555 1_555
H18 C19 1_555 1_555
C20 C17 1_555 1_555
C21 O2 1_555 1_555
H19 C21 1_555 1_555
H20 C21 1_555 1_555
H21 C21 1_555 1_555
B1 N1 1_555 1_555
N2 B1 1_555 1_555
C3 C4 1_555 1_555
C8 C9 1_555 1_555
C18 C19 1_555 1_555

#END
