
#######################################################################
#
#                 Cambridge Crystallographic Data Centre
#                                CCDC 
#
#######################################################################
#
# If this CIF has been generated from an entry in the Cambridge 
# Structural Database, then it will include bibliographic, chemical, 
# crystal, experimental, refinement or atomic coordinate data resulting 
# from the CCDC's data processing and validation procedures.
#
#######################################################################

data_ASEXAY
_chemical_formula_moiety         'C21 H28 N2 O5'
_chemical_name_systematic        
'Dimethyl 2-(methyl(2-(9-methyl-3,4,9,9a-tetrahydropyrano[2,3-b]indol-4a(2H)-yl)ethyl)amino)but-2-enedioate'
_symmetry_cell_setting           orthorhombic
_symmetry_space_group_name_H-M   'P 21 21 21'
_symmetry_Int_Tables_number      19
_space_group_name_Hall           'P 2ac 2ab'
loop_
_symmetry_equiv_pos_site_id
_symmetry_equiv_pos_as_xyz
1 x,y,z
2 1/2-x,-y,1/2+z
3 -x,1/2+y,1/2-z
4 1/2+x,1/2-y,-z
_cell_length_a                   8.7607(16)
_cell_length_b                   8.8040(16)
_cell_length_c                   25.967(5)
_cell_angle_alpha                90
_cell_angle_beta                 90
_cell_angle_gamma                90
_cell_volume                     2002.81
_exptl_crystal_colour            colorless
_exptl_crystal_description       block
_chemical_melting_point          '153-154 deg.C'
_cell_formula_units_Z            4
_exptl_crystal_recrystallization_method dichloromethane/petroleum
loop_
_atom_site_label
_atom_site_type_symbol
_atom_site_fract_x
_atom_site_fract_y
_atom_site_fract_z
O1 O 0.70135(15) 0.59389(15) 0.54195(4)
O2 O 0.79309(14) 0.73004(15) 0.77064(5)
O3 O 0.79568(15) 0.98199(15) 0.78662(5)
O4 O 0.52178(16) 0.74675(16) 0.92463(5)
O5 O 0.74201(14) 0.79110(17) 0.88274(5)
N1 N 0.82333(17) 0.58388(16) 0.62083(5)
N2 N 0.47450(16) 0.87561(17) 0.74962(6)
C1 C 0.78258(19) 0.84072(19) 0.61665(6)
C2 C 0.8257(2) 0.9914(2) 0.61499(7)
H1 H 0.7511 1.0687 0.6107
C3 C 0.9803(2) 1.0294(2) 0.61969(7)
H2 H 1.0113 1.1327 0.6184
C4 C 1.0876(2) 0.9157(2) 0.62621(7)
H3 H 1.1918 0.9430 0.6302
C5 C 1.04745(19) 0.7621(2) 0.62718(6)
H4 H 1.1221 0.6848 0.6313
C6 C 0.89331(19) 0.7274(2) 0.62182(6)
C7 C 0.9141(2) 0.4511(2) 0.60763(7)
H5 H 0.9931 0.4357 0.6338
H6 H 0.9624 0.4667 0.5740
H7 H 0.8480 0.3614 0.6062
C8 C 0.6768(2) 0.60446(19) 0.59628(6)
H8 H 0.6025 0.5256 0.6081
C9 C 0.5715(2) 0.6431(2) 0.51302(7)
H9 H 0.4800 0.5858 0.5241
H10 H 0.5885 0.6229 0.4760
C10 C 0.5456(2) 0.8116(2) 0.52131(7)
H11 H 0.4592 0.8469 0.4999
H12 H 0.6379 0.8692 0.5112
C11 C 0.5105(2) 0.8386(2) 0.57829(7)
H13 H 0.5083 0.9493 0.5849
H14 H 0.4078 0.7977 0.5861
C12 C 0.62688(18) 0.76468(19) 0.61426(6)
C13 C 0.55939(19) 0.74666(19) 0.66912(6)
H15 H 0.4586 0.6963 0.6665
H16 H 0.6271 0.6793 0.6894
C14 C 0.5400(2) 0.89629(19) 0.69809(6)
H17 H 0.6408 0.9463 0.7013
H18 H 0.4729 0.9643 0.6779
C15 C 0.3091(2) 0.8571(2) 0.75302(7)
H19 H 0.2706 0.9126 0.7831
H20 H 0.2843 0.7491 0.7565
H21 H 0.2613 0.8973 0.7217
C16 C 0.56020(18) 0.84210(18) 0.79124(7)
C17 C 0.73041(19) 0.8623(2) 0.78373(6)
C18 C 0.95547(19) 0.7351(3) 0.75999(8)
H22 H 1.0108 0.7614 0.7916
H23 H 0.9758 0.8118 0.7335
H24 H 0.9895 0.6354 0.7477
C19 C 0.5052(2) 0.79833(19) 0.83777(7)
H25 H 0.3990 0.7798 0.8415
C20 C 0.6045(2) 0.77921(19) 0.88175(7)
C21 C 0.6085(3) 0.7286(3) 0.97137(8)
H26 H 0.6720 0.8188 0.9769
H27 H 0.6739 0.6387 0.9685
H28 H 0.5385 0.7161 1.0005
loop_
_geom_bond_atom_site_label_1
_geom_bond_atom_site_label_2
_geom_bond_site_symmetry_1
_geom_bond_site_symmetry_2
O1 C8 1_555 1_555
O2 C17 1_555 1_555
O3 C17 1_555 1_555
O4 C20 1_555 1_555
O5 C20 1_555 1_555
N1 C6 1_555 1_555
N2 C14 1_555 1_555
C1 C2 1_555 1_555
C2 H1 1_555 1_555
C3 C2 1_555 1_555
H2 C3 1_555 1_555
C4 C3 1_555 1_555
H3 C4 1_555 1_555
C5 C4 1_555 1_555
H4 C5 1_555 1_555
C6 C1 1_555 1_555
C7 N1 1_555 1_555
H5 C7 1_555 1_555
H6 C7 1_555 1_555
H7 C7 1_555 1_555
C8 N1 1_555 1_555
H8 C8 1_555 1_555
C9 O1 1_555 1_555
H9 C9 1_555 1_555
H10 C9 1_555 1_555
C10 C9 1_555 1_555
H11 C10 1_555 1_555
H12 C10 1_555 1_555
C11 C10 1_555 1_555
H13 C11 1_555 1_555
H14 C11 1_555 1_555
C12 C1 1_555 1_555
C13 C12 1_555 1_555
H15 C13 1_555 1_555
H16 C13 1_555 1_555
C14 C13 1_555 1_555
H17 C14 1_555 1_555
H18 C14 1_555 1_555
C15 N2 1_555 1_555
H19 C15 1_555 1_555
H20 C15 1_555 1_555
H21 C15 1_555 1_555
C16 N2 1_555 1_555
C17 C16 1_555 1_555
C18 O2 1_555 1_555
H22 C18 1_555 1_555
H23 C18 1_555 1_555
H24 C18 1_555 1_555
C19 C16 1_555 1_555
H25 C19 1_555 1_555
C20 C19 1_555 1_555
C21 O4 1_555 1_555
H26 C21 1_555 1_555
H27 C21 1_555 1_555
H28 C21 1_555 1_555
C5 C6 1_555 1_555
C8 C12 1_555 1_555
C11 C12 1_555 1_555

#END
