
#######################################################################
#
#                 Cambridge Crystallographic Data Centre
#                                CCDC 
#
#######################################################################
#
# If this CIF has been generated from an entry in the Cambridge 
# Structural Database, then it will include bibliographic, chemical, 
# crystal, experimental, refinement or atomic coordinate data resulting 
# from the CCDC's data processing and validation procedures.
#
#######################################################################

data_ASEXEC
_chemical_formula_moiety         'C15 H16 O5'
_chemical_name_systematic        
'2-(3,5-Dimethoxyphenyl)-4-vinyl-2,5-dihydrofuran-3-carboxylic acid'
_symmetry_cell_setting           monoclinic
_symmetry_space_group_name_H-M   'P 21/c'
_symmetry_Int_Tables_number      14
_space_group_name_Hall           '-P 2ybc'
loop_
_symmetry_equiv_pos_site_id
_symmetry_equiv_pos_as_xyz
1 x,y,z
2 -x,1/2+y,1/2-z
3 -x,-y,-z
4 x,1/2-y,1/2+z
_cell_length_a                   6.789(3)
_cell_length_b                   13.005(6)
_cell_length_c                   15.640(7)
_cell_angle_alpha                90
_cell_angle_beta                 100.657(6)
_cell_angle_gamma                90
_cell_volume                     1357.05
_exptl_crystal_colour            colorless
_exptl_crystal_description       prism
_chemical_melting_point          '140.5-140.7 deg.C'
_cell_formula_units_Z            4
_exptl_crystal_recrystallization_method dichloromethane/ethanol
loop_
_atom_site_label
_atom_site_type_symbol
_atom_site_fract_x
_atom_site_fract_y
_atom_site_fract_z
O1 O 1.38684(19) 0.08053(10) 0.41190(8)
H1 H 1.508(5) 0.035(2) 0.4347(19)
O2 O 1.30558(18) 0.04242(10) 0.53918(7)
O3 O 0.66687(19) -0.07245(9) 0.17605(8)
O4 O 1.2088(2) 0.07128(13) 0.07864(9)
O5 O 0.8659(2) 0.25859(9) 0.35570(8)
C1 C 0.8134(3) 0.25276(13) 0.43874(12)
H2 H 0.6764 0.2290 0.4342
H3 H 0.8259 0.3196 0.4667
C2 C 0.9569(2) 0.17753(11) 0.48952(10)
C3 C 1.0910(2) 0.15113(11) 0.44138(9)
C4 C 1.0457(2) 0.20252(12) 0.35336(10)
H4 H 1.1537 0.2508 0.3480
C5 C 1.0126(2) 0.13015(11) 0.27590(10)
C6 C 0.8529(2) 0.06141(11) 0.26590(10)
H5 H 0.7701 0.0581 0.3070
C7 C 0.8196(3) -0.00207(12) 0.19344(10)
C8 C 0.9404(3) 0.00386(14) 0.13214(11)
H6 H 0.9151 -0.0381 0.0832
C9 C 1.0987(3) 0.07170(14) 0.14297(11)
C10 C 1.1356(2) 0.13508(13) 0.21563(10)
H7 H 1.2431 0.1806 0.2234
C11 C 0.9405(3) 0.14481(14) 0.57667(11)
H8 H 1.0282 0.0940 0.6025
C12 C 0.8127(3) 0.18104(18) 0.62140(15)
H9 H 0.7225 0.2319 0.5978
H10 H 0.8113 0.1561 0.6770
C13 C 1.2692(2) 0.08680(11) 0.46785(10)
C14 C 0.5412(3) -0.08572(15) 0.23783(13)
H11 H 0.6207 -0.1053 0.2927
H12 H 0.4445 -0.1385 0.2183
H13 H 0.4730 -0.0224 0.2445
C15 C 1.3718(3) 0.13907(19) 0.08348(15)
H14 H 1.3264 0.2084 0.0880
H15 H 1.4290 0.1323 0.0320
H16 H 1.4712 0.1228 0.1337
loop_
_geom_bond_atom_site_label_1
_geom_bond_atom_site_label_2
_geom_bond_site_symmetry_1
_geom_bond_site_symmetry_2
O1 H1 1_555 1_555
O2 C13 1_555 1_555
O3 C7 1_555 1_555
O4 C9 1_555 1_555
O5 C1 1_555 1_555
C1 H2 1_555 1_555
H3 C1 1_555 1_555
C2 C1 1_555 1_555
C3 C2 1_555 1_555
C4 O5 1_555 1_555
H4 C4 1_555 1_555
C5 C4 1_555 1_555
C6 C5 1_555 1_555
H5 C6 1_555 1_555
C7 C6 1_555 1_555
C8 C7 1_555 1_555
H6 C8 1_555 1_555
C9 C8 1_555 1_555
C10 C5 1_555 1_555
H7 C10 1_555 1_555
C11 C2 1_555 1_555
H8 C11 1_555 1_555
C12 C11 1_555 1_555
H9 C12 1_555 1_555
H10 C12 1_555 1_555
C13 O1 1_555 1_555
C14 O3 1_555 1_555
H11 C14 1_555 1_555
H12 C14 1_555 1_555
H13 C14 1_555 1_555
C15 O4 1_555 1_555
H14 C15 1_555 1_555
H15 C15 1_555 1_555
H16 C15 1_555 1_555
C3 C4 1_555 1_555
C3 C13 1_555 1_555
C9 C10 1_555 1_555

#END
