
#######################################################################
#
#                 Cambridge Crystallographic Data Centre
#                                CCDC 
#
#######################################################################
#
# If this CIF has been generated from an entry in the Cambridge 
# Structural Database, then it will include bibliographic, chemical, 
# crystal, experimental, refinement or atomic coordinate data resulting 
# from the CCDC's data processing and validation procedures.
#
#######################################################################

data_ASIJER
_chemical_name_common            'Tolan Perfluorotolan'
_chemical_formula_moiety         'C14 H10,C14 F10'
_chemical_name_systematic        
'1,2-Diphenylacetylene 1,2-bis(perfluorophenyl)acetylene'
_symmetry_cell_setting           triclinic
_symmetry_space_group_name_H-M   'P -1'
_symmetry_Int_Tables_number      2
_space_group_name_Hall           '-P 1'
loop_
_symmetry_equiv_pos_site_id
_symmetry_equiv_pos_as_xyz
1 x,y,z
2 -x,-y,-z
_cell_length_a                   6.0939(13)
_cell_length_b                   7.5286(15)
_cell_length_c                   12.491(3)
_cell_angle_alpha                85.554(6)
_cell_angle_beta                 86.479(6)
_cell_angle_gamma                84.095(6)
_cell_volume                     567.487
_exptl_crystal_colour            colorless
_exptl_crystal_description       plate
_cell_formula_units_Z            1
_exptl_crystal_recrystallization_method hexane
loop_
_atom_site_label
_atom_site_type_symbol
_atom_site_fract_x
_atom_site_fract_y
_atom_site_fract_z
C1 C 0.3279(5) 0.9286(3) 0.1353(2)
H1 H 0.2960 0.9177 0.0627
C2 C 0.5366(5) 0.8708(3) 0.1707(2)
H2 H 0.6472 0.8193 0.1224
C3 C 0.5840(4) 0.8875(3) 0.2755(2)
H3 H 0.7267 0.8461 0.2993
C4 C 0.4238(4) 0.9649(3) 0.3473(2)
C5 C 0.2134(4) 1.0201(3) 0.3110(2)
H4 H 0.1014 1.0704 0.3591
C6 C 0.1673(5) 1.0020(4) 0.2060(2)
H5 H 0.0239 1.0403 0.1821
C7 C 0.4765(4) 0.9885(3) 0.4557(2)
C7A C 0.5235(4) 1.0115(3) 0.5443(2)
C4A C 0.5762(4) 1.0351(3) 0.6527(2)
C3A C 0.4160(4) 1.1125(3) 0.7245(2)
C2A C 0.4634(5) 1.1292(3) 0.8293(2)
C1A C 0.6721(5) 1.0714(3) 0.8647(2)
H1A H 0.7040 1.0823 0.9373
C6A C 0.8327(5) 0.9980(4) 0.7940(2)
C5A C 0.7866(4) 0.9799(3) 0.6890(2)
H4A H 0.8986 0.9296 0.6409
H5A H 0.9761 0.9597 0.8179
H2A H 0.3528 1.1807 0.8776
H3A H 0.2733 1.1539 0.7007
C8 C 0.6660(4) 0.5801(3) 0.86430(19)
F1 F 0.7093(3) 0.6015(2) 0.96579(11)
C9 C 0.4622(4) 0.6444(3) 0.82617(19)
F2 F 0.3088(3) 0.72689(19) 0.89172(12)
C10 C 0.4189(4) 0.6235(3) 0.72202(19)
F3 F 0.2210(2) 0.68838(18) 0.68623(11)
C11 C 0.5742(4) 0.5375(3) 0.65203(19)
C12 C 0.7783(4) 0.4753(3) 0.69252(19)
F4 F 0.9336(2) 0.39162(19) 0.62882(12)
C13 C 0.8231(4) 0.4948(3) 0.7974(2)
F5 F 1.0196(2) 0.4297(2) 0.83496(12)
C14 C 0.5232(4) 0.5116(3) 0.54435(19)
C14A C 0.4768(4) 0.4884(3) 0.45565(19)
C11A C 0.4258(4) 0.4625(3) 0.34797(19)
C10A C 0.5811(4) 0.3765(3) 0.27798(19)
C9A C 0.5378(4) 0.3556(3) 0.17383(19)
C8A C 0.3340(4) 0.4199(3) 0.13570(19)
F1A F 0.2907(3) 0.3985(2) 0.03421(11)
C13A C 0.1769(4) 0.5052(3) 0.2026(2)
C12A C 0.2217(4) 0.5247(3) 0.30748(19)
F4A F 0.0664(2) 0.60838(19) 0.37118(12)
F5A F -0.0196(2) 0.5703(2) 0.16504(12)
F2A F 0.6912(3) 0.27311(19) 0.10828(12)
F3A F 0.7790(2) 0.31162(18) 0.31377(11)
loop_
_geom_bond_atom_site_label_1
_geom_bond_atom_site_label_2
_geom_bond_site_symmetry_1
_geom_bond_site_symmetry_2
C1 H1 1_555 1_555
C2 C1 1_555 1_555
H2 C2 1_555 1_555
C3 C2 1_555 1_555
H3 C3 1_555 1_555
C4 C3 1_555 1_555
C5 C4 1_555 1_555
H4 C5 1_555 1_555
C6 C1 1_555 1_555
H5 C6 1_555 1_555
C7 C4 1_555 1_555
C8 F1 1_555 1_555
C9 C8 1_555 1_555
F2 C9 1_555 1_555
C10 C9 1_555 1_555
F3 C10 1_555 1_555
C11 C10 1_555 1_555
C12 C11 1_555 1_555
F4 C12 1_555 1_555
C13 C8 1_555 1_555
F5 C13 1_555 1_555
C14 C11 1_555 1_555
C7A C7 1_555 1_555
C4A C7A 1_555 1_555
C3A C4A 1_555 1_555
C2A C3A 1_555 1_555
C1A C2A 1_555 1_555
H1A C1A 1_555 1_555
C6A C1A 1_555 1_555
C5A C4A 1_555 1_555
H4A C5A 1_555 1_555
H5A C6A 1_555 1_555
H2A C2A 1_555 1_555
H3A C3A 1_555 1_555
C14A C14 1_555 1_555
C11A C14A 1_555 1_555
C10A C11A 1_555 1_555
C9A C10A 1_555 1_555
C8A C9A 1_555 1_555
F1A C8A 1_555 1_555
C13A C8A 1_555 1_555
C12A C11A 1_555 1_555
F4A C12A 1_555 1_555
F5A C13A 1_555 1_555
F2A C9A 1_555 1_555
F3A C10A 1_555 1_555
C5 C6 1_555 1_555
C12 C13 1_555 1_555
C6A C5A 1_555 1_555
C13A C12A 1_555 1_555

#END
