
#######################################################################
#
#                 Cambridge Crystallographic Data Centre
#                                CCDC 
#
#######################################################################
#
# If this CIF has been generated from an entry in the Cambridge 
# Structural Database, then it will include bibliographic, chemical, 
# crystal, experimental, refinement or atomic coordinate data resulting 
# from the CCDC's data processing and validation procedures.
#
#######################################################################

data_ASIJOB
_chemical_formula_moiety         'C15 H8 F4 O1'
_chemical_name_systematic        
1-(4-Methoxytetrafluorophenyl)-2-phenylacetylene
_symmetry_cell_setting           monoclinic
_symmetry_space_group_name_H-M   'P 21/n'
_symmetry_Int_Tables_number      14
_space_group_name_Hall           '-P 2yn'
loop_
_symmetry_equiv_pos_site_id
_symmetry_equiv_pos_as_xyz
1 x,y,z
2 1/2+x,1/2-y,1/2+z
3 -x,-y,-z
4 1/2-x,1/2+y,1/2-z
_cell_length_a                   7.413(2)
_cell_length_b                   12.941(5)
_cell_length_c                   12.868(5)
_cell_angle_alpha                90
_cell_angle_beta                 100.85(2)
_cell_angle_gamma                90
_cell_volume                     1212.38
_exptl_crystal_colour            colorless
_exptl_crystal_description       block
_chemical_melting_point          '349.5-351.0 K'
_cell_formula_units_Z            4
loop_
_atom_site_label
_atom_site_type_symbol
_atom_site_fract_x
_atom_site_fract_y
_atom_site_fract_z
O1 O 0.0662(2) 0.57393(15) 0.87657(12)
F1 F -0.00662(16) 0.77575(10) 0.83697(9)
F2 F -0.01559(16) 0.85780(9) 0.64566(9)
F3 F 0.17839(15) 0.53996(9) 0.52492(9)
F4 F 0.17459(17) 0.45520(9) 0.71313(10)
C1 C 0.0836(2) 0.61343(16) 0.78114(14)
C2 C 0.0385(2) 0.71643(15) 0.76027(13)
C3 C 0.0353(2) 0.75871(14) 0.66185(14)
C4 C 0.0819(2) 0.70144(14) 0.57855(13)
C5 C 0.1316(2) 0.59909(14) 0.60099(14)
C6 C 0.1310(2) 0.55544(14) 0.69868(15)
C7 C 0.0781(2) 0.74427(15) 0.47580(14)
C8 C 0.0790(2) 0.77449(15) 0.38795(14)
C9 C 0.0830(2) 0.80823(15) 0.28208(14)
C10 C 0.1122(2) 0.91200(15) 0.26037(15)
H1 H 0.135(3) 0.9638(19) 0.3162(18)
C11 C 0.1214(3) 0.94312(15) 0.15838(16)
H2 H 0.143(3) 1.012(2) 0.1448(19)
C12 C 0.0991(2) 0.87130(16) 0.07670(14)
H3 H 0.104(3) 0.8942(18) 0.0078(19)
C13 C 0.0685(3) 0.76824(16) 0.09754(15)
H4 H 0.047(3) 0.7165(19) 0.0396(19)
C14 C 0.0610(2) 0.73601(15) 0.19958(15)
H5 H 0.030(3) 0.6660(19) 0.2131(19)
C15 C 0.2172(3) 0.5202(2) 0.93643(17)
H6 H 0.328(5) 0.560(3) 0.945(3)
H7 H 0.239(7) 0.458(4) 0.909(4)
H8 H 0.188(4) 0.507(2) 1.007(2)
loop_
_geom_bond_atom_site_label_1
_geom_bond_atom_site_label_2
_geom_bond_site_symmetry_1
_geom_bond_site_symmetry_2
O1 C1 1_555 1_555
F1 C2 1_555 1_555
F2 C3 1_555 1_555
F3 C5 1_555 1_555
F4 C6 1_555 1_555
C1 C2 1_555 1_555
C2 C3 1_555 1_555
C3 C4 1_555 1_555
C4 C5 1_555 1_555
C5 C6 1_555 1_555
C6 C1 1_555 1_555
C7 C4 1_555 1_555
C8 C7 1_555 1_555
C9 C8 1_555 1_555
C10 C9 1_555 1_555
H1 C10 1_555 1_555
C11 C10 1_555 1_555
H2 C11 1_555 1_555
C12 C11 1_555 1_555
H3 C12 1_555 1_555
C13 C12 1_555 1_555
H4 C13 1_555 1_555
C14 C9 1_555 1_555
H5 C14 1_555 1_555
C15 O1 1_555 1_555
H6 C15 1_555 1_555
H7 C15 1_555 1_555
H8 C15 1_555 1_555
C13 C14 1_555 1_555

#END
