
#######################################################################
#
#                 Cambridge Crystallographic Data Centre
#                                CCDC 
#
#######################################################################
#
# If this CIF has been generated from an entry in the Cambridge 
# Structural Database, then it will include bibliographic, chemical, 
# crystal, experimental, refinement or atomic coordinate data resulting 
# from the CCDC's data processing and validation procedures.
#
#######################################################################

data_ASIJUH
_chemical_formula_moiety         'C17 H12 F4 O1'
_chemical_name_systematic        
1-(4-n-Propoxytetrafluorophenyl)-2-phenylacetylene
_symmetry_cell_setting           triclinic
_symmetry_space_group_name_H-M   'P -1'
_symmetry_Int_Tables_number      2
_space_group_name_Hall           '-P 1'
loop_
_symmetry_equiv_pos_site_id
_symmetry_equiv_pos_as_xyz
1 x,y,z
2 -x,-y,-z
_cell_length_a                   7.752(2)
_cell_length_b                   8.652(2)
_cell_length_c                   11.119(3)
_cell_angle_alpha                98.57(1)
_cell_angle_beta                 108.81(1)
_cell_angle_gamma                92.06(1)
_cell_volume                     695.228
_exptl_crystal_colour            colorless
_exptl_crystal_description       block
_chemical_melting_point          '348.0-348.5 K'
_cell_formula_units_Z            2
loop_
_atom_site_label
_atom_site_type_symbol
_atom_site_fract_x
_atom_site_fract_y
_atom_site_fract_z
F1 F 0.29543(9) 0.50606(8) 0.41046(6)
F2 F 0.41871(10) 0.66869(8) 0.65192(7)
F3 F 0.05548(10) 0.31720(9) 0.77906(6)
F4 F -0.06828(10) 0.15590(8) 0.53723(7)
O1 O 0.04153(10) 0.24823(9) 0.34439(7)
C1 C 0.11436(13) 0.32404(12) 0.46851(9)
C2 C 0.24012(14) 0.45571(12) 0.50227(9)
C3 C 0.30316(14) 0.53926(12) 0.62644(10)
C4 C 0.24588(14) 0.49568(13) 0.72496(9)
C5 C 0.11941(14) 0.36406(13) 0.69029(9)
C6 C 0.05577(14) 0.28023(12) 0.56575(9)
C7 C 0.31146(15) 0.58412(14) 0.85269(10)
C8 C 0.36800(15) 0.65966(13) 0.95937(10)
C9 C 0.43455(14) 0.75132(13) 1.08695(9)
C10 C 0.57100(15) 0.87567(13) 1.11695(10)
C11 C 0.63410(15) 0.96555(13) 1.24005(11)
C12 C 0.56281(15) 0.93124(13) 1.33411(10)
C13 C 0.42830(16) 0.80730(13) 1.30547(10)
C14 C 0.36330(15) 0.71723(13) 1.18229(10)
C15 C 0.15988(15) 0.14077(13) 0.30194(10)
C16 C 0.09674(17) 0.11575(14) 0.15601(10)
C17 C 0.12927(18) 0.26303(17) 0.10302(11)
H1 H 0.622(2) 0.897(2) 1.0517(16)
H2 H 0.729(2) 1.051(2) 1.2599(16)
H3 H 0.608(2) 0.9953(19) 1.4194(15)
H4 H 0.379(2) 0.7811(19) 1.3710(15)
H5 H 0.270(2) 0.6323(19) 1.1617(15)
H6 H 0.148(2) 0.0439(19) 0.3340(14)
H7 H 0.288(2) 0.1857(17) 0.3396(13)
H8 H 0.166(2) 0.032(2) 0.1297(16)
H9 H -0.032(2) 0.077(2) 0.1236(15)
H10 H 0.086(3) 0.241(2) 0.0055(19)
H11 H 0.258(3) 0.298(2) 0.1321(16)
H12 H 0.065(2) 0.352(2) 0.1302(16)
loop_
_geom_bond_atom_site_label_1
_geom_bond_atom_site_label_2
_geom_bond_site_symmetry_1
_geom_bond_site_symmetry_2
F1 C2 1_555 1_555
F2 C3 1_555 1_555
F3 C5 1_555 1_555
F4 C6 1_555 1_555
O1 C1 1_555 1_555
C1 C2 1_555 1_555
C2 C3 1_555 1_555
C3 C4 1_555 1_555
C4 C5 1_555 1_555
C5 C6 1_555 1_555
C6 C1 1_555 1_555
C7 C4 1_555 1_555
C8 C7 1_555 1_555
C9 C8 1_555 1_555
C10 C9 1_555 1_555
C11 C10 1_555 1_555
C12 C11 1_555 1_555
C13 C12 1_555 1_555
C14 C9 1_555 1_555
C15 O1 1_555 1_555
C16 C15 1_555 1_555
C17 C16 1_555 1_555
H1 C10 1_555 1_555
H2 C11 1_555 1_555
H3 C12 1_555 1_555
H4 C13 1_555 1_555
H5 C14 1_555 1_555
H6 C15 1_555 1_555
H7 C15 1_555 1_555
H8 C16 1_555 1_555
H9 C16 1_555 1_555
H10 C17 1_555 1_555
H11 C17 1_555 1_555
H12 C17 1_555 1_555
C13 C14 1_555 1_555

#END
