
#######################################################################
#
#                 Cambridge Crystallographic Data Centre
#                                CCDC 
#
#######################################################################
#
# If this CIF has been generated from an entry in the Cambridge 
# Structural Database, then it will include bibliographic, chemical, 
# crystal, experimental, refinement or atomic coordinate data resulting 
# from the CCDC's data processing and validation procedures.
#
#######################################################################

data_ASIKOC
_chemical_formula_moiety         'C21 H12 F4 O1'
_chemical_name_systematic        
1-(4-Tolyloxytetrafluorophenyl)-2-phenylacetylene
_symmetry_cell_setting           monoclinic
_symmetry_space_group_name_H-M   'P 21/c'
_symmetry_Int_Tables_number      14
_space_group_name_Hall           '-P 2ybc'
loop_
_symmetry_equiv_pos_site_id
_symmetry_equiv_pos_as_xyz
1 x,y,z
2 x,1/2-y,1/2+z
3 -x,-y,-z
4 -x,1/2+y,1/2-z
_cell_length_a                   7.918(2)
_cell_length_b                   5.777(2)
_cell_length_c                   35.872(9)
_cell_angle_alpha                90
_cell_angle_beta                 94.32(1)
_cell_angle_gamma                90
_cell_volume                     1636.21
_exptl_crystal_colour            colorless
_exptl_crystal_description       block
_chemical_melting_point          '358.0-359.5 K'
_cell_formula_units_Z            4
loop_
_atom_site_label
_atom_site_type_symbol
_atom_site_fract_x
_atom_site_fract_y
_atom_site_fract_z
O1 O 0.47009(15) 0.2958(2) 0.17127(3)
C1 C 0.4158(2) 0.2185(3) 0.13614(4)
F1 F 0.57217(13) -0.12887(18) 0.14441(3)
C2 C 0.4739(2) 0.0109(3) 0.12208(4)
F2 F 0.49088(13) -0.25300(17) 0.07299(3)
C3 C 0.4316(2) -0.0510(3) 0.08549(4)
C4 C 0.3302(2) 0.0877(3) 0.06124(4)
F3 F 0.17455(13) 0.43657(18) 0.05393(3)
C5 C 0.2726(2) 0.2953(3) 0.07581(4)
F4 F 0.25455(13) 0.55770(17) 0.12573(3)
C6 C 0.3137(2) 0.3573(3) 0.11253(4)
C7 C 0.2837(2) 0.0210(3) 0.02345(4)
C8 C 0.2414(2) -0.0320(3) -0.00814(4)
C9 C 0.1911(2) -0.0875(3) -0.04650(4)
C10 C 0.2393(2) -0.2968(3) -0.06214(5)
H1 H 0.303(3) -0.409(4) -0.0475(5)
C11 C 0.1927(2) -0.3445(3) -0.09952(5)
H2 H 0.225(2) -0.495(4) -0.1105(5)
C12 C 0.0978(2) -0.1854(3) -0.12124(5)
H3 H 0.066(2) -0.218(4) -0.1482(6)
C13 C 0.0490(2) 0.0228(3) -0.10567(5)
H4 H -0.014(3) 0.132(4) -0.1209(5)
C14 C 0.0952(2) 0.0724(3) -0.06848(5)
H5 H 0.063(2) 0.212(4) -0.0575(5)
C15 C 0.36774(19) 0.2501(3) 0.20081(4)
C16 C 0.3736(2) 0.4132(3) 0.22903(4)
H6 H 0.435(2) 0.550(3) 0.2261(5)
C17 C 0.2896(2) 0.3695(3) 0.26106(4)
H7 H 0.297(2) 0.480(4) 0.2816(5)
C18 C 0.20071(19) 0.1639(3) 0.26503(4)
C19 C 0.1928(2) 0.0067(3) 0.23542(5)
H8 H 0.131(2) -0.137(4) 0.2371(5)
C20 C 0.2759(2) 0.0469(3) 0.20318(4)
H9 H 0.274(2) -0.062(3) 0.1841(5)
C21 C 0.1232(2) 0.1053(4) 0.30104(5)
H10 H 0.095(3) 0.249(4) 0.3148(7)
H11 H 0.019(3) 0.012(4) 0.2959(6)
H12 H 0.201(3) 0.019(4) 0.3171(6)
loop_
_geom_bond_atom_site_label_1
_geom_bond_atom_site_label_2
_geom_bond_site_symmetry_1
_geom_bond_site_symmetry_2
O1 C1 1_555 1_555
C1 C2 1_555 1_555
F1 C2 1_555 1_555
C2 C3 1_555 1_555
F2 C3 1_555 1_555
C3 C4 1_555 1_555
C4 C5 1_555 1_555
F3 C5 1_555 1_555
C5 C6 1_555 1_555
F4 C6 1_555 1_555
C6 C1 1_555 1_555
C7 C4 1_555 1_555
C8 C7 1_555 1_555
C9 C8 1_555 1_555
C10 C9 1_555 1_555
H1 C10 1_555 1_555
C11 C10 1_555 1_555
H2 C11 1_555 1_555
C12 C11 1_555 1_555
H3 C12 1_555 1_555
C13 C12 1_555 1_555
H4 C13 1_555 1_555
C14 C9 1_555 1_555
H5 C14 1_555 1_555
C15 O1 1_555 1_555
C16 C15 1_555 1_555
H6 C16 1_555 1_555
C17 C16 1_555 1_555
H7 C17 1_555 1_555
C18 C17 1_555 1_555
C19 C18 1_555 1_555
H8 C19 1_555 1_555
C20 C15 1_555 1_555
H9 C20 1_555 1_555
C21 C18 1_555 1_555
H10 C21 1_555 1_555
H11 C21 1_555 1_555
H12 C21 1_555 1_555
C13 C14 1_555 1_555
C19 C20 1_555 1_555

#END
