
#######################################################################
#
#                 Cambridge Crystallographic Data Centre
#                                CCDC 
#
#######################################################################
#
# If this CIF has been generated from an entry in the Cambridge 
# Structural Database, then it will include bibliographic, chemical, 
# crystal, experimental, refinement or atomic coordinate data resulting 
# from the CCDC's data processing and validation procedures.
#
#######################################################################

data_ASIKAO
_chemical_formula_moiety         'C17 H12 F4 O1'
_chemical_name_systematic        
1-(4-Isopropoxytetrafluorophenyl)-2-phenylacetylene
_symmetry_cell_setting           monoclinic
_symmetry_space_group_name_H-M   'P 21/c'
_symmetry_Int_Tables_number      14
_space_group_name_Hall           '-P 2ybc'
loop_
_symmetry_equiv_pos_site_id
_symmetry_equiv_pos_as_xyz
1 x,y,z
2 x,1/2-y,1/2+z
3 -x,-y,-z
4 -x,1/2+y,1/2-z
_cell_length_a                   6.1278(15)
_cell_length_b                   15.444(4)
_cell_length_c                   15.382(3)
_cell_angle_alpha                90
_cell_angle_beta                 97.35(2)
_cell_angle_gamma                90
_cell_volume                     1443.76
_exptl_crystal_colour            colorless
_exptl_crystal_description       prism
_chemical_melting_point          '337.2-337.7 K'
_cell_formula_units_Z            4
loop_
_atom_site_label
_atom_site_type_symbol
_atom_site_fract_x
_atom_site_fract_y
_atom_site_fract_z
O1 O 0.7552(2) 0.88336(7) 0.05455(7)
F1 F 1.05649(17) 0.77312(6) 0.14480(7)
F2 F 0.95817(18) 0.60649(6) 0.17042(7)
F3 F 0.24391(17) 0.65202(7) 0.02159(7)
F4 F 0.34306(17) 0.81796(6) -0.00402(7)
C1 C 0.7020(3) 0.79977(10) 0.07013(10)
C2 C 0.8553(3) 0.74347(11) 0.11393(10)
C3 C 0.8044(3) 0.65791(10) 0.12690(10)
C4 C 0.5968(3) 0.62407(10) 0.09739(10)
C5 C 0.4454(3) 0.68087(10) 0.05253(10)
C6 C 0.4958(3) 0.76658(10) 0.03935(10)
C7 C 0.5395(3) 0.53639(11) 0.11374(11)
C8 C 0.4871(3) 0.46392(11) 0.12828(10)
C9 C 0.4257(3) 0.37635(10) 0.14483(10)
C10 C 0.5815(3) 0.31882(11) 0.18636(11)
H1 H 0.724(4) 0.3388(13) 0.2046(14)
C11 C 0.5237(3) 0.23341(11) 0.20017(12)
H2 H 0.637(4) 0.1939(15) 0.2300(16)
C12 C 0.3115(3) 0.20517(11) 0.17232(11)
H3 H 0.277(4) 0.1455(14) 0.1824(14)
C13 C 0.1549(3) 0.26194(12) 0.13187(12)
H4 H 0.000(4) 0.2425(15) 0.1111(15)
C14 C 0.2108(3) 0.34755(11) 0.11838(11)
H5 H 0.105(4) 0.3877(13) 0.0924(14)
C15 C 0.7598(3) 0.94103(10) 0.13113(11)
H6 H 0.819(4) 0.9082(14) 0.1843(15)
C16 C 0.5292(4) 0.97148(13) 0.13802(13)
H7 H 0.426(5) 0.9219(18) 0.1465(18)
H8 H 0.535(4) 1.0084(15) 0.1892(16)
H9 H 0.469(4) 1.0069(15) 0.0849(16)
C17 C 0.9131(4) 1.01404(14) 0.11539(17)
H10 H 0.927(5) 1.0538(18) 0.1654(19)
H11 H 0.864(5) 1.0440(17) 0.0572(19)
H12 H 1.062(5) 0.9898(18) 0.1192(18)
loop_
_geom_bond_atom_site_label_1
_geom_bond_atom_site_label_2
_geom_bond_site_symmetry_1
_geom_bond_site_symmetry_2
O1 C1 1_555 1_555
F1 C2 1_555 1_555
F2 C3 1_555 1_555
F3 C5 1_555 1_555
F4 C6 1_555 1_555
C1 C2 1_555 1_555
C2 C3 1_555 1_555
C3 C4 1_555 1_555
C4 C5 1_555 1_555
C5 C6 1_555 1_555
C6 C1 1_555 1_555
C7 C4 1_555 1_555
C8 C7 1_555 1_555
C9 C8 1_555 1_555
C10 C9 1_555 1_555
H1 C10 1_555 1_555
C11 C10 1_555 1_555
H2 C11 1_555 1_555
C12 C11 1_555 1_555
H3 C12 1_555 1_555
C13 C12 1_555 1_555
H4 C13 1_555 1_555
C14 C9 1_555 1_555
H5 C14 1_555 1_555
C15 O1 1_555 1_555
H6 C15 1_555 1_555
C16 C15 1_555 1_555
H7 C16 1_555 1_555
H8 C16 1_555 1_555
H9 C16 1_555 1_555
C17 C15 1_555 1_555
H10 C17 1_555 1_555
H11 C17 1_555 1_555
H12 C17 1_555 1_555
C13 C14 1_555 1_555

#END
