
#######################################################################
#
#                 Cambridge Crystallographic Data Centre
#                                CCDC 
#
#######################################################################
#
# If this CIF has been generated from an entry in the Cambridge 
# Structural Database, then it will include bibliographic, chemical, 
# crystal, experimental, refinement or atomic coordinate data resulting 
# from the CCDC's data processing and validation procedures.
#
#######################################################################

data_ASILOF
_chemical_formula_moiety         
'C35 H23 N3 O3,0.5(C6 H14),3.5(C3 H6 O2),0.5(H2 O1)'
_chemical_name_systematic        
'5-(12,17-bis(6-oxo-1,6-dihydropyridin-3-yl)pentacyclo[6.6.6.0^2,7^.0^9,14^.0^15,20^]icosa-2,4,6,9,11,13,15,17,19-nonaen-4-yl)pyridin-2(1H)-one n-hexane propionic acid solvate hemihydrate'
_symmetry_cell_setting           triclinic
_symmetry_space_group_name_H-M   'P -1'
_symmetry_Int_Tables_number      2
_space_group_name_Hall           '-P 1'
loop_
_symmetry_equiv_pos_site_id
_symmetry_equiv_pos_as_xyz
1 x,y,z
2 -x,-y,-z
_cell_length_a                   11.695(4)
_cell_length_b                   15.732(5)
_cell_length_c                   25.759(8)
_cell_angle_alpha                106.989(8)
_cell_angle_beta                 92.567(9)
_cell_angle_gamma                90.995(9)
_cell_volume                     4525.62
_exptl_crystal_colour            colorless
_exptl_crystal_description       polyhedron
_cell_formula_units_Z            4
loop_
_atom_site_label
_atom_site_type_symbol
_atom_site_fract_x
_atom_site_fract_y
_atom_site_fract_z
C1 C 0.4448(7) 0.2508(5) -0.2394(3)
H1 H 0.3827 0.2121 -0.2320
C2 C 0.6039(7) 0.3508(5) -0.2585(3)
H2 H 0.6661 0.3896 -0.2657
C3 C 0.4330(7) 0.2600(6) -0.2963(3)
C4 C 0.5189(7) 0.3154(6) -0.3068(3)
C5 C 0.5191(8) 0.3304(7) -0.3564(3)
H3 H 0.5774 0.3675 -0.3637
C6 C 0.4339(8) 0.2915(7) -0.3965(4)
H4 H 0.4348 0.3021 -0.4309
C7 C 0.3482(7) 0.2375(6) -0.3865(3)
C8 C 0.3481(8) 0.2225(6) -0.3358(3)
H5 H 0.2891 0.1862 -0.3283
C9 C 0.5627(7) 0.2149(6) -0.2348(4)
C10 C 0.6490(7) 0.2694(5) -0.2452(4)
C11 C 0.7617(7) 0.2449(6) -0.2437(4)
H6 H 0.8213 0.2805 -0.2514
C12 C 0.7860(8) 0.1671(6) -0.2308(4)
H7 H 0.8636 0.1508 -0.2290
C13 C 0.7013(8) 0.1124(6) -0.2203(4)
C14 C 0.5871(8) 0.1384(6) -0.2224(4)
H8 H 0.5271 0.1026 -0.2152
C15 C 0.4462(7) 0.3454(5) -0.2011(3)
C16 C 0.5333(8) 0.3985(6) -0.2116(4)
C17 C 0.5437(8) 0.4859(6) -0.1800(4)
H9 H 0.6041 0.5231 -0.1853
C18 C 0.4655(7) 0.5199(6) -0.1403(4)
H10 H 0.4749 0.5798 -0.1182
C19 C 0.3744(7) 0.4682(6) -0.1323(3)
C20 C 0.3689(8) 0.3790(6) -0.1625(3)
H11 H 0.3107 0.3408 -0.1563
C21 C 0.2571(8) 0.1959(6) -0.4287(4)
C22 C 0.2120(8) 0.1136(7) -0.4327(4)
H12 H 0.2436 0.0802 -0.4106
N1 N 0.1219(7) 0.0794(6) -0.4684(3)
H13 H 0.0950 0.0260 -0.4701
C23 C 0.0710(9) 0.1219(7) -0.5011(4)
O1 O -0.0200(6) 0.0857(5) -0.5293(3)
C24 C 0.1179(8) 0.2046(7) -0.4996(4)
H14 H 0.0869 0.2360 -0.5231
C25 C 0.2090(8) 0.2404(7) -0.4641(4)
H15 H 0.2405 0.2968 -0.4634
C26 C 0.7303(8) 0.0278(6) -0.2106(4)
C27 C 0.6573(8) -0.0444(6) -0.2265(4)
H16 H 0.5837 -0.0383 -0.2419
N2 N 0.6855(7) -0.1249(6) -0.2213(4)
H17 H 0.6343 -0.1689 -0.2319
C28 C 0.7889(9) -0.1407(7) -0.2005(5)
O2 O 0.8121(7) -0.2195(5) -0.2010(3)
C29 C 0.8641(10) -0.0669(7) -0.1807(5)
H18 H 0.9348 -0.0732 -0.1628
C30 C 0.8376(9) 0.0146(7) -0.1869(5)
H19 H 0.8921 0.0627 -0.1751
C31 C 0.2841(8) 0.5078(6) -0.0954(4)
C32 C 0.2157(8) 0.4579(7) -0.0740(4)
H20 H 0.2293 0.3964 -0.0808
N3 N 0.1272(7) 0.4943(5) -0.0427(3)
H21 H 0.0854 0.4596 -0.0292
C33 C 0.1012(9) 0.5801(7) -0.0317(5)
O3 O 0.0158(7) 0.6070(5) -0.0025(3)
C34 C 0.1715(9) 0.6337(7) -0.0527(5)
H22 H 0.1575 0.6953 -0.0451
C35 C 0.2603(9) 0.5980(7) -0.0842(4)
H23 H 0.3064 0.6351 -0.0985
C36 C 0.0511(7) 1.4792(6) 0.2383(3)
H24 H 0.1118 1.4338 0.2318
C37 C -0.1061(7) 1.5961(6) 0.2546(3)
H25 H -0.1665 1.6418 0.2612
C38 C -0.0699(7) 1.4384(6) 0.2305(4)
C39 C -0.1551(7) 1.5021(6) 0.2403(4)
C40 C -0.2682(7) 1.4755(6) 0.2368(4)
H26 H -0.3266 1.5180 0.2437
C41 C -0.2958(8) 1.3856(6) 0.2231(4)
H27 H -0.3740 1.3673 0.2213
C42 C -0.2141(8) 1.3214(6) 0.2119(4)
C43 C -0.0981(8) 1.3493(6) 0.2170(4)
H28 H -0.0397 1.3068 0.2111
C44 C 0.0547(7) 1.5371(6) 0.2004(3)
C45 C -0.0312(7) 1.5997(6) 0.2090(3)
C46 C -0.0335(8) 1.6599(6) 0.1787(4)
H29 H -0.0924 1.7019 0.1833
C47 C 0.0495(7) 1.6589(6) 0.1418(4)
H30 H 0.0472 1.7008 0.1217
C48 C 0.1358(7) 1.5979(6) 0.1338(4)
C49 C 0.1360(7) 1.5361(6) 0.1632(3)
H31 H 0.1932 1.4927 0.1575
C50 C 0.0600(7) 1.5438(6) 0.2950(3)
C51 C -0.0240(7) 1.6070(6) 0.3034(3)
C52 C -0.0251(8) 1.6706(7) 0.3528(4)
H32 H -0.0835 1.7132 0.3595
C53 C 0.0593(8) 1.6731(7) 0.3935(4)
H33 H 0.0587 1.7184 0.4272
C54 C 0.1437(8) 1.6108(7) 0.3856(4)
C55 C 0.1431(8) 1.5458(6) 0.3353(3)
H34 H 0.2006 1.5025 0.3287
C56 C -0.2496(9) 1.2268(6) 0.1985(5)
C57 C -0.3496(10) 1.1962(8) 0.1691(5)
H35 H -0.3952 1.2363 0.1566
N4 N -0.3853(10) 1.1108(7) 0.1575(5)
H36 H -0.4492 1.0932 0.1375
C58 C -0.3260(12) 1.0507(8) 0.1756(6)
O4 O -0.3703(9) 0.9715(6) 0.1628(5)
C59 C -0.2211(11) 1.0799(7) 0.2056(6)
H37 H -0.1767 1.0399 0.2188
C60 C -0.1843(10) 1.1666(7) 0.2153(5)
H38 H -0.1123 1.1857 0.2340
C61 C 0.2312(8) 1.6044(6) 0.0990(4)
C62 C 0.2854(8) 1.5317(7) 0.0701(4)
H39 H 0.2578 1.4745 0.0700
N5 N 0.3775(7) 1.5378(6) 0.0413(3)
H40 H 0.4084 1.4883 0.0227
C63 C 0.4244(9) 1.6155(7) 0.0394(4)
O5 O 0.5114(7) 1.6144(5) 0.0114(3)
C64 C 0.3718(9) 1.6925(7) 0.0693(4)
H41 H 0.4019 1.7493 0.0699
C65 C 0.2769(9) 1.6866(7) 0.0979(4)
H42 H 0.2414 1.7395 0.1172
C66 C 0.2358(8) 1.6141(7) 0.4275(4)
C67 C 0.2843(8) 1.5384(7) 0.4324(4)
H43 H 0.2540 1.4824 0.4103
N6 N 0.3744(7) 1.5406(6) 0.4677(3)
H44 H 0.4008 1.4899 0.4702
C68 C 0.4255(9) 1.6171(8) 0.4994(5)
O6 O 0.5156(6) 1.6135(6) 0.5289(3)
C69 C 0.3733(9) 1.6965(8) 0.4984(4)
H45 H 0.4014 1.7519 0.5222
C70 C 0.2810(9) 1.6931(7) 0.4628(4)
H46 H 0.2467 1.7472 0.4623
C71 C 0.7209(11) 1.7428(10) 0.6120(5)
O7 O 0.7364(10) 1.6693(8) 0.6138(6)
O8 O 0.6318(8) 1.7600(7) 0.5842(4)
H47 H 0.5953 1.7124 0.5682
C72 C 0.7940(12) 1.8228(9) 0.6425(6)
H48 H 0.8135 1.8571 0.6173
H49 H 0.7494 1.8614 0.6715
C73 C 0.9017(12) 1.7998(11) 0.6675(7)
H50 H 0.9455 1.8545 0.6867
H51 H 0.8832 1.7671 0.6932
H52 H 0.9474 1.7628 0.6389
C74 C -0.2277(10) 0.1298(9) -0.6125(4)
O9 O -0.2444(8) 0.0540(7) -0.6150(5)
O10 O -0.1407(7) 0.1749(6) -0.5830(4)
H53 H -0.1043 0.1422 -0.5681
C75 C -0.2904(11) 0.1791(9) -0.6452(5)
H54 H -0.2389 0.1902 -0.6722
H55 H -0.3109 0.2376 -0.6209
C76 C -0.3966(11) 0.1315(11) -0.6743(6)
H56 H -0.4339 0.1674 -0.6950
H57 H -0.3769 0.0741 -0.6991
H58 H -0.4489 0.1216 -0.6478
C77 C 0.5954(9) -0.3501(7) -0.2755(4)
O11 O 0.5523(7) -0.2779(5) -0.2653(4)
O12 O 0.6948(7) -0.3613(5) -0.2528(3)
H59 H 0.7213 -0.3121 -0.2328
C78 C 0.5407(9) -0.4346(7) -0.3119(5)
H60 H 0.5993 -0.4685 -0.3353
H61 H 0.5136 -0.4711 -0.2891
C79 C 0.4434(10) -0.4210(8) -0.3468(5)
H62 H 0.4120 -0.4788 -0.3694
H63 H 0.3839 -0.3889 -0.3240
H64 H 0.4697 -0.3863 -0.3702
C80 C -0.9112(12) 1.1920(10) -0.0626(6)
O13 O -0.8602(11) 1.2430(8) -0.0797(5)
O14 O -0.9914(12) 1.2189(8) -0.0281(6)
H65 H -1.0014 1.2733 -0.0234
C81 C -0.8803(18) 1.0969(10) -0.0772(8)
H66 H -0.8868 1.0713 -0.1172
H67 H -0.7996 1.0929 -0.0650
C82 C -0.954(2) 1.0447(14) -0.0524(10)
H68 H -0.9312 0.9827 -0.0630
H69 H -0.9470 1.0691 -0.0128
H70 H -1.0341 1.0476 -0.0650
C83 C -0.0811(16) 0.9146(13) 0.2772(8)
O15 O -0.045(2) 0.9732(17) 0.2612(11)
O16 O -0.1708(14) 0.8647(11) 0.2558(7)
H71 H -0.1990 0.8810 0.2298
C84 C -0.021(2) 0.8889(18) 0.3230(10)
H72 H -0.0766 0.8873 0.3508
H73 H 0.0100 0.8290 0.3091
C85 C 0.072(3) 0.955(2) 0.3476(14)
H74 H 0.1116 0.9382 0.3775
H75 H 0.1271 0.9556 0.3200
H76 H 0.0407 1.0138 0.3615
C89 C 0.6162(13) 1.7390(8) -0.0608(6)
O19 O 0.5192(10) 1.7430(7) -0.0696(5)
O20 O 0.6519(10) 1.7175(10) -0.0168(6)
H83 H 0.5968 1.6955 -0.0047
C90 C 0.7128(16) 1.7787(15) -0.0844(10)
H84 H 0.6849 1.7882 -0.1191
H85 H 0.7369 1.8373 -0.0590
C91 C 0.8123(18) 1.7208(16) -0.0942(11)
H86 H 0.8728 1.7486 -0.1094
H87 H 0.8411 1.7121 -0.0599
H88 H 0.7892 1.6630 -0.1200
C95 C -0.5904(13) 0.9546(12) 0.0630(7)
O23 O -0.5832(11) 1.0356(9) 0.0803(7)
O24 O -0.5344(13) 0.9021(9) 0.0852(6)
H95 H -0.4834 0.9317 0.1075
C96 C -0.679(2) 0.8975(15) 0.0239(10)
H96 H -0.6483 0.8377 0.0086
H97 H -0.7471 0.8909 0.0441
C97 C -0.714(2) 0.931(2) -0.0196(11)
H98 H -0.7721 0.8900 -0.0433
H99 H -0.7470 0.9895 -0.0051
H100 H -0.6481 0.9361 -0.0406
C98 C 0.5997(18) 0.0582(16) -0.3780(4)
H101 H 0.6729 0.0827 -0.3591
H102 H 0.5394 0.1006 -0.3650
H103 H 0.5808 0.0021 -0.3706
C99 C 0.6088(14) 0.042(2) -0.4384(5)
H104 H 0.6709 -0.0001 -0.4511
H105 H 0.6294 0.0985 -0.4455
C100 C 0.4984(14) 0.004(2) -0.4701(3)
H106 H 0.4349 0.0424 -0.4545
H107 H 0.4823 -0.0557 -0.4660
C98A C 0.4003(18) -0.0582(16) -0.6220(4)
H101A H 0.3271 -0.0827 -0.6409
H102A H 0.4606 -0.1006 -0.6350
H103A H 0.4192 -0.0021 -0.6294
C99A C 0.3912(14) -0.042(2) -0.5616(5)
H104A H 0.3291 0.0001 -0.5489
H105A H 0.3706 -0.0985 -0.5545
C100A C 0.5016(14) -0.004(2) -0.5299(3)
H106A H 0.5651 -0.0424 -0.5455
H107A H 0.5177 0.0557 -0.5340
C101 C -0.122(2) 1.4358(16) 0.3824(5)
H108 H -0.1403 1.3779 0.3558
H109 H -0.1927 1.4693 0.3900
H110 H -0.0670 1.4690 0.3678
C102 C -0.072(3) 1.4223(11) 0.4342(8)
H111 H -0.1280 1.3873 0.4481
H112 H -0.0025 1.3870 0.4258
C103 C -0.041(2) 1.5076(9) 0.4781(6)
H113 H -0.1121 1.5337 0.4950
H114 H -0.0060 1.5506 0.4617
C101A C 0.122(2) 1.5642(16) 0.6176(5)
H108A H 0.1403 1.6221 0.6442
H109A H 0.1927 1.5307 0.6100
H110A H 0.0670 1.5310 0.6322
C102A C 0.072(3) 1.5777(11) 0.5658(8)
H111A H 0.1280 1.6127 0.5519
H112A H 0.0025 1.6130 0.5742
C103A C 0.041(2) 1.4924(9) 0.5219(6)
H113A H 0.1121 1.4663 0.5050
H114A H 0.0060 1.4494 0.5383
O25 O -0.7536(10) 2.1598(7) -0.1735(5)
C86? C -0.052(2) 0.8997(18) 0.2907(11)
O17? O -0.098(2) 0.8336(16) 0.2940(11)
O18? O -0.072(3) 0.938(3) 0.2533(15)
H77? H -0.1143 0.9049 0.2281
C87? C 0.020(3) 0.9573(19) 0.3383(15)
H78? H 0.0777 0.9922 0.3253
H79? H -0.0287 0.9995 0.3634
C88? C 0.079(3) 0.901(2) 0.3676(13)
H80? H 0.1263 0.9390 0.3984
H81? H 0.0224 0.8672 0.3809
H82? H 0.1285 0.8600 0.3428
C92? C 0.801(2) 1.7526(19) -0.0833(10)
O21? O 0.786(2) 1.8290(17) -0.0618(13)
O22? O 0.723(2) 1.6875(18) -0.0942(13)
H89? H 0.6593 1.7083 -0.0838
C93? C 0.916(2) 1.7169(19) -0.1011(15)
H90? H 0.9398 1.6746 -0.0810
H91? H 0.9104 1.6842 -0.1403
C94? C 1.004(3) 1.789(2) -0.0910(17)
H92? H 1.0777 1.7644 -0.1029
H93? H 0.9812 1.8308 -0.1113
H94? H 1.0106 1.8211 -0.0521
loop_
_geom_bond_atom_site_label_1
_geom_bond_atom_site_label_2
_geom_bond_site_symmetry_1
_geom_bond_site_symmetry_2
C1 H1 1_555 1_555
C2 H2 1_555 1_555
C3 C1 1_555 1_555
C4 C2 1_555 1_555
C5 C4 1_555 1_555
H3 C5 1_555 1_555
C6 C5 1_555 1_555
H4 C6 1_555 1_555
C7 C6 1_555 1_555
C8 C3 1_555 1_555
H5 C8 1_555 1_555
C9 C1 1_555 1_555
C10 C2 1_555 1_555
C11 C10 1_555 1_555
H6 C11 1_555 1_555
C12 C11 1_555 1_555
H7 C12 1_555 1_555
C13 C12 1_555 1_555
C14 C9 1_555 1_555
H8 C14 1_555 1_555
C15 C1 1_555 1_555
C16 C2 1_555 1_555
C17 C16 1_555 1_555
H9 C17 1_555 1_555
C18 C17 1_555 1_555
H10 C18 1_555 1_555
C19 C18 1_555 1_555
C20 C15 1_555 1_555
H11 C20 1_555 1_555
C21 C7 1_555 1_555
C22 C21 1_555 1_555
H12 C22 1_555 1_555
N1 C22 1_555 1_555
H13 N1 1_555 1_555
C23 N1 1_555 1_555
O1 C23 1_555 1_555
C24 C23 1_555 1_555
H14 C24 1_555 1_555
C25 C21 1_555 1_555
H15 C25 1_555 1_555
C26 C13 1_555 1_555
C27 C26 1_555 1_555
H16 C27 1_555 1_555
N2 C27 1_555 1_555
H17 N2 1_555 1_555
C28 N2 1_555 1_555
O2 C28 1_555 1_555
C29 C28 1_555 1_555
H18 C29 1_555 1_555
C30 C26 1_555 1_555
H19 C30 1_555 1_555
C31 C19 1_555 1_555
C32 C31 1_555 1_555
H20 C32 1_555 1_555
N3 C32 1_555 1_555
H21 N3 1_555 1_555
C33 N3 1_555 1_555
O3 C33 1_555 1_555
C34 C33 1_555 1_555
H22 C34 1_555 1_555
C35 C31 1_555 1_555
H23 C35 1_555 1_555
C36 H24 1_555 1_555
C37 H25 1_555 1_555
C38 C36 1_555 1_555
C39 C37 1_555 1_555
C40 C39 1_555 1_555
H26 C40 1_555 1_555
C41 C40 1_555 1_555
H27 C41 1_555 1_555
C42 C41 1_555 1_555
C43 C38 1_555 1_555
H28 C43 1_555 1_555
C44 C36 1_555 1_555
C45 C37 1_555 1_555
C46 C45 1_555 1_555
H29 C46 1_555 1_555
C47 C46 1_555 1_555
H30 C47 1_555 1_555
C48 C47 1_555 1_555
C49 C44 1_555 1_555
H31 C49 1_555 1_555
C50 C36 1_555 1_555
C51 C37 1_555 1_555
C52 C51 1_555 1_555
H32 C52 1_555 1_555
C53 C52 1_555 1_555
H33 C53 1_555 1_555
C54 C53 1_555 1_555
C55 C50 1_555 1_555
H34 C55 1_555 1_555
C56 C42 1_555 1_555
C57 C56 1_555 1_555
H35 C57 1_555 1_555
N4 C57 1_555 1_555
H36 N4 1_555 1_555
C58 N4 1_555 1_555
O4 C58 1_555 1_555
C59 C58 1_555 1_555
H37 C59 1_555 1_555
C60 C56 1_555 1_555
H38 C60 1_555 1_555
C61 C48 1_555 1_555
C62 C61 1_555 1_555
H39 C62 1_555 1_555
N5 C62 1_555 1_555
H40 N5 1_555 1_555
C63 N5 1_555 1_555
O5 C63 1_555 1_555
C64 C63 1_555 1_555
H41 C64 1_555 1_555
C65 C61 1_555 1_555
H42 C65 1_555 1_555
C66 C54 1_555 1_555
C67 C66 1_555 1_555
H43 C67 1_555 1_555
N6 C67 1_555 1_555
H44 N6 1_555 1_555
C68 N6 1_555 1_555
O6 C68 1_555 1_555
C69 C68 1_555 1_555
H45 C69 1_555 1_555
C70 C66 1_555 1_555
H46 C70 1_555 1_555
C71 O7 1_555 1_555
O8 C71 1_555 1_555
H47 O8 1_555 1_555
C72 C71 1_555 1_555
H48 C72 1_555 1_555
H49 C72 1_555 1_555
C73 C72 1_555 1_555
H50 C73 1_555 1_555
H51 C73 1_555 1_555
H52 C73 1_555 1_555
C74 O9 1_555 1_555
O10 C74 1_555 1_555
H53 O10 1_555 1_555
C75 C74 1_555 1_555
H54 C75 1_555 1_555
H55 C75 1_555 1_555
C76 C75 1_555 1_555
H56 C76 1_555 1_555
H57 C76 1_555 1_555
H58 C76 1_555 1_555
C77 O11 1_555 1_555
O12 C77 1_555 1_555
H59 O12 1_555 1_555
C78 C77 1_555 1_555
H60 C78 1_555 1_555
H61 C78 1_555 1_555
C79 C78 1_555 1_555
H62 C79 1_555 1_555
H63 C79 1_555 1_555
H64 C79 1_555 1_555
C80 O13 1_555 1_555
O14 C80 1_555 1_555
H65 O14 1_555 1_555
C81 C80 1_555 1_555
H66 C81 1_555 1_555
H67 C81 1_555 1_555
C82 C81 1_555 1_555
H68 C82 1_555 1_555
H69 C82 1_555 1_555
H70 C82 1_555 1_555
C83 O15 1_555 1_555
O16 C83 1_555 1_555
H71 O16 1_555 1_555
C84 C83 1_555 1_555
H72 C84 1_555 1_555
H73 C84 1_555 1_555
C85 C84 1_555 1_555
H74 C85 1_555 1_555
H75 C85 1_555 1_555
H76 C85 1_555 1_555
C89 O19 1_555 1_555
O20 C89 1_555 1_555
H83 O20 1_555 1_555
C90 C89 1_555 1_555
H84 C90 1_555 1_555
H85 C90 1_555 1_555
C91 C90 1_555 1_555
H86 C91 1_555 1_555
H87 C91 1_555 1_555
H88 C91 1_555 1_555
C95 O23 1_555 1_555
O24 C95 1_555 1_555
H95 O24 1_555 1_555
C96 C95 1_555 1_555
H96 C96 1_555 1_555
H97 C96 1_555 1_555
C97 C96 1_555 1_555
H98 C97 1_555 1_555
H99 C97 1_555 1_555
H100 C97 1_555 1_555
C98 H101 1_555 1_555
H102 C98 1_555 1_555
H103 C98 1_555 1_555
C99 C98 1_555 1_555
H104 C99 1_555 1_555
H105 C99 1_555 1_555
C100 C99 1_555 1_555
H106 C100 1_555 1_555
H107 C100 1_555 1_555
C101 H108 1_555 1_555
H109 C101 1_555 1_555
H110 C101 1_555 1_555
C102 C101 1_555 1_555
H111 C102 1_555 1_555
H112 C102 1_555 1_555
C103 C102 1_555 1_555
H113 C103 1_555 1_555
H114 C103 1_555 1_555
C98A H101A 1_555 1_555
H102A C98A 1_555 1_555
H103A C98A 1_555 1_555
C99A C98A 1_555 1_555
H104A C99A 1_555 1_555
H105A C99A 1_555 1_555
C100A C100 1_555 1_555
H106A C100A 1_555 1_555
H107A C100A 1_555 1_555
C101A H108A 1_555 1_555
H109A C101A 1_555 1_555
H110A C101A 1_555 1_555
C102A C101A 1_555 1_555
H111A C102A 1_555 1_555
H112A C102A 1_555 1_555
C103A C103 1_555 1_555
H113A C103A 1_555 1_555
H114A C103A 1_555 1_555
C3 C4 1_555 1_555
C7 C8 1_555 1_555
C9 C10 1_555 1_555
C13 C14 1_555 1_555
C15 C16 1_555 1_555
C19 C20 1_555 1_555
C24 C25 1_555 1_555
C29 C30 1_555 1_555
C34 C35 1_555 1_555
C38 C39 1_555 1_555
C42 C43 1_555 1_555
C44 C45 1_555 1_555
C48 C49 1_555 1_555
C50 C51 1_555 1_555
C54 C55 1_555 1_555
C59 C60 1_555 1_555
C64 C65 1_555 1_555
C69 C70 1_555 1_555
C99A C100A 1_555 1_555
C102A C103A 1_555 1_555

#END
