
#######################################################################
#
#                 Cambridge Crystallographic Data Centre
#                                CCDC 
#
#######################################################################
#
# If this CIF has been generated from an entry in the Cambridge 
# Structural Database, then it will include bibliographic, chemical, 
# crystal, experimental, refinement or atomic coordinate data resulting 
# from the CCDC's data processing and validation procedures.
#
#######################################################################

data_ASIQAV
_chemical_formula_moiety         'C28 H24 O2'
_chemical_name_systematic        
10-Methoxy-7,7-dimethyl-13-phenyl-7,8-dihydro-5H-benzo[5,6]cyclohepta[1,2-a]naphthalen-5-one
_symmetry_cell_setting           orthorhombic
_symmetry_space_group_name_H-M   'P 21 21 21'
_symmetry_Int_Tables_number      19
_space_group_name_Hall           'P 2ac 2ab'
loop_
_symmetry_equiv_pos_site_id
_symmetry_equiv_pos_as_xyz
1 x,y,z
2 1/2-x,-y,1/2+z
3 -x,1/2+y,1/2-z
4 1/2+x,1/2-y,-z
_cell_length_a                   11.083(1)
_cell_length_b                   12.964(1)
_cell_length_c                   14.977(1)
_cell_angle_alpha                90
_cell_angle_beta                 90
_cell_angle_gamma                90
_cell_volume                     2151.9
_exptl_crystal_colour            yellow
_chemical_melting_point          '152-153 deg.C'
_cell_formula_units_Z            4
_exptl_crystal_recrystallization_method 'diethyl ether/hexanes'
loop_
_atom_site_label
_atom_site_type_symbol
_atom_site_fract_x
_atom_site_fract_y
_atom_site_fract_z
O1 O 0.27515(17) 0.49772(12) -0.20370(8)
O2 O 0.81910(11) 0.34479(14) 0.26015(13)
C1 C 0.49462(19) 0.60753(13) 0.06212(13)
C2 C 0.40031(16) 0.54335(12) 0.01161(11)
C3 C 0.38335(19) 0.55402(13) -0.07702(12)
H1 H 0.4408 0.5896 -0.1102
C4 C 0.27809(19) 0.51175(13) -0.12299(11)
C5 C 0.17113(17) 0.49488(12) -0.06544(11)
C6 C 0.05404(19) 0.49860(15) -0.09910(13)
H2 H 0.0418 0.5077 -0.1600
C7 C -0.0432(2) 0.48897(17) -0.04338(16)
H3 H -0.1210 0.4921 -0.0664
C8 C -0.02560(18) 0.47456(17) 0.04698(15)
H4 H -0.0919 0.4685 0.0847
C9 C 0.09035(16) 0.46895(14) 0.08225(13)
H5 H 0.1013 0.4590 0.1432
C10 C 0.18980(15) 0.47821(12) 0.02637(11)
C11 C 0.31666(14) 0.47163(12) 0.05815(10)
C12 C 0.35509(14) 0.39232(11) 0.11054(9)
C13 C 0.47999(13) 0.38058(11) 0.14395(9)
C14 C 0.53039(14) 0.28256(12) 0.15300(10)
H6 H 0.4859 0.2258 0.1342
C15 C 0.64394(14) 0.26631(14) 0.18880(11)
H7 H 0.6760 0.2001 0.1924
C16 C 0.70888(14) 0.35059(16) 0.21911(13)
C17 C 0.66164(15) 0.44926(15) 0.20961(12)
H8 H 0.7064 0.5055 0.2294
C18 C 0.54978(14) 0.46595(12) 0.17151(10)
C19 C 0.50179(17) 0.57303(13) 0.16047(12)
H9 H 0.5533 0.6205 0.1929
H10 H 0.4218 0.5766 0.1866
C20 C 0.6194(2) 0.6031(2) 0.01816(16)
H11 H 0.6503 0.5340 0.0216
H12 H 0.6733 0.6492 0.0486
H13 H 0.6129 0.6233 -0.0433
C21 C 0.4472(3) 0.71934(15) 0.06127(17)
H14 H 0.4467 0.7448 0.0011
H15 H 0.4988 0.7619 0.0972
H16 H 0.3668 0.7209 0.0850
C22 C 0.27302(14) 0.30426(12) 0.13224(11)
C23 C 0.21507(17) 0.24909(14) 0.06508(13)
H17 H 0.2267 0.2676 0.0057
C24 C 0.1404(2) 0.16703(16) 0.08575(18)
H18 H 0.1011 0.1316 0.0403
C25 C 0.12376(17) 0.13749(15) 0.17281(19)
H19 H 0.0739 0.0820 0.1863
C26 C 0.18118(15) 0.19032(14) 0.23998(15)
H20 H 0.1696 0.1708 0.2991
C27 C 0.25644(14) 0.27272(12) 0.21993(11)
H21 H 0.2962 0.3072 0.2658
C28 C 0.8719(2) 0.2466(3) 0.2676(3)
H22 H 0.8206 0.2027 0.3026
H23 H 0.9491 0.2526 0.2962
H24 H 0.8821 0.2174 0.2092
loop_
_geom_bond_atom_site_label_1
_geom_bond_atom_site_label_2
_geom_bond_site_symmetry_1
_geom_bond_site_symmetry_2
O1 C4 1_555 1_555
O2 C16 1_555 1_555
C1 C2 1_555 1_555
C2 C3 1_555 1_555
C3 H1 1_555 1_555
C4 C3 1_555 1_555
C5 C4 1_555 1_555
C6 C5 1_555 1_555
H2 C6 1_555 1_555
C7 C6 1_555 1_555
H3 C7 1_555 1_555
C8 C7 1_555 1_555
H4 C8 1_555 1_555
C9 C8 1_555 1_555
H5 C9 1_555 1_555
C10 C5 1_555 1_555
C11 C2 1_555 1_555
C12 C11 1_555 1_555
C13 C12 1_555 1_555
C14 C13 1_555 1_555
H6 C14 1_555 1_555
C15 C14 1_555 1_555
H7 C15 1_555 1_555
C16 C15 1_555 1_555
C17 C16 1_555 1_555
H8 C17 1_555 1_555
C18 C13 1_555 1_555
C19 C1 1_555 1_555
H9 C19 1_555 1_555
H10 C19 1_555 1_555
C20 C1 1_555 1_555
H11 C20 1_555 1_555
H12 C20 1_555 1_555
H13 C20 1_555 1_555
C21 C1 1_555 1_555
H14 C21 1_555 1_555
H15 C21 1_555 1_555
H16 C21 1_555 1_555
C22 C12 1_555 1_555
C23 C22 1_555 1_555
H17 C23 1_555 1_555
C24 C23 1_555 1_555
H18 C24 1_555 1_555
C25 C24 1_555 1_555
H19 C25 1_555 1_555
C26 C25 1_555 1_555
H20 C26 1_555 1_555
C27 C22 1_555 1_555
H21 C27 1_555 1_555
C28 O2 1_555 1_555
H22 C28 1_555 1_555
H23 C28 1_555 1_555
H24 C28 1_555 1_555
C9 C10 1_555 1_555
C10 C11 1_555 1_555
C17 C18 1_555 1_555
C18 C19 1_555 1_555
C26 C27 1_555 1_555

#END
