
#######################################################################
#
#                 Cambridge Crystallographic Data Centre
#                                CCDC 
#
#######################################################################
#
# If this CIF has been generated from an entry in the Cambridge 
# Structural Database, then it will include bibliographic, chemical, 
# crystal, experimental, refinement or atomic coordinate data resulting 
# from the CCDC's data processing and validation procedures.
#
#######################################################################

data_ASISIF
_chemical_formula_moiety         'C17 H17 N3'
_chemical_name_systematic        
5,5-Dimethyl-3,6-diphenyl-2,5-dihydro-1,2,4-triazine
_symmetry_cell_setting           monoclinic
_symmetry_space_group_name_H-M   'P 21'
_symmetry_Int_Tables_number      4
_space_group_name_Hall           'P 2yb'
loop_
_symmetry_equiv_pos_site_id
_symmetry_equiv_pos_as_xyz
1 x,y,z
2 -x,1/2+y,-z
_cell_length_a                   12.632(3)
_cell_length_b                   9.666(2)
_cell_length_c                   12.804(3)
_cell_angle_alpha                90
_cell_angle_beta                 116.024(7)
_cell_angle_gamma                90
_cell_volume                     1404.87
_chemical_melting_point          '135 deg.C'
_cell_formula_units_Z            4
loop_
_atom_site_label
_atom_site_type_symbol
_atom_site_fract_x
_atom_site_fract_y
_atom_site_fract_z
C1 C -0.09247(10) 0.52338(13) 0.21481(10)
H1 H -0.0433 0.5998 0.2529
C2 C -0.18362(11) 0.54066(14) 0.10447(11)
H2 H -0.1968 0.6284 0.0675
C3 C -0.25559(10) 0.42958(14) 0.04819(11)
H3 H -0.3171 0.4406 -0.0280
C4 C -0.23744(10) 0.30252(13) 0.10342(11)
H4 H -0.2876 0.2269 0.0653
C5 C -0.14665(10) 0.28483(13) 0.21398(11)
H5 H -0.1352 0.1974 0.2513
C6 C -0.07186(9) 0.39521(12) 0.27073(10)
C7 C 0.03451(10) 0.37746(12) 0.38368(10)
N1 N 0.12884(8) 0.43347(10) 0.38790(8)
N2 N 0.22704(8) 0.42599(11) 0.49449(8)
H6 H 0.2876(13) 0.4689(15) 0.4920(12)
C8 C 0.21073(10) 0.42309(12) 0.59414(10)
N3 N 0.11704(8) 0.37300(10) 0.59501(8)
C9 C 0.03910(10) 0.29666(12) 0.48781(10)
C10 C 0.30593(9) 0.48486(12) 0.70004(10)
C11 C 0.37528(10) 0.59354(13) 0.69392(11)
H7 H 0.3633 0.6289 0.6203
C12 C 0.46189(11) 0.65066(14) 0.79485(11)
H8 H 0.5085 0.7254 0.7902
C13 C 0.48011(10) 0.59849(14) 0.90199(11)
H9 H 0.5390 0.6379 0.9710
C14 C 0.41287(11) 0.48906(14) 0.90926(11)
H10 H 0.4262 0.4530 0.9830
C15 C 0.32599(10) 0.43221(13) 0.80851(10)
H11 H 0.2800 0.3571 0.8135
C16 C 0.09421(11) 0.15477(12) 0.49004(11)
H12 H 0.1682 0.1669 0.4837
H13 H 0.0397 0.0990 0.4246
H14 H 0.1100 0.1077 0.5632
C17 C -0.08015(10) 0.27894(12) 0.48967(10)
H15 H -0.0688 0.2364 0.5633
H16 H -0.1306 0.2194 0.4250
H17 H -0.1176 0.3696 0.4819
C18 C 0.64745(10) 0.44562(13) 0.51772(10)
H18 H 0.6382 0.3741 0.4635
C19 C 0.74091(10) 0.44075(14) 0.62785(11)
H19 H 0.7945 0.3653 0.6490
C20 C 0.75647(10) 0.54541(15) 0.70717(11)
H20 H 0.8202 0.5419 0.7828
C21 C 0.67842(11) 0.65479(15) 0.67532(12)
H21 H 0.6891 0.7273 0.7291
C22 C 0.58452(10) 0.65988(13) 0.56553(11)
H22 H 0.5317 0.7361 0.5446
C23 C 0.56712(9) 0.55427(12) 0.48591(10)
C24 C 0.46103(9) 0.55803(11) 0.37134(10)
N4 N 0.36168(8) 0.54151(10) 0.37501(8)
N5 N 0.26270(8) 0.54209(11) 0.26722(8)
H23 H 0.2007(13) 0.5135(15) 0.2764(12)
C25 C 0.27621(10) 0.49568(12) 0.17161(10)
N6 N 0.37395(8) 0.50689(10) 0.16384(8)
C26 C 0.46560(10) 0.58987(13) 0.25698(10)
C27 C 0.17151(9) 0.42897(12) 0.07686(10)
C28 C 0.09212(10) 0.34986(13) 0.10024(11)
H24 H 0.1027 0.3393 0.1780
C29 C -0.00230(11) 0.28660(14) 0.01000(11)
H25 H -0.0556 0.2317 0.0264
C30 C -0.01954(10) 0.30271(13) -0.10364(10)
H26 H -0.0847 0.2594 -0.1651
C31 C 0.05866(10) 0.38246(13) -0.12787(10)
H27 H 0.0470 0.3941 -0.2059
C32 C 0.15388(10) 0.44505(12) -0.03764(10)
H28 H 0.2074 0.4993 -0.0542
C33 C 0.43753(11) 0.74413(13) 0.23131(11)
H29 H 0.4388 0.7678 0.1574
H30 H 0.4966 0.7994 0.2939
H31 H 0.3593 0.7637 0.2262
C34 C 0.58437(10) 0.55800(15) 0.25763(10)
H32 H 0.6019 0.4592 0.2728
H33 H 0.6462 0.6125 0.3185
H34 H 0.5812 0.5818 0.1819
loop_
_geom_bond_atom_site_label_1
_geom_bond_atom_site_label_2
_geom_bond_site_symmetry_1
_geom_bond_site_symmetry_2
C1 H1 1_555 1_555
C2 C1 1_555 1_555
H2 C2 1_555 1_555
C3 C2 1_555 1_555
H3 C3 1_555 1_555
C4 C3 1_555 1_555
H4 C4 1_555 1_555
C5 C4 1_555 1_555
H5 C5 1_555 1_555
C6 C1 1_555 1_555
C7 C6 1_555 1_555
N1 C7 1_555 1_555
N2 N1 1_555 1_555
H6 N2 1_555 1_555
C8 N2 1_555 1_555
N3 C8 1_555 1_555
C9 C7 1_555 1_555
C10 C8 1_555 1_555
C11 C10 1_555 1_555
H7 C11 1_555 1_555
C12 C11 1_555 1_555
H8 C12 1_555 1_555
C13 C12 1_555 1_555
H9 C13 1_555 1_555
C14 C13 1_555 1_555
H10 C14 1_555 1_555
C15 C10 1_555 1_555
H11 C15 1_555 1_555
C16 C9 1_555 1_555
H12 C16 1_555 1_555
H13 C16 1_555 1_555
H14 C16 1_555 1_555
C17 C9 1_555 1_555
H15 C17 1_555 1_555
H16 C17 1_555 1_555
H17 C17 1_555 1_555
C18 H18 1_555 1_555
C19 C18 1_555 1_555
H19 C19 1_555 1_555
C20 C19 1_555 1_555
H20 C20 1_555 1_555
C21 C20 1_555 1_555
H21 C21 1_555 1_555
C22 C21 1_555 1_555
H22 C22 1_555 1_555
C23 C18 1_555 1_555
C24 C23 1_555 1_555
N4 C24 1_555 1_555
N5 N4 1_555 1_555
H23 N5 1_555 1_555
C25 N5 1_555 1_555
N6 C25 1_555 1_555
C26 C24 1_555 1_555
C27 C25 1_555 1_555
C28 C27 1_555 1_555
H24 C28 1_555 1_555
C29 C28 1_555 1_555
H25 C29 1_555 1_555
C30 C29 1_555 1_555
H26 C30 1_555 1_555
C31 C30 1_555 1_555
H27 C31 1_555 1_555
C32 C27 1_555 1_555
H28 C32 1_555 1_555
C33 C26 1_555 1_555
H29 C33 1_555 1_555
H30 C33 1_555 1_555
H31 C33 1_555 1_555
C34 C26 1_555 1_555
H32 C34 1_555 1_555
H33 C34 1_555 1_555
H34 C34 1_555 1_555
C5 C6 1_555 1_555
N3 C9 1_555 1_555
C14 C15 1_555 1_555
C22 C23 1_555 1_555
N6 C26 1_555 1_555
C31 C32 1_555 1_555

#END
