
#######################################################################
#
#                 Cambridge Crystallographic Data Centre
#                                CCDC 
#
#######################################################################
#
# If this CIF has been generated from an entry in the Cambridge 
# Structural Database, then it will include bibliographic, chemical, 
# crystal, experimental, refinement or atomic coordinate data resulting 
# from the CCDC's data processing and validation procedures.
#
#######################################################################

data_ASISEB
_chemical_formula_moiety         'C26 H30 N2 O4'
_chemical_name_systematic        
'Diethyl 3,8-diisopropyl-1,10-dihydrobenzo[e]pyrrolo[3,2-g]indole-2,9-dicarboxylate unknown solvate'
_symmetry_cell_setting           monoclinic
_symmetry_space_group_name_H-M   'C 2/c'
_symmetry_Int_Tables_number      15
_space_group_name_Hall           '-C 2yn'
loop_
_symmetry_equiv_pos_site_id
_symmetry_equiv_pos_as_xyz
1 x,y,z
2 -x,y,1/2-z
3 1/2+x,1/2+y,z
4 1/2-x,1/2+y,1/2-z
5 -x,-y,-z
6 x,-y,1/2+z
7 1/2-x,1/2-y,-z
8 1/2+x,1/2-y,1/2+z
_cell_length_a                   24.668(2)
_cell_length_b                   17.4685(9)
_cell_length_c                   25.941(2)
_cell_angle_alpha                90
_cell_angle_beta                 107.172(10)
_cell_angle_gamma                90
_cell_volume                     10680
_exptl_crystal_colour            brown
_exptl_crystal_description       block
_chemical_melting_point          '250-251 deg.C'
_cell_formula_units_Z            16
loop_
_atom_site_label
_atom_site_type_symbol
_atom_site_fract_x
_atom_site_fract_y
_atom_site_fract_z
C1 C 0.3434(4) 1.0370(6) 0.6086(4)
H1 H 0.3140 1.0724 0.6099
H2 H 0.3281 0.9861 0.6032
H3 H 0.3579 1.0504 0.5793
N1 N 0.49226(19) 0.8837(3) 0.67291(16)
N2 N 0.6165(2) 0.8810(3) 0.67004(18)
O3 O 0.41317(16) 0.7839(2) 0.68157(16)
C5 C 0.5254(2) 0.9425(3) 0.66657(18)
C6 C 0.4937(2) 1.0102(3) 0.66056(18)
O4 O 0.34961(18) 0.8755(2) 0.67711(17)
C8 C 0.5810(3) 0.9423(3) 0.6646(2)
C9 C 0.4381(2) 0.9890(3) 0.66310(18)
C10 C 0.6086(2) 1.0071(3) 0.65783(19)
C13 C 0.5206(2) 1.0804(3) 0.65334(19)
C16 C 0.4392(2) 0.9096(3) 0.67113(18)
O5 O 0.69496(19) 0.7803(3) 0.6746(2)
C18 C 0.5780(3) 1.0789(3) 0.6514(2)
C22 C 0.4005(3) 0.8510(4) 0.6769(2)
C23 C 0.3872(3) 1.0402(3) 0.6572(3)
H10 H 0.405(2) 1.087(3) 0.648(2)
C24 C 0.6676(2) 0.9075(4) 0.6672(2)
C25 C 0.6652(3) 0.9859(3) 0.6600(2)
C31 C 0.5737(4) 1.2173(3) 0.6377(3)
H13 H 0.5906 1.2629 0.6319
C32 C 0.6020(3) 1.1507(4) 0.6418(2)
H14 H 0.6385 1.1510 0.6384
C34 C 0.7124(3) 0.8495(5) 0.6709(3)
C36 C 0.5198(4) 1.2173(4) 0.6423(3)
H21 H 0.5002 1.2633 0.6399
C37 C 0.3806(3) 1.0696(4) 0.7073(3)
H22 H 0.3508 1.1071 0.6995
H23 H 0.4155 1.0927 0.7282
H24 H 0.3710 1.0283 0.7275
C38 C 0.4947(3) 1.1521(3) 0.6500(3)
H25 H 0.4582 1.1548 0.6534
C39 C 0.7165(4) 1.0304(5) 0.6578(5)
H26 H 0.697(3) 1.079(4) 0.657(3)
O8 O 0.7598(3) 0.8646(3) 0.6703(3)
C41 C 0.3086(4) 0.8151(4) 0.6807(4)
H27 H 0.3093 0.7738 0.6558
H28 H 0.3188 0.7942 0.7169
C44 C 0.7068(4) 0.6513(6) 0.6578(5)
H34 H 0.6844 0.6361 0.6807
H35 H 0.7331 0.6113 0.6567
H36 H 0.6824 0.6608 0.6220
C45 C 0.7252(4) 1.0449(6) 0.6083(4)
H37 H 0.7603 1.0719 0.6137
H38 H 0.6945 1.0755 0.5866
H39 H 0.7267 0.9973 0.5902
C46 C 0.7383(4) 0.7216(5) 0.6792(5)
H40 H 0.7606 0.7147 0.7166
H41 H 0.7636 0.7356 0.6583
C50 C 0.2558(4) 0.8466(6) 0.6680(5)
H48 H 0.2561 0.8895 0.6912
H49 H 0.2292 0.8091 0.6727
H50 H 0.2448 0.8635 0.6311
C52 C 0.7559(5) 1.0478(8) 0.7088(5)
H54 H 0.7908 1.0208 0.7124
H55 H 0.7405 1.0324 0.7371
H56 H 0.7632 1.1018 0.7112
H57 H 0.6077(19) 0.830(3) 0.6772(18)
H58 H 0.4981(17) 0.833(2) 0.6738(17)
C2 C 0.7109(5) 0.4868(9) 1.0108(5)
H4 H 0.7162 0.4659 1.0461
H5 H 0.7243 0.5387 1.0138
H6 H 0.7318 0.4568 0.9921
O1 O 0.55388(15) 0.7407(2) 0.67596(15)
N3 N 0.57687(17) 0.6394(3) 0.7572(2)
C3 C 0.58626(18) 0.5127(3) 0.7610(2)
O2 O 0.53702(18) 0.64868(19) 0.61383(19)
C4 C 0.58852(19) 0.5790(3) 0.7905(3)
C7 C 0.5955(2) 0.4407(3) 0.7902(3)
C11 C 0.6196(2) 0.5122(4) 0.8760(3)
C12 C 0.57460(19) 0.5357(3) 0.7059(2)
C14 C 0.6055(2) 0.5791(3) 0.8469(3)
C15 C 0.5681(2) 0.6136(3) 0.7051(2)
N4 N 0.6144(2) 0.6402(3) 0.8811(3)
C17 C 0.5937(3) 0.3013(3) 0.7894(3)
H7 H 0.5860 0.2556 0.7702
C19 C 0.5850(2) 0.3696(3) 0.7632(2)
H8 H 0.5716 0.3695 0.7258
C20 C 0.6137(2) 0.4406(3) 0.8474(3)
C21 C 0.6137(3) 0.3008(4) 0.8441(4)
H9 H 0.6214 0.2544 0.8623
O6 O 0.6397(3) 0.7397(4) 0.9571(2)
C26 C 0.5524(2) 0.6725(3) 0.6639(3)
C27 C 0.6227(2) 0.3688(4) 0.8730(3)
H11 H 0.6351 0.3668 0.9105
C28 C 0.6373(3) 0.5341(4) 0.9320(3)
C29 C 0.5759(2) 0.4893(3) 0.6575(2)
H12 H 0.577(2) 0.529(3) 0.631(2)
C30 C 0.6339(3) 0.6128(5) 0.9335(3)
C33 C 0.5215(2) 0.4473(3) 0.6294(2)
H15 H 0.5267 0.4184 0.5997
H16 H 0.4914 0.4835 0.6162
H17 H 0.5121 0.4132 0.6545
C35 C 0.6296(3) 0.4475(4) 0.6620(3)
H18 H 0.6610 0.4824 0.6728
H19 H 0.6280 0.4254 0.6277
H20 H 0.6344 0.4076 0.6885
O7 O 0.6631(4) 0.6565(4) 1.0234(3)
C40 C 0.6461(4) 0.6699(6) 0.9765(4)
C42 C 0.6100(5) 0.4710(8) 1.0067(5)
H29 H 0.6123 0.4192 1.0196
H30 H 0.5742 0.4786 0.9797
H31 H 0.6131 0.5056 1.0362
C43 C 0.5200(3) 0.7071(4) 0.5725(3)
H32 H 0.5518 0.7407 0.5740
H33 H 0.4894 0.7376 0.5781
C47 C 0.6541(7) 0.8015(7) 0.9974(5)
H42 H 0.6323 0.7958 1.0228
H43 H 0.6941 0.7992 1.0173
C48 C 0.5011(4) 0.6689(5) 0.5197(3)
H44 H 0.5303 0.6726 0.5022
H45 H 0.4672 0.6932 0.4978
H46 H 0.4934 0.6160 0.5247
C49 C 0.6561(6) 0.4854(5) 0.9834(4)
H47 H 0.656(4) 0.436(5) 0.966(4)
C51 C 0.6431(10) 0.8627(7) 0.9740(6)
H51 H 0.6437 0.8568 0.9373
H52 H 0.6709 0.9000 0.9918
H53 H 0.6062 0.8795 0.9743
H59 H 0.5758(16) 0.684(2) 0.7634(16)
H60 H 0.610(2) 0.693(3) 0.869(2)
loop_
_geom_bond_atom_site_label_1
_geom_bond_atom_site_label_2
_geom_bond_site_symmetry_1
_geom_bond_site_symmetry_2
C1 H1 1_555 1_555
H2 C1 1_555 1_555
H3 C1 1_555 1_555
C2 H4 1_555 1_555
H5 C2 1_555 1_555
H6 C2 1_555 1_555
N1 C5 1_555 1_555
O1 C26 1_555 1_555
N2 C8 1_555 1_555
N3 C4 1_555 1_555
C3 C4 1_555 1_555
O2 C26 1_555 1_555
O3 C22 1_555 1_555
C4 C14 1_555 1_555
C5 C6 1_555 1_555
C6 C9 1_555 1_555
O4 C22 1_555 1_555
C7 C3 1_555 1_555
C8 C5 1_555 1_555
C9 C16 1_555 1_555
C10 C8 1_555 1_555
C11 C14 1_555 1_555
C12 C3 1_555 1_555
C13 C6 1_555 1_555
C14 N4 1_555 1_555
C15 N3 1_555 1_555
C16 N1 1_555 1_555
N4 C30 1_555 1_555
O5 C34 1_555 1_555
C17 H7 1_555 1_555
C18 C10 1_555 1_555
C19 C7 1_555 1_555
H8 C19 1_555 1_555
C20 C7 1_555 1_555
C21 C17 1_555 1_555
H9 C21 1_555 1_555
C22 C16 1_555 1_555
C23 C1 1_555 1_555
H10 C23 1_555 1_555
C24 N2 1_555 1_555
O6 C40 1_555 1_555
C25 C10 1_555 1_555
C26 C15 1_555 1_555
C27 C20 1_555 1_555
H11 C27 1_555 1_555
C28 C11 1_555 1_555
C29 C12 1_555 1_555
H12 C29 1_555 1_555
C30 C28 1_555 1_555
C31 H13 1_555 1_555
C32 C18 1_555 1_555
H14 C32 1_555 1_555
C33 C29 1_555 1_555
H15 C33 1_555 1_555
H16 C33 1_555 1_555
H17 C33 1_555 1_555
C34 C24 1_555 1_555
C35 C29 1_555 1_555
H18 C35 1_555 1_555
H19 C35 1_555 1_555
H20 C35 1_555 1_555
C36 C31 1_555 1_555
H21 C36 1_555 1_555
C37 C23 1_555 1_555
H22 C37 1_555 1_555
H23 C37 1_555 1_555
H24 C37 1_555 1_555
O7 C40 1_555 1_555
C38 C13 1_555 1_555
H25 C38 1_555 1_555
C39 C25 1_555 1_555
H26 C39 1_555 1_555
C40 C30 1_555 1_555
O8 C34 1_555 1_555
C41 O4 1_555 1_555
H27 C41 1_555 1_555
H28 C41 1_555 1_555
C42 H29 1_555 1_555
H30 C42 1_555 1_555
H31 C42 1_555 1_555
C43 O2 1_555 1_555
H32 C43 1_555 1_555
H33 C43 1_555 1_555
C44 H34 1_555 1_555
H35 C44 1_555 1_555
H36 C44 1_555 1_555
C45 C39 1_555 1_555
H37 C45 1_555 1_555
H38 C45 1_555 1_555
H39 C45 1_555 1_555
C46 O5 1_555 1_555
H40 C46 1_555 1_555
H41 C46 1_555 1_555
C47 O6 1_555 1_555
H42 C47 1_555 1_555
H43 C47 1_555 1_555
C48 C43 1_555 1_555
H44 C48 1_555 1_555
H45 C48 1_555 1_555
H46 C48 1_555 1_555
C49 C2 1_555 1_555
H47 C49 1_555 1_555
C50 C41 1_555 1_555
H48 C50 1_555 1_555
H49 C50 1_555 1_555
H50 C50 1_555 1_555
C51 C47 1_555 1_555
H51 C51 1_555 1_555
H52 C51 1_555 1_555
H53 C51 1_555 1_555
C52 C39 1_555 1_555
H54 C52 1_555 1_555
H55 C52 1_555 1_555
H56 C52 1_555 1_555
H57 N2 1_555 1_555
H58 N1 1_555 1_555
H59 N3 1_555 1_555
H60 N4 1_555 1_555
C9 C23 1_555 1_555
C11 C20 1_555 1_555
C12 C15 1_555 1_555
C13 C18 1_555 1_555
C17 C19 1_555 1_555
C21 C27 1_555 1_555
C24 C25 1_555 1_555
C28 C49 1_555 1_555
C31 C32 1_555 1_555
C36 C38 1_555 1_555
C42 C49 1_555 1_555
C44 C46 1_555 1_555

#END
