
#######################################################################
#
#                 Cambridge Crystallographic Data Centre
#                                CCDC 
#
#######################################################################
#
# If this CIF has been generated from an entry in the Cambridge 
# Structural Database, then it will include bibliographic, chemical, 
# crystal, experimental, refinement or atomic coordinate data resulting 
# from the CCDC's data processing and validation procedures.
#
#######################################################################

data_ASIXUX
_chemical_formula_moiety         'C20 H18 F1 N1 O4 S1'
_chemical_name_systematic        
N-(but-2-yn-1-yl)-N-((2-fluoro-3-oxo-2,3-dihydro-1-benzofuran-2-yl)methyl)-4-methylbenzenesulfonamide
_symmetry_cell_setting           monoclinic
_symmetry_space_group_name_H-M   'P 21/c'
_symmetry_Int_Tables_number      14
_space_group_name_Hall           '-P 2ybc'
loop_
_symmetry_equiv_pos_site_id
_symmetry_equiv_pos_as_xyz
1 x,y,z
2 -x,1/2+y,1/2-z
3 -x,-y,-z
4 x,1/2-y,1/2+z
_cell_length_a                   20.817(5)
_cell_length_b                   6.1588(15)
_cell_length_c                   15.486(4)
_cell_angle_alpha                90
_cell_angle_beta                 104.326(5)
_cell_angle_gamma                90
_cell_volume                     1923.69
_exptl_crystal_colour            colorless
_exptl_crystal_description       prismatic
_cell_formula_units_Z            4
loop_
_atom_site_label
_atom_site_type_symbol
_atom_site_fract_x
_atom_site_fract_y
_atom_site_fract_z
S1 S 0.33584(3) 1.11287(11) -0.00317(5)
N1 N 0.26017(11) 1.0158(3) -0.02133(14)
F1 F 0.17416(9) 1.3018(3) -0.14539(12)
O1 O 0.10068(13) 1.4855(4) -0.0239(2)
O2 O 0.12529(9) 0.9910(3) -0.12179(13)
O3 O 0.36912(11) 0.9832(4) -0.05445(14)
O4 O 0.32908(11) 1.3401(3) -0.01935(15)
C1 C 0.05789(14) 0.9936(5) -0.12956(18)
C2 C 0.01643(17) 0.8296(6) -0.1670(2)
H1 H 0.0320 0.7053 -0.1893
C3 C -0.04944(18) 0.8575(7) -0.1700(2)
H2 H -0.0793 0.7494 -0.1956
C4 C -0.07293(17) 1.0400(8) -0.1364(2)
H3 H -0.1180 1.0529 -0.1399
C5 C -0.03056(17) 1.2028(7) -0.0979(2)
H4 H -0.0460 1.3258 -0.0746
C6 C 0.03671(15) 1.1775(5) -0.0947(2)
C7 C 0.09394(15) 1.3127(5) -0.0607(2)
C8 C 0.15231(14) 1.1877(5) -0.08180(19)
C9 C 0.20894(13) 1.1521(4) -0.00142(17)
H5 H 0.2279 1.2914 0.0205
H6 H 0.1923 1.0847 0.0453
C10 C 0.25379(15) 0.7811(4) -0.00558(19)
H7 H 0.2141 0.7268 -0.0468
H8 H 0.2915 0.7058 -0.0178
C11 C 0.25028(14) 0.7314(5) 0.0861(2)
C12 C 0.24701(17) 0.7024(7) 0.1594(3)
C13 C 0.2473(3) 0.6618(12) 0.2531(3)
H9 H 0.2890 0.5993 0.2835
H10 H 0.2121 0.5634 0.2558
H11 H 0.2409 0.7963 0.2812
C14 C 0.37379(12) 1.0690(5) 0.10989(18)
C15 C 0.40873(15) 0.8819(5) 0.1368(2)
H12 H 0.4150 0.7816 0.0947
C16 C 0.43435(15) 0.8433(6) 0.2257(2)
H13 H 0.4577 0.7155 0.2433
C17 C 0.42635(14) 0.9896(6) 0.2900(2)
C18 C 0.39189(16) 1.1775(6) 0.2615(2)
H14 H 0.3864 1.2790 0.3035
C19 C 0.36555(15) 1.2195(5) 0.1731(2)
H15 H 0.3423 1.3475 0.1555
C20 C 0.45665(18) 0.9461(8) 0.3870(2)
H16 H 0.4499 0.7966 0.3999
H17 H 0.4361 1.0376 0.4226
H18 H 0.5033 0.9764 0.4003
loop_
_geom_bond_atom_site_label_1
_geom_bond_atom_site_label_2
_geom_bond_site_symmetry_1
_geom_bond_site_symmetry_2
S1 N1 1_555 1_555
N1 C9 1_555 1_555
F1 C8 1_555 1_555
O1 C7 1_555 1_555
O2 C1 1_555 1_555
O3 S1 1_555 1_555
O4 S1 1_555 1_555
C1 C2 1_555 1_555
C2 H1 1_555 1_555
C3 C2 1_555 1_555
H2 C3 1_555 1_555
C4 C3 1_555 1_555
H3 C4 1_555 1_555
C5 C4 1_555 1_555
H4 C5 1_555 1_555
C6 C1 1_555 1_555
C7 C6 1_555 1_555
C8 O2 1_555 1_555
C9 C8 1_555 1_555
H5 C9 1_555 1_555
H6 C9 1_555 1_555
C10 N1 1_555 1_555
H7 C10 1_555 1_555
H8 C10 1_555 1_555
C11 C10 1_555 1_555
C12 C11 1_555 1_555
C13 C12 1_555 1_555
H9 C13 1_555 1_555
H10 C13 1_555 1_555
H11 C13 1_555 1_555
C14 S1 1_555 1_555
C15 C14 1_555 1_555
H12 C15 1_555 1_555
C16 C15 1_555 1_555
H13 C16 1_555 1_555
C17 C16 1_555 1_555
C18 C17 1_555 1_555
H14 C18 1_555 1_555
C19 C14 1_555 1_555
H15 C19 1_555 1_555
C20 C17 1_555 1_555
H16 C20 1_555 1_555
H17 C20 1_555 1_555
H18 C20 1_555 1_555
C5 C6 1_555 1_555
C7 C8 1_555 1_555
C18 C19 1_555 1_555

#END
