
#######################################################################
#
#                 Cambridge Crystallographic Data Centre
#                                CCDC 
#
#######################################################################
#
# If this CIF has been generated from an entry in the Cambridge 
# Structural Database, then it will include bibliographic, chemical, 
# crystal, experimental, refinement or atomic coordinate data resulting 
# from the CCDC's data processing and validation procedures.
#
#######################################################################

data_ASIYEI
_chemical_formula_moiety         'C17 H20 F1 N1 O4 S1'
_chemical_name_systematic        
'ethyl (4-(ethylsulfanyl)-3-(4-fluorophenyl)-2-hydroxy-2-methyl-5-oxo-2,5-dihydro-1H-pyrrol-1-yl)acetate'
_symmetry_cell_setting           triclinic
_symmetry_space_group_name_H-M   'P -1'
_symmetry_Int_Tables_number      2
_space_group_name_Hall           '-P 1'
loop_
_symmetry_equiv_pos_site_id
_symmetry_equiv_pos_as_xyz
1 x,y,z
2 -x,-y,-z
_cell_length_a                   8.5007(9)
_cell_length_b                   10.2500(12)
_cell_length_c                   11.2985(15)
_cell_angle_alpha                75.804(10)
_cell_angle_beta                 70.345(11)
_cell_angle_gamma                81.631(9)
_cell_volume                     896.645
_exptl_crystal_colour            colorless
_exptl_crystal_description       block
_cell_formula_units_Z            2
loop_
_atom_site_label
_atom_site_type_symbol
_atom_site_fract_x
_atom_site_fract_y
_atom_site_fract_z
S1 S 0.19426(8) 0.52157(7) 0.26875(7)
C1 C 0.5205(3) 0.5942(2) 0.1935(2)
C2 C 0.4110(3) 0.5071(2) 0.2046(2)
C3 C 0.5035(3) 0.3951(2) 0.1413(2)
C4 C 0.7953(3) 0.3187(3) 0.0527(2)
H1 H 0.8980 0.3633 0.0048
H2 H 0.7624 0.2825 -0.0065
C5 C 0.6971(3) 0.5414(3) 0.1290(2)
C6 C 0.8024(4) 0.5191(3) 0.2177(3)
H3 H 0.9113 0.4801 0.1775
H4 H 0.7493 0.4592 0.2969
H5 H 0.8135 0.6039 0.2349
C7 C 0.4876(3) 0.7189(2) 0.2427(2)
C8 C 0.4104(5) 0.7152(3) 0.3714(3)
H6 H 0.3773 0.6333 0.4264
C9 C 0.3806(6) 0.8293(4) 0.4210(3)
H7 H 0.3291 0.8258 0.5084
C10 C 0.4291(6) 0.9475(3) 0.3379(4)
C11 C 0.5015(6) 0.9571(3) 0.2108(4)
H8 H 0.5301 1.0402 0.1565
C12 C 0.5325(5) 0.8423(3) 0.1628(3)
H9 H 0.5845 0.8474 0.0752
C13 C 0.1503(4) 0.3593(3) 0.3741(3)
H10 H 0.0299 0.3536 0.4088
H11 H 0.1954 0.2899 0.3243
C14 C 0.2188(6) 0.3318(4) 0.4802(4)
H12 H 0.3389 0.3272 0.4472
H13 H 0.1827 0.2474 0.5362
H14 H 0.1801 0.4027 0.5273
C15 C 0.8275(5) 0.2058(3) 0.1549(3)
O1 O 0.8206(11) 0.2162(10) 0.2608(9)
O2 O 0.8860(8) 0.0917(6) 0.1075(6)
C16 C 0.9224(13) -0.0229(9) 0.1971(10)
H15 H 0.8867 -0.1016 0.1825
H16 H 0.8554 -0.0118 0.2829
C17 C 1.0953(15) -0.0497(12) 0.1938(12)
H17 H 1.1670 -0.0202 0.1076
H18 H 1.1177 -0.1448 0.2219
H19 H 1.1161 -0.0020 0.2497
F1 F 0.3970(4) 1.0597(2) 0.3874(3)
N1 N 0.6667(3) 0.4157(2) 0.1041(2)
O3 O 0.7842(2) 0.62643(19) 0.01443(17)
H20 H 0.7258 0.6489 -0.0331
O4 O 0.4455(2) 0.30161(16) 0.12353(17)
O5? O 0.7426(8) 0.1943(8) 0.2695(7)
O6? O 0.9591(9) 0.1272(7) 0.0998(8)
C18? C 1.0622(16) 0.0286(10) 0.1759(12)
H21? H 1.1753 0.0102 0.1220
H22? H 1.0658 0.0609 0.2487
C19? C 0.972(2) -0.0782(13) 0.2128(14)
H23? H 0.8567 -0.0519 0.2516
H24? H 1.0116 -0.1456 0.2740
H25? H 0.9834 -0.1144 0.1394
loop_
_geom_bond_atom_site_label_1
_geom_bond_atom_site_label_2
_geom_bond_site_symmetry_1
_geom_bond_site_symmetry_2
S1 C2 1_555 1_555
C1 C2 1_555 1_555
C2 C3 1_555 1_555
C3 N1 1_555 1_555
C4 H1 1_555 1_555
H2 C4 1_555 1_555
C5 C1 1_555 1_555
C6 C5 1_555 1_555
H3 C6 1_555 1_555
H4 C6 1_555 1_555
H5 C6 1_555 1_555
C7 C1 1_555 1_555
C8 C7 1_555 1_555
H6 C8 1_555 1_555
C9 C8 1_555 1_555
H7 C9 1_555 1_555
C10 C9 1_555 1_555
C11 C10 1_555 1_555
H8 C11 1_555 1_555
C12 C7 1_555 1_555
H9 C12 1_555 1_555
C13 S1 1_555 1_555
H10 C13 1_555 1_555
H11 C13 1_555 1_555
C14 C13 1_555 1_555
H12 C14 1_555 1_555
H13 C14 1_555 1_555
H14 C14 1_555 1_555
C15 C4 1_555 1_555
O1 C15 1_555 1_555
O2 C15 1_555 1_555
C16 O2 1_555 1_555
H15 C16 1_555 1_555
H16 C16 1_555 1_555
C17 C16 1_555 1_555
H17 C17 1_555 1_555
H18 C17 1_555 1_555
H19 C17 1_555 1_555
F1 C10 1_555 1_555
N1 C4 1_555 1_555
O3 C5 1_555 1_555
H20 O3 1_555 1_555
O4 C3 1_555 1_555
C5 N1 1_555 1_555
C11 C12 1_555 1_555

#END
