
#######################################################################
#
#                 Cambridge Crystallographic Data Centre
#                                CCDC 
#
#######################################################################
#
# If this CIF has been generated from an entry in the Cambridge 
# Structural Database, then it will include bibliographic, chemical, 
# crystal, experimental, refinement or atomic coordinate data resulting 
# from the CCDC's data processing and validation procedures.
#
#######################################################################

data_ASIZAF
_chemical_formula_moiety         'C22 H16 Cl2 O4 S1'
_chemical_name_systematic        
'(E)-3-(4-chlorophenyl)-2-(phenylsulfonyl)allyl 4-chlorobenzoate'
_symmetry_cell_setting           monoclinic
_symmetry_space_group_name_H-M   'P 21/c'
_symmetry_Int_Tables_number      14
_space_group_name_Hall           '-P 2ybc'
loop_
_symmetry_equiv_pos_site_id
_symmetry_equiv_pos_as_xyz
1 x,y,z
2 -x,1/2+y,1/2-z
3 -x,-y,-z
4 x,1/2-y,1/2+z
_cell_length_a                   10.9567(11)
_cell_length_b                   9.6629(9)
_cell_length_c                   19.0643(18)
_cell_angle_alpha                90
_cell_angle_beta                 97.990(2)
_cell_angle_gamma                90
_cell_volume                     1998.81
_exptl_crystal_colour            colorless
_cell_formula_units_Z            4
loop_
_atom_site_label
_atom_site_type_symbol
_atom_site_fract_x
_atom_site_fract_y
_atom_site_fract_z
C1 C 0.48586(14) 0.24104(18) 0.05201(9)
C2 C 0.45183(15) 0.11660(19) 0.08128(9)
H1 H 0.4883 0.0907 0.1275
C3 C 0.36542(15) 0.03076(19) 0.04343(10)
H2 H 0.3422 -0.0536 0.0635
C4 C 0.31346(15) 0.06923(19) -0.02386(10)
C5 C 0.34620(16) 0.19051(19) -0.05483(9)
H3 H 0.3096 0.2154 -0.1012
C6 C 0.43337(15) 0.27474(19) -0.01672(9)
H4 H 0.4581 0.3574 -0.0378
C7 C 0.57942(15) 0.33462(18) 0.08861(9)
H5 H 0.6299 0.3810 0.0594
C8 C 0.60232(14) 0.36259(18) 0.15775(9)
C9 C 0.53395(15) 0.30777(19) 0.21463(9)
H6 H 0.5270 0.3805 0.2504
H7 H 0.4498 0.2794 0.1940
C10 C 0.62068(14) 0.18968(18) 0.31898(9)
C11 C 0.69994(14) 0.07274(18) 0.34776(9)
C12 C 0.73889(15) -0.03009(18) 0.30543(9)
H8 H 0.7135 -0.0282 0.2557
C13 C 0.81456(16) -0.1357(2) 0.33503(10)
H9 H 0.8398 -0.2075 0.3062
C14 C 0.85280(16) -0.1349(2) 0.40748(10)
C15 C 0.81639(17) -0.0327(2) 0.45093(10)
H10 H 0.8436 -0.0336 0.5005
C16 C 0.73952(16) 0.0707(2) 0.42062(9)
H11 H 0.7132 0.1414 0.4497
C17 C 0.82262(14) 0.39624(18) 0.24914(9)
C18 C 0.88985(16) 0.2858(2) 0.22807(10)
H12 H 0.8810 0.2588 0.1797
C19 C 0.96996(16) 0.2156(2) 0.27827(11)
H13 H 1.0154 0.1388 0.2646
C20 C 0.98405(16) 0.2573(2) 0.34845(10)
H14 H 1.0404 0.2099 0.3826
C21 C 0.91668(17) 0.3673(2) 0.36906(10)
H15 H 0.9265 0.3948 0.4174
C22 C 0.83483(15) 0.43764(19) 0.31953(9)
H16 H 0.7879 0.5129 0.3335
Cl1 Cl 0.20730(4) -0.04103(5) -0.07158(3)
Cl2 Cl 0.94997(5) -0.26558(6) 0.44431(3)
O1 O 0.78231(12) 0.51705(14) 0.12597(7)
O2 O 0.66563(12) 0.59642(13) 0.22099(7)
O3 O 0.60094(10) 0.18985(13) 0.24757(6)
O4 O 0.58018(12) 0.27644(14) 0.35498(6)
S1 S 0.71930(4) 0.48512(5) 0.18546(2)
loop_
_geom_bond_atom_site_label_1
_geom_bond_atom_site_label_2
_geom_bond_site_symmetry_1
_geom_bond_site_symmetry_2
C1 C2 1_555 1_555
C2 H1 1_555 1_555
C3 C2 1_555 1_555
H2 C3 1_555 1_555
C4 C3 1_555 1_555
C5 C4 1_555 1_555
H3 C5 1_555 1_555
C6 C1 1_555 1_555
H4 C6 1_555 1_555
C7 C1 1_555 1_555
H5 C7 1_555 1_555
C8 C7 1_555 1_555
C9 C8 1_555 1_555
H6 C9 1_555 1_555
H7 C9 1_555 1_555
C10 C11 1_555 1_555
C11 C12 1_555 1_555
C12 H8 1_555 1_555
C13 C12 1_555 1_555
H9 C13 1_555 1_555
C14 C13 1_555 1_555
C15 C14 1_555 1_555
H10 C15 1_555 1_555
C16 C11 1_555 1_555
H11 C16 1_555 1_555
C17 C18 1_555 1_555
C18 H12 1_555 1_555
C19 C18 1_555 1_555
H13 C19 1_555 1_555
C20 C19 1_555 1_555
H14 C20 1_555 1_555
C21 C20 1_555 1_555
H15 C21 1_555 1_555
C22 C17 1_555 1_555
H16 C22 1_555 1_555
Cl1 C4 1_555 1_555
Cl2 C14 1_555 1_555
O1 S1 1_555 1_555
O2 S1 1_555 1_555
O3 C9 1_555 1_555
O4 C10 1_555 1_555
S1 C8 1_555 1_555
C5 C6 1_555 1_555
C10 O3 1_555 1_555
C15 C16 1_555 1_555
C17 S1 1_555 1_555
C21 C22 1_555 1_555

#END
