
#######################################################################
#
#                 Cambridge Crystallographic Data Centre
#                                CCDC 
#
#######################################################################
#
# If this CIF has been generated from an entry in the Cambridge 
# Structural Database, then it will include bibliographic, chemical, 
# crystal, experimental, refinement or atomic coordinate data resulting 
# from the CCDC's data processing and validation procedures.
#
#######################################################################

data_ASOJUP
_chemical_formula_moiety         'C23 H14 Br1 N1 O4'
_chemical_name_systematic        
2-(4-bromophenyl)-3-(4-nitrophenyl)spiro[cyclopropane-1,2'-indene]-1',3'-dione
_symmetry_cell_setting           monoclinic
_symmetry_space_group_name_H-M   'P 21/c'
_symmetry_Int_Tables_number      14
_space_group_name_Hall           '-P 2ybc'
loop_
_symmetry_equiv_pos_site_id
_symmetry_equiv_pos_as_xyz
1 x,y,z
2 -x,1/2+y,1/2-z
3 -x,-y,-z
4 x,1/2-y,1/2+z
_cell_length_a                   18.294(5)
_cell_length_b                   7.120(5)
_cell_length_c                   15.904(5)
_cell_angle_alpha                90
_cell_angle_beta                 111.529(5)
_cell_angle_gamma                90
_cell_volume                     1927.02
_exptl_crystal_colour            yellow
_exptl_crystal_description       BLOCK
_cell_formula_units_Z            4
loop_
_atom_site_label
_atom_site_type_symbol
_atom_site_fract_x
_atom_site_fract_y
_atom_site_fract_z
Br1 Br 0.6043(2) 0.4547(2) 0.8349(2)
C1 C 0.22512(13) 0.1603(3) 0.77221(13)
C2 C 0.14549(13) 0.2360(3) 0.72123(14)
C3 C 0.10566(16) 0.2446(4) 0.62851(16)
H1 H 0.1280 0.1999 0.5885
C4 C 0.03112(18) 0.3226(4) 0.59805(19)
H2 H 0.0027 0.3297 0.5362
C5 C -0.00200(18) 0.3898(5) 0.6570(2)
H3 H -0.0522 0.4411 0.6340
C6 C 0.03722(16) 0.3831(4) 0.7493(2)
H4 H 0.0147 0.4294 0.7889
C7 C 0.11188(13) 0.3042(3) 0.78069(15)
C8 C 0.16771(13) 0.2810(3) 0.87541(14)
C9 C 0.23962(13) 0.1898(3) 0.87000(13)
C10 C 0.29048(13) 0.0467(3) 0.93902(14)
H5 H 0.3157 -0.0468 0.9134
C11 C 0.32094(13) 0.2393(3) 0.94082(13)
H6 H 0.3182 0.3154 0.9909
C12 C 0.38934(13) 0.2883(3) 0.91410(13)
C13 C 0.40178(15) 0.4744(3) 0.89795(16)
H7 H 0.3678 0.5664 0.9037
C14 C 0.46450(16) 0.5254(4) 0.87319(17)
H8 H 0.4719 0.6505 0.8615
C15 C 0.51524(14) 0.3907(4) 0.86611(15)
C16 C 0.50534(15) 0.2057(4) 0.88380(19)
H9 H 0.5407 0.1151 0.8801
C17 C 0.44177(16) 0.1551(4) 0.90738(18)
H10 H 0.4346 0.0297 0.9188
C18 C 0.26437(13) -0.0287(3) 1.01145(14)
C19 C 0.29534(14) 0.0416(3) 1.09882(14)
H11 H 0.3333 0.1355 1.1132
C20 C 0.26987(16) -0.0275(3) 1.16461(15)
H12 H 0.2911 0.0176 1.2235
C21 C 0.21304(14) -0.1633(3) 1.14183(15)
C22 C 0.18291(15) -0.2414(3) 1.05637(16)
H13 H 0.1455 -0.3365 1.0427
C23 C 0.21033(14) -0.1733(3) 0.99185(14)
H14 H 0.1920 -0.2259 0.9343
N1 N 0.18128(16) -0.2231(3) 1.21050(16)
O1 O 0.26936(10) 0.0855(2) 0.74139(10)
O2 O 0.15754(11) 0.3297(3) 0.94310(11)
O3 O 0.12049(14) -0.3096(3) 1.18590(16)
O4 O 0.21765(15) -0.1779(3) 1.28915(13)
Br2? Br 0.5938(6) 0.4650(8) 0.8256(5)
loop_
_geom_bond_atom_site_label_1
_geom_bond_atom_site_label_2
_geom_bond_site_symmetry_1
_geom_bond_site_symmetry_2
Br1 C15 1_555 1_555
C1 C2 1_555 1_555
C2 C3 1_555 1_555
C3 H1 1_555 1_555
C4 C3 1_555 1_555
H2 C4 1_555 1_555
C5 C4 1_555 1_555
H3 C5 1_555 1_555
C6 C5 1_555 1_555
H4 C6 1_555 1_555
C7 C2 1_555 1_555
C8 C7 1_555 1_555
C9 C1 1_555 1_555
C10 C9 1_555 1_555
H5 C10 1_555 1_555
C11 C9 1_555 1_555
H6 C11 1_555 1_555
C12 C11 1_555 1_555
C13 C12 1_555 1_555
H7 C13 1_555 1_555
C14 C13 1_555 1_555
H8 C14 1_555 1_555
C15 C14 1_555 1_555
C16 C15 1_555 1_555
H9 C16 1_555 1_555
C17 C12 1_555 1_555
H10 C17 1_555 1_555
C18 C10 1_555 1_555
C19 C18 1_555 1_555
H11 C19 1_555 1_555
C20 C19 1_555 1_555
H12 C20 1_555 1_555
C21 C20 1_555 1_555
C22 C21 1_555 1_555
H13 C22 1_555 1_555
C23 C18 1_555 1_555
H14 C23 1_555 1_555
N1 C21 1_555 1_555
O1 C1 1_555 1_555
O2 C8 1_555 1_555
O3 N1 1_555 1_555
O4 N1 1_555 1_555
C6 C7 1_555 1_555
C8 C9 1_555 1_555
C10 C11 1_555 1_555
C16 C17 1_555 1_555
C22 C23 1_555 1_555

#END
