
#######################################################################
#
#                 Cambridge Crystallographic Data Centre
#                                CCDC 
#
#######################################################################
#
# If this CIF has been generated from an entry in the Cambridge 
# Structural Database, then it will include bibliographic, chemical, 
# crystal, experimental, refinement or atomic coordinate data resulting 
# from the CCDC's data processing and validation procedures.
#
#######################################################################

data_ASOMEB
_chemical_compound_source        'fruits of Schisandra arisanensis'
_chemical_name_common            'Schinarisanlactone A monohydrate'
_chemical_formula_moiety         'C28 H36 O9,H2 O1'
_chemical_name_systematic        
'16-Hydroxy-4,9,11,17,19,19-hexamethyl-2,6,18,25,26-pentaoxaoctacyclo[12.10.1.1^1,8^.1^17,22^.0^3,7^.0^11,27^.0^14,23^.0^16,20^]heptacosane-5,10,24-trione monohydrate'
_symmetry_cell_setting           orthorhombic
_symmetry_space_group_name_H-M   'P 21 21 21'
_symmetry_Int_Tables_number      19
_space_group_name_Hall           'P 2ac 2ab'
loop_
_symmetry_equiv_pos_site_id
_symmetry_equiv_pos_as_xyz
1 x,y,z
2 1/2-x,-y,1/2+z
3 -x,1/2+y,1/2-z
4 1/2+x,1/2-y,-z
_cell_length_a                   10.33660(10)
_cell_length_b                   10.93000(10)
_cell_length_c                   23.5701(3)
_cell_angle_alpha                90
_cell_angle_beta                 90
_cell_angle_gamma                90
_cell_volume                     2662.93
_cell_formula_units_Z            4
loop_
_atom_site_label
_atom_site_type_symbol
_atom_site_fract_x
_atom_site_fract_y
_atom_site_fract_z
O1 O 1.3168(2) 0.2940(2) 0.07367(10)
O2 O 1.1386(2) 0.2341(2) -0.00669(9)
H1 H 1.1116 0.1834 -0.0295
O3 O 1.28119(18) 0.1168(2) 0.12477(9)
O4 O 0.88816(15) 0.00620(15) 0.11010(7)
O5 O 1.0185(2) -0.0549(2) 0.24347(8)
O6 O 0.7592(3) -0.2966(3) 0.03658(11)
O7 O 0.54457(19) -0.0168(2) 0.23292(9)
O8 O 0.5217(3) 0.1093(3) 0.30579(11)
O9 O 0.80130(16) 0.06539(15) 0.19609(7)
C1 C 1.2760(3) 0.1710(3) 0.06973(12)
C2 C 1.3654(4) 0.1014(4) 0.03236(17)
H2 H 1.4501 0.0998 0.0491
H3 H 1.3697 0.1403 -0.0041
H4 H 1.3342 0.0193 0.0280
C3 C 1.2055(4) 0.3729(3) 0.08969(15)
C4 C 1.0924(3) 0.2832(3) 0.09116(12)
H5 H 1.0125 0.3225 0.0782
C5 C 1.0729(3) 0.2226(3) 0.14919(11)
H6 H 0.9843 0.1938 0.1521
H7 H 1.0865 0.2830 0.1787
C6 C 1.1654(2) 0.1146(3) 0.15868(10)
H8 H 1.1924 0.1174 0.1985
C7 C 1.1009(2) -0.0095(2) 0.14906(11)
H9 H 1.1672 -0.0736 0.1500
C8 C 1.0231(2) -0.0213(2) 0.09403(10)
C9 C 1.1354(3) 0.1832(2) 0.04935(10)
C10 C 1.0243(3) -0.1525(3) 0.07205(13)
H10 H 1.1119 -0.1722 0.0605
H11 H 0.9704 -0.1561 0.0384
C11 C 0.9780(3) -0.2519(2) 0.11332(14)
H12 H 0.9966 -0.3307 0.0963
H13 H 1.0302 -0.2458 0.1474
C12 C 0.8356(3) -0.2519(2) 0.13131(11)
C13 C 1.0005(2) -0.0359(2) 0.19438(10)
C14 C 0.8649(2) -0.0290(2) 0.16667(9)
C15 C 0.7894(2) -0.1492(2) 0.17197(9)
H14 H 0.7961 -0.1786 0.2111
C16 C 0.7451(3) -0.2413(3) 0.07994(12)
C17 C 0.8057(4) -0.3779(3) 0.15856(16)
H15 H 0.8337 -0.4419 0.1336
H16 H 0.7143 -0.3851 0.1649
H17 H 0.8507 -0.3846 0.1941
C18 C 1.0564(3) 0.0647(3) 0.04446(10)
H18 H 1.1007 0.0147 0.0166
H19 H 0.9744 0.0879 0.0276
C19 C 0.6349(3) -0.1553(2) 0.09290(10)
H20 H 0.6518 -0.0777 0.0734
C20 C 0.5026(3) -0.2026(3) 0.07345(14)
H21 H 0.5035 -0.2146 0.0331
H22 H 0.4371 -0.1439 0.0831
H23 H 0.4842 -0.2789 0.0919
C21 C 0.6453(2) -0.1326(2) 0.15696(10)
H24 H 0.5967 -0.1973 0.1763
C22 C 0.5871(2) -0.0108(3) 0.17427(11)
H25 H 0.5125 0.0067 0.1500
C23 C 0.6783(2) 0.0979(2) 0.17317(12)
H26 H 0.6848 0.1353 0.1355
C24 C 0.6158(3) 0.1825(3) 0.21662(15)
H27 H 0.5451 0.2260 0.1977
C25 C 0.5564(3) 0.0928(3) 0.25763(14)
C26 C 0.7030(4) 0.2784(4) 0.2446(2)
H28 H 0.6531 0.3264 0.2707
H29 H 0.7389 0.3308 0.2159
H30 H 0.7718 0.2381 0.2646
C27 C 1.2349(6) 0.4358(4) 0.14612(19)
H31 H 1.3073 0.4899 0.1415
H32 H 1.2552 0.3752 0.1742
H33 H 1.1607 0.4819 0.1581
C28 C 1.1953(6) 0.4714(3) 0.04412(19)
H34 H 1.2696 0.5239 0.0461
H35 H 1.1183 0.5187 0.0501
H36 H 1.1917 0.4335 0.0074
O10 O 1.0604(4) 0.1108(4) -0.10556(17)
H37 H 1.0436 0.0521 -0.1440
H38 H 0.9767 0.1553 -0.0944
loop_
_geom_bond_atom_site_label_1
_geom_bond_atom_site_label_2
_geom_bond_site_symmetry_1
_geom_bond_site_symmetry_2
O1 C1 1_555 1_555
O2 H1 1_555 1_555
O3 C1 1_555 1_555
O4 C8 1_555 1_555
O5 C13 1_555 1_555
O6 C16 1_555 1_555
O7 C22 1_555 1_555
O8 C25 1_555 1_555
O9 C14 1_555 1_555
C1 C2 1_555 1_555
C2 H2 1_555 1_555
H3 C2 1_555 1_555
H4 C2 1_555 1_555
C3 O1 1_555 1_555
C4 C3 1_555 1_555
H5 C4 1_555 1_555
C5 C4 1_555 1_555
H6 C5 1_555 1_555
H7 C5 1_555 1_555
C6 O3 1_555 1_555
H8 C6 1_555 1_555
C7 C6 1_555 1_555
H9 C7 1_555 1_555
C8 C7 1_555 1_555
C9 O2 1_555 1_555
C10 C8 1_555 1_555
H10 C10 1_555 1_555
H11 C10 1_555 1_555
C11 C10 1_555 1_555
H12 C11 1_555 1_555
H13 C11 1_555 1_555
C12 C11 1_555 1_555
C13 C7 1_555 1_555
C14 O4 1_555 1_555
C15 C12 1_555 1_555
H14 C15 1_555 1_555
C16 C12 1_555 1_555
C17 C12 1_555 1_555
H15 C17 1_555 1_555
H16 C17 1_555 1_555
H17 C17 1_555 1_555
C18 C8 1_555 1_555
H18 C18 1_555 1_555
H19 C18 1_555 1_555
C19 C16 1_555 1_555
H20 C19 1_555 1_555
C20 C19 1_555 1_555
H21 C20 1_555 1_555
H22 C20 1_555 1_555
H23 C20 1_555 1_555
C21 C15 1_555 1_555
H24 C21 1_555 1_555
C22 C21 1_555 1_555
H25 C22 1_555 1_555
C23 O9 1_555 1_555
H26 C23 1_555 1_555
C24 C23 1_555 1_555
H27 C24 1_555 1_555
C25 O7 1_555 1_555
C26 C24 1_555 1_555
H28 C26 1_555 1_555
H29 C26 1_555 1_555
H30 C26 1_555 1_555
C27 C3 1_555 1_555
H31 C27 1_555 1_555
H32 C27 1_555 1_555
H33 C27 1_555 1_555
C28 C3 1_555 1_555
H34 C28 1_555 1_555
H35 C28 1_555 1_555
H36 C28 1_555 1_555
O10 H37 1_555 1_555
H38 O10 1_555 1_555
C1 C9 1_555 1_555
C4 C9 1_555 1_555
C5 C6 1_555 1_555
C9 C18 1_555 1_555
C13 C14 1_555 1_555
C14 C15 1_555 1_555
C19 C21 1_555 1_555
C22 C23 1_555 1_555
C24 C25 1_555 1_555

#END
