
#######################################################################
#
#                 Cambridge Crystallographic Data Centre
#                                CCDC 
#
#######################################################################
#
# If this CIF has been generated from an entry in the Cambridge 
# Structural Database, then it will include bibliographic, chemical, 
# crystal, experimental, refinement or atomic coordinate data resulting 
# from the CCDC's data processing and validation procedures.
#
#######################################################################

data_ASONIH
_chemical_formula_moiety         'C18 H16 O4 S4'
_chemical_name_systematic        
2,3,8,9-tetramethoxy[1,4]benzodithiino[2,3-b][1,4]benzodithiine
_symmetry_cell_setting           monoclinic
_symmetry_space_group_name_H-M   'P 21/c'
_symmetry_Int_Tables_number      14
_space_group_name_Hall           '-P 2ybc'
loop_
_symmetry_equiv_pos_site_id
_symmetry_equiv_pos_as_xyz
1 x,y,z
2 -x,1/2+y,1/2-z
3 -x,-y,-z
4 x,1/2-y,1/2+z
_cell_length_a                   12.6110(5)
_cell_length_b                   10.1047(5)
_cell_length_c                   7.3307(3)
_cell_angle_alpha                90
_cell_angle_beta                 96.481(4)
_cell_angle_gamma                90
_cell_volume                     928.184
_exptl_crystal_colour            white
_exptl_crystal_description       block
_chemical_melting_point          '582.7 K'
_cell_formula_units_Z            2
loop_
_atom_site_label
_atom_site_type_symbol
_atom_site_fract_x
_atom_site_fract_y
_atom_site_fract_z
S1 S 0.65977(4) 0.55887(6) 0.44307(8)
S2 S 0.50042(4) 0.68047(6) 0.66562(7)
O1 O 0.05788(11) 0.79657(18) 0.3496(2)
O2 O 0.18646(13) 0.99075(18) 0.4457(2)
C1 C -0.01533(17) 0.6922(3) 0.3024(4)
H1 H 0.0106 0.6379 0.2096
H2 H -0.0835 0.7285 0.2566
H3 H -0.0226 0.6395 0.4093
C2 C 0.36705(14) 0.7104(2) 0.5699(2)
C3 C 0.19385(15) 0.6328(2) 0.4436(3)
H4 H 0.1483 0.5632 0.4065
C4 C 0.15878(15) 0.7612(3) 0.4215(3)
C5 C 0.53336(14) 0.5507(2) 0.5228(3)
C6 C 0.33256(15) 0.8411(2) 0.5435(3)
H5 H 0.3797 0.9106 0.5734
C7 C 0.70177(15) 0.3931(2) 0.4780(2)
C8 C 0.2510(2) 1.0985(3) 0.5168(3)
H6 H 0.3148 1.1018 0.4569
H7 H 0.2696 1.0866 0.6464
H8 H 0.2121 1.1797 0.4952
C9 C 0.22829(16) 0.8670(2) 0.4727(3)
S1B S 0.34023(4) 0.44113(6) 0.55693(8)
S2B S 0.49958(4) 0.31953(6) 0.33438(7)
O1B O 0.94212(11) 0.20343(18) 0.6504(2)
O2B O 0.81354(13) 0.00925(18) 0.5543(2)
C1B C 1.01533(17) 0.3078(3) 0.6976(4)
H1B H 0.9894 0.3621 0.7904
H2B H 1.0835 0.2715 0.7434
H3B H 1.0226 0.3605 0.5907
C2B C 0.63295(14) 0.2896(2) 0.4301(2)
C3B C 0.80615(15) 0.3672(2) 0.5564(3)
H4B H 0.8517 0.4368 0.5935
C4B C 0.84122(15) 0.2388(3) 0.5785(3)
C5B C 0.46664(14) 0.4493(2) 0.4772(3)
C6B C 0.66744(15) 0.1589(2) 0.4565(3)
H5B H 0.6203 0.0894 0.4266
C7B C 0.29823(15) 0.6069(2) 0.5220(2)
C8B C 0.7490(2) -0.0985(3) 0.4832(3)
H6B H 0.6852 -0.1018 0.5431
H7B H 0.7304 -0.0866 0.3536
H8B H 0.7879 -0.1797 0.5048
C9B C 0.77171(16) 0.1330(2) 0.5273(3)
loop_
_geom_bond_atom_site_label_1
_geom_bond_atom_site_label_2
_geom_bond_site_symmetry_1
_geom_bond_site_symmetry_2
S1 C5 1_555 1_555
S2 C2 1_555 1_555
O1 C1 1_555 1_555
O2 C8 1_555 1_555
C1 H1 1_555 1_555
H2 C1 1_555 1_555
H3 C1 1_555 1_555
C2 C6 1_555 1_555
C3 H4 1_555 1_555
C4 O1 1_555 1_555
C5 S2 1_555 1_555
C6 H5 1_555 1_555
C7 S1 1_555 1_555
C8 H6 1_555 1_555
H7 C8 1_555 1_555
H8 C8 1_555 1_555
C9 O2 1_555 1_555
S1B C5B 1_555 1_555
S2B C2B 1_555 1_555
O1B C1B 1_555 1_555
O2B C8B 1_555 1_555
C1B H1B 1_555 1_555
H2B C1B 1_555 1_555
H3B C1B 1_555 1_555
C2B C7 1_555 1_555
C3B C7 1_555 1_555
H4B C3B 1_555 1_555
C4B O1B 1_555 1_555
C5B C5 1_555 1_555
C6B C2B 1_555 1_555
H5B C6B 1_555 1_555
C7B C2 1_555 1_555
C8B H6B 1_555 1_555
H7B C8B 1_555 1_555
H8B C8B 1_555 1_555
C9B O2B 1_555 1_555
C3 C4 1_555 1_555
C3 C7B 1_555 1_555
C4 C9 1_555 1_555
C6 C9 1_555 1_555
S1B C7B 1_555 1_555
S2B C5B 1_555 1_555
C3B C4B 1_555 1_555
C4B C9B 1_555 1_555
C6B C9B 1_555 1_555

#END
