
#######################################################################
#
#                 Cambridge Crystallographic Data Centre
#                                CCDC 
#
#######################################################################
#
# If this CIF has been generated from an entry in the Cambridge 
# Structural Database, then it will include bibliographic, chemical, 
# crystal, experimental, refinement or atomic coordinate data resulting 
# from the CCDC's data processing and validation procedures.
#
#######################################################################

data_ASONED
_chemical_formula_moiety         'C14 H8 S4'
_chemical_name_systematic        '[1,4]benzodithiino[2,3-b][1,4]benzodithiine'
_symmetry_cell_setting           monoclinic
_symmetry_space_group_name_H-M   'P 2/n'
_symmetry_Int_Tables_number      13
_space_group_name_Hall           '-P 2yac'
loop_
_symmetry_equiv_pos_site_id
_symmetry_equiv_pos_as_xyz
1 x,y,z
2 1/2-x,y,1/2-z
3 -x,-y,-z
4 1/2+x,-y,1/2+z
_cell_length_a                   7.4504(9)
_cell_length_b                   8.4459(9)
_cell_length_c                   10.8382(13)
_cell_angle_alpha                90
_cell_angle_beta                 106.345(12)
_cell_angle_gamma                90
_cell_volume                     654.434
_exptl_crystal_colour            white
_exptl_crystal_description       block
_chemical_melting_point          '522 K'
_cell_formula_units_Z            2
loop_
_atom_site_label
_atom_site_type_symbol
_atom_site_fract_x
_atom_site_fract_y
_atom_site_fract_z
S1 S 0.65170(13) 0.27605(11) 0.01795(10)
S2 S 0.44203(13) 0.43175(11) 0.18011(9)
C1 C 0.4742(5) 0.9098(5) 0.1942(5)
H1 H 0.4505 0.9945 0.1370
C2 C 0.5781(6) 0.8116(7) 0.4101(5)
H2 H 0.6203 0.8312 0.4980
C3 C 0.4446(5) 0.7558(4) 0.1496(4)
C4 C 0.5549(5) 0.6582(6) 0.3666(4)
H3 H 0.5866 0.5742 0.4241
C5 C 0.5402(6) 0.9357(6) 0.3262(5)
H4 H 0.5587 1.0387 0.3575
C6 C 0.5195(4) 0.4395(3) 0.0414(3)
C7 C 0.4830(4) 0.6301(4) 0.2347(4)
S1B S 0.34830(13) 0.72395(11) -0.01795(10)
S2B S 0.55797(13) 0.56825(11) -0.18011(9)
C1B C 0.5258(5) 0.0902(5) -0.1942(5)
H1B H 0.5495 0.0055 -0.1370
C2B C 0.4219(6) 0.1884(7) -0.4101(5)
H2B H 0.3797 0.1688 -0.4980
C3B C 0.5554(5) 0.2442(4) -0.1496(4)
C4B C 0.4451(5) 0.3418(6) -0.3666(4)
H3B H 0.4134 0.4258 -0.4241
C5B C 0.4598(6) 0.0643(6) -0.3262(5)
H4B H 0.4413 -0.0387 -0.3575
C6B C 0.4805(4) 0.5605(3) -0.0414(3)
C7B C 0.5170(4) 0.3699(4) -0.2347(4)
loop_
_geom_bond_atom_site_label_1
_geom_bond_atom_site_label_2
_geom_bond_site_symmetry_1
_geom_bond_site_symmetry_2
S1 C6 1_555 1_555
S2 C6 1_555 1_555
C1 H1 1_555 1_555
C2 H2 1_555 1_555
C3 C1 1_555 1_555
C4 C2 1_555 1_555
H3 C4 1_555 1_555
C5 C1 1_555 1_555
H4 C5 1_555 1_555
C6 C6B 1_555 1_555
C7 S2 1_555 1_555
S1B C3 1_555 1_555
S2B C6B 1_555 1_555
C1B H1B 1_555 1_555
C2B H2B 1_555 1_555
C3B S1 1_555 1_555
C4B C2B 1_555 1_555
H3B C4B 1_555 1_555
C5B C1B 1_555 1_555
H4B C5B 1_555 1_555
C6B S1B 1_555 1_555
C7B S2B 1_555 1_555
C2 C5 1_555 1_555
C3 C7 1_555 1_555
C4 C7 1_555 1_555
C1B C3B 1_555 1_555
C2B C5B 1_555 1_555
C3B C7B 1_555 1_555
C4B C7B 1_555 1_555

#END
