
#######################################################################
#
#                 Cambridge Crystallographic Data Centre
#                                CCDC 
#
#######################################################################
#
# If this CIF has been generated from an entry in the Cambridge 
# Structural Database, then it will include bibliographic, chemical, 
# crystal, experimental, refinement or atomic coordinate data resulting 
# from the CCDC's data processing and validation procedures.
#
#######################################################################

data_ASOPUV
_chemical_formula_moiety         'C60,C14 H12 S6'
_chemical_name_systematic        
"1,3,6,8-tetramethylthieno[3,4-b]thieno[3',4':5,6][1,4]dithiino[2,3-e][1,4]dithiine C60fullerene"
_symmetry_cell_setting           orthorhombic
_symmetry_space_group_name_H-M   'P n m a'
_symmetry_Int_Tables_number      62
_space_group_name_Hall           '-P 2ac 2n'
loop_
_symmetry_equiv_pos_site_id
_symmetry_equiv_pos_as_xyz
1 x,y,z
2 1/2-x,-y,1/2+z
3 -x,1/2+y,-z
4 1/2+x,1/2-y,1/2-z
5 -x,-y,-z
6 1/2+x,y,1/2-z
7 x,1/2-y,z
8 1/2-x,1/2+y,1/2+z
_cell_length_a                   17.5533(19)
_cell_length_b                   24.604(3)
_cell_length_c                   9.7837(6)
_cell_angle_alpha                90
_cell_angle_beta                 90
_cell_angle_gamma                90
_cell_volume                     4225.4
_exptl_crystal_colour            black
_exptl_crystal_description       block
_chemical_melting_point          '529 K'
_cell_formula_units_Z            4
loop_
_atom_site_label
_atom_site_type_symbol
_atom_site_fract_x
_atom_site_fract_y
_atom_site_fract_z
C1 C 0.15479(18) 0.48362(12) 0.6842(3)
C2 C 0.02887(18) 0.44576(12) 0.6038(3)
C3 C 0.02377(18) 0.47607(12) 0.7206(3)
C4 C 0.09455(18) 0.49766(12) 0.7659(3)
C5 C 0.03313(17) 0.51012(13) 1.0215(3)
C6 C -0.03179(19) 0.41513(14) 0.5289(3)
H1 H -0.0773 0.4142 0.5832
H2 H -0.0148 0.3787 0.5120
H3 H -0.0422 0.4328 0.4435
C7 C 0.23787(18) 0.49559(13) 0.7020(3)
H4 H 0.2450 0.5178 0.7817
H5 H 0.2565 0.5146 0.6230
H6 H 0.2654 0.4621 0.7126
S1 S 0.12273(5) 0.44582(3) 0.54664(8)
S2 S -0.06310(5) 0.48878(3) 0.80552(8)
S3 S 0.10217(5) 0.53991(3) 0.91175(8)
C1D C -0.15479(18) 0.51638(12) 1.3158(3)
C2D C -0.02887(18) 0.55424(12) 1.3962(3)
C3D C -0.02377(18) 0.52393(12) 1.2794(3)
C4D C -0.09455(18) 0.50234(12) 1.2341(3)
C5D C -0.03313(17) 0.48988(13) 0.9785(3)
C6D C 0.03179(19) 0.58487(14) 1.4711(3)
H1D H 0.0773 0.5858 1.4168
H2D H 0.0148 0.6213 1.4880
H3D H 0.0422 0.5672 1.5565
C7D C -0.23787(18) 0.50441(13) 1.2980(3)
H4D H -0.2450 0.4822 1.2183
H5D H -0.2565 0.4854 1.3770
H6D H -0.2654 0.5379 1.2874
S1D S -0.12273(5) 0.55418(3) 1.45336(8)
S2D S 0.06310(5) 0.51122(3) 1.19448(8)
S3D S -0.10217(5) 0.46009(3) 1.08825(8)
C8 C 0.31334(19) 0.60903(12) 0.4610(3)
C9 C 0.23467(19) 0.62704(13) 0.4779(3)
C10 C 0.21296(18) 0.65671(13) 0.3548(3)
C11 C 0.27768(19) 0.65655(13) 0.2628(3)
C12 C 0.33945(19) 0.62699(12) 0.3279(3)
C13 C 0.3625(2) 0.60905(12) 0.5717(3)
C14 C 0.3365(2) 0.62710(13) 0.7047(3)
C15 C 0.3983(2) 0.65627(13) 0.7696(3)
C16 C 0.46267(19) 0.65628(13) 0.6779(3)
C17 C 0.44096(19) 0.62732(12) 0.5548(3)
C18 C 0.20938(18) 0.64448(13) 0.6049(3)
C19 C 0.16138(18) 0.69204(13) 0.6160(3)
C20 C 0.18326(18) 0.72173(13) 0.7371(3)
C21 C 0.2448(2) 0.69187(13) 0.8025(3)
C22 C 0.2610(2) 0.64411(13) 0.7208(3)
C23 C 0.41460(19) 0.64429(13) 0.3121(3)
C24 C 0.43124(18) 0.69220(14) 0.2300(3)
C25 C 0.49298(18) 0.72166(13) 0.2942(3)
C26 C 0.51467(18) 0.69221(13) 0.4164(3)
C27 C 0.46660(19) 0.64485(13) 0.4276(3)
C28 C 0.29417(19) 0.70242(13) 0.1844(3)
C29 C 0.2452(3) 0.7500 0.1946(4)
C30 C 0.1832(3) 0.7500 0.2829(4)
C31 C 0.16686(18) 0.70236(13) 0.3652(3)
C32 C 0.13997(17) 0.72040(12) 0.4978(3)
C33 C 0.37191(19) 0.72047(12) 0.1678(3)
C34 C 0.53619(17) 0.72041(12) 0.5336(3)
C35 C 0.50880(18) 0.70203(13) 0.6673(3)
C36 C 0.4932(3) 0.7500 0.7492(5)
C37 C 0.4309(3) 0.7500 0.8377(4)
C38 C 0.3824(2) 0.70251(14) 0.8484(3)
C39 C 0.3044(2) 0.72029(13) 0.8648(3)
C8F C 0.31334(19) 0.89097(12) 0.4610(3)
C9F C 0.23467(19) 0.87296(13) 0.4779(3)
C10F C 0.21296(18) 0.84329(13) 0.3548(3)
C11F C 0.27768(19) 0.84345(13) 0.2628(3)
C12F C 0.33945(19) 0.87301(12) 0.3279(3)
C13F C 0.3625(2) 0.89095(12) 0.5717(3)
C14F C 0.3365(2) 0.87290(13) 0.7047(3)
C15F C 0.3983(2) 0.84373(13) 0.7696(3)
C16F C 0.46267(19) 0.84372(13) 0.6779(3)
C17F C 0.44096(19) 0.87268(12) 0.5548(3)
C18F C 0.20938(18) 0.85552(13) 0.6049(3)
C19F C 0.16138(18) 0.80796(13) 0.6160(3)
C20F C 0.18326(18) 0.77827(13) 0.7371(3)
C21F C 0.2448(2) 0.80813(13) 0.8025(3)
C22F C 0.2610(2) 0.85589(13) 0.7208(3)
C23F C 0.41460(19) 0.85571(13) 0.3121(3)
C24F C 0.43124(18) 0.80780(14) 0.2300(3)
C25F C 0.49298(18) 0.77834(13) 0.2942(3)
C26F C 0.51467(18) 0.80779(13) 0.4164(3)
C27F C 0.46660(19) 0.85515(13) 0.4276(3)
C28F C 0.29417(19) 0.79758(13) 0.1844(3)
C31F C 0.16686(18) 0.79764(13) 0.3652(3)
C32F C 0.13997(17) 0.77960(12) 0.4978(3)
C33F C 0.37191(19) 0.77953(12) 0.1678(3)
C34F C 0.53619(17) 0.77959(12) 0.5336(3)
C35F C 0.50880(18) 0.79797(13) 0.6673(3)
C38F C 0.3824(2) 0.79749(14) 0.8484(3)
C39F C 0.3044(2) 0.77971(13) 0.8648(3)
loop_
_geom_bond_atom_site_label_1
_geom_bond_atom_site_label_2
_geom_bond_site_symmetry_1
_geom_bond_site_symmetry_2
C1 C4 1_555 1_555
C2 C3 1_555 1_555
C3 C4 1_555 1_555
C4 S3 1_555 1_555
C5 S3 1_555 1_555
C6 C2 1_555 1_555
H1 C6 1_555 1_555
H2 C6 1_555 1_555
H3 C6 1_555 1_555
C7 C1 1_555 1_555
H4 C7 1_555 1_555
H5 C7 1_555 1_555
H6 C7 1_555 1_555
S1 C1 1_555 1_555
S2 C3 1_555 1_555
C8 C9 1_555 1_555
C9 C10 1_555 1_555
C10 C11 1_555 1_555
C11 C12 1_555 1_555
C12 C8 1_555 1_555
C13 C8 1_555 1_555
C14 C13 1_555 1_555
C15 C14 1_555 1_555
C16 C15 1_555 1_555
C17 C13 1_555 1_555
C18 C9 1_555 1_555
C19 C18 1_555 1_555
C20 C19 1_555 1_555
C21 C20 1_555 1_555
C22 C14 1_555 1_555
C23 C12 1_555 1_555
C24 C23 1_555 1_555
C25 C24 1_555 1_555
C26 C25 1_555 1_555
C27 C17 1_555 1_555
C28 C11 1_555 1_555
C29 C28 1_555 1_555
C30 C29 1_555 1_555
C31 C10 1_555 1_555
C32 C19 1_555 1_555
C33 C24 1_555 1_555
C34 C26 1_555 1_555
C35 C16 1_555 1_555
C36 C35 1_555 1_555
C37 C36 1_555 1_555
C38 C15 1_555 1_555
C39 C21 1_555 1_555
C1D C4D 1_555 1_555
C2D C3D 1_555 1_555
C3D C4D 1_555 1_555
C4D S3D 1_555 1_555
C5D C5 1_555 1_555
C6D C2D 1_555 1_555
H1D C6D 1_555 1_555
H2D C6D 1_555 1_555
H3D C6D 1_555 1_555
C7D C1D 1_555 1_555
H4D C7D 1_555 1_555
H5D C7D 1_555 1_555
H6D C7D 1_555 1_555
S1D C1D 1_555 1_555
S2D C5 1_555 1_555
S3D C5D 1_555 1_555
C8F C9F 1_555 1_555
C9F C10F 1_555 1_555
C10F C11F 1_555 1_555
C11F C12F 1_555 1_555
C12F C8F 1_555 1_555
C13F C8F 1_555 1_555
C14F C13F 1_555 1_555
C15F C14F 1_555 1_555
C16F C15F 1_555 1_555
C17F C13F 1_555 1_555
C18F C9F 1_555 1_555
C19F C18F 1_555 1_555
C20F C20 1_555 1_555
C21F C20F 1_555 1_555
C22F C14F 1_555 1_555
C23F C12F 1_555 1_555
C24F C23F 1_555 1_555
C25F C25 1_555 1_555
C26F C25F 1_555 1_555
C27F C17F 1_555 1_555
C28F C29 1_555 1_555
C31F C30 1_555 1_555
C32F C32 1_555 1_555
C33F C33 1_555 1_555
C34F C34 1_555 1_555
C35F C36 1_555 1_555
C38F C37 1_555 1_555
C39F C39 1_555 1_555
C2 S1 1_555 1_555
S2 C5D 1_555 1_555
C16 C17 1_555 1_555
C18 C22 1_555 1_555
C21 C22 1_555 1_555
C23 C27 1_555 1_555
C26 C27 1_555 1_555
C28 C33 1_555 1_555
C30 C31 1_555 1_555
C31 C32 1_555 1_555
C34 C35 1_555 1_555
C37 C38 1_555 1_555
C38 C39 1_555 1_555
C2D S1D 1_555 1_555
C3D S2D 1_555 1_555
C10F C31F 1_555 1_555
C11F C28F 1_555 1_555
C15F C38F 1_555 1_555
C16F C17F 1_555 1_555
C16F C35F 1_555 1_555
C18F C22F 1_555 1_555
C19F C20F 1_555 1_555
C19F C32F 1_555 1_555
C21F C22F 1_555 1_555
C21F C39F 1_555 1_555
C23F C27F 1_555 1_555
C24F C25F 1_555 1_555
C24F C33F 1_555 1_555
C26F C27F 1_555 1_555
C26F C34F 1_555 1_555
C28F C33F 1_555 1_555
C31F C32F 1_555 1_555
C34F C35F 1_555 1_555
C38F C39F 1_555 1_555

#END
