
#######################################################################
#
#                 Cambridge Crystallographic Data Centre
#                                CCDC 
#
#######################################################################
#
# If this CIF has been generated from an entry in the Cambridge 
# Structural Database, then it will include bibliographic, chemical, 
# crystal, experimental, refinement or atomic coordinate data resulting 
# from the CCDC's data processing and validation procedures.
#
#######################################################################

data_ASOPAA
_chemical_formula_moiety         'C11 H9 Cl1 N2 O2'
_chemical_name_systematic        
7-Chloro-1,2,2a,3-tetrahydrocyclobuta[4',5']pyrrolo[3',4':4,5]furo[2,3-b]pyridin-4(4aH)-one
_symmetry_cell_setting           monoclinic
_symmetry_space_group_name_H-M   'P 21/n'
_symmetry_Int_Tables_number      14
_space_group_name_Hall           '-P 2yn'
loop_
_symmetry_equiv_pos_site_id
_symmetry_equiv_pos_as_xyz
1 x,y,z
2 1/2-x,1/2+y,1/2-z
3 -x,-y,-z
4 1/2+x,1/2-y,1/2+z
_cell_length_a                   5.6626(2)
_cell_length_b                   9.6370(3)
_cell_length_c                   18.9453(7)
_cell_angle_alpha                90
_cell_angle_beta                 94.067(2)
_cell_angle_gamma                90
_cell_volume                     1031.25
_exptl_crystal_colour            colorless
_exptl_crystal_description       prism
_cell_formula_units_Z            4
loop_
_atom_site_label
_atom_site_type_symbol
_atom_site_fract_x
_atom_site_fract_y
_atom_site_fract_z
Cl1 Cl 1.24082(5) 0.27933(3) 0.588616(16)
O1 O 1.06936(13) 0.74395(8) 0.68263(4)
O2 O 0.40080(13) 0.84138(8) 0.53811(4)
N1 N 1.14618(15) 0.52542(9) 0.63769(5)
N2 N 0.73055(16) 0.96909(10) 0.57449(5)
C1 C 1.05220(18) 0.41984(10) 0.59921(5)
C2 C 0.82456(19) 0.41299(11) 0.56776(5)
C3 C 0.67439(18) 0.52541(11) 0.57819(5)
C4 C 0.76327(17) 0.63602(10) 0.61742(5)
C5 C 0.99831(17) 0.62969(10) 0.64441(5)
C6 C 0.65823(17) 0.76989(10) 0.64042(5)
C7 C 0.87657(17) 0.84349(10) 0.67660(5)
C8 C 0.91372(18) 0.97531(11) 0.63175(5)
C9 C 0.8597(2) 1.06553(12) 0.69672(6)
C10 C 0.8544(2) 0.93233(11) 0.74278(5)
C11 C 0.57792(18) 0.86315(10) 0.57818(5)
H1 H 0.775(3) 0.3348(17) 0.5413(8)
H2 H 0.711(3) 1.0331(19) 0.5430(9)
H3 H 0.514(3) 0.5243(16) 0.5597(8)
H4 H 0.527(2) 0.7563(14) 0.6701(7)
H5 H 1.070(2) 0.9869(15) 0.6148(7)
H6 H 0.707(3) 1.1126(18) 0.6904(9)
H7 H 0.986(3) 1.134(2) 0.7117(9)
H8 H 0.991(3) 0.9240(17) 0.7763(8)
H9 H 0.706(3) 0.9168(17) 0.7671(9)
loop_
_geom_bond_atom_site_label_1
_geom_bond_atom_site_label_2
_geom_bond_site_symmetry_1
_geom_bond_site_symmetry_2
Cl1 C1 1_555 1_555
O1 C5 1_555 1_555
O2 C11 1_555 1_555
N1 C1 1_555 1_555
N2 C8 1_555 1_555
C1 C2 1_555 1_555
C2 C3 1_555 1_555
C3 C4 1_555 1_555
C4 C5 1_555 1_555
C5 N1 1_555 1_555
C6 C4 1_555 1_555
C7 O1 1_555 1_555
C8 C7 1_555 1_555
C9 C8 1_555 1_555
C10 C7 1_555 1_555
C11 N2 1_555 1_555
H1 C2 1_555 1_555
H2 N2 1_555 1_555
H3 C3 1_555 1_555
H4 C6 1_555 1_555
H5 C8 1_555 1_555
H6 C9 1_555 1_555
H7 C9 1_555 1_555
H8 C10 1_555 1_555
H9 C10 1_555 1_555
C6 C7 1_555 1_555
C6 C11 1_555 1_555
C9 C10 1_555 1_555

#END
