
#######################################################################
#
#                 Cambridge Crystallographic Data Centre
#                                CCDC 
#
#######################################################################
#
# If this CIF has been generated from an entry in the Cambridge 
# Structural Database, then it will include bibliographic, chemical, 
# crystal, experimental, refinement or atomic coordinate data resulting 
# from the CCDC's data processing and validation procedures.
#
#######################################################################

data_ASOPOP
_chemical_formula_moiety         'C60,C14 H12 S6,C1 S2'
_chemical_name_systematic        
"1,3,6,8-tetramethylthieno[3,4-b]thieno[3',4':5,6][1,4]dithiino[2,3-e][1,4]dithiine C60fullerene carbon disulfide"
_symmetry_cell_setting           triclinic
_symmetry_space_group_name_H-M   'P -1'
_symmetry_Int_Tables_number      2
_space_group_name_Hall           '-P 1'
loop_
_symmetry_equiv_pos_site_id
_symmetry_equiv_pos_as_xyz
1 x,y,z
2 -x,-y,-z
_cell_length_a                   9.9766(4)
_cell_length_b                   10.6457(6)
_cell_length_c                   10.9297(6)
_cell_angle_alpha                77.433(5)
_cell_angle_beta                 81.220(4)
_cell_angle_gamma                80.005(4)
_cell_volume                     1107.82
_exptl_crystal_colour            black
_exptl_crystal_description       block
_chemical_melting_point          '534 K'
_cell_formula_units_Z            1
loop_
_atom_site_label
_atom_site_type_symbol
_atom_site_fract_x
_atom_site_fract_y
_atom_site_fract_z
C1 C 0.1106(3) 0.5933(3) 0.3908(3)
C2 C 0.1313(3) 0.7403(3) 0.5375(3)
C3 C 0.2340(3) 0.6369(3) 0.5393(3)
C4 C 0.5056(3) 0.5385(3) 0.5393(3)
C5 C 0.7778(3) 0.4470(3) 0.5434(3)
C6 C 0.0666(3) 0.5354(3) 0.2934(3)
H1 H 0.1385 0.4700 0.2686
H2 H 0.0475 0.6022 0.2211
H3 H -0.0145 0.4967 0.3278
C7 C 0.1100(3) 0.8501(3) 0.6073(3)
H4 H 0.0895 0.8172 0.6960
H5 H 0.0351 0.9135 0.5779
H6 H 0.1918 0.8898 0.5927
S1 S 0.01685(8) 0.73195(8) 0.43623(7)
S2 S 0.36518(8) 0.60414(8) 0.63767(7)
S3 S 0.66017(8) 0.58808(7) 0.55726(7)
C1A C 0.8894(3) 0.4067(3) 0.6092(3)
C2A C 0.8687(3) 0.2597(3) 0.4625(3)
C3A C 0.7660(3) 0.3631(3) 0.4607(3)
C4A C 0.4944(3) 0.4615(3) 0.4607(3)
C5A C 0.2222(3) 0.5530(3) 0.4566(3)
C6A C 0.9334(3) 0.4646(3) 0.7066(3)
H1A H 0.8615 0.5300 0.7314
H2A H 0.9525 0.3978 0.7789
H3A H 1.0145 0.5033 0.6722
C7A C 0.8900(3) 0.1499(3) 0.3927(3)
H4A H 0.9105 0.1828 0.3040
H5A H 0.9649 0.0865 0.4221
H6A H 0.8082 0.1102 0.4073
S1A S 0.98315(8) 0.26805(8) 0.56377(7)
S2A S 0.63482(8) 0.39586(8) 0.36233(7)
S3A S 0.33983(8) 0.41192(7) 0.44274(7)
C8 C 0.5507(4) 0.7271(3) 0.8525(3)
C9 C 0.4110(3) 0.7252(3) 0.9155(3)
C10 C 0.3239(3) 0.8312(3) 0.8458(3)
C11 C 0.4082(4) 0.8993(3) 0.7400(3)
C12 C 0.5492(4) 0.8346(3) 0.7447(3)
C13 C 0.6588(3) 0.6973(3) 0.9248(4)
C14 C 0.6335(4) 0.6655(3) 1.0607(4)
C15 C 0.7305(4) 0.7231(3) 1.1130(4)
C16 C 0.8144(3) 0.7886(4) 1.0084(4)
C17 C 0.7712(3) 0.7750(3) 0.8909(4)
C18 C 0.3874(3) 0.6938(3) 1.0460(3)
C19 C 0.2750(3) 0.7662(3) 1.1133(3)
C20 C 0.3192(4) 0.7815(3) 1.2290(3)
C21 C 0.4591(4) 0.7172(3) 1.2329(3)
C22 C 0.5018(4) 0.6632(3) 1.1197(3)
C23 C 0.6898(4) 0.7727(3) 1.2209(4)
C24 C 0.5512(4) 0.7709(3) 1.2829(3)
C25 C 0.5060(4) 0.8907(4) 1.3310(3)
C26 C 0.6183(4) 0.9670(4) 1.2967(3)
C27 C 0.7318(4) 0.8949(4) 1.2293(3)
C28 C 0.6561(4) 0.9071(4) 0.7130(3)
C29 C 0.7696(3) 0.8764(4) 0.7882(4)
C30 C 0.8110(3) 0.9991(4) 0.7957(4)
C31 C 0.7243(4) 1.1040(4) 0.7267(3)
C32 C 0.6275(4) 1.0487(4) 0.6746(3)
C33 C 0.8555(3) 0.9045(3) 1.0155(4)
C34 C 0.8530(3) 1.0125(4) 0.9070(4)
C35 C 0.8132(3) 0.9587(3) 1.1283(4)
C36 C 0.7848(3) 1.0988(3) 1.0900(3)
C37 C 0.1907(3) 0.8679(3) 1.0461(3)
C8A C 0.4493(4) 1.2729(3) 1.1475(3)
C9A C 0.5890(3) 1.2748(3) 1.0845(3)
C10A C 0.6761(3) 1.1688(3) 1.1542(3)
C11A C 0.5918(4) 1.1007(3) 1.2600(3)
C12A C 0.4508(4) 1.1654(3) 1.2553(3)
C13A C 0.3412(3) 1.3027(3) 1.0752(4)
C14A C 0.3665(4) 1.3345(3) 0.9393(4)
C15A C 0.2695(4) 1.2769(3) 0.8870(4)
C16A C 0.1856(3) 1.2114(4) 0.9916(4)
C17A C 0.2288(3) 1.2250(3) 1.1091(4)
C18A C 0.6126(3) 1.3062(3) 0.9540(3)
C19A C 0.7250(3) 1.2338(3) 0.8867(3)
C20A C 0.6808(4) 1.2185(3) 0.7710(3)
C21A C 0.5409(4) 1.2828(3) 0.7671(3)
C22A C 0.4982(4) 1.3368(3) 0.8803(3)
C23A C 0.3102(4) 1.2273(3) 0.7791(4)
C24A C 0.4488(4) 1.2291(3) 0.7171(3)
C25A C 0.4940(4) 1.1093(4) 0.6690(3)
C26A C 0.3817(4) 1.0330(4) 0.7033(3)
C27A C 0.2682(4) 1.1051(4) 0.7707(3)
C28A C 0.3439(4) 1.0929(4) 1.2870(3)
C29A C 0.2304(3) 1.1236(4) 1.2118(4)
C30A C 0.1890(3) 1.0009(4) 1.2043(4)
C31A C 0.2757(4) 0.8960(4) 1.2733(3)
C32A C 0.3725(4) 0.9513(4) 1.3254(3)
C33A C 0.1445(3) 1.0955(3) 0.9845(4)
C34A C 0.1470(3) 0.9875(4) 1.0930(4)
C35A C 0.1868(3) 1.0413(3) 0.8717(4)
C36A C 0.2152(3) 0.9012(3) 0.9100(3)
C37A C 0.8093(3) 1.1321(3) 0.9539(3)
C38 C 1.0000 0.5000 1.0000
S4 S 0.89324(9) 0.41378(8) 1.07528(9)
S4A S 1.10676(9) 0.58622(8) 0.92472(9)
loop_
_geom_bond_atom_site_label_1
_geom_bond_atom_site_label_2
_geom_bond_site_symmetry_1
_geom_bond_site_symmetry_2
C1 C6 1_555 1_555
C2 C3 1_555 1_555
C3 S2 1_555 1_555
C4 S2 1_555 1_555
C5 S3 1_555 1_555
C6 H1 1_555 1_555
H2 C6 1_555 1_555
H3 C6 1_555 1_555
C7 C2 1_555 1_555
H4 C7 1_555 1_555
H5 C7 1_555 1_555
H6 C7 1_555 1_555
S1 C1 1_555 1_555
S3 C4 1_555 1_555
C8 C9 1_555 1_555
C9 C10 1_555 1_555
C10 C11 1_555 1_555
C11 C12 1_555 1_555
C12 C8 1_555 1_555
C13 C8 1_555 1_555
C14 C13 1_555 1_555
C15 C14 1_555 1_555
C16 C15 1_555 1_555
C17 C13 1_555 1_555
C18 C9 1_555 1_555
C19 C18 1_555 1_555
C20 C19 1_555 1_555
C21 C20 1_555 1_555
C22 C14 1_555 1_555
C23 C15 1_555 1_555
C24 C21 1_555 1_555
C25 C24 1_555 1_555
C26 C25 1_555 1_555
C27 C23 1_555 1_555
C28 C12 1_555 1_555
C29 C17 1_555 1_555
C30 C29 1_555 1_555
C31 C30 1_555 1_555
C32 C28 1_555 1_555
C33 C16 1_555 1_555
C34 C30 1_555 1_555
C35 C27 1_555 1_555
C36 C35 1_555 1_555
C37 C19 1_555 1_555
C38 S4 1_555 1_555
C1A C5 1_555 1_555
C2A C3A 1_555 1_555
C3A C5 1_555 1_555
C4A C4 1_555 1_555
C5A C1 1_555 1_555
C6A C1A 1_555 1_555
H1A C6A 1_555 1_555
H2A C6A 1_555 1_555
H3A C6A 1_555 1_555
C7A C2A 1_555 1_555
H4A C7A 1_555 1_555
H5A C7A 1_555 1_555
H6A C7A 1_555 1_555
S1A C1A 1_555 1_555
S2A C3A 1_555 1_555
S3A C4A 1_555 1_555
C8A C9A 1_555 1_555
C9A C10A 1_555 1_555
C10A C36 1_555 1_555
C11A C26 1_555 1_555
C12A C8A 1_555 1_555
C13A C8A 1_555 1_555
C14A C13A 1_555 1_555
C15A C14A 1_555 1_555
C16A C15A 1_555 1_555
C17A C13A 1_555 1_555
C18A C9A 1_555 1_555
C19A C18A 1_555 1_555
C20A C31 1_555 1_555
C21A C20A 1_555 1_555
C22A C14A 1_555 1_555
C23A C15A 1_555 1_555
C24A C21A 1_555 1_555
C25A C32 1_555 1_555
C26A C11 1_555 1_555
C27A C23A 1_555 1_555
C28A C12A 1_555 1_555
C29A C17A 1_555 1_555
C30A C29A 1_555 1_555
C31A C20 1_555 1_555
C32A C25 1_555 1_555
C33A C16A 1_555 1_555
C34A C37 1_555 1_555
C35A C27A 1_555 1_555
C36A C10 1_555 1_555
C37A C34 1_555 1_555
S4A C38 1_555 1_555
C2 S1 1_555 1_555
C3 C5A 1_555 1_555
C16 C17 1_555 1_555
C18 C22 1_555 1_555
C21 C22 1_555 1_555
C23 C24 1_555 1_555
C26 C27 1_555 1_555
C28 C29 1_555 1_555
C31 C32 1_555 1_555
C33 C34 1_555 1_555
C33 C35 1_555 1_555
C36 C37A 1_555 1_555
C37 C36A 1_555 1_555
C2A S1A 1_555 1_555
C4A S2A 1_555 1_555
C5A S3A 1_555 1_555
C10A C11A 1_555 1_555
C11A C12A 1_555 1_555
C16A C17A 1_555 1_555
C18A C22A 1_555 1_555
C19A C20A 1_555 1_555
C19A C37A 1_555 1_555
C21A C22A 1_555 1_555
C23A C24A 1_555 1_555
C24A C25A 1_555 1_555
C25A C26A 1_555 1_555
C26A C27A 1_555 1_555
C28A C29A 1_555 1_555
C28A C32A 1_555 1_555
C30A C31A 1_555 1_555
C30A C34A 1_555 1_555
C31A C32A 1_555 1_555
C33A C34A 1_555 1_555
C33A C35A 1_555 1_555
C35A C36A 1_555 1_555

#END
