
#######################################################################
#
#                 Cambridge Crystallographic Data Centre
#                                CCDC 
#
#######################################################################
#
# If this CIF has been generated from an entry in the Cambridge 
# Structural Database, then it will include bibliographic, chemical, 
# crystal, experimental, refinement or atomic coordinate data resulting 
# from the CCDC's data processing and validation procedures.
#
#######################################################################

data_ASOPAB
_chemical_formula_moiety         'C14 H10 S5'
_chemical_name_systematic        
1,3-dimethylthieno[3',4':5,6][1,4]dithiino[2,3-b][1,4]benzodithiine
_symmetry_cell_setting           triclinic
_symmetry_space_group_name_H-M   'P -1'
_symmetry_Int_Tables_number      2
_space_group_name_Hall           '-P 1'
loop_
_symmetry_equiv_pos_site_id
_symmetry_equiv_pos_as_xyz
1 x,y,z
2 -x,-y,-z
_cell_length_a                   7.4061(9)
_cell_length_b                   7.7951(9)
_cell_length_c                   12.6647(11)
_cell_angle_alpha                83.801(8)
_cell_angle_beta                 83.450(9)
_cell_angle_gamma                77.253(10)
_cell_volume                     705.883
_exptl_crystal_colour            white
_exptl_crystal_description       needle
_chemical_melting_point          '523 K'
_cell_formula_units_Z            2
_exptl_crystal_recrystallization_method dichloromethane
loop_
_atom_site_label
_atom_site_type_symbol
_atom_site_fract_x
_atom_site_fract_y
_atom_site_fract_z
S1 S 0.28416(11) 0.22080(11) 0.08387(6)
S2 S 0.28013(11) -0.01663(11) 0.31721(6)
S3 S -0.00517(10) 0.50033(10) 0.17727(6)
S4 S -0.01086(11) 0.26841(11) 0.40496(6)
S5 S 0.82746(11) 0.00016(11) 0.17718(7)
C1 C 0.4881(4) 0.0143(4) 0.2427(2)
C2 C 0.4909(4) 0.1141(4) 0.1413(2)
C3 C 0.1409(4) 0.2911(4) 0.1987(2)
C4 C -0.2165(4) 0.4656(4) 0.2473(2)
C5 C -0.2183(4) 0.3656(4) 0.3454(2)
C6 C 0.1384(4) 0.1957(4) 0.2937(2)
C7 C 0.6641(4) 0.1231(4) 0.0968(2)
C8 C -0.3875(4) 0.3469(4) 0.4009(2)
H1 H -0.3897 0.2758 0.4648
C9 C -0.3821(4) 0.5462(4) 0.2062(2)
H2 H -0.3808 0.6093 0.1395
C10 C 0.6609(4) -0.0545(4) 0.2742(2)
C11 C 0.7240(5) 0.2233(5) -0.0051(3)
H3 H 0.8493 0.2367 -0.0031
H4 H 0.6430 0.3377 -0.0122
H5 H 0.7177 0.1594 -0.0648
C12 C 0.7161(5) -0.1575(5) 0.3771(2)
H6 H 0.8483 -0.2012 0.3718
H7 H 0.6545 -0.2550 0.3908
H8 H 0.6807 -0.0822 0.4344
C13 C -0.5530(4) 0.4353(4) 0.3604(3)
H9 H -0.6660 0.4277 0.3989
C14 C -0.5505(4) 0.5337(4) 0.2637(3)
H10 H -0.6615 0.5919 0.2368
loop_
_geom_bond_atom_site_label_1
_geom_bond_atom_site_label_2
_geom_bond_site_symmetry_1
_geom_bond_site_symmetry_2
S1 C2 1_555 1_555
S2 C1 1_555 1_555
S3 C3 1_555 1_555
S4 C5 1_555 1_555
S5 C7 1_555 1_555
C1 C2 1_555 1_555
C2 C7 1_555 1_555
C3 S1 1_555 1_555
C4 S3 1_555 1_555
C5 C4 1_555 1_555
C6 S2 1_555 1_555
C7 C11 1_555 1_555
C8 C5 1_555 1_555
H1 C8 1_555 1_555
C9 C4 1_555 1_555
H2 C9 1_555 1_555
C10 S5 1_555 1_555
C11 H3 1_555 1_555
H4 C11 1_555 1_555
H5 C11 1_555 1_555
C12 C10 1_555 1_555
H6 C12 1_555 1_555
H7 C12 1_555 1_555
H8 C12 1_555 1_555
C13 C8 1_555 1_555
H9 C13 1_555 1_555
C14 C9 1_555 1_555
H10 C14 1_555 1_555
S4 C6 1_555 1_555
C1 C10 1_555 1_555
C3 C6 1_555 1_555
C13 C14 1_555 1_555

#END
