
#######################################################################
#
#                 Cambridge Crystallographic Data Centre
#                                CCDC 
#
#######################################################################
#
# If this CIF has been generated from an entry in the Cambridge 
# Structural Database, then it will include bibliographic, chemical, 
# crystal, experimental, refinement or atomic coordinate data resulting 
# from the CCDC's data processing and validation procedures.
#
#######################################################################

data_ASOSAD
_chemical_formula_moiety         'C33 H40 N4 O6'
_chemical_name_systematic        
(-)-6,17-Dibenzyl-9-isopropyldodecahydro-5H,11H-dipyrrolo[2,1-c:2',1'-i][1,4,7,10,13]oxatetraazacyclopentadecine-5,8,11,16,19(9H)-pentone
_symmetry_cell_setting           orthorhombic
_symmetry_space_group_name_H-M   'P 21 21 21'
_symmetry_Int_Tables_number      19
_space_group_name_Hall           'P 2ac 2ab'
loop_
_symmetry_equiv_pos_site_id
_symmetry_equiv_pos_as_xyz
1 x,y,z
2 1/2-x,-y,1/2+z
3 -x,1/2+y,1/2-z
4 1/2+x,1/2-y,-z
_cell_length_a                   12.0808(4)
_cell_length_b                   22.0624(7)
_cell_length_c                   34.9650(11)
_cell_angle_alpha                90
_cell_angle_beta                 90
_cell_angle_gamma                90
_cell_volume                     9319.27
_exptl_crystal_colour            colorless
_exptl_crystal_description       prism
_cell_formula_units_Z            12
loop_
_atom_site_label
_atom_site_type_symbol
_atom_site_fract_x
_atom_site_fract_y
_atom_site_fract_z
C1 C 0.92073(15) 0.49324(8) 0.24370(5)
O1 O 0.86007(9) 0.54444(5) 0.23997(3)
O2 O 0.89832(13) 0.44584(6) 0.22900(4)
C2 C 0.76066(14) 0.54095(8) 0.21662(5)
H1 H 0.7530 0.4985 0.2070
C3 C 0.66025(15) 0.55555(9) 0.24144(6)
H2 H 0.5926 0.5482 0.2256
C4 C 0.65756(19) 0.62163(10) 0.25433(6)
H3 H 0.7270 0.6316 0.2674
H4 H 0.5953 0.6278 0.2719
H5 H 0.6487 0.6480 0.2320
C5 C 0.6558(2) 0.51243(12) 0.27563(7)
H6 H 0.7167 0.5217 0.2932
H7 H 0.6628 0.4705 0.2666
H8 H 0.5850 0.5174 0.2890
C6 C 0.77168(14) 0.58294(7) 0.18232(5)
O3 O 0.69013(10) 0.59369(6) 0.16264(4)
N1 N 0.87193(12) 0.60625(7) 0.17511(4)
H9 H 0.9203(17) 0.5980(9) 0.1888(6)
C7 C 0.88954(15) 0.64865(8) 0.14336(5)
H10 H 0.8182 0.6701 0.1381
C8 C 0.92669(18) 0.61674(9) 0.10665(5)
H11 H 1.0065 0.6070 0.1086
H12 H 0.8856 0.5781 0.1040
C9 C 0.90729(16) 0.65525(9) 0.07156(5)
C10 C 0.80726(18) 0.64978(11) 0.05194(6)
H13 H 0.7527 0.6220 0.0607
C11 C 0.78703(19) 0.68492(11) 0.01956(6)
H14 H 0.7183 0.6816 0.0065
C12 C 0.8667(2) 0.72453(10) 0.00643(6)
H15 H 0.8538 0.7475 -0.0161
C13 C 0.9655(2) 0.73080(9) 0.02599(5)
H16 H 1.0196 0.7587 0.0171
C14 C 0.98582(18) 0.69662(9) 0.05839(5)
H17 H 1.0537 0.7013 0.0718
C15 C 0.97401(15) 0.69521(8) 0.15783(5)
O4 O 1.07219(11) 0.69240(7) 0.14798(4)
N2 N 0.93802(11) 0.73453(7) 0.18414(4)
C16 C 0.82210(16) 0.74618(10) 0.19436(7)
H18 H 0.7861 0.7087 0.2037
H19 H 0.7803 0.7615 0.1720
C17 C 0.82660(18) 0.79311(10) 0.22529(7)
H20 H 0.8203 0.7740 0.2508
H21 H 0.7657 0.8228 0.2223
C18 C 0.93831(18) 0.82392(9) 0.22079(8)
H22 H 0.9338 0.8578 0.2023
H23 H 0.9650 0.8397 0.2456
C19 C 1.01376(15) 0.77443(8) 0.20605(6)
H24 H 1.0730 0.7914 0.1892
C20 C 1.06353(14) 0.73577(8) 0.23839(5)
O5 O 1.03295(12) 0.73916(7) 0.27141(4)
N3 N 1.14253(12) 0.69650(7) 0.22630(5)
H25 H 1.1455(17) 0.6907(9) 0.2028(6)
C21 C 1.17776(14) 0.64645(8) 0.25028(5)
H26 H 1.1742 0.6589 0.2778
C22 C 1.29667(14) 0.62602(9) 0.24053(6)
H27 H 1.3036 0.6205 0.2125
H28 H 1.3497 0.6578 0.2485
C23 C 1.32505(14) 0.56691(9) 0.26064(6)
C24 C 1.35284(16) 0.56633(10) 0.29929(6)
H29 H 1.3619 0.6034 0.3127
C25 C 1.36732(17) 0.51143(11) 0.31826(6)
H30 H 1.3865 0.5113 0.3446
C26 C 1.35400(17) 0.45718(11) 0.29910(7)
H31 H 1.3620 0.4199 0.3124
C27 C 1.32899(17) 0.45741(10) 0.26052(7)
H32 H 1.3215 0.4203 0.2470
C28 C 1.31483(16) 0.51228(10) 0.24169(6)
H33 H 1.2977 0.5122 0.2152
C29 C 1.10240(13) 0.59163(7) 0.24385(5)
O6 O 1.08585(10) 0.57325(6) 0.21084(3)
N4 N 1.06222(11) 0.56219(6) 0.27418(4)
C30 C 1.06142(16) 0.58284(8) 0.31430(5)
H34 H 1.0382 0.6258 0.3163
H35 H 1.1349 0.5778 0.3264
C31 C 0.9758(2) 0.54038(10) 0.33195(6)
H36 H 0.9883 0.5357 0.3598
H37 H 0.8998 0.5557 0.3277
C32 C 0.99398(18) 0.48160(9) 0.31140(5)
H38 H 0.9269 0.4559 0.3126
H39 H 1.0570 0.4591 0.3226
C33 C 1.01926(14) 0.50028(7) 0.26989(5)
H40 H 1.0804 0.4740 0.2601
C34 C 0.59331(15) 0.47104(7) 0.08523(5)
O7 O 0.66183(9) 0.42284(5) 0.08629(3)
O8 O 0.61307(13) 0.51755(6) 0.06891(5)
C35 C 0.76724(14) 0.42841(8) 0.06656(5)
H41 H 0.7790 0.4721 0.0600
C36 C 0.86009(15) 0.40845(9) 0.09367(5)
H42 H 0.9320 0.4205 0.0817
C37 C 0.86339(18) 0.34001(9) 0.09991(6)
H43 H 0.7911 0.3261 0.1091
H44 H 0.9202 0.3302 0.1189
H45 H 0.8810 0.3198 0.0757
C38 C 0.85101(18) 0.44200(10) 0.13177(6)
H46 H 0.8421 0.4855 0.1270
H47 H 0.9184 0.4352 0.1468
H48 H 0.7868 0.4268 0.1460
C39 C 0.76419(14) 0.39214(7) 0.02955(5)
O9 O 0.84961(10) 0.38605(6) 0.01093(4)
N5 N 0.66604(12) 0.36843(7) 0.01918(4)
H49 H 0.6090(17) 0.3770(9) 0.0312(6)
C40 C 0.65301(15) 0.33404(8) -0.01633(5)
H50 H 0.7262 0.3164 -0.0237
C41 C 0.61211(17) 0.37529(9) -0.04870(5)
H51 H 0.5325 0.3839 -0.0448
H52 H 0.6524 0.4143 -0.0474
C42 C 0.62777(16) 0.34820(9) -0.08798(5)
C43 C 0.72808(17) 0.35596(11) -0.10682(6)
H53 H 0.7856 0.3783 -0.0948
C44 C 0.7454(2) 0.33179(13) -0.14270(6)
H54 H 0.8142 0.3378 -0.1553
C45 C 0.6628(2) 0.29883(12) -0.16034(6)
H55 H 0.6746 0.2823 -0.1851
C46 C 0.5633(2) 0.28996(10) -0.14198(6)
H56 H 0.5067 0.2669 -0.1540
C47 C 0.54555(17) 0.31457(9) -0.10605(6)
H57 H 0.4765 0.3084 -0.0936
C48 C 0.57215(14) 0.28224(8) -0.00774(5)
O10 O 0.47726(10) 0.28253(6) -0.02074(4)
N6 N 0.60769(11) 0.23918(6) 0.01638(4)
C49 C 0.71558(15) 0.23476(9) 0.03518(6)
H58 H 0.7201 0.2634 0.0569
H59 H 0.7759 0.2442 0.0169
C50 C 0.72447(19) 0.17080(10) 0.04887(9)
H60 H 0.7449 0.1700 0.0763
H61 H 0.7821 0.1489 0.0342
C51 C 0.61147(17) 0.14067(9) 0.04297(7)
H62 H 0.6153 0.1099 0.0224
H63 H 0.5863 0.1207 0.0668
C52 C 0.53296(15) 0.19204(8) 0.03190(5)
H64 H 0.4784 0.1784 0.0122
C53 C 0.47402(15) 0.21998(8) 0.06673(5)
O11 O 0.49476(12) 0.20544(7) 0.09942(4)
N7 N 0.39882(13) 0.26359(7) 0.05738(4)
H65 H 0.4033(16) 0.2763(9) 0.0336(6)
C54 C 0.35886(14) 0.30757(8) 0.08506(5)
H66 H 0.3689 0.2915 0.1116
C55 C 0.23529(15) 0.32197(9) 0.07785(6)
H67 H 0.2232 0.3273 0.0500
H68 H 0.1899 0.2872 0.0864
C56 C 0.19719(14) 0.37849(10) 0.09852(6)
C57 C 0.16800(16) 0.37700(12) 0.13690(6)
H69 H 0.1648 0.3394 0.1501
C58 C 0.14315(18) 0.43110(15) 0.15620(7)
H70 H 0.1238 0.4300 0.1825
C59 C 0.14654(19) 0.48559(13) 0.13740(8)
H71 H 0.1309 0.5221 0.1508
C60 C 0.17263(18) 0.48734(11) 0.09920(8)
H72 H 0.1736 0.5250 0.0861
C61 C 0.19765(16) 0.43414(10) 0.07963(7)
H73 H 0.2152 0.4358 0.0532
C62 C 0.42342(13) 0.36685(7) 0.08037(5)
O12 O 0.43958(10) 0.38740(5) 0.04792(3)
N8 N 0.45444(11) 0.39754(6) 0.11159(4)
C63 C 0.45695(15) 0.37595(8) 0.15160(5)
H74 H 0.4916 0.3354 0.1535
H75 H 0.3816 0.3742 0.1626
C64 C 0.52747(16) 0.42405(9) 0.17141(5)
H76 H 0.5076 0.4277 0.1988
H77 H 0.6073 0.4144 0.1693
C65 C 0.49950(15) 0.48204(8) 0.14968(5)
H78 H 0.5594 0.5124 0.1523
H79 H 0.4294 0.4999 0.1591
C66 C 0.48805(13) 0.46105(7) 0.10785(5)
H80 H 0.4266 0.4843 0.0955
C67 C 0.58875(14) 0.47365(8) 0.40162(5)
O13 O 0.65435(9) 0.42399(5) 0.40254(3)
O14 O 0.60174(12) 0.51561(6) 0.38038(5)
C68 C 0.74837(14) 0.42323(8) 0.37672(5)
H81 H 0.7568 0.4646 0.3654
C69 C 0.85238(15) 0.40878(9) 0.39972(6)
H82 H 0.9165 0.4110 0.3817
C70 C 0.85123(18) 0.34486(10) 0.41660(7)
H83 H 0.7859 0.3400 0.4329
H84 H 0.9183 0.3386 0.4318
H85 H 0.8487 0.3151 0.3958
C71 C 0.87063(18) 0.45698(12) 0.43006(7)
H86 H 0.8717 0.4971 0.4180
H87 H 0.9415 0.4497 0.4429
H88 H 0.8105 0.4553 0.4488
C72 C 0.72967(15) 0.37844(8) 0.34447(5)
O15 O 0.80586(11) 0.36740(6) 0.32235(4)
N9 N 0.63015(13) 0.35211(7) 0.34187(4)
H89 H 0.5793(17) 0.3664(9) 0.3565(6)
C73 C 0.60804(15) 0.30777(8) 0.31158(5)
H90 H 0.6773 0.2845 0.3062
C74 C 0.56879(18) 0.33850(8) 0.27433(5)
H91 H 0.4879 0.3453 0.2758
H92 H 0.6050 0.3786 0.2720
C75 C 0.59402(16) 0.30182(8) 0.23935(5)
C76 C 0.69832(16) 0.30618(9) 0.22257(5)
H93 H 0.7527 0.3318 0.2337
C77 C 0.72357(19) 0.27350(11) 0.18985(6)
H94 H 0.7949 0.2767 0.1786
C78 C 0.6446(2) 0.23625(10) 0.17361(6)
H95 H 0.6616 0.2140 0.1511
C79 C 0.5417(2) 0.23125(10) 0.18989(6)
H96 H 0.4877 0.2056 0.1786
C80 C 0.51617(17) 0.26359(9) 0.22290(6)
H97 H 0.4451 0.2595 0.2342
C81 C 0.52090(14) 0.26453(8) 0.32828(5)
O16 O 0.42278(10) 0.26871(6) 0.31916(4)
N10 N 0.55620(11) 0.22611(6) 0.35536(4)
C82 C 0.67211(15) 0.21363(9) 0.36581(6)
H98 H 0.7090 0.2508 0.3752
H99 H 0.7138 0.1978 0.3436
C83 C 0.66497(17) 0.16651(9) 0.39713(6)
H100 H 0.6712 0.1857 0.4226
H101 H 0.7245 0.1360 0.3944
C84 C 0.55127(17) 0.13732(8) 0.39195(6)
H102 H 0.5542 0.1043 0.3728
H103 H 0.5236 0.1207 0.4164
C85 C 0.47862(15) 0.18887(8) 0.37820(5)
H104 H 0.4166 0.1734 0.3620
C86 C 0.43446(14) 0.22819(8) 0.41128(5)
O17 O 0.45867(12) 0.21876(6) 0.44455(4)
N11 N 0.36862(12) 0.27447(7) 0.39980(4)
H105 H 0.3651(17) 0.2805(9) 0.3758(6)
C87 C 0.33920(15) 0.32473(8) 0.42474(5)
H106 H 0.3514 0.3132 0.4521
C88 C 0.21632(15) 0.34236(9) 0.41827(6)
H107 H 0.2034 0.3483 0.3906
H108 H 0.1684 0.3086 0.4269
C89 C 0.18390(15) 0.39973(9) 0.43944(6)
C90 C 0.14746(17) 0.39760(10) 0.47705(6)
H109 H 0.1386 0.3596 0.4894
C91 C 0.12368(18) 0.45103(11) 0.49680(6)
H110 H 0.0998 0.4491 0.5227
C92 C 0.13447(17) 0.50644(10) 0.47925(7)
H111 H 0.1187 0.5426 0.4929
C93 C 0.16839(17) 0.50905(10) 0.44161(7)
H112 H 0.1755 0.5471 0.4292
C94 C 0.19211(16) 0.45603(9) 0.42193(7)
H113 H 0.2145 0.4583 0.3959
C95 C 0.41092(13) 0.37970(8) 0.41438(5)
O18 O 0.42414(10) 0.39270(5) 0.38028(3)
N12 N 0.45329(12) 0.41434(6) 0.44224(4)
C96 C 0.44599(17) 0.40517(9) 0.48420(5)
H114 H 0.5021 0.3757 0.4932
H115 H 0.3715 0.3908 0.4918
C97 C 0.46889(18) 0.46808(10) 0.49986(6)
H116 H 0.5022 0.4659 0.5257
H117 H 0.4002 0.4925 0.5011
C98 C 0.55010(16) 0.49468(10) 0.47107(6)
H118 H 0.6257 0.4786 0.4751
H119 H 0.5520 0.5395 0.4726
C99 C 0.50196(14) 0.47333(8) 0.43261(5)
H120 H 0.4410 0.5016 0.4250
loop_
_geom_bond_atom_site_label_1
_geom_bond_atom_site_label_2
_geom_bond_site_symmetry_1
_geom_bond_site_symmetry_2
C1 O1 1_555 1_555
O1 C2 1_555 1_555
O2 C1 1_555 1_555
C2 H1 1_555 1_555
C3 C2 1_555 1_555
H2 C3 1_555 1_555
C4 C3 1_555 1_555
H3 C4 1_555 1_555
H4 C4 1_555 1_555
H5 C4 1_555 1_555
C5 C3 1_555 1_555
H6 C5 1_555 1_555
H7 C5 1_555 1_555
H8 C5 1_555 1_555
C6 C2 1_555 1_555
O3 C6 1_555 1_555
N1 C6 1_555 1_555
H9 N1 1_555 1_555
C7 N1 1_555 1_555
H10 C7 1_555 1_555
C8 C7 1_555 1_555
H11 C8 1_555 1_555
H12 C8 1_555 1_555
C9 C8 1_555 1_555
C10 C9 1_555 1_555
H13 C10 1_555 1_555
C11 C10 1_555 1_555
H14 C11 1_555 1_555
C12 C11 1_555 1_555
H15 C12 1_555 1_555
C13 C12 1_555 1_555
H16 C13 1_555 1_555
C14 C9 1_555 1_555
H17 C14 1_555 1_555
C15 C7 1_555 1_555
O4 C15 1_555 1_555
N2 C15 1_555 1_555
C16 N2 1_555 1_555
H18 C16 1_555 1_555
H19 C16 1_555 1_555
C17 C16 1_555 1_555
H20 C17 1_555 1_555
H21 C17 1_555 1_555
C18 C17 1_555 1_555
H22 C18 1_555 1_555
H23 C18 1_555 1_555
C19 N2 1_555 1_555
H24 C19 1_555 1_555
C20 C19 1_555 1_555
O5 C20 1_555 1_555
N3 C20 1_555 1_555
H25 N3 1_555 1_555
C21 N3 1_555 1_555
H26 C21 1_555 1_555
C22 C21 1_555 1_555
H27 C22 1_555 1_555
H28 C22 1_555 1_555
C23 C22 1_555 1_555
C24 C23 1_555 1_555
H29 C24 1_555 1_555
C25 C24 1_555 1_555
H30 C25 1_555 1_555
C26 C25 1_555 1_555
H31 C26 1_555 1_555
C27 C26 1_555 1_555
H32 C27 1_555 1_555
C28 C23 1_555 1_555
H33 C28 1_555 1_555
C29 C21 1_555 1_555
O6 C29 1_555 1_555
N4 C29 1_555 1_555
C30 N4 1_555 1_555
H34 C30 1_555 1_555
H35 C30 1_555 1_555
C31 C30 1_555 1_555
H36 C31 1_555 1_555
H37 C31 1_555 1_555
C32 C31 1_555 1_555
H38 C32 1_555 1_555
H39 C32 1_555 1_555
C33 C1 1_555 1_555
H40 C33 1_555 1_555
C34 O7 1_555 1_555
O7 C35 1_555 1_555
O8 C34 1_555 1_555
C35 H41 1_555 1_555
C36 C35 1_555 1_555
H42 C36 1_555 1_555
C37 C36 1_555 1_555
H43 C37 1_555 1_555
H44 C37 1_555 1_555
H45 C37 1_555 1_555
C38 C36 1_555 1_555
H46 C38 1_555 1_555
H47 C38 1_555 1_555
H48 C38 1_555 1_555
C39 C35 1_555 1_555
O9 C39 1_555 1_555
N5 C39 1_555 1_555
H49 N5 1_555 1_555
C40 N5 1_555 1_555
H50 C40 1_555 1_555
C41 C40 1_555 1_555
H51 C41 1_555 1_555
H52 C41 1_555 1_555
C42 C41 1_555 1_555
C43 C42 1_555 1_555
H53 C43 1_555 1_555
C44 C43 1_555 1_555
H54 C44 1_555 1_555
C45 C44 1_555 1_555
H55 C45 1_555 1_555
C46 C45 1_555 1_555
H56 C46 1_555 1_555
C47 C42 1_555 1_555
H57 C47 1_555 1_555
C48 C40 1_555 1_555
O10 C48 1_555 1_555
N6 C48 1_555 1_555
C49 N6 1_555 1_555
H58 C49 1_555 1_555
H59 C49 1_555 1_555
C50 C49 1_555 1_555
H60 C50 1_555 1_555
H61 C50 1_555 1_555
C51 C50 1_555 1_555
H62 C51 1_555 1_555
H63 C51 1_555 1_555
C52 N6 1_555 1_555
H64 C52 1_555 1_555
C53 C52 1_555 1_555
O11 C53 1_555 1_555
N7 C53 1_555 1_555
H65 N7 1_555 1_555
C54 N7 1_555 1_555
H66 C54 1_555 1_555
C55 C54 1_555 1_555
H67 C55 1_555 1_555
H68 C55 1_555 1_555
C56 C55 1_555 1_555
C57 C56 1_555 1_555
H69 C57 1_555 1_555
C58 C57 1_555 1_555
H70 C58 1_555 1_555
C59 C58 1_555 1_555
H71 C59 1_555 1_555
C60 C59 1_555 1_555
H72 C60 1_555 1_555
C61 C56 1_555 1_555
H73 C61 1_555 1_555
C62 C54 1_555 1_555
O12 C62 1_555 1_555
N8 C62 1_555 1_555
C63 N8 1_555 1_555
H74 C63 1_555 1_555
H75 C63 1_555 1_555
C64 C63 1_555 1_555
H76 C64 1_555 1_555
H77 C64 1_555 1_555
C65 C64 1_555 1_555
H78 C65 1_555 1_555
H79 C65 1_555 1_555
C66 C34 1_555 1_555
H80 C66 1_555 1_555
C67 O13 1_555 1_555
O13 C68 1_555 1_555
O14 C67 1_555 1_555
C68 H81 1_555 1_555
C69 C68 1_555 1_555
H82 C69 1_555 1_555
C70 C69 1_555 1_555
H83 C70 1_555 1_555
H84 C70 1_555 1_555
H85 C70 1_555 1_555
C71 C69 1_555 1_555
H86 C71 1_555 1_555
H87 C71 1_555 1_555
H88 C71 1_555 1_555
C72 C68 1_555 1_555
O15 C72 1_555 1_555
N9 C72 1_555 1_555
H89 N9 1_555 1_555
C73 N9 1_555 1_555
H90 C73 1_555 1_555
C74 C73 1_555 1_555
H91 C74 1_555 1_555
H92 C74 1_555 1_555
C75 C74 1_555 1_555
C76 C75 1_555 1_555
H93 C76 1_555 1_555
C77 C76 1_555 1_555
H94 C77 1_555 1_555
C78 C77 1_555 1_555
H95 C78 1_555 1_555
C79 C78 1_555 1_555
H96 C79 1_555 1_555
C80 C75 1_555 1_555
H97 C80 1_555 1_555
C81 C73 1_555 1_555
O16 C81 1_555 1_555
N10 C81 1_555 1_555
C82 N10 1_555 1_555
H98 C82 1_555 1_555
H99 C82 1_555 1_555
C83 C82 1_555 1_555
H100 C83 1_555 1_555
H101 C83 1_555 1_555
C84 C83 1_555 1_555
H102 C84 1_555 1_555
H103 C84 1_555 1_555
C85 N10 1_555 1_555
H104 C85 1_555 1_555
C86 C85 1_555 1_555
O17 C86 1_555 1_555
N11 C86 1_555 1_555
H105 N11 1_555 1_555
C87 N11 1_555 1_555
H106 C87 1_555 1_555
C88 C87 1_555 1_555
H107 C88 1_555 1_555
H108 C88 1_555 1_555
C89 C88 1_555 1_555
C90 C89 1_555 1_555
H109 C90 1_555 1_555
C91 C90 1_555 1_555
H110 C91 1_555 1_555
C92 C91 1_555 1_555
H111 C92 1_555 1_555
C93 C92 1_555 1_555
H112 C93 1_555 1_555
C94 C89 1_555 1_555
H113 C94 1_555 1_555
C95 C87 1_555 1_555
O18 C95 1_555 1_555
N12 C95 1_555 1_555
C96 N12 1_555 1_555
H114 C96 1_555 1_555
H115 C96 1_555 1_555
C97 C96 1_555 1_555
H116 C97 1_555 1_555
H117 C97 1_555 1_555
C98 C97 1_555 1_555
H118 C98 1_555 1_555
H119 C98 1_555 1_555
C99 C67 1_555 1_555
H120 C99 1_555 1_555
C13 C14 1_555 1_555
C18 C19 1_555 1_555
C27 C28 1_555 1_555
N4 C33 1_555 1_555
C32 C33 1_555 1_555
C46 C47 1_555 1_555
C51 C52 1_555 1_555
C60 C61 1_555 1_555
N8 C66 1_555 1_555
C65 C66 1_555 1_555
C79 C80 1_555 1_555
C84 C85 1_555 1_555
C93 C94 1_555 1_555
N12 C99 1_555 1_555
C98 C99 1_555 1_555

#END
