
#######################################################################
#
#                 Cambridge Crystallographic Data Centre
#                                CCDC 
#
#######################################################################
#
# If this CIF has been generated from an entry in the Cambridge 
# Structural Database, then it will include bibliographic, chemical, 
# crystal, experimental, refinement or atomic coordinate data resulting 
# from the CCDC's data processing and validation procedures.
#
#######################################################################

data_ASOSUX
_chemical_formula_moiety         'C16 H23 N3'
_chemical_name_systematic        5-Benzyl-N,1-di-isopropyl-1H-imidazol-2-amine
_symmetry_cell_setting           monoclinic
_symmetry_space_group_name_H-M   'P 21/c'
_symmetry_Int_Tables_number      14
_space_group_name_Hall           '-P 2ybc'
loop_
_symmetry_equiv_pos_site_id
_symmetry_equiv_pos_as_xyz
1 x,y,z
2 -x,1/2+y,1/2-z
3 -x,-y,-z
4 x,1/2-y,1/2+z
_cell_length_a                   9.351(10)
_cell_length_b                   18.284(19)
_cell_length_c                   9.351(10)
_cell_angle_alpha                90
_cell_angle_beta                 95.07
_cell_angle_gamma                90
_cell_volume                     1592.52
_exptl_crystal_colour            colorless
_exptl_crystal_description       block
_cell_formula_units_Z            4
loop_
_atom_site_label
_atom_site_type_symbol
_atom_site_fract_x
_atom_site_fract_y
_atom_site_fract_z
N1 N 0.4207(2) 0.15648(14) 0.3197(3)
N2 N 0.5397(3) 0.18659(14) 0.5293(3)
N3 N 0.6051(3) 0.24601(19) 0.3199(3)
H1 H 0.5908 0.2516 0.2284
C1 C 0.1994(4) 0.0341(2) 0.5438(4)
C2 C 0.1044(4) 0.0727(2) 0.6185(5)
H2 H 0.0666 0.1165 0.5811
C3 C 0.0638(4) 0.0474(3) 0.7494(6)
H3 H -0.0007 0.0744 0.7982
C4 C 0.1164(5) -0.0152(3) 0.8059(5)
H4 H 0.0900 -0.0316 0.8940
C5 C 0.2079(5) -0.0540(3) 0.7335(6)
H5 H 0.2435 -0.0981 0.7712
C6 C 0.2499(4) -0.0298(2) 0.6050(5)
H6 H 0.3146 -0.0577 0.5581
C7 C 0.2463(4) 0.0604(2) 0.4031(4)
H7 H 0.2797 0.0192 0.3498
H8 H 0.1653 0.0822 0.3466
C8 C 0.3632(3) 0.11513(19) 0.4273(4)
C9 C 0.4376(4) 0.13461(18) 0.5516(4)
H9 H 0.4218 0.1154 0.6409
C10 C 0.5243(3) 0.19855(17) 0.3886(3)
C11 C 0.3767(4) 0.1585(2) 0.1630(4)
H10 H 0.4481 0.1885 0.1195
C12 C 0.2349(5) 0.1961(3) 0.1314(6)
H11 H 0.2387 0.2437 0.1749
H12 H 0.1608 0.1677 0.1696
H13 H 0.2145 0.2010 0.0294
C13 C 0.3825(5) 0.0826(3) 0.0948(4)
H14 H 0.3544 0.0861 -0.0062
H15 H 0.3181 0.0503 0.1385
H16 H 0.4785 0.0638 0.1093
C14 C 0.7177(5) 0.2879(3) 0.4033(4)
H17 H 0.7033 0.2849 0.5057
C15 C 0.8529(7) 0.2532(3) 0.3775(11)
H18 H 0.8529 0.2036 0.4109
H19 H 0.9308 0.2794 0.4281
H20 H 0.8645 0.2538 0.2765
C16 C 0.7129(5) 0.3652(3) 0.3577(6)
H21 H 0.7849 0.3924 0.4147
H22 H 0.6199 0.3851 0.3704
H23 H 0.7307 0.3683 0.2584
loop_
_geom_bond_atom_site_label_1
_geom_bond_atom_site_label_2
_geom_bond_site_symmetry_1
_geom_bond_site_symmetry_2
N1 C8 1_555 1_555
N2 C9 1_555 1_555
N3 H1 1_555 1_555
C1 C2 1_555 1_555
C2 H2 1_555 1_555
C3 C2 1_555 1_555
H3 C3 1_555 1_555
C4 C3 1_555 1_555
H4 C4 1_555 1_555
C5 C4 1_555 1_555
H5 C5 1_555 1_555
C6 C1 1_555 1_555
H6 C6 1_555 1_555
C7 C1 1_555 1_555
H7 C7 1_555 1_555
H8 C7 1_555 1_555
C8 C7 1_555 1_555
C9 C8 1_555 1_555
H9 C9 1_555 1_555
C10 N1 1_555 1_555
C11 N1 1_555 1_555
H10 C11 1_555 1_555
C12 C11 1_555 1_555
H11 C12 1_555 1_555
H12 C12 1_555 1_555
H13 C12 1_555 1_555
C13 C11 1_555 1_555
H14 C13 1_555 1_555
H15 C13 1_555 1_555
H16 C13 1_555 1_555
C14 N3 1_555 1_555
H17 C14 1_555 1_555
C15 C14 1_555 1_555
H18 C15 1_555 1_555
H19 C15 1_555 1_555
H20 C15 1_555 1_555
C16 C14 1_555 1_555
H21 C16 1_555 1_555
H22 C16 1_555 1_555
H23 C16 1_555 1_555
N2 C10 1_555 1_555
N3 C10 1_555 1_555
C5 C6 1_555 1_555

#END
