
#######################################################################
#
#                 Cambridge Crystallographic Data Centre
#                                CCDC 
#
#######################################################################
#
# If this CIF has been generated from an entry in the Cambridge 
# Structural Database, then it will include bibliographic, chemical, 
# crystal, experimental, refinement or atomic coordinate data resulting 
# from the CCDC's data processing and validation procedures.
#
#######################################################################

data_ASOTIN
_chemical_formula_moiety         'C33 H24 N2,1.5(C2 H3 N1)'
_chemical_name_systematic        
'2-(4-(triphenylvinyl)phenyl)-1H-benzimidazole acetonitrile solvate'
_symmetry_cell_setting           monoclinic
_symmetry_space_group_name_H-M   'I 2/a'
_symmetry_Int_Tables_number      15
_space_group_name_Hall           '-I 2ya'
loop_
_symmetry_equiv_pos_site_id
_symmetry_equiv_pos_as_xyz
1 x,y,z
2 1/2-x,y,-z
3 1/2+x,1/2+y,1/2+z
4 -x,1/2+y,1/2-z
5 -x,-y,-z
6 1/2+x,-y,z
7 1/2-x,1/2-y,1/2-z
8 x,1/2-y,1/2+z
_cell_length_a                   27.518(12)
_cell_length_b                   9.894(4)
_cell_length_c                   45.122(19)
_cell_angle_alpha                90
_cell_angle_beta                 106.22(2)
_cell_angle_gamma                90
_cell_volume                     11796.1
_exptl_crystal_colour            colorless
_exptl_crystal_description       block
_cell_formula_units_Z            16
loop_
_atom_site_label
_atom_site_type_symbol
_atom_site_fract_x
_atom_site_fract_y
_atom_site_fract_z
N1 N 0.13993(9) 0.4674(3) 0.04466(6)
N2 N 0.13206(8) 0.2448(2) 0.04852(5)
C1 C 0.03981(11) 0.4794(3) 0.15942(7)
C2 C 0.12064(13) 0.4808(4) 0.20105(7)
C3 C 0.13789(15) 0.3513(5) 0.20050(8)
H1 H 0.1152 0.2832 0.1916
C4 C 0.1887(2) 0.3196(6) 0.21298(10)
H2 H 0.1998 0.2312 0.2123
C5 C 0.2217(2) 0.4176(7) 0.22601(11)
H3 H 0.2557 0.3965 0.2344
C6 C 0.20561(19) 0.5480(6) 0.22701(10)
H4 H 0.2287 0.6155 0.2358
C7 C 0.15469(15) 0.5790(4) 0.21488(8)
H5 H 0.1436 0.6670 0.2162
C8 C 0.06586(12) 0.5137(3) 0.18857(7)
C9 C 0.04290(12) 0.5846(4) 0.21033(7)
C10 C 0.05702(13) 0.5524(4) 0.24128(8)
H6 H 0.0807 0.4843 0.2485
C11 C 0.03650(19) 0.6199(5) 0.26166(9)
H7 H 0.0460 0.5961 0.2824
C12 C 0.00233(19) 0.7213(5) 0.25160(11)
H8 H -0.0118 0.7656 0.2654
C13 C -0.01090(14) 0.7571(4) 0.22145(10)
H9 H -0.0338 0.8271 0.2145
C14 C 0.00945(13) 0.6903(4) 0.20109(8)
H10 H 0.0005 0.7171 0.1805
C15 C -0.01567(12) 0.4874(3) 0.14750(8)
C16 C -0.04751(14) 0.4309(4) 0.16275(9)
H11 H -0.0340 0.3855 0.1813
C17 C -0.10027(18) 0.4413(5) 0.15054(12)
H12 H -0.1219 0.4036 0.1608
C18 C -0.11875(19) 0.5068(5) 0.12376(14)
H13 H -0.1537 0.5138 0.1158
C19 C -0.08888(18) 0.5634(5) 0.10774(11)
H14 H -0.1028 0.6084 0.0892
C20 C -0.03735(14) 0.5518(4) 0.11983(8)
H15 H -0.0164 0.5888 0.1090
C21 C 0.06626(10) 0.4394(3) 0.13619(6)
C22 C 0.05607(11) 0.3200(3) 0.11963(7)
H16 H 0.0347 0.2568 0.1247
C23 C 0.07668(10) 0.2927(3) 0.09588(7)
H17 H 0.0697 0.2107 0.0855
C24 C 0.10769(10) 0.3855(3) 0.08717(6)
C25 C 0.11912(11) 0.5030(3) 0.10417(6)
H18 H 0.1410 0.5655 0.0993
C26 C 0.09871(11) 0.5292(3) 0.12817(7)
H19 H 0.1070 0.6093 0.1392
C27 C 0.12651(9) 0.3641(3) 0.06045(7)
C28 C 0.15582(10) 0.4124(3) 0.02094(7)
C29 C 0.17339(11) 0.4705(3) -0.00197(7)
H20 H 0.1765 0.5636 -0.0035
C30 C 0.18600(12) 0.3836(4) -0.02223(8)
H21 H 0.1976 0.4186 -0.0381
C31 C 0.18187(13) 0.2446(4) -0.01967(8)
H22 H 0.1911 0.1885 -0.0337
C32 C 0.16445(12) 0.1885(3) 0.00310(8)
H23 H 0.1617 0.0953 0.0047
C33 C 0.15101(10) 0.2740(3) 0.02364(7)
H24 H 0.1354(10) 0.555(3) 0.0492(6)
N3 N 0.11047(9) 0.9686(3) 0.05568(5)
N4 N 0.12018(8) 0.7439(2) 0.05664(5)
C34 C 0.38850(11) 0.9744(3) 0.12309(7)
C35 C 0.36047(10) 0.9130(3) 0.09741(7)
C36 C 0.44350(11) 1.0006(3) 0.12915(7)
C37 C 0.47717(12) 0.9537(4) 0.15615(7)
H25 H 0.4651 0.9037 0.1701
C38 C 0.52799(15) 0.9800(5) 0.16257(9)
H26 H 0.5501 0.9472 0.1807
C39 C 0.54618(15) 1.0541(5) 0.14249(12)
H27 H 0.5807 1.0719 0.1469
C40 C 0.51381(16) 1.1023(4) 0.11589(10)
H28 H 0.5262 1.1533 0.1023
C41 C 0.46286(13) 1.0752(4) 0.10920(8)
H29 H 0.4411 1.1077 0.0909
C42 C 0.38233(10) 0.8507(3) 0.07407(6)
C43 C 0.42247(11) 0.7640(3) 0.08194(7)
H30 H 0.4375 0.7443 0.1026
C44 C 0.44110(12) 0.7051(4) 0.05957(8)
H31 H 0.4684 0.6460 0.0654
C45 C 0.41996(14) 0.7326(4) 0.02926(8)
H32 H 0.4328 0.6935 0.0143
C46 C 0.37954(15) 0.8187(4) 0.02098(7)
H33 H 0.3648 0.8383 0.0003
C47 C 0.36058(12) 0.8763(3) 0.04314(7)
H34 H 0.3327 0.9334 0.0372
C48 C 0.30430(10) 0.9019(3) 0.08994(6)
C49 C 0.28100(11) 0.7777(3) 0.08235(7)
H35 H 0.3008 0.7008 0.0833
C50 C 0.22931(11) 0.7658(3) 0.07343(7)
H36 H 0.2147 0.6807 0.0690
C51 C 0.19844(10) 0.8779(3) 0.07097(6)
C52 C 0.22165(11) 1.0020(3) 0.07835(6)
H37 H 0.2018 1.0791 0.0769
C53 C 0.27362(11) 1.0140(3) 0.08779(6)
H38 H 0.2882 1.0988 0.0928
C54 C 0.14342(11) 0.8625(3) 0.06121(6)
C55 C 0.06906(11) 0.7741(3) 0.04800(6)
C56 C 0.02742(11) 0.6888(3) 0.04083(7)
H39 H 0.0314 0.5954 0.0416
C57 C -0.01971(12) 0.7465(4) 0.03252(7)
H40 H -0.0482 0.6914 0.0275
C58 C -0.02546(12) 0.8856(4) 0.03148(7)
H41 H -0.0580 0.9213 0.0257
C59 C 0.01471(12) 0.9726(3) 0.03853(7)
H42 H 0.0103 1.0659 0.0377
C60 C 0.06266(11) 0.9138(3) 0.04708(6)
C61 C 0.36704(10) 1.0234(4) 0.14825(7)
C62 C 0.34387(11) 0.9365(4) 0.16410(8)
H43 H 0.3397 0.8459 0.1584
C63 C 0.32694(14) 0.9834(5) 0.18824(9)
H44 H 0.3114 0.9241 0.1987
C64 C 0.33278(15) 1.1158(6) 0.19685(9)
H45 H 0.3214 1.1466 0.2132
C65 C 0.35533(14) 1.2026(5) 0.18139(9)
H46 H 0.3589 1.2934 0.1869
C66 C 0.37283(12) 1.1554(4) 0.15758(8)
H47 H 0.3891 1.2150 0.1475
H48 H 0.1173(10) 1.062(3) 0.0546(6)
N5 N 0.2518(2) 0.3986(7) 0.09877(17)
C67 C 0.2402(2) 0.3537(9) 0.1197(2)
C68 C 0.2236(3) 0.2842(9) 0.14205(15)
H49 H 0.2360 0.3285 0.1616
H50 H 0.2360 0.1930 0.1436
H51 H 0.1872 0.2832 0.1362
N6 N 0.1832(3) 0.9511(9) 0.1922(2)
C69 C 0.2135(3) 0.7809(8) 0.15407(14)
H52 H 0.1870 0.7647 0.1354
H53 H 0.2237 0.6968 0.1646
H54 H 0.2419 0.8214 0.1491
C70 C 0.1945(3) 0.8744(10) 0.1746(3)
C71 C 0.3543(4) 0.5783(10) 0.2259(3)
N7 N 0.3212(4) 0.6223(12) 0.2059(3)
C72 C 0.3896(3) 0.5275(9) 0.25155(18)
H55 H 0.4113 0.5993 0.2618
H56 H 0.4095 0.4594 0.2453
H57 H 0.3726 0.4886 0.2654
loop_
_geom_bond_atom_site_label_1
_geom_bond_atom_site_label_2
_geom_bond_site_symmetry_1
_geom_bond_site_symmetry_2
N1 C27 1_555 1_555
N2 C27 1_555 1_555
C1 C8 1_555 1_555
C2 C3 1_555 1_555
C3 H1 1_555 1_555
C4 C3 1_555 1_555
H2 C4 1_555 1_555
C5 C4 1_555 1_555
H3 C5 1_555 1_555
C6 C5 1_555 1_555
H4 C6 1_555 1_555
C7 C2 1_555 1_555
H5 C7 1_555 1_555
C8 C2 1_555 1_555
C9 C8 1_555 1_555
C10 C9 1_555 1_555
H6 C10 1_555 1_555
C11 C10 1_555 1_555
H7 C11 1_555 1_555
C12 C11 1_555 1_555
H8 C12 1_555 1_555
C13 C12 1_555 1_555
H9 C13 1_555 1_555
C14 C9 1_555 1_555
H10 C14 1_555 1_555
C15 C1 1_555 1_555
C16 C15 1_555 1_555
H11 C16 1_555 1_555
C17 C16 1_555 1_555
H12 C17 1_555 1_555
C18 C17 1_555 1_555
H13 C18 1_555 1_555
C19 C18 1_555 1_555
H14 C19 1_555 1_555
C20 C15 1_555 1_555
H15 C20 1_555 1_555
C21 C1 1_555 1_555
C22 C21 1_555 1_555
H16 C22 1_555 1_555
C23 C22 1_555 1_555
H17 C23 1_555 1_555
C24 C23 1_555 1_555
C25 C24 1_555 1_555
H18 C25 1_555 1_555
C26 C21 1_555 1_555
H19 C26 1_555 1_555
C27 C24 1_555 1_555
C28 N1 1_555 1_555
C29 C28 1_555 1_555
H20 C29 1_555 1_555
C30 C29 1_555 1_555
H21 C30 1_555 1_555
C31 C30 1_555 1_555
H22 C31 1_555 1_555
C32 C31 1_555 1_555
H23 C32 1_555 1_555
C33 N2 1_555 1_555
H24 N1 1_555 1_555
N3 C54 1_555 1_555
N4 C54 1_555 1_555
C34 C35 1_555 1_555
C35 C42 1_555 1_555
C36 C34 1_555 1_555
C37 C36 1_555 1_555
H25 C37 1_555 1_555
C38 C37 1_555 1_555
H26 C38 1_555 1_555
C39 C38 1_555 1_555
H27 C39 1_555 1_555
C40 C39 1_555 1_555
H28 C40 1_555 1_555
C41 C36 1_555 1_555
H29 C41 1_555 1_555
C42 C43 1_555 1_555
C43 H30 1_555 1_555
C44 C43 1_555 1_555
H31 C44 1_555 1_555
C45 C44 1_555 1_555
H32 C45 1_555 1_555
C46 C45 1_555 1_555
H33 C46 1_555 1_555
C47 C42 1_555 1_555
H34 C47 1_555 1_555
C48 C35 1_555 1_555
C49 C48 1_555 1_555
H35 C49 1_555 1_555
C50 C49 1_555 1_555
H36 C50 1_555 1_555
C51 C50 1_555 1_555
C52 C51 1_555 1_555
H37 C52 1_555 1_555
C53 C48 1_555 1_555
H38 C53 1_555 1_555
C54 C51 1_555 1_555
C55 N4 1_555 1_555
C56 C55 1_555 1_555
H39 C56 1_555 1_555
C57 C56 1_555 1_555
H40 C57 1_555 1_555
C58 C57 1_555 1_555
H41 C58 1_555 1_555
C59 C58 1_555 1_555
H42 C59 1_555 1_555
C60 N3 1_555 1_555
C61 C34 1_555 1_555
C62 C61 1_555 1_555
H43 C62 1_555 1_555
C63 C62 1_555 1_555
H44 C63 1_555 1_555
C64 C63 1_555 1_555
H45 C64 1_555 1_555
C65 C64 1_555 1_555
H46 C65 1_555 1_555
C66 C61 1_555 1_555
H47 C66 1_555 1_555
H48 N3 1_555 1_555
N5 C67 1_555 1_555
C67 C68 1_555 1_555
C68 H49 1_555 1_555
H50 C68 1_555 1_555
H51 C68 1_555 1_555
N6 C70 1_555 1_555
C69 H52 1_555 1_555
H53 C69 1_555 1_555
H54 C69 1_555 1_555
C70 C69 1_555 1_555
C71 N7 1_555 1_555
C72 C71 1_555 1_555
H55 C72 1_555 1_555
H56 C72 1_555 1_555
H57 C72 1_555 1_555
C6 C7 1_555 1_555
C13 C14 1_555 1_555
C19 C20 1_555 1_555
C25 C26 1_555 1_555
C28 C33 1_555 1_555
C32 C33 1_555 1_555
C40 C41 1_555 1_555
C46 C47 1_555 1_555
C52 C53 1_555 1_555
C55 C60 1_555 1_555
C59 C60 1_555 1_555
C65 C66 1_555 1_555

#END
