
#######################################################################
#
#                 Cambridge Crystallographic Data Centre
#                                CCDC 
#
#######################################################################
#
# If this CIF has been generated from an entry in the Cambridge 
# Structural Database, then it will include bibliographic, chemical, 
# crystal, experimental, refinement or atomic coordinate data resulting 
# from the CCDC's data processing and validation procedures.
#
#######################################################################

data_ASOTOT
_chemical_formula_moiety         'C33 H22 Br2 N2,0.5(H2 O1)'
_chemical_name_systematic        
'5,6-dibromo-2-(4-(triphenylvinyl)phenyl)-1H-benzimidazole hemihydrate'
_symmetry_cell_setting           orthorhombic
_symmetry_space_group_name_H-M   'P 21 21 2'
_symmetry_Int_Tables_number      18
_space_group_name_Hall           'P 2 2ab'
loop_
_symmetry_equiv_pos_site_id
_symmetry_equiv_pos_as_xyz
1 x,y,z
2 -x,-y,z
3 1/2+x,1/2-y,-z
4 1/2-x,1/2+y,-z
_cell_length_a                   9.581(3)
_cell_length_b                   35.690(12)
_cell_length_c                   9.867(3)
_cell_angle_alpha                90
_cell_angle_beta                 90
_cell_angle_gamma                90
_cell_volume                     3373.98
_exptl_crystal_colour            colorless
_exptl_crystal_description       block
_cell_formula_units_Z            4
loop_
_atom_site_label
_atom_site_type_symbol
_atom_site_fract_x
_atom_site_fract_y
_atom_site_fract_z
Br1 Br 0.63759(12) -0.16188(3) 0.77910(11)
Br2 Br 0.79401(14) -0.16121(3) 0.47875(13)
N1 N 0.8020(8) -0.01384(19) 0.5536(8)
H1 H 0.8448 -0.0051 0.4837
N2 N 0.6912(9) -0.01479(18) 0.7480(7)
C1 C 0.7492(10) 0.0058(3) 0.6557(10)
C2 C 0.7632(11) 0.0473(2) 0.6589(9)
C3 C 0.8341(10) 0.0676(2) 0.5671(9)
H2 H 0.8780 0.0555 0.4954
C4 C 0.8428(10) 0.1055(2) 0.5773(9)
H3 H 0.8899 0.1186 0.5099
C5 C 0.7851(9) 0.1251(2) 0.6825(9)
C6 C 0.7076(10) 0.1045(2) 0.7743(9)
H4 H 0.6614 0.1166 0.8446
C7 C 0.6982(11) 0.0661(2) 0.7628(10)
H5 H 0.6470 0.0526 0.8264
C8 C 0.7967(8) 0.1656(2) 0.6983(7)
C9 C 0.8321(8) 0.1820(2) 0.8159(8)
C10 C 0.8859(8) 0.1612(2) 0.9320(8)
C11 C 0.8360(10) 0.1669(2) 1.0610(10)
H6 H 0.7629 0.1838 1.0723
C12 C 0.8863(13) 0.1496(3) 1.1721(11)
H7 H 0.8507 0.1550 1.2576
C13 C 0.9919(14) 0.1237(4) 1.1559(13)
H8 H 1.0249 0.1102 1.2299
C14 C 1.0498(12) 0.1178(4) 1.0248(13)
H9 H 1.1257 0.1019 1.0128
C15 C 0.9913(7) 0.13616(18) 0.9167(7)
H10 H 1.0249 0.1313 0.8301
C16 C 0.8148(7) 0.22378(18) 0.8391(7)
C17 C 0.9237(10) 0.2435(2) 0.9016(9)
H11 H 1.0050 0.2313 0.9284
C18 C 0.9067(12) 0.2814(2) 0.9221(10)
H12 H 0.9779 0.2948 0.9637
C19 C 0.7904(15) 0.2995(3) 0.8837(10)
H13 H 0.7816 0.3253 0.8955
C20 C 0.6860(13) 0.2791(3) 0.8271(9)
H14 H 0.6032 0.2912 0.8046
C21 C 0.6961(10) 0.2430(2) 0.8025(9)
H15 H 0.6229 0.2304 0.7604
C22 C 0.7689(10) 0.1888(2) 0.5715(9)
C23 C 0.6480(12) 0.1841(3) 0.4975(10)
H16 H 0.5835 0.1660 0.5235
C24 C 0.6227(12) 0.2057(3) 0.3873(10)
H17 H 0.5413 0.2019 0.3377
C25 C 0.7131(14) 0.2325(3) 0.3480(10)
H18 H 0.6929 0.2475 0.2736
C26 C 0.8317(12) 0.2372(2) 0.4167(11)
H19 H 0.8948 0.2555 0.3889
C27 C 0.8623(11) 0.2155(2) 0.5283(10)
H20 H 0.9461 0.2188 0.5743
C28 C 0.7048(10) -0.0506(2) 0.7063(9)
C29 C 0.7745(10) -0.0509(2) 0.5819(11)
C30 C 0.8012(10) -0.0834(2) 0.5168(10)
H21 H 0.8476 -0.0832 0.4340
C31 C 0.7601(9) -0.1163(3) 0.5724(11)
C32 C 0.6892(11) -0.1162(2) 0.6928(11)
C33 C 0.6642(10) -0.0842(3) 0.7628(10)
H22 H 0.6206 -0.0849 0.8469
O1 O 0.5000 0.0000 0.9518(9)
H23 H 0.5872 0.0005 0.9064
H23A H 0.4128 -0.0005 0.9064
loop_
_geom_bond_atom_site_label_1
_geom_bond_atom_site_label_2
_geom_bond_site_symmetry_1
_geom_bond_site_symmetry_2
Br1 C32 1_555 1_555
Br2 C31 1_555 1_555
N1 H1 1_555 1_555
N2 C1 1_555 1_555
C1 N1 1_555 1_555
C2 C1 1_555 1_555
C3 C2 1_555 1_555
H2 C3 1_555 1_555
C4 C3 1_555 1_555
H3 C4 1_555 1_555
C5 C4 1_555 1_555
C6 C5 1_555 1_555
H4 C6 1_555 1_555
C7 C2 1_555 1_555
H5 C7 1_555 1_555
C8 C5 1_555 1_555
C9 C8 1_555 1_555
C10 C9 1_555 1_555
C11 C10 1_555 1_555
H6 C11 1_555 1_555
C12 C11 1_555 1_555
H7 C12 1_555 1_555
C13 C12 1_555 1_555
H8 C13 1_555 1_555
C14 C13 1_555 1_555
H9 C14 1_555 1_555
C15 C10 1_555 1_555
H10 C15 1_555 1_555
C16 C9 1_555 1_555
C17 C16 1_555 1_555
H11 C17 1_555 1_555
C18 C17 1_555 1_555
H12 C18 1_555 1_555
C19 C18 1_555 1_555
H13 C19 1_555 1_555
C20 C19 1_555 1_555
H14 C20 1_555 1_555
C21 C16 1_555 1_555
H15 C21 1_555 1_555
C22 C8 1_555 1_555
C23 C22 1_555 1_555
H16 C23 1_555 1_555
C24 C23 1_555 1_555
H17 C24 1_555 1_555
C25 C24 1_555 1_555
H18 C25 1_555 1_555
C26 C25 1_555 1_555
H19 C26 1_555 1_555
C27 C22 1_555 1_555
H20 C27 1_555 1_555
C28 N2 1_555 1_555
C29 N1 1_555 1_555
C30 C29 1_555 1_555
H21 C30 1_555 1_555
C31 C30 1_555 1_555
C32 C31 1_555 1_555
C33 C28 1_555 1_555
H22 C33 1_555 1_555
O1 H23 1_555 1_555
H23A O1 1_555 1_555
C6 C7 1_555 1_555
C14 C15 1_555 1_555
C20 C21 1_555 1_555
C26 C27 1_555 1_555
C28 C29 1_555 1_555
C32 C33 1_555 1_555

#END
