
#######################################################################
#
#                 Cambridge Crystallographic Data Centre
#                                CCDC 
#
#######################################################################
#
# If this CIF has been generated from an entry in the Cambridge 
# Structural Database, then it will include bibliographic, chemical, 
# crystal, experimental, refinement or atomic coordinate data resulting 
# from the CCDC's data processing and validation procedures.
#
#######################################################################

data_ASOWUC
_chemical_name_common            
'bis(tetra-n-butylammonium) cis-2,12-bis(3,5-dinitrophenyl)-2,7,7,12,17,17-hexamethylcalix[4]pyrrole bis(dihydrogen phosphate) chloroform methanol solvate monohydrate'
_chemical_formula_moiety         
'C38 H36 N8 O8,2(H2 O4 P1 1-),C1 H4 O1,H2 O1,2(C16 H36 N1 1+),C1 H1 Cl3'
_chemical_name_systematic        
'bis(tetra-n-butylammonium) 5,15-bis(3,5-dinitrophenyl)-5,10,10,15,20,20-hexamethyl-5,10,15,20,22,24-hexahydroporphyrin bis(dihydrogen phosphate) chloroform methanol solvate monohydrate'
_symmetry_cell_setting           triclinic
_symmetry_space_group_name_H-M   'P -1'
_symmetry_Int_Tables_number      2
_space_group_name_Hall           '-P 1'
loop_
_symmetry_equiv_pos_site_id
_symmetry_equiv_pos_as_xyz
1 x,y,z
2 -x,-y,-z
_cell_length_a                   18.5581(12)
_cell_length_b                   19.3272(12)
_cell_length_c                   23.1017(15)
_cell_angle_alpha                86.218(2)
_cell_angle_beta                 87.845(2)
_cell_angle_gamma                81.721(2)
_cell_volume                     8178.5
_exptl_crystal_colour            orange
_exptl_crystal_description       Prism
_cell_formula_units_Z            4
loop_
_atom_site_label
_atom_site_type_symbol
_atom_site_fract_x
_atom_site_fract_y
_atom_site_fract_z
C1 C 0.01547(17) 0.88863(17) 0.09300(13)
C2 C 0.20463(17) 0.76001(16) 0.27285(14)
C3 C 0.24667(18) 0.78460(17) 0.31226(15)
H1 H 0.2984 0.7799 0.3114
C4 C 0.19896(18) 0.81833(17) 0.35446(15)
H2 H 0.2131 0.8402 0.3870
C5 C 0.12888(17) 0.81394(16) 0.34010(13)
C6 C 0.05781(18) 0.83798(17) 0.37228(14)
C7 C 0.0752(2) 0.8658(2) 0.42992(14)
H3 H 0.1050 0.8287 0.4529
H4 H 0.0297 0.8808 0.4514
H5 H 0.1020 0.9058 0.4223
C8 C 0.01577(19) 0.77508(18) 0.38592(15)
H6 H 0.0040 0.7564 0.3495
H7 H -0.0294 0.7905 0.4077
H8 H 0.0460 0.7385 0.4091
C9 C 0.00967(17) 0.89575(17) 0.33845(14)
C10 C -0.01461(19) 0.96350(18) 0.35126(15)
H9 H -0.0012 0.9860 0.3837
C11 C -0.06319(18) 0.99433(17) 0.30778(15)
H10 H -0.0884 1.0408 0.3060
C12 C -0.06704(17) 0.94470(17) 0.26874(14)
C13 C -0.10984(17) 0.94863(17) 0.21393(14)
C14 C -0.15956(18) 1.01980(17) 0.20892(16)
H11 H -0.1938 1.0234 0.2423
H12 H -0.1867 1.0234 0.1730
H13 H -0.1297 1.0578 0.2083
C15 C -0.16154(17) 0.89264(16) 0.21663(15)
C16 C -0.18732(17) 0.87219(17) 0.16573(15)
H14 H -0.1692 0.8887 0.1292
C17 C -0.23965(19) 0.82759(18) 0.16843(16)
C18 C -0.26828(18) 0.80122(18) 0.21996(16)
H15 H -0.3044 0.7709 0.2210
C19 C -0.24092(18) 0.82191(18) 0.26997(15)
C20 C -0.18855(18) 0.86626(17) 0.26921(15)
H16 H -0.1710 0.8787 0.3047
C21 C -0.06016(17) 0.94261(16) 0.16033(14)
C22 C -0.04322(18) 0.99301(17) 0.11966(15)
H17 H -0.0603 1.0418 0.1197
C23 C 0.00460(18) 0.95921(17) 0.07727(14)
H18 H 0.0253 0.9814 0.0440
C24 C 0.06019(18) 0.82800(17) 0.06366(13)
C25 C 0.01548(19) 0.76701(18) 0.06278(14)
H19 H 0.0437 0.7286 0.0425
H20 H -0.0300 0.7830 0.0426
H21 H 0.0043 0.7505 0.1027
C26 C 0.0780(2) 0.85308(19) 0.00090(14)
H22 H 0.1048 0.8932 0.0012
H23 H 0.0327 0.8671 -0.0199
H24 H 0.1080 0.8150 -0.0186
C27 C 0.13069(17) 0.80352(16) 0.09410(13)
C28 C 0.20124(18) 0.80894(19) 0.07649(15)
H25 H 0.2164 0.8304 0.0408
C29 C 0.24753(19) 0.77683(19) 0.12097(15)
H26 H 0.2992 0.7731 0.1203
C30 C 0.20507(17) 0.75227(16) 0.16491(14)
C31 C 0.22692(16) 0.71459(17) 0.22258(14)
C32 C 0.31077(17) 0.69518(18) 0.22135(16)
H27 H 0.3335 0.7380 0.2161
H28 H 0.3259 0.6653 0.1891
H29 H 0.3261 0.6699 0.2580
C33 C 0.19552(16) 0.64496(16) 0.23313(14)
C34 C 0.17995(17) 0.60625(17) 0.18748(15)
H30 H 0.1856 0.6235 0.1484
C35 C 0.15604(17) 0.54199(17) 0.20027(15)
C36 C 0.14699(17) 0.51384(18) 0.25616(16)
H31 H 0.1300 0.4700 0.2639
C37 C 0.16405(17) 0.55302(17) 0.29989(15)
C38 C 0.18767(17) 0.61769(17) 0.28972(15)
H32 H 0.1984 0.6432 0.3213
N1 N 0.13279(14) 0.77830(13) 0.29011(11)
H33 H 0.0950 0.7686 0.2719
N2 N -0.02236(14) 0.88516(14) 0.28790(11)
H34 H -0.0153 0.8457 0.2702
N3 N -0.02416(14) 0.87936(14) 0.14393(11)
H35 H -0.0261 0.8388 0.1632
N4 N 0.13375(14) 0.76817(13) 0.14793(11)
H36 H 0.0957 0.7573 0.1685
N5 N 0.15654(17) 0.52568(17) 0.36059(14)
N6 N 0.13619(16) 0.50221(16) 0.15235(14)
N7 N -0.27118(18) 0.79798(18) 0.32612(14)
N8 N -0.26522(18) 0.80713(17) 0.11354(15)
O1 O 0.1673(2) 0.56282(19) 0.39921(13)
O2 O 0.14054(16) 0.46653(13) 0.36960(12)
O3 O 0.12396(15) 0.44214(14) 0.16358(13)
O4 O 0.13146(19) 0.53212(17) 0.10354(13)
O5 O -0.2436(2) 0.8120(2) 0.36976(14)
O6 O -0.3238(2) 0.7670(2) 0.32644(14)
O7 O -0.22851(18) 0.81504(18) 0.06922(13)
O8 O -0.32354(17) 0.78393(19) 0.11458(14)
C39 C 0.27783(16) 0.24764(16) 0.23397(14)
C40 C 0.23104(18) 0.21601(17) 0.20322(15)
H37 H 0.1802 0.2173 0.2110
C41 C 0.27148(18) 0.18116(18) 0.15793(15)
H38 H 0.2529 0.1545 0.1303
C42 C 0.34267(17) 0.19281(17) 0.16112(14)
C43 C 0.40735(19) 0.17412(18) 0.12002(15)
C44 C 0.4467(2) 0.23885(19) 0.10727(15)
H39 H 0.4641 0.2531 0.1436
H40 H 0.4127 0.2774 0.0897
H41 H 0.4881 0.2272 0.0804
C45 C 0.3795(2) 0.1533(2) 0.06269(16)
H42 H 0.4207 0.1435 0.0352
H43 H 0.3445 0.1918 0.0464
H44 H 0.3557 0.1114 0.0700
C46 C 0.46019(18) 0.11395(19) 0.14533(15)
C47 C 0.4831(2) 0.0480(2) 0.12599(17)
H45 H 0.4678 0.0297 0.0921
C48 C 0.53374(19) 0.01285(19) 0.16608(17)
H46 H 0.5586 -0.0334 0.1636
C49 C 0.54100(18) 0.05660(18) 0.20906(16)
C50 C 0.58933(18) 0.04732(17) 0.26097(16)
C51 C 0.63650(19) -0.02531(19) 0.26006(19)
H47 H 0.6049 -0.0619 0.2631
H48 H 0.6693 -0.0316 0.2928
H49 H 0.6652 -0.0285 0.2236
C52 C 0.64301(17) 0.10185(17) 0.25604(16)
C53 C 0.67052(17) 0.12313(17) 0.20190(16)
H50 H 0.6526 0.1083 0.1675
C54 C 0.72439(18) 0.16615(18) 0.19878(16)
C55 C 0.75169(18) 0.19078(18) 0.24695(17)
H51 H 0.7886 0.2203 0.2439
C56 C 0.72234(18) 0.17005(18) 0.29966(16)
C57 C 0.66864(18) 0.12633(18) 0.30525(17)
H52 H 0.6497 0.1134 0.3426
C58 C 0.54686(17) 0.05133(17) 0.31825(16)
C59 C 0.54207(18) 0.00107(19) 0.36294(17)
H53 H 0.5623 -0.0469 0.3627
C60 C 0.50166(19) 0.03393(18) 0.40907(16)
H54 H 0.4902 0.0118 0.4455
C61 C 0.48167(17) 0.10352(18) 0.39219(15)
C62 C 0.44471(18) 0.16368(18) 0.42668(14)
C63 C 0.4326(2) 0.1358(2) 0.48979(15)
H55 H 0.4098 0.1743 0.5128
H56 H 0.4796 0.1160 0.5062
H57 H 0.4008 0.0994 0.4905
C64 C 0.4957(2) 0.2202(2) 0.42690(16)
H58 H 0.5033 0.2392 0.3871
H59 H 0.5426 0.1993 0.4429
H60 H 0.4734 0.2580 0.4509
C65 C 0.37142(18) 0.19692(17) 0.40349(14)
C66 C 0.30433(19) 0.20780(17) 0.43160(14)
H61 H 0.2935 0.1926 0.4705
C67 C 0.25433(18) 0.24573(17) 0.39222(15)
H62 H 0.2041 0.2608 0.4002
C68 C 0.29098(17) 0.25695(16) 0.34056(14)
C69 C 0.26318(16) 0.29438(17) 0.28422(14)
C70 C 0.17974(17) 0.31586(17) 0.29078(15)
H63 H 0.1610 0.3392 0.2543
H64 H 0.1691 0.3480 0.3221
H65 H 0.1564 0.2740 0.3001
C71 C 0.29573(16) 0.36313(16) 0.27162(14)
C72 C 0.31240(17) 0.40071(17) 0.31753(14)
H66 H 0.3071 0.3827 0.3565
C73 C 0.33688(17) 0.46473(17) 0.30568(15)
C74 C 0.34719(17) 0.49338(17) 0.25021(15)
H67 H 0.3650 0.5369 0.2430
C75 C 0.33005(17) 0.45491(17) 0.20596(15)
C76 C 0.30394(17) 0.39151(17) 0.21512(15)
H68 H 0.2917 0.3674 0.1831
N9 N 0.34585(14) 0.23242(14) 0.20788(12)
H69 H 0.3858 0.2462 0.2196
N10 N 0.36266(14) 0.22748(14) 0.34809(11)
H70 H 0.3977 0.2281 0.3214
N11 N 0.50929(14) 0.11331(14) 0.33667(12)
H71 H 0.5038 0.1534 0.3158
N12 N 0.49560(14) 0.11820(14) 0.19580(13)
H72 H 0.4901 0.1551 0.2168
N13 N 0.34166(18) 0.48247(17) 0.14584(14)
N14 N 0.35189(16) 0.50494(16) 0.35483(14)
N15 N 0.75538(17) 0.18493(17) 0.14161(15)
N16 N 0.74889(18) 0.19411(18) 0.35305(15)
O9 O 0.3287(3) 0.4474(2) 0.10648(14)
O10 O 0.36525(15) 0.53847(14) 0.13822(12)
O11 O 0.3470(3) 0.4778(2) 0.40382(14)
O12 O 0.36923(17) 0.56278(14) 0.34443(13)
O13 O 0.71400(17) 0.18573(18) 0.39823(13)
O14 O 0.80555(17) 0.22000(19) 0.34988(14)
O15 O 0.81480(14) 0.20620(15) 0.13978(12)
O16 O 0.72172(19) 0.1766(2) 0.09854(14)
C77 C 1.01850(18) 0.32795(17) 0.09960(14)
H73 H 1.0256 0.3516 0.0609
H74 H 1.0535 0.3429 0.1259
C78 C 1.03697(18) 0.24975(18) 0.09441(15)
H75 H 0.9999 0.2331 0.0711
H76 H 1.0363 0.2255 0.1335
C79 C 1.11207(19) 0.23199(19) 0.06555(15)
H77 H 1.1124 0.2562 0.0264
H78 H 1.1488 0.2494 0.0887
C80 C 1.1328(2) 0.1542(2) 0.06010(18)
H79 H 1.1321 0.1299 0.0987
H80 H 1.1818 0.1450 0.0425
H81 H 1.0980 0.1371 0.0356
C81 C 0.93592(19) 0.42960(17) 0.13577(14)
H82 H 0.8869 0.4443 0.1529
H83 H 0.9718 0.4336 0.1656
C82 C 0.9484(2) 0.48015(17) 0.08463(14)
H84 H 0.9160 0.4742 0.0528
H85 H 0.9995 0.4707 0.0701
C83 C 0.9321(2) 0.55487(18) 0.10456(15)
H86 H 0.8809 0.5637 0.1191
H87 H 0.9639 0.5598 0.1370
C84 C 0.9441(2) 0.6089(2) 0.05577(17)
H88 H 0.9958 0.6036 0.0441
H89 H 0.9290 0.6560 0.0691
H90 H 0.9152 0.6020 0.0225
C85 C 0.88773(19) 0.34352(18) 0.07565(14)
H91 H 0.9054 0.3632 0.0380
H92 H 0.8882 0.2927 0.0721
C86 C 0.8093(2) 0.3768(2) 0.08616(16)
H93 H 0.8065 0.4284 0.0827
H94 H 0.7931 0.3630 0.1260
C87 C 0.7590(3) 0.3538(3) 0.0426(2)
H95 H 0.7635 0.3021 0.0462
H96 H 0.7082 0.3722 0.0539
C88 C 0.7707(3) 0.3749(3) -0.0174(2)
H97 H 0.7690 0.4259 -0.0217
H98 H 0.7326 0.3609 -0.0405
H99 H 0.8185 0.3522 -0.0310
C89 C 0.92305(18) 0.31058(18) 0.17683(14)
H100 H 0.9222 0.2617 0.1669
H101 H 0.8733 0.3294 0.1905
C90 C 0.97465(18) 0.30985(18) 0.22663(14)
H102 H 0.9686 0.3566 0.2428
H103 H 1.0257 0.2988 0.2123
C91 C 0.9580(2) 0.25476(19) 0.27377(15)
H104 H 0.9851 0.2605 0.3088
H105 H 0.9053 0.2631 0.2842
C92 C 0.9776(3) 0.1802(2) 0.2560(2)
H106 H 0.9471 0.1725 0.2239
H107 H 0.9694 0.1476 0.2891
H108 H 1.0290 0.1723 0.2434
N17 N 0.94163(15) 0.35306(14) 0.12208(11)
C93 C 0.5527(3) 0.5578(3) 0.1308(2)
H109 H 0.5962 0.5395 0.1537
H110 H 0.5097 0.5583 0.1575
C94 C 0.5461(3) 0.5082(3) 0.0858(2)
H111 H 0.5858 0.5107 0.0562
H112 H 0.4992 0.5219 0.0662
C95 C 0.5499(3) 0.4337(3) 0.1114(2)
H113 H 0.5983 0.4194 0.1284
H114 H 0.5129 0.4326 0.1433
C96 C 0.5381(4) 0.3825(4) 0.0700(3)
H115 H 0.4872 0.3908 0.0584
H116 H 0.5492 0.3351 0.0882
H117 H 0.5701 0.3874 0.0357
C97 C 0.6202(2) 0.6350(3) 0.0636(2)
H118 H 0.6055 0.6138 0.0288
H119 H 0.6245 0.6846 0.0524
C98 C 0.6944(2) 0.5982(3) 0.0802(2)
H120 H 0.7168 0.6274 0.1062
H121 H 0.6893 0.5531 0.1017
C99 C 0.7435(3) 0.5849(3) 0.0275(2)
H122 H 0.7919 0.5626 0.0407
H123 H 0.7235 0.5509 0.0046
C100 C 0.7538(3) 0.6473(3) -0.0118(2)
H124 H 0.7069 0.6679 -0.0281
H125 H 0.7883 0.6330 -0.0434
H126 H 0.7728 0.6821 0.0101
C101 C 0.4878(3) 0.6641(3) 0.0816(2)
H127 H 0.4839 0.6396 0.0459
H128 H 0.4472 0.6537 0.1083
C102 C 0.4772(3) 0.7416(3) 0.0659(3)
H129 H 0.5220 0.7550 0.0464
H130 H 0.4678 0.7676 0.1016
C103 C 0.4135(3) 0.7610(3) 0.0259(2)
H131 H 0.4246 0.7368 -0.0105
H132 H 0.3699 0.7441 0.0446
C104 C 0.3967(4) 0.8376(4) 0.0116(3)
H133 H 0.3867 0.8620 0.0475
H134 H 0.3539 0.8471 -0.0128
H135 H 0.4384 0.8541 -0.0094
C105 C 0.5748(3) 0.6731(3) 0.1606(2)
H136 H 0.6210 0.6497 0.1774
H137 H 0.5829 0.7207 0.1458
C106 C 0.5183(3) 0.6803(3) 0.2081(2)
H138 H 0.5125 0.6332 0.2257
H139 H 0.4711 0.7016 0.1918
C107 C 0.5381(3) 0.7247(3) 0.2542(2)
H140 H 0.5836 0.7008 0.2718
H141 H 0.5493 0.7695 0.2350
C108 C 0.4841(3) 0.7415(4) 0.3015(3)
H142 H 0.4398 0.7684 0.2854
H143 H 0.5043 0.7693 0.3292
H144 H 0.4723 0.6980 0.3214
N18 N 0.55891(17) 0.63334(19) 0.10986(14)
C109 C 0.6825(2) 0.5221(2) 0.40180(18)
H145 H 0.7000 0.5606 0.3773
H146 H 0.6682 0.4883 0.3755
C110 C 0.6158(3) 0.5518(3) 0.4369(2)
H147 H 0.6303 0.5824 0.4658
H148 H 0.5945 0.5131 0.4581
C111 C 0.5590(3) 0.5938(3) 0.3978(3)
H149 H 0.5447 0.5632 0.3688
H150 H 0.5804 0.6325 0.3767
C112 C 0.4913(3) 0.6240(4) 0.4328(3)
H151 H 0.4714 0.5859 0.4552
H152 H 0.4546 0.6481 0.4063
H153 H 0.5046 0.6573 0.4593
C113 C 0.7710(2) 0.53548(19) 0.47849(15)
H154 H 0.7319 0.5477 0.5079
H155 H 0.8137 0.5104 0.4993
C114 C 0.7919(3) 0.6028(2) 0.45026(16)
H156 H 0.7481 0.6330 0.4353
H157 H 0.8265 0.5923 0.4172
C115 C 0.8271(3) 0.6402(2) 0.49500(17)
H158 H 0.7922 0.6495 0.5280
H159 H 0.8704 0.6092 0.5099
C116 C 0.8500(3) 0.7090(2) 0.4709(2)
H160 H 0.8813 0.7009 0.4362
H161 H 0.8769 0.7284 0.5003
H162 H 0.8066 0.7423 0.4607
C117 C 0.8057(2) 0.4585(2) 0.39593(15)
H163 H 0.7872 0.4253 0.3713
H164 H 0.8177 0.4985 0.3702
C118 C 0.8754(2) 0.4220(2) 0.42356(17)
H165 H 0.8975 0.4561 0.4448
H166 H 0.8635 0.3843 0.4519
C119 C 0.9288(3) 0.3914(3) 0.3790(2)
H167 H 0.9364 0.4284 0.3487
H168 H 0.9078 0.3544 0.3604
C120 C 1.0018(3) 0.3602(3) 0.4034(3)
H169 H 1.0244 0.3971 0.4198
H170 H 1.0335 0.3396 0.3723
H171 H 0.9947 0.3239 0.4338
C121 C 0.7226(2) 0.42581(19) 0.47773(15)
H172 H 0.6845 0.4456 0.5056
H173 H 0.7652 0.4043 0.5004
C122 C 0.6938(2) 0.3684(2) 0.44736(18)
H174 H 0.6479 0.3880 0.4282
H175 H 0.7296 0.3508 0.4170
C123 C 0.6801(3) 0.3088(3) 0.4894(2)
H176 H 0.6506 0.3276 0.5230
H177 H 0.6517 0.2776 0.4703
C124 C 0.7497(5) 0.2670(3) 0.5108(4)
H178 H 0.7845 0.2593 0.4781
H179 H 0.7396 0.2218 0.5284
H180 H 0.7703 0.2928 0.5398
N19 N 0.74515(18) 0.48538(16) 0.43848(12)
C125 C 0.2030(2) 1.09505(18) 0.35217(16)
H181 H 0.1982 1.1321 0.3203
H182 H 0.2321 1.1108 0.3826
C126 C 0.1270(2) 1.0884(2) 0.37779(17)
H183 H 0.0984 1.0695 0.3487
H184 H 0.1314 1.0548 0.4122
C127 C 0.0868(2) 1.1583(2) 0.39553(18)
C128 C 0.0111(3) 1.1503(2) 0.42021(19)
H185 H -0.0183 1.1363 0.3898
H186 H -0.0122 1.1951 0.4343
H187 H 0.0150 1.1145 0.4524
C129 C 0.2653(2) 0.97414(19) 0.37828(16)
H188 H 0.2202 0.9674 0.4010
H189 H 0.2838 0.9292 0.3611
C130 C 0.3212(2) 0.9896(2) 0.41996(17)
H190 H 0.2994 1.0278 0.4445
H191 H 0.3632 1.0053 0.3978
C131 C 0.3473(2) 0.9235(2) 0.45875(16)
H192 H 0.3772 0.9364 0.4898
H193 H 0.3043 0.9054 0.4774
C132 C 0.3918(2) 0.8656(2) 0.42579(18)
H194 H 0.3605 0.8478 0.3986
H195 H 0.4115 0.8274 0.4533
H196 H 0.4319 0.8842 0.4042
C133 C 0.19702(18) 0.99572(17) 0.28978(14)
H197 H 0.2263 0.9539 0.2740
H198 H 0.1569 0.9794 0.3140
C134 C 0.16405(19) 1.04258(18) 0.23933(15)
H199 H 0.1400 1.0876 0.2536
H200 H 0.2029 1.0526 0.2108
C135 C 0.10876(19) 1.00663(19) 0.21041(15)
H201 H 0.0684 1.0001 0.2386
H202 H 0.0881 1.0376 0.1775
C136 C 0.1397(2) 0.9369(2) 0.18852(18)
H203 H 0.1804 0.9427 0.1612
H204 H 0.1019 0.9177 0.1688
H205 H 0.1571 0.9048 0.2213
C137 C 0.3121(2) 1.0488(2) 0.29528(17)
H206 H 0.2956 1.0819 0.2623
H207 H 0.3393 1.0740 0.3211
C138 C 0.3644(2) 0.9886(2) 0.27162(19)
H208 H 0.4145 1.0004 0.2726
H209 H 0.3621 0.9465 0.2980
C139 C 0.3511(2) 0.9702(3) 0.21054(19)
H210 H 0.3622 1.0087 0.1828
H211 H 0.2990 0.9655 0.2072
C140 C 0.3982(3) 0.9013(3) 0.1943(2)
H212 H 0.4491 0.9028 0.2035
H213 H 0.3948 0.8957 0.1527
H214 H 0.3807 0.8617 0.2165
N20 N 0.24504(15) 1.02901(15) 0.32876(12)
C141 C 0.8188(2) 0.9717(2) 0.42509(17)
H215 H 0.8472 0.9655 0.3877
Cl1 Cl 0.83801(7) 0.89559(7) 0.46940(5)
Cl2 Cl 0.72485(7) 0.98617(7) 0.41014(6)
Cl3 Cl 0.84514(7) 1.04288(7) 0.45815(6)
C142 C 0.2690(3) 0.0262(4) 0.9900(2)
H216 H 0.2617 0.0783 0.9924
Cl4 Cl 0.28170(8) -0.01088(7) 1.06074(5)
Cl5 Cl 0.18913(8) 0.00373(7) 0.96282(6)
Cl6 Cl 0.34191(9) 0.00562(9) 0.94297(7)
O17 O 1.00537(11) 0.75949(11) 0.22733(9)
O18 O 0.90056(12) 0.71706(11) 0.18507(9)
O19 O 0.92643(12) 0.68483(12) 0.29084(9)
H217 H 0.9024 0.6514 0.2894
O20 O 1.01330(12) 0.63343(11) 0.21370(10)
H218 H 0.9899 0.5995 0.2122
P1 P 0.95996(4) 0.70007(4) 0.23205(3)
O21 O 0.82908(12) 0.52391(13) 0.24262(12)
H219 H 0.8738 0.5272 0.2401
O22 O 0.80402(15) 0.62973(15) 0.30289(10)
O23 O 0.79556(12) 0.64565(12) 0.19428(10)
H220 H 0.8395 0.6515 0.1907
O24 O 0.70266(12) 0.58869(13) 0.25563(12)
P2 P 0.78577(5) 0.59615(5) 0.24549(4)
O25 O 0.48164(11) 0.23971(11) 0.26448(10)
O26 O 0.56696(12) 0.31139(12) 0.31132(9)
H221 H 0.5916 0.3442 0.3038
O27 O 0.47528(12) 0.36571(12) 0.23756(10)
H222 H 0.4992 0.3991 0.2299
O28 O 0.58451(12) 0.28054(12) 0.20671(10)
P3 P 0.52876(4) 0.29802(4) 0.25782(3)
O29 O 0.69245(13) 0.34932(13) 0.20011(11)
H223 H 0.6481 0.3445 0.2011
O30 O 0.68922(14) 0.36575(15) 0.30681(11)
O31 O 0.66371(12) 0.47167(13) 0.23639(12)
H224 H 0.6188 0.4694 0.2382
O32 O 0.78921(12) 0.40396(13) 0.24555(12)
P4 P 0.70562(5) 0.39864(5) 0.24422(4)
O33 O 0.97494(13) 0.51148(12) 0.25721(11)
O34 O 0.51947(13) 0.48543(12) 0.26362(12)
C143 C 0.4853(6) 0.4159(6) 0.4244(5)
H225 H 0.5213 0.3873 0.4492
H226 H 0.4408 0.3939 0.4248
H227 H 0.4738 0.4628 0.4390
O35 O 0.5102(2) 0.42042(19) 0.37465(16)
H228 H 0.5252 0.3801 0.3637
C144 C 0.9974(3) 0.5758(3) 0.4157(2)
H229 H 1.0174 0.6166 0.4279
H230 H 1.0269 0.5328 0.4310
H231 H 0.9471 0.5771 0.4306
O36 O 0.9985(2) 0.57701(15) 0.35773(13)
H232 H 0.9675 0.6098 0.3448
loop_
_geom_bond_atom_site_label_1
_geom_bond_atom_site_label_2
_geom_bond_site_symmetry_1
_geom_bond_site_symmetry_2
C1 C23 1_555 1_555
C2 C3 1_555 1_555
C3 H1 1_555 1_555
C4 C3 1_555 1_555
H2 C4 1_555 1_555
C5 C4 1_555 1_555
C6 C5 1_555 1_555
C7 C6 1_555 1_555
H3 C7 1_555 1_555
H4 C7 1_555 1_555
H5 C7 1_555 1_555
C8 C6 1_555 1_555
H6 C8 1_555 1_555
H7 C8 1_555 1_555
H8 C8 1_555 1_555
C9 C6 1_555 1_555
C10 C9 1_555 1_555
H9 C10 1_555 1_555
C11 C10 1_555 1_555
H10 C11 1_555 1_555
C12 C11 1_555 1_555
C13 C12 1_555 1_555
C14 C13 1_555 1_555
H11 C14 1_555 1_555
H12 C14 1_555 1_555
H13 C14 1_555 1_555
C15 C13 1_555 1_555
C16 C15 1_555 1_555
H14 C16 1_555 1_555
C17 C16 1_555 1_555
C18 C17 1_555 1_555
H15 C18 1_555 1_555
C19 C18 1_555 1_555
C20 C15 1_555 1_555
H16 C20 1_555 1_555
C21 C13 1_555 1_555
C22 C21 1_555 1_555
H17 C22 1_555 1_555
C23 C22 1_555 1_555
H18 C23 1_555 1_555
C24 C1 1_555 1_555
C25 C24 1_555 1_555
H19 C25 1_555 1_555
H20 C25 1_555 1_555
H21 C25 1_555 1_555
C26 C24 1_555 1_555
H22 C26 1_555 1_555
H23 C26 1_555 1_555
H24 C26 1_555 1_555
C27 C24 1_555 1_555
C28 C27 1_555 1_555
H25 C28 1_555 1_555
C29 C28 1_555 1_555
H26 C29 1_555 1_555
C30 C29 1_555 1_555
C31 C2 1_555 1_555
C32 C31 1_555 1_555
H27 C32 1_555 1_555
H28 C32 1_555 1_555
H29 C32 1_555 1_555
C33 C31 1_555 1_555
C34 C33 1_555 1_555
H30 C34 1_555 1_555
C35 C34 1_555 1_555
C36 C35 1_555 1_555
H31 C36 1_555 1_555
C37 C36 1_555 1_555
C38 C33 1_555 1_555
H32 C38 1_555 1_555
N1 C2 1_555 1_555
H33 N1 1_555 1_555
N2 C9 1_555 1_555
H34 N2 1_555 1_555
N3 C1 1_555 1_555
H35 N3 1_555 1_555
N4 C27 1_555 1_555
H36 N4 1_555 1_555
N5 C37 1_555 1_555
N6 C35 1_555 1_555
N7 C19 1_555 1_555
N8 C17 1_555 1_555
O1 N5 1_555 1_555
O2 N5 1_555 1_555
O3 N6 1_555 1_555
O4 N6 1_555 1_555
O5 N7 1_555 1_555
O6 N7 1_555 1_555
O7 N8 1_555 1_555
O8 N8 1_555 1_555
C39 C40 1_555 1_555
C40 H37 1_555 1_555
C41 C40 1_555 1_555
H38 C41 1_555 1_555
C42 C41 1_555 1_555
C43 C42 1_555 1_555
C44 C43 1_555 1_555
H39 C44 1_555 1_555
H40 C44 1_555 1_555
H41 C44 1_555 1_555
C45 C43 1_555 1_555
H42 C45 1_555 1_555
H43 C45 1_555 1_555
H44 C45 1_555 1_555
C46 C43 1_555 1_555
C47 C46 1_555 1_555
H45 C47 1_555 1_555
C48 C47 1_555 1_555
H46 C48 1_555 1_555
C49 C48 1_555 1_555
C50 C49 1_555 1_555
C51 C50 1_555 1_555
H47 C51 1_555 1_555
H48 C51 1_555 1_555
H49 C51 1_555 1_555
C52 C50 1_555 1_555
C53 C52 1_555 1_555
H50 C53 1_555 1_555
C54 C53 1_555 1_555
C55 C54 1_555 1_555
H51 C55 1_555 1_555
C56 C55 1_555 1_555
C57 C52 1_555 1_555
H52 C57 1_555 1_555
C58 C50 1_555 1_555
C59 C58 1_555 1_555
H53 C59 1_555 1_555
C60 C59 1_555 1_555
H54 C60 1_555 1_555
C61 C60 1_555 1_555
C62 C61 1_555 1_555
C63 C62 1_555 1_555
H55 C63 1_555 1_555
H56 C63 1_555 1_555
H57 C63 1_555 1_555
C64 C62 1_555 1_555
H58 C64 1_555 1_555
H59 C64 1_555 1_555
H60 C64 1_555 1_555
C65 C62 1_555 1_555
C66 C65 1_555 1_555
H61 C66 1_555 1_555
C67 C66 1_555 1_555
H62 C67 1_555 1_555
C68 C67 1_555 1_555
C69 C39 1_555 1_555
C70 C69 1_555 1_555
H63 C70 1_555 1_555
H64 C70 1_555 1_555
H65 C70 1_555 1_555
C71 C69 1_555 1_555
C72 C71 1_555 1_555
H66 C72 1_555 1_555
C73 C72 1_555 1_555
C74 C73 1_555 1_555
H67 C74 1_555 1_555
C75 C74 1_555 1_555
C76 C71 1_555 1_555
H68 C76 1_555 1_555
N9 C39 1_555 1_555
H69 N9 1_555 1_555
N10 C65 1_555 1_555
H70 N10 1_555 1_555
N11 C58 1_555 1_555
H71 N11 1_555 1_555
N12 C46 1_555 1_555
H72 N12 1_555 1_555
N13 C75 1_555 1_555
N14 C73 1_555 1_555
N15 C54 1_555 1_555
N16 C56 1_555 1_555
O9 N13 1_555 1_555
O10 N13 1_555 1_555
O11 N14 1_555 1_555
O12 N14 1_555 1_555
O13 N16 1_555 1_555
O14 N16 1_555 1_555
O15 N15 1_555 1_555
O16 N15 1_555 1_555
C77 H73 1_555 1_555
H74 C77 1_555 1_555
C78 C77 1_555 1_555
H75 C78 1_555 1_555
H76 C78 1_555 1_555
C79 C78 1_555 1_555
H77 C79 1_555 1_555
H78 C79 1_555 1_555
C80 C79 1_555 1_555
H79 C80 1_555 1_555
H80 C80 1_555 1_555
H81 C80 1_555 1_555
C81 H82 1_555 1_555
H83 C81 1_555 1_555
C82 C81 1_555 1_555
H84 C82 1_555 1_555
H85 C82 1_555 1_555
C83 C82 1_555 1_555
H86 C83 1_555 1_555
H87 C83 1_555 1_555
C84 C83 1_555 1_555
H88 C84 1_555 1_555
H89 C84 1_555 1_555
H90 C84 1_555 1_555
C85 H91 1_555 1_555
H92 C85 1_555 1_555
C86 C85 1_555 1_555
H93 C86 1_555 1_555
H94 C86 1_555 1_555
C87 C86 1_555 1_555
H95 C87 1_555 1_555
H96 C87 1_555 1_555
C88 C87 1_555 1_555
H97 C88 1_555 1_555
H98 C88 1_555 1_555
H99 C88 1_555 1_555
C89 H100 1_555 1_555
H101 C89 1_555 1_555
C90 C89 1_555 1_555
H102 C90 1_555 1_555
H103 C90 1_555 1_555
C91 C90 1_555 1_555
H104 C91 1_555 1_555
H105 C91 1_555 1_555
C92 C91 1_555 1_555
H106 C92 1_555 1_555
H107 C92 1_555 1_555
H108 C92 1_555 1_555
N17 C77 1_555 1_555
C93 H109 1_555 1_555
H110 C93 1_555 1_555
C94 C93 1_555 1_555
H111 C94 1_555 1_555
H112 C94 1_555 1_555
C95 C94 1_555 1_555
H113 C95 1_555 1_555
H114 C95 1_555 1_555
C96 C95 1_555 1_555
H115 C96 1_555 1_555
H116 C96 1_555 1_555
H117 C96 1_555 1_555
C97 H118 1_555 1_555
H119 C97 1_555 1_555
C98 C97 1_555 1_555
H120 C98 1_555 1_555
H121 C98 1_555 1_555
C99 C98 1_555 1_555
H122 C99 1_555 1_555
H123 C99 1_555 1_555
C100 C99 1_555 1_555
H124 C100 1_555 1_555
H125 C100 1_555 1_555
H126 C100 1_555 1_555
C101 H127 1_555 1_555
H128 C101 1_555 1_555
C102 C101 1_555 1_555
H129 C102 1_555 1_555
H130 C102 1_555 1_555
C103 C102 1_555 1_555
H131 C103 1_555 1_555
H132 C103 1_555 1_555
C104 C103 1_555 1_555
H133 C104 1_555 1_555
H134 C104 1_555 1_555
H135 C104 1_555 1_555
C105 H136 1_555 1_555
H137 C105 1_555 1_555
C106 C105 1_555 1_555
H138 C106 1_555 1_555
H139 C106 1_555 1_555
C107 C106 1_555 1_555
H140 C107 1_555 1_555
H141 C107 1_555 1_555
C108 C107 1_555 1_555
H142 C108 1_555 1_555
H143 C108 1_555 1_555
H144 C108 1_555 1_555
N18 C93 1_555 1_555
C109 H145 1_555 1_555
H146 C109 1_555 1_555
C110 C109 1_555 1_555
H147 C110 1_555 1_555
H148 C110 1_555 1_555
C111 C110 1_555 1_555
H149 C111 1_555 1_555
H150 C111 1_555 1_555
C112 C111 1_555 1_555
H151 C112 1_555 1_555
H152 C112 1_555 1_555
H153 C112 1_555 1_555
C113 H154 1_555 1_555
H155 C113 1_555 1_555
C114 C113 1_555 1_555
H156 C114 1_555 1_555
H157 C114 1_555 1_555
C115 C114 1_555 1_555
H158 C115 1_555 1_555
H159 C115 1_555 1_555
C116 C115 1_555 1_555
H160 C116 1_555 1_555
H161 C116 1_555 1_555
H162 C116 1_555 1_555
C117 H163 1_555 1_555
H164 C117 1_555 1_555
C118 C117 1_555 1_555
H165 C118 1_555 1_555
H166 C118 1_555 1_555
C119 C118 1_555 1_555
H167 C119 1_555 1_555
H168 C119 1_555 1_555
C120 C119 1_555 1_555
H169 C120 1_555 1_555
H170 C120 1_555 1_555
H171 C120 1_555 1_555
C121 H172 1_555 1_555
H173 C121 1_555 1_555
C122 C121 1_555 1_555
H174 C122 1_555 1_555
H175 C122 1_555 1_555
C123 C122 1_555 1_555
H176 C123 1_555 1_555
H177 C123 1_555 1_555
C124 C123 1_555 1_555
H178 C124 1_555 1_555
H179 C124 1_555 1_555
H180 C124 1_555 1_555
N19 C109 1_555 1_555
C125 H181 1_555 1_555
H182 C125 1_555 1_555
C126 C125 1_555 1_555
H183 C126 1_555 1_555
H184 C126 1_555 1_555
C127 C126 1_555 1_555
C128 C127 1_555 1_555
H185 C128 1_555 1_555
H186 C128 1_555 1_555
H187 C128 1_555 1_555
C129 H188 1_555 1_555
H189 C129 1_555 1_555
C130 C129 1_555 1_555
H190 C130 1_555 1_555
H191 C130 1_555 1_555
C131 C130 1_555 1_555
H192 C131 1_555 1_555
H193 C131 1_555 1_555
C132 C131 1_555 1_555
H194 C132 1_555 1_555
H195 C132 1_555 1_555
H196 C132 1_555 1_555
C133 H197 1_555 1_555
H198 C133 1_555 1_555
C134 C133 1_555 1_555
H199 C134 1_555 1_555
H200 C134 1_555 1_555
C135 C134 1_555 1_555
H201 C135 1_555 1_555
H202 C135 1_555 1_555
C136 C135 1_555 1_555
H203 C136 1_555 1_555
H204 C136 1_555 1_555
H205 C136 1_555 1_555
C137 H206 1_555 1_555
H207 C137 1_555 1_555
C138 C137 1_555 1_555
H208 C138 1_555 1_555
H209 C138 1_555 1_555
C139 C138 1_555 1_555
H210 C139 1_555 1_555
H211 C139 1_555 1_555
C140 C139 1_555 1_555
H212 C140 1_555 1_555
H213 C140 1_555 1_555
H214 C140 1_555 1_555
N20 C125 1_555 1_555
C141 H215 1_555 1_555
Cl1 C141 1_555 1_555
Cl2 C141 1_555 1_555
Cl3 C141 1_555 1_555
C142 H216 1_555 1_555
Cl4 C142 1_555 1_555
Cl5 C142 1_555 1_555
Cl6 C142 1_555 1_555
O17 P1 1_555 1_555
O18 P1 1_555 1_555
O19 H217 1_555 1_555
O20 H218 1_555 1_555
P1 O19 1_555 1_555
O21 H219 1_555 1_555
O22 P2 1_555 1_555
O23 H220 1_555 1_555
O24 P2 1_555 1_555
P2 O21 1_555 1_555
O25 P3 1_555 1_555
O26 H221 1_555 1_555
O27 H222 1_555 1_555
O28 P3 1_555 1_555
P3 O26 1_555 1_555
O29 H223 1_555 1_555
O30 P4 1_555 1_555
O31 H224 1_555 1_555
O32 P4 1_555 1_555
P4 O29 1_555 1_555
C143 H225 1_555 1_555
H226 C143 1_555 1_555
H227 C143 1_555 1_555
O35 C143 1_555 1_555
H228 O35 1_555 1_555
C144 H229 1_555 1_555
H230 C144 1_555 1_555
H231 C144 1_555 1_555
O36 C144 1_555 1_555
H232 O36 1_555 1_555
C5 N1 1_555 1_555
C12 N2 1_555 1_555
C19 C20 1_555 1_555
C21 N3 1_555 1_555
C30 C31 1_555 1_555
C30 N4 1_555 1_555
C37 C38 1_555 1_555
C42 N9 1_555 1_555
C49 N12 1_555 1_555
C56 C57 1_555 1_555
C61 N11 1_555 1_555
C68 C69 1_555 1_555
C68 N10 1_555 1_555
C75 C76 1_555 1_555
C81 N17 1_555 1_555
C85 N17 1_555 1_555
C89 N17 1_555 1_555
C97 N18 1_555 1_555
C101 N18 1_555 1_555
C105 N18 1_555 1_555
C113 N19 1_555 1_555
C117 N19 1_555 1_555
C121 N19 1_555 1_555
C129 N20 1_555 1_555
C133 N20 1_555 1_555
C137 N20 1_555 1_555
O20 P1 1_555 1_555
O23 P2 1_555 1_555
O27 P3 1_555 1_555
O31 P4 1_555 1_555

#END
