
#######################################################################
#
#                 Cambridge Crystallographic Data Centre
#                                CCDC 
#
#######################################################################
#
# If this CIF has been generated from an entry in the Cambridge 
# Structural Database, then it will include bibliographic, chemical, 
# crystal, experimental, refinement or atomic coordinate data resulting 
# from the CCDC's data processing and validation procedures.
#
#######################################################################

data_ASOXEN
_chemical_name_common            
'bis(tetra-n-butylammonium) cis-2,12-bis(3,5-dinitrophenyl)-2,7,7,12,17,17-hexamethylcalix[4]pyrrole bis(hydrogen sulfate)'
_chemical_formula_moiety         'C38 H36 N8 O8,2(H1 O4 S1 1-),2(C16 H36 N1 1+)'
_chemical_name_systematic        
'bis(tetra-n-butylammonium) 5,15-bis(3,5-dinitrophenyl)-5,10,10,15,20,20-hexamethyl-5,10,15,20,22,24-hexahydroporphyrin bis(hydrogen sulfate)'
_symmetry_cell_setting           monoclinic
_symmetry_space_group_name_H-M   'P 21/n'
_symmetry_Int_Tables_number      14
_space_group_name_Hall           '-P 2yn'
loop_
_symmetry_equiv_pos_site_id
_symmetry_equiv_pos_as_xyz
1 x,y,z
2 1/2-x,1/2+y,1/2-z
3 -x,-y,-z
4 1/2+x,1/2-y,1/2+z
_cell_length_a                   14.239(3)
_cell_length_b                   21.245(4)
_cell_length_c                   24.510(5)
_cell_angle_alpha                90
_cell_angle_beta                 92.19(3)
_cell_angle_gamma                90
_cell_volume                     7409.04
_exptl_crystal_colour            orange
_exptl_crystal_description       Prism
_cell_formula_units_Z            4
loop_
_atom_site_label
_atom_site_type_symbol
_atom_site_fract_x
_atom_site_fract_y
_atom_site_fract_z
C1 C 0.86016(19) 0.97237(13) 0.12405(11)
H1 H 0.8999 0.9880 0.0969
N1 N 0.44487(17) 0.81817(11) 0.37330(8)
N2 N 0.69858(15) 0.80348(10) 0.08457(8)
H2 H 0.6706 0.8126 0.1150
N3 N 0.74441(15) 0.92521(9) 0.16548(8)
H3 H 0.6931 0.9034 0.1709
O1 O 0.36913(14) 0.81080(9) 0.39498(8)
O2 O 0.48939(14) 0.86756(9) 0.37497(8)
C2 C 0.74022(18) 0.84698(12) 0.05171(10)
O3 O 0.32679(16) 0.61206(10) 0.29784(9)
O4 O 0.44448(14) 0.57130(9) 0.25711(8)
N4 N 0.68411(15) 0.70740(10) 0.19316(8)
H4 H 0.6373 0.7344 0.1943
C3 C 0.80408(19) 0.64749(12) 0.21923(11)
H5 H 0.8516 0.6268 0.2408
N5 N 0.74127(15) 0.83104(9) 0.27392(8)
H6 H 0.6941 0.8318 0.2497
C4 C 0.48541(19) 0.76421(12) 0.34491(10)
O5 O 0.31731(16) 0.89027(10) -0.00360(10)
C5 C 0.57915(19) 0.76650(12) 0.33294(10)
H7 H 0.6160 0.8021 0.3433
N6 N 0.40859(18) 0.61252(11) 0.28439(9)
C6 C 0.79580(18) 0.88233(12) 0.28892(10)
C7 C 0.87353(19) 0.98089(12) 0.18130(11)
H8 H 0.9241 1.0029 0.1991
C8 C 0.62590(18) 0.93439(12) 0.06121(10)
C9 C 0.77994(19) 0.93768(12) 0.11477(11)
O6 O 0.52154(16) 1.07898(10) 0.15228(10)
C10 C 0.49743(19) 0.99716(13) 0.09058(11)
C11 C 0.56169(19) 0.66595(12) 0.28978(10)
H9 H 0.5868 0.6316 0.2702
C12 C 0.61986(18) 0.71663(12) 0.30566(10)
N7 N 0.4632(2) 1.04820(12) 0.12557(11)
C13 C 0.73113(18) 0.91702(12) 0.06185(10)
C14 C 0.59263(19) 0.98432(13) 0.09196(11)
H10 H 0.6350 1.0093 0.1136
C15 C 0.77724(18) 0.94771(12) 0.26605(10)
C16 C 0.70660(19) 0.74385(13) 0.06353(10)
O7 O 0.37832(16) 1.05704(11) 0.12633(10)
C17 C 0.84594(19) 0.79612(13) 0.33574(11)
H11 H 0.8812 0.7696 0.3601
C18 C 0.46861(19) 0.66596(12) 0.30250(10)
C19 C 0.77152(18) 0.77838(12) 0.30244(10)
C20 C 0.86109(19) 0.86160(13) 0.32727(10)
H12 H 0.9083 0.8866 0.3451
N8 N 0.4009(2) 0.87779(12) -0.00557(11)
C21 C 0.74012(19) 0.68902(12) 0.23754(10)
C22 C 0.71248(19) 0.67706(12) 0.14653(11)
C23 C 0.72510(18) 0.71435(12) 0.29445(10)
C24 C 0.42705(19) 0.71433(12) 0.33084(10)
H13 H 0.3628 0.7133 0.3400
C25 C 0.56169(19) 0.90019(13) 0.02850(11)
H14 H 0.5827 0.8665 0.0066
C26 C 0.4675(2) 0.91568(13) 0.02829(11)
C27 C 0.6636(2) 0.68794(12) 0.09123(11)
C28 C 0.77574(19) 0.81407(14) 0.00891(11)
H15 H 0.8083 0.8315 -0.0206
C29 C 0.67338(19) 0.96528(13) 0.27329(12)
H16 H 0.6329 0.9360 0.2523
H17 H 0.6621 1.0083 0.2602
H18 H 0.6591 0.9627 0.3120
C30 C 0.80107(18) 0.95201(12) 0.20637(11)
C31 C 0.8396(2) 0.99487(13) 0.29846(12)
H19 H 0.8247 0.9932 0.3371
H20 H 0.8279 1.0375 0.2844
H21 H 0.9058 0.9840 0.2944
C32 C 0.7873(2) 0.64044(12) 0.16231(11)
H22 H 0.8223 0.6145 0.1390
C33 C 0.4323(2) 0.96340(13) 0.05940(11)
H23 H 0.3670 0.9726 0.0594
O8 O 0.43171(17) 0.83606(13) -0.03382(11)
C34 C 0.7741(2) 0.95288(14) 0.01393(11)
H24 H 0.8414 0.9434 0.0130
H25 H 0.7654 0.9982 0.0190
H26 H 0.7428 0.9397 -0.0205
C35 C 0.75529(19) 0.74953(14) 0.01661(11)
H27 H 0.7723 0.7160 -0.0067
C36 C 0.6759(2) 0.62926(14) 0.05580(12)
H28 H 0.6432 0.6354 0.0203
H29 H 0.6494 0.5926 0.0740
H30 H 0.7429 0.6222 0.0505
C37 C 0.7710(2) 0.66794(13) 0.33667(11)
H31 H 0.7417 0.6264 0.3324
H32 H 0.7618 0.6836 0.3737
H33 H 0.8384 0.6646 0.3305
C38 C 0.55776(19) 0.69917(14) 0.09722(12)
H34 H 0.5484 0.7380 0.1178
H35 H 0.5306 0.6637 0.1167
H36 H 0.5269 0.7029 0.0609
S1 S 0.30296(5) 0.70438(3) 0.16366(3)
O9 O 0.32182(14) 0.74404(9) 0.11029(7)
H37 H 0.3364 0.7811 0.1191
O10 O 0.27891(14) 0.64289(9) 0.14355(8)
O11 O 0.22976(14) 0.73598(9) 0.19163(8)
O12 O 0.39262(13) 0.70612(9) 0.19567(7)
S2 S 0.48729(5) 0.85434(3) 0.18460(3)
O13 O 0.47626(13) 0.91915(8) 0.19958(7)
O14 O 0.44037(12) 0.81566(8) 0.23011(7)
H38 H 0.4449 0.7771 0.2233
O15 O 0.43991(12) 0.83741(8) 0.13283(7)
O16 O 0.58684(12) 0.83502(8) 0.18518(7)
N9 N 0.08190(15) 0.70385(10) 0.02720(8)
C39 C 0.06282(19) 0.75784(12) -0.01236(10)
H39 H 0.0613 0.7407 -0.0499
H40 H -0.0005 0.7748 -0.0058
C40 C 0.1013(2) 0.86357(13) -0.04961(11)
H41 H 0.1540 0.8934 -0.0535
H42 H 0.0875 0.8444 -0.0858
C41 C 0.17914(19) 0.67634(13) 0.02077(10)
H43 H 0.1860 0.6393 0.0452
H44 H 0.2260 0.7080 0.0335
C42 C 0.07865(19) 0.72635(13) 0.08618(10)
H45 H 0.0922 0.6900 0.1105
H46 H 0.1296 0.7575 0.0927
C43 C -0.01289(19) 0.75578(13) 0.10243(10)
H47 H -0.0659 0.7272 0.0928
H48 H -0.0232 0.7959 0.0826
C44 C 0.2936(2) 0.61793(14) -0.03486(12)
H49 H 0.2862 0.5814 -0.0103
H50 H 0.3045 0.6014 -0.0719
C45 C -0.00856(19) 0.76784(13) 0.16376(10)
H51 H -0.0050 0.7270 0.1832
H52 H 0.0493 0.7918 0.1735
C46 C 0.00562(19) 0.65542(12) 0.01464(11)
H53 H -0.0560 0.6770 0.0153
H54 H 0.0132 0.6400 -0.0230
C47 C -0.0926(2) 0.80407(13) 0.18250(11)
H55 H -0.0944 0.8455 0.1650
H56 H -0.0877 0.8093 0.2222
H57 H -0.1502 0.7809 0.1725
C48 C 0.2029(2) 0.65607(14) -0.03666(11)
H58 H 0.2104 0.6937 -0.0599
H59 H 0.1510 0.6303 -0.0528
C49 C 0.0026(2) 0.59896(13) 0.05218(12)
H60 H -0.0077 0.6129 0.0900
H61 H 0.0632 0.5761 0.0519
C50 C -0.0770(2) 0.55575(14) 0.03264(14)
H62 H -0.1346 0.5812 0.0262
H63 H -0.0606 0.5367 -0.0026
C51 C 0.1320(2) 0.81183(13) -0.00954(11)
H64 H 0.1952 0.7964 -0.0185
H65 H 0.1358 0.8291 0.0280
C52 C 0.3791(2) 0.65575(17) -0.01528(13)
H66 H 0.3824 0.6948 -0.0364
H67 H 0.4362 0.6309 -0.0203
H68 H 0.3740 0.6659 0.0235
C53 C 0.0169(3) 0.89933(16) -0.03283(19)
H69 H -0.0359 0.8702 -0.0291
H70 H 0.0003 0.9310 -0.0606
H71 H 0.0308 0.9202 0.0022
C54 C -0.0975(3) 0.50388(15) 0.07229(15)
H72 H -0.0428 0.4760 0.0763
H73 H -0.1520 0.4797 0.0585
H74 H -0.1111 0.5222 0.1078
N10 N 0.30014(15) 0.41112(10) 0.21262(8)
C55 C 0.19951(19) 0.43432(12) 0.20561(11)
H75 H 0.1598 0.4090 0.2296
H76 H 0.1775 0.4263 0.1674
C56 C 0.1841(2) 0.50367(13) 0.21825(12)
H77 H 0.1917 0.5108 0.2581
H78 H 0.2314 0.5295 0.1999
C57 C 0.29923(19) 0.34043(12) 0.20041(11)
H79 H 0.2606 0.3194 0.2277
H80 H 0.2676 0.3339 0.1642
C58 C 0.33894(19) 0.42399(13) 0.27042(10)
H81 H 0.4025 0.4053 0.2744
H82 H 0.3457 0.4701 0.2752
C59 C 0.3510(2) 0.47762(15) 0.38467(12)
H83 H 0.4007 0.4926 0.3613
H84 H 0.3721 0.4815 0.4231
H85 H 0.2943 0.5030 0.3781
C60 C 0.3294(2) 0.40921(14) 0.37173(11)
H86 H 0.2893 0.3921 0.4003
H87 H 0.3890 0.3851 0.3732
C61 C 0.0860(2) 0.52309(13) 0.19849(12)
H88 H 0.0393 0.4958 0.2158
H89 H 0.0795 0.5168 0.1585
C62 C 0.2799(2) 0.39877(13) 0.31584(11)
H90 H 0.2686 0.3532 0.3102
H91 H 0.2182 0.4203 0.3148
C63 C 0.3841(2) 0.23864(14) 0.18539(12)
H92 H 0.4439 0.2170 0.1953
H93 H 0.3345 0.2197 0.2073
C64 C 0.3937(2) 0.30804(13) 0.20044(12)
H94 H 0.4247 0.3118 0.2371
H95 H 0.4340 0.3292 0.1740
C65 C 0.3371(2) 0.43989(15) 0.11356(11)
H96 H 0.3345 0.3948 0.1034
H97 H 0.2738 0.4580 0.1065
C66 C 0.3634(2) 0.44562(13) 0.17409(11)
H98 H 0.4283 0.4297 0.1802
H99 H 0.3638 0.4908 0.1839
C67 C 0.0652(2) 0.59169(14) 0.21181(13)
H100 H 0.0650 0.5971 0.2515
H101 H 0.0035 0.6033 0.1957
H102 H 0.1136 0.6187 0.1967
C68 C 0.3601(3) 0.22714(17) 0.12554(14)
H103 H 0.2990 0.2461 0.1159
H104 H 0.3574 0.1817 0.1186
H105 H 0.4085 0.2462 0.1034
C69 C 0.4466(4) 0.5275(3) 0.08978(19)
H106 H 0.3996 0.5612 0.0882
H107 H 0.4942 0.5357 0.0628
H108 H 0.4768 0.5261 0.1264
C70 C 0.4051(4) 0.4726(2) 0.07883(15)
H109 H 0.4566 0.4422 0.0735
H110 H 0.3725 0.4778 0.0427
loop_
_geom_bond_atom_site_label_1
_geom_bond_atom_site_label_2
_geom_bond_site_symmetry_1
_geom_bond_site_symmetry_2
C1 H1 1_555 1_555
N1 O1 1_555 1_555
N2 H2 1_555 1_555
N3 H3 1_555 1_555
O2 N1 1_555 1_555
C2 N2 1_555 1_555
O3 N6 1_555 1_555
O4 N6 1_555 1_555
N4 H4 1_555 1_555
C3 H5 1_555 1_555
N5 H6 1_555 1_555
C4 N1 1_555 1_555
O5 N8 1_555 1_555
C5 C4 1_555 1_555
H7 C5 1_555 1_555
N6 C18 1_555 1_555
C6 N5 1_555 1_555
C7 C1 1_555 1_555
H8 C7 1_555 1_555
C8 C13 1_555 1_555
C9 C1 1_555 1_555
O6 N7 1_555 1_555
C10 N7 1_555 1_555
C11 H9 1_555 1_555
C12 C5 1_555 1_555
N7 O7 1_555 1_555
C13 C2 1_555 1_555
C14 C8 1_555 1_555
H10 C14 1_555 1_555
C15 C6 1_555 1_555
C16 N2 1_555 1_555
C17 H11 1_555 1_555
C18 C11 1_555 1_555
C19 N5 1_555 1_555
C20 C6 1_555 1_555
H12 C20 1_555 1_555
N8 C26 1_555 1_555
C21 N4 1_555 1_555
C22 N4 1_555 1_555
C23 C12 1_555 1_555
C24 C4 1_555 1_555
H13 C24 1_555 1_555
C25 C8 1_555 1_555
H14 C25 1_555 1_555
C26 C25 1_555 1_555
C27 C16 1_555 1_555
C28 C2 1_555 1_555
H15 C28 1_555 1_555
C29 C15 1_555 1_555
H16 C29 1_555 1_555
H17 C29 1_555 1_555
H18 C29 1_555 1_555
C30 N3 1_555 1_555
C31 C15 1_555 1_555
H19 C31 1_555 1_555
H20 C31 1_555 1_555
H21 C31 1_555 1_555
C32 C3 1_555 1_555
H22 C32 1_555 1_555
C33 C10 1_555 1_555
H23 C33 1_555 1_555
O8 N8 1_555 1_555
C34 C13 1_555 1_555
H24 C34 1_555 1_555
H25 C34 1_555 1_555
H26 C34 1_555 1_555
C35 C16 1_555 1_555
H27 C35 1_555 1_555
C36 C27 1_555 1_555
H28 C36 1_555 1_555
H29 C36 1_555 1_555
H30 C36 1_555 1_555
C37 C23 1_555 1_555
H31 C37 1_555 1_555
H32 C37 1_555 1_555
H33 C37 1_555 1_555
C38 C27 1_555 1_555
H34 C38 1_555 1_555
H35 C38 1_555 1_555
H36 C38 1_555 1_555
S1 O9 1_555 1_555
O9 H37 1_555 1_555
O10 S1 1_555 1_555
O11 S1 1_555 1_555
O12 S1 1_555 1_555
S2 O13 1_555 1_555
O14 S2 1_555 1_555
H38 O14 1_555 1_555
O15 S2 1_555 1_555
O16 S2 1_555 1_555
N9 C39 1_555 1_555
C39 H39 1_555 1_555
H40 C39 1_555 1_555
C40 H41 1_555 1_555
H42 C40 1_555 1_555
C41 N9 1_555 1_555
H43 C41 1_555 1_555
H44 C41 1_555 1_555
C42 N9 1_555 1_555
H45 C42 1_555 1_555
H46 C42 1_555 1_555
C43 C42 1_555 1_555
H47 C43 1_555 1_555
H48 C43 1_555 1_555
C44 H49 1_555 1_555
H50 C44 1_555 1_555
C45 C43 1_555 1_555
H51 C45 1_555 1_555
H52 C45 1_555 1_555
C46 N9 1_555 1_555
H53 C46 1_555 1_555
H54 C46 1_555 1_555
C47 C45 1_555 1_555
H55 C47 1_555 1_555
H56 C47 1_555 1_555
H57 C47 1_555 1_555
C48 C41 1_555 1_555
H58 C48 1_555 1_555
H59 C48 1_555 1_555
C49 C46 1_555 1_555
H60 C49 1_555 1_555
H61 C49 1_555 1_555
C50 C49 1_555 1_555
H62 C50 1_555 1_555
H63 C50 1_555 1_555
C51 C39 1_555 1_555
H64 C51 1_555 1_555
H65 C51 1_555 1_555
C52 C44 1_555 1_555
H66 C52 1_555 1_555
H67 C52 1_555 1_555
H68 C52 1_555 1_555
C53 C40 1_555 1_555
H69 C53 1_555 1_555
H70 C53 1_555 1_555
H71 C53 1_555 1_555
C54 C50 1_555 1_555
H72 C54 1_555 1_555
H73 C54 1_555 1_555
H74 C54 1_555 1_555
N10 C55 1_555 1_555
C55 H75 1_555 1_555
H76 C55 1_555 1_555
C56 C55 1_555 1_555
H77 C56 1_555 1_555
H78 C56 1_555 1_555
C57 N10 1_555 1_555
H79 C57 1_555 1_555
H80 C57 1_555 1_555
C58 N10 1_555 1_555
H81 C58 1_555 1_555
H82 C58 1_555 1_555
C59 H83 1_555 1_555
H84 C59 1_555 1_555
H85 C59 1_555 1_555
C60 C59 1_555 1_555
H86 C60 1_555 1_555
H87 C60 1_555 1_555
C61 C56 1_555 1_555
H88 C61 1_555 1_555
H89 C61 1_555 1_555
C62 C58 1_555 1_555
H90 C62 1_555 1_555
H91 C62 1_555 1_555
C63 H92 1_555 1_555
H93 C63 1_555 1_555
C64 C57 1_555 1_555
H94 C64 1_555 1_555
H95 C64 1_555 1_555
C65 H96 1_555 1_555
H97 C65 1_555 1_555
C66 N10 1_555 1_555
H98 C66 1_555 1_555
H99 C66 1_555 1_555
C67 C61 1_555 1_555
H100 C67 1_555 1_555
H101 C67 1_555 1_555
H102 C67 1_555 1_555
C68 C63 1_555 1_555
H103 C68 1_555 1_555
H104 C68 1_555 1_555
H105 C68 1_555 1_555
C69 H106 1_555 1_555
H107 C69 1_555 1_555
H108 C69 1_555 1_555
C70 C65 1_555 1_555
H109 C70 1_555 1_555
H110 C70 1_555 1_555
N3 C9 1_555 1_555
C3 C21 1_555 1_555
C7 C30 1_555 1_555
C9 C13 1_555 1_555
C10 C14 1_555 1_555
C11 C12 1_555 1_555
C15 C30 1_555 1_555
C17 C19 1_555 1_555
C17 C20 1_555 1_555
C18 C24 1_555 1_555
C19 C23 1_555 1_555
C21 C23 1_555 1_555
C22 C27 1_555 1_555
C22 C32 1_555 1_555
C26 C33 1_555 1_555
C28 C35 1_555 1_555
C40 C51 1_555 1_555
C44 C48 1_555 1_555
C60 C62 1_555 1_555
C63 C64 1_555 1_555
C65 C66 1_555 1_555
C69 C70 1_555 1_555

#END
