
#######################################################################
#
#                 Cambridge Crystallographic Data Centre
#                                CCDC 
#
#######################################################################
#
# If this CIF has been generated from an entry in the Cambridge 
# Structural Database, then it will include bibliographic, chemical, 
# crystal, experimental, refinement or atomic coordinate data resulting 
# from the CCDC's data processing and validation procedures.
#
#######################################################################

data_ASOYIR
_chemical_formula_moiety         'C20 H18 O3'
_chemical_name_systematic        
'(E)-Methyl 1-benzylidene-7-hydroxy-1,2,7,7a-tetrahydro-2aH-cyclobuta[a]indene-2a-carboxylate'
_symmetry_cell_setting           monoclinic
_symmetry_space_group_name_H-M   'P 21/n'
_symmetry_Int_Tables_number      14
_space_group_name_Hall           '-P 2yn'
loop_
_symmetry_equiv_pos_site_id
_symmetry_equiv_pos_as_xyz
1 x,y,z
2 1/2-x,1/2+y,1/2-z
3 -x,-y,-z
4 1/2+x,1/2-y,1/2+z
_cell_length_a                   16.441(3)
_cell_length_b                   10.8317(18)
_cell_length_c                   17.319(3)
_cell_angle_alpha                90
_cell_angle_beta                 94.114(11)
_cell_angle_gamma                90
_cell_volume                     3076.29
_exptl_crystal_colour            colorless
_exptl_crystal_description       block
_chemical_melting_point          '98-99 deg.C'
_cell_formula_units_Z            8
_exptl_crystal_recrystallization_method hexane
loop_
_atom_site_label
_atom_site_type_symbol
_atom_site_fract_x
_atom_site_fract_y
_atom_site_fract_z
O1 O 0.35915(11) 0.47222(14) 0.33748(11)
H1 H 0.3234 0.4324 0.3568
O2 O 0.27471(10) 0.58145(14) 0.15557(9)
O3 O 0.23862(10) 0.77202(15) 0.11778(9)
C1 C 0.45426(14) 1.0787(2) 0.34256(14)
H3 H 0.4115 1.0703 0.3047
C2 C 0.47781(14) 1.1957(2) 0.36725(15)
H4 H 0.4506 1.2647 0.3465
C3 C 0.54192(15) 1.2098(2) 0.42287(15)
H5 H 0.5579 1.2880 0.4401
C4 C 0.58177(15) 1.1060(2) 0.45231(14)
H6 H 0.6252 1.1146 0.4893
C5 C 0.55785(13) 0.9898(2) 0.42743(14)
H7 H 0.5858 0.9212 0.4477
C6 C 0.49293(13) 0.97338(19) 0.37291(13)
C7 C 0.46760(13) 0.84690(19) 0.35270(13)
H8 H 0.4998 0.7848 0.3760
C8 C 0.40538(13) 0.80859(18) 0.30588(13)
C9 C 0.37480(13) 0.67852(18) 0.28772(13)
H9 H 0.4078 0.6338 0.2519
C10 C 0.35023(14) 0.60001(19) 0.35533(14)
H10 H 0.3841 0.6209 0.4024
C11 C 0.26330(13) 0.63733(18) 0.36393(13)
C12 C 0.21373(15) 0.6024(2) 0.42215(14)
H11 H 0.2332 0.5490 0.4613
C13 C 0.13558(16) 0.6480(2) 0.42083(14)
H12 H 0.1017 0.6243 0.4589
C14 C 0.10692(14) 0.7290(2) 0.36310(15)
H13 H 0.0542 0.7601 0.3635
C15 C 0.15572(13) 0.7643(2) 0.30466(13)
H14 H 0.1364 0.8192 0.2663
C16 C 0.23385(13) 0.71586(19) 0.30488(12)
C17 C 0.29672(13) 0.73996(18) 0.24717(12)
C18 C 0.33867(13) 0.86895(18) 0.25470(13)
H15 H 0.3566 0.9009 0.2064
H16 H 0.3076 0.9302 0.2809
C19 C 0.26736(13) 0.70226(19) 0.16678(13)
C20 C 0.24341(17) 0.5342(2) 0.08159(14)
H17 H 0.2522 0.4466 0.0799
H18 H 0.2711 0.5733 0.0412
H19 H 0.1860 0.5510 0.0744
O4 O 0.86054(11) 0.79560(14) 0.32508(11)
H2 H 0.8282 0.8357 0.3489
O5 O 0.75988(11) 0.68207(14) 0.15416(9)
O6 O 0.73120(10) 0.48876(15) 0.11629(9)
C21 C 0.96070(13) 0.1915(2) 0.33187(14)
H20 H 0.9249 0.1995 0.2881
C22 C 0.98457(14) 0.0748(2) 0.35734(15)
H21 H 0.9649 0.0053 0.3306
C23 C 1.03754(16) 0.0617(2) 0.42229(15)
H22 H 1.0540 -0.0165 0.4392
C24 C 1.06600(16) 0.1654(2) 0.46219(16)
H23 H 1.1008 0.1569 0.5067
C25 C 1.04287(15) 0.2817(2) 0.43608(15)
H24 H 1.0633 0.3510 0.4627
C26 C 0.98962(13) 0.2969(2) 0.37086(13)
C27 C 0.96570(13) 0.42262(19) 0.34710(14)
H25 H 0.9974 0.4857 0.3699
C28 C 0.90515(13) 0.45831(19) 0.29765(13)
C29 C 0.87468(13) 0.58746(18) 0.27767(13)
H26 H 0.9053 0.6295 0.2389
C30 C 0.85579(14) 0.66856(19) 0.34600(13)
H27 H 0.8944 0.6511 0.3904
C31 C 0.77162(14) 0.62882(19) 0.36337(13)
C32 C 0.72929(16) 0.6619(2) 0.42660(14)
H28 H 0.7532 0.7129 0.4650
C33 C 0.65071(17) 0.6177(2) 0.43157(15)
H29 H 0.6212 0.6404 0.4732
C34 C 0.61591(15) 0.5403(2) 0.37515(15)
H30 H 0.5630 0.5118 0.3791
C35 C 0.65862(14) 0.5041(2) 0.31240(14)
H31 H 0.6355 0.4500 0.2753
C36 C 0.73612(13) 0.55053(18) 0.30652(12)
C37 C 0.79370(13) 0.52494(18) 0.24361(12)
C38 C 0.83648(13) 0.39641(18) 0.24941(12)
H32 H 0.8072 0.3349 0.2772
H33 H 0.8521 0.3645 0.2003
C39 C 0.75835(13) 0.56026(19) 0.16454(13)
C40 C 0.72455(17) 0.7282(2) 0.08125(14)
H34 H 0.7292 0.8165 0.0803
H35 H 0.6681 0.7053 0.0751
H36 H 0.7529 0.6936 0.0398
loop_
_geom_bond_atom_site_label_1
_geom_bond_atom_site_label_2
_geom_bond_site_symmetry_1
_geom_bond_site_symmetry_2
O1 H1 1_555 1_555
O2 C19 1_555 1_555
O3 C19 1_555 1_555
O4 H2 1_555 1_555
O5 C39 1_555 1_555
O6 C39 1_555 1_555
C1 H3 1_555 1_555
C2 C1 1_555 1_555
H4 C2 1_555 1_555
C3 C2 1_555 1_555
H5 C3 1_555 1_555
C4 C3 1_555 1_555
H6 C4 1_555 1_555
C5 C4 1_555 1_555
H7 C5 1_555 1_555
C6 C1 1_555 1_555
C7 C6 1_555 1_555
H8 C7 1_555 1_555
C8 C7 1_555 1_555
C9 C8 1_555 1_555
H9 C9 1_555 1_555
C10 O1 1_555 1_555
H10 C10 1_555 1_555
C11 C10 1_555 1_555
C12 C11 1_555 1_555
H11 C12 1_555 1_555
C13 C12 1_555 1_555
H12 C13 1_555 1_555
C14 C13 1_555 1_555
H13 C14 1_555 1_555
C15 C14 1_555 1_555
H14 C15 1_555 1_555
C16 C11 1_555 1_555
C17 C9 1_555 1_555
C18 C8 1_555 1_555
H15 C18 1_555 1_555
H16 C18 1_555 1_555
C19 C17 1_555 1_555
C20 O2 1_555 1_555
H17 C20 1_555 1_555
H18 C20 1_555 1_555
H19 C20 1_555 1_555
C21 H20 1_555 1_555
C22 C21 1_555 1_555
H21 C22 1_555 1_555
C23 C22 1_555 1_555
H22 C23 1_555 1_555
C24 C23 1_555 1_555
H23 C24 1_555 1_555
C25 C24 1_555 1_555
H24 C25 1_555 1_555
C26 C21 1_555 1_555
C27 C26 1_555 1_555
H25 C27 1_555 1_555
C28 C27 1_555 1_555
C29 C28 1_555 1_555
H26 C29 1_555 1_555
C30 O4 1_555 1_555
H27 C30 1_555 1_555
C31 C30 1_555 1_555
C32 C31 1_555 1_555
H28 C32 1_555 1_555
C33 C32 1_555 1_555
H29 C33 1_555 1_555
C34 C33 1_555 1_555
H30 C34 1_555 1_555
C35 C34 1_555 1_555
H31 C35 1_555 1_555
C36 C31 1_555 1_555
C37 C29 1_555 1_555
C38 C28 1_555 1_555
H32 C38 1_555 1_555
H33 C38 1_555 1_555
C39 C37 1_555 1_555
C40 O5 1_555 1_555
H34 C40 1_555 1_555
H35 C40 1_555 1_555
H36 C40 1_555 1_555
C5 C6 1_555 1_555
C9 C10 1_555 1_555
C15 C16 1_555 1_555
C16 C17 1_555 1_555
C17 C18 1_555 1_555
C25 C26 1_555 1_555
C29 C30 1_555 1_555
C35 C36 1_555 1_555
C36 C37 1_555 1_555
C37 C38 1_555 1_555

#END
