
#######################################################################
#
#                 Cambridge Crystallographic Data Centre
#                                CCDC 
#
#######################################################################
#
# If this CIF has been generated from an entry in the Cambridge 
# Structural Database, then it will include bibliographic, chemical, 
# crystal, experimental, refinement or atomic coordinate data resulting 
# from the CCDC's data processing and validation procedures.
#
#######################################################################

data_ASOYUD
_chemical_formula_moiety         'C27 H34 O3 Si1'
_chemical_name_systematic        
'Methyl 8-((t-butyl(dimethyl)silyl)oxy)-1-methyl-2-phenyl-8,8a-dihydrocyclopenta[a]indene-3a(3H)-carboxylate'
_symmetry_cell_setting           monoclinic
_symmetry_space_group_name_H-M   'P 21/n'
_symmetry_Int_Tables_number      14
_space_group_name_Hall           '-P 2yn'
loop_
_symmetry_equiv_pos_site_id
_symmetry_equiv_pos_as_xyz
1 x,y,z
2 1/2-x,1/2+y,1/2-z
3 -x,-y,-z
4 1/2+x,1/2-y,1/2+z
_cell_length_a                   12.3305(7)
_cell_length_b                   8.0062(4)
_cell_length_c                   24.8844(13)
_cell_angle_alpha                90
_cell_angle_beta                 98.541(3)
_cell_angle_gamma                90
_cell_volume                     2429.36
_exptl_crystal_colour            colorless
_exptl_crystal_description       block
_chemical_melting_point          '104-106 deg.C'
_cell_formula_units_Z            4
_exptl_crystal_recrystallization_method hexane
loop_
_atom_site_label
_atom_site_type_symbol
_atom_site_fract_x
_atom_site_fract_y
_atom_site_fract_z
Si1 Si 0.90701(4) 0.47488(6) 0.138203(18)
O1 O 1.31473(10) 0.76142(14) 0.13931(5)
O2 O 1.04188(9) 0.46307(15) 0.15207(5)
O3 O 1.18117(14) 0.76495(17) 0.06924(7)
C1 C 1.30188(17) 0.9397(2) 0.14465(8)
H1 H 1.3562 0.9812 0.1744
H2 H 1.2279 0.9641 0.1525
H3 H 1.3128 0.9946 0.1107
C2 C 1.24617(14) 0.6886(2) 0.10038(6)
C3 C 1.26217(13) 0.50061(19) 0.09824(6)
C4 C 1.30045(13) 0.42274(19) 0.15342(6)
C5 C 1.40412(14) 0.4297(2) 0.18416(7)
H4 H 1.4617 0.4903 0.1716
C6 C 1.42174(15) 0.3462(2) 0.23357(7)
H5 H 1.4924 0.3492 0.2548
C7 C 1.33819(15) 0.2587(2) 0.25238(7)
H6 H 1.3519 0.2025 0.2863
C8 C 1.23468(14) 0.2525(2) 0.22197(6)
H7 H 1.1768 0.1940 0.2350
C9 C 1.21691(13) 0.33365(19) 0.17185(6)
C10 C 1.11277(13) 0.3440(2) 0.13185(6)
H8 H 1.0767 0.2323 0.1259
C11 C 0.87474(18) 0.7011(3) 0.14061(9)
H9 H 0.9081 0.7602 0.1127
H10 H 0.9040 0.7457 0.1765
H11 H 0.7951 0.7167 0.1339
C12 C 0.85644(15) 0.3902(3) 0.06939(7)
H12 H 0.8889 0.4536 0.0421
H13 H 0.7764 0.3999 0.0620
H14 H 0.8774 0.2724 0.0678
C13 C 0.84537(15) 0.3541(3) 0.19119(7)
C14 C 0.8961(2) 0.4112(4) 0.24823(8)
H15 H 0.8636 0.3478 0.2755
H16 H 0.8818 0.5306 0.2524
H17 H 0.9755 0.3919 0.2533
C15 C 0.72063(17) 0.3836(3) 0.18390(10)
H18 H 0.6889 0.3203 0.2115
H19 H 0.6876 0.3465 0.1476
H20 H 0.7060 0.5029 0.1880
C16 C 0.8661(2) 0.1663(3) 0.18521(10)
H21 H 0.8335 0.1047 0.2129
H22 H 0.9452 0.1453 0.1900
H23 H 0.8328 0.1291 0.1490
C17 C 1.15196(12) 0.40903(19) 0.07952(6)
H24 H 1.0969 0.4884 0.0601
C18 C 1.18164(13) 0.27732(19) 0.04066(6)
C19 C 1.09697(14) 0.1533(2) 0.01704(7)
H25 H 1.1290 0.0771 -0.0071
H26 H 1.0347 0.2123 -0.0037
H27 H 1.0718 0.0894 0.0464
C20 C 1.28233(13) 0.30153(19) 0.02787(6)
C21 C 1.33668(13) 0.2051(2) -0.01122(6)
C22 C 1.32696(15) 0.0316(2) -0.01551(7)
H28 H 1.2862 -0.0275 0.0079
C23 C 1.37628(16) -0.0551(3) -0.05366(8)
H29 H 1.3696 -0.1732 -0.0559
C24 C 1.43483(17) 0.0281(3) -0.08834(8)
H30 H 1.4668 -0.0318 -0.1150
C25 C 1.44681(16) 0.1997(3) -0.08409(8)
H31 H 1.4874 0.2578 -0.1078
C26 C 1.39980(14) 0.2868(2) -0.04541(7)
H32 H 1.4106 0.4041 -0.0420
C27 C 1.33656(13) 0.4550(2) 0.05546(6)
H33 H 1.3390 0.5471 0.0291
H34 H 1.4122 0.4299 0.0731
loop_
_geom_bond_atom_site_label_1
_geom_bond_atom_site_label_2
_geom_bond_site_symmetry_1
_geom_bond_site_symmetry_2
Si1 O2 1_555 1_555
O1 C1 1_555 1_555
O2 C10 1_555 1_555
O3 C2 1_555 1_555
C1 H1 1_555 1_555
H2 C1 1_555 1_555
H3 C1 1_555 1_555
C2 O1 1_555 1_555
C3 C2 1_555 1_555
C4 C3 1_555 1_555
C5 C4 1_555 1_555
H4 C5 1_555 1_555
C6 C5 1_555 1_555
H5 C6 1_555 1_555
C7 C6 1_555 1_555
H6 C7 1_555 1_555
C8 C7 1_555 1_555
H7 C8 1_555 1_555
C9 C4 1_555 1_555
C10 C9 1_555 1_555
H8 C10 1_555 1_555
C11 Si1 1_555 1_555
H9 C11 1_555 1_555
H10 C11 1_555 1_555
H11 C11 1_555 1_555
C12 Si1 1_555 1_555
H12 C12 1_555 1_555
H13 C12 1_555 1_555
H14 C12 1_555 1_555
C13 Si1 1_555 1_555
C14 C13 1_555 1_555
H15 C14 1_555 1_555
H16 C14 1_555 1_555
H17 C14 1_555 1_555
C15 C13 1_555 1_555
H18 C15 1_555 1_555
H19 C15 1_555 1_555
H20 C15 1_555 1_555
C16 C13 1_555 1_555
H21 C16 1_555 1_555
H22 C16 1_555 1_555
H23 C16 1_555 1_555
C17 C3 1_555 1_555
H24 C17 1_555 1_555
C18 C17 1_555 1_555
C19 C18 1_555 1_555
H25 C19 1_555 1_555
H26 C19 1_555 1_555
H27 C19 1_555 1_555
C20 C18 1_555 1_555
C21 C20 1_555 1_555
C22 C21 1_555 1_555
H28 C22 1_555 1_555
C23 C22 1_555 1_555
H29 C23 1_555 1_555
C24 C23 1_555 1_555
H30 C24 1_555 1_555
C25 C24 1_555 1_555
H31 C25 1_555 1_555
C26 C21 1_555 1_555
H32 C26 1_555 1_555
C27 C3 1_555 1_555
H33 C27 1_555 1_555
H34 C27 1_555 1_555
C8 C9 1_555 1_555
C10 C17 1_555 1_555
C20 C27 1_555 1_555
C25 C26 1_555 1_555

#END
