
#######################################################################
#
#                 Cambridge Crystallographic Data Centre
#                                CCDC 
#
#######################################################################
#
# If this CIF has been generated from an entry in the Cambridge 
# Structural Database, then it will include bibliographic, chemical, 
# crystal, experimental, refinement or atomic coordinate data resulting 
# from the CCDC's data processing and validation procedures.
#
#######################################################################

data_ASOYOX
_chemical_formula_moiety         'C20 H18 O3'
_chemical_name_systematic        
'(Z)-Methyl 1-benzylidene-7-hydroxy-1,2,7,7a-tetrahydro-2aH-cyclobuta[a]indene-2a-carboxylate'
_symmetry_cell_setting           triclinic
_symmetry_space_group_name_H-M   'P -1'
_symmetry_Int_Tables_number      2
_space_group_name_Hall           '-P 1'
loop_
_symmetry_equiv_pos_site_id
_symmetry_equiv_pos_as_xyz
1 x,y,z
2 -x,-y,-z
_cell_length_a                   7.7931(15)
_cell_length_b                   10.072(2)
_cell_length_c                   10.395(2)
_cell_angle_alpha                97.022(11)
_cell_angle_beta                 91.049(10)
_cell_angle_gamma                107.799(10)
_cell_volume                     769.704
_exptl_crystal_colour            colorless
_exptl_crystal_description       block
_chemical_melting_point          '102-104 deg.C'
_cell_formula_units_Z            2
_exptl_crystal_recrystallization_method hexane
loop_
_atom_site_label
_atom_site_type_symbol
_atom_site_fract_x
_atom_site_fract_y
_atom_site_fract_z
O1 O 0.1623(2) 0.85028(17) 0.02769(17)
H1 H 0.1338 0.7685 -0.0072
O2 O 0.1163(2) 0.46526(19) 0.27859(19)
O3 O -0.0918(3) 0.41499(19) 0.1165(2)
C1 C 0.3884(3) 1.1810(3) 0.5333(3)
H2 H 0.3294 1.1768 0.6104
C2 C 0.5198(4) 1.3045(3) 0.5146(3)
H3 H 0.5482 1.3817 0.5791
C3 C 0.6086(3) 1.3135(3) 0.4012(3)
H4 H 0.6950 1.3971 0.3882
C4 C 0.5689(3) 1.1977(3) 0.3069(3)
H5 H 0.6298 1.2027 0.2307
C5 C 0.4380(3) 1.0738(3) 0.3259(2)
H6 H 0.4129 0.9961 0.2621
C6 C 0.3428(3) 1.0634(3) 0.4394(2)
C7 C 0.2019(3) 0.9358(2) 0.4661(2)
H7 H 0.1600 0.9386 0.5493
C8 C 0.1269(3) 0.8173(3) 0.3864(2)
C9 C 0.1390(3) 0.7701(2) 0.2435(2)
H8 H 0.2511 0.7494 0.2228
C10 C 0.0816(3) 0.8559(3) 0.1495(2)
H9 H 0.1126 0.9541 0.1896
C11 C -0.1219(3) 0.7922(2) 0.1354(2)
C12 C -0.2417(4) 0.8463(3) 0.0776(3)
H10 H -0.2019 0.9328 0.0468
C13 C -0.4246(4) 0.7676(3) 0.0666(3)
H11 H -0.5082 0.8020 0.0282
C14 C -0.4821(3) 0.6389(3) 0.1126(3)
H12 H -0.6038 0.5866 0.1025
C15 C -0.3625(3) 0.5867(3) 0.1728(3)
H13 H -0.4027 0.5005 0.2042
C16 C -0.1805(3) 0.6651(3) 0.1860(2)
C17 C -0.0278(3) 0.6347(2) 0.2556(2)
C18 C -0.0119(3) 0.6797(2) 0.4063(2)
H14 H -0.1219 0.6905 0.4416
H15 H 0.0356 0.6210 0.4550
C19 C -0.0078(3) 0.4939(2) 0.2070(2)
C20 C 0.1483(4) 0.3325(3) 0.2405(3)
H16 H 0.2394 0.3228 0.2987
H17 H 0.1881 0.3294 0.1536
H18 H 0.0385 0.2569 0.2438
loop_
_geom_bond_atom_site_label_1
_geom_bond_atom_site_label_2
_geom_bond_site_symmetry_1
_geom_bond_site_symmetry_2
O1 H1 1_555 1_555
O2 C19 1_555 1_555
O3 C19 1_555 1_555
C1 H2 1_555 1_555
C2 C1 1_555 1_555
H3 C2 1_555 1_555
C3 C2 1_555 1_555
H4 C3 1_555 1_555
C4 C3 1_555 1_555
H5 C4 1_555 1_555
C5 C4 1_555 1_555
H6 C5 1_555 1_555
C6 C1 1_555 1_555
C7 C6 1_555 1_555
H7 C7 1_555 1_555
C8 C7 1_555 1_555
C9 C8 1_555 1_555
H8 C9 1_555 1_555
C10 O1 1_555 1_555
H9 C10 1_555 1_555
C11 C10 1_555 1_555
C12 C11 1_555 1_555
H10 C12 1_555 1_555
C13 C12 1_555 1_555
H11 C13 1_555 1_555
C14 C13 1_555 1_555
H12 C14 1_555 1_555
C15 C14 1_555 1_555
H13 C15 1_555 1_555
C16 C11 1_555 1_555
C17 C9 1_555 1_555
C18 C8 1_555 1_555
H14 C18 1_555 1_555
H15 C18 1_555 1_555
C19 C17 1_555 1_555
C20 O2 1_555 1_555
H16 C20 1_555 1_555
H17 C20 1_555 1_555
H18 C20 1_555 1_555
C5 C6 1_555 1_555
C9 C10 1_555 1_555
C15 C16 1_555 1_555
C16 C17 1_555 1_555
C17 C18 1_555 1_555

#END
