
#######################################################################
#
#                 Cambridge Crystallographic Data Centre
#                                CCDC 
#
#######################################################################
#
# If this CIF has been generated from an entry in the Cambridge 
# Structural Database, then it will include bibliographic, chemical, 
# crystal, experimental, refinement or atomic coordinate data resulting 
# from the CCDC's data processing and validation procedures.
#
#######################################################################

data_ASOZIS
_chemical_formula_moiety         'C26 H26 F1 N5 O2'
_chemical_name_systematic        
9-((1R,4S,5S)-4-((S)-1,2-bis(Benzyloxy)ethyl)-5-fluorocyclopent-2-en-1-yl)-9H-purin-6-amine
_symmetry_cell_setting           monoclinic
_symmetry_space_group_name_H-M   'P 21'
_symmetry_Int_Tables_number      4
_space_group_name_Hall           'P 2yb'
loop_
_symmetry_equiv_pos_site_id
_symmetry_equiv_pos_as_xyz
1 x,y,z
2 -x,1/2+y,-z
_cell_length_a                   6.2705(7)
_cell_length_b                   7.9183(8)
_cell_length_c                   24.348(2)
_cell_angle_alpha                90
_cell_angle_beta                 95.013(2)
_cell_angle_gamma                90
_cell_volume                     1204.3
_exptl_crystal_colour            colorless
_exptl_crystal_description       prismatic
_chemical_melting_point          '193 deg.C'
_cell_formula_units_Z            2
loop_
_atom_site_label
_atom_site_type_symbol
_atom_site_fract_x
_atom_site_fract_y
_atom_site_fract_z
F1 F 0.5835(2) 0.3272(2) 0.18567(6)
N1 N 0.4484(3) 0.1474(3) 0.09881(8)
N2 N 0.6685(3) 0.2289(3) 0.03602(8)
N3 N 0.5658(4) -0.1439(3) 0.11249(9)
N4 N 0.8557(4) -0.2115(3) 0.05751(9)
N5 N 1.0120(5) -0.0206(3) 0.00243(10)
H1 H 1.1032 -0.0970 -0.0047
H2 H 1.0187 0.0781 -0.0120
O1 O 0.3213(3) 0.2263(3) 0.31229(7)
O2 O 0.1383(3) -0.0270(2) 0.23956(7)
C1 C 0.4131(4) 0.2222(4) 0.19724(10)
H3 H 0.4610 0.1283 0.2215
C2 C 0.3027(4) 0.1593(4) 0.14179(10)
H4 H 0.2420 0.0472 0.1474
C3 C 0.1245(4) 0.2815(4) 0.13086(10)
H5 H 0.0456 0.2929 0.0969
C4 C 0.0911(4) 0.3710(4) 0.17427(12)
H6 H -0.0183 0.4500 0.1750
C5 C 0.2479(4) 0.3328(3) 0.22278(10)
H7 H 0.3180 0.4388 0.2348
C6 C 0.1479(4) 0.2566(4) 0.27191(10)
H8 H 0.0571 0.3435 0.2866
C7 C 0.0092(5) 0.1034(4) 0.25865(12)
H9 H -0.0555 0.0664 0.2914
H10 H -0.1045 0.1314 0.2305
C8 C 0.5170(4) 0.2737(3) 0.06631(10)
H11 H 0.4603 0.3823 0.0659
C9 C 0.7091(4) 0.0616(3) 0.05053(9)
C10 C 0.5729(4) 0.0101(3) 0.08900(10)
C11 C 0.7104(5) -0.2440(4) 0.09320(11)
H12 H 0.7112 -0.3542 0.1065
C12 C 0.8602(4) -0.0554(3) 0.03582(10)
C13 C 0.2628(5) 0.1734(4) 0.36455(12)
H13 H 0.1939 0.0637 0.3613
H14 H 0.1624 0.2531 0.3781
C14 C 0.4578(5) 0.1631(4) 0.40373(11)
C15 C 0.6174(6) 0.0490(5) 0.39528(14)
H15 H 0.6030 -0.0214 0.3646
C16 C 0.7960(7) 0.0376(6) 0.43119(17)
H16 H 0.9015 -0.0411 0.4250
C17 C 0.8213(7) 0.1413(8) 0.47634(17)
H17 H 0.9447 0.1348 0.5004
C18 C 0.6645(8) 0.2538(7) 0.48580(15)
H18 H 0.6798 0.3236 0.5166
C19 C 0.4827(7) 0.2643(5) 0.44963(13)
H19 H 0.3758 0.3409 0.4564
C20 C 0.0200(7) -0.1773(4) 0.22605(13)
H20 H 0.1045 -0.2509 0.2046
H21 H -0.1098 -0.1483 0.2034
C21 C -0.0385(5) -0.2702(3) 0.27641(11)
C22 C 0.1094(5) -0.2902(4) 0.32076(12)
H22 H 0.2457 -0.2449 0.3196
C23 C 0.0592(7) -0.3763(4) 0.36697(14)
H23 H 0.1604 -0.3880 0.3970
C24 C -0.1417(8) -0.4448(5) 0.36839(17)
H24 H -0.1763 -0.5022 0.3997
C25 C -0.2891(6) -0.4297(5) 0.32499(18)
H25 H -0.4237 -0.4782 0.3260
C26 C -0.2380(5) -0.3411(4) 0.27892(14)
H26 H -0.3402 -0.3292 0.2491
loop_
_geom_bond_atom_site_label_1
_geom_bond_atom_site_label_2
_geom_bond_site_symmetry_1
_geom_bond_site_symmetry_2
F1 C1 1_555 1_555
N1 C2 1_555 1_555
N2 C8 1_555 1_555
N3 C10 1_555 1_555
N4 C11 1_555 1_555
N5 H1 1_555 1_555
H2 N5 1_555 1_555
O1 C6 1_555 1_555
O2 C7 1_555 1_555
C1 H3 1_555 1_555
C2 C1 1_555 1_555
H4 C2 1_555 1_555
C3 C2 1_555 1_555
H5 C3 1_555 1_555
C4 C3 1_555 1_555
H6 C4 1_555 1_555
C5 C1 1_555 1_555
H7 C5 1_555 1_555
C6 C5 1_555 1_555
H8 C6 1_555 1_555
C7 C6 1_555 1_555
H9 C7 1_555 1_555
H10 C7 1_555 1_555
C8 N1 1_555 1_555
H11 C8 1_555 1_555
C9 N2 1_555 1_555
C10 N1 1_555 1_555
C11 N3 1_555 1_555
H12 C11 1_555 1_555
C12 N4 1_555 1_555
C13 O1 1_555 1_555
H13 C13 1_555 1_555
H14 C13 1_555 1_555
C14 C13 1_555 1_555
C15 C14 1_555 1_555
H15 C15 1_555 1_555
C16 C15 1_555 1_555
H16 C16 1_555 1_555
C17 C16 1_555 1_555
H17 C17 1_555 1_555
C18 C17 1_555 1_555
H18 C18 1_555 1_555
C19 C14 1_555 1_555
H19 C19 1_555 1_555
C20 O2 1_555 1_555
H20 C20 1_555 1_555
H21 C20 1_555 1_555
C21 C20 1_555 1_555
C22 C21 1_555 1_555
H22 C22 1_555 1_555
C23 C22 1_555 1_555
H23 C23 1_555 1_555
C24 C23 1_555 1_555
H24 C24 1_555 1_555
C25 C24 1_555 1_555
H25 C25 1_555 1_555
C26 C21 1_555 1_555
H26 C26 1_555 1_555
N5 C12 1_555 1_555
C4 C5 1_555 1_555
C9 C10 1_555 1_555
C9 C12 1_555 1_555
C18 C19 1_555 1_555
C25 C26 1_555 1_555

#END
