
#######################################################################
#
#                 Cambridge Crystallographic Data Centre
#                                CCDC 
#
#######################################################################
#
# If this CIF has been generated from an entry in the Cambridge 
# Structural Database, then it will include bibliographic, chemical, 
# crystal, experimental, refinement or atomic coordinate data resulting 
# from the CCDC's data processing and validation procedures.
#
#######################################################################

data_ASOZAK
_chemical_name_common            
'(4R,5S)-Methyl 5-benzyl-4-(3-bromophenyl)-5-(3-chlorobenzamido)-6-oxo-5,6-dihydro-4H-pyran-2-carboxylate'
_chemical_formula_moiety         'C27 H21 Br1 Cl1 N1 O5'
_chemical_name_systematic        
'Methyl (3S,4R)-3-benzyl-4-(3-bromophenyl)-3-((3-chlorobenzoyl)amino)-2-oxo-3,4-dihydro-2H-pyran-6-carboxylate'
_symmetry_cell_setting           monoclinic
_symmetry_space_group_name_H-M   'P 21'
_symmetry_Int_Tables_number      4
_space_group_name_Hall           'P 2yb'
loop_
_symmetry_equiv_pos_site_id
_symmetry_equiv_pos_as_xyz
1 x,y,z
2 -x,1/2+y,-z
_cell_length_a                   14.930(5)
_cell_length_b                   10.005(4)
_cell_length_c                   17.163(6)
_cell_angle_alpha                90
_cell_angle_beta                 99.923(7)
_cell_angle_gamma                90
_cell_volume                     2525.36
_exptl_crystal_colour            colorless
_exptl_crystal_description       prismatic
_chemical_melting_point          '146-148 deg.C'
_cell_formula_units_Z            4
loop_
_atom_site_label
_atom_site_type_symbol
_atom_site_fract_x
_atom_site_fract_y
_atom_site_fract_z
Br1 Br -0.26501(4) 1.10042(9) 0.55603(3)
Cl1 Cl 0.18806(11) 1.0673(2) 0.43706(9)
O1 O 0.01343(17) 0.5905(3) 0.78169(16)
O2 O -0.02407(17) 0.6607(3) 0.89318(15)
O3 O -0.0439(2) 0.6221(3) 1.04235(18)
O4 O -0.1117(2) 0.8199(3) 1.04682(18)
O5 O 0.0567(2) 1.0503(3) 0.71116(19)
N1 N 0.0319(2) 0.8299(3) 0.7219(2)
C1 C 0.0025(2) 0.6833(4) 0.8230(2)
C2 C 0.0212(2) 0.8284(4) 0.8042(2)
C3 C -0.0602(2) 0.9154(4) 0.8189(2)
H1 H -0.0419 1.0094 0.8186
C4 C -0.0786(2) 0.8825(4) 0.8997(2)
H2 H -0.1045 0.9473 0.9277
C5 C -0.0594(2) 0.7654(4) 0.9321(2)
C6 C -0.0707(3) 0.7251(4) 1.0124(2)
C7 C -0.1243(4) 0.7926(6) 1.1260(3)
H3 H -0.1701 0.7251 1.1253
H4 H -0.1431 0.8727 1.1494
H5 H -0.0681 0.7615 1.1564
C8 C 0.1091(2) 0.8740(4) 0.8602(2)
H6 H 0.1185 0.9681 0.8504
H7 H 0.0988 0.8660 0.9142
C9 C 0.1948(2) 0.8012(4) 0.8538(2)
C10 C 0.2132(3) 0.6748(5) 0.8833(3)
H8 H 0.1699 0.6301 0.9065
C11 C 0.2959(3) 0.6123(6) 0.8791(3)
H9 H 0.3067 0.5257 0.8981
C12 C 0.3610(3) 0.6790(8) 0.8468(4)
H10 H 0.4162 0.6377 0.8441
C13 C 0.3449(3) 0.8057(7) 0.8188(3)
H11 H 0.3892 0.8519 0.7977
C14 C 0.2631(3) 0.8639(5) 0.8220(2)
H12 H 0.2525 0.9499 0.8018
C15 C -0.1449(2) 0.8973(4) 0.7567(2)
C16 C -0.1658(2) 0.9911(4) 0.6968(2)
H13 H -0.1294 1.0664 0.6966
C17 C -0.2402(3) 0.9740(6) 0.6375(2)
C18 C -0.2946(3) 0.8640(7) 0.6376(3)
H14 H -0.3435 0.8512 0.5968
C19 C -0.2768(3) 0.7723(6) 0.6980(4)
H15 H -0.3154 0.6997 0.6993
C20 C -0.2024(3) 0.7877(5) 0.7563(3)
H16 H -0.1901 0.7241 0.7962
C21 C 0.0472(2) 0.9381(4) 0.6804(2)
C22 C 0.0507(3) 0.9167(4) 0.5952(2)
C23 C 0.1100(3) 0.9901(4) 0.5606(3)
H17 H 0.1474 1.0528 0.5902
C24 C 0.1146(3) 0.9714(5) 0.4819(3)
C25 C 0.0588(4) 0.8836(7) 0.4360(3)
H18 H 0.0620 0.8731 0.3827
C26 C -0.0012(5) 0.8122(8) 0.4698(4)
H19 H -0.0398 0.7518 0.4394
C27 C -0.0056(4) 0.8280(6) 0.5492(3)
H20 H -0.0472 0.7781 0.5716
H41 H 0.036(2) 0.757(3) 0.699(2)
Br2 Br 0.78598(4) 1.17170(6) 0.36697(3)
Cl2 Cl 0.71317(10) 0.57464(16) -0.05289(8)
O6 O 0.44057(18) 1.0387(3) 0.25517(17)
O7 O 0.43901(17) 0.9654(3) 0.37632(16)
O8 O 0.4019(2) 0.9957(3) 0.52249(19)
O9 O 0.4798(2) 0.8117(3) 0.56434(18)
O10 O 0.5384(2) 0.6024(3) 0.18697(15)
N2 N 0.4994(2) 0.8166(3) 0.20038(18)
C28 C 0.4510(2) 0.9465(4) 0.3005(2)
C29 C 0.4757(2) 0.8061(3) 0.2776(2)
C30 C 0.5563(2) 0.7547(4) 0.3411(2)
H21 H 0.5598 0.6576 0.3346
C31 C 0.5334(2) 0.7794(4) 0.4210(2)
H22 H 0.5595 0.7254 0.4629
C32 C 0.4772(2) 0.8751(4) 0.4341(2)
C33 C 0.4479(3) 0.9027(4) 0.5103(3)
C34 C 0.4580(4) 0.8306(6) 0.6429(3)
H23 H 0.4790 0.9168 0.6627
H24 H 0.4871 0.7624 0.6776
H25 H 0.3933 0.8251 0.6402
C35 C 0.3922(2) 0.7128(3) 0.2771(2)
H26 H 0.4073 0.6247 0.2598
H27 H 0.3809 0.7044 0.3309
C36 C 0.3058(2) 0.7587(4) 0.2253(2)
C37 C 0.2470(3) 0.8416(5) 0.2544(3)
H28 H 0.2607 0.8693 0.3068
C38 C 0.1676(3) 0.8856(6) 0.2082(4)
H29 H 0.1287 0.9417 0.2299
C39 C 0.1463(4) 0.8479(7) 0.1320(5)
H30 H 0.0941 0.8807 0.1004
C40 C 0.2009(4) 0.7623(7) 0.1021(3)
H31 H 0.1848 0.7332 0.0501
C41 C 0.2823(3) 0.7162(6) 0.1484(3)
H32 H 0.3199 0.6574 0.1270
C42 C 0.6490(2) 0.8121(4) 0.3321(2)
C43 C 0.6713(2) 0.9434(4) 0.3513(2)
H33 H 0.6301 0.9980 0.3711
C44 C 0.7540(3) 0.9933(5) 0.3414(2)
C45 C 0.8158(3) 0.9113(7) 0.3119(3)
H34 H 0.8709 0.9458 0.3026
C46 C 0.7952(3) 0.7817(7) 0.2970(3)
H35 H 0.8379 0.7258 0.2803
C47 C 0.7112(3) 0.7300(5) 0.3063(2)
H36 H 0.6974 0.6407 0.2951
C48 C 0.5293(3) 0.7147(4) 0.1604(2)
C49 C 0.5540(2) 0.7464(4) 0.0818(2)
C50 C 0.6135(2) 0.6611(5) 0.0535(2)
H37 H 0.6363 0.5871 0.0832
C51 C 0.6394(3) 0.6847(5) -0.0182(2)
C52 C 0.6058(3) 0.7925(5) -0.0636(3)
H38 H 0.6233 0.8075 -0.1122
C53 C 0.5464(3) 0.8774(5) -0.0366(3)
H39 H 0.5235 0.9506 -0.0671
C54 C 0.5201(3) 0.8554(5) 0.0356(3)
H40 H 0.4795 0.9137 0.0534
H42 H 0.497(2) 0.894(2) 0.1824(18)
loop_
_geom_bond_atom_site_label_1
_geom_bond_atom_site_label_2
_geom_bond_site_symmetry_1
_geom_bond_site_symmetry_2
Br1 C17 1_555 1_555
Br2 C44 1_555 1_555
Cl1 C24 1_555 1_555
Cl2 C51 1_555 1_555
O1 C1 1_555 1_555
O2 C1 1_555 1_555
O3 C6 1_555 1_555
O4 C6 1_555 1_555
O5 C21 1_555 1_555
O6 C28 1_555 1_555
O7 C28 1_555 1_555
O8 C33 1_555 1_555
O9 C33 1_555 1_555
O10 C48 1_555 1_555
N1 C2 1_555 1_555
N2 C29 1_555 1_555
C1 C2 1_555 1_555
C2 C3 1_555 1_555
C3 H1 1_555 1_555
C4 C3 1_555 1_555
H2 C4 1_555 1_555
C5 O2 1_555 1_555
C6 C5 1_555 1_555
C7 O4 1_555 1_555
H3 C7 1_555 1_555
H4 C7 1_555 1_555
H5 C7 1_555 1_555
C8 C2 1_555 1_555
H6 C8 1_555 1_555
H7 C8 1_555 1_555
C9 C8 1_555 1_555
C10 C9 1_555 1_555
H8 C10 1_555 1_555
C11 C10 1_555 1_555
H9 C11 1_555 1_555
C12 C11 1_555 1_555
H10 C12 1_555 1_555
C13 C12 1_555 1_555
H11 C13 1_555 1_555
C14 C9 1_555 1_555
H12 C14 1_555 1_555
C15 C3 1_555 1_555
C16 C15 1_555 1_555
H13 C16 1_555 1_555
C17 C16 1_555 1_555
C18 C17 1_555 1_555
H14 C18 1_555 1_555
C19 C18 1_555 1_555
H15 C19 1_555 1_555
C20 C15 1_555 1_555
H16 C20 1_555 1_555
C21 N1 1_555 1_555
C22 C21 1_555 1_555
C23 C22 1_555 1_555
H17 C23 1_555 1_555
C24 C23 1_555 1_555
C25 C24 1_555 1_555
H18 C25 1_555 1_555
C26 C25 1_555 1_555
H19 C26 1_555 1_555
C27 C22 1_555 1_555
H20 C27 1_555 1_555
C28 C29 1_555 1_555
C29 C30 1_555 1_555
C30 H21 1_555 1_555
C31 C30 1_555 1_555
H22 C31 1_555 1_555
C32 O7 1_555 1_555
C33 C32 1_555 1_555
C34 O9 1_555 1_555
H23 C34 1_555 1_555
H24 C34 1_555 1_555
H25 C34 1_555 1_555
C35 C29 1_555 1_555
H26 C35 1_555 1_555
H27 C35 1_555 1_555
C36 C35 1_555 1_555
C37 C36 1_555 1_555
H28 C37 1_555 1_555
C38 C37 1_555 1_555
H29 C38 1_555 1_555
C39 C38 1_555 1_555
H30 C39 1_555 1_555
C40 C39 1_555 1_555
H31 C40 1_555 1_555
C41 C36 1_555 1_555
H32 C41 1_555 1_555
C42 C30 1_555 1_555
C43 C42 1_555 1_555
H33 C43 1_555 1_555
C44 C43 1_555 1_555
C45 C44 1_555 1_555
H34 C45 1_555 1_555
C46 C45 1_555 1_555
H35 C46 1_555 1_555
C47 C42 1_555 1_555
H36 C47 1_555 1_555
C48 N2 1_555 1_555
C49 C48 1_555 1_555
C50 C49 1_555 1_555
H37 C50 1_555 1_555
C51 C50 1_555 1_555
C52 C51 1_555 1_555
H38 C52 1_555 1_555
C53 C52 1_555 1_555
H39 C53 1_555 1_555
C54 C49 1_555 1_555
H40 C54 1_555 1_555
H41 N1 1_555 1_555
H42 N2 1_555 1_555
C4 C5 1_555 1_555
C13 C14 1_555 1_555
C19 C20 1_555 1_555
C26 C27 1_555 1_555
C31 C32 1_555 1_555
C40 C41 1_555 1_555
C46 C47 1_555 1_555
C53 C54 1_555 1_555

#END
