
#######################################################################
#
#                 Cambridge Crystallographic Data Centre
#                                CCDC 
#
#######################################################################
#
# If this CIF has been generated from an entry in the Cambridge 
# Structural Database, then it will include bibliographic, chemical, 
# crystal, experimental, refinement or atomic coordinate data resulting 
# from the CCDC's data processing and validation procedures.
#
#######################################################################

data_ASUHUS
_chemical_formula_moiety         'C15 H13 F1 O3 S1'
_chemical_name_systematic        
'(Z)-2-Fluoro-1-phenylvinyl 4-methylbenzenesulfonate'
_symmetry_cell_setting           monoclinic
_symmetry_space_group_name_H-M   'P 21/c'
_symmetry_Int_Tables_number      14
_space_group_name_Hall           '-P 2ybc'
loop_
_symmetry_equiv_pos_site_id
_symmetry_equiv_pos_as_xyz
1 x,y,z
2 -x,1/2+y,1/2-z
3 -x,-y,-z
4 x,1/2-y,1/2+z
_cell_length_a                   9.9664(13)
_cell_length_b                   7.268(1)
_cell_length_c                   19.153(3)
_cell_angle_alpha                90
_cell_angle_beta                 99.713(2)
_cell_angle_gamma                90
_cell_volume                     1367.48
_exptl_crystal_colour            colorless
_exptl_crystal_description       prismatic
_chemical_melting_point          '82-84 deg.C'
_cell_formula_units_Z            4
loop_
_atom_site_label
_atom_site_type_symbol
_atom_site_fract_x
_atom_site_fract_y
_atom_site_fract_z
S1 S 0.71494(5) 0.37909(7) 0.12241(2)
F1 F 0.59391(13) -0.10157(19) 0.10363(7)
O1 O 0.77056(12) 0.17582(17) 0.11371(6)
O2 O 0.70107(13) 0.47242(18) 0.05663(7)
O3 O 0.80585(14) 0.4458(2) 0.18172(7)
C1 C 0.6543(2) -0.0610(3) 0.04829(11)
H1 H 0.6381 -0.1357 0.0083
C2 C 0.73616(18) 0.0817(3) 0.04868(9)
C3 C 0.81013(17) 0.1308(2) -0.00847(9)
C4 C 0.7626(2) 0.0792(3) -0.07776(10)
H2 H 0.6795 0.0186 -0.0889
C5 C 0.8373(3) 0.1168(3) -0.13029(11)
H3 H 0.8053 0.0798 -0.1766
C6 C 0.9590(3) 0.2088(3) -0.11450(14)
H4 H 1.0098 0.2331 -0.1500
C7 C 1.0048(2) 0.2638(3) -0.04728(14)
H5 H 1.0862 0.3286 -0.0371
C8 C 0.93296(17) 0.2255(3) 0.00632(11)
H6 H 0.9665 0.2629 0.0524
C9 C 0.55358(18) 0.3502(2) 0.14557(9)
C10 C 0.44289(19) 0.4308(3) 0.10435(9)
H7 H 0.4518 0.4876 0.0619
C11 C 0.3183(2) 0.4264(3) 0.12670(10)
H8 H 0.2432 0.4801 0.0987
C12 C 0.30326(19) 0.3442(3) 0.18965(10)
C13 C 0.4155(2) 0.2604(3) 0.22951(10)
H9 H 0.4062 0.2015 0.2715
C14 C 0.54040(19) 0.2627(3) 0.20819(10)
H10 H 0.6151 0.2061 0.2355
C15 C 0.1680(2) 0.3486(3) 0.21572(13)
H11 H 0.1738 0.4319 0.2550
H12 H 0.1465 0.2275 0.2305
H13 H 0.0981 0.3892 0.1781
loop_
_geom_bond_atom_site_label_1
_geom_bond_atom_site_label_2
_geom_bond_site_symmetry_1
_geom_bond_site_symmetry_2
S1 O1 1_555 1_555
F1 C1 1_555 1_555
O1 C2 1_555 1_555
O2 S1 1_555 1_555
O3 S1 1_555 1_555
C1 H1 1_555 1_555
C2 C1 1_555 1_555
C3 C2 1_555 1_555
C4 C3 1_555 1_555
H2 C4 1_555 1_555
C5 C4 1_555 1_555
H3 C5 1_555 1_555
C6 C5 1_555 1_555
H4 C6 1_555 1_555
C7 C6 1_555 1_555
H5 C7 1_555 1_555
C8 C3 1_555 1_555
H6 C8 1_555 1_555
C9 S1 1_555 1_555
C10 C9 1_555 1_555
H7 C10 1_555 1_555
C11 C10 1_555 1_555
H8 C11 1_555 1_555
C12 C11 1_555 1_555
C13 C12 1_555 1_555
H9 C13 1_555 1_555
C14 C9 1_555 1_555
H10 C14 1_555 1_555
C15 C12 1_555 1_555
H11 C15 1_555 1_555
H12 C15 1_555 1_555
H13 C15 1_555 1_555
C7 C8 1_555 1_555
C13 C14 1_555 1_555

#END
