
#######################################################################
#
#                 Cambridge Crystallographic Data Centre
#                                CCDC 
#
#######################################################################
#
# If this CIF has been generated from an entry in the Cambridge 
# Structural Database, then it will include bibliographic, chemical, 
# crystal, experimental, refinement or atomic coordinate data resulting 
# from the CCDC's data processing and validation procedures.
#
#######################################################################

data_ASUHOM
_chemical_name_common            
7,15,23-Tri-t-butyl-25,26,27-tris(prop-2-yn-1-yloxy)-3,11,19-trioxatetracyclo[19.3.1.1$5,9!.1$13,17!]heptacosa-1(25),5(27),6,8,13(26),14,16,21,23-nonaene
_chemical_formula_moiety         'C45 H54 O6'
_chemical_name_systematic        
7,15,23-Tri-t-butyl-25,26,27-tris(prop-2-yn-1-yloxy)-2,3,10,11,18,19-hexahomo-3,11,19-trioxacalix(3)arene
_symmetry_cell_setting           monoclinic
_symmetry_space_group_name_H-M   'P 21/n'
_symmetry_Int_Tables_number      14
_space_group_name_Hall           '-P 2yn'
loop_
_symmetry_equiv_pos_site_id
_symmetry_equiv_pos_as_xyz
1 x,y,z
2 1/2-x,1/2+y,1/2-z
3 -x,-y,-z
4 1/2+x,1/2-y,1/2+z
_cell_length_a                   20.996(8)
_cell_length_b                   13.093(5)
_cell_length_c                   29.621(11)
_cell_angle_alpha                90
_cell_angle_beta                 92.026(5)
_cell_angle_gamma                90
_cell_volume                     8137.74
_exptl_crystal_colour            colorless
_exptl_crystal_description       block
_chemical_melting_point          '106-108 deg.C'
_cell_formula_units_Z            8
_exptl_crystal_recrystallization_method chloroform/hexane
loop_
_atom_site_label
_atom_site_type_symbol
_atom_site_fract_x
_atom_site_fract_y
_atom_site_fract_z
C1 C 0.0233(3) -0.0640(4) 0.9504(2)
C2 C -0.0400(3) -0.0849(5) 0.9380(2)
H1 H -0.0635 -0.1264 0.9567
C3 C -0.0697(3) -0.0463(5) 0.8988(2)
C4 C -0.0320(3) 0.0127(5) 0.8709(2)
H2 H -0.0501 0.0382 0.8441
C5 C 0.0311(3) 0.0347(4) 0.8814(2)
C6 C 0.0582(3) -0.0011(4) 0.9223(2)
C7 C -0.1397(3) -0.0681(5) 0.8860(2)
C8 C -0.1711(4) -0.1381(8) 0.9177(3)
H3 H -0.2146 -0.1486 0.9077
H4 H -0.1700 -0.1085 0.9474
H5 H -0.1491 -0.2023 0.9185
C9 C -0.1470(4) -0.1104(8) 0.8387(3)
H6 H -0.1912 -0.1228 0.8316
H7 H -0.1237 -0.1732 0.8368
H8 H -0.1307 -0.0620 0.8177
C10 C -0.1759(4) 0.0335(7) 0.8861(4)
H9 H -0.2199 0.0216 0.8779
H10 H -0.1578 0.0792 0.8646
H11 H -0.1726 0.0633 0.9157
C11 C 0.0717(3) 0.0894(5) 0.8483(2)
H12 H 0.0445 0.1209 0.8251
H13 H 0.0956 0.1431 0.8638
C12 C 0.0540(3) -0.1128(4) 0.9916(2)
H14 H 0.0867 -0.0683 1.0048
H15 H 0.0225 -0.1258 1.0141
C13 C 0.1713(3) -0.0291(5) 0.9247(2)
H16 H 0.1763 -0.0275 0.8923
H17 H 0.1650 -0.0994 0.9338
C14 C 0.2275(3) 0.0135(5) 0.9481(3)
C15 C 0.2721(5) 0.0474(7) 0.9661(3)
H18 H 0.3082 0.0749 0.9807
C16 C 0.2001(3) -0.3347(5) 0.9621(2)
C17 C 0.2179(3) -0.4119(5) 0.9332(2)
C18 C 0.1871(3) -0.5038(5) 0.9358(2)
H19 H 0.1994 -0.5561 0.9167
C19 C 0.1387(3) -0.5234(5) 0.9651(2)
C20 C 0.1196(3) -0.4412(5) 0.9911(2)
H20 H 0.0856 -0.4499 1.0100
C21 C 0.1495(3) -0.3460(5) 0.9898(2)
C22 C 0.1042(3) -0.6262(5) 0.9648(2)
C23 C 0.0591(5) -0.6307(7) 0.9236(3)
H21 H 0.0295 -0.5748 0.9245
H22 H 0.0361 -0.6941 0.9235
H23 H 0.0831 -0.6260 0.8967
C24 C 0.1506(4) -0.7132(6) 0.9642(3)
H24 H 0.1277 -0.7767 0.9640
H25 H 0.1784 -0.7100 0.9906
H26 H 0.1754 -0.7087 0.9377
C25 C 0.0649(4) -0.6393(6) 1.0073(3)
H27 H 0.0347 -0.5844 1.0090
H28 H 0.0929 -0.6383 1.0337
H29 H 0.0426 -0.7032 1.0058
C26 C 0.2621(4) -0.3878(6) 0.8945(3)
H30 H 0.2701 -0.3149 0.8940
H31 H 0.3025 -0.4220 0.9002
C27 C 0.1193(3) -0.2567(5) 1.0116(2)
H32 H 0.0928 -0.2790 1.0359
H33 H 0.1517 -0.2107 1.0240
C28 C 0.2802(4) -0.2245(6) 0.9963(3)
H34 H 0.2868 -0.1519 1.0009
H35 H 0.2654 -0.2531 1.0242
C29 C 0.3355(5) -0.2674(7) 0.9869(3)
C30 C 0.3844(7) -0.3065(10) 0.9762(5)
H36 H 0.4223 -0.3368 0.9678
C31 C 0.1334(3) -0.2154(5) 0.8170(2)
C32 C 0.1261(3) -0.1351(5) 0.7861(2)
C33 C 0.1586(3) -0.1418(5) 0.7460(2)
H37 H 0.1546 -0.0887 0.7252
C34 C 0.1969(3) -0.2249(5) 0.7357(2)
C35 C 0.2012(3) -0.3025(5) 0.7674(2)
H38 H 0.2254 -0.3599 0.7611
C36 C 0.1710(3) -0.2985(5) 0.8082(2)
C37 C 0.0489(3) -0.2565(5) 0.8686(2)
H39 H 0.0206 -0.2081 0.8824
H40 H 0.0597 -0.3080 0.8911
C38 C 0.0142(3) -0.3056(5) 0.8321(2)
C39 C -0.0148(4) -0.3468(6) 0.8033(3)
H41 H -0.0379 -0.3797 0.7802
C40 C 0.1759(4) -0.3882(6) 0.8400(3)
H42 H 0.1538 -0.3712 0.8671
H43 H 0.1540 -0.4457 0.8259
C41 C 0.2952(4) -0.1775(8) 0.6998(3)
H44 H 0.3182 -0.2096 0.7246
H45 H 0.2883 -0.1069 0.7068
H46 H 0.3195 -0.1827 0.6730
C42 C 0.2453(5) -0.3370(7) 0.6773(3)
H47 H 0.2689 -0.3726 0.7007
H48 H 0.2693 -0.3362 0.6503
H49 H 0.2053 -0.3710 0.6713
C43 C 0.2331(3) -0.2290(5) 0.6922(2)
C44 C 0.1960(4) -0.1791(7) 0.6528(2)
H50 H 0.1565 -0.2147 0.6473
H51 H 0.2208 -0.1820 0.6262
H52 H 0.1874 -0.1090 0.6600
C45 C 0.0842(3) -0.0453(5) 0.7952(2)
H53 H 0.0753 -0.0081 0.7673
H54 H 0.0440 -0.0688 0.8066
O4 O 0.11502(18) 0.0208(3) 0.82762(14)
O8 O 0.1052(2) -0.2045(3) 0.85853(14)
O9 O 0.2302(2) -0.2393(3) 0.96020(16)
O10 O 0.2371(3) -0.4181(5) 0.8522(2)
O11 O 0.08164(18) -0.2068(3) 0.97712(12)
O12 O 0.11804(19) 0.0324(3) 0.93676(14)
C46 C 0.0148(5) -0.0984(7) 0.6265(4)
H55 H 0.0131 -0.1207 0.5956
H56 H 0.0581 -0.1003 0.6380
H57 H -0.0012 -0.0299 0.6282
C47 C -0.0261(3) -0.1692(6) 0.6546(3)
C48 C -0.0946(4) -0.1594(7) 0.6378(3)
H58 H -0.0983 -0.1811 0.6069
H59 H -0.1079 -0.0895 0.6400
H60 H -0.1212 -0.2015 0.6559
C49 C -0.0217(5) -0.1318(7) 0.7025(3)
H61 H 0.0217 -0.1362 0.7137
H62 H -0.0482 -0.1733 0.7208
H63 H -0.0357 -0.0621 0.7036
C50 C -0.1239(4) -0.8578(6) 0.5220(3)
C51 C -0.1721(6) -0.9475(9) 0.5251(4)
H64 H -0.2147 -0.9216 0.5219
H65 H -0.1664 -0.9806 0.5539
H66 H -0.1647 -0.9958 0.5015
C52 C -0.1417(6) -0.8170(8) 0.4760(3)
H67 H -0.1848 -0.7924 0.4756
H68 H -0.1382 -0.8706 0.4540
H69 H -0.1136 -0.7621 0.4687
C53 C -0.0616(5) -0.9005(9) 0.5264(4)
H70 H -0.0556 -0.9485 0.5024
H71 H -0.0567 -0.9348 0.5550
H72 H -0.0305 -0.8470 0.5248
C54 C -0.0031(3) -0.2793(5) 0.6506(2)
C55 C -0.0128(3) -0.3333(6) 0.6102(2)
H73 H -0.0314 -0.2998 0.5855
C56 C 0.0044(3) -0.4350(6) 0.6057(2)
C57 C 0.0347(3) -0.4844(6) 0.6425(2)
C58 C 0.0453(3) -0.4341(5) 0.6831(2)
C59 C 0.0265(3) -0.3319(5) 0.6864(2)
H74 H 0.0340 -0.2977 0.7136
C60 C 0.1049(3) -0.6112(6) 0.6147(2)
H75 H 0.1007 -0.6802 0.6030
H76 H 0.1067 -0.5652 0.5891
C61 C 0.1630(4) -0.6038(6) 0.6406(3)
C62 C 0.2105(5) -0.6002(7) 0.6614(3)
H77 H 0.2488 -0.5973 0.6782
C63 C -0.0545(3) -0.7520(5) 0.7672(2)
C64 C -0.1166(3) -0.7875(5) 0.7709(2)
C65 C -0.1579(3) -0.7333(5) 0.7972(2)
H78 H -0.1993 -0.7572 0.7997
C66 C -0.1399(3) -0.6438(5) 0.8201(2)
C67 C -0.0786(3) -0.6091(5) 0.81434(19)
H79 H -0.0655 -0.5490 0.8286
C68 C -0.0353(3) -0.6614(5) 0.7878(2)
C69 C -0.1887(3) -0.5869(5) 0.8481(2)
C70 C -0.2456(3) -0.5563(6) 0.8168(3)
H80 H -0.2764 -0.5202 0.8340
H81 H -0.2649 -0.6165 0.8039
H82 H -0.2310 -0.5130 0.7931
C71 C -0.1609(4) -0.4915(7) 0.8699(3)
H83 H -0.1928 -0.4583 0.8871
H84 H -0.1469 -0.4459 0.8468
H85 H -0.1253 -0.5097 0.8895
C72 C -0.1402(3) -0.8769(5) 0.7434(2)
H86 H -0.1133 -0.9356 0.7501
H87 H -0.1832 -0.8938 0.7518
C73 C -0.2142(4) -0.6587(7) 0.8843(3)
H88 H -0.2444 -0.6228 0.9020
H89 H -0.1794 -0.6820 0.9036
H90 H -0.2346 -0.7163 0.8699
C74 C 0.0274(3) -0.6119(5) 0.7782(2)
H91 H 0.0435 -0.5737 0.8042
H92 H 0.0587 -0.6629 0.7704
C75 C -0.1556(3) -0.6375(5) 0.6278(2)
C76 C 0.0680(3) -0.4926(5) 0.7243(2)
H93 H 0.1009 -0.5410 0.7166
H94 H 0.0854 -0.4464 0.7472
C77 C -0.1649(3) -0.7411(5) 0.6362(2)
C78 C -0.0148(3) -0.4932(6) 0.5627(2)
H95 H 0.0153 -0.4775 0.5396
H96 H -0.0122 -0.5659 0.5688
C79 C -0.1541(3) -0.8095(6) 0.6017(2)
H97 H -0.1605 -0.8787 0.6071
C80 C -0.1342(3) -0.7799(6) 0.5597(2)
C81 C -0.1237(3) -0.6767(6) 0.5528(2)
H98 H -0.1092 -0.6550 0.5251
C82 C -0.1344(3) -0.6036(5) 0.5867(2)
C83 C -0.1261(3) -0.4913(5) 0.5765(2)
H99 H -0.1662 -0.4649 0.5640
H100 H -0.1168 -0.4555 0.6046
C84 C -0.1852(3) -0.7805(5) 0.6811(2)
H101 H -0.1861 -0.7252 0.7029
H102 H -0.2275 -0.8099 0.6782
C85 C -0.1606(4) -0.3684(8) 0.7306(3)
H103 H -0.1736 -0.3090 0.7448
C86 C -0.1445(3) -0.4424(6) 0.7129(2)
C87 C -0.1240(3) -0.5333(5) 0.6913(2)
H104 H -0.1156 -0.5863 0.7136
H105 H -0.0851 -0.5204 0.6756
C88 C 0.1180(4) -0.8469(7) 0.6855(3)
H106 H 0.1594 -0.8685 0.6809
C89 C 0.0664(4) -0.8200(6) 0.6913(2)
C90 C 0.0035(3) -0.7834(5) 0.6998(2)
H107 H -0.0270 -0.8128 0.6782
H108 H 0.0021 -0.7097 0.6968
O1 O 0.01369(17) -0.5451(3) 0.74067(13)
O2 O -0.1402(2) -0.8564(3) 0.69583(14)
O3 O -0.0775(3) -0.4692(4) 0.54607(15)
O5 O -0.17404(18) -0.5658(3) 0.65950(14)
O6 O 0.0494(2) -0.5874(3) 0.63963(15)
O7 O -0.0120(2) -0.8127(3) 0.74511(15)
loop_
_geom_bond_atom_site_label_1
_geom_bond_atom_site_label_2
_geom_bond_site_symmetry_1
_geom_bond_site_symmetry_2
C1 C2 1_555 1_555
C2 H1 1_555 1_555
C3 C2 1_555 1_555
C4 C3 1_555 1_555
H2 C4 1_555 1_555
C5 C4 1_555 1_555
C6 C1 1_555 1_555
C7 C3 1_555 1_555
C8 C7 1_555 1_555
H3 C8 1_555 1_555
H4 C8 1_555 1_555
H5 C8 1_555 1_555
C9 C7 1_555 1_555
H6 C9 1_555 1_555
H7 C9 1_555 1_555
H8 C9 1_555 1_555
C10 C7 1_555 1_555
H9 C10 1_555 1_555
H10 C10 1_555 1_555
H11 C10 1_555 1_555
C11 C5 1_555 1_555
H12 C11 1_555 1_555
H13 C11 1_555 1_555
C12 C1 1_555 1_555
H14 C12 1_555 1_555
H15 C12 1_555 1_555
C13 H16 1_555 1_555
H17 C13 1_555 1_555
C14 C13 1_555 1_555
C15 C14 1_555 1_555
H18 C15 1_555 1_555
C16 C17 1_555 1_555
C17 C18 1_555 1_555
C18 H19 1_555 1_555
C19 C18 1_555 1_555
C20 C19 1_555 1_555
H20 C20 1_555 1_555
C21 C16 1_555 1_555
C22 C19 1_555 1_555
C23 C22 1_555 1_555
H21 C23 1_555 1_555
H22 C23 1_555 1_555
H23 C23 1_555 1_555
C24 C22 1_555 1_555
H24 C24 1_555 1_555
H25 C24 1_555 1_555
H26 C24 1_555 1_555
C25 C22 1_555 1_555
H27 C25 1_555 1_555
H28 C25 1_555 1_555
H29 C25 1_555 1_555
C26 C17 1_555 1_555
H30 C26 1_555 1_555
H31 C26 1_555 1_555
C27 C21 1_555 1_555
H32 C27 1_555 1_555
H33 C27 1_555 1_555
C28 H34 1_555 1_555
H35 C28 1_555 1_555
C29 C28 1_555 1_555
C30 C29 1_555 1_555
H36 C30 1_555 1_555
C31 C32 1_555 1_555
C32 C33 1_555 1_555
C33 H37 1_555 1_555
C34 C33 1_555 1_555
C35 C34 1_555 1_555
H38 C35 1_555 1_555
C36 C31 1_555 1_555
C37 H39 1_555 1_555
H40 C37 1_555 1_555
C38 C37 1_555 1_555
C39 C38 1_555 1_555
H41 C39 1_555 1_555
C40 C36 1_555 1_555
H42 C40 1_555 1_555
H43 C40 1_555 1_555
C41 H44 1_555 1_555
H45 C41 1_555 1_555
H46 C41 1_555 1_555
C42 H47 1_555 1_555
H48 C42 1_555 1_555
H49 C42 1_555 1_555
C43 C34 1_555 1_555
C44 C43 1_555 1_555
H50 C44 1_555 1_555
H51 C44 1_555 1_555
H52 C44 1_555 1_555
C45 C32 1_555 1_555
H53 C45 1_555 1_555
H54 C45 1_555 1_555
C46 H55 1_555 1_555
H56 C46 1_555 1_555
H57 C46 1_555 1_555
C47 C46 1_555 1_555
C48 C47 1_555 1_555
H58 C48 1_555 1_555
H59 C48 1_555 1_555
H60 C48 1_555 1_555
C49 C47 1_555 1_555
H61 C49 1_555 1_555
H62 C49 1_555 1_555
H63 C49 1_555 1_555
C50 C51 1_555 1_555
C51 H64 1_555 1_555
H65 C51 1_555 1_555
H66 C51 1_555 1_555
C52 C50 1_555 1_555
H67 C52 1_555 1_555
H68 C52 1_555 1_555
H69 C52 1_555 1_555
C53 C50 1_555 1_555
H70 C53 1_555 1_555
H71 C53 1_555 1_555
H72 C53 1_555 1_555
C54 C47 1_555 1_555
C55 C54 1_555 1_555
H73 C55 1_555 1_555
C56 C55 1_555 1_555
C57 C56 1_555 1_555
C58 C57 1_555 1_555
C59 C54 1_555 1_555
H74 C59 1_555 1_555
C60 H75 1_555 1_555
H76 C60 1_555 1_555
C61 C60 1_555 1_555
C62 C61 1_555 1_555
H77 C62 1_555 1_555
C63 C64 1_555 1_555
C64 C65 1_555 1_555
C65 H78 1_555 1_555
C66 C65 1_555 1_555
C67 C66 1_555 1_555
H79 C67 1_555 1_555
C68 C63 1_555 1_555
C69 C66 1_555 1_555
C70 C69 1_555 1_555
H80 C70 1_555 1_555
H81 C70 1_555 1_555
H82 C70 1_555 1_555
C71 C69 1_555 1_555
H83 C71 1_555 1_555
H84 C71 1_555 1_555
H85 C71 1_555 1_555
C72 C64 1_555 1_555
H86 C72 1_555 1_555
H87 C72 1_555 1_555
C73 C69 1_555 1_555
H88 C73 1_555 1_555
H89 C73 1_555 1_555
H90 C73 1_555 1_555
C74 C68 1_555 1_555
H91 C74 1_555 1_555
H92 C74 1_555 1_555
C75 C77 1_555 1_555
C76 C58 1_555 1_555
H93 C76 1_555 1_555
H94 C76 1_555 1_555
C77 C79 1_555 1_555
C78 C56 1_555 1_555
H95 C78 1_555 1_555
H96 C78 1_555 1_555
C79 H97 1_555 1_555
C80 C50 1_555 1_555
C81 C80 1_555 1_555
H98 C81 1_555 1_555
C82 C75 1_555 1_555
C83 C82 1_555 1_555
H99 C83 1_555 1_555
H100 C83 1_555 1_555
C84 C77 1_555 1_555
H101 C84 1_555 1_555
H102 C84 1_555 1_555
C85 H103 1_555 1_555
C86 C85 1_555 1_555
C87 C86 1_555 1_555
H104 C87 1_555 1_555
H105 C87 1_555 1_555
C88 H106 1_555 1_555
C89 C88 1_555 1_555
C90 C89 1_555 1_555
H107 C90 1_555 1_555
H108 C90 1_555 1_555
O1 C74 1_555 1_555
O2 C72 1_555 1_555
O3 C78 1_555 1_555
O4 C11 1_555 1_555
O5 C75 1_555 1_555
O6 C57 1_555 1_555
O7 C63 1_555 1_555
O8 C31 1_555 1_555
O9 C16 1_555 1_555
O10 C26 1_555 1_555
O11 C12 1_555 1_555
O12 C6 1_555 1_555
C5 C6 1_555 1_555
C13 O12 1_555 1_555
C20 C21 1_555 1_555
C27 O11 1_555 1_555
C28 O9 1_555 1_555
C35 C36 1_555 1_555
C37 O8 1_555 1_555
C40 O10 1_555 1_555
C41 C43 1_555 1_555
C42 C43 1_555 1_555
C45 O4 1_555 1_555
C58 C59 1_555 1_555
C60 O6 1_555 1_555
C67 C68 1_555 1_555
C76 O1 1_555 1_555
C79 C80 1_555 1_555
C81 C82 1_555 1_555
C83 O3 1_555 1_555
C84 O2 1_555 1_555
C87 O5 1_555 1_555
C90 O7 1_555 1_555

#END
