
#######################################################################
#
#                 Cambridge Crystallographic Data Centre
#                                CCDC 
#
#######################################################################
#
# If this CIF has been generated from an entry in the Cambridge 
# Structural Database, then it will include bibliographic, chemical, 
# crystal, experimental, refinement or atomic coordinate data resulting 
# from the CCDC's data processing and validation procedures.
#
#######################################################################

data_ASUJEF
_chemical_formula_moiety         'C19 H29 N5 O2 2+,2(Cl1 O4 1-),0.5(H2 O1)'
_chemical_name_systematic        
'6-(2-(3-hydroxy-2-methyl-4-oxopyridin-1(4H)-yl)ethyl)-6,15-diaza-3,9-diazoniabicyclo[9.3.1]pentadeca-1(15),11,13-triene diperchlorate hemihydrate'
_symmetry_cell_setting           triclinic
_symmetry_space_group_name_H-M   'P -1'
_symmetry_Int_Tables_number      2
_space_group_name_Hall           '-P 1'
loop_
_symmetry_equiv_pos_site_id
_symmetry_equiv_pos_as_xyz
1 x,y,z
2 -x,-y,-z
_cell_length_a                   8.8619(6)
_cell_length_b                   11.2331(6)
_cell_length_c                   12.7424(6)
_cell_angle_alpha                92.823(4)
_cell_angle_beta                 97.130(5)
_cell_angle_gamma                100.794(5)
_cell_volume                     1232.96
_exptl_crystal_colour            colorless
_exptl_crystal_description       Block
_cell_formula_units_Z            2
loop_
_atom_site_label
_atom_site_type_symbol
_atom_site_fract_x
_atom_site_fract_y
_atom_site_fract_z
Cl1 Cl 0.39750(15) 0.63988(11) 0.59556(10)
O1 O 0.4215(7) 0.6452(6) 0.4887(4)
O2 O 0.3545(7) 0.7472(4) 0.6331(4)
O3 O 0.5396(5) 0.6315(4) 0.6598(4)
O4 O 0.2854(6) 0.5370(4) 0.6131(5)
O5 O 0.4822(8) 0.1154(4) 0.8707(4)
H1 H 0.466(4) 0.0662(7) 0.9234(7)
N1 N 0.7635(5) 0.8627(4) 0.5921(3)
O6 O 0.5381(7) 0.1171(4) 1.0838(3)
C1 C 0.7063(6) 1.0449(5) 0.5253(4)
H2 H 0.6678 1.1156 0.5351
C2 C 0.8202(7) 0.9140(5) 0.4201(4)
H3 H 0.8582 0.8947 0.3579
C3 C 0.7081(6) 0.9636(4) 0.6032(4)
C4 C 0.7635(6) 1.0182(5) 0.4322(4)
H4 H 0.7631 1.0710 0.3782
C5 C 0.6425(7) 0.9842(5) 0.7058(4)
H5 H 0.6883 1.0649 0.7381
H6 H 0.5313 0.9786 0.6908
N2 N 0.8262(6) 0.6402(5) 0.5708(5)
H7 H 0.7679 0.5752 0.5333
H8 H 0.7641 0.6747 0.6071
N3 N 0.6763(6) 0.8921(4) 0.7801(3)
H9 H 0.6564 0.8194 0.7446
H10 H 0.6135 0.8896 0.8296
N4 N 0.6404(6) 0.4321(6) 0.9386(5)
C6 C 0.8199(6) 0.8387(5) 0.5016(4)
N5 N 0.8574(7) 0.6940(6) 0.8106(5)
C7 C 0.6788(9) 0.5506(8) 0.8908(7)
H11 H 0.6081 0.5488 0.8260
H12 H 0.6615 0.6144 0.9394
C8 C 0.8866(8) 0.7248(5) 0.4975(5)
H13 H 0.8625 0.6860 0.4261
H14 H 0.9986 0.7463 0.5144
C9 C 0.8377(9) 0.5815(8) 0.8665(6)
H15 H 0.8596 0.5157 0.8223
H16 H 0.9098 0.5928 0.9316
C10 C 0.9861(9) 0.6898(8) 0.7411(7)
H17 H 1.0173 0.7698 0.7161
H18 H 1.0754 0.6708 0.7842
C11 C 0.8411(9) 0.9178(7) 0.8329(5)
H19 H 0.8556 0.9847 0.8867
H20 H 0.9099 0.9418 0.7809
C12 C 0.5756(8) 0.2181(4) 1.0398(5)
C13 C 0.9397(9) 0.5986(8) 0.6471(6)
H21 H 1.0302 0.5898 0.6139
H22 H 0.8948 0.5201 0.6697
C14 C 0.6753(8) 0.4330(7) 1.0438(6)
H23 H 0.7219 0.5057 1.0826
C15 C 0.6441(7) 0.3297(7) 1.0952(5)
H24 H 0.6687 0.3334 1.1685
C16 C 0.5444(9) 0.2205(6) 0.9287(5)
C17 C 0.5759(8) 0.3274(7) 0.8786(5)
C18 C 0.8829(10) 0.8045(7) 0.8849(6)
H25 H 0.9911 0.8234 0.9159
H26 H 0.8213 0.7868 0.9421
C19 C 0.5335(11) 0.3254(7) 0.7603(5)
H27 H 0.4655 0.3813 0.7445
H28 H 0.4822 0.2449 0.7330
H29 H 0.6258 0.3488 0.7280
O7 O 1.1516(8) 0.2369(7) 0.8452(5)
Cl2 Cl 1.01416(16) 0.27469(12) 0.80791(11)
O8 O 0.9139(8) 0.2650(9) 0.8844(4)
O9 O 0.9384(8) 0.2108(8) 0.7164(5)
O10 O 1.0594(12) 0.3945(6) 0.7822(9)
O11 O 0.1921(12) -0.0316(9) 0.8255(9)
H30 H 0.1617 0.0151 0.8694
H31 H 0.2563 -0.0690 0.8584
loop_
_geom_bond_atom_site_label_1
_geom_bond_atom_site_label_2
_geom_bond_site_symmetry_1
_geom_bond_site_symmetry_2
Cl1 O1 1_555 1_555
O2 Cl1 1_555 1_555
O3 Cl1 1_555 1_555
O4 Cl1 1_555 1_555
O5 H1 1_555 1_555
N1 C3 1_555 1_555
O6 C12 1_555 1_555
C1 H2 1_555 1_555
C2 H3 1_555 1_555
C3 C1 1_555 1_555
C4 C1 1_555 1_555
H4 C4 1_555 1_555
C5 C3 1_555 1_555
H5 C5 1_555 1_555
H6 C5 1_555 1_555
N2 H7 1_555 1_555
H8 N2 1_555 1_555
N3 C5 1_555 1_555
H9 N3 1_555 1_555
H10 N3 1_555 1_555
N4 C7 1_555 1_555
C6 N1 1_555 1_555
N5 C9 1_555 1_555
C7 H11 1_555 1_555
H12 C7 1_555 1_555
C8 N2 1_555 1_555
H13 C8 1_555 1_555
H14 C8 1_555 1_555
C9 C7 1_555 1_555
H15 C9 1_555 1_555
H16 C9 1_555 1_555
C10 N5 1_555 1_555
H17 C10 1_555 1_555
H18 C10 1_555 1_555
C11 N3 1_555 1_555
H19 C11 1_555 1_555
H20 C11 1_555 1_555
C12 C15 1_555 1_555
C13 N2 1_555 1_555
H21 C13 1_555 1_555
H22 C13 1_555 1_555
C14 N4 1_555 1_555
H23 C14 1_555 1_555
C15 C14 1_555 1_555
H24 C15 1_555 1_555
C16 O5 1_555 1_555
C17 N4 1_555 1_555
C18 N5 1_555 1_555
H25 C18 1_555 1_555
H26 C18 1_555 1_555
C19 C17 1_555 1_555
H27 C19 1_555 1_555
H28 C19 1_555 1_555
H29 C19 1_555 1_555
O7 Cl2 1_555 1_555
Cl2 O8 1_555 1_555
O9 Cl2 1_555 1_555
O10 Cl2 1_555 1_555
O11 H30 1_555 1_555
H31 O11 1_555 1_555
C2 C4 1_555 1_555
C2 C6 1_555 1_555
C6 C8 1_555 1_555
C10 C13 1_555 1_555
C11 C18 1_555 1_555
C12 C16 1_555 1_555
C16 C17 1_555 1_555

#END
