
#######################################################################
#
#                 Cambridge Crystallographic Data Centre
#                                CCDC 
#
#######################################################################
#
# If this CIF has been generated from an entry in the Cambridge 
# Structural Database, then it will include bibliographic, chemical, 
# crystal, experimental, refinement or atomic coordinate data resulting 
# from the CCDC's data processing and validation procedures.
#
#######################################################################

data_ASUJOO
_chemical_formula_moiety         'C23 H26 N4 O5'
_chemical_name_systematic        
'(R)-Diethyl 1-(4-benzyl-3-methyl-5-oxo-1-phenyl-4,5-dihydro-1H-pyrazol-4-yl)hydrazine-1,2-dicarboxylate'
_symmetry_cell_setting           monoclinic
_symmetry_space_group_name_H-M   'C 2'
_symmetry_Int_Tables_number      5
_space_group_name_Hall           'C 2y'
loop_
_symmetry_equiv_pos_site_id
_symmetry_equiv_pos_as_xyz
1 x,y,z
2 -x,y,-z
3 1/2+x,1/2+y,z
4 1/2-x,1/2+y,-z
_cell_length_a                   17.639(3)
_cell_length_b                   13.026(2)
_cell_length_c                   12.1899(18)
_cell_angle_alpha                90
_cell_angle_beta                 122.269(9)
_cell_angle_gamma                90
_cell_volume                     2368.24
_exptl_crystal_colour            colorless
_exptl_crystal_description       block
_cell_formula_units_Z            4
loop_
_atom_site_label
_atom_site_type_symbol
_atom_site_fract_x
_atom_site_fract_y
_atom_site_fract_z
O1 O 0.15205(14) 0.4654(2) 0.5545(2)
O2 O 0.17164(16) 0.6009(2) 0.8033(3)
O3 O 0.02504(17) 0.6056(2) 0.7388(3)
O4 O 0.04037(17) 0.3659(3) 0.8897(2)
O5 O -0.09925(15) 0.34552(19) 0.7145(2)
N1 N 0.31675(17) 0.4268(2) 0.8801(2)
N2 N 0.28760(16) 0.4477(2) 0.7487(2)
N3 N 0.08751(15) 0.4575(2) 0.7357(2)
N4 N 0.00447(16) 0.4122(2) 0.6888(2)
H1 H -0.0344 0.4086 0.6068
C1 C 0.16290(19) 0.3983(2) 0.7504(3)
C2 C 0.2479(2) 0.4033(3) 0.8840(3)
C3 C 0.1966(2) 0.4431(3) 0.6685(3)
C4 C 0.1003(2) 0.5599(3) 0.7630(4)
C5 C 0.0264(4) 0.7200(5) 0.7408(9)
H2 H 0.0829 0.7445 0.8139
H3 H -0.0217 0.7461 0.7492
C6 C 0.0148(7) 0.7566(9) 0.6150(11)
H4 H 0.0166 0.8303 0.6147
H5 H -0.0419 0.7333 0.5435
H6 H 0.0623 0.7296 0.6071
C7 C -0.0137(2) 0.3736(3) 0.7761(3)
C8 C -0.1275(3) 0.2982(4) 0.7956(4)
H7 H -0.1141 0.3435 0.8670
H8 H -0.0959 0.2340 0.8313
C9 C -0.2242(3) 0.2795(5) 0.7148(5)
H9 H -0.2443 0.2487 0.7665
H10 H -0.2368 0.2342 0.6450
H11 H -0.2550 0.3434 0.6800
C10 C 0.1334(2) 0.2859(3) 0.7092(4)
H12 H 0.1108 0.2586 0.7604
H13 H 0.0844 0.2851 0.6189
C11 C 0.2068(3) 0.2169(3) 0.7247(5)
C12 C 0.2540(3) 0.1548(4) 0.8324(6)
H14 H 0.2390 0.1547 0.8949
C13 C 0.3230(4) 0.0928(5) 0.8492(8)
H15 H 0.3552 0.0523 0.9231
C14 C 0.3432(5) 0.0919(5) 0.7565(10)
H16 H 0.3897 0.0504 0.7677
C15 C 0.2978(5) 0.1492(5) 0.6490(9)
H17 H 0.3127 0.1464 0.5865
C16 C 0.2284(3) 0.2128(4) 0.6302(5)
H18 H 0.1967 0.2522 0.5553
C17 C 0.2540(3) 0.3819(4) 1.0081(4)
H19 H 0.3149 0.3900 1.0790
H20 H 0.2346 0.3129 1.0072
H21 H 0.2163 0.4291 1.0182
C18 C 0.3526(2) 0.4788(3) 0.7203(3)
C19 C 0.4340(3) 0.5118(5) 0.8179(4)
H22 H 0.4471 0.5147 0.9025
C20 C 0.4977(3) 0.5414(5) 0.7902(6)
H23 H 0.5535 0.5641 0.8572
C21 C 0.4805(3) 0.5380(5) 0.6695(6)
H24 H 0.5238 0.5581 0.6524
C22 C 0.3985(3) 0.5044(5) 0.5716(5)
H25 H 0.3858 0.5019 0.4871
C23 C 0.3347(3) 0.4743(4) 0.5971(4)
H26 H 0.2792 0.4508 0.5300
C24? C 0.0287(7) 0.7293(9) 0.8661(11)
H27? H 0.0487 0.6657 0.9129
H28? H -0.0304 0.7449 0.8471
H29? H 0.0691 0.7833 0.9180
loop_
_geom_bond_atom_site_label_1
_geom_bond_atom_site_label_2
_geom_bond_site_symmetry_1
_geom_bond_site_symmetry_2
O1 C3 1_555 1_555
O2 C4 1_555 1_555
O3 C4 1_555 1_555
O4 C7 1_555 1_555
O5 C7 1_555 1_555
N1 N2 1_555 1_555
N2 C3 1_555 1_555
N3 N4 1_555 1_555
N4 H1 1_555 1_555
C1 N3 1_555 1_555
C2 N1 1_555 1_555
C3 C1 1_555 1_555
C4 N3 1_555 1_555
C5 O3 1_555 1_555
H2 C5 1_555 1_555
H3 C5 1_555 1_555
C6 C5 1_555 1_555
H4 C6 1_555 1_555
H5 C6 1_555 1_555
H6 C6 1_555 1_555
C7 N4 1_555 1_555
C8 O5 1_555 1_555
H7 C8 1_555 1_555
H8 C8 1_555 1_555
C9 C8 1_555 1_555
H9 C9 1_555 1_555
H10 C9 1_555 1_555
H11 C9 1_555 1_555
C10 C1 1_555 1_555
H12 C10 1_555 1_555
H13 C10 1_555 1_555
C11 C10 1_555 1_555
C12 C11 1_555 1_555
H14 C12 1_555 1_555
C13 C12 1_555 1_555
H15 C13 1_555 1_555
C14 C13 1_555 1_555
H16 C14 1_555 1_555
C15 C14 1_555 1_555
H17 C15 1_555 1_555
C16 C11 1_555 1_555
H18 C16 1_555 1_555
C17 C2 1_555 1_555
H19 C17 1_555 1_555
H20 C17 1_555 1_555
H21 C17 1_555 1_555
C18 N2 1_555 1_555
C19 C18 1_555 1_555
H22 C19 1_555 1_555
C20 C19 1_555 1_555
H23 C20 1_555 1_555
C21 C20 1_555 1_555
H24 C21 1_555 1_555
C22 C21 1_555 1_555
H25 C22 1_555 1_555
C23 C18 1_555 1_555
H26 C23 1_555 1_555
C1 C2 1_555 1_555
C15 C16 1_555 1_555
C22 C23 1_555 1_555

#END
