
#######################################################################
#
#                 Cambridge Crystallographic Data Centre
#                                CCDC 
#
#######################################################################
#
# If this CIF has been generated from an entry in the Cambridge 
# Structural Database, then it will include bibliographic, chemical, 
# crystal, experimental, refinement or atomic coordinate data resulting 
# from the CCDC's data processing and validation procedures.
#
#######################################################################

data_ASUJUU
_chemical_formula_moiety         'C24 H23 N1 O4'
_chemical_name_systematic        
'(S)-Dimethyl 1-methyl-2-(1-naphthyl)-1,4-dihydroquinoline-3,3(2H)-dicarboxylate'
_symmetry_cell_setting           monoclinic
_symmetry_space_group_name_H-M   'P 21'
_symmetry_Int_Tables_number      4
_space_group_name_Hall           'P 2yb'
loop_
_symmetry_equiv_pos_site_id
_symmetry_equiv_pos_as_xyz
1 x,y,z
2 -x,1/2+y,-z
_cell_length_a                   7.7205(15)
_cell_length_b                   14.032(3)
_cell_length_c                   9.5919(19)
_cell_angle_alpha                90
_cell_angle_beta                 104.39(3)
_cell_angle_gamma                90
_cell_volume                     1006.53
_exptl_crystal_colour            yellow
_exptl_crystal_description       block
_chemical_melting_point          '150-152 deg.C'
_cell_formula_units_Z            2
loop_
_atom_site_label
_atom_site_type_symbol
_atom_site_fract_x
_atom_site_fract_y
_atom_site_fract_z
O1 O -0.0964(2) 0.83534(14) 0.38750(18)
O2 O 0.0607(2) 0.71124(14) 0.33874(16)
O3 O 0.4895(2) 0.78103(17) 0.5886(2)
O4 O 0.3243(2) 0.88058(15) 0.43231(18)
N1 N -0.0304(2) 0.82411(14) 0.7197(2)
C1 C -0.0517(3) 0.72905(18) 0.7503(2)
C2 C -0.1794(3) 0.7002(3) 0.8238(3)
H1 H -0.2493 0.7455 0.8550
C3 C -0.2016(5) 0.6040(3) 0.8498(3)
H2 H -0.2859 0.5857 0.8990
C4 C -0.1000(6) 0.5350(3) 0.8038(4)
H3 H -0.1148 0.4708 0.8220
C5 C 0.0225(5) 0.5633(2) 0.7311(3)
H4 H 0.0887 0.5172 0.6977
C6 C 0.0514(3) 0.65845(17) 0.7055(2)
C7 C 0.1993(3) 0.68583(18) 0.6370(3)
H5 H 0.2080 0.6382 0.5658
H6 H 0.3116 0.6861 0.7101
C8 C 0.1712(3) 0.78301(16) 0.5650(2)
C9 C 0.0265(3) 0.78161(18) 0.4221(2)
C10 C -0.0519(4) 0.7081(3) 0.1926(3)
H7 H -0.0171 0.6552 0.1422
H8 H -0.0383 0.7663 0.1437
H9 H -0.1746 0.7008 0.1955
C11 C 0.3481(3) 0.81327(19) 0.5314(2)
C12 C 0.4870(3) 0.9195(3) 0.4038(3)
H10 H 0.4563 0.9679 0.3311
H11 H 0.5520 0.8695 0.3710
H12 H 0.5598 0.9467 0.4905
C13 C 0.1187(3) 0.85831(15) 0.6656(2)
H13 H 0.0755 0.9143 0.6060
C14 C -0.1256(3) 0.8979(2) 0.7760(3)
H14 H -0.0950 0.9591 0.7442
H15 H -0.0927 0.8957 0.8792
H16 H -0.2520 0.8878 0.7418
C15 C 0.2769(3) 0.89165(16) 0.7858(2)
C16 C 0.3322(3) 0.83691(19) 0.9072(2)
H17 H 0.2704 0.7813 0.9162
C17 C 0.4804(4) 0.8632(2) 1.0181(3)
H18 H 0.5167 0.8245 1.0988
C18 C 0.5707(3) 0.9446(2) 1.0082(3)
H19 H 0.6695 0.9610 1.0819
C19 C 0.5171(3) 1.00491(17) 0.8879(3)
C20 C 0.6126(4) 1.0896(2) 0.8767(3)
H20 H 0.7103 1.1068 0.9507
C21 C 0.5620(4) 1.1456(2) 0.7587(4)
H21 H 0.6270 1.2005 0.7518
C22 C 0.4138(4) 1.1224(2) 0.6470(4)
H22 H 0.3801 1.1621 0.5673
C23 C 0.3182(3) 1.04133(17) 0.6547(3)
H23 H 0.2190 1.0270 0.5803
C24 C 0.3675(3) 0.97899(16) 0.7737(2)
loop_
_geom_bond_atom_site_label_1
_geom_bond_atom_site_label_2
_geom_bond_site_symmetry_1
_geom_bond_site_symmetry_2
O1 C9 1_555 1_555
O2 C9 1_555 1_555
O3 C11 1_555 1_555
O4 C11 1_555 1_555
N1 C1 1_555 1_555
C1 C2 1_555 1_555
C2 H1 1_555 1_555
C3 C2 1_555 1_555
H2 C3 1_555 1_555
C4 C3 1_555 1_555
H3 C4 1_555 1_555
C5 C4 1_555 1_555
H4 C5 1_555 1_555
C6 C1 1_555 1_555
C7 C6 1_555 1_555
H5 C7 1_555 1_555
H6 C7 1_555 1_555
C8 C7 1_555 1_555
C9 C8 1_555 1_555
C10 O2 1_555 1_555
H7 C10 1_555 1_555
H8 C10 1_555 1_555
H9 C10 1_555 1_555
C11 C8 1_555 1_555
C12 O4 1_555 1_555
H10 C12 1_555 1_555
H11 C12 1_555 1_555
H12 C12 1_555 1_555
C13 N1 1_555 1_555
H13 C13 1_555 1_555
C14 N1 1_555 1_555
H14 C14 1_555 1_555
H15 C14 1_555 1_555
H16 C14 1_555 1_555
C15 C13 1_555 1_555
C16 C15 1_555 1_555
H17 C16 1_555 1_555
C17 C16 1_555 1_555
H18 C17 1_555 1_555
C18 C17 1_555 1_555
H19 C18 1_555 1_555
C19 C18 1_555 1_555
C20 C19 1_555 1_555
H20 C20 1_555 1_555
C21 C20 1_555 1_555
H21 C21 1_555 1_555
C22 C21 1_555 1_555
H22 C22 1_555 1_555
C23 C22 1_555 1_555
H23 C23 1_555 1_555
C24 C15 1_555 1_555
C5 C6 1_555 1_555
C8 C13 1_555 1_555
C19 C24 1_555 1_555
C23 C24 1_555 1_555

#END
