
#######################################################################
#
#                 Cambridge Crystallographic Data Centre
#                                CCDC 
#
#######################################################################
#
# If this CIF has been generated from an entry in the Cambridge 
# Structural Database, then it will include bibliographic, chemical, 
# crystal, experimental, refinement or atomic coordinate data resulting 
# from the CCDC's data processing and validation procedures.
#
#######################################################################

data_ASUJEE
_chemical_formula_moiety         'C31 H35 Cl1 O5'
_chemical_name_systematic        
'syn-t-Butyl 3-benzoyl-1-(2-(t-butoxycarbonyl)prop-2-en-1-yl)-4-(4-chlorophenyl)cyclopent-2-ene-1-carboxylate'
_symmetry_cell_setting           monoclinic
_symmetry_space_group_name_H-M   'P 21/c'
_symmetry_Int_Tables_number      14
_space_group_name_Hall           '-P 2ybc'
loop_
_symmetry_equiv_pos_site_id
_symmetry_equiv_pos_as_xyz
1 x,y,z
2 -x,1/2+y,1/2-z
3 -x,-y,-z
4 x,1/2-y,1/2+z
_cell_length_a                   14.6970(14)
_cell_length_b                   14.3290(13)
_cell_length_c                   14.3030(13)
_cell_angle_alpha                90
_cell_angle_beta                 104.267(4)
_cell_angle_gamma                90
_cell_volume                     2919.22
_exptl_crystal_colour            colorless
_exptl_crystal_description       prism
_chemical_melting_point          '109-110 deg.C'
_cell_formula_units_Z            4
loop_
_atom_site_label
_atom_site_type_symbol
_atom_site_fract_x
_atom_site_fract_y
_atom_site_fract_z
Cl1 Cl 0.53368(3) 0.14550(3) 0.34619(3)
O1 O 0.29545(8) 0.26336(9) 0.65050(8)
O2 O 0.24617(8) 0.70850(9) 0.44627(9)
O3 O 0.21097(9) 0.56185(9) 0.38867(9)
O4 O 0.17979(9) 0.56845(10) 0.74702(9)
O5 O 0.30266(8) 0.51212(9) 0.86033(8)
C1 C 0.27700(11) 0.41174(12) 0.57930(11)
C2 C 0.38067(11) 0.42613(12) 0.58373(12)
H1 H 0.4174 0.4222 0.6525
C3 C 0.38262(11) 0.52804(12) 0.54832(12)
H2 H 0.3901 0.5291 0.4814
H3 H 0.4359 0.5623 0.5901
C4 C 0.28728(11) 0.57470(12) 0.55268(12)
C5 C 0.22883(11) 0.49118(12) 0.56395(11)
H4 H 0.1635 0.4949 0.5604
C6 C 0.24185(11) 0.31967(12) 0.60053(12)
C7 C 0.14091(11) 0.29503(12) 0.56067(12)
C8 C 0.08531(11) 0.33438(13) 0.47713(13)
H5 H 0.1109 0.3806 0.4434
C9 C -0.00748(12) 0.30651(14) 0.44269(14)
H6 H -0.0453 0.3336 0.3856
C10 C -0.04437(13) 0.23933(15) 0.49189(16)
H7 H -0.1081 0.2209 0.4691
C11 C 0.01049(13) 0.19889(16) 0.57375(17)
H8 H -0.0150 0.1518 0.6066
C12 C 0.10296(12) 0.22673(14) 0.60836(15)
H9 H 0.1406 0.1989 0.6651
C13 C 0.41955(11) 0.35569(12) 0.52434(12)
C14 C 0.37780(11) 0.34423(12) 0.42658(12)
H10 H 0.3245 0.3809 0.3973
C15 C 0.41248(11) 0.28006(13) 0.37071(12)
H11 H 0.3833 0.2724 0.3041
C16 C 0.49017(11) 0.22804(12) 0.41453(12)
C17 C 0.53354(11) 0.23749(12) 0.51112(12)
H12 H 0.5872 0.2012 0.5399
C18 C 0.49715(11) 0.30121(12) 0.56545(12)
H13 H 0.5260 0.3077 0.6323
C19 C 0.24594(11) 0.62517(13) 0.45806(12)
C20 C 0.17303(14) 0.58986(15) 0.28682(13)
C21 C 0.14133(18) 0.49747(17) 0.23837(16)
H14 H 0.1952 0.4552 0.2472
H15 H 0.1145 0.5076 0.1693
H16 H 0.0937 0.4697 0.2672
C22 C 0.25099(15) 0.63138(18) 0.24863(15)
H17 H 0.2703 0.6911 0.2807
H18 H 0.2287 0.6415 0.1790
H19 H 0.3046 0.5885 0.2614
C23 C 0.09058(15) 0.65499(18) 0.27821(16)
H20 H 0.0486 0.6303 0.3158
H21 H 0.0564 0.6602 0.2103
H22 H 0.1133 0.7167 0.3029
C24 C 0.29774(12) 0.64523(12) 0.63680(12)
H23 H 0.3404 0.6961 0.6279
H24 H 0.2357 0.6733 0.6345
C25 C 0.33544(12) 0.60170(12) 0.73463(12)
C26 C 0.42572(12) 0.60183(13) 0.78009(13)
H25 H 0.4457 0.5748 0.8425
H26 H 0.4705 0.6289 0.7503
C27 C 0.26342(12) 0.55935(13) 0.78020(12)
C28 C 0.24516(13) 0.46478(13) 0.91812(13)
C29 C 0.19032(15) 0.38641(17) 0.85817(16)
H27 H 0.1593 0.3488 0.8985
H28 H 0.2333 0.3469 0.8331
H29 H 0.1429 0.4129 0.8042
C30 C 0.31825(14) 0.42587(15) 1.00288(14)
H30 H 0.3581 0.4767 1.0359
H31 H 0.3570 0.3800 0.9797
H32 H 0.2869 0.3957 1.0479
C31 C 0.18485(17) 0.53552(18) 0.95201(17)
H33 H 0.2243 0.5867 0.9849
H34 H 0.1529 0.5058 0.9968
H35 H 0.1381 0.5602 0.8964
loop_
_geom_bond_atom_site_label_1
_geom_bond_atom_site_label_2
_geom_bond_site_symmetry_1
_geom_bond_site_symmetry_2
Cl1 C16 1_555 1_555
O1 C6 1_555 1_555
O2 C19 1_555 1_555
O3 C19 1_555 1_555
O4 C27 1_555 1_555
O5 C27 1_555 1_555
C1 C2 1_555 1_555
C2 H1 1_555 1_555
C3 C2 1_555 1_555
H2 C3 1_555 1_555
H3 C3 1_555 1_555
C4 C3 1_555 1_555
C5 C1 1_555 1_555
H4 C5 1_555 1_555
C6 C1 1_555 1_555
C7 C6 1_555 1_555
C8 C7 1_555 1_555
H5 C8 1_555 1_555
C9 C8 1_555 1_555
H6 C9 1_555 1_555
C10 C9 1_555 1_555
H7 C10 1_555 1_555
C11 C10 1_555 1_555
H8 C11 1_555 1_555
C12 C7 1_555 1_555
H9 C12 1_555 1_555
C13 C2 1_555 1_555
C14 C13 1_555 1_555
H10 C14 1_555 1_555
C15 C14 1_555 1_555
H11 C15 1_555 1_555
C16 C15 1_555 1_555
C17 C16 1_555 1_555
H12 C17 1_555 1_555
C18 C13 1_555 1_555
H13 C18 1_555 1_555
C19 C4 1_555 1_555
C20 O3 1_555 1_555
C21 C20 1_555 1_555
H14 C21 1_555 1_555
H15 C21 1_555 1_555
H16 C21 1_555 1_555
C22 C20 1_555 1_555
H17 C22 1_555 1_555
H18 C22 1_555 1_555
H19 C22 1_555 1_555
C23 C20 1_555 1_555
H20 C23 1_555 1_555
H21 C23 1_555 1_555
H22 C23 1_555 1_555
C24 C4 1_555 1_555
H23 C24 1_555 1_555
H24 C24 1_555 1_555
C25 C24 1_555 1_555
C26 C25 1_555 1_555
H25 C26 1_555 1_555
H26 C26 1_555 1_555
C27 C25 1_555 1_555
C28 O5 1_555 1_555
C29 C28 1_555 1_555
H27 C29 1_555 1_555
H28 C29 1_555 1_555
H29 C29 1_555 1_555
C30 C28 1_555 1_555
H30 C30 1_555 1_555
H31 C30 1_555 1_555
H32 C30 1_555 1_555
C31 C28 1_555 1_555
H33 C31 1_555 1_555
H34 C31 1_555 1_555
H35 C31 1_555 1_555
C4 C5 1_555 1_555
C11 C12 1_555 1_555
C17 C18 1_555 1_555

#END
