
#######################################################################
#
#                 Cambridge Crystallographic Data Centre
#                                CCDC 
#
#######################################################################
#
# If this CIF has been generated from an entry in the Cambridge 
# Structural Database, then it will include bibliographic, chemical, 
# crystal, experimental, refinement or atomic coordinate data resulting 
# from the CCDC's data processing and validation procedures.
#
#######################################################################

data_ASULEG
_chemical_formula_moiety         'C27 H22 O7'
_chemical_name_systematic        
'Dimethyl 5-benzoyl-7-hydroxy-4-oxo-6-phenyl-3,4-dihydronaphthalene-2,2(1H)-dicarboxylate'
_symmetry_cell_setting           triclinic
_symmetry_space_group_name_H-M   'P -1'
_symmetry_Int_Tables_number      2
_space_group_name_Hall           '-P 1'
loop_
_symmetry_equiv_pos_site_id
_symmetry_equiv_pos_as_xyz
1 x,y,z
2 -x,-y,-z
_cell_length_a                   9.6288(4)
_cell_length_b                   10.5846(4)
_cell_length_c                   11.4820(4)
_cell_angle_alpha                75.5150(10)
_cell_angle_beta                 80.5860(10)
_cell_angle_gamma                83.9260(10)
_cell_volume                     1115.17
_exptl_crystal_colour            yellow
_exptl_crystal_description       block
_cell_formula_units_Z            2
loop_
_atom_site_label
_atom_site_type_symbol
_atom_site_fract_x
_atom_site_fract_y
_atom_site_fract_z
O1 O 0.37288(16) 0.69988(15) -0.20390(13)
O2 O 0.48121(13) 0.81088(13) -0.10757(12)
O3 O 0.30944(15) 0.52343(11) 0.06171(11)
O4 O 0.28262(13) 0.65674(11) 0.18634(10)
O5 O 0.10200(14) 0.96411(12) 0.18217(12)
O6 O -0.20715(14) 1.00158(11) 0.28899(11)
O7 O -0.36007(13) 0.60773(14) 0.12878(13)
H1 H -0.3473 0.5688 0.0741
C1 C -0.01196(16) 0.73809(15) 0.03416(13)
C2 C -0.12669(17) 0.66899(16) 0.03788(15)
H2 H -0.1243 0.6182 -0.0179
C3 C -0.24567(17) 0.67379(16) 0.12334(15)
C4 C -0.25160(17) 0.74807(15) 0.20976(14)
C5 C -0.13530(17) 0.81653(14) 0.20699(13)
C6 C -0.01477(16) 0.81375(14) 0.11933(13)
C7 C 0.10553(17) 0.89040(15) 0.11550(14)
C8 C 0.23477(18) 0.87955(15) 0.02343(15)
H3 H 0.3178 0.8863 0.0587
H4 H 0.2302 0.9526 -0.0467
C9 C 0.25130(17) 0.75204(15) -0.01912(14)
C10 C 0.11354(17) 0.73456(16) -0.06253(14)
H5 H 0.0994 0.8035 -0.1340
H6 H 0.1211 0.6516 -0.0854
C11 C -0.38013(17) 0.75437(16) 0.30179(15)
C12 C -0.4949(2) 0.83901(19) 0.27017(19)
H7 H -0.4940 0.8879 0.1906
C13 C -0.6108(2) 0.8514(2) 0.3561(2)
H8 H -0.6881 0.9075 0.3338
C14 C -0.6123(2) 0.7809(2) 0.4745(2)
H9 H -0.6881 0.7927 0.5333
C15 C -0.5030(2) 0.6947(3) 0.50448(19)
H10 H -0.5050 0.6446 0.5837
C16 C -0.3876(2) 0.6803(2) 0.41795(18)
H11 H -0.3141 0.6189 0.4396
C17 C -0.08675(17) 0.82893(16) 0.41757(14)
C18 C -0.1147(2) 0.8861(2) 0.51582(17)
H12 H -0.1681 0.9654 0.5093
C19 C -0.0641(2) 0.8262(2) 0.62315(18)
H13 H -0.0830 0.8654 0.6886
C20 C 0.0140(2) 0.7092(2) 0.63362(18)
H14 H 0.0479 0.6690 0.7063
C21 C 0.0425(2) 0.6510(2) 0.53751(18)
H15 H 0.0953 0.5713 0.5451
C22 C -0.0070(2) 0.71073(18) 0.42954(16)
H16 H 0.0133 0.6713 0.3643
C23 C -0.14433(17) 0.89466(15) 0.30314(14)
C24 C 0.37389(19) 0.75157(16) -0.12297(15)
C25 C 0.6067(2) 0.8091(2) -0.1959(2)
H17 H 0.6781 0.8541 -0.1764
H18 H 0.5845 0.8519 -0.2754
H19 H 0.6407 0.7202 -0.1944
C26 C 0.28444(16) 0.63141(15) 0.08006(14)
C27 C 0.3187(2) 0.54764(19) 0.28337(16)
H20 H 0.3141 0.5770 0.3566
H21 H 0.4126 0.5122 0.2616
H22 H 0.2534 0.4813 0.2962
loop_
_geom_bond_atom_site_label_1
_geom_bond_atom_site_label_2
_geom_bond_site_symmetry_1
_geom_bond_site_symmetry_2
O1 C24 1_555 1_555
O2 C24 1_555 1_555
O3 C26 1_555 1_555
O4 C26 1_555 1_555
O5 C7 1_555 1_555
O6 C23 1_555 1_555
O7 H1 1_555 1_555
C1 C2 1_555 1_555
C2 H2 1_555 1_555
C3 O7 1_555 1_555
C4 C3 1_555 1_555
C5 C4 1_555 1_555
C6 C1 1_555 1_555
C7 C6 1_555 1_555
C8 C7 1_555 1_555
H3 C8 1_555 1_555
H4 C8 1_555 1_555
C9 C8 1_555 1_555
C10 C1 1_555 1_555
H5 C10 1_555 1_555
H6 C10 1_555 1_555
C11 C4 1_555 1_555
C12 C11 1_555 1_555
H7 C12 1_555 1_555
C13 C12 1_555 1_555
H8 C13 1_555 1_555
C14 C13 1_555 1_555
H9 C14 1_555 1_555
C15 C14 1_555 1_555
H10 C15 1_555 1_555
C16 C11 1_555 1_555
H11 C16 1_555 1_555
C17 C18 1_555 1_555
C18 H12 1_555 1_555
C19 C18 1_555 1_555
H13 C19 1_555 1_555
C20 C19 1_555 1_555
H14 C20 1_555 1_555
C21 C20 1_555 1_555
H15 C21 1_555 1_555
C22 C17 1_555 1_555
H16 C22 1_555 1_555
C23 C5 1_555 1_555
C24 C9 1_555 1_555
C25 O2 1_555 1_555
H17 C25 1_555 1_555
H18 C25 1_555 1_555
H19 C25 1_555 1_555
C26 C9 1_555 1_555
C27 O4 1_555 1_555
H20 C27 1_555 1_555
H21 C27 1_555 1_555
H22 C27 1_555 1_555
C2 C3 1_555 1_555
C5 C6 1_555 1_555
C9 C10 1_555 1_555
C15 C16 1_555 1_555
C17 C23 1_555 1_555
C21 C22 1_555 1_555

#END
