
#######################################################################
#
#                 Cambridge Crystallographic Data Centre
#                                CCDC 
#
#######################################################################
#
# If this CIF has been generated from an entry in the Cambridge 
# Structural Database, then it will include bibliographic, chemical, 
# crystal, experimental, refinement or atomic coordinate data resulting 
# from the CCDC's data processing and validation procedures.
#
#######################################################################

data_ASUNEI
_chemical_formula_moiety         'C20 H21 Br1 N2 O6'
_chemical_name_systematic        
'Ethyl ((2S,3R,4S)-4-((5-bromo-2-hydroxyphenyl)amino)-3-methyl-3-nitro-3,4-dihydro-2H-chromen-2-yl)acetate'
_symmetry_cell_setting           monoclinic
_symmetry_space_group_name_H-M   'P 21'
_symmetry_Int_Tables_number      4
_space_group_name_Hall           'P 2yb'
loop_
_symmetry_equiv_pos_site_id
_symmetry_equiv_pos_as_xyz
1 x,y,z
2 -x,1/2+y,-z
_cell_length_a                   8.8643(9)
_cell_length_b                   11.8667(12)
_cell_length_c                   10.0142(11)
_cell_angle_alpha                90
_cell_angle_beta                 107.486(2)
_cell_angle_gamma                90
_cell_volume                     1004.72
_exptl_crystal_colour            brown
_exptl_crystal_description       block
_cell_formula_units_Z            2
loop_
_atom_site_label
_atom_site_type_symbol
_atom_site_fract_x
_atom_site_fract_y
_atom_site_fract_z
Br1 Br 0.51572(6) -0.18785(6) -0.49962(5)
C1 C 0.4550(4) 0.0740(3) -0.2486(3)
C2 C 0.3218(4) 0.1297(3) -0.3355(4)
C3 C 0.2513(4) 0.0926(3) -0.4709(4)
H1 H 0.1649 0.1314 -0.5284
C4 C 0.3077(5) -0.0008(4) -0.5210(4)
H2 H 0.2592 -0.0264 -0.6115
C5 C 0.4373(5) -0.0562(3) -0.4351(4)
C6 C 0.5126(4) -0.0199(3) -0.3007(4)
H3 H 0.6011 -0.0579 -0.2453
C7 C 0.6592(4) 0.0749(3) -0.0131(3)
H4 H 0.6729 -0.0034 -0.0381
C8 C 0.8088(4) 0.1381(3) -0.0088(4)
C9 C 0.9369(5) 0.1356(4) 0.1138(4)
C10 C 1.0797(5) 0.1853(4) 0.1171(5)
H5 H 1.1655 0.1818 0.1979
C11 C 1.0933(5) 0.2398(4) 0.0001(5)
H6 H 1.1892 0.2727 0.0020
C12 C 0.9671(6) 0.2462(5) -0.1196(5)
H7 H 0.9768 0.2851 -0.1972
C13 C 0.8263(5) 0.1951(4) -0.1242(4)
H8 H 0.7416 0.1988 -0.2058
C14 C 0.6390(4) 0.0746(3) 0.1338(3)
C15 C 0.7919(4) 0.0252(3) 0.2369(3)
H9 H 0.8070 -0.0518 0.2079
C16 C 0.5947(5) 0.1894(4) 0.1789(4)
H10 H 0.6773 0.2425 0.1816
H11 H 0.5813 0.1834 0.2703
H12 H 0.4977 0.2145 0.1133
C17 C 0.7887(5) 0.0232(4) 0.3868(4)
H13 H 0.6840 0.0009 0.3883
H14 H 0.8083 0.0988 0.4251
C18 C 0.9094(4) -0.0562(3) 0.4791(4)
C19 C 1.0697(5) -0.0931(4) 0.7087(4)
H15 H 1.1662 -0.1001 0.6827
H16 H 1.0248 -0.1677 0.7085
C20 C 1.1046(6) -0.0416(4) 0.8505(4)
H17 H 1.1598 0.0283 0.8525
H18 H 1.1693 -0.0921 0.9190
H19 H 1.0074 -0.0278 0.8713
N1 N 0.5161(4) 0.1173(3) -0.1131(3)
H20 H 0.493(5) 0.1865(14) -0.104(4)
N2 N 0.5075(4) -0.0107(4) 0.1301(4)
O1 O 0.2707(3) 0.2187(2) -0.2752(3)
H21 H 0.199(4) 0.249(4) -0.336(4)
O2 O 0.5185(4) -0.1028(3) 0.0791(4)
O3 O 0.4038(4) 0.0153(4) 0.1781(4)
O4 O 0.9262(3) 0.0914(3) 0.2368(3)
O5 O 0.9530(3) -0.1423(3) 0.4400(3)
O6 O 0.9573(3) -0.0203(2) 0.6093(3)
loop_
_geom_bond_atom_site_label_1
_geom_bond_atom_site_label_2
_geom_bond_site_symmetry_1
_geom_bond_site_symmetry_2
Br1 C5 1_555 1_555
C1 C2 1_555 1_555
C2 C3 1_555 1_555
C3 H1 1_555 1_555
C4 C3 1_555 1_555
H2 C4 1_555 1_555
C5 C4 1_555 1_555
C6 C1 1_555 1_555
H3 C6 1_555 1_555
C7 H4 1_555 1_555
C8 C7 1_555 1_555
C9 C8 1_555 1_555
C10 C9 1_555 1_555
H5 C10 1_555 1_555
C11 C10 1_555 1_555
H6 C11 1_555 1_555
C12 C11 1_555 1_555
H7 C12 1_555 1_555
C13 C8 1_555 1_555
H8 C13 1_555 1_555
C14 C7 1_555 1_555
C15 C14 1_555 1_555
H9 C15 1_555 1_555
C16 C14 1_555 1_555
H10 C16 1_555 1_555
H11 C16 1_555 1_555
H12 C16 1_555 1_555
C17 C15 1_555 1_555
H13 C17 1_555 1_555
H14 C17 1_555 1_555
C18 C17 1_555 1_555
C19 H15 1_555 1_555
H16 C19 1_555 1_555
C20 C19 1_555 1_555
H17 C20 1_555 1_555
H18 C20 1_555 1_555
H19 C20 1_555 1_555
N1 C1 1_555 1_555
H20 N1 1_555 1_555
N2 C14 1_555 1_555
O1 C2 1_555 1_555
H21 O1 1_555 1_555
O2 N2 1_555 1_555
O3 N2 1_555 1_555
O4 C9 1_555 1_555
O5 C18 1_555 1_555
O6 C18 1_555 1_555
C5 C6 1_555 1_555
C7 N1 1_555 1_555
C12 C13 1_555 1_555
C15 O4 1_555 1_555
C19 O6 1_555 1_555

#END
