
#######################################################################
#
#                 Cambridge Crystallographic Data Centre
#                                CCDC 
#
#######################################################################
#
# If this CIF has been generated from an entry in the Cambridge 
# Structural Database, then it will include bibliographic, chemical, 
# crystal, experimental, refinement or atomic coordinate data resulting 
# from the CCDC's data processing and validation procedures.
#
#######################################################################

data_ASUQAG
_chemical_formula_moiety         'C40 H34 O4'
_chemical_name_systematic        
1,1,2,2-tetrakis(4-Methoxyphenyl)-1,2-dihydroacenaphthylene
_symmetry_cell_setting           triclinic
_symmetry_space_group_name_H-M   'P -1'
_symmetry_Int_Tables_number      2
_space_group_name_Hall           '-P 1'
loop_
_symmetry_equiv_pos_site_id
_symmetry_equiv_pos_as_xyz
1 x,y,z
2 -x,-y,-z
_cell_length_a                   10.0914(17)
_cell_length_b                   10.8633(19)
_cell_length_c                   15.308(3)
_cell_angle_alpha                101.893(3)
_cell_angle_beta                 98.924(3)
_cell_angle_gamma                111.528(3)
_cell_volume                     1477.68
_cell_formula_units_Z            2
loop_
_atom_site_label
_atom_site_type_symbol
_atom_site_fract_x
_atom_site_fract_y
_atom_site_fract_z
O1 O 0.76596(19) 0.09794(18) -0.03022(11)
O2 O 0.87232(18) 0.99944(16) 0.23459(11)
O3 O 0.3731(2) -0.10338(17) 0.37060(12)
O4 O 1.03417(19) 0.86896(17) 0.53994(12)
C1 C 0.5353(3) 0.4246(2) 0.18808(15)
C2 C 0.3745(3) 0.3878(2) 0.13899(16)
C3 C 0.5217(3) 0.4175(2) 0.29446(15)
C4 C 0.3034(3) 0.3560(2) 0.04783(16)
H1 H 0.3493 0.3385 0.0015
C5 C 0.1591(3) 0.3501(3) 0.02552(17)
H2 H 0.1118 0.3293 -0.0362
C6 C 0.0871(3) 0.3739(3) 0.09096(17)
H3 H -0.0062 0.3721 0.0735
C7 C 0.0910(3) 0.4211(2) 0.26035(17)
H4 H -0.0029 0.4195 0.2504
C8 C 0.1685(3) 0.4426(2) 0.34813(17)
H5 H 0.1247 0.4537 0.3966
C9 C 0.3120(3) 0.4485(2) 0.36735(16)
H6 H 0.3617 0.4622 0.4274
C10 C 0.3777(2) 0.4335(2) 0.29564(16)
C11 C 0.2977(3) 0.4084(2) 0.20563(16)
C12 C 0.1534(3) 0.4013(2) 0.18523(16)
C13 C 0.6040(3) 0.3362(2) 0.13677(16)
C14 C 0.6128(3) 0.3410(2) 0.04701(16)
H7 H 0.5814 0.4002 0.0227
C15 C 0.6658(3) 0.2615(3) -0.00639(17)
H8 H 0.6691 0.2671 -0.0659
C16 C 0.7147(3) 0.1728(2) 0.02829(16)
C17 C 0.7169(3) 0.1724(2) 0.11864(16)
H9 H 0.7548 0.1179 0.1441
C18 C 0.6626(3) 0.2532(2) 0.17137(16)
H10 H 0.6654 0.2519 0.2322
C19 C 0.8176(3) 0.0072(3) 0.00482(18)
H11 H 0.8503 -0.0400 -0.0415
H12 H 0.7392 -0.0591 0.0210
H13 H 0.8981 0.0597 0.0586
C20 C 0.6266(3) 0.5783(2) 0.19368(15)
C21 C 0.5626(3) 0.6708(2) 0.18899(15)
H14 H 0.4606 0.6385 0.1766
C22 C 0.6463(3) 0.8107(2) 0.20225(16)
H15 H 0.6002 0.8702 0.1983
C23 C 0.7980(3) 0.8608(2) 0.22134(15)
C24 C 0.8645(3) 0.7701(2) 0.22488(16)
H16 H 0.9665 0.8025 0.2369
C25 C 0.7785(3) 0.6304(2) 0.21035(15)
H17 H 0.8244 0.5703 0.2119
C26 C 1.0285(3) 1.0530(3) 0.25444(18)
H18 H 1.0681 1.1507 0.2624
H19 H 1.0571 1.0088 0.2043
H20 H 1.0658 1.0356 0.3101
C27 C 0.4858(3) 0.2748(2) 0.31086(16)
C28 C 0.5283(3) 0.2646(3) 0.39946(16)
H21 H 0.5851 0.3447 0.4474
C29 C 0.4878(3) 0.1379(2) 0.41758(17)
H22 H 0.5175 0.1336 0.4771
C30 C 0.4027(3) 0.0170(3) 0.34670(17)
C31 C 0.3561(3) 0.0248(3) 0.25859(16)
H23 H 0.2983 -0.0553 0.2108
C32 C 0.3964(3) 0.1531(2) 0.24240(16)
H24 H 0.3622 0.1575 0.1836
C33 C 0.2890(3) -0.2300(3) 0.29991(19)
H25 H 0.2765 -0.3060 0.3254
H26 H 0.3396 -0.2362 0.2521
H27 H 0.1943 -0.2331 0.2746
C34 C 0.6577(3) 0.5335(2) 0.36592(15)
C35 C 0.6589(3) 0.6611(2) 0.40676(15)
H28 H 0.5721 0.6733 0.3950
C36 C 0.7840(3) 0.7695(3) 0.46389(16)
H29 H 0.7803 0.8531 0.4900
C37 C 0.9159(3) 0.7553(3) 0.48306(16)
C38 C 0.9184(3) 0.6293(2) 0.44379(16)
H30 H 1.0056 0.6177 0.4556
C39 C 0.7902(3) 0.5203(2) 0.38667(15)
H31 H 0.7932 0.4360 0.3616
C40 C 1.1715(3) 0.8593(3) 0.55959(18)
H32 H 1.2450 0.9457 0.6000
H33 H 1.1996 0.8381 0.5032
H34 H 1.1628 0.7876 0.5889
loop_
_geom_bond_atom_site_label_1
_geom_bond_atom_site_label_2
_geom_bond_site_symmetry_1
_geom_bond_site_symmetry_2
O1 C16 1_555 1_555
O2 C23 1_555 1_555
O3 C30 1_555 1_555
O4 C37 1_555 1_555
C1 C2 1_555 1_555
C2 C4 1_555 1_555
C3 C1 1_555 1_555
C4 H1 1_555 1_555
C5 C4 1_555 1_555
H2 C5 1_555 1_555
C6 C5 1_555 1_555
H3 C6 1_555 1_555
C7 H4 1_555 1_555
C8 C7 1_555 1_555
H5 C8 1_555 1_555
C9 C8 1_555 1_555
H6 C9 1_555 1_555
C10 C3 1_555 1_555
C11 C2 1_555 1_555
C12 C6 1_555 1_555
C13 C1 1_555 1_555
C14 C13 1_555 1_555
H7 C14 1_555 1_555
C15 C14 1_555 1_555
H8 C15 1_555 1_555
C16 C15 1_555 1_555
C17 C16 1_555 1_555
H9 C17 1_555 1_555
C18 C13 1_555 1_555
H10 C18 1_555 1_555
C19 O1 1_555 1_555
H11 C19 1_555 1_555
H12 C19 1_555 1_555
H13 C19 1_555 1_555
C20 C1 1_555 1_555
C21 C20 1_555 1_555
H14 C21 1_555 1_555
C22 C21 1_555 1_555
H15 C22 1_555 1_555
C23 C22 1_555 1_555
C24 C23 1_555 1_555
H16 C24 1_555 1_555
C25 C20 1_555 1_555
H17 C25 1_555 1_555
C26 O2 1_555 1_555
H18 C26 1_555 1_555
H19 C26 1_555 1_555
H20 C26 1_555 1_555
C27 C3 1_555 1_555
C28 C27 1_555 1_555
H21 C28 1_555 1_555
C29 C28 1_555 1_555
H22 C29 1_555 1_555
C30 C29 1_555 1_555
C31 C30 1_555 1_555
H23 C31 1_555 1_555
C32 C27 1_555 1_555
H24 C32 1_555 1_555
C33 O3 1_555 1_555
H25 C33 1_555 1_555
H26 C33 1_555 1_555
H27 C33 1_555 1_555
C34 C3 1_555 1_555
C35 C34 1_555 1_555
H28 C35 1_555 1_555
C36 C35 1_555 1_555
H29 C36 1_555 1_555
C37 C36 1_555 1_555
C38 C37 1_555 1_555
H30 C38 1_555 1_555
C39 C34 1_555 1_555
H31 C39 1_555 1_555
C40 O4 1_555 1_555
H32 C40 1_555 1_555
H33 C40 1_555 1_555
H34 C40 1_555 1_555
C7 C12 1_555 1_555
C9 C10 1_555 1_555
C10 C11 1_555 1_555
C11 C12 1_555 1_555
C17 C18 1_555 1_555
C24 C25 1_555 1_555
C31 C32 1_555 1_555
C38 C39 1_555 1_555

#END
