
#######################################################################
#
#                 Cambridge Crystallographic Data Centre
#                                CCDC 
#
#######################################################################
#
# If this CIF has been generated from an entry in the Cambridge 
# Structural Database, then it will include bibliographic, chemical, 
# crystal, experimental, refinement or atomic coordinate data resulting 
# from the CCDC's data processing and validation procedures.
#
#######################################################################

data_ASUQUB
_chemical_formula_moiety         'C15 H10 N4 O2'
_chemical_name_systematic        
'3-(3-Formylimidazo[1,2-a]pyridin-2-yl)imidazo[1,2-a]pyridin-1-ium-2-olate radical'
_symmetry_cell_setting           triclinic
_symmetry_space_group_name_H-M   'P -1'
_symmetry_Int_Tables_number      2
_space_group_name_Hall           '-P 1'
loop_
_symmetry_equiv_pos_site_id
_symmetry_equiv_pos_as_xyz
1 x,y,z
2 -x,-y,-z
_cell_length_a                   7.5936(5)
_cell_length_b                   8.1687(6)
_cell_length_c                   11.2605(5)
_cell_angle_alpha                80.768(5)
_cell_angle_beta                 70.738(5)
_cell_angle_gamma                67.315(6)
_cell_volume                     607.933
_exptl_crystal_colour            yellow
_exptl_crystal_description       block
_cell_formula_units_Z            2
_exptl_crystal_recrystallization_method dimethylformamide
loop_
_atom_site_label
_atom_site_type_symbol
_atom_site_fract_x
_atom_site_fract_y
_atom_site_fract_z
O1 O 0.52754(16) 0.19149(14) 0.51630(10)
O2 O 0.85730(14) 0.12895(15) 0.14751(9)
N1 N 0.26883(16) 0.50742(15) 0.41113(11)
N2 N 0.24628(17) 0.53889(15) 0.21346(11)
N3 N 0.46197(17) 0.26957(15) 0.01685(11)
N4 N 0.77394(17) 0.09233(16) -0.02504(11)
H1 H 0.8985 0.0151 -0.0691
C1 C 0.0575(2) 0.7051(2) 0.57237(16)
H2 H 0.0194 0.7379 0.6551
C2 C -0.0481(2) 0.8126(2) 0.48949(16)
H3 H -0.1558 0.9159 0.5177
C3 C 0.0060(2) 0.76660(19) 0.36857(15)
H4 H -0.0633 0.8384 0.3136
C4 C 0.1675(2) 0.60973(18) 0.32742(14)
C5 C 0.2147(2) 0.5538(2) 0.53252(14)
H5 H 0.2846 0.4826 0.5874
C6 C 0.42062(19) 0.36003(18) 0.34596(13)
C7 C 0.4031(2) 0.38775(19) 0.22404(13)
C8 C 0.5284(2) 0.27775(19) 0.11798(13)
C9 C 0.5359(2) 0.2089(2) 0.40515(15)
H6 H 0.6260 0.1145 0.3544
C10 C 0.7303(2) 0.1652(2) 0.08871(14)
C11 C 0.6145(2) 0.1533(2) -0.06877(13)
C12 C 0.5866(2) 0.1171(2) -0.17530(14)
H7 H 0.6908 0.0380 -0.2328
C13 C 0.4045(3) 0.1987(2) -0.19500(15)
H8 H 0.3826 0.1758 -0.2662
C14 C 0.2516(3) 0.3165(3) -0.10767(17)
H9 H 0.1272 0.3727 -0.1213
C15 C 0.2800(2) 0.3511(2) -0.00349(16)
H10 H 0.1759 0.4301 0.0541
loop_
_geom_bond_atom_site_label_1
_geom_bond_atom_site_label_2
_geom_bond_site_symmetry_1
_geom_bond_site_symmetry_2
O1 C9 1_555 1_555
O2 C10 1_555 1_555
N1 C4 1_555 1_555
N2 C4 1_555 1_555
N3 C8 1_555 1_555
N4 H1 1_555 1_555
C1 H2 1_555 1_555
C2 C1 1_555 1_555
H3 C2 1_555 1_555
C3 C2 1_555 1_555
H4 C3 1_555 1_555
C4 C3 1_555 1_555
C5 N1 1_555 1_555
H5 C5 1_555 1_555
C6 N1 1_555 1_555
C7 N2 1_555 1_555
C8 C7 1_555 1_555
C9 C6 1_555 1_555
H6 C9 1_555 1_555
C10 N4 1_555 1_555
C11 N3 1_555 1_555
C12 C11 1_555 1_555
H7 C12 1_555 1_555
C13 C12 1_555 1_555
H8 C13 1_555 1_555
C14 C13 1_555 1_555
H9 C14 1_555 1_555
C15 N3 1_555 1_555
H10 C15 1_555 1_555
N4 C11 1_555 1_555
C1 C5 1_555 1_555
C6 C7 1_555 1_555
C8 C10 1_555 1_555
C14 C15 1_555 1_555

#END
