
#######################################################################
#
#                 Cambridge Crystallographic Data Centre
#                                CCDC 
#
#######################################################################
#
# If this CIF has been generated from an entry in the Cambridge 
# Structural Database, then it will include bibliographic, chemical, 
# crystal, experimental, refinement or atomic coordinate data resulting 
# from the CCDC's data processing and validation procedures.
#
#######################################################################

data_ASUSAJ
_chemical_name_common            
'beta-2-(5,6-Dihydro[1,3]dithiolo[4,5-b][1,4]dithiin-2-ylidene)-5,6-dihydro[1,3]dithiolo[4,5-b][1,4]dithiin-1-ium radical cation hydrogen sulfate'
_chemical_formula_moiety         'C10 H8 S8 1+,H1 O4 S1 1-'
_chemical_name_systematic        
'\b-bis(Ethylenedithio)tetrathiafulvalenium radical cation hydrogen sulfate'
_symmetry_cell_setting           monoclinic
_symmetry_space_group_name_H-M   'C 2/c'
_symmetry_Int_Tables_number      15
_space_group_name_Hall           '-C 2yn'
loop_
_symmetry_equiv_pos_site_id
_symmetry_equiv_pos_as_xyz
1 x,y,z
2 -x,y,1/2-z
3 1/2+x,1/2+y,z
4 1/2-x,1/2+y,1/2-z
5 -x,-y,-z
6 x,-y,1/2+z
7 1/2-x,1/2-y,-z
8 1/2+x,1/2-y,1/2+z
_cell_length_a                   15.996(2)
_cell_length_b                   10.6173(10)
_cell_length_c                   11.5083(11)
_cell_angle_alpha                90
_cell_angle_beta                 120.534(8)
_cell_angle_gamma                90
_cell_volume                     1683.47
_exptl_crystal_colour            black
_exptl_crystal_description       prism
_cell_formula_units_Z            4
loop_
_atom_site_label
_atom_site_type_symbol
_atom_site_fract_x
_atom_site_fract_y
_atom_site_fract_z
S1 S 0.56959(8) 0.35898(11) -0.05877(13)
S2 S 0.57756(9) 0.63306(11) -0.05488(14)
S3 S 0.70856(10) 0.65259(12) -0.16347(15)
S4 S 0.69795(10) 0.32725(12) -0.17203(14)
C1 C 0.6439(3) 0.5563(4) -0.1147(5)
C2 C 0.6391(3) 0.4276(4) -0.1186(4)
C3 C 0.5315(3) 0.4979(4) -0.0245(5)
C4 C 0.7891(5) 0.5443(6) -0.1813(8)
H1 H 0.8516 0.5854 -0.1454
H2 H 0.7636 0.5313 -0.2769
C5 C 0.8059(4) 0.4186(6) -0.1165(7)
H3 H 0.8501 0.3716 -0.1346
H4 H 0.8373 0.4300 -0.0197
S1D S 0.43041(8) 0.64102(11) 0.05877(13)
S2D S 0.42244(9) 0.36694(11) 0.05488(14)
S3D S 0.29144(10) 0.34741(12) 0.16347(15)
S4D S 0.30205(10) 0.67275(12) 0.17203(14)
C1D C 0.3561(3) 0.4437(4) 0.1147(5)
C2D C 0.3609(3) 0.5724(4) 0.1186(4)
C3D C 0.4685(3) 0.5021(4) 0.0245(5)
C4D C 0.2109(5) 0.4557(6) 0.1813(8)
H1D H 0.1484 0.4146 0.1454
H2D H 0.2364 0.4687 0.2769
C5D C 0.1941(4) 0.5814(6) 0.1165(7)
H3D H 0.1499 0.6284 0.1346
H4D H 0.1627 0.5700 0.0197
S5 S 0.0000 0.5318(3) 0.2500
O2 O 0.0012(8) 0.5450(15) 0.1226(7)
O3 O 0.0963(4) 0.5913(9) 0.3299(10)
O2A O -0.0012(8) 0.5450(15) 0.3774(7)
O3A O -0.0963(4) 0.5913(9) 0.1701(10)
O1? O -0.0746(14) 0.616(2) 0.2468(16)
O4? O 0.0056(10) 0.3968(4) 0.2828(12)
loop_
_geom_bond_atom_site_label_1
_geom_bond_atom_site_label_2
_geom_bond_site_symmetry_1
_geom_bond_site_symmetry_2
S1 C2 1_555 1_555
S2 C1 1_555 1_555
S3 C1 1_555 1_555
S4 C2 1_555 1_555
S5 O2 1_555 1_555
C1 C2 1_555 1_555
C3 S1 1_555 1_555
C4 S3 1_555 1_555
H1 C4 1_555 1_555
H2 C4 1_555 1_555
C5 S4 1_555 1_555
H3 C5 1_555 1_555
H4 C5 1_555 1_555
O3 S5 1_555 1_555
S1D C2D 1_555 1_555
S2D C1D 1_555 1_555
S3D C1D 1_555 1_555
S4D C2D 1_555 1_555
C1D C2D 1_555 1_555
C3D C3 1_555 1_555
C4D S3D 1_555 1_555
H1D C4D 1_555 1_555
H2D C4D 1_555 1_555
C5D S4D 1_555 1_555
H3D C5D 1_555 1_555
H4D C5D 1_555 1_555
O2A S5 1_555 1_555
O3A S5 1_555 1_555
S2 C3 1_555 1_555
C4 C5 1_555 1_555
S1D C3D 1_555 1_555
S2D C3D 1_555 1_555
C4D C5D 1_555 1_555

#END
