
#######################################################################
#
#                 Cambridge Crystallographic Data Centre
#                                CCDC 
#
#######################################################################
#
# If this CIF has been generated from an entry in the Cambridge 
# Structural Database, then it will include bibliographic, chemical, 
# crystal, experimental, refinement or atomic coordinate data resulting 
# from the CCDC's data processing and validation procedures.
#
#######################################################################

data_ASUWOB03
_chemical_formula_moiety         'C12 H12 O6'
_chemical_name_systematic        
1,1',1''-(2,4,6-trihydroxybenzene-1,3,5-triyl)triethanone
_symmetry_cell_setting           monoclinic
_symmetry_space_group_name_H-M   'P 21/c'
_symmetry_Int_Tables_number      14
_space_group_name_Hall           '-P 2ybc'
loop_
_symmetry_equiv_pos_site_id
_symmetry_equiv_pos_as_xyz
1 x,y,z
2 -x,1/2+y,1/2-z
3 -x,-y,-z
4 x,1/2-y,1/2+z
_cell_length_a                   9.298(3)
_cell_length_b                   16.631(4)
_cell_length_c                   7.232(3)
_cell_angle_alpha                90
_cell_angle_beta                 106.90(4)
_cell_angle_gamma                90
_cell_volume                     1070.02
_exptl_crystal_colour            colorless
_exptl_crystal_description       plate
_cell_formula_units_Z            4
loop_
_atom_site_label
_atom_site_type_symbol
_atom_site_fract_x
_atom_site_fract_y
_atom_site_fract_z
C1 C 0.77138(15) 0.25000(8) 0.53390(19)
O1 O 0.90620(11) 0.25363(5) 0.66101(14)
H1 H 0.9308 0.1916 0.6858
C2 C 0.70601(15) 0.17333(8) 0.47357(19)
C3 C 0.56003(15) 0.17104(8) 0.33913(19)
C4 C 0.47809(15) 0.24251(8) 0.27038(19)
C5 C 0.54808(15) 0.31755(8) 0.33390(19)
C6 C 0.69675(15) 0.32252(8) 0.46290(19)
O2 O 0.49999(10) 0.10043(6) 0.27791(14)
H2 H 0.4032 0.1144 0.1832
O3 O 0.47406(10) 0.38437(6) 0.26920(14)
H3 H 0.5569 0.4283 0.3411
C7 C 0.79155(15) 0.10114(9) 0.55210(19)
C8 C 0.73796(17) 0.01762(9) 0.4976(2)
H4 H 0.7179 0.0106 0.3579
H5 H 0.6454 0.0081 0.5332
H6 H 0.8152 -0.0207 0.5659
O4 O 0.91940(11) 0.10839(6) 0.67254(14)
C9 C 0.32603(15) 0.23544(8) 0.13555(19)
C10 C 0.22689(15) 0.30596(9) 0.0609(2)
H7 H 0.2745 0.3408 -0.0134
H8 H 0.2112 0.3362 0.1698
H9 H 0.1298 0.2871 -0.0225
O5 O 0.27457(11) 0.16723(6) 0.08030(14)
C11 C 0.76374(16) 0.40250(8) 0.51373(19)
C12 C 0.92203(15) 0.41585(9) 0.6356(2)
H10 H 0.9354 0.3929 0.7643
H11 H 0.9430 0.4737 0.6472
H12 H 0.9914 0.3897 0.5751
O6 O 0.68694(11) 0.46387(6) 0.45005(14)
loop_
_geom_bond_atom_site_label_1
_geom_bond_atom_site_label_2
_geom_bond_site_symmetry_1
_geom_bond_site_symmetry_2
C1 O1 1_555 1_555
O1 H1 1_555 1_555
C2 C1 1_555 1_555
C3 C2 1_555 1_555
C4 C3 1_555 1_555
C5 C4 1_555 1_555
C6 C1 1_555 1_555
O2 C3 1_555 1_555
H2 O2 1_555 1_555
O3 C5 1_555 1_555
H3 O3 1_555 1_555
C7 C2 1_555 1_555
C8 C7 1_555 1_555
H4 C8 1_555 1_555
H5 C8 1_555 1_555
H6 C8 1_555 1_555
O4 C7 1_555 1_555
C9 C4 1_555 1_555
C10 C9 1_555 1_555
H7 C10 1_555 1_555
H8 C10 1_555 1_555
H9 C10 1_555 1_555
O5 C9 1_555 1_555
C11 C6 1_555 1_555
C12 C11 1_555 1_555
H10 C12 1_555 1_555
H11 C12 1_555 1_555
H12 C12 1_555 1_555
O6 C11 1_555 1_555
C5 C6 1_555 1_555

#END
