
#######################################################################
#
#                 Cambridge Crystallographic Data Centre
#                                CCDC 
#
#######################################################################
#
# If this CIF has been generated from an entry in the Cambridge 
# Structural Database, then it will include bibliographic, chemical, 
# crystal, experimental, refinement or atomic coordinate data resulting 
# from the CCDC's data processing and validation procedures.
#
#######################################################################

data_ASUXIV
_chemical_formula_moiety         'C23 H26 N2 O5'
_chemical_name_systematic        
(R)-1,3-Dibenzyl-5-((S)-((R)-2,2-dimethyl-(1,3)dioxolan-4-yl)-hydroxymethyl)imidazolidine-2,4-dione
_symmetry_cell_setting           monoclinic
_symmetry_space_group_name_H-M   'P 21'
_symmetry_Int_Tables_number      4
_space_group_name_Hall           'P 2yb'
loop_
_symmetry_equiv_pos_site_id
_symmetry_equiv_pos_as_xyz
1 x,y,z
2 -x,1/2+y,-z
_cell_length_a                   14.157(3)
_cell_length_b                   5.469(2)
_cell_length_c                   14.598(3)
_cell_angle_alpha                90
_cell_angle_beta                 110.40(4)
_cell_angle_gamma                90
_cell_volume                     1059.36
_exptl_crystal_colour            colorless
_exptl_crystal_description       needle
_chemical_melting_point          '455-457 K'
_cell_formula_units_Z            2
_exptl_crystal_recrystallization_method acetonitrile
loop_
_atom_site_label
_atom_site_type_symbol
_atom_site_fract_x
_atom_site_fract_y
_atom_site_fract_z
N1 N 0.05381(17) 0.4199(6) 0.33615(16)
C1 C -0.0358(2) 0.3916(8) 0.3485(2)
O1 O -0.06955(19) 0.5067(7) 0.4001(2)
N2 N -0.08532(18) 0.1939(6) 0.28991(18)
C2 C -0.0271(2) 0.0875(6) 0.2443(2)
O2 O -0.04945(14) -0.0925(5) 0.19172(15)
C3 C 0.06998(19) 0.2326(6) 0.27275(19)
H1 H 0.1264 0.1281 0.3104
C4 C 0.0912(2) 0.3399(7) 0.18434(19)
H2 H 0.1478 0.4543 0.2080
O3 O 0.00614(14) 0.4670(5) 0.12239(13)
H3 H -0.0304 0.5046 0.1531
C5 C 0.1170(2) 0.1446(7) 0.1226(2)
H4 H 0.0560 0.0564 0.0836
C6 C 0.1696(2) 0.2481(9) 0.0571(2)
H5 H 0.1591 0.1457 0.0002
H6 H 0.1465 0.4126 0.0359
O4 O 0.27239(13) 0.2472(5) 0.11943(14)
C7 C 0.2876(2) 0.0394(7) 0.1796(3)
C8 C 0.3567(3) 0.1102(13) 0.2801(3)
H7 H 0.4192 0.1692 0.2766
H8 H 0.3693 -0.0298 0.3223
H9 H 0.3257 0.2366 0.3055
C9 C 0.3247(4) -0.1705(10) 0.1357(5)
H10 H 0.2732 -0.2185 0.0757
H11 H 0.3406 -0.3058 0.1804
H12 H 0.3840 -0.1220 0.1227
O5 O 0.19027(15) -0.0229(4) 0.18318(16)
C10 C 0.1301(2) 0.5910(8) 0.3917(2)
H13 H 0.1023 0.6923 0.4307
H14 H 0.1473 0.6973 0.3467
C11 C 0.22484(12) 0.4706(4) 0.45842(14)
C12 C 0.21881(13) 0.2680(4) 0.51359(16)
H15 H 0.1562 0.2051 0.5087
C13 C 0.30634(18) 0.1593(5) 0.57601(16)
H16 H 0.3023 0.0237 0.6129
C14 C 0.39991(14) 0.2533(6) 0.58327(18)
H17 H 0.4585 0.1805 0.6250
C15 C 0.40594(12) 0.4559(6) 0.52809(19)
H18 H 0.4685 0.5188 0.5329
C16 C 0.31840(16) 0.5646(5) 0.46567(16)
H19 H 0.3224 0.7002 0.4288
C17 C -0.1858(2) 0.1150(8) 0.2827(3)
H20 H -0.1901 0.1177 0.3476
H21 H -0.1950 -0.0530 0.2600
C18 C -0.27057(12) 0.2670(4) 0.21573(15)
C19 C -0.25371(12) 0.4593(5) 0.16112(17)
H22 H -0.1886 0.4947 0.1637
C20 C -0.33421(17) 0.5988(5) 0.10258(17)
H23 H -0.3229 0.7275 0.0660
C21 C -0.43158(14) 0.5459(6) 0.09866(17)
H24 H -0.4854 0.6392 0.0595
C22 C -0.44845(11) 0.3535(6) 0.15328(18)
H25 H -0.5136 0.3182 0.1507
C23 C -0.36794(15) 0.2141(4) 0.21181(16)
H26 H -0.3792 0.0854 0.2484
loop_
_geom_bond_atom_site_label_1
_geom_bond_atom_site_label_2
_geom_bond_site_symmetry_1
_geom_bond_site_symmetry_2
N1 C1 1_555 1_555
C1 O1 1_555 1_555
N2 C1 1_555 1_555
C2 N2 1_555 1_555
O2 C2 1_555 1_555
C3 N1 1_555 1_555
H1 C3 1_555 1_555
C4 C3 1_555 1_555
H2 C4 1_555 1_555
O3 C4 1_555 1_555
H3 O3 1_555 1_555
C5 C4 1_555 1_555
H4 C5 1_555 1_555
C6 C5 1_555 1_555
H5 C6 1_555 1_555
H6 C6 1_555 1_555
O4 C6 1_555 1_555
C7 O4 1_555 1_555
C8 C7 1_555 1_555
H7 C8 1_555 1_555
H8 C8 1_555 1_555
H9 C8 1_555 1_555
C9 C7 1_555 1_555
H10 C9 1_555 1_555
H11 C9 1_555 1_555
H12 C9 1_555 1_555
O5 C5 1_555 1_555
C10 N1 1_555 1_555
H13 C10 1_555 1_555
H14 C10 1_555 1_555
C11 C10 1_555 1_555
C12 C11 1_555 1_555
H15 C12 1_555 1_555
C13 C12 1_555 1_555
H16 C13 1_555 1_555
C14 C13 1_555 1_555
H17 C14 1_555 1_555
C15 C14 1_555 1_555
H18 C15 1_555 1_555
C16 C11 1_555 1_555
H19 C16 1_555 1_555
C17 N2 1_555 1_555
H20 C17 1_555 1_555
H21 C17 1_555 1_555
C18 C17 1_555 1_555
C19 C18 1_555 1_555
H22 C19 1_555 1_555
C20 C19 1_555 1_555
H23 C20 1_555 1_555
C21 C20 1_555 1_555
H24 C21 1_555 1_555
C22 C21 1_555 1_555
H25 C22 1_555 1_555
C23 C18 1_555 1_555
H26 C23 1_555 1_555
C2 C3 1_555 1_555
C7 O5 1_555 1_555
C15 C16 1_555 1_555
C22 C23 1_555 1_555

#END
