
#######################################################################
#
#                 Cambridge Crystallographic Data Centre
#                                CCDC 
#
#######################################################################
#
# If this CIF has been generated from an entry in the Cambridge 
# Structural Database, then it will include bibliographic, chemical, 
# crystal, experimental, refinement or atomic coordinate data resulting 
# from the CCDC's data processing and validation procedures.
#
#######################################################################

data_ASUXIW
_chemical_formula_moiety         'C14 H14 O2 S1'
_chemical_name_systematic        
7,8-Dimethyl-5,10-dihydrothieno[3,4-c][2,5]benzodioxocine
_symmetry_cell_setting           orthorhombic
_symmetry_space_group_name_H-M   'P n a 21'
_symmetry_Int_Tables_number      33
_space_group_name_Hall           'P 2c -2n'
loop_
_symmetry_equiv_pos_site_id
_symmetry_equiv_pos_as_xyz
1 x,y,z
2 -x,-y,1/2+z
3 1/2+x,1/2-y,z
4 1/2-x,1/2+y,1/2+z
_cell_length_a                   15.0735(13)
_cell_length_b                   12.2272(10)
_cell_length_c                   6.6196(6)
_cell_angle_alpha                90
_cell_angle_beta                 90
_cell_angle_gamma                90
_cell_volume                     1220.04
_exptl_crystal_colour            colorless
_exptl_crystal_description       block
_cell_formula_units_Z            4
loop_
_atom_site_label
_atom_site_type_symbol
_atom_site_fract_x
_atom_site_fract_y
_atom_site_fract_z
S1 S -0.12244(5) 0.53796(5) 0.61257(15)
O1 O 0.05656(9) 0.76228(11) 0.6735(2)
O2 O -0.02636(9) 0.76690(11) 0.2745(2)
C1 C 0.18277(13) 1.08571(16) 0.3887(4)
C2 C 0.13088(14) 1.02924(16) 0.5258(3)
H1 H 0.1216 1.0599 0.6527
C3 C 0.09197(13) 0.92894(15) 0.4831(3)
C4 C 0.10569(13) 0.88373(15) 0.2908(3)
C5 C 0.15872(13) 0.93967(15) 0.1559(3)
H2 H 0.1687 0.9088 0.0295
C6 C 0.19808(13) 1.04007(16) 0.1991(3)
C7 C 0.22166(15) 1.19550(18) 0.4456(4)
H3 H 0.2135 1.2078 0.5876
H4 H 0.1923 1.2522 0.3707
H5 H 0.2839 1.1962 0.4146
C8 C 0.25358(17) 1.0975(2) 0.0443(4)
H6 H 0.2536 1.0561 -0.0788
H7 H 0.3133 1.1045 0.0933
H8 H 0.2294 1.1689 0.0192
C9 C 0.03456(14) 0.87631(16) 0.6400(3)
H9 H 0.0408 0.9159 0.7661
H10 H -0.0270 0.8816 0.5982
C10 C 0.06714(14) 0.77504(16) 0.2297(3)
H11 H 0.0760 0.7645 0.0858
H12 H 0.0985 0.7171 0.2998
C11 C -0.00896(14) 0.69058(17) 0.6165(4)
C12 C -0.04164(17) 0.61017(18) 0.7340(4)
H13 H -0.0225 0.5958 0.8649
C13 C -0.11209(16) 0.61545(18) 0.3992(4)
H14 H -0.1461 0.6062 0.2832
C14 C -0.04773(13) 0.69239(17) 0.4212(4)
loop_
_geom_bond_atom_site_label_1
_geom_bond_atom_site_label_2
_geom_bond_site_symmetry_1
_geom_bond_site_symmetry_2
S1 C12 1_555 1_555
O1 C9 1_555 1_555
O2 C10 1_555 1_555
C1 C2 1_555 1_555
C2 H1 1_555 1_555
C3 C2 1_555 1_555
C4 C3 1_555 1_555
C5 C4 1_555 1_555
H2 C5 1_555 1_555
C6 C1 1_555 1_555
C7 C1 1_555 1_555
H3 C7 1_555 1_555
H4 C7 1_555 1_555
H5 C7 1_555 1_555
C8 C6 1_555 1_555
H6 C8 1_555 1_555
H7 C8 1_555 1_555
H8 C8 1_555 1_555
C9 C3 1_555 1_555
H9 C9 1_555 1_555
H10 C9 1_555 1_555
C10 C4 1_555 1_555
H11 C10 1_555 1_555
H12 C10 1_555 1_555
C11 O1 1_555 1_555
C12 C11 1_555 1_555
H13 C12 1_555 1_555
C13 S1 1_555 1_555
H14 C13 1_555 1_555
C14 O2 1_555 1_555
C5 C6 1_555 1_555
C11 C14 1_555 1_555
C13 C14 1_555 1_555

#END
