
#######################################################################
#
#                 Cambridge Crystallographic Data Centre
#                                CCDC 
#
#######################################################################
#
# If this CIF has been generated from an entry in the Cambridge 
# Structural Database, then it will include bibliographic, chemical, 
# crystal, experimental, refinement or atomic coordinate data resulting 
# from the CCDC's data processing and validation procedures.
#
#######################################################################

data_ATABEC
_chemical_formula_moiety         'C20 H23 N1 O3'
_chemical_name_systematic        
'Benzyl (10-oxo-octahydro-1,6;2,5-dimethanonaphthalen-1(2H)-yl)carbamate'
_symmetry_cell_setting           triclinic
_symmetry_space_group_name_H-M   'P -1'
_symmetry_Int_Tables_number      2
_space_group_name_Hall           '-P 1'
loop_
_symmetry_equiv_pos_site_id
_symmetry_equiv_pos_as_xyz
1 x,y,z
2 -x,-y,-z
_cell_length_a                   10.8897(6)
_cell_length_b                   11.2357(7)
_cell_length_c                   14.5219(7)
_cell_angle_alpha                87.165(3)
_cell_angle_beta                 88.942(4)
_cell_angle_gamma                72.283(3)
_cell_volume                     1690.45
_exptl_crystal_colour            colorless
_chemical_melting_point          136-137deg.C
_cell_formula_units_Z            4
_exptl_crystal_recrystallization_method 'diethyl ether/pentane'
loop_
_atom_site_label
_atom_site_type_symbol
_atom_site_fract_x
_atom_site_fract_y
_atom_site_fract_z
O1 O 0.6140(2) -0.5072(2) 0.2846(2)
O2 O 0.3413(3) -0.1199(2) 0.4068(2)
N1 N 0.4196(3) -0.0663(2) 0.2697(2)
H1 H 0.4291(3) -0.0016(2) 0.2369(2)
C1 C 0.5750(3) -0.4093(3) 0.2395(2)
C2 C 0.5300(3) -0.3917(3) 0.1421(2)
H2 H 0.5591(3) -0.4713(3) 0.1087(2)
O3 O 0.3657(3) 0.0707(2) 0.37868(15)
C3 C 0.5806(3) -0.2895(3) 0.0966(2)
H3 H 0.5844(3) -0.2960(3) 0.0281(2)
C4 C 0.7122(3) -0.2981(4) 0.1339(2)
H4 H 0.7502(3) -0.2418(4) 0.0967(2)
H5 H 0.7705(3) -0.3847(4) 0.1306(2)
C5 C 0.6962(3) -0.2594(4) 0.2351(2)
H6 H 0.7714(3) -0.3095(4) 0.2719(2)
H7 H 0.6898(3) -0.1699(4) 0.2383(2)
C6 C 0.5732(3) -0.2823(3) 0.2728(2)
H8 H 0.5685(3) -0.2803(3) 0.3415(2)
C7 C 0.4552(3) -0.1869(3) 0.2270(2)
C8 C 0.3467(3) -0.2523(3) 0.2298(2)
H9 H 0.3484(3) -0.3005(3) 0.2889(2)
H10 H 0.2606(3) -0.1898(3) 0.2221(2)
C9 C 0.3774(3) -0.3393(3) 0.1492(2)
H11 H 0.3386(3) -0.4090(3) 0.1591(2)
C10 C 0.3263(4) -0.2616(4) 0.0615(3)
H12 H 0.2314(4) -0.2421(4) 0.0586(3)
H13 H 0.3644(4) -0.3086(4) 0.0067(3)
C11 C 0.3632(4) -0.1399(4) 0.0628(3)
H14 H 0.3822(4) -0.1134(4) -0.0005(3)
H15 H 0.2913(4) -0.0723(4) 0.0881(3)
C12 C 0.4815(3) -0.1658(3) 0.1230(2)
H16 H 0.5202(3) -0.0959(3) 0.1142(2)
C13 C 0.3734(3) -0.0477(3) 0.3558(2)
C14 C 0.3199(4) 0.1060(3) 0.4699(2)
H17 H 0.3801(4) 0.0536(3) 0.5167(2)
H18 H 0.2341(4) 0.0945(3) 0.4803(2)
C15 C 0.3117(3) 0.2400(3) 0.4771(2)
C16 C 0.2029(4) 0.3233(3) 0.5141(2)
H19 H 0.1334(4) 0.2943(3) 0.5349(2)
C17 C 0.1938(4) 0.4481(4) 0.5213(3)
H20 H 0.1195(4) 0.5038(4) 0.5481(3)
C18 C 0.2935(5) 0.4912(4) 0.4892(3)
H21 H 0.2869(5) 0.5771(4) 0.4924(3)
C19 C 0.4015(4) 0.4100(4) 0.4528(3)
H22 H 0.4703(4) 0.4397(4) 0.4314(3)
C20 C 0.4116(4) 0.2855(4) 0.4469(2)
H23 H 0.4875(4) 0.2301(4) 0.4219(2)
O4 O 0.9376(3) -0.1240(3) 0.3554(2)
O5 O 0.5565(2) 0.1000(2) 0.1877(2)
N2 N 0.6564(2) 0.2464(2) 0.2150(2)
H24 H 0.6443(2) 0.3275(2) 0.2152(2)
C21 C 0.9205(4) -0.0161(3) 0.3249(3)
C22 C 1.0181(3) 0.0290(3) 0.2729(2)
H25 H 1.1083(3) -0.0229(3) 0.2879(2)
O6 O 0.4469(2) 0.3063(2) 0.1891(2)
C23 C 0.9909(3) 0.1666(3) 0.2982(3)
H26 H 1.0688(3) 0.1953(3) 0.2885(3)
C24 C 0.9424(4) 0.1797(5) 0.4008(3)
H27 H 1.0014(4) 0.1140(5) 0.4409(3)
H28 H 0.9409(4) 0.2623(5) 0.4224(3)
C25 C 0.8096(4) 0.1667(4) 0.4059(3)
H29 H 0.7445(4) 0.2502(4) 0.3996(3)
H30 H 0.7965(4) 0.1273(4) 0.4662(3)
C26 C 0.7936(3) 0.0825(3) 0.3248(2)
H31 H 0.7191(3) 0.0486(3) 0.3341(2)
C27 C 0.7862(3) 0.1624(3) 0.2335(2)
C28 C 0.8411(3) 0.0696(4) 0.1577(2)
H32 H 0.8070(3) -0.0026(4) 0.1645(2)
H33 H 0.8173(3) 0.1109(4) 0.0959(2)
C29 C 0.9857(4) 0.0270(4) 0.1692(3)
H34 H 1.0272(4) -0.0566(4) 0.1432(3)
C30 C 1.0301(4) 0.1363(5) 0.1163(3)
H35 H 1.1185(4) 0.1314(5) 0.1349(3)
H36 H 1.0295(4) 0.1275(5) 0.0488(3)
C31 C 0.9379(4) 0.2581(4) 0.1412(3)
H37 H 0.8678(4) 0.2855(4) 0.0952(3)
H38 H 0.9829(4) 0.3225(4) 0.1417(3)
C32 C 0.8802(3) 0.2425(3) 0.2390(3)
H39 H 0.8366(3) 0.3254(3) 0.2654(3)
C33 C 0.5545(3) 0.2073(3) 0.1976(2)
C34 C 0.3262(3) 0.2764(3) 0.1812(3)
H40 H 0.3151(3) 0.2219(3) 0.2343(3)
H41 H 0.3255(3) 0.2327(3) 0.1237(3)
C35 C 0.2211(3) 0.3984(3) 0.1797(2)
C36 C 0.1674(3) 0.4588(4) 0.0981(2)
H42 H 0.1948(3) 0.4203(4) 0.0414(2)
C37 C 0.0745(3) 0.5745(4) 0.0979(3)
H43 H 0.0371(3) 0.6143(4) 0.0415(3)
C38 C 0.0366(4) 0.6316(4) 0.1792(3)
H44 H -0.0252(4) 0.7122(4) 0.1788(3)
C39 C 0.0869(4) 0.5734(4) 0.2612(3)
H45 H 0.0598(4) 0.6129(4) 0.3176(3)
C40 C 0.1776(3) 0.4565(4) 0.2611(3)
H46 H 0.2107(3) 0.4152(4) 0.3182(3)
loop_
_geom_bond_atom_site_label_1
_geom_bond_atom_site_label_2
_geom_bond_site_symmetry_1
_geom_bond_site_symmetry_2
O1 C1 1_555 1_555
O2 C13 1_555 1_555
N1 H1 1_555 1_555
C1 C2 1_555 1_555
C2 H2 1_555 1_555
O3 C13 1_555 1_555
C3 C2 1_555 1_555
H3 C3 1_555 1_555
C4 C3 1_555 1_555
H4 C4 1_555 1_555
H5 C4 1_555 1_555
C5 C4 1_555 1_555
H6 C5 1_555 1_555
H7 C5 1_555 1_555
C6 C1 1_555 1_555
H8 C6 1_555 1_555
C7 N1 1_555 1_555
C8 C7 1_555 1_555
H9 C8 1_555 1_555
H10 C8 1_555 1_555
C9 C2 1_555 1_555
H11 C9 1_555 1_555
C10 C9 1_555 1_555
H12 C10 1_555 1_555
H13 C10 1_555 1_555
C11 C10 1_555 1_555
H14 C11 1_555 1_555
H15 C11 1_555 1_555
C12 C3 1_555 1_555
H16 C12 1_555 1_555
C13 N1 1_555 1_555
C14 O3 1_555 1_555
H17 C14 1_555 1_555
H18 C14 1_555 1_555
C15 C14 1_555 1_555
C16 C15 1_555 1_555
H19 C16 1_555 1_555
C17 C16 1_555 1_555
H20 C17 1_555 1_555
C18 C17 1_555 1_555
H21 C18 1_555 1_555
C19 C18 1_555 1_555
H22 C19 1_555 1_555
C20 C15 1_555 1_555
H23 C20 1_555 1_555
O4 C21 1_555 1_555
O5 C33 1_555 1_555
N2 H24 1_555 1_555
C21 C22 1_555 1_555
C22 H25 1_555 1_555
O6 C33 1_555 1_555
C23 C22 1_555 1_555
H26 C23 1_555 1_555
C24 C23 1_555 1_555
H27 C24 1_555 1_555
H28 C24 1_555 1_555
C25 C24 1_555 1_555
H29 C25 1_555 1_555
H30 C25 1_555 1_555
C26 C21 1_555 1_555
H31 C26 1_555 1_555
C27 N2 1_555 1_555
C28 C27 1_555 1_555
H32 C28 1_555 1_555
H33 C28 1_555 1_555
C29 C22 1_555 1_555
H34 C29 1_555 1_555
C30 C29 1_555 1_555
H35 C30 1_555 1_555
H36 C30 1_555 1_555
C31 C30 1_555 1_555
H37 C31 1_555 1_555
H38 C31 1_555 1_555
C32 C23 1_555 1_555
H39 C32 1_555 1_555
C33 N2 1_555 1_555
C34 O6 1_555 1_555
H40 C34 1_555 1_555
H41 C34 1_555 1_555
C35 C34 1_555 1_555
C36 C35 1_555 1_555
H42 C36 1_555 1_555
C37 C36 1_555 1_555
H43 C37 1_555 1_555
C38 C37 1_555 1_555
H44 C38 1_555 1_555
C39 C38 1_555 1_555
H45 C39 1_555 1_555
C40 C35 1_555 1_555
H46 C40 1_555 1_555
C5 C6 1_555 1_555
C6 C7 1_555 1_555
C7 C12 1_555 1_555
C8 C9 1_555 1_555
C11 C12 1_555 1_555
C19 C20 1_555 1_555
C25 C26 1_555 1_555
C26 C27 1_555 1_555
C27 C32 1_555 1_555
C28 C29 1_555 1_555
C31 C32 1_555 1_555
C39 C40 1_555 1_555

#END
