
#######################################################################
#
#                 Cambridge Crystallographic Data Centre
#                                CCDC 
#
#######################################################################
#
# If this CIF has been generated from an entry in the Cambridge 
# Structural Database, then it will include bibliographic, chemical, 
# crystal, experimental, refinement or atomic coordinate data resulting 
# from the CCDC's data processing and validation procedures.
#
#######################################################################

data_ATADUW
_chemical_formula_moiety         'C11 H12 O4'
_chemical_name_systematic        '5-acetyl-2-hydroxy-4-methylphenyl acetate'
_symmetry_cell_setting           orthorhombic
_symmetry_space_group_name_H-M   'P n a 21'
_symmetry_Int_Tables_number      33
_space_group_name_Hall           'P 2c -2n'
loop_
_symmetry_equiv_pos_site_id
_symmetry_equiv_pos_as_xyz
1 x,y,z
2 -x,-y,1/2+z
3 1/2+x,1/2-y,z
4 1/2-x,1/2+y,1/2+z
_cell_length_a                   15.193(7)
_cell_length_b                   4.048(2)
_cell_length_c                   16.730(8)
_cell_angle_alpha                90
_cell_angle_beta                 90
_cell_angle_gamma                90
_cell_volume                     1028.92
_exptl_crystal_colour            colorless
_exptl_crystal_description       block
_cell_formula_units_Z            4
loop_
_atom_site_label
_atom_site_type_symbol
_atom_site_fract_x
_atom_site_fract_y
_atom_site_fract_z
C1 C 0.28654(13) 0.4638(5) 0.53994(13)
C2 C 0.20823(13) 0.3079(5) 0.55931(11)
C3 C 0.19668(13) 0.1673(6) 0.63261(12)
H1 H 0.1441 0.0591 0.6438
C4 C 0.26210(13) 0.1817(5) 0.69152(11)
C5 C 0.34299(13) 0.3384(5) 0.67271(13)
C6 C 0.35298(13) 0.4730(6) 0.59699(12)
H2 H 0.4061 0.5732 0.5839
C7 C 0.41951(16) 0.3658(7) 0.72948(15)
H3 H 0.4661 0.4883 0.7045
H4 H 0.4402 0.1488 0.7430
H5 H 0.4010 0.4780 0.7772
C8 C 0.24269(13) 0.0411(6) 0.77135(12)
C9 C 0.15705(16) -0.1335(7) 0.78521(14)
H6 H 0.1609 -0.2623 0.8333
H7 H 0.1447 -0.2763 0.7408
H8 H 0.1107 0.0262 0.7905
C10 C 0.06676(13) 0.4453(6) 0.51015(13)
C11 C 0.00741(16) 0.3969(7) 0.43999(15)
H9 H -0.0398 0.5544 0.4422
H10 H -0.0163 0.1772 0.4411
H11 H 0.0402 0.4281 0.3915
O1 O 0.29382(10) 0.0737(6) 0.82770(10)
O2 O 0.30223(11) 0.6055(5) 0.46789(10)
H12 H 0.2614 0.5643 0.4374
O3 O 0.14430(9) 0.2850(4) 0.49877(9)
O4 O 0.05065(11) 0.5997(5) 0.56920(11)
loop_
_geom_bond_atom_site_label_1
_geom_bond_atom_site_label_2
_geom_bond_site_symmetry_1
_geom_bond_site_symmetry_2
C1 C2 1_555 1_555
C2 C3 1_555 1_555
C3 H1 1_555 1_555
C4 C3 1_555 1_555
C5 C4 1_555 1_555
C6 C1 1_555 1_555
H2 C6 1_555 1_555
C7 C5 1_555 1_555
H3 C7 1_555 1_555
H4 C7 1_555 1_555
H5 C7 1_555 1_555
C8 C4 1_555 1_555
C9 C8 1_555 1_555
H6 C9 1_555 1_555
H7 C9 1_555 1_555
H8 C9 1_555 1_555
C10 C11 1_555 1_555
C11 H9 1_555 1_555
H10 C11 1_555 1_555
H11 C11 1_555 1_555
O1 C8 1_555 1_555
O2 C1 1_555 1_555
H12 O2 1_555 1_555
O3 C2 1_555 1_555
O4 C10 1_555 1_555
C5 C6 1_555 1_555
C10 O3 1_555 1_555

#END
