
#######################################################################
#
#                 Cambridge Crystallographic Data Centre
#                                CCDC 
#
#######################################################################
#
# If this CIF has been generated from an entry in the Cambridge 
# Structural Database, then it will include bibliographic, chemical, 
# crystal, experimental, refinement or atomic coordinate data resulting 
# from the CCDC's data processing and validation procedures.
#
#######################################################################

data_ATAHOT
_chemical_formula_moiety         'C23 H19 N1 O3 S1'
_chemical_name_systematic        
N-((1-Hydroxy-2-naphthyl)(phenyl)methyl)benzenesulfonamide
_symmetry_cell_setting           monoclinic
_symmetry_space_group_name_H-M   'P 21'
_symmetry_Int_Tables_number      4
_space_group_name_Hall           'P 2yb'
loop_
_symmetry_equiv_pos_site_id
_symmetry_equiv_pos_as_xyz
1 x,y,z
2 -x,1/2+y,-z
_cell_length_a                   9.4752(3)
_cell_length_b                   7.9303(3)
_cell_length_c                   12.8200(5)
_cell_angle_alpha                90
_cell_angle_beta                 102.7820(10)
_cell_angle_gamma                90
_cell_volume                     939.438
_exptl_crystal_colour            colorless
_exptl_crystal_description       triangular
_cell_formula_units_Z            2
loop_
_atom_site_label
_atom_site_type_symbol
_atom_site_fract_x
_atom_site_fract_y
_atom_site_fract_z
S1 S 0.22505(3) 0.44087(4) 0.06559(2)
N1 N 0.17552(11) 0.26371(13) 0.00161(8)
H1 H 0.092(2) 0.234(3) 0.0047(15)
O1 O 0.20896(13) 0.26975(12) -0.20850(8)
H2 H 0.199(3) 0.308(4) -0.150(2)
O2 O 0.35361(11) 0.49260(13) 0.03334(8)
O3 O 0.09818(11) 0.54517(13) 0.04190(8)
C1 C 0.21543(13) 0.09867(15) -0.19591(9)
C2 C 0.19439(12) 0.00258(16) -0.29171(9)
C3 C 0.16978(14) 0.07988(17) -0.39404(10)
H3 H 0.1669 0.1981 -0.3996
C4 C 0.15024(15) -0.01674(19) -0.48495(10)
H4 H 0.1350 0.0358 -0.5523
C5 C 0.15290(15) -0.1931(2) -0.47813(10)
H5 H 0.1391 -0.2580 -0.5409
C6 C 0.17540(15) -0.27152(18) -0.38105(11)
H6 H 0.1765 -0.3899 -0.3778
C7 C 0.19715(13) -0.17631(16) -0.28494(9)
C8 C 0.22195(16) -0.25320(16) -0.18325(10)
H7 H 0.2224 -0.3714 -0.1778
C9 C 0.24537(17) -0.15681(16) -0.09232(10)
H8 H 0.2631 -0.2106 -0.0253
C10 C 0.24361(13) 0.02134(15) -0.09660(9)
C11 C 0.28292(12) 0.12486(15) 0.00674(8)
H9 H 0.3774 0.1788 0.0076
C12 C 0.30241(13) 0.02033(15) 0.10835(9)
C13 C 0.43962(14) -0.0362(2) 0.15688(11)
H10 H 0.5191 -0.0080 0.1276
C14 C 0.46003(18) -0.1351(3) 0.24925(12)
H11 H 0.5531 -0.1745 0.2812
C15 C 0.34484(19) -0.1751(2) 0.29365(11)
H12 H 0.3593 -0.2394 0.3567
C16 C 0.20755(17) -0.1202(2) 0.24479(11)
H13 H 0.1282 -0.1490 0.2741
C17 C 0.18639(14) -0.02282(18) 0.15286(10)
H14 H 0.0928 0.0143 0.1204
C18 C 0.26985(11) 0.40674(15) 0.20454(9)
C19 C 0.15992(13) 0.40718(18) 0.25993(10)
H15 H 0.0630 0.4210 0.2235
C20 C 0.19512(15) 0.3869(2) 0.36992(11)
H16 H 0.1218 0.3881 0.4088
C21 C 0.33831(18) 0.3646(3) 0.42289(11)
H17 H 0.3618 0.3500 0.4975
C22 C 0.44659(16) 0.3639(3) 0.36601(12)
H18 H 0.5434 0.3490 0.4023
C23 C 0.41351(13) 0.3851(2) 0.25619(11)
H19 H 0.4869 0.3849 0.2174
loop_
_geom_bond_atom_site_label_1
_geom_bond_atom_site_label_2
_geom_bond_site_symmetry_1
_geom_bond_site_symmetry_2
S1 N1 1_555 1_555
N1 H1 1_555 1_555
O1 H2 1_555 1_555
O2 S1 1_555 1_555
O3 S1 1_555 1_555
C1 O1 1_555 1_555
C2 C1 1_555 1_555
C3 C2 1_555 1_555
H3 C3 1_555 1_555
C4 C3 1_555 1_555
H4 C4 1_555 1_555
C5 C4 1_555 1_555
H5 C5 1_555 1_555
C6 C5 1_555 1_555
H6 C6 1_555 1_555
C7 C2 1_555 1_555
C8 C7 1_555 1_555
H7 C8 1_555 1_555
C9 C8 1_555 1_555
H8 C9 1_555 1_555
C10 C1 1_555 1_555
C11 N1 1_555 1_555
H9 C11 1_555 1_555
C12 C11 1_555 1_555
C13 C12 1_555 1_555
H10 C13 1_555 1_555
C14 C13 1_555 1_555
H11 C14 1_555 1_555
C15 C14 1_555 1_555
H12 C15 1_555 1_555
C16 C15 1_555 1_555
H13 C16 1_555 1_555
C17 C12 1_555 1_555
H14 C17 1_555 1_555
C18 S1 1_555 1_555
C19 C18 1_555 1_555
H15 C19 1_555 1_555
C20 C19 1_555 1_555
H16 C20 1_555 1_555
C21 C20 1_555 1_555
H17 C21 1_555 1_555
C22 C21 1_555 1_555
H18 C22 1_555 1_555
C23 C18 1_555 1_555
H19 C23 1_555 1_555
C6 C7 1_555 1_555
C9 C10 1_555 1_555
C10 C11 1_555 1_555
C16 C17 1_555 1_555
C22 C23 1_555 1_555

#END
