
#######################################################################
#
#                 Cambridge Crystallographic Data Centre
#                                CCDC 
#
#######################################################################
#
# If this CIF has been generated from an entry in the Cambridge 
# Structural Database, then it will include bibliographic, chemical, 
# crystal, experimental, refinement or atomic coordinate data resulting 
# from the CCDC's data processing and validation procedures.
#
#######################################################################

data_ATALIS
_chemical_formula_moiety         'C26 H33 N1 O5 S1'
_chemical_name_systematic        
1-(5-acetyl-5-hydroxy-3-((4-methylphenyl)sulfonyl)-1,2,3,4,5,6-hexahydro-3-benzazocin-6-yl)-3,3-dimethylbutan-2-one
_symmetry_cell_setting           monoclinic
_symmetry_space_group_name_H-M   'P 21/c'
_symmetry_Int_Tables_number      14
_space_group_name_Hall           '-P 2ybc'
loop_
_symmetry_equiv_pos_site_id
_symmetry_equiv_pos_as_xyz
1 x,y,z
2 -x,1/2+y,1/2-z
3 -x,-y,-z
4 x,1/2-y,1/2+z
_cell_length_a                   11.0331(6)
_cell_length_b                   30.051(2)
_cell_length_c                   15.6973(9)
_cell_angle_alpha                90
_cell_angle_beta                 97.643(6)
_cell_angle_gamma                90
_cell_volume                     5158.29
_exptl_crystal_colour            colorless
_exptl_crystal_description       needle
_chemical_melting_point          '453-456 K'
_cell_formula_units_Z            8
_exptl_crystal_recrystallization_method 'Solvent evaporation'
loop_
_atom_site_label
_atom_site_type_symbol
_atom_site_fract_x
_atom_site_fract_y
_atom_site_fract_z
S1 S 0.56163(12) 0.32008(5) 1.02885(9)
O1 O 0.6697(3) 0.40766(12) 0.9078(2)
H1 H 0.6134 0.3959 0.9287
O2 O 0.9300(3) 0.43408(13) 1.0461(2)
O3 O 0.8337(4) 0.31199(14) 0.7437(2)
O4 O 0.5031(3) 0.35887(12) 0.9873(2)
O5 O 0.5197(3) 0.27665(13) 1.0019(2)
N1 N 0.7062(3) 0.32334(14) 1.0162(3)
C1 C 0.7667(4) 0.36724(16) 1.0342(3)
H2 H 0.8458 0.3626 1.0680
H3 H 0.7177 0.3851 1.0682
C2 C 0.7843(4) 0.39278(17) 0.9530(3)
C3 C 0.8463(4) 0.36296(16) 0.8901(3)
H4 H 0.7911 0.3375 0.8778
C4 C 0.9672(4) 0.34287(18) 0.9308(3)
C5 C 0.9719(4) 0.30017(19) 0.9629(3)
C6 C 0.8600(4) 0.27159(17) 0.9641(3)
H5 H 0.8857 0.2408 0.9710
H6 H 0.8096 0.2741 0.9087
C7 C 0.7814(4) 0.28292(18) 1.0344(4)
H7 H 0.7278 0.2580 1.0415
H8 H 0.8344 0.2870 1.0883
C8 C 1.0765(5) 0.36718(18) 0.9327(3)
H9 H 1.0749 0.3959 0.9106
C9 C 1.1860(5) 0.3483(2) 0.9675(4)
H10 H 1.2582 0.3644 0.9684
C10 C 1.1892(5) 0.3058(3) 1.0010(4)
H11 H 1.2633 0.2936 1.0250
C11 C 1.0835(5) 0.2817(2) 0.9989(3)
H12 H 1.0859 0.2531 1.0215
C12 C 0.8625(4) 0.3501(2) 0.7336(3)
C13 C 0.9048(5) 0.3652(2) 0.6493(4)
C14 C 0.8423(5) 0.47567(17) 0.9266(3)
H13 H 0.8901 0.4994 0.9548
H14 H 0.7575 0.4839 0.9185
H15 H 0.8686 0.4700 0.8717
C15 C 0.5505(5) 0.3250(2) 1.1392(4)
C16 C 0.5899(5) 0.2909(2) 1.1940(4)
H16 H 0.6221 0.2651 1.1729
C17 C 0.5813(6) 0.2951(3) 1.2810(4)
H17 H 0.6078 0.2718 1.3178
C18 C 0.5348(7) 0.3325(3) 1.3140(4)
C19 C 0.4982(6) 0.3667(3) 1.2580(4)
H18 H 0.4671 0.3926 1.2792
C20 C 0.5063(6) 0.3636(2) 1.1706(4)
H19 H 0.4822 0.3872 1.1340
C21 C 0.5207(8) 0.3358(3) 1.4083(4)
H20 H 0.5936 0.3482 1.4394
H21 H 0.5071 0.3066 1.4303
H22 H 0.4522 0.3545 1.4152
C22 C 0.8592(5) 0.43443(19) 0.9809(3)
C23 C 0.8549(4) 0.38401(17) 0.8029(3)
H23 H 0.7838 0.4027 0.7870
H24 H 0.9268 0.4029 0.8074
C24 C 0.8220(11) 0.4071(4) 0.6205(7)
H25 H 0.7378 0.3981 0.6097
H26 H 0.8464 0.4195 0.5690
H27 H 0.8316 0.4291 0.6653
C25 C 1.0373(11) 0.3782(6) 0.6720(9)
H28 H 1.0426 0.4051 0.7055
H29 H 1.0730 0.3831 0.6203
H30 H 1.0806 0.3548 0.7047
C26 C 0.8860(15) 0.3277(5) 0.5899(10)
H31 H 0.9236 0.3015 0.6168
H32 H 0.9220 0.3343 0.5389
H33 H 0.7999 0.3225 0.5748
S2 S 1.01830(11) 0.46628(5) 0.32652(9)
O6 O 0.8413(3) 0.53616(11) 0.1773(2)
H43 H 0.9076 0.5261 0.1984
O7 O 0.6994(4) 0.60218(14) 0.3973(3)
O8 O 0.6066(3) 0.46505(14) 0.1120(2)
O9 O 1.0442(3) 0.49037(12) 0.2516(2)
O10 O 1.0719(3) 0.48051(13) 0.4104(2)
N2 N 0.8694(3) 0.46899(13) 0.3246(2)
C30 C 0.8210(4) 0.45216(19) 0.4013(3)
H44 H 0.8888 0.4466 0.4460
H45 H 0.7802 0.4240 0.3873
C31 C 0.7315(4) 0.48373(18) 0.4361(3)
H46 H 0.7214 0.4742 0.4938
H47 H 0.7681 0.5131 0.4407
C32 C 0.6059(4) 0.48761(16) 0.3844(3)
C33 C 0.5086(4) 0.46581(18) 0.4154(3)
H48 H 0.5226 0.4496 0.4663
C34 C 0.3910(5) 0.4681(2) 0.3709(4)
H49 H 0.3268 0.4534 0.3916
C35 C 0.3705(5) 0.4921(2) 0.2966(4)
H50 H 0.2920 0.4934 0.2666
C36 C 0.4652(4) 0.51471(19) 0.2649(4)
H51 H 0.4496 0.5313 0.2147
C37 C 0.5840(4) 0.51233(17) 0.3090(3)
C38 C 0.6878(4) 0.53651(17) 0.2738(3)
H52 H 0.7529 0.5384 0.3226
C39 C 0.7444(4) 0.50987(16) 0.2050(3)
C40 C 0.7920(4) 0.46511(16) 0.2406(3)
H53 H 0.7230 0.4459 0.2468
H54 H 0.8390 0.4512 0.1998
C41 C 0.6564(4) 0.58477(17) 0.2500(3)
H55 H 0.7152 0.5960 0.2144
H56 H 0.5763 0.5858 0.2161
C42 C 0.6565(5) 0.61484(19) 0.3267(4)
C43 C 0.5985(5) 0.6606(2) 0.3142(4)
C44 C 0.6198(6) 0.6805(2) 0.2279(4)
H57 H 0.5930 0.7109 0.2249
H58 H 0.5745 0.6638 0.1822
H59 H 0.7054 0.6793 0.2225
C45 C 0.6527(5) 0.6918(2) 0.3864(4)
H60 H 0.6398 0.6794 0.4408
H61 H 0.6135 0.7203 0.3791
H62 H 0.7388 0.6951 0.3845
C46 C 0.4625(5) 0.6546(2) 0.3187(6)
H63 H 0.4514 0.6408 0.3722
H64 H 0.4275 0.6361 0.2719
H65 H 0.4229 0.6831 0.3147
C47 C 0.6541(5) 0.5009(2) 0.1225(3)
C48 C 0.6313(5) 0.53729(19) 0.0575(3)
H66 H 0.5884 0.5255 0.0051
H67 H 0.7080 0.5496 0.0464
H68 H 0.5829 0.5602 0.0791
C49 C 1.0610(4) 0.41113(19) 0.3131(4)
C50 C 1.0614(5) 0.3944(2) 0.2317(4)
H69 H 1.0410 0.4123 0.1837
C51 C 1.0928(7) 0.3502(3) 0.2225(5)
H70 H 1.0949 0.3387 0.1677
C52 C 1.1210(8) 0.3228(3) 0.2925(6)
C53 C 1.1213(8) 0.3403(3) 0.3738(5)
H71 H 1.1415 0.3223 0.4217
C54 C 1.0917(5) 0.3844(2) 0.3844(4)
H72 H 1.0923 0.3961 0.4394
C55 C 1.1537(10) 0.2728(3) 0.2806(6)
H73 H 1.0813 0.2550 0.2793
H74 H 1.2129 0.2634 0.3276
H75 H 1.1871 0.2692 0.2276
C27? C 0.9434(18) 0.4114(5) 0.6399(8)
H34? H 0.8787 0.4311 0.6508
H35? H 0.9618 0.4161 0.5825
H36? H 1.0149 0.4173 0.6802
C28? C 1.0255(16) 0.3348(7) 0.6421(12)
H37? H 1.0758 0.3339 0.6969
H38? H 1.0712 0.3475 0.6001
H39? H 1.0007 0.3051 0.6250
C29? C 0.8215(15) 0.3497(6) 0.5712(11)
H40? H 0.7919 0.3204 0.5813
H41? H 0.8658 0.3490 0.5226
H42? H 0.7536 0.3698 0.5599
loop_
_geom_bond_atom_site_label_1
_geom_bond_atom_site_label_2
_geom_bond_site_symmetry_1
_geom_bond_site_symmetry_2
S1 O4 1_555 1_555
O1 H1 1_555 1_555
O2 C22 1_555 1_555
O3 C12 1_555 1_555
O5 S1 1_555 1_555
N1 S1 1_555 1_555
C1 N1 1_555 1_555
H2 C1 1_555 1_555
H3 C1 1_555 1_555
C2 O1 1_555 1_555
C3 C2 1_555 1_555
H4 C3 1_555 1_555
C4 C3 1_555 1_555
C5 C4 1_555 1_555
C6 C5 1_555 1_555
H5 C6 1_555 1_555
H6 C6 1_555 1_555
C7 N1 1_555 1_555
H7 C7 1_555 1_555
H8 C7 1_555 1_555
C8 C4 1_555 1_555
H9 C8 1_555 1_555
C9 C8 1_555 1_555
H10 C9 1_555 1_555
C10 C9 1_555 1_555
H11 C10 1_555 1_555
C11 C5 1_555 1_555
H12 C11 1_555 1_555
C12 C13 1_555 1_555
C13 C24 1_555 1_555
C14 H13 1_555 1_555
H14 C14 1_555 1_555
H15 C14 1_555 1_555
C15 S1 1_555 1_555
C16 C15 1_555 1_555
H16 C16 1_555 1_555
C17 C16 1_555 1_555
H17 C17 1_555 1_555
C18 C17 1_555 1_555
C19 C18 1_555 1_555
H18 C19 1_555 1_555
C20 C15 1_555 1_555
H19 C20 1_555 1_555
C21 C18 1_555 1_555
H20 C21 1_555 1_555
H21 C21 1_555 1_555
H22 C21 1_555 1_555
C22 C2 1_555 1_555
C23 C3 1_555 1_555
H23 C23 1_555 1_555
H24 C23 1_555 1_555
C24 H25 1_555 1_555
H26 C24 1_555 1_555
H27 C24 1_555 1_555
C25 C13 1_555 1_555
H28 C25 1_555 1_555
H29 C25 1_555 1_555
H30 C25 1_555 1_555
C26 C13 1_555 1_555
H31 C26 1_555 1_555
H32 C26 1_555 1_555
H33 C26 1_555 1_555
S2 O9 1_555 1_555
O6 H43 1_555 1_555
O7 C42 1_555 1_555
O8 C47 1_555 1_555
O10 S2 1_555 1_555
N2 S2 1_555 1_555
C30 N2 1_555 1_555
H44 C30 1_555 1_555
H45 C30 1_555 1_555
C31 C30 1_555 1_555
H46 C31 1_555 1_555
H47 C31 1_555 1_555
C32 C31 1_555 1_555
C33 C32 1_555 1_555
H48 C33 1_555 1_555
C34 C33 1_555 1_555
H49 C34 1_555 1_555
C35 C34 1_555 1_555
H50 C35 1_555 1_555
C36 C35 1_555 1_555
H51 C36 1_555 1_555
C37 C32 1_555 1_555
C38 C37 1_555 1_555
H52 C38 1_555 1_555
C39 O6 1_555 1_555
C40 N2 1_555 1_555
H53 C40 1_555 1_555
H54 C40 1_555 1_555
C41 C38 1_555 1_555
H55 C41 1_555 1_555
H56 C41 1_555 1_555
C42 C41 1_555 1_555
C43 C42 1_555 1_555
C44 C43 1_555 1_555
H57 C44 1_555 1_555
H58 C44 1_555 1_555
H59 C44 1_555 1_555
C45 C43 1_555 1_555
H60 C45 1_555 1_555
H61 C45 1_555 1_555
H62 C45 1_555 1_555
C46 C43 1_555 1_555
H63 C46 1_555 1_555
H64 C46 1_555 1_555
H65 C46 1_555 1_555
C47 C39 1_555 1_555
C48 C47 1_555 1_555
H66 C48 1_555 1_555
H67 C48 1_555 1_555
H68 C48 1_555 1_555
C49 S2 1_555 1_555
C50 C49 1_555 1_555
H69 C50 1_555 1_555
C51 C50 1_555 1_555
H70 C51 1_555 1_555
C52 C51 1_555 1_555
C53 C52 1_555 1_555
H71 C53 1_555 1_555
C54 C49 1_555 1_555
H72 C54 1_555 1_555
C55 C52 1_555 1_555
H73 C55 1_555 1_555
H74 C55 1_555 1_555
H75 C55 1_555 1_555
C1 C2 1_555 1_555
C6 C7 1_555 1_555
C10 C11 1_555 1_555
C12 C23 1_555 1_555
C14 C22 1_555 1_555
C19 C20 1_555 1_555
C36 C37 1_555 1_555
C38 C39 1_555 1_555
C39 C40 1_555 1_555
C53 C54 1_555 1_555

#END
