
#######################################################################
#
#                 Cambridge Crystallographic Data Centre
#                                CCDC 
#
#######################################################################
#
# If this CIF has been generated from an entry in the Cambridge 
# Structural Database, then it will include bibliographic, chemical, 
# crystal, experimental, refinement or atomic coordinate data resulting 
# from the CCDC's data processing and validation procedures.
#
#######################################################################

data_ATALUE
_chemical_formula_moiety         'C26 H30 F1 N1 O4 S1'
_chemical_name_systematic        
1-(2-t-butyl-9-fluoro-5-((4-methylphenyl)sulfonyl)-5,6,7,11b-tetrahydrofuro[2,3-e][3]benzazocin-3a(4H)-yl)ethanone
_symmetry_cell_setting           orthorhombic
_symmetry_space_group_name_H-M   'P 21 21 21'
_symmetry_Int_Tables_number      19
_space_group_name_Hall           'P 2ac 2ab'
loop_
_symmetry_equiv_pos_site_id
_symmetry_equiv_pos_as_xyz
1 x,y,z
2 1/2-x,-y,1/2+z
3 1/2+x,1/2-y,-z
4 -x,1/2+y,1/2-z
_cell_length_a                   10.2225(4)
_cell_length_b                   10.4021(5)
_cell_length_c                   23.1768(10)
_cell_angle_alpha                90
_cell_angle_beta                 90
_cell_angle_gamma                90
_cell_volume                     2464.52
_exptl_crystal_colour            colorless
_exptl_crystal_description       block
_chemical_melting_point          '457-459 K'
_cell_formula_units_Z            4
_exptl_crystal_recrystallization_method 'Solvent evaporation'
loop_
_atom_site_label
_atom_site_type_symbol
_atom_site_fract_x
_atom_site_fract_y
_atom_site_fract_z
S1 S -0.71785(6) -0.73615(6) -0.04129(2)
F1 F -0.07603(15) -0.69625(17) -0.21505(8)
O1 O -0.73304(18) -1.05619(17) -0.12922(8)
O2 O -0.73324(15) -0.82127(15) -0.23928(6)
O3 O -0.84560(16) -0.7358(2) -0.06665(7)
O4 O -0.69579(19) -0.8022(2) 0.01168(7)
N1 N -0.61897(17) -0.79880(19) -0.08938(7)
C1 C -0.4818(2) -0.8134(3) -0.07091(9)
H1 H -0.4798 -0.8345 -0.0302
H2 H -0.4368 -0.7321 -0.0760
C2 C -0.4090(2) -0.9173(2) -0.10443(10)
H3 H -0.3362 -0.9474 -0.0813
H4 H -0.4676 -0.9895 -0.1104
C3 C -0.3574(2) -0.8733(2) -0.16252(10)
C4 C -0.4249(2) -0.8939(2) -0.21445(10)
C5 C -0.5577(2) -0.9608(2) -0.21423(10)
H5 H -0.5512 -1.0427 -0.1935
C6 C -0.6730(2) -0.8797(2) -0.18912(9)
C7 C -0.6432(2) -0.7649(2) -0.15004(8)
H6 H -0.5668 -0.7206 -0.1650
H7 H -0.7162 -0.7055 -0.1517
C8 C -0.2386(2) -0.8070(3) -0.16330(11)
H8 H -0.1927 -0.7921 -0.1293
C9 C -0.1907(2) -0.7641(3) -0.21533(12)
C10 C -0.2519(2) -0.7840(3) -0.26641(11)
H9 H -0.2156 -0.7553 -0.3009
C11 C -0.3706(2) -0.8485(3) -0.26548(11)
H10 H -0.4150 -0.8619 -0.3000
C12 C -0.7720(2) -0.9711(2) -0.16001(9)
C13 C -0.9145(3) -0.9490(3) -0.17007(12)
H11 H -0.9644 -1.0034 -0.1449
H12 H -0.9354 -0.9688 -0.2095
H13 H -0.9352 -0.8606 -0.1624
C14 C -0.7026(2) -0.8982(2) -0.28636(9)
C15 C -0.6105(2) -0.9835(2) -0.27426(10)
H14 H -0.5823 -1.0481 -0.2991
C16 C -0.7711(3) -0.8618(3) -0.34137(10)
C17 C -0.7323(4) -0.7237(3) -0.35563(13)
H15 H -0.6388 -0.7178 -0.3584
H16 H -0.7628 -0.6674 -0.3257
H17 H -0.7709 -0.6990 -0.3917
C18 C -0.9191(3) -0.8706(4) -0.33407(13)
H18 H -0.9460 -0.8168 -0.3026
H19 H -0.9433 -0.9580 -0.3262
H20 H -0.9612 -0.8425 -0.3689
C19 C -0.7255(4) -0.9507(4) -0.38982(11)
H21 H -0.7504 -1.0375 -0.3811
H22 H -0.6320 -0.9456 -0.3933
H23 H -0.7653 -0.9248 -0.4255
C20 C -0.6687(2) -0.5757(3) -0.03163(9)
C21 C -0.7248(3) -0.4784(3) -0.06422(12)
H24 H -0.7915 -0.4968 -0.0902
C22 C -0.6803(3) -0.3538(3) -0.05766(12)
H25 H -0.7185 -0.2885 -0.0792
C23 C -0.5804(3) -0.3238(3) -0.01989(11)
C24 C -0.5248(3) -0.4226(3) 0.01195(11)
H26 H -0.4574 -0.4041 0.0375
C25 C -0.5678(3) -0.5483(3) 0.00642(10)
H27 H -0.5293 -0.6136 0.0280
C26 C -0.5315(4) -0.1878(3) -0.01407(14)
H28 H -0.4544 -0.1769 -0.0372
H29 H -0.5110 -0.1707 0.0256
H30 H -0.5980 -0.1293 -0.0269
loop_
_geom_bond_atom_site_label_1
_geom_bond_atom_site_label_2
_geom_bond_site_symmetry_1
_geom_bond_site_symmetry_2
S1 O3 1_555 1_555
F1 C9 1_555 1_555
O1 C12 1_555 1_555
O2 C6 1_555 1_555
O4 S1 1_555 1_555
N1 S1 1_555 1_555
C1 N1 1_555 1_555
H1 C1 1_555 1_555
H2 C1 1_555 1_555
C2 C1 1_555 1_555
H3 C2 1_555 1_555
H4 C2 1_555 1_555
C3 C2 1_555 1_555
C4 C3 1_555 1_555
C5 C4 1_555 1_555
H5 C5 1_555 1_555
C6 C5 1_555 1_555
C7 N1 1_555 1_555
H6 C7 1_555 1_555
H7 C7 1_555 1_555
C8 C3 1_555 1_555
H8 C8 1_555 1_555
C9 C8 1_555 1_555
C10 C9 1_555 1_555
H9 C10 1_555 1_555
C11 C4 1_555 1_555
H10 C11 1_555 1_555
C12 C6 1_555 1_555
C13 C12 1_555 1_555
H11 C13 1_555 1_555
H12 C13 1_555 1_555
H13 C13 1_555 1_555
C14 O2 1_555 1_555
C15 C5 1_555 1_555
H14 C15 1_555 1_555
C16 C14 1_555 1_555
C17 C16 1_555 1_555
H15 C17 1_555 1_555
H16 C17 1_555 1_555
H17 C17 1_555 1_555
C18 C16 1_555 1_555
H18 C18 1_555 1_555
H19 C18 1_555 1_555
H20 C18 1_555 1_555
C19 C16 1_555 1_555
H21 C19 1_555 1_555
H22 C19 1_555 1_555
H23 C19 1_555 1_555
C20 S1 1_555 1_555
C21 C20 1_555 1_555
H24 C21 1_555 1_555
C22 C21 1_555 1_555
H25 C22 1_555 1_555
C23 C22 1_555 1_555
C24 C23 1_555 1_555
H26 C24 1_555 1_555
C25 C20 1_555 1_555
H27 C25 1_555 1_555
C26 C23 1_555 1_555
H28 C26 1_555 1_555
H29 C26 1_555 1_555
H30 C26 1_555 1_555
C6 C7 1_555 1_555
C10 C11 1_555 1_555
C14 C15 1_555 1_555
C24 C25 1_555 1_555

#END
