
#######################################################################
#
#                 Cambridge Crystallographic Data Centre
#                                CCDC 
#
#######################################################################
#
# If this CIF has been generated from an entry in the Cambridge 
# Structural Database, then it will include bibliographic, chemical, 
# crystal, experimental, refinement or atomic coordinate data resulting 
# from the CCDC's data processing and validation procedures.
#
#######################################################################

data_ATALOY
_chemical_formula_moiety         'C26 H33 N1 O5 S1'
_chemical_name_systematic        
1-(5-acetyl-5-hydroxy-3-((4-methylphenyl)sulfonyl)-1,2,3,4,5,6-hexahydro-3-benzazocin-6-yl)-3,3-dimethylbutan-2-one
_symmetry_cell_setting           monoclinic
_symmetry_space_group_name_H-M   'P 21/n'
_symmetry_Int_Tables_number      14
_space_group_name_Hall           '-P 2yn'
loop_
_symmetry_equiv_pos_site_id
_symmetry_equiv_pos_as_xyz
1 x,y,z
2 1/2-x,1/2+y,1/2-z
3 -x,-y,-z
4 1/2+x,1/2-y,1/2+z
_cell_length_a                   6.1688(10)
_cell_length_b                   19.3743(19)
_cell_length_c                   20.297(2)
_cell_angle_alpha                90
_cell_angle_beta                 93.930(12)
_cell_angle_gamma                90
_cell_volume                     2420.12
_exptl_crystal_colour            colorless
_exptl_crystal_description       block
_chemical_melting_point          '486-488 K'
_cell_formula_units_Z            4
_exptl_crystal_recrystallization_method 'Solvent evaporation'
loop_
_atom_site_label
_atom_site_type_symbol
_atom_site_fract_x
_atom_site_fract_y
_atom_site_fract_z
S1 S 0.29167(16) 0.96310(5) 0.24780(5)
O1 O -0.2310(4) 0.88106(13) 0.39450(13)
H1 H -0.2842 0.9170 0.4073
O2 O -0.0913(5) 1.00231(15) 0.42402(14)
O3 O 0.4073(6) 0.7750(2) 0.52028(15)
O4 O 0.5203(4) 0.96326(14) 0.23957(13)
O5 O 0.1925(5) 1.02016(12) 0.27959(13)
N1 N 0.2413(5) 0.89398(15) 0.29182(13)
C1 C 0.3413(6) 0.82897(19) 0.26894(18)
H2 H 0.4750 0.8405 0.2489
H3 H 0.2435 0.8083 0.2350
C2 C 0.3923(6) 0.77539(19) 0.32316(18)
H4 H 0.4928 0.7420 0.3069
H5 H 0.4661 0.7985 0.3607
C3 C 0.1991(6) 0.73659(18) 0.34721(17)
C4 C 0.0699(6) 0.76274(18) 0.39505(17)
C5 C 0.1203(6) 0.83311(17) 0.42592(16)
H6 H 0.2753 0.8418 0.4220
C6 C -0.0054(6) 0.89090(18) 0.38771(16)
C7 C 0.0178(6) 0.88873(19) 0.31209(17)
H7 H -0.0447 0.8459 0.2949
H8 H -0.0667 0.9263 0.2918
C8 C 0.1482(7) 0.6728(2) 0.31907(18)
H9 H 0.2362 0.6546 0.2880
C9 C -0.0303(8) 0.6362(2) 0.3364(2)
H10 H -0.0639 0.5938 0.3167
C10 C -0.1576(7) 0.6625(2) 0.3827(2)
H11 H -0.2784 0.6380 0.3947
C11 C -0.1076(6) 0.7250(2) 0.41143(18)
H12 H -0.1959 0.7425 0.4428
C12 C 0.0803(6) 0.8370(2) 0.49972(16)
H13 H 0.0744 0.8851 0.5127
H14 H -0.0598 0.8165 0.5066
C13 C 0.2513(7) 0.8011(2) 0.54317(19)
C14 C 0.2267(7) 0.7989(2) 0.61690(19)
C15 C 0.3239(11) 0.7358(3) 0.6485(3)
H15 H 0.2465 0.6959 0.6317
H16 H 0.3144 0.7385 0.6954
H17 H 0.4737 0.7324 0.6387
C16 C 0.0109(9) 0.8182(4) 0.6390(2)
H18 H -0.0290 0.8630 0.6219
H19 H 0.0172 0.8193 0.6863
H20 H -0.0952 0.7849 0.6230
C17 C 0.3739(11) 0.8600(3) 0.6444(3)
H21 H 0.5239 0.8483 0.6410
H22 H 0.3477 0.8682 0.6898
H23 H 0.3399 0.9010 0.6191
C18 C 0.0541(7) 0.9629(2) 0.41428(18)
C19 C 0.2869(6) 0.98263(19) 0.4295(2)
H24 H 0.3701 0.9703 0.3930
H25 H 0.3430 0.9587 0.4684
H26 H 0.2968 1.0315 0.4369
C20 C 0.1561(6) 0.9517(2) 0.16926(17)
C21 C 0.2458(7) 0.9134(2) 0.1213(2)
H27 H 0.3855 0.8957 0.1287
C22 C 0.1285(8) 0.9012(2) 0.0622(2)
H28 H 0.1913 0.8753 0.0300
C23 C -0.0795(8) 0.9264(2) 0.0496(2)
C24 C -0.0507(6) 0.9790(2) 0.1578(2)
H29 H -0.1125 1.0052 0.1900
C25 C -0.1638(7) 0.9666(2) 0.0978(2)
H30 H -0.3010 0.9860 0.0897
C26 C -0.2052(8) 0.9106(3) -0.0143(2)
H31 H -0.3537 0.9246 -0.0116
H32 H -0.1995 0.8620 -0.0228
H33 H -0.1431 0.9353 -0.0494
loop_
_geom_bond_atom_site_label_1
_geom_bond_atom_site_label_2
_geom_bond_site_symmetry_1
_geom_bond_site_symmetry_2
S1 O4 1_555 1_555
O1 H1 1_555 1_555
O2 C18 1_555 1_555
O3 C13 1_555 1_555
O5 S1 1_555 1_555
N1 S1 1_555 1_555
C1 N1 1_555 1_555
H2 C1 1_555 1_555
H3 C1 1_555 1_555
C2 C1 1_555 1_555
H4 C2 1_555 1_555
H5 C2 1_555 1_555
C3 C2 1_555 1_555
C4 C3 1_555 1_555
C5 C4 1_555 1_555
H6 C5 1_555 1_555
C6 O1 1_555 1_555
C7 N1 1_555 1_555
H7 C7 1_555 1_555
H8 C7 1_555 1_555
C8 C3 1_555 1_555
H9 C8 1_555 1_555
C9 C8 1_555 1_555
H10 C9 1_555 1_555
C10 C9 1_555 1_555
H11 C10 1_555 1_555
C11 C4 1_555 1_555
H12 C11 1_555 1_555
C12 C5 1_555 1_555
H13 C12 1_555 1_555
H14 C12 1_555 1_555
C13 C12 1_555 1_555
C14 C13 1_555 1_555
C15 C14 1_555 1_555
H15 C15 1_555 1_555
H16 C15 1_555 1_555
H17 C15 1_555 1_555
C16 C14 1_555 1_555
H18 C16 1_555 1_555
H19 C16 1_555 1_555
H20 C16 1_555 1_555
C17 C14 1_555 1_555
H21 C17 1_555 1_555
H22 C17 1_555 1_555
H23 C17 1_555 1_555
C18 C6 1_555 1_555
C19 C18 1_555 1_555
H24 C19 1_555 1_555
H25 C19 1_555 1_555
H26 C19 1_555 1_555
C20 S1 1_555 1_555
C21 C20 1_555 1_555
H27 C21 1_555 1_555
C22 C21 1_555 1_555
H28 C22 1_555 1_555
C23 C22 1_555 1_555
C24 C20 1_555 1_555
H29 C24 1_555 1_555
C25 C23 1_555 1_555
H30 C25 1_555 1_555
C26 C23 1_555 1_555
H31 C26 1_555 1_555
H32 C26 1_555 1_555
H33 C26 1_555 1_555
C5 C6 1_555 1_555
C6 C7 1_555 1_555
C10 C11 1_555 1_555
C24 C25 1_555 1_555

#END
