
#######################################################################
#
#                 Cambridge Crystallographic Data Centre
#                                CCDC 
#
#######################################################################
#
# If this CIF has been generated from an entry in the Cambridge 
# Structural Database, then it will include bibliographic, chemical, 
# crystal, experimental, refinement or atomic coordinate data resulting 
# from the CCDC's data processing and validation procedures.
#
#######################################################################

data_ATAMIS
_chemical_formula_moiety         'C32 H32 N1 O4 P1'
_chemical_name_systematic        
'Diethyl (2-methoxy-4-(triphenylpropadienyl)phenyl)phosphoramidate'
_symmetry_cell_setting           triclinic
_symmetry_space_group_name_H-M   'P -1'
_symmetry_Int_Tables_number      2
_space_group_name_Hall           '-P 1'
loop_
_symmetry_equiv_pos_site_id
_symmetry_equiv_pos_as_xyz
1 x,y,z
2 -x,-y,-z
_cell_length_a                   9.8093(8)
_cell_length_b                   12.2537(7)
_cell_length_c                   12.4626(9)
_cell_angle_alpha                88.876(5)
_cell_angle_beta                 76.621(6)
_cell_angle_gamma                82.373(6)
_cell_volume                     1444.36
_exptl_crystal_colour            yellow
_exptl_crystal_description       block
_cell_formula_units_Z            2
loop_
_atom_site_label
_atom_site_type_symbol
_atom_site_fract_x
_atom_site_fract_y
_atom_site_fract_z
P1 P 0.95346(10) 0.68171(7) 0.03435(6)
O1 O 0.8593(2) 0.46188(13) 0.29972(15)
O2 O 1.0819(3) 0.7462(2) 0.03216(18)
O3 O 0.9639(2) 0.61406(15) -0.06272(15)
O4 O 0.8399(3) 0.78554(15) 0.05311(16)
N1 N 0.9273(3) 0.60737(17) 0.14564(17)
H1 H 0.9341 0.5375 0.1350
C1 C 0.5842(4) 1.0282(3) 0.6383(3)
H2 H 0.5565 0.9599 0.6293
C2 C 0.4946(4) 1.1214(4) 0.6286(3)
H3 H 0.4081 1.1160 0.6119
C3 C 0.5323(5) 1.2222(3) 0.6433(3)
H4 H 0.4709 1.2857 0.6380
C4 C 0.6609(5) 1.2297(3) 0.6660(3)
H5 H 0.6875 1.2984 0.6751
C5 C 0.7512(3) 1.1352(2) 0.6753(2)
H6 H 0.8380 1.1410 0.6912
C6 C 0.7147(3) 1.0323(2) 0.6612(2)
C7 C 0.8140(3) 0.9299(2) 0.66391(19)
C8 C 0.9507(3) 0.93547(18) 0.6954(2)
C9 C 0.9569(4) 0.9637(3) 0.8005(2)
H7 H 0.8735 0.9820 0.8536
C10 C 1.0837(5) 0.9652(3) 0.8278(3)
H8 H 1.0857 0.9847 0.8991
C11 C 1.2076(4) 0.9383(3) 0.7512(4)
H9 H 1.2937 0.9379 0.7705
C12 C 1.2036(4) 0.9121(2) 0.6463(3)
H10 H 1.2874 0.8953 0.5931
C13 C 1.0761(3) 0.9104(2) 0.6188(2)
H11 H 1.0746 0.8919 0.5471
C14 C 0.7893(3) 0.8339(2) 0.6332(2)
C15 C 0.7660(3) 0.7392(2) 0.5986(2)
C16 C 0.6899(3) 0.6632(2) 0.6796(2)
C17 C 0.5634(3) 0.6324(3) 0.6689(3)
H12 H 0.5238 0.6610 0.6117
C18 C 0.4945(4) 0.5600(3) 0.7414(3)
H13 H 0.4092 0.5403 0.7329
C19 C 0.5519(5) 0.5173(3) 0.8257(3)
H14 H 0.5069 0.4674 0.8739
C20 C 0.6752(5) 0.5482(3) 0.8386(3)
H15 H 0.7132 0.5207 0.8970
C21 C 0.7443(3) 0.6200(2) 0.7657(2)
H16 H 0.8292 0.6396 0.7751
C22 C 0.8139(3) 0.70561(19) 0.4808(2)
C23 C 0.8562(3) 0.7796(2) 0.3991(2)
H17 H 0.8577 0.8522 0.4186
C24 C 0.8963(3) 0.7489(2) 0.2892(2)
H18 H 0.9247 0.8010 0.2362
C25 C 0.8949(3) 0.6423(2) 0.2567(2)
C26 C 0.8569(3) 0.56575(19) 0.3385(2)
C27 C 0.8173(3) 0.59674(19) 0.4484(2)
H19 H 0.7926 0.5442 0.5017
C28 C 0.8441(4) 0.3756(2) 0.3759(3)
H20 H 0.8587 0.3066 0.3369
H21 H 0.7507 0.3861 0.4228
H22 H 0.9126 0.3751 0.4199
C29 C 0.6983(5) 0.7755(3) 0.0586(4)
H23 H 0.6581 0.7417 0.1276
H24 H 0.6919 0.7285 -0.0013
C30 C 0.6174(5) 0.8855(3) 0.0506(5)
H25 H 0.6314 0.9066 -0.0253
H26 H 0.6497 0.9386 0.0912
H27 H 0.5186 0.8825 0.0809
C31 C 1.2156(6) 0.7042(4) -0.0283(5)
H28 H 1.2164 0.7072 -0.1063
H29 H 1.2364 0.6276 -0.0094
C32 C 1.3226(5) 0.7638(4) -0.0079(5)
H30 H 1.4103 0.7403 -0.0596
H31 H 1.3340 0.7500 0.0658
H32 H 1.2957 0.8411 -0.0163
loop_
_geom_bond_atom_site_label_1
_geom_bond_atom_site_label_2
_geom_bond_site_symmetry_1
_geom_bond_site_symmetry_2
P1 O2 1_555 1_555
O1 C26 1_555 1_555
O2 C31 1_555 1_555
O3 P1 1_555 1_555
O4 P1 1_555 1_555
N1 P1 1_555 1_555
H1 N1 1_555 1_555
C1 H2 1_555 1_555
C2 C1 1_555 1_555
H3 C2 1_555 1_555
C3 C2 1_555 1_555
H4 C3 1_555 1_555
C4 C3 1_555 1_555
H5 C4 1_555 1_555
C5 C4 1_555 1_555
H6 C5 1_555 1_555
C6 C1 1_555 1_555
C7 C6 1_555 1_555
C8 C7 1_555 1_555
C9 C8 1_555 1_555
H7 C9 1_555 1_555
C10 C9 1_555 1_555
H8 C10 1_555 1_555
C11 C10 1_555 1_555
H9 C11 1_555 1_555
C12 C11 1_555 1_555
H10 C12 1_555 1_555
C13 C8 1_555 1_555
H11 C13 1_555 1_555
C14 C7 1_555 1_555
C15 C14 1_555 1_555
C16 C15 1_555 1_555
C17 C16 1_555 1_555
H12 C17 1_555 1_555
C18 C17 1_555 1_555
H13 C18 1_555 1_555
C19 C18 1_555 1_555
H14 C19 1_555 1_555
C20 C19 1_555 1_555
H15 C20 1_555 1_555
C21 C16 1_555 1_555
H16 C21 1_555 1_555
C22 C15 1_555 1_555
C23 C22 1_555 1_555
H17 C23 1_555 1_555
C24 C23 1_555 1_555
H18 C24 1_555 1_555
C25 N1 1_555 1_555
C26 C25 1_555 1_555
C27 C22 1_555 1_555
H19 C27 1_555 1_555
C28 O1 1_555 1_555
H20 C28 1_555 1_555
H21 C28 1_555 1_555
H22 C28 1_555 1_555
C29 O4 1_555 1_555
H23 C29 1_555 1_555
H24 C29 1_555 1_555
C30 C29 1_555 1_555
H25 C30 1_555 1_555
H26 C30 1_555 1_555
H27 C30 1_555 1_555
C31 H28 1_555 1_555
H29 C31 1_555 1_555
C32 C31 1_555 1_555
H30 C32 1_555 1_555
H31 C32 1_555 1_555
H32 C32 1_555 1_555
C5 C6 1_555 1_555
C12 C13 1_555 1_555
C20 C21 1_555 1_555
C24 C25 1_555 1_555
C26 C27 1_555 1_555

#END
