
#######################################################################
#
#                 Cambridge Crystallographic Data Centre
#                                CCDC 
#
#######################################################################
#
# If this CIF has been generated from an entry in the Cambridge 
# Structural Database, then it will include bibliographic, chemical, 
# crystal, experimental, refinement or atomic coordinate data resulting 
# from the CCDC's data processing and validation procedures.
#
#######################################################################

data_ATAMOY
_chemical_formula_moiety         'C49 H37 N1 O1'
_chemical_name_systematic        
2-(4-Methylphenyl)-1,3,4,9,9-pentaphenyl-4,9-dihydro-2H-benzo[f]isoindol-4-ol
_symmetry_cell_setting           triclinic
_symmetry_space_group_name_H-M   'P -1'
_symmetry_Int_Tables_number      2
_space_group_name_Hall           '-P 1'
loop_
_symmetry_equiv_pos_site_id
_symmetry_equiv_pos_as_xyz
1 x,y,z
2 -x,-y,-z
_cell_length_a                   12.3332(6)
_cell_length_b                   12.9665(9)
_cell_length_c                   13.9933(8)
_cell_angle_alpha                100.449(5)
_cell_angle_beta                 111.684(5)
_cell_angle_gamma                112.065(5)
_cell_volume                     1789
_exptl_crystal_colour            yellow
_exptl_crystal_description       block
_cell_formula_units_Z            2
loop_
_atom_site_label
_atom_site_type_symbol
_atom_site_fract_x
_atom_site_fract_y
_atom_site_fract_z
O1 O 0.00146(10) 0.86325(11) 0.07854(9)
H1 H -0.0386 0.8368 0.1115
N1 N 0.25340(12) 0.71462(12) 0.23511(11)
C1 C -0.09135(17) 0.70262(17) 0.21989(16)
H2 H -0.0428 0.6687 0.2039
C2 C -0.22884(18) 0.63652(18) 0.16575(18)
H3 H -0.2714 0.5592 0.1140
C3 C -0.30273(19) 0.6842(2) 0.18788(19)
H4 H -0.3953 0.6399 0.1512
C4 C -0.23876(19) 0.7980(2) 0.26471(18)
H5 H -0.2882 0.8309 0.2808
C5 C -0.10144(17) 0.86407(18) 0.31818(15)
H6 H -0.0596 0.9414 0.3695
C6 C -0.02406(15) 0.81766(16) 0.29709(14)
C7 C 0.33058(19) 0.98872(17) 0.54549(16)
H7 H 0.3793 1.0282 0.5139
C8 C 0.3951(2) 1.0071(2) 0.6550(2)
H8 H 0.4864 1.0588 0.6973
C9 C 0.3248(3) 0.9490(3) 0.7023(2)
H9 H 0.3687 0.9611 0.7769
C10 C 0.1901(3) 0.8731(2) 0.6405(2)
H10 H 0.1426 0.8339 0.6730
C11 C 0.1240(2) 0.85459(19) 0.52799(16)
H11 H 0.0326 0.8030 0.4859
C12 C 0.19403(17) 0.91262(16) 0.47992(14)
C13 C 0.13039(15) 0.89428(15) 0.35667(13)
C14 C 0.16298(15) 1.01617(15) 0.34373(14)
C15 C 0.17989(17) 1.11167(17) 0.42364(15)
H12 H 0.1762 1.1019 0.4868
C16 C 0.20177(18) 1.21954(18) 0.41157(18)
H13 H 0.2125 1.2814 0.4660
C17 C 0.20770(18) 1.23548(17) 0.31859(18)
H14 H 0.2222 1.3080 0.3096
C18 C 0.19190(15) 1.14287(16) 0.23906(15)
H15 H 0.1963 1.1540 0.1765
C19 C 0.16948(14) 1.03280(15) 0.24972(14)
C20 C 0.14412(14) 0.93017(14) 0.15486(13)
C21 C 0.21213(15) 0.97895(14) 0.08956(14)
C22 C 0.14074(18) 0.96886(17) -0.01727(15)
H16 H 0.0482 0.9318 -0.0509
C23 C 0.2048(2) 1.01300(19) -0.07505(17)
H17 H 0.1551 1.0054 -0.1472
C24 C 0.3396(2) 1.06737(19) -0.0273(2)
H18 H 0.3823 1.0965 -0.0667
C25 C 0.41287(19) 1.07931(18) 0.07912(19)
H19 H 0.5054 1.1166 0.1119
C26 C 0.34964(16) 1.03614(15) 0.13791(15)
H20 H 0.4000 1.0457 0.2106
C27 C 0.18651(14) 0.84736(14) 0.20139(13)
C28 C 0.18640(14) 0.83461(14) 0.29963(13)
C29 C 0.22578(14) 0.77036(14) 0.16056(13)
C30 C 0.23422(16) 0.73987(14) 0.05782(14)
C31 C 0.12915(18) 0.71569(16) -0.04153(16)
H21 H 0.0550 0.7190 -0.0418
C32 C 0.1319(2) 0.68684(19) -0.13998(17)
H22 H 0.0614 0.6735 -0.2054
C33 C 0.2379(3) 0.6779(2) -0.1413(2)
H23 H 0.2392 0.6568 -0.2079
C34 C 0.3428(2) 0.70027(18) -0.0443(2)
H24 H 0.4150 0.6939 -0.0455
C35 C 0.34237(17) 0.73209(15) 0.05509(16)
H25 H 0.4148 0.7484 0.1205
C36 C 0.22815(15) 0.75238(15) 0.32013(13)
C37 C 0.23758(18) 0.69464(16) 0.40313(15)
C38 C 0.3541(2) 0.73837(19) 0.50022(17)
H26 H 0.4290 0.8081 0.5166
C39 C 0.3607(3) 0.6798(3) 0.5731(2)
H27 H 0.4399 0.7110 0.6385
C40 C 0.2539(3) 0.5778(3) 0.5514(2)
H28 H 0.2598 0.5387 0.6012
C41 C 0.1378(3) 0.5329(2) 0.4563(2)
H29 H 0.0638 0.4629 0.4409
C42 C 0.1292(2) 0.59081(19) 0.38213(18)
H30 H 0.0492 0.5593 0.3172
C43 C 0.29168(15) 0.62307(15) 0.22124(14)
C44 C 0.20469(17) 0.51546(16) 0.13378(16)
H31 H 0.1187 0.4992 0.0872
C45 C 0.24502(18) 0.43162(16) 0.11511(16)
H32 H 0.1857 0.3594 0.0550
C46 C 0.37056(19) 0.45188(17) 0.18301(17)
C47 C 0.45469(19) 0.55865(19) 0.27268(17)
H33 H 0.5392 0.5733 0.3213
C48 C 0.41675(16) 0.64445(17) 0.29225(15)
H34 H 0.4754 0.7162 0.3530
C49 C 0.4162(2) 0.36206(19) 0.1579(2)
H35 H 0.4185 0.3210 0.2086
H36 H 0.5037 0.4031 0.1656
H37 H 0.3552 0.3050 0.0834
loop_
_geom_bond_atom_site_label_1
_geom_bond_atom_site_label_2
_geom_bond_site_symmetry_1
_geom_bond_site_symmetry_2
O1 H1 1_555 1_555
N1 C29 1_555 1_555
C1 H2 1_555 1_555
C2 C1 1_555 1_555
H3 C2 1_555 1_555
C3 C2 1_555 1_555
H4 C3 1_555 1_555
C4 C3 1_555 1_555
H5 C4 1_555 1_555
C5 C4 1_555 1_555
H6 C5 1_555 1_555
C6 C1 1_555 1_555
C7 H7 1_555 1_555
C8 C7 1_555 1_555
H8 C8 1_555 1_555
C9 C8 1_555 1_555
H9 C9 1_555 1_555
C10 C9 1_555 1_555
H10 C10 1_555 1_555
C11 C10 1_555 1_555
H11 C11 1_555 1_555
C12 C7 1_555 1_555
C13 C6 1_555 1_555
C14 C13 1_555 1_555
C15 C14 1_555 1_555
H12 C15 1_555 1_555
C16 C15 1_555 1_555
H13 C16 1_555 1_555
C17 C16 1_555 1_555
H14 C17 1_555 1_555
C18 C17 1_555 1_555
H15 C18 1_555 1_555
C19 C14 1_555 1_555
C20 O1 1_555 1_555
C21 C20 1_555 1_555
C22 C21 1_555 1_555
H16 C22 1_555 1_555
C23 C22 1_555 1_555
H17 C23 1_555 1_555
C24 C23 1_555 1_555
H18 C24 1_555 1_555
C25 C24 1_555 1_555
H19 C25 1_555 1_555
C26 C21 1_555 1_555
H20 C26 1_555 1_555
C27 C20 1_555 1_555
C28 C13 1_555 1_555
C29 C27 1_555 1_555
C30 C29 1_555 1_555
C31 C30 1_555 1_555
H21 C31 1_555 1_555
C32 C31 1_555 1_555
H22 C32 1_555 1_555
C33 C32 1_555 1_555
H23 C33 1_555 1_555
C34 C33 1_555 1_555
H24 C34 1_555 1_555
C35 C30 1_555 1_555
H25 C35 1_555 1_555
C36 N1 1_555 1_555
C37 C36 1_555 1_555
C38 C37 1_555 1_555
H26 C38 1_555 1_555
C39 C38 1_555 1_555
H27 C39 1_555 1_555
C40 C39 1_555 1_555
H28 C40 1_555 1_555
C41 C40 1_555 1_555
H29 C41 1_555 1_555
C42 C37 1_555 1_555
H30 C42 1_555 1_555
C43 N1 1_555 1_555
C44 C43 1_555 1_555
H31 C44 1_555 1_555
C45 C44 1_555 1_555
H32 C45 1_555 1_555
C46 C45 1_555 1_555
C47 C46 1_555 1_555
H33 C47 1_555 1_555
C48 C43 1_555 1_555
H34 C48 1_555 1_555
C49 C46 1_555 1_555
H35 C49 1_555 1_555
H36 C49 1_555 1_555
H37 C49 1_555 1_555
C5 C6 1_555 1_555
C11 C12 1_555 1_555
C12 C13 1_555 1_555
C18 C19 1_555 1_555
C19 C20 1_555 1_555
C25 C26 1_555 1_555
C27 C28 1_555 1_555
C28 C36 1_555 1_555
C34 C35 1_555 1_555
C41 C42 1_555 1_555
C47 C48 1_555 1_555

#END
