
#######################################################################
#
#                 Cambridge Crystallographic Data Centre
#                                CCDC 
#
#######################################################################
#
# If this CIF has been generated from an entry in the Cambridge 
# Structural Database, then it will include bibliographic, chemical, 
# crystal, experimental, refinement or atomic coordinate data resulting 
# from the CCDC's data processing and validation procedures.
#
#######################################################################

data_ATAMUE
_chemical_formula_moiety         'C53 H46 N1 O4 P1,C4 H8 O2'
_chemical_name_systematic        
'diethyl (7-methoxy-2,2,4-triphenyl-6-(triphenylpropadienyl)quinolin-1(2H)-yl)phosphonate ethyl acetate solvate'
_symmetry_cell_setting           monoclinic
_symmetry_space_group_name_H-M   'C c'
_symmetry_Int_Tables_number      9
_space_group_name_Hall           'C -2yc'
loop_
_symmetry_equiv_pos_site_id
_symmetry_equiv_pos_as_xyz
1 x,y,z
2 x,-y,1/2+z
3 1/2+x,1/2+y,z
4 1/2+x,1/2-y,1/2+z
_cell_length_a                   18.5397(8)
_cell_length_b                   15.0248(6)
_cell_length_c                   17.6084(8)
_cell_angle_alpha                90
_cell_angle_beta                 103.518(5)
_cell_angle_gamma                90
_cell_volume                     4769.03
_exptl_crystal_colour            colorless
_exptl_crystal_description       block
_cell_formula_units_Z            4
loop_
_atom_site_label
_atom_site_type_symbol
_atom_site_fract_x
_atom_site_fract_y
_atom_site_fract_z
P1 P -0.31878(6) -0.04563(6) -0.03293(6)
O1 O -0.46836(15) 0.26294(16) -0.00882(14)
O2 O -0.33027(16) -0.00073(16) 0.03631(14)
O3 O -0.34348(15) -0.14421(15) -0.04214(15)
O4 O -0.23631(16) -0.0610(2) -0.03500(17)
N1 N -0.36214(14) 0.00699(16) -0.11446(14)
C1 C -0.2289(2) 0.6118(3) -0.0150(2)
H1 H -0.2564 0.6483 0.0103
C2 C -0.1691(2) 0.6469(3) -0.0392(3)
H2 H -0.1564 0.7064 -0.0298
C3 C -0.1281(2) 0.5936(4) -0.0773(2)
H3 H -0.0875 0.6167 -0.0934
C4 C -0.1479(2) 0.5073(3) -0.0910(2)
H4 H -0.1213 0.4713 -0.1177
C5 C -0.2067(2) 0.4723(3) -0.0662(2)
H5 H -0.2187 0.4125 -0.0754
C6 C -0.24837(19) 0.5239(2) -0.02778(19)
C7 C -0.3139(2) 0.4857(2) -0.0040(2)
C8 C -0.32794(19) 0.5050(2) 0.0755(2)
C9 C -0.3965(2) 0.4871(3) 0.0898(2)
H6 H -0.4345 0.4652 0.0500
C10 C -0.4089(2) 0.5016(3) 0.1623(3)
H7 H -0.4552 0.4883 0.1713
C11 C -0.3553(2) 0.5347(3) 0.2214(2)
H8 H -0.3650 0.5452 0.2701
C12 C -0.2873(2) 0.5525(3) 0.2088(2)
H9 H -0.2500 0.5745 0.2492
C13 C -0.2732(2) 0.5380(3) 0.1360(2)
H10 H -0.2265 0.5506 0.1277
C14 C -0.35880(19) 0.4320(2) -0.0509(2)
C15 C -0.40929(17) 0.3828(2) -0.09691(19)
C16 C -0.47740(18) 0.4219(2) -0.1466(2)
C17 C -0.53261(19) 0.3706(3) -0.1907(2)
H11 H -0.5282 0.3090 -0.1882
C18 C -0.5941(2) 0.4078(4) -0.2385(3)
H12 H -0.6306 0.3713 -0.2682
C19 C -0.6022(3) 0.4965(4) -0.2428(3)
H13 H -0.6441 0.5216 -0.2754
C20 C -0.5483(3) 0.5501(3) -0.1989(3)
H14 H -0.5536 0.6116 -0.2014
C21 C -0.4866(2) 0.5128(3) -0.1513(3)
H15 H -0.4504 0.5496 -0.1216
C22 C -0.39654(16) 0.28430(19) -0.10012(18)
C23 C -0.35317(17) 0.2511(2) -0.14756(18)
H16 H -0.3323 0.2906 -0.1770
C24 C -0.33973(17) 0.1598(2) -0.15265(17)
C25 C -0.37188(17) 0.1030(2) -0.10773(18)
C26 C -0.41466(18) 0.1352(2) -0.05932(19)
H17 H -0.4360 0.0962 -0.0299
C27 C -0.42565(18) 0.2263(2) -0.05488(19)
C28 C -0.4724(3) 0.2192(3) 0.0608(2)
H18 H -0.5061 0.1698 0.0489
H19 H -0.4900 0.2600 0.0944
H20 H -0.4241 0.1979 0.0867
C29 C -0.29457(17) 0.1229(2) -0.20341(18)
C30 C -0.24175(18) 0.1791(2) -0.2336(2)
C31 C -0.1891(2) 0.2307(2) -0.1843(3)
H21 H -0.1884 0.2331 -0.1313
C32 C -0.1369(2) 0.2796(2) -0.2133(3)
H22 H -0.1016 0.3141 -0.1798
C33 C -0.1385(3) 0.2760(3) -0.2914(4)
H23 H -0.1036 0.3075 -0.3108
C34 C -0.1901(3) 0.2271(3) -0.3401(3)
H24 H -0.1908 0.2261 -0.3930
C35 C -0.2424(2) 0.1781(2) -0.3128(2)
H25 H -0.2778 0.1448 -0.3474
C36 C -0.30394(17) 0.0383(2) -0.22290(18)
H26 H -0.2747 0.0132 -0.2536
C37 C -0.36099(18) -0.0195(2) -0.19690(18)
C38 C -0.3430(2) -0.1190(2) -0.20325(19)
C39 C -0.3999(3) -0.1813(2) -0.2228(2)
H27 H -0.4492 -0.1636 -0.2311
C40 C -0.3819(4) -0.2707(3) -0.2296(3)
H28 H -0.4199 -0.3124 -0.2426
C41 C -0.3099(4) -0.2985(3) -0.2177(3)
H29 H -0.2987 -0.3584 -0.2215
C42 C -0.2547(3) -0.2362(3) -0.2001(3)
H30 H -0.2055 -0.2539 -0.1930
C43 C -0.2710(2) -0.1475(2) -0.1928(2)
H31 H -0.2325 -0.1063 -0.1805
C44 C -0.43703(19) 0.0000(2) -0.2514(2)
C45 C -0.5014(2) 0.0106(2) -0.2253(2)
H32 H -0.4993 0.0091 -0.1720
C46 C -0.5684(2) 0.0235(3) -0.2775(3)
H33 H -0.6114 0.0302 -0.2594
C47 C -0.5722(2) 0.0266(3) -0.3568(3)
H34 H -0.6173 0.0368 -0.3919
C48 C -0.5098(3) 0.0147(3) -0.3829(2)
H35 H -0.5126 0.0147 -0.4363
C49 C -0.4426(2) 0.0026(2) -0.3317(2)
H36 H -0.4001 -0.0039 -0.3507
C50 C -0.1811(3) -0.0042(5) -0.0097(5)
H37 H -0.1879 0.0207 0.0389
H38 H -0.1872 0.0442 -0.0470
C51 C -0.1084(3) -0.0319(6) 0.0034(5)
H39 H -0.1019 -0.0670 -0.0401
H40 H -0.0962 -0.0670 0.0502
H41 H -0.0764 0.0192 0.0091
C52 C -0.4149(3) -0.1709(3) -0.0333(3)
H42 H -0.4529 -0.1482 -0.0766
H43 H -0.4237 -0.1464 0.0147
C53 C -0.4192(4) -0.2693(3) -0.0313(4)
H44 H -0.4103 -0.2933 -0.0789
H45 H -0.4676 -0.2869 -0.0261
H46 H -0.3824 -0.2915 0.0123
O5 O -0.5888(4) 0.2223(4) -0.4870(3)
O6 O -0.6289(3) 0.2539(4) -0.3856(3)
C54 C -0.5000(4) 0.2553(4) -0.3610(4)
H47 H -0.4611 0.2375 -0.3854
H48 H -0.4981 0.2194 -0.3155
H49 H -0.4936 0.3168 -0.3460
C55 C -0.5739(5) 0.2431(5) -0.4175(6)
C56 C -0.7046(6) 0.2460(6) -0.4410(6)
H50 H -0.7119 0.2949 -0.4780
H51 H -0.7075 0.1908 -0.4702
C57 C -0.7541(6) 0.2473(7) -0.4036(6)
H52 H -0.7391 0.2114 -0.3575
H53 H -0.7994 0.2241 -0.4356
H54 H -0.7619 0.3074 -0.3889
loop_
_geom_bond_atom_site_label_1
_geom_bond_atom_site_label_2
_geom_bond_site_symmetry_1
_geom_bond_site_symmetry_2
P1 O2 1_555 1_555
O1 C27 1_555 1_555
O3 P1 1_555 1_555
O4 P1 1_555 1_555
O5 C55 1_555 1_555
O6 C55 1_555 1_555
N1 P1 1_555 1_555
C1 H1 1_555 1_555
C2 C1 1_555 1_555
H2 C2 1_555 1_555
C3 C2 1_555 1_555
H3 C3 1_555 1_555
C4 C3 1_555 1_555
H4 C4 1_555 1_555
C5 C4 1_555 1_555
H5 C5 1_555 1_555
C6 C1 1_555 1_555
C7 C6 1_555 1_555
C8 C7 1_555 1_555
C9 C8 1_555 1_555
H6 C9 1_555 1_555
C10 C9 1_555 1_555
H7 C10 1_555 1_555
C11 C10 1_555 1_555
H8 C11 1_555 1_555
C12 C11 1_555 1_555
H9 C12 1_555 1_555
C13 C8 1_555 1_555
H10 C13 1_555 1_555
C14 C7 1_555 1_555
C15 C14 1_555 1_555
C16 C15 1_555 1_555
C17 C16 1_555 1_555
H11 C17 1_555 1_555
C18 C17 1_555 1_555
H12 C18 1_555 1_555
C19 C18 1_555 1_555
H13 C19 1_555 1_555
C20 C19 1_555 1_555
H14 C20 1_555 1_555
C21 C16 1_555 1_555
H15 C21 1_555 1_555
C22 C15 1_555 1_555
C23 C22 1_555 1_555
H16 C23 1_555 1_555
C24 C23 1_555 1_555
C25 N1 1_555 1_555
C26 C25 1_555 1_555
H17 C26 1_555 1_555
C27 C22 1_555 1_555
C28 O1 1_555 1_555
H18 C28 1_555 1_555
H19 C28 1_555 1_555
H20 C28 1_555 1_555
C29 C24 1_555 1_555
C30 C29 1_555 1_555
C31 C30 1_555 1_555
H21 C31 1_555 1_555
C32 C31 1_555 1_555
H22 C32 1_555 1_555
C33 C32 1_555 1_555
H23 C33 1_555 1_555
C34 C33 1_555 1_555
H24 C34 1_555 1_555
C35 C30 1_555 1_555
H25 C35 1_555 1_555
C36 C29 1_555 1_555
H26 C36 1_555 1_555
C37 N1 1_555 1_555
C38 C37 1_555 1_555
C39 C38 1_555 1_555
H27 C39 1_555 1_555
C40 C39 1_555 1_555
H28 C40 1_555 1_555
C41 C40 1_555 1_555
H29 C41 1_555 1_555
C42 C41 1_555 1_555
H30 C42 1_555 1_555
C43 C38 1_555 1_555
H31 C43 1_555 1_555
C44 C37 1_555 1_555
C45 C44 1_555 1_555
H32 C45 1_555 1_555
C46 C45 1_555 1_555
H33 C46 1_555 1_555
C47 C46 1_555 1_555
H34 C47 1_555 1_555
C48 C47 1_555 1_555
H35 C48 1_555 1_555
C49 C44 1_555 1_555
H36 C49 1_555 1_555
C50 O4 1_555 1_555
H37 C50 1_555 1_555
H38 C50 1_555 1_555
C51 C50 1_555 1_555
H39 C51 1_555 1_555
H40 C51 1_555 1_555
H41 C51 1_555 1_555
C52 O3 1_555 1_555
H42 C52 1_555 1_555
H43 C52 1_555 1_555
C53 C52 1_555 1_555
H44 C53 1_555 1_555
H45 C53 1_555 1_555
H46 C53 1_555 1_555
C54 H47 1_555 1_555
H48 C54 1_555 1_555
H49 C54 1_555 1_555
C55 C54 1_555 1_555
C56 O6 1_555 1_555
H50 C56 1_555 1_555
H51 C56 1_555 1_555
C57 C56 1_555 1_555
H52 C57 1_555 1_555
H53 C57 1_555 1_555
H54 C57 1_555 1_555
C5 C6 1_555 1_555
C12 C13 1_555 1_555
C20 C21 1_555 1_555
C24 C25 1_555 1_555
C26 C27 1_555 1_555
C34 C35 1_555 1_555
C36 C37 1_555 1_555
C42 C43 1_555 1_555
C48 C49 1_555 1_555

#END
