
#######################################################################
#
#                 Cambridge Crystallographic Data Centre
#                                CCDC 
#
#######################################################################
#
# If this CIF has been generated from an entry in the Cambridge 
# Structural Database, then it will include bibliographic, chemical, 
# crystal, experimental, refinement or atomic coordinate data resulting 
# from the CCDC's data processing and validation procedures.
#
#######################################################################

data_ATAPIV
_chemical_formula_moiety         'C26 H37 O1 P1 S1'
_chemical_name_systematic        
'1,5,15,15,16,16-Hexamethyl-10-phenyl-3-oxa-10-phosphapentacyclo[10.2.1.1^5,8^.0^2,11^.0^4,9^]hexadecane 10-sulfide'
_symmetry_cell_setting           monoclinic
_symmetry_space_group_name_H-M   'P 21'
_symmetry_Int_Tables_number      4
_space_group_name_Hall           'P 2yb'
loop_
_symmetry_equiv_pos_site_id
_symmetry_equiv_pos_as_xyz
1 x,y,z
2 -x,1/2+y,-z
_cell_length_a                   6.8294(2)
_cell_length_b                   17.2910(5)
_cell_length_c                   10.0575(3)
_cell_angle_alpha                90
_cell_angle_beta                 99.067(2)
_cell_angle_gamma                90
_cell_volume                     1172.82
_exptl_crystal_colour            colorless
_exptl_crystal_description       rod
_cell_formula_units_Z            2
loop_
_atom_site_label
_atom_site_type_symbol
_atom_site_fract_x
_atom_site_fract_y
_atom_site_fract_z
C1 C -0.3236(5) -0.1571(2) -0.8214(3)
C2 C -0.4581(6) -0.1131(2) -0.7612(3)
H1 H -0.5964 -0.1227 -0.7825
C3 C -0.3877(6) -0.0554(2) -0.6702(4)
H2 H -0.4787 -0.0261 -0.6283
C4 C -0.1885(6) -0.0401(2) -0.6398(4)
H3 H -0.1426 0.0001 -0.5783
C5 C -0.0533(6) -0.0836(2) -0.6993(4)
H4 H 0.0849 -0.0738 -0.6774
C6 C -0.1232(6) -0.1413(2) -0.7910(3)
H5 H -0.0319 -0.1702 -0.8332
C7 C -0.3158(5) -0.21830(17) -1.0927(3)
H6 H -0.2119 -0.1776 -1.0701
C8 C -0.4581(5) -0.1878(2) -1.2186(3)
H7 H -0.5769 -0.1590 -1.1984
C9 C -0.3214(5) -0.1417(2) -1.2973(4)
H8 H -0.2404 -0.1038 -1.2386
H9 H -0.3984 -0.1142 -1.3747
C10 C -0.1901(6) -0.2064(2) -1.3448(3)
H10 H -0.1950 -0.2046 -1.4437
H11 H -0.0506 -0.2011 -1.3008
C11 C -0.2818(5) -0.2826(2) -1.3017(3)
C12 C -0.2099(5) -0.28818(19) -1.1495(3)
H12 H -0.0630 -0.2805 -1.1305
C13 C -0.6364(5) -0.3217(2) -1.2616(4)
H13 H -0.7719 -0.3018 -1.2680
H14 H -0.5854 -0.3348 -1.1677
H15 H -0.6367 -0.3681 -1.3176
C14 C -0.5044(5) -0.26015(19) -1.3105(3)
C15 C -0.6038(5) -0.2395(3) -1.4546(3)
H16 H -0.6296 -0.2870 -1.5077
H17 H -0.5157 -0.2058 -1.4965
H18 H -0.7293 -0.2127 -1.4510
C16 C -0.2325(5) -0.3542(2) -1.3770(3)
H19 H -0.0886 -0.3621 -1.3621
H20 H -0.2797 -0.3475 -1.4735
H21 H -0.2973 -0.3993 -1.3441
C17 C -0.1698(5) -0.36985(19) -0.9612(3)
H22 H -0.0252 -0.3577 -0.9522
C18 C -0.2660(4) -0.31871(19) -0.8612(3)
H23 H -0.1521 -0.2947 -0.8006
C19 C -0.3506(5) -0.37922(19) -0.7741(3)
H24 H -0.3822 -0.3584 -0.6872
C20 C -0.5229(5) -0.4239(2) -0.8579(4)
H25 H -0.6185 -0.3882 -0.9105
H26 H -0.5936 -0.4563 -0.7996
C21 C -0.4155(5) -0.4748(2) -0.9520(3)
H27 H -0.4373 -0.5305 -0.9368
H28 H -0.4627 -0.4625 -1.0478
C22 C -0.1966(5) -0.45356(18) -0.9122(3)
C23 C -0.1781(5) -0.43983(19) -0.7569(3)
C24 C -0.2251(5) -0.5116(2) -0.6770(3)
H29 H -0.1248 -0.5515 -0.6824
H30 H -0.3563 -0.5316 -0.7151
H31 H -0.2242 -0.4974 -0.5825
C25 C 0.0247(5) -0.4094(2) -0.6893(3)
H32 H 0.0115 -0.3860 -0.6023
H33 H 0.0724 -0.3704 -0.7473
H34 H 0.1194 -0.4523 -0.6751
C26 C -0.0553(5) -0.5106(2) -0.9621(3)
H35 H -0.0794 -0.5625 -0.9291
H36 H 0.0818 -0.4953 -0.9286
H37 H -0.0770 -0.5108 -1.0608
O1 O -0.2595(3) -0.36105(13) -1.0979(2)
P1 P -0.41775(11) -0.23659(5) -0.93594(7)
S1 S -0.70777(11) -0.24104(5) -0.95430(8)
loop_
_geom_bond_atom_site_label_1
_geom_bond_atom_site_label_2
_geom_bond_site_symmetry_1
_geom_bond_site_symmetry_2
C1 C2 1_555 1_555
C2 H1 1_555 1_555
C3 C2 1_555 1_555
H2 C3 1_555 1_555
C4 C3 1_555 1_555
H3 C4 1_555 1_555
C5 C4 1_555 1_555
H4 C5 1_555 1_555
C6 C1 1_555 1_555
H5 C6 1_555 1_555
C7 H6 1_555 1_555
C8 C7 1_555 1_555
H7 C8 1_555 1_555
C9 C8 1_555 1_555
H8 C9 1_555 1_555
H9 C9 1_555 1_555
C10 C9 1_555 1_555
H10 C10 1_555 1_555
H11 C10 1_555 1_555
C11 C10 1_555 1_555
C12 C7 1_555 1_555
H12 C12 1_555 1_555
C13 H13 1_555 1_555
H14 C13 1_555 1_555
H15 C13 1_555 1_555
C14 C8 1_555 1_555
C15 C14 1_555 1_555
H16 C15 1_555 1_555
H17 C15 1_555 1_555
H18 C15 1_555 1_555
C16 C11 1_555 1_555
H19 C16 1_555 1_555
H20 C16 1_555 1_555
H21 C16 1_555 1_555
C17 H22 1_555 1_555
C18 C17 1_555 1_555
H23 C18 1_555 1_555
C19 C18 1_555 1_555
H24 C19 1_555 1_555
C20 C19 1_555 1_555
H25 C20 1_555 1_555
H26 C20 1_555 1_555
C21 C20 1_555 1_555
H27 C21 1_555 1_555
H28 C21 1_555 1_555
C22 C17 1_555 1_555
C23 C19 1_555 1_555
C24 C23 1_555 1_555
H29 C24 1_555 1_555
H30 C24 1_555 1_555
H31 C24 1_555 1_555
C25 C23 1_555 1_555
H32 C25 1_555 1_555
H33 C25 1_555 1_555
H34 C25 1_555 1_555
C26 C22 1_555 1_555
H35 C26 1_555 1_555
H36 C26 1_555 1_555
H37 C26 1_555 1_555
O1 C12 1_555 1_555
P1 C1 1_555 1_555
S1 P1 1_555 1_555
C5 C6 1_555 1_555
C7 P1 1_555 1_555
C11 C12 1_555 1_555
C11 C14 1_555 1_555
C13 C14 1_555 1_555
C17 O1 1_555 1_555
C18 P1 1_555 1_555
C21 C22 1_555 1_555
C22 C23 1_555 1_555

#END
