
#######################################################################
#
#                 Cambridge Crystallographic Data Centre
#                                CCDC 
#
#######################################################################
#
# If this CIF has been generated from an entry in the Cambridge 
# Structural Database, then it will include bibliographic, chemical, 
# crystal, experimental, refinement or atomic coordinate data resulting 
# from the CCDC's data processing and validation procedures.
#
#######################################################################

data_ATAQES
_chemical_formula_moiety         'C26 H37 O1 P1 Se1'
_chemical_name_systematic        
'1,5,15,15,16,16-Hexamethyl-10-phenyl-3-oxa-10-phosphapentacyclo[10.2.1.1^5,8^.0^2,11^.0^4,9^]hexadecane 10-selenide'
_symmetry_cell_setting           orthorhombic
_symmetry_space_group_name_H-M   'P 21 21 21'
_symmetry_Int_Tables_number      19
_space_group_name_Hall           'P 2ac 2ab'
loop_
_symmetry_equiv_pos_site_id
_symmetry_equiv_pos_as_xyz
1 x,y,z
2 1/2-x,-y,1/2+z
3 1/2+x,1/2-y,-z
4 -x,1/2+y,1/2-z
_cell_length_a                   11.4004(3)
_cell_length_b                   15.3109(4)
_cell_length_c                   13.5184(5)
_cell_angle_alpha                90
_cell_angle_beta                 90
_cell_angle_gamma                90
_cell_volume                     2359.64
_exptl_crystal_colour            colorless
_exptl_crystal_description       block
_cell_formula_units_Z            4
loop_
_atom_site_label
_atom_site_type_symbol
_atom_site_fract_x
_atom_site_fract_y
_atom_site_fract_z
C1 C -0.0389(3) 0.00533(19) 0.1311(3)
C2 C -0.1510(3) 0.00201(19) 0.0906(3)
H1 H -0.1611 0.0043 0.0209
C3 C -0.2487(3) -0.0048(3) 0.1528(4)
H2 H -0.3251 -0.0073 0.1248
C4 C -0.2355(3) -0.0079(3) 0.2539(4)
H3 H -0.3023 -0.0126 0.2956
C5 C -0.1229(4) -0.0041(2) 0.2949(3)
H4 H -0.1129 -0.0058 0.3647
C6 C -0.0266(3) 0.0020(2) 0.2337(3)
H5 H 0.0496 0.0040 0.2620
C7 C 0.1708(3) -0.08926(19) 0.0901(3)
H6 H 0.1229 -0.1147 0.1449
C8 C 0.2954(3) -0.0745(2) 0.1358(3)
H7 H 0.2908 -0.0762 0.2097
C9 C 0.3677(3) -0.1536(2) 0.0970(3)
C10 C 0.3988(3) -0.1337(3) -0.0113(3)
H8 H 0.4535 -0.1780 -0.0383
H9 H 0.4348 -0.0752 -0.0180
C11 C 0.2781(4) -0.1377(2) -0.0644(3)
H10 H 0.2566 -0.0800 -0.0919
H11 H 0.2792 -0.1811 -0.1187
C12 C 0.1917(4) -0.1654(2) 0.0178(3)
H12 H 0.1184 -0.1939 -0.0068
C13 C 0.2704(3) -0.2256(2) 0.0838(3)
C14 C 0.3102(4) -0.3085(2) 0.0294(3)
H13 H 0.3735 -0.3366 0.0668
H14 H 0.3385 -0.2930 -0.0367
H15 H 0.2439 -0.3489 0.0235
C15 C 0.2149(4) -0.2562(2) 0.1806(3)
H16 H 0.1416 -0.2871 0.1663
H17 H 0.1984 -0.2055 0.2226
H18 H 0.2691 -0.2955 0.2149
C16 C 0.4706(3) -0.1765(2) 0.1626(3)
H19 H 0.5092 -0.2291 0.1372
H20 H 0.4428 -0.1872 0.2301
H21 H 0.5267 -0.1279 0.1630
C17 C 0.3000(3) 0.0809(2) 0.1448(3)
H22 H 0.2997 0.0772 0.2186
C18 C 0.3694(3) 0.1620(2) 0.1115(3)
C19 C 0.3190(3) 0.2401(2) 0.1720(3)
H23 H 0.3719 0.2913 0.1685
H24 H 0.3078 0.2238 0.2422
C20 C 0.1990(3) 0.2602(2) 0.1212(3)
H25 H 0.1335 0.2573 0.1691
H26 H 0.1994 0.3183 0.0891
C21 C 0.1913(3) 0.1859(2) 0.0441(3)
H27 H 0.1315 0.1953 -0.0090
C22 C 0.1731(3) 0.1021(2) 0.1062(3)
H28 H 0.1273 0.1206 0.1657
C23 C 0.3196(3) 0.1817(2) 0.0068(3)
C24 C 0.3431(3) 0.1115(2) -0.0713(3)
H29 H 0.3123 0.0553 -0.0481
H30 H 0.4278 0.1064 -0.0823
H31 H 0.3044 0.1277 -0.1333
C25 C 0.3630(4) 0.2685(2) -0.0377(3)
H32 H 0.3075 0.2885 -0.0883
H33 H 0.4403 0.2599 -0.0677
H34 H 0.3687 0.3126 0.0147
C26 C 0.5016(3) 0.1519(2) 0.1226(3)
H35 H 0.5200 0.1334 0.1903
H36 H 0.5400 0.2079 0.1090
H37 H 0.5300 0.1078 0.0758
O1 O 0.35075(18) 0.00428(13) 0.10420(18)
P1 P 0.09081(7) 0.01011(5) 0.05150(7)
Se1 Se 0.04392(3) 0.02184(2) -0.09946(3)
loop_
_geom_bond_atom_site_label_1
_geom_bond_atom_site_label_2
_geom_bond_site_symmetry_1
_geom_bond_site_symmetry_2
C1 C2 1_555 1_555
C2 H1 1_555 1_555
C3 C2 1_555 1_555
H2 C3 1_555 1_555
C4 C3 1_555 1_555
H3 C4 1_555 1_555
C5 C4 1_555 1_555
H4 C5 1_555 1_555
C6 C1 1_555 1_555
H5 C6 1_555 1_555
C7 H6 1_555 1_555
C8 C7 1_555 1_555
H7 C8 1_555 1_555
C9 C8 1_555 1_555
C10 C9 1_555 1_555
H8 C10 1_555 1_555
H9 C10 1_555 1_555
C11 C10 1_555 1_555
H10 C11 1_555 1_555
H11 C11 1_555 1_555
C12 C7 1_555 1_555
H12 C12 1_555 1_555
C13 C9 1_555 1_555
C14 C13 1_555 1_555
H13 C14 1_555 1_555
H14 C14 1_555 1_555
H15 C14 1_555 1_555
C15 C13 1_555 1_555
H16 C15 1_555 1_555
H17 C15 1_555 1_555
H18 C15 1_555 1_555
C16 C9 1_555 1_555
H19 C16 1_555 1_555
H20 C16 1_555 1_555
H21 C16 1_555 1_555
C17 H22 1_555 1_555
C18 C17 1_555 1_555
C19 C18 1_555 1_555
H23 C19 1_555 1_555
H24 C19 1_555 1_555
C20 C19 1_555 1_555
H25 C20 1_555 1_555
H26 C20 1_555 1_555
C21 C20 1_555 1_555
H27 C21 1_555 1_555
C22 C17 1_555 1_555
H28 C22 1_555 1_555
C23 C18 1_555 1_555
C24 C23 1_555 1_555
H29 C24 1_555 1_555
H30 C24 1_555 1_555
H31 C24 1_555 1_555
C25 C23 1_555 1_555
H32 C25 1_555 1_555
H33 C25 1_555 1_555
H34 C25 1_555 1_555
C26 C18 1_555 1_555
H35 C26 1_555 1_555
H36 C26 1_555 1_555
H37 C26 1_555 1_555
O1 C8 1_555 1_555
P1 C1 1_555 1_555
Se1 P1 1_555 1_555
C5 C6 1_555 1_555
C7 P1 1_555 1_555
C11 C12 1_555 1_555
C12 C13 1_555 1_555
C17 O1 1_555 1_555
C21 C22 1_555 1_555
C21 C23 1_555 1_555
C22 P1 1_555 1_555

#END
