
#######################################################################
#
#                 Cambridge Crystallographic Data Centre
#                                CCDC 
#
#######################################################################
#
# If this CIF has been generated from an entry in the Cambridge 
# Structural Database, then it will include bibliographic, chemical, 
# crystal, experimental, refinement or atomic coordinate data resulting 
# from the CCDC's data processing and validation procedures.
#
#######################################################################

data_ATAZIF
_chemical_formula_moiety         'C13 H16 N1 O2 1+,B1 F4 1-,H2 O1'
_chemical_name_systematic        
'1-(Carboxymethyl)-2,3,3-trimethyl-3H-indolium tetrafluoroborate monohydrate'
_symmetry_cell_setting           monoclinic
_symmetry_space_group_name_H-M   'P 21/c'
_symmetry_Int_Tables_number      14
_space_group_name_Hall           '-P 2ybc'
loop_
_symmetry_equiv_pos_site_id
_symmetry_equiv_pos_as_xyz
1 x,y,z
2 -x,1/2+y,1/2-z
3 -x,-y,-z
4 x,1/2-y,1/2+z
_cell_length_a                   7.5325(4)
_cell_length_b                   23.7452(12)
_cell_length_c                   9.0242(5)
_cell_angle_alpha                90
_cell_angle_beta                 103.093(4)
_cell_angle_gamma                90
_cell_volume                     1572.11
_exptl_crystal_colour            colorless
_exptl_crystal_description       prism
_cell_formula_units_Z            4
loop_
_atom_site_label
_atom_site_type_symbol
_atom_site_fract_x
_atom_site_fract_y
_atom_site_fract_z
N1 N 0.3315(3) 0.09788(9) 0.1961(2)
C1 C 0.2355(4) 0.15021(11) 0.1616(3)
O1 O 0.0600(3) -0.02661(9) 0.1904(2)
C2 C 0.2520(4) 0.04390(11) 0.1367(3)
O2 O 0.1752(3) 0.03316(9) 0.3789(2)
C3 C 0.1576(4) 0.01650(12) 0.2492(3)
C4 C 0.3442(4) 0.19248(11) 0.2391(3)
C5 C 0.5204(4) 0.16703(12) 0.3267(3)
C6 C 0.4896(4) 0.10530(11) 0.2893(3)
C7 C 0.2809(5) 0.24756(13) 0.2282(4)
C8 C 0.0648(4) 0.15914(13) 0.0693(3)
C9 C 0.6177(4) 0.05994(14) 0.3502(3)
C10 C 0.6841(4) 0.18730(14) 0.2649(3)
C11 C 0.5545(5) 0.17727(15) 0.4978(3)
C12 C 0.0056(4) 0.21480(15) 0.0564(4)
C13 C 0.1099(5) 0.25783(14) 0.1355(4)
H1 H 0.340215 0.280261 0.274104
H2 H -0.007946 0.128238 0.005480
H3 H -0.117599 0.225098 -0.007230
H4 H 0.793053 0.173115 0.326044
H5 H 0.693369 0.227500 0.274262
H6 H 0.667569 0.176900 0.159762
H7 H 0.667914 0.160366 0.548505
H8 H 0.456914 0.160966 0.535705
H9 H 0.559114 0.217066 0.516705
H10 H 0.151345 0.051499 0.040553
H11 H 0.365145 0.016599 0.128553
H12 H 0.062053 0.295417 0.115146
H16 H 0.724255 0.075715 0.416043
H17 H 0.652152 0.040601 0.267248
H18 H 0.560990 0.033894 0.406455
F1 F -0.5386(3) -0.07086(8) 0.26326(18)
F2 F -0.6433(3) -0.15153(8) 0.1372(2)
F3 F -0.6174(3) -0.07198(8) 0.00483(19)
F4 F -0.3654(2) -0.11845(9) 0.1318(2)
B1 B -0.5446(5) -0.10343(14) 0.1351(4)
O3 O -0.0861(3) -0.084691 0.370123
H14 H -0.200153 -0.096721 0.309042
H15 H -0.117142 -0.075116 0.452143
H13? H -0.011725 -0.061890 0.269825
loop_
_geom_bond_atom_site_label_1
_geom_bond_atom_site_label_2
_geom_bond_site_symmetry_1
_geom_bond_site_symmetry_2
N1 C1 1_555 1_555
F1 B1 1_555 1_555
F2 B1 1_555 1_555
F3 B1 1_555 1_555
F4 B1 1_555 1_555
C1 C4 1_555 1_555
O1 C3 1_555 1_555
C2 N1 1_555 1_555
O2 C3 1_555 1_555
C3 C2 1_555 1_555
C4 C5 1_555 1_555
C5 C6 1_555 1_555
C6 N1 1_555 1_555
C7 C4 1_555 1_555
C8 C1 1_555 1_555
C9 C6 1_555 1_555
C10 C5 1_555 1_555
C11 C5 1_555 1_555
C12 C8 1_555 1_555
C13 C7 1_555 1_555
H1 C7 1_555 1_555
H2 C8 1_555 1_555
H3 C12 1_555 1_555
H4 C10 1_555 1_555
H5 C10 1_555 1_555
H6 C10 1_555 1_555
H7 C11 1_555 1_555
H8 C11 1_555 1_555
H9 C11 1_555 1_555
H10 C2 1_555 1_555
H11 C2 1_555 1_555
H12 C13 1_555 1_555
O3 H14 1_555 1_555
H15 O3 1_555 1_555
H16 C9 1_555 1_555
H17 C9 1_555 1_555
H18 C9 1_555 1_555
C12 C13 1_555 1_555

#END
