
#######################################################################
#
#                 Cambridge Crystallographic Data Centre
#                                CCDC 
#
#######################################################################
#
# If this CIF has been generated from an entry in the Cambridge 
# Structural Database, then it will include bibliographic, chemical, 
# crystal, experimental, refinement or atomic coordinate data resulting 
# from the CCDC's data processing and validation procedures.
#
#######################################################################

data_ATEDEI
_chemical_formula_moiety         'C10 H7 Cl2 N1'
_chemical_name_systematic        2-Chloro-3-(chloromethyl)quinoline
_symmetry_cell_setting           monoclinic
_symmetry_space_group_name_H-M   'P 21/c'
_symmetry_Int_Tables_number      14
_space_group_name_Hall           '-P 2ybc'
loop_
_symmetry_equiv_pos_site_id
_symmetry_equiv_pos_as_xyz
1 x,y,z
2 -x,1/2+y,1/2-z
3 -x,-y,-z
4 x,1/2-y,1/2+z
_cell_length_a                   6.7595(5)
_cell_length_b                   20.640(2)
_cell_length_c                   7.4799(6)
_cell_angle_alpha                90
_cell_angle_beta                 116.139(1)
_cell_angle_gamma                90
_cell_volume                     936.839
_exptl_crystal_colour            colorless
_exptl_crystal_description       needles
_chemical_melting_point          '112.5-113.5 deg.C'
_cell_formula_units_Z            4
_exptl_crystal_recrystallization_method hexanes
loop_
_atom_site_label
_atom_site_type_symbol
_atom_site_fract_x
_atom_site_fract_y
_atom_site_fract_z
Cl1 Cl 0.7109(1) 0.3193(1) 0.4054(1)
Cl2 Cl 0.1336(1) 0.2911(1) 0.0958(1)
N1 N 0.7036(2) 0.4410(1) 0.3274(2)
C1 C 0.5804(3) 0.3940(1) 0.3350(3)
C2 C 0.3553(3) 0.3987(1) 0.2950(2)
C3 C 0.2621(3) 0.4582(1) 0.2423(2)
C4 C 0.3844(3) 0.5116(1) 0.2280(2)
C5 C 0.2963(3) 0.5748(1) 0.1730(3)
C6 C 0.4261(4) 0.6237(1) 0.1636(3)
C7 C 0.6475(4) 0.6131(1) 0.2112(3)
C8 C 0.73844 0.5531(1) 0.2665(3)
C9 C 0.6078(3) 0.5007(1) 0.2735(2)
C10 C 0.2272(3) 0.3423(1) 0.3128(3)
H1 H 0.1151 0.4638 0.2151
H2 H 0.1497 0.5828 0.1434
H3 H 0.3663 0.6648 0.1248
H4 H 0.7339 0.6473 0.2051
H5 H 0.8868 0.5467 0.2997
H6 H 0.1010 0.3578 0.3297
H7 H 0.3190 0.3172 0.4298
loop_
_geom_bond_atom_site_label_1
_geom_bond_atom_site_label_2
_geom_bond_site_symmetry_1
_geom_bond_site_symmetry_2
Cl1 C1 1_555 1_555
Cl2 C10 1_555 1_555
N1 C1 1_555 1_555
C1 C2 1_555 1_555
C2 C3 1_555 1_555
C3 C4 1_555 1_555
C4 C5 1_555 1_555
C5 C6 1_555 1_555
C6 C7 1_555 1_555
C7 C8 1_555 1_555
C8 C9 1_555 1_555
C9 N1 1_555 1_555
C10 C2 1_555 1_555
H1 C3 1_555 1_555
H2 C5 1_555 1_555
H3 C6 1_555 1_555
H4 C7 1_555 1_555
H5 C8 1_555 1_555
H6 C10 1_555 1_555
H7 C10 1_555 1_555
C4 C9 1_555 1_555

#END
