
#######################################################################
#
#                 Cambridge Crystallographic Data Centre
#                                CCDC 
#
#######################################################################
#
# If this CIF has been generated from an entry in the Cambridge 
# Structural Database, then it will include bibliographic, chemical, 
# crystal, experimental, refinement or atomic coordinate data resulting 
# from the CCDC's data processing and validation procedures.
#
#######################################################################

data_ATEFEM
_chemical_formula_moiety         'C21 H19 Br1 N2 O4'
_chemical_name_systematic        
'methyl 2-(4-bromophenyl)-2-(2-methyl-5-phenyl-1H-pyrrol-3-yl)-3-nitropropanoate'
_symmetry_cell_setting           orthorhombic
_symmetry_space_group_name_H-M   'P 21 21 21'
_symmetry_Int_Tables_number      19
_space_group_name_Hall           'P 2ac 2ab'
loop_
_symmetry_equiv_pos_site_id
_symmetry_equiv_pos_as_xyz
1 x,y,z
2 1/2-x,-y,1/2+z
3 -x,1/2+y,1/2-z
4 1/2+x,1/2-y,-z
_cell_length_a                   8.4058(3)
_cell_length_b                   10.8659(4)
_cell_length_c                   21.9188(9)
_cell_angle_alpha                90
_cell_angle_beta                 90
_cell_angle_gamma                90
_cell_volume                     2001.99
_exptl_crystal_colour            yellow
_exptl_crystal_description       Block
_cell_formula_units_Z            4
_exptl_crystal_recrystallization_method n-Hexane
loop_
_atom_site_label
_atom_site_type_symbol
_atom_site_fract_x
_atom_site_fract_y
_atom_site_fract_z
Br1 Br 0.97087(5) 0.08586(4) 0.01664(2)
O1 O 1.3332(3) 0.6155(3) -0.11898(14)
O2 O 1.1465(3) 0.6959(3) -0.05880(13)
O3 O 1.1691(4) 0.7310(3) -0.23341(17)
O4 O 0.9871(4) 0.6336(3) -0.28323(14)
C1 C 1.0589(4) 0.5616(3) -0.13768(15)
C2 C 1.1952(4) 0.6292(3) -0.10613(18)
C3 C 1.2703(5) 0.7536(4) -0.0220(2)
H1 H 1.2212 0.8001 0.0113
H2 H 1.3328 0.8096 -0.0476
H3 H 1.3402 0.6900 -0.0051
C4 C 1.1106(5) 0.5297(4) -0.20377(17)
H4 H 1.2239 0.5047 -0.2042
H5 H 1.0462 0.4601 -0.2193
C5 C 1.0425(4) 0.4417(3) -0.10051(16)
C6 C 0.9658(4) 0.4461(3) -0.04408(17)
H6 H 0.9264 0.5225 -0.0294
C7 C 0.9463(5) 0.3416(4) -0.00927(19)
H7 H 0.8930 0.3455 0.0289
C8 C 1.0055(4) 0.2304(3) -0.03074(16)
C9 C 1.0822(5) 0.2242(4) -0.08501(18)
H8 H 1.1220 0.1477 -0.0993
C10 C 1.1024(4) 0.3298(4) -0.11955(18)
H9 H 1.1586 0.3252 -0.1571
C11 C 0.9048(4) 0.6339(3) -0.14003(16)
C12 C 0.8859(4) 0.7640(3) -0.13961(17)
H10 H 0.9687 0.8223 -0.1335
C13 C 0.7278(4) 0.7919(4) -0.14945(17)
C14 C 0.7551(4) 0.5845(4) -0.15215(16)
C15 C 0.6990(4) 0.4549(3) -0.1608(2)
H11 H 0.5842 0.4548 -0.1687
H12 H 0.7212 0.4072 -0.1238
H13 H 0.7548 0.4179 -0.1955
C16 C 0.7173(5) 1.0152(4) -0.1302(2)
H14 H 0.8189 1.0089 -0.1115
C17 C 0.6446(6) 1.1285(4) -0.1339(2)
H15 H 0.6959 1.1993 -0.1178
C18 C 0.4965(5) 1.1390(4) -0.1612(2)
H16 H 0.4470 1.2173 -0.1646
C19 C 0.4221(5) 1.0369(5) -0.1829(2)
H17 H 0.3194 1.0442 -0.2006
C20 C 0.4953(4) 0.9210(4) -0.17954(19)
H18 H 0.4427 0.8502 -0.1951
C21 C 0.6460(4) 0.9105(4) -0.15312(17)
N1 N 1.0876(5) 0.6400(4) -0.24382(17)
N2 N 0.6521(4) 0.6806(3) -0.15742(14)
H19 H 0.5498 0.6727 -0.1650
loop_
_geom_bond_atom_site_label_1
_geom_bond_atom_site_label_2
_geom_bond_site_symmetry_1
_geom_bond_site_symmetry_2
Br1 C8 1_555 1_555
O1 C2 1_555 1_555
O2 C2 1_555 1_555
O3 N1 1_555 1_555
O4 N1 1_555 1_555
C1 C2 1_555 1_555
C3 O2 1_555 1_555
H1 C3 1_555 1_555
H2 C3 1_555 1_555
H3 C3 1_555 1_555
C4 C1 1_555 1_555
H4 C4 1_555 1_555
H5 C4 1_555 1_555
C5 C1 1_555 1_555
C6 C5 1_555 1_555
H6 C6 1_555 1_555
C7 C6 1_555 1_555
H7 C7 1_555 1_555
C8 C7 1_555 1_555
C9 C8 1_555 1_555
H8 C9 1_555 1_555
C10 C5 1_555 1_555
H9 C10 1_555 1_555
C11 C1 1_555 1_555
C12 C11 1_555 1_555
H10 C12 1_555 1_555
C13 C12 1_555 1_555
C14 C11 1_555 1_555
C15 C14 1_555 1_555
H11 C15 1_555 1_555
H12 C15 1_555 1_555
H13 C15 1_555 1_555
C16 H14 1_555 1_555
C17 C16 1_555 1_555
H15 C17 1_555 1_555
C18 C17 1_555 1_555
H16 C18 1_555 1_555
C19 C18 1_555 1_555
H17 C19 1_555 1_555
C20 C19 1_555 1_555
H18 C20 1_555 1_555
C21 C13 1_555 1_555
N1 C4 1_555 1_555
N2 C13 1_555 1_555
H19 N2 1_555 1_555
C9 C10 1_555 1_555
C14 N2 1_555 1_555
C16 C21 1_555 1_555
C20 C21 1_555 1_555

#END
