
#######################################################################
#
#                 Cambridge Crystallographic Data Centre
#                                CCDC 
#
#######################################################################
#
# If this CIF has been generated from an entry in the Cambridge 
# Structural Database, then it will include bibliographic, chemical, 
# crystal, experimental, refinement or atomic coordinate data resulting 
# from the CCDC's data processing and validation procedures.
#
#######################################################################

data_ATEHUC01
_chemical_formula_moiety         'C90 H41 F15 N6,0.5(C16 H26),C6 H6'
_chemical_name_systematic        
'meso-5,15,25-tris(9-anthryl)-10,20,30-tris(pentafluorophenyl)[26]hexaphyrin(1.1.1.1.1.1) 1,4-dipentylbenzene benzene solvate'
_symmetry_cell_setting           triclinic
_symmetry_space_group_name_H-M   'P -1'
_symmetry_Int_Tables_number      2
_space_group_name_Hall           '-P 1'
loop_
_symmetry_equiv_pos_site_id
_symmetry_equiv_pos_as_xyz
1 x,y,z
2 -x,-y,-z
_cell_length_a                   15.722(7)
_cell_length_b                   17.056(4)
_cell_length_c                   17.622(7)
_cell_angle_alpha                79.99(2)
_cell_angle_beta                 64.28(1)
_cell_angle_gamma                72.74(2)
_cell_volume                     4059.96
_exptl_crystal_colour            green
_exptl_crystal_description       prism
_cell_formula_units_Z            2
_exptl_crystal_preparation       fluorescent
loop_
_atom_site_label
_atom_site_type_symbol
_atom_site_fract_x
_atom_site_fract_y
_atom_site_fract_z
F1 F 0.6444(3) 0.7881(2) 0.5932(2)
F2 F 0.7251(3) 0.9101(2) 0.5825(2)
F3 F 0.6387(3) 1.0193(2) 0.7042(2)
F4 F 0.4732(3) 1.0052(2) 0.8383(2)
F5 F 0.3915(3) 0.8833(2) 0.8513(2)
F6 F 0.1098(3) 0.4937(2) 0.5557(2)
F7 F 0.0260(4) 0.5783(3) 0.4512(3)
F8 F -0.1309(4) 0.7085(3) 0.5070(3)
F9 F -0.2003(3) 0.7560(2) 0.6669(3)
F10 F -0.1167(3) 0.6713(2) 0.7713(3)
F11 F 0.5731(3) 0.1884(2) 0.7413(2)
F12 F 0.7025(3) 0.0975(2) 0.8041(2)
F13 F 0.6480(3) 0.0715(3) 0.9725(3)
F14 F 0.4605(3) 0.1405(3) 1.0793(3)
F15 F 0.3320(3) 0.2297(2) 1.0168(2)
N1 N 0.4886(4) 0.6146(3) 0.7504(3)
N2 N 0.3261(3) 0.7315(3) 0.7337(3)
N3 N 0.1103(4) 0.6445(3) 0.7041(3)
N4 N 0.0816(4) 0.3884(3) 0.7838(3)
N5 N 0.2208(4) 0.2786(3) 0.8333(3)
N6 N 0.4744(4) 0.3560(3) 0.8111(3)
C1 C 0.5581(4) 0.5450(3) 0.7591(4)
C2 C 0.6368(4) 0.5732(3) 0.7563(4)
C3 C 0.6142(5) 0.6557(3) 0.7458(4)
C4 C 0.5206(4) 0.6825(3) 0.7421(4)
C5 C 0.4684(4) 0.7635(3) 0.7313(4)
C6 C 0.3783(4) 0.7852(3) 0.7268(4)
C7 C 0.3286(4) 0.8689(3) 0.7087(4)
C8 C 0.2480(4) 0.8646(3) 0.7046(4)
C9 C 0.2454(4) 0.7787(3) 0.7184(4)
C10 C 0.1755(4) 0.7488(3) 0.7129(4)
C11 C 0.1620(4) 0.6688(3) 0.7346(4)
C12 C 0.1854(4) 0.6076(3) 0.7976(4)
C13 C 0.1445(4) 0.5462(3) 0.8032(4)
C14 C 0.0991(4) 0.5687(3) 0.7430(4)
C15 C 0.0457(4) 0.5312(3) 0.7225(4)
C16 C 0.0307(4) 0.4515(3) 0.7492(4)
C17 C -0.0416(5) 0.4234(3) 0.7414(4)
C18 C -0.0336(5) 0.3439(3) 0.7728(4)
C19 C 0.0446(4) 0.3210(3) 0.7992(4)
C20 C 0.0841(4) 0.2431(3) 0.8285(4)
C21 C 0.1665(4) 0.2243(3) 0.8467(4)
C22 C 0.2079(4) 0.1461(3) 0.8768(4)
C23 C 0.2875(4) 0.1529(3) 0.8841(4)
C24 C 0.2965(4) 0.2360(3) 0.8539(4)
C25 C 0.3752(4) 0.2652(3) 0.8441(4)
C26 C 0.3968(4) 0.3399(3) 0.8079(4)
C27 C 0.3501(5) 0.4093(3) 0.7657(4)
C28 C 0.3971(5) 0.4672(3) 0.7493(4)
C29 C 0.4759(4) 0.4332(3) 0.7788(4)
C30 C 0.5518(4) 0.4641(3) 0.7740(4)
C31 C 0.5149(4) 0.8309(3) 0.7229(4)
C32 C 0.6009(4) 0.8405(3) 0.6541(4)
C33 C 0.6423(4) 0.9025(3) 0.6484(4)
C34 C 0.5987(4) 0.9586(3) 0.7089(4)
C35 C 0.5138(4) 0.9512(3) 0.7783(4)
C36 C 0.4743(4) 0.8883(3) 0.7831(4)
C37 C -0.0299(5) 0.8066(3) 0.8235(4)
C38 C -0.1251(5) 0.8310(4) 0.8740(5)
C39 C -0.1939(5) 0.8774(4) 0.8428(5)
C40 C -0.1653(5) 0.8971(4) 0.7589(5)
C41 C 0.0962(5) 0.9052(4) 0.4757(4)
C42 C 0.1912(6) 0.8891(4) 0.4249(4)
C43 C 0.2609(5) 0.8439(4) 0.4541(4)
C44 C 0.2359(5) 0.8141(4) 0.5360(4)
C45 C 0.1040(4) 0.8058(3) 0.6806(4)
C46 C -0.0352(5) 0.8958(3) 0.6180(4)
C47 C 0.1352(5) 0.8323(3) 0.5950(4)
C48 C 0.0636(5) 0.8785(3) 0.5631(4)
C49 C -0.0661(5) 0.8732(3) 0.7020(4)
C50 C 0.0050(4) 0.8273(3) 0.7355(4)
C51 C -0.0019(5) 0.5793(3) 0.6674(4)
C52 C 0.0316(5) 0.5574(4) 0.5862(4)
C53 C -0.0113(6) 0.6009(4) 0.5314(5)
C54 C -0.0907(6) 0.6674(4) 0.5611(5)
C55 C -0.1232(5) 0.6903(4) 0.6402(5)
C56 C -0.0800(5) 0.6470(4) 0.6926(4)
C57 C 0.1310(5) 0.1652(3) 0.6778(4)
C58 C 0.1555(5) 0.1288(4) 0.6065(4)
C59 C 0.1138(5) 0.0651(3) 0.6073(4)
C60 C 0.0492(4) 0.0394(3) 0.6818(4)
C61 C -0.1275(4) 0.0517(4) 0.9899(4)
C62 C -0.1508(5) 0.0851(4) 1.0624(4)
C63 C -0.1126(5) 0.1503(4) 1.0616(4)
C64 C -0.0515(4) 0.1802(3) 0.9888(4)
C65 C 0.0400(4) 0.1751(3) 0.8331(4)
C66 C -0.0396(4) 0.0467(3) 0.8369(4)
C67 C 0.0643(4) 0.1392(3) 0.7576(4)
C68 C 0.0241(4) 0.0742(3) 0.7596(4)
C69 C -0.0244(4) 0.1465(3) 0.9105(4)
C70 C -0.0639(4) 0.0809(3) 0.9118(4)
C71 C 0.4471(4) 0.2107(3) 0.8777(4)
C72 C 0.5438(5) 0.1764(3) 0.8250(4)
C73 C 0.6104(4) 0.1301(3) 0.8571(4)
C74 C 0.5831(5) 0.1174(4) 0.9419(4)
C75 C 0.4893(5) 0.1507(4) 0.9953(4)
C76 C 0.4234(5) 0.1965(4) 0.9623(4)
C77 C 0.7195(5) 0.3884(4) 0.6298(4)
C78 C 0.7945(6) 0.3503(4) 0.5622(5)
C79 C 0.8674(6) 0.2832(4) 0.5729(5)
C80 C 0.8637(5) 0.2562(4) 0.6493(6)
C81 C 0.6921(6) 0.2662(4) 0.9587(5)
C82 C 0.6170(6) 0.2997(4) 1.0271(5)
C83 C 0.5438(6) 0.3690(4) 1.0194(4)
C84 C 0.5495(5) 0.4025(4) 0.9416(4)
C85 C 0.6357(4) 0.3985(3) 0.7851(4)
C86 C 0.7782(5) 0.2615(4) 0.8029(5)
C87 C 0.6296(4) 0.3684(3) 0.8654(4)
C88 C 0.7023(5) 0.2979(3) 0.8751(4)
C89 C 0.7121(5) 0.3614(3) 0.7139(4)
C90 C 0.7856(5) 0.2923(3) 0.7231(5)
H1 H 0.6944(4) 0.5393(3) 0.7612(4)
H2 H 0.6533(5) 0.6905(3) 0.7421(4)
H3 H 0.3501(4) 0.9172(3) 0.7018(4)
H4 H 0.2004(4) 0.9093(3) 0.6945(4)
H5 H 0.2220(4) 0.6106(3) 0.8275(4)
H6 H 0.1453(4) 0.4977(3) 0.8391(4)
H7 H -0.0874(5) 0.4543(3) 0.7189(4)
H8 H -0.0733(5) 0.3096(3) 0.7767(4)
H9 H 0.1842(4) 0.0982(3) 0.8891(4)
H10 H 0.3294(4) 0.1119(3) 0.9048(4)
H11 H 0.2962(5) 0.4120(3) 0.7534(4)
H12 H 0.3837(5) 0.5200(3) 0.7227(4)
H13 H 0.1340(4) 0.3908(3) 0.7960(3)
H14 H 0.4283(4) 0.6144(3) 0.7504(3)
H15 H 0.2843(5) 0.7813(4) 0.5547(4)
H16 H 0.3280(5) 0.8327(4) 0.4168(4)
H17 H 0.2111(6) 0.9092(4) 0.3676(4)
H18 H 0.0494(5) 0.9351(4) 0.4539(4)
H19 H -0.0822(5) 0.9233(3) 0.5957(4)
H20 H -0.2123(5) 0.9278(4) 0.7377(5)
H21 H -0.2608(5) 0.8949(4) 0.8794(5)
H22 H -0.1461(5) 0.8164(4) 0.9327(5)
H23 H 0.0155(5) 0.7754(3) 0.8462(4)
H24 H 0.1586(5) 0.2087(3) 0.6750(4)
H25 H 0.2013(5) 0.1463(4) 0.5547(4)
H26 H 0.1305(5) 0.0410(3) 0.5564(4)
H27 H 0.0208(4) -0.0028(3) 0.6826(4)
H28 H -0.0670(4) 0.0035(3) 0.8385(4)
H29 H -0.1538(4) 0.0078(4) 0.9909(4)
H30 H -0.1934(5) 0.0647(4) 1.1143(4)
H31 H -0.1292(5) 0.1733(4) 1.1131(4)
H32 H -0.0263(4) 0.2242(3) 0.9894(4)
H33 H 0.6709(5) 0.4340(4) 0.6224(4)
H34 H 0.7979(6) 0.3685(4) 0.5071(5)
H35 H 0.9204(6) 0.2571(4) 0.5251(5)
H36 H 0.9142(5) 0.2116(4) 0.6552(6)
H37 H 0.8258(5) 0.2145(4) 0.8094(5)
H38 H 0.7407(6) 0.2199(4) 0.9647(5)
H39 H 0.6127(6) 0.2770(4) 1.0814(5)
H40 H 0.4900(6) 0.3924(4) 1.0682(4)
H41 H 0.5006(5) 0.4491(4) 0.9367(4)
C91 C 0.2693(7) 0.5230(5) 1.0043(6)
C92 C 0.1839(6) 0.5807(5) 1.0123(5)
C93 C 0.1029(6) 0.5572(5) 1.0262(5)
C94 C 0.1047(6) 0.4754(4) 1.0324(5)
C95 C 0.1884(7) 0.4164(5) 1.0239(5)
C96 C 0.2720(7) 0.4406(6) 1.0095(6)
H42 H 0.3258(7) 0.5396(5) 0.9949(6)
H43 H 0.1821(6) 0.6374(5) 1.0076(5)
H44 H 0.0442(6) 0.5976(5) 1.0320(5)
H45 H 0.0479(6) 0.4601(4) 1.0404(5)
H46 H 0.1893(7) 0.3598(5) 1.0295(5)
H47 H 0.3310(7) 0.4007(6) 1.0041(6)
C97 C 0.535(1) 0.0679(8) 0.5157(9)
C98 C 0.5894(8) 0.0021(7) 0.4740(9)
C99 C 0.4492(7) 0.0466(8) 0.5368(7)
C100 C 0.384(1) 0.0796(9) 0.6145(6)
C101 C 0.446(2) 0.135(1) 0.628(1)
C102 C 0.442(1) 0.215(1) 0.578(1)
C103 C 0.379(1) 0.2893(9) 0.599(1)
C104 C 0.337(2) 0.3404(8) 0.548(1)
C97A C 0.465(1) -0.0679(8) 0.4843(9)
C98A C 0.4106(8) -0.0021(7) 0.5260(9)
C99A C 0.5508(7) -0.0466(8) 0.4632(7)
C100A C 0.616(1) -0.0796(9) 0.3855(6)
C101A C 0.554(2) -0.135(1) 0.372(1)
C102A C 0.558(1) -0.215(1) 0.422(1)
C103A C 0.621(1) -0.2893(9) 0.401(1)
C104A C 0.663(2) -0.3404(8) 0.452(1)
loop_
_geom_bond_atom_site_label_1
_geom_bond_atom_site_label_2
_geom_bond_site_symmetry_1
_geom_bond_site_symmetry_2
F1 C32 1_555 1_555
F2 C33 1_555 1_555
F3 C34 1_555 1_555
F4 C35 1_555 1_555
F5 C36 1_555 1_555
F6 C52 1_555 1_555
F7 C53 1_555 1_555
F8 C54 1_555 1_555
F9 C55 1_555 1_555
F10 C56 1_555 1_555
F11 C72 1_555 1_555
F12 C73 1_555 1_555
F13 C74 1_555 1_555
F14 C75 1_555 1_555
F15 C76 1_555 1_555
N1 C1 1_555 1_555
N2 C6 1_555 1_555
N3 C11 1_555 1_555
N4 C16 1_555 1_555
N5 C21 1_555 1_555
N6 C26 1_555 1_555
C1 C2 1_555 1_555
C2 C3 1_555 1_555
C3 C4 1_555 1_555
C4 N1 1_555 1_555
C5 C4 1_555 1_555
C6 C5 1_555 1_555
C7 C6 1_555 1_555
C8 C7 1_555 1_555
C9 N2 1_555 1_555
C10 C9 1_555 1_555
C11 C10 1_555 1_555
C12 C11 1_555 1_555
C13 C12 1_555 1_555
C14 N3 1_555 1_555
C15 C14 1_555 1_555
C16 C15 1_555 1_555
C17 C16 1_555 1_555
C18 C17 1_555 1_555
C19 N4 1_555 1_555
C20 C19 1_555 1_555
C21 C20 1_555 1_555
C22 C21 1_555 1_555
C23 C22 1_555 1_555
C24 N5 1_555 1_555
C25 C24 1_555 1_555
C26 C25 1_555 1_555
C27 C26 1_555 1_555
C28 C27 1_555 1_555
C29 N6 1_555 1_555
C30 C1 1_555 1_555
C31 C5 1_555 1_555
C32 C31 1_555 1_555
C33 C32 1_555 1_555
C34 C33 1_555 1_555
C35 C34 1_555 1_555
C36 C31 1_555 1_555
C37 C38 1_555 1_555
C38 C39 1_555 1_555
C39 C40 1_555 1_555
C40 C49 1_555 1_555
C41 C42 1_555 1_555
C42 C43 1_555 1_555
C43 C44 1_555 1_555
C44 C47 1_555 1_555
C45 C10 1_555 1_555
C46 C48 1_555 1_555
C47 C45 1_555 1_555
C48 C41 1_555 1_555
C49 C46 1_555 1_555
C50 C37 1_555 1_555
C51 C15 1_555 1_555
C52 C51 1_555 1_555
C53 C52 1_555 1_555
C54 C53 1_555 1_555
C55 C54 1_555 1_555
C56 C51 1_555 1_555
C57 C58 1_555 1_555
C58 C59 1_555 1_555
C59 C60 1_555 1_555
C60 C68 1_555 1_555
C61 C62 1_555 1_555
C62 C63 1_555 1_555
C63 C64 1_555 1_555
C64 C69 1_555 1_555
C65 C20 1_555 1_555
C66 C68 1_555 1_555
C67 C57 1_555 1_555
C68 C67 1_555 1_555
C69 C65 1_555 1_555
C70 C61 1_555 1_555
C71 C25 1_555 1_555
C72 C71 1_555 1_555
C73 C72 1_555 1_555
C74 C73 1_555 1_555
C75 C74 1_555 1_555
C76 C71 1_555 1_555
C77 C78 1_555 1_555
C78 C79 1_555 1_555
C79 C80 1_555 1_555
C80 C90 1_555 1_555
C81 C82 1_555 1_555
C82 C83 1_555 1_555
C83 C84 1_555 1_555
C84 C87 1_555 1_555
C85 C30 1_555 1_555
C86 C88 1_555 1_555
C87 C85 1_555 1_555
C88 C81 1_555 1_555
C89 C77 1_555 1_555
C90 C86 1_555 1_555
C91 C92 1_555 1_555
C92 C93 1_555 1_555
C93 C94 1_555 1_555
C94 C95 1_555 1_555
C95 C96 1_555 1_555
C96 C91 1_555 1_555
C97 C98 1_555 1_555
C98 C99A 1_555 1_555
C99 C97 1_555 1_555
C100 C99 1_555 1_555
C101 C100 1_555 1_555
C102 C101 1_555 1_555
C103 C102 1_555 1_555
C104 C103 1_555 1_555
H1 C2 1_555 1_555
H2 C3 1_555 1_555
H3 C7 1_555 1_555
H4 C8 1_555 1_555
H5 C12 1_555 1_555
H6 C13 1_555 1_555
H7 C17 1_555 1_555
H8 C18 1_555 1_555
H9 C22 1_555 1_555
H10 C23 1_555 1_555
H11 C27 1_555 1_555
H12 C28 1_555 1_555
H13 N4 1_555 1_555
H14 N1 1_555 1_555
H15 C44 1_555 1_555
H16 C43 1_555 1_555
H17 C42 1_555 1_555
H18 C41 1_555 1_555
H19 C46 1_555 1_555
H20 C40 1_555 1_555
H21 C39 1_555 1_555
H22 C38 1_555 1_555
H23 C37 1_555 1_555
H24 C57 1_555 1_555
H25 C58 1_555 1_555
H26 C59 1_555 1_555
H27 C60 1_555 1_555
H28 C66 1_555 1_555
H29 C61 1_555 1_555
H30 C62 1_555 1_555
H31 C63 1_555 1_555
H32 C64 1_555 1_555
H33 C77 1_555 1_555
H34 C78 1_555 1_555
H35 C79 1_555 1_555
H36 C80 1_555 1_555
H37 C86 1_555 1_555
H38 C81 1_555 1_555
H39 C82 1_555 1_555
H40 C83 1_555 1_555
H41 C84 1_555 1_555
H42 C91 1_555 1_555
H43 C92 1_555 1_555
H44 C93 1_555 1_555
H45 C94 1_555 1_555
H46 C95 1_555 1_555
H47 C96 1_555 1_555
C97A C98A 1_555 1_555
C98A C99 1_555 1_555
C99A C97A 1_555 1_555
C100A C99A 1_555 1_555
C101A C100A 1_555 1_555
C102A C101A 1_555 1_555
C103A C102A 1_555 1_555
C104A C103A 1_555 1_555
C8 C9 1_555 1_555
C13 C14 1_555 1_555
C18 C19 1_555 1_555
C23 C24 1_555 1_555
C28 C29 1_555 1_555
C29 C30 1_555 1_555
C35 C36 1_555 1_555
C45 C50 1_555 1_555
C47 C48 1_555 1_555
C49 C50 1_555 1_555
C55 C56 1_555 1_555
C65 C67 1_555 1_555
C66 C70 1_555 1_555
C69 C70 1_555 1_555
C75 C76 1_555 1_555
C85 C89 1_555 1_555
C87 C88 1_555 1_555
C89 C90 1_555 1_555

#END
