
#######################################################################
#
#                 Cambridge Crystallographic Data Centre
#                                CCDC 
#
#######################################################################
#
# If this CIF has been generated from an entry in the Cambridge 
# Structural Database, then it will include bibliographic, chemical, 
# crystal, experimental, refinement or atomic coordinate data resulting 
# from the CCDC's data processing and validation procedures.
#
#######################################################################

data_ATEHAJ
_chemical_formula_moiety         'C29 H23 Cl1 I1 N1 O3 S1'
_chemical_name_systematic        
N-(3-(4-Chlorophenyl)-2-iodo-6-methoxy-1-phenyl-1H-inden-1-yl)-4-methylbenzenesulfonamide
_symmetry_cell_setting           triclinic
_symmetry_space_group_name_H-M   'P -1'
_symmetry_Int_Tables_number      2
_space_group_name_Hall           '-P 1'
loop_
_symmetry_equiv_pos_site_id
_symmetry_equiv_pos_as_xyz
1 x,y,z
2 -x,-y,-z
_cell_length_a                   13.5075(6)
_cell_length_b                   14.2341(7)
_cell_length_c                   14.5006(5)
_cell_angle_alpha                89.032(3)
_cell_angle_beta                 85.245(3)
_cell_angle_gamma                72.767(4)
_cell_volume                     2653.58
_exptl_crystal_colour            colorless
_exptl_crystal_description       platelet
_cell_formula_units_Z            4
loop_
_atom_site_label
_atom_site_type_symbol
_atom_site_fract_x
_atom_site_fract_y
_atom_site_fract_z
I1 I 0.64153(2) -0.281172(19) 0.057180(18)
Cl1 Cl 0.78018(12) -0.74261(8) -0.17852(9)
S1 S 0.54909(7) -0.07029(7) -0.15006(7)
O1 O 0.9289(2) -0.0882(2) -0.37870(18)
O2 O 0.5565(2) -0.16417(18) -0.18718(19)
O3 O 0.4535(2) -0.0152(2) -0.09997(19)
N1 N 0.6378(2) -0.0782(2) -0.0791(2)
H1 H 0.6254 -0.0337 -0.0367
C1 C 0.9130(4) 0.0114(3) -0.3559(3)
H3 H 0.9415 0.0427 -0.4061
H4 H 0.9468 0.0154 -0.3010
H5 H 0.8398 0.0438 -0.3451
C2 C 0.8755(3) -0.3066(3) -0.2850(2)
H6 H 0.8907 -0.3725 -0.3018
C3 C 0.9122(3) -0.2429(3) -0.3407(2)
H7 H 0.9529 -0.2664 -0.3952
C4 C 0.8893(3) -0.1441(3) -0.3168(3)
C5 C 0.8312(3) -0.1090(3) -0.2342(2)
H8 H 0.8168 -0.0435 -0.2166
C6 C 0.7956(3) -0.1734(3) -0.1792(2)
C7 C 0.8155(3) -0.2714(3) -0.2035(2)
C8 C 0.7685(3) -0.3226(2) -0.1306(2)
C9 C 0.7257(3) -0.2579(3) -0.0625(2)
C10 C 0.7377(3) -0.1557(2) -0.0821(2)
C11 C 0.7683(3) -0.4253(3) -0.1390(2)
C12 C 0.7266(3) -0.4551(3) -0.2140(3)
H9 H 0.6965 -0.4086 -0.2572
C13 C 0.7286(3) -0.5514(3) -0.2258(3)
H10 H 0.7006 -0.5699 -0.2765
C14 C 0.7726(3) -0.6194(3) -0.1617(3)
C15 C 0.8122(3) -0.5933(3) -0.0858(3)
H11 H 0.8404 -0.6402 -0.0422
C16 C 0.8098(3) -0.4966(3) -0.0746(3)
H12 H 0.8366 -0.4786 -0.0229
C17 C 0.8070(3) -0.1266(3) -0.0163(2)
C18 C 0.8023(3) -0.0293(3) -0.0041(3)
H13 H 0.7535 0.0198 -0.0333
C19 C 0.8690(4) -0.0044(4) 0.0509(3)
H14 H 0.8652 0.0613 0.0585
C20 C 0.9411(4) -0.0758(4) 0.0945(3)
H15 H 0.9861 -0.0588 0.1318
C21 C 0.9464(3) -0.1716(4) 0.0828(3)
H16 H 0.9952 -0.2203 0.1123
C22 C 0.8799(3) -0.1978(3) 0.0275(3)
H17 H 0.8847 -0.2637 0.0199
C23 C 0.5760(3) 0.0027(2) -0.2422(3)
C24 C 0.5838(4) -0.0306(3) -0.3310(3)
H18 H 0.5752 -0.0916 -0.3427
C25 C 0.6044(4) 0.0271(4) -0.4038(3)
H19 H 0.6107 0.0036 -0.4641
C26 C 0.6158(3) 0.1173(3) -0.3889(3)
C27 C 0.6064(3) 0.1502(3) -0.2994(4)
H20 H 0.6138 0.2117 -0.2881
C28 C 0.5862(3) 0.0942(3) -0.2258(3)
H21 H 0.5796 0.1181 -0.1655
C29 C 0.6410(4) 0.1783(4) -0.4684(4)
H22 H 0.6189 0.2464 -0.4505
H23 H 0.6054 0.1695 -0.5208
H24 H 0.7147 0.1577 -0.4846
I2 I 0.63983(2) 0.709503(19) 0.555876(18)
Cl2 Cl 0.79829(12) 1.08802(8) 0.30859(10)
S2 S 0.54811(7) 0.55134(7) 0.35124(7)
O4 O 0.9260(2) 0.3582(2) 0.12787(18)
O5 O 0.5588(2) 0.63890(17) 0.30891(19)
O6 O 0.45171(19) 0.5532(2) 0.40200(18)
N2 N 0.6351(2) 0.5105(2) 0.42386(19)
H2 H 0.6213 0.4740 0.4680
C30 C 0.9054(3) 0.2683(3) 0.1528(3)
H25 H 0.9364 0.2198 0.1054
H26 H 0.8316 0.2787 0.1594
H27 H 0.9342 0.2458 0.2103
C31 C 0.8879(3) 0.4361(3) 0.1881(2)
C32 C 0.9114(3) 0.5215(3) 0.1622(2)
H28 H 0.9524 0.5222 0.1075
C33 C 0.8754(3) 0.6054(3) 0.2159(2)
H29 H 0.8917 0.6624 0.1978
C34 C 0.8148(3) 0.6037(3) 0.2971(2)
C35 C 0.7944(3) 0.5167(2) 0.3243(2)
C36 C 0.8300(3) 0.4323(3) 0.2711(2)
H30 H 0.8159 0.3746 0.2902
C37 C 0.7362(3) 0.5307(2) 0.4205(2)
C38 C 0.7249(3) 0.6396(2) 0.4376(2)
C39 C 0.7681(3) 0.6802(2) 0.3687(2)
C40 C 0.7698(3) 0.7833(3) 0.3583(2)
C41 C 0.7306(3) 0.8373(3) 0.2814(3)
H31 H 0.7000 0.8092 0.2386
C42 C 0.7365(3) 0.9311(3) 0.2678(3)
H32 H 0.7088 0.9669 0.2169
C43 C 0.7832(3) 0.9716(3) 0.3295(3)
C44 C 0.8206(3) 0.9214(3) 0.4064(3)
H33 H 0.8508 0.9502 0.4490
C45 C 0.8131(3) 0.8279(3) 0.4205(3)
H34 H 0.8380 0.7941 0.4733
C46 C 0.8031(3) 0.4611(3) 0.4886(2)
C47 C 0.8725(3) 0.4908(3) 0.5364(3)
H35 H 0.8769 0.5545 0.5294
C48 C 0.9357(3) 0.4271(4) 0.5946(3)
H36 H 0.9819 0.4483 0.6268
C49 C 0.9309(3) 0.3332(4) 0.6054(3)
H37 H 0.9737 0.2904 0.6447
C50 C 0.8625(4) 0.3026(3) 0.5577(3)
H38 H 0.8589 0.2386 0.5647
C51 C 0.7986(3) 0.3662(3) 0.4991(3)
H39 H 0.7527 0.3446 0.4668
C52 C 0.5731(3) 0.4609(2) 0.2643(2)
C53 C 0.5832(4) 0.4862(3) 0.1732(3)
H40 H 0.5778 0.5509 0.1571
C54 C 0.6013(4) 0.4147(4) 0.1057(3)
H41 H 0.6081 0.4321 0.0439
C55 C 0.6095(3) 0.3196(4) 0.1270(4)
C56 C 0.5976(3) 0.2957(3) 0.2182(4)
H42 H 0.6016 0.2311 0.2339
C57 C 0.5800(3) 0.3651(3) 0.2873(3)
H43 H 0.5728 0.3475 0.3490
C58 C 0.6336(4) 0.2412(4) 0.0521(4)
H44 H 0.6193 0.1833 0.0770
H45 H 0.7056 0.2255 0.0300
H46 H 0.5911 0.2653 0.0019
loop_
_geom_bond_atom_site_label_1
_geom_bond_atom_site_label_2
_geom_bond_site_symmetry_1
_geom_bond_site_symmetry_2
I1 C9 1_555 1_555
I2 C38 1_555 1_555
Cl1 C14 1_555 1_555
Cl2 C43 1_555 1_555
S1 O2 1_555 1_555
S2 O5 1_555 1_555
O1 C1 1_555 1_555
O3 S1 1_555 1_555
O4 C30 1_555 1_555
O6 S2 1_555 1_555
N1 S1 1_555 1_555
H1 N1 1_555 1_555
N2 S2 1_555 1_555
H2 N2 1_555 1_555
C1 H3 1_555 1_555
H4 C1 1_555 1_555
H5 C1 1_555 1_555
C2 H6 1_555 1_555
C3 C2 1_555 1_555
H7 C3 1_555 1_555
C4 O1 1_555 1_555
C5 C4 1_555 1_555
H8 C5 1_555 1_555
C6 C5 1_555 1_555
C7 C2 1_555 1_555
C8 C7 1_555 1_555
C9 C8 1_555 1_555
C10 N1 1_555 1_555
C11 C8 1_555 1_555
C12 C11 1_555 1_555
H9 C12 1_555 1_555
C13 C12 1_555 1_555
H10 C13 1_555 1_555
C14 C13 1_555 1_555
C15 C14 1_555 1_555
H11 C15 1_555 1_555
C16 C11 1_555 1_555
H12 C16 1_555 1_555
C17 C10 1_555 1_555
C18 C17 1_555 1_555
H13 C18 1_555 1_555
C19 C18 1_555 1_555
H14 C19 1_555 1_555
C20 C19 1_555 1_555
H15 C20 1_555 1_555
C21 C20 1_555 1_555
H16 C21 1_555 1_555
C22 C17 1_555 1_555
H17 C22 1_555 1_555
C23 S1 1_555 1_555
C24 C23 1_555 1_555
H18 C24 1_555 1_555
C25 C24 1_555 1_555
H19 C25 1_555 1_555
C26 C25 1_555 1_555
C27 C26 1_555 1_555
H20 C27 1_555 1_555
C28 C23 1_555 1_555
H21 C28 1_555 1_555
C29 C26 1_555 1_555
H22 C29 1_555 1_555
H23 C29 1_555 1_555
H24 C29 1_555 1_555
C30 H25 1_555 1_555
H26 C30 1_555 1_555
H27 C30 1_555 1_555
C31 O4 1_555 1_555
C32 C31 1_555 1_555
H28 C32 1_555 1_555
C33 C32 1_555 1_555
H29 C33 1_555 1_555
C34 C33 1_555 1_555
C35 C34 1_555 1_555
C36 C31 1_555 1_555
H30 C36 1_555 1_555
C37 N2 1_555 1_555
C38 C37 1_555 1_555
C39 C34 1_555 1_555
C40 C39 1_555 1_555
C41 C40 1_555 1_555
H31 C41 1_555 1_555
C42 C41 1_555 1_555
H32 C42 1_555 1_555
C43 C42 1_555 1_555
C44 C43 1_555 1_555
H33 C44 1_555 1_555
C45 C40 1_555 1_555
H34 C45 1_555 1_555
C46 C37 1_555 1_555
C47 C46 1_555 1_555
H35 C47 1_555 1_555
C48 C47 1_555 1_555
H36 C48 1_555 1_555
C49 C48 1_555 1_555
H37 C49 1_555 1_555
C50 C49 1_555 1_555
H38 C50 1_555 1_555
C51 C46 1_555 1_555
H39 C51 1_555 1_555
C52 S2 1_555 1_555
C53 C52 1_555 1_555
H40 C53 1_555 1_555
C54 C53 1_555 1_555
H41 C54 1_555 1_555
C55 C54 1_555 1_555
C56 C55 1_555 1_555
H42 C56 1_555 1_555
C57 C52 1_555 1_555
H43 C57 1_555 1_555
C58 C55 1_555 1_555
H44 C58 1_555 1_555
H45 C58 1_555 1_555
H46 C58 1_555 1_555
C3 C4 1_555 1_555
C6 C7 1_555 1_555
C6 C10 1_555 1_555
C9 C10 1_555 1_555
C15 C16 1_555 1_555
C21 C22 1_555 1_555
C27 C28 1_555 1_555
C35 C36 1_555 1_555
C35 C37 1_555 1_555
C38 C39 1_555 1_555
C44 C45 1_555 1_555
C50 C51 1_555 1_555
C56 C57 1_555 1_555

#END
