
#######################################################################
#
#                 Cambridge Crystallographic Data Centre
#                                CCDC 
#
#######################################################################
#
# If this CIF has been generated from an entry in the Cambridge 
# Structural Database, then it will include bibliographic, chemical, 
# crystal, experimental, refinement or atomic coordinate data resulting 
# from the CCDC's data processing and validation procedures.
#
#######################################################################

data_ATEKUG
_chemical_formula_moiety         'C22 H25 N1 O7'
_chemical_name_systematic        
'Diethyl 2-(2-ethoxy-2-oxoethylidene)-9-methyl-2,3-dihydropyrano[2,3-b]indole-4,4(9H)-dicarboxylate'
_symmetry_cell_setting           monoclinic
_symmetry_space_group_name_H-M   'P 21'
_symmetry_Int_Tables_number      4
_space_group_name_Hall           'P 2yb'
loop_
_symmetry_equiv_pos_site_id
_symmetry_equiv_pos_as_xyz
1 x,y,z
2 -x,1/2+y,-z
_cell_length_a                   13.776(2)
_cell_length_b                   8.3633(13)
_cell_length_c                   18.579(3)
_cell_angle_alpha                90
_cell_angle_beta                 96.626(2)
_cell_angle_gamma                90
_cell_volume                     2126.24
_exptl_crystal_colour            colorless
_exptl_crystal_description       prismatic
_cell_formula_units_Z            4
loop_
_atom_site_label
_atom_site_type_symbol
_atom_site_fract_x
_atom_site_fract_y
_atom_site_fract_z
N1 N 0.74775(17) -0.1213(3) 0.18627(12)
O1 O 0.59548(14) 0.0027(3) 0.17716(10)
O2 O 0.5018(3) 0.1120(5) 0.29204(14)
O3 O 0.3675(3) 0.2603(4) 0.25482(14)
O4 O 0.66368(16) -0.0391(3) -0.06808(10)
O5 O 0.6007(2) 0.2067(3) -0.08599(10)
O6 O 0.61239(15) 0.4024(3) 0.06509(11)
O7 O 0.75781(14) 0.3302(2) 0.03179(11)
C1 C 0.8255(2) -0.1307(4) 0.14649(15)
C2 C 0.9134(2) -0.2139(4) 0.16244(19)
H1 H 0.9266 -0.2747 0.2057
C3 C 0.9801(2) -0.2040(5) 0.1128(2)
H2 H 1.0406 -0.2589 0.1222
C4 C 0.9609(2) -0.1152(5) 0.0489(2)
H3 H 1.0088 -0.1109 0.0160
C5 C 0.8736(2) -0.0333(4) 0.03271(16)
H4 H 0.8613 0.0272 -0.0106
C6 C 0.8037(2) -0.0421(4) 0.08179(14)
C7 C 0.70751(19) 0.0213(3) 0.08374(13)
C8 C 0.6786(2) -0.0299(3) 0.14703(14)
C9 C 0.63920(19) 0.1267(3) 0.03522(12)
C10 C 0.53482(18) 0.0968(3) 0.05519(13)
H5 H 0.4907 0.1802 0.0321
H6 H 0.5115 -0.0079 0.0352
C11 C 0.52871(19) 0.0979(3) 0.13528(14)
C12 C 0.4607(2) 0.1763(4) 0.16678(15)
H7 H 0.4148 0.2372 0.1360
C13 C 0.4500(3) 0.1775(4) 0.24500(18)
C14 C 0.3400(3) 0.2756(6) 0.3281(2)
H8 H 0.3697 0.1879 0.3590
H9 H 0.2681 0.2686 0.3270
C15 C 0.3745(4) 0.4303(7) 0.3579(2)
H10 H 0.4460 0.4337 0.3619
H11 H 0.3531 0.4445 0.4060
H12 H 0.3474 0.5162 0.3258
C16 C 0.6378(2) 0.0839(4) -0.04588(14)
C17 C 0.5895(4) 0.1828(6) -0.16546(17)
H13 H 0.5965 0.2866 -0.1900
H14 H 0.6413 0.1101 -0.1788
C18 C 0.4971(3) 0.1170(6) -0.1882(2)
H15 H 0.4941 0.0077 -0.1696
H16 H 0.4866 0.1150 -0.2413
H17 H 0.4464 0.1822 -0.1697
C19 C 0.66565(18) 0.3035(3) 0.04564(12)
C20 C 0.7897(2) 0.4967(4) 0.03340(19)
H18 H 0.8607 0.5026 0.0495
H19 H 0.7549 0.5577 0.0682
C21 C 0.7686(3) 0.5681(5) -0.0407(2)
H20 H 0.8093 0.5159 -0.0737
H21 H 0.7831 0.6828 -0.0384
H22 H 0.6995 0.5521 -0.0584
C22 C 0.7407(3) -0.1884(5) 0.25796(18)
H23 H 0.6861 -0.1383 0.2789
H24 H 0.8016 -0.1681 0.2893
H25 H 0.7296 -0.3040 0.2538
N2 N 0.85839(17) 0.3758(3) 0.26941(11)
O8 O 0.80358(14) 0.4995(2) 0.36911(9)
O9 O 0.61577(15) 0.5950(3) 0.37235(11)
O10 O 0.60255(15) 0.7983(3) 0.44903(10)
O11 O 0.95505(16) 0.9020(3) 0.38985(12)
O12 O 1.08451(16) 0.8155(3) 0.33751(13)
O13 O 1.14807(16) 0.4563(3) 0.43306(11)
O14 O 1.1366(2) 0.6908(4) 0.48978(18)
C23 C 0.9444(2) 0.3680(3) 0.23678(14)
C24 C 0.9612(2) 0.2891(4) 0.17346(15)
H26 H 0.9117 0.2273 0.1466
C25 C 1.0537(2) 0.3048(5) 0.15146(16)
H27 H 1.0678 0.2535 0.1083
C26 C 1.1262(2) 0.3946(5) 0.19158(17)
H28 H 1.1888 0.4029 0.1751
C27 C 1.1091(2) 0.4718(4) 0.25477(16)
H29 H 1.1591 0.5334 0.2812
C28 C 1.01744(19) 0.4576(3) 0.27903(13)
C29 C 0.97265(19) 0.5191(3) 0.33970(12)
C30 C 0.87877(19) 0.4675(3) 0.32990(12)
C31 C 1.00563(19) 0.6251(3) 0.40332(13)
C32 C 0.9316(2) 0.6051(4) 0.45937(13)
H30 H 0.9463 0.5043 0.4864
H31 H 0.9407 0.6941 0.4946
C33 C 0.8263(2) 0.6021(3) 0.42684(12)
C34 C 0.7546(2) 0.6818(4) 0.45238(13)
H32 H 0.7705 0.7432 0.4951
C35 C 0.6524(2) 0.6825(3) 0.41947(13)
C36 C 0.5007(2) 0.8201(4) 0.41798(16)
H33 H 0.4636 0.7197 0.4216
H34 H 0.4977 0.8501 0.3662
C37 C 0.4586(3) 0.9490(5) 0.45942(19)
H35 H 0.4634 0.9191 0.5107
H36 H 0.3898 0.9646 0.4407
H37 H 0.4947 1.0485 0.4543
C38 C 1.01103(19) 0.7983(3) 0.37777(13)
C39 C 1.0969(3) 0.9724(5) 0.3057(2)
H38 H 1.1106 1.0543 0.3440
H39 H 1.0373 1.0038 0.2739
C40 C 1.1826(4) 0.9552(7) 0.2624(3)
H40 H 1.2416 0.9301 0.2951
H41 H 1.1923 1.0557 0.2370
H42 H 1.1695 0.8688 0.2270
C41 C 1.1066(2) 0.5770(4) 0.44242(15)
C42 C 0.7633(2) 0.3115(5) 0.24099(16)
H43 H 0.7157 0.3349 0.2749
H44 H 0.7684 0.1955 0.2350
H45 H 0.7419 0.3608 0.1940
C43 C 1.2473(6) 0.6882(8) 0.5191(3)
H46 H 1.2860 0.6234 0.4881
H47 H 1.2752 0.7972 0.5246
C44 C 1.2398(5) 0.6102(8) 0.5906(5)
H48 H 1.1980 0.6750 0.6185
H49 H 1.3051 0.6012 0.6176
H50 H 1.2114 0.5034 0.5828
C45? C 1.2051(6) 0.6311(8) 0.5544(5)
C46? C 1.2979(9) 0.7052(10) 0.5368(5)
H51? H 1.1859 0.6711 0.6009
H52? H 1.2091 0.5130 0.5557
H53? H 1.3168 0.6572 0.4924
H54? H 1.3495 0.6867 0.5768
H55? H 1.2883 0.8205 0.5296
loop_
_geom_bond_atom_site_label_1
_geom_bond_atom_site_label_2
_geom_bond_site_symmetry_1
_geom_bond_site_symmetry_2
N1 C1 1_555 1_555
O1 C8 1_555 1_555
O2 C13 1_555 1_555
O3 C13 1_555 1_555
O4 C16 1_555 1_555
O5 C16 1_555 1_555
O6 C19 1_555 1_555
O7 C19 1_555 1_555
C1 C2 1_555 1_555
C2 H1 1_555 1_555
C3 C2 1_555 1_555
H2 C3 1_555 1_555
C4 C3 1_555 1_555
H3 C4 1_555 1_555
C5 C4 1_555 1_555
H4 C5 1_555 1_555
C6 C1 1_555 1_555
C7 C6 1_555 1_555
C8 N1 1_555 1_555
C9 C7 1_555 1_555
C10 C9 1_555 1_555
H5 C10 1_555 1_555
H6 C10 1_555 1_555
C11 O1 1_555 1_555
C12 C11 1_555 1_555
H7 C12 1_555 1_555
C13 C12 1_555 1_555
C14 O3 1_555 1_555
H8 C14 1_555 1_555
H9 C14 1_555 1_555
C15 C14 1_555 1_555
H10 C15 1_555 1_555
H11 C15 1_555 1_555
H12 C15 1_555 1_555
C16 C9 1_555 1_555
C17 O5 1_555 1_555
H13 C17 1_555 1_555
H14 C17 1_555 1_555
C18 C17 1_555 1_555
H15 C18 1_555 1_555
H16 C18 1_555 1_555
H17 C18 1_555 1_555
C19 C9 1_555 1_555
C20 O7 1_555 1_555
H18 C20 1_555 1_555
H19 C20 1_555 1_555
C21 C20 1_555 1_555
H20 C21 1_555 1_555
H21 C21 1_555 1_555
H22 C21 1_555 1_555
C22 N1 1_555 1_555
H23 C22 1_555 1_555
H24 C22 1_555 1_555
H25 C22 1_555 1_555
N2 C23 1_555 1_555
O8 C30 1_555 1_555
O9 C35 1_555 1_555
O10 C35 1_555 1_555
O11 C38 1_555 1_555
O12 C38 1_555 1_555
O13 C41 1_555 1_555
O14 C41 1_555 1_555
C23 C24 1_555 1_555
C24 H26 1_555 1_555
C25 C24 1_555 1_555
H27 C25 1_555 1_555
C26 C25 1_555 1_555
H28 C26 1_555 1_555
C27 C26 1_555 1_555
H29 C27 1_555 1_555
C28 C23 1_555 1_555
C29 C28 1_555 1_555
C30 N2 1_555 1_555
C31 C29 1_555 1_555
C32 C31 1_555 1_555
H30 C32 1_555 1_555
H31 C32 1_555 1_555
C33 O8 1_555 1_555
C34 C33 1_555 1_555
H32 C34 1_555 1_555
C35 C34 1_555 1_555
C36 O10 1_555 1_555
H33 C36 1_555 1_555
H34 C36 1_555 1_555
C37 C36 1_555 1_555
H35 C37 1_555 1_555
H36 C37 1_555 1_555
H37 C37 1_555 1_555
C38 C31 1_555 1_555
C39 O12 1_555 1_555
H38 C39 1_555 1_555
H39 C39 1_555 1_555
C40 C39 1_555 1_555
H40 C40 1_555 1_555
H41 C40 1_555 1_555
H42 C40 1_555 1_555
C41 C31 1_555 1_555
C42 N2 1_555 1_555
H43 C42 1_555 1_555
H44 C42 1_555 1_555
H45 C42 1_555 1_555
C43 O14 1_555 1_555
H46 C43 1_555 1_555
H47 C43 1_555 1_555
C44 C43 1_555 1_555
H48 C44 1_555 1_555
H49 C44 1_555 1_555
H50 C44 1_555 1_555
C5 C6 1_555 1_555
C7 C8 1_555 1_555
C10 C11 1_555 1_555
C27 C28 1_555 1_555
C29 C30 1_555 1_555
C32 C33 1_555 1_555

#END
