
#######################################################################
#
#                 Cambridge Crystallographic Data Centre
#                                CCDC 
#
#######################################################################
#
# If this CIF has been generated from an entry in the Cambridge 
# Structural Database, then it will include bibliographic, chemical, 
# crystal, experimental, refinement or atomic coordinate data resulting 
# from the CCDC's data processing and validation procedures.
#
#######################################################################

data_ATEKAM
_chemical_formula_moiety         'C24 H23 N1 O5'
_chemical_name_systematic        
'Ethyl 2-(2-ethoxy-2-oxoethylidene)-4-phenyl-3,4-dihydropyrano[2,3-b]indole-9(2H)-carboxylate'
_symmetry_cell_setting           monoclinic
_symmetry_space_group_name_H-M   'P 21/c'
_symmetry_Int_Tables_number      14
_space_group_name_Hall           '-P 2ybc'
loop_
_symmetry_equiv_pos_site_id
_symmetry_equiv_pos_as_xyz
1 x,y,z
2 -x,1/2+y,1/2-z
3 -x,-y,-z
4 x,1/2-y,1/2+z
_cell_length_a                   10.145(2)
_cell_length_b                   9.4248(19)
_cell_length_c                   21.513(4)
_cell_angle_alpha                90
_cell_angle_beta                 100.57(3)
_cell_angle_gamma                90
_cell_volume                     2022.05
_exptl_crystal_colour            colorless
_exptl_crystal_description       block
_cell_formula_units_Z            4
loop_
_atom_site_label
_atom_site_type_symbol
_atom_site_fract_x
_atom_site_fract_y
_atom_site_fract_z
O1 O -0.47842(17) 0.78592(19) 0.40547(8)
O2 O -0.32488(16) 0.62882(16) 0.38632(7)
O3 O -0.20638(14) 0.46634(15) 0.47606(6)
O4 O 0.09426(16) 0.14305(17) 0.54181(7)
O5 O 0.09835(15) 0.14374(16) 0.43763(7)
N1 N -0.37299(17) 0.64142(18) 0.48427(8)
C1 C -0.5363(2) 0.7938(2) 0.53199(11)
H1 H -0.5677 0.8478 0.4949
C2 C -0.5831(2) 0.8184(3) 0.58761(12)
H2 H -0.6479 0.8906 0.5886
C3 C -0.5373(2) 0.7395(3) 0.64205(11)
H3 H -0.5706 0.7597 0.6796
C4 C -0.4438(2) 0.6320(2) 0.64240(11)
H4 H -0.4142 0.5774 0.6795
C5 C -0.3939(2) 0.6056(2) 0.58711(10)
C6 C -0.4416(2) 0.6871(2) 0.53259(10)
C7 C -0.3982(2) 0.6936(2) 0.42235(10)
C8 C -0.3467(3) 0.6758(3) 0.32091(11)
H5 H -0.3136 0.7739 0.3182
H6 H -0.4435 0.6736 0.3024
C9 C -0.2711(3) 0.5759(3) 0.28630(12)
H7 H -0.2825 0.6045 0.2418
H8 H -0.3055 0.4794 0.2890
H9 H -0.1757 0.5785 0.3054
C10 C -0.2857(2) 0.5334(2) 0.51140(10)
C11 C -0.2950(2) 0.5081(2) 0.57166(10)
C12 C -0.2115(2) 0.3947(2) 0.60893(10)
H10 H -0.2636 0.3040 0.6043
C13 C -0.1735(2) 0.4300(2) 0.67881(10)
C14 C -0.1137(2) 0.5587(3) 0.69876(11)
H11 H -0.0932 0.6245 0.6685
C15 C -0.0837(2) 0.5919(3) 0.76255(12)
H12 H -0.0427 0.6802 0.7757
C16 C -0.1131(2) 0.4972(3) 0.80721(12)
H13 H -0.0933 0.5206 0.8509
C17 C -0.1715(2) 0.3685(3) 0.78789(11)
H14 H -0.1905 0.3023 0.8184
C18 C -0.2024(2) 0.3354(3) 0.72386(11)
H15 H -0.2438 0.2472 0.7108
C19 C -0.0858(2) 0.3754(2) 0.57867(10)
H16 H -0.0232 0.4548 0.5922
H17 H -0.0401 0.2864 0.5949
C20 C -0.1147(2) 0.3699(2) 0.50791(10)
C21 C -0.0567(2) 0.2899(2) 0.46966(10)
H18 H -0.0880 0.3010 0.4255
C22 C 0.0512(2) 0.1859(2) 0.48911(10)
C23 C 0.2046(2) 0.0383(2) 0.44765(10)
H19 H 0.1706 -0.0532 0.4609
H20 H 0.2797 0.0703 0.4808
C24 C 0.2502(2) 0.0224(2) 0.38552(10)
H21 H 0.3225 -0.0479 0.3897
H22 H 0.2832 0.1139 0.3730
H23 H 0.1748 -0.0091 0.3533
loop_
_geom_bond_atom_site_label_1
_geom_bond_atom_site_label_2
_geom_bond_site_symmetry_1
_geom_bond_site_symmetry_2
O1 C7 1_555 1_555
O2 C7 1_555 1_555
O3 C10 1_555 1_555
O4 C22 1_555 1_555
O5 C22 1_555 1_555
N1 C6 1_555 1_555
C1 H1 1_555 1_555
C2 C1 1_555 1_555
H2 C2 1_555 1_555
C3 C2 1_555 1_555
H3 C3 1_555 1_555
C4 C3 1_555 1_555
H4 C4 1_555 1_555
C5 C4 1_555 1_555
C6 C1 1_555 1_555
C7 N1 1_555 1_555
C8 O2 1_555 1_555
H5 C8 1_555 1_555
H6 C8 1_555 1_555
C9 C8 1_555 1_555
H7 C9 1_555 1_555
H8 C9 1_555 1_555
H9 C9 1_555 1_555
C10 N1 1_555 1_555
C11 C5 1_555 1_555
C12 C11 1_555 1_555
H10 C12 1_555 1_555
C13 C12 1_555 1_555
C14 C13 1_555 1_555
H11 C14 1_555 1_555
C15 C14 1_555 1_555
H12 C15 1_555 1_555
C16 C15 1_555 1_555
H13 C16 1_555 1_555
C17 C16 1_555 1_555
H14 C17 1_555 1_555
C18 C13 1_555 1_555
H15 C18 1_555 1_555
C19 C12 1_555 1_555
H16 C19 1_555 1_555
H17 C19 1_555 1_555
C20 O3 1_555 1_555
C21 C20 1_555 1_555
H18 C21 1_555 1_555
C22 C21 1_555 1_555
C23 O5 1_555 1_555
H19 C23 1_555 1_555
H20 C23 1_555 1_555
C24 C23 1_555 1_555
H21 C24 1_555 1_555
H22 C24 1_555 1_555
H23 C24 1_555 1_555
C5 C6 1_555 1_555
C10 C11 1_555 1_555
C17 C18 1_555 1_555
C19 C20 1_555 1_555

#END
