
#######################################################################
#
#                 Cambridge Crystallographic Data Centre
#                                CCDC 
#
#######################################################################
#
# If this CIF has been generated from an entry in the Cambridge 
# Structural Database, then it will include bibliographic, chemical, 
# crystal, experimental, refinement or atomic coordinate data resulting 
# from the CCDC's data processing and validation procedures.
#
#######################################################################

data_ATELAN
_chemical_formula_moiety         'C35 H25 N1'
_chemical_name_systematic        
5-(4-Methylphenyl)-6,11-diphenyl-5H-indeno[1,2-c]quinoline
_symmetry_cell_setting           triclinic
_symmetry_space_group_name_H-M   'P -1'
_symmetry_Int_Tables_number      2
_space_group_name_Hall           '-P 1'
loop_
_symmetry_equiv_pos_site_id
_symmetry_equiv_pos_as_xyz
1 x,y,z
2 -x,-y,-z
_cell_length_a                   8.821(3)
_cell_length_b                   11.131(4)
_cell_length_c                   13.131(4)
_cell_angle_alpha                92.575(4)
_cell_angle_beta                 99.847(4)
_cell_angle_gamma                95.085(4)
_cell_volume                     1262.92
_exptl_crystal_colour            yellow
_exptl_crystal_description       block
_cell_formula_units_Z            2
loop_
_atom_site_label
_atom_site_type_symbol
_atom_site_fract_x
_atom_site_fract_y
_atom_site_fract_z
N1 N 0.36677(18) 0.79656(14) 0.00484(12)
C1 C 0.2824(2) 0.82752(16) 0.08341(14)
C2 C 0.1378(2) 0.87153(18) 0.05690(16)
H1 H 0.0966 0.8786 -0.0124
C3 C 0.0564(2) 0.90434(19) 0.13232(17)
H2 H -0.0393 0.9337 0.1137
C4 C 0.1162(3) 0.8940(2) 0.23600(17)
H3 H 0.0616 0.9176 0.2869
C5 C 0.2565(3) 0.84857(18) 0.26300(16)
H4 H 0.2951 0.8410 0.3327
C6 C 0.3434(2) 0.81340(16) 0.18865(14)
C7 C 0.4907(2) 0.76226(16) 0.21370(14)
C8 C 0.5767(2) 0.73261(17) 0.30580(15)
C9 C 0.7144(2) 0.68340(17) 0.28105(16)
C10 C 0.8384(3) 0.6406(2) 0.34636(18)
H5 H 0.8406 0.6409 0.4174
C11 C 0.9565(3) 0.5982(2) 0.3035(2)
H6 H 1.0397 0.5706 0.3464
C12 C 0.9542(3) 0.5959(2) 0.1975(2)
H7 H 1.0356 0.5662 0.1708
C13 C 0.8333(2) 0.63669(18) 0.13076(18)
H8 H 0.8323 0.6343 0.0598
C14 C 0.7116(2) 0.68198(16) 0.17272(15)
C15 C 0.5688(2) 0.73179(15) 0.12827(14)
C16 C 0.5072(2) 0.74913(15) 0.02777(14)
C17 C 0.5872(2) 0.71611(16) -0.05947(14)
C18 C 0.6968(2) 0.79794(18) -0.08955(15)
H9 H 0.7131 0.8767 -0.0603
C19 C 0.7817(3) 0.7626(2) -0.16275(17)
H10 H 0.8555 0.8178 -0.1822
C20 C 0.7584(3) 0.6468(2) -0.20732(18)
H11 H 0.8168 0.6233 -0.2561
C21 C 0.6473(3) 0.5653(2) -0.17892(18)
H12 H 0.6304 0.4870 -0.2090
C22 C 0.5618(3) 0.60018(18) -0.10624(16)
H13 H 0.4863 0.5455 -0.0883
C23 C 0.3018(2) 0.81577(17) -0.10175(14)
C24 C 0.3267(2) 0.92846(17) -0.14019(15)
H14 H 0.3888 0.9904 -0.0991
C25 C 0.2583(3) 0.94799(19) -0.24024(16)
H15 H 0.2737 1.0241 -0.2654
C26 C 0.1678(2) 0.8570(2) -0.30353(16)
C27 C 0.1463(3) 0.7444(2) -0.26394(16)
H16 H 0.0864 0.6819 -0.3056
C28 C 0.2125(2) 0.72318(19) -0.16330(16)
H17 H 0.1967 0.6473 -0.1378
C29 C 0.0949(4) 0.8783(3) -0.41360(19)
H18 H 0.0354 0.8056 -0.4451
H19 H 0.1746 0.9007 -0.4526
H20 H 0.0286 0.9421 -0.4128
C30 C 0.5428(3) 0.74254(19) 0.41282(16)
C31 C 0.4519(4) 0.6543(3) 0.4501(2)
H21 H 0.4083 0.5873 0.4066
C32 C 0.4235(5) 0.6621(3) 0.5502(2)
H22 H 0.3613 0.6008 0.5730
C33 C 0.4856(3) 0.7581(3) 0.61528(19)
H23 H 0.4684 0.7625 0.6832
C34 C 0.5712(5) 0.8458(3) 0.5808(2)
H24 H 0.6121 0.9132 0.6246
C35 C 0.6010(4) 0.8389(3) 0.4806(2)
H25 H 0.6622 0.9017 0.4588
loop_
_geom_bond_atom_site_label_1
_geom_bond_atom_site_label_2
_geom_bond_site_symmetry_1
_geom_bond_site_symmetry_2
N1 C1 1_555 1_555
C1 C2 1_555 1_555
C2 H1 1_555 1_555
C3 C2 1_555 1_555
H2 C3 1_555 1_555
C4 C3 1_555 1_555
H3 C4 1_555 1_555
C5 C4 1_555 1_555
H4 C5 1_555 1_555
C6 C1 1_555 1_555
C7 C6 1_555 1_555
C8 C7 1_555 1_555
C9 C8 1_555 1_555
C10 C9 1_555 1_555
H5 C10 1_555 1_555
C11 C10 1_555 1_555
H6 C11 1_555 1_555
C12 C11 1_555 1_555
H7 C12 1_555 1_555
C13 C12 1_555 1_555
H8 C13 1_555 1_555
C14 C9 1_555 1_555
C15 C7 1_555 1_555
C16 N1 1_555 1_555
C17 C16 1_555 1_555
C18 C17 1_555 1_555
H9 C18 1_555 1_555
C19 C18 1_555 1_555
H10 C19 1_555 1_555
C20 C19 1_555 1_555
H11 C20 1_555 1_555
C21 C20 1_555 1_555
H12 C21 1_555 1_555
C22 C17 1_555 1_555
H13 C22 1_555 1_555
C23 N1 1_555 1_555
C24 C23 1_555 1_555
H14 C24 1_555 1_555
C25 C24 1_555 1_555
H15 C25 1_555 1_555
C26 C25 1_555 1_555
C27 C26 1_555 1_555
H16 C27 1_555 1_555
C28 C23 1_555 1_555
H17 C28 1_555 1_555
C29 C26 1_555 1_555
H18 C29 1_555 1_555
H19 C29 1_555 1_555
H20 C29 1_555 1_555
C30 C8 1_555 1_555
C31 C30 1_555 1_555
H21 C31 1_555 1_555
C32 C31 1_555 1_555
H22 C32 1_555 1_555
C33 C32 1_555 1_555
H23 C33 1_555 1_555
C34 C33 1_555 1_555
H24 C34 1_555 1_555
C35 C30 1_555 1_555
H25 C35 1_555 1_555
C5 C6 1_555 1_555
C13 C14 1_555 1_555
C14 C15 1_555 1_555
C15 C16 1_555 1_555
C21 C22 1_555 1_555
C27 C28 1_555 1_555
C34 C35 1_555 1_555

#END
