
#######################################################################
#
#                 Cambridge Crystallographic Data Centre
#                                CCDC 
#
#######################################################################
#
# If this CIF has been generated from an entry in the Cambridge 
# Structural Database, then it will include bibliographic, chemical, 
# crystal, experimental, refinement or atomic coordinate data resulting 
# from the CCDC's data processing and validation procedures.
#
#######################################################################

data_ATEVAX
_chemical_formula_moiety         'C21 H22 N2 O3'
_chemical_name_systematic        
4-(4-(Allyloxy)phenyl)-2-amino-7,7-dimethyl-5-oxo-5,6,7,8-tetrahydro-4H-chromene-3-carbonitrile
_symmetry_cell_setting           triclinic
_symmetry_space_group_name_H-M   'P -1'
_symmetry_Int_Tables_number      2
_space_group_name_Hall           '-P 1'
loop_
_symmetry_equiv_pos_site_id
_symmetry_equiv_pos_as_xyz
1 x,y,z
2 -x,-y,-z
_cell_length_a                   7.9606(9)
_cell_length_b                   9.2352(10)
_cell_length_c                   12.9276(14)
_cell_angle_alpha                93.5860(10)
_cell_angle_beta                 104.6240(10)
_cell_angle_gamma                100.2350(10)
_cell_volume                     899.209
_exptl_crystal_colour            white
_exptl_crystal_description       block
_chemical_melting_point          '496-499 K'
_cell_formula_units_Z            2
_exptl_crystal_recrystallization_method ethanol
loop_
_atom_site_label
_atom_site_type_symbol
_atom_site_fract_x
_atom_site_fract_y
_atom_site_fract_z
O1 O 0.50886(14) 0.04135(11) 0.65339(9)
O2 O 1.08621(15) -0.00910(12) 0.64567(9)
O3 O 1.33697(16) 0.64786(13) 0.90425(9)
N1 N 0.68099(18) 0.48036(15) 0.49725(11)
N2 N 0.36297(18) 0.21406(15) 0.58806(11)
H1 H 0.3502 0.2934 0.5581
H2 H 0.2757 0.1625 0.6059
C1 C 0.6694(2) 0.23765(17) 0.58429(12)
C2 C 0.8082(2) 0.03364(17) 0.65543(12)
C3 C 0.6539(2) -0.02526(17) 0.67414(12)
C4 C 0.6131(2) -0.16888(17) 0.71747(13)
H3 H 0.5422 -0.2427 0.6588
H4 H 0.5429 -0.1579 0.7678
C5 C 1.2201(2) 0.52708(17) 0.84218(14)
C6 C 1.0882(2) 0.40907(17) 0.66258(13)
H5 H 1.0796 0.4069 0.5894
C7 C 0.9081(2) -0.20766(18) 0.70294(14)
H6 H 1.0190 -0.2318 0.7417
H7 H 0.8584 -0.2789 0.6393
C8 C 0.8431(2) 0.18295(17) 0.61636(13)
H8 H 0.8856 0.1713 0.5520
C9 C 0.5184(2) 0.17086(17) 0.60682(12)
C10 C 0.7799(2) -0.22432(17) 0.77470(13)
C11 C 0.6724(2) 0.37107(18) 0.53610(13)
C12 C 1.1197(2) 0.41535(18) 0.88109(13)
H9 H 1.1321 0.4157 0.9546
C13 C 1.0003(2) 0.30281(17) 0.80853(13)
H10 H 0.9309 0.2294 0.8344
C14 C 0.9464(2) -0.05519(17) 0.66793(13)
C15 C 1.3468(2) 0.66791(19) 1.01636(14)
H11 H 1.4103 0.5981 1.0542
H12 H 1.2286 0.6516 1.0267
C16 C 0.8688(2) -0.13514(19) 0.88473(14)
H13 H 0.9727 -0.1713 0.9188
H14 H 0.7877 -0.1456 0.9288
H15 H 0.9019 -0.0326 0.8756
C17 C 0.9821(2) 0.29752(17) 0.69879(13)
C18 C 1.2052(2) 0.52232(18) 0.73273(13)
H16 H 1.2743 0.5958 0.7067
C19 C 0.7260(2) -0.38690(18) 0.79013(14)
H17 H 0.6710 -0.4436 0.7213
H18 H 0.6439 -0.3962 0.8336
H19 H 0.8293 -0.4231 0.8253
C20 C 1.4418(2) 0.8225(2) 1.05844(14)
H20 H 1.3935 0.8993 1.0275
C21 C 1.5889(3) 0.8576(2) 1.13612(15)
H21 H 1.6406 0.7835 1.1688
H22 H 1.6415 0.9565 1.1586
loop_
_geom_bond_atom_site_label_1
_geom_bond_atom_site_label_2
_geom_bond_site_symmetry_1
_geom_bond_site_symmetry_2
O1 C3 1_555 1_555
O2 C14 1_555 1_555
O3 C5 1_555 1_555
N1 C11 1_555 1_555
N2 H1 1_555 1_555
H2 N2 1_555 1_555
C1 C8 1_555 1_555
C2 C3 1_555 1_555
C3 C4 1_555 1_555
C4 H3 1_555 1_555
H4 C4 1_555 1_555
C5 C12 1_555 1_555
C6 H5 1_555 1_555
C7 H6 1_555 1_555
H7 C7 1_555 1_555
C8 C2 1_555 1_555
H8 C8 1_555 1_555
C9 O1 1_555 1_555
C10 C4 1_555 1_555
C11 C1 1_555 1_555
C12 H9 1_555 1_555
C13 C12 1_555 1_555
H10 C13 1_555 1_555
C14 C2 1_555 1_555
C15 O3 1_555 1_555
H11 C15 1_555 1_555
H12 C15 1_555 1_555
C16 C10 1_555 1_555
H13 C16 1_555 1_555
H14 C16 1_555 1_555
H15 C16 1_555 1_555
C17 C6 1_555 1_555
C18 C5 1_555 1_555
H16 C18 1_555 1_555
C19 C10 1_555 1_555
H17 C19 1_555 1_555
H18 C19 1_555 1_555
H19 C19 1_555 1_555
C20 C15 1_555 1_555
H20 C20 1_555 1_555
C21 C20 1_555 1_555
H21 C21 1_555 1_555
H22 C21 1_555 1_555
N2 C9 1_555 1_555
C1 C9 1_555 1_555
C6 C18 1_555 1_555
C7 C10 1_555 1_555
C7 C14 1_555 1_555
C8 C17 1_555 1_555
C13 C17 1_555 1_555

#END
