
#######################################################################
#
#                 Cambridge Crystallographic Data Centre
#                                CCDC 
#
#######################################################################
#
# If this CIF has been generated from an entry in the Cambridge 
# Structural Database, then it will include bibliographic, chemical, 
# crystal, experimental, refinement or atomic coordinate data resulting 
# from the CCDC's data processing and validation procedures.
#
#######################################################################

data_ATEWOM
_chemical_formula_moiety         'C10 H14 O2'
_chemical_name_systematic        4-hydroxyoctahydro-6H-1,5-methanoinden-6-one
_symmetry_cell_setting           monoclinic
_symmetry_space_group_name_H-M   'C 2/c'
_symmetry_Int_Tables_number      15
_space_group_name_Hall           '-C 2yn'
loop_
_symmetry_equiv_pos_site_id
_symmetry_equiv_pos_as_xyz
1 x,y,z
2 1/2+x,1/2+y,z
3 -x,y,1/2-z
4 1/2-x,1/2+y,1/2-z
5 -x,-y,-z
6 1/2-x,1/2-y,-z
7 x,-y,1/2+z
8 1/2+x,1/2-y,1/2+z
_cell_length_a                   19.427(9)
_cell_length_b                   8.842(4)
_cell_length_c                   11.528(5)
_cell_angle_alpha                90
_cell_angle_beta                 118.42(5)
_cell_angle_gamma                90
_cell_volume                     1741.56
_cell_formula_units_Z            8
loop_
_atom_site_label
_atom_site_type_symbol
_atom_site_fract_x
_atom_site_fract_y
_atom_site_fract_z
O1 O 0.28053(8) 0.17683(17) 0.83559(15)
H1 H 0.3064 0.2226 0.9049
C1 C 0.16254(11) 0.31533(19) 0.79483(19)
H2 H 0.1877 0.3807 0.8727
C2 C 0.17766(11) 0.1894(2) 0.61264(19)
H3 H 0.2078 0.1011 0.6112
C3 C 0.13364(11) 0.1730(2) 0.8266(2)
O2 O 0.13602(11) 0.14681(19) 0.93197(16)
C4 C 0.09627(11) 0.1415(2) 0.5919(2)
H4 H 0.0711 0.0741 0.5155
C5 C 0.22030(10) 0.2730(2) 0.74416(19)
H5 H 0.2439 0.3654 0.7318
C6 C 0.05552(12) 0.2964(3) 0.5591(2)
H6 H -0.0013 0.2858 0.5226
C7 C 0.09065(12) 0.3931(2) 0.6848(2)
H7 H 0.1055 0.4911 0.6661
H8 H 0.0517 0.4089 0.7135
C8 C 0.15826(13) 0.2925(3) 0.4945(2)
H9 H 0.1574 0.2353 0.4219
H10 H 0.1967 0.3727 0.5184
C9 C 0.09787(13) 0.0678(2) 0.7116(2)
H11 H 0.0450 0.0426 0.6929
H12 H 0.1281 -0.0250 0.7323
C10 C 0.07671(15) 0.3582(3) 0.4558(2)
H13 H 0.0783 0.4678 0.4578
H14 H 0.0389 0.3254 0.3679
loop_
_geom_bond_atom_site_label_1
_geom_bond_atom_site_label_2
_geom_bond_site_symmetry_1
_geom_bond_site_symmetry_2
O1 H1 1_555 1_555
C1 H2 1_555 1_555
C2 H3 1_555 1_555
C3 C1 1_555 1_555
O2 C3 1_555 1_555
C4 C2 1_555 1_555
H4 C4 1_555 1_555
C5 O1 1_555 1_555
H5 C5 1_555 1_555
C6 C4 1_555 1_555
H6 C6 1_555 1_555
C7 C1 1_555 1_555
H7 C7 1_555 1_555
H8 C7 1_555 1_555
C8 C2 1_555 1_555
H9 C8 1_555 1_555
H10 C8 1_555 1_555
C9 C3 1_555 1_555
H11 C9 1_555 1_555
H12 C9 1_555 1_555
C10 C6 1_555 1_555
H13 C10 1_555 1_555
H14 C10 1_555 1_555
C1 C5 1_555 1_555
C2 C5 1_555 1_555
C4 C9 1_555 1_555
C6 C7 1_555 1_555
C8 C10 1_555 1_555

#END
