
#######################################################################
#
#                 Cambridge Crystallographic Data Centre
#                                CCDC 
#
#######################################################################
#
# If this CIF has been generated from an entry in the Cambridge 
# Structural Database, then it will include bibliographic, chemical, 
# crystal, experimental, refinement or atomic coordinate data resulting 
# from the CCDC's data processing and validation procedures.
#
#######################################################################

data_ATEXIG
_chemical_formula_moiety         'C24 H32 N2 O7,C1 H2 Cl2'
_chemical_name_systematic        
'1,5,7-Trimethyl-2,4-dioxo-3-azabicyclo(3.3.1)nonane-7-carboxylic anhydride dichloromethane solvate'
_symmetry_cell_setting           monoclinic
_symmetry_space_group_name_H-M   'C 2/c'
_symmetry_Int_Tables_number      15
_space_group_name_Hall           '-C 2yn'
loop_
_symmetry_equiv_pos_site_id
_symmetry_equiv_pos_as_xyz
1 x,y,z
2 1/2+x,1/2+y,z
3 x,-y,1/2+z
4 1/2+x,1/2-y,1/2+z
5 -x,-y,-z
6 1/2-x,1/2-y,-z
7 -x,y,1/2-z
8 1/2-x,1/2+y,1/2-z
_cell_length_a                   15.631(8)
_cell_length_b                   16.523(11)
_cell_length_c                   11.782(6)
_cell_angle_alpha                90
_cell_angle_beta                 114.05(4)
_cell_angle_gamma                90
_cell_volume                     2778.79
_exptl_crystal_colour            colorless
_exptl_crystal_description       prism
_cell_formula_units_Z            4
loop_
_atom_site_label
_atom_site_type_symbol
_atom_site_fract_x
_atom_site_fract_y
_atom_site_fract_z
N1 N 0.2353(5) 0.1470(4) 0.4213(6)
H1 H 0.2342(5) 0.1701(4) 0.4900(6)
O1 O 0.0000 0.1589(5) 0.2500
O2 O 0.3027(5) 0.2601(4) 0.3929(6)
C1 C 0.1836(6) 0.1794(5) 0.1281(8)
H2 H 0.1882(6) 0.1619(5) 0.0531(8)
H3 H 0.1790(6) 0.2373(5) 0.1255(8)
O3 O 0.0841(5) 0.2658(5) 0.2410(7)
C2 C 0.1971(6) 0.0697(5) 0.3927(8)
C3 C 0.2787(6) 0.0638(5) 0.2523(7)
H4 H 0.3359(6) 0.0497(5) 0.3212(7)
H5 H 0.2792(6) 0.0393(5) 0.1788(7)
C4 C 0.3588(6) 0.1895(5) 0.2184(9)
H6 H 0.3530(6) 0.2472(5) 0.2089(9)
H7 H 0.4152(6) 0.1765(5) 0.2893(9)
H8 H 0.3612(6) 0.1660(5) 0.1452(9)
C5 C 0.2737(6) 0.1930(6) 0.3552(8)
O4 O 0.1663(5) 0.0377(4) 0.4610(6)
C6 C 0.0616(7) 0.1968(6) 0.2114(9)
C7 C 0.2737(6) 0.1570(5) 0.2381(8)
C8 C 0.1996(8) -0.0601(5) 0.2884(9)
H9 H 0.2566(8) -0.0760(5) 0.3563(9)
H10 H 0.1469(8) -0.0778(5) 0.3041(9)
H11 H 0.1968(8) -0.0843(5) 0.2129(9)
C9 C 0.1965(6) 0.0315(5) 0.2762(8)
C10 C 0.1058(6) 0.0565(5) 0.1670(8)
H12 H 0.0544(6) 0.0410(5) 0.1872(8)
H13 H 0.1006(6) 0.0254(5) 0.0957(8)
C11 C 0.0919(6) 0.1456(5) 0.1294(7)
C12 C 0.0136(7) 0.1549(6) -0.0004(9)
H14 H -0.0437(7) 0.1334(6) -0.0013(9)
H15 H 0.0056(7) 0.2113(6) -0.0214(9)
H16 H 0.0298(7) 0.1263(6) -0.0598(9)
C6F C -0.0616(7) 0.1968(6) 0.2886(9)
O3F O -0.0841(5) 0.2658(5) 0.2590(7)
C11F C -0.0919(6) 0.1456(5) 0.3706(7)
C1F C -0.1836(6) 0.1794(5) 0.3719(8)
H2F H -0.1882(6) 0.1619(5) 0.4469(8)
H3F H -0.1790(6) 0.2373(5) 0.3745(8)
C7F C -0.2737(6) 0.1570(5) 0.2619(8)
C3F C -0.2787(6) 0.0638(5) 0.2477(7)
H4F H -0.3359(6) 0.0497(5) 0.1788(7)
H5F H -0.2792(6) 0.0393(5) 0.3212(7)
C9F C -0.1965(6) 0.0315(5) 0.2238(8)
C2F C -0.1971(6) 0.0697(5) 0.1073(8)
N1F N -0.2353(5) 0.1470(4) 0.0787(6)
H1F H -0.2342(5) 0.1701(4) 0.0100(6)
C5F C -0.2737(6) 0.1930(6) 0.1448(8)
O2F O -0.3027(5) 0.2601(4) 0.1071(6)
C4F C -0.3588(6) 0.1895(5) 0.2816(9)
H6F H -0.3530(6) 0.2472(5) 0.2911(9)
H7F H -0.4152(6) 0.1765(5) 0.2107(9)
H8F H -0.3612(6) 0.1660(5) 0.3548(9)
O4F O -0.1663(5) 0.0377(4) 0.0390(6)
C8F C -0.1996(8) -0.0601(5) 0.2116(9)
H9F H -0.2566(8) -0.0760(5) 0.1437(9)
H10F H -0.1469(8) -0.0778(5) 0.1959(9)
H11F H -0.1968(8) -0.0843(5) 0.2871(9)
C10F C -0.1058(6) 0.0565(5) 0.3330(8)
H12F H -0.0544(6) 0.0410(5) 0.3128(8)
H13F H -0.1006(6) 0.0254(5) 0.4043(8)
C12F C -0.0136(7) 0.1549(6) 0.5004(9)
H14F H 0.0437(7) 0.1334(6) 0.5013(9)
H15F H -0.0056(7) 0.2113(6) 0.5214(9)
H16F H -0.0298(7) 0.1263(6) 0.5598(9)
Cl1 Cl 0.4571(4) -0.0112(4) 0.1195(6)
C13 C 0.5000 -0.0725(17) 0.2500
H17 H 0.5492 -0.1065(17) 0.2478
Cl1F Cl 0.5429(4) -0.0112(4) 0.3805(6)
H17F H 0.4508 -0.1065(17) 0.2522
loop_
_geom_bond_atom_site_label_1
_geom_bond_atom_site_label_2
_geom_bond_site_symmetry_1
_geom_bond_site_symmetry_2
N1 H1 1_555 1_555
O1 C6 1_555 1_555
O2 C5 1_555 1_555
C1 H2 1_555 1_555
H3 C1 1_555 1_555
O3 C6 1_555 1_555
C2 N1 1_555 1_555
C3 H4 1_555 1_555
H5 C3 1_555 1_555
C4 H6 1_555 1_555
H7 C4 1_555 1_555
H8 C4 1_555 1_555
C5 N1 1_555 1_555
O4 C2 1_555 1_555
C6 C11 1_555 1_555
C7 C1 1_555 1_555
C8 H9 1_555 1_555
H10 C8 1_555 1_555
H11 C8 1_555 1_555
C9 C2 1_555 1_555
C10 C9 1_555 1_555
H12 C10 1_555 1_555
H13 C10 1_555 1_555
C11 C1 1_555 1_555
C12 C11 1_555 1_555
H14 C12 1_555 1_555
H15 C12 1_555 1_555
H16 C12 1_555 1_555
Cl1 C13 1_555 1_555
C13 H17 1_555 1_555
C6F O1 1_555 1_555
O3F C6F 1_555 1_555
C11F C6F 1_555 1_555
C1F C11F 1_555 1_555
H2F C1F 1_555 1_555
H3F C1F 1_555 1_555
C7F C1F 1_555 1_555
C3F C7F 1_555 1_555
H4F C3F 1_555 1_555
H5F C3F 1_555 1_555
C9F C3F 1_555 1_555
C2F C9F 1_555 1_555
N1F C2F 1_555 1_555
H1F N1F 1_555 1_555
C5F C7F 1_555 1_555
O2F C5F 1_555 1_555
C4F C7F 1_555 1_555
H6F C4F 1_555 1_555
H7F C4F 1_555 1_555
H8F C4F 1_555 1_555
O4F C2F 1_555 1_555
C8F C9F 1_555 1_555
H9F C8F 1_555 1_555
H10F C8F 1_555 1_555
H11F C8F 1_555 1_555
C10F C11F 1_555 1_555
H12F C10F 1_555 1_555
H13F C10F 1_555 1_555
C12F C11F 1_555 1_555
H14F C12F 1_555 1_555
H15F C12F 1_555 1_555
H16F C12F 1_555 1_555
Cl1F C13 1_555 1_555
H17F C13 1_555 1_555
C3 C9 1_555 1_555
C3 C7 1_555 1_555
C4 C7 1_555 1_555
C5 C7 1_555 1_555
C8 C9 1_555 1_555
C10 C11 1_555 1_555
C9F C10F 1_555 1_555
N1F C5F 1_555 1_555

#END
