
#######################################################################
#
#                 Cambridge Crystallographic Data Centre
#                                CCDC 
#
#######################################################################
#
# If this CIF has been generated from an entry in the Cambridge 
# Structural Database, then it will include bibliographic, chemical, 
# crystal, experimental, refinement or atomic coordinate data resulting 
# from the CCDC's data processing and validation procedures.
#
#######################################################################

data_ATEXOO
_chemical_formula_moiety         'C13 H11 N3 O3,H2 O1'
_chemical_name_systematic        
"N'-(2,4-dihydroxybenzylidene)isonicotinohydrazide monohydrate"
_symmetry_cell_setting           monoclinic
_symmetry_space_group_name_H-M   'P 21/n'
_symmetry_Int_Tables_number      14
_space_group_name_Hall           '-P 2yn'
loop_
_symmetry_equiv_pos_site_id
_symmetry_equiv_pos_as_xyz
1 x,y,z
2 1/2-x,1/2+y,1/2-z
3 -x,-y,-z
4 1/2+x,1/2-y,1/2+z
_cell_length_a                   8.2543(15)
_cell_length_b                   12.641(2)
_cell_length_c                   12.249(2)
_cell_angle_alpha                90
_cell_angle_beta                 99.764(3)
_cell_angle_gamma                90
_cell_volume                     1259.58
_exptl_crystal_colour            yellow
_cell_formula_units_Z            4
loop_
_atom_site_label
_atom_site_type_symbol
_atom_site_fract_x
_atom_site_fract_y
_atom_site_fract_z
N1 N 0.07389(14) 0.81537(10) 0.71484(10)
O1 O -0.55104(14) 0.87837(9) 0.94190(11)
H1 H -0.6090(17) 0.8285(3) 0.9540(18)
C1 C 0.30470(17) 0.84734(11) 0.63473(12)
O2 O -0.09843(14) 0.96633(9) 0.78216(11)
H2 H -0.0260(17) 0.94051(16) 0.7523(17)
C2 C -0.16315(16) 0.78191(11) 0.79351(11)
N2 N 0.20567(14) 0.77726(10) 0.67197(10)
H3 H 0.22394(14) 0.71042(10) 0.66916(10)
O3 O 0.28186(15) 0.94264(9) 0.63641(11)
C3 C -0.32513(17) 0.91851(11) 0.86028(13)
H4 H -0.34504(17) 0.98974(11) 0.87162(13)
N3 N 0.71813(14) 0.73992(11) 0.50006(10)
C4 C 0.47488(17) 0.69875(11) 0.57189(12)
H5 H 0.40294(17) 0.64752(11) 0.58987(12)
C5 C -0.40071(17) 0.73663(12) 0.87478(12)
H6 H -0.47070(17) 0.68555(12) 0.89551(12)
C6 C 0.61010(18) 0.67078(12) 0.52638(12)
H7 H 0.62671(18) 0.59945(12) 0.51333(12)
C7 C 0.56182(18) 0.87612(12) 0.56428(13)
H8 H 0.54890(18) 0.94790(12) 0.57705(13)
C8 C -0.42738(17) 0.84266(12) 0.89280(12)
C9 C 0.44856(16) 0.80418(11) 0.59019(11)
C10 C -0.02422(17) 0.74775(12) 0.74512(11)
H9 H -0.00613(17) 0.67592(12) 0.73597(11)
C11 C -0.19352(17) 0.88922(11) 0.81101(12)
C12 C -0.26950(17) 0.70772(11) 0.82588(12)
H10 H -0.25138(17) 0.63633(11) 0.81411(12)
C13 C 0.69349(18) 0.84118(13) 0.51960(13)
H11 H 0.76865(18) 0.89061(13) 0.50229(13)
O4 O 0.21031(16) 0.55554(9) 0.67276(12)
H12 H 0.225(3) 0.5240(14) 0.7349(8)
H13 H 0.154(3) 0.5164(13) 0.6241(11)
loop_
_geom_bond_atom_site_label_1
_geom_bond_atom_site_label_2
_geom_bond_site_symmetry_1
_geom_bond_site_symmetry_2
N1 N2 1_555 1_555
O1 H1 1_555 1_555
C1 N2 1_555 1_555
O2 H2 1_555 1_555
C2 C10 1_555 1_555
N2 H3 1_555 1_555
O3 C1 1_555 1_555
C3 H4 1_555 1_555
N3 C6 1_555 1_555
C4 H5 1_555 1_555
C5 H6 1_555 1_555
C6 C4 1_555 1_555
H7 C6 1_555 1_555
C7 H8 1_555 1_555
C8 O1 1_555 1_555
C9 C1 1_555 1_555
C10 N1 1_555 1_555
H9 C10 1_555 1_555
C11 O2 1_555 1_555
C12 C2 1_555 1_555
H10 C12 1_555 1_555
C13 N3 1_555 1_555
H11 C13 1_555 1_555
O4 H12 1_555 1_555
H13 O4 1_555 1_555
C2 C11 1_555 1_555
C3 C8 1_555 1_555
C3 C11 1_555 1_555
C4 C9 1_555 1_555
C5 C8 1_555 1_555
C5 C12 1_555 1_555
C7 C9 1_555 1_555
C7 C13 1_555 1_555

#END
