
#######################################################################
#
#                 Cambridge Crystallographic Data Centre
#                                CCDC 
#
#######################################################################
#
# If this CIF has been generated from an entry in the Cambridge 
# Structural Database, then it will include bibliographic, chemical, 
# crystal, experimental, refinement or atomic coordinate data resulting 
# from the CCDC's data processing and validation procedures.
#
#######################################################################

data_ATEXOM
_chemical_name_common            'PDB Chemical Component code: 2EC'
_chemical_formula_moiety         'C21 H23 N3 O3,C7 H9 N5'
_chemical_name_systematic        
'1,5,7-Trimethyl-2,4-dioxo-N-(quinol-8-yl)-3-azabicyclo(3.3.1)nonane-7-carboxamide 9-ethyladenine'
_symmetry_cell_setting           triclinic
_symmetry_space_group_name_H-M   'P -1'
_symmetry_Int_Tables_number      2
_space_group_name_Hall           '-P 1'
loop_
_symmetry_equiv_pos_site_id
_symmetry_equiv_pos_as_xyz
1 x,y,z
2 -x,-y,-z
_cell_length_a                   8.097(4)
_cell_length_b                   9.350(5)
_cell_length_c                   18.786(9)
_cell_angle_alpha                76.19(3)
_cell_angle_beta                 78.45(3)
_cell_angle_gamma                85.08(3)
_cell_volume                     1352.07
_cell_formula_units_Z            2
loop_
_atom_site_label
_atom_site_type_symbol
_atom_site_fract_x
_atom_site_fract_y
_atom_site_fract_z
N1 N 0.2938(3) 0.7708(3) 0.26388(12)
H1 H 0.3347(3) 0.8176(3) 0.21935(12)
O1 O 0.5506(3) 0.6641(2) 0.27092(11)
O2 O 0.0468(3) 0.8889(3) 0.25021(12)
N2 N 0.2608(3) 1.0621(3) 0.33650(14)
H2 H 0.1540(3) 1.0593(3) 0.35328(14)
O3 O 0.5075(3) 0.9383(2) 0.35152(14)
C1 C 0.0519(3) 0.7183(3) 0.3676(2)
C2 C 0.1466(3) 0.5691(3) 0.3849(2)
H3 H 0.0999(3) 0.5152(3) 0.4348(2)
H4 H 0.1322(3) 0.5117(3) 0.3499(2)
N3 N 0.0212(3) 1.2562(3) 0.29651(15)
C3 C 0.3336(3) 0.5896(3) 0.3790(2)
C4 C 0.4042(4) 0.6749(3) 0.3014(2)
C5 C 0.3552(4) 0.6783(3) 0.4354(2)
H5 H 0.3208(4) 0.6182(3) 0.4852(2)
H6 H 0.4743(4) 0.6953(3) 0.4291(2)
C6 C 0.1266(4) 0.7996(3) 0.2900(2)
C7 C 0.3139(4) 1.1857(3) 0.2802(2)
C8 C 0.3541(4) 0.9451(3) 0.3684(2)
C9 C 0.1808(4) 1.2876(3) 0.2592(2)
C10 C 0.0750(3) 0.8070(3) 0.4244(2)
H7 H 0.0153(3) 0.7587(3) 0.4732(2)
H8 H 0.0212(3) 0.9039(3) 0.4110(2)
C11 C -0.1363(4) 0.7009(4) 0.3735(2)
H9 H -0.1516(4) 0.6454(4) 0.3385(2)
H10 H -0.1919(4) 0.7962(4) 0.3623(2)
H11 H -0.1837(4) 0.6495(4) 0.4231(2)
C12 C 0.4752(4) 1.2127(4) 0.2446(2)
H12 H 0.5621(4) 1.1458(4) 0.2575(2)
C13 C 0.2577(4) 0.8276(3) 0.4306(2)
C14 C 0.2206(4) 1.4163(4) 0.2030(2)
C15 C 0.0831(6) 1.5141(4) 0.1858(2)
C16 C 0.4289(4) 0.4414(3) 0.3949(2)
H13 H 0.5462(4) 0.4571(3) 0.3913(2)
H14 H 0.4168(4) 0.3870(3) 0.3590(2)
H15 H 0.3841(4) 0.3866(3) 0.4441(2)
C17 C 0.2569(5) 0.8798(4) 0.5026(2)
H16 H 0.1954(5) 0.9727(4) 0.5005(2)
H17 H 0.3709(5) 0.8909(4) 0.5071(2)
H18 H 0.2041(5) 0.8082(4) 0.5449(2)
C18 C -0.0740(5) 1.4815(5) 0.2219(2)
H19 H -0.1646(5) 1.5452(5) 0.2106(2)
C19 C 0.3872(5) 1.4408(4) 0.1678(2)
C20 C 0.5110(5) 1.3411(4) 0.1882(2)
H20 H 0.6221(5) 1.3582(4) 0.1644(2)
C21 C -0.1003(4) 1.3516(4) 0.2764(2)
H21 H -0.2104(4) 1.3304(4) 0.3004(2)
H22 H 0.4140(5) 1.5242(4) 0.1249(2)
H23 H 0.1084(5) 1.6047(4) 0.1463(2)
N4 N 0.3796(3) 1.1587(3) 0.03107(13)
C22 C 0.5665(3) 1.0486(3) 0.0975(2)
N5 N 0.4170(3) 0.9811(3) 0.13055(13)
N6 N 0.6634(3) 1.2464(3) -0.00898(15)
C23 C 0.5454(4) 1.1580(3) 0.0362(2)
N7 N 0.7642(3) 0.9246(3) 0.17372(15)
H24 H 0.8653(3) 0.9138(3) 0.18251(15)
H25 H 0.6867(3) 0.8691(3) 0.20229(15)
C24 C 0.7275(4) 1.0271(4) 0.1159(2)
N8 N 0.8501(3) 1.1128(3) 0.0722(2)
C25 C 0.3089(4) 1.0517(4) 0.0891(2)
H26 H 0.1955(4) 1.0300(4) 0.0990(2)
C26 C 0.2932(4) 1.2549(4) -0.0258(2)
H27 H 0.1983(4) 1.2045(4) -0.0314(2)
H28 H 0.3705(4) 1.2745(4) -0.0733(2)
C27 C 0.8093(4) 1.2145(4) 0.0144(2)
H29 H 0.8978(4) 1.2723(4) -0.0140(2)
C28 C 0.2316(5) 1.3956(4) -0.0053(2)
H30 H 0.1761(5) 1.4554(4) -0.0434(2)
H31 H 0.3255(5) 1.4464(4) -0.0006(2)
H32 H 0.1536(5) 1.3764(4) 0.0413(2)
loop_
_geom_bond_atom_site_label_1
_geom_bond_atom_site_label_2
_geom_bond_site_symmetry_1
_geom_bond_site_symmetry_2
N1 H1 1_555 1_555
O1 C4 1_555 1_555
O2 C6 1_555 1_555
N2 H2 1_555 1_555
O3 C8 1_555 1_555
C1 C2 1_555 1_555
C2 H3 1_555 1_555
H4 C2 1_555 1_555
N3 C9 1_555 1_555
C3 C2 1_555 1_555
C4 N1 1_555 1_555
C5 C3 1_555 1_555
H5 C5 1_555 1_555
H6 C5 1_555 1_555
C6 N1 1_555 1_555
C7 N2 1_555 1_555
C8 N2 1_555 1_555
C9 C7 1_555 1_555
C10 C1 1_555 1_555
H7 C10 1_555 1_555
H8 C10 1_555 1_555
C11 C1 1_555 1_555
H9 C11 1_555 1_555
H10 C11 1_555 1_555
H11 C11 1_555 1_555
C12 C7 1_555 1_555
H12 C12 1_555 1_555
C13 C5 1_555 1_555
C14 C9 1_555 1_555
C15 C14 1_555 1_555
C16 C3 1_555 1_555
H13 C16 1_555 1_555
H14 C16 1_555 1_555
H15 C16 1_555 1_555
C17 C13 1_555 1_555
H16 C17 1_555 1_555
H17 C17 1_555 1_555
H18 C17 1_555 1_555
C18 C15 1_555 1_555
H19 C18 1_555 1_555
C19 C14 1_555 1_555
C20 C12 1_555 1_555
H20 C20 1_555 1_555
C21 N3 1_555 1_555
H21 C21 1_555 1_555
H22 C19 1_555 1_555
H23 C15 1_555 1_555
N4 C23 1_555 1_555
C22 N5 1_555 1_555
N5 C25 1_555 1_555
N6 C23 1_555 1_555
C23 C22 1_555 1_555
N7 H24 1_555 1_555
H25 N7 1_555 1_555
C24 C22 1_555 1_555
N8 C24 1_555 1_555
C25 N4 1_555 1_555
H26 C25 1_555 1_555
C26 N4 1_555 1_555
H27 C26 1_555 1_555
H28 C26 1_555 1_555
C27 N6 1_555 1_555
H29 C27 1_555 1_555
C28 C26 1_555 1_555
H30 C28 1_555 1_555
H31 C28 1_555 1_555
H32 C28 1_555 1_555
C1 C6 1_555 1_555
C3 C4 1_555 1_555
C8 C13 1_555 1_555
C10 C13 1_555 1_555
C18 C21 1_555 1_555
C19 C20 1_555 1_555
N7 C24 1_555 1_555
N8 C27 1_555 1_555

#END
