
#######################################################################
#
#                 Cambridge Crystallographic Data Centre
#                                CCDC 
#
#######################################################################
#
# If this CIF has been generated from an entry in the Cambridge 
# Structural Database, then it will include bibliographic, chemical, 
# crystal, experimental, refinement or atomic coordinate data resulting 
# from the CCDC's data processing and validation procedures.
#
#######################################################################

data_ATEXUS
_chemical_formula_moiety         'C22 H26 N3 O3 1+,I1 1-,C7 H9 N5,H2 O1'
_chemical_name_systematic        
'1,5,7-Trimethyl-2,4-dioxo-N-(1-methyl-3-quinolinio)-3-azabicyclo(3.3.1)nonane-7-carboxamide iodide 9-ethyladenine monohydrate'
_symmetry_cell_setting           triclinic
_symmetry_space_group_name_H-M   'P -1'
_symmetry_Int_Tables_number      2
_space_group_name_Hall           '-P 1'
loop_
_symmetry_equiv_pos_site_id
_symmetry_equiv_pos_as_xyz
1 x,y,z
2 -x,-y,-z
_cell_length_a                   8.578(2)
_cell_length_b                   12.724(3)
_cell_length_c                   15.621(3)
_cell_angle_alpha                109.03(3)
_cell_angle_beta                 95.46(3)
_cell_angle_gamma                102.40(3)
_cell_volume                     1548.8
_exptl_crystal_colour            colorless
_exptl_crystal_description       prism
_cell_formula_units_Z            2
loop_
_atom_site_label
_atom_site_type_symbol
_atom_site_fract_x
_atom_site_fract_y
_atom_site_fract_z
I1 I 0.97659(9) 1.26716(7) 0.92271(7)
O1 O 0.7240(7) 0.6272(6) 0.6187(5)
N3 N 0.4617(8) 0.5655(7) 0.6228(5)
H3 H 0.4475(8) 0.6291(7) 0.6133(5)
C2 C 0.4856(9) 0.3494(8) 0.5948(6)
H4 H 0.4980(9) 0.2786(8) 0.6006(6)
H5 H 0.4651(9) 0.3376(8) 0.5305(6)
O2 O 0.1971(8) 0.5182(6) 0.6300(5)
O3 O 0.6653(8) 0.6831(6) 0.8220(5)
N5 N 0.1742(8) 0.8515(8) 0.8677(5)
C3 C 0.3241(11) 0.4909(8) 0.6299(6)
C4 C 0.5422(10) 0.4843(8) 0.7949(6)
C5 C 0.2169(12) 0.7539(10) 0.8536(7)
H6 H 0.1342(12) 0.6845(10) 0.8425(7)
C6 C 0.6183(11) 0.5526(9) 0.6253(6)
C7 C 0.1865(10) 0.2846(8) 0.5924(7)
H7 H 0.1653(10) 0.2737(8) 0.5282(7)
H8 H 0.1991(10) 0.2144(8) 0.5991(7)
H9 H 0.0974(10) 0.3057(8) 0.6204(7)
C8 C 0.4936(11) 0.8486(9) 0.8682(6)
H10 H 0.6047(11) 0.8460(9) 0.8684(6)
C10 C 0.5439(13) 0.6114(10) 0.8199(7)
C12 C 0.4498(11) 0.9530(8) 0.8820(6)
C14 C 0.3752(11) 0.7485(9) 0.8538(6)
N7 N 0.4058(9) 0.6416(7) 0.8404(5)
H13 H 0.3255(9) 0.5885(7) 0.8477(5)
C15 C 0.6420(9) 0.4431(8) 0.6388(7)
C16 C 0.3438(9) 0.3799(7) 0.6386(7)
C17 C 0.5687(11) 1.0573(9) 0.8981(7)
H14 H 0.6812(11) 1.0582(9) 0.9002(7)
C19 C 0.7834(11) 0.4126(9) 0.5924(7)
H17 H 0.8017(11) 0.3443(9) 0.6005(7)
H18 H 0.7565(11) 0.3986(9) 0.5279(7)
H19 H 0.8798(11) 0.4747(9) 0.6190(7)
C21 C 0.6778(10) 0.4599(8) 0.7406(7)
H20 H 0.7034(10) 0.3923(8) 0.7461(7)
H21 H 0.7728(10) 0.5230(8) 0.7680(7)
C22 C 0.2443(12) 1.0592(10) 0.8996(7)
H22 H 0.1329(12) 1.0600(10) 0.9011(7)
C23 C 0.2873(11) 0.9565(9) 0.8837(7)
C24 C 0.5231(13) 1.1563(9) 0.9124(7)
H23 H 0.6014(13) 1.2270(9) 0.9212(7)
C25 C 0.3611(13) 1.1572(9) 0.9138(7)
H24 H 0.3312(13) 1.2284(9) 0.9257(7)
C26 C 0.3793(10) 0.3977(8) 0.7404(7)
H25 H 0.2932(10) 0.4239(8) 0.7685(7)
H26 H 0.3780(10) 0.3247(8) 0.7462(7)
C27 C 0.0015(11) 0.8497(10) 0.8637(8)
H27 H -0.0629(11) 0.7732(10) 0.8524(8)
H28 H -0.0110(11) 0.9008(10) 0.9217(8)
H29 H -0.0337(11) 0.8753(10) 0.8155(8)
C28 C 0.5802(14) 0.4714(10) 0.8886(7)
H30 H 0.4957(14) 0.4869(10) 0.9231(7)
H31 H 0.5891(14) 0.3948(10) 0.8800(7)
H32 H 0.6813(14) 0.5259(10) 0.9215(7)
N1 N 0.4397(8) 0.7940(7) 0.6404(5)
N2 N 0.0738(8) 0.7190(7) 0.6330(5)
H1 H 0.1238(8) 0.6622(7) 0.6264(5)
H2 H -0.0340(8) 0.7042(7) 0.6316(5)
C1 C 0.1559(12) 0.8237(11) 0.6439(7)
N4 N 0.0773(9) 0.9099(9) 0.6554(6)
N6 N 0.5575(9) 0.9771(8) 0.6602(6)
C9 C 0.3255(11) 0.8590(11) 0.6468(7)
C11 C 0.1648(14) 1.0132(12) 0.6670(8)
H11 H 0.1031(14) 1.0691(12) 0.6737(8)
C13 C 0.5747(11) 0.8723(10) 0.6494(7)
H12 H 0.6781(11) 0.8548(10) 0.6489(7)
N8 N 0.3196(11) 1.0553(8) 0.6697(6)
C18 C 0.6851(12) 1.0818(9) 0.6729(8)
H15 H 0.7752(12) 1.0876(9) 0.7173(8)
H16 H 0.6450(12) 1.1486(9) 0.6961(8)
C20 C 0.3959(12) 0.9706(10) 0.6596(7)
C29 C 0.7382(14) 1.0752(11) 0.5847(10)
H33 H 0.8225(14) 1.1428(11) 0.5932(10)
H34 H 0.7784(14) 1.0082(11) 0.5623(10)
H35 H 0.6474(14) 1.0696(11) 0.5410(10)
O4 O 0.1222(11) 0.5252(7) 0.8903(7)
H36 H 0.091(18) 0.4397(28) 0.8835(91)
H37 H 0.122(19) 0.587(11) 0.9558(27)
loop_
_geom_bond_atom_site_label_1
_geom_bond_atom_site_label_2
_geom_bond_site_symmetry_1
_geom_bond_site_symmetry_2
O1 C6 1_555 1_555
N1 C9 1_555 1_555
N2 H1 1_555 1_555
H2 N2 1_555 1_555
C1 N2 1_555 1_555
N3 H3 1_555 1_555
C2 H4 1_555 1_555
H5 C2 1_555 1_555
O2 C3 1_555 1_555
O3 C10 1_555 1_555
N4 C1 1_555 1_555
N5 C5 1_555 1_555
C3 N3 1_555 1_555
C4 C10 1_555 1_555
N6 C13 1_555 1_555
C5 H6 1_555 1_555
C6 N3 1_555 1_555
C7 H7 1_555 1_555
H8 C7 1_555 1_555
H9 C7 1_555 1_555
C8 H10 1_555 1_555
C9 C1 1_555 1_555
C10 N7 1_555 1_555
C11 N4 1_555 1_555
H11 C11 1_555 1_555
C12 C8 1_555 1_555
C13 N1 1_555 1_555
H12 C13 1_555 1_555
C14 C5 1_555 1_555
N7 C14 1_555 1_555
H13 N7 1_555 1_555
N8 C11 1_555 1_555
C15 C2 1_555 1_555
C16 C2 1_555 1_555
C17 C12 1_555 1_555
H14 C17 1_555 1_555
C18 N6 1_555 1_555
H15 C18 1_555 1_555
H16 C18 1_555 1_555
C19 C15 1_555 1_555
H17 C19 1_555 1_555
H18 C19 1_555 1_555
H19 C19 1_555 1_555
C20 N6 1_555 1_555
C21 C4 1_555 1_555
H20 C21 1_555 1_555
H21 C21 1_555 1_555
C22 H22 1_555 1_555
C23 N5 1_555 1_555
C24 C17 1_555 1_555
H23 C24 1_555 1_555
C25 C22 1_555 1_555
H24 C25 1_555 1_555
C26 C4 1_555 1_555
H25 C26 1_555 1_555
H26 C26 1_555 1_555
C27 N5 1_555 1_555
H27 C27 1_555 1_555
H28 C27 1_555 1_555
H29 C27 1_555 1_555
C28 C4 1_555 1_555
H30 C28 1_555 1_555
H31 C28 1_555 1_555
H32 C28 1_555 1_555
C29 C18 1_555 1_555
H33 C29 1_555 1_555
H34 C29 1_555 1_555
H35 C29 1_555 1_555
O4 H36 1_555 1_555
H37 O4 1_555 1_555
C3 C16 1_555 1_555
C6 C15 1_555 1_555
C7 C16 1_555 1_555
C8 C14 1_555 1_555
C9 C20 1_555 1_555
C12 C23 1_555 1_555
N8 C20 1_555 1_555
C15 C21 1_555 1_555
C16 C26 1_555 1_555
C22 C23 1_555 1_555
C24 C25 1_555 1_555

#END
