
#######################################################################
#
#                 Cambridge Crystallographic Data Centre
#                                CCDC 
#
#######################################################################
#
# If this CIF has been generated from an entry in the Cambridge 
# Structural Database, then it will include bibliographic, chemical, 
# crystal, experimental, refinement or atomic coordinate data resulting 
# from the CCDC's data processing and validation procedures.
#
#######################################################################

data_ATEXEE
_chemical_formula_moiety         'C27 H20 F1 O1 P1,C1 H2 Cl2,C1 H1 Cl3'
_chemical_name_systematic        
'(1-(4-fluorophenyl)-3-phenylpropadienyl)(diphenyl)phosphine oxide chloroform dichloromethane solvate'
_symmetry_cell_setting           monoclinic
_symmetry_space_group_name_H-M   'P 2/c'
_symmetry_Int_Tables_number      13
_space_group_name_Hall           '-P 2yc'
loop_
_symmetry_equiv_pos_site_id
_symmetry_equiv_pos_as_xyz
1 x,y,z
2 -x,y,1/2-z
3 -x,-y,-z
4 x,-y,1/2+z
_cell_length_a                   11.104(4)
_cell_length_b                   9.075(3)
_cell_length_c                   27.414(10)
_cell_angle_alpha                90
_cell_angle_beta                 91.040(6)
_cell_angle_gamma                90
_cell_volume                     2762.02
_exptl_crystal_colour            colorless
_exptl_crystal_description       block
_cell_formula_units_Z            4
loop_
_atom_site_label
_atom_site_type_symbol
_atom_site_fract_x
_atom_site_fract_y
_atom_site_fract_z
P1 P 0.30539(6) 0.66436(7) 0.35475(3)
O1 O 0.42258(19) 0.74033(19) 0.36248(8)
F1 F 0.6105(2) 0.0583(2) 0.29478(9)
C1 C 0.2225(3) 0.4395(3) 0.41009(10)
C2 C 0.3026(2) 0.4756(3) 0.37716(9)
C3 C 0.2674(2) 0.6453(3) 0.29062(10)
C4 C 0.3870(3) 0.3663(3) 0.35563(10)
C5 C 0.0214(3) 0.3477(3) 0.43183(11)
C6 C 0.1857(3) 0.7637(3) 0.38363(10)
C7 C 0.1434(3) 0.4006(3) 0.44228(11)
H1 H 0.1669 0.4071 0.4749
C8 C 0.1841(3) 0.5409(3) 0.27412(10)
H2 H 0.1449 0.4814 0.2964
C9 C -0.0588(3) 0.3278(3) 0.46993(11)
H3 H -0.0327 0.3454 0.5018
C10 C 0.2177(3) 0.8801(3) 0.41422(11)
H4 H 0.2987 0.9005 0.4202
C11 C 0.3261(3) 0.7316(3) 0.25699(12)
H5 H 0.3818 0.8014 0.2677
C12 C -0.1754(3) 0.2827(4) 0.46137(13)
H6 H -0.2276 0.2722 0.4873
C13 C 0.1596(3) 0.5254(3) 0.22503(11)
H7 H 0.1026 0.4570 0.2143
C14 C 0.4868(3) 0.4091(3) 0.32953(12)
H8 H 0.5038 0.5089 0.3261
C15 C 0.1311(3) 0.9654(3) 0.43574(11)
H9 H 0.1537 1.0432 0.4560
C16 C 0.2195(3) 0.6115(4) 0.19172(11)
H10 H 0.2039 0.5999 0.1585
C17 C -0.2146(3) 0.2532(3) 0.41480(14)
H11 H -0.2935 0.2228 0.4089
C18 C 0.3032(3) 0.7153(4) 0.20791(12)
H12 H 0.3435 0.7735 0.1856
C19 C 0.3646(3) 0.2146(3) 0.36101(12)
H13 H 0.2978 0.1836 0.3782
C20 C 0.5618(3) 0.3057(3) 0.30840(12)
H14 H 0.6272 0.3353 0.2901
C21 C 0.5373(3) 0.1590(3) 0.31510(12)
C22 C -0.0205(3) 0.3140(4) 0.38486(11)
H15 H 0.0313 0.3225 0.3587
C23 C 0.0106(3) 0.9355(3) 0.42728(12)
H16 H -0.0481 0.9936 0.4416
C24 C 0.4406(3) 0.1113(3) 0.34110(13)
H17 H 0.4264 0.0111 0.3453
C25 C -0.1361(3) 0.2687(4) 0.37657(13)
H18 H -0.1624 0.2482 0.3449
C26 C 0.0639(3) 0.7336(4) 0.37599(14)
H19 H 0.0406 0.6551 0.3562
C27 C -0.0224(3) 0.8193(4) 0.39760(15)
H20 H -0.1036 0.7987 0.3921
loop_
_geom_bond_atom_site_label_1
_geom_bond_atom_site_label_2
_geom_bond_site_symmetry_1
_geom_bond_site_symmetry_2
P1 O1 1_555 1_555
F1 C21 1_555 1_555
C1 C2 1_555 1_555
C2 P1 1_555 1_555
C3 P1 1_555 1_555
C4 C2 1_555 1_555
C5 C7 1_555 1_555
C6 P1 1_555 1_555
C7 C1 1_555 1_555
H1 C7 1_555 1_555
C8 C3 1_555 1_555
H2 C8 1_555 1_555
C9 C5 1_555 1_555
H3 C9 1_555 1_555
C10 C6 1_555 1_555
H4 C10 1_555 1_555
C11 C3 1_555 1_555
H5 C11 1_555 1_555
C12 C9 1_555 1_555
H6 C12 1_555 1_555
C13 C8 1_555 1_555
H7 C13 1_555 1_555
C14 C4 1_555 1_555
H8 C14 1_555 1_555
C15 C10 1_555 1_555
H9 C15 1_555 1_555
C16 C13 1_555 1_555
H10 C16 1_555 1_555
C17 C12 1_555 1_555
H11 C17 1_555 1_555
C18 C11 1_555 1_555
H12 C18 1_555 1_555
C19 C4 1_555 1_555
H13 C19 1_555 1_555
C20 C14 1_555 1_555
H14 C20 1_555 1_555
C21 C20 1_555 1_555
C22 C5 1_555 1_555
H15 C22 1_555 1_555
C23 C15 1_555 1_555
H16 C23 1_555 1_555
C24 C19 1_555 1_555
H17 C24 1_555 1_555
C25 C17 1_555 1_555
H18 C25 1_555 1_555
C26 C6 1_555 1_555
H19 C26 1_555 1_555
C27 C23 1_555 1_555
H20 C27 1_555 1_555
C16 C18 1_555 1_555
C21 C24 1_555 1_555
C22 C25 1_555 1_555
C26 C27 1_555 1_555

#END
