
#######################################################################
#
#                 Cambridge Crystallographic Data Centre
#                                CCDC 
#
#######################################################################
#
# If this CIF has been generated from an entry in the Cambridge 
# Structural Database, then it will include bibliographic, chemical, 
# crystal, experimental, refinement or atomic coordinate data resulting 
# from the CCDC's data processing and validation procedures.
#
#######################################################################

data_ATEZOP
_chemical_formula_moiety         'C31 H30 B1 N1'
_chemical_name_systematic        2-((2-(Dimesitylboryl)phenyl)ethynyl)pyridine
_symmetry_cell_setting           monoclinic
_symmetry_space_group_name_H-M   'P 21/c'
_symmetry_Int_Tables_number      14
_space_group_name_Hall           '-P 2ybc'
loop_
_symmetry_equiv_pos_site_id
_symmetry_equiv_pos_as_xyz
1 x,y,z
2 -x,1/2+y,1/2-z
3 -x,-y,-z
4 x,1/2-y,1/2+z
_cell_length_a                   8.148(12)
_cell_length_b                   23.74(3)
_cell_length_c                   12.404(18)
_cell_angle_alpha                90
_cell_angle_beta                 92.161(16)
_cell_angle_gamma                90
_cell_volume                     2397.64
_exptl_crystal_colour            colorless
_exptl_crystal_description       block
_cell_formula_units_Z            4
loop_
_atom_site_label
_atom_site_type_symbol
_atom_site_fract_x
_atom_site_fract_y
_atom_site_fract_z
N1 N 0.9753(8) 0.2432(3) 0.6050(5)
B1 B 0.8205(9) 0.4654(3) 0.7665(6)
C1 C 0.7195(8) 0.4286(3) 0.8478(5)
C2 C 0.6627(8) 0.4537(3) 0.9400(6)
H1 H 0.6745 0.4933 0.9480
C3 C 0.5904(9) 0.4243(3) 1.0201(6)
H2 H 0.5571 0.4431 1.0833
C4 C 0.5662(9) 0.3669(4) 1.0084(6)
H3 H 0.5149 0.3460 1.0631
C5 C 0.6172(8) 0.3403(3) 0.9166(6)
H4 H 0.5969 0.3012 0.9074
C6 C 0.6976(8) 0.3696(3) 0.8374(5)
C7 C 0.7514(9) 0.3392(3) 0.7457(6)
C8 C 0.7962(9) 0.3122(3) 0.6726(6)
C9 C 0.8661(9) 0.2839(3) 0.5813(6)
C10 C 0.8244(9) 0.3009(3) 0.4788(6)
H5 H 0.7435 0.3292 0.4666
C11 C 0.8995(10) 0.2770(3) 0.3945(6)
H6 H 0.8744 0.2890 0.3227
C12 C 1.0141(10) 0.2346(3) 0.4154(7)
H7 H 1.0673 0.2158 0.3587
C13 C 1.0466(10) 0.2212(4) 0.5206(6)
H8 H 1.1284 0.1933 0.5349
C14 C 0.7644(8) 0.5277(3) 0.7466(5)
C15 C 0.8677(8) 0.5740(3) 0.7657(5)
C16 C 0.8098(9) 0.6283(3) 0.7564(5)
H9 H 0.8844 0.6584 0.7708
C17 C 0.6474(9) 0.6415(3) 0.7271(6)
C18 C 0.5464(9) 0.5954(3) 0.7035(6)
H10 H 0.4362 0.6025 0.6796
C19 C 0.5968(9) 0.5406(3) 0.7127(5)
C20 C 0.4760(9) 0.4944(3) 0.6854(6)
H11 H 0.3976 0.5075 0.6290
H12 H 0.4168 0.4843 0.7499
H13 H 0.5349 0.4614 0.6595
C21 C 0.5900(10) 0.7001(3) 0.7195(6)
H14 H 0.4839 0.7034 0.7536
H15 H 0.5777 0.7110 0.6434
H16 H 0.6702 0.7248 0.7565
C22 C 1.0471(9) 0.5668(3) 0.8004(6)
H17 H 1.1026 0.6034 0.7985
H18 H 1.0996 0.5407 0.7512
H19 H 1.0550 0.5517 0.8739
C23 C 0.9726(8) 0.4376(3) 0.7177(5)
C24 C 1.1017(8) 0.4135(3) 0.7833(5)
C25 C 1.2238(8) 0.3839(3) 0.7344(6)
H20 H 1.3091 0.3680 0.7788
C26 C 0.9813(8) 0.4313(3) 0.6051(5)
C27 C 1.2290(8) 0.3764(3) 0.6261(6)
C28 C 1.1060(9) 0.4008(3) 0.5633(6)
H21 H 1.1078 0.3963 0.4873
C29 C 0.8434(9) 0.4531(3) 0.5281(6)
H22 H 0.8772 0.4495 0.4534
H23 H 0.8214 0.4928 0.5440
H24 H 0.7436 0.4309 0.5378
C30 C 1.3628(10) 0.3428(3) 0.5754(7)
H25 H 1.4298 0.3241 0.6320
H26 H 1.4322 0.3681 0.5344
H27 H 1.3135 0.3145 0.5268
C31 C 1.1057(9) 0.4198(3) 0.9038(5)
H28 H 1.2138 0.4085 0.9336
H29 H 1.0209 0.3959 0.9340
H30 H 1.0851 0.4592 0.9225
loop_
_geom_bond_atom_site_label_1
_geom_bond_atom_site_label_2
_geom_bond_site_symmetry_1
_geom_bond_site_symmetry_2
N1 C9 1_555 1_555
B1 C1 1_555 1_555
C1 C2 1_555 1_555
C2 H1 1_555 1_555
C3 C2 1_555 1_555
H2 C3 1_555 1_555
C4 C3 1_555 1_555
H3 C4 1_555 1_555
C5 C4 1_555 1_555
H4 C5 1_555 1_555
C6 C1 1_555 1_555
C7 C6 1_555 1_555
C8 C7 1_555 1_555
C9 C8 1_555 1_555
C10 C9 1_555 1_555
H5 C10 1_555 1_555
C11 C10 1_555 1_555
H6 C11 1_555 1_555
C12 C11 1_555 1_555
H7 C12 1_555 1_555
C13 N1 1_555 1_555
H8 C13 1_555 1_555
C14 B1 1_555 1_555
C15 C14 1_555 1_555
C16 C15 1_555 1_555
H9 C16 1_555 1_555
C17 C16 1_555 1_555
C18 C17 1_555 1_555
H10 C18 1_555 1_555
C19 C14 1_555 1_555
C20 C19 1_555 1_555
H11 C20 1_555 1_555
H12 C20 1_555 1_555
H13 C20 1_555 1_555
C21 C17 1_555 1_555
H14 C21 1_555 1_555
H15 C21 1_555 1_555
H16 C21 1_555 1_555
C22 C15 1_555 1_555
H17 C22 1_555 1_555
H18 C22 1_555 1_555
H19 C22 1_555 1_555
C23 B1 1_555 1_555
C24 C23 1_555 1_555
C25 C24 1_555 1_555
H20 C25 1_555 1_555
C26 C23 1_555 1_555
C27 C25 1_555 1_555
C28 C26 1_555 1_555
H21 C28 1_555 1_555
C29 C26 1_555 1_555
H22 C29 1_555 1_555
H23 C29 1_555 1_555
H24 C29 1_555 1_555
C30 C27 1_555 1_555
H25 C30 1_555 1_555
H26 C30 1_555 1_555
H27 C30 1_555 1_555
C31 C24 1_555 1_555
H28 C31 1_555 1_555
H29 C31 1_555 1_555
H30 C31 1_555 1_555
C5 C6 1_555 1_555
C12 C13 1_555 1_555
C18 C19 1_555 1_555
C27 C28 1_555 1_555

#END
