
#######################################################################
#
#                 Cambridge Crystallographic Data Centre
#                                CCDC 
#
#######################################################################
#
# If this CIF has been generated from an entry in the Cambridge 
# Structural Database, then it will include bibliographic, chemical, 
# crystal, experimental, refinement or atomic coordinate data resulting 
# from the CCDC's data processing and validation procedures.
#
#######################################################################

data_ATIHIW
_chemical_formula_moiety         'C22 H18 N4 O1'
_chemical_name_systematic        
1-amino-10,11-dimethyl-5-phenylindazolo[3,2-b]quinazolin-7(5H)-one
_symmetry_cell_setting           monoclinic
_symmetry_space_group_name_H-M   'P 21/c'
_symmetry_Int_Tables_number      14
_space_group_name_Hall           '-P 2ybc'
loop_
_symmetry_equiv_pos_site_id
_symmetry_equiv_pos_as_xyz
1 x,y,z
2 -x,1/2+y,1/2-z
3 -x,-y,-z
4 x,1/2-y,1/2+z
_cell_length_a                   9.3515(4)
_cell_length_b                   11.0074(5)
_cell_length_c                   17.9220(8)
_cell_angle_alpha                90
_cell_angle_beta                 103.202(2)
_cell_angle_gamma                90
_cell_volume                     1796.06
_exptl_crystal_colour            orange
_exptl_crystal_description       block
_cell_formula_units_Z            4
loop_
_atom_site_label
_atom_site_type_symbol
_atom_site_fract_x
_atom_site_fract_y
_atom_site_fract_z
O1 O 0.87086(13) -0.00643(13) 0.09568(8)
N1 N 0.44846(16) 0.12163(14) 0.06477(9)
N2 N 0.65173(14) 0.00473(13) 0.13060(8)
N3 N 0.67901(15) -0.09185(13) 0.18441(8)
N4 N 0.18989(19) 0.04116(19) 0.12623(14)
H1 H 0.0972(13) 0.022(2) 0.1179(14)
H2 H 0.213(3) 0.079(2) 0.0884(10)
C1 C 0.5431(2) 0.17690(17) 0.02590(10)
C2 C 0.4872(3) 0.27381(19) -0.02445(11)
C3 C 0.5791(3) 0.3303(2) -0.06389(12)
C4 C 0.7238(3) 0.2900(2) -0.05511(12)
H3 H 0.7842 0.3286 -0.0824
C5 C 0.7794(2) 0.19543(19) -0.00754(11)
H4 H 0.8755 0.1693 -0.0035
C6 C 0.6898(2) 0.13859(17) 0.03491(10)
C7 C 0.74880(18) 0.04031(17) 0.08688(10)
C8 C 0.50544(17) 0.03969(16) 0.11484(10)
C9 C 0.43755(18) -0.03251(16) 0.16291(10)
C10 C 0.29046(19) -0.03407(18) 0.17004(12)
C11 C 0.2590(2) -0.1126(2) 0.22451(13)
H5 H 0.1636 -0.1174 0.2314
C12 C 0.3676(2) -0.1838(2) 0.26886(12)
H6 H 0.3426 -0.2334 0.3059
C13 C 0.5120(2) -0.18553(18) 0.26108(11)
H7 H 0.5831 -0.2353 0.2909
C14 C 0.54312(18) -0.10847(16) 0.20606(10)
C15 C 0.80999(18) -0.08117(17) 0.24521(10)
C16 C 0.8702(2) -0.18706(19) 0.27894(11)
H8 H 0.8320 -0.2618 0.2599
C17 C 0.9882(2) -0.1817(2) 0.34152(13)
H9 H 1.0276 -0.2531 0.3654
C18 C 1.0469(2) -0.0726(2) 0.36846(12)
H10 H 1.1264 -0.0697 0.4105
C19 C 0.9886(2) 0.0329(2) 0.33349(13)
H11 H 1.0299 0.1072 0.3514
C20 C 0.8692(2) 0.02947(19) 0.27182(11)
H12 H 0.8291 0.1011 0.2485
C21 C 0.3291(3) 0.3110(2) -0.03289(14)
H13 H 0.3066 0.3770 -0.0686
H14 H 0.3139 0.3363 0.0160
H15 H 0.2662 0.2433 -0.0514
C22 C 0.5289(4) 0.4357(2) -0.11828(15)
H16 H 0.4282 0.4544 -0.1192
H17 H 0.5377 0.4139 -0.1689
H18 H 0.5889 0.5056 -0.1011
loop_
_geom_bond_atom_site_label_1
_geom_bond_atom_site_label_2
_geom_bond_site_symmetry_1
_geom_bond_site_symmetry_2
O1 C7 1_555 1_555
N1 C1 1_555 1_555
N2 N3 1_555 1_555
N3 C14 1_555 1_555
N4 H1 1_555 1_555
H2 N4 1_555 1_555
C1 C2 1_555 1_555
C2 C3 1_555 1_555
C3 C4 1_555 1_555
C4 H3 1_555 1_555
C5 C4 1_555 1_555
H4 C5 1_555 1_555
C6 C1 1_555 1_555
C7 N2 1_555 1_555
C8 N1 1_555 1_555
C9 C8 1_555 1_555
C10 N4 1_555 1_555
C11 C10 1_555 1_555
H5 C11 1_555 1_555
C12 C11 1_555 1_555
H6 C12 1_555 1_555
C13 C12 1_555 1_555
H7 C13 1_555 1_555
C14 C9 1_555 1_555
C15 N3 1_555 1_555
C16 C15 1_555 1_555
H8 C16 1_555 1_555
C17 C16 1_555 1_555
H9 C17 1_555 1_555
C18 C17 1_555 1_555
H10 C18 1_555 1_555
C19 C18 1_555 1_555
H11 C19 1_555 1_555
C20 C15 1_555 1_555
H12 C20 1_555 1_555
C21 C2 1_555 1_555
H13 C21 1_555 1_555
H14 C21 1_555 1_555
H15 C21 1_555 1_555
C22 C3 1_555 1_555
H16 C22 1_555 1_555
H17 C22 1_555 1_555
H18 C22 1_555 1_555
N2 C8 1_555 1_555
C5 C6 1_555 1_555
C6 C7 1_555 1_555
C9 C10 1_555 1_555
C13 C14 1_555 1_555
C19 C20 1_555 1_555

#END
