
#######################################################################
#
#                 Cambridge Crystallographic Data Centre
#                                CCDC 
#
#######################################################################
#
# If this CIF has been generated from an entry in the Cambridge 
# Structural Database, then it will include bibliographic, chemical, 
# crystal, experimental, refinement or atomic coordinate data resulting 
# from the CCDC's data processing and validation procedures.
#
#######################################################################

data_ATIJEU
_chemical_formula_moiety         'C27 H29 Br1 O7'
_chemical_name_systematic        
'diethyl 3-(4-bromobenzoyl)-4-(2-methoxy-2-oxoethyl)-2-phenylcyclopentane-1,1-dicarboxylate'
_symmetry_cell_setting           orthorhombic
_symmetry_space_group_name_H-M   'P 21 21 21'
_symmetry_Int_Tables_number      19
_space_group_name_Hall           'P 2ac 2ab'
loop_
_symmetry_equiv_pos_site_id
_symmetry_equiv_pos_as_xyz
1 x,y,z
2 1/2-x,-y,1/2+z
3 -x,1/2+y,1/2-z
4 1/2+x,1/2-y,-z
_cell_length_a                   9.7635(9)
_cell_length_b                   12.5965(11)
_cell_length_c                   21.2878(19)
_cell_angle_alpha                90
_cell_angle_beta                 90
_cell_angle_gamma                90
_cell_volume                     2618.1
_exptl_crystal_colour            colorless
_exptl_crystal_description       prismatic
_cell_formula_units_Z            4
loop_
_atom_site_label
_atom_site_type_symbol
_atom_site_fract_x
_atom_site_fract_y
_atom_site_fract_z
Br1 Br 0.67041(10) 0.13868(6) 1.05259(3)
O1 O 0.3000(4) 0.2431(3) 0.78913(19)
O2 O 0.2056(4) 0.4231(3) 0.6028(2)
O3 O 0.1506(4) 0.5702(3) 0.65395(18)
O4 O 0.7803(4) 0.3807(3) 0.59433(17)
O5 O 0.8361(3) 0.2210(3) 0.63321(16)
O6 O 0.5352(4) 0.1106(3) 0.68156(16)
O7 O 0.5495(4) 0.1676(2) 0.58220(16)
C1 C 0.4168(5) 0.2730(3) 0.8002(2)
C2 C 0.4920(5) 0.3443(3) 0.7541(2)
H1 H 0.5079 0.4123 0.7752
C3 C 0.6346(4) 0.3007(3) 0.73279(19)
H2 H 0.6466 0.2299 0.7511
C4 C 0.6192(4) 0.2877(3) 0.6598(2)
C5 C 0.5142(5) 0.3729(3) 0.64258(19)
H3 H 0.5565 0.4426 0.6414
H4 H 0.4734 0.3582 0.6020
C6 C 0.4071(5) 0.3670(3) 0.6945(2)
H5 H 0.3475 0.3060 0.6864
C7 C 0.3189(5) 0.4656(4) 0.6998(2)
H6 H 0.2664 0.4616 0.7384
H7 H 0.3782 0.5272 0.7027
C8 C 0.2215(5) 0.4812(4) 0.6457(3)
C9 C 0.0459(7) 0.5914(5) 0.6070(3)
H8 H 0.0887 0.6066 0.5674
H9 H -0.0081 0.6513 0.6199
H10 H -0.0121 0.5303 0.6027
C10 C 0.4835(5) 0.2409(3) 0.8609(2)
C11 C 0.4250(5) 0.1599(4) 0.8953(2)
H11 H 0.3470 0.1261 0.8802
C12 C 0.4812(6) 0.1282(4) 0.9520(3)
H12 H 0.4427 0.0727 0.9748
C13 C 0.5935(7) 0.1798(4) 0.9737(2)
C14 C 0.6546(6) 0.2602(4) 0.9411(2)
H13 H 0.7327 0.2936 0.9564
C15 C 0.5970(6) 0.2903(4) 0.8847(2)
H14 H 0.6365 0.3456 0.8622
C16 C 0.7559(4) 0.3678(4) 0.75162(18)
C17 C 0.7541(5) 0.4795(4) 0.7503(2)
H15 H 0.6755 0.5148 0.7370
C18 C 0.8660(6) 0.5367(4) 0.7681(3)
H16 H 0.8617 0.6105 0.7679
C19 C 0.9841(6) 0.4878(5) 0.7863(3)
H17 H 1.0600 0.5279 0.7979
C20 C 0.9905(5) 0.3784(5) 0.7876(3)
H18 H 1.0704 0.3442 0.8001
C21 C 0.8759(5) 0.3196(4) 0.7699(2)
H19 H 0.8807 0.2459 0.7704
C22 C 0.7544(5) 0.3034(4) 0.6248(2)
C23 C 0.9690(6) 0.2235(5) 0.6013(3)
H20 H 0.9946 0.2965 0.5926
H21 H 1.0386 0.1926 0.6282
C24 C 0.9606(8) 0.1647(6) 0.5434(4)
H22 H 0.9234 0.0955 0.5516
H23 H 1.0505 0.1576 0.5256
H24 H 0.9024 0.2017 0.5144
C25 C 0.5634(5) 0.1780(3) 0.6446(2)
C26 C 0.4931(8) 0.0690(4) 0.5588(3)
H25 H 0.5272 0.0103 0.5838
H26 H 0.5222 0.0581 0.5157
C27 C 0.3419(8) 0.0712(6) 0.5617(4)
H27 H 0.3131 0.0758 0.6047
H28 H 0.3059 0.0074 0.5433
H29 H 0.3085 0.1316 0.5389
loop_
_geom_bond_atom_site_label_1
_geom_bond_atom_site_label_2
_geom_bond_site_symmetry_1
_geom_bond_site_symmetry_2
Br1 C13 1_555 1_555
O1 C1 1_555 1_555
O2 C8 1_555 1_555
O3 C8 1_555 1_555
O4 C22 1_555 1_555
O5 C22 1_555 1_555
O6 C25 1_555 1_555
O7 C25 1_555 1_555
C1 C2 1_555 1_555
C2 H1 1_555 1_555
C3 C2 1_555 1_555
H2 C3 1_555 1_555
C4 C3 1_555 1_555
C5 C4 1_555 1_555
H3 C5 1_555 1_555
H4 C5 1_555 1_555
C6 C2 1_555 1_555
H5 C6 1_555 1_555
C7 C6 1_555 1_555
H6 C7 1_555 1_555
H7 C7 1_555 1_555
C8 C7 1_555 1_555
C9 O3 1_555 1_555
H8 C9 1_555 1_555
H9 C9 1_555 1_555
H10 C9 1_555 1_555
C10 C1 1_555 1_555
C11 C10 1_555 1_555
H11 C11 1_555 1_555
C12 C11 1_555 1_555
H12 C12 1_555 1_555
C13 C12 1_555 1_555
C14 C13 1_555 1_555
H13 C14 1_555 1_555
C15 C10 1_555 1_555
H14 C15 1_555 1_555
C16 C3 1_555 1_555
C17 C16 1_555 1_555
H15 C17 1_555 1_555
C18 C17 1_555 1_555
H16 C18 1_555 1_555
C19 C18 1_555 1_555
H17 C19 1_555 1_555
C20 C19 1_555 1_555
H18 C20 1_555 1_555
C21 C16 1_555 1_555
H19 C21 1_555 1_555
C22 C4 1_555 1_555
C23 O5 1_555 1_555
H20 C23 1_555 1_555
H21 C23 1_555 1_555
C24 C23 1_555 1_555
H22 C24 1_555 1_555
H23 C24 1_555 1_555
H24 C24 1_555 1_555
C25 C4 1_555 1_555
C26 O7 1_555 1_555
H25 C26 1_555 1_555
H26 C26 1_555 1_555
C27 C26 1_555 1_555
H27 C27 1_555 1_555
H28 C27 1_555 1_555
H29 C27 1_555 1_555
C5 C6 1_555 1_555
C14 C15 1_555 1_555
C20 C21 1_555 1_555

#END
