
#######################################################################
#
#                 Cambridge Crystallographic Data Centre
#                                CCDC 
#
#######################################################################
#
# If this CIF has been generated from an entry in the Cambridge 
# Structural Database, then it will include bibliographic, chemical, 
# crystal, experimental, refinement or atomic coordinate data resulting 
# from the CCDC's data processing and validation procedures.
#
#######################################################################

data_ATINUO
_chemical_formula_moiety         'C38 H54 N6 O2'
_chemical_name_systematic        
2,3-bis((2-butoxy-4-(dipropylamino)benzylidene)amino)but-2-enedinitrile
_symmetry_cell_setting           triclinic
_symmetry_space_group_name_H-M   'P -1'
_symmetry_Int_Tables_number      2
_space_group_name_Hall           '-P 1'
loop_
_symmetry_equiv_pos_site_id
_symmetry_equiv_pos_as_xyz
1 x,y,z
2 -x,-y,-z
_cell_length_a                   8.550(7)
_cell_length_b                   9.149(9)
_cell_length_c                   12.898(12)
_cell_angle_alpha                87.48(4)
_cell_angle_beta                 72.02(4)
_cell_angle_gamma                74.27(4)
_cell_volume                     922.852
_exptl_crystal_colour            red
_exptl_crystal_description       block
_cell_formula_units_Z            1
loop_
_atom_site_label
_atom_site_type_symbol
_atom_site_fract_x
_atom_site_fract_y
_atom_site_fract_z
O1 O 1.0332(4) 0.7638(4) 0.4009(3)
N1 N 1.5306(6) 0.9505(5) 0.2670(4)
N2 N 1.3168(4) 0.9213(4) 0.5414(3)
N3 N 0.6632(5) 0.6701(5) 0.7490(3)
C1 C 1.4989(5) 0.9628(5) 0.3586(4)
C2 C 1.4512(5) 0.9715(5) 0.4768(4)
C3 C 1.2218(5) 0.8729(5) 0.4967(4)
H1 H 1.2460 0.8734 0.4205
C4 C 1.0822(5) 0.8195(5) 0.5609(4)
C5 C 0.9823(5) 0.7635(5) 0.5113(4)
C6 C 0.8448(5) 0.7141(5) 0.5729(4)
H2 H 0.7802 0.6780 0.5379
C7 C 0.7995(5) 0.7170(5) 0.6872(4)
C8 C 0.9011(6) 0.7701(6) 0.7369(4)
H3 H 0.8753 0.7715 0.8133
C9 C 1.0357(6) 0.8192(6) 0.6750(4)
H4 H 1.1006 0.8545 0.7102
C10 C 0.5320(6) 0.6489(6) 0.7049(4)
H5 H 0.5302 0.7131 0.6422
H6 H 0.4203 0.6835 0.7606
C11 C 0.5582(7) 0.4869(6) 0.6696(5)
H7 H 0.5768 0.4194 0.7283
H8 H 0.6596 0.4567 0.6054
C12 C 0.4015(7) 0.4719(7) 0.6420(5)
H9 H 0.4192 0.3674 0.6193
H10 H 0.3016 0.5008 0.7059
H11 H 0.3842 0.5380 0.5833
C13 C 0.6264(7) 0.6553(6) 0.8663(4)
H12 H 0.7350 0.6214 0.8826
H13 H 0.5671 0.5758 0.8882
C14 C 0.5201(8) 0.7976(7) 0.9345(5)
H14 H 0.4111 0.8337 0.9189
H15 H 0.5799 0.8772 0.9161
C15 C 0.4873(9) 0.7661(8) 1.0538(5)
H16 H 0.4186 0.8584 1.0972
H17 H 0.4268 0.6882 1.0719
H18 H 0.5952 0.7315 1.0692
C16 C 0.9422(6) 0.7100(6) 0.3408(4)
H19 H 0.8211 0.7663 0.3648
H20 H 0.9514 0.6017 0.3521
C17 C 1.0230(7) 0.7353(7) 0.2224(4)
H21 H 1.0127 0.8441 0.2136
H22 H 1.1451 0.6822 0.2016
C18 C 0.9459(8) 0.6820(8) 0.1465(5)
H23 H 0.8236 0.7339 0.1676
H24 H 0.9583 0.5728 0.1538
C19 C 1.0277(11) 0.7115(11) 0.0289(5)
H25 H 0.9736 0.6752 -0.0168
H26 H 1.0137 0.8198 0.0207
H27 H 1.1485 0.6586 0.0070
O1A O 1.9668(4) 1.2362(4) 0.5991(3)
N1A N 1.4694(6) 1.0495(5) 0.7330(4)
N2A N 1.6832(4) 1.0787(4) 0.4586(3)
N3A N 2.3368(5) 1.3299(5) 0.2510(3)
C1A C 1.5011(5) 1.0372(5) 0.6414(4)
C2A C 1.5488(5) 1.0285(5) 0.5232(4)
C3A C 1.7782(5) 1.1271(5) 0.5033(4)
H1A H 1.7540 1.1266 0.5795
C4A C 1.9178(5) 1.1805(5) 0.4391(4)
C5A C 2.0177(5) 1.2365(5) 0.4887(4)
C6A C 2.1552(5) 1.2859(5) 0.4271(4)
H2A H 2.2198 1.3220 0.4621
C7A C 2.2005(5) 1.2830(5) 0.3128(4)
C8A C 2.0989(6) 1.2299(6) 0.2631(4)
H3A H 2.1247 1.2285 0.1867
C9A C 1.9643(6) 1.1808(6) 0.3250(4)
H4A H 1.8994 1.1455 0.2898
C10A C 2.4680(6) 1.3511(6) 0.2951(4)
H5A H 2.4698 1.2869 0.3578
H6A H 2.5797 1.3165 0.2394
C11A C 2.4418(7) 1.5131(6) 0.3304(5)
H7A H 2.4232 1.5806 0.2717
H8A H 2.3404 1.5433 0.3946
C12A C 2.5985(7) 1.5281(7) 0.3580(5)
H9A H 2.5808 1.6326 0.3807
H10A H 2.6984 1.4992 0.2941
H11A H 2.6158 1.4620 0.4167
C13A C 2.3736(7) 1.3447(6) 0.1337(4)
H12A H 2.2650 1.3786 0.1174
H13A H 2.4329 1.4242 0.1118
C14A C 2.4799(8) 1.2024(7) 0.0655(5)
H14A H 2.5889 1.1663 0.0811
H15A H 2.4201 1.1228 0.0839
C15A C 2.5127(9) 1.2339(8) -0.0538(5)
H16A H 2.5814 1.1416 -0.0972
H17A H 2.5732 1.3118 -0.0719
H18A H 2.4048 1.2685 -0.0692
C16A C 2.0578(6) 1.2900(6) 0.6592(4)
H19A H 2.1789 1.2337 0.6352
H20A H 2.0486 1.3983 0.6479
C17A C 1.9770(7) 1.2647(7) 0.7776(4)
H21A H 1.9873 1.1559 0.7864
H22A H 1.8549 1.3178 0.7984
C18A C 2.0541(8) 1.3180(8) 0.8535(5)
H23A H 2.1764 1.2661 0.8324
H24A H 2.0417 1.4272 0.8462
C19A C 1.9723(11) 1.2885(11) 0.9711(5)
H25A H 2.0264 1.3248 1.0168
H26A H 1.9863 1.1802 0.9793
H27A H 1.8515 1.3414 0.9930
loop_
_geom_bond_atom_site_label_1
_geom_bond_atom_site_label_2
_geom_bond_site_symmetry_1
_geom_bond_site_symmetry_2
O1 C5 1_555 1_555
N1 C1 1_555 1_555
N2 C2 1_555 1_555
N3 C7 1_555 1_555
C1 C2 1_555 1_555
C2 C2A 1_555 1_555
C3 N2 1_555 1_555
H1 C3 1_555 1_555
C4 C3 1_555 1_555
C5 C4 1_555 1_555
C6 C5 1_555 1_555
H2 C6 1_555 1_555
C7 C6 1_555 1_555
C8 C7 1_555 1_555
H3 C8 1_555 1_555
C9 C4 1_555 1_555
H4 C9 1_555 1_555
C10 N3 1_555 1_555
H5 C10 1_555 1_555
H6 C10 1_555 1_555
C11 C10 1_555 1_555
H7 C11 1_555 1_555
H8 C11 1_555 1_555
C12 C11 1_555 1_555
H9 C12 1_555 1_555
H10 C12 1_555 1_555
H11 C12 1_555 1_555
C13 N3 1_555 1_555
H12 C13 1_555 1_555
H13 C13 1_555 1_555
C14 C13 1_555 1_555
H14 C14 1_555 1_555
H15 C14 1_555 1_555
C15 C14 1_555 1_555
H16 C15 1_555 1_555
H17 C15 1_555 1_555
H18 C15 1_555 1_555
C16 O1 1_555 1_555
H19 C16 1_555 1_555
H20 C16 1_555 1_555
C17 C16 1_555 1_555
H21 C17 1_555 1_555
H22 C17 1_555 1_555
C18 C17 1_555 1_555
H23 C18 1_555 1_555
H24 C18 1_555 1_555
C19 C18 1_555 1_555
H25 C19 1_555 1_555
H26 C19 1_555 1_555
H27 C19 1_555 1_555
O1A C5A 1_555 1_555
N1A C1A 1_555 1_555
N2A C2A 1_555 1_555
N3A C7A 1_555 1_555
C1A C2A 1_555 1_555
C3A N2A 1_555 1_555
H1A C3A 1_555 1_555
C4A C3A 1_555 1_555
C5A C4A 1_555 1_555
C6A C5A 1_555 1_555
H2A C6A 1_555 1_555
C7A C6A 1_555 1_555
C8A C7A 1_555 1_555
H3A C8A 1_555 1_555
C9A C4A 1_555 1_555
H4A C9A 1_555 1_555
C10A N3A 1_555 1_555
H5A C10A 1_555 1_555
H6A C10A 1_555 1_555
C11A C10A 1_555 1_555
H7A C11A 1_555 1_555
H8A C11A 1_555 1_555
C12A C11A 1_555 1_555
H9A C12A 1_555 1_555
H10A C12A 1_555 1_555
H11A C12A 1_555 1_555
C13A N3A 1_555 1_555
H12A C13A 1_555 1_555
H13A C13A 1_555 1_555
C14A C13A 1_555 1_555
H14A C14A 1_555 1_555
H15A C14A 1_555 1_555
C15A C14A 1_555 1_555
H16A C15A 1_555 1_555
H17A C15A 1_555 1_555
H18A C15A 1_555 1_555
C16A O1A 1_555 1_555
H19A C16A 1_555 1_555
H20A C16A 1_555 1_555
C17A C16A 1_555 1_555
H21A C17A 1_555 1_555
H22A C17A 1_555 1_555
C18A C17A 1_555 1_555
H23A C18A 1_555 1_555
H24A C18A 1_555 1_555
C19A C18A 1_555 1_555
H25A C19A 1_555 1_555
H26A C19A 1_555 1_555
H27A C19A 1_555 1_555
C8 C9 1_555 1_555
C8A C9A 1_555 1_555

#END
