
#######################################################################
#
#                 Cambridge Crystallographic Data Centre
#                                CCDC 
#
#######################################################################
#
# If this CIF has been generated from an entry in the Cambridge 
# Structural Database, then it will include bibliographic, chemical, 
# crystal, experimental, refinement or atomic coordinate data resulting 
# from the CCDC's data processing and validation procedures.
#
#######################################################################

data_ATINIC
_chemical_formula_moiety         'C34 H46 N6 O2'
_chemical_name_systematic        
'2,3-bis((4-(dipropylamino)-2-ethoxybenzylidene)amino)but-2-enedinitrile unknown solvate'
_symmetry_cell_setting           triclinic
_symmetry_space_group_name_H-M   'P -1'
_symmetry_Int_Tables_number      2
_space_group_name_Hall           '-P 1'
loop_
_symmetry_equiv_pos_site_id
_symmetry_equiv_pos_as_xyz
1 x,y,z
2 -x,-y,-z
_cell_length_a                   8.62734(16)
_cell_length_b                   9.0502(2)
_cell_length_c                   13.3357(3)
_cell_angle_alpha                73.8332(12)
_cell_angle_beta                 86.5867(10)
_cell_angle_gamma                75.3553(10)
_cell_volume                     967.509
_exptl_crystal_colour            red
_exptl_crystal_description       block
_cell_formula_units_Z            1
loop_
_atom_site_label
_atom_site_type_symbol
_atom_site_fract_x
_atom_site_fract_y
_atom_site_fract_z
O1 O 0.9844(3) 0.2232(3) 1.0913(2)
N1 N 1.4268(5) 0.3629(5) 1.2231(3)
N2 N 1.3340(3) 0.4365(4) 0.9607(2)
N3 N 0.7873(4) 0.2513(5) 0.7545(3)
C1 C 1.4364(4) 0.4100(5) 1.1353(4)
C2 C 1.4409(4) 0.4635(5) 1.0225(3)
C3 C 1.2192(4) 0.3705(4) 1.0038(3)
H1 H 1.2090 0.3424 1.0760
C4 C 1.1091(4) 0.3415(5) 0.9394(3)
C5 C 0.9884(4) 0.2655(5) 0.9846(3)
C6 C 0.8808(4) 0.2346(5) 0.9242(3)
H2 H 0.8026 0.1833 0.9561
C7 C 0.8903(4) 0.2808(5) 0.8152(3)
C8 C 1.0104(5) 0.3566(6) 0.7703(3)
H3 H 1.0189 0.3879 0.6980
C9 C 1.1149(5) 0.3851(5) 0.8310(3)
H4 H 1.1932 0.4358 0.7986
C10 C 0.6160(8) 0.2138(8) 0.7999(5)
H5 H 0.5840 0.2521 0.8610
H6 H 0.5318 0.2613 0.7473
C11 C 0.6495(9) 0.0583(9) 0.8240(6)
H7 H 0.7252 0.0101 0.8818
H8 H 0.6912 0.0188 0.7647
C12 C 0.4645(6) 0.0268(7) 0.8581(5)
H9 H 0.4714 -0.0852 0.8780
H10 H 0.4258 0.0695 0.9157
H11 H 0.3920 0.0782 0.7997
C13 C 0.8134(10) 0.2761(9) 0.6372(6)
H12 H 0.9272 0.2576 0.6226
H13 H 0.7718 0.2011 0.6138
C14 C 0.7379(9) 0.4261(14) 0.5853(8)
H14 H 0.7813 0.5028 0.6052
H15 H 0.6238 0.4470 0.5989
C15 C 0.7738(12) 0.4329(14) 0.4585(5)
H16 H 0.7237 0.5367 0.4156
H17 H 0.8873 0.4107 0.4471
H18 H 0.7309 0.3553 0.4408
C16 C 0.8618(5) 0.1518(6) 1.1433(3)
H19 H 0.8750 0.0476 1.1326
H20 H 0.7572 0.2169 1.1166
C17 C 0.8769(6) 0.1386(7) 1.2557(4)
H21 H 0.7960 0.0907 1.2938
H22 H 0.9809 0.0740 1.2810
H23 H 0.8636 0.2424 1.2651
O1A O 2.0156(3) 0.7768(3) 0.9087(2)
N1A N 1.5732(5) 0.6371(5) 0.7769(3)
N2A N 1.6660(3) 0.5635(4) 1.0393(2)
N3A N 2.2127(4) 0.7487(5) 1.2455(3)
C1A C 1.5636(4) 0.5900(5) 0.8647(4)
C2A C 1.5591(4) 0.5365(5) 0.9775(3)
C3A C 1.7808(4) 0.6295(4) 0.9962(3)
H1A H 1.7910 0.6576 0.9240
C4A C 1.8909(4) 0.6585(5) 1.0606(3)
C5A C 2.0116(4) 0.7345(5) 1.0154(3)
C6A C 2.1192(4) 0.7654(5) 1.0758(3)
H2A H 2.1974 0.8167 1.0439
C7A C 2.1097(4) 0.7192(5) 1.1848(3)
C8A C 1.9896(5) 0.6434(6) 1.2297(3)
H3A H 1.9811 0.6121 1.3020
C9A C 1.8851(5) 0.6149(5) 1.1690(3)
H4A H 1.8068 0.5642 1.2014
C10A C 2.3840(8) 0.7862(8) 1.2001(5)
H5A H 2.4160 0.7479 1.1390
H6A H 2.4682 0.7387 1.2527
C11A C 2.3505(9) 0.9417(9) 1.1760(6)
H7A H 2.2748 0.9899 1.1182
H8A H 2.3088 0.9812 1.2353
C12A C 2.5355(6) 0.9732(7) 1.1419(5)
H9A H 2.5286 1.0852 1.1220
H10A H 2.5742 0.9305 1.0843
H11A H 2.6080 0.9218 1.2003
C13A C 2.1866(10) 0.7239(9) 1.3628(6)
H12A H 2.0728 0.7424 1.3774
H13A H 2.2282 0.7989 1.3862
C14A C 2.2621(9) 0.5739(14) 1.4147(8)
H14A H 2.2187 0.4972 1.3948
H15A H 2.3762 0.5530 1.4011
C15A C 2.2262(12) 0.5671(14) 1.5415(5)
H16A H 2.2763 0.4633 1.5844
H17A H 2.1127 0.5893 1.5529
H18A H 2.2691 0.6447 1.5592
C16A C 2.1382(5) 0.8482(6) 0.8567(3)
H19A H 2.1250 0.9524 0.8674
H20A H 2.2428 0.7831 0.8834
C17A C 2.1231(6) 0.8614(7) 0.7443(4)
H21A H 2.2040 0.9093 0.7062
H22A H 2.0191 0.9260 0.7190
H23A H 2.1364 0.7576 0.7349
loop_
_geom_bond_atom_site_label_1
_geom_bond_atom_site_label_2
_geom_bond_site_symmetry_1
_geom_bond_site_symmetry_2
O1 C5 1_555 1_555
N1 C1 1_555 1_555
N2 C2 1_555 1_555
N3 C7 1_555 1_555
C1 C2 1_555 1_555
C2 C2A 1_555 1_555
C3 N2 1_555 1_555
H1 C3 1_555 1_555
C4 C3 1_555 1_555
C5 C4 1_555 1_555
C6 C5 1_555 1_555
H2 C6 1_555 1_555
C7 C6 1_555 1_555
C8 C7 1_555 1_555
H3 C8 1_555 1_555
C9 C4 1_555 1_555
H4 C9 1_555 1_555
C10 N3 1_555 1_555
H5 C10 1_555 1_555
H6 C10 1_555 1_555
C11 C10 1_555 1_555
H7 C11 1_555 1_555
H8 C11 1_555 1_555
C12 C11 1_555 1_555
H9 C12 1_555 1_555
H10 C12 1_555 1_555
H11 C12 1_555 1_555
C13 N3 1_555 1_555
H12 C13 1_555 1_555
H13 C13 1_555 1_555
C14 C13 1_555 1_555
H14 C14 1_555 1_555
H15 C14 1_555 1_555
C15 C14 1_555 1_555
H16 C15 1_555 1_555
H17 C15 1_555 1_555
H18 C15 1_555 1_555
C16 O1 1_555 1_555
H19 C16 1_555 1_555
H20 C16 1_555 1_555
C17 C16 1_555 1_555
H21 C17 1_555 1_555
H22 C17 1_555 1_555
H23 C17 1_555 1_555
O1A C5A 1_555 1_555
N1A C1A 1_555 1_555
N2A C2A 1_555 1_555
N3A C7A 1_555 1_555
C1A C2A 1_555 1_555
C3A N2A 1_555 1_555
H1A C3A 1_555 1_555
C4A C3A 1_555 1_555
C5A C4A 1_555 1_555
C6A C5A 1_555 1_555
H2A C6A 1_555 1_555
C7A C6A 1_555 1_555
C8A C7A 1_555 1_555
H3A C8A 1_555 1_555
C9A C4A 1_555 1_555
H4A C9A 1_555 1_555
C10A N3A 1_555 1_555
H5A C10A 1_555 1_555
H6A C10A 1_555 1_555
C11A C10A 1_555 1_555
H7A C11A 1_555 1_555
H8A C11A 1_555 1_555
C12A C11A 1_555 1_555
H9A C12A 1_555 1_555
H10A C12A 1_555 1_555
H11A C12A 1_555 1_555
C13A N3A 1_555 1_555
H12A C13A 1_555 1_555
H13A C13A 1_555 1_555
C14A C13A 1_555 1_555
H14A C14A 1_555 1_555
H15A C14A 1_555 1_555
C15A C14A 1_555 1_555
H16A C15A 1_555 1_555
H17A C15A 1_555 1_555
H18A C15A 1_555 1_555
C16A O1A 1_555 1_555
H19A C16A 1_555 1_555
H20A C16A 1_555 1_555
C17A C16A 1_555 1_555
H21A C17A 1_555 1_555
H22A C17A 1_555 1_555
H23A C17A 1_555 1_555
C8 C9 1_555 1_555
C8A C9A 1_555 1_555

#END
