
#######################################################################
#
#                 Cambridge Crystallographic Data Centre
#                                CCDC 
#
#######################################################################
#
# If this CIF has been generated from an entry in the Cambridge 
# Structural Database, then it will include bibliographic, chemical, 
# crystal, experimental, refinement or atomic coordinate data resulting 
# from the CCDC's data processing and validation procedures.
#
#######################################################################

data_ATIPOJ
_chemical_name_common            
'1-[2-methyl-5-(3-methoxyphenyl)-3-thienyl]-2-(2-cyano-1,5-dimethyl-4-pyrryl)-3,3,4,4,5,5- hexafluorocyclopent-1-ene'
_chemical_formula_moiety         'C24 H18 F6 N2 O1 S1'
_chemical_name_systematic        
4-(3,3,4,4,5,5-Hexafluoro-2-(5-(3-methoxyphenyl)-2-methyl-3-thienyl)cyclopent-1-en-1-yl)-1,5-dimethyl-1H-pyrrole-2-carbonitrile
_symmetry_cell_setting           triclinic
_symmetry_space_group_name_H-M   'P -1'
_symmetry_Int_Tables_number      2
_space_group_name_Hall           '-P 1'
loop_
_symmetry_equiv_pos_site_id
_symmetry_equiv_pos_as_xyz
1 x,y,z
2 -x,-y,-z
_cell_length_a                   8.8364(18)
_cell_length_b                   11.236(2)
_cell_length_c                   11.943(2)
_cell_angle_alpha                91.277(3)
_cell_angle_beta                 108.206(3)
_cell_angle_gamma                92.082(4)
_cell_volume                     1124.96
_cell_formula_units_Z            2
loop_
_atom_site_label
_atom_site_type_symbol
_atom_site_fract_x
_atom_site_fract_y
_atom_site_fract_z
S1 S 0.31077(10) 0.51867(6) 0.65098(7)
F1 F 0.5560(2) 1.09839(17) 0.61755(19)
F2 F 0.5196(3) 1.14054(16) 0.78225(17)
F3 F 0.2550(7) 1.1484(7) 0.5422(14)
F4 F 0.2353(10) 1.1324(9) 0.7155(13)
F5 F 0.1621(3) 0.92005(18) 0.49549(18)
F6 F 0.0934(2) 0.94791(19) 0.6485(2)
O1 O -0.2208(3) 0.5124(2) 0.9016(2)
N1 N 1.2115(4) 0.9123(3) 0.9341(3)
N2 N 0.8326(3) 0.8285(2) 0.9449(2)
C1 C 1.0763(4) 0.9022(3) 0.9097(3)
C2 C 0.9071(3) 0.8914(3) 0.8781(3)
C3 C 0.7933(3) 0.9378(3) 0.7860(2)
H1 H 0.8111 0.9846 0.7277
C4 C 0.6440(3) 0.9014(2) 0.7960(2)
C5 C 0.6715(3) 0.8342(2) 0.8961(2)
C6 C 0.5578(4) 0.7797(3) 0.9511(3)
H2 H 0.5462 0.6954 0.9336
H3 H 0.4560 0.8145 0.9204
H4 H 0.5975 0.7939 1.0350
C7 C 0.9139(4) 0.7729(3) 1.0563(3)
H5 H 1.0272 0.7844 1.0736
H6 H 0.8855 0.6892 1.0496
H7 H 0.8822 0.8089 1.1187
C8 C 0.5450(4) 0.6669(3) 0.6074(3)
H8 H 0.5427 0.7381 0.5641
H9 H 0.5469 0.5988 0.5580
H10 H 0.6387 0.6701 0.6754
C9 C 0.3996(3) 0.6571(2) 0.6462(2)
C10 C 0.3134(3) 0.7445(2) 0.6757(2)
C11 C 0.1753(3) 0.6980(2) 0.7004(2)
H11 H 0.1037 0.7463 0.7205
C12 C 0.1571(3) 0.5774(2) 0.6920(2)
C13 C 0.0282(3) 0.5026(2) 0.7116(2)
C14 C -0.0411(3) 0.5378(2) 0.7953(3)
H12 H -0.0040 0.6080 0.8396
C15 C -0.1650(4) 0.4702(3) 0.8146(3)
C16 C -0.2230(4) 0.3674(3) 0.7469(3)
H13 H -0.3085 0.3229 0.7566
C17 C -0.1526(4) 0.3319(3) 0.6652(3)
H14 H -0.1902 0.2617 0.6210
C18 C -0.0284(4) 0.3965(3) 0.6466(3)
H15 H 0.0177 0.3698 0.5910
C19 C -0.3272(5) 0.4373(4) 0.9394(4)
H16 H -0.4269 0.4267 0.8772
H17 H -0.3448 0.4732 1.0077
H18 H -0.2817 0.3612 0.9588
C20 C 0.4892(3) 0.9373(2) 0.7206(2)
C21 C 0.4694(3) 1.0651(2) 0.6878(2)
C22 C 0.2926(4) 1.0771(3) 0.6234(3)
C23 C 0.2195(3) 0.9524(2) 0.6102(2)
C24 C 0.3499(3) 0.8736(2) 0.6749(2)
F7? F 0.2898(18) 1.093(2) 0.4967(10)
F8? F 0.2227(9) 1.1611(8) 0.641(3)
loop_
_geom_bond_atom_site_label_1
_geom_bond_atom_site_label_2
_geom_bond_site_symmetry_1
_geom_bond_site_symmetry_2
S1 C9 1_555 1_555
F1 C21 1_555 1_555
F2 C21 1_555 1_555
F3 C22 1_555 1_555
F4 C22 1_555 1_555
F5 C23 1_555 1_555
F6 C23 1_555 1_555
O1 C15 1_555 1_555
N1 C1 1_555 1_555
N2 C2 1_555 1_555
C1 C2 1_555 1_555
C2 C3 1_555 1_555
C3 H1 1_555 1_555
C4 C3 1_555 1_555
C5 N2 1_555 1_555
C6 C5 1_555 1_555
H2 C6 1_555 1_555
H3 C6 1_555 1_555
H4 C6 1_555 1_555
C7 N2 1_555 1_555
H5 C7 1_555 1_555
H6 C7 1_555 1_555
H7 C7 1_555 1_555
C8 H8 1_555 1_555
H9 C8 1_555 1_555
H10 C8 1_555 1_555
C9 C8 1_555 1_555
C10 C9 1_555 1_555
C11 C10 1_555 1_555
H11 C11 1_555 1_555
C12 S1 1_555 1_555
C13 C12 1_555 1_555
C14 C13 1_555 1_555
H12 C14 1_555 1_555
C15 C14 1_555 1_555
C16 C15 1_555 1_555
H13 C16 1_555 1_555
C17 C16 1_555 1_555
H14 C17 1_555 1_555
C18 C13 1_555 1_555
H15 C18 1_555 1_555
C19 O1 1_555 1_555
H16 C19 1_555 1_555
H17 C19 1_555 1_555
H18 C19 1_555 1_555
C20 C4 1_555 1_555
C21 C20 1_555 1_555
C22 C21 1_555 1_555
C23 C22 1_555 1_555
C24 C10 1_555 1_555
C4 C5 1_555 1_555
C11 C12 1_555 1_555
C17 C18 1_555 1_555
C20 C24 1_555 1_555
C23 C24 1_555 1_555

#END
