
#######################################################################
#
#                 Cambridge Crystallographic Data Centre
#                                CCDC 
#
#######################################################################
#
# If this CIF has been generated from an entry in the Cambridge 
# Structural Database, then it will include bibliographic, chemical, 
# crystal, experimental, refinement or atomic coordinate data resulting 
# from the CCDC's data processing and validation procedures.
#
#######################################################################

data_ATIPUQ
_chemical_formula_moiety         'C62 H102 N6 O2'
_chemical_name_systematic        
2,3-bis((4-(dipropylamino)-2-(hexadecyloxy)benzylidene)amino)but-2-enedinitrile
_symmetry_cell_setting           triclinic
_symmetry_space_group_name_H-M   'P -1'
_symmetry_Int_Tables_number      2
_space_group_name_Hall           '-P 1'
loop_
_symmetry_equiv_pos_site_id
_symmetry_equiv_pos_as_xyz
1 x,y,z
2 -x,-y,-z
_cell_length_a                   8.343(2)
_cell_length_b                   11.267(3)
_cell_length_c                   17.408(6)
_cell_angle_alpha                83.234(9)
_cell_angle_beta                 84.480(10)
_cell_angle_gamma                70.471(9)
_cell_volume                     1528.66
_exptl_crystal_colour            red
_exptl_crystal_description       block
_cell_formula_units_Z            1
loop_
_atom_site_label
_atom_site_type_symbol
_atom_site_fract_x
_atom_site_fract_y
_atom_site_fract_z
O1 O -0.0064(2) 1.1898(2) 0.85309(11)
N1 N -0.4330(3) 1.0035(3) 0.82881(17)
N2 N -0.3315(3) 1.0690(2) 1.00475(13)
N3 N 0.2399(4) 1.3147(3) 1.05592(15)
C1 C -0.4410(3) 1.0082(3) 0.89404(19)
C2 C -0.4420(3) 1.0189(3) 0.97587(16)
C3 C -0.2251(3) 1.1073(2) 0.95659(16)
H1 H -0.2235 1.0983 0.9035
C4 C -0.1106(3) 1.1627(2) 0.98258(15)
C5 C 0.0019(3) 1.2042(3) 0.92925(15)
C6 C 0.1134(3) 1.2573(3) 0.95367(16)
H2 H 0.1838 1.2876 0.9168
C7 C 0.1231(4) 1.2669(3) 1.03284(17)
C8 C 0.0120(4) 1.2243(3) 1.08593(17)
H3 H 0.0150 1.2298 1.1392
C9 C -0.1009(3) 1.1749(3) 1.06062(16)
H4 H -0.1747 1.1480 1.0974
C10 C 0.3635(4) 1.3508(3) 0.9968(2)
H5 H 0.4630 1.3509 1.0224
H6 H 0.4025 1.2885 0.9584
C11 C 0.2819(5) 1.4760(3) 0.9580(2)
H7 H 0.2743 1.5417 0.9918
H8 H 0.1666 1.4845 0.9451
C12 C 0.3965(5) 1.4898(4) 0.8813(2)
H9 H 0.3464 1.5722 0.8537
H10 H 0.5102 1.4813 0.8948
H11 H 0.4030 1.4243 0.8484
C13 C 0.2654(5) 1.3198(4) 1.1373(2)
H12 H 0.3857 1.3087 1.1423
H13 H 0.2403 1.2487 1.1679
C14 C 0.1609(5) 1.4372(4) 1.1703(2)
H14 H 0.0407 1.4428 1.1742
H15 H 0.1726 1.5103 1.1366
C15 C 0.2204(6) 1.4382(4) 1.2521(2)
H16 H 0.1517 1.5157 1.2742
H17 H 0.2075 1.3662 1.2853
H18 H 0.3392 1.4335 1.2478
C16 C 0.1308(4) 1.2022(3) 0.79988(16)
H19 H 0.2401 1.1602 0.8233
H20 H 0.1184 1.2917 0.7869
C17 C 0.1252(4) 1.1418(3) 0.72779(16)
H21 H 0.2166 1.1515 0.6904
H22 H 0.0165 1.1866 0.7043
C18 C 0.1447(4) 1.0024(3) 0.74315(17)
H23 H 0.0421 0.9939 0.7723
H24 H 0.2414 0.9607 0.7755
C19 C 0.1726(4) 0.9357(3) 0.66977(17)
H25 H 0.2813 0.9366 0.6433
H26 H 0.0820 0.9826 0.6351
C20 C 0.1742(5) 0.7991(3) 0.68463(19)
H27 H 0.2598 0.7535 0.7219
H28 H 0.0628 0.7986 0.7081
C21 C 0.2127(4) 0.7300(3) 0.61205(19)
H29 H 0.3283 0.7241 0.5913
H30 H 0.1336 0.7800 0.5731
C22 C 0.1995(4) 0.5976(3) 0.6245(2)
H31 H 0.2789 0.5476 0.6634
H32 H 0.0840 0.6035 0.6455
C23 C 0.2377(4) 0.5284(3) 0.5517(2)
H33 H 0.1639 0.5813 0.5116
H34 H 0.3559 0.5172 0.5329
C24 C 0.2127(4) 0.4000(3) 0.56269(19)
H35 H 0.2848 0.3474 0.6034
H36 H 0.0939 0.4111 0.5804
C25 C 0.2548(4) 0.3309(3) 0.48984(19)
H37 H 0.3718 0.3236 0.4708
H38 H 0.1790 0.3818 0.4499
C26 C 0.2383(4) 0.1994(3) 0.50101(18)
H39 H 0.3124 0.1490 0.5417
H40 H 0.1207 0.2069 0.5190
C27 C 0.2840(4) 0.1297(3) 0.42835(18)
H41 H 0.3999 0.1254 0.4091
H42 H 0.2066 0.1783 0.3884
C28 C 0.2745(4) -0.0036(3) 0.44043(17)
H43 H 0.3496 -0.0516 0.4813
H44 H 0.1578 0.0008 0.4583
C29 C 0.3247(4) -0.0739(3) 0.36808(18)
H45 H 0.2484 -0.0263 0.3275
H46 H 0.4406 -0.0768 0.3497
C30 C 0.3182(4) -0.2076(3) 0.3798(2)
H47 H 0.2014 -0.2049 0.3960
H48 H 0.3914 -0.2548 0.4215
C31 C 0.3756(5) -0.2774(4) 0.3068(2)
H49 H 0.3691 -0.3622 0.3174
H50 H 0.3021 -0.2322 0.2655
H51 H 0.4922 -0.2821 0.2911
O1A O -0.9936(2) 0.8102(2) 1.14691(11)
N1A N -0.5670(3) 0.9965(3) 1.17119(17)
N2A N -0.6685(3) 0.9310(2) 0.99525(13)
N3A N -1.2399(4) 0.6853(3) 0.94408(15)
C1A C -0.5590(3) 0.9918(3) 1.10596(19)
C2A C -0.5580(3) 0.9811(3) 1.02413(16)
C3A C -0.7749(3) 0.8927(2) 1.04341(16)
H1A H -0.7765 0.9017 1.0965
C4A C -0.8894(3) 0.8373(2) 1.01742(15)
C5A C -1.0019(3) 0.7958(3) 1.07075(15)
C6A C -1.1134(3) 0.7427(3) 1.04633(16)
H2A H -1.1838 0.7124 1.0832
C7A C -1.1231(4) 0.7331(3) 0.96716(17)
C8A C -1.0120(4) 0.7757(3) 0.91407(17)
H3A H -1.0150 0.7702 0.8608
C9A C -0.8991(3) 0.8251(3) 0.93938(16)
H4A H -0.8253 0.8520 0.9026
C10A C -1.3635(4) 0.6492(3) 1.0032(2)
H5A H -1.4630 0.6491 0.9776
H6A H -1.4025 0.7115 1.0416
C11A C -1.2819(5) 0.5240(3) 1.0420(2)
H7A H -1.2743 0.4583 1.0082
H8A H -1.1666 0.5155 1.0549
C12A C -1.3965(5) 0.5102(4) 1.1187(2)
H9A H -1.3464 0.4278 1.1463
H10A H -1.5102 0.5187 1.1052
H11A H -1.4030 0.5757 1.1516
C13A C -1.2654(5) 0.6802(4) 0.8627(2)
H12A H -1.3857 0.6913 0.8577
H13A H -1.2403 0.7513 0.8321
C14A C -1.1609(5) 0.5628(4) 0.8297(2)
H14A H -1.0407 0.5572 0.8258
H15A H -1.1726 0.4897 0.8634
C15A C -1.2204(6) 0.5618(4) 0.7479(2)
H16A H -1.1517 0.4843 0.7258
H17A H -1.2075 0.6338 0.7147
H18A H -1.3392 0.5665 0.7522
C16A C -1.1308(4) 0.7978(3) 1.20012(16)
H19A H -1.2401 0.8398 1.1767
H20A H -1.1184 0.7083 1.2131
C17A C -1.1252(4) 0.8582(3) 1.27221(16)
H21A H -1.2166 0.8485 1.3096
H22A H -1.0165 0.8134 1.2957
C18A C -1.1447(4) 0.9976(3) 1.25685(17)
H23A H -1.0421 1.0061 1.2277
H24A H -1.2414 1.0393 1.2245
C19A C -1.1726(4) 1.0643(3) 1.33023(17)
H25A H -1.2813 1.0634 1.3567
H26A H -1.0820 1.0174 1.3649
C20A C -1.1742(5) 1.2009(3) 1.31537(19)
H27A H -1.2598 1.2465 1.2781
H28A H -1.0628 1.2014 1.2919
C21A C -1.2127(4) 1.2700(3) 1.38795(19)
H29A H -1.3283 1.2759 1.4087
H30A H -1.1336 1.2200 1.4269
C22A C -1.1995(4) 1.4024(3) 1.3755(2)
H31A H -1.2789 1.4524 1.3366
H32A H -1.0840 1.3965 1.3545
C23A C -1.2377(4) 1.4716(3) 1.4483(2)
H33A H -1.1639 1.4187 1.4884
H34A H -1.3559 1.4828 1.4671
C24A C -1.2127(4) 1.6000(3) 1.43731(19)
H35A H -1.2848 1.6526 1.3966
H36A H -1.0939 1.5889 1.4196
C25A C -1.2548(4) 1.6691(3) 1.51016(19)
H37A H -1.3718 1.6764 1.5292
H38A H -1.1790 1.6182 1.5501
C26A C -1.2383(4) 1.8006(3) 1.49899(18)
H39A H -1.3124 1.8510 1.4583
H40A H -1.1207 1.7931 1.4810
C27A C -1.2840(4) 1.8703(3) 1.57165(18)
H41A H -1.3999 1.8746 1.5909
H42A H -1.2066 1.8217 1.6116
C28A C -1.2745(4) 2.0036(3) 1.55957(17)
H43A H -1.3496 2.0516 1.5187
H44A H -1.1578 1.9992 1.5417
C29A C -1.3247(4) 2.0739(3) 1.63192(18)
H45A H -1.2484 2.0263 1.6725
H46A H -1.4406 2.0768 1.6503
C30A C -1.3182(4) 2.2076(3) 1.6202(2)
H47A H -1.2014 2.2049 1.6040
H48A H -1.3914 2.2548 1.5785
C31A C -1.3756(5) 2.2774(4) 1.6932(2)
H49A H -1.3691 2.3622 1.6826
H50A H -1.3021 2.2322 1.7345
H51A H -1.4922 2.2821 1.7089
loop_
_geom_bond_atom_site_label_1
_geom_bond_atom_site_label_2
_geom_bond_site_symmetry_1
_geom_bond_site_symmetry_2
O1 C5 1_555 1_555
N1 C1 1_555 1_555
N2 C2 1_555 1_555
N3 C7 1_555 1_555
C1 C2 1_555 1_555
C2 C2A 1_555 1_555
C3 N2 1_555 1_555
H1 C3 1_555 1_555
C4 C3 1_555 1_555
C5 C4 1_555 1_555
C6 C5 1_555 1_555
H2 C6 1_555 1_555
C7 C6 1_555 1_555
C8 C7 1_555 1_555
H3 C8 1_555 1_555
C9 C4 1_555 1_555
H4 C9 1_555 1_555
C10 N3 1_555 1_555
H5 C10 1_555 1_555
H6 C10 1_555 1_555
C11 C10 1_555 1_555
H7 C11 1_555 1_555
H8 C11 1_555 1_555
C12 C11 1_555 1_555
H9 C12 1_555 1_555
H10 C12 1_555 1_555
H11 C12 1_555 1_555
C13 N3 1_555 1_555
H12 C13 1_555 1_555
H13 C13 1_555 1_555
C14 C13 1_555 1_555
H14 C14 1_555 1_555
H15 C14 1_555 1_555
C15 C14 1_555 1_555
H16 C15 1_555 1_555
H17 C15 1_555 1_555
H18 C15 1_555 1_555
C16 O1 1_555 1_555
H19 C16 1_555 1_555
H20 C16 1_555 1_555
C17 C16 1_555 1_555
H21 C17 1_555 1_555
H22 C17 1_555 1_555
C18 C17 1_555 1_555
H23 C18 1_555 1_555
H24 C18 1_555 1_555
C19 C18 1_555 1_555
H25 C19 1_555 1_555
H26 C19 1_555 1_555
C20 C19 1_555 1_555
H27 C20 1_555 1_555
H28 C20 1_555 1_555
C21 C20 1_555 1_555
H29 C21 1_555 1_555
H30 C21 1_555 1_555
C22 C21 1_555 1_555
H31 C22 1_555 1_555
H32 C22 1_555 1_555
C23 C22 1_555 1_555
H33 C23 1_555 1_555
H34 C23 1_555 1_555
C24 C23 1_555 1_555
H35 C24 1_555 1_555
H36 C24 1_555 1_555
C25 C24 1_555 1_555
H37 C25 1_555 1_555
H38 C25 1_555 1_555
C26 C25 1_555 1_555
H39 C26 1_555 1_555
H40 C26 1_555 1_555
C27 C26 1_555 1_555
H41 C27 1_555 1_555
H42 C27 1_555 1_555
C28 C27 1_555 1_555
H43 C28 1_555 1_555
H44 C28 1_555 1_555
C29 C28 1_555 1_555
H45 C29 1_555 1_555
H46 C29 1_555 1_555
C30 C29 1_555 1_555
H47 C30 1_555 1_555
H48 C30 1_555 1_555
C31 C30 1_555 1_555
H49 C31 1_555 1_555
H50 C31 1_555 1_555
H51 C31 1_555 1_555
O1A C5A 1_555 1_555
N1A C1A 1_555 1_555
N2A C2A 1_555 1_555
N3A C7A 1_555 1_555
C1A C2A 1_555 1_555
C3A N2A 1_555 1_555
H1A C3A 1_555 1_555
C4A C3A 1_555 1_555
C5A C4A 1_555 1_555
C6A C5A 1_555 1_555
H2A C6A 1_555 1_555
C7A C6A 1_555 1_555
C8A C7A 1_555 1_555
H3A C8A 1_555 1_555
C9A C4A 1_555 1_555
H4A C9A 1_555 1_555
C10A N3A 1_555 1_555
H5A C10A 1_555 1_555
H6A C10A 1_555 1_555
C11A C10A 1_555 1_555
H7A C11A 1_555 1_555
H8A C11A 1_555 1_555
C12A C11A 1_555 1_555
H9A C12A 1_555 1_555
H10A C12A 1_555 1_555
H11A C12A 1_555 1_555
C13A N3A 1_555 1_555
H12A C13A 1_555 1_555
H13A C13A 1_555 1_555
C14A C13A 1_555 1_555
H14A C14A 1_555 1_555
H15A C14A 1_555 1_555
C15A C14A 1_555 1_555
H16A C15A 1_555 1_555
H17A C15A 1_555 1_555
H18A C15A 1_555 1_555
C16A O1A 1_555 1_555
H19A C16A 1_555 1_555
H20A C16A 1_555 1_555
C17A C16A 1_555 1_555
H21A C17A 1_555 1_555
H22A C17A 1_555 1_555
C18A C17A 1_555 1_555
H23A C18A 1_555 1_555
H24A C18A 1_555 1_555
C19A C18A 1_555 1_555
H25A C19A 1_555 1_555
H26A C19A 1_555 1_555
C20A C19A 1_555 1_555
H27A C20A 1_555 1_555
H28A C20A 1_555 1_555
C21A C20A 1_555 1_555
H29A C21A 1_555 1_555
H30A C21A 1_555 1_555
C22A C21A 1_555 1_555
H31A C22A 1_555 1_555
H32A C22A 1_555 1_555
C23A C22A 1_555 1_555
H33A C23A 1_555 1_555
H34A C23A 1_555 1_555
C24A C23A 1_555 1_555
H35A C24A 1_555 1_555
H36A C24A 1_555 1_555
C25A C24A 1_555 1_555
H37A C25A 1_555 1_555
H38A C25A 1_555 1_555
C26A C25A 1_555 1_555
H39A C26A 1_555 1_555
H40A C26A 1_555 1_555
C27A C26A 1_555 1_555
H41A C27A 1_555 1_555
H42A C27A 1_555 1_555
C28A C27A 1_555 1_555
H43A C28A 1_555 1_555
H44A C28A 1_555 1_555
C29A C28A 1_555 1_555
H45A C29A 1_555 1_555
H46A C29A 1_555 1_555
C30A C29A 1_555 1_555
H47A C30A 1_555 1_555
H48A C30A 1_555 1_555
C31A C30A 1_555 1_555
H49A C31A 1_555 1_555
H50A C31A 1_555 1_555
H51A C31A 1_555 1_555
C8 C9 1_555 1_555
C8A C9A 1_555 1_555

#END
