
#######################################################################
#
#                 Cambridge Crystallographic Data Centre
#                                CCDC 
#
#######################################################################
#
# If this CIF has been generated from an entry in the Cambridge 
# Structural Database, then it will include bibliographic, chemical, 
# crystal, experimental, refinement or atomic coordinate data resulting 
# from the CCDC's data processing and validation procedures.
#
#######################################################################

data_ATIQAX
_chemical_formula_moiety         'C70 H118 N6 O2'
_chemical_name_systematic        
2,3-bis((4-(dipropylamino)-2-(icosyloxy)benzylidene)amino)but-2-enedinitrile
_symmetry_cell_setting           triclinic
_symmetry_space_group_name_H-M   'P -1'
_symmetry_Int_Tables_number      2
_space_group_name_Hall           '-P 1'
loop_
_symmetry_equiv_pos_site_id
_symmetry_equiv_pos_as_xyz
1 x,y,z
2 -x,-y,-z
_cell_length_a                   8.339(5)
_cell_length_b                   11.259(6)
_cell_length_c                   19.911(13)
_cell_angle_alpha                76.832(17)
_cell_angle_beta                 87.47(3)
_cell_angle_gamma                70.16(2)
_cell_volume                     1711.1
_exptl_crystal_colour            red
_exptl_crystal_description       block
_cell_formula_units_Z            1
loop_
_atom_site_label
_atom_site_type_symbol
_atom_site_fract_x
_atom_site_fract_y
_atom_site_fract_z
O1 O 0.5165(3) -0.1125(2) 0.36928(11)
N1 N 0.9438(4) 0.0842(3) 0.34745(19)
N2 N 0.8313(3) -0.0713(2) 0.50421(14)
N3 N 0.2608(4) -0.3460(3) 0.54918(16)
C1 C 0.9476(4) 0.0464(3) 0.4057(2)
C2 C 0.9436(4) -0.0069(3) 0.47848(18)
C3 C 0.7282(4) -0.0844(3) 0.46151(18)
H1 H 0.7297 -0.0476 0.4142
C4 C 0.6125(4) -0.1535(3) 0.48461(17)
C5 C 0.5035(4) -0.1672(3) 0.43681(16)
C6 C 0.3913(4) -0.2335(3) 0.45835(18)
H2 H 0.3233 -0.2442 0.4254
C7 C 0.3769(4) -0.2850(3) 0.52866(18)
C8 C 0.4838(4) -0.2698(3) 0.57632(18)
H3 H 0.4774 -0.3032 0.6238
C9 C 0.5974(4) -0.2065(3) 0.55383(17)
H4 H 0.6684 -0.1986 0.5867
C10 C 0.1358(5) -0.3481(4) 0.4959(3)
H5 H 0.0344 -0.3611 0.5185
H6 H 0.0997 -0.2656 0.4615
C11 C 0.2215(5) -0.4520(4) 0.4635(3)
H7 H 0.2294 -0.5355 0.4942
H8 H 0.3368 -0.4524 0.4515
C12 C 0.1059(6) -0.4254(5) 0.3946(2)
H9 H 0.1576 -0.4934 0.3699
H10 H -0.0078 -0.4249 0.4075
H11 H 0.0990 -0.3422 0.3651
C13 C 0.2272(6) -0.3933(4) 0.6217(2)
H12 H 0.2471 -0.3371 0.6490
H13 H 0.1066 -0.3854 0.6249
C14 C 0.3294(6) -0.5257(5) 0.6518(2)
H14 H 0.4492 -0.5330 0.6561
H15 H 0.3219 -0.5826 0.6223
C15 C 0.2603(7) -0.5669(5) 0.7251(2)
H16 H 0.3275 -0.6558 0.7462
H17 H 0.2688 -0.5103 0.7540
H18 H 0.1419 -0.5598 0.7203
C16 C 0.3816(4) -0.0961(3) 0.32182(17)
H19 H 0.2708 -0.0666 0.3429
H20 H 0.3952 -0.1787 0.3099
C17 C 0.3904(4) 0.0029(3) 0.25812(17)
H21 H 0.3002 0.0138 0.2249
H22 H 0.5002 -0.0298 0.2369
C18 C 0.3709(5) 0.1344(3) 0.27183(18)
H23 H 0.4729 0.1267 0.2975
H24 H 0.2731 0.1591 0.3011
C19 C 0.3453(5) 0.2417(3) 0.20678(18)
H25 H 0.2364 0.2564 0.1838
H26 H 0.4362 0.2131 0.1752
C20 C 0.3455(5) 0.3694(4) 0.22057(19)
H27 H 0.2603 0.3950 0.2548
H28 H 0.4575 0.3564 0.2403
C21 C 0.3073(5) 0.4785(3) 0.15624(19)
H29 H 0.1915 0.4961 0.1388
H30 H 0.3864 0.4496 0.1207
C22 C 0.3212(5) 0.6045(3) 0.1674(2)
H31 H 0.2421 0.6335 0.2029
H32 H 0.4370 0.5871 0.1848
C23 C 0.2827(5) 0.7132(3) 0.10281(19)
H33 H 0.3557 0.6817 0.0662
H34 H 0.1640 0.7350 0.0875
C24 C 0.3091(5) 0.8355(3) 0.11191(19)
H35 H 0.4285 0.8143 0.1260
H36 H 0.2382 0.8661 0.1492
C25 C 0.2659(5) 0.9445(3) 0.04735(19)
H37 H 0.1475 0.9637 0.0326
H38 H 0.3390 0.9145 0.0104
C26 C 0.2874(4) 1.0690(3) 0.05645(18)
H39 H 0.2149 1.0987 0.0936
H40 H 0.4060 1.0499 0.0709
C27 C 0.2429(4) 1.1777(3) -0.00784(19)
H41 H 0.1247 1.1960 -0.0226
H42 H 0.3164 1.1484 -0.0448
C28 C 0.2623(5) 1.3025(3) 0.00158(19)
H43 H 0.1888 1.3317 0.0386
H44 H 0.3805 1.2840 0.0164
C29 C 0.2182(5) 1.4119(3) -0.06273(19)
H45 H 0.2930 1.3834 -0.0995
H46 H 0.1006 1.4297 -0.0780
C30 C 0.2354(5) 1.5366(3) -0.05255(19)
H47 H 0.3532 1.5188 -0.0374
H48 H 0.1612 1.5648 -0.0155
C31 C 0.1906(5) 1.6469(3) -0.11666(19)
H49 H 0.2669 1.6195 -0.1533
H50 H 0.0739 1.6631 -0.1325
C32 C 0.2034(5) 1.7729(3) -0.10614(19)
H51 H 0.3206 1.7574 -0.0912
H52 H 0.1283 1.8000 -0.0691
C33 C 0.1553(5) 1.8822(3) -0.17056(19)
H53 H 0.2317 1.8552 -0.2073
H54 H 0.0389 1.8962 -0.1859
C34 C 0.1643(5) 2.0092(4) -0.1608(2)
H55 H 0.2815 1.9962 -0.1470
H56 H 0.0905 2.0352 -0.1233
C35 C 0.1101(6) 2.1186(4) -0.2258(2)
H57 H 0.1185 2.1972 -0.2164
H58 H 0.1843 2.0945 -0.2630
H59 H -0.0068 2.1335 -0.2392
O1A O 1.4835(3) 0.1125(2) 0.63072(11)
N1A N 1.0562(4) -0.0842(3) 0.65255(19)
N2A N 1.1687(3) 0.0713(2) 0.49579(14)
N3A N 1.7392(4) 0.3460(3) 0.45082(16)
C1A C 1.0524(4) -0.0464(3) 0.5943(2)
C2A C 1.0564(4) 0.0069(3) 0.52152(18)
C3A C 1.2718(4) 0.0844(3) 0.53849(18)
H1A H 1.2703 0.0476 0.5858
C4A C 1.3875(4) 0.1535(3) 0.51539(17)
C5A C 1.4965(4) 0.1672(3) 0.56319(16)
C6A C 1.6087(4) 0.2335(3) 0.54165(18)
H2A H 1.6767 0.2442 0.5746
C7A C 1.6231(4) 0.2850(3) 0.47134(18)
C8A C 1.5162(4) 0.2698(3) 0.42368(18)
H3A H 1.5226 0.3032 0.3762
C9A C 1.4026(4) 0.2065(3) 0.44617(17)
H4A H 1.3316 0.1986 0.4133
C10A C 1.8642(5) 0.3481(4) 0.5041(3)
H5A H 1.9656 0.3611 0.4815
H6A H 1.9003 0.2656 0.5385
C11A C 1.7785(5) 0.4520(4) 0.5365(3)
H7A H 1.7706 0.5355 0.5058
H8A H 1.6632 0.4524 0.5485
C12A C 1.8941(6) 0.4254(5) 0.6054(2)
H9A H 1.8424 0.4934 0.6301
H10A H 2.0078 0.4249 0.5925
H11A H 1.9010 0.3422 0.6349
C13A C 1.7728(6) 0.3933(4) 0.3783(2)
H12A H 1.7529 0.3371 0.3510
H13A H 1.8934 0.3854 0.3751
C14A C 1.6706(6) 0.5257(5) 0.3482(2)
H14A H 1.5508 0.5330 0.3439
H15A H 1.6781 0.5826 0.3777
C15A C 1.7397(7) 0.5669(5) 0.2749(2)
H16A H 1.6725 0.6558 0.2538
H17A H 1.7312 0.5103 0.2460
H18A H 1.8581 0.5598 0.2797
C16A C 1.6184(4) 0.0961(3) 0.67818(17)
H19A H 1.7292 0.0666 0.6571
H20A H 1.6048 0.1787 0.6901
C17A C 1.6096(4) -0.0029(3) 0.74188(17)
H21A H 1.6998 -0.0138 0.7751
H22A H 1.4998 0.0298 0.7631
C18A C 1.6291(5) -0.1344(3) 0.72817(18)
H23A H 1.5271 -0.1267 0.7025
H24A H 1.7269 -0.1591 0.6989
C19A C 1.6547(5) -0.2417(3) 0.79322(18)
H25A H 1.7636 -0.2564 0.8162
H26A H 1.5638 -0.2131 0.8248
C20A C 1.6545(5) -0.3694(4) 0.77943(19)
H27A H 1.7397 -0.3950 0.7452
H28A H 1.5425 -0.3564 0.7597
C21A C 1.6927(5) -0.4785(3) 0.84376(19)
H29A H 1.8085 -0.4961 0.8612
H30A H 1.6136 -0.4496 0.8793
C22A C 1.6788(5) -0.6045(3) 0.8326(2)
H31A H 1.7579 -0.6335 0.7971
H32A H 1.5630 -0.5871 0.8152
C23A C 1.7173(5) -0.7132(3) 0.89719(19)
H33A H 1.6443 -0.6817 0.9338
H34A H 1.8360 -0.7350 0.9125
C24A C 1.6909(5) -0.8355(3) 0.88809(19)
H35A H 1.5715 -0.8143 0.8740
H36A H 1.7618 -0.8661 0.8508
C25A C 1.7341(5) -0.9445(3) 0.95265(19)
H37A H 1.8525 -0.9637 0.9674
H38A H 1.6610 -0.9145 0.9896
C26A C 1.7126(4) -1.0690(3) 0.94355(18)
H39A H 1.7851 -1.0987 0.9064
H40A H 1.5940 -1.0499 0.9291
C27A C 1.7571(4) -1.1777(3) 1.00784(19)
H41A H 1.8753 -1.1960 1.0226
H42A H 1.6836 -1.1484 1.0448
C28A C 1.7377(5) -1.3025(3) 0.99842(19)
H43A H 1.8112 -1.3317 0.9614
H44A H 1.6195 -1.2840 0.9836
C29A C 1.7818(5) -1.4119(3) 1.06273(19)
H45A H 1.7070 -1.3834 1.0995
H46A H 1.8994 -1.4297 1.0780
C30A C 1.7646(5) -1.5366(3) 1.05255(19)
H47A H 1.6468 -1.5188 1.0374
H48A H 1.8388 -1.5648 1.0155
C31A C 1.8094(5) -1.6469(3) 1.11666(19)
H49A H 1.7331 -1.6195 1.1533
H50A H 1.9261 -1.6631 1.1325
C32A C 1.7966(5) -1.7729(3) 1.10614(19)
H51A H 1.6794 -1.7574 1.0912
H52A H 1.8717 -1.8000 1.0691
C33A C 1.8447(5) -1.8822(3) 1.17056(19)
H53A H 1.7683 -1.8552 1.2073
H54A H 1.9611 -1.8962 1.1859
C34A C 1.8357(5) -2.0092(4) 1.1608(2)
H55A H 1.7185 -1.9962 1.1470
H56A H 1.9095 -2.0352 1.1233
C35A C 1.8899(6) -2.1186(4) 1.2258(2)
H57A H 1.8815 -2.1972 1.2164
H58A H 1.8157 -2.0945 1.2630
H59A H 2.0068 -2.1335 1.2392
loop_
_geom_bond_atom_site_label_1
_geom_bond_atom_site_label_2
_geom_bond_site_symmetry_1
_geom_bond_site_symmetry_2
O1 C5 1_555 1_555
N1 C1 1_555 1_555
N2 C2 1_555 1_555
N3 C7 1_555 1_555
C1 C2 1_555 1_555
C2 C2A 1_555 1_555
C3 N2 1_555 1_555
H1 C3 1_555 1_555
C4 C3 1_555 1_555
C5 C4 1_555 1_555
C6 C5 1_555 1_555
H2 C6 1_555 1_555
C7 C6 1_555 1_555
C8 C7 1_555 1_555
H3 C8 1_555 1_555
C9 C4 1_555 1_555
H4 C9 1_555 1_555
C10 N3 1_555 1_555
H5 C10 1_555 1_555
H6 C10 1_555 1_555
C11 C10 1_555 1_555
H7 C11 1_555 1_555
H8 C11 1_555 1_555
C12 C11 1_555 1_555
H9 C12 1_555 1_555
H10 C12 1_555 1_555
H11 C12 1_555 1_555
C13 N3 1_555 1_555
H12 C13 1_555 1_555
H13 C13 1_555 1_555
C14 C13 1_555 1_555
H14 C14 1_555 1_555
H15 C14 1_555 1_555
C15 C14 1_555 1_555
H16 C15 1_555 1_555
H17 C15 1_555 1_555
H18 C15 1_555 1_555
C16 O1 1_555 1_555
H19 C16 1_555 1_555
H20 C16 1_555 1_555
C17 C16 1_555 1_555
H21 C17 1_555 1_555
H22 C17 1_555 1_555
C18 C17 1_555 1_555
H23 C18 1_555 1_555
H24 C18 1_555 1_555
C19 C18 1_555 1_555
H25 C19 1_555 1_555
H26 C19 1_555 1_555
C20 C19 1_555 1_555
H27 C20 1_555 1_555
H28 C20 1_555 1_555
C21 C20 1_555 1_555
H29 C21 1_555 1_555
H30 C21 1_555 1_555
C22 C21 1_555 1_555
H31 C22 1_555 1_555
H32 C22 1_555 1_555
C23 C22 1_555 1_555
H33 C23 1_555 1_555
H34 C23 1_555 1_555
C24 C23 1_555 1_555
H35 C24 1_555 1_555
H36 C24 1_555 1_555
C25 C24 1_555 1_555
H37 C25 1_555 1_555
H38 C25 1_555 1_555
C26 C25 1_555 1_555
H39 C26 1_555 1_555
H40 C26 1_555 1_555
C27 C26 1_555 1_555
H41 C27 1_555 1_555
H42 C27 1_555 1_555
C28 C27 1_555 1_555
H43 C28 1_555 1_555
H44 C28 1_555 1_555
C29 C28 1_555 1_555
H45 C29 1_555 1_555
H46 C29 1_555 1_555
C30 C29 1_555 1_555
H47 C30 1_555 1_555
H48 C30 1_555 1_555
C31 C30 1_555 1_555
H49 C31 1_555 1_555
H50 C31 1_555 1_555
C32 C31 1_555 1_555
H51 C32 1_555 1_555
H52 C32 1_555 1_555
C33 C32 1_555 1_555
H53 C33 1_555 1_555
H54 C33 1_555 1_555
C34 C33 1_555 1_555
H55 C34 1_555 1_555
H56 C34 1_555 1_555
C35 C34 1_555 1_555
H57 C35 1_555 1_555
H58 C35 1_555 1_555
H59 C35 1_555 1_555
O1A C5A 1_555 1_555
N1A C1A 1_555 1_555
N2A C2A 1_555 1_555
N3A C7A 1_555 1_555
C1A C2A 1_555 1_555
C3A N2A 1_555 1_555
H1A C3A 1_555 1_555
C4A C3A 1_555 1_555
C5A C4A 1_555 1_555
C6A C5A 1_555 1_555
H2A C6A 1_555 1_555
C7A C6A 1_555 1_555
C8A C7A 1_555 1_555
H3A C8A 1_555 1_555
C9A C4A 1_555 1_555
H4A C9A 1_555 1_555
C10A N3A 1_555 1_555
H5A C10A 1_555 1_555
H6A C10A 1_555 1_555
C11A C10A 1_555 1_555
H7A C11A 1_555 1_555
H8A C11A 1_555 1_555
C12A C11A 1_555 1_555
H9A C12A 1_555 1_555
H10A C12A 1_555 1_555
H11A C12A 1_555 1_555
C13A N3A 1_555 1_555
H12A C13A 1_555 1_555
H13A C13A 1_555 1_555
C14A C13A 1_555 1_555
H14A C14A 1_555 1_555
H15A C14A 1_555 1_555
C15A C14A 1_555 1_555
H16A C15A 1_555 1_555
H17A C15A 1_555 1_555
H18A C15A 1_555 1_555
C16A O1A 1_555 1_555
H19A C16A 1_555 1_555
H20A C16A 1_555 1_555
C17A C16A 1_555 1_555
H21A C17A 1_555 1_555
H22A C17A 1_555 1_555
C18A C17A 1_555 1_555
H23A C18A 1_555 1_555
H24A C18A 1_555 1_555
C19A C18A 1_555 1_555
H25A C19A 1_555 1_555
H26A C19A 1_555 1_555
C20A C19A 1_555 1_555
H27A C20A 1_555 1_555
H28A C20A 1_555 1_555
C21A C20A 1_555 1_555
H29A C21A 1_555 1_555
H30A C21A 1_555 1_555
C22A C21A 1_555 1_555
H31A C22A 1_555 1_555
H32A C22A 1_555 1_555
C23A C22A 1_555 1_555
H33A C23A 1_555 1_555
H34A C23A 1_555 1_555
C24A C23A 1_555 1_555
H35A C24A 1_555 1_555
H36A C24A 1_555 1_555
C25A C24A 1_555 1_555
H37A C25A 1_555 1_555
H38A C25A 1_555 1_555
C26A C25A 1_555 1_555
H39A C26A 1_555 1_555
H40A C26A 1_555 1_555
C27A C26A 1_555 1_555
H41A C27A 1_555 1_555
H42A C27A 1_555 1_555
C28A C27A 1_555 1_555
H43A C28A 1_555 1_555
H44A C28A 1_555 1_555
C29A C28A 1_555 1_555
H45A C29A 1_555 1_555
H46A C29A 1_555 1_555
C30A C29A 1_555 1_555
H47A C30A 1_555 1_555
H48A C30A 1_555 1_555
C31A C30A 1_555 1_555
H49A C31A 1_555 1_555
H50A C31A 1_555 1_555
C32A C31A 1_555 1_555
H51A C32A 1_555 1_555
H52A C32A 1_555 1_555
C33A C32A 1_555 1_555
H53A C33A 1_555 1_555
H54A C33A 1_555 1_555
C34A C33A 1_555 1_555
H55A C34A 1_555 1_555
H56A C34A 1_555 1_555
C35A C34A 1_555 1_555
H57A C35A 1_555 1_555
H58A C35A 1_555 1_555
H59A C35A 1_555 1_555
C8 C9 1_555 1_555
C8A C9A 1_555 1_555

#END
