
#######################################################################
#
#                 Cambridge Crystallographic Data Centre
#                                CCDC 
#
#######################################################################
#
# If this CIF has been generated from an entry in the Cambridge 
# Structural Database, then it will include bibliographic, chemical, 
# crystal, experimental, refinement or atomic coordinate data resulting 
# from the CCDC's data processing and validation procedures.
#
#######################################################################

data_ATIQIF
_chemical_formula_moiety         'C16 H24 O7'
_chemical_name_systematic        
'5-(ethoxycarbonyl)-3-(pentan-3-yloxy)cyclohex-4-ene-1,2-dicarboxylic acid'
_symmetry_cell_setting           triclinic
_symmetry_space_group_name_H-M   'P -1'
_symmetry_Int_Tables_number      2
_space_group_name_Hall           '-P 1'
loop_
_symmetry_equiv_pos_site_id
_symmetry_equiv_pos_as_xyz
1 x,y,z
2 -x,-y,-z
_cell_length_a                   5.1842(15)
_cell_length_b                   10.1542(16)
_cell_length_c                   16.883(2)
_cell_angle_alpha                95.204(12)
_cell_angle_beta                 98.110(19)
_cell_angle_gamma                99.275(19)
_cell_volume                     862.481
_exptl_crystal_description       plate
_cell_formula_units_Z            2
loop_
_atom_site_label
_atom_site_type_symbol
_atom_site_fract_x
_atom_site_fract_y
_atom_site_fract_z
O1 O 0.0390(11) 0.5164(5) 0.2623(3)
O2 O -0.1550(11) 0.9324(6) 0.4064(3)
O3 O 0.2431(11) 0.9121(6) 0.4699(3)
H1 H 0.2002 0.9618 0.5065
O4 O -0.0721(12) 0.6202(6) 0.4444(3)
O5 O 0.2822(12) 0.5194(6) 0.4478(3)
H2 H 0.2107 0.4770 0.4818
O6 O 0.4242(15) 0.9930(7) 0.1486(4)
O7 O 0.6094(13) 0.8161(6) 0.1153(4)
C1 C 0.2930(16) 0.5981(8) 0.2911(4)
H3 H 0.4239 0.5393 0.3072
C2 C 0.3850(15) 0.6787(8) 0.2263(5)
H4 H 0.4617 0.6352 0.1857
C3 C 0.3652(15) 0.8061(8) 0.2228(5)
C4 C 0.2491(17) 0.8871(9) 0.2840(5)
H5 H 0.1231 0.9372 0.2554
H6 H 0.3928 0.9535 0.3176
C5 C 0.1054(15) 0.7981(8) 0.3385(5)
H7 H -0.0689 0.7521 0.3071
C6 C 0.2646(17) 0.6896(8) 0.3643(5)
H8 H 0.4454 0.7350 0.3912
C7 C 0.0527(17) 0.8866(8) 0.4088(5)
C8 C 0.1366(16) 0.6077(8) 0.4229(5)
C9 C 0.0458(18) 0.3879(8) 0.2181(5)
H9 H 0.2032 0.3982 0.1897
C10 C 0.072(2) 0.2832(11) 0.2746(6)
H10 H 0.2343 0.3145 0.3148
H11 H 0.0964 0.1998 0.2435
C11 C -0.161(3) 0.2498(12) 0.3193(7)
H12 H -0.1276 0.1811 0.3547
H13 H -0.3224 0.2158 0.2802
H14 H -0.1846 0.3310 0.3516
C12 C -0.2034(19) 0.3608(9) 0.1553(5)
H15 H -0.2246 0.2685 0.1278
H16 H -0.3586 0.3658 0.1828
C13 C -0.200(2) 0.4575(11) 0.0933(5)
H17 H -0.3651 0.4354 0.0550
H18 H -0.0497 0.4512 0.0646
H19 H -0.1819 0.5491 0.1199
C14 C 0.4688(17) 0.8824(9) 0.1599(5)
C15 C 0.715(2) 0.8813(10) 0.0513(6)
H20 H 0.8350 0.9662 0.0741
H21 H 0.5682 0.9031 0.0133
C16 C 0.858(2) 0.7936(11) 0.0090(6)
H22 H 0.9265 0.8379 -0.0348
H23 H 0.7382 0.7095 -0.0133
H24 H 1.0054 0.7742 0.0465
loop_
_geom_bond_atom_site_label_1
_geom_bond_atom_site_label_2
_geom_bond_site_symmetry_1
_geom_bond_site_symmetry_2
O1 C1 1_555 1_555
O2 C7 1_555 1_555
O3 H1 1_555 1_555
O4 C8 1_555 1_555
O5 H2 1_555 1_555
O6 C14 1_555 1_555
O7 C14 1_555 1_555
C1 H3 1_555 1_555
C2 C1 1_555 1_555
H4 C2 1_555 1_555
C3 C2 1_555 1_555
C4 C3 1_555 1_555
H5 C4 1_555 1_555
H6 C4 1_555 1_555
C5 C4 1_555 1_555
H7 C5 1_555 1_555
C6 C1 1_555 1_555
H8 C6 1_555 1_555
C7 O3 1_555 1_555
C8 O5 1_555 1_555
C9 O1 1_555 1_555
H9 C9 1_555 1_555
C10 C9 1_555 1_555
H10 C10 1_555 1_555
H11 C10 1_555 1_555
C11 C10 1_555 1_555
H12 C11 1_555 1_555
H13 C11 1_555 1_555
H14 C11 1_555 1_555
C12 C9 1_555 1_555
H15 C12 1_555 1_555
H16 C12 1_555 1_555
C13 C12 1_555 1_555
H17 C13 1_555 1_555
H18 C13 1_555 1_555
H19 C13 1_555 1_555
C14 C3 1_555 1_555
C15 O7 1_555 1_555
H20 C15 1_555 1_555
H21 C15 1_555 1_555
C16 C15 1_555 1_555
H22 C16 1_555 1_555
H23 C16 1_555 1_555
H24 C16 1_555 1_555
C5 C6 1_555 1_555
C5 C7 1_555 1_555
C6 C8 1_555 1_555

#END
