
#######################################################################
#
#                 Cambridge Crystallographic Data Centre
#                                CCDC 
#
#######################################################################
#
# If this CIF has been generated from an entry in the Cambridge 
# Structural Database, then it will include bibliographic, chemical, 
# crystal, experimental, refinement or atomic coordinate data resulting 
# from the CCDC's data processing and validation procedures.
#
#######################################################################

data_ATIRAY
_chemical_formula_moiety         'C40 H58 N6 O2'
_chemical_name_systematic        
2,3-bis((4-(dipropylamino)-2-(pentoxy)benzylidene)amino)but-2-enedinitrile
_symmetry_cell_setting           monoclinic
_symmetry_space_group_name_H-M   'P 21/c'
_symmetry_Int_Tables_number      14
_space_group_name_Hall           '-P 2ybc'
loop_
_symmetry_equiv_pos_site_id
_symmetry_equiv_pos_as_xyz
1 x,y,z
2 -x,1/2+y,1/2-z
3 -x,-y,-z
4 x,1/2-y,1/2+z
_cell_length_a                   8.7836(2)
_cell_length_b                   25.0075(6)
_cell_length_c                   9.0627(2)
_cell_angle_alpha                90
_cell_angle_beta                 103.6223(12)
_cell_angle_gamma                90
_cell_volume                     1934.68
_exptl_crystal_colour            red
_exptl_crystal_description       block
_cell_formula_units_Z            2
loop_
_atom_site_label
_atom_site_type_symbol
_atom_site_fract_x
_atom_site_fract_y
_atom_site_fract_z
O1 O 0.0058(4) 0.04793(12) 0.7624(4)
N1 N -0.4151(5) 0.11360(18) 0.9585(6)
N2 N -0.3371(4) -0.02138(15) 0.9188(4)
N3 N 0.2153(5) -0.12210(16) 0.6537(6)
C1 C -0.4308(6) 0.0684(2) 0.9677(6)
C2 C -0.4413(5) 0.01107(18) 0.9722(6)
C3 C -0.2228(5) 0.0009(2) 0.8710(5)
H1 H -0.2121 0.0379 0.8737
C4 C -0.1135(5) -0.03134(18) 0.8143(5)
C5 C 0.0064(5) -0.00664(18) 0.7592(6)
C6 C 0.1151(5) -0.03615(18) 0.7062(6)
H2 H 0.1932 -0.0188 0.6708
C7 C 0.1085(6) -0.09190(18) 0.7055(6)
C8 C -0.0120(6) -0.11744(19) 0.7590(6)
H3 H -0.0189 -0.1545 0.7588
C9 C -0.1183(6) -0.08714(18) 0.8110(6)
H4 H -0.1969 -0.1045 0.8456
C10 C 0.3681(8) -0.0990(2) 0.6335(8)
H5 H 0.3938 -0.0677 0.6976
H6 H 0.4506 -0.1251 0.6671
C11 C 0.3643(9) -0.0846(3) 0.4830(9)
H7 H 0.2959 -0.0539 0.4545
H8 H 0.3221 -0.1139 0.4158
C12 C 0.5322(7) -0.0704(3) 0.4645(7)
H9 H 0.5270 -0.0607 0.3610
H10 H 0.5732 -0.0410 0.5299
H11 H 0.5994 -0.1009 0.4913
C13 C 0.1991(8) -0.1811(3) 0.6305(9)
H12 H 0.0886 -0.1900 0.6013
H13 H 0.2453 -0.1911 0.5472
C14 C 0.2698(9) -0.2114(3) 0.7587(9)
H14 H 0.2141 -0.2063 0.8382
H15 H 0.3775 -0.2000 0.7971
C15 C 0.2647(9) -0.2730(2) 0.7101(9)
H16 H 0.3126 -0.2944 0.7965
H17 H 0.1578 -0.2840 0.6728
H18 H 0.3206 -0.2776 0.6318
C16 C 0.1291(6) 0.07764(18) 0.7196(7)
H19 H 0.1249 0.0728 0.6125
H20 H 0.2308 0.0659 0.7780
C17 C 0.1011(7) 0.13577(19) 0.7535(7)
H21 H 0.0012 0.1468 0.6899
H22 H 0.0937 0.1386 0.8584
C18 C 0.2227(7) 0.1728(2) 0.7293(10)
H23 H 0.2244 0.1729 0.6226
H24 H 0.3243 0.1607 0.7869
C19 C 0.1929(9) 0.2303(2) 0.7786(13)
H25 H 0.1089 0.2457 0.7012
H26 H 0.1562 0.2281 0.8714
C20 C 0.3148(11) 0.2636(4) 0.8024(17)
H27 H 0.2835 0.2980 0.8324
H28 H 0.3979 0.2496 0.8813
H29 H 0.3505 0.2673 0.7107
O1B O -1.0058(4) -0.04793(12) 1.2376(4)
N1B N -0.5849(5) -0.11360(18) 1.0415(6)
N2B N -0.6629(4) 0.02138(15) 1.0812(4)
N3B N -1.2153(5) 0.12210(16) 1.3463(6)
C1B C -0.5692(6) -0.0684(2) 1.0323(6)
C2B C -0.5587(5) -0.01107(18) 1.0278(6)
C3B C -0.7772(5) -0.0009(2) 1.1290(5)
H1B H -0.7879 -0.0379 1.1263
C4B C -0.8865(5) 0.03134(18) 1.1857(5)
C5B C -1.0064(5) 0.00664(18) 1.2408(6)
C6B C -1.1151(5) 0.03615(18) 1.2938(6)
H2B H -1.1932 0.0188 1.3292
C7B C -1.1085(6) 0.09190(18) 1.2945(6)
C8B C -0.9880(6) 0.11744(19) 1.2410(6)
H3B H -0.9811 0.1545 1.2412
C9B C -0.8817(6) 0.08714(18) 1.1890(6)
H4B H -0.8031 0.1045 1.1544
C10B C -1.3681(8) 0.0990(2) 1.3665(8)
H5B H -1.3938 0.0677 1.3024
H6B H -1.4506 0.1251 1.3329
C11B C -1.3643(9) 0.0846(3) 1.5170(9)
H7B H -1.2959 0.0539 1.5455
H8B H -1.3221 0.1139 1.5842
C12B C -1.5322(7) 0.0704(3) 1.5355(7)
H9B H -1.5270 0.0607 1.6390
H10B H -1.5732 0.0410 1.4701
H11B H -1.5994 0.1009 1.5087
C13B C -1.1991(8) 0.1811(3) 1.3695(9)
H12B H -1.0886 0.1900 1.3987
H13B H -1.2453 0.1911 1.4528
C14B C -1.2698(9) 0.2114(3) 1.2413(9)
H14B H -1.2141 0.2063 1.1618
H15B H -1.3775 0.2000 1.2029
C15B C -1.2647(9) 0.2730(2) 1.2899(9)
H16B H -1.3126 0.2944 1.2035
H17B H -1.1578 0.2840 1.3272
H18B H -1.3206 0.2776 1.3682
C16B C -1.1291(6) -0.07764(18) 1.2804(7)
H19B H -1.1249 -0.0728 1.3875
H20B H -1.2308 -0.0659 1.2220
C17B C -1.1011(7) -0.13577(19) 1.2465(7)
H21B H -1.0012 -0.1468 1.3101
H22B H -1.0937 -0.1386 1.1416
C18B C -1.2227(7) -0.1728(2) 1.2707(10)
H23B H -1.2244 -0.1729 1.3774
H24B H -1.3243 -0.1607 1.2131
C19B C -1.1929(9) -0.2303(2) 1.2214(13)
H25B H -1.1089 -0.2457 1.2988
H26B H -1.1562 -0.2281 1.1286
C20B C -1.3148(11) -0.2636(4) 1.1976(17)
H27B H -1.2835 -0.2980 1.1676
H28B H -1.3979 -0.2496 1.1187
H29B H -1.3505 -0.2673 1.2893
loop_
_geom_bond_atom_site_label_1
_geom_bond_atom_site_label_2
_geom_bond_site_symmetry_1
_geom_bond_site_symmetry_2
O1 C5 1_555 1_555
N1 C1 1_555 1_555
N2 C2 1_555 1_555
N3 C7 1_555 1_555
C1 C2 1_555 1_555
C2 C2B 1_555 1_555
C3 N2 1_555 1_555
H1 C3 1_555 1_555
C4 C3 1_555 1_555
C5 C4 1_555 1_555
C6 C5 1_555 1_555
H2 C6 1_555 1_555
C7 C6 1_555 1_555
C8 C7 1_555 1_555
H3 C8 1_555 1_555
C9 C4 1_555 1_555
H4 C9 1_555 1_555
C10 N3 1_555 1_555
H5 C10 1_555 1_555
H6 C10 1_555 1_555
C11 C10 1_555 1_555
H7 C11 1_555 1_555
H8 C11 1_555 1_555
C12 C11 1_555 1_555
H9 C12 1_555 1_555
H10 C12 1_555 1_555
H11 C12 1_555 1_555
C13 N3 1_555 1_555
H12 C13 1_555 1_555
H13 C13 1_555 1_555
C14 C13 1_555 1_555
H14 C14 1_555 1_555
H15 C14 1_555 1_555
C15 C14 1_555 1_555
H16 C15 1_555 1_555
H17 C15 1_555 1_555
H18 C15 1_555 1_555
C16 O1 1_555 1_555
H19 C16 1_555 1_555
H20 C16 1_555 1_555
C17 C16 1_555 1_555
H21 C17 1_555 1_555
H22 C17 1_555 1_555
C18 C17 1_555 1_555
H23 C18 1_555 1_555
H24 C18 1_555 1_555
C19 C18 1_555 1_555
H25 C19 1_555 1_555
H26 C19 1_555 1_555
C20 C19 1_555 1_555
H27 C20 1_555 1_555
H28 C20 1_555 1_555
H29 C20 1_555 1_555
O1B C5B 1_555 1_555
N1B C1B 1_555 1_555
N2B C2B 1_555 1_555
N3B C7B 1_555 1_555
C1B C2B 1_555 1_555
C3B N2B 1_555 1_555
H1B C3B 1_555 1_555
C4B C3B 1_555 1_555
C5B C4B 1_555 1_555
C6B C5B 1_555 1_555
H2B C6B 1_555 1_555
C7B C6B 1_555 1_555
C8B C7B 1_555 1_555
H3B C8B 1_555 1_555
C9B C4B 1_555 1_555
H4B C9B 1_555 1_555
C10B N3B 1_555 1_555
H5B C10B 1_555 1_555
H6B C10B 1_555 1_555
C11B C10B 1_555 1_555
H7B C11B 1_555 1_555
H8B C11B 1_555 1_555
C12B C11B 1_555 1_555
H9B C12B 1_555 1_555
H10B C12B 1_555 1_555
H11B C12B 1_555 1_555
C13B N3B 1_555 1_555
H12B C13B 1_555 1_555
H13B C13B 1_555 1_555
C14B C13B 1_555 1_555
H14B C14B 1_555 1_555
H15B C14B 1_555 1_555
C15B C14B 1_555 1_555
H16B C15B 1_555 1_555
H17B C15B 1_555 1_555
H18B C15B 1_555 1_555
C16B O1B 1_555 1_555
H19B C16B 1_555 1_555
H20B C16B 1_555 1_555
C17B C16B 1_555 1_555
H21B C17B 1_555 1_555
H22B C17B 1_555 1_555
C18B C17B 1_555 1_555
H23B C18B 1_555 1_555
H24B C18B 1_555 1_555
C19B C18B 1_555 1_555
H25B C19B 1_555 1_555
H26B C19B 1_555 1_555
C20B C19B 1_555 1_555
H27B C20B 1_555 1_555
H28B C20B 1_555 1_555
H29B C20B 1_555 1_555
C8 C9 1_555 1_555
C8B C9B 1_555 1_555

#END
