
#######################################################################
#
#                 Cambridge Crystallographic Data Centre
#                                CCDC 
#
#######################################################################
#
# If this CIF has been generated from an entry in the Cambridge 
# Structural Database, then it will include bibliographic, chemical, 
# crystal, experimental, refinement or atomic coordinate data resulting 
# from the CCDC's data processing and validation procedures.
#
#######################################################################

data_ATISIG
_chemical_formula_moiety         'C37 H35 B1 N2'
_chemical_name_systematic        
6,6-Dimesityl-11-phenyl-6,11-dihydro-5\l^5^,6\l^5^-pyrido[1',2':1,5][1,2]azaborolo[4,3-b]indole
_symmetry_cell_setting           monoclinic
_symmetry_space_group_name_H-M   'P 21/n'
_symmetry_Int_Tables_number      14
_space_group_name_Hall           '-P 2yn'
loop_
_symmetry_equiv_pos_site_id
_symmetry_equiv_pos_as_xyz
1 x,y,z
2 1/2-x,1/2+y,1/2-z
3 -x,-y,-z
4 1/2+x,1/2-y,1/2+z
_cell_length_a                   7.8712(6)
_cell_length_b                   21.2798(14)
_cell_length_c                   34.785(3)
_cell_angle_alpha                90
_cell_angle_beta                 94.420(5)
_cell_angle_gamma                90
_cell_volume                     5809.07
_exptl_crystal_colour            yellow
_exptl_crystal_description       plate
_cell_formula_units_Z            8
loop_
_atom_site_label
_atom_site_type_symbol
_atom_site_fract_x
_atom_site_fract_y
_atom_site_fract_z
N1 N -0.9786(6) -1.6905(2) -1.11850(12)
N3 N -1.2233(6) -1.5705(2) -1.07365(13)
C1 C -1.2829(7) -1.7566(2) -1.13896(14)
C4 C -1.3095(7) -1.7294(2) -1.17592(15)
C6 C -1.4378(7) -1.7502(3) -1.20262(15)
H2 H -1.4507 -1.7308 -1.2273
C7 C -1.5479(7) -1.7988(3) -1.19431(16)
C9 C -1.5275(7) -1.8235(2) -1.15775(16)
H3 H -1.6036 -1.8556 -1.1510
C11 C -1.4015(7) -1.8041(2) -1.13007(15)
C14 C -1.2051(7) -1.6741(2) -1.18896(14)
H8 H -1.2554 -1.6585 -1.2138
H9 H -1.0878 -1.6877 -1.1917
H10 H -1.2050 -1.6404 -1.1697
C15 C -1.6884(8) -1.8204(3) -1.22358(16)
H11 H -1.6964 -1.8664 -1.2230
H12 H -1.6625 -1.8068 -1.2494
H13 H -1.7971 -1.8021 -1.2173
C17 C -1.3964(7) -1.8371(2) -1.09134(14)
H17 H -1.5123 -1.8489 -1.0857
H18 H -1.3477 -1.8088 -1.0712
H19 H -1.3258 -1.8750 -1.0921
C19 C -1.0317(6) -1.7917(2) -1.08240(15)
C22 C -0.9758(7) -1.7893(2) -1.04307(15)
C24 C -0.8692(7) -1.8353(3) -1.02605(15)
H24 H -0.8343 -1.8317 -0.9994
C25 C -0.8118(7) -1.8859(3) -1.04635(17)
C27 C -0.8684(7) -1.8894(2) -1.08458(16)
H25 H -0.8327 -1.9239 -1.0993
C29 C -0.9766(7) -1.8443(2) -1.10290(14)
C32 C -1.0330(7) -1.7379(2) -1.01619(14)
H30 H -0.9759 -1.7437 -0.9904
H31 H -1.1567 -1.7403 -1.0147
H32 H -1.0031 -1.6966 -1.0262
C33 C -0.6899(7) -1.9333(2) -1.02791(16)
H33 H -0.7012 -1.9730 -1.0422
H34 H -0.7160 -1.9403 -1.0011
H35 H -0.5730 -1.9177 -1.0284
C35 C -1.0272(7) -1.8575(2) -1.14512(14)
H39 H -0.9406 -1.8841 -1.1558
H40 H -1.0365 -1.8178 -1.1594
H41 H -1.1374 -1.8792 -1.1475
C37 C -0.8349(8) -1.7095(3) -1.13464(15)
H45 H -0.8204 -1.7529 -1.1399
C39 C -0.7115(8) -1.6682(3) -1.14344(15)
H47 H -0.6139 -1.6831 -1.1551
C41 C -0.7269(9) -1.6045(3) -1.13553(16)
H49 H -0.6429 -1.5753 -1.1423
C43 C -0.8697(8) -1.5849(3) -1.11742(15)
H51 H -0.8836 -1.5418 -1.1112
C45 C -0.9912(8) -1.6286(3) -1.10859(15)
C48 C -1.1434(7) -1.6226(3) -1.08841(14)
C49 C -1.2273(7) -1.6786(2) -1.08201(14)
C51 C -1.3705(7) -1.6603(3) -1.06201(16)
C53 C -1.5020(8) -1.6938(3) -1.04550(17)
H53 H -1.5132 -1.7379 -1.0491
C55 C -1.6133(8) -1.6614(3) -1.02419(18)
H55 H -1.7003 -1.6840 -1.0127
C57 C -1.6028(8) -1.5972(3) -1.01901(18)
H57 H -1.6824 -1.5768 -1.0040
C59 C -1.4793(8) -1.5619(3) -1.03508(16)
H59 H -1.4732 -1.5175 -1.0319
C61 C -1.3645(7) -1.5943(3) -1.05603(15)
C63 C -1.1554(9) -1.5080(3) -1.06938(17)
C65 C -1.2479(9) -1.4585(3) -1.08469(18)
H61 H -1.3552 -1.4654 -1.0984
C67 C -1.1848(10) -1.3988(3) -1.0801(2)
H63 H -1.2477 -1.3644 -1.0913
C69 C -1.0311(11) -1.3879(3) -1.0594(2)
H65 H -0.9889 -1.3463 -1.0559
C72 C -0.9408(9) -1.4375(4) -1.04401(18)
H68 H -0.8334 -1.4305 -1.0303
C74 C -1.0033(9) -1.4975(3) -1.04816(17)
H70 H -0.9416 -1.5318 -1.0364
B1 B -1.1404(8) -1.7350(3) -1.10436(17)
N2 N -1.4547(5) -1.09387(18) -1.14971(11)
N4 N -1.2151(6) -1.0411(2) -1.22853(12)
C2 C -1.1506(6) -1.1295(2) -1.10797(13)
C3 C -1.0252(7) -1.1764(2) -1.09972(14)
C5 C -0.8967(7) -1.1685(2) -1.07043(14)
H1 H -0.8132 -1.2004 -1.0661
C8 C -0.8868(7) -1.1151(3) -1.04733(14)
C10 C -1.0056(7) -1.0678(2) -1.05607(14)
H4 H -0.9997 -1.0302 -1.0414
C12 C -1.1327(7) -1.0743(2) -1.08575(14)
C13 C -1.0233(7) -1.2389(2) -1.12105(15)
H5 H -0.9062 -1.2548 -1.1203
H6 H -1.0673 -1.2328 -1.1479
H7 H -1.0951 -1.2693 -1.1087
C16 C -0.7506(7) -1.1087(3) -1.01437(15)
H14 H -0.7096 -1.1505 -1.0063
H15 H -0.7986 -1.0875 -0.9926
H16 H -0.6555 -1.0838 -1.0229
C18 C -1.2478(7) -1.0175(2) -1.09246(15)
H20 H -1.2066 -0.9832 -1.0754
H21 H -1.3643 -1.0287 -1.0870
H22 H -1.2468 -1.0039 -1.1194
C20 C -1.3875(6) -1.2119(2) -1.14342(15)
C21 C -1.4444(6) -1.2368(2) -1.10907(16)
C23 C -1.5376(7) -1.2929(3) -1.10877(18)
H23 H -1.5725 -1.3082 -1.0850
C26 C -1.5799(7) -1.3263(3) -1.1419(2)
C28 C -1.5253(7) -1.3031(3) -1.17597(18)
H26 H -1.5533 -1.3255 -1.1992
C30 C -1.4294(6) -1.2472(3) -1.17743(16)
C31 C -1.4032(6) -1.2086(2) -1.06933(14)
H27 H -1.4868 -1.2231 -1.0518
H28 H -1.4075 -1.1626 -1.0711
H29 H -1.2888 -1.2217 -1.0594
C34 C -1.6807(8) -1.3875(3) -1.1413(2)
H36 H -1.6414 -1.4120 -1.1185
H37 H -1.6632 -1.4118 -1.1646
H38 H -1.8022 -1.3780 -1.1405
C36 C -1.3746(7) -1.2292(2) -1.21652(14)
H42 H -1.4261 -1.2581 -1.2360
H43 H -1.2502 -1.2316 -1.2163
H44 H -1.4119 -1.1862 -1.2227
C38 C -1.5969(7) -1.0939(2) -1.13017(14)
H46 H -1.6055 -1.1235 -1.1100
C40 C -1.7287(7) -1.0529(2) -1.13838(15)
H48 H -1.8259 -1.0534 -1.1238
C42 C -1.7172(7) -1.0108(2) -1.16844(16)
H50 H -1.8060 -0.9813 -1.1744
C44 C -1.5761(7) -1.0117(2) -1.18980(15)
H52 H -1.5689 -0.9838 -1.2109
C46 C -1.4453(7) -1.0538(2) -1.18010(14)
C47 C -1.2888(7) -1.0676(2) -1.19764(14)
C50 C -1.1996(6) -1.1177(2) -1.18163(14)
C52 C -1.0519(7) -1.1215(2) -1.20351(14)
C54 C -0.9068(7) -1.1605(3) -1.20244(15)
H54 H -0.8911 -1.1929 -1.1837
C56 C -0.7874(7) -1.1507(3) -1.22912(17)
H56 H -0.6896 -1.1770 -1.2283
C58 C -0.8057(8) -1.1040(3) -1.25693(17)
H58 H -0.7212 -1.0992 -1.2748
C60 C -0.9445(7) -1.0645(3) -1.25898(15)
H60 H -0.9575 -1.0319 -1.2777
C62 C -1.0649(7) -1.0745(3) -1.23233(15)
C64 C -1.2709(7) -0.9890(3) -1.25201(16)
C66 C -1.2585(8) -0.9294(3) -1.23784(18)
H62 H -1.2166 -0.9224 -1.2119
C68 C -1.3068(10) -0.8796(3) -1.2613(3)
H64 H -1.2979 -0.8381 -1.2512
C70 C -1.3661(10) -0.8882(4) -1.2979(2)
H66 H -1.3975 -0.8530 -1.3137
C71 C -1.3814(9) -0.9468(4) -1.31271(19)
H67 H -1.4244 -0.9531 -1.3387
C73 C -1.3336(8) -0.9976(3) -1.28939(17)
H69 H -1.3446 -1.0390 -1.2995
B2 B -1.2900(8) -1.1432(3) -1.14453(16)
loop_
_geom_bond_atom_site_label_1
_geom_bond_atom_site_label_2
_geom_bond_site_symmetry_1
_geom_bond_site_symmetry_2
N1 C37 1_555 1_555
N2 C38 1_555 1_555
N3 C48 1_555 1_555
N4 C47 1_555 1_555
C1 C4 1_555 1_555
C2 C3 1_555 1_555
C3 C5 1_555 1_555
C4 C6 1_555 1_555
C5 H1 1_555 1_555
C6 H2 1_555 1_555
C7 C6 1_555 1_555
C8 C5 1_555 1_555
C9 C7 1_555 1_555
H3 C9 1_555 1_555
C10 C8 1_555 1_555
H4 C10 1_555 1_555
C11 C1 1_555 1_555
C12 C2 1_555 1_555
C13 C3 1_555 1_555
H5 C13 1_555 1_555
H6 C13 1_555 1_555
H7 C13 1_555 1_555
C14 C4 1_555 1_555
H8 C14 1_555 1_555
H9 C14 1_555 1_555
H10 C14 1_555 1_555
C15 C7 1_555 1_555
H11 C15 1_555 1_555
H12 C15 1_555 1_555
H13 C15 1_555 1_555
C16 C8 1_555 1_555
H14 C16 1_555 1_555
H15 C16 1_555 1_555
H16 C16 1_555 1_555
C17 C11 1_555 1_555
H17 C17 1_555 1_555
H18 C17 1_555 1_555
H19 C17 1_555 1_555
C18 C12 1_555 1_555
H20 C18 1_555 1_555
H21 C18 1_555 1_555
H22 C18 1_555 1_555
C19 C22 1_555 1_555
C20 C21 1_555 1_555
C21 C23 1_555 1_555
C22 C24 1_555 1_555
C23 H23 1_555 1_555
C24 H24 1_555 1_555
C25 C24 1_555 1_555
C26 C23 1_555 1_555
C27 C25 1_555 1_555
H25 C27 1_555 1_555
C28 C26 1_555 1_555
H26 C28 1_555 1_555
C29 C19 1_555 1_555
C30 C20 1_555 1_555
C31 C21 1_555 1_555
H27 C31 1_555 1_555
H28 C31 1_555 1_555
H29 C31 1_555 1_555
C32 C22 1_555 1_555
H30 C32 1_555 1_555
H31 C32 1_555 1_555
H32 C32 1_555 1_555
C33 C25 1_555 1_555
H33 C33 1_555 1_555
H34 C33 1_555 1_555
H35 C33 1_555 1_555
C34 C26 1_555 1_555
H36 C34 1_555 1_555
H37 C34 1_555 1_555
H38 C34 1_555 1_555
C35 C29 1_555 1_555
H39 C35 1_555 1_555
H40 C35 1_555 1_555
H41 C35 1_555 1_555
C36 C30 1_555 1_555
H42 C36 1_555 1_555
H43 C36 1_555 1_555
H44 C36 1_555 1_555
C37 H45 1_555 1_555
C38 H46 1_555 1_555
C39 C37 1_555 1_555
H47 C39 1_555 1_555
C40 C38 1_555 1_555
H48 C40 1_555 1_555
C41 C39 1_555 1_555
H49 C41 1_555 1_555
C42 C40 1_555 1_555
H50 C42 1_555 1_555
C43 C41 1_555 1_555
H51 C43 1_555 1_555
C44 C42 1_555 1_555
H52 C44 1_555 1_555
C45 N1 1_555 1_555
C46 N2 1_555 1_555
C47 C46 1_555 1_555
C48 C45 1_555 1_555
C49 C48 1_555 1_555
C50 C47 1_555 1_555
C51 C49 1_555 1_555
C52 C50 1_555 1_555
C53 C51 1_555 1_555
H53 C53 1_555 1_555
C54 C52 1_555 1_555
H54 C54 1_555 1_555
C55 C53 1_555 1_555
H55 C55 1_555 1_555
C56 C54 1_555 1_555
H56 C56 1_555 1_555
C57 C55 1_555 1_555
H57 C57 1_555 1_555
C58 C56 1_555 1_555
H58 C58 1_555 1_555
C59 C57 1_555 1_555
H59 C59 1_555 1_555
C60 C58 1_555 1_555
H60 C60 1_555 1_555
C61 N3 1_555 1_555
C62 N4 1_555 1_555
C63 N3 1_555 1_555
C64 N4 1_555 1_555
C65 C63 1_555 1_555
H61 C65 1_555 1_555
C66 C64 1_555 1_555
H62 C66 1_555 1_555
C67 C65 1_555 1_555
H63 C67 1_555 1_555
C68 C66 1_555 1_555
H64 C68 1_555 1_555
C69 C67 1_555 1_555
H65 C69 1_555 1_555
C70 C68 1_555 1_555
H66 C70 1_555 1_555
C71 C70 1_555 1_555
H67 C71 1_555 1_555
C72 C69 1_555 1_555
H68 C72 1_555 1_555
C73 C64 1_555 1_555
H69 C73 1_555 1_555
C74 C63 1_555 1_555
H70 C74 1_555 1_555
B1 N1 1_555 1_555
B2 N2 1_555 1_555
C1 B1 1_555 1_555
C2 B2 1_555 1_555
C9 C11 1_555 1_555
C10 C12 1_555 1_555
C19 B1 1_555 1_555
C20 B2 1_555 1_555
C27 C29 1_555 1_555
C28 C30 1_555 1_555
C43 C45 1_555 1_555
C44 C46 1_555 1_555
C49 B1 1_555 1_555
C50 B2 1_555 1_555
C51 C61 1_555 1_555
C52 C62 1_555 1_555
C59 C61 1_555 1_555
C60 C62 1_555 1_555
C71 C73 1_555 1_555
C72 C74 1_555 1_555

#END
