
#######################################################################
#
#                 Cambridge Crystallographic Data Centre
#                                CCDC 
#
#######################################################################
#
# If this CIF has been generated from an entry in the Cambridge 
# Structural Database, then it will include bibliographic, chemical, 
# crystal, experimental, refinement or atomic coordinate data resulting 
# from the CCDC's data processing and validation procedures.
#
#######################################################################

data_ATIVUW
_chemical_compound_source        'isolated from the aerial parts of Croton laui'
_chemical_formula_moiety         'C20 H30 O4,2(H2 O1)'
_chemical_name_systematic        
"4'-hydroxy-3,3a',6',6',9a'-pentamethyl-3a',4',5',5a',6',7',8',9',9a',9b'-decahydro-1'H,5H-spiro[furan-2,2'-naphtho[2,1-b]furan]-5-one dihydrate"
_chemical_properties_biological  
'weak anti-inflammatory activities in LPS-stimulated RAW 264.7 cells'
_symmetry_cell_setting           monoclinic
_symmetry_space_group_name_H-M   'P 21'
_symmetry_Int_Tables_number      4
_space_group_name_Hall           'P 2yb'
loop_
_symmetry_equiv_pos_site_id
_symmetry_equiv_pos_as_xyz
1 x,y,z
2 -x,1/2+y,-z
_cell_length_a                   10.2306(5)
_cell_length_b                   6.3329(2)
_cell_length_c                   15.7476(7)
_cell_angle_alpha                90
_cell_angle_beta                 101.215(5)
_cell_angle_gamma                90
_cell_volume                     1000.79
_exptl_crystal_colour            colorless
_exptl_crystal_description       block
_cell_formula_units_Z            2
loop_
_atom_site_label
_atom_site_type_symbol
_atom_site_fract_x
_atom_site_fract_y
_atom_site_fract_z
O1 O 0.0972(2) 0.1245(3) 0.09210(12)
O2 O -0.16660(18) 0.1738(3) 0.14503(12)
O3 O -0.29796(19) 0.0195(3) 0.23123(13)
O4 O -0.4800(2) -0.1800(4) 0.22535(15)
C1 C -0.0426(3) 0.2877(4) 0.18200(17)
C2 C 0.0776(3) 0.1525(4) 0.17907(16)
H1 H 0.0639 0.0136 0.2033
C3 C 0.0372(3) 0.3933(5) 0.43214(18)
H2 H -0.0361 0.4833 0.4402
H3 H 0.0127 0.2484 0.4416
C4 C 0.2825(3) 0.3256(5) 0.48620(18)
H4 H 0.2685 0.1782 0.4987
H5 H 0.3595 0.3742 0.5276
C5 C 0.2003(3) 0.2560(5) 0.23589(17)
H6 H 0.2782 0.1696 0.2346
H7 H 0.2151 0.3933 0.2121
C6 C 0.0583(3) 0.4164(4) 0.33863(17)
C7 C -0.0564(3) 0.3043(4) 0.27726(16)
H8 H -0.0525 0.1580 0.2978
C8 C 0.1612(3) 0.4513(5) 0.49949(18)
H9 H 0.1793 0.6010 0.4953
H10 H 0.1445 0.4239 0.5570
C9 C 0.1836(3) 0.2830(4) 0.33024(16)
H11 H 0.1624 0.1406 0.3478
C10 C 0.3139(3) 0.3413(4) 0.39453(18)
C11 C 0.4232(3) 0.1800(6) 0.3878(2)
H12 H 0.4961 0.1979 0.4358
H13 H 0.4539 0.2014 0.3346
H14 H 0.3879 0.0398 0.3888
C12 C -0.3939(3) 0.2847(5) 0.13622(18)
C13 C -0.4875(3) 0.1455(6) 0.1442(2)
H15 H -0.5764 0.1536 0.1165
C14 C -0.4298(3) -0.0213(6) 0.20266(19)
C15 C -0.2030(3) 0.3663(5) 0.26799(19)
H16 H -0.2178 0.5136 0.2521
H17 H -0.2363 0.3380 0.3205
C16 C -0.4023(3) 0.4716(6) 0.0791(2)
H18 H -0.3436 0.4532 0.0390
H19 H -0.3767 0.5954 0.1135
H20 H -0.4921 0.4875 0.0478
C17 C 0.0641(3) 0.6527(4) 0.31631(19)
H21 H -0.0247 0.7047 0.2961
H22 H 0.1153 0.6708 0.2718
H23 H 0.1051 0.7296 0.3670
C18 C -0.0441(3) 0.4893(5) 0.12873(18)
H24 H -0.0641 0.4548 0.0682
H25 H 0.0417 0.5560 0.1425
H26 H -0.1107 0.5837 0.1419
C19 C 0.3698(3) 0.5595(5) 0.3791(2)
H27 H 0.3153 0.6668 0.3977
H28 H 0.3697 0.5770 0.3185
H29 H 0.4592 0.5715 0.4114
C20 C -0.2651(3) 0.2180(5) 0.19403(18)
H30 H 0.146(4) 0.025(8) 0.095(3)
O5 O 0.2338(2) 0.4309(4) 0.01235(15)
H31 H 0.178(4) 0.346(7) 0.030(3)
H32 H 0.192(4) 0.495(7) -0.034(2)
O6 O 0.2587(2) 0.7774(4) 0.11990(16)
H33 H 0.333(3) 0.776(7) 0.153(2)
H34 H 0.250(4) 0.672(6) 0.083(2)
loop_
_geom_bond_atom_site_label_1
_geom_bond_atom_site_label_2
_geom_bond_site_symmetry_1
_geom_bond_site_symmetry_2
O1 C2 1_555 1_555
O2 C1 1_555 1_555
O3 C14 1_555 1_555
O4 C14 1_555 1_555
C1 C2 1_555 1_555
C2 H1 1_555 1_555
C3 H2 1_555 1_555
H3 C3 1_555 1_555
C4 H4 1_555 1_555
H5 C4 1_555 1_555
C5 C2 1_555 1_555
H6 C5 1_555 1_555
H7 C5 1_555 1_555
C6 C3 1_555 1_555
C7 C1 1_555 1_555
H8 C7 1_555 1_555
C8 C3 1_555 1_555
H9 C8 1_555 1_555
H10 C8 1_555 1_555
C9 C5 1_555 1_555
H11 C9 1_555 1_555
C10 C4 1_555 1_555
C11 C10 1_555 1_555
H12 C11 1_555 1_555
H13 C11 1_555 1_555
H14 C11 1_555 1_555
C12 C13 1_555 1_555
C13 H15 1_555 1_555
C14 C13 1_555 1_555
C15 C7 1_555 1_555
H16 C15 1_555 1_555
H17 C15 1_555 1_555
C16 C12 1_555 1_555
H18 C16 1_555 1_555
H19 C16 1_555 1_555
H20 C16 1_555 1_555
C17 C6 1_555 1_555
H21 C17 1_555 1_555
H22 C17 1_555 1_555
H23 C17 1_555 1_555
C18 C1 1_555 1_555
H24 C18 1_555 1_555
H25 C18 1_555 1_555
H26 C18 1_555 1_555
C19 C10 1_555 1_555
H27 C19 1_555 1_555
H28 C19 1_555 1_555
H29 C19 1_555 1_555
C20 O2 1_555 1_555
H30 O1 1_555 1_555
O5 H31 1_555 1_555
H32 O5 1_555 1_555
O6 H33 1_555 1_555
H34 O6 1_555 1_555
O3 C20 1_555 1_555
C4 C8 1_555 1_555
C6 C7 1_555 1_555
C6 C9 1_555 1_555
C9 C10 1_555 1_555
C12 C20 1_555 1_555
C15 C20 1_555 1_555

#END
