
#######################################################################
#
#                 Cambridge Crystallographic Data Centre
#                                CCDC 
#
#######################################################################
#
# If this CIF has been generated from an entry in the Cambridge 
# Structural Database, then it will include bibliographic, chemical, 
# crystal, experimental, refinement or atomic coordinate data resulting 
# from the CCDC's data processing and validation procedures.
#
#######################################################################

data_ATOGIB
_chemical_compound_source        'isolated from Palhinhaea cernua'
_chemical_name_common            'Palhicerine A'
_chemical_formula_moiety         'C17 H25 N1 O2'
_chemical_name_systematic        
2-methoxy-4-methyl-13-azatetracyclo[7.7.0.0^1,6^.0^2,13^]hexadec-9-en-8-one
_symmetry_cell_setting           orthorhombic
_symmetry_space_group_name_H-M   'P 21 21 21'
_symmetry_Int_Tables_number      19
_space_group_name_Hall           'P 2ac 2ab'
loop_
_symmetry_equiv_pos_site_id
_symmetry_equiv_pos_as_xyz
1 x,y,z
2 1/2+x,1/2-y,-z
3 -x,1/2+y,1/2-z
4 1/2-x,-y,1/2+z
_cell_length_a                   10.3207(2)
_cell_length_b                   10.5679(2)
_cell_length_c                   13.5141(2)
_cell_angle_alpha                90
_cell_angle_beta                 90
_cell_angle_gamma                90
_cell_volume                     1473.96
_exptl_crystal_colour            colorless
_exptl_crystal_description       block
_cell_formula_units_Z            4
loop_
_atom_site_label
_atom_site_type_symbol
_atom_site_fract_x
_atom_site_fract_y
_atom_site_fract_z
N1 N 0.75683(15) 1.03087(14) 0.86364(11)
O1 O 1.00586(13) 1.17649(13) 1.20485(9)
O2 O 0.83720(12) 0.82637(11) 0.88917(9)
C1 C 0.77739(18) 1.16583(18) 0.84758(14)
H1 H 0.7080 1.1963 0.8030
H2 H 0.8604 1.1759 0.8117
C2 C 0.78094(19) 1.25401(17) 0.93798(15)
H3 H 0.8105 1.3382 0.9151
H4 H 0.6909 1.2642 0.9620
C3 C 0.86342(17) 1.21689(16) 1.02476(14)
H5 H 0.8944 1.2855 1.0635
C4 C 0.89990(15) 1.10311(16) 1.05582(12)
C5 C 0.97607(15) 1.09002(17) 1.15036(12)
C6 C 1.00721(18) 0.95115(16) 1.16546(13)
H6 H 0.9468 0.9120 1.2134
H7 H 1.0971 0.9398 1.1894
C7 C 0.98990(16) 0.89407(16) 1.06169(12)
H8 H 0.9689 0.8018 1.0659
C8 C 1.11484(16) 0.91542(16) 1.00308(13)
H9 H 1.1480 1.0011 1.0186
H10 H 1.1804 0.8537 1.0260
C9 C 0.63118(17) 0.99765(19) 0.90889(14)
H11 H 0.6058 0.9124 0.8856
H12 H 0.5650 1.0581 0.8849
C10 C 0.62923(18) 0.9980(2) 1.02230(14)
H13 H 0.6322 1.0864 1.0465
H14 H 0.5475 0.9593 1.0459
C11 C 0.74411(17) 0.92464(17) 1.06423(13)
H15 H 0.7323 0.8333 1.0506
H16 H 0.7473 0.9362 1.1369
C12 C 0.87373(16) 0.96969(15) 1.01829(12)
C13 C 0.86472(17) 0.95838(15) 0.90444(12)
C14 C 0.99410(17) 0.99187(16) 0.85590(12)
H17 H 0.9854 0.9857 0.7831
H18 H 1.0173 1.0803 0.8725
C15 C 1.10184(16) 0.90339(16) 0.89079(13)
H19 H 1.0777 0.8143 0.8740
C16 C 1.22954(19) 0.93600(19) 0.83983(16)
H20 H 1.2186 0.9300 0.7679
H21 H 1.2968 0.8766 0.8613
H22 H 1.2552 1.0224 0.8576
C17 C 0.8249(2) 0.78758(19) 0.78859(14)
H23 H 0.7691 0.8473 0.7531
H24 H 0.7865 0.7028 0.7860
H25 H 0.9107 0.7859 0.7575
loop_
_geom_bond_atom_site_label_1
_geom_bond_atom_site_label_2
_geom_bond_site_symmetry_1
_geom_bond_site_symmetry_2
N1 C1 1_555 1_555
O1 C5 1_555 1_555
O2 C13 1_555 1_555
C1 H1 1_555 1_555
H2 C1 1_555 1_555
C2 C1 1_555 1_555
H3 C2 1_555 1_555
H4 C2 1_555 1_555
C3 C2 1_555 1_555
H5 C3 1_555 1_555
C4 C3 1_555 1_555
C5 C4 1_555 1_555
C6 C5 1_555 1_555
H6 C6 1_555 1_555
H7 C6 1_555 1_555
C7 C6 1_555 1_555
H8 C7 1_555 1_555
C8 C7 1_555 1_555
H9 C8 1_555 1_555
H10 C8 1_555 1_555
C9 N1 1_555 1_555
H11 C9 1_555 1_555
H12 C9 1_555 1_555
C10 C9 1_555 1_555
H13 C10 1_555 1_555
H14 C10 1_555 1_555
C11 C10 1_555 1_555
H15 C11 1_555 1_555
H16 C11 1_555 1_555
C12 C4 1_555 1_555
C13 N1 1_555 1_555
C14 C13 1_555 1_555
H17 C14 1_555 1_555
H18 C14 1_555 1_555
C15 C8 1_555 1_555
H19 C15 1_555 1_555
C16 C15 1_555 1_555
H20 C16 1_555 1_555
H21 C16 1_555 1_555
H22 C16 1_555 1_555
C17 O2 1_555 1_555
H23 C17 1_555 1_555
H24 C17 1_555 1_555
H25 C17 1_555 1_555
C7 C12 1_555 1_555
C11 C12 1_555 1_555
C12 C13 1_555 1_555
C14 C15 1_555 1_555

#END
