
#######################################################################
#
#                 Cambridge Crystallographic Data Centre
#                                CCDC 
#
#######################################################################
#
# If this CIF has been generated from an entry in the Cambridge 
# Structural Database, then it will include bibliographic, chemical, 
# crystal, experimental, refinement or atomic coordinate data resulting 
# from the CCDC's data processing and validation procedures.
#
#######################################################################

data_ATOHIC
_chemical_formula_moiety         
'C35 H25 O20 S5 5-,2(C22 H20 N2 2+),14(H2 O1),C1 H4 O1,H3 O1 1+'
_chemical_name_systematic        
"5,11,17,23,29-penta-sulfanato-31,32,33,34,35-pentahydroxycalix(5)arene bis(N-methyl-N'-(naphthalen-2-ylmethyl)-4,4'-bipyridinium) clathrate oxonium methanol solvate tetradecahydrate"
_symmetry_cell_setting           monoclinic
_symmetry_space_group_name_H-M   'P 21/n'
_symmetry_Int_Tables_number      14
_space_group_name_Hall           '-P 2yn'
loop_
_symmetry_equiv_pos_site_id
_symmetry_equiv_pos_as_xyz
1 x,y,z
2 1/2-x,1/2+y,1/2-z
3 -x,-y,-z
4 1/2+x,1/2-y,1/2+z
_cell_length_a                   19.73060(19)
_cell_length_b                   17.91257(18)
_cell_length_c                   24.8103(2)
_cell_angle_alpha                90
_cell_angle_beta                 96.4960(8)
_cell_angle_gamma                90
_cell_volume                     8712.3
_exptl_crystal_colour            yellow
_exptl_crystal_description       block
_cell_formula_units_Z            4
loop_
_atom_site_label
_atom_site_type_symbol
_atom_site_fract_x
_atom_site_fract_y
_atom_site_fract_z
N1 N -0.0340(2) 0.2728(2) 0.2659(2)
N2 N 0.29270(17) 0.12599(17) 0.32903(12)
C36 C 0.0927(2) 0.2112(2) 0.29181(16)
C37 C 0.0569(2) 0.1998(2) 0.24093(18)
H26 H 0.0756 0.1707 0.2153
C38 C -0.0066(2) 0.2318(3) 0.2286(2)
H27 H -0.0304 0.2249 0.1945
C39 C -0.0011(3) 0.2841(3) 0.3148(3)
H28 H -0.0214 0.3126 0.3399
C40 C 0.0624(2) 0.2544(2) 0.3291(2)
H29 H 0.0851 0.2630 0.3634
C41 C -0.1038(3) 0.3036(4) 0.2521(4)
H30 H -0.1366 0.2639 0.2517
H31 H -0.1070 0.3267 0.2170
H32 H -0.1129 0.3400 0.2788
C42 C 0.16189(19) 0.1799(2) 0.30543(14)
C43 C 0.2114(2) 0.2214(2) 0.33637(17)
H33 H 0.2006 0.2682 0.3493
C44 C 0.2761(2) 0.1936(2) 0.34781(19)
H34 H 0.3090 0.2216 0.3687
C45 C 0.2460(2) 0.0851(2) 0.29945(15)
H35 H 0.2581 0.0385 0.2870
C46 C 0.1808(2) 0.1103(2) 0.28695(15)
H36 H 0.1489 0.0810 0.2661
C47 C 0.3646(2) 0.0993(2) 0.34187(18)
H37 H 0.3693 0.0506 0.3255
H38 H 0.3749 0.0938 0.3808
C48 C 0.4146(2) 0.1524(2) 0.32135(15)
C49 C 0.45082(19) 0.2031(2) 0.35544(14)
H39 H 0.4454 0.2034 0.3922
C50 C 0.49600(19) 0.2543(2) 0.33501(15)
C51 C 0.5045(2) 0.2517(2) 0.27904(16)
C52 C 0.4681(2) 0.1981(3) 0.24558(16)
H40 H 0.4743 0.1954 0.2090
C53 C 0.4243(2) 0.1509(3) 0.26612(16)
H41 H 0.4001 0.1166 0.2433
C54 C 0.5490(2) 0.3047(3) 0.25851(18)
H42 H 0.5552 0.3038 0.2219
C55 C 0.5823(2) 0.3562(3) 0.2914(2)
H43 H 0.6107 0.3906 0.2771
C56 C 0.5741(2) 0.3581(3) 0.3471(2)
H44 H 0.5976 0.3935 0.3695
C57 C 0.5320(2) 0.3083(2) 0.36865(16)
H45 H 0.5271 0.3099 0.4055
N3 N 0.82737(18) 0.6822(2) 0.35848(14)
N4 N 0.77451(16) 0.76994(18) 0.08225(12)
C58 C 0.80420(18) 0.7158(2) 0.24975(14)
C59 C 0.7912(2) 0.7672(3) 0.28916(17)
H46 H 0.7746 0.8143 0.2790
C60 C 0.8027(3) 0.7485(3) 0.34321(19)
H47 H 0.7931 0.7829 0.3693
C61 C 0.8422(3) 0.6324(3) 0.32201(19)
H48 H 0.8607 0.5865 0.3335
C62 C 0.8306(2) 0.6477(2) 0.26734(17)
H49 H 0.8405 0.6120 0.2422
C63 C 0.8374(3) 0.6629(4) 0.41680(18)
H50 H 0.8853 0.6611 0.4290
H51 H 0.8173 0.6151 0.4222
H52 H 0.8160 0.7001 0.4371
C64 C 0.79238(17) 0.7344(2) 0.19104(14)
C65 C 0.76073(19) 0.8001(2) 0.17290(15)
H53 H 0.7451 0.8331 0.1976
C66 C 0.7523(2) 0.8168(2) 0.11852(15)
H54 H 0.7310 0.8612 0.1068
C67 C 0.8077(3) 0.7083(2) 0.09853(17)
H55 H 0.8243 0.6772 0.0731
C68 C 0.8177(2) 0.6899(2) 0.15203(16)
H56 H 0.8420 0.6468 0.1627
C69 C 0.7637(3) 0.7889(2) 0.02307(16)
H57 H 0.7172 0.7769 0.0089
H58 H 0.7939 0.7585 0.0039
C70 C 0.7774(3) 0.8717(2) 0.0123(2)
C71 C 0.7256(3) 0.9223(3) -0.0039(2)
H59 H 0.6803 0.9067 -0.0077
C72 C 0.7414(3) 0.9961(3) -0.0143(2)
C73 C 0.8090(3) 1.0194(2) -0.0086(2)
C74 C 0.8608(2) 0.9688(3) 0.0075(2)
H60 H 0.9061 0.9844 0.0113
C75 C 0.8450(3) 0.8950(2) 0.0180(2)
H61 H 0.8797 0.8612 0.0288
C76 C 0.6891(3) 1.0465(3) -0.0292(3)
H62 H 0.6439 1.0313 -0.0314
C77 C 0.7050(4) 1.1199(4) -0.0408(3)
H63 H 0.6702 1.1538 -0.0509
C78 C 0.7726(4) 1.1429(3) -0.0375(4)
H64 H 0.7830 1.1915 -0.0469
C79 C 0.8245(3) 1.0931(2) -0.0200(3)
H65 H 0.8696 1.1091 -0.0160
O21 O 0.85018(19) 0.31609(19) 0.96876(14)
O22 O 0.75138(19) 0.94919(19) 0.25048(14)
O23 O 0.0960(2) 0.2221(3) 0.45925(17)
O24 O 0.6782(4) 0.6267(4) 0.3589(3)
O25 O 0.2783(3) 0.6819(4) 0.9886(4)
S1 S 0.59527(5) 0.57607(9) 0.20861(5)
S2 S 0.22795(5) 0.48517(6) 0.03503(4)
S3 S -0.08664(5) 0.48974(6) 0.17022(4)
S4 S 0.02842(5) 0.75073(5) 0.43167(4)
S5 S 0.46444(4) 0.77474(5) 0.46717(3)
O1 O 0.63036(17) 0.6229(3) 0.25016(16)
O2 O 0.63792(18) 0.5173(3) 0.18964(16)
O3 O 0.56135(18) 0.6188(3) 0.16351(16)
O4 O 0.37264(13) 0.41760(16) 0.30073(10)
H1 H 0.3501 0.4477 0.3162
O5 O 0.28605(18) 0.5305(2) 0.02780(15)
O6 O 0.21787(17) 0.42193(19) -0.00254(11)
O7 O 0.16491(15) 0.52834(17) 0.03404(12)
O8 O 0.28026(14) 0.32908(15) 0.24430(10)
H2 H 0.3135 0.3455 0.2635
O9 O -0.07012(16) 0.56083(19) 0.14588(13)
O10 O -0.10115(17) 0.4332(2) 0.12906(14)
O11 O -0.13852(14) 0.4991(2) 0.20624(13)
O12 O 0.16285(13) 0.39303(14) 0.30512(10)
H3 H 0.1787 0.4271 0.3247
O13 O -0.0257(2) 0.7697(2) 0.38888(16)
O14 O 0.0696(2) 0.8149(2) 0.4447(2)
O15 O -0.00091(17) 0.71417(19) 0.47550(12)
O16 O 0.19684(12) 0.52811(13) 0.33501(10)
H4 H 0.2376 0.5365 0.3430
O17 O 0.42821(16) 0.78606(17) 0.51404(11)
O18 O 0.53325(15) 0.74736(19) 0.48124(14)
O19 O 0.46206(18) 0.84099(17) 0.43381(12)
O20 O 0.31963(12) 0.53742(14) 0.33642(9)
H5 H 0.3179 0.5000 0.3553
C1 C 0.43719(19) 0.4395(2) 0.22694(15)
C2 C 0.42560(18) 0.4536(2) 0.28093(15)
C3 C 0.46748(18) 0.5018(2) 0.31429(15)
C4 C 0.51943(19) 0.5390(3) 0.29198(16)
H6 H 0.5478 0.5711 0.3136
C5 C 0.5298(2) 0.5291(3) 0.23798(17)
C6 C 0.4889(2) 0.4785(3) 0.20618(16)
H7 H 0.4966 0.4709 0.1703
C7 C 0.39769(19) 0.3800(2) 0.19396(15)
H8 H 0.3977 0.3353 0.2160
H9 H 0.4219 0.3683 0.1631
C8 C 0.32363(18) 0.3983(2) 0.17268(14)
C9 C 0.31037(18) 0.4377(2) 0.12433(14)
H10 H 0.3461 0.4584 0.1080
C10 C 0.24349(18) 0.4461(2) 0.10048(14)
C11 C 0.18996(18) 0.41589(19) 0.12490(14)
H11 H 0.1456 0.4209 0.1081
C12 C 0.20160(17) 0.37836(18) 0.17397(13)
C13 C 0.26965(18) 0.37028(19) 0.19778(14)
C14 C 0.14399(18) 0.34056(19) 0.19851(14)
H12 H 0.1634 0.3080 0.2275
H13 H 0.1193 0.3093 0.1710
C15 C 0.09350(18) 0.39244(19) 0.22109(14)
C16 C 0.03394(18) 0.4147(2) 0.18967(14)
H14 H 0.0253 0.3987 0.1539
C17 C -0.01239(18) 0.4605(2) 0.21147(14)
C18 C -0.00109(17) 0.48333(19) 0.26511(14)
H15 H -0.0330 0.5136 0.2793
C19 C 0.05725(17) 0.46153(18) 0.29784(14)
C20 C 0.10499(17) 0.41690(18) 0.27486(14)
C21 C 0.06695(18) 0.48171(18) 0.35765(13)
H16 H 0.0980 0.4459 0.3765
H17 H 0.0234 0.4769 0.3720
C22 C 0.09443(16) 0.55971(18) 0.37023(12)
C23 C 0.05567(16) 0.61248(18) 0.39354(12)
H18 H 0.0124 0.6000 0.4021
C24 C 0.08087(17) 0.68403(19) 0.40431(13)
C25 C 0.14430(16) 0.70423(18) 0.38993(12)
H19 H 0.1601 0.7527 0.3962
C26 C 0.18445(15) 0.65257(17) 0.36621(11)
C27 C 0.16008(16) 0.57961(18) 0.35778(12)
C28 C 0.24953(16) 0.67769(18) 0.34416(13)
H20 H 0.2486 0.6573 0.3078
H21 H 0.2471 0.7316 0.3404
C29 C 0.31887(16) 0.65937(18) 0.37403(12)
C30 C 0.35415(16) 0.71429(18) 0.40585(12)
H22 H 0.3323 0.7588 0.4125
C31 C 0.42149(17) 0.70338(19) 0.42781(12)
C32 C 0.45498(17) 0.6384(2) 0.41700(13)
H23 H 0.5005 0.6322 0.4305
C33 C 0.42122(17) 0.5820(2) 0.38602(13)
C34 C 0.35184(16) 0.59164(19) 0.36581(12)
C35 C 0.45814(19) 0.5108(2) 0.37369(15)
H24 H 0.5026 0.5104 0.3948
H25 H 0.4327 0.4684 0.3850
H66? H 0.8004 0.7670 0.0054
H67? H 0.7214 0.7663 0.0073
C80? C 0.7612(4) 0.8669(2) 0.0120(2)
C81? C 0.6969(4) 0.8993(3) 0.0033(2)
H68? H 0.6582 0.8708 0.0068
C82? C 0.6903(3) 0.9744(3) -0.0106(2)
H69? H 0.6473 0.9961 -0.0164
C83? C 0.7481(3) 1.0170(2) -0.01579(15)
C84? C 0.8124(3) 0.9845(3) -0.00711(15)
C85? C 0.8190(3) 0.9095(3) 0.0068(2)
H70? H 0.8620 0.8878 0.0126
C86? C 0.7427(4) 1.0921(4) -0.0297(2)
H71? H 0.7001 1.1147 -0.0356
C87? C 0.8023(5) 1.1337(4) -0.0346(2)
H72? H 0.7988 1.1840 -0.0439
C88? C 0.8651(4) 1.1011(4) -0.0260(2)
H73? H 0.9039 1.1293 -0.0294
C89? C 0.8714(4) 1.0260(4) -0.0121(2)
H74? H 0.9142 1.0038 -0.0062
O26? O 0.0893(8) 0.9452(8) 0.4959(6)
O27? O 0.6888(11) 0.5784(16) 0.3666(9)
O28? O 0.7500(4) 0.9902(4) 0.1393(3)
O29? O 0.7064(10) 0.9749(8) 0.1449(7)
O30? O 0.8899(4) 0.2195(7) 0.1062(3)
O31? O 0.8997(6) 0.2641(5) 0.1194(4)
O32? O 0.8981(4) 0.8988(4) 0.3924(3)
O33? O 0.9483(10) 0.9268(8) 0.4371(6)
O34? O 0.1603(4) 0.8661(5) 0.5217(3)
O35? O 0.4336(4) 0.5978(4) 0.0981(3)
O36? O 0.4754(6) 0.5837(7) 0.0661(5)
O37? O 0.8682(4) 0.2101(5) 0.3908(4)
O38? O 0.8964(9) 0.2521(10) 0.4137(7)
O39? O 0.9259(5) 0.3351(4) 0.4250(3)
O40? O 0.9106(6) 0.3940(8) 0.3869(5)
O41? O 0.8892(4) 0.4735(5) 0.3869(4)
O42? O 0.7002(5) 0.8391(6) 0.3960(6)
O43? O 0.7466(10) 0.8970(11) 0.3947(8)
O44? O 0.8169(9) 0.9527(10) 0.3991(7)
O45? O 0.8298(7) 0.9043(9) 0.4574(6)
O46? O 0.9981(7) 0.4344(8) 0.4750(5)
O47? O 1.0501(10) 0.4462(16) 0.5057(7)
O48? O 0.0000 1.0000 0.5000
O49? O 0.0884(6) 1.0142(8) 0.5100(5)
O50? O 0.93490(17) 0.5531(2) 0.03575(15)
H75? H 0.9024 0.5324 0.0184
C90? C 0.9986(2) 0.5112(3) 0.02900(16)
H76? H 1.0008 0.4668 0.0516
H77? H 1.0378 0.5421 0.0410
loop_
_geom_bond_atom_site_label_1
_geom_bond_atom_site_label_2
_geom_bond_site_symmetry_1
_geom_bond_site_symmetry_2
S1 O1 1_555 1_555
S2 O5 1_555 1_555
S3 O9 1_555 1_555
S4 O13 1_555 1_555
S5 O17 1_555 1_555
O2 S1 1_555 1_555
O3 S1 1_555 1_555
O4 H1 1_555 1_555
O6 S2 1_555 1_555
O7 S2 1_555 1_555
O8 H2 1_555 1_555
O10 S3 1_555 1_555
O11 S3 1_555 1_555
O12 H3 1_555 1_555
O14 S4 1_555 1_555
O15 S4 1_555 1_555
O16 H4 1_555 1_555
O18 S5 1_555 1_555
O19 S5 1_555 1_555
O20 H5 1_555 1_555
C1 C2 1_555 1_555
C2 O4 1_555 1_555
C3 C2 1_555 1_555
C4 C3 1_555 1_555
H6 C4 1_555 1_555
C5 S1 1_555 1_555
C6 C1 1_555 1_555
H7 C6 1_555 1_555
C7 C1 1_555 1_555
H8 C7 1_555 1_555
H9 C7 1_555 1_555
C8 C7 1_555 1_555
C9 C8 1_555 1_555
H10 C9 1_555 1_555
C10 S2 1_555 1_555
C11 C10 1_555 1_555
H11 C11 1_555 1_555
C12 C11 1_555 1_555
C13 O8 1_555 1_555
C14 C12 1_555 1_555
H12 C14 1_555 1_555
H13 C14 1_555 1_555
C15 C14 1_555 1_555
C16 C15 1_555 1_555
H14 C16 1_555 1_555
C17 S3 1_555 1_555
C18 C17 1_555 1_555
H15 C18 1_555 1_555
C19 C18 1_555 1_555
C20 O12 1_555 1_555
C21 C19 1_555 1_555
H16 C21 1_555 1_555
H17 C21 1_555 1_555
C22 C21 1_555 1_555
C23 C22 1_555 1_555
H18 C23 1_555 1_555
C24 S4 1_555 1_555
C25 C24 1_555 1_555
H19 C25 1_555 1_555
C26 C25 1_555 1_555
C27 O16 1_555 1_555
C28 C26 1_555 1_555
H20 C28 1_555 1_555
H21 C28 1_555 1_555
C29 C28 1_555 1_555
C30 C29 1_555 1_555
H22 C30 1_555 1_555
C31 S5 1_555 1_555
C32 C31 1_555 1_555
H23 C32 1_555 1_555
C33 C32 1_555 1_555
C34 O20 1_555 1_555
C35 C3 1_555 1_555
H24 C35 1_555 1_555
H25 C35 1_555 1_555
N1 C38 1_555 1_555
N2 C44 1_555 1_555
C36 C37 1_555 1_555
C37 H26 1_555 1_555
C38 C37 1_555 1_555
H27 C38 1_555 1_555
C39 N1 1_555 1_555
H28 C39 1_555 1_555
C40 C36 1_555 1_555
H29 C40 1_555 1_555
C41 N1 1_555 1_555
H30 C41 1_555 1_555
H31 C41 1_555 1_555
H32 C41 1_555 1_555
C42 C36 1_555 1_555
C43 C42 1_555 1_555
H33 C43 1_555 1_555
C44 C43 1_555 1_555
H34 C44 1_555 1_555
C45 N2 1_555 1_555
H35 C45 1_555 1_555
C46 C42 1_555 1_555
H36 C46 1_555 1_555
C47 N2 1_555 1_555
H37 C47 1_555 1_555
H38 C47 1_555 1_555
C48 C47 1_555 1_555
C49 C48 1_555 1_555
H39 C49 1_555 1_555
C50 C49 1_555 1_555
C51 C50 1_555 1_555
C52 C51 1_555 1_555
H40 C52 1_555 1_555
C53 C48 1_555 1_555
H41 C53 1_555 1_555
C54 C51 1_555 1_555
H42 C54 1_555 1_555
C55 C54 1_555 1_555
H43 C55 1_555 1_555
C56 C55 1_555 1_555
H44 C56 1_555 1_555
C57 C50 1_555 1_555
H45 C57 1_555 1_555
N3 C60 1_555 1_555
N4 C66 1_555 1_555
C58 C59 1_555 1_555
C59 H46 1_555 1_555
C60 C59 1_555 1_555
H47 C60 1_555 1_555
C61 N3 1_555 1_555
H48 C61 1_555 1_555
C62 C58 1_555 1_555
H49 C62 1_555 1_555
C63 N3 1_555 1_555
H50 C63 1_555 1_555
H51 C63 1_555 1_555
H52 C63 1_555 1_555
C64 C58 1_555 1_555
C65 C64 1_555 1_555
H53 C65 1_555 1_555
C66 C65 1_555 1_555
H54 C66 1_555 1_555
C67 N4 1_555 1_555
H55 C67 1_555 1_555
C68 C64 1_555 1_555
H56 C68 1_555 1_555
C69 N4 1_555 1_555
H57 C69 1_555 1_555
H58 C69 1_555 1_555
C70 C69 1_555 1_555
C71 C70 1_555 1_555
H59 C71 1_555 1_555
C72 C71 1_555 1_555
C73 C72 1_555 1_555
C74 C73 1_555 1_555
H60 C74 1_555 1_555
C75 C70 1_555 1_555
H61 C75 1_555 1_555
C76 C72 1_555 1_555
H62 C76 1_555 1_555
C77 C76 1_555 1_555
H63 C77 1_555 1_555
C78 C77 1_555 1_555
H64 C78 1_555 1_555
C79 C73 1_555 1_555
H65 C79 1_555 1_555
C4 C5 1_555 1_555
C5 C6 1_555 1_555
C8 C13 1_555 1_555
C9 C10 1_555 1_555
C12 C13 1_555 1_555
C15 C20 1_555 1_555
C16 C17 1_555 1_555
C19 C20 1_555 1_555
C22 C27 1_555 1_555
C23 C24 1_555 1_555
C26 C27 1_555 1_555
C29 C34 1_555 1_555
C30 C31 1_555 1_555
C33 C34 1_555 1_555
C33 C35 1_555 1_555
C39 C40 1_555 1_555
C45 C46 1_555 1_555
C52 C53 1_555 1_555
C56 C57 1_555 1_555
C61 C62 1_555 1_555
C67 C68 1_555 1_555
C74 C75 1_555 1_555
C78 C79 1_555 1_555

#END
