
#######################################################################
#
#                 Cambridge Crystallographic Data Centre
#                                CCDC 
#
#######################################################################
#
# If this CIF has been generated from an entry in the Cambridge 
# Structural Database, then it will include bibliographic, chemical, 
# crystal, experimental, refinement or atomic coordinate data resulting 
# from the CCDC's data processing and validation procedures.
#
#######################################################################

data_ATOJEY01
_chemical_formula_moiety         'C10 H12 N4 O2'
_chemical_name_systematic        
N'-(2-(hydroxyimino)-1-methylpropylidene)pyridine-2-carbohydrazide
_symmetry_cell_setting           monoclinic
_symmetry_space_group_name_H-M   'P 21/c'
_symmetry_Int_Tables_number      14
_space_group_name_Hall           '-P 2ybc'
loop_
_symmetry_equiv_pos_site_id
_symmetry_equiv_pos_as_xyz
1 x,y,z
2 -x,1/2+y,1/2-z
3 -x,-y,-z
4 x,1/2-y,1/2+z
_cell_length_a                   5.706(4)
_cell_length_b                   25.812(4)
_cell_length_c                   7.337(3)
_cell_angle_alpha                90
_cell_angle_beta                 100.19(4)
_cell_angle_gamma                90
_cell_volume                     1063.57
_exptl_crystal_colour            white
_exptl_crystal_description       rectangular
_cell_formula_units_Z            4
_exptl_crystal_recrystallization_method acetonitrile
loop_
_atom_site_label
_atom_site_type_symbol
_atom_site_fract_x
_atom_site_fract_y
_atom_site_fract_z
O1 O 0.2124(4) 0.10462(8) 0.6802(4)
O2 O 0.8757(4) 0.33140(8) 1.0041(4)
N1 N 0.6919(4) 0.01906(9) 0.8323(4)
N2 N 0.5906(4) 0.11884(9) 0.8331(4)
N3 N 0.5647(4) 0.17224(9) 0.8418(3)
N4 N 0.9107(4) 0.27741(9) 1.0103(4)
C1 C 0.7456(6) -0.0313(1) 0.8316(5)
C2 C 0.5868(7) -0.0689(1) 0.7539(6)
C3 C 0.3608(7) -0.0542(1) 0.6742(5)
C4 C 0.3022(6) -0.0027(1) 0.6738(5)
C5 C 0.4705(5) 0.0325(1) 0.7517(5)
C6 C 0.4117(6) 0.0892(1) 0.7508(5)
C7 C 0.7481(5) 0.1970(1) 0.9298(4)
C8 C 0.7208(5) 0.2532(1) 0.9338(4)
C9 C 0.9769(7) 0.1727(1) 1.0184(6)
C10 C 0.4889(7) 0.2790(1) 0.8526(6)
H1 H 0.743(4) 0.0995(9) 0.884(3)
H2 H 0.996(6) 0.342(1) 1.063(5)
H3 H 0.895(5) -0.047(1) 0.894(4)
H4 H 0.623(5) -0.106(1) 0.755(4)
H5 H 0.262(5) -0.081(1) 0.617(4)
H6 H 0.150(5) 0.010(1) 0.613(4)
H7 H 0.965(6) 0.158(1) 1.127(5)
H8 H 1.025(6) 0.152(1) 0.949(5)
H9 H 1.077(5) 0.202(1) 1.091(4)
H10 H 0.468(6) 0.303(1) 0.947(4)
H11 H 0.516(5) 0.313(1) 0.784(4)
H12 H 0.411(6) 0.258(1) 0.770(5)
loop_
_geom_bond_atom_site_label_1
_geom_bond_atom_site_label_2
_geom_bond_site_symmetry_1
_geom_bond_site_symmetry_2
O1 C6 1_555 1_555
O2 N4 1_555 1_555
N1 C1 1_555 1_555
N2 N3 1_555 1_555
N3 C7 1_555 1_555
N4 C8 1_555 1_555
C1 C2 1_555 1_555
C2 C3 1_555 1_555
C3 C4 1_555 1_555
C4 C5 1_555 1_555
C5 N1 1_555 1_555
C6 N2 1_555 1_555
C7 C8 1_555 1_555
C8 C10 1_555 1_555
C9 C7 1_555 1_555
C10 H10 1_555 1_555
H1 N2 1_555 1_555
H2 O2 1_555 1_555
H3 C1 1_555 1_555
H4 C2 1_555 1_555
H5 C3 1_555 1_555
H6 C4 1_555 1_555
H7 C9 1_555 1_555
H8 C9 1_555 1_555
H9 C9 1_555 1_555
H11 C10 1_555 1_555
H12 C10 1_555 1_555
C5 C6 1_555 1_555

#END
