
#######################################################################
#
#                 Cambridge Crystallographic Data Centre
#                                CCDC 
#
#######################################################################
#
# If this CIF has been generated from an entry in the Cambridge 
# Structural Database, then it will include bibliographic, chemical, 
# crystal, experimental, refinement or atomic coordinate data resulting 
# from the CCDC's data processing and validation procedures.
#
#######################################################################

data_ATOJEA
_chemical_formula_moiety         'C15 H16 N8 O1'
_chemical_name_systematic        
(4-methylphenyl)(4-([1,2,4]triazolo[4,3-b][1,2,4,5]tetrazin-6-yl)piperazin-1-yl)methanone
_chemical_properties_biological  'antiproliferative activity against Bewo'
_symmetry_cell_setting           orthorhombic
_symmetry_space_group_name_H-M   'P c a 21'
_symmetry_Int_Tables_number      29
_space_group_name_Hall           'P 2c -2ac'
loop_
_symmetry_equiv_pos_site_id
_symmetry_equiv_pos_as_xyz
1 x,y,z
2 -x,-y,1/2+z
3 1/2+x,-y,z
4 1/2-x,y,1/2+z
_cell_length_a                   17.571(4)
_cell_length_b                   6.4395(14)
_cell_length_c                   13.152(3)
_cell_angle_alpha                90
_cell_angle_beta                 90
_cell_angle_gamma                90
_cell_volume                     1488.13
_exptl_crystal_colour            red
_exptl_crystal_description       Prism
_cell_formula_units_Z            4
loop_
_atom_site_label
_atom_site_type_symbol
_atom_site_fract_x
_atom_site_fract_y
_atom_site_fract_z
O1 O 0.55542(8) 0.5465(2) 0.46677(12)
N1 N 0.24007(9) 0.3012(2) 0.00944(13)
N2 N 0.27535(8) 0.3679(2) 0.08854(12)
N3 N 0.34881(8) 0.0475(2) 0.10982(12)
N4 N 0.31272(7) -0.0091(2) 0.02221(11)
N5 N 0.27040(9) -0.1741(2) -0.11180(13)
N6 N 0.23291(9) 0.0128(2) -0.10803(14)
N7 N 0.36821(8) 0.3331(2) 0.21323(12)
N8 N 0.46035(8) 0.5538(2) 0.35014(13)
C1 C 0.33094(9) 0.2403(3) 0.13560(14)
C2 C 0.31758(10) -0.1854(3) -0.03302(15)
H1 H 0.3498 -0.2998 -0.0179
C3 C 0.25961(9) 0.1102(3) -0.02648(14)
C4 C 0.43099(9) 0.2261(3) 0.26396(15)
H2 H 0.4521 0.1177 0.2186
H3 H 0.4124 0.1581 0.3267
C5 C 0.49247(10) 0.3835(3) 0.29018(16)
H4 H 0.5334 0.3145 0.3294
H5 H 0.5150 0.4393 0.2268
C6 C 0.39724(9) 0.6593(3) 0.29955(14)
H6 H 0.4159 0.7282 0.2371
H7 H 0.3761 0.7673 0.3451
C7 C 0.33528(9) 0.5048(3) 0.27223(15)
H8 H 0.3116 0.4499 0.3350
H9 H 0.2953 0.5747 0.2317
C8 C 0.49412(9) 0.6183(3) 0.43662(14)
C9 C 0.45395(9) 0.7786(3) 0.50014(14)
C10 C 0.39094(10) 0.7240(3) 0.55851(15)
H10 H 0.3674 0.5926 0.5490
C11 C 0.36230(10) 0.8617(3) 0.63082(15)
H11 H 0.3201 0.8215 0.6715
C12 C 0.39483(9) 1.0585(3) 0.64447(14)
C13 C 0.45479(10) 1.1157(3) 0.58092(14)
H12 H 0.4754 1.2518 0.5857
C14 C 0.48495(9) 0.9772(3) 0.51065(15)
H13 H 0.5269 1.0177 0.4696
C15 C 0.36735(11) 1.2021(3) 0.72699(16)
H14 H 0.4014 1.1924 0.7858
H15 H 0.3157 1.1623 0.7474
H16 H 0.3670 1.3451 0.7015
loop_
_geom_bond_atom_site_label_1
_geom_bond_atom_site_label_2
_geom_bond_site_symmetry_1
_geom_bond_site_symmetry_2
O1 C8 1_555 1_555
N1 N2 1_555 1_555
N2 C1 1_555 1_555
N3 N4 1_555 1_555
N4 C2 1_555 1_555
N5 N6 1_555 1_555
N6 C3 1_555 1_555
N7 C1 1_555 1_555
N8 C5 1_555 1_555
C1 N3 1_555 1_555
C2 N5 1_555 1_555
H1 C2 1_555 1_555
C3 N1 1_555 1_555
C4 N7 1_555 1_555
H2 C4 1_555 1_555
H3 C4 1_555 1_555
C5 C4 1_555 1_555
H4 C5 1_555 1_555
H5 C5 1_555 1_555
C6 N8 1_555 1_555
H6 C6 1_555 1_555
H7 C6 1_555 1_555
C7 N7 1_555 1_555
H8 C7 1_555 1_555
H9 C7 1_555 1_555
C8 N8 1_555 1_555
C9 C8 1_555 1_555
C10 C9 1_555 1_555
H10 C10 1_555 1_555
C11 C10 1_555 1_555
H11 C11 1_555 1_555
C12 C11 1_555 1_555
C13 C12 1_555 1_555
H12 C13 1_555 1_555
C14 C9 1_555 1_555
H13 C14 1_555 1_555
C15 C12 1_555 1_555
H14 C15 1_555 1_555
H15 C15 1_555 1_555
H16 C15 1_555 1_555
N4 C3 1_555 1_555
C6 C7 1_555 1_555
C13 C14 1_555 1_555

#END
