
#######################################################################
#
#                 Cambridge Crystallographic Data Centre
#                                CCDC 
#
#######################################################################
#
# If this CIF has been generated from an entry in the Cambridge 
# Structural Database, then it will include bibliographic, chemical, 
# crystal, experimental, refinement or atomic coordinate data resulting 
# from the CCDC's data processing and validation procedures.
#
#######################################################################

data_ATOJAV
_chemical_name_common            
'[3]-cyclo[2](2,6-bis(1H-imidazol-1-yl)pyridine)(2)-bis(1,4-dimethylenebenzene) bis(terephthalate)-pseudorotaxane hexadecahydrate'
_chemical_formula_moiety         'C38 H34 N10 4+,2(C8 H4 O4 2-),16(H2 O1)'
_chemical_name_systematic        
'[3]-6,12,25,31,42,47-Hexa-aza-3,15,22,34-tetraazonianonacyclo-[34.2.2.2^17,20^.1^3,6^.1^7,11^.1^12,15^.1^22,25^.1^26,30^.1^31,34^]-octatetraconta-1(38),3(48),4,7(47),8,10,13,15(46),17,19,22(43),23,26(42),27-,29,32,34(41),36,39,44-icosaene bis(terephthalate)-pseudorotaxane hexadecahydrate'
_symmetry_cell_setting           triclinic
_symmetry_space_group_name_H-M   'P -1'
_symmetry_Int_Tables_number      2
_space_group_name_Hall           '-P 1'
loop_
_symmetry_equiv_pos_site_id
_symmetry_equiv_pos_as_xyz
1 x,y,z
2 -x,-y,-z
_cell_length_a                   10.421(2)
_cell_length_b                   11.556(2)
_cell_length_c                   14.011(3)
_cell_angle_alpha                98.76(3)
_cell_angle_beta                 109.73(3)
_cell_angle_gamma                101.49(3)
_cell_volume                     1511.67
_exptl_crystal_colour            colorless
_exptl_crystal_description       plate
_cell_formula_units_Z            1
loop_
_atom_site_label
_atom_site_type_symbol
_atom_site_fract_x
_atom_site_fract_y
_atom_site_fract_z
N1 N 1.1532(5) 0.7888(4) 0.8159(4)
N2 N 0.9865(4) 0.6187(4) 0.7541(3)
N3 N 1.0068(4) 0.4222(4) 0.7220(3)
N4 N 1.0482(5) 0.2347(4) 0.6865(4)
N5 N 1.2516(5) 0.1978(4) 0.7058(4)
C1 C 1.2959(7) 0.8779(5) 0.8641(5)
H1 H 1.2853 0.9599 0.8719
H2 H 1.3473 0.8680 0.8185
C2 C 1.1287(6) 0.6683(5) 0.7963(4)
H3 H 1.1972 0.6256 0.8093
C3 C 1.0254(8) 0.8176(6) 0.7867(6)
H4 H 1.0135 0.8957 0.7931
C4 C 0.9204(7) 0.7128(6) 0.7473(5)
H5 H 0.8235 0.7050 0.7210
C5 C 0.9183(5) 0.4903(5) 0.7206(4)
C6 C 0.7723(6) 0.4479(6) 0.6872(5)
H6 H 0.7147 0.4997 0.6876
C7 C 0.7183(6) 0.3222(7) 0.6532(5)
H7 H 0.6211 0.2885 0.6301
C8 C 0.8045(6) 0.2469(6) 0.6527(5)
H8 H 0.7687 0.1628 0.6300
C9 C 0.9482(5) 0.3032(5) 0.6881(4)
C10 C 1.1879(6) 0.2837(5) 0.7221(5)
H9 H 1.2337 0.3654 0.7536
C11 C 1.0223(7) 0.1117(5) 0.6438(5)
H10 H 0.9339 0.0553 0.6128
C12 C 1.1475(7) 0.0885(5) 0.6551(5)
H11 H 1.1617 0.0136 0.6333
C13 C 1.4053(6) 0.2170(5) 0.7367(5)
H12 H 1.4485 0.3017 0.7428
H13 H 1.4233 0.1682 0.6824
C14 C 1.4739(6) 0.1845(5) 0.8391(5)
C15 C 1.5801(6) 0.1251(5) 0.8491(5)
H14 H 1.6018 0.0997 0.7915
C16 C 1.6533(6) 0.1038(5) 0.9444(5)
H15 H 1.7247 0.0648 0.9508
C17 C 1.6207(6) 0.1402(5) 1.0303(5)
C18 C 1.5119(7) 0.1937(5) 1.0196(5)
H16 H 1.4874 0.2152 1.0765
C19 C 1.4377(7) 0.2161(5) 0.9238(5)
H17 H 1.3640 0.2523 0.9170
N1A N 1.8468(5) 0.2112(4) 1.1841(4)
N2A N 2.0135(4) 0.3813(4) 1.2459(3)
N3A N 1.9932(4) 0.5778(4) 1.2780(3)
N4A N 1.9518(5) 0.7653(4) 1.3135(4)
N5A N 1.7484(5) 0.8022(4) 1.2942(4)
C1A C 1.7041(7) 0.1221(5) 1.1359(5)
H1A H 1.7147 0.0401 1.1281
H2A H 1.6527 0.1320 1.1815
C2A C 1.8713(6) 0.3317(5) 1.2037(4)
H3A H 1.8028 0.3744 1.1907
C3A C 1.9746(8) 0.1824(6) 1.2133(6)
H4A H 1.9865 0.1043 1.2069
C4A C 2.0796(7) 0.2872(6) 1.2527(5)
H5A H 2.1765 0.2950 1.2790
C5A C 2.0817(5) 0.5097(5) 1.2794(4)
C6A C 2.2277(6) 0.5521(6) 1.3128(5)
H6A H 2.2853 0.5003 1.3124
C7A C 2.2817(6) 0.6778(7) 1.3468(5)
H7A H 2.3789 0.7115 1.3699
C8A C 2.1955(6) 0.7531(6) 1.3473(5)
H8A H 2.2313 0.8372 1.3700
C9A C 2.0518(5) 0.6968(5) 1.3119(4)
C10A C 1.8121(6) 0.7163(5) 1.2779(5)
H9A H 1.7663 0.6346 1.2464
C11A C 1.9777(7) 0.8883(5) 1.3562(5)
H10A H 2.0661 0.9447 1.3872
C12A C 1.8525(7) 0.9115(5) 1.3449(5)
H11A H 1.8383 0.9864 1.3667
C13A C 1.5947(6) 0.7830(5) 1.2633(5)
H12A H 1.5515 0.6983 1.2572
H13A H 1.5767 0.8318 1.3176
C14A C 1.5261(6) 0.8155(5) 1.1609(5)
C15A C 1.4199(6) 0.8749(5) 1.1509(5)
H14A H 1.3982 0.9003 1.2085
C16A C 1.3467(6) 0.8962(5) 1.0556(5)
H15A H 1.2753 0.9352 1.0492
C17A C 1.3793(6) 0.8598(5) 0.9697(5)
C18A C 1.4881(7) 0.8063(5) 0.9804(5)
H16A H 1.5126 0.7848 0.9235
C19A C 1.5623(7) 0.7839(5) 1.0762(5)
H17A H 1.6360 0.7477 1.0830
C20 C 1.2470(6) 0.4065(5) 1.0688(5)
C21 C 1.1193(6) 0.4540(5) 1.0309(4)
C22 C 0.9821(6) 0.3767(5) 0.9924(5)
H18 H 0.9690 0.2935 0.9862
C23 C 0.8655(6) 0.4231(5) 0.9634(5)
H19 H 0.7751 0.3706 0.9396
O1 O 1.3678(4) 0.4805(4) 1.0992(5)
O6 O 1.2294(4) 0.2954(4) 1.0683(4)
C20A C 0.7530(6) 0.5935(5) 0.9312(5)
C21A C 0.8807(6) 0.5460(5) 0.9691(4)
C22A C 1.0179(6) 0.6233(5) 1.0076(5)
H18A H 1.0310 0.7065 1.0138
C23A C 1.1345(6) 0.5769(5) 1.0366(5)
H19A H 1.2249 0.6294 1.0604
O1A O 0.6322(4) 0.5195(4) 0.9008(5)
O6A O 0.7706(4) 0.7046(4) 0.9317(4)
C24 C 0.7492(8) 0.2840(9) 0.4003(6)
C25 C 0.8844(7) 0.3950(9) 0.4529(6)
C26 C 0.8634(10) 0.5105(9) 0.4709(6)
H20 H 0.7715 0.5183 0.4502
C27 C 0.9868(10) 0.6238(12) 0.5235(7)
H21 H 0.9739 0.7008 0.5382
O9 O 0.7534(7) 0.1665(7) 0.3948(5)
O12 O 0.6366(5) 0.3125(4) 0.3643(4)
C24A C 1.2508(8) 0.7160(9) 0.5997(6)
C25A C 1.1156(7) 0.6050(9) 0.5471(6)
C26A C 1.1366(10) 0.4895(9) 0.5291(6)
H20A H 1.2285 0.4817 0.5498
C27A C 1.0132(10) 0.3762(12) 0.4765(7)
H21A H 1.0261 0.2992 0.4618
O9A O 1.2466(7) 0.8335(7) 0.6052(5)
O12A O 1.3634(5) 0.6875(4) 0.6357(4)
O2 O 0.4080(19) 0.3473(16) 0.4702(17)
O7 O 0.696(2) -0.0802(15) 0.5475(19)
O10 O 0.4453(10) -0.0169(9) 0.5832(9)
O13 O 1.620(2) 0.459(2) 1.195(2)
O15 O 1.0546(10) 0.0695(7) 0.9406(8)
O17 O 0.8084(5) 0.0010(4) 0.7628(4)
O18 O 1.3672(5) 0.1875(5) 1.2179(4)
O3? O 0.405(3) 0.328(3) 0.467(3)
O4? O 0.582(3) 0.4684(19) 0.4150(16)
O5? O 0.5406(9) 0.5056(7) 0.3191(8)
O8? O 0.733(3) -0.1223(19) 0.552(2)
O11? O 0.404(9) 0.034(7) 0.528(7)
O14? O 1.6377(5) 0.4793(4) 1.1122(4)
O16? O 1.070(10) 0.107(7) 0.970(7)
loop_
_geom_bond_atom_site_label_1
_geom_bond_atom_site_label_2
_geom_bond_site_symmetry_1
_geom_bond_site_symmetry_2
N1 C1 1_555 1_555
N2 C2 1_555 1_555
N3 C5 1_555 1_555
N4 C9 1_555 1_555
N5 C10 1_555 1_555
C1 H1 1_555 1_555
H2 C1 1_555 1_555
C2 N1 1_555 1_555
H3 C2 1_555 1_555
C3 N1 1_555 1_555
H4 C3 1_555 1_555
C4 N2 1_555 1_555
H5 C4 1_555 1_555
C5 N2 1_555 1_555
C6 C5 1_555 1_555
H6 C6 1_555 1_555
C7 C6 1_555 1_555
H7 C7 1_555 1_555
C8 C7 1_555 1_555
H8 C8 1_555 1_555
C9 N3 1_555 1_555
C10 N4 1_555 1_555
H9 C10 1_555 1_555
C11 N4 1_555 1_555
H10 C11 1_555 1_555
C12 N5 1_555 1_555
H11 C12 1_555 1_555
C13 N5 1_555 1_555
H12 C13 1_555 1_555
H13 C13 1_555 1_555
C14 C13 1_555 1_555
C15 C14 1_555 1_555
H14 C15 1_555 1_555
C16 C15 1_555 1_555
H15 C16 1_555 1_555
C17 C16 1_555 1_555
C18 C17 1_555 1_555
H16 C18 1_555 1_555
C19 C14 1_555 1_555
H17 C19 1_555 1_555
C20 C21 1_555 1_555
C21 C22 1_555 1_555
C22 H18 1_555 1_555
C23 C22 1_555 1_555
H19 C23 1_555 1_555
C24 C25 1_555 1_555
C25 C26 1_555 1_555
C26 H20 1_555 1_555
C27 C26 1_555 1_555
H21 C27 1_555 1_555
O1 C20 1_555 1_555
O6 C20 1_555 1_555
O9 C24 1_555 1_555
O12 C24 1_555 1_555
N1A C1A 1_555 1_555
N2A C2A 1_555 1_555
N3A C5A 1_555 1_555
N4A C9A 1_555 1_555
N5A C10A 1_555 1_555
C1A C17 1_555 1_555
H1A C1A 1_555 1_555
H2A C1A 1_555 1_555
C2A N1A 1_555 1_555
H3A C2A 1_555 1_555
C3A N1A 1_555 1_555
H4A C3A 1_555 1_555
C4A N2A 1_555 1_555
H5A C4A 1_555 1_555
C5A N2A 1_555 1_555
C6A C5A 1_555 1_555
H6A C6A 1_555 1_555
C7A C6A 1_555 1_555
H7A C7A 1_555 1_555
C8A C7A 1_555 1_555
H8A C8A 1_555 1_555
C9A N3A 1_555 1_555
C10A N4A 1_555 1_555
H9A C10A 1_555 1_555
C11A N4A 1_555 1_555
H10A C11A 1_555 1_555
C12A N5A 1_555 1_555
H11A C12A 1_555 1_555
C13A N5A 1_555 1_555
H12A C13A 1_555 1_555
H13A C13A 1_555 1_555
C14A C13A 1_555 1_555
C15A C14A 1_555 1_555
H14A C15A 1_555 1_555
C16A C15A 1_555 1_555
H15A C16A 1_555 1_555
C17A C1 1_555 1_555
C18A C17A 1_555 1_555
H16A C18A 1_555 1_555
C19A C14A 1_555 1_555
H17A C19A 1_555 1_555
C20A C21A 1_555 1_555
C21A C23 1_555 1_555
C22A C21A 1_555 1_555
H18A C22A 1_555 1_555
C23A C21 1_555 1_555
H19A C23A 1_555 1_555
C24A C25A 1_555 1_555
C25A C27 1_555 1_555
C26A C25A 1_555 1_555
H20A C26A 1_555 1_555
C27A C25 1_555 1_555
H21A C27A 1_555 1_555
O1A C20A 1_555 1_555
O6A C20A 1_555 1_555
O9A C24A 1_555 1_555
O12A C24A 1_555 1_555
C3 C4 1_555 1_555
C8 C9 1_555 1_555
C11 C12 1_555 1_555
C18 C19 1_555 1_555
C3A C4A 1_555 1_555
C8A C9A 1_555 1_555
C11A C12A 1_555 1_555
C16A C17A 1_555 1_555
C18A C19A 1_555 1_555
C22A C23A 1_555 1_555
C26A C27A 1_555 1_555

#END
