
#######################################################################
#
#                 Cambridge Crystallographic Data Centre
#                                CCDC 
#
#######################################################################
#
# If this CIF has been generated from an entry in the Cambridge 
# Structural Database, then it will include bibliographic, chemical, 
# crystal, experimental, refinement or atomic coordinate data resulting 
# from the CCDC's data processing and validation procedures.
#
#######################################################################

data_ATOLOK
_chemical_formula_moiety         'C9 H11 O3 P1 S2'
_chemical_name_systematic        2-Dimethoxyphosphinyl-1,3-benzodithiole
_symmetry_cell_setting           monoclinic
_symmetry_space_group_name_H-M   'P 21/n'
_symmetry_Int_Tables_number      14
_space_group_name_Hall           '-P 2yn'
loop_
_symmetry_equiv_pos_site_id
_symmetry_equiv_pos_as_xyz
1 x,y,z
2 1/2-x,1/2+y,1/2-z
3 -x,-y,-z
4 1/2+x,1/2-y,1/2+z
_cell_length_a                   9.791(3)
_cell_length_b                   10.943(2)
_cell_length_c                   11.619(3)
_cell_angle_alpha                90
_cell_angle_beta                 108.970(2)
_cell_angle_gamma                90
_cell_volume                     1177.28
_exptl_crystal_colour            colorless
_exptl_crystal_description       prism
_cell_formula_units_Z            4
_exptl_crystal_recrystallization_method ethanol
loop_
_atom_site_label
_atom_site_type_symbol
_atom_site_fract_x
_atom_site_fract_y
_atom_site_fract_z
S1 S 0.09582(7) 0.95351(6) 0.90399(6)
S2 S -0.01102(8) 0.93930(7) 0.63803(6)
P1 P 0.29138(8) 0.85965(6) 0.77212(7)
O1 O 0.2540(2) 0.73120(16) 0.7751(2)
O2 O 0.3361(2) 0.88764(19) 0.6565(2)
O3 O 0.4154(2) 0.90916(18) 0.88507(19)
C1 C 0.1482(3) 0.9662(2) 0.7684(2)
H1 H 0.1826 1.0495 0.7635
C2 C -0.0385(3) 0.8432(2) 0.8413(2)
C3 C -0.0891(3) 0.8361(2) 0.7150(2)
C4 C -0.1975(3) 0.7552(3) 0.6565(3)
H2 H -0.2320 0.7504 0.5693
C5 C -0.2563(3) 0.6817(3) 0.7254(3)
H3 H -0.3317 0.6249 0.6859
C6 C -0.2062(3) 0.6884(3) 0.8505(3)
H4 H -0.2482 0.6372 0.8972
C7 C -0.0967(3) 0.7684(2) 0.9096(2)
H5 H -0.0615 0.7725 0.9969
C8 C 0.4139(5) 0.9950(3) 0.6445(4)
H6 H 0.4305 0.9942 0.5675
H7 H 0.3581 1.0658 0.6493
H8 H 0.5048 0.9975 0.7090
C9 C 0.5377(4) 0.8401(4) 0.9503(4)
H9 H 0.5995 0.8881 1.0158
H10 H 0.5078 0.7680 0.9826
H11 H 0.5894 0.8170 0.8961
loop_
_geom_bond_atom_site_label_1
_geom_bond_atom_site_label_2
_geom_bond_site_symmetry_1
_geom_bond_site_symmetry_2
S1 C1 1_555 1_555
S2 C1 1_555 1_555
P1 O1 1_555 1_555
O2 P1 1_555 1_555
O3 P1 1_555 1_555
C1 P1 1_555 1_555
H1 C1 1_555 1_555
C2 S1 1_555 1_555
C3 S2 1_555 1_555
C4 C3 1_555 1_555
H2 C4 1_555 1_555
C5 C4 1_555 1_555
H3 C5 1_555 1_555
C6 C5 1_555 1_555
H4 C6 1_555 1_555
C7 C2 1_555 1_555
H5 C7 1_555 1_555
C8 O2 1_555 1_555
H6 C8 1_555 1_555
H7 C8 1_555 1_555
H8 C8 1_555 1_555
C9 O3 1_555 1_555
H9 C9 1_555 1_555
H10 C9 1_555 1_555
H11 C9 1_555 1_555
C2 C3 1_555 1_555
C6 C7 1_555 1_555

#END
