
#######################################################################
#
#                 Cambridge Crystallographic Data Centre
#                                CCDC 
#
#######################################################################
#
# If this CIF has been generated from an entry in the Cambridge 
# Structural Database, then it will include bibliographic, chemical, 
# crystal, experimental, refinement or atomic coordinate data resulting 
# from the CCDC's data processing and validation procedures.
#
#######################################################################

data_ATOLOM
_chemical_formula_moiety         'C22 H19 B1 F2 N2 O1 S2'
_chemical_name_systematic        
1,2-bis(2,5-dimethyl-3-thienyl)-5,5-difluoro-3H,5H-pyrido[1,2-c]pyrrolo[2,1-f][1,3,2]diazaborinin-3-one
_symmetry_cell_setting           monoclinic
_symmetry_space_group_name_H-M   'P 21/c'
_symmetry_Int_Tables_number      14
_space_group_name_Hall           '-P 2ybc'
loop_
_symmetry_equiv_pos_site_id
_symmetry_equiv_pos_as_xyz
1 x,y,z
2 -x,1/2+y,1/2-z
3 -x,-y,-z
4 x,1/2-y,1/2+z
_cell_length_a                   19.384(4)
_cell_length_b                   7.8105(14)
_cell_length_c                   14.479(3)
_cell_angle_alpha                90
_cell_angle_beta                 107.492(7)
_cell_angle_gamma                90
_cell_volume                     2090.74
_exptl_crystal_colour            colorless
_exptl_crystal_description       Prism
_cell_formula_units_Z            4
loop_
_atom_site_label
_atom_site_type_symbol
_atom_site_fract_x
_atom_site_fract_y
_atom_site_fract_z
S1 S 0.42924(5) -0.32486(12) 0.59511(7)
S2 S 0.35167(5) 0.15738(12) 0.84797(6)
F1 F 0.03106(11) 0.0053(3) 0.29634(15)
F2 F 0.08850(11) 0.2561(3) 0.30837(16)
N1 N 0.13359(12) 0.0543(3) 0.43656(15)
N2 N 0.01558(11) 0.2075(3) 0.41224(16)
O1 O 0.19267(13) -0.0952(4) 0.34518(15)
B1 B 0.06888(18) 0.1266(5) 0.3585(2)
C1 C 0.4756(2) -0.2246(6) 0.4368(3)
H1 H 0.4614 -0.1543 0.3798
H2 H 0.4802 -0.3413 0.4186
H3 H 0.5212 -0.1853 0.4788
C2 C 0.3229(2) -0.3116(5) 0.6880(3)
H4 H 0.2779 -0.2568 0.6850
H5 H 0.3582 -0.2853 0.7487
H6 H 0.3158 -0.4332 0.6823
C3 C 0.38414(18) 0.1821(5) 0.6739(3)
H7 H 0.3641 0.1623 0.6056
H8 H 0.4267 0.1132 0.6988
H9 H 0.3966 0.3008 0.6851
C4 C 0.2512(2) 0.0674(5) 0.9450(2)
H10 H 0.2032 0.0225 0.9322
H11 H 0.2538 0.1785 0.9741
H12 H 0.2850 -0.0080 0.9882
C5 C -0.08417(17) 0.3498(5) 0.4892(3)
H13 H -0.1182 0.3970 0.5154
C6 C -0.10120(17) 0.3276(5) 0.3903(3)
H14 H -0.1460 0.3611 0.3492
C7 C -0.01717(16) 0.3026(4) 0.5494(2)
H15 H -0.0059 0.3178 0.6160
C8 C 0.41921(17) -0.2135(5) 0.4888(2)
C9 C 0.19098(16) -0.0370(4) 0.4229(2)
C10 C 0.15069(14) 0.0987(3) 0.53381(18)
C11 C 0.10445(14) 0.1848(4) 0.56948(19)
H16 H 0.1188 0.2147 0.6347
C12 C 0.32971(16) 0.1352(4) 0.7239(2)
C13 C 0.26958(17) 0.0818(4) 0.8519(2)
C14 C 0.22735(16) 0.0431(4) 0.7615(2)
H17 H 0.1804 0.0016 0.7486
C15 C -0.05031(15) 0.2549(4) 0.3545(2)
H18 H -0.0615 0.2375 0.2880
C16 C 0.31622(15) -0.1416(4) 0.5310(2)
C17 C 0.35692(16) -0.1249(4) 0.4640(2)
H19 H 0.3417 -0.0586 0.4082
C18 C 0.34898(16) -0.2479(4) 0.6064(2)
C19 C 0.03328(14) 0.2324(4) 0.5098(2)
C20 C 0.22440(14) 0.0354(4) 0.58421(19)
C21 C 0.26104(14) 0.0713(4) 0.68736(19)
C22 C 0.24811(14) -0.0497(4) 0.51896(19)
loop_
_geom_bond_atom_site_label_1
_geom_bond_atom_site_label_2
_geom_bond_site_symmetry_1
_geom_bond_site_symmetry_2
S1 C8 1_555 1_555
S2 C12 1_555 1_555
F1 B1 1_555 1_555
F2 B1 1_555 1_555
N1 B1 1_555 1_555
N2 B1 1_555 1_555
O1 C9 1_555 1_555
C1 H1 1_555 1_555
H2 C1 1_555 1_555
H3 C1 1_555 1_555
C2 H4 1_555 1_555
H5 C2 1_555 1_555
H6 C2 1_555 1_555
C3 H7 1_555 1_555
H8 C3 1_555 1_555
H9 C3 1_555 1_555
C4 H10 1_555 1_555
H11 C4 1_555 1_555
H12 C4 1_555 1_555
C5 H13 1_555 1_555
C6 C5 1_555 1_555
H14 C6 1_555 1_555
C7 C5 1_555 1_555
H15 C7 1_555 1_555
C8 C1 1_555 1_555
C9 N1 1_555 1_555
C10 N1 1_555 1_555
C11 C10 1_555 1_555
H16 C11 1_555 1_555
C12 C3 1_555 1_555
C13 S2 1_555 1_555
C14 C13 1_555 1_555
H17 C14 1_555 1_555
C15 N2 1_555 1_555
H18 C15 1_555 1_555
C16 C17 1_555 1_555
C17 C8 1_555 1_555
H19 C17 1_555 1_555
C18 S1 1_555 1_555
C19 N2 1_555 1_555
C20 C10 1_555 1_555
C21 C12 1_555 1_555
C22 C9 1_555 1_555
C2 C18 1_555 1_555
C4 C13 1_555 1_555
C6 C15 1_555 1_555
C7 C19 1_555 1_555
C11 C19 1_555 1_555
C14 C21 1_555 1_555
C16 C18 1_555 1_555
C16 C22 1_555 1_555
C20 C21 1_555 1_555
C20 C22 1_555 1_555

#END
