
#######################################################################
#
#                 Cambridge Crystallographic Data Centre
#                                CCDC 
#
#######################################################################
#
# If this CIF has been generated from an entry in the Cambridge 
# Structural Database, then it will include bibliographic, chemical, 
# crystal, experimental, refinement or atomic coordinate data resulting 
# from the CCDC's data processing and validation procedures.
#
#######################################################################

data_ATONIH
_chemical_formula_moiety         'C11 H12 N2 O3'
_chemical_name_systematic        
9-Hydroxy-3-(2-hydroxyethyl)-2-methyl-4H-pyrido[1,2-a]pyrimidin-4-one
_symmetry_cell_setting           monoclinic
_symmetry_space_group_name_H-M   'P 21/n'
_symmetry_Int_Tables_number      14
_space_group_name_Hall           '-P 2yn'
loop_
_symmetry_equiv_pos_site_id
_symmetry_equiv_pos_as_xyz
1 x,y,z
2 1/2-x,1/2+y,1/2-z
3 -x,-y,-z
4 1/2+x,1/2-y,1/2+z
_cell_length_a                   11.1111(11)
_cell_length_b                   6.8032(7)
_cell_length_c                   13.3625(15)
_cell_angle_alpha                90
_cell_angle_beta                 96.0720(10)
_cell_angle_gamma                90
_cell_volume                     1004.42
_cell_formula_units_Z            4
loop_
_atom_site_label
_atom_site_type_symbol
_atom_site_fract_x
_atom_site_fract_y
_atom_site_fract_z
N1 N 0.4534(3) 0.2485(5) 0.4063(3)
N2 N 0.3894(3) 0.2798(5) 0.5710(3)
O1 O 0.3175(3) 0.2610(5) 0.2666(2)
O2 O 0.6122(3) 0.2572(6) 0.6540(2)
H1 H 0.6839 0.2459 0.6753
O3 O -0.0725(3) 0.1863(6) 0.3024(3)
H2 H -0.0634 0.2386 0.2484
C1 C 0.3310(4) 0.2700(6) 0.3602(3)
C2 C 0.2422(4) 0.3028(6) 0.4259(3)
C3 C 0.2740(4) 0.2998(6) 0.5288(3)
C4 C 0.4756(4) 0.2582(6) 0.5100(3)
C5 C 0.5998(4) 0.2412(6) 0.5536(3)
C6 C 0.6891(4) 0.2121(6) 0.4932(3)
H3 H 0.7688 0.1984 0.5213
C7 C 0.6609(4) 0.2027(7) 0.3877(3)
H4 H 0.7224 0.1846 0.3465
C8 C 0.5451(4) 0.2199(6) 0.3465(3)
H5 H 0.5273 0.2123 0.2770
C9 C 0.0426(4) 0.1519(8) 0.3568(3)
H6 H 0.0888 0.0644 0.3181
H7 H 0.0313 0.0867 0.4197
C10 C 0.1138(4) 0.3387(7) 0.3792(3)
H8 H 0.0722 0.4191 0.4246
H9 H 0.1164 0.4118 0.3171
C11 C 0.1837(5) 0.3170(8) 0.6034(4)
H10 H 0.2149 0.2548 0.6653
H11 H 0.1096 0.2541 0.5773
H12 H 0.1684 0.4534 0.6157
loop_
_geom_bond_atom_site_label_1
_geom_bond_atom_site_label_2
_geom_bond_site_symmetry_1
_geom_bond_site_symmetry_2
N1 C1 1_555 1_555
N2 C3 1_555 1_555
O1 C1 1_555 1_555
O2 H1 1_555 1_555
O3 H2 1_555 1_555
C1 C2 1_555 1_555
C2 C3 1_555 1_555
C3 C11 1_555 1_555
C4 N1 1_555 1_555
C5 O2 1_555 1_555
C6 C5 1_555 1_555
H3 C6 1_555 1_555
C7 C6 1_555 1_555
H4 C7 1_555 1_555
C8 N1 1_555 1_555
H5 C8 1_555 1_555
C9 O3 1_555 1_555
H6 C9 1_555 1_555
H7 C9 1_555 1_555
C10 C2 1_555 1_555
H8 C10 1_555 1_555
H9 C10 1_555 1_555
C11 H10 1_555 1_555
H11 C11 1_555 1_555
H12 C11 1_555 1_555
N2 C4 1_555 1_555
C4 C5 1_555 1_555
C7 C8 1_555 1_555
C9 C10 1_555 1_555

#END
