
#######################################################################
#
#                 Cambridge Crystallographic Data Centre
#                                CCDC 
#
#######################################################################
#
# If this CIF has been generated from an entry in the Cambridge 
# Structural Database, then it will include bibliographic, chemical, 
# crystal, experimental, refinement or atomic coordinate data resulting 
# from the CCDC's data processing and validation procedures.
#
#######################################################################

data_ATOYIR
_chemical_name_common            
"(E)-2,3-Dihydro-1,2'-bi-inden-1'(3'H)-one monohydrate"
_chemical_formula_moiety         'C18 H14 O1,H2 O1'
_chemical_name_systematic        "(E)-2-(1'-Indanylidene)indanone monohydrate"
_symmetry_cell_setting           orthorhombic
_symmetry_space_group_name_H-M   'P b c a'
_symmetry_Int_Tables_number      61
_space_group_name_Hall           '-P 2ac 2ab'
loop_
_symmetry_equiv_pos_site_id
_symmetry_equiv_pos_as_xyz
1 x,y,z
2 1/2-x,1/2+y,z
3 x,1/2-y,1/2+z
4 1/2+x,y,1/2-z
5 -x,-y,-z
6 1/2+x,1/2-y,-z
7 -x,1/2+y,1/2-z
8 1/2-x,-y,1/2+z
_cell_length_a                   5.1123(6)
_cell_length_b                   18.892(2)
_cell_length_c                   27.522(3)
_cell_angle_alpha                90
_cell_angle_beta                 90
_cell_angle_gamma                90
_cell_volume                     2658.12
_exptl_crystal_colour            yellow
_exptl_crystal_description       plate
_cell_formula_units_Z            8
loop_
_atom_site_label
_atom_site_type_symbol
_atom_site_fract_x
_atom_site_fract_y
_atom_site_fract_z
O1 O 0.5347(3) 0.08738(7) 0.04564(5)
C1 C 0.5954(4) 0.07362(10) 0.08779(7)
C2 C 0.4826(4) 0.01843(10) 0.11970(6)
C3 C 0.6129(4) 0.02229(11) 0.16932(7)
C4 C 0.8121(4) 0.08128(11) 0.16318(7)
C5 C 0.9901(5) 0.10732(11) 0.19642(8)
C6 C 1.1601(4) 0.16060(11) 0.18188(8)
C7 C 1.1539(5) 0.18764(11) 0.13458(7)
C8 C 0.9740(5) 0.16218(10) 0.10183(7)
C9 C 0.8035(4) 0.10889(10) 0.11634(7)
C10 C 0.2906(4) -0.02607(11) 0.10528(7)
C11 C 0.1741(4) -0.02595(10) 0.05430(6)
C12 C -0.0303(5) -0.08650(10) 0.05281(6)
C13 C -0.0317(5) -0.11439(10) 0.10402(7)
C14 C -0.1933(4) -0.16683(11) 0.12220(7)
C15 C -0.1652(5) -0.18625(11) 0.17070(7)
C16 C 0.0222(5) -0.15409(11) 0.19982(8)
C17 C 0.1848(4) -0.10138(11) 0.18182(7)
C18 C 0.1555(4) -0.08112(11) 0.13289(7)
H1 H 0.4891 0.0334 0.1939
H2 H 0.6961 -0.0214 0.1771
H3 H 0.9988 0.08825 0.22832(8)
H4 H 1.2826 0.17924 0.20446(8)
H5 H 1.2746 0.22318 0.12488(7)
H6 H 0.9599 0.18170 0.07013(7)
H7 H 0.0958 0.01850 0.04728(6)
H8 H 0.3084 -0.03527 0.03133(6)
H9 H -0.1974 -0.06807 0.04454(6)
H10 H 0.0169 -0.12234 0.03024(6)
H11 H -0.3209 -0.18879 0.10213(7)
H12 H -0.2739 -0.22189 0.18430(7)
H13 H 0.0411 -0.16887 0.23263(8)
H14 H 0.3100 -0.07896 0.20217(7)
O2 O 0.4900(5) -0.21840(10) 0.00347(8)
H15 H 0.332(6) -0.236(2) -0.0007(12)
H16 H 0.472(7) -0.169(1) -0.0120(11)
O3? O 0.593(2) -0.0036(5) 0.2101(2)
H17? H 0.6670 0.0528 0.0593
H18? H 0.4645 0.1069 0.0788
loop_
_geom_bond_atom_site_label_1
_geom_bond_atom_site_label_2
_geom_bond_site_symmetry_1
_geom_bond_site_symmetry_2
O1 C1 1_555 1_555
O2 H15 1_555 1_555
C1 C2 1_555 1_555
C2 C3 1_555 1_555
C3 C4 1_555 1_555
C4 C5 1_555 1_555
C5 C6 1_555 1_555
C6 C7 1_555 1_555
C7 C8 1_555 1_555
C8 C9 1_555 1_555
C9 C1 1_555 1_555
C10 C2 1_555 1_555
C11 C10 1_555 1_555
C12 C11 1_555 1_555
C13 C12 1_555 1_555
C14 C13 1_555 1_555
C15 C14 1_555 1_555
C16 C15 1_555 1_555
C17 C16 1_555 1_555
C18 C10 1_555 1_555
H1 C3 1_555 1_555
H2 C3 1_555 1_555
H3 C5 1_555 1_555
H4 C6 1_555 1_555
H5 C7 1_555 1_555
H6 C8 1_555 1_555
H7 C11 1_555 1_555
H8 C11 1_555 1_555
H9 C12 1_555 1_555
H10 C12 1_555 1_555
H11 C14 1_555 1_555
H12 C15 1_555 1_555
H13 C16 1_555 1_555
H14 C17 1_555 1_555
H16 O2 1_555 1_555
C4 C9 1_555 1_555
C13 C18 1_555 1_555
C17 C18 1_555 1_555

#END
