
#######################################################################
#
#                 Cambridge Crystallographic Data Centre
#                                CCDC 
#
#######################################################################
#
# If this CIF has been generated from an entry in the Cambridge 
# Structural Database, then it will include bibliographic, chemical, 
# crystal, experimental, refinement or atomic coordinate data resulting 
# from the CCDC's data processing and validation procedures.
#
#######################################################################

data_ATUHED
_chemical_formula_moiety         'C26 H26 N2 O4 S1'
_chemical_name_systematic        
'2,4,6-Trimethyl-N-((4-methyl-5-oxo-2-phenyl-4,5-dihydro-1,3-oxazol-4-yl)(phenyl)methyl)benzenesulfonamide unknown solvate'
_symmetry_cell_setting           orthorhombic
_symmetry_space_group_name_H-M   'P 21 21 21'
_symmetry_Int_Tables_number      19
_space_group_name_Hall           'P 2ac 2ab'
loop_
_symmetry_equiv_pos_site_id
_symmetry_equiv_pos_as_xyz
1 x,y,z
2 1/2-x,-y,1/2+z
3 1/2+x,1/2-y,-z
4 -x,1/2+y,1/2-z
_cell_length_a                   6.4038(2)
_cell_length_b                   19.3388(5)
_cell_length_c                   22.3333(5)
_cell_angle_alpha                90
_cell_angle_beta                 90
_cell_angle_gamma                90
_cell_volume                     2765.8
_exptl_crystal_colour            colorless
_exptl_crystal_description       needle
_cell_formula_units_Z            4
loop_
_atom_site_label
_atom_site_type_symbol
_atom_site_fract_x
_atom_site_fract_y
_atom_site_fract_z
C1 C 0.6484(6) 0.0594(2) 0.87758(18)
C2 C 0.8428(7) 0.1040(2) 0.87943(19)
C3 C 0.5799(7) 0.1626(2) 0.83927(16)
C4 C 0.6838(8) -0.0049(2) 0.8389(2)
H1 H 0.5518 -0.0299 0.8342
H2 H 0.7868 -0.0350 0.8582
H3 H 0.7356 0.0092 0.7994
C5 C 0.4860(8) 0.2241(2) 0.81166(18)
C6 C 0.6032(9) 0.2851(2) 0.8071(2)
H4 H 0.7419 0.2887 0.8218
C7 C 0.5000(12) 0.3408(3) 0.7788(2)
H5 H 0.5705 0.3839 0.7760
C8 C 0.3053(11) 0.3357(3) 0.7555(3)
H6 H 0.2452 0.3743 0.7356
C9 C 0.1961(9) 0.2763(3) 0.7604(3)
H7 H 0.0585 0.2733 0.7448
C10 C 0.2894(8) 0.2173(3) 0.7896(2)
H8 H 0.2155 0.1749 0.7932
C11 C 0.5797(7) 0.0378(2) 0.94230(19)
H9 H 0.6753 0.0004 0.9568
C12 C 0.5878(6) 0.0985(2) 0.98718(18)
C13 C 0.4230(7) 0.1458(2) 0.99249(18)
H10 H 0.3010 0.1408 0.9687
C14 C 0.4398(8) 0.1992(2) 1.0324(2)
H11 H 0.3309 0.2324 1.0352
C15 C 0.6175(9) 0.2054(3) 1.0695(2)
H12 H 0.6261 0.2411 1.0987
C16 C 0.7782(8) 0.1585(3) 1.0625(2)
H13 H 0.9007 0.1632 1.0861
C17 C 0.7646(7) 0.1050(2) 1.0217(2)
H14 H 0.8761 0.0729 1.0176
C18 C 0.4143(7) -0.1294(2) 0.9494(2)
C19 C 0.5863(7) -0.1601(2) 0.9782(2)
C20 C 0.6719(8) -0.2176(3) 0.9530(2)
H15 H 0.7898 -0.2380 0.9718
C21 C 0.5948(8) -0.2480(3) 0.9009(2)
C22 C 0.4230(8) -0.2171(2) 0.8734(2)
H16 H 0.3664 -0.2375 0.8383
C23 C 0.3307(8) -0.1563(2) 0.8963(2)
C24 C 0.6898(8) -0.1329(3) 1.0346(2)
H17 H 0.5998 -0.1422 1.0692
H18 H 0.7121 -0.0830 1.0308
H19 H 0.8245 -0.1561 1.0403
C25 C 0.6853(10) -0.3137(3) 0.8737(3)
H20 H 0.8234 -0.3038 0.8569
H21 H 0.5926 -0.3304 0.8419
H22 H 0.6981 -0.3492 0.9048
C26 C 0.1505(8) -0.1259(3) 0.8617(2)
H23 H 0.1276 -0.1528 0.8252
H24 H 0.1826 -0.0779 0.8511
H25 H 0.0242 -0.1271 0.8865
N1 N 0.4919(5) 0.10443(17) 0.84971(15)
N2 N 0.3691(5) 0.00838(17) 0.93464(16)
H26 H 0.2861 0.0239 0.9062
O1 O 0.7905(5) 0.16701(15) 0.85619(13)
O2 O 1.0178(5) 0.09319(18) 0.89632(15)
O3 O 0.3660(6) -0.04332(16) 1.03876(14)
O4 O 0.0681(5) -0.05924(17) 0.96995(17)
S1 S 0.29080(18) -0.05346(5) 0.97944(5)
loop_
_geom_bond_atom_site_label_1
_geom_bond_atom_site_label_2
_geom_bond_site_symmetry_1
_geom_bond_site_symmetry_2
C1 C2 1_555 1_555
C2 O1 1_555 1_555
C3 C5 1_555 1_555
C4 C1 1_555 1_555
H1 C4 1_555 1_555
H2 C4 1_555 1_555
H3 C4 1_555 1_555
C5 C6 1_555 1_555
C6 H4 1_555 1_555
C7 C6 1_555 1_555
H5 C7 1_555 1_555
C8 C7 1_555 1_555
H6 C8 1_555 1_555
C9 C8 1_555 1_555
H7 C9 1_555 1_555
C10 C5 1_555 1_555
H8 C10 1_555 1_555
C11 C1 1_555 1_555
H9 C11 1_555 1_555
C12 C11 1_555 1_555
C13 C12 1_555 1_555
H10 C13 1_555 1_555
C14 C13 1_555 1_555
H11 C14 1_555 1_555
C15 C14 1_555 1_555
H12 C15 1_555 1_555
C16 C15 1_555 1_555
H13 C16 1_555 1_555
C17 C12 1_555 1_555
H14 C17 1_555 1_555
C18 C19 1_555 1_555
C19 C20 1_555 1_555
C20 H15 1_555 1_555
C21 C20 1_555 1_555
C22 C21 1_555 1_555
H16 C22 1_555 1_555
C23 C18 1_555 1_555
C24 C19 1_555 1_555
H17 C24 1_555 1_555
H18 C24 1_555 1_555
H19 C24 1_555 1_555
C25 C21 1_555 1_555
H20 C25 1_555 1_555
H21 C25 1_555 1_555
H22 C25 1_555 1_555
C26 C23 1_555 1_555
H23 C26 1_555 1_555
H24 C26 1_555 1_555
H25 C26 1_555 1_555
N1 C1 1_555 1_555
N2 C11 1_555 1_555
H26 N2 1_555 1_555
O1 C3 1_555 1_555
O2 C2 1_555 1_555
O3 S1 1_555 1_555
O4 S1 1_555 1_555
S1 C18 1_555 1_555
C3 N1 1_555 1_555
C9 C10 1_555 1_555
C16 C17 1_555 1_555
C22 C23 1_555 1_555
N2 S1 1_555 1_555

#END
