
#######################################################################
#
#                 Cambridge Crystallographic Data Centre
#                                CCDC 
#
#######################################################################
#
# If this CIF has been generated from an entry in the Cambridge 
# Structural Database, then it will include bibliographic, chemical, 
# crystal, experimental, refinement or atomic coordinate data resulting 
# from the CCDC's data processing and validation procedures.
#
#######################################################################

data_ATULIL
_chemical_formula_moiety         'C31 H24 O3'
_chemical_name_systematic        2,5-bis(3-Phenoxybenzylidene)cyclopentanone
_symmetry_cell_setting           monoclinic
_symmetry_space_group_name_H-M   'P 21/c'
_symmetry_Int_Tables_number      14
_space_group_name_Hall           '-P 2ybc'
loop_
_symmetry_equiv_pos_site_id
_symmetry_equiv_pos_as_xyz
1 x,y,z
2 -x,1/2+y,1/2-z
3 -x,-y,-z
4 x,1/2-y,1/2+z
_cell_length_a                   6.1260(12)
_cell_length_b                   43.862(9)
_cell_length_c                   8.5740(17)
_cell_angle_alpha                90
_cell_angle_beta                 97.20(3)
_cell_angle_gamma                90
_cell_volume                     2285.66
_exptl_crystal_colour            yellow
_exptl_crystal_description       block
_cell_formula_units_Z            4
loop_
_atom_site_label
_atom_site_type_symbol
_atom_site_fract_x
_atom_site_fract_y
_atom_site_fract_z
O1 O 0.5485(5) 0.14387(8) 0.3220(4)
C1 C 0.2676(9) 0.21468(14) 0.3903(7)
H1 H 0.1667 0.2228 0.4515
O2 O 0.8353(4) 0.01890(7) 0.8408(4)
C2 C 0.3223(8) 0.18473(12) 0.4047(5)
H2 H 0.2618 0.1722 0.4755
O3 O 0.9178(5) -0.12595(8) 1.2520(4)
C3 C 0.4706(7) 0.17364(11) 0.3107(5)
C4 C 0.5626(8) 0.19155(13) 0.2071(6)
H3 H 0.6610 0.1834 0.1442
C5 C 0.5083(10) 0.22176(14) 0.1966(7)
H4 H 0.5736 0.2343 0.1282
C6 C 0.3607(11) 0.23369(14) 0.2845(8)
H5 H 0.3215 0.2542 0.2751
C7 C 0.4202(8) 0.12068(11) 0.3707(6)
C8 C 0.2018(8) 0.11674(12) 0.3140(5)
H6 H 0.1294 0.1309 0.2454
C9 C 0.0923(8) 0.09179(12) 0.3592(6)
H7 H -0.0562 0.0895 0.3225
C10 C 0.1955(7) 0.07012(10) 0.4571(5)
H8 H 0.1190 0.0529 0.4833
C11 C 0.4146(7) 0.07399(9) 0.5170(5)
C12 C 0.5249(7) 0.09939(10) 0.4744(5)
H9 H 0.6712 0.1023 0.5155
C13 C 0.5379(7) 0.05321(10) 0.6240(5)
H10 H 0.6806 0.0597 0.6572
C14 C 0.4882(6) 0.02586(9) 0.6869(5)
C15 C 0.2800(6) 0.00742(10) 0.6597(5)
H11 H 0.2468 0.0021 0.5495
H12 H 0.1573 0.0188 0.6913
C16 C 0.3231(6) -0.02207(9) 0.7626(5)
H13 H 0.2214 -0.0232 0.8404
H14 H 0.3051 -0.0402 0.6972
C17 C 0.5570(6) -0.01960(10) 0.8415(5)
C18 C 0.6538(7) 0.00917(10) 0.7967(5)
C19 C 0.6763(7) -0.03863(9) 0.9324(5)
H15 H 0.8210 -0.0323 0.9598
C20 C 0.6252(6) -0.06802(9) 0.9994(5)
C21 C 0.4158(7) -0.08187(11) 0.9740(5)
H16 H 0.3025 -0.0720 0.9111
C22 C 0.3762(8) -0.10895(11) 1.0386(6)
H17 H 0.2353 -0.1172 1.0220
C23 C 0.5418(8) -0.12473(12) 1.1292(6)
H18 H 0.5153 -0.1438 1.1705
C24 C 0.7505(7) -0.11124(10) 1.1573(5)
C25 C 0.7898(7) -0.08416(10) 1.0897(5)
H19 H 0.9316 -0.0762 1.1043
C26 C 0.9787(7) -0.15540(10) 1.2247(5)
C27 C 0.9230(7) -0.16994(11) 1.0813(5)
H20 H 0.8368 -0.1601 0.9996
C28 C 0.9962(8) -0.19878(13) 1.0621(6)
H21 H 0.9545 -0.2088 0.9674
C29 C 1.1258(8) -0.21310(13) 1.1748(7)
H22 H 1.1773 -0.2326 1.1581
C30 C 1.1839(9) -0.19834(14) 1.3196(7)
H23 H 1.2742 -0.2081 1.3996
C31 C 1.1067(7) -0.16947(12) 1.3424(6)
H24 H 1.1426 -0.1597 1.4385
loop_
_geom_bond_atom_site_label_1
_geom_bond_atom_site_label_2
_geom_bond_site_symmetry_1
_geom_bond_site_symmetry_2
O1 C3 1_555 1_555
C1 H1 1_555 1_555
O2 C18 1_555 1_555
C2 C1 1_555 1_555
H2 C2 1_555 1_555
O3 C24 1_555 1_555
C3 C2 1_555 1_555
C4 C3 1_555 1_555
H3 C4 1_555 1_555
C5 C4 1_555 1_555
H4 C5 1_555 1_555
C6 C1 1_555 1_555
H5 C6 1_555 1_555
C7 O1 1_555 1_555
C8 C7 1_555 1_555
H6 C8 1_555 1_555
C9 C8 1_555 1_555
H7 C9 1_555 1_555
C10 C9 1_555 1_555
H8 C10 1_555 1_555
C11 C10 1_555 1_555
C12 C7 1_555 1_555
H9 C12 1_555 1_555
C13 C11 1_555 1_555
H10 C13 1_555 1_555
C14 C13 1_555 1_555
C15 C14 1_555 1_555
H11 C15 1_555 1_555
H12 C15 1_555 1_555
C16 C15 1_555 1_555
H13 C16 1_555 1_555
H14 C16 1_555 1_555
C17 C16 1_555 1_555
C18 C14 1_555 1_555
C19 C17 1_555 1_555
H15 C19 1_555 1_555
C20 C19 1_555 1_555
C21 C20 1_555 1_555
H16 C21 1_555 1_555
C22 C21 1_555 1_555
H17 C22 1_555 1_555
C23 C22 1_555 1_555
H18 C23 1_555 1_555
C24 C23 1_555 1_555
C25 C20 1_555 1_555
H19 C25 1_555 1_555
C26 O3 1_555 1_555
C27 C26 1_555 1_555
H20 C27 1_555 1_555
C28 C27 1_555 1_555
H21 C28 1_555 1_555
C29 C28 1_555 1_555
H22 C29 1_555 1_555
C30 C29 1_555 1_555
H23 C30 1_555 1_555
C31 C26 1_555 1_555
H24 C31 1_555 1_555
C5 C6 1_555 1_555
C11 C12 1_555 1_555
C17 C18 1_555 1_555
C24 C25 1_555 1_555
C30 C31 1_555 1_555

#END
