
#######################################################################
#
#                 Cambridge Crystallographic Data Centre
#                                CCDC 
#
#######################################################################
#
# If this CIF has been generated from an entry in the Cambridge 
# Structural Database, then it will include bibliographic, chemical, 
# crystal, experimental, refinement or atomic coordinate data resulting 
# from the CCDC's data processing and validation procedures.
#
#######################################################################

data_ATUPOW
_chemical_formula_moiety         'C34 H43 Cl1 N4 O6 S2'
_chemical_name_systematic        
N'-(10b-(chloromethyl)-5a,12b-dimethyl-2-((4-methylphenyl)sulfonyl)-8-oxo-2,4,5,5a,5b,6,7,7a,8,10,10a,10b,11,12,12a,12b-hexadecahydro-1H-furo[3',4':5,6]naphtho[2,1-e]indazol-1-yl)-4-methylbenzenesulfonohydrazide
_symmetry_cell_setting           orthorhombic
_symmetry_space_group_name_H-M   'P 21 21 2'
_symmetry_Int_Tables_number      18
_space_group_name_Hall           'P 2 2ab'
loop_
_symmetry_equiv_pos_site_id
_symmetry_equiv_pos_as_xyz
1 x,y,z
2 -x,-y,z
3 1/2-x,1/2+y,-z
4 1/2+x,1/2-y,-z
_cell_length_a                   18.3567(12)
_cell_length_b                   20.2361(13)
_cell_length_c                   9.2984(6)
_cell_angle_alpha                90
_cell_angle_beta                 90
_cell_angle_gamma                90
_cell_volume                     3454.06
_exptl_crystal_colour            colorless
_exptl_crystal_description       prismatic
_cell_formula_units_Z            4
loop_
_atom_site_label
_atom_site_type_symbol
_atom_site_fract_x
_atom_site_fract_y
_atom_site_fract_z
S1 S 0.60090(5) -0.05940(4) 0.78739(11)
S2 S 0.63157(6) 0.18228(5) 0.96763(9)
Cl1 Cl 0.91612(14) 0.1460(2) 0.7098(3)
N1 N 0.60833(15) -0.03620(13) 0.5167(3)
N2 N 0.59694(15) -0.00526(13) 0.6546(3)
N3 N 0.61202(15) 0.11033(13) 0.7446(3)
N4 N 0.63358(19) 0.10892(15) 0.8903(3)
O1 O 1.09571(16) 0.11250(15) 0.2769(5)
O2 O 1.04738(15) 0.19548(16) 0.3995(4)
O3 O 0.55315(14) -0.11168(12) 0.7488(4)
O4 O 0.58812(16) -0.02250(14) 0.9154(3)
O5 O 0.6364(2) 0.16740(16) 1.1172(3)
O6 O 0.57268(15) 0.22138(13) 0.9159(3)
C1 C 0.7365(2) 0.01641(17) 0.2580(4)
H1 H 0.7378 0.0446 0.1736
H2 H 0.7648 -0.0228 0.2363
C2 C 0.6573(2) -0.0045(2) 0.2841(4)
H3 H 0.6256 0.0201 0.2199
H4 H 0.6520 -0.0511 0.2619
C3 C 0.63466(18) 0.00727(16) 0.4341(3)
C4 C 0.64616(16) 0.07474(13) 0.4979(3)
C5 C 0.71850(16) 0.10462(13) 0.4436(3)
H5 H 0.7047 0.1317 0.3605
C6 C 0.75253(17) 0.15253(15) 0.5480(4)
H6 H 0.7703 0.1287 0.6314
H7 H 0.7161 0.1839 0.5803
C7 C 0.81534(18) 0.18953(15) 0.4778(4)
H8 H 0.8364 0.2194 0.5479
H9 H 0.7962 0.2161 0.3996
C8 C 0.87601(17) 0.14500(14) 0.4185(3)
C9 C 0.83978(18) 0.09242(13) 0.3193(3)
H10 H 0.8190 0.1180 0.2399
C10 C 0.77371(17) 0.05316(14) 0.3828(3)
C11 C 0.8984(2) 0.04887(16) 0.2483(4)
H11 H 0.9281 0.0284 0.3223
H12 H 0.8751 0.0140 0.1935
C12 C 0.9472(2) 0.08961(18) 0.1484(5)
H13 H 0.9886 0.0628 0.1197
H14 H 0.9200 0.1006 0.0622
C13 C 0.97490(19) 0.15254(16) 0.2160(4)
H15 H 0.9836 0.1832 0.1362
C14 C 0.92449(18) 0.18903(15) 0.3206(4)
H16 H 0.8923 0.2175 0.2640
C15 C 0.9797(2) 0.2331(2) 0.3968(5)
H17 H 0.9862 0.2742 0.3447
H18 H 0.9637 0.2432 0.4937
C16 C 1.0449(2) 0.1487(2) 0.2969(6)
C17 C 0.9187(2) 0.1148(2) 0.5418(5)
H19 H 0.9695 0.1145 0.5127
H20 H 0.9037 0.0690 0.5488
C18 C 0.58176(18) 0.11953(18) 0.4575(4)
H21 H 0.5791 0.1236 0.3548
H22 H 0.5886 0.1624 0.4994
H23 H 0.5373 0.1005 0.4930
C19 C 0.64282(16) 0.05808(13) 0.6613(3)
H24 H 0.6918 0.0477 0.6968
C20 C 0.79687(19) 0.00140(15) 0.4962(4)
H25 H 0.7568 -0.0277 0.5157
H26 H 0.8110 0.0235 0.5832
H27 H 0.8373 -0.0237 0.4601
C21 C 0.68952(18) -0.08990(16) 0.7944(4)
C22 C 0.7117(2) -0.13892(17) 0.7008(6)
H28 H 0.6785 -0.1573 0.6367
C23 C 0.7828(2) -0.1606(2) 0.7021(6)
H29 H 0.7977 -0.1929 0.6373
C24 C 0.8316(2) -0.1349(3) 0.7984(6)
C25 C 0.8096(3) -0.0869(3) 0.8901(6)
H30 H 0.8427 -0.0697 0.9559
C26 C 0.7387(3) -0.0626(3) 0.8882(5)
H31 H 0.7250 -0.0285 0.9495
C27 C 0.9111(3) -0.1604(4) 0.7967(8)
H32 H 0.9232 -0.1754 0.7017
H33 H 0.9159 -0.1963 0.8634
H34 H 0.9434 -0.1253 0.8239
C28 C 0.7127(2) 0.22084(19) 0.9163(4)
C29 C 0.7137(3) 0.2729(2) 0.8238(6)
H35 H 0.6707 0.2875 0.7811
C30 C 0.7794(3) 0.30435(19) 0.7937(7)
H36 H 0.7791 0.3401 0.7307
C31 C 0.8426(3) 0.2856(3) 0.8508(6)
C32 C 0.8404(4) 0.2331(4) 0.9394(8)
H37 H 0.8836 0.2190 0.9815
C33 C 0.7782(3) 0.1997(4) 0.9703(7)
H38 H 0.7800 0.1624 1.0285
C34 C 0.9141(3) 0.3192(3) 0.8160(9)
H39 H 0.9225 0.3544 0.8832
H40 H 0.9121 0.3369 0.7203
H41 H 0.9530 0.2876 0.8224
H42 H 0.5665(11) 0.1078(17) 0.738(4)
H43 H 0.6120(19) 0.0822(15) 0.938(4)
Cl2? Cl 0.98325(16) 0.05856(14) 0.5468(4)
H44? H 0.9395 0.1520 0.5909
H45? H 0.8821 0.0984 0.6063
loop_
_geom_bond_atom_site_label_1
_geom_bond_atom_site_label_2
_geom_bond_site_symmetry_1
_geom_bond_site_symmetry_2
S1 N2 1_555 1_555
S2 N4 1_555 1_555
Cl1 C17 1_555 1_555
N1 N2 1_555 1_555
N2 C19 1_555 1_555
N3 N4 1_555 1_555
N4 H43 1_555 1_555
O1 C16 1_555 1_555
O2 C15 1_555 1_555
O3 S1 1_555 1_555
O4 S1 1_555 1_555
O5 S2 1_555 1_555
O6 S2 1_555 1_555
C1 H1 1_555 1_555
H2 C1 1_555 1_555
C2 C1 1_555 1_555
H3 C2 1_555 1_555
H4 C2 1_555 1_555
C3 N1 1_555 1_555
C4 C3 1_555 1_555
C5 C4 1_555 1_555
H5 C5 1_555 1_555
C6 C5 1_555 1_555
H6 C6 1_555 1_555
H7 C6 1_555 1_555
C7 C6 1_555 1_555
H8 C7 1_555 1_555
H9 C7 1_555 1_555
C8 C7 1_555 1_555
C9 C8 1_555 1_555
H10 C9 1_555 1_555
C10 C1 1_555 1_555
C11 C9 1_555 1_555
H11 C11 1_555 1_555
H12 C11 1_555 1_555
C12 C11 1_555 1_555
H13 C12 1_555 1_555
H14 C12 1_555 1_555
C13 C12 1_555 1_555
H15 C13 1_555 1_555
C14 C8 1_555 1_555
H16 C14 1_555 1_555
C15 C14 1_555 1_555
H17 C15 1_555 1_555
H18 C15 1_555 1_555
C16 O2 1_555 1_555
C17 C8 1_555 1_555
H19 C17 1_555 1_555
H20 C17 1_555 1_555
C18 C4 1_555 1_555
H21 C18 1_555 1_555
H22 C18 1_555 1_555
H23 C18 1_555 1_555
C19 N3 1_555 1_555
H24 C19 1_555 1_555
C20 C10 1_555 1_555
H25 C20 1_555 1_555
H26 C20 1_555 1_555
H27 C20 1_555 1_555
C21 S1 1_555 1_555
C22 C21 1_555 1_555
H28 C22 1_555 1_555
C23 C22 1_555 1_555
H29 C23 1_555 1_555
C24 C23 1_555 1_555
C25 C24 1_555 1_555
H30 C25 1_555 1_555
C26 C21 1_555 1_555
H31 C26 1_555 1_555
C27 C24 1_555 1_555
H32 C27 1_555 1_555
H33 C27 1_555 1_555
H34 C27 1_555 1_555
C28 S2 1_555 1_555
C29 C28 1_555 1_555
H35 C29 1_555 1_555
C30 C29 1_555 1_555
H36 C30 1_555 1_555
C31 C30 1_555 1_555
C32 C31 1_555 1_555
H37 C32 1_555 1_555
C33 C28 1_555 1_555
H38 C33 1_555 1_555
C34 C31 1_555 1_555
H39 C34 1_555 1_555
H40 C34 1_555 1_555
H41 C34 1_555 1_555
H42 N3 1_555 1_555
C2 C3 1_555 1_555
C4 C19 1_555 1_555
C5 C10 1_555 1_555
C9 C10 1_555 1_555
C13 C14 1_555 1_555
C13 C16 1_555 1_555
C25 C26 1_555 1_555
C32 C33 1_555 1_555

#END
