
#######################################################################
#
#                 Cambridge Crystallographic Data Centre
#                                CCDC 
#
#######################################################################
#
# If this CIF has been generated from an entry in the Cambridge 
# Structural Database, then it will include bibliographic, chemical, 
# crystal, experimental, refinement or atomic coordinate data resulting 
# from the CCDC's data processing and validation procedures.
#
#######################################################################

data_ATUQIR
_chemical_formula_moiety         'C21 H20 N2 O1'
_chemical_name_systematic        
5,10,10-trimethyl-10,11,12,13-tetrahydrofuro[3,2-f]naphtho[2,1-h]quinoxaline
_symmetry_cell_setting           orthorhombic
_symmetry_space_group_name_H-M   'P n a 21'
_symmetry_Int_Tables_number      33
_space_group_name_Hall           'P 2c -2n'
loop_
_symmetry_equiv_pos_site_id
_symmetry_equiv_pos_as_xyz
1 x,y,z
2 -x,-y,1/2+z
3 1/2+x,1/2-y,z
4 1/2-x,1/2+y,1/2+z
_cell_length_a                   24.1562(5)
_cell_length_b                   9.5546(2)
_cell_length_c                   6.95540(10)
_cell_angle_alpha                90
_cell_angle_beta                 90
_cell_angle_gamma                90
_cell_volume                     1605.33
_exptl_crystal_colour            purple
_exptl_crystal_description       block
_cell_formula_units_Z            4
loop_
_atom_site_label
_atom_site_type_symbol
_atom_site_fract_x
_atom_site_fract_y
_atom_site_fract_z
O1 O 0.54885(7) 0.04949(18) 0.4659(5)
N1 N 0.48801(9) 0.5997(2) 0.4489(5)
N2 N 0.41004(9) 0.3847(2) 0.4667(5)
C1 C 0.59622(11) 0.6927(3) 0.4740(7)
H1 H 0.5674 0.7060 0.5692
H2 H 0.5821 0.7258 0.3516
C2 C 0.64646(13) 0.7811(4) 0.5303(8)
H3 H 0.6377 0.8795 0.5147
H4 H 0.6554 0.7649 0.6644
C3 C 0.69408(14) 0.7456(3) 0.4114(9)
H5 H 0.7243 0.8089 0.4414
H6 H 0.6845 0.7588 0.2773
C4 C 0.71357(12) 0.5947(3) 0.4413(7)
C5 C 0.66393(10) 0.4944(3) 0.4494(6)
C6 C 0.67645(11) 0.3510(3) 0.4498(8)
H7 H 0.7133 0.3232 0.4475
C7 C 0.63621(11) 0.2514(3) 0.4533(6)
H8 H 0.6456 0.1570 0.4528
C8 C 0.58079(11) 0.2915(2) 0.4576(5)
C9 C 0.56527(10) 0.4344(2) 0.4600(5)
C10 C 0.60869(10) 0.5388(3) 0.4577(5)
C11 C 0.50531(9) 0.4666(2) 0.4593(5)
C12 C 0.46474(10) 0.3571(3) 0.4668(5)
C13 C 0.48282(11) 0.2144(3) 0.4697(6)
C14 C 0.53800(11) 0.1894(3) 0.4640(6)
C15 C 0.49790(10) -0.0143(3) 0.4758(9)
H9 H 0.4930 -0.1108 0.4790
C16 C 0.45588(12) 0.0787(3) 0.4802(7)
C17 C 0.39576(13) 0.0456(4) 0.4949(10)
H10 H 0.3908 -0.0540 0.4981
H11 H 0.3767 0.0836 0.3857
H12 H 0.3810 0.0860 0.6105
C18 C 0.75066(17) 0.5603(5) 0.2696(8)
H13 H 0.7638 0.4659 0.2807
H14 H 0.7816 0.6234 0.2674
H15 H 0.7298 0.5701 0.1528
C19 C 0.74781(19) 0.5809(5) 0.6227(7)
H16 H 0.7592 0.4853 0.6383
H17 H 0.7260 0.6090 0.7315
H18 H 0.7799 0.6397 0.6132
C20 C 0.43405(10) 0.6232(3) 0.4486(6)
H19 H 0.4216 0.7152 0.4402
C21 C 0.39552(10) 0.5176(3) 0.4601(6)
H20 H 0.3581 0.5406 0.4633
loop_
_geom_bond_atom_site_label_1
_geom_bond_atom_site_label_2
_geom_bond_site_symmetry_1
_geom_bond_site_symmetry_2
O1 C14 1_555 1_555
N1 C11 1_555 1_555
N2 C12 1_555 1_555
C1 H1 1_555 1_555
H2 C1 1_555 1_555
C2 C1 1_555 1_555
H3 C2 1_555 1_555
H4 C2 1_555 1_555
C3 C2 1_555 1_555
H5 C3 1_555 1_555
H6 C3 1_555 1_555
C4 C3 1_555 1_555
C5 C4 1_555 1_555
C6 C5 1_555 1_555
H7 C6 1_555 1_555
C7 C6 1_555 1_555
H8 C7 1_555 1_555
C8 C7 1_555 1_555
C9 C8 1_555 1_555
C10 C1 1_555 1_555
C11 C9 1_555 1_555
C12 C11 1_555 1_555
C13 C12 1_555 1_555
C14 C8 1_555 1_555
C15 O1 1_555 1_555
H9 C15 1_555 1_555
C16 C13 1_555 1_555
C17 C16 1_555 1_555
H10 C17 1_555 1_555
H11 C17 1_555 1_555
H12 C17 1_555 1_555
C18 C4 1_555 1_555
H13 C18 1_555 1_555
H14 C18 1_555 1_555
H15 C18 1_555 1_555
C19 C4 1_555 1_555
H16 C19 1_555 1_555
H17 C19 1_555 1_555
H18 C19 1_555 1_555
C20 N1 1_555 1_555
H19 C20 1_555 1_555
C21 N2 1_555 1_555
H20 C21 1_555 1_555
C5 C10 1_555 1_555
C9 C10 1_555 1_555
C13 C14 1_555 1_555
C15 C16 1_555 1_555
C20 C21 1_555 1_555

#END
