
#######################################################################
#
#                 Cambridge Crystallographic Data Centre
#                                CCDC 
#
#######################################################################
#
# If this CIF has been generated from an entry in the Cambridge 
# Structural Database, then it will include bibliographic, chemical, 
# crystal, experimental, refinement or atomic coordinate data resulting 
# from the CCDC's data processing and validation procedures.
#
#######################################################################

data_ATURUE
_chemical_formula_moiety         'C33 H25 N5'
_chemical_name_systematic        
N-phenyl-N-(4-(2,2':6',2''-terpyridin-4'-yl)phenyl)benzene-1,4-diamine
_symmetry_cell_setting           monoclinic
_symmetry_space_group_name_H-M   'P 21/c'
_symmetry_Int_Tables_number      14
_space_group_name_Hall           '-P 2ybc'
loop_
_symmetry_equiv_pos_site_id
_symmetry_equiv_pos_as_xyz
1 x,y,z
2 -x,1/2+y,1/2-z
3 -x,-y,-z
4 x,1/2-y,1/2+z
_cell_length_a                   9.562(5)
_cell_length_b                   28.419(5)
_cell_length_c                   10.609(5)
_cell_angle_alpha                90
_cell_angle_beta                 114.796(5)
_cell_angle_gamma                90
_cell_volume                     2617.13
_cell_formula_units_Z            4
loop_
_atom_site_label
_atom_site_type_symbol
_atom_site_fract_x
_atom_site_fract_y
_atom_site_fract_z
N1 N 0.5391(2) -0.14405(7) 0.7261(2)
C1 C 0.4346(3) -0.14396(8) 0.5933(2)
C2 C 0.4005(3) -0.19057(8) 0.5231(3)
C3 C 0.3976(3) -0.06029(8) 0.5932(3)
C4 C 0.5754(3) -0.10234(9) 0.7919(3)
N2 N 0.0661(3) 0.10706(7) 0.3448(3)
N3 N 0.3147(3) -0.19096(8) 0.3861(2)
C5 C 0.3615(3) -0.10353(8) 0.5247(3)
H1 H 0.2883 -0.1052 0.4331
C6 C 0.2483(3) -0.01018(9) 0.3832(3)
H2 H 0.2578 -0.0339 0.3268
C7 C 0.3151(3) -0.01639(8) 0.5260(3)
C8 C 0.6920(3) -0.10359(10) 0.9384(3)
C9 C 0.1510(3) 0.06614(9) 0.4048(3)
C10 C 0.5091(3) -0.06059(9) 0.7285(3)
H3 H 0.5396 -0.0324 0.7772
C11 C 0.1681(3) 0.03019(9) 0.3226(3)
H4 H 0.1252 0.0335 0.2265
C12 C 0.4558(3) -0.23152(9) 0.5978(3)
H5 H 0.5166 -0.2303 0.6929
C13 C 0.0912(3) 0.14951(9) 0.4220(3)
C14 C -0.0523(3) 0.10615(9) 0.2067(3)
C15 C 0.2982(4) 0.02004(9) 0.6065(3)
H6 H 0.3422 0.0169 0.7026
C16 C 0.2822(4) -0.23298(11) 0.3244(3)
H7 H 0.2219 -0.2338 0.2292
C17 C 0.7336(3) -0.14507(11) 1.0129(3)
H8 H 0.6867 -0.1733 0.9728
N4 N 0.7552(3) -0.06240(9) 0.9943(3)
C18 C -0.2800(4) 0.10801(12) -0.0629(3)
C19 C -0.0267(3) 0.17279(11) 0.4360(3)
H9 H -0.1262 0.1607 0.3944
C20 C 0.4199(4) -0.27415(10) 0.5300(4)
H10 H 0.4558 -0.3021 0.5785
C21 C -0.0398(4) 0.13432(11) 0.1064(4)
H11 H 0.0468 0.1532 0.1292
C22 C -0.1807(4) 0.07840(11) 0.1712(3)
H12 H -0.1903 0.0590 0.2378
C23 C 0.1438(5) 0.23253(11) 0.5737(4)
H13 H 0.1613 0.2604 0.6240
C24 C 0.2375(4) 0.16828(12) 0.4865(4)
H14 H 0.3196 0.1529 0.4789
C25 C 0.2192(4) 0.06028(10) 0.5484(3)
H15 H 0.2108 0.0840 0.6053
C26 C 0.3314(4) -0.27471(10) 0.3914(4)
H16 H 0.3047 -0.3030 0.3431
C27 C -0.2959(4) 0.07890(13) 0.0375(4)
H17 H -0.3829 0.0602 0.0143
C28 C -0.1508(5) 0.13499(12) -0.0245(4)
H18 H -0.1390 0.1543 -0.0900
C29 C 0.0007(4) 0.21423(12) 0.5114(4)
H19 H -0.0809 0.2297 0.5193
N5 N -0.3927(5) 0.11014(13) -0.1955(3)
H20 H -0.3824 0.1286 -0.2553
H21 H -0.4739 0.0930 -0.2191
C30 C 0.2635(4) 0.20906(13) 0.5611(5)
H22 H 0.3629 0.2211 0.6038
C31 C 0.8631(5) -0.06350(16) 1.1252(4)
H23 H 0.9079 -0.0351 1.1654
C32 C 0.8451(4) -0.14418(15) 1.1470(4)
H24 H 0.8746 -0.1718 1.1985
C33 C 0.9117(4) -0.10274(18) 1.2033(4)
H25 H 0.9888 -0.1013 1.2933
loop_
_geom_bond_atom_site_label_1
_geom_bond_atom_site_label_2
_geom_bond_site_symmetry_1
_geom_bond_site_symmetry_2
N1 C1 1_555 1_555
C1 C2 1_555 1_555
C2 N3 1_555 1_555
C3 C5 1_555 1_555
C4 N1 1_555 1_555
N2 C9 1_555 1_555
N3 C16 1_555 1_555
C5 C1 1_555 1_555
H1 C5 1_555 1_555
C6 H2 1_555 1_555
C7 C3 1_555 1_555
C8 C4 1_555 1_555
C9 C11 1_555 1_555
C10 C3 1_555 1_555
H3 C10 1_555 1_555
C11 C6 1_555 1_555
H4 C11 1_555 1_555
C12 C2 1_555 1_555
H5 C12 1_555 1_555
C13 N2 1_555 1_555
C14 N2 1_555 1_555
C15 C7 1_555 1_555
H6 C15 1_555 1_555
C16 H7 1_555 1_555
C17 C8 1_555 1_555
H8 C17 1_555 1_555
N4 C8 1_555 1_555
C18 C27 1_555 1_555
C19 C13 1_555 1_555
H9 C19 1_555 1_555
C20 C12 1_555 1_555
H10 C20 1_555 1_555
C21 C14 1_555 1_555
H11 C21 1_555 1_555
C22 C14 1_555 1_555
H12 C22 1_555 1_555
C23 H13 1_555 1_555
C24 C13 1_555 1_555
H14 C24 1_555 1_555
C25 C9 1_555 1_555
H15 C25 1_555 1_555
C26 C16 1_555 1_555
H16 C26 1_555 1_555
C27 C22 1_555 1_555
H17 C27 1_555 1_555
C28 C18 1_555 1_555
H18 C28 1_555 1_555
C29 C19 1_555 1_555
H19 C29 1_555 1_555
N5 C18 1_555 1_555
H20 N5 1_555 1_555
H21 N5 1_555 1_555
C30 C23 1_555 1_555
H22 C30 1_555 1_555
C31 N4 1_555 1_555
H23 C31 1_555 1_555
C32 C17 1_555 1_555
H24 C32 1_555 1_555
C33 C31 1_555 1_555
H25 C33 1_555 1_555
C4 C10 1_555 1_555
C6 C7 1_555 1_555
C15 C25 1_555 1_555
C20 C26 1_555 1_555
C21 C28 1_555 1_555
C23 C29 1_555 1_555
C24 C30 1_555 1_555
C32 C33 1_555 1_555

#END
