
#######################################################################
#
#                 Cambridge Crystallographic Data Centre
#                                CCDC 
#
#######################################################################
#
# If this CIF has been generated from an entry in the Cambridge 
# Structural Database, then it will include bibliographic, chemical, 
# crystal, experimental, refinement or atomic coordinate data resulting 
# from the CCDC's data processing and validation procedures.
#
#######################################################################

data_ATUSEP
_chemical_formula_moiety         'C35 H27 N5 O3'
_chemical_name_systematic        
4-ethoxy-N-(4-nitrophenyl)-N-(4-(2,2':6',2''-terpyridin-4'-yl)phenyl)aniline
_symmetry_cell_setting           monoclinic
_symmetry_space_group_name_H-M   'P 21/c'
_symmetry_Int_Tables_number      14
_space_group_name_Hall           '-P 2ybc'
loop_
_symmetry_equiv_pos_site_id
_symmetry_equiv_pos_as_xyz
1 x,y,z
2 -x,1/2+y,1/2-z
3 -x,-y,-z
4 x,1/2-y,1/2+z
_cell_length_a                   15.012(5)
_cell_length_b                   9.772(5)
_cell_length_c                   20.117(5)
_cell_angle_alpha                90
_cell_angle_beta                 99.935(5)
_cell_angle_gamma                90
_cell_volume                     2906.85
_cell_formula_units_Z            4
loop_
_atom_site_label
_atom_site_type_symbol
_atom_site_fract_x
_atom_site_fract_y
_atom_site_fract_z
N1 N 0.50089(14) 0.0031(2) 0.68181(11)
C1 C 0.80180(18) 0.2645(3) 0.91733(13)
H1 H 0.7462 0.3072 0.9160
N2 N 0.95590(15) 0.2415(3) 0.97111(11)
C2 C 0.57931(17) 0.0410(3) 0.72793(13)
C3 C 0.73260(16) 0.1208(3) 0.82013(13)
C4 C 0.87464(18) 0.3003(3) 0.96654(13)
C5 C 0.73715(17) 0.1001(3) 0.75231(13)
H2 H 0.7921 0.1112 0.7376
C6 C 0.8653(2) 0.4066(3) 1.01753(14)
C7 C 0.50103(17) -0.2565(3) 0.51740(13)
C8 C 0.64960(17) 0.1018(3) 0.84032(13)
H3 H 0.6446 0.1172 0.8852
C9 C 0.50219(16) -0.0842(3) 0.62702(13)
C10 C 0.57450(17) 0.0607(3) 0.79548(13)
H4 H 0.5201 0.0460 0.8106
N3 N 0.50195(17) -0.3441(3) 0.45933(12)
C11 C 0.81200(16) 0.1651(3) 0.87015(13)
C12 C 0.66159(17) 0.0634(3) 0.70665(13)
H5 H 0.6656 0.0536 0.6613
C13 C 0.3572(2) -0.0395(3) 0.71781(16)
H6 H 0.3756 -0.1292 0.7275
O1 O 0.43917(16) -0.3360(3) 0.41137(11)
C14 C 0.41420(17) 0.0507(3) 0.69410(14)
O2 O 0.56598(15) -0.4227(3) 0.45960(12)
C15 C 0.43271(18) -0.1621(3) 0.51636(13)
H7 H 0.3866 -0.1561 0.4791
C16 C 0.56893(17) -0.1847(3) 0.62777(14)
H8 H 0.6140 -0.1940 0.6655
C17 C 0.56845(18) -0.2695(3) 0.57320(14)
H9 H 0.6133 -0.3353 0.5738
C18 C 0.89712(17) 0.1065(3) 0.87386(13)
H10 H 0.9074 0.0414 0.8423
N4 N 1.07153(17) -0.0067(3) 0.88574(16)
C19 C 0.96692(17) 0.1463(3) 0.92530(14)
C20 C 0.43314(17) -0.0769(3) 0.57068(13)
H11 H 0.3869 -0.0134 0.5700
C21 C 1.05823(18) 0.0827(3) 0.93319(15)
N5 N 0.78474(18) 0.4648(3) 1.01347(15)
C22 C 0.0183(2) 0.2393(5) 0.7308(2)
H12 H -0.0268 0.1832 0.7041
H13 H 0.0075 0.3336 0.7186
H14 H 0.0153 0.2273 0.7777
C23 C 0.2451(2) 0.1336(5) 0.71386(19)
C24 C 0.9376(2) 0.4439(4) 1.06647(16)
H15 H 0.9940 0.4030 1.0683
C25 C 0.3876(2) 0.1837(3) 0.68125(16)
H16 H 0.4266 0.2457 0.6660
C26 C 1.1253(2) 0.1163(4) 0.98663(18)
H17 H 1.1139 0.1784 1.0192
C27 C 0.1054(3) 0.2004(13) 0.7189(3)
H18 H 0.0831 0.1375 0.6826
H19 H 0.1159 0.2840 0.6954
C28 C 0.3028(3) 0.2256(4) 0.69100(18)
H20 H 0.2847 0.3157 0.6822
C29 C 0.2728(2) 0.0022(4) 0.7273(2)
H21 H 0.2343 -0.0599 0.7431
O3 O 0.1620(3) 0.1720(6) 0.7240(2)
C30 C 1.2240(2) -0.0329(5) 0.9436(2)
H22 H 1.2806 -0.0730 0.9455
C31 C 0.8414(3) 0.6025(4) 1.1090(2)
H23 H 0.8310 0.6690 1.1398
C32 C 1.2088(2) 0.0572(5) 0.9912(2)
H24 H 1.2547 0.0789 1.0269
C33 C 0.9243(3) 0.5431(4) 1.11236(19)
H25 H 0.9720 0.5697 1.1458
C34 C 1.1541(2) -0.0641(5) 0.8922(2)
H26 H 1.1643 -0.1283 0.8603
C35 C 0.7750(3) 0.5607(4) 1.0589(2)
H27 H 0.7185 0.6016 1.0560
loop_
_geom_bond_atom_site_label_1
_geom_bond_atom_site_label_2
_geom_bond_site_symmetry_1
_geom_bond_site_symmetry_2
N1 C2 1_555 1_555
C1 H1 1_555 1_555
N2 C4 1_555 1_555
C2 C10 1_555 1_555
C3 C5 1_555 1_555
C4 C1 1_555 1_555
C5 H2 1_555 1_555
C6 C4 1_555 1_555
C7 N3 1_555 1_555
C8 C3 1_555 1_555
H3 C8 1_555 1_555
C9 N1 1_555 1_555
C10 C8 1_555 1_555
H4 C10 1_555 1_555
N3 O1 1_555 1_555
C11 C1 1_555 1_555
C12 C2 1_555 1_555
H5 C12 1_555 1_555
C13 H6 1_555 1_555
C14 N1 1_555 1_555
O2 N3 1_555 1_555
C15 C7 1_555 1_555
H7 C15 1_555 1_555
C16 C9 1_555 1_555
H8 C16 1_555 1_555
C17 C7 1_555 1_555
H9 C17 1_555 1_555
C18 C11 1_555 1_555
H10 C18 1_555 1_555
N4 C21 1_555 1_555
C19 N2 1_555 1_555
C20 C9 1_555 1_555
H11 C20 1_555 1_555
C21 C19 1_555 1_555
N5 C6 1_555 1_555
C22 H12 1_555 1_555
H13 C22 1_555 1_555
H14 C22 1_555 1_555
C23 C28 1_555 1_555
C24 C6 1_555 1_555
H15 C24 1_555 1_555
C25 C14 1_555 1_555
H16 C25 1_555 1_555
C26 C21 1_555 1_555
H17 C26 1_555 1_555
C27 C22 1_555 1_555
H18 C27 1_555 1_555
H19 C27 1_555 1_555
C28 C25 1_555 1_555
H20 C28 1_555 1_555
C29 C13 1_555 1_555
H21 C29 1_555 1_555
O3 C23 1_555 1_555
C30 H22 1_555 1_555
C31 H23 1_555 1_555
C32 C26 1_555 1_555
H24 C32 1_555 1_555
C33 C24 1_555 1_555
H25 C33 1_555 1_555
C34 N4 1_555 1_555
H26 C34 1_555 1_555
C35 N5 1_555 1_555
H27 C35 1_555 1_555
C3 C11 1_555 1_555
C5 C12 1_555 1_555
C13 C14 1_555 1_555
C15 C20 1_555 1_555
C16 C17 1_555 1_555
C18 C19 1_555 1_555
C23 C29 1_555 1_555
C27 O3 1_555 1_555
C30 C32 1_555 1_555
C30 C34 1_555 1_555
C31 C33 1_555 1_555
C31 C35 1_555 1_555

#END
