
#######################################################################
#
#                 Cambridge Crystallographic Data Centre
#                                CCDC 
#
#######################################################################
#
# If this CIF has been generated from an entry in the Cambridge 
# Structural Database, then it will include bibliographic, chemical, 
# crystal, experimental, refinement or atomic coordinate data resulting 
# from the CCDC's data processing and validation procedures.
#
#######################################################################

data_ATUTUE
_chemical_formula_moiety         'C10 H10 N2 O5'
_chemical_name_systematic        2-Methoxycarbonyl-4-nitroacetanilide
_symmetry_cell_setting           orthorhombic
_symmetry_space_group_name_H-M   'I b a m'
_symmetry_Int_Tables_number      72
_space_group_name_Hall           '-I 2 2c'
loop_
_symmetry_equiv_pos_site_id
_symmetry_equiv_pos_as_xyz
1 x,y,z
2 x,-y,1/2+z
3 -x,y,1/2+z
4 1/2+x,1/2+y,1/2+z
5 1/2+x,1/2-y,z
6 1/2-x,1/2+y,z
7 x,y,-z
8 1/2+x,1/2+y,1/2-z
9 -x,-y,-z
10 -x,y,1/2-z
11 x,-y,1/2-z
12 1/2-x,1/2-y,1/2-z
13 1/2-x,1/2+y,-z
14 1/2+x,1/2-y,-z
15 -x,-y,z
16 1/2-x,1/2-y,1/2+z
_cell_length_a                   16.4482(14)
_cell_length_b                   19.9095(17)
_cell_length_c                   6.7549(6)
_cell_angle_alpha                90
_cell_angle_beta                 90
_cell_angle_gamma                90
_cell_volume                     2212.06
_exptl_crystal_colour            colorless
_exptl_crystal_description       prism
_chemical_melting_point          '447-449 K'
_cell_formula_units_Z            8
_exptl_crystal_recrystallization_method acetone
loop_
_atom_site_label
_atom_site_type_symbol
_atom_site_fract_x
_atom_site_fract_y
_atom_site_fract_z
O1 O 0.45219(11) 0.10453(9) 0.5000
O2 O 0.66067(10) 0.37614(9) 0.5000
O3 O 0.68212(10) 0.26564(8) 0.5000
O4 O 0.40462(14) 0.47898(12) 0.5000
O5 O 0.29482(11) 0.42449(11) 0.5000
N1 N 0.54959(11) 0.18637(9) 0.5000
N2 N 0.36872(14) 0.42739(12) 0.5000
C1 C 0.50391(14) 0.24555(11) 0.5000
C2 C 0.54480(12) 0.30844(11) 0.5000
C3 C 0.49928(13) 0.36756(12) 0.5000
C4 C 0.41495(13) 0.36446(12) 0.5000
C5 C 0.37413(14) 0.30371(13) 0.5000
C6 C 0.41814(14) 0.24511(12) 0.5000
C7 C 0.52385(16) 0.12038(12) 0.5000
C8 C 0.59167(17) 0.07005(13) 0.5000
C9 C 0.63546(13) 0.31282(11) 0.5000
C10 C 0.74801(15) 0.38759(15) 0.5000
H1 H 0.6015 0.1919 0.5000
H2 H 0.5254 0.4090 0.5000
H3 H 0.3176 0.3026 0.5000
H4 H 0.3908 0.2042 0.5000
H5 H 0.6364 0.0871 0.4236
H8 H 0.7726 0.3620 0.6046
H8F H 0.7726 0.3620 0.3954
H5F H 0.6364 0.0871 0.5764
H6? H 0.5729 0.0287 0.4428
H7? H 0.6092 0.0621 0.6335
H9? H 0.7587 0.4345 0.5202
H10? H 0.7704 0.3738 0.3752
loop_
_geom_bond_atom_site_label_1
_geom_bond_atom_site_label_2
_geom_bond_site_symmetry_1
_geom_bond_site_symmetry_2
O1 C7 1_555 1_555
O2 C9 1_555 1_555
O3 C9 1_555 1_555
O4 N2 1_555 1_555
O5 N2 1_555 1_555
N1 C1 1_555 1_555
N2 C4 1_555 1_555
C1 C2 1_555 1_555
C2 C3 1_555 1_555
C3 C4 1_555 1_555
C4 C5 1_555 1_555
C5 C6 1_555 1_555
C6 C1 1_555 1_555
C7 N1 1_555 1_555
C8 C7 1_555 1_555
C9 C2 1_555 1_555
C10 O2 1_555 1_555
H1 N1 1_555 1_555
H2 C3 1_555 1_555
H3 C5 1_555 1_555
H4 C6 1_555 1_555
H5 C8 1_555 1_555
H8 C10 1_555 1_555
H8F C10 1_555 1_555
H5F C8 1_555 1_555

#END
