
#######################################################################
#
#                 Cambridge Crystallographic Data Centre
#                                CCDC 
#
#######################################################################
#
# If this CIF has been generated from an entry in the Cambridge 
# Structural Database, then it will include bibliographic, chemical, 
# crystal, experimental, refinement or atomic coordinate data resulting 
# from the CCDC's data processing and validation procedures.
#
#######################################################################

data_ATUVEQ
_chemical_formula_moiety         'C6 H14 N1 O1 1+,C7 H12 N1 O3 1-'
_chemical_name_systematic        
'4-Aminocyclohexanol (4-hydroxycyclohexyl)carbamate'
_symmetry_cell_setting           monoclinic
_symmetry_space_group_name_H-M   'P 21/c'
_symmetry_Int_Tables_number      14
_space_group_name_Hall           '-P 2ybc'
loop_
_symmetry_equiv_pos_site_id
_symmetry_equiv_pos_as_xyz
1 x,y,z
2 x,1/2-y,1/2+z
3 -x,-y,-z
4 -x,1/2+y,1/2-z
_cell_length_a                   6.3452(2)
_cell_length_b                   18.6256(6)
_cell_length_c                   12.1664(4)
_cell_angle_alpha                90
_cell_angle_beta                 92.284(2)
_cell_angle_gamma                90
_cell_volume                     1436.72
_exptl_crystal_colour            yellow
_exptl_crystal_description       plate
_chemical_melting_point          '377 K'
_cell_formula_units_Z            4
loop_
_atom_site_label
_atom_site_type_symbol
_atom_site_fract_x
_atom_site_fract_y
_atom_site_fract_z
O1 O -0.46270(13) 0.63687(5) 0.01886(7)
O2 O -0.15113(14) 0.58448(5) 0.05544(7)
O3 O 0.35337(16) 0.73442(5) 0.48724(8)
N2 N -0.21577(18) 0.69590(6) 0.12248(9)
C1 C -0.27812(19) 0.63633(6) 0.06402(9)
C2 C -0.0410(2) 0.69605(7) 0.20400(10)
C4 C 0.1752(2) 0.74117(7) 0.41197(10)
C5 C 0.2403(2) 0.76883(8) 0.30124(11)
C10 C 0.0536(3) 0.77048(8) 0.21763(12)
C12 C 0.0736(3) 0.66789(8) 0.39996(12)
C13 C -0.1096(2) 0.66843(9) 0.31494(12)
H1 H 0.066(2) 0.6656(8) 0.1757(12)
H7 H 0.073(3) 0.7753(9) 0.4436(13)
H10 H -0.315(3) 0.7273(10) 0.1311(14)
H12 H -0.221(3) 0.7018(11) 0.3403(15)
H16 H 0.352(3) 0.7351(10) 0.2737(15)
H20 H 0.188(3) 0.6337(10) 0.3776(14)
H21 H -0.058(3) 0.8024(10) 0.2441(14)
H22 H -0.171(3) 0.6200(10) 0.3086(14)
H23 H 0.095(3) 0.7889(10) 0.1460(16)
H24 H 0.026(3) 0.6536(11) 0.4732(17)
H25 H 0.419(3) 0.7770(11) 0.4939(16)
H26 H 0.305(3) 0.8174(10) 0.3088(14)
N1 N 0.74068(18) 0.46768(6) 0.91750(8)
O4 O 0.56745(17) 0.60426(6) 0.50683(8)
C3 C 0.68231(19) 0.48446(7) 0.79946(10)
C6 C 0.4282(2) 0.54960(7) 0.67150(10)
C7 C 0.6106(2) 0.58854(7) 0.61997(10)
C8 C 0.4831(2) 0.52980(7) 0.79140(10)
C9 C 0.8078(2) 0.54205(8) 0.62791(12)
C11 C 0.8658(2) 0.52213(8) 0.74691(12)
H2 H 0.658(2) 0.4379(7) 0.7637(11)
H3 H 0.893(2) 0.5668(9) 0.7913(13)
H4 H 0.506(2) 0.5722(8) 0.8348(12)
H5 H 0.636(2) 0.6353(8) 0.6590(12)
H6 H 0.400(2) 0.5061(8) 0.6273(12)
H8 H 0.925(3) 0.5664(9) 0.5937(14)
H9 H 0.307(3) 0.5814(9) 0.6675(13)
H11 H 0.870(3) 0.4447(9) 0.9227(13)
H13 H 0.641(3) 0.4352(9) 0.9465(14)
H14 H 0.756(2) 0.5090(9) 0.9608(13)
H15 H 0.370(2) 0.5034(8) 0.8226(12)
H17 H 0.498(3) 0.6467(10) 0.5041(15)
H18 H 0.776(3) 0.4966(11) 0.5837(15)
H19 H 0.988(3) 0.4894(9) 0.7499(13)
loop_
_geom_bond_atom_site_label_1
_geom_bond_atom_site_label_2
_geom_bond_site_symmetry_1
_geom_bond_site_symmetry_2
O1 C1 1_555 1_555
O2 C1 1_555 1_555
O3 C4 1_555 1_555
N1 C3 1_555 1_555
O4 C7 1_555 1_555
N2 C1 1_555 1_555
C2 N2 1_555 1_555
C3 C8 1_555 1_555
C4 C5 1_555 1_555
C5 C10 1_555 1_555
C6 C7 1_555 1_555
C7 C9 1_555 1_555
C8 C6 1_555 1_555
C9 C11 1_555 1_555
C10 C2 1_555 1_555
C11 C3 1_555 1_555
C12 C4 1_555 1_555
C13 C2 1_555 1_555
H1 C2 1_555 1_555
H2 C3 1_555 1_555
H3 C11 1_555 1_555
H4 C8 1_555 1_555
H5 C7 1_555 1_555
H6 C6 1_555 1_555
H7 C4 1_555 1_555
H8 C9 1_555 1_555
H9 C6 1_555 1_555
H10 N2 1_555 1_555
H11 N1 1_555 1_555
H12 C13 1_555 1_555
H13 N1 1_555 1_555
H14 N1 1_555 1_555
H15 C8 1_555 1_555
H16 C5 1_555 1_555
H17 O4 1_555 1_555
H18 C9 1_555 1_555
H19 C11 1_555 1_555
H20 C12 1_555 1_555
H21 C10 1_555 1_555
H22 C13 1_555 1_555
H23 C10 1_555 1_555
H24 C12 1_555 1_555
H25 O3 1_555 1_555
H26 C5 1_555 1_555
C12 C13 1_555 1_555

#END
