
#######################################################################
#
#                 Cambridge Crystallographic Data Centre
#                                CCDC 
#
#######################################################################
#
# If this CIF has been generated from an entry in the Cambridge 
# Structural Database, then it will include bibliographic, chemical, 
# crystal, experimental, refinement or atomic coordinate data resulting 
# from the CCDC's data processing and validation procedures.
#
#######################################################################

data_ATUVIW
_chemical_formula_moiety         'C29 H42 N1 O1 P1'
_chemical_name_systematic        
N-(((2-isopropyl-5-methylcyclohexyl)(phenyl)phosphoryl)(phenyl)methyl)cyclohexanamine
_symmetry_cell_setting           orthorhombic
_symmetry_space_group_name_H-M   'P 21 21 21'
_symmetry_Int_Tables_number      19
_space_group_name_Hall           'P 2ac 2ab'
loop_
_symmetry_equiv_pos_site_id
_symmetry_equiv_pos_as_xyz
1 x,y,z
2 1/2-x,-y,1/2+z
3 -x,1/2+y,1/2-z
4 1/2+x,1/2-y,-z
_cell_length_a                   11.0725(7)
_cell_length_b                   12.6254(9)
_cell_length_c                   19.3597(11)
_cell_angle_alpha                90
_cell_angle_beta                 90
_cell_angle_gamma                90
_cell_volume                     2706.38
_exptl_crystal_colour            white
_exptl_crystal_description       needle
_cell_formula_units_Z            4
loop_
_atom_site_label
_atom_site_type_symbol
_atom_site_fract_x
_atom_site_fract_y
_atom_site_fract_z
P1 P 0.39909(10) 0.76908(9) 1.00471(5)
O1 O 0.5342(2) 0.7608(3) 0.99927(17)
N1 N 0.3980(5) 0.5625(3) 1.03986(19)
H1 H 0.4777 0.5761 1.0419
C1 C 0.2545(8) 0.5233(5) 0.8005(3)
H2 H 0.3351 0.4966 0.7951
H3 H 0.2121 0.5176 0.7574
H4 H 0.2131 0.4826 0.8351
C2 C 0.2595(6) 0.6407(4) 0.8230(2)
H5 H 0.1762 0.6661 0.8269
C3 C 0.3231(6) 0.7105(5) 0.7720(3)
H6 H 0.4054 0.6858 0.7661
H7 H 0.2829 0.7054 0.7276
C4 C 0.3250(6) 0.8255(5) 0.7950(2)
H8 H 0.2429 0.8522 0.7964
H9 H 0.3695 0.8671 0.7615
C5 C 0.3845(4) 0.8395(4) 0.8680(2)
H10 H 0.4688 0.8166 0.8642
C6 C 0.3226(4) 0.7665(4) 0.92060(18)
H11 H 0.2395 0.7912 0.9271
C7 C 0.3180(5) 0.6507(4) 0.8941(2)
H12 H 0.3995 0.6229 0.8919
H13 H 0.2730 0.6079 0.9268
C8 C 0.3855(5) 0.9574(5) 0.8864(3)
H14 H 0.4221 0.9629 0.9323
C9 C 0.4682(6) 1.0212(5) 0.8364(3)
H15 H 0.4235 1.0397 0.7957
H16 H 0.5366 0.9787 0.8238
H17 H 0.4955 1.0845 0.8590
C10 C 0.2636(6) 1.0101(5) 0.8912(3)
H18 H 0.2729 1.0801 0.9099
H19 H 0.2119 0.9692 0.9207
H20 H 0.2284 1.0146 0.8459
C11 C 0.3527(5) 0.8863(4) 1.0511(2)
C12 C 0.2334(5) 0.9146(4) 1.0599(3)
H21 H 0.1736 0.8736 1.0394
C13 C 0.4409(5) 0.9496(4) 1.0815(3)
H22 H 0.5214 0.9299 1.0765
C14 C 0.4152(6) 1.0396(5) 1.1185(3)
H23 H 0.4762 1.0811 1.1374
C15 C 0.2994(6) 1.0649(5) 1.1262(3)
H24 H 0.2808 1.1261 1.1508
C16 C 0.1999(5) 1.0028(5) 1.0986(3)
H25 H 0.1195 1.0207 1.1062
C17 C 0.3369(4) 0.6597(4) 1.0584(2)
H26 H 0.2513 0.6515 1.0465
C18 C 0.3444(4) 0.6879(4) 1.1349(2)
C19 C 0.2416(5) 0.7186(5) 1.1715(3)
H27 H 0.1667 0.7180 1.1497
C20 C 0.2498(6) 0.7498(5) 1.2400(3)
H28 H 0.1807 0.7702 1.2638
C21 C 0.3611(6) 0.7505(5) 1.2729(3)
H29 H 0.3675 0.7736 1.3184
C22 C 0.4604(5) 0.7174(5) 1.2381(3)
H30 H 0.5345 0.7153 1.2607
C23 C 0.4534(5) 0.6867(5) 1.1699(3)
H31 H 0.5230 0.6649 1.1470
C24 C 0.3793(6) 0.4645(6) 1.0757(4)
H32 H 0.4040 0.4774 1.1236
C25 C 0.4597(9) 0.3675(8) 1.0493(6)
H33 H 0.4614 0.3130 1.0846
H34 H 0.5419 0.3916 1.0420
C26 C 0.4130(10) 0.3222(10) 0.9849(6)
H35 H 0.4444 0.3638 0.9468
H36 H 0.4454 0.2512 0.9803
C27 C 0.2843(11) 0.3162(9) 0.9776(6)
H37 H 0.2465 0.2620 0.9533
C28 C 0.2184(9) 0.3998(7) 1.0104(4)
H38 H 0.2211 0.4605 0.9797
H39 H 0.1347 0.3774 1.0129
C29 C 0.2520(7) 0.4370(7) 1.0787(4)
H40 H 0.2017 0.4422 1.1170
H41? H 0.3807 0.5502 0.9952
loop_
_geom_bond_atom_site_label_1
_geom_bond_atom_site_label_2
_geom_bond_site_symmetry_1
_geom_bond_site_symmetry_2
P1 O1 1_555 1_555
N1 H1 1_555 1_555
C1 H2 1_555 1_555
H3 C1 1_555 1_555
H4 C1 1_555 1_555
C2 C1 1_555 1_555
H5 C2 1_555 1_555
C3 C2 1_555 1_555
H6 C3 1_555 1_555
H7 C3 1_555 1_555
C4 C3 1_555 1_555
H8 C4 1_555 1_555
H9 C4 1_555 1_555
C5 C4 1_555 1_555
H10 C5 1_555 1_555
C6 P1 1_555 1_555
H11 C6 1_555 1_555
C7 C2 1_555 1_555
H12 C7 1_555 1_555
H13 C7 1_555 1_555
C8 C5 1_555 1_555
H14 C8 1_555 1_555
C9 C8 1_555 1_555
H15 C9 1_555 1_555
H16 C9 1_555 1_555
H17 C9 1_555 1_555
C10 C8 1_555 1_555
H18 C10 1_555 1_555
H19 C10 1_555 1_555
H20 C10 1_555 1_555
C11 P1 1_555 1_555
C12 C11 1_555 1_555
H21 C12 1_555 1_555
C13 C11 1_555 1_555
H22 C13 1_555 1_555
C14 C13 1_555 1_555
H23 C14 1_555 1_555
C15 C14 1_555 1_555
H24 C15 1_555 1_555
C16 C12 1_555 1_555
H25 C16 1_555 1_555
C17 P1 1_555 1_555
H26 C17 1_555 1_555
C18 C17 1_555 1_555
C19 C18 1_555 1_555
H27 C19 1_555 1_555
C20 C19 1_555 1_555
H28 C20 1_555 1_555
C21 C20 1_555 1_555
H29 C21 1_555 1_555
C22 C21 1_555 1_555
H30 C22 1_555 1_555
C23 C18 1_555 1_555
H31 C23 1_555 1_555
C24 N1 1_555 1_555
H32 C24 1_555 1_555
C25 C24 1_555 1_555
H33 C25 1_555 1_555
H34 C25 1_555 1_555
C26 C25 1_555 1_555
H35 C26 1_555 1_555
H36 C26 1_555 1_555
C27 C26 1_555 1_555
H37 C27 1_555 1_555
C28 C27 1_555 1_555
H38 C28 1_555 1_555
H39 C28 1_555 1_555
C29 C24 1_555 1_555
H40 C29 1_555 1_555
N1 C17 1_555 1_555
C5 C6 1_555 1_555
C6 C7 1_555 1_555
C15 C16 1_555 1_555
C22 C23 1_555 1_555
C28 C29 1_555 1_555

#END
