
#######################################################################
#
#                 Cambridge Crystallographic Data Centre
#                                CCDC 
#
#######################################################################
#
# If this CIF has been generated from an entry in the Cambridge 
# Structural Database, then it will include bibliographic, chemical, 
# crystal, experimental, refinement or atomic coordinate data resulting 
# from the CCDC's data processing and validation procedures.
#
#######################################################################

data_ATUWES
_chemical_formula_moiety         'C18 H15 Cl2 N3 S2'
_chemical_name_systematic        
4,5-bis(5-Chloro-2-methyl-3-thienyl)-1-methyl-2-(1H-pyrrol-2-yl)-1H-imidazole
_symmetry_cell_setting           monoclinic
_symmetry_space_group_name_H-M   'C 2/c'
_symmetry_Int_Tables_number      15
_space_group_name_Hall           '-C 2yn'
loop_
_symmetry_equiv_pos_site_id
_symmetry_equiv_pos_as_xyz
1 x,y,z
2 -x,y,1/2-z
3 1/2+x,1/2+y,z
4 1/2-x,1/2+y,1/2-z
5 -x,-y,-z
6 x,-y,1/2+z
7 1/2-x,1/2-y,-z
8 1/2+x,1/2-y,1/2+z
_cell_length_a                   37.0221(6)
_cell_length_b                   6.6864(1)
_cell_length_c                   16.5693(3)
_cell_angle_alpha                90
_cell_angle_beta                 111.463(2)
_cell_angle_gamma                90
_cell_volume                     3817.21
_exptl_crystal_colour            yellow
_exptl_crystal_description       block
_chemical_melting_point          '194-196 deg.C'
_cell_formula_units_Z            8
_chemical_properties_physical    light-sensitive
_exptl_crystal_recrystallization_method dichloromethane/hexane
_exptl_crystal_preparation       photochromic
loop_
_atom_site_label
_atom_site_type_symbol
_atom_site_fract_x
_atom_site_fract_y
_atom_site_fract_z
C1 C 0.00691(6) 1.1200(3) 0.11025(13)
C2 C -0.00623(7) 1.2312(3) 0.03467(14)
H1 H 0.0090 1.3061 0.0119
C3 C -0.04669(7) 1.2102(3) -0.00136(14)
H2 H -0.0632 1.2686 -0.0525
C4 C -0.05739(6) 1.0897(3) 0.05164(14)
H3 H -0.0826 1.0509 0.0433
C5 C 0.04482(6) 1.0669(3) 0.17188(12)
C6 C 0.08977(5) 0.9131(3) 0.27542(13)
C7 C 0.10826(6) 1.0482(3) 0.24159(13)
C8 C 0.08576(7) 1.3034(4) 0.12197(17)
H4 H 0.0763 1.2606 0.0626
H5 H 0.1130 1.3318 0.1406
H6 H 0.0721 1.4219 0.1272
C9 C 0.10682(5) 0.7757(3) 0.34841(12)
C10 C 0.14418(6) 0.8114(4) 0.41535(14)
H7 H 0.1599 0.9201 0.4158
C11 C 0.15360(6) 0.6700(4) 0.47691(14)
C12 C 0.08989(5) 0.6058(3) 0.36312(12)
C13 C 0.05166(6) 0.5113(3) 0.31049(15)
H8 H 0.0329 0.5422 0.3361
H9 H 0.0548 0.3689 0.3094
H10 H 0.0429 0.5625 0.2524
C14 C 0.14985(6) 1.0953(3) 0.26535(13)
C15 C 0.16820(7) 1.2623(4) 0.31608(17)
H11 H 0.1552 1.3588 0.3356
C16 C 0.20680(7) 1.2658(4) 0.33300(16)
C17 C 0.17461(7) 0.9793(4) 0.24261(16)
C18 C 0.16609(9) 0.7925(5) 0.1894(2)
H12 H 0.1387 0.7671 0.1678
H13 H 0.1796 0.6821 0.2246
H14 H 0.1746 0.8084 0.1415
Cl1 Cl 0.19474(2) 0.65706(14) 0.56838(5)
Cl2 Cl 0.23958(3) 1.43986(17) 0.39257(6)
N1 N -0.02486(5) 1.0355(2) 0.11903(11)
H15 H -0.0244 0.9589 0.1611
N2 N 0.05007(4) 0.9266(2) 0.23163(10)
N3 N 0.07938(5) 1.1453(3) 0.17604(11)
S1 S 0.118888(16) 0.48854(8) 0.45820(3)
S2 S 0.221310(18) 1.07180(13) 0.28606(5)
loop_
_geom_bond_atom_site_label_1
_geom_bond_atom_site_label_2
_geom_bond_site_symmetry_1
_geom_bond_site_symmetry_2
C1 C2 1_555 1_555
C2 H1 1_555 1_555
C3 C2 1_555 1_555
H2 C3 1_555 1_555
C4 C3 1_555 1_555
H3 C4 1_555 1_555
C5 C1 1_555 1_555
C6 C7 1_555 1_555
C7 C14 1_555 1_555
C8 H4 1_555 1_555
H5 C8 1_555 1_555
H6 C8 1_555 1_555
C9 C6 1_555 1_555
C10 C9 1_555 1_555
H7 C10 1_555 1_555
C11 C10 1_555 1_555
C12 C9 1_555 1_555
C13 C12 1_555 1_555
H8 C13 1_555 1_555
H9 C13 1_555 1_555
H10 C13 1_555 1_555
C14 C15 1_555 1_555
C15 H11 1_555 1_555
C16 C15 1_555 1_555
C17 C14 1_555 1_555
C18 C17 1_555 1_555
H12 C18 1_555 1_555
H13 C18 1_555 1_555
H14 C18 1_555 1_555
Cl1 C11 1_555 1_555
Cl2 C16 1_555 1_555
N1 C1 1_555 1_555
H15 N1 1_555 1_555
N2 C5 1_555 1_555
N3 C5 1_555 1_555
S1 C11 1_555 1_555
S2 C16 1_555 1_555
C4 N1 1_555 1_555
C6 N2 1_555 1_555
C7 N3 1_555 1_555
C8 N3 1_555 1_555
C12 S1 1_555 1_555
C17 S2 1_555 1_555

#END
