
#######################################################################
#
#                 Cambridge Crystallographic Data Centre
#                                CCDC 
#
#######################################################################
#
# If this CIF has been generated from an entry in the Cambridge 
# Structural Database, then it will include bibliographic, chemical, 
# crystal, experimental, refinement or atomic coordinate data resulting 
# from the CCDC's data processing and validation procedures.
#
#######################################################################

data_ATUZIY02
_chemical_name_common            '2-picolylammonium nitrate'
_chemical_formula_moiety         'C6 H9 N2 1+,N1 O3 1-'
_chemical_name_systematic        '(2-pyridylmethyl)ammonium nitrate'
_symmetry_cell_setting           monoclinic
_symmetry_space_group_name_H-M   'P 21/c'
_symmetry_Int_Tables_number      14
_space_group_name_Hall           '-P 2ybc'
loop_
_symmetry_equiv_pos_site_id
_symmetry_equiv_pos_as_xyz
1 x,y,z
2 -x,1/2+y,1/2-z
3 -x,-y,-z
4 x,1/2-y,1/2+z
_cell_length_a                   8.2475(9)
_cell_length_b                   10.4260(11)
_cell_length_c                   9.3990(10)
_cell_angle_alpha                90
_cell_angle_beta                 105.289(3)
_cell_angle_gamma                90
_cell_volume                     779.601
_exptl_crystal_colour            colorless
_exptl_crystal_description       prism
_cell_formula_units_Z            4
loop_
_atom_site_label
_atom_site_type_symbol
_atom_site_fract_x
_atom_site_fract_y
_atom_site_fract_z
N1 N 0.29986(9) 0.06363(7) 0.59917(8)
C1 C 0.25116(10) 0.17823(8) 0.53914(8)
C2 C 0.36304(11) 0.24400(8) 0.45837(9)
N2 N 0.52210(9) 0.17314(7) 0.47283(8)
C3 C 0.10419(11) 0.23909(9) 0.54968(10)
C4 C 0.00385(11) 0.17811(10) 0.62636(10)
C5 C 0.05304(12) 0.05962(10) 0.68980(10)
C6 C 0.20072(12) 0.00630(9) 0.67370(10)
H1 H 0.3935(15) 0.3287(12) 0.4981(13)
H2 H 0.3068(15) 0.2508(12) 0.3512(14)
H3 H 0.5766(17) 0.1634(12) 0.5710(15)
H4 H 0.5883(17) 0.2182(13) 0.4273(15)
H5 H 0.5027(15) 0.0960(12) 0.4275(13)
H6 H 0.0802(17) 0.3241(13) 0.5067(14)
H7 H -0.0976(17) 0.2153(13) 0.6347(15)
H8 H -0.0098(18) 0.0122(14) 0.7482(16)
H9 H 0.2377(16) -0.0758(13) 0.7173(14)
N3 N 0.68576(9) 0.07256(7) 0.84393(8)
O1 O 0.66759(8) 0.18298(6) 0.78303(7)
O2 O 0.70691(12) 0.06576(8) 0.97898(8)
O3 O 0.68244(9) -0.02440(6) 0.76670(8)
loop_
_geom_bond_atom_site_label_1
_geom_bond_atom_site_label_2
_geom_bond_site_symmetry_1
_geom_bond_site_symmetry_2
N1 C1 1_555 1_555
C1 C2 1_555 1_555
C2 N2 1_555 1_555
N2 H3 1_555 1_555
C3 C1 1_555 1_555
C4 C3 1_555 1_555
C5 C4 1_555 1_555
C6 N1 1_555 1_555
H1 C2 1_555 1_555
H2 C2 1_555 1_555
H4 N2 1_555 1_555
H5 N2 1_555 1_555
H6 C3 1_555 1_555
H7 C4 1_555 1_555
H8 C5 1_555 1_555
H9 C6 1_555 1_555
N3 O1 1_555 1_555
O2 N3 1_555 1_555
O3 N3 1_555 1_555
C5 C6 1_555 1_555

#END
