
#######################################################################
#
#                 Cambridge Crystallographic Data Centre
#                                CCDC 
#
#######################################################################
#
# If this CIF has been generated from an entry in the Cambridge 
# Structural Database, then it will include bibliographic, chemical, 
# crystal, experimental, refinement or atomic coordinate data resulting 
# from the CCDC's data processing and validation procedures.
#
#######################################################################

data_ATUZIY
_chemical_formula_moiety         'C6 H9 N2 1+,N1 O3 1-'
_chemical_name_systematic        '(2-Pyridylmethyl)ammonium nitrate'
_symmetry_cell_setting           monoclinic
_symmetry_space_group_name_H-M   'P 21/c'
_symmetry_Int_Tables_number      14
_space_group_name_Hall           '-P 2ybc'
loop_
_symmetry_equiv_pos_site_id
_symmetry_equiv_pos_as_xyz
1 x,y,z
2 x,1/2-y,1/2+z
3 -x,-y,-z
4 -x,1/2+y,1/2-z
_cell_length_a                   8.2492(4)
_cell_length_b                   10.4014(5)
_cell_length_c                   9.3850(5)
_cell_angle_alpha                90
_cell_angle_beta                 105.171(4)
_cell_angle_gamma                90
_cell_volume                     777.199
_exptl_crystal_colour            colorless
_exptl_crystal_description       block
_cell_formula_units_Z            4
_exptl_crystal_recrystallization_method 'hot methanol'
loop_
_atom_site_label
_atom_site_type_symbol
_atom_site_fract_x
_atom_site_fract_y
_atom_site_fract_z
N1 N 0.30006(17) 0.43664(13) 0.09967(14)
N2 N 0.52094(18) 0.32680(14) -0.02714(16)
H1 H 0.502(2) 0.4097(19) -0.073(2)
H2 H 0.590(2) 0.2819(18) -0.073(2)
H3 H 0.578(2) 0.3381(17) 0.073(2)
C1 C 0.2010(2) 0.49371(18) 0.17383(18)
H4 H 0.2345 0.5751 0.2176
C2 C 0.0542(2) 0.44125(18) 0.19013(19)
H5 H -0.0119 0.4854 0.2435
C3 C 0.0050(2) 0.32320(19) 0.12727(19)
H6 H -0.0961 0.2844 0.1363
C4 C 0.1047(2) 0.26232(18) 0.05104(18)
H7 H 0.0739 0.1807 0.0069
C5 C 0.2507(2) 0.32224(16) 0.03990(17)
C6 C 0.3627(2) 0.25603(16) -0.04054(18)
H8 H 0.3888 0.1683 0.0000
H9 H 0.3025 0.2479 -0.1462
O1 O 0.66629(15) 0.31660(11) 0.28255(12)
O2 O 0.68263(16) 0.52342(12) 0.26607(14)
O3 O 0.7063(2) 0.43410(13) 0.47739(14)
N3 N 0.68525(17) 0.42684(14) 0.34289(15)
loop_
_geom_bond_atom_site_label_1
_geom_bond_atom_site_label_2
_geom_bond_site_symmetry_1
_geom_bond_site_symmetry_2
N1 C1 1_555 1_555
N2 H1 1_555 1_555
H2 N2 1_555 1_555
H3 N2 1_555 1_555
C1 H4 1_555 1_555
C2 C1 1_555 1_555
H5 C2 1_555 1_555
C3 C2 1_555 1_555
H6 C3 1_555 1_555
C4 C3 1_555 1_555
H7 C4 1_555 1_555
C5 N1 1_555 1_555
C6 N2 1_555 1_555
H8 C6 1_555 1_555
H9 C6 1_555 1_555
O1 N3 1_555 1_555
O2 N3 1_555 1_555
O3 N3 1_555 1_555
C4 C5 1_555 1_555
C5 C6 1_555 1_555

#END
