
#######################################################################
#
#                 Cambridge Crystallographic Data Centre
#                                CCDC 
#
#######################################################################
#
# If this CIF has been generated from an entry in the Cambridge 
# Structural Database, then it will include bibliographic, chemical, 
# crystal, experimental, refinement or atomic coordinate data resulting 
# from the CCDC's data processing and validation procedures.
#
#######################################################################

data_ATYREE02
_chemical_formula_moiety         'C13 H17 N1 O4,H2 O1'
_chemical_name_systematic        'N-Acetyl-L-tyrosine ethyl ester monohydrate'
_symmetry_cell_setting           orthorhombic
_symmetry_space_group_name_H-M   'P 21 21 21'
_symmetry_Int_Tables_number      19
_space_group_name_Hall           'P 2ac 2ab'
loop_
_symmetry_equiv_pos_site_id
_symmetry_equiv_pos_as_xyz
1 x,y,z
2 1/2-x,-y,1/2+z
3 -x,1/2+y,1/2-z
4 1/2+x,1/2-y,-z
_cell_length_a                   7.235(2)
_cell_length_b                   13.056(4)
_cell_length_c                   14.415(4)
_cell_angle_alpha                90
_cell_angle_beta                 90
_cell_angle_gamma                90
_cell_volume                     1361.64
_exptl_crystal_colour            colorless
_exptl_crystal_description       prism
_cell_formula_units_Z            4
loop_
_atom_site_label
_atom_site_type_symbol
_atom_site_fract_x
_atom_site_fract_y
_atom_site_fract_z
O1 O 0.23164(13) 0.20571(4) 0.42334(4)
O2 O 0.57804(8) 0.03798(4) 0.37422(5)
O3 O 0.19614(9) 0.12871(4) 0.56155(4)
O4 O -0.02619(10) -0.44263(4) 0.32345(4)
H1 H 0.031(4) -0.491(2) 0.364(2)
N1 N 0.27588(7) 0.01970(3) 0.33598(3)
H2 H 0.178(4) 0.024(4) 0.284(2)
C1 C 0.21351(6) 0.01977(3) 0.43117(3)
H3 H 0.311(2) -0.024(2) 0.472(2)
C2 C 0.45551(7) 0.03238(3) 0.31432(3)
C3 C 0.21534(6) 0.12880(3) 0.47020(3)
C4 C 0.00760(7) -0.13705(3) 0.40996(3)
C5 C 0.10085(7) -0.21384(4) 0.45900(3)
H4 H 0.185(4) -0.193(2) 0.517(2)
C6 C 0.20187(9) 0.22828(4) 0.60674(4)
H5 H 0.094(4) 0.273(2) 0.573(2)
H6 H 0.336(4) 0.262(2) 0.593(2)
C7 C 0.01763(6) -0.02579(3) 0.43907(3)
H7 H -0.026(5) -0.016(2) 0.510(2)
H8 H -0.076(4) 0.021(2) 0.398(2)
C8 C 0.49913(8) 0.04026(4) 0.21235(3)
H9 H 0.636(5) 0.011(3) 0.198(2)
H10 H 0.494(5) 0.121(3) 0.194(2)
H11 H 0.392(5) 0.006(3) 0.169(2)
C9 C -0.01333(7) -0.34367(4) 0.35433(3)
C10 C -0.10879(8) -0.26824(4) 0.30497(4)
H12 H -0.187(4) -0.288(2) 0.244(2)
C11 C 0.09113(7) -0.31631(3) 0.43194(3)
H13 H 0.161(4) -0.375(2) 0.470(2)
C12 C -0.09781(7) -0.16620(3) 0.33312(3)
H14 H -0.171(2) -0.107(2) 0.295(2)
C13 C 0.16687(10) 0.21257(4) 0.70827(4)
H15 H 0.199(4) 0.284(2) 0.743(2)
H16 H 0.255(4) 0.154(2) 0.737(2)
H17 H 0.024(4) 0.190(2) 0.720(2)
O5 O 0.14436(8) 0.42520(4) 0.43837(4)
H18 H 0.118(4) 0.432(2) 0.504(2)
H19 H 0.158(4) 0.353(2) 0.426(2)
loop_
_geom_bond_atom_site_label_1
_geom_bond_atom_site_label_2
_geom_bond_site_symmetry_1
_geom_bond_site_symmetry_2
O1 C3 1_555 1_555
O2 C2 1_555 1_555
O3 C3 1_555 1_555
O4 H1 1_555 1_555
N1 H2 1_555 1_555
C1 N1 1_555 1_555
H3 C1 1_555 1_555
C2 N1 1_555 1_555
C3 C1 1_555 1_555
C4 C5 1_555 1_555
C5 H4 1_555 1_555
C6 O3 1_555 1_555
H5 C6 1_555 1_555
H6 C6 1_555 1_555
C7 C1 1_555 1_555
H7 C7 1_555 1_555
H8 C7 1_555 1_555
C8 C2 1_555 1_555
H9 C8 1_555 1_555
H10 C8 1_555 1_555
H11 C8 1_555 1_555
C9 O4 1_555 1_555
C10 C9 1_555 1_555
H12 C10 1_555 1_555
C11 C5 1_555 1_555
H13 C11 1_555 1_555
C12 C4 1_555 1_555
H14 C12 1_555 1_555
C13 C6 1_555 1_555
H15 C13 1_555 1_555
H16 C13 1_555 1_555
H17 C13 1_555 1_555
O5 H18 1_555 1_555
H19 O5 1_555 1_555
C4 C7 1_555 1_555
C9 C11 1_555 1_555
C10 C12 1_555 1_555

#END
