
#######################################################################
#
#                 Cambridge Crystallographic Data Centre
#                                CCDC 
#
#######################################################################
#
# If this CIF has been generated from an entry in the Cambridge 
# Structural Database, then it will include bibliographic, chemical, 
# crystal, experimental, refinement or atomic coordinate data resulting 
# from the CCDC's data processing and validation procedures.
#
#######################################################################

data_AVACUW
_chemical_formula_moiety         'C21 H22 Cl1 N1 O2'
_chemical_name_systematic        
'(2R,3S)-t-Butyl 3-(4-chlorophenyl)-5-phenyl-3,4-dihydro-2H-pyrrole-2-carboxylate'
_symmetry_cell_setting           monoclinic
_symmetry_space_group_name_H-M   'P 21'
_symmetry_Int_Tables_number      4
_space_group_name_Hall           'P 2yb'
loop_
_symmetry_equiv_pos_site_id
_symmetry_equiv_pos_as_xyz
1 x,y,z
2 -x,1/2+y,-z
_cell_length_a                   8.9481(7)
_cell_length_b                   6.2416(5)
_cell_length_c                   16.8398(14)
_cell_angle_alpha                90
_cell_angle_beta                 94.779(2)
_cell_angle_gamma                90
_cell_volume                     937.241
_exptl_crystal_colour            colorless
_exptl_crystal_description       block
_chemical_melting_point          '79-81 deg.C'
_cell_formula_units_Z            2
loop_
_atom_site_label
_atom_site_type_symbol
_atom_site_fract_x
_atom_site_fract_y
_atom_site_fract_z
Cl1 Cl 0.82385(7) 0.42899(14) 0.54659(3)
N1 N 0.4727(2) 1.1390(3) 0.21338(12)
O1 O 0.17393(14) 1.2426(2) 0.28245(8)
O2 O 0.15024(19) 0.9620(3) 0.19778(11)
C1 C 0.3877(2) 1.0280(4) 0.27195(13)
H1 H 0.4134 1.0881 0.3258
C2 C 0.4292(2) 0.7867(4) 0.27078(13)
H2 H 0.3366 0.7001 0.2625
C3 C 0.5181(3) 0.7703(4) 0.19674(13)
H3 H 0.6149 0.6995 0.2095
H4 H 0.4615 0.6908 0.1540
C4 C 0.5396(2) 1.0009(4) 0.17309(13)
C5 C 0.6275(2) 1.0645(4) 0.10664(13)
C6 C 0.7284(3) 0.9235(5) 0.07588(14)
H5 H 0.7421 0.7858 0.0979
C7 C 0.8092(3) 0.9857(5) 0.01251(16)
H6 H 0.8773 0.8894 -0.0078
C8 C 0.7907(3) 1.1854(5) -0.02059(16)
H7 H 0.8464 1.2267 -0.0630
C9 C 0.6892(3) 1.3257(5) 0.00893(15)
H8 H 0.6748 1.4623 -0.0140
C10 C 0.6090(3) 1.2661(4) 0.07168(14)
H9 H 0.5406 1.3631 0.0913
C11 C 0.5201(2) 0.7112(3) 0.34552(12)
C12 C 0.6435(2) 0.8247(4) 0.37862(13)
H10 H 0.6650 0.9601 0.3579
C13 C 0.7355(2) 0.7426(5) 0.44149(13)
H11 H 0.8187 0.8212 0.4633
C14 C 0.7035(2) 0.5448(4) 0.47162(12)
C15 C 0.5775(3) 0.4325(4) 0.44339(13)
H12 H 0.5538 0.3006 0.4662
C16 C 0.4860(3) 0.5183(4) 0.38040(13)
H13 H 0.3992 0.4436 0.3611
C17 C 0.2219(2) 1.0694(3) 0.24596(12)
C18 C 0.0197(2) 1.3247(4) 0.26449(12)
C19 C -0.0011(3) 1.3984(5) 0.17883(14)
H14 H 0.0777 1.4989 0.1686
H15 H -0.0979 1.4679 0.1692
H16 H 0.0034 1.2758 0.1437
C20 C 0.0152(3) 1.5118(5) 0.32148(17)
H17 H 0.0348 1.4610 0.3758
H18 H -0.0830 1.5783 0.3152
H19 H 0.0909 1.6159 0.3099
C21 C -0.0942(3) 1.1567(5) 0.28387(17)
H20 H -0.0945 1.0413 0.2453
H21 H -0.1931 1.2212 0.2818
H22 H -0.0680 1.1004 0.3369
loop_
_geom_bond_atom_site_label_1
_geom_bond_atom_site_label_2
_geom_bond_site_symmetry_1
_geom_bond_site_symmetry_2
Cl1 C14 1_555 1_555
N1 C1 1_555 1_555
O1 C17 1_555 1_555
O2 C17 1_555 1_555
C1 H1 1_555 1_555
C2 C1 1_555 1_555
H2 C2 1_555 1_555
C3 C2 1_555 1_555
H3 C3 1_555 1_555
H4 C3 1_555 1_555
C4 N1 1_555 1_555
C5 C4 1_555 1_555
C6 C5 1_555 1_555
H5 C6 1_555 1_555
C7 C6 1_555 1_555
H6 C7 1_555 1_555
C8 C7 1_555 1_555
H7 C8 1_555 1_555
C9 C8 1_555 1_555
H8 C9 1_555 1_555
C10 C5 1_555 1_555
H9 C10 1_555 1_555
C11 C2 1_555 1_555
C12 C11 1_555 1_555
H10 C12 1_555 1_555
C13 C12 1_555 1_555
H11 C13 1_555 1_555
C14 C13 1_555 1_555
C15 C14 1_555 1_555
H12 C15 1_555 1_555
C16 C11 1_555 1_555
H13 C16 1_555 1_555
C17 C1 1_555 1_555
C18 O1 1_555 1_555
C19 C18 1_555 1_555
H14 C19 1_555 1_555
H15 C19 1_555 1_555
H16 C19 1_555 1_555
C20 C18 1_555 1_555
H17 C20 1_555 1_555
H18 C20 1_555 1_555
H19 C20 1_555 1_555
C21 C18 1_555 1_555
H20 C21 1_555 1_555
H21 C21 1_555 1_555
H22 C21 1_555 1_555
C3 C4 1_555 1_555
C9 C10 1_555 1_555
C15 C16 1_555 1_555

#END
