
#######################################################################
#
#                 Cambridge Crystallographic Data Centre
#                                CCDC 
#
#######################################################################
#
# If this CIF has been generated from an entry in the Cambridge 
# Structural Database, then it will include bibliographic, chemical, 
# crystal, experimental, refinement or atomic coordinate data resulting 
# from the CCDC's data processing and validation procedures.
#
#######################################################################

data_AVADAD
_chemical_formula_moiety         'C34 H36 N5 1+,Cl1 1-,C4 H8 O2,H2 O1'
_chemical_name_systematic        
'(S,S)-2-((1,3-Dimethyl-4,5-diphenylimidazolidin-2-ylidene)amino)-1,3-dimethyl-4,5-diphenyl-4,5-dihydro-1H-imidazol-3-ium chloride ethyl acetate solvate monohydrate'
_symmetry_cell_setting           orthorhombic
_symmetry_space_group_name_H-M   'P 21 21 21'
_symmetry_Int_Tables_number      19
_space_group_name_Hall           'P 2ac 2ab'
loop_
_symmetry_equiv_pos_site_id
_symmetry_equiv_pos_as_xyz
1 x,y,z
2 1/2-x,-y,1/2+z
3 -x,1/2+y,1/2-z
4 1/2+x,1/2-y,-z
_cell_length_a                   10.1917(4)
_cell_length_b                   17.7338(7)
_cell_length_c                   20.2101(8)
_cell_angle_alpha                90
_cell_angle_beta                 90
_cell_angle_gamma                90
_cell_volume                     3652.72
_exptl_crystal_colour            colorless
_exptl_crystal_description       block
_chemical_melting_point          '276-278 deg.C'
_cell_formula_units_Z            4
_exptl_crystal_recrystallization_method 'dichloromethane/ethyl acetate'
loop_
_atom_site_label
_atom_site_type_symbol
_atom_site_fract_x
_atom_site_fract_y
_atom_site_fract_z
Cl1 Cl 0.39920(6) 0.47081(4) 0.11636(4)
N1 N 0.82939(18) 0.50161(9) 0.06562(9)
N2 N 0.94240(18) 0.61481(9) 0.06586(8)
N3 N 0.79702(17) 0.60035(9) 0.14597(8)
N4 N 0.70810(16) 0.39154(9) 0.05734(8)
N5 N 0.79637(18) 0.41377(9) 0.15552(8)
C1 C 0.8547(2) 0.56729(10) 0.09344(9)
C2 C 0.96469(19) 0.68025(10) 0.10915(9)
H1 H 1.0414 0.6703 0.1379
C3 C 0.83844(19) 0.67930(10) 0.15158(9)
H2 H 0.7717 0.7119 0.1304
C4 C 1.0437(2) 0.59035(12) 0.01995(12)
H3 H 1.1186 0.5716 0.0446
H4 H 1.0707 0.6326 -0.0073
H5 H 1.0094 0.5505 -0.0080
C5 C 0.6694(2) 0.57887(13) 0.17148(11)
H6 H 0.6199 0.5535 0.1371
H7 H 0.6223 0.6236 0.1856
H8 H 0.6806 0.5452 0.2089
C6 C 0.9875(2) 0.75253(10) 0.07088(10)
C7 C 0.9009(3) 0.77544(12) 0.02208(10)
H9 H 0.8255 0.7467 0.0131
C8 C 0.9254(3) 0.84089(13) -0.01364(11)
H10 H 0.8662 0.8565 -0.0466
C9 C 1.0360(3) 0.88292(14) -0.00093(14)
H11 H 1.0527 0.9269 -0.0255
C10 C 1.1217(3) 0.86086(14) 0.04727(17)
H12 H 1.1968 0.8899 0.0561
C11 C 1.0975(2) 0.79539(13) 0.08333(13)
H13 H 1.1568 0.7803 0.1164
C12 C 0.8560(2) 0.70376(11) 0.22283(10)
C13 C 0.7884(2) 0.76538(14) 0.24762(12)
H14 H 0.7328 0.7931 0.2196
C14 C 0.8021(3) 0.78671(15) 0.31358(13)
H15 H 0.7555 0.8285 0.3299
C15 C 0.8832(3) 0.74690(15) 0.35473(12)
H16 H 0.8924 0.7614 0.3992
C16 C 0.9518(3) 0.68502(15) 0.33054(11)
H17 H 1.0079 0.6577 0.3586
C17 C 0.9377(2) 0.66379(13) 0.26524(10)
H18 H 0.9839 0.6217 0.2492
C18 C 0.77887(19) 0.44053(11) 0.09353(9)
C19 C 0.6544(2) 0.33142(10) 0.09939(9)
H19 H 0.5644 0.3452 0.1134
C20 C 0.7473(2) 0.33554(11) 0.15949(9)
H20 H 0.8215 0.3005 0.1522
C21 C 0.6444(2) 0.41153(11) -0.00445(10)
H21 H 0.5549 0.4272 0.0043
H22 H 0.6439 0.3682 -0.0337
H23 H 0.6919 0.4526 -0.0253
C22 C 0.9057(3) 0.43575(14) 0.19790(12)
H24 H 0.9612 0.4713 0.1745
H25 H 0.9565 0.3914 0.2095
H26 H 0.8721 0.4591 0.2379
C23 C 0.6513(2) 0.25602(10) 0.06470(10)
C24 C 0.7645(2) 0.22521(12) 0.03764(11)
H27 H 0.8450 0.2503 0.0431
C25 C 0.7604(3) 0.15816(13) 0.00283(12)
H28 H 0.8381 0.1378 -0.0147
C26 C 0.6445(3) 0.12153(13) -0.00622(13)
H29 H 0.6419 0.0765 -0.0308
C27 C 0.5316(3) 0.15040(15) 0.02054(14)
H30 H 0.4517 0.1247 0.0148
C28 C 0.5345(2) 0.21793(13) 0.05634(12)
H31 H 0.4568 0.2373 0.0747
C29 C 0.6809(2) 0.31552(12) 0.22386(9)
C30 C 0.6998(2) 0.24468(13) 0.25082(11)
H32 H 0.7576 0.2106 0.2303
C31 C 0.6336(3) 0.22364(15) 0.30822(12)
H33 H 0.6454 0.1750 0.3258
C32 C 0.5514(3) 0.27350(16) 0.33907(12)
H34 H 0.5082 0.2596 0.3783
C33 C 0.5325(3) 0.34401(16) 0.31248(13)
H35 H 0.4763 0.3783 0.3338
C34 C 0.5952(3) 0.36497(13) 0.25469(12)
H36 H 0.5797 0.4128 0.2363
C35 C 0.8175(4) -0.0271(3) 0.1039(2)
H37 H 0.7623 -0.0596 0.0771
H38 H 0.8751 -0.0578 0.1310
H39 H 0.8697 0.0049 0.0752
C36 C 0.7359(4) 0.0194(2) 0.14616(19)
C37 C 0.5277(3) 0.0610(2) 0.17796(17)
H40 H 0.5544 0.1137 0.1722
H41 H 0.5334 0.0482 0.2250
C38 C 0.3880(4) 0.0491(3) 0.1524(2)
H42 H 0.3831 0.0642 0.1064
H43 H 0.3275 0.0792 0.1784
H44 H 0.3649 -0.0038 0.1564
O1 O 0.7832(3) 0.07034(16) 0.18419(13)
O2 O 0.6122(2) 0.01067(13) 0.13840(12)
O3 O 0.1621(2) 0.55559(14) 0.17331(13)
H45 H 0.214(3) 0.529(2) 0.1505(17)
H46 H 0.182(4) 0.563(2) 0.2124(11)
loop_
_geom_bond_atom_site_label_1
_geom_bond_atom_site_label_2
_geom_bond_site_symmetry_1
_geom_bond_site_symmetry_2
N1 C1 1_555 1_555
N2 C1 1_555 1_555
N3 C1 1_555 1_555
N4 C18 1_555 1_555
N5 C18 1_555 1_555
C2 N2 1_555 1_555
H1 C2 1_555 1_555
C3 N3 1_555 1_555
H2 C3 1_555 1_555
C4 N2 1_555 1_555
H3 C4 1_555 1_555
H4 C4 1_555 1_555
H5 C4 1_555 1_555
C5 N3 1_555 1_555
H6 C5 1_555 1_555
H7 C5 1_555 1_555
H8 C5 1_555 1_555
C6 C2 1_555 1_555
C7 C6 1_555 1_555
H9 C7 1_555 1_555
C8 C7 1_555 1_555
H10 C8 1_555 1_555
C9 C8 1_555 1_555
H11 C9 1_555 1_555
C10 C9 1_555 1_555
H12 C10 1_555 1_555
C11 C6 1_555 1_555
H13 C11 1_555 1_555
C12 C3 1_555 1_555
C13 C12 1_555 1_555
H14 C13 1_555 1_555
C14 C13 1_555 1_555
H15 C14 1_555 1_555
C15 C14 1_555 1_555
H16 C15 1_555 1_555
C16 C15 1_555 1_555
H17 C16 1_555 1_555
C17 C12 1_555 1_555
H18 C17 1_555 1_555
C18 N1 1_555 1_555
C19 N4 1_555 1_555
H19 C19 1_555 1_555
C20 N5 1_555 1_555
H20 C20 1_555 1_555
C21 N4 1_555 1_555
H21 C21 1_555 1_555
H22 C21 1_555 1_555
H23 C21 1_555 1_555
C22 N5 1_555 1_555
H24 C22 1_555 1_555
H25 C22 1_555 1_555
H26 C22 1_555 1_555
C23 C19 1_555 1_555
C24 C23 1_555 1_555
H27 C24 1_555 1_555
C25 C24 1_555 1_555
H28 C25 1_555 1_555
C26 C25 1_555 1_555
H29 C26 1_555 1_555
C27 C26 1_555 1_555
H30 C27 1_555 1_555
C28 C23 1_555 1_555
H31 C28 1_555 1_555
C29 C20 1_555 1_555
C30 C29 1_555 1_555
H32 C30 1_555 1_555
C31 C30 1_555 1_555
H33 C31 1_555 1_555
C32 C31 1_555 1_555
H34 C32 1_555 1_555
C33 C32 1_555 1_555
H35 C33 1_555 1_555
C34 C29 1_555 1_555
H36 C34 1_555 1_555
C35 H37 1_555 1_555
H38 C35 1_555 1_555
H39 C35 1_555 1_555
C36 C35 1_555 1_555
C37 H40 1_555 1_555
H41 C37 1_555 1_555
C38 C37 1_555 1_555
H42 C38 1_555 1_555
H43 C38 1_555 1_555
H44 C38 1_555 1_555
O1 C36 1_555 1_555
O2 C36 1_555 1_555
O3 H45 1_555 1_555
H46 O3 1_555 1_555
C2 C3 1_555 1_555
C10 C11 1_555 1_555
C16 C17 1_555 1_555
C19 C20 1_555 1_555
C27 C28 1_555 1_555
C33 C34 1_555 1_555
C37 O2 1_555 1_555

#END
