
#######################################################################
#
#                 Cambridge Crystallographic Data Centre
#                                CCDC 
#
#######################################################################
#
# If this CIF has been generated from an entry in the Cambridge 
# Structural Database, then it will include bibliographic, chemical, 
# crystal, experimental, refinement or atomic coordinate data resulting 
# from the CCDC's data processing and validation procedures.
#
#######################################################################

data_AVAFUA
_chemical_formula_moiety         'C18 H28 O1,0.25(C6 H14)'
_chemical_name_systematic        '2-phenylcyclododecanol hexane solvate'
_symmetry_cell_setting           triclinic
_symmetry_space_group_name_H-M   'P -1'
_symmetry_Int_Tables_number      2
_space_group_name_Hall           '-P 1'
loop_
_symmetry_equiv_pos_site_id
_symmetry_equiv_pos_as_xyz
1 x,y,z
2 -x,-y,-z
_cell_length_a                   9.3549(19)
_cell_length_b                   13.538(2)
_cell_length_c                   13.573(3)
_cell_angle_alpha                90.499(15)
_cell_angle_beta                 95.688(16)
_cell_angle_gamma                91.985(16)
_cell_volume                     1709.36
_cell_formula_units_Z            4
loop_
_atom_site_label
_atom_site_type_symbol
_atom_site_fract_x
_atom_site_fract_y
_atom_site_fract_z
O1 O -0.13367(12) 0.08137(8) 1.43150(8)
H1 H -0.0837 0.0895 1.4843
C1 C -0.35799(16) 0.15490(11) 1.27450(13)
C2 C -0.04244(16) 0.12719(12) 1.27788(13)
H2 H -0.0478 0.1785 1.2283
H3 H -0.0978 0.0699 1.2500
C3 C -0.25261(16) 0.21696(11) 1.34394(12)
H4 H -0.2962 0.2234 1.4063
C4 C -0.0728(2) 0.48169(12) 1.34990(15)
H5 H -0.1392 0.5173 1.3049
H6 H -0.0411 0.5257 1.4052
C5 C -0.43318(17) 0.07546(12) 1.31187(14)
H7 H -0.4205 0.0623 1.3792
C6 C -0.11030(16) 0.16348(11) 1.36818(12)
H8 H -0.0416 0.2101 1.4047
C7 C 0.21756(17) 0.18513(12) 1.33745(13)
H9 H 0.1812 0.2152 1.3946
H10 H 0.3105 0.1589 1.3592
C8 C -0.22438(18) 0.32228(12) 1.30787(13)
H11 H -0.1631 0.3195 1.2544
H12 H -0.3150 0.3490 1.2814
C9 C 0.11499(17) 0.09935(12) 1.30013(13)
H13 H 0.1200 0.0479 1.3495
H14 H 0.1477 0.0721 1.2403
C10 C -0.54742(18) 0.03405(14) 1.15002(15)
H15 H -0.6103 -0.0062 1.1087
C11 C -0.47447(18) 0.11237(14) 1.11142(14)
H16 H -0.4882 0.1251 1.0440
C12 C -0.52712(18) 0.01546(13) 1.24971(15)
H17 H -0.5764 -0.0375 1.2757
C13 C -0.1532(2) 0.39255(12) 1.38888(14)
H18 H -0.2267 0.4160 1.4281
H19 H -0.0863 0.3558 1.4324
C14 C 0.23856(19) 0.26515(13) 1.26120(13)
H20 H 0.1477 0.2738 1.2218
H21 H 0.3065 0.2427 1.2171
C15 C -0.38029(18) 0.17241(13) 1.17331(13)
H22 H -0.3314 0.2252 1.1466
C16 C 0.1839(2) 0.41765(13) 1.36279(14)
H23 H 0.2325 0.4725 1.4003
H24 H 0.1473 0.3718 1.4096
C17 C 0.0572(2) 0.45675(13) 1.29622(15)
H25 H 0.0897 0.5157 1.2636
H26 H 0.0274 0.4076 1.2452
C18 C 0.29285(19) 0.36543(13) 1.30575(14)
H27 H 0.3790 0.3559 1.3500
H28 H 0.3190 0.4080 1.2528
O2 O -0.06925(12) 0.88795(8) 1.41214(8)
H29 H -0.0919 0.9457 1.4057
C19 C -0.23004(16) 0.83826(11) 1.26383(12)
H30 H -0.2670 0.9047 1.2700
C20 C -0.32730(16) 0.76837(12) 1.31576(12)
C21 C -0.07487(16) 0.84124(11) 1.31645(12)
H31 H -0.0129 0.8799 1.2759
C22 C -0.37900(17) 0.79734(13) 1.40419(13)
H32 H -0.3577 0.8610 1.4289
C23 C -0.23071(17) 0.81586(12) 1.15284(12)
H33 H -0.1777 0.7565 1.1448
H34 H -0.3292 0.8020 1.1254
C24 C 0.15229(17) 0.74161(12) 1.35346(13)
H35 H 0.1801 0.7838 1.4108
H36 H 0.1815 0.6753 1.3703
C25 C -0.12167(18) 0.86294(12) 0.99338(13)
H37 H -0.0941 0.9201 0.9561
H38 H -0.2042 0.8304 0.9562
C26 C -0.16630(18) 0.89840(12) 1.09284(13)
H39 H -0.0828 0.9280 1.1316
H40 H -0.2363 0.9492 1.0809
C27 C -0.36414(17) 0.67291(12) 1.28093(13)
H41 H -0.3327 0.6521 1.2215
C28 C -0.01187(16) 0.74014(11) 1.33268(12)
H42 H -0.0397 0.6994 1.2744
H43 H -0.0535 0.7094 1.3880
C29 C 0.23378(17) 0.77754(12) 1.26811(13)
H44 H 0.3350 0.7848 1.2914
H45 H 0.2009 0.8425 1.2490
C30 C 0.00251(18) 0.79177(12) 1.00156(13)
H46 H -0.0220 0.7371 1.0432
H47 H 0.0127 0.7649 0.9362
C31 C 0.14669(18) 0.83794(12) 1.04367(13)
H48 H 0.1310 0.8829 1.0972
H49 H 0.1870 0.8764 0.9925
C32 C 0.25576(18) 0.76216(13) 1.08258(14)
H50 H 0.2631 0.7127 1.0313
H51 H 0.3493 0.7954 1.0960
C33 C -0.49456(18) 0.63809(14) 1.42045(14)
H52 H -0.5489 0.5948 1.4557
C34 C -0.44648(18) 0.60810(13) 1.33254(15)
H53 H -0.4692 0.5446 1.3079
C35 C 0.21763(18) 0.71025(12) 1.17635(13)
H54 H 0.2791 0.6545 1.1883
H55 H 0.1191 0.6847 1.1659
C36 C -0.46138(17) 0.73292(14) 1.45568(14)
H56 H -0.4947 0.7537 1.5145
C37 C -0.2997(4) 0.5414(3) 0.9950(3)
H57 H -0.2908 0.5200 0.9275
H58 H -0.3091 0.6126 0.9958
C38 C -0.1730(5) 0.5136(3) 1.0610(3)
H59 H -0.0873 0.5286 1.0297
H60 H -0.1794 0.4441 1.0739
H61 H -0.1699 0.5500 1.1222
C39 C -0.4309(8) 0.4898(3) 1.0342(5)
H62 H -0.4410 0.5139 1.1006
H63 H -0.4172 0.4192 1.0374
C37A C -0.7003(4) 0.4586(3) 1.0050(3)
H57A H -0.7092 0.4800 1.0725
H58A H -0.6909 0.3874 1.0042
C38A C -0.8270(5) 0.4864(3) 0.9390(3)
H59A H -0.9127 0.4714 0.9703
H60A H -0.8206 0.5559 0.9261
H61A H -0.8301 0.4500 0.8778
C39A C -0.5691(8) 0.5102(3) 0.9658(5)
H62A H -0.5590 0.4861 0.8994
H63A H -0.5828 0.5808 0.9626
H64? H -0.2599 0.5435 0.9317
H65? H -0.3065 0.6103 1.0136
C40? C -0.453(2) 0.5150(11) 0.9627(12)
H66? H -0.4946 0.5715 0.9287
H67? H -0.4550 0.4616 0.9144
loop_
_geom_bond_atom_site_label_1
_geom_bond_atom_site_label_2
_geom_bond_site_symmetry_1
_geom_bond_site_symmetry_2
O1 H1 1_555 1_555
C1 C3 1_555 1_555
C2 H2 1_555 1_555
H3 C2 1_555 1_555
C3 H4 1_555 1_555
C4 H5 1_555 1_555
H6 C4 1_555 1_555
C5 C1 1_555 1_555
H7 C5 1_555 1_555
C6 O1 1_555 1_555
H8 C6 1_555 1_555
C7 H9 1_555 1_555
H10 C7 1_555 1_555
C8 C3 1_555 1_555
H11 C8 1_555 1_555
H12 C8 1_555 1_555
C9 C2 1_555 1_555
H13 C9 1_555 1_555
H14 C9 1_555 1_555
C10 H15 1_555 1_555
C11 C10 1_555 1_555
H16 C11 1_555 1_555
C12 C5 1_555 1_555
H17 C12 1_555 1_555
C13 C4 1_555 1_555
H18 C13 1_555 1_555
H19 C13 1_555 1_555
C14 C7 1_555 1_555
H20 C14 1_555 1_555
H21 C14 1_555 1_555
C15 C1 1_555 1_555
H22 C15 1_555 1_555
C16 H23 1_555 1_555
H24 C16 1_555 1_555
C17 C4 1_555 1_555
H25 C17 1_555 1_555
H26 C17 1_555 1_555
C18 C14 1_555 1_555
H27 C18 1_555 1_555
H28 C18 1_555 1_555
O2 H29 1_555 1_555
C19 H30 1_555 1_555
C20 C19 1_555 1_555
C21 O2 1_555 1_555
H31 C21 1_555 1_555
C22 C20 1_555 1_555
H32 C22 1_555 1_555
C23 C19 1_555 1_555
H33 C23 1_555 1_555
H34 C23 1_555 1_555
C24 H35 1_555 1_555
H36 C24 1_555 1_555
C25 H37 1_555 1_555
H38 C25 1_555 1_555
C26 C23 1_555 1_555
H39 C26 1_555 1_555
H40 C26 1_555 1_555
C27 C20 1_555 1_555
H41 C27 1_555 1_555
C28 C21 1_555 1_555
H42 C28 1_555 1_555
H43 C28 1_555 1_555
C29 C24 1_555 1_555
H44 C29 1_555 1_555
H45 C29 1_555 1_555
C30 C25 1_555 1_555
H46 C30 1_555 1_555
H47 C30 1_555 1_555
C31 C30 1_555 1_555
H48 C31 1_555 1_555
H49 C31 1_555 1_555
C32 C31 1_555 1_555
H50 C32 1_555 1_555
H51 C32 1_555 1_555
C33 H52 1_555 1_555
C34 C27 1_555 1_555
H53 C34 1_555 1_555
C35 C29 1_555 1_555
H54 C35 1_555 1_555
H55 C35 1_555 1_555
C36 C22 1_555 1_555
H56 C36 1_555 1_555
C37 H57 1_555 1_555
H58 C37 1_555 1_555
C38 C37 1_555 1_555
H59 C38 1_555 1_555
H60 C38 1_555 1_555
H61 C38 1_555 1_555
C39 C37 1_555 1_555
H62 C39 1_555 1_555
H63 C39 1_555 1_555
C37A H57A 1_555 1_555
H58A C37A 1_555 1_555
C38A C37A 1_555 1_555
H59A C38A 1_555 1_555
H60A C38A 1_555 1_555
H61A C38A 1_555 1_555
C39A C39 1_555 1_555
H62A C39A 1_555 1_555
H63A C39A 1_555 1_555
C2 C6 1_555 1_555
C3 C6 1_555 1_555
C7 C9 1_555 1_555
C8 C13 1_555 1_555
C10 C12 1_555 1_555
C11 C15 1_555 1_555
C16 C17 1_555 1_555
C16 C18 1_555 1_555
C19 C21 1_555 1_555
C24 C28 1_555 1_555
C25 C26 1_555 1_555
C32 C35 1_555 1_555
C33 C34 1_555 1_555
C33 C36 1_555 1_555
C37A C39A 1_555 1_555

#END
