
#######################################################################
#
#                 Cambridge Crystallographic Data Centre
#                                CCDC 
#
#######################################################################
#
# If this CIF has been generated from an entry in the Cambridge 
# Structural Database, then it will include bibliographic, chemical, 
# crystal, experimental, refinement or atomic coordinate data resulting 
# from the CCDC's data processing and validation procedures.
#
#######################################################################

data_AVAFEK
_chemical_formula_moiety         'C23 H18 F1 N3 O1'
_chemical_name_systematic        
N-(Benzyloxy)-1-(3-(4-fluorophenyl)-1-phenyl-1H-pyrazol-4-yl)methanimine
_symmetry_cell_setting           triclinic
_symmetry_space_group_name_H-M   'P -1'
_symmetry_Int_Tables_number      2
_space_group_name_Hall           '-P 1'
loop_
_symmetry_equiv_pos_site_id
_symmetry_equiv_pos_as_xyz
1 x,y,z
2 -x,-y,-z
_cell_length_a                   8.272(6)
_cell_length_b                   10.477(8)
_cell_length_c                   23.85(2)
_cell_angle_alpha                96.327(9)
_cell_angle_beta                 96.542(10)
_cell_angle_gamma                108.859(7)
_cell_volume                     1919.37
_exptl_crystal_colour            colorless
_exptl_crystal_description       block
_chemical_melting_point          '73-75 deg.C'
_cell_formula_units_Z            4
loop_
_atom_site_label
_atom_site_type_symbol
_atom_site_fract_x
_atom_site_fract_y
_atom_site_fract_z
N1 N 0.1346(3) -0.0145(3) 0.15052(11)
N2 N 0.0057(3) 0.0401(2) 0.14537(10)
F1 F -0.5227(3) 0.3050(2) 0.23690(9)
C1 C -0.1487(4) 0.1361(3) 0.20876(13)
C2 C -0.0147(4) 0.0765(3) 0.19879(13)
C3 C 0.0874(4) -0.0949(4) 0.04930(15)
H1 H -0.0229 -0.0889 0.0467
C4 C -0.2356(4) 0.1127(3) 0.25521(13)
H2 H -0.2079 0.0585 0.2804
C5 C 0.1021(4) 0.0441(3) 0.23849(13)
C6 C 0.3572(4) -0.0666(4) 0.10511(15)
H3 H 0.4302 -0.0413 0.1401
C7 C -0.1932(4) 0.2174(3) 0.17194(13)
H4 H -0.1370 0.2337 0.1405
C8 C -0.3617(4) 0.1682(4) 0.26454(14)
H5 H -0.4200 0.1514 0.2955
C9 C -0.3185(4) 0.2744(3) 0.18077(14)
H6 H -0.3471 0.3288 0.1558
O1 O 0.2228(3) 0.0593(3) 0.38916(10)
N3 N 0.2073(4) 0.0103(4) 0.33063(12)
C10 C 0.1450(5) -0.1385(4) 0.00067(15)
H7 H 0.0735 -0.1606 -0.0346
C11 C 0.1935(4) -0.0607(3) 0.10103(13)
C12 C 0.1928(4) -0.0139(3) 0.20544(14)
H8 H 0.2793 -0.0469 0.2187
C13 C 0.4126(5) -0.1111(4) 0.05610(17)
H9 H 0.5237 -0.1154 0.0584
C14 C -0.3993(4) 0.2487(3) 0.22714(15)
C15 C 0.4937(5) 0.0227(5) 0.41971(15)
C16 C 0.1298(4) 0.0740(4) 0.30086(14)
H10 H 0.0911 0.1393 0.3189
C17 C 0.5665(6) -0.0613(5) 0.39332(17)
H11 H 0.4959 -0.1471 0.3743
C18 C 0.3041(5) -0.0176(5) 0.42140(15)
H12 H 0.2494 -0.1139 0.4063
H13 H 0.2863 -0.0043 0.4608
C19 C 0.3046(5) -0.1489(4) 0.00427(16)
H14 H 0.3410 -0.1815 -0.0281
C20 C 0.7800(7) 0.1878(5) 0.4451(2)
H15 H 0.8519 0.2747 0.4624
C21 C 0.6039(7) 0.1492(5) 0.44519(18)
H16 H 0.5590 0.2107 0.4630
C22 C 0.7426(8) -0.0225(6) 0.3940(2)
H17 H 0.7894 -0.0826 0.3761
C23 C 0.8469(6) 0.1015(7) 0.4203(2)
H18 H 0.9659 0.1268 0.4212
F2 F 1.5245(3) 0.2009(2) 0.76891(10)
N4 N 0.9829(3) 0.4550(3) 0.85584(11)
N5 N 0.8544(3) 0.5099(3) 0.85026(12)
C24 C 1.0035(4) 0.4181(3) 0.80266(14)
C25 C 0.8128(4) 0.5000(4) 0.94847(15)
H19 H 0.8621 0.4319 0.9493
C26 C 1.1396(4) 0.3604(3) 0.79310(14)
C27 C 0.8865(4) 0.4495(3) 0.76279(14)
C28 C 0.7240(4) 0.6581(4) 0.89848(16)
H20 H 0.7153 0.6970 0.8655
C29 C 0.6651(4) 0.7022(4) 0.94658(18)
H21 H 0.6155 0.7702 0.9458
O2 O 0.7665(4) 0.4327(4) 0.61284(13)
N6 N 0.7840(4) 0.4865(4) 0.67083(13)
C30 C 0.7955(4) 0.5565(3) 0.89968(14)
C31 C 1.3475(5) 0.3210(4) 0.73639(16)
H22 H 1.3984 0.3303 0.7035
C32 C 1.3989(4) 0.2548(4) 0.77694(18)
C33 C 0.7961(4) 0.5079(3) 0.79516(15)
H23 H 0.7095 0.5405 0.7816
C34 C 1.2182(4) 0.3742(3) 0.74489(14)
H24 H 1.1830 0.4204 0.7175
C35 C 1.1985(4) 0.2939(3) 0.83372(14)
H25 H 1.1501 0.2849 0.8670
C36 C 0.7552(5) 0.5467(4) 0.99639(17)
H26 H 0.7677 0.5104 1.0298
C37 C 0.4975(5) 0.4751(5) 0.58136(17)
C38 C 0.8561(4) 0.4172(4) 0.70067(16)
H27 H 0.8879 0.3478 0.6826
C39 C 1.3279(5) 0.2410(4) 0.82543(17)
H28 H 1.3663 0.1963 0.8529
C40 C 0.4302(7) 0.5555(5) 0.61119(18)
H29 H 0.5039 0.6373 0.6328
C41 C 0.6880(6) 0.5126(6) 0.57995(17)
H30 H 0.7062 0.4986 0.5406
H31 H 0.7448 0.6087 0.5951
C42 C 0.6800(5) 0.6456(4) 0.99526(18)
H32 H 0.6393 0.6742 1.0274
C43 C 0.1475(7) 0.4034(7) 0.5811(2)
H33 H 0.0289 0.3810 0.5806
C44 C 0.2557(9) 0.5206(7) 0.6108(2)
H34 H 0.2125 0.5794 0.6314
C45 C 0.3862(7) 0.3537(6) 0.55182(19)
H35 H 0.4284 0.2942 0.5312
C46 C 0.2085(7) 0.3189(6) 0.5525(2)
H36 H 0.1329 0.2357 0.5327
loop_
_geom_bond_atom_site_label_1
_geom_bond_atom_site_label_2
_geom_bond_site_symmetry_1
_geom_bond_site_symmetry_2
N1 N2 1_555 1_555
N2 C2 1_555 1_555
F1 C14 1_555 1_555
C1 C2 1_555 1_555
C2 C5 1_555 1_555
C3 H1 1_555 1_555
C4 C1 1_555 1_555
H2 C4 1_555 1_555
C5 C12 1_555 1_555
C6 H3 1_555 1_555
C7 C1 1_555 1_555
H4 C7 1_555 1_555
C8 C4 1_555 1_555
H5 C8 1_555 1_555
C9 C7 1_555 1_555
H6 C9 1_555 1_555
O1 N3 1_555 1_555
N3 C16 1_555 1_555
C10 C3 1_555 1_555
H7 C10 1_555 1_555
C11 N1 1_555 1_555
C12 N1 1_555 1_555
H8 C12 1_555 1_555
C13 C6 1_555 1_555
H9 C13 1_555 1_555
C14 C8 1_555 1_555
C15 C17 1_555 1_555
C16 C5 1_555 1_555
H10 C16 1_555 1_555
C17 H11 1_555 1_555
C18 O1 1_555 1_555
H12 C18 1_555 1_555
H13 C18 1_555 1_555
C19 C10 1_555 1_555
H14 C19 1_555 1_555
C20 H15 1_555 1_555
C21 C15 1_555 1_555
H16 C21 1_555 1_555
C22 C17 1_555 1_555
H17 C22 1_555 1_555
C23 C20 1_555 1_555
H18 C23 1_555 1_555
F2 C32 1_555 1_555
N4 N5 1_555 1_555
N5 C30 1_555 1_555
C24 N4 1_555 1_555
C25 H19 1_555 1_555
C26 C24 1_555 1_555
C27 C24 1_555 1_555
C28 H20 1_555 1_555
C29 C28 1_555 1_555
H21 C29 1_555 1_555
O2 N6 1_555 1_555
N6 C38 1_555 1_555
C30 C25 1_555 1_555
C31 H22 1_555 1_555
C32 C31 1_555 1_555
C33 N5 1_555 1_555
H23 C33 1_555 1_555
C34 C26 1_555 1_555
H24 C34 1_555 1_555
C35 C26 1_555 1_555
H25 C35 1_555 1_555
C36 C25 1_555 1_555
H26 C36 1_555 1_555
C37 C40 1_555 1_555
C38 C27 1_555 1_555
H27 C38 1_555 1_555
C39 C32 1_555 1_555
H28 C39 1_555 1_555
C40 H29 1_555 1_555
C41 O2 1_555 1_555
H30 C41 1_555 1_555
H31 C41 1_555 1_555
C42 C29 1_555 1_555
H32 C42 1_555 1_555
C43 H33 1_555 1_555
C44 C40 1_555 1_555
H34 C44 1_555 1_555
C45 C37 1_555 1_555
H35 C45 1_555 1_555
C46 C43 1_555 1_555
H36 C46 1_555 1_555
C3 C11 1_555 1_555
C6 C11 1_555 1_555
C9 C14 1_555 1_555
C13 C19 1_555 1_555
C15 C18 1_555 1_555
C20 C21 1_555 1_555
C22 C23 1_555 1_555
C27 C33 1_555 1_555
C28 C30 1_555 1_555
C31 C34 1_555 1_555
C35 C39 1_555 1_555
C36 C42 1_555 1_555
C37 C41 1_555 1_555
C43 C44 1_555 1_555
C45 C46 1_555 1_555

#END
