
#######################################################################
#
#                 Cambridge Crystallographic Data Centre
#                                CCDC 
#
#######################################################################
#
# If this CIF has been generated from an entry in the Cambridge 
# Structural Database, then it will include bibliographic, chemical, 
# crystal, experimental, refinement or atomic coordinate data resulting 
# from the CCDC's data processing and validation procedures.
#
#######################################################################

data_AVAGAH
_chemical_formula_moiety         'C25 H34 O1'
_chemical_name_systematic        2-benzyl-12-phenylcyclododecanol
_symmetry_cell_setting           monoclinic
_symmetry_space_group_name_H-M   'P 21/c'
_symmetry_Int_Tables_number      14
_space_group_name_Hall           '-P 2ybc'
loop_
_symmetry_equiv_pos_site_id
_symmetry_equiv_pos_as_xyz
1 x,y,z
2 -x,1/2+y,1/2-z
3 -x,-y,-z
4 x,1/2-y,1/2+z
_cell_length_a                   5.5850(4)
_cell_length_b                   14.4957(6)
_cell_length_c                   24.8210(12)
_cell_angle_alpha                90
_cell_angle_beta                 93.469(7)
_cell_angle_gamma                90
_cell_volume                     2005.79
_cell_formula_units_Z            4
loop_
_atom_site_label
_atom_site_type_symbol
_atom_site_fract_x
_atom_site_fract_y
_atom_site_fract_z
C1 C 0.2833(2) 0.84203(9) 0.39411(5)
H1 H 0.1480 0.7989 0.3911
C2 C 0.2418(2) 0.91423(9) 0.35011(5)
C3 C 0.3262(3) 0.65942(10) 0.32471(6)
H2 H 0.3153 0.6400 0.2872
H3 H 0.1713 0.6842 0.3329
C4 C 0.1701(3) 0.60158(10) 0.47596(5)
H4 H 0.3242 0.6284 0.4689
H5 H 0.2003 0.5426 0.4935
C5 C 0.4092(2) 0.98370(9) 0.34229(5)
H6 H 0.5486 0.9865 0.3647
C6 C 0.5145(2) 0.73579(10) 0.33181(5)
H7 H 0.4875 0.7804 0.3029
H8 H 0.6721 0.7090 0.3284
C7 C 0.3312(2) 0.80663(10) 0.60071(5)
C8 C 0.0294(3) 0.58508(10) 0.42221(6)
H9 H -0.0104 0.6444 0.4059
H10 H -0.1200 0.5545 0.4292
C9 C 0.1649(3) 1.04527(10) 0.26764(6)
H11 H 0.1399 1.0885 0.2402
C10 C 0.5128(2) 0.78634(10) 0.38604(5)
H12 H 0.6490 0.8279 0.3891
H13 H 0.5334 0.7413 0.4149
C11 C 0.5077(3) 0.68493(11) 0.65660(6)
H14 H 0.6325 0.6435 0.6641
C12 C 0.3710(3) 1.04868(10) 0.30166(5)
H15 H 0.4841 1.0947 0.2972
C13 C 0.2756(3) 0.81694(10) 0.49764(5)
H16 H 0.3999 0.7703 0.4932
C14 C 0.1609(3) 0.52729(10) 0.38184(6)
H17 H 0.0500 0.5124 0.3515
H18 H 0.2111 0.4697 0.3990
C15 C 0.3811(3) 0.57482(10) 0.36061(6)
H19 H 0.4680 0.5302 0.3402
H20 H 0.4859 0.5938 0.3912
C16 C 0.3367(3) 0.86750(10) 0.55173(5)
H21 H 0.4953 0.8944 0.5507
H22 H 0.2234 0.9175 0.5552
C17 C 0.0323(2) 0.76657(10) 0.49771(6)
H23 H -0.0685 0.7991 0.5219
H24 H -0.0450 0.7704 0.4617
C18 C 0.1421(3) 0.81024(11) 0.63485(6)
H25 H 0.0195 0.8529 0.6281
C19 C 0.0356(2) 0.91214(10) 0.31569(6)
H26 H -0.0785 0.8664 0.3201
C20 C 0.1342(3) 0.75116(12) 0.67871(6)
H27 H 0.0061 0.7542 0.7009
C21 C 0.5142(3) 0.74348(10) 0.61264(6)
H28 H 0.6432 0.7405 0.5907
C22 C -0.0029(3) 0.97704(10) 0.27496(6)
H29 H -0.1422 0.9746 0.2525
O1 O 0.0771(3) 0.94920(10) 0.45209(5)
H30 H 0.0786 0.9855 0.4268
C23 C 0.2869(3) 0.88622(10) 0.45087(6)
H31 H 0.4338 0.9228 0.4565
C24 C 0.3154(3) 0.68784(11) 0.68959(6)
H32 H 0.3089 0.6476 0.7186
C25 C 0.0438(3) 0.66476(10) 0.51456(6)
H33 H 0.1263 0.6605 0.5500
H34 H -0.1185 0.6424 0.5176
H35? H 0.1600 0.9326 0.4525
O2? O 0.5336(9) 0.9301(3) 0.46189(17)
H36? H 0.5330 0.9619 0.4892
loop_
_geom_bond_atom_site_label_1
_geom_bond_atom_site_label_2
_geom_bond_site_symmetry_1
_geom_bond_site_symmetry_2
C1 H1 1_555 1_555
C2 C1 1_555 1_555
C3 H2 1_555 1_555
H3 C3 1_555 1_555
C4 H4 1_555 1_555
H5 C4 1_555 1_555
C5 C2 1_555 1_555
H6 C5 1_555 1_555
C6 C3 1_555 1_555
H7 C6 1_555 1_555
H8 C6 1_555 1_555
C7 C16 1_555 1_555
C8 C4 1_555 1_555
H9 C8 1_555 1_555
H10 C8 1_555 1_555
C9 H11 1_555 1_555
C10 C1 1_555 1_555
H12 C10 1_555 1_555
H13 C10 1_555 1_555
C11 H14 1_555 1_555
C12 C5 1_555 1_555
H15 C12 1_555 1_555
C13 H16 1_555 1_555
C14 C8 1_555 1_555
H17 C14 1_555 1_555
H18 C14 1_555 1_555
C15 C3 1_555 1_555
H19 C15 1_555 1_555
H20 C15 1_555 1_555
C16 C13 1_555 1_555
H21 C16 1_555 1_555
H22 C16 1_555 1_555
C17 C13 1_555 1_555
H23 C17 1_555 1_555
H24 C17 1_555 1_555
C18 C7 1_555 1_555
H25 C18 1_555 1_555
C19 C2 1_555 1_555
H26 C19 1_555 1_555
C20 C18 1_555 1_555
H27 C20 1_555 1_555
C21 C7 1_555 1_555
H28 C21 1_555 1_555
C22 C9 1_555 1_555
H29 C22 1_555 1_555
O1 H30 1_555 1_555
C23 C1 1_555 1_555
H31 C23 1_555 1_555
C24 C11 1_555 1_555
H32 C24 1_555 1_555
C25 C4 1_555 1_555
H33 C25 1_555 1_555
H34 C25 1_555 1_555
C6 C10 1_555 1_555
C9 C12 1_555 1_555
C11 C21 1_555 1_555
C13 C23 1_555 1_555
C14 C15 1_555 1_555
C17 C25 1_555 1_555
C19 C22 1_555 1_555
C20 C24 1_555 1_555
O1 C23 1_555 1_555

#END
