
#######################################################################
#
#                 Cambridge Crystallographic Data Centre
#                                CCDC 
#
#######################################################################
#
# If this CIF has been generated from an entry in the Cambridge 
# Structural Database, then it will include bibliographic, chemical, 
# crystal, experimental, refinement or atomic coordinate data resulting 
# from the CCDC's data processing and validation procedures.
#
#######################################################################

data_AVAJAI
_chemical_formula_moiety         'C20 H20 N2 O4'
_chemical_name_systematic        
5,5'-Diphenyl-3,3'-dimethyl-5,5'-bi(oxazolidin-4-one)
_symmetry_cell_setting           monoclinic
_symmetry_space_group_name_H-M   'P 21/n'
_symmetry_Int_Tables_number      14
_space_group_name_Hall           '-P 2yn'
loop_
_symmetry_equiv_pos_site_id
_symmetry_equiv_pos_as_xyz
1 x,y,z
2 1/2+x,1/2-y,1/2+z
3 -x,-y,-z
4 1/2-x,1/2+y,1/2-z
_cell_length_a                   10.1691(10)
_cell_length_b                   8.9951(9)
_cell_length_c                   10.7509(11)
_cell_angle_alpha                90
_cell_angle_beta                 116.307(6)
_cell_angle_gamma                90
_cell_volume                     881.558
_exptl_crystal_colour            colorless
_exptl_crystal_description       'small prism'
_chemical_melting_point          244-246deg.C
_cell_formula_units_Z            2
loop_
_atom_site_label
_atom_site_type_symbol
_atom_site_fract_x
_atom_site_fract_y
_atom_site_fract_z
O1 O 0.64534(12) -0.24050(13) -0.03002(12)
O2 O 0.63456(11) 0.06563(11) 0.16936(10)
N1 N 0.79677(13) -0.07938(15) 0.13409(14)
C1 C 0.66679(16) -0.13506(16) 0.04785(15)
C2 C 0.55095(15) -0.04244(15) 0.06844(14)
C3 C 0.78615(17) 0.04385(19) 0.21359(17)
H1 H 0.8352 0.0216 0.3120
H2 H 0.8304 0.1320 0.1961
C4 C 0.93588(18) -0.1351(2) 0.1474(2)
H3 H 0.9203 -0.2261 0.0961
H4 H 1.0000 -0.1533 0.2435
H5 H 0.9797 -0.0629 0.1114
C5 C 0.46294(16) -0.13662(16) 0.12229(16)
C6 C 0.39493(18) -0.26760(19) 0.05550(19)
H6 H 0.4038 -0.2989 -0.0229
C7 C 0.3143(2) -0.3512(2) 0.1054(3)
H7 H 0.2697 -0.4388 0.0607
C8 C 0.3001(3) -0.3051(3) 0.2205(3)
H8 H 0.2449 -0.3610 0.2531
C9 C 0.3668(3) -0.1777(3) 0.2870(3)
H9 H 0.3570 -0.1470 0.3651
C10 C 0.4492(2) -0.0932(2) 0.2389(2)
H10 H 0.4953 -0.0070 0.2856
C2B C 0.44905(15) 0.04244(15) -0.06844(14)
O2B O 0.36544(11) -0.06563(11) -0.16936(10)
C3B C 0.21385(17) -0.04385(19) -0.21359(17)
N1B N 0.20323(13) 0.07938(15) -0.13409(14)
C1B C 0.33321(16) 0.13506(16) -0.04785(15)
O1B O 0.35466(12) 0.24050(13) 0.03002(12)
C5B C 0.53706(16) 0.13662(16) -0.12229(16)
C6B C 0.60507(18) 0.26760(19) -0.05550(19)
H6B H 0.5962 0.2989 0.0229
C7B C 0.6857(2) 0.3512(2) -0.1054(3)
H7B H 0.7303 0.4388 -0.0607
C8B C 0.6999(3) 0.3051(3) -0.2205(3)
H8B H 0.7551 0.3610 -0.2531
C9B C 0.6332(3) 0.1777(3) -0.2870(3)
H9B H 0.6430 0.1470 -0.3651
C10B C 0.5508(2) 0.0932(2) -0.2389(2)
H10B H 0.5047 0.0070 -0.2856
C4B C 0.06412(18) 0.1351(2) -0.1474(2)
H3B H 0.0797 0.2261 -0.0961
H4B H 0.0000 0.1533 -0.2435
H5B H 0.0203 0.0629 -0.1114
H1B H 0.1648 -0.0216 -0.3120
H2B H 0.1696 -0.1320 -0.1961
loop_
_geom_bond_atom_site_label_1
_geom_bond_atom_site_label_2
_geom_bond_site_symmetry_1
_geom_bond_site_symmetry_2
O1 C1 1_555 1_555
O2 C2 1_555 1_555
N1 C1 1_555 1_555
C1 C2 1_555 1_555
C2 C5 1_555 1_555
C3 O2 1_555 1_555
H1 C3 1_555 1_555
H2 C3 1_555 1_555
C4 N1 1_555 1_555
H3 C4 1_555 1_555
H4 C4 1_555 1_555
H5 C4 1_555 1_555
C5 C6 1_555 1_555
C6 H6 1_555 1_555
C7 C6 1_555 1_555
H7 C7 1_555 1_555
C8 C7 1_555 1_555
H8 C8 1_555 1_555
C9 C8 1_555 1_555
H9 C9 1_555 1_555
C10 C5 1_555 1_555
H10 C10 1_555 1_555
C2B C2 1_555 1_555
O2B C2B 1_555 1_555
C3B O2B 1_555 1_555
N1B C3B 1_555 1_555
C1B C2B 1_555 1_555
O1B C1B 1_555 1_555
C5B C2B 1_555 1_555
C6B C5B 1_555 1_555
H6B C6B 1_555 1_555
C7B C6B 1_555 1_555
H7B C7B 1_555 1_555
C8B C7B 1_555 1_555
H8B C8B 1_555 1_555
C9B C8B 1_555 1_555
H9B C9B 1_555 1_555
C10B C5B 1_555 1_555
H10B C10B 1_555 1_555
C4B N1B 1_555 1_555
H3B C4B 1_555 1_555
H4B C4B 1_555 1_555
H5B C4B 1_555 1_555
H1B C3B 1_555 1_555
H2B C3B 1_555 1_555
N1 C3 1_555 1_555
C9 C10 1_555 1_555
N1B C1B 1_555 1_555
C9B C10B 1_555 1_555

#END
