
#######################################################################
#
#                 Cambridge Crystallographic Data Centre
#                                CCDC 
#
#######################################################################
#
# If this CIF has been generated from an entry in the Cambridge 
# Structural Database, then it will include bibliographic, chemical, 
# crystal, experimental, refinement or atomic coordinate data resulting 
# from the CCDC's data processing and validation procedures.
#
#######################################################################

data_AVAKIR
_chemical_formula_moiety         'C11 H9 I1 O3'
_chemical_name_systematic        
3-Methyl-4-iodo-5-phenyl-5-hydroxy-2(5H)-furanone
_symmetry_cell_setting           monoclinic
_symmetry_space_group_name_H-M   'P 21/n'
_symmetry_Int_Tables_number      14
_space_group_name_Hall           '-P 2yn'
loop_
_symmetry_equiv_pos_site_id
_symmetry_equiv_pos_as_xyz
1 x,y,z
2 1/2+x,1/2-y,1/2+z
3 -x,-y,-z
4 1/2-x,1/2+y,1/2-z
_cell_length_a                   12.900(5)
_cell_length_b                   7.216(2)
_cell_length_c                   13.626(3)
_cell_angle_alpha                90
_cell_angle_beta                 116.23(2)
_cell_angle_gamma                90
_cell_volume                     1137.78
_exptl_crystal_colour            colorless
_cell_formula_units_Z            4
loop_
_atom_site_label
_atom_site_type_symbol
_atom_site_fract_x
_atom_site_fract_y
_atom_site_fract_z
I1 I 0.55144(4) 0.12634(5) 0.31277(4)
O1 O 0.8430(7) 0.7044(7) 0.4036(3)
O2 O 0.6633(3) 0.6710(5) 0.2723(3)
O3 O 0.5368(3) 0.4831(5) 0.1311(3)
C1 C 0.6329(4) 0.3738(6) 0.3201(4)
C2 C 0.5713(4) 0.5276(7) 0.2397(4)
C3 C 0.7575(4) 0.6087(8) 0.3595(4)
C4 C 0.7403(4) 0.4233(7) 0.3889(4)
C5 C 0.8320(5) 0.319(1) 0.4797(5)
C6 C 0.4714(4) 0.6161(6) 0.2525(5)
C7 C 0.3754(5) 0.6758(9) 0.1618(5)
C8 C 0.2853(6) 0.758(1) 0.1741(7)
C9 C 0.2908(6) 0.7871(10) 0.2752(7)
C10 C 0.3851(6) 0.728(1) 0.3644(6)
C11 C 0.4769(5) 0.6424(8) 0.3543(5)
H1 H 0.8492 0.2039 0.4508
H2 H 0.9003 0.3859 0.5146
H3 H 0.8052 0.2800 0.5322
H4 H 0.3717 0.6606 0.0905
H5 H 0.2175 0.7990 0.1099
H6 H 0.2281 0.8476 0.2815
H7 H 0.3894 0.7449 0.4375
H8 H 0.5452 0.6033 0.4182
H9 H 0.5942 0.4091 0.1274
loop_
_geom_bond_atom_site_label_1
_geom_bond_atom_site_label_2
_geom_bond_site_symmetry_1
_geom_bond_site_symmetry_2
I1 C1 1_555 1_555
O1 C3 1_555 1_555
O2 C2 1_555 1_555
O3 C2 1_555 1_555
C1 C2 1_555 1_555
C2 C6 1_555 1_555
C3 O2 1_555 1_555
C4 C1 1_555 1_555
C5 C4 1_555 1_555
C6 C7 1_555 1_555
C7 C8 1_555 1_555
C8 C9 1_555 1_555
C9 C10 1_555 1_555
C10 C11 1_555 1_555
C11 C6 1_555 1_555
H1 C5 1_555 1_555
H2 C5 1_555 1_555
H3 C5 1_555 1_555
H4 C7 1_555 1_555
H5 C8 1_555 1_555
H6 C9 1_555 1_555
H7 C10 1_555 1_555
H8 C11 1_555 1_555
H9 O3 1_555 1_555
C3 C4 1_555 1_555

#END
