
#######################################################################
#
#                 Cambridge Crystallographic Data Centre
#                                CCDC 
#
#######################################################################
#
# If this CIF has been generated from an entry in the Cambridge 
# Structural Database, then it will include bibliographic, chemical, 
# crystal, experimental, refinement or atomic coordinate data resulting 
# from the CCDC's data processing and validation procedures.
#
#######################################################################

data_AVAMOB
_chemical_formula_moiety         'C16 H24 O10'
_chemical_name_systematic        
2-(hydroxymethyl)-6-((1a-(hydroxymethyl)-6-methoxy-1a,1b,2,5a,6,6a-hexahydrooxireno[4,5]cyclopenta[1,2-c]pyran-2-yl)oxy)tetrahydro-2H-pyran-3,4,5-triol
_symmetry_cell_setting           monoclinic
_symmetry_space_group_name_H-M   'P 21'
_symmetry_Int_Tables_number      4
_space_group_name_Hall           'P 2yb'
loop_
_symmetry_equiv_pos_site_id
_symmetry_equiv_pos_as_xyz
1 x,y,z
2 -x,1/2+y,-z
_cell_length_a                   7.5598(15)
_cell_length_b                   9.6705(19)
_cell_length_c                   12.103(2)
_cell_angle_alpha                90
_cell_angle_beta                 103.896(3)
_cell_angle_gamma                90
_cell_volume                     858.919
_exptl_crystal_colour            colorless
_exptl_crystal_description       block
_cell_formula_units_Z            2
loop_
_atom_site_label
_atom_site_type_symbol
_atom_site_fract_x
_atom_site_fract_y
_atom_site_fract_z
C1 C 0.3806(5) 0.1788(3) 0.7816(3)
H1 H 0.4428 0.1659 0.7200
C2 C 0.5080(5) 0.1409(3) 0.8931(3)
H2 H 0.4565 0.1684 0.9567
C3 C 0.8217(5) 0.0961(4) 0.8865(3)
H3 H 0.9227 0.1213 0.8527
C4 C 0.6961(5) 0.2012(3) 0.9069(3)
C5 C 0.5440(5) -0.0187(3) 0.8959(3)
H4 H 0.5714 -0.0486 0.9755
C6 C 0.7187(5) -0.0352(4) 0.8527(3)
H5 H 0.6858 -0.0423 0.7695
C7 C 0.7309(5) 0.3523(4) 0.8924(3)
H6 H 0.6576 0.3830 0.8194
H7 H 0.6927 0.4042 0.9513
C8 C 0.3824(5) -0.0975(4) 0.8329(3)
H8 H 0.3863 -0.1935 0.8368
C9 C 0.7909(7) -0.2735(4) 0.8340(4)
H9 H 0.6694 -0.3053 0.8306
H10 H 0.8768 -0.3433 0.8686
H11 H 0.8037 -0.2551 0.7584
C10 C 0.2356(6) -0.0391(4) 0.7724(3)
H12 H 0.1390 -0.0960 0.7376
O1 O 0.3244(3) 0.3164(2) 0.78276(19)
O2 O 0.9171(3) 0.3820(3) 0.89815(19)
H13 H 0.9783 0.3655 0.9625
O3 O 0.8237(3) 0.1383(2) 1.00178(19)
O4 O 0.8241(4) -0.1520(3) 0.8989(2)
O5 O 0.2144(3) 0.1009(3) 0.7569(2)
O6 O 0.4236(3) 0.4146(2) 0.63929(19)
O7 O 0.0050(4) 0.6927(3) 0.5604(2)
O8 O -0.0287(3) 0.4456(3) 0.6943(2)
H14 H -0.0134 0.4213 0.7608
O9 O 0.2254(4) 0.6405(3) 0.4035(2)
O10 O 0.6710(3) 0.5872(3) 0.5701(3)
C11 C 0.2640(5) 0.3721(4) 0.6727(3)
H15 H 0.1999 0.3010 0.6204
C12 C 0.2677(5) 0.5949(4) 0.5196(3)
H16 H 0.3382 0.6667 0.5682
C13 C 0.3840(4) 0.4656(4) 0.5253(3)
H17 H 0.3152 0.3955 0.4741
C14 C 0.1384(4) 0.4933(4) 0.6751(3)
H18 H 0.1959 0.5586 0.7349
C15 C 0.0965(5) 0.5647(3) 0.5592(3)
H19 H 0.0184 0.5036 0.5035
C16 C 0.5633(5) 0.4894(4) 0.4957(3)
H20 H 0.6290 0.4025 0.5006
H21 H 0.5419 0.5225 0.4180
H22 H 0.123(9) 0.696(8) 0.392(6)
H23 H 0.748(7) 0.552(6) 0.632(5)
H24 H -0.115(6) 0.674(5) 0.557(3)
loop_
_geom_bond_atom_site_label_1
_geom_bond_atom_site_label_2
_geom_bond_site_symmetry_1
_geom_bond_site_symmetry_2
C1 H1 1_555 1_555
C2 C1 1_555 1_555
H2 C2 1_555 1_555
C3 H3 1_555 1_555
C4 C2 1_555 1_555
C5 C2 1_555 1_555
H4 C5 1_555 1_555
C6 C3 1_555 1_555
H5 C6 1_555 1_555
C7 C4 1_555 1_555
H6 C7 1_555 1_555
H7 C7 1_555 1_555
C8 C5 1_555 1_555
H8 C8 1_555 1_555
C9 H9 1_555 1_555
H10 C9 1_555 1_555
H11 C9 1_555 1_555
C10 C8 1_555 1_555
H12 C10 1_555 1_555
O1 C1 1_555 1_555
O2 C7 1_555 1_555
H13 O2 1_555 1_555
O3 C3 1_555 1_555
O4 C6 1_555 1_555
O5 C1 1_555 1_555
O6 C11 1_555 1_555
O7 C15 1_555 1_555
O8 H14 1_555 1_555
O9 C12 1_555 1_555
O10 C16 1_555 1_555
C11 O1 1_555 1_555
H15 C11 1_555 1_555
C12 H16 1_555 1_555
C13 O6 1_555 1_555
H17 C13 1_555 1_555
C14 O8 1_555 1_555
H18 C14 1_555 1_555
C15 C12 1_555 1_555
H19 C15 1_555 1_555
C16 C13 1_555 1_555
H20 C16 1_555 1_555
H21 C16 1_555 1_555
H22 O9 1_555 1_555
H23 O10 1_555 1_555
H24 O7 1_555 1_555
C3 C4 1_555 1_555
C4 O3 1_555 1_555
C5 C6 1_555 1_555
C9 O4 1_555 1_555
C10 O5 1_555 1_555
C11 C14 1_555 1_555
C12 C13 1_555 1_555
C14 C15 1_555 1_555

#END
