
#######################################################################
#
#                 Cambridge Crystallographic Data Centre
#                                CCDC 
#
#######################################################################
#
# If this CIF has been generated from an entry in the Cambridge 
# Structural Database, then it will include bibliographic, chemical, 
# crystal, experimental, refinement or atomic coordinate data resulting 
# from the CCDC's data processing and validation procedures.
#
#######################################################################

data_AVASEW
_chemical_formula_moiety         'C21 H41 N2 P1 Si3'
_chemical_name_systematic        
(trimethylsilyl)-(trimethylsilylphosphanylidene)-(N,N'-di-t-butylbenzenecarboximidamido)-silane
_symmetry_cell_setting           monoclinic
_symmetry_space_group_name_H-M   'P 21/n'
_symmetry_Int_Tables_number      14
_space_group_name_Hall           '-P 2yn'
loop_
_symmetry_equiv_pos_site_id
_symmetry_equiv_pos_as_xyz
1 x,y,z
2 1/2-x,1/2+y,1/2-z
3 -x,-y,-z
4 1/2+x,1/2-y,1/2+z
_cell_length_a                   14.020(2)
_cell_length_b                   11.5941(12)
_cell_length_c                   17.583(3)
_cell_angle_alpha                90
_cell_angle_beta                 108.598(19)
_cell_angle_gamma                90
_cell_volume                     2708.85
_exptl_crystal_colour            yellow
_exptl_crystal_description       plate
_cell_formula_units_Z            4
loop_
_atom_site_label
_atom_site_type_symbol
_atom_site_fract_x
_atom_site_fract_y
_atom_site_fract_z
Si1 Si 0.26155(13) 0.10918(15) 0.52294(11)
Si2 Si 0.32023(14) 0.04208(18) 0.65694(11)
Si3 Si 0.17138(14) 0.03929(18) 0.32217(11)
P1 P 0.23156(14) -0.03177(15) 0.44427(11)
N1 N 0.1806(4) 0.2378(4) 0.5190(3)
N2 N 0.3323(4) 0.2409(4) 0.5153(3)
C1 C 0.2572(4) 0.3073(6) 0.5195(4)
C2 C 0.2572(4) 0.4367(5) 0.5237(4)
C3 C 0.2888(5) 0.4900(6) 0.5982(4)
H1 H 0.3091 0.4446 0.6456
C4 C 0.2907(5) 0.6082(6) 0.6036(5)
H2 H 0.3116 0.6446 0.6546
C5 C 0.2625(5) 0.6731(7) 0.5351(5)
H3 H 0.2647 0.7548 0.5393
C6 C 0.2315(5) 0.6238(6) 0.4611(5)
H4 H 0.2120 0.6702 0.4142
C7 C 0.2286(5) 0.5020(6) 0.4553(4)
H5 H 0.2070 0.4658 0.4041
C8 C 0.0804(4) 0.2620(6) 0.5260(4)
C9 C 0.0256(5) 0.1479(6) 0.5108(6)
H6 H 0.0696 0.0875 0.5424
H7 H 0.0070 0.1287 0.4537
H8 H -0.0353 0.1533 0.5266
C10 C 0.0236(5) 0.3502(6) 0.4627(5)
H9 H 0.0529 0.4270 0.4778
H10 H -0.0474 0.3514 0.4596
H11 H 0.0291 0.3287 0.4104
C11 C 0.0890(6) 0.3052(8) 0.6088(5)
H12 H 0.1255 0.2485 0.6488
H13 H 0.0215 0.3165 0.6128
H14 H 0.1255 0.3786 0.6185
C12 C 0.4343(5) 0.2692(6) 0.5094(4)
C13 C 0.4209(6) 0.3075(8) 0.4237(5)
H15 H 0.3867 0.3824 0.4138
H16 H 0.3802 0.2504 0.3861
H17 H 0.4869 0.3143 0.4162
C14 C 0.4857(5) 0.3619(7) 0.5675(5)
H18 H 0.4859 0.3407 0.6215
H19 H 0.4496 0.4349 0.5517
H20 H 0.5551 0.3707 0.5673
C15 C 0.4932(6) 0.1583(7) 0.5291(7)
H21 H 0.5047 0.1385 0.5855
H22 H 0.5580 0.1679 0.5197
H23 H 0.4551 0.0963 0.4947
C16 C 0.3568(7) 0.1645(8) 0.7277(5)
H24 H 0.3761 0.1356 0.7829
H25 H 0.2997 0.2175 0.7184
H26 H 0.4138 0.2053 0.7193
C17 C 0.2180(5) -0.0436(7) 0.6785(5)
H27 H 0.2462 -0.0853 0.7292
H28 H 0.1897 -0.0988 0.6350
H29 H 0.1650 0.0087 0.6826
C18 C 0.4264(6) -0.0581(7) 0.6724(5)
H30 H 0.4393 -0.0974 0.7241
H31 H 0.4865 -0.0150 0.6723
H32 H 0.4099 -0.1153 0.6291
C19 C 0.1376(7) 0.1949(8) 0.3106(5)
H33 H 0.1149 0.2151 0.2535
H34 H 0.1967 0.2413 0.3388
H35 H 0.0835 0.2101 0.3333
C20 C 0.2586(7) 0.0121(8) 0.2639(5)
H36 H 0.2313 0.0470 0.2106
H37 H 0.2660 -0.0712 0.2583
H38 H 0.3244 0.0461 0.2921
C21 C 0.0531(6) -0.0403(9) 0.2696(5)
H39 H 0.0328 -0.0235 0.2120
H40 H -0.0002 -0.0158 0.2910
H41 H 0.0646 -0.1233 0.2782
loop_
_geom_bond_atom_site_label_1
_geom_bond_atom_site_label_2
_geom_bond_site_symmetry_1
_geom_bond_site_symmetry_2
Si1 Si2 1_555 1_555
Si2 C16 1_555 1_555
Si3 P1 1_555 1_555
P1 Si1 1_555 1_555
N1 Si1 1_555 1_555
N2 Si1 1_555 1_555
C1 N1 1_555 1_555
C2 C1 1_555 1_555
C3 C2 1_555 1_555
H1 C3 1_555 1_555
C4 C3 1_555 1_555
H2 C4 1_555 1_555
C5 C4 1_555 1_555
H3 C5 1_555 1_555
C6 C5 1_555 1_555
H4 C6 1_555 1_555
C7 C2 1_555 1_555
H5 C7 1_555 1_555
C8 N1 1_555 1_555
C9 C8 1_555 1_555
H6 C9 1_555 1_555
H7 C9 1_555 1_555
H8 C9 1_555 1_555
C10 C8 1_555 1_555
H9 C10 1_555 1_555
H10 C10 1_555 1_555
H11 C10 1_555 1_555
C11 C8 1_555 1_555
H12 C11 1_555 1_555
H13 C11 1_555 1_555
H14 C11 1_555 1_555
C12 N2 1_555 1_555
C13 C12 1_555 1_555
H15 C13 1_555 1_555
H16 C13 1_555 1_555
H17 C13 1_555 1_555
C14 C12 1_555 1_555
H18 C14 1_555 1_555
H19 C14 1_555 1_555
H20 C14 1_555 1_555
C15 C12 1_555 1_555
H21 C15 1_555 1_555
H22 C15 1_555 1_555
H23 C15 1_555 1_555
C16 H24 1_555 1_555
H25 C16 1_555 1_555
H26 C16 1_555 1_555
C17 Si2 1_555 1_555
H27 C17 1_555 1_555
H28 C17 1_555 1_555
H29 C17 1_555 1_555
C18 Si2 1_555 1_555
H30 C18 1_555 1_555
H31 C18 1_555 1_555
H32 C18 1_555 1_555
C19 Si3 1_555 1_555
H33 C19 1_555 1_555
H34 C19 1_555 1_555
H35 C19 1_555 1_555
C20 Si3 1_555 1_555
H36 C20 1_555 1_555
H37 C20 1_555 1_555
H38 C20 1_555 1_555
C21 Si3 1_555 1_555
H39 C21 1_555 1_555
H40 C21 1_555 1_555
H41 C21 1_555 1_555
N2 C1 1_555 1_555
C6 C7 1_555 1_555

#END
