
#######################################################################
#
#                 Cambridge Crystallographic Data Centre
#                                CCDC 
#
#######################################################################
#
# If this CIF has been generated from an entry in the Cambridge 
# Structural Database, then it will include bibliographic, chemical, 
# crystal, experimental, refinement or atomic coordinate data resulting 
# from the CCDC's data processing and validation procedures.
#
#######################################################################

data_AVASIA
_chemical_formula_moiety         'C21 H41 N2 P1 Si3'
_chemical_name_systematic        
(bis(trimethylsilyl)phosphino)-(N,N'-di-t-butylbenzenecarboximidamido)-silane
_symmetry_cell_setting           orthorhombic
_symmetry_space_group_name_H-M   'P b c a'
_symmetry_Int_Tables_number      61
_space_group_name_Hall           '-P 2ac 2ab'
loop_
_symmetry_equiv_pos_site_id
_symmetry_equiv_pos_as_xyz
1 x,y,z
2 1/2-x,-y,1/2+z
3 -x,1/2+y,1/2-z
4 1/2+x,1/2-y,-z
5 -x,-y,-z
6 1/2+x,y,1/2-z
7 x,1/2-y,1/2+z
8 1/2-x,1/2+y,z
_cell_length_a                   19.3556(7)
_cell_length_b                   14.2399(4)
_cell_length_c                   19.9777(6)
_cell_angle_alpha                90
_cell_angle_beta                 90
_cell_angle_gamma                90
_cell_volume                     5506.29
_exptl_crystal_colour            colorless
_exptl_crystal_description       plate
_cell_formula_units_Z            8
loop_
_atom_site_label
_atom_site_type_symbol
_atom_site_fract_x
_atom_site_fract_y
_atom_site_fract_z
P1 P 0.15090(5) 0.06923(6) 0.17877(4)
Si1 Si 0.15330(5) 0.13975(6) 0.28141(4)
Si2 Si 0.09707(6) 0.17315(7) 0.11386(5)
Si3 Si 0.09724(5) -0.06889(6) 0.16933(4)
N1 N 0.21078(13) 0.05568(18) 0.32763(12)
N2 N 0.10186(13) 0.06601(16) 0.34164(11)
C1 C 0.03350(17) 0.0792(2) 0.37301(15)
C2 C 0.03843(18) 0.1417(3) 0.43488(17)
H1 H 0.0636 0.1085 0.4703
H2 H -0.0082 0.1571 0.4507
H3 H 0.0630 0.1997 0.4235
C3 C 0.00047(19) -0.0144(2) 0.39059(19)
H4 H -0.0006 -0.0545 0.3508
H5 H -0.0468 -0.0038 0.4066
H6 H 0.0275 -0.0451 0.4258
C4 C -0.01066(17) 0.1296(2) 0.32140(16)
H7 H 0.0088 0.1920 0.3127
H8 H -0.0579 0.1362 0.3385
H9 H -0.0113 0.0932 0.2798
C5 C 0.28557(17) 0.0375(3) 0.33086(17)
C6 C 0.3007(3) -0.0684(4) 0.3473(4)
H10 H 0.2734 -0.1086 0.3175
H11 H 0.2880 -0.0814 0.3939
H12 H 0.3499 -0.0813 0.3408
C7 C 0.3200(6) 0.0981(7) 0.3838(7)
H13 H 0.3056 0.0770 0.4283
H14 H 0.3064 0.1638 0.3774
H15 H 0.3703 0.0926 0.3797
C8 C 0.3174(4) 0.0573(7) 0.2626(4)
H16 H 0.3678 0.0554 0.2661
H17 H 0.3029 0.1196 0.2471
H18 H 0.3019 0.0097 0.2305
C9 C 0.15972(18) 0.0305(2) 0.36876(14)
C10 C 0.16733(16) -0.0222(2) 0.43260(15)
C11 C 0.18721(16) 0.0228(2) 0.49103(15)
H19 H 0.1945 0.0888 0.4909
C12 C 0.19649(18) -0.0275(3) 0.54921(16)
H20 H 0.2100 0.0041 0.5890
C13 C 0.18634(19) -0.1233(3) 0.55023(17)
H21 H 0.1934 -0.1579 0.5903
C14 C 0.16588(19) -0.1684(2) 0.49254(17)
H22 H 0.1585 -0.2343 0.4930
C15 C 0.15603(18) -0.1186(2) 0.43396(15)
H23 H 0.1415 -0.1503 0.3945
C16 C 0.00121(18) -0.0649(3) 0.17090(19)
H24 H -0.0154 -0.0244 0.1347
H25 H -0.0144 -0.0398 0.2140
H26 H -0.0172 -0.1285 0.1648
C17 C 0.1223(2) -0.1241(3) 0.08839(17)
H27 H 0.1011 -0.1863 0.0849
H28 H 0.1727 -0.1303 0.0864
H29 H 0.1064 -0.0846 0.0513
C18 C 0.1282(2) -0.1468(2) 0.23804(17)
H30 H 0.1153 -0.1196 0.2813
H31 H 0.1786 -0.1527 0.2355
H32 H 0.1071 -0.2090 0.2334
C19 C 0.0909(3) 0.1233(3) 0.02768(18)
H33 H 0.0618 0.0670 0.0284
H34 H 0.1372 0.1065 0.0118
H35 H 0.0706 0.1700 -0.0024
C20 C 0.0092(2) 0.2082(3) 0.14067(19)
H36 H 0.0122 0.2449 0.1821
H37 H -0.0187 0.1519 0.1486
H38 H -0.0123 0.2463 0.1056
C21 C 0.1504(2) 0.2807(2) 0.11358(19)
H39 H 0.1256 0.3309 0.0901
H40 H 0.1942 0.2681 0.0907
H41 H 0.1596 0.3002 0.1598
C22? C 0.2954(8) -0.0521(12) 0.3024(11)
C23? C 0.3138(18) 0.056(2) 0.3962(19)
C24? C 0.3151(12) 0.1143(16) 0.2824(11)
H42? H 0.2685 -0.0986 0.3274
H43? H 0.3445 -0.0686 0.3043
H44? H 0.2801 -0.0513 0.2556
H45? H 0.3032 0.0035 0.4261
H46? H 0.2934 0.1139 0.4141
H47? H 0.3640 0.0635 0.3928
H48? H 0.3654 0.1073 0.2790
H49? H 0.3040 0.1768 0.2998
H50? H 0.2944 0.1067 0.2379
loop_
_geom_bond_atom_site_label_1
_geom_bond_atom_site_label_2
_geom_bond_site_symmetry_1
_geom_bond_site_symmetry_2
P1 Si1 1_555 1_555
Si1 N1 1_555 1_555
Si2 P1 1_555 1_555
Si3 P1 1_555 1_555
N1 C5 1_555 1_555
N2 Si1 1_555 1_555
C1 N2 1_555 1_555
C2 C1 1_555 1_555
H1 C2 1_555 1_555
H2 C2 1_555 1_555
H3 C2 1_555 1_555
C3 C1 1_555 1_555
H4 C3 1_555 1_555
H5 C3 1_555 1_555
H6 C3 1_555 1_555
C4 C1 1_555 1_555
H7 C4 1_555 1_555
H8 C4 1_555 1_555
H9 C4 1_555 1_555
C5 C6 1_555 1_555
C6 H10 1_555 1_555
H11 C6 1_555 1_555
H12 C6 1_555 1_555
C7 C5 1_555 1_555
H13 C7 1_555 1_555
H14 C7 1_555 1_555
H15 C7 1_555 1_555
C8 C5 1_555 1_555
H16 C8 1_555 1_555
H17 C8 1_555 1_555
H18 C8 1_555 1_555
C9 N1 1_555 1_555
C10 C9 1_555 1_555
C11 C10 1_555 1_555
H19 C11 1_555 1_555
C12 C11 1_555 1_555
H20 C12 1_555 1_555
C13 C12 1_555 1_555
H21 C13 1_555 1_555
C14 C13 1_555 1_555
H22 C14 1_555 1_555
C15 C10 1_555 1_555
H23 C15 1_555 1_555
C16 Si3 1_555 1_555
H24 C16 1_555 1_555
H25 C16 1_555 1_555
H26 C16 1_555 1_555
C17 Si3 1_555 1_555
H27 C17 1_555 1_555
H28 C17 1_555 1_555
H29 C17 1_555 1_555
C18 Si3 1_555 1_555
H30 C18 1_555 1_555
H31 C18 1_555 1_555
H32 C18 1_555 1_555
C19 Si2 1_555 1_555
H33 C19 1_555 1_555
H34 C19 1_555 1_555
H35 C19 1_555 1_555
C20 Si2 1_555 1_555
H36 C20 1_555 1_555
H37 C20 1_555 1_555
H38 C20 1_555 1_555
C21 Si2 1_555 1_555
H39 C21 1_555 1_555
H40 C21 1_555 1_555
H41 C21 1_555 1_555
N2 C9 1_555 1_555
C14 C15 1_555 1_555

#END
