
#######################################################################
#
#                 Cambridge Crystallographic Data Centre
#                                CCDC 
#
#######################################################################
#
# If this CIF has been generated from an entry in the Cambridge 
# Structural Database, then it will include bibliographic, chemical, 
# crystal, experimental, refinement or atomic coordinate data resulting 
# from the CCDC's data processing and validation procedures.
#
#######################################################################

data_AVAWID
_chemical_formula_moiety         'C52 H52 N12,2(H2 O1)'
_chemical_name_systematic        
'2,4,6,8,10,12,14,16-Octamethyl-2,4,6,8,10,12,14,16-octa-aza-1,5,9,13(2,6)-tetrapyridina-3,7,11,15(1,3)-tetrabenzena-cyclohexadecaphane dihydrate'
_symmetry_cell_setting           triclinic
_symmetry_space_group_name_H-M   'P -1'
_symmetry_Int_Tables_number      2
_space_group_name_Hall           '-P 1'
loop_
_symmetry_equiv_pos_site_id
_symmetry_equiv_pos_as_xyz
1 x,y,z
2 -x,-y,-z
_cell_length_a                   8.8164(18)
_cell_length_b                   11.5548(18)
_cell_length_c                   13.538(2)
_cell_angle_alpha                78.438(12)
_cell_angle_beta                 89.066(6)
_cell_angle_gamma                75.572(3)
_cell_volume                     1307.72
_chemical_melting_point          209-210deg.C
_cell_formula_units_Z            1
loop_
_atom_site_label
_atom_site_type_symbol
_atom_site_fract_x
_atom_site_fract_y
_atom_site_fract_z
N1 N 0.7562(3) 0.4167(2) 0.9279(2)
N2 N 0.6436(4) 0.4465(2) 0.7710(2)
N3 N 0.2979(3) 0.2601(2) 0.6125(2)
N4 N 0.1786(3) 0.1017(2) 0.6321(2)
N5 N 0.0404(3) -0.0450(2) 0.6462(2)
N6 N 0.8623(3) 0.4069(2) 1.0837(2)
C1 C 0.7465(4) 0.3707(3) 0.8454(3)
C2 C 0.8363(5) 0.2575(3) 0.8349(3)
C3 C 0.9412(5) 0.1924(3) 0.9121(3)
C4 C 0.9560(4) 0.2367(3) 0.9976(3)
C5 C 0.8569(4) 0.3508(3) 1.0029(2)
C6 C 0.5460(5) 0.5635(3) 0.7858(3)
C7 C 0.6035(4) 0.3995(3) 0.6858(3)
C8 C 0.6936(4) 0.4024(3) 0.6030(3)
C9 C 0.6537(4) 0.3568(3) 0.5232(3)
C10 C 0.5231(4) 0.3107(3) 0.5256(3)
C11 C 0.4330(4) 0.3077(3) 0.6098(3)
C12 C 0.4725(4) 0.3522(3) 0.6895(2)
C13 C 0.1469(4) 0.3401(3) 0.6255(4)
C14 C 0.3131(4) 0.1354(3) 0.6259(2)
C15 C 0.4594(4) 0.0523(3) 0.6336(3)
C16 C 0.4599(4) -0.0687(3) 0.6443(3)
C17 C 0.3245(4) -0.1063(3) 0.6508(2)
C18 C 0.1848(4) -0.0172(3) 0.6440(2)
C19 C -0.1013(4) 0.0504(3) 0.6224(3)
C20 C 0.0234(4) -0.1654(3) 0.6866(2)
C21 C 0.0895(4) -0.2280(3) 0.7786(2)
C22 C 0.9327(4) 0.3419(3) 1.1782(2)
C23 C 1.0243(4) 0.3927(3) 1.2309(3)
C24 C 1.0872(5) 0.3303(3) 1.3243(3)
C25 C -0.0649(4) -0.2168(3) 0.6327(3)
C26 C 0.7901(5) 0.5366(3) 1.0703(3)
H1 H 0.8260 0.2267 0.7777
H2 H 1.0037 0.1164 0.9065
H3 H 1.0284 0.1931 1.0494
H4 H 0.5841 0.5840 0.8444
H5 H 0.4398 0.5578 0.7950
H6 H 0.5501 0.6256 0.7276
H7 H 0.7806 0.4347 0.6003
H8 H 0.7156 0.3571 0.4669
H9 H 0.4962 0.2817 0.4707
H10 H 0.4117 0.3509 0.7463
H11 H 0.0667 0.2972 0.6252
H12 H 0.1258 0.4103 0.5712
H13 H 0.1481 0.3659 0.6885
H14 H 0.5520 0.0774 0.6315
H15 H 0.5553 -0.1266 0.6472
H16 H 0.3259 -0.1885 0.6595
H17 H -0.0755 0.1266 0.5966
H18 H -0.1602 0.0563 0.6822
H19 H -0.1628 0.0321 0.5725
H20 H 0.1510 -0.1934 0.8132
H21 H 1.0428 0.4682 1.2032
H22 H 1.1468 0.3654 1.3598
H23 H -0.1082 -0.1762 0.5692
H24 H 0.7481 0.5674 1.0025
H25 H 0.7072 0.5499 1.1167
H26 H 0.8672 0.5782 1.0828
C22A C 0.0673(4) -0.3419(3) 0.8218(2)
N6A N 0.1377(3) -0.4069(2) 0.9163(2)
C5A C 0.1431(4) -0.3508(3) 0.9971(2)
N1A N 0.2438(3) -0.4167(2) 1.0721(2)
C1A C 0.2535(4) -0.3707(3) 1.1546(3)
N2A N 0.3564(4) -0.4465(2) 1.2290(2)
C6A C 0.4540(5) -0.5635(3) 1.2142(3)
H4A H 0.4159 -0.5840 1.1556
H5A H 0.5602 -0.5578 1.2050
H6A H 0.4499 -0.6256 1.2724
C7A C 0.3965(4) -0.3995(3) 1.3142(3)
C8A C 0.3064(4) -0.4024(3) 1.3970(3)
C9A C 0.3463(4) -0.3568(3) 1.4768(3)
C10A C 0.4769(4) -0.3107(3) 1.4744(3)
C11A C 0.5670(4) -0.3077(3) 1.3902(3)
N3A N 0.7021(3) -0.2601(2) 1.3875(2)
C13A C 0.8531(4) -0.3401(3) 1.3745(4)
H11A H 0.9333 -0.2972 1.3748
H12A H 0.8742 -0.4103 1.4288
H13A H 0.8519 -0.3659 1.3115
C14A C 0.6869(4) -0.1354(3) 1.3741(2)
N4A N 0.8214(3) -0.1017(2) 1.3679(2)
C18A C 0.8152(4) 0.0172(3) 1.3560(2)
N5A N 0.9596(3) 0.0450(2) 1.3538(2)
C19A C 1.1013(4) -0.0504(3) 1.3776(3)
H17A H 1.0755 -0.1266 1.4034
H18A H 1.1602 -0.0563 1.3178
H19A H 1.1628 -0.0321 1.4275
C20A C 0.9766(4) 0.1654(3) 1.3134(2)
C21A C 0.9105(4) 0.2280(3) 1.2214(2)
C25A C 1.0649(4) 0.2168(3) 1.3673(3)
H23A H 1.1082 0.1762 1.4308
H20A H 0.8490 0.1934 1.1868
C17A C 0.6755(4) 0.1063(3) 1.3492(2)
C16A C 0.5401(4) 0.0687(3) 1.3557(3)
C15A C 0.5406(4) -0.0523(3) 1.3664(3)
H14A H 0.4480 -0.0774 1.3685
H15A H 0.4447 0.1266 1.3528
H16A H 0.6741 0.1885 1.3405
C12A C 0.5275(4) -0.3522(3) 1.3105(2)
H10A H 0.5883 -0.3509 1.2537
H9A H 0.5038 -0.2817 1.5293
H8A H 0.2844 -0.3571 1.5331
H7A H 0.2194 -0.4347 1.3997
C2A C 0.1637(5) -0.2575(3) 1.1651(3)
C3A C 0.0588(5) -0.1924(3) 1.0879(3)
C4A C 0.0440(4) -0.2367(3) 1.0024(3)
H3A H -0.0284 -0.1931 0.9506
H2A H -0.0037 -0.1164 1.0935
H1A H 0.1740 -0.2267 1.2223
C26A C 0.2099(5) -0.5366(3) 0.9297(3)
H24A H 0.2519 -0.5674 0.9975
H25A H 0.2928 -0.5499 0.8833
H26A H 0.1328 -0.5782 0.9172
C23A C -0.0243(4) -0.3927(3) 0.7691(3)
C24A C -0.0872(5) -0.3303(3) 0.6757(3)
H22A H -0.1468 -0.3654 0.6402
H21A H -0.0428 -0.4682 0.7968
O1 O 0.5000 0.0000 1.0000
O2 O 0.5280(20) 0.1612(14) 1.0560(10)
loop_
_geom_bond_atom_site_label_1
_geom_bond_atom_site_label_2
_geom_bond_site_symmetry_1
_geom_bond_site_symmetry_2
N1 C1 1_555 1_555
N2 C1 1_555 1_555
N3 C11 1_555 1_555
N4 C14 1_555 1_555
N5 C18 1_555 1_555
N6 C5 1_555 1_555
C1 C2 1_555 1_555
C2 C3 1_555 1_555
C3 C4 1_555 1_555
C4 C5 1_555 1_555
C5 N1 1_555 1_555
C6 N2 1_555 1_555
C7 N2 1_555 1_555
C8 C7 1_555 1_555
C9 C8 1_555 1_555
C10 C9 1_555 1_555
C11 C10 1_555 1_555
C12 C7 1_555 1_555
C13 N3 1_555 1_555
C14 N3 1_555 1_555
C15 C14 1_555 1_555
C16 C15 1_555 1_555
C17 C16 1_555 1_555
C18 N4 1_555 1_555
C19 N5 1_555 1_555
C20 N5 1_555 1_555
C21 C20 1_555 1_555
C22 N6 1_555 1_555
C23 C22 1_555 1_555
C24 C23 1_555 1_555
C25 C20 1_555 1_555
C26 N6 1_555 1_555
H1 C2 1_555 1_555
H2 C3 1_555 1_555
H3 C4 1_555 1_555
H4 C6 1_555 1_555
H5 C6 1_555 1_555
H6 C6 1_555 1_555
H7 C8 1_555 1_555
H8 C9 1_555 1_555
H9 C10 1_555 1_555
H10 C12 1_555 1_555
H11 C13 1_555 1_555
H12 C13 1_555 1_555
H13 C13 1_555 1_555
H14 C15 1_555 1_555
H15 C16 1_555 1_555
H16 C17 1_555 1_555
H17 C19 1_555 1_555
H18 C19 1_555 1_555
H19 C19 1_555 1_555
H20 C21 1_555 1_555
H21 C23 1_555 1_555
H22 C24 1_555 1_555
H23 C25 1_555 1_555
H24 C26 1_555 1_555
H25 C26 1_555 1_555
H26 C26 1_555 1_555
C22A C21 1_555 1_555
N6A C22A 1_555 1_555
C5A N6A 1_555 1_555
N1A C5A 1_555 1_555
C1A N1A 1_555 1_555
N2A C1A 1_555 1_555
C6A N2A 1_555 1_555
H4A C6A 1_555 1_555
H5A C6A 1_555 1_555
H6A C6A 1_555 1_555
C7A N2A 1_555 1_555
C8A C7A 1_555 1_555
C9A C8A 1_555 1_555
C10A C9A 1_555 1_555
C11A C10A 1_555 1_555
N3A C11A 1_555 1_555
C13A N3A 1_555 1_555
H11A C13A 1_555 1_555
H12A C13A 1_555 1_555
H13A C13A 1_555 1_555
C14A N3A 1_555 1_555
N4A C14A 1_555 1_555
C18A N4A 1_555 1_555
N5A C18A 1_555 1_555
C19A N5A 1_555 1_555
H17A C19A 1_555 1_555
H18A C19A 1_555 1_555
H19A C19A 1_555 1_555
C20A N5A 1_555 1_555
C21A C22 1_555 1_555
C25A C24 1_555 1_555
H23A C25A 1_555 1_555
H20A C21A 1_555 1_555
C17A C18A 1_555 1_555
C16A C17A 1_555 1_555
C15A C14A 1_555 1_555
H14A C15A 1_555 1_555
H15A C16A 1_555 1_555
H16A C17A 1_555 1_555
C12A C7A 1_555 1_555
H10A C12A 1_555 1_555
H9A C10A 1_555 1_555
H8A C9A 1_555 1_555
H7A C8A 1_555 1_555
C2A C1A 1_555 1_555
C3A C2A 1_555 1_555
C4A C5A 1_555 1_555
H3A C4A 1_555 1_555
H2A C3A 1_555 1_555
H1A C2A 1_555 1_555
C26A N6A 1_555 1_555
H24A C26A 1_555 1_555
H25A C26A 1_555 1_555
H26A C26A 1_555 1_555
C23A C22A 1_555 1_555
C24A C25 1_555 1_555
H22A C24A 1_555 1_555
H21A C23A 1_555 1_555
C11 C12 1_555 1_555
C17 C18 1_555 1_555
C11A C12A 1_555 1_555
C20A C21A 1_555 1_555
C20A C25A 1_555 1_555
C16A C15A 1_555 1_555
C3A C4A 1_555 1_555
C23A C24A 1_555 1_555

#END
