
#######################################################################
#
#                 Cambridge Crystallographic Data Centre
#                                CCDC 
#
#######################################################################
#
# If this CIF has been generated from an entry in the Cambridge 
# Structural Database, then it will include bibliographic, chemical, 
# crystal, experimental, refinement or atomic coordinate data resulting 
# from the CCDC's data processing and validation procedures.
#
#######################################################################

data_AVAYOL
_chemical_formula_moiety         'C11 H17 N1 O5'
_chemical_name_systematic        
N-Methoxycarbonyl-6-exo-hydroxyspiro(8-azabicyclo(3.2.1)oct-6-ene-3,2'-(1,3)dioxolane)
_symmetry_cell_setting           monoclinic
_symmetry_space_group_name_H-M   'P 21'
_symmetry_Int_Tables_number      4
_space_group_name_Hall           'P 2yb'
loop_
_symmetry_equiv_pos_site_id
_symmetry_equiv_pos_as_xyz
1 x,y,z
2 -x,1/2+y,-z
_cell_length_a                   6.3291(2)
_cell_length_b                   10.3221(4)
_cell_length_c                   8.9334(4)
_cell_angle_alpha                90
_cell_angle_beta                 98.513(5)
_cell_angle_gamma                90
_cell_volume                     577.185
_cell_formula_units_Z            2
loop_
_atom_site_label
_atom_site_type_symbol
_atom_site_fract_x
_atom_site_fract_y
_atom_site_fract_z
O1 O -0.4574(4) 0.5523(3) 0.2754(3)
C1 C -0.0282(5) 0.5244(3) 0.0945(3)
N1 N -0.0849(4) 0.4111(3) 0.1775(3)
O2 O 0.2264(3) 0.3799(2) 0.3343(3)
C2 C -0.0139(5) 0.4826(3) -0.0667(4)
O3 O -0.0571(3) 0.2481(2) 0.3409(2)
C3 C -0.2204(5) 0.4231(3) -0.1449(3)
C4 C -0.3264(5) 0.3343(3) -0.0395(4)
O4 O -0.1777(4) 0.3536(3) -0.2745(3)
O5 O -0.3647(3) 0.5228(2) -0.2037(2)
C5 C -0.3122(5) 0.3878(3) 0.1218(3)
C6 C -0.2182(5) 0.6149(3) 0.1048(4)
C7 C -0.4033(5) 0.5251(3) 0.1296(3)
C8 C -0.4973(6) 0.4701(4) -0.3335(4)
C9 C -0.3648(7) 0.3601(5) -0.3855(4)
C10 C 0.0414(4) 0.3499(3) 0.2869(3)
C11 C 0.0620(7) 0.1788(4) 0.4648(4)
H1 H -0.574(11) 0.4920(70) 0.2870(70)
H2 H 0.1064 0.5628 0.1429
H3 H 0.0212 0.5572 -0.1242
H4 H 0.1006 0.4199 -0.0654
H5 H -0.4756 0.3227 -0.0814
H6 H -0.2583 0.2499 -0.0356
H7 H -0.3755 0.3278 0.1878
H8 H -0.1854 0.6747 0.1888
H9 H -0.2539 0.6643 0.0121
H10 H -0.5266 0.5381 0.0507
H11 H -0.5288 0.5350 -0.4121
H12 H -0.6305 0.4377 -0.3065
H13 H -0.4431 0.2791 -0.3900
H14 H -0.3273 0.3784 -0.4848
H15 H -0.0229 0.1087 0.4938
H16 H 0.0981 0.2364 0.5491
H17 H 0.1904 0.1450 0.4345
loop_
_geom_bond_atom_site_label_1
_geom_bond_atom_site_label_2
_geom_bond_site_symmetry_1
_geom_bond_site_symmetry_2
O1 C7 1_555 1_555
C1 N1 1_555 1_555
N1 C5 1_555 1_555
O2 C10 1_555 1_555
C2 C1 1_555 1_555
O3 C10 1_555 1_555
C3 C2 1_555 1_555
C4 C3 1_555 1_555
O4 C3 1_555 1_555
O5 C3 1_555 1_555
C5 C4 1_555 1_555
C6 C1 1_555 1_555
C7 C5 1_555 1_555
C8 O5 1_555 1_555
C9 O4 1_555 1_555
C10 N1 1_555 1_555
C11 O3 1_555 1_555
H1 O1 1_555 1_555
H2 C1 1_555 1_555
H3 C2 1_555 1_555
H4 C2 1_555 1_555
H5 C4 1_555 1_555
H6 C4 1_555 1_555
H7 C5 1_555 1_555
H8 C6 1_555 1_555
H9 C6 1_555 1_555
H10 C7 1_555 1_555
H11 C8 1_555 1_555
H12 C8 1_555 1_555
H13 C9 1_555 1_555
H14 C9 1_555 1_555
H15 C11 1_555 1_555
H16 C11 1_555 1_555
H17 C11 1_555 1_555
C6 C7 1_555 1_555
C8 C9 1_555 1_555

#END
