
#######################################################################
#
#                 Cambridge Crystallographic Data Centre
#                                CCDC 
#
#######################################################################
#
# If this CIF has been generated from an entry in the Cambridge 
# Structural Database, then it will include bibliographic, chemical, 
# crystal, experimental, refinement or atomic coordinate data resulting 
# from the CCDC's data processing and validation procedures.
#
#######################################################################

data_AVAZON
_chemical_formula_moiety         'C90 H108,4(C1 H1 Cl3)'
_chemical_name_systematic        
'1,3,8,10,15,17,22,24,29,31,36,38-Dodeca-t-butylcyclodotetraconta-1,2,8,9,15,16,22,23,29,30,36,37-dodecaene-4,6,11,13,18,20,25,27,32,34,39,41-dodecayne chloroform solvate'
_symmetry_cell_setting           monoclinic
_symmetry_space_group_name_H-M   'C 2'
_symmetry_Int_Tables_number      5
_space_group_name_Hall           'C 2y'
loop_
_symmetry_equiv_pos_site_id
_symmetry_equiv_pos_as_xyz
1 x,y,z
2 1/2+x,1/2+y,z
3 -x,y,-z
4 1/2-x,1/2+y,-z
_cell_length_a                   26.3543(4)
_cell_length_b                   12.0596(3)
_cell_length_c                   20.6919(4)
_cell_angle_alpha                90
_cell_angle_beta                 125.5707(9)
_cell_angle_gamma                90
_cell_volume                     5349.19
_exptl_crystal_colour            colorless
_exptl_crystal_description       cube
_cell_formula_units_Z            2
loop_
_atom_site_label
_atom_site_type_symbol
_atom_site_fract_x
_atom_site_fract_y
_atom_site_fract_z
Cl1 Cl 0.5328(2) 0.0466(3) 0.2692(2)
Cl2 Cl 0.4958(7) -0.1761(4) 0.2107(5)
Cl3 Cl 0.50374(19) -0.0185(3) 0.11454(18)
C1 C 0.523(2) -0.0446(14) 0.2044(10)
H1 H 0.5710 -0.0661 0.2325
Cl4 Cl 0.5595(15) -0.916(3) 0.5676(18)
Cl5 Cl 0.6250(8) -0.7686(19) 0.6905(11)
Cl6 Cl 0.5200(6) -0.8740(12) 0.6709(8)
C2 C 0.5449(8) -0.8063(17) 0.6145(11)
H2 H 0.5153 -0.7398 0.5758
C3 C 0.2147(2) 0.1661(4) 0.1464(3)
C4 C 0.2332(2) 0.0963(4) 0.2130(3)
C5 C 0.2491(2) 0.0366(4) 0.2685(3)
C6 C 0.2657(2) -0.0288(4) 0.3318(3)
C7 C 0.2791(3) -0.0858(4) 0.3884(3)
C8 C 0.2979(3) -0.1510(4) 0.4565(3)
C9 C 0.2418(2) 0.1496(4) 0.1096(3)
C10 C 0.26593(19) 0.1225(3) 0.0718(2)
C11 C 0.3239(2) 0.1695(4) 0.0946(2)
C12 C 0.3723(2) 0.2084(4) 0.1113(3)
C13 C 0.4285(2) 0.2556(4) 0.1340(2)
C14 C 0.4767(2) 0.2979(4) 0.1541(2)
C15 C 0.53539(19) 0.3503(4) 0.1856(2)
C16 C 0.5790(2) 0.2947(4) 0.1867(2)
C17 C 0.62165(19) 0.2379(4) 0.1869(2)
C18 C 0.6582(2) 0.1606(4) 0.2500(3)
C19 C 0.6850(2) 0.0906(4) 0.2998(3)
C20 C 0.7138(3) 0.0116(4) 0.3611(3)
C21 C 0.7360(3) -0.0537(4) 0.4137(3)
C22 C 0.7612(3) -0.1342(4) 0.4767(3)
C23 C 0.7328(3) -0.1425(4) 0.5125(3)
C24 C 0.1632(2) 0.2540(4) 0.1208(3)
C25 C 0.1564(3) 0.3278(5) 0.0567(4)
C26 C 0.1031(3) 0.1928(6) 0.0894(4)
C27 C 0.1802(3) 0.3228(6) 0.1922(4)
C28 C 0.3578(3) -0.2234(5) 0.4937(4)
C29 C 0.3648(5) -0.2977(7) 0.5587(5)
C30 C 0.4121(4) -0.1472(9) 0.5276(6)
C31 C 0.3515(4) -0.2972(6) 0.4290(4)
C32 C 0.2363(2) 0.0332(4) 0.0056(3)
C33 C 0.2742(3) -0.0733(4) 0.0416(4)
C34 C 0.2397(3) 0.0715(5) -0.0627(3)
C35 C 0.1682(3) 0.0141(6) -0.0256(4)
C36 C 0.5418(2) 0.4712(4) 0.2117(3)
C37 C 0.5131(3) 0.4874(5) 0.2584(3)
C38 C 0.5054(2) 0.5419(5) 0.1358(3)
C39 C 0.6107(2) 0.5058(5) 0.2631(3)
C40 C 0.63168(19) 0.2440(4) 0.1203(2)
C41 C 0.7010(2) 0.2578(5) 0.1575(3)
C42 C 0.5974(3) 0.3462(5) 0.0680(3)
C43 C 0.6061(3) 0.1378(5) 0.0716(3)
C44 C 0.8173(3) -0.2035(4) 0.4960(3)
C45 C 0.8700(4) -0.1249(6) 0.5117(4)
C46 C 0.8421(4) -0.2736(6) 0.5706(4)
C47 C 0.7968(4) -0.2799(7) 0.4263(4)
H3 H 0.1491 0.2817 0.0130
H4 H 0.1947 0.3710 0.0790
H5 H 0.1211 0.3782 0.0367
H6 H 0.0916 0.1490 0.0428
H7 H 0.0699 0.2463 0.0743
H8 H 0.1087 0.1433 0.1307
H9 H 0.1454 0.3720 0.1774
H10 H 0.2173 0.3674 0.2102
H11 H 0.1890 0.2736 0.2353
H12 H 0.3669 -0.2514 0.5991
H13 H 0.4031 -0.3415 0.5834
H14 H 0.3288 -0.3476 0.5351
H15 H 0.4096 -0.1079 0.4844
H16 H 0.4509 -0.1903 0.5580
H17 H 0.4116 -0.0934 0.5627
H18 H 0.3136 -0.3423 0.4045
H19 H 0.3879 -0.3460 0.4527
H20 H 0.3489 -0.2506 0.3884
H21 H 0.2669 -0.1043 0.0793
H22 H 0.3187 -0.0567 0.0695
H23 H 0.2614 -0.1272 -0.0007
H24 H 0.2294 0.0093 -0.0989
H25 H 0.2819 0.0978 -0.0410
H26 H 0.2099 0.1319 -0.0918
H27 H 0.1664 -0.0124 0.0178
H28 H 0.1495 -0.0415 -0.0681
H29 H 0.1450 0.0839 -0.0465
H30 H 0.4689 0.4670 0.2246
H31 H 0.5172 0.5653 0.2743
H32 H 0.5351 0.4403 0.3058
H33 H 0.4607 0.5265 0.1069
H34 H 0.5191 0.5235 0.1020
H35 H 0.5131 0.6206 0.1500
H36 H 0.6141 0.5836 0.2790
H37 H 0.6281 0.4971 0.2326
H38 H 0.6338 0.4590 0.3106
H39 H 0.7147 0.3311 0.1824
H40 H 0.7082 0.2511 0.1162
H41 H 0.7246 0.2003 0.1978
H42 H 0.5568 0.3534 0.0591
H43 H 0.5913 0.3374 0.0168
H44 H 0.6223 0.4128 0.0947
H45 H 0.6313 0.0746 0.1046
H46 H 0.6076 0.1433 0.0256
H47 H 0.5627 0.1272 0.0534
H48 H 0.8542 -0.0773 0.4653
H49 H 0.9051 -0.1690 0.5216
H50 H 0.8840 -0.0786 0.5582
H51 H 0.8705 -0.2288 0.6180
H52 H 0.8645 -0.3381 0.5700
H53 H 0.8070 -0.2988 0.5713
H54 H 0.7553 -0.3098 0.4053
H55 H 0.8266 -0.3410 0.4441
H56 H 0.7951 -0.2380 0.3845
C3B C 0.7853(2) 0.1661(4) 0.8536(3)
C4B C 0.7668(2) 0.0963(4) 0.7870(3)
C5B C 0.7509(2) 0.0366(4) 0.7315(3)
C6B C 0.7343(2) -0.0288(4) 0.6682(3)
C7B C 0.7209(3) -0.0858(4) 0.6116(3)
C8B C 0.7021(3) -0.1510(4) 0.5435(3)
C9B C 0.7582(2) 0.1496(4) 0.8904(3)
C10B C 0.73407(19) 0.1225(3) 0.9282(2)
C11B C 0.6761(2) 0.1695(4) 0.9054(2)
C12B C 0.6277(2) 0.2084(4) 0.8887(3)
C13B C 0.5715(2) 0.2556(4) 0.8660(2)
C14B C 0.5233(2) 0.2979(4) 0.8459(2)
C15B C 0.46461(19) 0.3503(4) 0.8144(2)
C16B C 0.4210(2) 0.2947(4) 0.8133(2)
C17B C 0.37835(19) 0.2379(4) 0.8131(2)
C18B C 0.3418(2) 0.1606(4) 0.7500(3)
C19B C 0.3150(2) 0.0906(4) 0.7002(3)
C20B C 0.2862(3) 0.0116(4) 0.6389(3)
C21B C 0.2640(3) -0.0537(4) 0.5863(3)
C22B C 0.2388(3) -0.1342(4) 0.5233(3)
C23B C 0.2672(3) -0.1425(4) 0.4875(3)
C24B C 0.8368(2) 0.2540(4) 0.8792(3)
C25B C 0.8436(3) 0.3278(5) 0.9433(4)
C26B C 0.8969(3) 0.1928(6) 0.9106(4)
C27B C 0.8198(3) 0.3228(6) 0.8078(4)
C28B C 0.6422(3) -0.2234(5) 0.5063(4)
C29B C 0.6352(5) -0.2977(7) 0.4413(5)
C30B C 0.5879(4) -0.1472(9) 0.4724(6)
C31B C 0.6485(4) -0.2972(6) 0.5710(4)
C32B C 0.7637(2) 0.0332(4) 0.9944(3)
C33B C 0.7258(3) -0.0733(4) 0.9584(4)
C34B C 0.7603(3) 0.0715(5) 1.0627(3)
C35B C 0.8318(3) 0.0141(6) 1.0256(4)
C36B C 0.4582(2) 0.4712(4) 0.7883(3)
C37B C 0.4869(3) 0.4874(5) 0.7416(3)
C38B C 0.4946(2) 0.5419(5) 0.8642(3)
C39B C 0.3893(2) 0.5058(5) 0.7369(3)
C40B C 0.36832(19) 0.2440(4) 0.8797(2)
C41B C 0.2990(2) 0.2578(5) 0.8425(3)
C42B C 0.4026(3) 0.3462(5) 0.9320(3)
C43B C 0.3939(3) 0.1378(5) 0.9284(3)
C44B C 0.1827(3) -0.2035(4) 0.5040(3)
C45B C 0.1300(4) -0.1249(6) 0.4883(4)
C46B C 0.1579(4) -0.2736(6) 0.4294(4)
C47B C 0.2032(4) -0.2799(7) 0.5737(4)
H3B H 0.8509 0.2817 0.9870
H4B H 0.8053 0.3710 0.9210
H5B H 0.8789 0.3782 0.9633
H6B H 0.9084 0.1490 0.9572
H7B H 0.9301 0.2463 0.9257
H8B H 0.8913 0.1433 0.8693
H9B H 0.8546 0.3720 0.8226
H10B H 0.7827 0.3674 0.7898
H11B H 0.8110 0.2736 0.7647
H12B H 0.6331 -0.2514 0.4009
H13B H 0.5969 -0.3415 0.4166
H14B H 0.6712 -0.3476 0.4649
H15B H 0.5904 -0.1079 0.5156
H16B H 0.5491 -0.1903 0.4420
H17B H 0.5884 -0.0934 0.4373
H18B H 0.6864 -0.3423 0.5955
H19B H 0.6121 -0.3460 0.5473
H20B H 0.6511 -0.2506 0.6116
H21B H 0.7331 -0.1043 0.9207
H22B H 0.6813 -0.0567 0.9305
H23B H 0.7386 -0.1272 1.0007
H24B H 0.7706 0.0093 1.0989
H25B H 0.7181 0.0978 1.0410
H26B H 0.7901 0.1319 1.0918
H27B H 0.8336 -0.0124 0.9822
H28B H 0.8505 -0.0415 1.0681
H29B H 0.8550 0.0839 1.0465
H30B H 0.5311 0.4670 0.7754
H31B H 0.4828 0.5653 0.7257
H32B H 0.4649 0.4403 0.6942
H33B H 0.5393 0.5265 0.8931
H34B H 0.4809 0.5235 0.8980
H35B H 0.4869 0.6206 0.8500
H36B H 0.3859 0.5836 0.7210
H37B H 0.3719 0.4971 0.7674
H38B H 0.3662 0.4590 0.6894
H39B H 0.2853 0.3311 0.8176
H40B H 0.2918 0.2511 0.8838
H41B H 0.2754 0.2003 0.8022
H42B H 0.4432 0.3534 0.9409
H43B H 0.4087 0.3374 0.9832
H44B H 0.3777 0.4128 0.9053
H45B H 0.3687 0.0746 0.8954
H46B H 0.3924 0.1433 0.9744
H47B H 0.4373 0.1272 0.9466
H48B H 0.1458 -0.0773 0.5347
H49B H 0.0949 -0.1690 0.4784
H50B H 0.1160 -0.0786 0.4418
H51B H 0.1295 -0.2288 0.3820
H52B H 0.1355 -0.3381 0.4300
H53B H 0.1930 -0.2988 0.4287
H54B H 0.2447 -0.3098 0.5947
H55B H 0.1734 -0.3410 0.5559
H56B H 0.2049 -0.2380 0.6155
C48? C 0.6131(7) -0.5252(14) 0.7037(9)
C49? C 0.4005(13) -0.1891(15) 0.2627(15)
Cl7? Cl 0.3947(6) -0.0556(11) 0.2849(8)
Cl8? Cl 0.4216(14) -0.3129(18) 0.3131(16)
Cl9? Cl 0.4241(19) -0.204(3) 0.197(2)
Cl10? Cl 0.67819(17) -0.4921(3) 0.7032(2)
Cl11? Cl 0.63073(17) -0.6428(3) 0.7621(2)
Cl12? Cl 0.5464(2) -0.5428(4) 0.6063(3)
H57? H 0.6049 -0.4571 0.7305
H58? H 0.3514 -0.2058 0.2202
loop_
_geom_bond_atom_site_label_1
_geom_bond_atom_site_label_2
_geom_bond_site_symmetry_1
_geom_bond_site_symmetry_2
Cl1 C1 1_555 1_555
Cl2 C1 1_555 1_555
Cl3 C1 1_555 1_555
C1 H1 1_555 1_555
Cl4 C2 1_555 1_555
Cl5 C2 1_555 1_555
Cl6 C2 1_555 1_555
C2 H2 1_555 1_555
C3 C4 1_555 1_555
C4 C5 1_555 1_555
C5 C6 1_555 1_555
C6 C7 1_555 1_555
C7 C8 1_555 1_555
C8 C28 1_555 1_555
C9 C3 1_555 1_555
C10 C9 1_555 1_555
C11 C10 1_555 1_555
C12 C11 1_555 1_555
C13 C12 1_555 1_555
C14 C13 1_555 1_555
C15 C14 1_555 1_555
C16 C15 1_555 1_555
C17 C16 1_555 1_555
C18 C17 1_555 1_555
C19 C18 1_555 1_555
C20 C19 1_555 1_555
C21 C20 1_555 1_555
C22 C21 1_555 1_555
C23 C22 1_555 1_555
C24 C3 1_555 1_555
C25 C24 1_555 1_555
C26 C24 1_555 1_555
C27 C24 1_555 1_555
C28 C29 1_555 1_555
C29 H12 1_555 1_555
C30 C28 1_555 1_555
C31 C28 1_555 1_555
C32 C10 1_555 1_555
C33 C32 1_555 1_555
C34 C32 1_555 1_555
C35 C32 1_555 1_555
C36 C15 1_555 1_555
C37 C36 1_555 1_555
C38 C36 1_555 1_555
C39 C36 1_555 1_555
C40 C17 1_555 1_555
C41 C40 1_555 1_555
C42 C40 1_555 1_555
C43 C40 1_555 1_555
C44 C22 1_555 1_555
C45 C44 1_555 1_555
C46 C44 1_555 1_555
C47 C44 1_555 1_555
H3 C25 1_555 1_555
H4 C25 1_555 1_555
H5 C25 1_555 1_555
H6 C26 1_555 1_555
H7 C26 1_555 1_555
H8 C26 1_555 1_555
H9 C27 1_555 1_555
H10 C27 1_555 1_555
H11 C27 1_555 1_555
H13 C29 1_555 1_555
H14 C29 1_555 1_555
H15 C30 1_555 1_555
H16 C30 1_555 1_555
H17 C30 1_555 1_555
H18 C31 1_555 1_555
H19 C31 1_555 1_555
H20 C31 1_555 1_555
H21 C33 1_555 1_555
H22 C33 1_555 1_555
H23 C33 1_555 1_555
H24 C34 1_555 1_555
H25 C34 1_555 1_555
H26 C34 1_555 1_555
H27 C35 1_555 1_555
H28 C35 1_555 1_555
H29 C35 1_555 1_555
H30 C37 1_555 1_555
H31 C37 1_555 1_555
H32 C37 1_555 1_555
H33 C38 1_555 1_555
H34 C38 1_555 1_555
H35 C38 1_555 1_555
H36 C39 1_555 1_555
H37 C39 1_555 1_555
H38 C39 1_555 1_555
H39 C41 1_555 1_555
H40 C41 1_555 1_555
H41 C41 1_555 1_555
H42 C42 1_555 1_555
H43 C42 1_555 1_555
H44 C42 1_555 1_555
H45 C43 1_555 1_555
H46 C43 1_555 1_555
H47 C43 1_555 1_555
H48 C45 1_555 1_555
H49 C45 1_555 1_555
H50 C45 1_555 1_555
H51 C46 1_555 1_555
H52 C46 1_555 1_555
H53 C46 1_555 1_555
H54 C47 1_555 1_555
H55 C47 1_555 1_555
H56 C47 1_555 1_555
C3B C4B 1_555 1_555
C4B C5B 1_555 1_555
C5B C6B 1_555 1_555
C6B C7B 1_555 1_555
C7B C8B 1_555 1_555
C8B C23 1_555 1_555
C9B C3B 1_555 1_555
C10B C9B 1_555 1_555
C11B C10B 1_555 1_555
C12B C11B 1_555 1_555
C13B C12B 1_555 1_555
C14B C13B 1_555 1_555
C15B C14B 1_555 1_555
C16B C15B 1_555 1_555
C17B C16B 1_555 1_555
C18B C17B 1_555 1_555
C19B C18B 1_555 1_555
C20B C19B 1_555 1_555
C21B C20B 1_555 1_555
C22B C21B 1_555 1_555
C23B C8 1_555 1_555
C24B C3B 1_555 1_555
C25B C24B 1_555 1_555
C26B C24B 1_555 1_555
C27B C24B 1_555 1_555
C28B C8B 1_555 1_555
C29B C28B 1_555 1_555
C30B C28B 1_555 1_555
C31B C28B 1_555 1_555
C32B C10B 1_555 1_555
C33B C32B 1_555 1_555
C34B C32B 1_555 1_555
C35B C32B 1_555 1_555
C36B C15B 1_555 1_555
C37B C36B 1_555 1_555
C38B C36B 1_555 1_555
C39B C36B 1_555 1_555
C40B C17B 1_555 1_555
C41B C40B 1_555 1_555
C42B C40B 1_555 1_555
C43B C40B 1_555 1_555
C44B C22B 1_555 1_555
C45B C44B 1_555 1_555
C46B C44B 1_555 1_555
C47B C44B 1_555 1_555
H3B C25B 1_555 1_555
H4B C25B 1_555 1_555
H5B C25B 1_555 1_555
H6B C26B 1_555 1_555
H7B C26B 1_555 1_555
H8B C26B 1_555 1_555
H9B C27B 1_555 1_555
H10B C27B 1_555 1_555
H11B C27B 1_555 1_555
H12B C29B 1_555 1_555
H13B C29B 1_555 1_555
H14B C29B 1_555 1_555
H15B C30B 1_555 1_555
H16B C30B 1_555 1_555
H17B C30B 1_555 1_555
H18B C31B 1_555 1_555
H19B C31B 1_555 1_555
H20B C31B 1_555 1_555
H21B C33B 1_555 1_555
H22B C33B 1_555 1_555
H23B C33B 1_555 1_555
H24B C34B 1_555 1_555
H25B C34B 1_555 1_555
H26B C34B 1_555 1_555
H27B C35B 1_555 1_555
H28B C35B 1_555 1_555
H29B C35B 1_555 1_555
H30B C37B 1_555 1_555
H31B C37B 1_555 1_555
H32B C37B 1_555 1_555
H33B C38B 1_555 1_555
H34B C38B 1_555 1_555
H35B C38B 1_555 1_555
H36B C39B 1_555 1_555
H37B C39B 1_555 1_555
H38B C39B 1_555 1_555
H39B C41B 1_555 1_555
H40B C41B 1_555 1_555
H41B C41B 1_555 1_555
H42B C42B 1_555 1_555
H43B C42B 1_555 1_555
H44B C42B 1_555 1_555
H45B C43B 1_555 1_555
H46B C43B 1_555 1_555
H47B C43B 1_555 1_555
H48B C45B 1_555 1_555
H49B C45B 1_555 1_555
H50B C45B 1_555 1_555
H51B C46B 1_555 1_555
H52B C46B 1_555 1_555
H53B C46B 1_555 1_555
H54B C47B 1_555 1_555
H55B C47B 1_555 1_555
H56B C47B 1_555 1_555
C22B C23B 1_555 1_555

#END
