
#######################################################################
#
#                 Cambridge Crystallographic Data Centre
#                                CCDC 
#
#######################################################################
#
# If this CIF has been generated from an entry in the Cambridge 
# Structural Database, then it will include bibliographic, chemical, 
# crystal, experimental, refinement or atomic coordinate data resulting 
# from the CCDC's data processing and validation procedures.
#
#######################################################################

data_AVAZIH
_chemical_formula_moiety         'C45 H54,C2 H3 N1'
_chemical_name_systematic        
'1,3,8,10,15,17-hexa-t-butylcyclohenicosa-1,2,8,9,15,16-hexaene-4,6,11,13,18,20-hexayne acetonitrile solvate'
_symmetry_cell_setting           monoclinic
_symmetry_space_group_name_H-M   'P 21/c'
_symmetry_Int_Tables_number      14
_space_group_name_Hall           '-P 2ybc'
loop_
_symmetry_equiv_pos_site_id
_symmetry_equiv_pos_as_xyz
1 x,y,z
2 -x,1/2+y,1/2-z
3 -x,-y,-z
4 x,1/2-y,1/2+z
_cell_length_a                   14.7322(3)
_cell_length_b                   12.2840(2)
_cell_length_c                   24.7809(6)
_cell_angle_alpha                90
_cell_angle_beta                 100.3759(7)
_cell_angle_gamma                90
_cell_volume                     4411.27
_exptl_crystal_colour            colorless
_exptl_crystal_description       rod
_cell_formula_units_Z            4
loop_
_atom_site_label
_atom_site_type_symbol
_atom_site_fract_x
_atom_site_fract_y
_atom_site_fract_z
N1 N 0.2218(2) 0.2335(4) 0.25116(16)
C46 C 0.2568(2) 0.2983(2) 0.35309(14)
C47 C 0.2370(2) 0.2610(3) 0.29601(17)
H55 H 0.2544 0.2300 0.3802
H56 H 0.2059 0.3579 0.3596
H57 H 0.3246 0.3347 0.3616
C1 C 0.36298(12) 0.01311(13) 0.45355(7)
C2 C 0.42577(12) 0.09971(14) 0.44803(7)
C3 C 0.47160(12) 0.17736(14) 0.43978(7)
C4 C 0.51744(12) 0.27142(14) 0.43123(7)
C5 C 0.55127(11) 0.35866(14) 0.42440(7)
C6 C 0.57798(11) 0.46962(13) 0.41806(8)
C7 C 0.53177(12) 0.52085(13) 0.37502(8)
C8 C 0.47923(12) 0.56199(13) 0.33114(7)
C9 C 0.38624(12) 0.59027(13) 0.33499(7)
C10 C 0.30576(12) 0.60027(14) 0.33868(7)
C11 C 0.21590(12) 0.60211(14) 0.34669(7)
C12 C 0.13924(12) 0.59704(14) 0.35701(8)
C13 C 0.05003(12) 0.58259(14) 0.37198(7)
C14 C 0.01218(12) 0.48536(15) 0.36233(8)
C15 C -0.01881(12) 0.38487(14) 0.35474(8)
C16 C 0.01700(12) 0.30674(15) 0.39632(8)
C17 C 0.05666(12) 0.24178(14) 0.42865(8)
C18 C 0.11119(12) 0.16936(15) 0.46210(8)
C19 C 0.16599(12) 0.10880(14) 0.48898(8)
C20 C 0.23983(12) 0.04215(13) 0.51707(8)
C21 C 0.30642(12) 0.02471(13) 0.48879(7)
C22 C 0.35676(13) -0.08427(15) 0.41376(8)
C23 C 0.30275(19) -0.0473(3) 0.35916(10)
C24 C 0.3092(2) -0.1787(2) 0.43758(14)
C25 C 0.45293(14) -0.12065(17) 0.40697(9)
C26 C 0.65432(12) 0.52025(14) 0.46099(8)
C27 C 0.66413(15) 0.64120(16) 0.44919(10)
C28 C 0.74431(13) 0.46030(18) 0.45736(10)
C29 C 0.63273(15) 0.50434(18) 0.51827(9)
C30 C 0.51026(14) 0.57352(17) 0.27557(8)
C31 C 0.44332(19) 0.5103(2) 0.23281(10)
C32 C 0.5095(2) 0.6947(2) 0.26131(12)
C33 C 0.60809(17) 0.5273(3) 0.27970(11)
C34 C 0.00740(12) 0.67547(15) 0.40036(8)
C35 C 0.00073(18) 0.77668(17) 0.36383(10)
C36 C 0.06940(14) 0.69753(19) 0.45573(9)
C37 C -0.08811(13) 0.64230(18) 0.41000(10)
C38 C -0.08514(13) 0.34556(16) 0.30333(8)
C39 C -0.09420(18) 0.4326(2) 0.25903(10)
C40 C -0.17843(14) 0.3214(2) 0.31972(10)
C41 C -0.04620(16) 0.24051(18) 0.28268(9)
C42 C 0.23797(12) 0.00192(14) 0.57533(7)
C43 C 0.26066(15) 0.09804(15) 0.61526(8)
C44 C 0.14094(13) -0.04177(17) 0.57724(9)
C45 C 0.30872(13) -0.08853(15) 0.59046(8)
H1 H 0.3383 0.0196 0.3438
H2 H 0.2349 -0.0211 0.3643
H3 H 0.2965 -0.1139 0.3303
H4 H 0.2381 -0.1576 0.4379
H5 H 0.3440 -0.1948 0.4790
H6 H 0.3117 -0.2505 0.4127
H7 H 0.4474 -0.1899 0.3797
H8 H 0.4923 -0.1431 0.4465
H9 H 0.4872 -0.0548 0.3899
H10 H 0.6010 0.6829 0.4528
H11 H 0.6778 0.6514 0.4081
H12 H 0.7205 0.6749 0.4783
H13 H 0.8000 0.4943 0.4869
H14 H 0.7596 0.4694 0.4166
H15 H 0.7368 0.3750 0.4661
H16 H 0.6895 0.5345 0.5483
H17 H 0.6227 0.4188 0.5253
H18 H 0.5707 0.5485 0.5218
H19 H 0.4426 0.4259 0.2449
H20 H 0.4650 0.5161 0.1935
H21 H 0.3749 0.5441 0.2296
H22 H 0.4409 0.7270 0.2599
H23 H 0.5296 0.7051 0.2218
H24 H 0.5575 0.7375 0.2922
H25 H 0.6546 0.5701 0.3113
H26 H 0.6306 0.5375 0.2409
H27 H 0.6079 0.4418 0.2898
H28 H 0.0683 0.7968 0.3557
H29 H -0.0255 0.8441 0.3844
H30 H -0.0454 0.7606 0.3256
H31 H 0.0688 0.6276 0.4821
H32 H 0.0442 0.7679 0.4746
H33 H 0.1391 0.7126 0.4496
H34 H -0.1332 0.6300 0.3710
H35 H -0.1158 0.7058 0.4325
H36 H -0.0830 0.5676 0.4334
H37 H -0.1244 0.5050 0.2731
H38 H -0.1379 0.4029 0.2223
H39 H -0.0268 0.4516 0.2503
H40 H -0.1686 0.2660 0.3541
H41 H -0.2240 0.2848 0.2855
H42 H -0.2085 0.3963 0.3311
H43 H 0.0218 0.2561 0.2739
H44 H -0.0911 0.2133 0.2458
H45 H -0.0419 0.1783 0.3138
H46 H 0.3299 0.1263 0.6146
H47 H 0.2557 0.0719 0.6562
H48 H 0.2123 0.1634 0.6030
H49 H 0.0907 0.0218 0.5651
H50 H 0.1377 -0.0680 0.6184
H51 H 0.1261 -0.1098 0.5495
H52 H 0.2912 -0.1565 0.5629
H53 H 0.3087 -0.1146 0.6321
H54 H 0.3764 -0.0586 0.5871
loop_
_geom_bond_atom_site_label_1
_geom_bond_atom_site_label_2
_geom_bond_site_symmetry_1
_geom_bond_site_symmetry_2
N1 C47 1_555 1_555
C1 C2 1_555 1_555
C2 C3 1_555 1_555
C3 C4 1_555 1_555
C4 C5 1_555 1_555
C5 C6 1_555 1_555
C6 C7 1_555 1_555
C7 C8 1_555 1_555
C8 C9 1_555 1_555
C9 C10 1_555 1_555
C10 C11 1_555 1_555
C11 C12 1_555 1_555
C12 C13 1_555 1_555
C13 C14 1_555 1_555
C14 C15 1_555 1_555
C15 C16 1_555 1_555
C16 C17 1_555 1_555
C17 C18 1_555 1_555
C18 C19 1_555 1_555
C19 C20 1_555 1_555
C20 C21 1_555 1_555
C21 C1 1_555 1_555
C22 C1 1_555 1_555
C23 C22 1_555 1_555
C24 C22 1_555 1_555
C25 C22 1_555 1_555
C26 C6 1_555 1_555
C27 C26 1_555 1_555
C28 C26 1_555 1_555
C29 C26 1_555 1_555
C30 C8 1_555 1_555
C31 C30 1_555 1_555
C32 C30 1_555 1_555
C33 C30 1_555 1_555
C34 C13 1_555 1_555
C35 C34 1_555 1_555
C36 C34 1_555 1_555
C37 C34 1_555 1_555
C38 C15 1_555 1_555
C39 C38 1_555 1_555
C40 C38 1_555 1_555
C41 C38 1_555 1_555
C42 C20 1_555 1_555
C43 C42 1_555 1_555
C44 C42 1_555 1_555
C45 C42 1_555 1_555
C46 C47 1_555 1_555
H1 C23 1_555 1_555
H2 C23 1_555 1_555
H3 C23 1_555 1_555
H4 C24 1_555 1_555
H5 C24 1_555 1_555
H6 C24 1_555 1_555
H7 C25 1_555 1_555
H8 C25 1_555 1_555
H9 C25 1_555 1_555
H10 C27 1_555 1_555
H11 C27 1_555 1_555
H12 C27 1_555 1_555
H13 C28 1_555 1_555
H14 C28 1_555 1_555
H15 C28 1_555 1_555
H16 C29 1_555 1_555
H17 C29 1_555 1_555
H18 C29 1_555 1_555
H19 C31 1_555 1_555
H20 C31 1_555 1_555
H21 C31 1_555 1_555
H22 C32 1_555 1_555
H23 C32 1_555 1_555
H24 C32 1_555 1_555
H25 C33 1_555 1_555
H26 C33 1_555 1_555
H27 C33 1_555 1_555
H28 C35 1_555 1_555
H29 C35 1_555 1_555
H30 C35 1_555 1_555
H31 C36 1_555 1_555
H32 C36 1_555 1_555
H33 C36 1_555 1_555
H34 C37 1_555 1_555
H35 C37 1_555 1_555
H36 C37 1_555 1_555
H37 C39 1_555 1_555
H38 C39 1_555 1_555
H39 C39 1_555 1_555
H40 C40 1_555 1_555
H41 C40 1_555 1_555
H42 C40 1_555 1_555
H43 C41 1_555 1_555
H44 C41 1_555 1_555
H45 C41 1_555 1_555
H46 C43 1_555 1_555
H47 C43 1_555 1_555
H48 C43 1_555 1_555
H49 C44 1_555 1_555
H50 C44 1_555 1_555
H51 C44 1_555 1_555
H52 C45 1_555 1_555
H53 C45 1_555 1_555
H54 C45 1_555 1_555
H55 C46 1_555 1_555
H56 C46 1_555 1_555
H57 C46 1_555 1_555

#END
