
#######################################################################
#
#                 Cambridge Crystallographic Data Centre
#                                CCDC 
#
#######################################################################
#
# If this CIF has been generated from an entry in the Cambridge 
# Structural Database, then it will include bibliographic, chemical, 
# crystal, experimental, refinement or atomic coordinate data resulting 
# from the CCDC's data processing and validation procedures.
#
#######################################################################

data_AVAZUT
_chemical_formula_moiety         'C30 H32 O11'
_chemical_name_systematic        
'Methyl 8,14-dihydroxy-16,29-dimethyl-6,24-dioxo-5,13,17,25,30-pentaoxaoctacyclo[20.6.2.1^3,7^.0^1,20^.0^9,18^.0^10,15^.0^19,31^.0^23,28^]hentriaconta-2,7(31),10(15),23(28)-tetraene-9-carboxylate'
_symmetry_cell_setting           monoclinic
_symmetry_space_group_name_H-M   'P 21/c'
_symmetry_Int_Tables_number      14
_space_group_name_Hall           '-P 2ybc'
loop_
_symmetry_equiv_pos_site_id
_symmetry_equiv_pos_as_xyz
1 x,y,z
2 -x,1/2+y,1/2-z
3 -x,-y,-z
4 x,1/2-y,1/2+z
_cell_length_a                   8.6400(17)
_cell_length_b                   12.094(2)
_cell_length_c                   25.519(5)
_cell_angle_alpha                90
_cell_angle_beta                 96.91(3)
_cell_angle_gamma                90
_cell_volume                     2647.17
_cell_formula_units_Z            4
loop_
_atom_site_label
_atom_site_type_symbol
_atom_site_fract_x
_atom_site_fract_y
_atom_site_fract_z
O1 O -0.1125(5) 0.2074(3) 0.27890(14)
O2 O 0.0655(4) 0.0769(3) 0.27814(12)
O3 O -0.2750(3) 0.1181(2) 0.12312(11)
O4 O 0.4762(3) 0.1349(2) 0.02128(10)
O5 O 0.6091(3) 0.2894(2) 0.02050(11)
O6 O 0.0894(3) 0.45395(18) 0.06644(9)
O7 O 0.3893(4) 0.4720(2) 0.03228(11)
H1 H 0.2952 0.4837 0.0276
O8 O 0.1624(4) 0.7977(2) 0.03901(11)
H2 H 0.2294 0.7716 0.0224
O9 O 0.3128(4) 0.8152(2) 0.12061(12)
O10 O 0.5313(4) 0.3805(3) 0.18654(13)
O11 O 0.3243(3) 0.4561(3) 0.21579(10)
C1 C -0.0477(6) 0.1421(4) 0.25334(18)
C2 C 0.1216(6) -0.0128(4) 0.24840(17)
H3 H 0.0415 -0.0691 0.2425
H4 H 0.2122 -0.0458 0.2686
C3 C 0.1651(5) 0.0270(3) 0.19558(15)
H5 H 0.2555 0.0751 0.2010
H6 H 0.1903 -0.0355 0.1744
C4 C 0.0299(4) 0.0883(3) 0.16814(14)
C5 C 0.0006(4) 0.1140(3) 0.10960(13)
C6 C 0.1238(4) 0.0653(3) 0.08022(14)
H7 H 0.1113 -0.0065 0.0674
C7 C 0.2514(4) 0.1217(3) 0.07180(13)
C8 C 0.2756(4) 0.2368(3) 0.08584(13)
C9 C 0.3985(4) 0.2926(3) 0.07125(13)
C10 C 0.4273(4) 0.4141(3) 0.08046(14)
H8 H 0.5384 0.4249 0.0923
C11 C 0.3320(4) 0.4606(3) 0.12369(14)
C12 C 0.1620(4) 0.4164(3) 0.11604(13)
H9 H 0.1055 0.4460 0.1441
C13 C 0.1584(4) 0.2902(3) 0.11781(14)
H10 H 0.1897 0.2693 0.1547
C14 C -0.0054(4) 0.2421(3) 0.10278(14)
H11 H -0.0379 0.2587 0.0655
C15 C -0.1292(4) 0.2891(3) 0.13543(15)
H12 H -0.0809 0.3404 0.1617
H13 H -0.2083 0.3286 0.1125
C16 C -0.2035(4) 0.1936(3) 0.16250(15)
H14 H -0.2810 0.2215 0.1843
C17 C -0.0774(4) 0.1341(3) 0.19571(15)
C18 C -0.1670(4) 0.0723(3) 0.08986(15)
H15 H -0.1956 0.0998 0.0539
C19 C 0.3867(4) 0.0643(3) 0.05211(16)
H16 H 0.4548 0.0360 0.0821
H17 H 0.3482 0.0016 0.0306
C20 C 0.5024(4) 0.2397(3) 0.03705(15)
C21 C 0.0641(4) 0.5723(3) 0.06406(15)
H18 H 0.0604 0.5939 0.0269
C22 C 0.1999(4) 0.6353(3) 0.09436(14)
C23 C 0.1853(5) 0.7587(3) 0.09151(16)
H19 H 0.0917 0.7783 0.1077
C24 C 0.4590(6) 0.7634(3) 0.11777(18)
H20 H 0.5416 0.8091 0.1355
H21 H 0.4766 0.7559 0.0811
C25 C 0.4633(5) 0.6523(3) 0.14302(17)
H22 H 0.4623 0.6601 0.1808
H23 H 0.5582 0.6140 0.1370
C26 C 0.3234(4) 0.5868(3) 0.11978(14)
C27 C 0.4091(6) 0.4270(4) 0.17789(17)
C28 C 0.3842(5) 0.4268(4) 0.26904(16)
H24 H 0.3130 0.4515 0.2927
H25 H 0.4837 0.4614 0.2782
H26 H 0.3957 0.3480 0.2717
C29 C -0.0951(5) 0.5991(4) 0.08085(19)
H27 H -0.1738 0.5572 0.0598
H28 H -0.1160 0.6766 0.0759
H29 H -0.0956 0.5805 0.1174
C30 C -0.1860(5) -0.0521(3) 0.08916(18)
H30 H -0.2915 -0.0706 0.0759
H31 H -0.1623 -0.0804 0.1244
H32 H -0.1162 -0.0841 0.0668
loop_
_geom_bond_atom_site_label_1
_geom_bond_atom_site_label_2
_geom_bond_site_symmetry_1
_geom_bond_site_symmetry_2
O1 C1 1_555 1_555
O2 C1 1_555 1_555
O3 C16 1_555 1_555
O4 C19 1_555 1_555
O5 C20 1_555 1_555
O6 C12 1_555 1_555
O7 H1 1_555 1_555
O8 H2 1_555 1_555
O9 C23 1_555 1_555
O10 C27 1_555 1_555
O11 C27 1_555 1_555
C1 C17 1_555 1_555
C2 O2 1_555 1_555
H3 C2 1_555 1_555
H4 C2 1_555 1_555
C3 C2 1_555 1_555
H5 C3 1_555 1_555
H6 C3 1_555 1_555
C4 C3 1_555 1_555
C5 C4 1_555 1_555
C6 C5 1_555 1_555
H7 C6 1_555 1_555
C7 C6 1_555 1_555
C8 C7 1_555 1_555
C9 C8 1_555 1_555
C10 O7 1_555 1_555
H8 C10 1_555 1_555
C11 C10 1_555 1_555
C12 C11 1_555 1_555
H9 C12 1_555 1_555
C13 C8 1_555 1_555
H10 C13 1_555 1_555
C14 C5 1_555 1_555
H11 C14 1_555 1_555
C15 C14 1_555 1_555
H12 C15 1_555 1_555
H13 C15 1_555 1_555
C16 C15 1_555 1_555
H14 C16 1_555 1_555
C17 C4 1_555 1_555
C18 O3 1_555 1_555
H15 C18 1_555 1_555
C19 C7 1_555 1_555
H16 C19 1_555 1_555
H17 C19 1_555 1_555
C20 O4 1_555 1_555
C21 O6 1_555 1_555
H18 C21 1_555 1_555
C22 C21 1_555 1_555
C23 O8 1_555 1_555
H19 C23 1_555 1_555
C24 O9 1_555 1_555
H20 C24 1_555 1_555
H21 C24 1_555 1_555
C25 C24 1_555 1_555
H22 C25 1_555 1_555
H23 C25 1_555 1_555
C26 C11 1_555 1_555
C27 C11 1_555 1_555
C28 O11 1_555 1_555
H24 C28 1_555 1_555
H25 C28 1_555 1_555
H26 C28 1_555 1_555
C29 C21 1_555 1_555
H27 C29 1_555 1_555
H28 C29 1_555 1_555
H29 C29 1_555 1_555
C30 C18 1_555 1_555
H30 C30 1_555 1_555
H31 C30 1_555 1_555
H32 C30 1_555 1_555
C5 C18 1_555 1_555
C9 C10 1_555 1_555
C9 C20 1_555 1_555
C12 C13 1_555 1_555
C13 C14 1_555 1_555
C16 C17 1_555 1_555
C22 C23 1_555 1_555
C22 C26 1_555 1_555
C25 C26 1_555 1_555

#END
