
#######################################################################
#
#                 Cambridge Crystallographic Data Centre
#                                CCDC 
#
#######################################################################
#
# If this CIF has been generated from an entry in the Cambridge 
# Structural Database, then it will include bibliographic, chemical, 
# crystal, experimental, refinement or atomic coordinate data resulting 
# from the CCDC's data processing and validation procedures.
#
#######################################################################

data_AVEBAF
_chemical_formula_moiety         'C29 H28 O10,0.5(C2 H3 N1)'
_chemical_name_systematic        
'31-hydroxy-16,29-dimethyl-5,11,17,25,30,32-hexaoxanonacyclo[20.6.2.2^8,15^.1^3,7^.0^1,20^.0^9,14^.0^9,18^.0^19,33^.0^23,28^]tritriaconta-2,7(33),13,23(28)-tetraene-6,10,24-trione acetonitrile solvate'
_symmetry_cell_setting           triclinic
_symmetry_space_group_name_H-M   'P -1'
_symmetry_Int_Tables_number      2
_space_group_name_Hall           '-P 1'
loop_
_symmetry_equiv_pos_site_id
_symmetry_equiv_pos_as_xyz
1 x,y,z
2 -x,-y,-z
_cell_length_a                   8.389(2)
_cell_length_b                   15.894(4)
_cell_length_c                   20.694(5)
_cell_angle_alpha                70.965(3)
_cell_angle_beta                 84.606(3)
_cell_angle_gamma                79.944(3)
_cell_volume                     2566.25
_exptl_crystal_colour            colorless
_exptl_crystal_description       block
_cell_formula_units_Z            4
loop_
_atom_site_label
_atom_site_type_symbol
_atom_site_fract_x
_atom_site_fract_y
_atom_site_fract_z
O1 O 0.2373(6) 0.4198(4) 0.5369(3)
O2 O 0.4268(7) 0.3654(4) 0.4738(3)
O3 O -0.0852(6) 0.2794(4) 0.5130(3)
O4 O 0.2391(6) 0.2104(4) 0.1871(3)
O5 O 0.2565(7) 0.3259(4) 0.0958(3)
O6 O -0.0728(6) 0.4549(3) 0.1144(2)
O7 O -0.0755(8) 0.5903(4) 0.0255(3)
H1 H 0.0219 0.5756 0.0315
O8 O -0.2019(5) 0.4695(3) 0.2399(2)
O9 O 0.2528(6) 0.6164(4) 0.1951(3)
O20 O 0.3276(6) 0.4721(4) 0.2163(3)
C1 C 0.2706(11) 0.3801(5) 0.4935(4)
C2 C 0.4637(10) 0.3365(7) 0.4168(6)
H3 H 0.5779 0.3120 0.4167
H4 H 0.4462 0.3885 0.3761
C3 C 0.3705(9) 0.2684(5) 0.4121(4)
H5 H 0.4122 0.2099 0.4434
H6 H 0.3827 0.2643 0.3661
C4 C 0.1969(8) 0.2927(5) 0.4292(4)
C5 C 0.1516(8) 0.3451(5) 0.4664(4)
C6 C -0.0258(8) 0.3647(5) 0.4796(4)
H7 H -0.0493 0.4035 0.5087
C7 C -0.0438(9) 0.2188(6) 0.4747(4)
H8 H -0.1448 0.2064 0.4620
C8 C 0.0544(8) 0.2619(5) 0.4069(4)
C9 C 0.1043(8) 0.2016(5) 0.3640(4)
H9 H 0.1268 0.1398 0.3857
C10 C 0.1182(8) 0.2330(5) 0.2951(4)
C11 C 0.0874(7) 0.3298(5) 0.2584(4)
C12 C 0.0348(8) 0.3942(4) 0.2996(4)
H10 H 0.1352 0.4062 0.3131
C13 C -0.0548(8) 0.3489(4) 0.3665(4)
H11 H -0.1527 0.3319 0.3551
C14 C -0.1062(8) 0.4099(5) 0.4119(4)
H12 H -0.0728 0.4684 0.3899
H13 H -0.2230 0.4185 0.4191
C15 C 0.1538(10) 0.1719(5) 0.2514(4)
H14 H 0.2183 0.1160 0.2769
H15 H 0.0525 0.1576 0.2419
C16 C 0.2050(9) 0.2986(6) 0.1554(5)
C17 C 0.1158(8) 0.3596(5) 0.1900(4)
C18 C 0.0732(8) 0.4552(5) 0.1471(4)
H16 H 0.1594 0.4708 0.1119
C19 C -0.1630(10) 0.5398(5) 0.0830(5)
H17 H -0.2639 0.5310 0.0676
C20 C -0.2039(9) 0.5948(5) 0.1304(4)
H18 H -0.2676 0.6526 0.1062
C21 C -0.0498(8) 0.6119(4) 0.1523(3)
C22 C 0.0497(8) 0.5214(4) 0.1880(4)
C23 C -0.0488(7) 0.4834(5) 0.2571(3)
H19 H -0.0655 0.5264 0.2829
C24 C 0.2208(9) 0.5346(6) 0.2016(4)
C25 C 0.1389(9) 0.6984(5) 0.1764(4)
H20 H 0.1906 0.7448 0.1426
H21 H 0.1106 0.7178 0.2165
C26 C -0.0112(9) 0.6898(5) 0.1486(4)
H22 H -0.0813 0.7419 0.1274
C27 C -0.3007(8) 0.5480(5) 0.1964(4)
H23 H -0.3896 0.5266 0.1819
C28 C -0.3773(9) 0.6121(5) 0.2355(4)
H24 H -0.4256 0.5787 0.2779
H25 H -0.4591 0.6562 0.2086
H26 H -0.2956 0.6417 0.2446
C29 C 0.0445(11) 0.1306(5) 0.5213(4)
H27 H 0.1483 0.1398 0.5313
H28 H 0.0590 0.0855 0.4988
H29 H -0.0185 0.1109 0.5632
O10 O 1.1380(7) 0.1120(4) -0.0119(4)
O11 O 0.5880(6) 0.2050(4) -0.0343(3)
O12 O 0.6957(6) 0.2446(4) 0.3017(3)
O13 O 0.7039(7) 0.1265(4) 0.3952(3)
O14 O 0.4603(6) 0.0155(3) 0.3519(3)
O15 O 0.4395(10) -0.1152(4) 0.4419(4)
H2 H 0.4360 -0.0817 0.4651
O16 O 0.9504(6) -0.0180(4) 0.2781(4)
O17 O 0.9457(6) -0.1602(4) 0.3012(3)
O18 O 0.4470(5) 0.0016(3) 0.2216(3)
O19 O 0.9982(7) 0.0814(4) -0.0815(3)
C30 C 0.9944(10) 0.1040(5) -0.0316(5)
C31 C 1.1354(10) 0.1258(6) 0.0540(7)
H30 H 1.2389 0.1422 0.0586
H31 H 1.1266 0.0687 0.0892
C32 C 1.0026(9) 0.1962(5) 0.0685(4)
H32 H 0.9981 0.1915 0.1166
H33 H 1.0226 0.2563 0.0416
C33 C 0.8472(9) 0.1784(5) 0.0495(4)
C34 C 0.8499(9) 0.1316(5) 0.0056(4)
C35 C 0.6843(9) 0.1163(5) -0.0069(4)
H34 H 0.6926 0.0825 -0.0394
C36 C 0.5790(9) 0.2600(5) 0.0113(4)
H35 H 0.4657 0.2714 0.0269
C37 C 0.6301(10) 0.3501(5) -0.0308(4)
H36 H 0.7460 0.3430 -0.0369
H37 H 0.5941 0.3936 -0.0074
H38 H 0.5823 0.3705 -0.0747
C38 C 0.6819(8) 0.2079(5) 0.0759(4)
C39 C 0.6805(8) 0.2610(5) 0.1226(5)
H39 H 0.6909 0.3215 0.1035
C40 C 0.6655(8) 0.2279(5) 0.1895(4)
C41 C 0.6631(8) 0.1329(5) 0.2240(4)
C42 C 0.6785(9) 0.0724(4) 0.1801(4)
H40 H 0.7946 0.0578 0.1699
C43 C 0.6008(8) 0.1230(5) 0.1117(4)
H41 H 0.4859 0.1427 0.1206
C44 C 0.6130(9) 0.0643(5) 0.0614(4)
H42 H 0.6816 0.0070 0.0803
H43 H 0.5063 0.0527 0.0556
C45 C 0.6357(10) 0.2881(5) 0.2332(4)
H44 H 0.6876 0.3409 0.2112
H45 H 0.5201 0.3084 0.2366
C46 C 0.6844(9) 0.1578(6) 0.3343(5)
C47 C 0.6554(8) 0.1019(5) 0.2926(4)
C48 C 0.6303(8) 0.0079(5) 0.3321(4)
H46 H 0.6926 -0.0119 0.3736
C49 C 0.3871(11) -0.0644(6) 0.3756(5)
H47 H 0.2691 -0.0475 0.3776
C50 C 0.4297(10) -0.1208(5) 0.3317(5)
H48 H 0.3851 -0.1771 0.3523
C51 C 0.3627(10) -0.0733(6) 0.2606(5)
H49 H 0.2492 -0.0483 0.2668
C52 C 0.6195(8) -0.0168(5) 0.2191(5)
H50 H 0.6546 -0.0594 0.1936
C53 C 0.6843(9) -0.0589(5) 0.2925(4)
C54 C 0.6090(9) -0.1416(5) 0.3251(5)
C55 C 0.6944(10) -0.2223(6) 0.3420(5)
H51 H 0.6406 -0.2717 0.3616
C56 C 0.8739(10) -0.2388(6) 0.3313(5)
H52 H 0.9215 -0.2714 0.3752
H53 H 0.9003 -0.2771 0.3025
C57 C 0.8693(10) -0.0764(6) 0.2892(5)
C58 C 0.3668(11) -0.1368(6) 0.2149(6)
H54 H 0.3238 -0.1020 0.1711
H55 H 0.3026 -0.1834 0.2372
H56 H 0.4766 -0.1635 0.2086
N1 N 0.1687(10) 0.5669(5) 0.3480(4)
C59 C 0.3809(10) 0.6023(6) 0.4146(5)
H57 H 0.3715 0.5665 0.4618
H58 H 0.3605 0.6650 0.4110
H59 H 0.4881 0.5878 0.3967
C60 C 0.2617(11) 0.5833(6) 0.3753(5)
loop_
_geom_bond_atom_site_label_1
_geom_bond_atom_site_label_2
_geom_bond_site_symmetry_1
_geom_bond_site_symmetry_2
O1 C1 1_555 1_555
O2 C1 1_555 1_555
O3 C6 1_555 1_555
O4 C15 1_555 1_555
O5 C16 1_555 1_555
O6 C18 1_555 1_555
O7 H1 1_555 1_555
O8 C23 1_555 1_555
O9 C24 1_555 1_555
O10 C30 1_555 1_555
O11 C35 1_555 1_555
O12 C45 1_555 1_555
O13 C46 1_555 1_555
O14 C48 1_555 1_555
O15 H2 1_555 1_555
O16 C57 1_555 1_555
O17 C56 1_555 1_555
O18 C51 1_555 1_555
O19 C30 1_555 1_555
O20 C24 1_555 1_555
N1 C60 1_555 1_555
C1 C5 1_555 1_555
C2 O2 1_555 1_555
H3 C2 1_555 1_555
H4 C2 1_555 1_555
C3 C2 1_555 1_555
H5 C3 1_555 1_555
H6 C3 1_555 1_555
C4 C3 1_555 1_555
C5 C4 1_555 1_555
C6 C5 1_555 1_555
H7 C6 1_555 1_555
C7 O3 1_555 1_555
H8 C7 1_555 1_555
C8 C4 1_555 1_555
C9 C8 1_555 1_555
H9 C9 1_555 1_555
C10 C9 1_555 1_555
C11 C10 1_555 1_555
C12 C11 1_555 1_555
H10 C12 1_555 1_555
C13 C8 1_555 1_555
H11 C13 1_555 1_555
C14 C6 1_555 1_555
H12 C14 1_555 1_555
H13 C14 1_555 1_555
C15 C10 1_555 1_555
H14 C15 1_555 1_555
H15 C15 1_555 1_555
C16 O4 1_555 1_555
C17 C11 1_555 1_555
C18 C17 1_555 1_555
H16 C18 1_555 1_555
C19 O6 1_555 1_555
H17 C19 1_555 1_555
C20 C19 1_555 1_555
H18 C20 1_555 1_555
C21 C20 1_555 1_555
C22 C18 1_555 1_555
C23 C12 1_555 1_555
H19 C23 1_555 1_555
C24 C22 1_555 1_555
C25 O9 1_555 1_555
H20 C25 1_555 1_555
H21 C25 1_555 1_555
C26 C21 1_555 1_555
H22 C26 1_555 1_555
C27 O8 1_555 1_555
H23 C27 1_555 1_555
C28 C27 1_555 1_555
H24 C28 1_555 1_555
H25 C28 1_555 1_555
H26 C28 1_555 1_555
C29 C7 1_555 1_555
H27 C29 1_555 1_555
H28 C29 1_555 1_555
H29 C29 1_555 1_555
C30 C34 1_555 1_555
C31 O10 1_555 1_555
H30 C31 1_555 1_555
H31 C31 1_555 1_555
C32 C31 1_555 1_555
H32 C32 1_555 1_555
H33 C32 1_555 1_555
C33 C32 1_555 1_555
C34 C33 1_555 1_555
C35 C34 1_555 1_555
H34 C35 1_555 1_555
C36 O11 1_555 1_555
H35 C36 1_555 1_555
C37 C36 1_555 1_555
H36 C37 1_555 1_555
H37 C37 1_555 1_555
H38 C37 1_555 1_555
C38 C33 1_555 1_555
C39 C38 1_555 1_555
H39 C39 1_555 1_555
C40 C39 1_555 1_555
C41 C40 1_555 1_555
C42 C41 1_555 1_555
H40 C42 1_555 1_555
C43 C38 1_555 1_555
H41 C43 1_555 1_555
C44 C35 1_555 1_555
H42 C44 1_555 1_555
H43 C44 1_555 1_555
C45 C40 1_555 1_555
H44 C45 1_555 1_555
H45 C45 1_555 1_555
C46 O12 1_555 1_555
C47 C41 1_555 1_555
C48 C47 1_555 1_555
H46 C48 1_555 1_555
C49 O14 1_555 1_555
H47 C49 1_555 1_555
C50 C49 1_555 1_555
H48 C50 1_555 1_555
C51 C50 1_555 1_555
H49 C51 1_555 1_555
C52 O18 1_555 1_555
H50 C52 1_555 1_555
C53 C48 1_555 1_555
C54 C50 1_555 1_555
C55 C54 1_555 1_555
H51 C55 1_555 1_555
C56 C55 1_555 1_555
H52 C56 1_555 1_555
H53 C56 1_555 1_555
C57 O17 1_555 1_555
C58 C51 1_555 1_555
H54 C58 1_555 1_555
H55 C58 1_555 1_555
H56 C58 1_555 1_555
C59 H57 1_555 1_555
H58 C59 1_555 1_555
H59 C59 1_555 1_555
C60 C59 1_555 1_555
O7 C19 1_555 1_555
O15 C49 1_555 1_555
C7 C8 1_555 1_555
C12 C13 1_555 1_555
C13 C14 1_555 1_555
C16 C17 1_555 1_555
C20 C27 1_555 1_555
C21 C22 1_555 1_555
C22 C23 1_555 1_555
C25 C26 1_555 1_555
C36 C38 1_555 1_555
C42 C43 1_555 1_555
C42 C52 1_555 1_555
C43 C44 1_555 1_555
C46 C47 1_555 1_555
C52 C53 1_555 1_555
C53 C54 1_555 1_555
C53 C57 1_555 1_555

#END
