
#######################################################################
#
#                 Cambridge Crystallographic Data Centre
#                                CCDC 
#
#######################################################################
#
# If this CIF has been generated from an entry in the Cambridge 
# Structural Database, then it will include bibliographic, chemical, 
# crystal, experimental, refinement or atomic coordinate data resulting 
# from the CCDC's data processing and validation procedures.
#
#######################################################################

data_AVEBEJ
_chemical_formula_moiety         'C29 H26 O9'
_chemical_name_systematic        
8-Hydroxy-21-methyl-10-(1-oxo-3,4-dihydro-1H-isochromen-5-yl)-5,9,17,22-tetraoxahexacyclo[12.6.2.1^3,7^.0^1,12^.0^11,23^.0^15,20^]tricosa-2,7(23),15(20)-triene-6,16-dione
_symmetry_cell_setting           monoclinic
_symmetry_space_group_name_H-M   'P 21/n'
_symmetry_Int_Tables_number      14
_space_group_name_Hall           '-P 2yn'
loop_
_symmetry_equiv_pos_site_id
_symmetry_equiv_pos_as_xyz
1 x,y,z
2 1/2-x,1/2+y,1/2-z
3 -x,-y,-z
4 1/2+x,1/2-y,1/2+z
_cell_length_a                   14.650(3)
_cell_length_b                   7.4012(16)
_cell_length_c                   22.943(5)
_cell_angle_alpha                90
_cell_angle_beta                 106.921(3)
_cell_angle_gamma                90
_cell_volume                     2379.96
_exptl_crystal_colour            colorless
_exptl_crystal_description       prism
_cell_formula_units_Z            4
loop_
_atom_site_label
_atom_site_type_symbol
_atom_site_fract_x
_atom_site_fract_y
_atom_site_fract_z
O1 O 1.07570(17) 0.3374(3) 0.14520(10)
O2 O 0.8685(2) 0.1542(3) -0.04920(11)
O3 O 1.11484(19) 0.4313(4) 0.05857(12)
H1 H 1.1730 0.4280 0.0731
O4 O 1.0217(2) 0.1636(3) -0.03748(12)
O5 O 1.1886(2) 1.0266(4) 0.28975(14)
O6 O 1.1798(2) 0.9455(5) 0.38003(14)
O7 O 0.7038(2) 0.8722(4) 0.08545(15)
C1 C 0.9725(3) 0.2701(5) 0.04582(15)
C2 C 0.8996(3) 0.3328(4) 0.06427(15)
C3 C 1.0163(3) 0.4907(5) 0.14916(15)
H2 H 1.0316 0.5916 0.1260
C4 C 0.7381(3) 0.5536(5) 0.07304(16)
C5 C 1.0901(3) 0.7028(5) 0.23814(16)
C6 C 0.9104(2) 0.4408(5) 0.12184(15)
H3 H 0.8893 0.3678 0.1512
C7 C 0.8033(3) 0.3036(5) 0.02435(16)
C8 C 1.0487(3) 0.5377(5) 0.21663(16)
C9 C 1.0734(3) 0.2944(5) 0.08466(16)
H4 H 1.1085 0.1816 0.0848
C10 C 1.0423(3) 0.4052(5) 0.25819(18)
H5 H 1.0130 0.2959 0.2439
C11 C 0.7297(3) 0.4052(5) 0.02783(17)
H6 H 0.6701 0.3821 0.0006
C12 C 1.1250(3) 0.7303(5) 0.30109(17)
C13 C 1.1018(3) 0.8583(5) 0.19822(17)
H7 H 1.1073 0.8122 0.1598
H8 H 1.0461 0.9359 0.1897
C14 C 0.8445(3) 0.6060(5) 0.10292(16)
H9 H 0.8653 0.6686 0.0714
C15 C 1.1672(3) 0.9063(6) 0.3265(2)
C16 C 1.0782(3) 0.4320(6) 0.32005(19)
H10 H 1.0750 0.3403 0.3471
C17 C 1.1191(3) 0.5957(6) 0.34165(19)
H11 H 1.1427 0.6156 0.3834
C18 C 0.6915(3) 0.5096(6) 0.12227(17)
C19 C 0.6904(3) 0.7291(5) 0.04179(19)
H12 H 0.7237 0.7642 0.0122
C20 C 1.1892(3) 0.9651(6) 0.22952(19)
H13 H 1.2452 0.8909 0.2334
H14 H 1.1934 1.0690 0.2047
C21 C 0.9583(3) 0.1922(5) -0.01480(17)
C22 C 0.8486(3) 0.7461(6) 0.1528(2)
H15 H 0.8880 0.8477 0.1485
H16 H 0.8762 0.6927 0.1927
C23 C 0.6457(3) 0.3368(6) 0.1298(2)
H17 H 0.6941 0.2485 0.1489
H18 H 0.6096 0.2905 0.0902
O8 O 0.6086(3) 0.4867(9) 0.21715(18)
C24 C 0.7936(3) 0.1532(6) -0.01992(19)
H19 H 0.7950 0.0391 0.0011
H20 H 0.7324 0.1626 -0.0507
C25 C 0.6574(4) 0.6350(12) 0.2118(3)
C26 C 0.5844(3) 0.7194(6) 0.0077(2)
H21 H 0.5500 0.6754 0.0346
H22 H 0.5747 0.6391 -0.0264
H23 H 0.5616 0.8378 -0.0065
C27 C 0.6943(3) 0.6493(7) 0.15947(19)
C28 C 0.7462(3) 0.8102(7) 0.1464(2)
H24 H 0.7465 0.9070 0.1757
C29 C 0.5805(5) 0.3663(10) 0.1685(3)
H25 H 0.5196 0.4075 0.1420
H26 H 0.5694 0.2499 0.1847
O9 O 0.6697(3) 0.7471(8) 0.25174(19)
loop_
_geom_bond_atom_site_label_1
_geom_bond_atom_site_label_2
_geom_bond_site_symmetry_1
_geom_bond_site_symmetry_2
O1 C3 1_555 1_555
O2 C21 1_555 1_555
O3 H1 1_555 1_555
O4 C21 1_555 1_555
O5 C15 1_555 1_555
O6 C15 1_555 1_555
O7 C19 1_555 1_555
C1 C2 1_555 1_555
C2 C6 1_555 1_555
C3 H2 1_555 1_555
C4 C11 1_555 1_555
C5 C8 1_555 1_555
C6 C3 1_555 1_555
H3 C6 1_555 1_555
C7 C2 1_555 1_555
C8 C3 1_555 1_555
C9 O1 1_555 1_555
H4 C9 1_555 1_555
C10 C8 1_555 1_555
H5 C10 1_555 1_555
C11 C7 1_555 1_555
H6 C11 1_555 1_555
C12 C5 1_555 1_555
C13 C5 1_555 1_555
H7 C13 1_555 1_555
H8 C13 1_555 1_555
C14 C4 1_555 1_555
H9 C14 1_555 1_555
C15 C12 1_555 1_555
C16 C10 1_555 1_555
H10 C16 1_555 1_555
C17 C12 1_555 1_555
H11 C17 1_555 1_555
C18 C4 1_555 1_555
C19 C4 1_555 1_555
H12 C19 1_555 1_555
C20 O5 1_555 1_555
H13 C20 1_555 1_555
H14 C20 1_555 1_555
C21 C1 1_555 1_555
C22 C14 1_555 1_555
H15 C22 1_555 1_555
H16 C22 1_555 1_555
C23 C18 1_555 1_555
H17 C23 1_555 1_555
H18 C23 1_555 1_555
O8 C25 1_555 1_555
C24 O2 1_555 1_555
H19 C24 1_555 1_555
H20 C24 1_555 1_555
C25 C27 1_555 1_555
C26 C19 1_555 1_555
H21 C26 1_555 1_555
H22 C26 1_555 1_555
H23 C26 1_555 1_555
C27 C18 1_555 1_555
C28 O7 1_555 1_555
H24 C28 1_555 1_555
C29 C23 1_555 1_555
H25 C29 1_555 1_555
H26 C29 1_555 1_555
O9 C25 1_555 1_555
O3 C9 1_555 1_555
C1 C9 1_555 1_555
C6 C14 1_555 1_555
C7 C24 1_555 1_555
C13 C20 1_555 1_555
C16 C17 1_555 1_555
C22 C28 1_555 1_555
O8 C29 1_555 1_555
C27 C28 1_555 1_555

#END
