
#######################################################################
#
#                 Cambridge Crystallographic Data Centre
#                                CCDC 
#
#######################################################################
#
# If this CIF has been generated from an entry in the Cambridge 
# Structural Database, then it will include bibliographic, chemical, 
# crystal, experimental, refinement or atomic coordinate data resulting 
# from the CCDC's data processing and validation procedures.
#
#######################################################################

data_AVEBIN
_chemical_formula_moiety         'C29 H28 O10,2(C1 H1 Cl3)'
_chemical_name_systematic        
'8-Hydroxy-16,29-dimethyl-6,10,24-trioxo-5,11,17,25,30-pentaoxaoctacyclo[20.6.2.1^3,7^.0^1,20^.0^9,14^.0^9,18^.0^19,31^.0^23,28^]hentriaconta-2,7(31),14,23(28)-tetraene-15-carbaldehyde chloroform solvate'
_symmetry_cell_setting           monoclinic
_symmetry_space_group_name_H-M   'P 21/c'
_symmetry_Int_Tables_number      14
_space_group_name_Hall           '-P 2ybc'
loop_
_symmetry_equiv_pos_site_id
_symmetry_equiv_pos_as_xyz
1 x,y,z
2 -x,1/2+y,1/2-z
3 -x,-y,-z
4 x,1/2-y,1/2+z
_cell_length_a                   10.436(2)
_cell_length_b                   29.592(6)
_cell_length_c                   10.923(2)
_cell_angle_alpha                90
_cell_angle_beta                 98.960(3)
_cell_angle_gamma                90
_cell_volume                     3332.1
_exptl_crystal_colour            colorless
_exptl_crystal_description       block
_cell_formula_units_Z            4
loop_
_atom_site_label
_atom_site_type_symbol
_atom_site_fract_x
_atom_site_fract_y
_atom_site_fract_z
O1 O 0.7328(5) 0.26787(18) 0.2831(4)
O2 O 0.6146(5) 0.22826(16) 0.1446(5)
O3 O 0.8865(4) 0.18194(15) 0.1680(4)
H1 H 0.8611 0.2074 0.1628
O4 O 0.8822(5) 0.08889(19) 0.0651(5)
O5 O 0.6921(4) 0.07985(17) -0.0529(4)
O6 O 0.9386(7) 0.1373(3) 0.7157(6)
O7 O 0.6576(4) 0.11626(15) 0.3994(4)
O8 O 0.1448(4) 0.15326(16) 0.2038(4)
O9 O -0.0220(6) 0.06278(19) 0.3749(6)
O10 O 0.0386(6) 0.0074(2) 0.2633(6)
C1 C 0.6862(7) 0.2279(2) 0.2395(6)
C2 C 0.8117(9) 0.2728(3) 0.4034(7)
H2 H 0.7557 0.2750 0.4661
H3 H 0.8610 0.3006 0.4050
C3 C 0.9018(8) 0.2347(3) 0.4334(7)
H4 H 0.9532 0.2392 0.5144
H5 H 0.9602 0.2327 0.3727
C4 C 0.8231(6) 0.1916(3) 0.4327(6)
C5 C 0.8250(7) 0.1614(3) 0.5236(6)
C6 C 0.7339(7) 0.1229(3) 0.5193(6)
H6 H 0.7877 0.0958 0.5360
C7 C 0.6100(6) 0.1580(2) 0.3406(6)
H7 H 0.5675 0.1759 0.3983
C8 C 0.7280(6) 0.1839(2) 0.3090(6)
C9 C 0.7998(6) 0.1534(2) 0.2235(6)
H8 H 0.8516 0.1310 0.2756
C10 C 0.7052(6) 0.1284(2) 0.1263(6)
C11 C 0.5768(6) 0.1259(2) 0.1278(6)
C12 C 0.5115(6) 0.1457(2) 0.2274(5)
H9 H 0.4688 0.1737 0.1950
C13 C 0.4054(6) 0.1133(2) 0.2582(5)
H10 H 0.4475 0.0852 0.2908
C14 C 0.3271(6) 0.1324(2) 0.3569(6)
H11 H 0.3530 0.1171 0.4354
H12 H 0.3449 0.1644 0.3690
C15 C 0.1819(6) 0.1251(2) 0.3124(6)
H13 H 0.1313 0.1329 0.3778
C16 C 0.2184(6) 0.1436(3) 0.1048(6)
H14 H 0.2761 0.1693 0.0983
C17 C 0.3050(6) 0.1012(2) 0.1405(6)
C18 C 0.3749(6) 0.0897(2) 0.0335(6)
H15 H 0.3298 0.0735 -0.0324
C19 C 0.4968(6) 0.1013(2) 0.0278(6)
C20 C 0.5606(7) 0.0949(3) -0.0835(6)
H16 H 0.5118 0.0730 -0.1379
H17 H 0.5591 0.1233 -0.1281
C21 C 0.7672(8) 0.0990(3) 0.0450(7)
C22 C 0.1567(6) 0.0771(3) 0.2715(6)
C23 C 0.0547(8) 0.0494(3) 0.3094(8)
C24 C 0.1389(10) -0.0109(3) 0.2012(10)
H18 H 0.1043 -0.0371 0.1537
H19 H 0.2092 -0.0213 0.2634
C25 C 0.1922(8) 0.0203(3) 0.1178(8)
H20 H 0.2724 0.0080 0.0971
H21 H 0.1314 0.0236 0.0416
C26 C 0.2172(6) 0.0646(2) 0.1766(6)
C27 C 0.9223(9) 0.1648(4) 0.6370(8)
H22 H 0.9742 0.1905 0.6469
C28 C 0.6479(8) 0.1240(3) 0.6163(7)
H23 H 0.5894 0.0988 0.6050
H24 H 0.5992 0.1517 0.6094
H25 H 0.6998 0.1223 0.6968
C29 C 0.1245(8) 0.1403(3) -0.0168(7)
H26 H 0.0708 0.1668 -0.0271
H27 H 0.0711 0.1140 -0.0153
H28 H 0.1728 0.1381 -0.0846
Cl1 Cl 0.3486(4) 0.00989(14) 0.5402(3)
Cl2 Cl 0.3410(4) -0.00957(9) 0.7942(3)
Cl3 Cl 0.1917(4) 0.06356(11) 0.6769(3)
C30 C 0.2520(10) 0.0103(3) 0.6546(8)
H29 H 0.1787 -0.0102 0.6299
Cl4 Cl 0.4408(3) 0.28091(12) 0.3934(3)
Cl5 Cl 0.3246(4) 0.33929(13) 0.1953(3)
Cl6 Cl 0.2203(5) 0.25127(13) 0.2295(6)
C31 C 0.3543(11) 0.2821(4) 0.2381(16)
H30 H 0.4096 0.2688 0.1829
loop_
_geom_bond_atom_site_label_1
_geom_bond_atom_site_label_2
_geom_bond_site_symmetry_1
_geom_bond_site_symmetry_2
O1 C1 1_555 1_555
O2 C1 1_555 1_555
O3 H1 1_555 1_555
O4 C21 1_555 1_555
O5 C20 1_555 1_555
O6 C27 1_555 1_555
O7 C6 1_555 1_555
O8 C15 1_555 1_555
O9 C23 1_555 1_555
O10 C23 1_555 1_555
C1 C8 1_555 1_555
C2 O1 1_555 1_555
H2 C2 1_555 1_555
H3 C2 1_555 1_555
C3 C2 1_555 1_555
H4 C3 1_555 1_555
H5 C3 1_555 1_555
C4 C3 1_555 1_555
C5 C4 1_555 1_555
C6 C5 1_555 1_555
H6 C6 1_555 1_555
C7 O7 1_555 1_555
H7 C7 1_555 1_555
C8 C4 1_555 1_555
C9 O3 1_555 1_555
H8 C9 1_555 1_555
C10 C9 1_555 1_555
C11 C10 1_555 1_555
C12 C7 1_555 1_555
H9 C12 1_555 1_555
C13 C12 1_555 1_555
H10 C13 1_555 1_555
C14 C13 1_555 1_555
H11 C14 1_555 1_555
H12 C14 1_555 1_555
C15 C14 1_555 1_555
H13 C15 1_555 1_555
C16 O8 1_555 1_555
H14 C16 1_555 1_555
C17 C13 1_555 1_555
C18 C17 1_555 1_555
H15 C18 1_555 1_555
C19 C11 1_555 1_555
C20 C19 1_555 1_555
H16 C20 1_555 1_555
H17 C20 1_555 1_555
C21 O5 1_555 1_555
C22 C15 1_555 1_555
C23 C22 1_555 1_555
C24 O10 1_555 1_555
H18 C24 1_555 1_555
H19 C24 1_555 1_555
C25 C24 1_555 1_555
H20 C25 1_555 1_555
H21 C25 1_555 1_555
C26 C17 1_555 1_555
C27 C5 1_555 1_555
H22 C27 1_555 1_555
C28 C6 1_555 1_555
H23 C28 1_555 1_555
H24 C28 1_555 1_555
H25 C28 1_555 1_555
C29 C16 1_555 1_555
H26 C29 1_555 1_555
H27 C29 1_555 1_555
H28 C29 1_555 1_555
Cl1 C30 1_555 1_555
Cl2 C30 1_555 1_555
Cl3 C30 1_555 1_555
C30 H29 1_555 1_555
Cl4 C31 1_555 1_555
Cl5 C31 1_555 1_555
Cl6 C31 1_555 1_555
C31 H30 1_555 1_555
C7 C8 1_555 1_555
C8 C9 1_555 1_555
C10 C21 1_555 1_555
C11 C12 1_555 1_555
C16 C17 1_555 1_555
C18 C19 1_555 1_555
C22 C26 1_555 1_555
C25 C26 1_555 1_555

#END
