
#######################################################################
#
#                 Cambridge Crystallographic Data Centre
#                                CCDC 
#
#######################################################################
#
# If this CIF has been generated from an entry in the Cambridge 
# Structural Database, then it will include bibliographic, chemical, 
# crystal, experimental, refinement or atomic coordinate data resulting 
# from the CCDC's data processing and validation procedures.
#
#######################################################################

data_AVECIP
_chemical_formula_moiety         'C40 H42 K1 N3 O2'
_chemical_name_systematic        
(2,5-bis(((diphenylmethyl)imino)methyl)-1H-pyrrol-1-yl)-bis(tetrahydrofuran)-potassium
_symmetry_cell_setting           monoclinic
_symmetry_space_group_name_H-M   'C 2/c'
_symmetry_Int_Tables_number      15
_space_group_name_Hall           '-C 2yn'
loop_
_symmetry_equiv_pos_site_id
_symmetry_equiv_pos_as_xyz
1 x,y,z
2 -x,y,1/2-z
3 1/2+x,1/2+y,z
4 1/2-x,1/2+y,1/2-z
5 -x,-y,-z
6 x,-y,1/2+z
7 1/2-x,1/2-y,-z
8 1/2+x,1/2-y,1/2+z
_cell_length_a                   13.6800(5)
_cell_length_b                   16.1870(3)
_cell_length_c                   16.4227(6)
_cell_angle_alpha                90
_cell_angle_beta                 108.696(4)
_cell_angle_gamma                90
_cell_volume                     3444.72
_exptl_crystal_colour            colorless
_exptl_crystal_description       block
_cell_formula_units_Z            4
loop_
_atom_site_label
_atom_site_type_symbol
_atom_site_fract_x
_atom_site_fract_y
_atom_site_fract_z
K1 K 0.5000 0.18334(3) 0.7500
O1 O 0.35717(11) 0.07256(8) 0.66670(10)
N1 N 0.5000 0.34628(10) 0.7500
N2 N 0.51259(9) 0.28204(7) 0.59652(7)
C1 C 0.50954(9) 0.39650(8) 0.68707(8)
C2 C 0.50698(10) 0.48050(8) 0.70992(9)
H1 H 0.5133 0.5264 0.6779
C3 C 0.52254(9) 0.35996(8) 0.61074(8)
H2 H 0.5385 0.3939 0.5710
C4 C 0.53892(10) 0.24949(9) 0.52264(9)
H3 H 0.5770 0.2920 0.5028
C5 C 0.61052(11) 0.17617(9) 0.55658(9)
C6 C 0.71688(12) 0.18827(9) 0.58714(11)
H4 H 0.7440 0.2401 0.5824
C7 C 0.78288(12) 0.12374(11) 0.62456(11)
H5 H 0.8537 0.1328 0.6447
C8 C 0.74434(12) 0.04631(10) 0.63221(10)
H6 H 0.7888 0.0032 0.6573
C9 C 0.63868(12) 0.03364(10) 0.60211(11)
H7 H 0.6119 -0.0182 0.6071
C10 C 0.57240(11) 0.09813(10) 0.56451(10)
H8 H 0.5016 0.0889 0.5444
C11 C 0.44357(10) 0.22611(8) 0.44861(9)
C12 C 0.44846(12) 0.22656(10) 0.36527(10)
H9 H 0.5098 0.2411 0.3559
C13 C 0.36302(13) 0.20559(11) 0.29602(10)
H10 H 0.3675 0.2061 0.2407
C14 C 0.27101(12) 0.18388(9) 0.30865(10)
H11 H 0.2135 0.1705 0.2621
C15 C 0.26571(11) 0.18234(9) 0.39133(10)
H12 H 0.2044 0.1672 0.4004
C16 C 0.35112(11) 0.20321(9) 0.46095(10)
H13 H 0.3466 0.2019 0.5162
C17 C 0.26911(15) -0.04814(11) 0.60389(13)
H14 H 0.2382 -0.0803 0.6391
H15 H 0.2763 -0.0828 0.5580
C18 C 0.37087(14) -0.01378(12) 0.65662(15)
H16 H 0.3943 -0.0406 0.7123
H17 H 0.4219 -0.0228 0.6280
C19 C 0.20480(15) 0.02813(12) 0.56794(13)
H18 H 0.2133 0.0455 0.5141
H19 H 0.1322 0.0186 0.5593
C20 C 0.24912(17) 0.08934(13) 0.63712(14)
H20 H 0.2358 0.1452 0.6150
H21 H 0.2199 0.0826 0.6833
N2A N 0.48741(9) 0.28204(7) 0.90348(7)
C1A C 0.49046(9) 0.39650(8) 0.81293(8)
C2A C 0.49302(10) 0.48050(8) 0.79008(9)
H1A H 0.4867 0.5264 0.8221
C3A C 0.47746(9) 0.35996(8) 0.88926(8)
H2A H 0.4615 0.3939 0.9290
C4A C 0.46108(10) 0.24949(9) 0.97736(9)
H3A H 0.4230 0.2920 0.9972
C5A C 0.38948(11) 0.17617(9) 0.94342(9)
C6A C 0.28312(12) 0.18827(9) 0.91286(11)
H4A H 0.2560 0.2401 0.9176
C7A C 0.21712(12) 0.12374(11) 0.87544(11)
H5A H 0.1463 0.1328 0.8553
C8A C 0.25566(12) 0.04631(10) 0.86779(10)
H6A H 0.2112 0.0032 0.8427
C9A C 0.36132(12) 0.03364(10) 0.89789(11)
H7A H 0.3881 -0.0182 0.8929
C10A C 0.42760(11) 0.09813(10) 0.93549(10)
H8A H 0.4984 0.0889 0.9556
C11A C 0.55643(10) 0.22611(8) 1.05139(9)
C12A C 0.55154(12) 0.22656(10) 1.13473(10)
H9A H 0.4902 0.2411 1.1441
C13A C 0.63698(13) 0.20559(11) 1.20398(10)
H10A H 0.6325 0.2061 1.2593
C14A C 0.72899(12) 0.18388(9) 1.19135(10)
H11A H 0.7865 0.1705 1.2379
C15A C 0.73429(11) 0.18234(9) 1.10867(10)
H12A H 0.7956 0.1672 1.0996
C16A C 0.64888(11) 0.20321(9) 1.03905(10)
H13A H 0.6534 0.2019 0.9838
O1A O 0.64283(11) 0.07256(8) 0.83330(10)
C17A C 0.73089(15) -0.04814(11) 0.89611(13)
H14A H 0.7618 -0.0803 0.8609
H15A H 0.7237 -0.0828 0.9420
C18A C 0.62913(14) -0.01378(12) 0.84338(15)
H16A H 0.6057 -0.0406 0.7877
H17A H 0.5781 -0.0228 0.8720
C19A C 0.79520(15) 0.02813(12) 0.93206(13)
H18A H 0.7867 0.0455 0.9859
H19A H 0.8678 0.0186 0.9407
C20A C 0.75088(17) 0.08934(13) 0.86288(14)
H20A H 0.7642 0.1452 0.8850
H21A H 0.7801 0.0826 0.8167
loop_
_geom_bond_atom_site_label_1
_geom_bond_atom_site_label_2
_geom_bond_site_symmetry_1
_geom_bond_site_symmetry_2
K1 O1 1_555 1_555
O1 C18 1_555 1_555
N1 K1 1_555 1_555
N2 K1 1_555 1_555
C1 N1 1_555 1_555
C2 C1 1_555 1_555
H1 C2 1_555 1_555
C3 N2 1_555 1_555
H2 C3 1_555 1_555
C4 N2 1_555 1_555
H3 C4 1_555 1_555
C5 C4 1_555 1_555
C6 C5 1_555 1_555
H4 C6 1_555 1_555
C7 C6 1_555 1_555
H5 C7 1_555 1_555
C8 C7 1_555 1_555
H6 C8 1_555 1_555
C9 C8 1_555 1_555
H7 C9 1_555 1_555
C10 C5 1_555 1_555
H8 C10 1_555 1_555
C11 C4 1_555 1_555
C12 C11 1_555 1_555
H9 C12 1_555 1_555
C13 C12 1_555 1_555
H10 C13 1_555 1_555
C14 C13 1_555 1_555
H11 C14 1_555 1_555
C15 C14 1_555 1_555
H12 C15 1_555 1_555
C16 C11 1_555 1_555
H13 C16 1_555 1_555
C17 H14 1_555 1_555
H15 C17 1_555 1_555
C18 C17 1_555 1_555
H16 C18 1_555 1_555
H17 C18 1_555 1_555
C19 C17 1_555 1_555
H18 C19 1_555 1_555
H19 C19 1_555 1_555
C20 O1 1_555 1_555
H20 C20 1_555 1_555
H21 C20 1_555 1_555
N2A K1 1_555 1_555
C1A N1 1_555 1_555
C2A C2 1_555 1_555
H1A C2A 1_555 1_555
C3A N2A 1_555 1_555
H2A C3A 1_555 1_555
C4A N2A 1_555 1_555
H3A C4A 1_555 1_555
C5A C4A 1_555 1_555
C6A C5A 1_555 1_555
H4A C6A 1_555 1_555
C7A C6A 1_555 1_555
H5A C7A 1_555 1_555
C8A C7A 1_555 1_555
H6A C8A 1_555 1_555
C9A C8A 1_555 1_555
H7A C9A 1_555 1_555
C10A C5A 1_555 1_555
H8A C10A 1_555 1_555
C11A C4A 1_555 1_555
C12A C11A 1_555 1_555
H9A C12A 1_555 1_555
C13A C12A 1_555 1_555
H10A C13A 1_555 1_555
C14A C13A 1_555 1_555
H11A C14A 1_555 1_555
C15A C14A 1_555 1_555
H12A C15A 1_555 1_555
C16A C11A 1_555 1_555
H13A C16A 1_555 1_555
O1A K1 1_555 1_555
C17A H14A 1_555 1_555
H15A C17A 1_555 1_555
C18A O1A 1_555 1_555
H16A C18A 1_555 1_555
H17A C18A 1_555 1_555
C19A C17A 1_555 1_555
H18A C19A 1_555 1_555
H19A C19A 1_555 1_555
C20A O1A 1_555 1_555
H20A C20A 1_555 1_555
H21A C20A 1_555 1_555
C1 C3 1_555 1_555
C9 C10 1_555 1_555
C15 C16 1_555 1_555
C19 C20 1_555 1_555
C1A C2A 1_555 1_555
C1A C3A 1_555 1_555
C9A C10A 1_555 1_555
C15A C16A 1_555 1_555
C17A C18A 1_555 1_555
C19A C20A 1_555 1_555

#END
