
#######################################################################
#
#                 Cambridge Crystallographic Data Centre
#                                CCDC 
#
#######################################################################
#
# If this CIF has been generated from an entry in the Cambridge 
# Structural Database, then it will include bibliographic, chemical, 
# crystal, experimental, refinement or atomic coordinate data resulting 
# from the CCDC's data processing and validation procedures.
#
#######################################################################

data_AVECOV
_chemical_formula_moiety         'C44 H35 N3,2(C4 H8 O1)'
_chemical_name_systematic        
'1H-pyrrole-2,5-diylbis(N-tritylmethanimine) tetrahydrofuran solvate'
_symmetry_cell_setting           orthorhombic
_symmetry_space_group_name_H-M   'P b c m'
_symmetry_Int_Tables_number      57
_space_group_name_Hall           '-P 2c 2b'
loop_
_symmetry_equiv_pos_site_id
_symmetry_equiv_pos_as_xyz
1 x,y,z
2 -x,-y,1/2+z
3 x,1/2-y,-z
4 -x,1/2+y,1/2-z
5 -x,-y,-z
6 x,y,1/2-z
7 -x,1/2+y,z
8 x,1/2-y,1/2+z
_cell_length_a                   7.3665(4)
_cell_length_b                   17.5179(5)
_cell_length_c                   32.0143(14)
_cell_angle_alpha                90
_cell_angle_beta                 90
_cell_angle_gamma                90
_cell_volume                     4131.3
_exptl_crystal_colour            colorless
_exptl_crystal_description       block
_cell_formula_units_Z            4
_exptl_crystal_recrystallization_method dichloromethane/pentane
loop_
_atom_site_label
_atom_site_type_symbol
_atom_site_fract_x
_atom_site_fract_y
_atom_site_fract_z
C1 C 0.4679(4) 0.43125(16) 0.27203(8)
H1 H 0.5603 0.4134 0.2892
C2 C 0.3057(3) 0.46263(15) 0.28491(7)
C3 C 0.2307(4) 0.47968(14) 0.32585(8)
H2 H 0.2982 0.4713 0.3500
C4 C -0.0166(3) 0.52649(14) 0.36809(7)
C5 C 0.1208(3) 0.54459(14) 0.40297(7)
C6 C 0.1146(3) 0.50980(15) 0.44206(8)
H3 H 0.0272 0.4728 0.4475
C7 C 0.2382(4) 0.52988(17) 0.47318(8)
H4 H 0.2324 0.5061 0.4991
C8 C 0.3684(4) 0.58443(17) 0.46584(9)
H5 H 0.4495 0.5982 0.4868
C9 C 0.3774(4) 0.61886(15) 0.42670(9)
H6 H 0.4662 0.6553 0.4213
C10 C 0.2551(3) 0.59925(14) 0.39578(8)
H7 H 0.2624 0.6228 0.3698
C11 C -0.1410(3) 0.45969(14) 0.38066(8)
C12 C -0.0959(4) 0.38439(16) 0.37203(10)
H8 H 0.0088 0.3737 0.3569
C13 C -0.2050(4) 0.32510(17) 0.38570(11)
H9 H -0.1726 0.2750 0.3796
C14 C -0.3600(4) 0.33911(17) 0.40806(10)
H10 H -0.4317 0.2989 0.4174
C15 C -0.4085(4) 0.41344(17) 0.41651(9)
H11 H -0.5145 0.4237 0.4313
C16 C -0.2997(4) 0.47281(15) 0.40306(8)
H12 H -0.3334 0.5228 0.4091
C17 C -0.1360(3) 0.59669(15) 0.35803(8)
C18 C -0.1383(4) 0.66283(15) 0.38203(9)
H13 H -0.0639 0.6663 0.4054
C19 C -0.2495(4) 0.72349(16) 0.37162(10)
H14 H -0.2472 0.7677 0.3877
C20 C -0.3633(4) 0.71915(18) 0.33776(11)
H15 H -0.4369 0.7603 0.3307
C21 C -0.3674(4) 0.6526(2) 0.31406(10)
H16 H -0.4468 0.6484 0.2916
C22 C -0.2538(4) 0.59266(18) 0.32398(9)
H17 H -0.2557 0.5488 0.3077
N1 N 0.2091(4) 0.48037(17) 0.2500
H18 H 0.1021 0.5000 0.2500
N2 N 0.0701(3) 0.50636(12) 0.32780(6)
C1E C 0.4679(4) 0.43125(16) 0.22797(8)
H1E H 0.5603 0.4134 0.2108
C2E C 0.3057(3) 0.46263(15) 0.21509(7)
C3E C 0.2307(4) 0.47968(14) 0.17415(8)
H2E H 0.2982 0.4713 0.1500
C4E C -0.0166(3) 0.52649(14) 0.13191(7)
C5E C 0.1208(3) 0.54459(14) 0.09703(7)
C6E C 0.1146(3) 0.50980(15) 0.05794(8)
H3E H 0.0272 0.4728 0.0525
C7E C 0.2382(4) 0.52988(17) 0.02682(8)
H4E H 0.2324 0.5061 0.0009
C8E C 0.3684(4) 0.58443(17) 0.03416(9)
H5E H 0.4495 0.5982 0.0132
C9E C 0.3774(4) 0.61886(15) 0.07330(9)
H6E H 0.4662 0.6553 0.0787
C10E C 0.2551(3) 0.59925(14) 0.10422(8)
H7E H 0.2624 0.6228 0.1302
C11E C -0.1410(3) 0.45969(14) 0.11934(8)
C12E C -0.0959(4) 0.38439(16) 0.12797(10)
H8E H 0.0088 0.3737 0.1431
C13E C -0.2050(4) 0.32510(17) 0.11430(11)
H9E H -0.1726 0.2750 0.1204
C14E C -0.3600(4) 0.33911(17) 0.09194(10)
H10E H -0.4317 0.2989 0.0826
C15E C -0.4085(4) 0.41344(17) 0.08349(9)
H11E H -0.5145 0.4237 0.0687
C16E C -0.2997(4) 0.47281(15) 0.09694(8)
H12E H -0.3334 0.5228 0.0909
C17E C -0.1360(3) 0.59669(15) 0.14197(8)
C18E C -0.1383(4) 0.66283(15) 0.11797(9)
H13E H -0.0639 0.6663 0.0946
C19E C -0.2495(4) 0.72349(16) 0.12838(10)
H14E H -0.2472 0.7677 0.1123
C20E C -0.3633(4) 0.71915(18) 0.16224(11)
H15E H -0.4369 0.7603 0.1693
C21E C -0.3674(4) 0.6526(2) 0.18594(10)
H16E H -0.4468 0.6484 0.2084
C22E C -0.2538(4) 0.59266(18) 0.17602(9)
H17E H -0.2557 0.5488 0.1923
N2E N 0.0701(3) 0.50636(12) 0.17220(6)
O1? O 1.0187(11) 0.7500 0.5000
O2? O 0.2334(12) 0.6959(4) 0.2436(5)
C23? C 0.0835(18) 0.6984(8) 0.2675(6)
H19? H 0.1167 0.6881 0.2963
H20? H 0.0003 0.6587 0.2586
C24? C 0.2287(18) 0.7619(7) 0.2246(5)
H21? H 0.2059 0.7529 0.1952
H22? H 0.3478 0.7852 0.2269
C25? C 0.1008(13) 0.8140(6) 0.2391(5)
H23? H 0.1586 0.8555 0.2541
H24? H 0.0304 0.8350 0.2162
C26? C -0.0070(15) 0.7710(6) 0.2653(3)
H25? H -0.1284 0.7655 0.2540
H26? H -0.0150 0.7943 0.2928
O3? O 0.6873(9) 0.7500 0.5000
C27? C 0.7681(9) 0.6934(3) 0.5143(2)
C28? C 0.9287(10) 0.6911(4) 0.5118(2)
loop_
_geom_bond_atom_site_label_1
_geom_bond_atom_site_label_2
_geom_bond_site_symmetry_1
_geom_bond_site_symmetry_2
C1 H1 1_555 1_555
C2 C1 1_555 1_555
C3 C2 1_555 1_555
H2 C3 1_555 1_555
C4 C5 1_555 1_555
C5 C6 1_555 1_555
C6 H3 1_555 1_555
C7 C6 1_555 1_555
H4 C7 1_555 1_555
C8 C7 1_555 1_555
H5 C8 1_555 1_555
C9 C8 1_555 1_555
H6 C9 1_555 1_555
C10 C5 1_555 1_555
H7 C10 1_555 1_555
C11 C4 1_555 1_555
C12 C11 1_555 1_555
H8 C12 1_555 1_555
C13 C12 1_555 1_555
H9 C13 1_555 1_555
C14 C13 1_555 1_555
H10 C14 1_555 1_555
C15 C14 1_555 1_555
H11 C15 1_555 1_555
C16 C11 1_555 1_555
H12 C16 1_555 1_555
C17 C4 1_555 1_555
C18 C17 1_555 1_555
H13 C18 1_555 1_555
C19 C18 1_555 1_555
H14 C19 1_555 1_555
C20 C19 1_555 1_555
H15 C20 1_555 1_555
C21 C20 1_555 1_555
H16 C21 1_555 1_555
C22 C17 1_555 1_555
H17 C22 1_555 1_555
N1 C2 1_555 1_555
H18 N1 1_555 1_555
N2 C3 1_555 1_555
C1E C1 1_555 1_555
H1E C1E 1_555 1_555
C2E N1 1_555 1_555
C3E C2E 1_555 1_555
H2E C3E 1_555 1_555
C4E C5E 1_555 1_555
C5E C6E 1_555 1_555
C6E H3E 1_555 1_555
C7E C6E 1_555 1_555
H4E C7E 1_555 1_555
C8E C7E 1_555 1_555
H5E C8E 1_555 1_555
C9E C8E 1_555 1_555
H6E C9E 1_555 1_555
C10E C5E 1_555 1_555
H7E C10E 1_555 1_555
C11E C4E 1_555 1_555
C12E C11E 1_555 1_555
H8E C12E 1_555 1_555
C13E C12E 1_555 1_555
H9E C13E 1_555 1_555
C14E C13E 1_555 1_555
H10E C14E 1_555 1_555
C15E C14E 1_555 1_555
H11E C15E 1_555 1_555
C16E C11E 1_555 1_555
H12E C16E 1_555 1_555
C17E C4E 1_555 1_555
C18E C17E 1_555 1_555
H13E C18E 1_555 1_555
C19E C18E 1_555 1_555
H14E C19E 1_555 1_555
C20E C19E 1_555 1_555
H15E C20E 1_555 1_555
C21E C20E 1_555 1_555
H16E C21E 1_555 1_555
C22E C17E 1_555 1_555
H17E C22E 1_555 1_555
N2E C3E 1_555 1_555
C4 N2 1_555 1_555
C9 C10 1_555 1_555
C15 C16 1_555 1_555
C21 C22 1_555 1_555
C1E C2E 1_555 1_555
C4E N2E 1_555 1_555
C9E C10E 1_555 1_555
C15E C16E 1_555 1_555
C21E C22E 1_555 1_555

#END
