
#######################################################################
#
#                 Cambridge Crystallographic Data Centre
#                                CCDC 
#
#######################################################################
#
# If this CIF has been generated from an entry in the Cambridge 
# Structural Database, then it will include bibliographic, chemical, 
# crystal, experimental, refinement or atomic coordinate data resulting 
# from the CCDC's data processing and validation procedures.
#
#######################################################################

data_AVEDAI
_chemical_formula_moiety         'C56 H58 K1 N3 O3'
_chemical_name_systematic        
(2,5-bis(((trityl)imino)methyl)-1H-pyrrol-1-yl)-tris(tetrahydrofuran)-potassium
_symmetry_cell_setting           triclinic
_symmetry_space_group_name_H-M   'P -1'
_symmetry_Int_Tables_number      2
_space_group_name_Hall           '-P 1'
loop_
_symmetry_equiv_pos_site_id
_symmetry_equiv_pos_as_xyz
1 x,y,z
2 -x,-y,-z
_cell_length_a                   9.7401(3)
_cell_length_b                   17.9994(6)
_cell_length_c                   28.4384(9)
_cell_angle_alpha                97.723(3)
_cell_angle_beta                 95.643(2)
_cell_angle_gamma                104.922(3)
_cell_volume                     4727.64
_exptl_crystal_colour            colorless
_exptl_crystal_description       plate
_cell_formula_units_Z            4
loop_
_atom_site_label
_atom_site_type_symbol
_atom_site_fract_x
_atom_site_fract_y
_atom_site_fract_z
C1 C 0.7313(3) 0.25002(14) 0.71808(8)
C2 C 0.7149(3) 0.32415(16) 0.73381(9)
H1 H 0.6639 0.3516 0.7169
C3 C 0.7903(3) 0.34802(15) 0.77965(9)
H2 H 0.7993 0.3945 0.8000
C4 C 0.8508(3) 0.28711(14) 0.78914(8)
C5 C 0.6692(3) 0.20190(15) 0.67222(8)
H3 H 0.6282 0.2244 0.6489
C6 C 0.6107(3) 0.08517(15) 0.61281(8)
C7 C 0.5534(3) 0.13315(15) 0.57891(8)
C8 C 0.4236(3) 0.15084(18) 0.58532(10)
H4 H 0.3705 0.1296 0.6081
C9 C 0.3732(3) 0.1993(2) 0.55828(11)
H5 H 0.2877 0.2110 0.5634
C10 C 0.4494(3) 0.23042(19) 0.52371(11)
H6 H 0.4152 0.2625 0.5053
C11 C 0.5766(3) 0.21334(18) 0.51674(11)
H7 H 0.6285 0.2343 0.4936
C12 C 0.6289(3) 0.16478(16) 0.54416(9)
H8 H 0.7148 0.1537 0.5390
C13 C 0.4907(3) 0.01275(15) 0.61790(9)
C14 C 0.4808(3) -0.01435(16) 0.66105(9)
H9 H 0.5456 0.0127 0.6879
C15 C 0.3762(3) -0.08105(17) 0.66506(11)
H10 H 0.3717 -0.0981 0.6945
C16 C 0.2784(3) -0.12252(17) 0.62566(12)
H11 H 0.2088 -0.1675 0.6283
C17 C 0.2859(3) -0.09601(18) 0.58260(12)
H12 H 0.2209 -0.1234 0.5559
C18 C 0.3900(3) -0.02843(18) 0.57854(10)
H13 H 0.3923 -0.0106 0.5493
C19 C 0.7384(3) 0.05911(15) 0.59451(8)
C20 C 0.7170(3) -0.00497(17) 0.55835(9)
H14 H 0.6241 -0.0330 0.5449
C21 C 0.8328(3) -0.0275(2) 0.54206(11)
H15 H 0.8166 -0.0702 0.5178
C22 C 0.9719(4) 0.0135(2) 0.56174(11)
H16 H 1.0492 -0.0019 0.5511
C23 C 0.9946(3) 0.0775(2) 0.59739(11)
H17 H 1.0877 0.1055 0.6107
C24 C 0.8784(3) 0.10011(19) 0.61336(10)
H18 H 0.8950 0.1435 0.6371
C25 C 0.9397(3) 0.28726(13) 0.83323(8)
H19 H 0.9586 0.3306 0.8572
C26 C 1.0796(3) 0.23683(13) 0.88835(8)
C27 C 1.0490(3) 0.29387(14) 0.92856(8)
C28 C 0.9067(3) 0.28483(15) 0.93773(9)
H20 H 0.8339 0.2436 0.9200
C29 C 0.8731(3) 0.33612(17) 0.97256(10)
H21 H 0.7783 0.3292 0.9780
C30 C 0.9797(4) 0.39760(18) 0.99940(10)
H22 H 0.9569 0.4328 1.0223
C31 C 1.1213(4) 0.40632(18) 0.99180(11)
H23 H 1.1942 0.4463 1.0105
C32 C 1.1544(3) 0.35536(15) 0.95628(9)
H24 H 1.2493 0.3627 0.9510
C33 C 1.2399(3) 0.25819(13) 0.88263(9)
C34 C 1.2910(3) 0.29448(15) 0.84541(9)
H25 H 1.2278 0.3079 0.8235
C35 C 1.4363(3) 0.31115(17) 0.84042(11)
H26 H 1.4684 0.3341 0.8147
C36 C 1.5328(3) 0.29413(17) 0.87312(12)
H27 H 1.6297 0.3059 0.8697
C37 C 1.4841(3) 0.25935(17) 0.91095(12)
H28 H 1.5486 0.2483 0.9335
C38 C 1.3391(3) 0.24086(16) 0.91540(10)
H29 H 1.3073 0.2165 0.9407
C39 C 1.0404(3) 0.15261(14) 0.89945(9)
C40 C 1.0470(3) 0.09290(16) 0.86363(10)
H30 H 1.0702 0.1044 0.8340
C41 C 1.0193(4) 0.01659(17) 0.87188(12)
H31 H 1.0248 -0.0227 0.8479
C42 C 0.9834(3) -0.00146(17) 0.91587(12)
H32 H 0.9641 -0.0527 0.9213
C43 C 0.9767(3) 0.05670(17) 0.95119(11)
H33 H 0.9524 0.0448 0.9806
C44 C 1.0060(3) 0.13389(16) 0.94329(9)
H34 H 1.0023 0.1730 0.9677
C45 C 0.8300(5) -0.1002(3) 0.66351(15)
H35 H 0.9079 -0.1244 0.6669
H36 H 0.8591 -0.0565 0.6467
C46 C 0.6988(6) -0.1572(3) 0.63699(18)
H37 H 0.6402 -0.1313 0.6193
H38 H 0.7231 -0.1959 0.6146
C47 C 0.6229(7) -0.1937(3) 0.67321(18)
H39 H 0.6351 -0.2454 0.6738
H40 H 0.5213 -0.1978 0.6671
C48 C 0.6899(7) -0.1408(3) 0.71904(17)
H41 H 0.6170 -0.1235 0.7348
H42 H 0.7350 -0.1684 0.7402
C49 C 1.1630(5) 0.0196(3) 0.7367(2)
H43 H 1.1704 -0.0106 0.7066
H44 H 1.1066 -0.0150 0.7554
C50 C 1.3062(5) 0.0592(4) 0.7634(2)
H45 H 1.3726 0.0279 0.7583
H46 H 1.3022 0.0708 0.7974
C51 C 1.3482(6) 0.1317(4) 0.7426(3)
H47 H 1.3955 0.1235 0.7147
H48 H 1.4123 0.1736 0.7660
C52 C 1.2066(6) 0.1508(3) 0.7288(2)
H49 H 1.1944 0.1924 0.7520
H50 H 1.2030 0.1662 0.6974
C53 C 0.6525(4) 0.10476(18) 0.83522(12)
H51 H 0.5907 0.1327 0.8211
H52 H 0.7497 0.1387 0.8421
C54 C 0.6029(7) 0.0803(2) 0.87939(16)
H53 H 0.6825 0.0949 0.9052
H54 H 0.5305 0.1054 0.8888
C55 C 0.5431(5) -0.0038(2) 0.86971(14)
H55 H 0.4396 -0.0178 0.8617
H56 H 0.5673 -0.0270 0.8971
C56 C 0.6117(4) -0.02943(19) 0.82781(13)
H57 H 0.6972 -0.0440 0.8387
H58 H 0.5456 -0.0740 0.8069
N1 N 0.8148(2) 0.22762(11) 0.75170(7)
N2 N 0.6672(2) 0.13058(12) 0.66177(7)
N3 N 0.9936(2) 0.23176(11) 0.84130(7)
O1 O 0.7954(4) -0.07475(15) 0.70928(10)
O2 O 1.1000(3) 0.07996(19) 0.72856(12)
O3 O 0.6474(3) 0.03519(13) 0.80315(8)
K1 K 0.83481(7) 0.08121(4) 0.74148(2)
C57 C 0.2419(3) 0.72201(15) 0.72028(8)
C58 C 0.1917(3) 0.78600(15) 0.73630(9)
H59 H 0.1238 0.8043 0.7196
C59 C 0.2639(3) 0.81634(15) 0.78210(8)
H60 H 0.2553 0.8597 0.8022
C60 C 0.3531(3) 0.76820(15) 0.79219(8)
C61 C 0.2083(3) 0.67071(15) 0.67447(8)
H61 H 0.2611 0.6350 0.6684
C62 C 0.0825(3) 0.61856(14) 0.59532(8)
C63 C 0.0364(3) 0.66444(14) 0.55742(8)
C64 C 0.0685(3) 0.65287(17) 0.51084(9)
H62 H 0.1163 0.6157 0.5020
C65 C 0.0305(3) 0.6959(2) 0.47743(10)
H63 H 0.0538 0.6879 0.4466
C66 C -0.0417(3) 0.7505(2) 0.48955(11)
H64 H -0.0653 0.7802 0.4673
C67 C -0.0786(3) 0.76078(19) 0.53506(12)
H65 H -0.1293 0.7968 0.5432
C68 C -0.0408(3) 0.71775(16) 0.56896(10)
H66 H -0.0674 0.7247 0.5994
C69 C -0.0398(3) 0.54621(15) 0.59833(9)
C70 C -0.0348(3) 0.50771(17) 0.63753(10)
H67 H 0.0410 0.5274 0.6624
C71 C -0.1403(3) 0.44073(18) 0.64020(11)
H68 H -0.1347 0.4160 0.6667
C72 C -0.2545(3) 0.41021(17) 0.60355(11)
H69 H -0.3255 0.3652 0.6053
C73 C -0.2607(3) 0.44798(16) 0.56441(10)
H70 H -0.3364 0.4280 0.5395
C74 C -0.1560(3) 0.51492(15) 0.56189(9)
H71 H -0.1627 0.5397 0.5354
C75 C 0.2183(3) 0.59506(15) 0.58282(8)
C76 C 0.2216(3) 0.51847(17) 0.57148(9)
H72 H 0.1396 0.4782 0.5714
C77 C 0.3479(4) 0.5012(2) 0.56010(11)
H73 H 0.3489 0.4494 0.5526
C78 C 0.4697(4) 0.5595(2) 0.55987(11)
H74 H 0.5532 0.5476 0.5523
C79 C 0.4675(3) 0.6368(2) 0.57105(10)
H75 H 0.5499 0.6767 0.5710
C80 C 0.3430(3) 0.65436(17) 0.58229(9)
H76 H 0.3424 0.7062 0.5896
C81 C 0.4403(2) 0.77462(14) 0.83753(8)
H77 H 0.4503 0.8182 0.8606
C82 C 0.5911(2) 0.73433(14) 0.89557(8)
C83 C 0.4171(3) 0.78497(16) 0.94371(9)
H78 H 0.3441 0.7429 0.9271
C84 C 0.3848(3) 0.83857(17) 0.97770(9)
H79 H 0.2905 0.8320 0.9836
C85 C 0.4917(3) 0.90153(17) 1.00285(9)
H80 H 0.4697 0.9376 1.0254
C86 C 0.6314(3) 0.91047(16) 0.99430(10)
H81 H 0.7041 0.9522 1.0115
C87 C 0.6642(3) 0.85722(15) 0.96001(9)
H82 H 0.7588 0.8644 0.9543
C88 C 0.7509(2) 0.75709(13) 0.88939(8)
C89 C 0.7989(3) 0.78637(15) 0.84950(9)
H83 H 0.7335 0.7943 0.8259
C90 C 0.9438(3) 0.80402(16) 0.84446(10)
H84 H 0.9740 0.8226 0.8172
C91 C 1.0434(3) 0.79422(16) 0.87947(11)
H85 H 1.1403 0.8068 0.8761
C92 C 0.9968(3) 0.76552(16) 0.91949(10)
H86 H 1.0628 0.7588 0.9433
C93 C 0.8524(3) 0.74672(15) 0.92433(9)
H87 H 0.8224 0.7269 0.9513
C94 C 0.5567(3) 0.65086(14) 0.90804(9)
C95 C 0.4943(3) 0.62860(16) 0.94740(9)
H88 H 0.4729 0.6656 0.9694
C96 C 0.4631(3) 0.55113(18) 0.95439(11)
H89 H 0.4192 0.5369 0.9807
C97 C 0.4964(4) 0.49548(18) 0.92301(12)
H90 H 0.4733 0.4438 0.9277
C98 C 0.5645(4) 0.51691(17) 0.88439(11)
H91 H 0.5905 0.4801 0.8635
C99 C 0.5934(3) 0.59380(16) 0.87721(10)
H92 H 0.6385 0.6079 0.8511
C100 C 0.5585(2) 0.79348(14) 0.93415(8)
C101 C 0.3651(8) 0.3810(5) 0.7140(3)
H93 H 0.3767 0.3401 0.7318
H94 H 0.4594 0.4149 0.7129
C102 C 0.1362(9) 0.3393(5) 0.6684(3)
H95 H 0.0810 0.2852 0.6646
H96 H 0.0949 0.3642 0.6446
C103 C 0.1425(5) 0.3835(3) 0.72070(17)
H97 H 0.0824 0.4189 0.7204
H98 H 0.1081 0.3464 0.7416
C104 C 0.7654(7) 0.5757(6) 0.7494(3)
H99 H 0.7948 0.5293 0.7392
H100 H 0.7956 0.5934 0.7835
C105 C 0.8206(7) 0.6449(4) 0.7175(2)
H101 H 0.8114 0.6946 0.7328
H102 H 0.9195 0.6505 0.7124
C106 C 0.7228(8) 0.6159(6) 0.6724(3)
H103 H 0.7151 0.6578 0.6550
H104 H 0.7518 0.5767 0.6520
C107 C 0.5948(9) 0.5839(6) 0.6901(3)
H105 H 0.5402 0.5370 0.6684
H106 H 0.5376 0.6208 0.6913
C108 C 0.1413(6) 0.4878(3) 0.84219(19)
H107 H 0.2347 0.4832 0.8545
H108 H 0.0857 0.4379 0.8237
C109 C 0.0682(8) 0.5113(4) 0.8809(2)
H109 H -0.0044 0.4669 0.8870
H110 H 0.1357 0.5328 0.9099
C110 C 0.0026(8) 0.5694(4) 0.8664(3)
H111 H -0.0179 0.6022 0.8932
H112 H -0.0826 0.5475 0.8429
C111 C 0.1336(12) 0.6102(6) 0.8446(4)
H113 H 0.1133 0.6495 0.8269
H114 H 0.2158 0.6341 0.8690
N4 N 0.3403(2) 0.71082(13) 0.75406(7)
N5 N 0.1089(2) 0.67237(12) 0.64186(7)
N6 N 0.5046(2) 0.72376(12) 0.84780(7)
O4 O 0.6221(4) 0.5655(2) 0.73683(14)
O5 O 0.1557(4) 0.54675(18) 0.81367(14)
K2 K 0.39674(8) 0.58004(4) 0.77818(2)
O6 O 0.2808(5) 0.4239(3) 0.73676(18)
C112 C 0.2921(10) 0.3463(7) 0.6647(3)
H115 H 0.3072 0.2956 0.6549
H116 H 0.3265 0.3800 0.6420
C113? C 0.0978(16) 0.3153(8) 0.6851(5)
H117? H 0.0040 0.3088 0.6675
H118? H 0.1005 0.2683 0.6980
C114? C 0.3344(16) 0.4131(9) 0.6766(5)
H119? H 0.4227 0.4013 0.6876
H120? H 0.3522 0.4482 0.6534
C115? C 0.2153(17) 0.3403(9) 0.6569(6)
H121? H 0.1727 0.3472 0.6260
H122? H 0.2587 0.2977 0.6509
H123? H 0.1586 0.3678 0.7516
H124? H 0.0644 0.4078 0.7215
H125? H 0.0098 0.6101 0.8933
H126? H -0.0979 0.5460 0.8538
C116? C 0.0910(11) 0.6046(6) 0.8250(4)
H127? H 0.0275 0.6098 0.7978
H128? H 0.1604 0.6544 0.8373
O7? O 0.2724(7) 0.4426(4) 0.7146(3)
loop_
_geom_bond_atom_site_label_1
_geom_bond_atom_site_label_2
_geom_bond_site_symmetry_1
_geom_bond_site_symmetry_2
C1 C2 1_555 1_555
C2 H1 1_555 1_555
C3 C2 1_555 1_555
H2 C3 1_555 1_555
C4 C3 1_555 1_555
C5 C1 1_555 1_555
H3 C5 1_555 1_555
C6 C7 1_555 1_555
C7 C8 1_555 1_555
C8 H4 1_555 1_555
C9 C8 1_555 1_555
H5 C9 1_555 1_555
C10 C9 1_555 1_555
H6 C10 1_555 1_555
C11 C10 1_555 1_555
H7 C11 1_555 1_555
C12 C7 1_555 1_555
H8 C12 1_555 1_555
C13 C6 1_555 1_555
C14 C13 1_555 1_555
H9 C14 1_555 1_555
C15 C14 1_555 1_555
H10 C15 1_555 1_555
C16 C15 1_555 1_555
H11 C16 1_555 1_555
C17 C16 1_555 1_555
H12 C17 1_555 1_555
C18 C13 1_555 1_555
H13 C18 1_555 1_555
C19 C6 1_555 1_555
C20 C19 1_555 1_555
H14 C20 1_555 1_555
C21 C20 1_555 1_555
H15 C21 1_555 1_555
C22 C21 1_555 1_555
H16 C22 1_555 1_555
C23 C22 1_555 1_555
H17 C23 1_555 1_555
C24 C19 1_555 1_555
H18 C24 1_555 1_555
C25 C4 1_555 1_555
H19 C25 1_555 1_555
C26 C27 1_555 1_555
C27 C28 1_555 1_555
C28 H20 1_555 1_555
C29 C28 1_555 1_555
H21 C29 1_555 1_555
C30 C29 1_555 1_555
H22 C30 1_555 1_555
C31 C30 1_555 1_555
H23 C31 1_555 1_555
C32 C27 1_555 1_555
H24 C32 1_555 1_555
C33 C26 1_555 1_555
C34 C33 1_555 1_555
H25 C34 1_555 1_555
C35 C34 1_555 1_555
H26 C35 1_555 1_555
C36 C35 1_555 1_555
H27 C36 1_555 1_555
C37 C36 1_555 1_555
H28 C37 1_555 1_555
C38 C33 1_555 1_555
H29 C38 1_555 1_555
C39 C26 1_555 1_555
C40 C39 1_555 1_555
H30 C40 1_555 1_555
C41 C40 1_555 1_555
H31 C41 1_555 1_555
C42 C41 1_555 1_555
H32 C42 1_555 1_555
C43 C42 1_555 1_555
H33 C43 1_555 1_555
C44 C39 1_555 1_555
H34 C44 1_555 1_555
C45 H35 1_555 1_555
H36 C45 1_555 1_555
C46 C45 1_555 1_555
H37 C46 1_555 1_555
H38 C46 1_555 1_555
C47 C46 1_555 1_555
H39 C47 1_555 1_555
H40 C47 1_555 1_555
C48 C47 1_555 1_555
H41 C48 1_555 1_555
H42 C48 1_555 1_555
C49 H43 1_555 1_555
H44 C49 1_555 1_555
C50 C49 1_555 1_555
H45 C50 1_555 1_555
H46 C50 1_555 1_555
C51 C50 1_555 1_555
H47 C51 1_555 1_555
H48 C51 1_555 1_555
C52 C51 1_555 1_555
H49 C52 1_555 1_555
H50 C52 1_555 1_555
C53 H51 1_555 1_555
H52 C53 1_555 1_555
C54 C53 1_555 1_555
H53 C54 1_555 1_555
H54 C54 1_555 1_555
C55 C54 1_555 1_555
H55 C55 1_555 1_555
H56 C55 1_555 1_555
C56 C55 1_555 1_555
H57 C56 1_555 1_555
H58 C56 1_555 1_555
N1 C1 1_555 1_555
N2 C5 1_555 1_555
N3 C25 1_555 1_555
O1 C45 1_555 1_555
O2 C49 1_555 1_555
O3 C53 1_555 1_555
K1 N1 1_555 1_555
C57 C58 1_555 1_555
C58 H59 1_555 1_555
C59 C58 1_555 1_555
H60 C59 1_555 1_555
C60 C59 1_555 1_555
C61 C57 1_555 1_555
H61 C61 1_555 1_555
C62 C63 1_555 1_555
C63 C64 1_555 1_555
C64 H62 1_555 1_555
C65 C64 1_555 1_555
H63 C65 1_555 1_555
C66 C65 1_555 1_555
H64 C66 1_555 1_555
C67 C66 1_555 1_555
H65 C67 1_555 1_555
C68 C63 1_555 1_555
H66 C68 1_555 1_555
C69 C62 1_555 1_555
C70 C69 1_555 1_555
H67 C70 1_555 1_555
C71 C70 1_555 1_555
H68 C71 1_555 1_555
C72 C71 1_555 1_555
H69 C72 1_555 1_555
C73 C72 1_555 1_555
H70 C73 1_555 1_555
C74 C69 1_555 1_555
H71 C74 1_555 1_555
C75 C62 1_555 1_555
C76 C75 1_555 1_555
H72 C76 1_555 1_555
C77 C76 1_555 1_555
H73 C77 1_555 1_555
C78 C77 1_555 1_555
H74 C78 1_555 1_555
C79 C78 1_555 1_555
H75 C79 1_555 1_555
C80 C75 1_555 1_555
H76 C80 1_555 1_555
C81 C60 1_555 1_555
H77 C81 1_555 1_555
C82 C88 1_555 1_555
C83 H78 1_555 1_555
C84 C83 1_555 1_555
H79 C84 1_555 1_555
C85 C84 1_555 1_555
H80 C85 1_555 1_555
C86 C85 1_555 1_555
H81 C86 1_555 1_555
C87 C86 1_555 1_555
H82 C87 1_555 1_555
C88 C89 1_555 1_555
C89 H83 1_555 1_555
C90 C89 1_555 1_555
H84 C90 1_555 1_555
C91 C90 1_555 1_555
H85 C91 1_555 1_555
C92 C91 1_555 1_555
H86 C92 1_555 1_555
C93 C88 1_555 1_555
H87 C93 1_555 1_555
C94 C82 1_555 1_555
C95 C94 1_555 1_555
H88 C95 1_555 1_555
C96 C95 1_555 1_555
H89 C96 1_555 1_555
C97 C96 1_555 1_555
H90 C97 1_555 1_555
C98 C97 1_555 1_555
H91 C98 1_555 1_555
C99 C94 1_555 1_555
H92 C99 1_555 1_555
C100 C82 1_555 1_555
C101 H93 1_555 1_555
H94 C101 1_555 1_555
C102 H95 1_555 1_555
H96 C102 1_555 1_555
C103 C102 1_555 1_555
H97 C103 1_555 1_555
H98 C103 1_555 1_555
C104 H99 1_555 1_555
H100 C104 1_555 1_555
C105 C104 1_555 1_555
H101 C105 1_555 1_555
H102 C105 1_555 1_555
C106 C105 1_555 1_555
H103 C106 1_555 1_555
H104 C106 1_555 1_555
C107 C106 1_555 1_555
H105 C107 1_555 1_555
H106 C107 1_555 1_555
C108 H107 1_555 1_555
H108 C108 1_555 1_555
C109 C108 1_555 1_555
H109 C109 1_555 1_555
H110 C109 1_555 1_555
C110 C109 1_555 1_555
H111 C110 1_555 1_555
H112 C110 1_555 1_555
C111 C110 1_555 1_555
H113 C111 1_555 1_555
H114 C111 1_555 1_555
N4 C57 1_555 1_555
N5 C61 1_555 1_555
N6 C81 1_555 1_555
O4 C104 1_555 1_555
O5 C108 1_555 1_555
K2 N4 1_555 1_555
O6 C101 1_555 1_555
C112 C101 1_555 1_555
H115 C112 1_555 1_555
H116 C112 1_555 1_555
C4 N1 1_555 1_555
C6 N2 1_555 1_555
C11 C12 1_555 1_555
C17 C18 1_555 1_555
C23 C24 1_555 1_555
C26 N3 1_555 1_555
C31 C32 1_555 1_555
C37 C38 1_555 1_555
C43 C44 1_555 1_555
C48 O1 1_555 1_555
C52 O2 1_555 1_555
C56 O3 1_555 1_555
N2 K1 1_555 1_555
O1 K1 1_555 1_555
O2 K1 1_555 1_555
O3 K1 1_555 1_555
C60 N4 1_555 1_555
C62 N5 1_555 1_555
C67 C68 1_555 1_555
C73 C74 1_555 1_555
C79 C80 1_555 1_555
C82 N6 1_555 1_555
C83 C100 1_555 1_555
C87 C100 1_555 1_555
C92 C93 1_555 1_555
C98 C99 1_555 1_555
C102 C112 1_555 1_555
C103 O6 1_555 1_555
C107 O4 1_555 1_555
C111 O5 1_555 1_555
N6 K2 1_555 1_555
O4 K2 1_555 1_555
O5 K2 1_555 1_555
K2 O6 1_555 1_555

#END
