
#######################################################################
#
#                 Cambridge Crystallographic Data Centre
#                                CCDC 
#
#######################################################################
#
# If this CIF has been generated from an entry in the Cambridge 
# Structural Database, then it will include bibliographic, chemical, 
# crystal, experimental, refinement or atomic coordinate data resulting 
# from the CCDC's data processing and validation procedures.
#
#######################################################################

data_AVEFOY
_chemical_formula_moiety         'C32 H27 N3,1.5(C4 H8 O1)'
_chemical_name_systematic        
'1H-pyrrole-2,5-diylbis(N-(diphenylmethyl)methanimine) tetrahydrofuran solvate'
_symmetry_cell_setting           monoclinic
_symmetry_space_group_name_H-M   'P 21/c'
_symmetry_Int_Tables_number      14
_space_group_name_Hall           '-P 2ybc'
loop_
_symmetry_equiv_pos_site_id
_symmetry_equiv_pos_as_xyz
1 x,y,z
2 -x,1/2+y,1/2-z
3 -x,-y,-z
4 x,1/2-y,1/2+z
_cell_length_a                   14.5185(6)
_cell_length_b                   9.4875(3)
_cell_length_c                   25.1680(12)
_cell_angle_alpha                90
_cell_angle_beta                 115.815(3)
_cell_angle_gamma                90
_cell_volume                     3120.78
_exptl_crystal_colour            colorless
_exptl_crystal_description       block
_cell_formula_units_Z            4
loop_
_atom_site_label
_atom_site_type_symbol
_atom_site_fract_x
_atom_site_fract_y
_atom_site_fract_z
C1 C 0.51844(14) -0.4119(2) -0.07428(8)
C2 C 0.58182(15) -0.3026(2) -0.04319(9)
H1 H 0.5736 -0.2082 -0.0542
C3 C 0.66042(16) -0.3588(2) 0.00759(9)
H2 H 0.7137 -0.3087 0.0365
C4 C 0.64452(14) -0.5027(2) 0.00695(8)
C5 C 0.70500(15) -0.6062(2) 0.04982(8)
H3 H 0.7612 -0.5752 0.0834
C6 C 0.42816(15) -0.4094(2) -0.12979(9)
H4 H 0.4064 -0.3238 -0.1492
C7 C 0.28614(15) -0.5027(2) -0.20988(8)
H5 H 0.2816 -0.4034 -0.2215
C8 C 0.19158(16) -0.5388(2) -0.20196(9)
C9 C 0.10716(16) -0.4508(3) -0.22438(9)
H6 H 0.1085 -0.3703 -0.2451
C10 C 0.02044(18) -0.4811(3) -0.21632(11)
H7 H -0.0359 -0.4214 -0.2317
C11 C 0.01828(19) -0.6003(3) -0.18533(11)
H8 H -0.0393 -0.6200 -0.1794
C12 C 0.10138(18) -0.6900(3) -0.16323(10)
H9 H 0.0994 -0.7708 -0.1428
C13 C 0.18776(17) -0.6602(2) -0.17142(9)
H10 H 0.2435 -0.7211 -0.1565
C14 C 0.30009(17) -0.5907(2) -0.25645(9)
C15 C 0.22309(19) -0.6732(3) -0.29627(9)
H11 H 0.1605 -0.6781 -0.2945
C16 C 0.2377(2) -0.7497(3) -0.33930(11)
H12 H 0.1853 -0.8063 -0.3655
C17 C 0.3288(3) -0.7417(3) -0.34309(12)
H13 H 0.3381 -0.7913 -0.3723
C18 C 0.4054(3) -0.6608(4) -0.30391(14)
H14 H 0.4677 -0.6562 -0.3061
C19 C 0.3921(2) -0.5852(3) -0.26072(12)
H15 H 0.4453 -0.5301 -0.2343
C20 C 0.75589(15) -0.8260(2) 0.09362(9)
H16 H 0.8004 -0.7637 0.1256
C21 C 0.69543(18) -0.9171(2) 0.11654(10)
C22 C 0.60525(19) -0.9829(3) 0.07888(13)
H17 H 0.5798 -0.9688 0.0384
C23 C 0.5524(3) -1.0692(3) 0.10040(18)
H18 H 0.4923 -1.1134 0.0747
C24 C 0.5907(3) -1.0890(4) 0.1612(2)
H19 H 0.5555 -1.1461 0.1762
C25 C 0.6792(4) -1.0250(4) 0.19866(18)
H20 H 0.7046 -1.0394 0.2391
C26 C 0.7317(2) -0.9386(3) 0.17695(12)
H21 H 0.7916 -0.8946 0.2030
C27 C 0.82238(16) -0.9150(2) 0.07414(9)
C28 C 0.78162(18) -0.9996(2) 0.02452(10)
H22 H 0.7112 -1.0011 0.0016
C29 C 0.8434(2) -1.0815(3) 0.00858(12)
H23 H 0.8146 -1.1382 -0.0248
C30 C 0.9469(2) -1.0800(3) 0.04160(14)
H24 H 0.9889 -1.1334 0.0302
C31 C 0.9886(2) -0.9995(4) 0.09165(17)
H25 H 1.0589 -1.0008 0.1150
C32 C 0.92657(19) -0.9162(3) 0.10759(13)
H26 H 0.9556 -0.8605 0.1413
N1 N 0.55781(12) -0.53300(16) -0.04303(7)
H27 H 0.5319 -0.6157 -0.0533
N2 N 0.37719(12) -0.51993(17) -0.15310(7)
N3 N 0.68573(12) -0.73778(17) 0.04424(7)
C33 C 0.3158(5) -0.2563(7) -0.3897(3)
H28 H 0.3794 -0.3012 -0.3632
H29 H 0.3124 -0.2544 -0.4290
C34 C 0.2284(4) -0.3321(5) -0.3897(2)
H30 H 0.1716 -0.3311 -0.4288
H31 H 0.2464 -0.4292 -0.3777
O1 O 0.2019(5) -0.2597(4) -0.3486(3)
C35 C 0.2300(5) -0.1264(5) -0.3480(3)
H32 H 0.2566 -0.0897 -0.3080
H33 H 0.1710 -0.0702 -0.3728
C36 C 0.3100(6) -0.1157(8) -0.3699(4)
H34 H 0.2901 -0.0488 -0.4021
H35 H 0.3751 -0.0870 -0.3385
O2? O 0.3315(10) -0.1861(15) -0.3119(5)
C37? C 0.2441(10) -0.1968(18) -0.3134(6)
C38? C 0.182(2) -0.194(3) -0.3818(12)
C39? C 0.3610(18) -0.203(3) -0.3532(12)
C40? C 0.0760(12) -0.5406(16) 0.0045(8)
H36? H 0.1471 -0.5179 0.0294
H37? H 0.0730 -0.6260 -0.0174
C41? C 0.0182(13) -0.557(2) 0.0400(9)
H38? H -0.0073 -0.6529 0.0367
H39? H 0.0619 -0.5375 0.0812
O3? O -0.0610(7) -0.3854(8) -0.0309(2)
C42? C 0.0242(9) -0.4232(11) -0.0358(5)
H40? H 0.0702 -0.3432 -0.0265
H41? H 0.0064 -0.4515 -0.0761
C43? C -0.0641(14) -0.4605(19) 0.0175(5)
H42? H -0.0590 -0.3949 0.0482
H43? H -0.1285 -0.5107 0.0044
C44? C 0.243(3) -0.222(4) -0.4215(15)
C45? C 0.311(3) -0.335(4) -0.3546(16)
loop_
_geom_bond_atom_site_label_1
_geom_bond_atom_site_label_2
_geom_bond_site_symmetry_1
_geom_bond_site_symmetry_2
C1 C2 1_555 1_555
C2 H1 1_555 1_555
C3 C2 1_555 1_555
H2 C3 1_555 1_555
C4 C3 1_555 1_555
C5 C4 1_555 1_555
H3 C5 1_555 1_555
C6 C1 1_555 1_555
H4 C6 1_555 1_555
C7 H5 1_555 1_555
C8 C7 1_555 1_555
C9 C8 1_555 1_555
H6 C9 1_555 1_555
C10 C9 1_555 1_555
H7 C10 1_555 1_555
C11 C10 1_555 1_555
H8 C11 1_555 1_555
C12 C11 1_555 1_555
H9 C12 1_555 1_555
C13 C8 1_555 1_555
H10 C13 1_555 1_555
C14 C7 1_555 1_555
C15 C14 1_555 1_555
H11 C15 1_555 1_555
C16 C15 1_555 1_555
H12 C16 1_555 1_555
C17 C16 1_555 1_555
H13 C17 1_555 1_555
C18 C17 1_555 1_555
H14 C18 1_555 1_555
C19 C14 1_555 1_555
H15 C19 1_555 1_555
C20 H16 1_555 1_555
C21 C20 1_555 1_555
C22 C21 1_555 1_555
H17 C22 1_555 1_555
C23 C22 1_555 1_555
H18 C23 1_555 1_555
C24 C23 1_555 1_555
H19 C24 1_555 1_555
C25 C24 1_555 1_555
H20 C25 1_555 1_555
C26 C21 1_555 1_555
H21 C26 1_555 1_555
C27 C20 1_555 1_555
C28 C27 1_555 1_555
H22 C28 1_555 1_555
C29 C28 1_555 1_555
H23 C29 1_555 1_555
C30 C29 1_555 1_555
H24 C30 1_555 1_555
C31 C30 1_555 1_555
H25 C31 1_555 1_555
C32 C27 1_555 1_555
H26 C32 1_555 1_555
N1 C1 1_555 1_555
H27 N1 1_555 1_555
N2 C6 1_555 1_555
N3 C5 1_555 1_555
C33 H28 1_555 1_555
H29 C33 1_555 1_555
C34 C33 1_555 1_555
H30 C34 1_555 1_555
H31 C34 1_555 1_555
O1 C34 1_555 1_555
C35 O1 1_555 1_555
H32 C35 1_555 1_555
H33 C35 1_555 1_555
C36 C33 1_555 1_555
H34 C36 1_555 1_555
H35 C36 1_555 1_555
C4 N1 1_555 1_555
C7 N2 1_555 1_555
C12 C13 1_555 1_555
C18 C19 1_555 1_555
C20 N3 1_555 1_555
C25 C26 1_555 1_555
C31 C32 1_555 1_555
C35 C36 1_555 1_555

#END
