
#######################################################################
#
#                 Cambridge Crystallographic Data Centre
#                                CCDC 
#
#######################################################################
#
# If this CIF has been generated from an entry in the Cambridge 
# Structural Database, then it will include bibliographic, chemical, 
# crystal, experimental, refinement or atomic coordinate data resulting 
# from the CCDC's data processing and validation procedures.
#
#######################################################################

data_AVEFUE
_chemical_formula_moiety         'C64 H52 Li2 N6,2(C4 H8 O1)'
_chemical_name_systematic        
'bis(\m-2,5-bis(((diphenylmethyl)imino)methyl)pyrrol-1-ido)-di-lithium tetrahydrofuran solvate'
_symmetry_cell_setting           triclinic
_symmetry_space_group_name_H-M   'P -1'
_symmetry_Int_Tables_number      2
_space_group_name_Hall           '-P 1'
loop_
_symmetry_equiv_pos_site_id
_symmetry_equiv_pos_as_xyz
1 x,y,z
2 -x,-y,-z
_cell_length_a                   13.8108(5)
_cell_length_b                   21.2028(8)
_cell_length_c                   21.5594(7)
_cell_angle_alpha                98.470(3)
_cell_angle_beta                 92.153(3)
_cell_angle_gamma                107.438(3)
_cell_volume                     5934.98
_exptl_crystal_colour            colorless
_exptl_crystal_description       plates
_cell_formula_units_Z            4
loop_
_atom_site_label
_atom_site_type_symbol
_atom_site_fract_x
_atom_site_fract_y
_atom_site_fract_z
Li1 Li 1.2151(2) 0.99741(14) 0.28473(13)
Li2 Li 1.1493(2) 1.09183(14) 0.31124(13)
N1 N 1.28749(10) 1.09638(6) 0.27491(6)
N2 N 1.34148(10) 1.00112(7) 0.33645(6)
N3 N 1.11724(10) 1.13453(7) 0.23871(7)
N4 N 1.07199(10) 0.99257(7) 0.31945(6)
N5 N 1.13788(10) 1.11552(7) 0.40474(6)
N6 N 1.13852(10) 0.91925(7) 0.21958(6)
C1 C 1.38688(12) 1.09922(8) 0.28876(8)
C2 C 1.45429(13) 1.14948(9) 0.26201(9)
H1 H 1.5250 1.1612 0.2653
C3 C 1.39447(13) 1.17832(9) 0.22950(9)
H2 H 1.4172 1.2128 0.2063
C4 C 1.29362(12) 1.14521(8) 0.23861(8)
C5 C 1.20330(13) 1.15963(8) 0.21723(8)
H3 H 1.2077 1.1876 0.1873
C6 C 1.41131(12) 1.05176(8) 0.32343(7)
H4 H 1.4789 1.0580 0.3366
C7 C 1.37203(12) 0.95643(8) 0.37358(8)
H5 H 1.4460 0.9734 0.3835
C8 C 1.34449(13) 0.88597(8) 0.33516(8)
C9 C 1.41761(15) 0.86597(11) 0.30340(10)
H6 H 1.4825 0.8961 0.3040
C10 C 1.39541(19) 0.80152(13) 0.27056(12)
H7 H 1.4459 0.7885 0.2498
C11 C 1.30010(19) 0.75660(11) 0.26812(11)
H8 H 1.2857 0.7132 0.2462
C12 C 1.22622(19) 0.77645(11) 0.29838(12)
H9 H 1.1609 0.7465 0.2965
C13 C 1.24806(17) 0.84072(11) 0.33176(11)
H10 H 1.1972 0.8536 0.3522
C14 C 1.32115(13) 0.95523(8) 0.43498(8)
C15 C 1.22832(14) 0.96703(10) 0.44078(8)
H11 H 1.1968 0.9780 0.4068
C16 C 1.18172(15) 0.96277(10) 0.49648(9)
H12 H 1.1197 0.9713 0.4996
C17 C 1.22632(16) 0.94597(10) 0.54728(8)
H13 H 1.1943 0.9423 0.5843
C18 C 1.31911(18) 0.93467(12) 0.54226(9)
H14 H 1.3503 0.9236 0.5763
C19 C 1.36628(16) 0.93970(11) 0.48665(9)
H15 H 1.4293 0.9325 0.4841
C20 C 1.02676(13) 1.14684(9) 0.21038(8)
H16 H 1.0499 1.1861 0.1895
C21 C 0.95884(13) 1.16147(8) 0.26088(8)
C22 C 0.99864(15) 1.18860(10) 0.32257(9)
H17 H 1.0679 1.1976 0.3332
C23 C 0.93726(18) 1.20244(11) 0.36843(10)
H18 H 0.9655 1.2200 0.4095
C24 C 0.83435(17) 1.19052(11) 0.35386(11)
H19 H 0.7928 1.1993 0.3848
C25 C 0.79457(16) 1.16526(11) 0.29226(12)
H20 H 0.7257 1.1579 0.2816
C26 C 0.85557(15) 1.15079(11) 0.24622(10)
H21 H 0.8273 1.1338 0.2051
C27 C 0.97371(13) 1.08623(9) 0.16076(8)
C28 C 0.96073(19) 1.09306(12) 0.09841(10)
H22 H 0.9827 1.1354 0.0869
C29 C 0.9151(2) 1.03710(14) 0.05278(11)
H23 H 0.9062 1.0423 0.0111
C30 C 0.88302(19) 0.97419(13) 0.06873(11)
H24 H 0.8530 0.9369 0.0380
C31 C 0.89563(16) 0.96666(11) 0.13069(10)
H25 H 0.8744 0.9242 0.1418
C32 C 0.94011(14) 1.02251(10) 0.17657(9)
H26 H 0.9475 1.0172 0.2184
C33 C 1.01860(12) 1.00720(8) 0.36913(8)
C34 C 0.92633(13) 0.95604(9) 0.36870(8)
H27 H 0.8777 0.9545 0.3976
C35 C 0.92227(13) 0.90811(9) 0.31655(8)
H28 H 0.8700 0.8682 0.3033
C36 C 1.01229(12) 0.93162(8) 0.28786(8)
C37 C 1.04768(13) 0.89696(8) 0.23488(8)
H29 H 1.0035 0.8578 0.2116
C38 C 1.05904(12) 1.06850(8) 0.41396(8)
H30 H 1.0269 1.0740 0.4506
C39 C 1.17910(12) 1.17201(8) 0.45690(8)
H31 H 1.1252 1.1742 0.4847
C40 C 1.26584(13) 1.15992(8) 0.49414(8)
C41 C 1.33701(15) 1.13616(10) 0.46327(9)
H32 H 1.3298 1.1258 0.4196
C42 C 1.41828(18) 1.12757(12) 0.49597(10)
H33 H 1.4659 1.1120 0.4744
C43 C 1.4290(2) 1.14208(13) 0.56067(11)
H34 H 1.4833 1.1356 0.5829
C44 C 1.3606(2) 1.16582(15) 0.59187(10)
H35 H 1.3688 1.1763 0.6356
C45 C 1.27790(18) 1.17471(12) 0.55919(9)
H36 H 1.2309 1.1906 0.5811
C46 C 1.21889(13) 1.23873(8) 0.43365(8)
C47 C 1.19769(15) 1.29457(9) 0.46562(9)
H37 H 1.1548 1.2896 0.4980
C48 C 1.24014(19) 1.35741(10) 0.44945(11)
H38 H 1.2262 1.3945 0.4713
C49 C 1.30277(19) 1.36500(10) 0.40127(11)
H39 H 1.3313 1.4072 0.3905
C50 C 1.32339(18) 1.30995(11) 0.36881(10)
H40 H 1.3653 1.3151 0.3359
C51 C 1.28198(14) 1.24698(9) 0.38497(9)
H41 H 1.2966 1.2102 0.3631
C52 C 1.17707(13) 0.88291(9) 0.16759(8)
H42 H 1.2182 0.8591 0.1866
C53 C 1.09376(13) 0.83037(9) 0.12298(8)
C54 C 1.07266(15) 0.76271(9) 0.12709(9)
H43 H 1.1114 0.7497 0.1561
C55 C 0.99437(16) 0.71430(10) 0.08836(9)
H44 H 0.9812 0.6692 0.0912
C56 C 0.93621(15) 0.73340(10) 0.04566(9)
H45 H 0.8836 0.7012 0.0198
C57 C 0.95631(15) 0.80064(10) 0.04149(9)
H46 H 0.9170 0.8136 0.0129
C58 C 1.03508(15) 0.84883(9) 0.07996(9)
H47 H 1.0484 0.8938 0.0767
C59 C 1.24828(15) 0.93318(11) 0.13292(9)
C60 C 1.33125(17) 0.91787(15) 0.10753(11)
H48 H 1.3432 0.8779 0.1123
C61 C 1.3968(2) 0.9630(2) 0.07472(13)
H49 H 1.4525 0.9530 0.0579
C62 C 1.3792(3) 1.02231(19) 0.06719(13)
H50 H 1.4227 1.0520 0.0452
C63 C 1.2971(3) 1.03739(14) 0.09221(12)
H51 H 1.2851 1.0773 0.0870
C64 C 1.2315(2) 0.99307(11) 0.12551(10)
H52 H 1.1766 1.0038 0.1427
Li3 Li 0.8399(2) 0.41069(14) 0.18440(13)
Li4 Li 0.7797(2) 0.50810(14) 0.20997(13)
N7 N 0.70206(10) 0.41044(7) 0.22017(6)
N8 N 0.86785(11) 0.36900(7) 0.25931(7)
N9 N 0.65466(10) 0.50799(7) 0.15796(6)
N10 N 0.92202(10) 0.50887(7) 0.17449(6)
N11 N 0.86008(11) 0.58670(7) 0.27373(6)
N12 N 0.85298(10) 0.38382(7) 0.09117(6)
C65 C 0.69237(13) 0.36188(8) 0.25736(8)
C66 C 0.59015(14) 0.33094(9) 0.26591(9)
H53 H 0.5650 0.2971 0.2895
C67 C 0.53383(13) 0.36078(9) 0.23215(9)
H54 H 0.4633 0.3505 0.2282
C68 C 0.60412(12) 0.40951(8) 0.20519(8)
C69 C 0.58292(12) 0.45783(8) 0.17033(8)
H55 H 0.5159 0.4525 0.1565
C70 C 0.78023(13) 0.34535(8) 0.27957(8)
H56 H 0.7732 0.3169 0.3092
C71 C 0.62671(13) 0.55513(8) 0.12263(8)
H57 H 0.5531 0.5383 0.1112
C72 C 0.65109(13) 0.62324(8) 0.16539(8)
C73 C 0.59026(14) 0.63015(9) 0.21423(9)
H58 H 0.5368 0.5934 0.2206
C74 C 0.60823(15) 0.69112(10) 0.25350(9)
H59 H 0.5668 0.6950 0.2860
C75 C 0.68695(17) 0.74594(10) 0.24475(10)
H60 H 0.6980 0.7871 0.2705
C76 C 0.7489(2) 0.73932(11) 0.19773(12)
H61 H 0.8033 0.7759 0.1923
C77 C 0.73131(18) 0.67855(11) 0.15817(11)
H62 H 0.7739 0.6749 0.1264
C78 C 0.68037(14) 0.55902(9) 0.06242(8)
C79 C 0.63473(16) 0.57146(11) 0.00896(9)
H63 H 0.5705 0.5770 0.0099
C80 C 0.68441(18) 0.57574(11) -0.04603(10)
H64 H 0.6533 0.5845 -0.0814
C81 C 0.77949(17) 0.56711(10) -0.04843(9)
H65 H 0.8122 0.5693 -0.0853
C82 C 0.82522(16) 0.55518(10) 0.00466(9)
H66 H 0.8893 0.5494 0.0035
C83 C 0.95537(13) 0.35460(9) 0.28859(8)
H67 H 0.9296 0.3156 0.3096
C84 C 1.02300(13) 0.33817(8) 0.23868(8)
C85 C 0.98309(15) 0.31082(9) 0.17705(9)
H68 H 0.9140 0.3024 0.1663
C86 C 1.04415(17) 0.29596(10) 0.13139(9)
H69 H 1.0160 0.2785 0.0903
C87 C 1.14655(16) 0.30675(10) 0.14628(10)
H70 H 1.1878 0.2972 0.1154
C88 C 1.18673(15) 0.33192(10) 0.20782(11)
H71 H 1.2552 0.3383 0.2187
C89 C 1.12574(14) 0.34768(10) 0.25355(10)
H72 H 1.1540 0.3648 0.2947
C90 C 1.01068(14) 0.41483(10) 0.33795(8)
C91 C 1.04783(15) 0.47828(10) 0.32186(9)
H73 H 1.0404 0.4836 0.2801
C92 C 1.09594(16) 0.53384(11) 0.36720(11)
H74 H 1.1196 0.5761 0.3558
C93 C 1.10862(19) 0.52624(13) 0.42937(11)
H75 H 1.1414 0.5632 0.4598
C94 C 1.0724(2) 0.46357(14) 0.44586(11)
H76 H 1.0809 0.4584 0.4876
C95 C 1.02326(18) 0.40779(12) 0.40057(9)
H77 H 0.9988 0.3657 0.4123
C96 C 0.97306(12) 0.49274(8) 0.12399(8)
C97 C 1.06539(13) 0.54337(9) 0.12235(9)
H78 H 1.1127 0.5438 0.0927
C98 C 1.07163(13) 0.59240(9) 0.17376(9)
H79 H 1.1244 0.6323 0.1856
C99 C 0.98318(12) 0.57034(8) 0.20435(8)
C100 C 0.95045(13) 0.60702(8) 0.25718(8)
H80 H 0.9962 0.6462 0.2795
C101 C 0.93187(12) 0.43019(8) 0.08104(8)
H81 H 0.9639 0.4233 0.0446
C102 C 0.81544(12) 0.32474(8) 0.04140(8)
H82 H 0.8736 0.3182 0.0197
C103 C 0.74004(14) 0.33478(10) -0.00660(9)
C104 C 0.69479(18) 0.38371(11) 0.00393(13)
H83 H 0.7093 0.4129 0.0422
C105 C 0.6267(2) 0.39045(15) -0.04225(18)
H84 H 0.5984 0.4253 -0.0352
C106 C 0.6015(3) 0.3473(2) -0.09673(17)
H85 H 0.5542 0.3512 -0.1266
C107 C 0.6449(3) 0.2984(2) -0.10784(13)
H86 H 0.6275 0.2684 -0.1456
C108 C 0.7150(2) 0.29234(17) -0.06369(10)
H87 H 0.7460 0.2591 -0.0726
C109 C 0.76452(13) 0.26179(8) 0.06846(8)
C110 C 0.69278(14) 0.26176(10) 0.11169(9)
H88 H 0.6789 0.3013 0.1265
C111 C 0.64147(18) 0.20298(11) 0.13300(10)
H89 H 0.5939 0.2035 0.1623
C112 C 0.6607(2) 0.14362(12) 0.11093(12)
H90 H 0.6258 0.1043 0.1250
C113 C 0.7319(2) 0.14331(11) 0.06813(13)
H91 H 0.7453 0.1036 0.0533
C114 C 0.78414(16) 0.20212(10) 0.04672(10)
H92 H 0.8323 0.2014 0.0178
C115 C 0.82460(13) 0.62622(9) 0.32489(8)
H93 H 0.7869 0.6514 0.3048
C116 C 0.90911(13) 0.67757(9) 0.36946(8)
C117 C 0.93003(14) 0.74555(9) 0.36729(9)
H94 H 0.8916 0.7593 0.3388
C118 C 1.00752(15) 0.79331(10) 0.40717(9)
H95 H 1.0201 0.8387 0.4057
C119 C 1.06557(15) 0.77317(10) 0.44885(9)
H96 H 1.1179 0.8049 0.4754
C120 C 1.04578(15) 0.70539(11) 0.45115(9)
H97 H 1.0852 0.6918 0.4791
C121 C 0.96749(14) 0.65781(10) 0.41192(9)
H98 H 0.9542 0.6126 0.4141
C122 C 0.74889(15) 0.57908(11) 0.35986(9)
C123 C 0.66994(16) 0.59898(15) 0.38588(10)
H99 H 0.6636 0.6406 0.3817
C124 C 0.59974(19) 0.5559(2) 0.41853(12)
H100 H 0.5462 0.5689 0.4352
C125 C 0.6099(3) 0.49474(19) 0.42591(13)
H101 H 0.5638 0.4666 0.4479
C126 C 0.6879(3) 0.47575(14) 0.40087(14)
H102 H 0.6946 0.4344 0.4059
C127 C 0.7576(2) 0.51711(11) 0.36781(12)
H103 H 0.8103 0.5032 0.3510
C128 C 0.77676(14) 0.55172(9) 0.05985(8)
H104 H 0.8092 0.5444 0.0955
O1 O 0.61350(12) 0.00554(8) 0.28594(7)
C129 C 0.5808(2) 0.00223(15) 0.22270(11)
H105 H 0.5992 0.0469 0.2120
H106 H 0.5073 -0.0170 0.2162
C130 C 0.6297(3) -0.03993(19) 0.18189(14)
H107 H 0.6833 -0.0126 0.1606
H108 H 0.5802 -0.0723 0.1507
C131 C 0.6730(2) -0.07464(14) 0.22782(14)
H109 H 0.6240 -0.1168 0.2330
H110 H 0.7351 -0.0827 0.2144
C132 C 0.69325(18) -0.02427(13) 0.28666(12)
H111 H 0.6928 -0.0458 0.3234
H112 H 0.7590 0.0094 0.2874
O2 O 1.37481(11) 0.49026(7) 0.21378(6)
C133 C 1.39619(17) 0.48928(11) 0.27858(10)
H113 H 1.4689 0.4993 0.2884
H114 H 1.3619 0.4454 0.2886
C134 C 1.3585(3) 0.54145(18) 0.31587(12)
H115 H 1.4137 0.5745 0.3430
H116 H 1.3056 0.5210 0.3416
C135 C 1.31681(18) 0.57334(12) 0.26750(12)
H117 H 1.2550 0.5826 0.2798
H118 H 1.3664 0.6146 0.2609
C136 C 1.29570(17) 0.52040(11) 0.20959(10)
H119 H 1.2293 0.4875 0.2092
H120 H 1.2979 0.5403 0.1717
O3 O 0.2921(3) 0.2141(3) 0.02439(18)
C137 C 0.4545(4) 0.2245(4) 0.0129(3)
H121 H 0.4886 0.2642 -0.0045
H122 H 0.5043 0.2068 0.0307
C138 C 0.3804(6) 0.2366(4) 0.0590(3)
H123 H 0.3801 0.2119 0.0935
H124 H 0.3964 0.2839 0.0758
C139 C 0.3779(9) 0.1735(6) -0.0331(6)
H125 H 0.3395 0.1344 -0.0162
H126 H 0.4039 0.1608 -0.0727
C140 C 0.3214(7) 0.2301(5) -0.0342(4)
H127 H 0.3669 0.2752 -0.0328
H128 H 0.2657 0.2189 -0.0667
O4 O 0.7148(3) 0.2822(2) 0.48131(17)
C143 C 0.6771(4) 0.2784(3) 0.5382(2)
H135 H 0.7312 0.2968 0.5719
H136 H 0.6414 0.2323 0.5418
C144 C 0.6372(5) 0.2805(4) 0.4402(3)
H137 H 0.6071 0.2352 0.4176
H138 H 0.6633 0.3095 0.4098
C145 C 0.6066(4) 0.3186(3) 0.5400(3)
H139 H 0.6432 0.3661 0.5517
H140 H 0.5562 0.3057 0.5698
C146 C 0.5572(4) 0.3030(3) 0.4738(4)
H141 H 0.4925 0.2677 0.4691
H142 H 0.5478 0.3424 0.4598
H129? H 0.5109 0.2651 0.0139
H130? H 0.4812 0.1896 0.0233
C141? C 0.2924(9) 0.1944(8) -0.0347(6)
H131? H 0.2615 0.2199 -0.0584
H132? H 0.2527 0.1474 -0.0456
C142? C 0.3970(7) 0.2034(6) -0.0511(4)
H133? H 0.4184 0.2379 -0.0771
H134? H 0.4049 0.1619 -0.0726
loop_
_geom_bond_atom_site_label_1
_geom_bond_atom_site_label_2
_geom_bond_site_symmetry_1
_geom_bond_site_symmetry_2
Li1 N1 1_555 1_555
Li2 N1 1_555 1_555
N1 C1 1_555 1_555
N2 Li1 1_555 1_555
N3 Li2 1_555 1_555
N4 Li1 1_555 1_555
N5 Li2 1_555 1_555
N6 Li1 1_555 1_555
C1 C2 1_555 1_555
C2 H1 1_555 1_555
C3 C2 1_555 1_555
H2 C3 1_555 1_555
C4 N1 1_555 1_555
C5 N3 1_555 1_555
H3 C5 1_555 1_555
C6 N2 1_555 1_555
H4 C6 1_555 1_555
C7 N2 1_555 1_555
H5 C7 1_555 1_555
C8 C7 1_555 1_555
C9 C8 1_555 1_555
H6 C9 1_555 1_555
C10 C9 1_555 1_555
H7 C10 1_555 1_555
C11 C10 1_555 1_555
H8 C11 1_555 1_555
C12 C11 1_555 1_555
H9 C12 1_555 1_555
C13 C8 1_555 1_555
H10 C13 1_555 1_555
C14 C7 1_555 1_555
C15 C14 1_555 1_555
H11 C15 1_555 1_555
C16 C15 1_555 1_555
H12 C16 1_555 1_555
C17 C16 1_555 1_555
H13 C17 1_555 1_555
C18 C17 1_555 1_555
H14 C18 1_555 1_555
C19 C14 1_555 1_555
H15 C19 1_555 1_555
C20 N3 1_555 1_555
H16 C20 1_555 1_555
C21 C20 1_555 1_555
C22 C21 1_555 1_555
H17 C22 1_555 1_555
C23 C22 1_555 1_555
H18 C23 1_555 1_555
C24 C23 1_555 1_555
H19 C24 1_555 1_555
C25 C24 1_555 1_555
H20 C25 1_555 1_555
C26 C21 1_555 1_555
H21 C26 1_555 1_555
C27 C20 1_555 1_555
C28 C27 1_555 1_555
H22 C28 1_555 1_555
C29 C28 1_555 1_555
H23 C29 1_555 1_555
C30 C29 1_555 1_555
H24 C30 1_555 1_555
C31 C30 1_555 1_555
H25 C31 1_555 1_555
C32 C27 1_555 1_555
H26 C32 1_555 1_555
C33 N4 1_555 1_555
C34 C33 1_555 1_555
H27 C34 1_555 1_555
C35 C34 1_555 1_555
H28 C35 1_555 1_555
C36 N4 1_555 1_555
C37 N6 1_555 1_555
H29 C37 1_555 1_555
C38 N5 1_555 1_555
H30 C38 1_555 1_555
C39 N5 1_555 1_555
H31 C39 1_555 1_555
C40 C39 1_555 1_555
C41 C40 1_555 1_555
H32 C41 1_555 1_555
C42 C41 1_555 1_555
H33 C42 1_555 1_555
C43 C42 1_555 1_555
H34 C43 1_555 1_555
C44 C43 1_555 1_555
H35 C44 1_555 1_555
C45 C40 1_555 1_555
H36 C45 1_555 1_555
C46 C39 1_555 1_555
C47 C46 1_555 1_555
H37 C47 1_555 1_555
C48 C47 1_555 1_555
H38 C48 1_555 1_555
C49 C48 1_555 1_555
H39 C49 1_555 1_555
C50 C49 1_555 1_555
H40 C50 1_555 1_555
C51 C46 1_555 1_555
H41 C51 1_555 1_555
C52 N6 1_555 1_555
H42 C52 1_555 1_555
C53 C52 1_555 1_555
C54 C53 1_555 1_555
H43 C54 1_555 1_555
C55 C54 1_555 1_555
H44 C55 1_555 1_555
C56 C55 1_555 1_555
H45 C56 1_555 1_555
C57 C56 1_555 1_555
H46 C57 1_555 1_555
C58 C53 1_555 1_555
H47 C58 1_555 1_555
C59 C52 1_555 1_555
C60 C59 1_555 1_555
H48 C60 1_555 1_555
C61 C60 1_555 1_555
H49 C61 1_555 1_555
C62 C61 1_555 1_555
H50 C62 1_555 1_555
C63 C62 1_555 1_555
H51 C63 1_555 1_555
C64 C59 1_555 1_555
H52 C64 1_555 1_555
Li3 N7 1_555 1_555
Li4 N7 1_555 1_555
N7 C65 1_555 1_555
N8 Li3 1_555 1_555
N9 Li4 1_555 1_555
N10 Li3 1_555 1_555
N11 Li4 1_555 1_555
N12 Li3 1_555 1_555
C65 C66 1_555 1_555
C66 H53 1_555 1_555
C67 C66 1_555 1_555
H54 C67 1_555 1_555
C68 N7 1_555 1_555
C69 N9 1_555 1_555
H55 C69 1_555 1_555
C70 N8 1_555 1_555
H56 C70 1_555 1_555
C71 N9 1_555 1_555
H57 C71 1_555 1_555
C72 C71 1_555 1_555
C73 C72 1_555 1_555
H58 C73 1_555 1_555
C74 C73 1_555 1_555
H59 C74 1_555 1_555
C75 C74 1_555 1_555
H60 C75 1_555 1_555
C76 C75 1_555 1_555
H61 C76 1_555 1_555
C77 C72 1_555 1_555
H62 C77 1_555 1_555
C78 C71 1_555 1_555
C79 C78 1_555 1_555
H63 C79 1_555 1_555
C80 C79 1_555 1_555
H64 C80 1_555 1_555
C81 C80 1_555 1_555
H65 C81 1_555 1_555
C82 C81 1_555 1_555
H66 C82 1_555 1_555
C83 N8 1_555 1_555
H67 C83 1_555 1_555
C84 C83 1_555 1_555
C85 C84 1_555 1_555
H68 C85 1_555 1_555
C86 C85 1_555 1_555
H69 C86 1_555 1_555
C87 C86 1_555 1_555
H70 C87 1_555 1_555
C88 C87 1_555 1_555
H71 C88 1_555 1_555
C89 C84 1_555 1_555
H72 C89 1_555 1_555
C90 C83 1_555 1_555
C91 C90 1_555 1_555
H73 C91 1_555 1_555
C92 C91 1_555 1_555
H74 C92 1_555 1_555
C93 C92 1_555 1_555
H75 C93 1_555 1_555
C94 C93 1_555 1_555
H76 C94 1_555 1_555
C95 C90 1_555 1_555
H77 C95 1_555 1_555
C96 N10 1_555 1_555
C97 C96 1_555 1_555
H78 C97 1_555 1_555
C98 C97 1_555 1_555
H79 C98 1_555 1_555
C99 N10 1_555 1_555
C100 N11 1_555 1_555
H80 C100 1_555 1_555
C101 N12 1_555 1_555
H81 C101 1_555 1_555
C102 N12 1_555 1_555
H82 C102 1_555 1_555
C103 C102 1_555 1_555
C104 C103 1_555 1_555
H83 C104 1_555 1_555
C105 C104 1_555 1_555
H84 C105 1_555 1_555
C106 C105 1_555 1_555
H85 C106 1_555 1_555
C107 C106 1_555 1_555
H86 C107 1_555 1_555
C108 C103 1_555 1_555
H87 C108 1_555 1_555
C109 C102 1_555 1_555
C110 C109 1_555 1_555
H88 C110 1_555 1_555
C111 C110 1_555 1_555
H89 C111 1_555 1_555
C112 C111 1_555 1_555
H90 C112 1_555 1_555
C113 C112 1_555 1_555
H91 C113 1_555 1_555
C114 C109 1_555 1_555
H92 C114 1_555 1_555
C115 N11 1_555 1_555
H93 C115 1_555 1_555
C116 C115 1_555 1_555
C117 C116 1_555 1_555
H94 C117 1_555 1_555
C118 C117 1_555 1_555
H95 C118 1_555 1_555
C119 C118 1_555 1_555
H96 C119 1_555 1_555
C120 C119 1_555 1_555
H97 C120 1_555 1_555
C121 C116 1_555 1_555
H98 C121 1_555 1_555
C122 C115 1_555 1_555
C123 C122 1_555 1_555
H99 C123 1_555 1_555
C124 C123 1_555 1_555
H100 C124 1_555 1_555
C125 C124 1_555 1_555
H101 C125 1_555 1_555
C126 C125 1_555 1_555
H102 C126 1_555 1_555
C127 C122 1_555 1_555
H103 C127 1_555 1_555
C128 C78 1_555 1_555
H104 C128 1_555 1_555
O1 C129 1_555 1_555
C129 H105 1_555 1_555
H106 C129 1_555 1_555
C130 C129 1_555 1_555
H107 C130 1_555 1_555
H108 C130 1_555 1_555
C131 C130 1_555 1_555
H109 C131 1_555 1_555
H110 C131 1_555 1_555
C132 O1 1_555 1_555
H111 C132 1_555 1_555
H112 C132 1_555 1_555
O2 C133 1_555 1_555
C133 H113 1_555 1_555
H114 C133 1_555 1_555
C134 C133 1_555 1_555
H115 C134 1_555 1_555
H116 C134 1_555 1_555
C135 C134 1_555 1_555
H117 C135 1_555 1_555
H118 C135 1_555 1_555
C136 O2 1_555 1_555
H119 C136 1_555 1_555
H120 C136 1_555 1_555
O3 C138 1_555 1_555
C137 H121 1_555 1_555
H122 C137 1_555 1_555
C138 C137 1_555 1_555
H123 C138 1_555 1_555
H124 C138 1_555 1_555
C139 C137 1_555 1_555
H125 C139 1_555 1_555
H126 C139 1_555 1_555
C140 O3 1_555 1_555
H127 C140 1_555 1_555
H128 C140 1_555 1_555
O4 C143 1_555 1_555
C143 H135 1_555 1_555
H136 C143 1_555 1_555
C144 O4 1_555 1_555
H137 C144 1_555 1_555
H138 C144 1_555 1_555
C145 C143 1_555 1_555
H139 C145 1_555 1_555
H140 C145 1_555 1_555
C146 C144 1_555 1_555
H141 C146 1_555 1_555
H142 C146 1_555 1_555
Li2 N4 1_555 1_555
C1 C6 1_555 1_555
C3 C4 1_555 1_555
C4 C5 1_555 1_555
C12 C13 1_555 1_555
C18 C19 1_555 1_555
C25 C26 1_555 1_555
C31 C32 1_555 1_555
C33 C38 1_555 1_555
C35 C36 1_555 1_555
C36 C37 1_555 1_555
C44 C45 1_555 1_555
C50 C51 1_555 1_555
C57 C58 1_555 1_555
C63 C64 1_555 1_555
Li4 N10 1_555 1_555
C65 C70 1_555 1_555
C67 C68 1_555 1_555
C68 C69 1_555 1_555
C76 C77 1_555 1_555
C82 C128 1_555 1_555
C88 C89 1_555 1_555
C94 C95 1_555 1_555
C96 C101 1_555 1_555
C98 C99 1_555 1_555
C99 C100 1_555 1_555
C107 C108 1_555 1_555
C113 C114 1_555 1_555
C120 C121 1_555 1_555
C126 C127 1_555 1_555
C131 C132 1_555 1_555
C135 C136 1_555 1_555
C139 C140 1_555 1_555
C145 C146 1_555 1_555

#END
