
#######################################################################
#
#                 Cambridge Crystallographic Data Centre
#                                CCDC 
#
#######################################################################
#
# If this CIF has been generated from an entry in the Cambridge 
# Structural Database, then it will include bibliographic, chemical, 
# crystal, experimental, refinement or atomic coordinate data resulting 
# from the CCDC's data processing and validation procedures.
#
#######################################################################

data_AVEGUE
_chemical_formula_moiety         'C52 H34 O14,2(C1 H1 Cl3)'
_chemical_name_systematic        
"3,3',3'',3'''-(Ethane-1,2-diylbis(oxy-2,1-phenylenemethanetriyl))tetrakis(4-hydroxy-2H-chromen-2-one) chloroform solvate"
_symmetry_cell_setting           monoclinic
_symmetry_space_group_name_H-M   'P 2/c'
_symmetry_Int_Tables_number      13
_space_group_name_Hall           '-P 2yc'
loop_
_symmetry_equiv_pos_site_id
_symmetry_equiv_pos_as_xyz
1 x,y,z
2 -x,y,1/2-z
3 -x,-y,-z
4 x,-y,1/2+z
_cell_length_a                   13.828(2)
_cell_length_b                   9.6426(15)
_cell_length_c                   19.596(3)
_cell_angle_alpha                90
_cell_angle_beta                 101.134(2)
_cell_angle_gamma                90
_cell_volume                     2563.71
_cell_formula_units_Z            2
loop_
_atom_site_label
_atom_site_type_symbol
_atom_site_fract_x
_atom_site_fract_y
_atom_site_fract_z
O1 O 0.2818(3) 0.4062(4) 0.2946(2)
C1 C 0.1379(5) 0.3002(6) 0.3254(3)
O2 O 0.4093(4) 0.2849(5) 0.2802(3)
O3 O 0.3974(4) -0.2288(5) 0.2465(2)
O4 O 0.1355(4) 0.0566(5) 0.3376(3)
H1 H 0.1019 0.0814 0.3656
C2 C 0.3222(4) 0.0203(6) 0.2820(3)
H2 H 0.3725 0.0521 0.2565
C3 C 0.3821(5) -0.0422(6) 0.3480(3)
O5 O 0.2440(4) -0.1587(5) 0.3763(3)
O6 O 0.5276(3) 0.0849(5) 0.3431(3)
H3 H 0.4894 0.1454 0.3250
C4 C 0.2703(4) 0.1551(7) 0.2968(3)
C5 C 0.2606(5) -0.0797(7) 0.2318(3)
C6 C 0.3031(6) -0.2031(7) 0.2140(3)
O7 O 0.3873(5) -0.2132(5) 0.4393(3)
C7 C 0.1889(5) 0.4162(7) 0.3109(3)
C8 C 0.3253(5) 0.2821(6) 0.2896(3)
C9 C 0.4783(5) -0.0115(7) 0.3700(3)
C10 C 0.1847(5) 0.1634(7) 0.3203(3)
C11 C 0.1499(6) 0.5499(7) 0.3123(3)
H4 H 0.1846 0.6274 0.3021
C12 C 0.4877(7) -0.1953(8) 0.4563(4)
C13 C 0.0467(5) 0.3202(8) 0.3427(4)
H5 H 0.0111 0.2443 0.3537
C14 C 0.2509(6) -0.2930(7) 0.1637(4)
H6 H 0.2788 -0.3758 0.1528
C15 C 0.1565(7) -0.2555(9) 0.1305(4)
H7 H 0.1209 -0.3143 0.0972
C16 C 0.3345(6) -0.1380(7) 0.3863(4)
C17 C 0.5380(6) -0.0937(8) 0.4266(4)
C18 C 0.1670(5) -0.0485(8) 0.1966(4)
H8 H 0.1375 0.0332 0.2073
C19 C 0.0090(6) 0.4485(9) 0.3438(4)
H9 H -0.0528 0.4595 0.3550
C20 C 0.4490(5) -0.3471(6) 0.2281(4)
H10 H 0.4526 -0.3432 0.1792
H11 H 0.4146 -0.4313 0.2362
C21 C 0.1153(6) -0.1350(10) 0.1459(4)
H12 H 0.0526 -0.1103 0.1225
C22 C 0.6373(7) -0.0816(10) 0.4490(4)
H13 H 0.6715 -0.0127 0.4304
C23 C 0.6875(8) -0.1695(12) 0.4986(5)
H14 H 0.7552 -0.1585 0.5131
C24 C 0.0588(6) 0.5620(9) 0.3290(4)
H15 H 0.0307 0.6493 0.3303
C25 C 0.5383(9) -0.2887(10) 0.5089(4)
H16 H 0.5041 -0.3553 0.5291
C26 C 0.6392(9) -0.2758(13) 0.5280(5)
H17 H 0.6750 -0.3368 0.5601
O1A O 0.7182(3) 0.4062(4) 0.2054(2)
C1A C 0.8621(5) 0.3002(6) 0.1746(3)
O2A O 0.5907(4) 0.2849(5) 0.2198(3)
O3A O 0.6026(4) -0.2288(5) 0.2535(2)
O4A O 0.8645(4) 0.0566(5) 0.1624(3)
H1A H 0.8981 0.0814 0.1344
C2A C 0.6778(4) 0.0203(6) 0.2180(3)
H2A H 0.6275 0.0521 0.2435
C3A C 0.6179(5) -0.0422(6) 0.1520(3)
O5A O 0.7560(4) -0.1587(5) 0.1237(3)
O6A O 0.4724(3) 0.0849(5) 0.1569(3)
H3A H 0.5106 0.1454 0.1750
C4A C 0.7297(4) 0.1551(7) 0.2032(3)
C5A C 0.7394(5) -0.0797(7) 0.2682(3)
C6A C 0.6969(6) -0.2031(7) 0.2860(3)
O7A O 0.6127(5) -0.2132(5) 0.0607(3)
C7A C 0.8111(5) 0.4162(7) 0.1891(3)
C8A C 0.6747(5) 0.2821(6) 0.2104(3)
C9A C 0.5217(5) -0.0115(7) 0.1300(3)
C10A C 0.8153(5) 0.1634(7) 0.1797(3)
C11A C 0.8501(6) 0.5499(7) 0.1877(3)
H4A H 0.8154 0.6274 0.1979
C12A C 0.5123(7) -0.1953(8) 0.0437(4)
C13A C 0.9533(5) 0.3202(8) 0.1573(4)
H5A H 0.9889 0.2443 0.1463
C14A C 0.7491(6) -0.2930(7) 0.3363(4)
H6A H 0.7212 -0.3758 0.3472
C15A C 0.8435(7) -0.2555(9) 0.3695(4)
H7A H 0.8791 -0.3143 0.4028
C16A C 0.6655(6) -0.1380(7) 0.1137(4)
C17A C 0.4620(6) -0.0937(8) 0.0734(4)
C18A C 0.8330(5) -0.0485(8) 0.3034(4)
H8A H 0.8625 0.0332 0.2927
C19A C 0.9910(6) 0.4485(9) 0.1562(4)
H9A H 1.0528 0.4595 0.1450
C20A C 0.5510(5) -0.3471(6) 0.2719(4)
H10A H 0.5474 -0.3432 0.3208
H11A H 0.5854 -0.4313 0.2638
C21A C 0.8847(6) -0.1350(10) 0.3541(4)
H12A H 0.9474 -0.1103 0.3775
C22A C 0.3627(7) -0.0816(10) 0.0510(4)
H13A H 0.3285 -0.0127 0.0696
C23A C 0.3125(8) -0.1695(12) 0.0014(5)
H14A H 0.2448 -0.1585 -0.0131
C24A C 0.9412(6) 0.5620(9) 0.1710(4)
H15A H 0.9693 0.6493 0.1697
C25A C 0.4617(9) -0.2887(10) -0.0089(4)
H16A H 0.4959 -0.3553 -0.0291
C26A C 0.3608(9) -0.2758(13) -0.0280(5)
H17A H 0.3250 -0.3368 -0.0601
Cl1 Cl 0.8436(5) 0.4556(5) 0.49459(17)
Cl2 Cl 0.7304(4) 0.2925(5) 0.3949(2)
Cl3 Cl 0.8963(4) 0.1814(8) 0.4800(3)
C27 C 0.8000(8) 0.2963(9) 0.4762(5)
H18 H 0.7596 0.2688 0.5099
loop_
_geom_bond_atom_site_label_1
_geom_bond_atom_site_label_2
_geom_bond_site_symmetry_1
_geom_bond_site_symmetry_2
O1 C7 1_555 1_555
C1 C7 1_555 1_555
O2 C8 1_555 1_555
O3 C6 1_555 1_555
O4 H1 1_555 1_555
C2 H2 1_555 1_555
C3 C2 1_555 1_555
O5 C16 1_555 1_555
O6 H3 1_555 1_555
C4 C2 1_555 1_555
C5 C2 1_555 1_555
C6 C5 1_555 1_555
O7 C12 1_555 1_555
C7 C11 1_555 1_555
C8 O1 1_555 1_555
C9 C3 1_555 1_555
C10 C1 1_555 1_555
C11 H4 1_555 1_555
C12 C17 1_555 1_555
C13 C1 1_555 1_555
H5 C13 1_555 1_555
C14 C6 1_555 1_555
H6 C14 1_555 1_555
C15 C14 1_555 1_555
H7 C15 1_555 1_555
C16 C3 1_555 1_555
C17 C9 1_555 1_555
C18 C5 1_555 1_555
H8 C18 1_555 1_555
C19 C13 1_555 1_555
H9 C19 1_555 1_555
C20 O3 1_555 1_555
H10 C20 1_555 1_555
H11 C20 1_555 1_555
C21 C15 1_555 1_555
H12 C21 1_555 1_555
C22 C17 1_555 1_555
H13 C22 1_555 1_555
C23 C22 1_555 1_555
H14 C23 1_555 1_555
C24 C11 1_555 1_555
H15 C24 1_555 1_555
C25 C12 1_555 1_555
H16 C25 1_555 1_555
C26 C23 1_555 1_555
H17 C26 1_555 1_555
Cl1 C27 1_555 1_555
Cl2 C27 1_555 1_555
Cl3 C27 1_555 1_555
C27 H18 1_555 1_555
O1A C7A 1_555 1_555
C1A C7A 1_555 1_555
O2A C8A 1_555 1_555
O3A C6A 1_555 1_555
O4A H1A 1_555 1_555
C2A H2A 1_555 1_555
C3A C2A 1_555 1_555
O5A C16A 1_555 1_555
O6A H3A 1_555 1_555
C4A C2A 1_555 1_555
C5A C2A 1_555 1_555
C6A C5A 1_555 1_555
O7A C12A 1_555 1_555
C7A C11A 1_555 1_555
C8A O1A 1_555 1_555
C9A C3A 1_555 1_555
C10A C1A 1_555 1_555
C11A H4A 1_555 1_555
C12A C17A 1_555 1_555
C13A C1A 1_555 1_555
H5A C13A 1_555 1_555
C14A C6A 1_555 1_555
H6A C14A 1_555 1_555
C15A C14A 1_555 1_555
H7A C15A 1_555 1_555
C16A C3A 1_555 1_555
C17A C9A 1_555 1_555
C18A C5A 1_555 1_555
H8A C18A 1_555 1_555
C19A C13A 1_555 1_555
H9A C19A 1_555 1_555
C20A C20 1_555 1_555
H10A C20A 1_555 1_555
H11A C20A 1_555 1_555
C21A C15A 1_555 1_555
H12A C21A 1_555 1_555
C22A C17A 1_555 1_555
H13A C22A 1_555 1_555
C23A C22A 1_555 1_555
H14A C23A 1_555 1_555
C24A C11A 1_555 1_555
H15A C24A 1_555 1_555
C25A C12A 1_555 1_555
H16A C25A 1_555 1_555
C26A C23A 1_555 1_555
H17A C26A 1_555 1_555
O4 C10 1_555 1_555
O6 C9 1_555 1_555
C4 C8 1_555 1_555
C4 C10 1_555 1_555
O7 C16 1_555 1_555
C18 C21 1_555 1_555
C19 C24 1_555 1_555
C25 C26 1_555 1_555
O3A C20A 1_555 1_555
O4A C10A 1_555 1_555
O6A C9A 1_555 1_555
C4A C8A 1_555 1_555
C4A C10A 1_555 1_555
O7A C16A 1_555 1_555
C18A C21A 1_555 1_555
C19A C24A 1_555 1_555
C25A C26A 1_555 1_555

#END
