
#######################################################################
#
#                 Cambridge Crystallographic Data Centre
#                                CCDC 
#
#######################################################################
#
# If this CIF has been generated from an entry in the Cambridge 
# Structural Database, then it will include bibliographic, chemical, 
# crystal, experimental, refinement or atomic coordinate data resulting 
# from the CCDC's data processing and validation procedures.
#
#######################################################################

data_AVEJES
_chemical_formula_moiety         'C19 H22 Br1 N3 O4'
_chemical_name_systematic        
'Ethyl 3-(4-bromophenyl)-1-((2R,3S)-3-(methoxycarbonyl)-2-propylaziridin-2-yl)-1H-pyrazole-5-carboxylate'
_symmetry_cell_setting           triclinic
_symmetry_space_group_name_H-M   'P 1'
_symmetry_Int_Tables_number      1
_space_group_name_Hall           'P 1'
loop_
_symmetry_equiv_pos_site_id
_symmetry_equiv_pos_as_xyz
1 x,y,z
_cell_length_a                   6.9252(14)
_cell_length_b                   8.5633(17)
_cell_length_c                   16.850(3)
_cell_angle_alpha                84.11(3)
_cell_angle_beta                 89.29(3)
_cell_angle_gamma                89.79(3)
_cell_volume                     993.894
_exptl_crystal_colour            colorless
_exptl_crystal_description       block
_cell_formula_units_Z            2
_chemical_properties_physical    Heat-sensitive
loop_
_atom_site_label
_atom_site_type_symbol
_atom_site_fract_x
_atom_site_fract_y
_atom_site_fract_z
Br1 Br 1.55707(9) 0.69436(8) 0.10834(5)
O1 O 0.2990(8) 0.7024(7) 0.4815(4)
O2 O 0.3434(6) 0.8993(6) 0.3838(3)
O3 O 0.4741(9) 0.1044(7) 0.5643(4)
O4 O 0.7404(9) 0.0513(6) 0.4968(3)
N1 N 0.8034(8) 0.5251(6) 0.3726(3)
N2 N 0.6410(9) 0.5527(7) 0.4139(4)
N3 N 0.3876(8) 0.3665(7) 0.4541(4)
H1 H 0.2646 0.3763 0.4493
C1 C 1.3385(11) 0.6878(9) 0.1754(5)
C2 C 1.1884(10) 0.7953(8) 0.1609(4)
H2 H 1.1971 0.8736 0.1185
C3 C 1.0268(10) 0.7846(8) 0.2099(4)
H3 H 0.9261 0.8557 0.1996
C4 C 1.0115(10) 0.6698(8) 0.2741(5)
C5 C 1.1644(9) 0.5653(7) 0.2891(4)
H4 H 1.1573 0.4883 0.3321
C6 C 1.3273(9) 0.5754(8) 0.2400(4)
H5 H 1.4295 0.5060 0.2508
C7 C 0.8385(10) 0.6567(8) 0.3261(5)
C8 C 0.6928(9) 0.7687(8) 0.3356(4)
H6 H 0.6825 0.8689 0.3089
C9 C 0.5713(10) 0.6994(8) 0.3918(4)
C10 C 0.3897(10) 0.7628(9) 0.4267(5)
C11 C 0.1628(9) 0.9693(9) 0.4063(5)
H7 H 0.1731 1.0058 0.4587
H8 H 0.0596 0.8928 0.4080
C12 C 0.1214(13) 1.1046(10) 0.3450(6)
H9 H 0.1119 1.0672 0.2934
H10 H 0.2239 1.1799 0.3442
H11 H 0.0017 1.1534 0.3581
C13 C 0.5702(9) 0.4331(7) 0.4740(4)
C14 C 0.6190(11) 0.4631(9) 0.5580(4)
H12 H 0.5634 0.3813 0.5953
H13 H 0.5641 0.5628 0.5695
C15 C 0.8468(16) 0.4663(15) 0.5688(7)
H14 H 0.8978 0.3672 0.5545
H15 H 0.8982 0.5479 0.5301
C16 C 0.921(2) 0.490(2) 0.6423(9)
H16 H 1.0380 0.5496 0.6350
H17 H 0.9467 0.3909 0.6719
H18 H 0.8282 0.5474 0.6711
C17 C 0.5615(10) 0.2706(8) 0.4480(4)
H19 H 0.6095 0.2577 0.3941
C18 C 0.5863(13) 0.1343(9) 0.5097(5)
C19 C 0.7754(15) -0.0807(10) 0.5557(6)
H20 H 0.7098 -0.1716 0.5407
H21 H 0.7280 -0.0566 0.6069
H22 H 0.9116 -0.1015 0.5587
Br2 Br -0.44117(8) 1.17141(8) 0.20988(5)
O5 O 0.8224(8) 1.3325(7) -0.1594(4)
O6 O 0.7720(6) 1.4933(5) -0.0638(3)
O7 O 0.6451(10) 0.7815(8) -0.2511(4)
O8 O 0.3837(9) 0.6914(7) -0.1804(4)
N4 N 0.3122(7) 1.1157(6) -0.0557(3)
N5 N 0.4778(8) 1.1580(7) -0.0947(4)
N6 N 0.7291(8) 0.9883(8) -0.1358(4)
H23 H 0.8521 0.9937 -0.1302
C20 C -0.2192(10) 1.1944(9) 0.1413(5)
C21 C -0.0735(9) 1.2955(8) 0.1583(4)
H24 H -0.0834 1.3546 0.2015
C22 C 0.0879(10) 1.3051(8) 0.1086(4)
H25 H 0.1875 1.3727 0.1186
C23 C 0.1047(10) 1.2171(8) 0.0446(4)
C24 C -0.0465(9) 1.1193(7) 0.0294(4)
H26 H -0.0376 1.0600 -0.0138
C25 C -0.2094(9) 1.1084(8) 0.0770(4)
H27 H -0.3111 1.0438 0.0659
C26 C 0.2767(10) 1.2267(8) -0.0074(5)
C27 C 0.4230(9) 1.3430(7) -0.0162(4)
H28 H 0.4319 1.4320 0.0109
C28 C 0.5467(10) 1.2976(8) -0.0722(4)
C29 C 0.7281(10) 1.3717(8) -0.1048(4)
C30 C 0.9523(10) 1.5729(9) -0.0881(5)
H29 H 0.9399 1.6301 -0.1406
H30 H 1.0568 1.4975 -0.0900
C31 C 0.9918(12) 1.6847(11) -0.0263(6)
H31 H 1.1137 1.7354 -0.0379
H32 H 0.9954 1.6272 0.0256
H33 H 0.8912 1.7623 -0.0275
C32 C 0.5475(9) 1.0669(8) -0.1556(4)
C33 C 0.5078(10) 1.1374(9) -0.2403(4)
H34 H 0.5539 1.0652 -0.2771
H35 H 0.5808 1.2339 -0.2508
C34 C 0.2951(11) 1.1729(9) -0.2565(5)
H36 H 0.2436 1.2301 -0.2142
H37 H 0.2856 1.2409 -0.3060
C35 C 0.1724(12) 1.0308(12) -0.2623(6)
H38 H 0.2296 0.9672 -0.3001
H39 H 0.0455 1.0630 -0.2796
H40 H 0.1636 0.9710 -0.2110
C36 C 0.5542(10) 0.8935(8) -0.1323(5)
H41 H 0.5040 0.8560 -0.0792
C37 C 0.5377(13) 0.7857(10) -0.1950(6)
C38 C 0.3480(16) 0.5870(11) -0.2419(7)
H42 H 0.3312 0.6482 -0.2923
H43 H 0.2334 0.5269 -0.2283
H44 H 0.4559 0.5173 -0.2453
loop_
_geom_bond_atom_site_label_1
_geom_bond_atom_site_label_2
_geom_bond_site_symmetry_1
_geom_bond_site_symmetry_2
Br1 C1 1_555 1_555
O1 C10 1_555 1_555
O2 C10 1_555 1_555
O3 C18 1_555 1_555
O4 C18 1_555 1_555
N1 N2 1_555 1_555
N2 C9 1_555 1_555
N3 H1 1_555 1_555
C1 C2 1_555 1_555
C2 H2 1_555 1_555
C3 C2 1_555 1_555
H3 C3 1_555 1_555
C4 C3 1_555 1_555
C5 C4 1_555 1_555
H4 C5 1_555 1_555
C6 C1 1_555 1_555
H5 C6 1_555 1_555
C7 N1 1_555 1_555
C8 C7 1_555 1_555
H6 C8 1_555 1_555
C9 C8 1_555 1_555
C10 C9 1_555 1_555
C11 O2 1_555 1_555
H7 C11 1_555 1_555
H8 C11 1_555 1_555
C12 C11 1_555 1_555
H9 C12 1_555 1_555
H10 C12 1_555 1_555
H11 C12 1_555 1_555
C13 N2 1_555 1_555
C14 C13 1_555 1_555
H12 C14 1_555 1_555
H13 C14 1_555 1_555
C15 C14 1_555 1_555
H14 C15 1_555 1_555
H15 C15 1_555 1_555
C16 C15 1_555 1_555
H16 C16 1_555 1_555
H17 C16 1_555 1_555
H18 C16 1_555 1_555
C17 N3 1_555 1_555
H19 C17 1_555 1_555
C18 C17 1_555 1_555
C19 O4 1_555 1_555
H20 C19 1_555 1_555
H21 C19 1_555 1_555
H22 C19 1_555 1_555
Br2 C20 1_555 1_555
O5 C29 1_555 1_555
O6 C29 1_555 1_555
O7 C37 1_555 1_555
O8 C37 1_555 1_555
N4 N5 1_555 1_555
N5 C28 1_555 1_555
N6 H23 1_555 1_555
C20 C21 1_555 1_555
C21 H24 1_555 1_555
C22 C21 1_555 1_555
H25 C22 1_555 1_555
C23 C22 1_555 1_555
C24 C23 1_555 1_555
H26 C24 1_555 1_555
C25 C20 1_555 1_555
H27 C25 1_555 1_555
C26 N4 1_555 1_555
C27 C26 1_555 1_555
H28 C27 1_555 1_555
C28 C27 1_555 1_555
C29 C28 1_555 1_555
C30 O6 1_555 1_555
H29 C30 1_555 1_555
H30 C30 1_555 1_555
C31 C30 1_555 1_555
H31 C31 1_555 1_555
H32 C31 1_555 1_555
H33 C31 1_555 1_555
C32 N5 1_555 1_555
C33 C32 1_555 1_555
H34 C33 1_555 1_555
H35 C33 1_555 1_555
C34 C33 1_555 1_555
H36 C34 1_555 1_555
H37 C34 1_555 1_555
C35 C34 1_555 1_555
H38 C35 1_555 1_555
H39 C35 1_555 1_555
H40 C35 1_555 1_555
C36 N6 1_555 1_555
H41 C36 1_555 1_555
C37 C36 1_555 1_555
C38 O8 1_555 1_555
H42 C38 1_555 1_555
H43 C38 1_555 1_555
H44 C38 1_555 1_555
N3 C13 1_555 1_555
C4 C7 1_555 1_555
C5 C6 1_555 1_555
C13 C17 1_555 1_555
N6 C32 1_555 1_555
C23 C26 1_555 1_555
C24 C25 1_555 1_555
C32 C36 1_555 1_555

#END
