
#######################################################################
#
#                 Cambridge Crystallographic Data Centre
#                                CCDC 
#
#######################################################################
#
# If this CIF has been generated from an entry in the Cambridge 
# Structural Database, then it will include bibliographic, chemical, 
# crystal, experimental, refinement or atomic coordinate data resulting 
# from the CCDC's data processing and validation procedures.
#
#######################################################################

data_AVELUK
_chemical_formula_moiety         'C17 H22 N4 O2 2+,2(H2 O1),2(Cl1 1-)'
_chemical_name_systematic        
"2,2'-(Propane-1,3-diyldicarbamoyl)dianilinium dichloride dihydrate"
_symmetry_cell_setting           monoclinic
_symmetry_space_group_name_H-M   'P 21/c'
_symmetry_Int_Tables_number      14
_space_group_name_Hall           '-P 2ybc'
loop_
_symmetry_equiv_pos_site_id
_symmetry_equiv_pos_as_xyz
1 x,y,z
2 -x,1/2+y,1/2-z
3 -x,-y,-z
4 x,1/2-y,1/2+z
_cell_length_a                   11.3144(5)
_cell_length_b                   9.6264(4)
_cell_length_c                   18.8355(6)
_cell_angle_alpha                90
_cell_angle_beta                 90.554(4)
_cell_angle_gamma                90
_cell_volume                     2051.41
_exptl_crystal_colour            'pale orange'
_exptl_crystal_description       Block
_cell_formula_units_Z            4
loop_
_atom_site_label
_atom_site_type_symbol
_atom_site_fract_x
_atom_site_fract_y
_atom_site_fract_z
O1 O 0.73686(15) 0.62360(17) 0.45772(8)
O2 O 0.76651(16) 0.61609(17) 0.04805(8)
N1 N 0.7808(2) 0.5782(2) 0.59304(10)
N2 N 0.82310(18) 0.4974(2) 0.37299(9)
N3 N 0.66419(18) 0.4987(2) 0.12986(9)
N4 N 0.7203(2) 0.5764(2) -0.08865(11)
C1 C 0.83856(18) 0.4517(2) 0.56739(11)
C2 C 0.8790(2) 0.3591(3) 0.61817(12)
C3 C 0.9352(2) 0.2393(3) 0.59758(13)
C4 C 0.9509(2) 0.2121(3) 0.52685(14)
C5 C 0.9082(2) 0.3035(2) 0.47607(12)
C6 C 0.85058(17) 0.4256(2) 0.49511(10)
C7 C 0.80026(18) 0.5240(2) 0.44025(11)
C8 C 0.7760(2) 0.5823(2) 0.31482(10)
C9 C 0.74604(18) 0.4953(3) 0.25077(9)
C10 C 0.7025(2) 0.5834(3) 0.19015(11)
C11 C 0.69788(18) 0.5206(2) 0.06400(10)
C12 C 0.65226(17) 0.4204(2) 0.00872(10)
C13 C 0.5982(2) 0.2956(2) 0.02688(12)
C14 C 0.5565(2) 0.2048(2) -0.02403(14)
C15 C 0.5709(2) 0.2340(3) -0.09492(13)
C16 C 0.6253(2) 0.3551(3) -0.11472(12)
C17 C 0.66396(18) 0.4475(2) -0.06377(11)
H1 H 0.785(3) 0.552(3) -0.1202(18)
H2 H 0.86833 0.37786 0.66612
H3 H 0.718(3) 0.555(3) 0.6230(17)
H4 H 0.96250 0.17667 0.63159
H5 H 0.828(2) 0.620(3) 0.6207(13)
H6 H 0.99034 0.13204 0.51297
H7 H 0.671(2) 0.620(3) -0.1162(13)
H8 H 0.91809 0.28291 0.42826
H9 H 0.612(2) 0.447(2) 0.1368(13)
H10 H 0.872(2) 0.445(3) 0.3623(14)
H11 H 0.747(2) 0.626(3) -0.0479(15)
H12 H 0.756(3) 0.632(3) 0.5473(16)
H13 H 0.70559 0.63030 0.33059
H14 H 0.83405 0.65185 0.30191
H15 H 0.68557 0.42836 0.26316
H16 H 0.81566 0.44436 0.23618
H17 H 0.63697 0.64007 0.20595
H18 H 0.76532 0.64515 0.17526
H19 H 0.59008 0.27300 0.07459
H20 H 0.51845 0.12355 -0.01043
H21 H 0.54378 0.17194 -0.12925
H22 H 0.63616 0.37470 -0.16256
O3 O 0.46004(16) 0.33128(19) 0.18438(9)
H23 H 0.48789 0.25324 0.19741
H24 H 0.44233 0.37899 0.22072
O4 O 0.1054(2) 0.5117(3) 0.17912(12)
H25 H 0.077(2) 0.579(3) 0.1844(14)
H26 H 0.083(3) 0.464(4) 0.2115(19)
Cl1 Cl 0.02633(5) 0.30234(6) 0.29863(3)
Cl2 Cl 0.58426(6) 0.04103(7) 0.19162(3)
loop_
_geom_bond_atom_site_label_1
_geom_bond_atom_site_label_2
_geom_bond_site_symmetry_1
_geom_bond_site_symmetry_2
O1 C7 1_555 1_555
O2 C11 1_555 1_555
N1 C1 1_555 1_555
N2 C7 1_555 1_555
N3 C10 1_555 1_555
N4 C17 1_555 1_555
C1 C2 1_555 1_555
C2 C3 1_555 1_555
C3 C4 1_555 1_555
C4 C5 1_555 1_555
C5 C6 1_555 1_555
C6 C1 1_555 1_555
C7 C6 1_555 1_555
C8 N2 1_555 1_555
C9 C8 1_555 1_555
C10 C9 1_555 1_555
C11 N3 1_555 1_555
C12 C11 1_555 1_555
C13 C12 1_555 1_555
C14 C13 1_555 1_555
C15 C14 1_555 1_555
C16 C15 1_555 1_555
C17 C12 1_555 1_555
H1 N4 1_555 1_555
H2 C2 1_555 1_555
H3 N1 1_555 1_555
H4 C3 1_555 1_555
H5 N1 1_555 1_555
H6 C4 1_555 1_555
H7 N4 1_555 1_555
H8 C5 1_555 1_555
H9 N3 1_555 1_555
H10 N2 1_555 1_555
H11 N4 1_555 1_555
H12 N1 1_555 1_555
H13 C8 1_555 1_555
H14 C8 1_555 1_555
H15 C9 1_555 1_555
H16 C9 1_555 1_555
H17 C10 1_555 1_555
H18 C10 1_555 1_555
H19 C13 1_555 1_555
H20 C14 1_555 1_555
H21 C15 1_555 1_555
H22 C16 1_555 1_555
O3 H23 1_555 1_555
H24 O3 1_555 1_555
O4 H25 1_555 1_555
H26 O4 1_555 1_555
C16 C17 1_555 1_555

#END
