
#######################################################################
#
#                 Cambridge Crystallographic Data Centre
#                                CCDC 
#
#######################################################################
#
# If this CIF has been generated from an entry in the Cambridge 
# Structural Database, then it will include bibliographic, chemical, 
# crystal, experimental, refinement or atomic coordinate data resulting 
# from the CCDC's data processing and validation procedures.
#
#######################################################################

data_AVELIX
_chemical_name_common            
'(S)-3,9,15,33-Tetra-t-butyl-37,38-dihydroxy-24-methyl-19,22,28-trioxa-25-azahexacyclo[15.12.7.1$7,11!.1$31,35!.0$5,29!.0$13,18!]octatriaconta-1(29),2,4,7(38),8,10,13,15,17,31(37),32,34-dodecaene-21,26-dione methanol solvate monohydrate'
_chemical_formula_moiety         'C51 H65 N1 O7,C1 H4 O1,H2 O1'
_chemical_name_systematic        
'(S)-5,11,17,23-Tetra-t-butyl-25,27-dihydroxy-26,28-(4-methyl-2,7-dioxo-3-aza-6-oxaoctane-1,8-dioxy)calix(4)arene methanol solvate monohydrate'
_symmetry_cell_setting           trigonal
_symmetry_space_group_name_H-M   'P 31 2 1'
_symmetry_Int_Tables_number      152
_space_group_name_Hall           'P 31 2"'
loop_
_symmetry_equiv_pos_site_id
_symmetry_equiv_pos_as_xyz
1 x,y,z
2 -y,x-y,1/3+z
3 -x+y,-x,2/3+z
4 y,x,-z
5 -x,-x+y,1/3-z
6 x-y,-y,2/3-z
_cell_length_a                   12.6602(9)
_cell_length_b                   12.6602(9)
_cell_length_c                   28.733(4)
_cell_angle_alpha                90
_cell_angle_beta                 90
_cell_angle_gamma                120
_cell_volume                     3988.35
_cell_formula_units_Z            3
loop_
_atom_site_label
_atom_site_type_symbol
_atom_site_fract_x
_atom_site_fract_y
_atom_site_fract_z
O6 O 0.8714(4) 0.3174(4) 0.68655(15)
H39 H 0.8861 0.2591 0.6837
H40 H 0.8917 0.3594 0.6617
C1 C 0.0703(4) -0.0173(3) 0.92876(10)
C2 C 0.0632(4) -0.1311(3) 0.93360(10)
C3 C 0.1653(4) -0.1302(3) 0.95404(11)
H1 H 0.1624 -0.2043 0.9587
C4 C 0.2687(4) -0.0249(3) 0.96744(10)
C5 C 0.2735(4) 0.0854(3) 0.95898(11)
H2 H 0.3443 0.1578 0.9663
C6 C 0.1725(4) 0.0903(3) 0.93943(10)
C7 C -0.0424(4) -0.2566(3) 0.92079(11)
H3 H -0.1195 -0.2576 0.9221
H4 H -0.0462 -0.3186 0.9417
C8 C -0.0127(4) -0.2790(3) 0.86863(11)
C9 C -0.0331(4) -0.2354(3) 0.82674(11)
C10 C -0.0029(4) -0.2613(3) 0.78421(10)
C11 C 0.0549(5) -0.3293(3) 0.78288(12)
H5 H 0.0810 -0.3427 0.7544
C12 C 0.0754(5) -0.3782(3) 0.82286(12)
C13 C 0.0417(5) -0.3524(3) 0.86572(12)
H6 H 0.0552 -0.3842 0.8928
C14 C 0.1843(4) 0.2091(3) 0.92709(12)
H7 H 0.2239 0.2662 0.9524
H8 H 0.1037 0.1990 0.9229
C15 C 0.3738(4) -0.0345(3) 0.98884(11)
C16 C 0.3295(4) -0.0977(3) 1.03564(11)
H9 H 0.3678 -0.0393 1.0602
H10 H 0.3501 -0.1608 1.0386
H11 H 0.2427 -0.1328 1.0377
C17 C 0.4787(4) 0.0943(3) 0.99832(12)
H12 H 0.4876 0.1460 0.9725
H13 H 0.5529 0.0922 1.0025
H14 H 0.4616 0.1256 1.0260
C18 C 0.3922(4) -0.1276(3) 0.96263(12)
H15 H 0.3292 -0.2082 0.9711
H16 H 0.4703 -0.1178 0.9704
H17 H 0.3885 -0.1161 0.9298
C19 C 0.1412(5) -0.4513(3) 0.82013(12)
C20 C 0.2150(4) -0.4404(3) 0.86410(11)
H18 H 0.2423 -0.4987 0.8627
H19 H 0.1644 -0.4563 0.8911
H20 H 0.2842 -0.3596 0.8661
C21 C 0.2119(4) -0.4303(3) 0.77518(11)
H21 H 0.1613 -0.4358 0.7493
H22 H 0.2357 -0.4910 0.7721
H23 H 0.2834 -0.3507 0.7758
C22 C 0.0401(5) -0.5799(3) 0.82002(12)
H24 H -0.0039 -0.5970 0.7912
H25 H -0.0141 -0.5925 0.8455
H26 H 0.0729 -0.6334 0.8233
C23 C -0.1124(4) -0.0170(3) 0.94557(11)
H27 H -0.0681 0.0500 0.9672
H28 H -0.1462 -0.0928 0.9629
C24 C -0.2135(4) -0.0058(3) 0.92318(11)
C25 C -0.2835(4) 0.0519(3) 0.85163(12)
H29 H -0.3492 0.0472 0.8712
C26 C -0.2214(8) 0.1686(7) 0.8264(2)
H30 H -0.2371 0.2268 0.8417
H31 H -0.2515 0.1565 0.7950
H32 H -0.1352 0.1985 0.8260
N1 N -0.1970(2) 0.0281(2) 0.88044(8)
H36 H -0.1900 -0.0297 0.8648
O1 O -0.03085(28) -0.01485(19) 0.91027(7)
O2 O -0.08531(28) -0.16051(19) 0.82846(7)
H37 H -0.1117 -0.1609 0.8598
O3 O -0.2968(3) -0.0171(2) 0.94579(8)
C1E C 0.0876(5) 0.0173(3) 0.73791(10)
C2E C 0.1943(5) 0.1311(3) 0.73307(10)
C3E C 0.2955(5) 0.1302(3) 0.71263(11)
H1E H 0.3667 0.2043 0.7080
C4E C 0.2936(5) 0.0249(3) 0.69923(10)
C5E C 0.1881(5) -0.0854(3) 0.70769(11)
H2E H 0.1865 -0.1578 0.7004
C6E C 0.0822(5) -0.0903(3) 0.72724(10)
C7E C 0.2142(5) 0.2566(3) 0.74588(11)
H3E H 0.1381 0.2576 0.7446
H4E H 0.2724 0.3186 0.7250
C8E C 0.2663(5) 0.2790(3) 0.79804(11)
C9E C 0.2023(5) 0.2354(3) 0.83993(11)
C10E C 0.2584(5) 0.2613(3) 0.88246(10)
C11E C 0.3842(6) 0.3293(3) 0.88379(12)
H5E H 0.4237 0.3427 0.9123
C12E C 0.4536(6) 0.3782(3) 0.84381(12)
C13E C 0.3941(6) 0.3524(3) 0.80095(12)
H6E H 0.4394 0.3842 0.7739
C14E C -0.0248(5) -0.2091(3) 0.73958(12)
H7E H -0.0423 -0.2662 0.7143
H8E H -0.0953 -0.1990 0.7438
C15E C 0.4083(5) 0.0345(3) 0.67783(11)
C16E C 0.4272(5) 0.0977(3) 0.63103(11)
H9E H 0.4071 0.0393 0.6065
H10E H 0.5109 0.1608 0.6281
H11E H 0.3755 0.1328 0.6290
C17E C 0.3844(5) -0.0943(3) 0.66835(12)
H12E H 0.3416 -0.1460 0.6942
H13E H 0.4607 -0.0922 0.6642
H14E H 0.3360 -0.1256 0.6407
C18E C 0.5198(5) 0.1276(3) 0.70404(12)
H15E H 0.5374 0.2082 0.6956
H16E H 0.5881 0.1178 0.6963
H17E H 0.5046 0.1161 0.7369
C19E C 0.5925(6) 0.4513(3) 0.84654(12)
C20E C 0.6554(5) 0.4404(3) 0.80257(11)
H18E H 0.7410 0.4987 0.8040
H19E H 0.6207 0.4563 0.7756
H20E H 0.6438 0.3596 0.8006
C21E C 0.6422(5) 0.4303(3) 0.89149(11)
H21E H 0.5971 0.4358 0.9174
H22E H 0.7267 0.4910 0.8946
H23E H 0.6341 0.3507 0.8909
C22E C 0.6200(6) 0.5799(3) 0.84665(12)
H24E H 0.5931 0.5970 0.8755
H25E H 0.5784 0.5925 0.8212
H26E H 0.7063 0.6334 0.8434
C23E C -0.0954(5) 0.0170(3) 0.72110(11)
H27E H -0.1181 -0.0500 0.6995
H28E H -0.0534 0.0928 0.7038
C24E C -0.2077(5) 0.0058(3) 0.74349(11)
C25E C -0.3354(5) -0.0519(3) 0.81504(12)
H29E H -0.3964 -0.0472 0.7955
C26E C -0.3900(11) -0.1686(7) 0.8403(2)
H30E H -0.4639 -0.2268 0.8250
H31E H -0.4080 -0.1565 0.8717
H32E H -0.3337 -0.1985 0.8407
N1E N -0.2251(3) -0.0281(2) 0.78623(8)
H36E H -0.1603 0.0297 0.8019
O1E O -0.01600(34) 0.01485(19) 0.75640(7)
O2E O 0.07520(34) 0.16051(19) 0.83821(7)
H37E H 0.0492 0.1609 0.8069
O3E O -0.2797(4) 0.0171(2) 0.72088(8)
C27? C 0.4242(8) 0.0729(6) 0.8394(2)
H33? H 0.4699 0.0321 0.8343
H34? H 0.4371 0.1033 0.8707
H35? H 0.4507 0.1396 0.8180
O4? O -0.1970(3) 0.0281(2) 0.88044(8)
O5? O 0.3142(2) 0.0000 0.8333
H38? H 0.2817 0.0065 0.8084
H41? H 0.2616 -0.0261 0.8551
loop_
_geom_bond_atom_site_label_1
_geom_bond_atom_site_label_2
_geom_bond_site_symmetry_1
_geom_bond_site_symmetry_2
C1 C2 1_555 1_555
C2 C3 1_555 1_555
C3 H1 1_555 1_555
C4 C3 1_555 1_555
C5 C4 1_555 1_555
H2 C5 1_555 1_555
C6 C1 1_555 1_555
C7 C2 1_555 1_555
H3 C7 1_555 1_555
H4 C7 1_555 1_555
C8 C7 1_555 1_555
C9 C8 1_555 1_555
C10 C9 1_555 1_555
C11 C10 1_555 1_555
H5 C11 1_555 1_555
C12 C11 1_555 1_555
C13 C8 1_555 1_555
H6 C13 1_555 1_555
C14 C6 1_555 1_555
H7 C14 1_555 1_555
H8 C14 1_555 1_555
C15 C4 1_555 1_555
C16 C15 1_555 1_555
H9 C16 1_555 1_555
H10 C16 1_555 1_555
H11 C16 1_555 1_555
C17 C15 1_555 1_555
H12 C17 1_555 1_555
H13 C17 1_555 1_555
H14 C17 1_555 1_555
C18 C15 1_555 1_555
H15 C18 1_555 1_555
H16 C18 1_555 1_555
H17 C18 1_555 1_555
C19 C12 1_555 1_555
C20 C19 1_555 1_555
H18 C20 1_555 1_555
H19 C20 1_555 1_555
H20 C20 1_555 1_555
C21 C19 1_555 1_555
H21 C21 1_555 1_555
H22 C21 1_555 1_555
H23 C21 1_555 1_555
C22 C19 1_555 1_555
H24 C22 1_555 1_555
H25 C22 1_555 1_555
H26 C22 1_555 1_555
C23 H27 1_555 1_555
H28 C23 1_555 1_555
C24 C23 1_555 1_555
C25 H29 1_555 1_555
C26 C25 1_555 1_555
H30 C26 1_555 1_555
H31 C26 1_555 1_555
H32 C26 1_555 1_555
N1 C24 1_555 1_555
H36 N1 1_555 1_555
O1 C1 1_555 1_555
O2 C9 1_555 1_555
H37 O2 1_555 1_555
O3 C24 1_555 1_555
O6 H39 1_555 1_555
H40 O6 1_555 1_555
C1E C2E 1_555 1_555
C2E C3E 1_555 1_555
C3E H1E 1_555 1_555
C4E C3E 1_555 1_555
C5E C4E 1_555 1_555
H2E C5E 1_555 1_555
C6E C1E 1_555 1_555
C7E C2E 1_555 1_555
H3E C7E 1_555 1_555
H4E C7E 1_555 1_555
C8E C7E 1_555 1_555
C9E C8E 1_555 1_555
C10E C14 1_555 1_555
C11E C10E 1_555 1_555
H5E C11E 1_555 1_555
C12E C11E 1_555 1_555
C13E C8E 1_555 1_555
H6E C13E 1_555 1_555
C14E C10 1_555 1_555
H7E C14E 1_555 1_555
H8E C14E 1_555 1_555
C15E C4E 1_555 1_555
C16E C15E 1_555 1_555
H9E C16E 1_555 1_555
H10E C16E 1_555 1_555
H11E C16E 1_555 1_555
C17E C15E 1_555 1_555
H12E C17E 1_555 1_555
H13E C17E 1_555 1_555
H14E C17E 1_555 1_555
C18E C15E 1_555 1_555
H15E C18E 1_555 1_555
H16E C18E 1_555 1_555
H17E C18E 1_555 1_555
C19E C12E 1_555 1_555
C20E C19E 1_555 1_555
H18E C20E 1_555 1_555
H19E C20E 1_555 1_555
H20E C20E 1_555 1_555
C21E C19E 1_555 1_555
H21E C21E 1_555 1_555
H22E C21E 1_555 1_555
H23E C21E 1_555 1_555
C22E C19E 1_555 1_555
H24E C22E 1_555 1_555
H25E C22E 1_555 1_555
H26E C22E 1_555 1_555
C23E H27E 1_555 1_555
H28E C23E 1_555 1_555
C24E C23E 1_555 1_555
C25E C25 1_555 1_555
H29E C25E 1_555 1_555
C26E C25E 1_555 1_555
H30E C26E 1_555 1_555
H31E C26E 1_555 1_555
H32E C26E 1_555 1_555
N1E C24E 1_555 1_555
H36E N1E 1_555 1_555
O1E C1E 1_555 1_555
O2E C9E 1_555 1_555
H37E O2E 1_555 1_555
O3E C24E 1_555 1_555
C5 C6 1_555 1_555
C12 C13 1_555 1_555
C23 O1 1_555 1_555
C25 N1 1_555 1_555
C5E C6E 1_555 1_555
C6E C14E 1_555 1_555
C9E C10E 1_555 1_555
C12E C13E 1_555 1_555
C23E O1E 1_555 1_555
C25E N1E 1_555 1_555

#END
