
#######################################################################
#
#                 Cambridge Crystallographic Data Centre
#                                CCDC 
#
#######################################################################
#
# If this CIF has been generated from an entry in the Cambridge 
# Structural Database, then it will include bibliographic, chemical, 
# crystal, experimental, refinement or atomic coordinate data resulting 
# from the CCDC's data processing and validation procedures.
#
#######################################################################

data_AVEZIM
_chemical_formula_moiety         'C15 H13 Cl1 N2 O2'
_chemical_name_systematic        
N'-(5-Chloro-2-hydroxybenzylidene)-3-methylbenzohydrazide
_symmetry_cell_setting           monoclinic
_symmetry_space_group_name_H-M   'P 21/n'
_symmetry_Int_Tables_number      14
_space_group_name_Hall           '-P 2yn'
loop_
_symmetry_equiv_pos_site_id
_symmetry_equiv_pos_as_xyz
1 x,y,z
2 1/2-x,1/2+y,1/2-z
3 -x,-y,-z
4 1/2+x,1/2-y,1/2+z
_cell_length_a                   7.129(4)
_cell_length_b                   27.362(16)
_cell_length_c                   7.742(4)
_cell_angle_alpha                90
_cell_angle_beta                 111.263(6)
_cell_angle_gamma                90
_cell_volume                     1407.38
_exptl_crystal_colour            colorless
_exptl_crystal_description       block
_cell_formula_units_Z            4
loop_
_atom_site_label
_atom_site_type_symbol
_atom_site_fract_x
_atom_site_fract_y
_atom_site_fract_z
Cl1 Cl 0.67749(14) 1.01305(3) 0.77183(13)
N1 N 0.7565(3) 0.79078(7) 0.5878(3)
N2 N 0.7293(3) 0.76038(7) 0.4377(3)
O1 O 0.8186(3) 0.80431(6) 0.9360(2)
H1 H 0.8083 0.7884 0.8431
O2 O 0.9076(3) 0.69983(6) 0.6252(2)
C1 C 0.7226(3) 0.86856(8) 0.7066(3)
C2 C 0.7764(4) 0.85189(9) 0.8891(4)
C3 C 0.7873(4) 0.88442(10) 1.0298(4)
H2 H 0.8160 0.8729 1.1497
C4 C 0.7561(4) 0.93339(10) 0.9935(4)
H3 H 0.7669 0.9551 1.0890
C5 C 0.7087(4) 0.95025(9) 0.8155(4)
C6 C 0.6892(4) 0.91844(9) 0.6735(4)
H4 H 0.6531 0.9303 0.5532
C7 C 0.7029(3) 0.83538(9) 0.5550(3)
H5 H 0.6510 0.8466 0.4335
C8 C 0.8070(3) 0.71468(8) 0.4689(3)
C9 C 0.7619(3) 0.68384(8) 0.3008(3)
C10 C 0.7425(3) 0.63372(9) 0.3168(4)
H6 H 0.7590 0.6205 0.4321
C11 C 0.6992(4) 0.60295(9) 0.1658(4)
C12 C 0.6794(4) 0.62387(11) -0.0031(4)
H7 H 0.6513 0.6038 -0.1065
C13 C 0.6999(4) 0.67329(10) -0.0224(4)
H8 H 0.6862 0.6862 -0.1374
C14 C 0.7411(4) 0.70383(10) 0.1297(3)
H9 H 0.7547 0.7373 0.1175
C15 C 0.6743(5) 0.54891(10) 0.1832(5)
H10 H 0.5338 0.5412 0.1458
H11 H 0.7424 0.5392 0.3098
H12 H 0.7309 0.5318 0.1054
H13 H 0.637(3) 0.7706(10) 0.329(2)
loop_
_geom_bond_atom_site_label_1
_geom_bond_atom_site_label_2
_geom_bond_site_symmetry_1
_geom_bond_site_symmetry_2
Cl1 C5 1_555 1_555
N1 N2 1_555 1_555
N2 C8 1_555 1_555
O1 H1 1_555 1_555
O2 C8 1_555 1_555
C1 C2 1_555 1_555
C2 O1 1_555 1_555
C3 C2 1_555 1_555
H2 C3 1_555 1_555
C4 C3 1_555 1_555
H3 C4 1_555 1_555
C5 C4 1_555 1_555
C6 C1 1_555 1_555
H4 C6 1_555 1_555
C7 N1 1_555 1_555
H5 C7 1_555 1_555
C8 C9 1_555 1_555
C9 C10 1_555 1_555
C10 H6 1_555 1_555
C11 C10 1_555 1_555
C12 C11 1_555 1_555
H7 C12 1_555 1_555
C13 C12 1_555 1_555
H8 C13 1_555 1_555
C14 C9 1_555 1_555
H9 C14 1_555 1_555
C15 C11 1_555 1_555
H10 C15 1_555 1_555
H11 C15 1_555 1_555
H12 C15 1_555 1_555
H13 N2 1_555 1_555
C1 C7 1_555 1_555
C5 C6 1_555 1_555
C13 C14 1_555 1_555

#END
