
#######################################################################
#
#                 Cambridge Crystallographic Data Centre
#                                CCDC 
#
#######################################################################
#
# If this CIF has been generated from an entry in the Cambridge 
# Structural Database, then it will include bibliographic, chemical, 
# crystal, experimental, refinement or atomic coordinate data resulting 
# from the CCDC's data processing and validation procedures.
#
#######################################################################

data_AVIBEO
_chemical_formula_moiety         'C54 H30 S9,C60,C1 S2,0.5(C6 H14)'
_chemical_name_systematic        
"2,3,5,6,8,9-hexakis(phenylsulfanyl)bisthieno[2',3',4',5':4,5;2'',3'',4'',5'':8,9]triphenyleno[1,12-bcd]thiophene C60-fullerene carbon disulfide hexane solvate"
_symmetry_cell_setting           monoclinic
_symmetry_space_group_name_H-M   'P 21/n'
_symmetry_Int_Tables_number      14
_space_group_name_Hall           '-P 2yn'
loop_
_symmetry_equiv_pos_site_id
_symmetry_equiv_pos_as_xyz
1 x,y,z
2 1/2-x,1/2+y,1/2-z
3 -x,-y,-z
4 1/2+x,1/2-y,1/2+z
_cell_length_a                   16.5768(3)
_cell_length_b                   16.6930(2)
_cell_length_c                   27.9409(6)
_cell_angle_alpha                90
_cell_angle_beta                 100.178(2)
_cell_angle_gamma                90
_cell_volume                     7610.04
_cell_formula_units_Z            4
loop_
_atom_site_label
_atom_site_type_symbol
_atom_site_fract_x
_atom_site_fract_y
_atom_site_fract_z
S10 S 0.9706(4) 0.3956(4) 0.46545(18)
S11 S 0.8908(3) 0.4521(3) 0.36322(18)
C55 C 0.9299(9) 0.4262(11) 0.4153(6)
C56 C 0.4730(6) 0.3005(6) 0.5936(3)
C57 C 0.5082(6) 0.0778(6) 0.7700(4)
C58 C 0.5756(6) 0.1127(6) 0.8062(3)
C59 C 0.5250(7) 0.4106(5) 0.7254(4)
C60 C 0.5498(6) 0.4091(5) 0.6457(3)
C61 C 0.4804(7) 0.2217(7) 0.5795(4)
C62 C 0.6532(6) 0.0833(6) 0.7959(4)
C63 C 0.4422(6) 0.1264(7) 0.7537(4)
C64 C 0.7134(7) 0.1344(7) 0.8034(4)
C65 C 0.4263(6) 0.3480(6) 0.6670(4)
C66 C 0.6116(6) 0.3241(6) 0.5923(3)
C67 C 0.5368(7) 0.0645(6) 0.6134(4)
C68 C 0.5351(6) 0.3520(6) 0.6008(3)
C69 C 0.6791(6) 0.3576(6) 0.6263(4)
C70 C 0.4545(4) 0.0926(4) 0.6237(3)
C71 C 0.4269(4) 0.1677(4) 0.60663(18)
C72 C 0.3897(4) 0.2182(3) 0.6358(2)
C73 C 0.3799(3) 0.1936(4) 0.6819(2)
C74 C 0.4074(4) 0.1184(4) 0.6989(2)
C75 C 0.4447(4) 0.0679(3) 0.6698(3)
C76 C 0.5689(7) 0.1891(7) 0.8199(3)
C77 C 0.7304(7) 0.3381(7) 0.7794(4)
C78 C 0.7012(7) 0.0784(6) 0.6393(4)
C79 C 0.6703(5) 0.1219(4) 0.6047(3)
C80 C 0.5844(5) 0.1144(4) 0.5885(3)
C81 C 0.5536(4) 0.1907(5) 0.5717(2)
C82 C 0.6203(5) 0.2452(4) 0.5776(2)
C83 C 0.6924(4) 0.2027(5) 0.5979(3)
C84 C 0.5732(4) 0.0220(4) 0.65436(18)
C85 C 0.5205(3) 0.0217(4) 0.6879(2)
C86 C 0.5521(3) 0.0250(3) 0.7374(2)
C87 C 0.6364(4) 0.0287(3) 0.75330(17)
C88 C 0.6890(3) 0.0290(4) 0.7197(2)
C89 C 0.6574(4) 0.0257(4) 0.6702(2)
C90 C 0.6521(8) 0.3750(6) 0.7826(4)
C91 C 0.6006(8) 0.3282(7) 0.8064(4)
C92 C 0.4161(5) 0.2955(6) 0.6260(4)
C93 C 0.6413(6) 0.4098(5) 0.6586(4)
C94 C 0.6168(8) 0.4178(5) 0.7399(4)
C95 C 0.7462(7) 0.3667(7) 0.7278(5)
C96 C 0.6339(8) 0.2469(8) 0.8246(4)
C97 C 0.7777(6) 0.3237(7) 0.6988(5)
C98 C 0.7531(7) 0.2352(8) 0.6312(4)
C99 C 0.7739(4) 0.1381(4) 0.7679(2)
C100 C 0.7610(4) 0.0859(3) 0.7285(3)
C101 C 0.7723(4) 0.1123(4) 0.6829(2)
C102 C 0.7965(4) 0.1908(5) 0.6768(2)
C103 C 0.8094(4) 0.2429(4) 0.7162(3)
C104 C 0.7981(4) 0.2166(4) 0.7617(2)
C105 C 0.3963(4) 0.2444(4) 0.7233(3)
C106 C 0.4209(4) 0.3233(4) 0.7191(2)
C107 C 0.4811(5) 0.3563(3) 0.7546(3)
C108 C 0.5166(4) 0.3104(4) 0.7942(2)
C109 C 0.4920(4) 0.2315(4) 0.7984(2)
C110 C 0.4318(4) 0.1985(3) 0.7629(3)
C111 C 0.4940(7) 0.4036(5) 0.6758(4)
C112 C 0.7098(8) 0.2110(8) 0.8179(4)
C113 C 0.7623(8) 0.2697(8) 0.7899(4)
C114 C 0.7491(6) 0.3120(7) 0.6465(4)
C115 C 0.6742(7) 0.4140(6) 0.7083(5)
S1 S 0.64155(7) 0.26539(6) 0.46283(4)
S2 S 0.89806(7) 0.43763(6) 0.61705(4)
S3 S 0.90987(7) 0.06825(6) 0.59750(4)
S4 S 0.60454(7) 0.47266(7) 0.48581(4)
S5 S 1.01583(7) 0.33778(7) 0.71237(4)
S6 S 0.74713(8) -0.04269(7) 0.53375(5)
S7 S 0.61277(9) 0.04843(8) 0.47002(5)
S8 S 1.03678(8) 0.14934(8) 0.70006(4)
C1 C 0.7108(3) 0.3409(3) 0.49105(16)
C2 C 0.6977(3) 0.4209(3) 0.50446(16)
C3 C 0.7663(3) 0.0587(3) 0.52129(18)
C4 C 0.7134(3) 0.1869(3) 0.48435(16)
C5 C 0.7041(3) 0.1026(3) 0.49052(17)
C6 C 0.8368(3) 0.0973(3) 0.54583(17)
C7 C 0.8476(3) 0.1779(3) 0.53541(16)
C8 C 0.7570(3) 0.4594(3) 0.54056(17)
C9 C 0.8293(3) 0.4189(3) 0.56172(17)
C10 C 0.5558(3) 0.1086(3) 0.42429(19)
C11 C 0.7870(3) 0.2211(3) 0.50513(16)
C12 C 0.5666(3) 0.4335(3) 0.42693(18)
C13 C 0.9815(3) 0.2924(3) 0.65513(17)
C14 C 0.9382(3) 0.3387(3) 0.61716(17)
C15 C 0.9439(3) 0.1689(3) 0.60827(17)
C16 C 0.9068(3) 0.2169(3) 0.57006(16)
C17 C 0.8439(3) 0.3444(3) 0.54373(17)
C18 C 0.7858(3) 0.3059(3) 0.50944(16)
C19 C 0.6139(3) 0.4316(3) 0.39069(19)
H1 H 0.6699 0.4471 0.3976
C20 C 0.8442(3) -0.0875(3) 0.53394(17)
C21 C 1.0945(3) 0.0824(3) 0.66925(18)
C22 C 0.5880(4) 0.1295(3) 0.3830(2)
H2 H 0.6429 0.1154 0.3812
C23 C 1.1604(3) 0.1112(3) 0.6491(2)
H3 H 1.1745 0.1664 0.6515
C24 C 0.9909(4) -0.1681(4) 0.5344(2)
H4 H 1.0416 -0.1949 0.5349
C25 C 0.9678(4) -0.1070(3) 0.5020(2)
H5 H 1.0025 -0.0921 0.4799
C26 C 0.9864(3) 0.2067(3) 0.65056(17)
C27 C 0.9050(3) 0.2999(3) 0.57436(17)
C28 C 1.1112(3) 0.3796(3) 0.7055(2)
C29 C 0.5783(4) 0.4065(3) 0.3437(2)
H6 H 0.6107 0.4031 0.3190
C30 C 1.2241(4) 0.4000(5) 0.6635(3)
H7 H 1.2495 0.3903 0.6361
C31 C 1.0755(3) 0.0020(3) 0.6669(2)
H8 H 1.0315 -0.0173 0.6813
C32 C 0.8944(4) -0.0668(3) 0.50121(19)
H9 H 0.8787 -0.0252 0.4783
C33 C 0.7478(10) 0.6228(11) 0.5256(6)
C34 C 1.2047(4) 0.0585(4) 0.6256(2)
H10 H 1.2491 0.0775 0.6114
C35 C 0.9393(4) -0.1906(4) 0.5665(2)
H11 H 0.9537 -0.2342 0.5881
C36 C 1.1497(4) 0.3647(4) 0.6664(2)
H12 H 1.1247 0.3299 0.6412
C37 C 0.4847(3) 0.4125(3) 0.41672(19)
H13 H 0.4526 0.4131 0.4417
C38 C 1.1494(3) 0.4289(3) 0.7436(2)
H14 H 1.1241 0.4381 0.7711
C39 C 0.4766(4) 0.1285(4) 0.4273(3)
H15 H 0.4540 0.1158 0.4554
C40 C 1.1842(4) -0.0231(4) 0.6227(2)
H16 H 1.2143 -0.0591 0.6063
C41 C 0.4290(4) 0.1691(4) 0.3866(4)
H17 H 0.3733 0.1826 0.3867
C42 C 0.7012(10) 0.6902(9) 0.5222(6)
H18 H 0.6595 0.6946 0.5414
C43 C 1.2239(4) 0.4637(3) 0.7408(3)
H19 H 1.2497 0.4973 0.7665
C44 C 0.8665(4) -0.1490(3) 0.56679(18)
H20 H 0.8323 -0.1628 0.5895
C45 C 0.4496(4) 0.3905(3) 0.3697(2)
H21 H 0.3929 0.3779 0.3624
C46 C 1.2618(4) 0.4500(4) 0.7010(3)
H22 H 1.3129 0.4745 0.6992
C47 C 0.5425(5) 0.1693(4) 0.3457(2)
H23 H 0.5661 0.1836 0.3183
C48 C 0.4957(4) 0.3867(3) 0.3336(2)
H24 H 0.4712 0.3706 0.3018
C49 C 1.1201(4) -0.0509(3) 0.6436(2)
H25 H 1.1066 -0.1062 0.6420
C50 C 0.4661(6) 0.1886(4) 0.3467(3)
H26 H 0.4352 0.2163 0.3199
C51 C 0.8065(12) 0.6123(10) 0.4947(6)
H27 H 0.8371 0.5641 0.4952
C52 C 0.8172(12) 0.6734(10) 0.4646(6)
H28 H 0.8556 0.6662 0.4434
C53 C 0.7785(14) 0.7410(10) 0.4628(6)
H29 H 0.7920 0.7835 0.4430
C54 C 0.7123(11) 0.7510(9) 0.4923(6)
H30 H 0.6795 0.7981 0.4901
S9 S 0.7334(13) 0.5477(10) 0.5700(6)
C116? C 0.7469(12) 0.7476(8) 0.4747(6)
H31? H 0.7152 0.7944 0.4658
C117? C 0.8259(13) 0.7308(10) 0.4572(6)
H32? H 0.8454 0.7658 0.4349
C118? C 0.8667(13) 0.6666(10) 0.4734(7)
H33? H 0.9163 0.6565 0.4618
C119? C 0.8445(12) 0.6119(9) 0.5057(6)
H34? H 0.8796 0.5686 0.5177
C120? C 0.7246(9) 0.6904(8) 0.5046(5)
H35? H 0.6741 0.6965 0.5159
C121? C 0.7739(11) 0.6213(11) 0.5196(8)
S12? S 0.7352(14) 0.5582(11) 0.5614(6)
C122? C 0.7407(17) 0.2472(14) 0.3394(11)
H36? H 0.6958 0.2666 0.3555
H37? H 0.7370 0.1881 0.3376
C123? C 0.8361(9) 0.3523(9) 0.3850(5)
H38? H 0.7902 0.3690 0.4011
H39? H 0.8328 0.3850 0.3551
C124? C 0.9193(10) 0.4608(9) 0.4360(6)
H40? H 0.9671 0.4671 0.4619
H41? H 0.8694 0.4742 0.4487
H42? H 0.9245 0.4966 0.4090
C125? C 0.9142(9) 0.3732(10) 0.4180(5)
H43? H 0.9604 0.3630 0.4007
H44? H 0.9210 0.3371 0.4466
C126? C 0.8230(10) 0.2706(10) 0.3706(7)
H45? H 0.8303 0.2376 0.4005
H46? H 0.8669 0.2551 0.3526
C127? C 0.728(3) 0.282(3) 0.2862(13)
H47? H 0.7430 0.3386 0.2873
H48? H 0.6701 0.2761 0.2710
H49? H 0.7623 0.2523 0.2671
S13? S 0.7240(6) 0.2738(8) 0.2771(4)
C128? C 0.7622(14) 0.2642(12) 0.3310(8)
S14? S 0.7999(3) 0.2540(3) 0.38506(14)
loop_
_geom_bond_atom_site_label_1
_geom_bond_atom_site_label_2
_geom_bond_site_symmetry_1
_geom_bond_site_symmetry_2
S1 C1 1_555 1_555
S2 C9 1_555 1_555
S3 C6 1_555 1_555
S4 C2 1_555 1_555
S5 C13 1_555 1_555
S6 C3 1_555 1_555
S7 C5 1_555 1_555
S8 C21 1_555 1_555
C1 C2 1_555 1_555
C2 C8 1_555 1_555
C3 C5 1_555 1_555
C4 S1 1_555 1_555
C5 C4 1_555 1_555
C6 C3 1_555 1_555
C7 C6 1_555 1_555
C8 C9 1_555 1_555
C9 C17 1_555 1_555
C10 S7 1_555 1_555
C11 C4 1_555 1_555
C12 S4 1_555 1_555
C13 C14 1_555 1_555
C14 S2 1_555 1_555
C15 S3 1_555 1_555
C16 C7 1_555 1_555
C17 C18 1_555 1_555
C18 C1 1_555 1_555
C19 C12 1_555 1_555
H1 C19 1_555 1_555
C20 S6 1_555 1_555
C21 C23 1_555 1_555
C22 C10 1_555 1_555
H2 C22 1_555 1_555
C23 H3 1_555 1_555
C24 H4 1_555 1_555
C25 C24 1_555 1_555
H5 C25 1_555 1_555
C26 S8 1_555 1_555
C27 C14 1_555 1_555
C28 S5 1_555 1_555
C29 C19 1_555 1_555
H6 C29 1_555 1_555
C30 H7 1_555 1_555
C31 C21 1_555 1_555
H8 C31 1_555 1_555
C32 C20 1_555 1_555
H9 C32 1_555 1_555
C33 C42 1_555 1_555
C34 C23 1_555 1_555
H10 C34 1_555 1_555
C35 C24 1_555 1_555
H11 C35 1_555 1_555
C36 C28 1_555 1_555
H12 C36 1_555 1_555
C37 C12 1_555 1_555
H13 C37 1_555 1_555
C38 C28 1_555 1_555
H14 C38 1_555 1_555
C39 C10 1_555 1_555
H15 C39 1_555 1_555
C40 C34 1_555 1_555
H16 C40 1_555 1_555
C41 C39 1_555 1_555
H17 C41 1_555 1_555
C42 H18 1_555 1_555
C43 C38 1_555 1_555
H19 C43 1_555 1_555
C44 C20 1_555 1_555
H20 C44 1_555 1_555
C45 C37 1_555 1_555
H21 C45 1_555 1_555
C46 C30 1_555 1_555
H22 C46 1_555 1_555
C47 C22 1_555 1_555
H23 C47 1_555 1_555
C48 C29 1_555 1_555
H24 C48 1_555 1_555
C49 C31 1_555 1_555
H25 C49 1_555 1_555
C50 C41 1_555 1_555
H26 C50 1_555 1_555
C51 C33 1_555 1_555
H27 C51 1_555 1_555
C52 C51 1_555 1_555
H28 C52 1_555 1_555
C53 C52 1_555 1_555
H29 C53 1_555 1_555
C54 C42 1_555 1_555
H30 C54 1_555 1_555
S9 C8 1_555 1_555
S10 C55 1_555 1_555
S11 C55 1_555 1_555
C56 C61 1_555 1_555
C57 C58 1_555 1_555
C58 C62 1_555 1_555
C59 C94 1_555 1_555
C60 C68 1_555 1_555
C61 C71 1_555 1_555
C62 C64 1_555 1_555
C63 C57 1_555 1_555
C64 C99 1_555 1_555
C65 C92 1_555 1_555
C66 C68 1_555 1_555
C67 C70 1_555 1_555
C68 C56 1_555 1_555
C69 C66 1_555 1_555
C70 C71 1_555 1_555
C71 C72 1_555 1_555
C72 C73 1_555 1_555
C73 C74 1_555 1_555
C74 C63 1_555 1_555
C75 C70 1_555 1_555
C76 C58 1_555 1_555
C77 C90 1_555 1_555
C78 C79 1_555 1_555
C79 C80 1_555 1_555
C80 C67 1_555 1_555
C81 C61 1_555 1_555
C82 C66 1_555 1_555
C83 C79 1_555 1_555
C84 C67 1_555 1_555
C85 C75 1_555 1_555
C86 C57 1_555 1_555
C87 C62 1_555 1_555
C88 C87 1_555 1_555
C89 C78 1_555 1_555
C90 C91 1_555 1_555
C91 C96 1_555 1_555
C92 C56 1_555 1_555
C93 C60 1_555 1_555
C94 C90 1_555 1_555
C95 C77 1_555 1_555
C96 C76 1_555 1_555
C97 C95 1_555 1_555
C98 C83 1_555 1_555
C99 C100 1_555 1_555
C100 C88 1_555 1_555
C101 C78 1_555 1_555
C102 C98 1_555 1_555
C103 C97 1_555 1_555
C104 C99 1_555 1_555
C105 C73 1_555 1_555
C106 C65 1_555 1_555
C107 C59 1_555 1_555
C108 C91 1_555 1_555
C109 C76 1_555 1_555
C110 C63 1_555 1_555
C111 C59 1_555 1_555
C112 C64 1_555 1_555
C113 C77 1_555 1_555
C114 C69 1_555 1_555
C115 C93 1_555 1_555
C7 C11 1_555 1_555
C11 C18 1_555 1_555
C13 C26 1_555 1_555
C15 C16 1_555 1_555
C15 C26 1_555 1_555
C16 C27 1_555 1_555
C17 C27 1_555 1_555
C25 C32 1_555 1_555
C30 C36 1_555 1_555
C33 S9 1_555 1_555
C35 C44 1_555 1_555
C40 C49 1_555 1_555
C43 C46 1_555 1_555
C45 C48 1_555 1_555
C47 C50 1_555 1_555
C53 C54 1_555 1_555
C60 C111 1_555 1_555
C65 C111 1_555 1_555
C69 C93 1_555 1_555
C72 C92 1_555 1_555
C74 C75 1_555 1_555
C80 C81 1_555 1_555
C81 C82 1_555 1_555
C82 C83 1_555 1_555
C84 C85 1_555 1_555
C84 C89 1_555 1_555
C85 C86 1_555 1_555
C86 C87 1_555 1_555
C88 C89 1_555 1_555
C94 C115 1_555 1_555
C95 C115 1_555 1_555
C96 C112 1_555 1_555
C97 C114 1_555 1_555
C98 C114 1_555 1_555
C100 C101 1_555 1_555
C101 C102 1_555 1_555
C102 C103 1_555 1_555
C103 C104 1_555 1_555
C104 C113 1_555 1_555
C105 C106 1_555 1_555
C105 C110 1_555 1_555
C106 C107 1_555 1_555
C107 C108 1_555 1_555
C108 C109 1_555 1_555
C109 C110 1_555 1_555
C112 C113 1_555 1_555

#END
