
#######################################################################
#
#                 Cambridge Crystallographic Data Centre
#                                CCDC 
#
#######################################################################
#
# If this CIF has been generated from an entry in the Cambridge 
# Structural Database, then it will include bibliographic, chemical, 
# crystal, experimental, refinement or atomic coordinate data resulting 
# from the CCDC's data processing and validation procedures.
#
#######################################################################

data_AVILUM
_chemical_name_common            
2,11-bis(Trifluoromethyl)-2,11-dihydroxy-5,8-dimethoxy(3.3.1)paracyclophane
_chemical_formula_moiety         'C29 H28 F6 O4'
_chemical_name_systematic        
5,9-bis(Trifluoromethyl)-5,9-dihydroxy-7^2^,7^5^-dimethoxy-1,3,7(1,4)-tribenzenacyclodecaphane
_symmetry_cell_setting           triclinic
_symmetry_space_group_name_H-M   'P -1'
_symmetry_Int_Tables_number      2
_space_group_name_Hall           '-P 1'
loop_
_symmetry_equiv_pos_site_id
_symmetry_equiv_pos_as_xyz
1 x,y,z
2 -x,-y,-z
_cell_length_a                   10.210(1)
_cell_length_b                   10.790(1)
_cell_length_c                   12.372(1)
_cell_angle_alpha                79.37(1)
_cell_angle_beta                 80.83(1)
_cell_angle_gamma                78.32(1)
_cell_volume                     1301.26
_exptl_crystal_colour            colorless
_exptl_crystal_description       prisms
_cell_formula_units_Z            2
loop_
_atom_site_label
_atom_site_type_symbol
_atom_site_fract_x
_atom_site_fract_y
_atom_site_fract_z
C1 C 0.7193(2) 0.10305(19) 0.86860(19)
H1 H 0.8067 0.0585 0.8402
H2 H 0.6918 0.0553 0.9402
C2 C 0.73439(18) 0.23711(19) 0.88525(17)
C3 C 0.60816(18) 0.31160(19) 0.94951(17)
H3 H 0.5562 0.2496 0.9933
H4 H 0.6391 0.3539 1.0009
C4 C 0.51460(17) 0.41088(18) 0.88127(16)
C5 C 0.38198(18) 0.39950(18) 0.87802(16)
C6 C 0.29887(18) 0.49368(19) 0.81467(17)
H5 H 0.2128 0.4811 0.8094
C7 C 0.34044(18) 0.60549(18) 0.75922(16)
C8 C 0.47080(18) 0.62052(17) 0.76892(16)
C9 C 0.55592(18) 0.52425(18) 0.82688(16)
H6 H 0.6432 0.5354 0.8297
C10 C 0.2566(2) 0.7163(2) 0.6916(2)
H7 H 0.2982 0.7197 0.6152
H8 H 0.2673 0.7941 0.7154
C11 C 0.10420(19) 0.7244(2) 0.69071(18)
C12 C 0.0670(2) 0.6676(2) 0.5973(2)
H9 H -0.0301 0.6738 0.6068
H10 H 0.0917 0.7201 0.5273
C13 C 0.1307(2) 0.5306(2) 0.58908(18)
C14 C 0.2512(3) 0.5020(2) 0.52242(19)
H11 H 0.2932 0.5682 0.4823
C15 C 0.3104(3) 0.3762(2) 0.5145(2)
H12 H 0.3922 0.3588 0.4700
C16 C 0.2491(3) 0.2760(2) 0.5722(2)
C17 C 0.1274(3) 0.3047(2) 0.6358(2)
H13 H 0.0840 0.2387 0.6741
C18 C 0.0683(2) 0.4304(2) 0.6439(2)
H14 H -0.0147 0.4477 0.6869
C19 C 0.3227(3) 0.1385(2) 0.5716(2)
H15 H 0.2598 0.0797 0.5974
H16 H 0.3627 0.1265 0.4968
C20 C 0.4307(3) 0.1119(2) 0.6466(2)
C21 C 0.5596(3) 0.1324(2) 0.6068(2)
H17 H 0.5841 0.1498 0.5306
C22 C 0.6534(2) 0.1279(2) 0.67682(19)
H18 H 0.7398 0.1419 0.6474
C23 C 0.6198(2) 0.10269(18) 0.79127(17)
C24 C 0.4931(2) 0.0749(2) 0.83055(19)
H19 H 0.4701 0.0524 0.9065
C25 C 0.3999(2) 0.0797(2) 0.7601(2)
H20 H 0.3151 0.0610 0.7892
O1 O 0.77960(14) 0.30753(14) 0.78273(13)
H21 H 0.7145 0.3448 0.7512
C26 C 0.8506(2) 0.2182(3) 0.9528(3)
F1 F 0.87917(14) 0.32948(17) 0.96773(17)
F2 F 0.96517(13) 0.15452(17) 0.90554(16)
F3 F 0.82307(17) 0.15315(18) 1.05382(15)
O2 O 0.33913(13) 0.29432(14) 0.94324(12)
C27 C 0.2011(2) 0.2871(3) 0.9535(2)
H22 H 0.1836 0.2126 1.0053
H23 H 0.1779 0.2814 0.8825
H24 H 0.1478 0.3624 0.9795
O3 O 0.50654(13) 0.73599(13) 0.71853(12)
C28 C 0.6296(2) 0.7628(2) 0.7409(2)
H25 H 0.6381 0.8491 0.7082
H26 H 0.7040 0.7044 0.7100
H27 H 0.6299 0.7528 0.8196
O4 O 0.03647(15) 0.67003(17) 0.79179(13)
H28 H 0.0691 0.6839 0.8438
C29 C 0.0405(2) 0.8666(2) 0.6720(2)
F4 F 0.09817(15) 0.93076(13) 0.57952(14)
F5 F 0.05293(17) 0.92662(15) 0.75471(15)
F6 F -0.09073(14) 0.88569(14) 0.66438(15)
loop_
_geom_bond_atom_site_label_1
_geom_bond_atom_site_label_2
_geom_bond_site_symmetry_1
_geom_bond_site_symmetry_2
C1 H1 1_555 1_555
H2 C1 1_555 1_555
C2 C1 1_555 1_555
C3 C2 1_555 1_555
H3 C3 1_555 1_555
H4 C3 1_555 1_555
C4 C3 1_555 1_555
C5 C4 1_555 1_555
C6 C5 1_555 1_555
H5 C6 1_555 1_555
C7 C6 1_555 1_555
C8 C7 1_555 1_555
C9 C4 1_555 1_555
H6 C9 1_555 1_555
C10 C7 1_555 1_555
H7 C10 1_555 1_555
H8 C10 1_555 1_555
C11 C10 1_555 1_555
C12 C11 1_555 1_555
H9 C12 1_555 1_555
H10 C12 1_555 1_555
C13 C12 1_555 1_555
C14 C13 1_555 1_555
H11 C14 1_555 1_555
C15 C14 1_555 1_555
H12 C15 1_555 1_555
C16 C15 1_555 1_555
C17 C16 1_555 1_555
H13 C17 1_555 1_555
C18 C13 1_555 1_555
H14 C18 1_555 1_555
C19 C16 1_555 1_555
H15 C19 1_555 1_555
H16 C19 1_555 1_555
C20 C19 1_555 1_555
C21 C20 1_555 1_555
H17 C21 1_555 1_555
C22 C21 1_555 1_555
H18 C22 1_555 1_555
C23 C1 1_555 1_555
C24 C23 1_555 1_555
H19 C24 1_555 1_555
C25 C20 1_555 1_555
H20 C25 1_555 1_555
O1 C2 1_555 1_555
H21 O1 1_555 1_555
C26 C2 1_555 1_555
F1 C26 1_555 1_555
F2 C26 1_555 1_555
F3 C26 1_555 1_555
O2 C5 1_555 1_555
C27 O2 1_555 1_555
H22 C27 1_555 1_555
H23 C27 1_555 1_555
H24 C27 1_555 1_555
O3 C8 1_555 1_555
C28 O3 1_555 1_555
H25 C28 1_555 1_555
H26 C28 1_555 1_555
H27 C28 1_555 1_555
O4 C11 1_555 1_555
H28 O4 1_555 1_555
C29 C11 1_555 1_555
F4 C29 1_555 1_555
F5 C29 1_555 1_555
F6 C29 1_555 1_555
C8 C9 1_555 1_555
C17 C18 1_555 1_555
C22 C23 1_555 1_555
C24 C25 1_555 1_555

#END
