
#######################################################################
#
#                 Cambridge Crystallographic Data Centre
#                                CCDC 
#
#######################################################################
#
# If this CIF has been generated from an entry in the Cambridge 
# Structural Database, then it will include bibliographic, chemical, 
# crystal, experimental, refinement or atomic coordinate data resulting 
# from the CCDC's data processing and validation procedures.
#
#######################################################################

data_AVILIA
_chemical_name_common            
2,11-bis(Trifluoromethyl)-2,11-dihydroxy-5,6-dimethoxy(3.3.1)paracyclophane
_chemical_formula_moiety         'C29 H28 F6 O4'
_chemical_name_systematic        
5,9-bis(Trifluoromethyl)-5,9-dihydroxy-7^2^,7^3^-dimethoxy-1,3,7(1,4)-tribenzenacyclodecaphane
_symmetry_cell_setting           triclinic
_symmetry_space_group_name_H-M   'P -1'
_symmetry_Int_Tables_number      2
_space_group_name_Hall           '-P 1'
loop_
_symmetry_equiv_pos_site_id
_symmetry_equiv_pos_as_xyz
1 x,y,z
2 -x,-y,-z
_cell_length_a                   9.129(2)
_cell_length_b                   10.363(3)
_cell_length_c                   14.281(4)
_cell_angle_alpha                78.41(2)
_cell_angle_beta                 89.05(2)
_cell_angle_gamma                88.59(2)
_cell_volume                     1323
_exptl_crystal_colour            colorless
_exptl_crystal_description       prisms
_cell_formula_units_Z            2
loop_
_atom_site_label
_atom_site_type_symbol
_atom_site_fract_x
_atom_site_fract_y
_atom_site_fract_z
C1 C 0.6382(3) 0.8912(3) 0.42969(19)
H1 H 0.5942 0.8877 0.4924
H2 H 0.7061 0.9634 0.4174
C2 C 0.7198(3) 0.7625(2) 0.42721(17)
C3 C 0.6601(3) 0.6433(3) 0.4703(2)
H3 H 0.5735 0.6426 0.5056
C4 C 0.7274(3) 0.5256(3) 0.4615(2)
H4 H 0.6859 0.4469 0.4918
C5 C 0.8539(3) 0.5223(2) 0.40916(17)
C6 C 0.9154(3) 0.6412(3) 0.36832(18)
H5 H 1.0030 0.6420 0.3340
C7 C 0.8484(3) 0.7593(2) 0.37788(18)
H6 H 0.8922 0.8381 0.3500
C8 C 0.9266(3) 0.3942(3) 0.3979(2)
H7 H 0.9354 0.3381 0.4608
H8 H 1.0251 0.4126 0.3730
C9 C 0.8497(2) 0.3176(2) 0.33315(18)
C10 C 0.8236(2) 0.3948(2) 0.23016(16)
H9 H 0.9109 0.4452 0.2103
H10 H 0.8177 0.3304 0.1897
C11 C 0.6936(2) 0.4885(2) 0.20678(14)
C12 C 0.7154(3) 0.6228(2) 0.17585(15)
H11 H 0.8078 0.6559 0.1819
C13 C 0.6047(2) 0.7084(2) 0.13653(16)
H12 H 0.6231 0.7979 0.1190
C14 C 0.4674(2) 0.6641(2) 0.12261(15)
C15 C 0.4425(2) 0.5302(2) 0.15431(14)
C16 C 0.5523(2) 0.44524(19) 0.19873(14)
C17 C 0.3568(3) 0.7521(2) 0.05922(16)
H13 H 0.3373 0.7103 0.0059
H14 H 0.4050 0.8341 0.0330
C18 C 0.2068(3) 0.7882(2) 0.10021(17)
C19 C 0.2053(3) 0.9205(2) 0.13303(19)
H15 H 0.2265 0.9899 0.0784
H16 H 0.1076 0.9375 0.1561
C20 C 0.3132(3) 0.9260(2) 0.21037(18)
C21 C 0.2794(3) 0.8729(3) 0.30479(19)
H17 H 0.1864 0.8401 0.3208
C22 C 0.3818(3) 0.8677(3) 0.37577(19)
H18 H 0.3562 0.8326 0.4389
C23 C 0.5206(3) 0.9137(2) 0.35464(17)
C24 C 0.5520(3) 0.9731(2) 0.26140(19)
H19 H 0.6436 1.0093 0.2459
C25 C 0.4489(3) 0.9795(2) 0.19050(18)
H20 H 0.4721 1.0209 0.1282
O1 O 0.72000(18) 0.26698(18) 0.37867(12)
H21 H 0.6643 0.2491 0.3389
C26 C 0.9487(3) 0.1986(3) 0.3245(2)
F1 F 1.07238(18) 0.23336(18) 0.27818(17)
F2 F 0.9837(2) 0.12636(18) 0.40968(16)
F3 F 0.88512(18) 0.11636(15) 0.27755(13)
O2 O 0.30626(15) 0.48276(15) 0.13969(11)
C27 C 0.3016(3) 0.4079(3) 0.06521(19)
H22 H 0.2033 0.3800 0.0593
H23 H 0.3657 0.3320 0.0808
H24 H 0.3327 0.4617 0.0058
O3 O 0.52760(15) 0.31121(14) 0.22784(11)
C28 C 0.4013(3) 0.2746(3) 0.2872(2)
H25 H 0.4223 0.1944 0.3320
H26 H 0.3205 0.2617 0.2480
H27 H 0.3763 0.3433 0.3212
O4 O 0.15437(19) 0.69282(17) 0.17677(12)
H28 H 0.1857 0.6198 0.1714
C29 C 0.0956(3) 0.7981(3) 0.0204(2)
F4 F 0.1368(2) 0.88252(19) -0.05902(12)
F5 F 0.07810(19) 0.68170(18) -0.00564(13)
F6 F -0.03705(18) 0.83779(18) 0.04408(14)
loop_
_geom_bond_atom_site_label_1
_geom_bond_atom_site_label_2
_geom_bond_site_symmetry_1
_geom_bond_site_symmetry_2
C1 H1 1_555 1_555
H2 C1 1_555 1_555
C2 C1 1_555 1_555
C3 C2 1_555 1_555
H3 C3 1_555 1_555
C4 C3 1_555 1_555
H4 C4 1_555 1_555
C5 C4 1_555 1_555
C6 C5 1_555 1_555
H5 C6 1_555 1_555
C7 C2 1_555 1_555
H6 C7 1_555 1_555
C8 C5 1_555 1_555
H7 C8 1_555 1_555
H8 C8 1_555 1_555
C9 C8 1_555 1_555
C10 C9 1_555 1_555
H9 C10 1_555 1_555
H10 C10 1_555 1_555
C11 C10 1_555 1_555
C12 C11 1_555 1_555
H11 C12 1_555 1_555
C13 C12 1_555 1_555
H12 C13 1_555 1_555
C14 C13 1_555 1_555
C15 C14 1_555 1_555
C16 C11 1_555 1_555
C17 C14 1_555 1_555
H13 C17 1_555 1_555
H14 C17 1_555 1_555
C18 C17 1_555 1_555
C19 C18 1_555 1_555
H15 C19 1_555 1_555
H16 C19 1_555 1_555
C20 C19 1_555 1_555
C21 C20 1_555 1_555
H17 C21 1_555 1_555
C22 C21 1_555 1_555
H18 C22 1_555 1_555
C23 C1 1_555 1_555
C24 C23 1_555 1_555
H19 C24 1_555 1_555
C25 C20 1_555 1_555
H20 C25 1_555 1_555
O1 C9 1_555 1_555
H21 O1 1_555 1_555
C26 C9 1_555 1_555
F1 C26 1_555 1_555
F2 C26 1_555 1_555
F3 C26 1_555 1_555
O2 C15 1_555 1_555
C27 O2 1_555 1_555
H22 C27 1_555 1_555
H23 C27 1_555 1_555
H24 C27 1_555 1_555
O3 C16 1_555 1_555
C28 O3 1_555 1_555
H25 C28 1_555 1_555
H26 C28 1_555 1_555
H27 C28 1_555 1_555
O4 C18 1_555 1_555
H28 O4 1_555 1_555
C29 C18 1_555 1_555
F4 C29 1_555 1_555
F5 C29 1_555 1_555
F6 C29 1_555 1_555
C6 C7 1_555 1_555
C15 C16 1_555 1_555
C22 C23 1_555 1_555
C24 C25 1_555 1_555

#END
