
#######################################################################
#
#                 Cambridge Crystallographic Data Centre
#                                CCDC 
#
#######################################################################
#
# If this CIF has been generated from an entry in the Cambridge 
# Structural Database, then it will include bibliographic, chemical, 
# crystal, experimental, refinement or atomic coordinate data resulting 
# from the CCDC's data processing and validation procedures.
#
#######################################################################

data_AVIMEX
_chemical_name_common            (3.2.1)Paracyclophan-2-one
_chemical_formula_moiety         'C24 H22 O1'
_chemical_name_systematic        1,3,6(1,4)-Tribenzenacyclononaphan-8-one
_symmetry_cell_setting           orthorhombic
_symmetry_space_group_name_H-M   'P n a 21'
_symmetry_Int_Tables_number      33
_space_group_name_Hall           'P 2c -2n'
loop_
_symmetry_equiv_pos_site_id
_symmetry_equiv_pos_as_xyz
1 x,y,z
2 -x,-y,1/2+z
3 1/2+x,1/2-y,z
4 1/2-x,1/2+y,1/2+z
_cell_length_a                   10.385(2)
_cell_length_b                   17.936(4)
_cell_length_c                   9.610(2)
_cell_angle_alpha                90
_cell_angle_beta                 90
_cell_angle_gamma                90
_cell_volume                     1790.01
_exptl_crystal_colour            colorless
_exptl_crystal_description       prisms
_cell_formula_units_Z            4
loop_
_atom_site_label
_atom_site_type_symbol
_atom_site_fract_x
_atom_site_fract_y
_atom_site_fract_z
C1 C 0.1802(4) 0.37046(17) 0.6355(3)
H1 H 0.1481 0.3546 0.7256
H2 H 0.2730 0.3643 0.6365
C2 C 0.1248(3) 0.31892(16) 0.5254(3)
O1 O 0.0117(2) 0.30865(14) 0.5152(3)
C3 C 0.2172(3) 0.28226(15) 0.4260(3)
H3 H 0.1720 0.2449 0.3718
H4 H 0.2848 0.2575 0.4781
C4 C 0.2763(3) 0.33922(14) 0.3293(3)
C5 C 0.2009(3) 0.37599(17) 0.2334(3)
H5 H 0.1151 0.3622 0.2228
C6 C 0.2502(3) 0.43279(17) 0.1528(3)
H6 H 0.1965 0.4575 0.0906
C7 C 0.3780(3) 0.45375(16) 0.1627(3)
C8 C 0.4550(3) 0.41378(18) 0.2538(3)
H7 H 0.5423 0.4249 0.2586
C9 C 0.4061(3) 0.35786(15) 0.3380(3)
H8 H 0.4598 0.3329 0.3999
C10 C 0.4256(4) 0.52430(17) 0.0940(3)
H9 H 0.5184 0.5225 0.0831
H10 H 0.3870 0.5298 0.0027
C11 C 0.3883(3) 0.58867(16) 0.1855(3)
C12 C 0.2753(3) 0.62784(16) 0.1649(3)
H11 H 0.2301 0.6212 0.0823
C13 C 0.2282(3) 0.67616(18) 0.2628(3)
H12 H 0.1527 0.7023 0.2447
C14 C 0.2911(3) 0.68673(15) 0.3885(3)
C15 C 0.4075(3) 0.65115(16) 0.4072(3)
H13 H 0.4543 0.6596 0.4882
C16 C 0.4558(3) 0.60304(17) 0.3075(3)
H14 H 0.5348 0.5799 0.3224
C17 C 0.2298(3) 0.72812(16) 0.5079(4)
H15 H 0.2106 0.7786 0.4786
H16 H 0.2908 0.7309 0.5842
C18 C 0.1055(3) 0.69103(16) 0.5598(4)
H17 H 0.0796 0.7146 0.6462
H18 H 0.0379 0.6997 0.4921
C19 C 0.1179(3) 0.60808(16) 0.5839(3)
C20 C 0.0753(3) 0.55745(16) 0.4863(3)
H19 H 0.0351 0.5752 0.4064
C21 C 0.0900(3) 0.48171(16) 0.5023(3)
H20 H 0.0586 0.4497 0.4341
C22 C 0.1507(3) 0.45223(16) 0.6182(3)
C23 C 0.1893(3) 0.50217(18) 0.7184(3)
H21 H 0.2269 0.4842 0.7996
C24 C 0.1739(3) 0.57849(19) 0.7020(4)
H22 H 0.2019 0.6104 0.7720
loop_
_geom_bond_atom_site_label_1
_geom_bond_atom_site_label_2
_geom_bond_site_symmetry_1
_geom_bond_site_symmetry_2
C1 H1 1_555 1_555
H2 C1 1_555 1_555
C2 C1 1_555 1_555
O1 C2 1_555 1_555
C3 C2 1_555 1_555
H3 C3 1_555 1_555
H4 C3 1_555 1_555
C4 C3 1_555 1_555
C5 C4 1_555 1_555
H5 C5 1_555 1_555
C6 C5 1_555 1_555
H6 C6 1_555 1_555
C7 C6 1_555 1_555
C8 C7 1_555 1_555
H7 C8 1_555 1_555
C9 C4 1_555 1_555
H8 C9 1_555 1_555
C10 C7 1_555 1_555
H9 C10 1_555 1_555
H10 C10 1_555 1_555
C11 C10 1_555 1_555
C12 C11 1_555 1_555
H11 C12 1_555 1_555
C13 C12 1_555 1_555
H12 C13 1_555 1_555
C14 C13 1_555 1_555
C15 C14 1_555 1_555
H13 C15 1_555 1_555
C16 C11 1_555 1_555
H14 C16 1_555 1_555
C17 C14 1_555 1_555
H15 C17 1_555 1_555
H16 C17 1_555 1_555
C18 C17 1_555 1_555
H17 C18 1_555 1_555
H18 C18 1_555 1_555
C19 C18 1_555 1_555
C20 C19 1_555 1_555
H19 C20 1_555 1_555
C21 C20 1_555 1_555
H20 C21 1_555 1_555
C22 C1 1_555 1_555
C23 C22 1_555 1_555
H21 C23 1_555 1_555
C24 C19 1_555 1_555
H22 C24 1_555 1_555
C8 C9 1_555 1_555
C15 C16 1_555 1_555
C21 C22 1_555 1_555
C23 C24 1_555 1_555

#END
