
#######################################################################
#
#                 Cambridge Crystallographic Data Centre
#                                CCDC 
#
#######################################################################
#
# If this CIF has been generated from an entry in the Cambridge 
# Structural Database, then it will include bibliographic, chemical, 
# crystal, experimental, refinement or atomic coordinate data resulting 
# from the CCDC's data processing and validation procedures.
#
#######################################################################

data_AVOBOD
_chemical_formula_moiety         'C29 H31 N1 O2'
_chemical_name_systematic        
'Benzyl 3,8-diphenyl-7-azabicyclo[4.3.1]decane-7-carboxylate'
_symmetry_cell_setting           monoclinic
_symmetry_space_group_name_H-M   'P 21/c'
_symmetry_Int_Tables_number      14
_space_group_name_Hall           '-P 2ybc'
loop_
_symmetry_equiv_pos_site_id
_symmetry_equiv_pos_as_xyz
1 x,y,z
2 -x,1/2+y,1/2-z
3 -x,-y,-z
4 x,1/2-y,1/2+z
_cell_length_a                   24.988(2)
_cell_length_b                   7.0092(6)
_cell_length_c                   13.0681(11)
_cell_angle_alpha                90
_cell_angle_beta                 102.997(4)
_cell_angle_gamma                90
_cell_volume                     2230.19
_exptl_crystal_colour            colorless
_exptl_crystal_description       plate
_cell_formula_units_Z            4
loop_
_atom_site_label
_atom_site_type_symbol
_atom_site_fract_x
_atom_site_fract_y
_atom_site_fract_z
C1 C 0.09056(19) 1.0578(7) -0.3109(4)
H1 H 0.1142 0.9502 -0.3041
C2 C 0.0590(2) 1.1055(8) -0.4092(4)
H2 H 0.0605 1.0291 -0.4685
C3 C 0.02506(19) 1.2652(9) -0.4209(4)
H3 H 0.0037 1.2986 -0.4882
C4 C 0.0225(2) 1.3747(9) -0.3347(4)
H4 H -0.0004 1.4844 -0.3425
C5 C 0.0536(2) 1.3243(8) -0.2358(4)
H5 H 0.0512 1.3996 -0.1766
C6 C 0.08821(18) 1.1647(7) -0.2223(4)
C7 C 0.12118(18) 1.1155(7) -0.1130(4)
H6 H 0.0971 1.1451 -0.0634
C8 C 0.13544(18) 0.9029(7) -0.0993(4)
H7 H 0.1059 0.8279 -0.1449
H8 H 0.1698 0.8790 -0.1230
C9 C 0.14283(18) 0.8330(6) 0.0140(4)
H9 H 0.1082 0.8600 0.0360
H10 H 0.1468 0.6925 0.0130
C10 C 0.18983(16) 0.9098(6) 0.0997(3)
H11 H 0.1813 0.8714 0.1680
C11 C 0.19583(18) 1.1255(6) 0.1038(3)
H12 H 0.2218 1.1609 0.1701
H13 H 0.1598 1.1826 0.1052
C12 C 0.21627(17) 1.2122(6) 0.0117(3)
H14 H 0.2348 1.3354 0.0367
C13 C 0.17060(18) 1.2573(6) -0.0863(4)
H15 H 0.1876 1.2637 -0.1477
H16 H 0.1559 1.3857 -0.0770
C14 C 0.25975(17) 1.0817(6) -0.0190(3)
H17 H 0.2425 1.0170 -0.0856
H18 H 0.2895 1.1637 -0.0333
C15 C 0.28616(17) 0.9279(6) 0.0606(3)
H19 H 0.3110 0.9910 0.1220
C16 C 0.32054(17) 0.8067(6) 0.0030(3)
C17 C 0.37603(18) 0.8470(7) 0.0152(4)
H20 H 0.3935 0.9357 0.0670
C18 C 0.40605(19) 0.7569(8) -0.0489(4)
H21 H 0.4437 0.7873 -0.0419
C19 C 0.3814(2) 0.6236(7) -0.1224(4)
H22 H 0.4019 0.5635 -0.1664
C20 C 0.3265(2) 0.5783(7) -0.1316(4)
H23 H 0.3098 0.4835 -0.1804
C21 C 0.29543(19) 0.6700(6) -0.0700(3)
H24 H 0.2577 0.6399 -0.0775
C22 C 0.25698(17) 0.6663(6) 0.1621(3)
C23 C 0.32664(18) 0.4535(6) 0.2411(3)
H25 H 0.3000 0.3481 0.2205
H26 H 0.3274 0.4886 0.3148
C24 C 0.38300(17) 0.3902(6) 0.2315(3)
C25 C 0.42013(18) 0.3258(6) 0.3198(3)
H27 H 0.4107 0.3302 0.3863
C26 C 0.47120(19) 0.2544(7) 0.3124(4)
H28 H 0.4961 0.2077 0.3732
C27 C 0.48549(19) 0.2519(7) 0.2159(4)
H29 H 0.5203 0.2041 0.2104
C28 C 0.44893(19) 0.3194(7) 0.1273(4)
H30 H 0.4589 0.3188 0.0613
C29 C 0.39800(18) 0.3874(7) 0.1345(3)
H31 H 0.3730 0.4324 0.0734
N1 N 0.24372(14) 0.8195(5) 0.0977(3)
O1 O 0.31019(12) 0.6157(4) 0.1735(2)
O2 O 0.22513(13) 0.5816(5) 0.2049(3)
loop_
_geom_bond_atom_site_label_1
_geom_bond_atom_site_label_2
_geom_bond_site_symmetry_1
_geom_bond_site_symmetry_2
C1 H1 1_555 1_555
C2 C1 1_555 1_555
H2 C2 1_555 1_555
C3 C2 1_555 1_555
H3 C3 1_555 1_555
C4 C3 1_555 1_555
H4 C4 1_555 1_555
C5 C4 1_555 1_555
H5 C5 1_555 1_555
C6 C1 1_555 1_555
C7 C6 1_555 1_555
H6 C7 1_555 1_555
C8 C7 1_555 1_555
H7 C8 1_555 1_555
H8 C8 1_555 1_555
C9 C8 1_555 1_555
H9 C9 1_555 1_555
H10 C9 1_555 1_555
C10 C9 1_555 1_555
H11 C10 1_555 1_555
C11 C10 1_555 1_555
H12 C11 1_555 1_555
H13 C11 1_555 1_555
C12 C11 1_555 1_555
H14 C12 1_555 1_555
C13 C7 1_555 1_555
H15 C13 1_555 1_555
H16 C13 1_555 1_555
C14 C12 1_555 1_555
H17 C14 1_555 1_555
H18 C14 1_555 1_555
C15 C14 1_555 1_555
H19 C15 1_555 1_555
C16 C15 1_555 1_555
C17 C16 1_555 1_555
H20 C17 1_555 1_555
C18 C17 1_555 1_555
H21 C18 1_555 1_555
C19 C18 1_555 1_555
H22 C19 1_555 1_555
C20 C19 1_555 1_555
H23 C20 1_555 1_555
C21 C16 1_555 1_555
H24 C21 1_555 1_555
C22 N1 1_555 1_555
C23 H25 1_555 1_555
H26 C23 1_555 1_555
C24 C23 1_555 1_555
C25 C24 1_555 1_555
H27 C25 1_555 1_555
C26 C25 1_555 1_555
H28 C26 1_555 1_555
C27 C26 1_555 1_555
H29 C27 1_555 1_555
C28 C27 1_555 1_555
H30 C28 1_555 1_555
C29 C24 1_555 1_555
H31 C29 1_555 1_555
N1 C10 1_555 1_555
O1 C22 1_555 1_555
O2 C22 1_555 1_555
C5 C6 1_555 1_555
C12 C13 1_555 1_555
C15 N1 1_555 1_555
C20 C21 1_555 1_555
C23 O1 1_555 1_555
C28 C29 1_555 1_555

#END
