
#######################################################################
#
#                 Cambridge Crystallographic Data Centre
#                                CCDC 
#
#######################################################################
#
# If this CIF has been generated from an entry in the Cambridge 
# Structural Database, then it will include bibliographic, chemical, 
# crystal, experimental, refinement or atomic coordinate data resulting 
# from the CCDC's data processing and validation procedures.
#
#######################################################################

data_AVOBIX
_chemical_formula_moiety         'C23 H27 N1 O2'
_chemical_name_systematic        
'Benzyl 8-phenyl-7-azabicyclo[4.3.1]decane-7-carboxylate'
_symmetry_cell_setting           orthorhombic
_symmetry_space_group_name_H-M   'P b c a'
_symmetry_Int_Tables_number      61
_space_group_name_Hall           '-P 2ac 2ab'
loop_
_symmetry_equiv_pos_site_id
_symmetry_equiv_pos_as_xyz
1 x,y,z
2 1/2-x,-y,1/2+z
3 -x,1/2+y,1/2-z
4 1/2+x,1/2-y,-z
5 -x,-y,-z
6 1/2+x,y,1/2-z
7 x,1/2-y,1/2+z
8 1/2-x,1/2+y,z
_cell_length_a                   20.8569(4)
_cell_length_b                   7.8070(2)
_cell_length_c                   22.9581(7)
_cell_angle_alpha                90
_cell_angle_beta                 90
_cell_angle_gamma                90
_cell_volume                     3738.26
_exptl_crystal_colour            colorless
_exptl_crystal_description       plate
_cell_formula_units_Z            8
loop_
_atom_site_label
_atom_site_type_symbol
_atom_site_fract_x
_atom_site_fract_y
_atom_site_fract_z
C1 C 0.15477(10) 0.0018(3) 0.08302(9)
H1 H 0.1795 -0.1009 0.0699
C2 C 0.08863(11) -0.0072(3) 0.05338(10)
H2 H 0.0808 -0.1273 0.0415
H3 H 0.0556 0.0232 0.0826
C3 C 0.07908(12) 0.1080(3) -0.00027(11)
H4 H 0.0435 0.0616 -0.0240
H5 H 0.1184 0.1048 -0.0243
C4 C 0.06403(12) 0.2954(3) 0.01544(12)
H6 H 0.0456 0.3520 -0.0193
H7 H 0.0307 0.2960 0.0461
C5 C 0.12078(12) 0.4024(3) 0.03670(11)
H8 H 0.1041 0.5140 0.0505
H9 H 0.1490 0.4257 0.0029
C6 C 0.16188(11) 0.3253(3) 0.08534(10)
H10 H 0.1964 0.4099 0.0945
C7 C 0.19463(10) 0.1586(3) 0.06773(10)
H11 H 0.2026 0.1599 0.0252
H12 H 0.2367 0.1507 0.0876
C8 C 0.12306(11) 0.2969(3) 0.14150(10)
H13 H 0.1227 0.4051 0.1640
H14 H 0.0782 0.2702 0.1307
C9 C 0.14833(10) 0.1532(3) 0.18099(10)
H15 H 0.1929 0.1821 0.1937
C10 C 0.10510(10) 0.1460(3) 0.23409(9)
C11 C 0.12182(12) 0.2347(3) 0.28368(10)
H16 H 0.1623 0.2904 0.2854
C12 C 0.08089(14) 0.2444(3) 0.33114(11)
H17 H 0.0930 0.3074 0.3648
C13 C 0.02149(13) 0.1606(3) 0.32921(11)
H18 H -0.0070 0.1656 0.3614
C14 C 0.00528(11) 0.0711(3) 0.27984(11)
H19 H -0.0346 0.0127 0.2782
C15 C 0.04622(10) 0.0648(3) 0.23234(10)
H20 H 0.0337 0.0042 0.1983
C16 C 0.16193(10) -0.1636(3) 0.17128(10)
C17 C 0.17650(11) -0.3243(3) 0.25649(10)
H21 H 0.2149 -0.3886 0.2438
H22 H 0.1380 -0.3907 0.2453
C18 C 0.17797(10) -0.2997(3) 0.32127(9)
C19 C 0.13030(11) -0.2055(3) 0.34868(10)
H23 H 0.0972 -0.1545 0.3262
C20 C 0.13061(12) -0.1851(3) 0.40858(10)
H24 H 0.0979 -0.1199 0.4270
C21 C 0.17847(12) -0.2596(3) 0.44164(11)
H25 H 0.1791 -0.2443 0.4827
C22 C 0.22531(12) -0.3562(3) 0.41485(11)
H26 H 0.2577 -0.4094 0.4376
C23 C 0.22524(11) -0.3759(3) 0.35486(11)
H27 H 0.2578 -0.4421 0.3367
N1 N 0.14970(9) -0.0083(2) 0.14743(8)
O1 O 0.17518(7) -0.15677(18) 0.22860(7)
O2 O 0.16111(8) -0.29832(19) 0.14397(7)
loop_
_geom_bond_atom_site_label_1
_geom_bond_atom_site_label_2
_geom_bond_site_symmetry_1
_geom_bond_site_symmetry_2
C1 H1 1_555 1_555
C2 C1 1_555 1_555
H2 C2 1_555 1_555
H3 C2 1_555 1_555
C3 C2 1_555 1_555
H4 C3 1_555 1_555
H5 C3 1_555 1_555
C4 C3 1_555 1_555
H6 C4 1_555 1_555
H7 C4 1_555 1_555
C5 C4 1_555 1_555
H8 C5 1_555 1_555
H9 C5 1_555 1_555
C6 C5 1_555 1_555
H10 C6 1_555 1_555
C7 C1 1_555 1_555
H11 C7 1_555 1_555
H12 C7 1_555 1_555
C8 C6 1_555 1_555
H13 C8 1_555 1_555
H14 C8 1_555 1_555
C9 C8 1_555 1_555
H15 C9 1_555 1_555
C10 C9 1_555 1_555
C11 C10 1_555 1_555
H16 C11 1_555 1_555
C12 C11 1_555 1_555
H17 C12 1_555 1_555
C13 C12 1_555 1_555
H18 C13 1_555 1_555
C14 C13 1_555 1_555
H19 C14 1_555 1_555
C15 C10 1_555 1_555
H20 C15 1_555 1_555
C16 N1 1_555 1_555
C17 H21 1_555 1_555
H22 C17 1_555 1_555
C18 C17 1_555 1_555
C19 C18 1_555 1_555
H23 C19 1_555 1_555
C20 C19 1_555 1_555
H24 C20 1_555 1_555
C21 C20 1_555 1_555
H25 C21 1_555 1_555
C22 C21 1_555 1_555
H26 C22 1_555 1_555
C23 C18 1_555 1_555
H27 C23 1_555 1_555
N1 C1 1_555 1_555
O1 C16 1_555 1_555
O2 C16 1_555 1_555
C6 C7 1_555 1_555
C9 N1 1_555 1_555
C14 C15 1_555 1_555
C17 O1 1_555 1_555
C22 C23 1_555 1_555

#END
