
#######################################################################
#
#                 Cambridge Crystallographic Data Centre
#                                CCDC 
#
#######################################################################
#
# If this CIF has been generated from an entry in the Cambridge 
# Structural Database, then it will include bibliographic, chemical, 
# crystal, experimental, refinement or atomic coordinate data resulting 
# from the CCDC's data processing and validation procedures.
#
#######################################################################

data_AVOQAE
_chemical_formula_moiety         'C60 H90 Li2 O6,2(C7 H8)'
_chemical_name_systematic        
"bis(\m~2~-2,2'-(Oxybis(methylene))bis(4,6-di-t-butylphenol))-di-lithium toluene solvate"
_symmetry_cell_setting           triclinic
_symmetry_space_group_name_H-M   'P -1'
_symmetry_Int_Tables_number      2
_space_group_name_Hall           '-P 1'
loop_
_symmetry_equiv_pos_site_id
_symmetry_equiv_pos_as_xyz
1 x,y,z
2 -x,-y,-z
_cell_length_a                   8.7915(3)
_cell_length_b                   13.0573(3)
_cell_length_c                   15.5157(4)
_cell_angle_alpha                94.706(2)
_cell_angle_beta                 101.887(2)
_cell_angle_gamma                94.788(2)
_cell_volume                     1727.8
_exptl_crystal_colour            white
_exptl_crystal_description       block
_cell_formula_units_Z            1
loop_
_atom_site_label
_atom_site_type_symbol
_atom_site_fract_x
_atom_site_fract_y
_atom_site_fract_z
C31 C 1.1171(18) 0.5041(6) 1.0143(6)
C32 C 1.007(2) 0.4360(11) 1.0490(9)
C33 C 1.153(3) 0.5460(16) 0.9668(9)
C34 C 1.2208(18) 0.4729(18) 1.0263(14)
C31A C 0.8829(18) 0.4959(6) 0.9857(6)
C32A C 0.993(2) 0.5640(11) 0.9510(9)
C33A C 0.847(3) 0.4540(16) 1.0332(9)
C34A C 0.7792(18) 0.5271(18) 0.9737(14)
C38 C 0.330(4) -0.0728(7) 0.5977(15)
C39 C 0.276(3) -0.0483(14) 0.4972(12)
H54 H 0.3685 -0.0555 0.4777
C42 C 0.0334(17) -0.0228(9) 0.5512(9)
H57 H -0.0633 -0.0158 0.5695
C43 C 0.1579(13) -0.0446(7) 0.6075(7)
H58 H 0.1438 -0.0436 0.6654
C44 C 0.4960(16) -0.0508(11) 0.5897(14)
H59 H 0.5646 -0.0590 0.6448
H60 H 0.5130 0.0187 0.5752
H61 H 0.5168 -0.0980 0.5438
C38A C -0.330(4) 0.0728(7) 0.4023(15)
C39A C -0.276(3) 0.0483(14) 0.5028(12)
H54A H -0.3685 0.0555 0.5223
C42A C -0.0334(17) 0.0228(9) 0.4488(9)
H57A H 0.0633 0.0158 0.4305
C43A C -0.1579(13) 0.0446(7) 0.3925(7)
H58A H -0.1438 0.0436 0.3346
C44A C -0.4960(16) 0.0508(11) 0.4103(14)
H59A H -0.5646 0.0590 0.3552
H60A H -0.5130 -0.0187 0.4248
H61A H -0.5168 0.0980 0.4562
Li1 Li 0.4803(5) 0.4242(3) 0.5389(3)
O1 O 0.6168(2) 0.30698(14) 0.55828(13)
H1 H 0.566(10) 0.331(7) 0.534(5)
O2 O 0.28885(19) 0.33297(12) 0.53850(9)
O3 O 0.5551(2) 0.55657(12) 0.58095(10)
C1 C 0.5924(3) 0.26914(16) 0.63655(15)
C2 C 0.7132(3) 0.27610(18) 0.71173(17)
C3 C 0.6727(3) 0.23988(19) 0.78649(16)
H2 H 0.7512 0.2421 0.8372
C4 C 0.5222(3) 0.20028(19) 0.79079(16)
C5 C 0.4067(3) 0.19618(17) 0.71409(15)
H3 H 0.3051 0.1703 0.7147
C6 C 0.4394(3) 0.22988(16) 0.63643(14)
C7 C 0.3143(3) 0.22829(17) 0.55472(15)
H4 H 0.3458 0.1933 0.5047
H5 H 0.2185 0.1914 0.5625
C8 C 0.1788(3) 0.34041(18) 0.45589(14)
H6 H 0.1529 0.4111 0.4541
H7 H 0.0834 0.2968 0.4548
C9 C 0.2387(3) 0.30941(16) 0.37485(14)
C10 C 0.6231(3) 0.63499(16) 0.63869(14)
C11 C 0.5641(3) 0.66728(17) 0.71431(14)
C12 C 0.6530(3) 0.74575(17) 0.77522(15)
H8 H 0.6165 0.7649 0.8258
C13 C 0.7936(3) 0.79738(17) 0.76495(15)
C14 C 0.1579(3) 0.23053(17) 0.31246(15)
H9 H 0.0682 0.1953 0.3230
C15 C 0.8781(3) 0.3263(2) 0.7145(2)
C16 C 0.9513(5) 0.2718(4) 0.6434(3)
H10 H 0.8859 0.2742 0.5860
H11 H 0.9605 0.2011 0.6546
H12 H 1.0530 0.3062 0.6454
C17 C 0.9873(3) 0.3205(3) 0.8043(3)
H13 H 0.9963 0.2495 0.8144
H14 H 0.9454 0.3541 0.8504
H15 H 1.0886 0.3544 0.8046
C18 C 0.8725(3) 0.4421(2) 0.7025(3)
H16 H 0.8068 0.4497 0.6463
H17 H 0.9761 0.4735 0.7048
H18 H 0.8312 0.4751 0.7491
C19 C 0.4833(3) 0.1687(3) 0.87737(19)
C20 C 0.3914(6) 0.2530(5) 0.9127(3)
H19 H 0.4540 0.3184 0.9224
H20 H 0.3666 0.2355 0.9674
H21 H 0.2965 0.2573 0.8701
C21 C 0.3941(7) 0.0614(5) 0.8598(3)
H22 H 0.4572 0.0131 0.8379
H23 H 0.2990 0.0626 0.8166
H24 H 0.3699 0.0407 0.9138
C22 C 0.6274(4) 0.1629(3) 0.94899(19)
H25 H 0.6875 0.1107 0.9300
H26 H 0.5964 0.1458 1.0023
H27 H 0.6897 0.2285 0.9600
C23 C 0.8886(3) 0.88107(19) 0.83486(17)
C24 C 0.8247(4) 0.8905(3) 0.9186(2)
H28 H 0.8236 0.8253 0.9430
H29 H 0.8899 0.9421 0.9609
H30 H 0.7203 0.9102 0.9047
C25 C 0.8889(4) 0.9874(2) 0.7971(2)
H31 H 0.9489 1.0392 0.8413
H32 H 0.9344 0.9840 0.7459
H33 H 0.7835 1.0047 0.7808
C26 C 1.0580(4) 0.8570(2) 0.8583(2)
H34 H 1.0624 0.7913 0.8819
H35 H 1.1007 0.8547 0.8061
H36 H 1.1176 0.9098 0.9017
C27 C 0.4081(3) 0.6172(2) 0.72871(17)
C28 C 0.3581(4) 0.6720(3) 0.8077(2)
H37 H 0.4361 0.6689 0.8606
H38 H 0.3468 0.7429 0.7980
H39 H 0.2602 0.6386 0.8142
C29 C 0.2778(3) 0.6239(3) 0.6468(2)
H40 H 0.3048 0.5904 0.5954
H41 H 0.1813 0.5905 0.6553
H42 H 0.2660 0.6951 0.6386
C30 C 0.4201(4) 0.5038(2) 0.74522(17)
H43 H 0.5009 0.4996 0.7965
H44 H 0.3222 0.4739 0.7549
H45 H 0.4446 0.4667 0.6946
Li1A Li 0.5197(5) 0.5758(3) 0.4611(3)
O1A O 0.3832(2) 0.69302(14) 0.44172(13)
H1A H 0.434(10) 0.669(7) 0.466(5)
O2A O 0.71115(19) 0.66703(12) 0.46150(9)
O3A O 0.4449(2) 0.44343(12) 0.41905(10)
C1A C 0.4076(3) 0.73086(16) 0.36345(15)
C2A C 0.2868(3) 0.72390(18) 0.28827(17)
C3A C 0.3273(3) 0.76012(19) 0.21351(16)
H2A H 0.2488 0.7579 0.1628
C4A C 0.4778(3) 0.79972(19) 0.20921(16)
C5A C 0.5933(3) 0.80382(17) 0.28591(15)
H3A H 0.6949 0.8297 0.2853
C6A C 0.5606(3) 0.77012(16) 0.36357(14)
C7A C 0.6857(3) 0.77171(17) 0.44528(15)
H4A H 0.6542 0.8067 0.4953
H5A H 0.7815 0.8086 0.4375
C8A C 0.8212(3) 0.65959(18) 0.54411(14)
H6A H 0.8471 0.5889 0.5459
H7A H 0.9166 0.7032 0.5452
C9A C 0.7613(3) 0.69059(16) 0.62515(14)
C10A C 0.3769(3) 0.36501(16) 0.36131(14)
C11A C 0.4359(3) 0.33272(17) 0.28569(14)
C12A C 0.3470(3) 0.25425(17) 0.22478(15)
H8A H 0.3835 0.2351 0.1742
C13A C 0.2064(3) 0.20262(17) 0.23505(15)
C14A C 0.8421(3) 0.76947(17) 0.68754(15)
H9A H 0.9318 0.8047 0.6770
C15A C 0.1219(3) 0.6737(2) 0.2855(2)
C16A C 0.0487(5) 0.7282(4) 0.3566(3)
H10A H 0.1141 0.7258 0.4140
H11A H 0.0395 0.7989 0.3454
H12A H -0.0530 0.6938 0.3546
C17A C 0.0127(3) 0.6795(3) 0.1957(3)
H13A H 0.0037 0.7505 0.1856
H14A H 0.0546 0.6459 0.1496
H15A H -0.0886 0.6456 0.1954
C18A C 0.1275(3) 0.5579(2) 0.2975(3)
H16A H 0.1932 0.5503 0.3537
H17A H 0.0239 0.5265 0.2952
H18A H 0.1688 0.5249 0.2509
C19A C 0.5167(3) 0.8313(3) 0.12263(19)
C20A C 0.6086(6) 0.7470(5) 0.0873(3)
H19A H 0.5460 0.6816 0.0776
H20A H 0.6334 0.7645 0.0326
H21A H 0.7035 0.7427 0.1299
C21A C 0.6059(7) 0.9386(5) 0.1402(3)
H22A H 0.5428 0.9869 0.1621
H23A H 0.7010 0.9374 0.1834
H24A H 0.6301 0.9593 0.0862
C22A C 0.3726(4) 0.8371(3) 0.05101(19)
H25A H 0.3125 0.8893 0.0700
H26A H 0.4036 0.8542 -0.0023
H27A H 0.3103 0.7715 0.0400
C23A C 0.1114(3) 0.11893(19) 0.16514(17)
C24A C 0.1753(4) 0.1095(3) 0.0814(2)
H28A H 0.1764 0.1747 0.0570
H29A H 0.1101 0.0579 0.0391
H30A H 0.2797 0.0898 0.0953
C25A C 0.1111(4) 0.0126(2) 0.2029(2)
H31A H 0.0511 -0.0392 0.1587
H32A H 0.0656 0.0160 0.2541
H33A H 0.2165 -0.0047 0.2192
C26A C -0.0580(4) 0.1430(2) 0.1417(2)
H34A H -0.0624 0.2087 0.1181
H35A H -0.1007 0.1453 0.1939
H36A H -0.1176 0.0902 0.0983
C27A C 0.5919(3) 0.3828(2) 0.27129(17)
C28A C 0.6419(4) 0.3280(3) 0.1923(2)
H37A H 0.5639 0.3311 0.1394
H38A H 0.6532 0.2571 0.2020
H39A H 0.7398 0.3614 0.1858
C29A C 0.7222(3) 0.3761(3) 0.3532(2)
H40A H 0.6952 0.4096 0.4046
H41A H 0.8187 0.4095 0.3447
H42A H 0.7340 0.3049 0.3614
C30A C 0.5799(4) 0.4962(2) 0.25478(17)
H43A H 0.4991 0.5004 0.2035
H44A H 0.6778 0.5261 0.2451
H45A H 0.5554 0.5333 0.3054
H46? H 1.0202 0.4896 1.0144
H47? H 0.7728 0.4257 1.0645
H48? H 0.6707 0.5349 0.9527
C35? C 0.8880(12) 0.5786(6) 0.9401(5)
H49? H 0.8586 0.6323 0.9032
C36? C 1.0536(13) 0.5617(7) 0.9534(6)
H50? H 1.1218 0.5948 0.9207
C37? C 1.286(2) 0.5036(16) 1.0343(15)
H51? H 1.2727 0.5605 0.9990
H52? H 1.3682 0.4661 1.0200
H53? H 1.3122 0.5293 1.0959
C40? C -0.217(3) 0.0326(9) 0.5510(13)
H55? H -0.2477 0.0271 0.6044
C41? C -0.043(2) 0.0144(10) 0.5342(11)
H56? H 0.0468 -0.0054 0.5732
loop_
_geom_bond_atom_site_label_1
_geom_bond_atom_site_label_2
_geom_bond_site_symmetry_1
_geom_bond_site_symmetry_2
Li1 O1 1_555 1_555
O1 H1 1_555 1_555
O2 Li1 1_555 1_555
O3 Li1 1_555 1_555
C1 O1 1_555 1_555
C2 C1 1_555 1_555
C3 C2 1_555 1_555
H2 C3 1_555 1_555
C4 C3 1_555 1_555
C5 C4 1_555 1_555
H3 C5 1_555 1_555
C6 C1 1_555 1_555
C7 O2 1_555 1_555
H4 C7 1_555 1_555
H5 C7 1_555 1_555
C8 O2 1_555 1_555
H6 C8 1_555 1_555
H7 C8 1_555 1_555
C9 C8 1_555 1_555
C10 O3 1_555 1_555
C11 C10 1_555 1_555
C12 C11 1_555 1_555
H8 C12 1_555 1_555
C13 C12 1_555 1_555
C14 C9 1_555 1_555
H9 C14 1_555 1_555
C15 C2 1_555 1_555
C16 C15 1_555 1_555
H10 C16 1_555 1_555
H11 C16 1_555 1_555
H12 C16 1_555 1_555
C17 C15 1_555 1_555
H13 C17 1_555 1_555
H14 C17 1_555 1_555
H15 C17 1_555 1_555
C18 C15 1_555 1_555
H16 C18 1_555 1_555
H17 C18 1_555 1_555
H18 C18 1_555 1_555
C19 C4 1_555 1_555
C20 C19 1_555 1_555
H19 C20 1_555 1_555
H20 C20 1_555 1_555
H21 C20 1_555 1_555
C21 C19 1_555 1_555
H22 C21 1_555 1_555
H23 C21 1_555 1_555
H24 C21 1_555 1_555
C22 C19 1_555 1_555
H25 C22 1_555 1_555
H26 C22 1_555 1_555
H27 C22 1_555 1_555
C23 C13 1_555 1_555
C24 C23 1_555 1_555
H28 C24 1_555 1_555
H29 C24 1_555 1_555
H30 C24 1_555 1_555
C25 C23 1_555 1_555
H31 C25 1_555 1_555
H32 C25 1_555 1_555
H33 C25 1_555 1_555
C26 C23 1_555 1_555
H34 C26 1_555 1_555
H35 C26 1_555 1_555
H36 C26 1_555 1_555
C27 C11 1_555 1_555
C28 C27 1_555 1_555
H37 C28 1_555 1_555
H38 C28 1_555 1_555
H39 C28 1_555 1_555
C29 C27 1_555 1_555
H40 C29 1_555 1_555
H41 C29 1_555 1_555
H42 C29 1_555 1_555
C30 C27 1_555 1_555
H43 C30 1_555 1_555
H44 C30 1_555 1_555
H45 C30 1_555 1_555
C31 C32 1_555 1_555
C32 C31A 1_555 1_555
C33 C31 1_555 1_555
C34 C31 1_555 1_555
C38 C39 1_555 1_555
C39 H54 1_555 1_555
C42 H57 1_555 1_555
C43 C38 1_555 1_555
H58 C43 1_555 1_555
C44 C38 1_555 1_555
H59 C44 1_555 1_555
H60 C44 1_555 1_555
H61 C44 1_555 1_555
Li1A O3 1_555 1_555
O1A Li1A 1_555 1_555
H1A O1A 1_555 1_555
O2A Li1A 1_555 1_555
O3A Li1 1_555 1_555
C1A O1A 1_555 1_555
C2A C1A 1_555 1_555
C3A C2A 1_555 1_555
H2A C3A 1_555 1_555
C4A C3A 1_555 1_555
C5A C4A 1_555 1_555
H3A C5A 1_555 1_555
C6A C1A 1_555 1_555
C7A O2A 1_555 1_555
H4A C7A 1_555 1_555
H5A C7A 1_555 1_555
C8A O2A 1_555 1_555
H6A C8A 1_555 1_555
H7A C8A 1_555 1_555
C9A C10 1_555 1_555
C10A C9 1_555 1_555
C11A C10A 1_555 1_555
C12A C11A 1_555 1_555
H8A C12A 1_555 1_555
C13A C14 1_555 1_555
C14A C13 1_555 1_555
H9A C14A 1_555 1_555
C15A C2A 1_555 1_555
C16A C15A 1_555 1_555
H10A C16A 1_555 1_555
H11A C16A 1_555 1_555
H12A C16A 1_555 1_555
C17A C15A 1_555 1_555
H13A C17A 1_555 1_555
H14A C17A 1_555 1_555
H15A C17A 1_555 1_555
C18A C15A 1_555 1_555
H16A C18A 1_555 1_555
H17A C18A 1_555 1_555
H18A C18A 1_555 1_555
C19A C4A 1_555 1_555
C20A C19A 1_555 1_555
H19A C20A 1_555 1_555
H20A C20A 1_555 1_555
H21A C20A 1_555 1_555
C21A C19A 1_555 1_555
H22A C21A 1_555 1_555
H23A C21A 1_555 1_555
H24A C21A 1_555 1_555
C22A C19A 1_555 1_555
H25A C22A 1_555 1_555
H26A C22A 1_555 1_555
H27A C22A 1_555 1_555
C23A C13A 1_555 1_555
C24A C23A 1_555 1_555
H28A C24A 1_555 1_555
H29A C24A 1_555 1_555
H30A C24A 1_555 1_555
C25A C23A 1_555 1_555
H31A C25A 1_555 1_555
H32A C25A 1_555 1_555
H33A C25A 1_555 1_555
C26A C23A 1_555 1_555
H34A C26A 1_555 1_555
H35A C26A 1_555 1_555
H36A C26A 1_555 1_555
C27A C11A 1_555 1_555
C28A C27A 1_555 1_555
H37A C28A 1_555 1_555
H38A C28A 1_555 1_555
H39A C28A 1_555 1_555
C29A C27A 1_555 1_555
H40A C29A 1_555 1_555
H41A C29A 1_555 1_555
H42A C29A 1_555 1_555
C30A C27A 1_555 1_555
H43A C30A 1_555 1_555
H44A C30A 1_555 1_555
H45A C30A 1_555 1_555
C31A C32A 1_555 1_555
C32A C31 1_555 1_555
C33A C32 1_555 1_555
C34A C31A 1_555 1_555
C38A C39A 1_555 1_555
C39A H54A 1_555 1_555
C42A C42 1_555 1_555
H57A C42A 1_555 1_555
C43A C38A 1_555 1_555
H58A C43A 1_555 1_555
C44A C38A 1_555 1_555
H59A C44A 1_555 1_555
H60A C44A 1_555 1_555
H61A C44A 1_555 1_555
C5 C6 1_555 1_555
C6 C7 1_555 1_555
C33 C34 1_555 1_555
C33 C32A 1_555 1_555
C42 C43 1_555 1_555
Li1A O3A 1_555 1_555
O3A C10A 1_555 1_555
C5A C6A 1_555 1_555
C6A C7A 1_555 1_555
C8A C9A 1_555 1_555
C9A C14A 1_555 1_555
C12A C13A 1_555 1_555
C31A C33A 1_555 1_555
C33A C34A 1_555 1_555
C42A C43A 1_555 1_555

#END
