
#######################################################################
#
#                 Cambridge Crystallographic Data Centre
#                                CCDC 
#
#######################################################################
#
# If this CIF has been generated from an entry in the Cambridge 
# Structural Database, then it will include bibliographic, chemical, 
# crystal, experimental, refinement or atomic coordinate data resulting 
# from the CCDC's data processing and validation procedures.
#
#######################################################################

data_AVOQEI
_chemical_formula_moiety         'C68 H106 Li2 O8,2(C7 H8)'
_chemical_name_systematic        
"bis(\m~2~-2,2'-(Oxybis(methylene))bis(4,6-di-t-butylphenol))-bis(tetrahydrofuran)-di-lithium toluene solvate"
_symmetry_cell_setting           monoclinic
_symmetry_space_group_name_H-M   'P 21/c'
_symmetry_Int_Tables_number      14
_space_group_name_Hall           '-P 2ybc'
loop_
_symmetry_equiv_pos_site_id
_symmetry_equiv_pos_as_xyz
1 x,y,z
2 -x,1/2+y,1/2-z
3 -x,-y,-z
4 x,1/2-y,1/2+z
_cell_length_a                   17.9623(7)
_cell_length_b                   20.8957(7)
_cell_length_c                   10.5572(4)
_cell_angle_alpha                90
_cell_angle_beta                 97.082(3)
_cell_angle_gamma                90
_cell_volume                     3932.25
_exptl_crystal_colour            colorless
_exptl_crystal_description       parallelepiped
_cell_formula_units_Z            2
loop_
_atom_site_label
_atom_site_type_symbol
_atom_site_fract_x
_atom_site_fract_y
_atom_site_fract_z
Li1 Li 0.4505(4) 0.4644(3) 0.5249(6)
O1 O 0.34366(17) 0.34335(15) 0.2351(3)
O2 O 0.36872(14) 0.44905(10) 0.3829(2)
O3 O 0.45359(13) 0.55605(11) 0.5083(2)
O4 O 0.42555(15) 0.42498(12) 0.6782(2)
C1 C 0.2691(2) 0.35946(16) 0.2238(3)
C2 C 0.2188(2) 0.33003(16) 0.1289(3)
C3 C 0.1433(2) 0.34686(17) 0.1242(3)
H1 H 0.1091 0.3273 0.0630
C4 C 0.1162(2) 0.39109(17) 0.2055(3)
C5 C 0.1689(2) 0.41970(17) 0.2982(3)
H2 H 0.1529 0.4500 0.3534
C6 C 0.2434(2) 0.40360(15) 0.3085(3)
C7 C 0.2964(2) 0.43123(17) 0.4180(3)
H3 H 0.2733 0.4687 0.4508
H4 H 0.3037 0.3999 0.4862
C8 C 0.3639(2) 0.50573(15) 0.3008(3)
H5 H 0.3281 0.4977 0.2260
H6 H 0.4124 0.5133 0.2722
C9 C 0.3405(2) 0.56449(15) 0.3674(3)
C10 C 0.39142(19) 0.58779(15) 0.4718(3)
C11 C 0.3709(2) 0.64626(15) 0.5296(3)
C12 C 0.3014(2) 0.67322(15) 0.4874(3)
H7 H 0.2878 0.7100 0.5284
C13 C 0.2502(2) 0.64895(16) 0.3875(3)
C14 C 0.27249(19) 0.59358(16) 0.3288(3)
H8 H 0.2407 0.5758 0.2618
C15 C 0.2470(3) 0.2823(2) 0.0345(4)
C16 C 0.3035(3) 0.3147(3) -0.0427(4)
H9 H 0.3452 0.3306 0.0144
H10 H 0.2795 0.3497 -0.0907
H11 H 0.3211 0.2842 -0.1002
C17 C 0.2856(4) 0.2246(2) 0.1061(5)
H12 H 0.3270 0.2393 0.1652
H13 H 0.3037 0.1958 0.0459
H14 H 0.2503 0.2027 0.1519
C18 C 0.1807(3) 0.2564(2) -0.0600(4)
H15 H 0.1994 0.2266 -0.1178
H16 H 0.1564 0.2913 -0.1075
H17 H 0.1454 0.2351 -0.0132
C19 C 0.0323(2) 0.4083(2) 0.1974(4)
C20 C 0.0008(3) 0.3837(4) 0.3147(5)
H18 H 0.0288 0.4017 0.3898
H19 H 0.0047 0.3379 0.3178
H20 H -0.0509 0.3960 0.3111
C21 C 0.0243(3) 0.4816(2) 0.1879(6)
H21 H 0.0527 0.5011 0.2608
H22 H -0.0276 0.4932 0.1854
H23 H 0.0429 0.4963 0.1115
C22 C -0.0145(3) 0.3790(3) 0.0772(5)
H24 H -0.0662 0.3910 0.0758
H25 H -0.0103 0.3332 0.0801
H26 H 0.0041 0.3947 0.0017
C23 C 0.1738(2) 0.68114(17) 0.3495(4)
C24 C 0.1235(3) 0.6692(4) 0.4496(7)
H27 H 0.1162 0.6240 0.4584
H28 H 0.0759 0.6895 0.4251
H29 H 0.1459 0.6866 0.5295
C25 C 0.1365(4) 0.6579(3) 0.2195(6)
H30 H 0.1288 0.6125 0.2224
H31 H 0.1682 0.6677 0.1552
H32 H 0.0890 0.6790 0.1992
C26 C 0.1845(3) 0.7535(2) 0.3375(6)
H33 H 0.2075 0.7704 0.4175
H34 H 0.1366 0.7736 0.3149
H35 H 0.2161 0.7620 0.2725
C27 C 0.4263(2) 0.67886(16) 0.6329(3)
C28 C 0.3940(2) 0.73954(19) 0.6866(4)
H36 H 0.3499 0.7288 0.7252
H37 H 0.3810 0.7696 0.6187
H38 H 0.4307 0.7582 0.7496
C29 C 0.4497(2) 0.63358(19) 0.7457(3)
H39 H 0.4061 0.6210 0.7838
H40 H 0.4843 0.6552 0.8081
H41 H 0.4734 0.5963 0.7157
C30 C 0.4964(2) 0.69890(17) 0.5727(3)
H42 H 0.5315 0.7193 0.6360
H43 H 0.4823 0.7282 0.5038
H44 H 0.5193 0.6617 0.5406
C31 C 0.4690(2) 0.37686(18) 0.7513(4)
H45 H 0.5166 0.3703 0.7187
H46 H 0.4421 0.3365 0.7477
C32 C 0.4814(3) 0.4020(2) 0.8875(4)
H47 H 0.5325 0.4170 0.9090
H48 H 0.4714 0.3689 0.9477
C33 C 0.4252(3) 0.4576(2) 0.8890(4)
H49 H 0.3950 0.4528 0.9584
H50 H 0.4511 0.4984 0.8981
C34 C 0.3773(2) 0.4532(2) 0.7616(4)
H51 H 0.3337 0.4265 0.7674
H52 H 0.3607 0.4953 0.7315
H61 H 0.365(3) 0.367(3) 0.269(6)
Li1B Li 0.5495(4) 0.5356(3) 0.4751(6)
O1B O 0.65634(17) 0.65665(15) 0.7649(3)
O2B O 0.63128(14) 0.55095(10) 0.6171(2)
O3B O 0.54641(13) 0.44395(11) 0.4917(2)
O4B O 0.57445(15) 0.57502(12) 0.3218(2)
C1B C 0.7309(2) 0.64054(16) 0.7762(3)
C2B C 0.7812(2) 0.66997(16) 0.8711(3)
C3B C 0.8567(2) 0.65314(17) 0.8758(3)
H1B H 0.8909 0.6727 0.9370
C4B C 0.8838(2) 0.60891(17) 0.7945(3)
C5B C 0.8311(2) 0.58030(17) 0.7018(3)
H2B H 0.8471 0.5500 0.6466
C6B C 0.7566(2) 0.59640(15) 0.6915(3)
C7B C 0.7036(2) 0.56877(17) 0.5820(3)
H3B H 0.7267 0.5313 0.5492
H4B H 0.6963 0.6001 0.5138
C8B C 0.6361(2) 0.49427(15) 0.6992(3)
H5B H 0.6719 0.5023 0.7740
H6B H 0.5876 0.4867 0.7278
C9B C 0.6595(2) 0.43551(15) 0.6326(3)
C10B C 0.60858(19) 0.41221(15) 0.5282(3)
C11B C 0.6291(2) 0.35374(15) 0.4704(3)
C12B C 0.6986(2) 0.32678(15) 0.5126(3)
H7B H 0.7122 0.2900 0.4716
C13B C 0.7498(2) 0.35105(16) 0.6125(3)
C14B C 0.72751(19) 0.40642(16) 0.6712(3)
H8B H 0.7593 0.4242 0.7382
C15B C 0.7530(3) 0.7177(2) 0.9655(4)
C16B C 0.6965(3) 0.6853(3) 1.0427(4)
H9B H 0.6548 0.6694 0.9856
H10B H 0.7205 0.6503 1.0907
H11B H 0.6789 0.7158 1.1002
C17B C 0.7144(4) 0.7754(2) 0.8939(5)
H12B H 0.6730 0.7607 0.8348
H13B H 0.6963 0.8042 0.9541
H14B H 0.7497 0.7973 0.8481
C18B C 0.8193(3) 0.7436(2) 1.0600(4)
H15B H 0.8006 0.7734 1.1178
H16B H 0.8436 0.7087 1.1075
H17B H 0.8546 0.7649 1.0132
C19B C 0.9677(2) 0.5917(2) 0.8026(4)
C20B C 0.9992(3) 0.6163(4) 0.6853(5)
H18B H 0.9712 0.5983 0.6102
H19B H 0.9953 0.6621 0.6822
H20B H 1.0509 0.6040 0.6889
C21B C 0.9757(3) 0.5184(2) 0.8121(6)
H21B H 0.9473 0.4989 0.7392
H22B H 1.0276 0.5068 0.8146
H23B H 0.9571 0.5037 0.8885
C22B C 1.0145(3) 0.6210(3) 0.9228(5)
H24B H 1.0662 0.6090 0.9242
H25B H 1.0103 0.6668 0.9199
H26B H 0.9959 0.6053 0.9983
C23B C 0.8262(2) 0.31886(17) 0.6505(4)
C24B C 0.8765(3) 0.3308(4) 0.5504(7)
H27B H 0.8838 0.3760 0.5416
H28B H 0.9241 0.3105 0.5749
H29B H 0.8541 0.3134 0.4705
C25B C 0.8635(4) 0.3421(3) 0.7805(6)
H30B H 0.8712 0.3875 0.7776
H31B H 0.8318 0.3323 0.8448
H32B H 0.9110 0.3210 0.8008
C26B C 0.8155(3) 0.2465(2) 0.6625(6)
H33B H 0.7925 0.2296 0.5825
H34B H 0.8634 0.2264 0.6851
H35B H 0.7839 0.2380 0.7275
C27B C 0.5737(2) 0.32114(16) 0.3671(3)
C28B C 0.6060(2) 0.26046(19) 0.3134(4)
H36B H 0.6501 0.2712 0.2748
H37B H 0.6190 0.2304 0.3813
H38B H 0.5693 0.2418 0.2504
C29B C 0.5503(2) 0.36642(19) 0.2543(3)
H39B H 0.5939 0.3790 0.2162
H40B H 0.5157 0.3448 0.1919
H41B H 0.5266 0.4037 0.2843
C30B C 0.5036(2) 0.30110(17) 0.4273(3)
H42B H 0.4685 0.2807 0.3640
H43B H 0.5177 0.2718 0.4962
H44B H 0.4807 0.3383 0.4594
C31B C 0.5310(2) 0.62314(18) 0.2487(4)
H45B H 0.4834 0.6297 0.2813
H46B H 0.5579 0.6635 0.2523
C32B C 0.5186(3) 0.5980(2) 0.1125(4)
H47B H 0.4675 0.5830 0.0910
H48B H 0.5286 0.6311 0.0523
C33B C 0.5748(3) 0.5424(2) 0.1110(4)
H49B H 0.6050 0.5472 0.0416
H50B H 0.5489 0.5016 0.1019
C34B C 0.6227(2) 0.5468(2) 0.2384(4)
H51B H 0.6663 0.5735 0.2326
H52B H 0.6393 0.5047 0.2685
H61B H 0.635(3) 0.633(3) 0.731(6)
C35 C 0.1305(6) 1.0632(6) 0.1504(7)
H53 H 0.1131 1.0998 0.1933
H54 H 0.0884 1.0412 0.1054
H55 H 0.1635 1.0770 0.0910
C36 C 0.1710(4) 1.0199(4) 0.2449(6)
C37 C 0.2012(5) 0.9635(5) 0.2075(10)
H56 H 0.1956 0.9529 0.1213
C38 C 0.2393(6) 0.9223(4) 0.2942(18)
H57 H 0.2603 0.8849 0.2667
C39 C 0.2463(4) 0.9377(4) 0.4267(13)
H58 H 0.2723 0.9104 0.4862
C40 C 0.2142(3) 0.9932(3) 0.4670(7)
H59 H 0.2163 1.0033 0.5532
C41 C 0.1801(3) 1.0318(3) 0.3762(5)
H60 H 0.1607 1.0700 0.4031
loop_
_geom_bond_atom_site_label_1
_geom_bond_atom_site_label_2
_geom_bond_site_symmetry_1
_geom_bond_site_symmetry_2
Li1 O2 1_555 1_555
O1 C1 1_555 1_555
O2 C7 1_555 1_555
O3 Li1 1_555 1_555
O4 Li1 1_555 1_555
C1 C2 1_555 1_555
C2 C3 1_555 1_555
C3 H1 1_555 1_555
C4 C3 1_555 1_555
C5 C4 1_555 1_555
H2 C5 1_555 1_555
C6 C1 1_555 1_555
C7 C6 1_555 1_555
H3 C7 1_555 1_555
H4 C7 1_555 1_555
C8 O2 1_555 1_555
H5 C8 1_555 1_555
H6 C8 1_555 1_555
C9 C8 1_555 1_555
C10 O3 1_555 1_555
C11 C10 1_555 1_555
C12 C11 1_555 1_555
H7 C12 1_555 1_555
C13 C12 1_555 1_555
C14 C9 1_555 1_555
H8 C14 1_555 1_555
C15 C2 1_555 1_555
C16 C15 1_555 1_555
H9 C16 1_555 1_555
H10 C16 1_555 1_555
H11 C16 1_555 1_555
C17 C15 1_555 1_555
H12 C17 1_555 1_555
H13 C17 1_555 1_555
H14 C17 1_555 1_555
C18 C15 1_555 1_555
H15 C18 1_555 1_555
H16 C18 1_555 1_555
H17 C18 1_555 1_555
C19 C4 1_555 1_555
C20 C19 1_555 1_555
H18 C20 1_555 1_555
H19 C20 1_555 1_555
H20 C20 1_555 1_555
C21 C19 1_555 1_555
H21 C21 1_555 1_555
H22 C21 1_555 1_555
H23 C21 1_555 1_555
C22 C19 1_555 1_555
H24 C22 1_555 1_555
H25 C22 1_555 1_555
H26 C22 1_555 1_555
C23 C13 1_555 1_555
C24 C23 1_555 1_555
H27 C24 1_555 1_555
H28 C24 1_555 1_555
H29 C24 1_555 1_555
C25 C23 1_555 1_555
H30 C25 1_555 1_555
H31 C25 1_555 1_555
H32 C25 1_555 1_555
C26 C23 1_555 1_555
H33 C26 1_555 1_555
H34 C26 1_555 1_555
H35 C26 1_555 1_555
C27 C11 1_555 1_555
C28 C27 1_555 1_555
H36 C28 1_555 1_555
H37 C28 1_555 1_555
H38 C28 1_555 1_555
C29 C27 1_555 1_555
H39 C29 1_555 1_555
H40 C29 1_555 1_555
H41 C29 1_555 1_555
C30 C27 1_555 1_555
H42 C30 1_555 1_555
H43 C30 1_555 1_555
H44 C30 1_555 1_555
C31 O4 1_555 1_555
H45 C31 1_555 1_555
H46 C31 1_555 1_555
C32 C31 1_555 1_555
H47 C32 1_555 1_555
H48 C32 1_555 1_555
C33 C32 1_555 1_555
H49 C33 1_555 1_555
H50 C33 1_555 1_555
C34 O4 1_555 1_555
H51 C34 1_555 1_555
H52 C34 1_555 1_555
C35 H53 1_555 1_555
H54 C35 1_555 1_555
H55 C35 1_555 1_555
C36 C35 1_555 1_555
C37 C36 1_555 1_555
H56 C37 1_555 1_555
C38 C37 1_555 1_555
H57 C38 1_555 1_555
C39 C38 1_555 1_555
H58 C39 1_555 1_555
C40 C39 1_555 1_555
H59 C40 1_555 1_555
C41 C36 1_555 1_555
H60 C41 1_555 1_555
H61 O1 1_555 1_555
Li1B O3 1_555 1_555
O1B C1B 1_555 1_555
O2B Li1B 1_555 1_555
O3B Li1 1_555 1_555
O4B Li1B 1_555 1_555
C1B C2B 1_555 1_555
C2B C3B 1_555 1_555
C3B H1B 1_555 1_555
C4B C3B 1_555 1_555
C5B C4B 1_555 1_555
H2B C5B 1_555 1_555
C6B C1B 1_555 1_555
C7B O2B 1_555 1_555
H3B C7B 1_555 1_555
H4B C7B 1_555 1_555
C8B O2B 1_555 1_555
H5B C8B 1_555 1_555
H6B C8B 1_555 1_555
C9B C8B 1_555 1_555
C10B O3B 1_555 1_555
C11B C10B 1_555 1_555
C12B C11B 1_555 1_555
H7B C12B 1_555 1_555
C13B C12B 1_555 1_555
C14B C9B 1_555 1_555
H8B C14B 1_555 1_555
C15B C2B 1_555 1_555
C16B C15B 1_555 1_555
H9B C16B 1_555 1_555
H10B C16B 1_555 1_555
H11B C16B 1_555 1_555
C17B C15B 1_555 1_555
H12B C17B 1_555 1_555
H13B C17B 1_555 1_555
H14B C17B 1_555 1_555
C18B C15B 1_555 1_555
H15B C18B 1_555 1_555
H16B C18B 1_555 1_555
H17B C18B 1_555 1_555
C19B C4B 1_555 1_555
C20B C19B 1_555 1_555
H18B C20B 1_555 1_555
H19B C20B 1_555 1_555
H20B C20B 1_555 1_555
C21B C19B 1_555 1_555
H21B C21B 1_555 1_555
H22B C21B 1_555 1_555
H23B C21B 1_555 1_555
C22B C19B 1_555 1_555
H24B C22B 1_555 1_555
H25B C22B 1_555 1_555
H26B C22B 1_555 1_555
C23B C13B 1_555 1_555
C24B C23B 1_555 1_555
H27B C24B 1_555 1_555
H28B C24B 1_555 1_555
H29B C24B 1_555 1_555
C25B C23B 1_555 1_555
H30B C25B 1_555 1_555
H31B C25B 1_555 1_555
H32B C25B 1_555 1_555
C26B C23B 1_555 1_555
H33B C26B 1_555 1_555
H34B C26B 1_555 1_555
H35B C26B 1_555 1_555
C27B C11B 1_555 1_555
C28B C27B 1_555 1_555
H36B C28B 1_555 1_555
H37B C28B 1_555 1_555
H38B C28B 1_555 1_555
C29B C27B 1_555 1_555
H39B C29B 1_555 1_555
H40B C29B 1_555 1_555
H41B C29B 1_555 1_555
C30B C27B 1_555 1_555
H42B C30B 1_555 1_555
H43B C30B 1_555 1_555
H44B C30B 1_555 1_555
C31B O4B 1_555 1_555
H45B C31B 1_555 1_555
H46B C31B 1_555 1_555
C32B C31B 1_555 1_555
H47B C32B 1_555 1_555
H48B C32B 1_555 1_555
C33B C32B 1_555 1_555
H49B C33B 1_555 1_555
H50B C33B 1_555 1_555
C34B O4B 1_555 1_555
H51B C34B 1_555 1_555
H52B C34B 1_555 1_555
H61B O1B 1_555 1_555
C5 C6 1_555 1_555
C9 C10 1_555 1_555
C13 C14 1_555 1_555
C33 C34 1_555 1_555
C40 C41 1_555 1_555
Li1B O3B 1_555 1_555
C5B C6B 1_555 1_555
C6B C7B 1_555 1_555
C9B C10B 1_555 1_555
C13B C14B 1_555 1_555
C33B C34B 1_555 1_555

#END
