
#######################################################################
#
#                 Cambridge Crystallographic Data Centre
#                                CCDC 
#
#######################################################################
#
# If this CIF has been generated from an entry in the Cambridge 
# Structural Database, then it will include bibliographic, chemical, 
# crystal, experimental, refinement or atomic coordinate data resulting 
# from the CCDC's data processing and validation procedures.
#
#######################################################################

data_AVOWUF
_chemical_formula_moiety         'C18 H15 N1 O1'
_chemical_name_systematic        
1-(2-methylphenyl)-2-(quinolin-1-ium-2-yl)ethen-1-olate
_symmetry_cell_setting           monoclinic
_symmetry_space_group_name_H-M   'P 21/c'
_symmetry_Int_Tables_number      14
_space_group_name_Hall           '-P 2ybc'
loop_
_symmetry_equiv_pos_site_id
_symmetry_equiv_pos_as_xyz
1 x,y,z
2 -x,1/2+y,1/2-z
3 -x,-y,-z
4 x,1/2-y,1/2+z
_cell_length_a                   7.6693(3)
_cell_length_b                   14.5236(5)
_cell_length_c                   12.2223(4)
_cell_angle_alpha                90
_cell_angle_beta                 92.0500(10)
_cell_angle_gamma                90
_cell_volume                     1360.52
_exptl_crystal_colour            yellow
_exptl_crystal_description       Block
_cell_formula_units_Z            4
loop_
_atom_site_label
_atom_site_type_symbol
_atom_site_fract_x
_atom_site_fract_y
_atom_site_fract_z
N1 N 0.14149(13) -0.10646(7) 0.07318(8)
H1 H 0.1053 -0.0918 0.1367
O1 O 0.16288(13) 0.00974(6) 0.23649(7)
C1 C 0.11488(15) -0.19560(8) 0.03770(9)
C2 C 0.03769(17) -0.26070(9) 0.10433(10)
H2 H -0.0038 -0.2435 0.1719
C3 C 0.02317(19) -0.35036(9) 0.06972(12)
H3 H -0.0274 -0.3939 0.1145
C4 C 0.08348(19) -0.37688(9) -0.03187(12)
H4 H 0.0746 -0.4380 -0.0541
C5 C 0.15554(17) -0.31307(9) -0.09852(11)
H5 H 0.1944 -0.3311 -0.1665
C6 C 0.17197(15) -0.22076(9) -0.06624(10)
C7 C 0.24455(19) -0.15083(10) -0.13215(11)
H6 H 0.2776 -0.1650 -0.2027
C8 C 0.26616(19) -0.06465(10) -0.09424(10)
H7 H 0.3115 -0.0198 -0.1395
C9 C 0.22063(16) -0.04062(9) 0.01474(10)
C10 C 0.26291(17) 0.04421(9) 0.06209(10)
H8 H 0.3098 0.0896 0.0182
C11 C 0.23816(16) 0.06441(8) 0.17273(10)
C12 C 0.30915(16) 0.15380(8) 0.21753(10)
C13 C 0.28514(18) 0.23378(9) 0.15675(11)
H9 H 0.2255 0.2310 0.0892
C14 C 0.3482(2) 0.31759(10) 0.19468(13)
H10 H 0.3297 0.3707 0.1535
C15 C 0.43833(19) 0.32166(10) 0.29365(13)
H11 H 0.4825 0.3775 0.3194
C16 C 0.46315(18) 0.24284(10) 0.35465(11)
H12 H 0.5234 0.2466 0.4219
C17 C 0.40086(17) 0.15764(9) 0.31890(10)
C18 C 0.4425(2) 0.07407(12) 0.38728(12)
H13 H 0.5385 0.0875 0.4373
H14 H 0.4734 0.0240 0.3405
H15 H 0.3423 0.0573 0.4277
loop_
_geom_bond_atom_site_label_1
_geom_bond_atom_site_label_2
_geom_bond_site_symmetry_1
_geom_bond_site_symmetry_2
N1 H1 1_555 1_555
O1 C11 1_555 1_555
C1 N1 1_555 1_555
C2 C1 1_555 1_555
H2 C2 1_555 1_555
C3 C2 1_555 1_555
H3 C3 1_555 1_555
C4 C3 1_555 1_555
H4 C4 1_555 1_555
C5 C4 1_555 1_555
H5 C5 1_555 1_555
C6 C1 1_555 1_555
C7 C6 1_555 1_555
H6 C7 1_555 1_555
C8 C7 1_555 1_555
H7 C8 1_555 1_555
C9 N1 1_555 1_555
C10 C9 1_555 1_555
H8 C10 1_555 1_555
C11 C10 1_555 1_555
C12 C11 1_555 1_555
C13 C12 1_555 1_555
H9 C13 1_555 1_555
C14 C13 1_555 1_555
H10 C14 1_555 1_555
C15 C14 1_555 1_555
H11 C15 1_555 1_555
C16 C15 1_555 1_555
H12 C16 1_555 1_555
C17 C12 1_555 1_555
C18 C17 1_555 1_555
H13 C18 1_555 1_555
H14 C18 1_555 1_555
H15 C18 1_555 1_555
C5 C6 1_555 1_555
C8 C9 1_555 1_555
C16 C17 1_555 1_555

#END
