
#######################################################################
#
#                 Cambridge Crystallographic Data Centre
#                                CCDC 
#
#######################################################################
#
# If this CIF has been generated from an entry in the Cambridge 
# Structural Database, then it will include bibliographic, chemical, 
# crystal, experimental, refinement or atomic coordinate data resulting 
# from the CCDC's data processing and validation procedures.
#
#######################################################################

data_AVOYAN
_chemical_formula_moiety         'C14 H13 N1 O1'
_chemical_name_systematic        1-(4-methylphenyl)-2-(pyridin-2-yl)ethenol
_symmetry_cell_setting           orthorhombic
_symmetry_space_group_name_H-M   'P 21 21 21'
_symmetry_Int_Tables_number      19
_space_group_name_Hall           'P 2ac 2ab'
loop_
_symmetry_equiv_pos_site_id
_symmetry_equiv_pos_as_xyz
1 x,y,z
2 1/2-x,-y,1/2+z
3 -x,1/2+y,1/2-z
4 1/2+x,1/2-y,-z
_cell_length_a                   7.4849(3)
_cell_length_b                   11.7102(5)
_cell_length_c                   25.6784(11)
_cell_angle_alpha                90
_cell_angle_beta                 90
_cell_angle_gamma                90
_cell_volume                     2250.7
_exptl_crystal_colour            yellow
_exptl_crystal_description       Block
_cell_formula_units_Z            8
loop_
_atom_site_label
_atom_site_type_symbol
_atom_site_fract_x
_atom_site_fract_y
_atom_site_fract_z
C1 C 0.7398(3) 0.2225(2) 1.05552(9)
C2 C 0.7998(3) 0.3609(2) 1.12186(10)
H1 H 0.8456 0.4330 1.1323
C3 C 0.7202(3) 0.03116(18) 0.93319(9)
C4 C 0.6484(3) -0.1140(2) 0.86974(9)
H2 H 0.5908 -0.1842 0.8618
C5 C 0.8056(3) 0.3292(2) 1.07067(9)
H3 H 0.8541 0.3797 1.0454
C6 C 0.7523(3) 0.18086(19) 1.00249(9)
H4 H 0.7979 0.2316 0.9769
C7 C 0.8111(3) 0.0891(2) 0.89404(9)
H5 H 0.8681 0.1595 0.9019
C8 C 0.7393(3) -0.0568(2) 0.83093(9)
C9 C 0.7039(3) 0.07553(19) 0.98688(9)
C10 C 0.6391(3) -0.0718(2) 0.91989(9)
H6 H 0.5763 -0.1137 0.9457
C11 C 0.7274(3) 0.2878(2) 1.15834(10)
H7 H 0.7239 0.3079 1.1942
C12 C 0.8205(3) 0.0464(2) 0.84383(10)
H8 H 0.8831 0.0881 0.8178
C13 C 0.6603(3) 0.1847(2) 1.14119(9)
H9 H 0.6074 0.1350 1.1660
C14 C 0.7510(4) -0.1056(2) 0.77678(9)
H10 H 0.8024 -0.1825 0.7784
H11 H 0.8271 -0.0566 0.7552
H12 H 0.6311 -0.1095 0.7615
O1 O 0.6308(3) -0.00073(14) 1.01969(6)
H13 H 0.6238 0.0279 1.0496
N1 N 0.6659(3) 0.15124(17) 1.09131(7)
C15 C 0.7480(3) 0.57730(19) 0.28642(9)
C16 C 0.7664(3) 0.53523(19) 0.34010(9)
C17 C 0.7762(3) 0.7238(2) 0.21715(10)
C18 C 0.8552(3) 0.5971(2) 0.37865(9)
H14 H 0.9030 0.6702 0.3707
C19 C 0.7945(3) 0.6832(2) 0.27006(9)
H15 H 0.8424 0.7345 0.2951
C20 C 0.7161(3) 0.3865(2) 0.40372(10)
H16 H 0.6659 0.3143 0.4120
C21 C 0.6961(3) 0.4298(2) 0.35421(10)
H17 H 0.6326 0.3864 0.3290
C22 C 0.6770(4) 0.6881(2) 0.13315(10)
H18 H 0.6220 0.6377 0.1090
C23 C 0.8742(3) 0.5531(2) 0.42833(10)
H19 H 0.9342 0.5972 0.4540
C24 C 0.8083(3) 0.4466(2) 0.44164(9)
C25 C 0.7325(3) 0.7941(2) 0.11576(11)
H20 H 0.7143 0.8167 0.0806
C26 C 0.8379(4) 0.8313(2) 0.20163(10)
H21 H 0.8954 0.8803 0.2259
C27 C 0.8144(4) 0.8655(2) 0.15068(11)
H22 H 0.8549 0.9386 0.1398
C28 C 0.8380(4) 0.3964(2) 0.49529(9)
H23 H 0.7280 0.4031 0.5158
H24 H 0.9346 0.4378 0.5128
H25 H 0.8706 0.3156 0.4920
O2 O 0.6769(3) 0.49988(15) 0.25340(6)
H26 H 0.6681 0.5288 0.2236
N2 N 0.6971(3) 0.65336(18) 0.18226(8)
loop_
_geom_bond_atom_site_label_1
_geom_bond_atom_site_label_2
_geom_bond_site_symmetry_1
_geom_bond_site_symmetry_2
C1 C5 1_555 1_555
C2 H1 1_555 1_555
C3 C7 1_555 1_555
C4 H2 1_555 1_555
C5 C2 1_555 1_555
H3 C5 1_555 1_555
C6 C1 1_555 1_555
H4 C6 1_555 1_555
C7 H5 1_555 1_555
C8 C4 1_555 1_555
C9 C3 1_555 1_555
C10 C3 1_555 1_555
H6 C10 1_555 1_555
C11 C2 1_555 1_555
H7 C11 1_555 1_555
C12 C7 1_555 1_555
H8 C12 1_555 1_555
C13 C11 1_555 1_555
H9 C13 1_555 1_555
C14 C8 1_555 1_555
H10 C14 1_555 1_555
H11 C14 1_555 1_555
H12 C14 1_555 1_555
O1 C9 1_555 1_555
H13 O1 1_555 1_555
N1 C1 1_555 1_555
C15 C16 1_555 1_555
C16 C18 1_555 1_555
C17 C19 1_555 1_555
C18 H14 1_555 1_555
C19 C15 1_555 1_555
H15 C19 1_555 1_555
C20 H16 1_555 1_555
C21 C16 1_555 1_555
H17 C21 1_555 1_555
C22 H18 1_555 1_555
C23 C18 1_555 1_555
H19 C23 1_555 1_555
C24 C20 1_555 1_555
C25 C22 1_555 1_555
H20 C25 1_555 1_555
C26 C17 1_555 1_555
H21 C26 1_555 1_555
C27 C25 1_555 1_555
H22 C27 1_555 1_555
C28 C24 1_555 1_555
H23 C28 1_555 1_555
H24 C28 1_555 1_555
H25 C28 1_555 1_555
O2 C15 1_555 1_555
H26 O2 1_555 1_555
N2 C17 1_555 1_555
C4 C10 1_555 1_555
C6 C9 1_555 1_555
C8 C12 1_555 1_555
C13 N1 1_555 1_555
C20 C21 1_555 1_555
C22 N2 1_555 1_555
C23 C24 1_555 1_555
C26 C27 1_555 1_555

#END
