
#######################################################################
#
#                 Cambridge Crystallographic Data Centre
#                                CCDC 
#
#######################################################################
#
# If this CIF has been generated from an entry in the Cambridge 
# Structural Database, then it will include bibliographic, chemical, 
# crystal, experimental, refinement or atomic coordinate data resulting 
# from the CCDC's data processing and validation procedures.
#
#######################################################################

data_AVUFON
_chemical_formula_moiety         'C34 H39 N1 O2 S4'
_chemical_name_systematic        
"Ethyl 2-cyano-3-(3,3'''-dihexyl-2,2':5',2'':5'',2'''-quaterthiophen-5-yl)acrylate"
_symmetry_cell_setting           orthorhombic
_symmetry_space_group_name_H-M   'P b c a'
_symmetry_Int_Tables_number      61
_space_group_name_Hall           '-P 2ac 2ab'
loop_
_symmetry_equiv_pos_site_id
_symmetry_equiv_pos_as_xyz
1 x,y,z
2 1/2+x,1/2-y,-z
3 -x,1/2+y,1/2-z
4 1/2-x,-y,1/2+z
5 -x,-y,-z
6 1/2-x,1/2+y,z
7 x,1/2-y,1/2+z
8 1/2+x,y,1/2-z
_cell_length_a                   13.4194(18)
_cell_length_b                   32.541(4)
_cell_length_c                   14.978(3)
_cell_angle_alpha                90
_cell_angle_beta                 90
_cell_angle_gamma                90
_cell_volume                     6540.6
_exptl_crystal_colour            red
_exptl_crystal_description       platelet
_cell_formula_units_Z            8
loop_
_atom_site_label
_atom_site_type_symbol
_atom_site_fract_x
_atom_site_fract_y
_atom_site_fract_z
S1 S 0.58161(4) 0.13192(2) 0.68131(6)
S2 S 0.28392(4) 0.090751(17) 0.62589(4)
S3 S 0.07410(4) 0.044147(16) 0.61478(4)
S4 S -0.17395(4) -0.042940(16) 0.63272(4)
O1 O -0.57481(11) -0.06763(5) 0.56010(13)
O2 O -0.53658(10) -0.12760(5) 0.62579(11)
N1 N -0.29876(14) -0.12559(6) 0.70927(15)
C1 C 0.59950(19) 0.18127(8) 0.6452(2)
C2 C 0.52484(19) 0.19408(8) 0.5930(2)
C3 C 0.44907(16) 0.16436(7) 0.57913(17)
C4 C 0.46994(15) 0.12865(7) 0.62397(17)
C5 C 0.41256(14) 0.09057(6) 0.63229(15)
C6 C 0.44528(15) 0.05180(7) 0.65128(16)
C7 C 0.36898(16) 0.02236(6) 0.65885(16)
C8 C 0.27645(15) 0.03857(6) 0.64654(14)
C9 C 0.17999(15) 0.01810(6) 0.64696(15)
C10 C 0.15784(16) -0.02204(6) 0.66716(17)
C11 C 0.05632(16) -0.03102(6) 0.65719(16)
C12 C -0.00126(15) 0.00139(6) 0.62845(14)
C13 C -0.10676(15) 0.00173(6) 0.61023(14)
C14 C -0.16749(16) 0.03200(6) 0.57416(15)
C15 C -0.26602(16) 0.01844(7) 0.56460(16)
C16 C -0.28311(15) -0.02130(6) 0.59276(15)
C17 C -0.37890(15) -0.04067(7) 0.58696(16)
C18 C -0.41111(15) -0.07768(6) 0.61692(15)
C19 C -0.34942(16) -0.10490(7) 0.66758(16)
C20 C -0.51590(16) -0.08964(7) 0.59783(16)
C21 C -0.63745(16) -0.14225(8) 0.60605(19)
C22 C -0.6458(2) -0.18535(8) 0.6389(2)
C23 C 0.35977(16) 0.17279(7) 0.52163(17)
C24 C 0.27789(17) 0.19759(7) 0.56822(19)
C25 C 0.19108(19) 0.20873(8) 0.5063(2)
C26 C 0.13877(18) 0.17330(8) 0.4653(2)
C27 C 0.05120(18) 0.18601(7) 0.40568(18)
C28 C 0.0044(2) 0.14901(8) 0.3609(2)
C29 C -0.13756(16) 0.07514(6) 0.54829(16)
C30 C -0.14089(15) 0.10553(7) 0.62544(17)
C31 C -0.11799(17) 0.14943(7) 0.59697(17)
C32 C -0.12063(17) 0.18114(7) 0.67120(18)
C33 C -0.1041(2) 0.22477(7) 0.6402(2)
C34 C -0.1173(3) 0.25696(8) 0.7119(2)
H1 H 0.6570 0.1976 0.6612
H2 H 0.5238 0.2212 0.5662
H3 H 0.5148 0.0451 0.6597
H4 H 0.3809 -0.0061 0.6706
H5 H 0.2077 -0.0418 0.6854
H6 H 0.0280 -0.0575 0.6713
H7 H -0.3179 0.0355 0.5405
H8 H -0.4289 -0.0243 0.5564
H9 H -0.6865 -0.1248 0.6312
H10 H -0.6480 -0.1421 0.5411
H11 H -0.7096 -0.1965 0.6285
H12 H -0.5961 -0.2024 0.6134
H13 H -0.6348 -0.1851 0.7035
H14 H 0.3807 0.1878 0.4694
H15 H 0.3322 0.1472 0.5014
H16 H 0.2514 0.1812 0.6168
H17 H 0.3066 0.2217 0.5941
H18 H 0.1446 0.2258 0.5372
H19 H 0.2188 0.2256 0.4578
H20 H 0.1847 0.1566 0.4313
H21 H 0.1137 0.1555 0.5131
H22 H 0.0012 0.1999 0.4405
H23 H 0.0741 0.2050 0.3609
H24 H -0.0192 0.1299 0.4042
H25 H -0.0497 0.1566 0.3229
H26 H 0.0535 0.1350 0.3245
H27 H -0.0714 0.0746 0.5240
H28 H -0.1815 0.0848 0.5016
H29 H -0.2059 0.1047 0.6521
H30 H -0.0935 0.0972 0.6698
H31 H -0.0534 0.1500 0.5704
H32 H -0.1658 0.1575 0.5527
H33 H -0.1841 0.1794 0.7014
H34 H -0.0703 0.1741 0.7149
H35 H -0.0379 0.2272 0.6166
H36 H -0.1501 0.2306 0.5927
H37 H -0.0710 0.2526 0.7595
H38 H -0.1066 0.2842 0.6888
H39 H -0.1833 0.2559 0.7360
loop_
_geom_bond_atom_site_label_1
_geom_bond_atom_site_label_2
_geom_bond_site_symmetry_1
_geom_bond_site_symmetry_2
S1 C1 1_555 1_555
S2 C5 1_555 1_555
S3 C9 1_555 1_555
S4 C13 1_555 1_555
O1 C20 1_555 1_555
O2 C20 1_555 1_555
N1 C19 1_555 1_555
C1 C2 1_555 1_555
C2 C3 1_555 1_555
C3 C4 1_555 1_555
C4 S1 1_555 1_555
C5 C4 1_555 1_555
C6 C5 1_555 1_555
C7 C6 1_555 1_555
C8 S2 1_555 1_555
C9 C8 1_555 1_555
C10 C9 1_555 1_555
C11 C10 1_555 1_555
C12 S3 1_555 1_555
C13 C12 1_555 1_555
C14 C13 1_555 1_555
C15 C14 1_555 1_555
C16 S4 1_555 1_555
C17 C16 1_555 1_555
C18 C17 1_555 1_555
C19 C18 1_555 1_555
C20 C18 1_555 1_555
C21 O2 1_555 1_555
C22 C21 1_555 1_555
C23 C3 1_555 1_555
C24 C23 1_555 1_555
C25 C24 1_555 1_555
C26 C25 1_555 1_555
C27 C26 1_555 1_555
C28 C27 1_555 1_555
C29 C14 1_555 1_555
C30 C29 1_555 1_555
C31 C30 1_555 1_555
C32 C31 1_555 1_555
C33 C32 1_555 1_555
C34 C33 1_555 1_555
H1 C1 1_555 1_555
H2 C2 1_555 1_555
H3 C6 1_555 1_555
H4 C7 1_555 1_555
H5 C10 1_555 1_555
H6 C11 1_555 1_555
H7 C15 1_555 1_555
H8 C17 1_555 1_555
H9 C21 1_555 1_555
H10 C21 1_555 1_555
H11 C22 1_555 1_555
H12 C22 1_555 1_555
H13 C22 1_555 1_555
H14 C23 1_555 1_555
H15 C23 1_555 1_555
H16 C24 1_555 1_555
H17 C24 1_555 1_555
H18 C25 1_555 1_555
H19 C25 1_555 1_555
H20 C26 1_555 1_555
H21 C26 1_555 1_555
H22 C27 1_555 1_555
H23 C27 1_555 1_555
H24 C28 1_555 1_555
H25 C28 1_555 1_555
H26 C28 1_555 1_555
H27 C29 1_555 1_555
H28 C29 1_555 1_555
H29 C30 1_555 1_555
H30 C30 1_555 1_555
H31 C31 1_555 1_555
H32 C31 1_555 1_555
H33 C32 1_555 1_555
H34 C32 1_555 1_555
H35 C33 1_555 1_555
H36 C33 1_555 1_555
H37 C34 1_555 1_555
H38 C34 1_555 1_555
H39 C34 1_555 1_555
C7 C8 1_555 1_555
C11 C12 1_555 1_555
C15 C16 1_555 1_555

#END
