
#######################################################################
#
#                 Cambridge Crystallographic Data Centre
#                                CCDC 
#
#######################################################################
#
# If this CIF has been generated from an entry in the Cambridge 
# Structural Database, then it will include bibliographic, chemical, 
# crystal, experimental, refinement or atomic coordinate data resulting 
# from the CCDC's data processing and validation procedures.
#
#######################################################################

data_AVULUY01
_chemical_formula_moiety         'C7 H5 N3 O1 S1'
_chemical_name_systematic        5-(4-Pyridyl)-1,3,4-oxadiazole-2(3H)-thione
_symmetry_cell_setting           monoclinic
_symmetry_space_group_name_H-M   'P 21/n'
_symmetry_Int_Tables_number      14
_space_group_name_Hall           '-P 2yn'
loop_
_symmetry_equiv_pos_site_id
_symmetry_equiv_pos_as_xyz
1 x,y,z
2 1/2-x,1/2+y,1/2-z
3 -x,-y,-z
4 1/2+x,1/2-y,1/2+z
_cell_length_a                   4.8689(10)
_cell_length_b                   13.890(3)
_cell_length_c                   11.811(2)
_cell_angle_alpha                90
_cell_angle_beta                 97.998(4)
_cell_angle_gamma                90
_cell_volume                     790.997
_exptl_crystal_colour            yellow
_exptl_crystal_description       needle
_chemical_melting_point          '272 deg.C'
_cell_formula_units_Z            4
loop_
_atom_site_label
_atom_site_type_symbol
_atom_site_fract_x
_atom_site_fract_y
_atom_site_fract_z
S1 S 0.21001(12) 0.02286(4) 0.22953(5)
O1 O 0.5788(3) -0.08729(8) 0.35860(10)
C1 C 1.1611(4) -0.34004(15) 0.53582(17)
H1 H 1.226(5) -0.4072(18) 0.545(2)
C2 C 0.9327(4) -0.31352(13) 0.46060(17)
H2 H 0.829(5) -0.3579(15) 0.4155(19)
C3 C 0.8608(4) -0.21636(12) 0.45351(14)
C4 C 1.0207(4) -0.15158(14) 0.52341(16)
H3 H 0.975(5) -0.0851(17) 0.5176(19)
C5 C 1.2450(4) -0.18521(14) 0.59624(17)
H4 H 1.364(5) -0.1404(16) 0.6448(19)
C6 C 0.6250(4) -0.18417(12) 0.37388(14)
C7 C 0.3464(4) -0.07973(13) 0.27786(15)
N1 N 1.3173(3) -0.27787(12) 0.60266(13)
N2 N 0.4463(3) -0.23597(11) 0.31197(13)
N3 N 0.2729(3) -0.16996(11) 0.25191(13)
H5 H 0.118(6) -0.1927(17) 0.201(2)
loop_
_geom_bond_atom_site_label_1
_geom_bond_atom_site_label_2
_geom_bond_site_symmetry_1
_geom_bond_site_symmetry_2
S1 C7 1_555 1_555
O1 C6 1_555 1_555
C1 H1 1_555 1_555
C2 C1 1_555 1_555
H2 C2 1_555 1_555
C3 C2 1_555 1_555
C4 C3 1_555 1_555
H3 C4 1_555 1_555
C5 C4 1_555 1_555
H4 C5 1_555 1_555
C6 C3 1_555 1_555
C7 O1 1_555 1_555
N1 C1 1_555 1_555
N2 C6 1_555 1_555
N3 C7 1_555 1_555
H5 N3 1_555 1_555
C5 N1 1_555 1_555
N2 N3 1_555 1_555

#END
