
#######################################################################
#
#                 Cambridge Crystallographic Data Centre
#                                CCDC 
#
#######################################################################
#
# If this CIF has been generated from an entry in the Cambridge 
# Structural Database, then it will include bibliographic, chemical, 
# crystal, experimental, refinement or atomic coordinate data resulting 
# from the CCDC's data processing and validation procedures.
#
#######################################################################

data_AVUQEO
_chemical_formula_moiety         'C33 H27 N3 P2'
_chemical_name_systematic        
"N-(Diphenylphosphino)-P,P-diphenyl-N'-quinolin-8-ylphosphinous hydrazide"
_symmetry_cell_setting           monoclinic
_symmetry_space_group_name_H-M   'P 21/n'
_symmetry_Int_Tables_number      14
_space_group_name_Hall           '-P 2yn'
loop_
_symmetry_equiv_pos_site_id
_symmetry_equiv_pos_as_xyz
1 x,y,z
2 1/2-x,1/2+y,1/2-z
3 -x,-y,-z
4 1/2+x,1/2-y,1/2+z
_cell_length_a                   9.3768(4)
_cell_length_b                   28.0714(12)
_cell_length_c                   10.5737(5)
_cell_angle_alpha                90
_cell_angle_beta                 100.8010(10)
_cell_angle_gamma                90
_cell_volume                     2733.9
_exptl_crystal_colour            yellow
_exptl_crystal_description       prism
_cell_formula_units_Z            4
loop_
_atom_site_label
_atom_site_type_symbol
_atom_site_fract_x
_atom_site_fract_y
_atom_site_fract_z
P1 P -0.43310(3) 0.110422(11) 0.27793(3)
P2 P -0.25159(3) 0.198039(11) 0.23993(3)
N1 N -0.34277(11) 0.14599(4) 0.18596(10)
N2 N -0.29527(12) 0.12657(4) 0.07720(10)
H1 H -0.2548(18) 0.0982(6) 0.0867(16)
N3 N -0.25004(12) 0.06667(4) -0.10652(10)
C1 C -0.59181(13) 0.08978(4) 0.16324(12)
C2 C -0.72647(15) 0.10701(5) 0.18098(16)
H2 H -0.7299(18) 0.1269(6) 0.2536(17)
C3 C -0.85283(16) 0.09484(6) 0.09502(18)
H3 H -0.944(2) 0.1067(7) 0.110(2)
C4 C -0.84487(17) 0.06574(6) -0.00879(17)
H4 H -0.927(2) 0.0569(7) -0.071(2)
C5 C -0.71217(18) 0.04770(6) -0.02615(15)
H5 H -0.706(2) 0.0269(7) -0.0999(19)
C6 C -0.58588(15) 0.05944(5) 0.05973(13)
H6 H -0.4952(18) 0.0471(6) 0.0493(15)
C7 C -0.31954(14) 0.05668(4) 0.30047(11)
C8 C -0.37945(16) 0.01303(5) 0.32641(13)
H7 H -0.477(2) 0.0115(6) 0.3220(16)
C9 C -0.29180(17) -0.02682(5) 0.35850(14)
H8 H -0.334(2) -0.0568(7) 0.3757(18)
C10 C -0.14302(17) -0.02382(5) 0.36414(14)
H9 H -0.078(2) -0.0520(6) 0.3854(17)
C11 C -0.08238(16) 0.01934(5) 0.33887(13)
H10 H 0.0201(19) 0.0227(6) 0.3450(16)
C12 C -0.16916(14) 0.05940(5) 0.30839(12)
H11 H -0.1232(17) 0.0895(6) 0.2953(15)
C13 C -0.38898(14) 0.22828(4) 0.31256(12)
C14 C -0.34583(17) 0.25794(5) 0.41846(15)
H12 H -0.243(2) 0.2599(6) 0.4598(17)
C15 C -0.4482(2) 0.28429(6) 0.46825(17)
H13 H -0.417(2) 0.3033(8) 0.540(2)
C16 C -0.59363(19) 0.28182(6) 0.41226(17)
H14 H -0.658(2) 0.2999(8) 0.451(2)
C17 C -0.63736(16) 0.25369(5) 0.30493(16)
H15 H -0.740(2) 0.2528(7) 0.2643(18)
C18 C -0.53581(15) 0.22698(5) 0.25480(14)
H16 H -0.5661(18) 0.2070(6) 0.1765(16)
C19 C -0.11829(14) 0.18202(4) 0.38400(12)
C20 C 0.02766(15) 0.18679(5) 0.37551(15)
H17 H 0.050(2) 0.1983(6) 0.2951(18)
C21 C 0.13687(16) 0.17551(6) 0.47957(17)
H18 H 0.236(2) 0.1799(7) 0.4716(19)
C22 C 0.10121(16) 0.15895(6) 0.59307(15)
H19 H 0.179(2) 0.1516(7) 0.6651(18)
C23 C -0.04358(16) 0.15375(5) 0.60302(14)
H20 H -0.0666(18) 0.1442(6) 0.6800(17)
C24 C -0.15255(15) 0.16552(5) 0.49942(13)
H21 H -0.2499(19) 0.1633(6) 0.5049(16)
C25 C -0.33725(13) 0.10503(4) -0.14472(12)
C26 C -0.36935(13) 0.13601(4) -0.04637(12)
C27 C -0.46060(14) 0.17427(5) -0.08009(13)
H22 H -0.4813(16) 0.1956(5) -0.0156(15)
C28 C -0.51827(15) 0.18344(5) -0.21106(13)
H23 H -0.5789(18) 0.2120(6) -0.2332(16)
C29 C -0.48675(15) 0.15525(5) -0.30733(13)
H24 H -0.5222(17) 0.1615(6) -0.3920(16)
C30 C -0.39601(14) 0.11491(5) -0.27563(12)
C31 C -0.36046(14) 0.08293(5) -0.36795(13)
H25 H -0.4002(18) 0.0892(6) -0.4601(17)
C32 C -0.27222(15) 0.04489(5) -0.32962(13)
H26 H -0.2465(17) 0.0238(6) -0.3903(16)
C33 C -0.22022(14) 0.03802(5) -0.19710(13)
H27 H -0.1605(19) 0.0104(6) -0.1689(16)
loop_
_geom_bond_atom_site_label_1
_geom_bond_atom_site_label_2
_geom_bond_site_symmetry_1
_geom_bond_site_symmetry_2
P1 N1 1_555 1_555
P2 N1 1_555 1_555
N1 N2 1_555 1_555
N2 H1 1_555 1_555
N3 C25 1_555 1_555
C1 P1 1_555 1_555
C2 C1 1_555 1_555
H2 C2 1_555 1_555
C3 C2 1_555 1_555
H3 C3 1_555 1_555
C4 C3 1_555 1_555
H4 C4 1_555 1_555
C5 C4 1_555 1_555
H5 C5 1_555 1_555
C6 C1 1_555 1_555
H6 C6 1_555 1_555
C7 P1 1_555 1_555
C8 C7 1_555 1_555
H7 C8 1_555 1_555
C9 C8 1_555 1_555
H8 C9 1_555 1_555
C10 C9 1_555 1_555
H9 C10 1_555 1_555
C11 C10 1_555 1_555
H10 C11 1_555 1_555
C12 C7 1_555 1_555
H11 C12 1_555 1_555
C13 P2 1_555 1_555
C14 C13 1_555 1_555
H12 C14 1_555 1_555
C15 C14 1_555 1_555
H13 C15 1_555 1_555
C16 C15 1_555 1_555
H14 C16 1_555 1_555
C17 C16 1_555 1_555
H15 C17 1_555 1_555
C18 C13 1_555 1_555
H16 C18 1_555 1_555
C19 P2 1_555 1_555
C20 C19 1_555 1_555
H17 C20 1_555 1_555
C21 C20 1_555 1_555
H18 C21 1_555 1_555
C22 C21 1_555 1_555
H19 C22 1_555 1_555
C23 C22 1_555 1_555
H20 C23 1_555 1_555
C24 C19 1_555 1_555
H21 C24 1_555 1_555
C25 C26 1_555 1_555
C26 N2 1_555 1_555
C27 C26 1_555 1_555
H22 C27 1_555 1_555
C28 C27 1_555 1_555
H23 C28 1_555 1_555
C29 C28 1_555 1_555
H24 C29 1_555 1_555
C30 C25 1_555 1_555
C31 C30 1_555 1_555
H25 C31 1_555 1_555
C32 C31 1_555 1_555
H26 C32 1_555 1_555
C33 N3 1_555 1_555
H27 C33 1_555 1_555
C5 C6 1_555 1_555
C11 C12 1_555 1_555
C17 C18 1_555 1_555
C23 C24 1_555 1_555
C29 C30 1_555 1_555
C32 C33 1_555 1_555

#END
