
#######################################################################
#
#                 Cambridge Crystallographic Data Centre
#                                CCDC 
#
#######################################################################
#
# If this CIF has been generated from an entry in the Cambridge 
# Structural Database, then it will include bibliographic, chemical, 
# crystal, experimental, refinement or atomic coordinate data resulting 
# from the CCDC's data processing and validation procedures.
#
#######################################################################

data_AVUROZ
_chemical_formula_moiety         'C75 H16,C1 H1 Cl3'
_chemical_name_systematic        
'1,2-Dihydromethano-1,4-dibenzyl-C60fullerene chloroform solvate'
_symmetry_cell_setting           monoclinic
_symmetry_space_group_name_H-M   'P 21/c'
_symmetry_Int_Tables_number      14
_space_group_name_Hall           '-P 2ybc'
loop_
_symmetry_equiv_pos_site_id
_symmetry_equiv_pos_as_xyz
1 x,y,z
2 -x,1/2+y,1/2-z
3 -x,-y,-z
4 x,1/2-y,1/2+z
_cell_length_a                   9.9678(3)
_cell_length_b                   22.5433(7)
_cell_length_c                   20.4289(6)
_cell_angle_alpha                90
_cell_angle_beta                 101.6438(17)
_cell_angle_gamma                90
_cell_volume                     4496.05
_exptl_crystal_colour            black
_exptl_crystal_description       block
_cell_formula_units_Z            2
loop_
_atom_site_label
_atom_site_type_symbol
_atom_site_fract_x
_atom_site_fract_y
_atom_site_fract_z
Cl1 Cl 0.2247(8) 0.5232(4) 0.4435(3)
Cl2 Cl 0.4349(5) 0.46891(18) 0.3940(2)
Cl3 Cl 0.1967(4) 0.51341(19) 0.30136(18)
C76 C 0.2576(16) 0.4762(7) 0.3829(7)
H16 H 0.2121 0.4369 0.3847
Cl4 Cl 0.0752(3) 0.63054(14) 0.65498(15)
Cl5 Cl 0.2705(3) 0.63699(15) 0.56845(18)
Cl6 Cl 0.1397(6) 0.52468(17) 0.5949(2)
C77 C 0.176(2) 0.5977(6) 0.6129(12)
H15 H 0.2519 0.5902 0.6521
C1 C 0.2680(6) 0.3130(3) 0.7904(3)
C2 C 0.1464(7) 0.3382(3) 0.7403(3)
C3 C 0.1804(6) 0.3744(3) 0.6866(3)
C4 C 0.3064(6) 0.3902(2) 0.6825(3)
C5 C 0.4377(5) 0.3808(2) 0.7378(3)
C6 C 0.4108(5) 0.3287(2) 0.7807(3)
C7 C 0.4911(6) 0.2806(2) 0.7940(3)
C8 C 0.4119(7) 0.2281(3) 0.8076(3)
C9 C 0.2696(8) 0.2488(3) 0.8011(3)
C10 C 0.1635(7) 0.2112(3) 0.7748(3)
C11 C 0.0487(7) 0.2344(3) 0.7263(4)
C12 C 0.0413(6) 0.2923(4) 0.7074(3)
C13 C 0.0024(7) 0.3104(4) 0.6377(4)
C14 C 0.0810(7) 0.3575(3) 0.6237(3)
C15 C 0.1207(7) 0.3638(3) 0.5633(4)
C16 C 0.2562(8) 0.3814(3) 0.5590(4)
C17 C 0.3497(8) 0.3932(3) 0.6175(3)
C18 C 0.4918(7) 0.3734(2) 0.6252(3)
C19 C 0.5381(6) 0.3593(2) 0.6948(3)
C20 C 0.6224(5) 0.3114(2) 0.7097(3)
C21 C 0.6255(6) 0.2718(2) 0.7718(3)
C22 C 0.6303(6) 0.2096(3) 0.7403(3)
C23 C 0.5521(7) 0.1635(3) 0.7536(3)
C24 C 0.4423(8) 0.1719(3) 0.7887(3)
C25 C 0.3300(7) 0.1318(3) 0.7606(3)
C26 C 0.1961(8) 0.1525(3) 0.7548(4)
C27 C 0.0951(8) 0.1390(3) 0.6930(4)
C28 C 0.0076(7) 0.1873(4) 0.6752(4)
C29 C -0.0388(6) 0.2034(4) 0.6102(4)
C30 C -0.0431(6) 0.2657(4) 0.5897(4)
C31 C -0.0036(7) 0.2698(4) 0.5254(3)
C32 C 0.0765(8) 0.3177(4) 0.5117(3)
C33 C 0.1876(9) 0.3069(4) 0.4766(4)
C34 C 0.2991(8) 0.3484(4) 0.5068(4)
C35 C 0.4321(9) 0.3272(3) 0.5131(3)
C36 C 0.5316(7) 0.3436(3) 0.5748(3)
C37 C 0.6187(7) 0.2940(4) 0.5920(3)
C38 C 0.6617(6) 0.2776(3) 0.6569(3)
C39 C 0.6654(6) 0.2144(3) 0.6768(3)
C40 C 0.6278(7) 0.1705(3) 0.6283(4)
C41 C 0.5503(7) 0.1232(3) 0.6414(4)
C42 C 0.5082(7) 0.1172(3) 0.7030(4)
C43 C 0.3749(8) 0.1000(3) 0.7091(4)
C44 C 0.2777(8) 0.0858(3) 0.6500(4)
C45 C 0.1378(8) 0.1055(3) 0.6433(4)
C46 C 0.0921(7) 0.1215(3) 0.5747(3)
C47 C 0.0036(7) 0.1700(4) 0.5565(4)
C48 C 0.0245(6) 0.2112(3) 0.5054(3)
C49 C 0.1314(7) 0.2019(4) 0.4721(3)
C50 C 0.2132(8) 0.2531(4) 0.4574(3)
C51 C 0.3577(9) 0.2311(4) 0.4662(3)
C52 C 0.4643(8) 0.2689(4) 0.4939(3)
C53 C 0.5767(8) 0.2464(3) 0.5411(4)
C54 C 0.5818(6) 0.1886(3) 0.5599(3)
C55 C 0.4656(7) 0.1474(3) 0.5284(4)
C56 C 0.3602(7) 0.1691(3) 0.4849(3)
C57 C 0.2188(7) 0.1507(4) 0.4877(3)
C58 C 0.2030(7) 0.1120(3) 0.5374(4)
C59 C 0.3199(7) 0.0907(3) 0.5852(4)
C60 C 0.4493(8) 0.1070(3) 0.5804(4)
C61 C 0.1680(7) 0.3546(3) 0.8140(3)
C62 C 0.4896(6) 0.4379(2) 0.7758(3)
C63 C 0.3903(6) 0.4675(2) 0.8137(3)
C64 C 0.4088(5) 0.4618(2) 0.8819(2)
C65 C 0.3184(7) 0.4879(3) 0.9164(3)
C66 C 0.2040(6) 0.5194(3) 0.8841(4)
C67 C 0.1846(6) 0.5243(2) 0.8126(3)
C68 C 0.2779(6) 0.4979(2) 0.7800(3)
C69 C 0.7569(6) 0.2791(3) 0.8293(3)
C70 C 0.8473(6) 0.3828(3) 0.8353(3)
C71 C 0.8735(7) 0.4384(3) 0.8687(4)
C72 C 0.8302(6) 0.4466(3) 0.9266(3)
C73 C 0.7537(6) 0.4034(3) 0.9512(3)
C74 C 0.7278(6) 0.3500(3) 0.9189(3)
C75 C 0.7767(5) 0.3384(2) 0.8599(3)
H1 H 0.1045 0.3374 0.8404
H2 H 0.1996 0.3953 0.8271
H3 H 0.2637 0.5008 0.7327
H4 H 0.1085 0.5455 0.7880
H5 H 0.1416 0.5367 0.9081
H6 H 0.3351 0.4843 0.9637
H7 H 0.4843 0.4396 0.9055
H8 H 0.7514 0.2499 0.8649
H9 H 0.8387 0.2692 0.8109
H10 H 0.6765 0.3206 0.9364
H11 H 0.7193 0.4109 0.9905
H12 H 0.8523 0.4824 0.9509
H13 H 0.9204 0.4691 0.8506
H14 H 0.8794 0.3762 0.7952
H17 H 0.5751 0.4285 0.8081
H18 H 0.5130 0.4668 0.7434
loop_
_geom_bond_atom_site_label_1
_geom_bond_atom_site_label_2
_geom_bond_site_symmetry_1
_geom_bond_site_symmetry_2
Cl1 C76 1_555 1_555
Cl2 C76 1_555 1_555
Cl3 C76 1_555 1_555
Cl4 C77 1_555 1_555
Cl5 C77 1_555 1_555
Cl6 C77 1_555 1_555
C1 C2 1_555 1_555
C2 C3 1_555 1_555
C3 C4 1_555 1_555
C4 C5 1_555 1_555
C5 C6 1_555 1_555
C6 C1 1_555 1_555
C7 C6 1_555 1_555
C8 C7 1_555 1_555
C9 C1 1_555 1_555
C10 C9 1_555 1_555
C11 C10 1_555 1_555
C12 C2 1_555 1_555
C13 C12 1_555 1_555
C14 C3 1_555 1_555
C15 C14 1_555 1_555
C16 C15 1_555 1_555
C17 C4 1_555 1_555
C18 C17 1_555 1_555
C19 C5 1_555 1_555
C20 C19 1_555 1_555
C21 C7 1_555 1_555
C22 C21 1_555 1_555
C23 C22 1_555 1_555
C24 C8 1_555 1_555
C25 C24 1_555 1_555
C26 C10 1_555 1_555
C27 C26 1_555 1_555
C28 C11 1_555 1_555
C29 C28 1_555 1_555
C30 C13 1_555 1_555
C31 C30 1_555 1_555
C32 C15 1_555 1_555
C33 C32 1_555 1_555
C34 C16 1_555 1_555
C35 C34 1_555 1_555
C36 C18 1_555 1_555
C37 C36 1_555 1_555
C38 C20 1_555 1_555
C39 C22 1_555 1_555
C40 C39 1_555 1_555
C41 C40 1_555 1_555
C42 C23 1_555 1_555
C43 C25 1_555 1_555
C44 C43 1_555 1_555
C45 C27 1_555 1_555
C46 C45 1_555 1_555
C47 C29 1_555 1_555
C48 C31 1_555 1_555
C49 C48 1_555 1_555
C50 C33 1_555 1_555
C51 C50 1_555 1_555
C52 C35 1_555 1_555
C53 C37 1_555 1_555
C54 C40 1_555 1_555
C55 C54 1_555 1_555
C56 C51 1_555 1_555
C57 C49 1_555 1_555
C58 C46 1_555 1_555
C59 C44 1_555 1_555
C60 C41 1_555 1_555
C61 C1 1_555 1_555
C62 C5 1_555 1_555
C63 C62 1_555 1_555
C64 C63 1_555 1_555
C65 C64 1_555 1_555
C66 C65 1_555 1_555
C67 C66 1_555 1_555
C68 C63 1_555 1_555
C69 C21 1_555 1_555
C70 C71 1_555 1_555
C71 C72 1_555 1_555
C72 C73 1_555 1_555
C73 C74 1_555 1_555
C74 C75 1_555 1_555
C75 C69 1_555 1_555
C76 H16 1_555 1_555
C77 H15 1_555 1_555
H1 C61 1_555 1_555
H2 C61 1_555 1_555
H3 C68 1_555 1_555
H4 C67 1_555 1_555
H5 C66 1_555 1_555
H6 C65 1_555 1_555
H7 C64 1_555 1_555
H8 C69 1_555 1_555
H9 C69 1_555 1_555
H10 C74 1_555 1_555
H11 C73 1_555 1_555
H12 C72 1_555 1_555
H13 C71 1_555 1_555
H14 C70 1_555 1_555
H17 C62 1_555 1_555
H18 C62 1_555 1_555
C2 C61 1_555 1_555
C8 C9 1_555 1_555
C11 C12 1_555 1_555
C13 C14 1_555 1_555
C16 C17 1_555 1_555
C18 C19 1_555 1_555
C20 C21 1_555 1_555
C23 C24 1_555 1_555
C25 C26 1_555 1_555
C27 C28 1_555 1_555
C29 C30 1_555 1_555
C31 C32 1_555 1_555
C33 C34 1_555 1_555
C35 C36 1_555 1_555
C37 C38 1_555 1_555
C38 C39 1_555 1_555
C41 C42 1_555 1_555
C42 C43 1_555 1_555
C44 C45 1_555 1_555
C46 C47 1_555 1_555
C47 C48 1_555 1_555
C49 C50 1_555 1_555
C51 C52 1_555 1_555
C52 C53 1_555 1_555
C53 C54 1_555 1_555
C55 C56 1_555 1_555
C55 C60 1_555 1_555
C56 C57 1_555 1_555
C57 C58 1_555 1_555
C58 C59 1_555 1_555
C59 C60 1_555 1_555
C67 C68 1_555 1_555
C70 C75 1_555 1_555

#END
