
#######################################################################
#
#                 Cambridge Crystallographic Data Centre
#                                CCDC 
#
#######################################################################
#
# If this CIF has been generated from an entry in the Cambridge 
# Structural Database, then it will include bibliographic, chemical, 
# crystal, experimental, refinement or atomic coordinate data resulting 
# from the CCDC's data processing and validation procedures.
#
#######################################################################

data_AVUXUM
_chemical_formula_moiety         'C52 H45 F6 N5 O6,0.25(C6 H6),C2 H3 N1'
_chemical_name_systematic        
"1-(3,5-bis(trifluoromethyl)phenyl)-3-(4-(5'-(3,11,18,21,24-pentaoxa-33-azatetracyclo[24.2.2.2^13,16^.1^5,9^]tritriaconta-1(28),5(33),6,8,13,15,26,29,31-nonaen-7-yl)-2,2'-bipyridin-5-yl)phenyl)urea benzene acetonitrile solvate"
_symmetry_cell_setting           triclinic
_symmetry_space_group_name_H-M   'P -1'
_symmetry_Int_Tables_number      2
_space_group_name_Hall           '-P 1'
loop_
_symmetry_equiv_pos_site_id
_symmetry_equiv_pos_as_xyz
1 x,y,z
2 -x,-y,-z
_cell_length_a                   19.6706(5)
_cell_length_b                   22.8014(5)
_cell_length_c                   25.4507(5)
_cell_angle_alpha                99.269(2)
_cell_angle_beta                 107.063(2)
_cell_angle_gamma                106.023(2)
_cell_volume                     10118.2
_exptl_crystal_colour            colorless
_exptl_crystal_description       plate
_cell_formula_units_Z            8
loop_
_atom_site_label
_atom_site_type_symbol
_atom_site_fract_x
_atom_site_fract_y
_atom_site_fract_z
O1 O 1.1725(3) 0.4310(2) 0.2101(2)
O2 O 1.1121(3) 0.5417(2) -0.0296(2)
O3 O 1.1957(3) 0.6647(2) -0.01329(19)
O4 O 1.2865(3) 0.7571(2) 0.0982(2)
O5 O 1.2707(3) 0.7332(2) 0.3668(2)
O6 O 0.3310(2) 0.2933(2) 0.4103(2)
N1 N 1.2675(3) 0.5860(2) 0.3071(2)
N2 N 1.0049(3) 0.5233(3) 0.4167(3)
N3 N 0.8048(3) 0.4295(3) 0.3441(3)
N4 N 0.4585(3) 0.3301(2) 0.4443(2)
H1 H 0.4593 0.3401 0.4793
C1 C 1.2544(3) 0.6227(3) 0.3461(3)
C2 C 1.1917(3) 0.6043(3) 0.3622(3)
H2 H 1.1847 0.6328 0.3900
C3 C 1.1395(3) 0.5437(3) 0.3368(3)
C4 C 1.1538(3) 0.5050(3) 0.2959(3)
H3 H 1.1201 0.4628 0.2777
C5 C 1.2171(3) 0.5282(3) 0.2819(3)
C6 C 1.2326(3) 0.4897(3) 0.2358(3)
H4 H 1.2375 0.5130 0.2067
H5 H 1.2808 0.4822 0.2523
C7 C 1.1797(4) 0.3946(3) 0.1636(3)
H6 H 1.1466 0.3502 0.1553
H7 H 1.2326 0.3953 0.1740
C8 C 1.1598(4) 0.4168(3) 0.1108(3)
C9 C 1.2029(4) 0.4204(3) 0.0763(4)
H8 H 1.2478 0.4102 0.0872
C10 C 1.1820(5) 0.4385(3) 0.0261(3)
H9 H 1.2125 0.4404 0.0031
C11 C 1.1161(4) 0.4541(3) 0.0091(3)
C12 C 1.0736(4) 0.4505(3) 0.0433(3)
H10 H 1.0284 0.4604 0.0324
C13 C 1.0950(4) 0.4329(3) 0.0932(3)
H11 H 1.0647 0.4317 0.1163
C14 C 1.0948(5) 0.4758(3) -0.0448(3)
H12 H 1.1233 0.4647 -0.0688
H13 H 1.0401 0.4546 -0.0670
C15 C 1.1087(4) 0.5672(3) -0.0765(3)
H14 H 1.0580 0.5465 -0.1066
H15 H 1.1467 0.5597 -0.0925
C16 C 1.1242(4) 0.6363(3) -0.0577(3)
H16 H 1.1240 0.6553 -0.0901
H17 H 1.0843 0.6438 -0.0441
C17 C 1.2221(5) 0.7320(3) -0.0014(3)
H18 H 1.1847 0.7483 0.0088
H19 H 1.2270 0.7445 -0.0360
C18 C 1.2959(4) 0.7604(3) 0.0457(3)
H20 H 1.3303 0.7376 0.0396
H21 H 1.3192 0.8052 0.0465
C19 C 1.3551(4) 0.7847(4) 0.1440(4)
H22 H 1.3787 0.8290 0.1439
H23 H 1.3898 0.7617 0.1395
C20 C 1.3443(4) 0.7837(3) 0.2010(3)
C21 C 1.2742(5) 0.7549(3) 0.2026(3)
H24 H 1.2320 0.7345 0.1681
C22 C 1.2650(4) 0.7556(3) 0.2548(3)
H25 H 1.2166 0.7351 0.2560
C23 C 1.3268(4) 0.7863(3) 0.3053(3)
C24 C 1.3971(4) 0.8147(4) 0.3031(3)
H26 H 1.4395 0.8351 0.3374
C25 C 1.4061(4) 0.8137(4) 0.2505(4)
H27 H 1.4545 0.8334 0.2489
C26 C 1.3149(4) 0.7919(3) 0.3617(3)
H28 H 1.3648 0.8080 0.3929
H29 H 1.2893 0.8232 0.3661
C27 C 1.3110(4) 0.6893(3) 0.3716(3)
H30 H 1.3400 0.6949 0.4122
H31 H 1.3470 0.6971 0.3512
C28 C 1.0701(3) 0.5214(3) 0.3509(3)
C29 C 1.0032(4) 0.4784(3) 0.3091(3)
H32 H 1.0025 0.4625 0.2720
C30 C 0.9389(4) 0.4593(3) 0.3216(3)
H33 H 0.8934 0.4303 0.2931
C31 C 0.9403(3) 0.4816(3) 0.3742(3)
C32 C 1.0664(4) 0.5416(3) 0.4026(3)
H34 H 1.1112 0.5712 0.4314
C33 C 0.8709(3) 0.4618(3) 0.3887(3)
C34 C 0.8737(3) 0.4755(3) 0.4434(3)
H35 H 0.9207 0.4983 0.4735
C35 C 0.8081(4) 0.4564(3) 0.4551(3)
H36 H 0.8100 0.4659 0.4933
C36 C 0.7386(3) 0.4231(3) 0.4108(3)
C37 C 0.7410(4) 0.4113(4) 0.3562(3)
H37 H 0.6947 0.3888 0.3253
C38 C 0.6667(3) 0.4001(3) 0.4209(3)
C39 C 0.6004(4) 0.4012(3) 0.3833(3)
H38 H 0.6019 0.4182 0.3517
C40 C 0.5321(4) 0.3784(3) 0.3906(3)
H39 H 0.4874 0.3804 0.3647
C41 C 0.5289(4) 0.3524(3) 0.4360(3)
C42 C 0.5945(4) 0.3512(3) 0.4736(3)
H40 H 0.5928 0.3338 0.5049
C43 C 0.6632(3) 0.3751(3) 0.4664(3)
H41 H 0.7081 0.3742 0.4930
C44 C 0.3897(3) 0.2945(3) 0.4028(3)
N5 N 0.3927(3) 0.2593(2) 0.3550(2)
H42 H 0.4379 0.2618 0.3543
C45 C 0.33009(16) 0.21957(16) 0.30718(13)
C46 C 0.25821(19) 0.22389(16) 0.29440(15)
H43 H 0.2489 0.2537 0.3196
C47 C 0.19990(15) 0.18465(18) 0.24474(16)
C48 C 0.21347(18) 0.14110(17) 0.20785(13)
H44 H 0.1736 0.1143 0.1739
C49 C 0.2854(2) 0.13679(16) 0.22062(15)
C50 C 0.34367(16) 0.17602(18) 0.27028(16)
H45 H 0.3928 0.1731 0.2790
C51 C 0.1257(4) 0.1918(4) 0.2309(3)
F1 F 0.1232(3) 0.2415(3) 0.2611(3)
F2 F 0.0746(3) 0.1434(3) 0.2357(4)
F3 F 0.0954(4) 0.1922(4) 0.1773(3)
C52 C 0.3005(4) 0.0902(3) 0.1821(4)
F4 F 0.2412(3) 0.0355(2) 0.1584(3)
F5 F 0.3115(4) 0.1098(3) 0.1382(2)
F6 F 0.3579(4) 0.0740(3) 0.2067(3)
O7 O 1.1684(3) 0.8882(3) -0.1168(2)
O8 O 1.2120(5) 1.1430(6) -0.2206(7)
O9 O 1.3661(4) 1.1863(5) -0.1668(4)
O10 O 1.4846(4) 1.2304(4) -0.0561(3)
O11 O 1.4437(3) 1.0280(2) 0.1138(2)
O12 O 1.1238(2) 0.8406(2) 0.6082(2)
N6 N 1.2907(3) 0.9182(3) -0.0088(2)
N7 N 1.1013(3) 0.8405(3) 0.1562(2)
N8 N 1.1703(3) 0.8533(3) 0.3062(2)
N9 N 1.0027(3) 0.8000(3) 0.5437(2)
H46 H 0.9550 0.7848 0.5406
C53 C 1.3327(4) 0.9480(3) 0.0460(3)
C54 C 1.3065(3) 0.9391(3) 0.0903(3)
H47 H 1.3381 0.9614 0.1285
C55 C 1.2337(4) 0.8972(3) 0.0786(3)
C56 C 1.1900(4) 0.8680(3) 0.0216(3)
H48 H 1.1394 0.8403 0.0112
C57 C 1.2204(4) 0.8793(3) -0.0204(3)
C58 C 1.1759(5) 0.8470(4) -0.0828(3)
H49 H 1.2011 0.8192 -0.0968
H50 H 1.1248 0.8198 -0.0869
C59 C 1.1119(5) 0.9120(5) -0.1136(5)
H51 H 1.1227 0.9338 -0.0736
H52 H 1.0626 0.8771 -0.1274
C60 C 1.1089(3) 0.9577(3) -0.1501(3)
C61 C 1.1029(4) 0.9407(4) -0.2066(4)
H53 H 1.0952 0.8982 -0.2242
C62 C 1.1082(4) 0.9858(6) -0.2374(3)
H54 H 1.1041 0.9741 -0.2761
C63 C 1.1194(4) 1.0480(5) -0.2117(5)
C64 C 1.1254(4) 1.0651(3) -0.1551(5)
H55 H 1.1331 1.1076 -0.1375
C65 C 1.1201(4) 1.0199(4) -0.1243(4)
H56 H 1.1242 1.0316 -0.0857
C66 C 1.1348(8) 1.1045(10) -0.2389(11)
H57 H 1.1156 1.0876 -0.2808
H58 H 1.1056 1.1312 -0.2299
C67 C 1.2569(8) 1.1042(9) -0.2366(8)
H59 H 1.2326 1.0799 -0.2771
H60 H 1.2622 1.0744 -0.2126
C68 C 1.3332(7) 1.1529(8) -0.2258(7)
H61 H 1.3669 1.1317 -0.2362
H62 H 1.3268 1.1829 -0.2495
C69 C 1.4389(6) 1.2323(7) -0.1540(6)
H63 H 1.4341 1.2619 -0.1782
H64 H 1.4731 1.2107 -0.1629
C70 C 1.4717(9) 1.2677(7) -0.0943(6)
H65 H 1.5203 1.3007 -0.0879
H66 H 1.4373 1.2893 -0.0859
C71 C 1.5170(8) 1.2630(5) 0.0031(5)
H67 H 1.4860 1.2875 0.0129
H68 H 1.5688 1.2926 0.0123
C72 C 1.5190(5) 1.2146(4) 0.0359(4)
C73 C 1.4738(5) 1.2036(4) 0.0678(4)
H69 H 1.4423 1.2282 0.0699
C74 C 1.4734(5) 1.1578(5) 0.0971(4)
H70 H 1.4415 1.1510 0.1188
C75 C 1.5188(4) 1.1215(3) 0.0951(3)
C76 C 1.5649(4) 1.1324(4) 0.0629(3)
H71 H 1.5962 1.1077 0.0604
C77 C 1.5653(5) 1.1787(4) 0.0347(4)
H72 H 1.5982 1.1865 0.0138
C78 C 1.5181(4) 1.0724(4) 0.1268(3)
H73 H 1.5507 1.0491 0.1179
H74 H 1.5401 1.0934 0.1682
C79 C 1.4097(4) 0.9927(3) 0.0564(3)
H75 H 1.4414 0.9687 0.0471
H76 H 1.4057 1.0217 0.0315
C80 C 1.2063(4) 0.8833(3) 0.1255(3)
C81 C 1.2550(4) 0.8977(3) 0.1811(3)
H77 H 1.3078 0.9176 0.1904
C82 C 1.2276(4) 0.8835(3) 0.2233(3)
H78 H 1.2612 0.8929 0.2614
C83 C 1.1499(4) 0.8552(3) 0.2093(3)
C84 C 1.1299(4) 0.8561(3) 0.1160(3)
H79 H 1.0951 0.8479 0.0785
C85 C 1.1185(4) 0.8410(3) 0.2541(3)
C86 C 1.0422(4) 0.8184(3) 0.2437(3)
H80 H 1.0067 0.8091 0.2063
C87 C 1.0176(4) 0.8094(3) 0.2885(3)
H81 H 0.9649 0.7936 0.2816
C88 C 1.0686(3) 0.8231(3) 0.3427(3)
C89 C 1.1450(4) 0.8443(4) 0.3480(3)
H82 H 1.1817 0.8528 0.3848
C90 C 1.0485(4) 0.8184(3) 0.3942(3)
C91 C 0.9820(4) 0.7742(3) 0.3924(3)
H83 H 0.9467 0.7468 0.3569
C92 C 0.9667(3) 0.7698(3) 0.4414(3)
H84 H 0.9210 0.7396 0.4392
C93 C 1.0181(3) 0.8094(3) 0.4940(3)
C94 C 1.0830(4) 0.8561(3) 0.4968(3)
H85 H 1.1170 0.8848 0.5322
C95 C 1.0971(4) 0.8600(3) 0.4469(3)
H86 H 1.1412 0.8919 0.4488
C96 C 1.0569(3) 0.8132(3) 0.5958(3)
N10 N 1.0264(3) 0.7924(3) 0.6356(2)
H87 H 0.9787 0.7880 0.6294
C97 C 1.06619(18) 0.77794(19) 0.68472(15)
C98 C 1.02221(14) 0.74341(19) 0.71069(15)
H88 H 0.9689 0.7339 0.6969
C99 C 1.05618(18) 0.72285(18) 0.75677(15)
C100 C 1.13414(19) 0.7368(2) 0.77690(15)
H89 H 1.1574 0.7228 0.8084
C101 C 1.17812(14) 0.7714(2) 0.75093(17)
C102 C 1.14415(18) 0.79192(19) 0.70485(17)
H90 H 1.1742 0.8155 0.6871
C103 C 1.0103(3) 0.6873(3) 0.7857(3)
F7 F 1.0353(3) 0.6440(2) 0.8046(2)
F8 F 1.0066(3) 0.7247(2) 0.8302(2)
F9 F 0.9379(2) 0.6571(2) 0.75026(18)
C104 C 1.2592(4) 0.7818(4) 0.7706(3)
F10 F 1.2918(3) 0.7992(4) 0.8257(3)
F11 F 1.2740(3) 0.7300(3) 0.7533(3)
F12 F 1.2972(2) 0.8251(3) 0.7490(3)
O13 O 0.6846(3) 0.5364(3) 0.5416(2)
O14 O 0.5576(4) 0.6553(3) 0.7456(3)
O15 O 0.4904(3) 0.7504(3) 0.7292(3)
O16 O 0.4852(3) 0.8071(2) 0.6373(2)
O17 O 0.5406(3) 0.7267(3) 0.3858(2)
O18 O 1.2570(2) 0.5874(2) 0.15306(19)
N11 N 0.5713(3) 0.6071(2) 0.4567(2)
N12 N 0.8413(3) 0.6021(3) 0.3621(3)
N13 N 0.8508(5) 0.6159(5) 0.2243(3)
N14 N 1.1702(3) 0.6201(2) 0.0963(2)
H91 H 1.1575 0.6304 0.0639
C105 C 0.5725(3) 0.6378(3) 0.4165(3)
C106 C 0.6186(4) 0.6351(4) 0.3849(3)
H92 H 0.6184 0.6573 0.3564
C107 C 0.6663(4) 0.5982(4) 0.3959(3)
C108 C 0.6645(3) 0.5671(3) 0.4379(3)
H93 H 0.6955 0.5420 0.4463
C109 C 0.6169(3) 0.5729(3) 0.4677(3)
C110 C 0.6132(4) 0.5403(3) 0.5134(3)
H94 H 0.5975 0.5639 0.5412
H95 H 0.5751 0.4972 0.4967
C111 C 0.6831(5) 0.5032(4) 0.5846(4)
H96 H 0.7328 0.4980 0.6004
H97 H 0.6443 0.4605 0.5670
C112 C 0.6658(4) 0.5368(3) 0.6324(3)
C113 C 0.7139(7) 0.5936(4) 0.6673(4)
H98 H 0.7591 0.6119 0.6605
C114 C 0.7032(10) 0.6245(5) 0.7087(5)
H99 H 0.7419 0.6626 0.7329
C115 C 0.6421(8) 0.6054(6) 0.7182(4)
C116 C 0.5855(5) 0.5457(6) 0.6858(5)
H100 H 0.5406 0.5303 0.6939
C117 C 0.5989(4) 0.5097(4) 0.6403(4)
H101 H 0.5637 0.4696 0.6170
C118 C 0.6279(8) 0.6420(6) 0.7666(5)
H102 H 0.6247 0.6172 0.7949
H103 H 0.6707 0.6823 0.7858
C119 C 0.5396(8) 0.6903(6) 0.7858(5)
H104 H 0.5839 0.7288 0.8083
H105 H 0.5282 0.6651 0.8123
C120 C 0.4767(6) 0.7083(5) 0.7608(5)
H106 H 0.4336 0.6700 0.7361
H107 H 0.4617 0.7275 0.7914
C121 C 0.4271(5) 0.7652(5) 0.6983(5)
H108 H 0.3986 0.7735 0.7232
H109 H 0.3929 0.7288 0.6653
C122 C 0.4523(5) 0.8207(4) 0.6782(4)
H110 H 0.4087 0.8338 0.6611
H111 H 0.4899 0.8561 0.7108
C123 C 0.5127(5) 0.8615(4) 0.6193(4)
H112 H 0.5561 0.8935 0.6513
H113 H 0.4724 0.8801 0.6078
C124 C 0.5370(4) 0.8448(3) 0.5704(4)
C125 C 0.6116(4) 0.8509(3) 0.5788(4)
H114 H 0.6490 0.8694 0.6159
C126 C 0.6323(4) 0.8301(4) 0.5335(4)
H115 H 0.6837 0.8340 0.5403
C127 C 0.5795(4) 0.8038(3) 0.4783(4)
C128 C 0.5043(4) 0.7989(3) 0.4696(4)
H116 H 0.4671 0.7818 0.4324
C129 C 0.4840(4) 0.8190(3) 0.5153(4)
H117 H 0.4327 0.8152 0.5088
C130 C 0.6004(4) 0.7777(4) 0.4286(4)
H118 H 0.6172 0.8122 0.4112
H119 H 0.6437 0.7633 0.4435
C131 C 0.5174(4) 0.6732(4) 0.4055(3)
H120 H 0.4684 0.6438 0.3771
H121 H 0.5088 0.6866 0.4413
C132 C 0.7178(5) 0.5944(5) 0.3638(3)
C133 C 0.6921(5) 0.5882(6) 0.3049(4)
H122 H 0.6410 0.5834 0.2849
C134 C 0.7419(5) 0.5893(5) 0.2764(4)
H123 H 0.7246 0.5810 0.2361
C135 C 0.8176(5) 0.6026(6) 0.3074(3)
C136 C 0.7911(4) 0.5980(3) 0.3893(3)
H124 H 0.8076 0.5976 0.4283
C137 C 0.8728(5) 0.6109(5) 0.2784(3)
C138 C 0.9469(4) 0.6196(4) 0.3068(3)
H125 H 0.9635 0.6207 0.3461
C139 C 0.9967(4) 0.6266(3) 0.2794(3)
H126 H 1.0473 0.6299 0.2993
C140 C 0.9762(4) 0.6291(4) 0.2230(3)
C141 C 0.9014(5) 0.6236(6) 0.1968(4)
H127 H 0.8847 0.6252 0.1582
C142 C 1.0292(4) 0.6308(3) 0.1918(3)
C143 C 1.0725(4) 0.5922(3) 0.1986(3)
H128 H 1.0701 0.5677 0.2253
C144 C 1.1191(3) 0.5878(3) 0.1679(3)
H129 H 1.1480 0.5606 0.1736
C145 C 1.1238(3) 0.6231(3) 0.1288(3)
C146 C 1.0807(4) 0.6626(3) 0.1213(3)
H130 H 1.0838 0.6876 0.0950
C147 C 1.0338(4) 0.6655(3) 0.1518(3)
H131 H 1.0038 0.6917 0.1455
C148 C 1.2333(3) 0.6027(3) 0.1104(3)
N15 N 1.2674(3) 0.6072(3) 0.0701(2)
H132 H 1.2546 0.6296 0.0463
C149 C 1.3202(4) 0.5794(3) 0.0642(3)
C150 C 1.3583(4) 0.5550(3) 0.1055(2)
H133 H 1.3509 0.5588 0.1409
C151 C 1.4074(4) 0.5249(4) 0.0948(3)
C152 C 1.4183(5) 0.5193(4) 0.0430(3)
H134 H 1.4518 0.4988 0.0357
C153 C 1.3801(5) 0.5438(4) 0.0017(2)
C154 C 1.3311(4) 0.5738(3) 0.0124(2)
H135 H 1.3050 0.5905 -0.0158
C155 C 1.3779(9) 0.5306(6) -0.0591(7)
F13 F 1.4065(7) 0.5800(5) -0.0694(4)
F14 F 1.3998(7) 0.4846(5) -0.0731(4)
F15 F 1.3015(8) 0.5075(6) -0.1036(5)
C156 C 1.4456(7) 0.4969(6) 0.1386(5)
F16 F 1.4270(6) 0.5020(5) 0.1841(4)
F17 F 1.5187(6) 0.5165(6) 0.1538(4)
F18 F 1.4269(7) 0.4344(5) 0.1168(5)
O19 O 0.9099(5) 0.8825(4) 0.5984(5)
O20 O 0.8610(2) 0.7433(2) 0.5810(2)
O21 O 0.9325(3) 0.6615(2) 0.5472(2)
O22 O 1.3054(3) 0.8118(2) 0.5618(2)
O23 O 1.7316(3) 0.9421(3) 0.0091(3)
N16 N 1.2585(3) 0.9564(2) 0.5622(2)
N17 N 1.4702(3) 0.9530(3) 0.4107(3)
N18 N 1.4499(4) 0.9779(3) 0.2724(3)
N19 N 1.6865(4) 0.9785(3) 0.0738(3)
H136 H 1.6942 1.0139 0.0632
C157 C 1.2887(3) 0.9117(3) 0.5490(3)
C158 C 1.3237(3) 0.9131(3) 0.5088(3)
H137 H 1.3448 0.8815 0.5007
C159 C 1.3280(4) 0.9594(3) 0.4806(3)
C160 C 1.2962(4) 1.0059(3) 0.4945(3)
H138 H 1.2985 1.0395 0.4766
C161 C 1.2620(4) 1.0012(3) 0.5346(3)
C162 C 1.2260(5) 1.0482(4) 0.5499(5)
C163 C 1.0039(6) 1.0478(4) 0.6140(5)
C164 C 0.9303(7) 0.9475(5) 0.6247(6)
H139 H 1.2281 1.0774 0.5250
H140 H 1.1721 1.0256 0.5428
O24 O 1.2576(7) 1.0792(5) 0.6002(6)
C165 C 1.2117(10) 1.1114(7) 0.6166(9)
H141 H 1.1957 1.1345 0.5882
H142 H 1.2420 1.1429 0.6537
C166 C 1.1427(11) 1.0674(8) 0.6214(9)
C167 C 1.1332(10) 1.0042(7) 0.6237(9)
H143 H 1.1726 0.9875 0.6241
C168 C 1.0664(11) 0.9675(8) 0.6255(10)
H144 H 1.0600 0.9248 0.6261
C169 C 1.0093(12) 0.9885(8) 0.6263(10)
H145 H 0.9588 1.0580 0.6044
C170 C 1.0799(12) 1.0902(9) 0.6188(10)
H146 H 1.0875 1.1335 0.6203
H147 H 0.9309 0.9524 0.6642
H148 H 0.8914 0.9636 0.6039
C171 C 0.8522(5) 0.8460(5) 0.6064(5)
H149 H 0.8134 0.8665 0.6030
H150 H 0.8686 0.8407 0.6454
C172 C 0.8178(4) 0.7823(4) 0.5644(4)
H151 H 0.7653 0.7621 0.5623
H152 H 0.8161 0.7871 0.5261
C173 C 0.8202(4) 0.6804(4) 0.5494(3)
H153 H 0.8051 0.6777 0.5081
H154 H 0.7737 0.6646 0.5582
C174 C 0.8686(4) 0.6407(4) 0.5641(4)
H155 H 0.8858 0.6449 0.6057
H156 H 0.8391 0.5956 0.5442
C175 C 0.9859(5) 0.6303(4) 0.5628(4)
H157 H 0.9632 0.5852 0.5411
H158 H 1.0002 0.6324 0.6039
C176 C 1.0553(5) 0.6617(3) 0.5501(4)
C177 C 1.1266(5) 0.6818(3) 0.5900(3)
H159 H 1.1333 0.6736 0.6263
C178 C 1.1896(4) 0.7141(3) 0.5788(3)
H160 H 1.2384 0.7277 0.6075
C179 C 1.1822(5) 0.7264(3) 0.5268(3)
C180 C 1.1098(5) 0.7043(4) 0.4847(3)
H161 H 1.1031 0.7119 0.4483
C181 C 1.0478(5) 0.6712(4) 0.4966(4)
H162 H 0.9992 0.6548 0.4674
C182 C 1.2488(5) 0.7641(4) 0.5143(3)
H163 H 1.2718 0.7348 0.4996
H164 H 1.2302 0.7841 0.4839
C183 C 1.2815(4) 0.8625(3) 0.5812(3)
H165 H 1.3121 0.8827 0.6220
H166 H 1.2280 0.8448 0.5778
C184 C 1.3654(4) 0.9636(3) 0.4382(3)
C185 C 1.3366(4) 0.9810(3) 0.3885(3)
H167 H 1.2911 0.9904 0.3804
C186 C 1.3757(4) 0.9843(3) 0.3512(3)
H168 H 1.3572 0.9962 0.3171
C187 C 1.4417(4) 0.9703(3) 0.3635(3)
C188 C 1.4313(4) 0.9490(3) 0.4469(3)
H169 H 1.4501 0.9354 0.4799
C189 C 1.4854(4) 0.9739(3) 0.3247(3)
C190 C 1.5576(4) 0.9719(4) 0.3412(3)
H170 H 1.5813 0.9695 0.3787
C191 C 1.5962(4) 0.9734(4) 0.3036(3)
H171 H 1.6463 0.9725 0.3149
C192 C 1.5601(4) 0.9762(4) 0.2494(3)
C193 C 1.4867(4) 0.9792(4) 0.2360(3)
H172 H 1.4620 0.9823 0.1990
C194 C 1.5950(4) 0.9761(4) 0.2044(3)
C195 C 1.5567(4) 0.9332(4) 0.1516(4)
H173 H 1.5089 0.9026 0.1447
C196 C 1.5859(4) 0.9335(4) 0.1089(3)
H174 H 1.5578 0.9040 0.0727
C197 C 1.6562(4) 0.9769(4) 0.1182(3)
C198 C 1.6952(4) 1.0196(4) 0.1713(4)
H175 H 1.7434 1.0498 0.1784
C199 C 1.6653(5) 1.0192(4) 0.2137(4)
H176 H 1.6932 1.0487 0.2499
C200 C 1.7048(4) 0.9335(4) 0.0457(4)
N20 N 1.6911(4) 0.8779(3) 0.0620(3)
H177 H 1.6685 0.8742 0.0870
C201 C 1.7109(4) 0.8272(3) 0.0410(4)
C202 C 1.7166(4) 0.7847(4) 0.0742(3)
H178 H 1.7079 0.7915 0.1091
C203 C 1.7351(5) 0.7322(3) 0.0563(4)
C204 C 1.7479(5) 0.7222(3) 0.0052(4)
H179 H 1.7605 0.6864 -0.0070
C205 C 1.7422(5) 0.7647(4) -0.0280(3)
C206 C 1.7237(5) 0.8172(4) -0.0101(4)
H180 H 1.7198 0.8462 -0.0328
C207 C 1.7589(10) 0.7558(7) -0.0786(7)
F19 F 1.7896(5) 0.7179(4) -0.0912(4)
F20 F 1.7010(8) 0.7547(6) -0.1225(6)
F21 F 1.7981(8) 0.8111(5) -0.0908(5)
C208 C 1.7489(9) 0.6929(7) 0.0942(7)
F22 F 1.7581(7) 0.6421(4) 0.0759(5)
F23 F 1.7001(6) 0.6792(5) 0.1205(6)
F24 F 1.8183(8) 0.7241(5) 0.1414(6)
O19A O 1.0901(5) 1.1175(4) 0.4016(5)
O20A O 1.1390(2) 1.2567(2) 0.4190(2)
O21A O 1.0675(3) 1.3385(2) 0.4528(2)
O22A O 0.6946(3) 1.1882(2) 0.4382(2)
O23A O 0.2684(3) 1.0579(3) 0.9909(3)
N16A N 0.7415(3) 1.0436(2) 0.4378(2)
N17A N 0.5298(3) 1.0470(3) 0.5893(3)
N18A N 0.5501(4) 1.0221(3) 0.7276(3)
N19A N 0.3135(4) 1.0215(3) 0.9262(3)
H136A H 0.3058 0.9861 0.9368
C157A C 0.7113(3) 1.0883(3) 0.4510(3)
C158A C 0.6763(3) 1.0869(3) 0.4912(3)
H137A H 0.6552 1.1185 0.4993
C159A C 0.6720(4) 1.0406(3) 0.5194(3)
C160A C 0.7038(4) 0.9941(3) 0.5055(3)
H138A H 0.7015 0.9605 0.5234
C161A C 0.7380(4) 0.9988(3) 0.4654(3)
C162A C 0.7740(5) 0.9518(4) 0.4501(5)
C163A C 0.9961(6) 0.9522(4) 0.3860(5)
C164A C 1.0697(7) 1.0525(5) 0.3753(6)
H139A H 0.7719 0.9226 0.4750
H140A H 0.8279 0.9744 0.4572
O24A O 0.7424(7) 0.9208(5) 0.3998(6)
C165A C 0.7883(10) 0.8886(7) 0.3834(9)
H141A H 0.8043 0.8655 0.4118
H142A H 0.7580 0.8571 0.3463
C166A C 0.8573(11) 0.9326(8) 0.3786(9)
C167A C 0.8668(10) 0.9958(7) 0.3763(9)
H143A H 0.8274 1.0125 0.3759
C168A C 0.9336(11) 1.0325(8) 0.3745(10)
H144A H 0.9400 1.0752 0.3739
C169A C 0.9907(12) 1.0115(8) 0.3737(10)
H145A H 1.0412 0.9420 0.3956
C170A C 0.9201(12) 0.9098(9) 0.3812(10)
H146A H 0.9125 0.8665 0.3797
H147A H 1.0691 1.0476 0.3358
H148A H 1.1086 1.0364 0.3961
C171A C 1.1478(5) 1.1540(5) 0.3936(5)
H149A H 1.1866 1.1335 0.3970
H150A H 1.1314 1.1593 0.3546
C172A C 1.1822(4) 1.2177(4) 0.4356(4)
H151A H 1.2347 1.2379 0.4377
H152A H 1.1839 1.2129 0.4739
C173A C 1.1798(4) 1.3196(4) 0.4506(3)
H153A H 1.1949 1.3223 0.4919
H154A H 1.2263 1.3354 0.4418
C174A C 1.1314(4) 1.3593(4) 0.4359(4)
H155A H 1.1142 1.3551 0.3943
H156A H 1.1609 1.4044 0.4558
C175A C 1.0141(5) 1.3697(4) 0.4372(4)
H157A H 1.0368 1.4148 0.4589
H158A H 0.9998 1.3676 0.3961
C176A C 0.9447(5) 1.3383(3) 0.4499(4)
C177A C 0.8734(5) 1.3182(3) 0.4100(3)
H159A H 0.8667 1.3264 0.3737
C178A C 0.8104(4) 1.2859(3) 0.4212(3)
H160A H 0.7616 1.2723 0.3925
C179A C 0.8178(5) 1.2736(3) 0.4732(3)
C180A C 0.8902(5) 1.2957(4) 0.5153(3)
H161A H 0.8969 1.2881 0.5517
C181A C 0.9522(5) 1.3288(4) 0.5034(4)
H162A H 1.0008 1.3452 0.5326
C182A C 0.7512(5) 1.2359(4) 0.4857(3)
H163A H 0.7282 1.2652 0.5004
H164A H 0.7698 1.2159 0.5161
C183A C 0.7185(4) 1.1375(3) 0.4188(3)
H165A H 0.6879 1.1173 0.3780
H166A H 0.7720 1.1552 0.4222
C184A C 0.6346(4) 1.0364(3) 0.5618(3)
C185A C 0.6634(4) 1.0190(3) 0.6115(3)
H167A H 0.7089 1.0096 0.6196
C186A C 0.6243(4) 1.0157(3) 0.6488(3)
H168A H 0.6428 1.0038 0.6829
C187A C 0.5583(4) 1.0297(3) 0.6365(3)
C188A C 0.5687(4) 1.0510(3) 0.5531(3)
H169A H 0.5499 1.0646 0.5201
C189A C 0.5146(4) 1.0261(3) 0.6753(3)
C190A C 0.4424(4) 1.0281(4) 0.6588(3)
H170A H 0.4187 1.0305 0.6213
C191A C 0.4038(4) 1.0266(4) 0.6964(3)
H171A H 0.3537 1.0275 0.6851
C192A C 0.4399(4) 1.0238(4) 0.7506(3)
C193A C 0.5133(4) 1.0208(4) 0.7640(3)
H172A H 0.5380 1.0177 0.8010
C194A C 0.4050(4) 1.0239(4) 0.7956(3)
C195A C 0.4433(4) 1.0668(4) 0.8484(4)
H173A H 0.4911 1.0974 0.8553
C196A C 0.4141(4) 1.0665(4) 0.8911(3)
H174A H 0.4422 1.0960 0.9273
C197A C 0.3438(4) 1.0231(4) 0.8818(3)
C198A C 0.3048(4) 0.9804(4) 0.8287(4)
H175A H 0.2566 0.9502 0.8216
C199A C 0.3347(5) 0.9808(4) 0.7863(4)
H176A H 0.3068 0.9513 0.7501
C200A C 0.2952(4) 1.0665(4) 0.9543(4)
N20A N 0.3089(4) 1.1221(3) 0.9380(3)
H177A H 0.3315 1.1258 0.9130
C201A C 0.2891(4) 1.1728(3) 0.9590(4)
C202A C 0.2834(4) 1.2153(4) 0.9258(3)
H178A H 0.2921 1.2085 0.8909
C203A C 0.2649(5) 1.2678(3) 0.9437(4)
C204A C 0.2521(5) 1.2778(3) 0.9948(4)
H179A H 0.2395 1.3136 1.0070
C205A C 0.2578(5) 1.2353(4) 1.0280(3)
C206A C 0.2763(5) 1.1828(4) 1.0101(4)
H180A H 0.2802 1.1538 1.0328
C207A C 0.2411(10) 1.2442(7) 1.0786(7)
F19A F 0.2104(5) 1.2821(4) 1.0912(4)
F20A F 0.2990(8) 1.2453(6) 1.1225(6)
F21A F 0.2019(8) 1.1889(5) 1.0908(5)
C208A C 0.2511(9) 1.3071(7) 0.9058(7)
F22A F 0.2419(7) 1.3579(4) 0.9241(5)
F23A F 0.2999(6) 1.3208(5) 0.8795(6)
F24A F 0.1817(8) 1.2759(5) 0.8586(6)
C215 C 1.9636(4) 0.7283(3) -0.0009(4)
H191 H 1.9674 0.6873 -0.0056
C216 C 1.9434(4) 0.7529(4) 0.0435(3)
H192 H 1.9334 0.7287 0.0692
C217 C 1.9379(5) 0.8129(4) 0.0504(3)
H193 H 1.9241 0.8297 0.0808
C218 C 1.9525(5) 0.8484(3) 0.0129(4)
H194 H 1.9487 0.8894 0.0175
C219 C 1.9727(5) 0.8238(4) -0.0316(3)
H195 H 1.9827 0.8481 -0.0572
C220 C 1.9783(4) 0.7638(5) -0.0384(3)
H196 H 1.9921 0.7470 -0.0688
N21 N 0.5448(6) 0.6618(7) 0.2442(5)
C221 C 0.4898(6) 0.6611(5) 0.2502(4)
C222 C 0.4188(5) 0.6595(4) 0.2566(4)
H197 H 0.4281 0.6939 0.2892
H198 H 0.3947 0.6188 0.2629
H199 H 0.3853 0.6647 0.2219
N22 N 0.0448(6) 0.0369(6) 0.0854(5)
C223 C 0.0811(6) 0.0230(5) 0.0599(5)
C224 C 0.1251(8) 0.0090(8) 0.0316(6)
H200 H 0.1655 0.0478 0.0357
H201 H 0.0944 -0.0103 -0.0088
H202 H 0.1474 -0.0207 0.0474
N23 N 0.2106(5) 0.0370(4) 0.3034(4)
C225 C 0.1556(5) 0.0156(4) 0.2649(4)
C226 C 0.0855(5) -0.0103(4) 0.2166(4)
H203 H 0.0429 -0.0146 0.2300
H204 H 0.0812 -0.0519 0.1956
H205 H 0.0847 0.0182 0.1915
N24 N 1.2324(8) 0.6511(8) -0.1375(7)
C227 C 1.2521(12) 0.6240(12) -0.1638(8)
C228 C 1.2795(13) 0.5861(13) -0.2005(8)
H206 H 1.3293 0.6120 -0.1990
H207 H 1.2437 0.5723 -0.2398
H208 H 1.2836 0.5490 -0.1868
N25 N 1.2344(12) 1.2487(10) 0.6233(10)
C229 C 1.2340(12) 1.2569(10) 0.6675(11)
C230 C 1.2427(10) 1.2669(9) 0.7272(10)
H209 H 1.2198 1.2264 0.7344
H210 H 1.2176 1.2964 0.7368
H211 H 1.2967 1.2845 0.7508
H181? H 1.2065 1.0374 0.5801
H182? H 1.2661 1.0904 0.5666
O25? O 1.1707(7) 1.0531(5) 0.5090(6)
C209? C 1.1234(11) 1.0865(8) 0.5251(9)
H183? H 1.0954 1.0978 0.4913
H184? H 1.1567 1.1264 0.5545
C210? C 1.0686(11) 1.0510(8) 0.5471(10)
C211? C 1.0268(12) 0.9845(9) 0.5220(10)
H185? H 1.0378 0.9617 0.4927
C212? C 0.9718(13) 0.9545(9) 0.5399(11)
H186? H 0.9455 0.9105 0.5228
C213? C 0.9523(13) 0.9833(9) 0.5807(11)
H187? H 1.0055 1.0671 0.6506
C214? C 1.0497(13) 1.0776(9) 0.5869(10)
H188? H 1.0693 1.1226 0.5989
H189? H 0.9738 0.9607 0.6610
H190? H 0.8874 0.9565 0.6327
loop_
_geom_bond_atom_site_label_1
_geom_bond_atom_site_label_2
_geom_bond_site_symmetry_1
_geom_bond_site_symmetry_2
O1 C6 1_555 1_555
O2 C14 1_555 1_555
O3 C16 1_555 1_555
O4 C18 1_555 1_555
O5 C26 1_555 1_555
O6 C44 1_555 1_555
N1 C1 1_555 1_555
N2 C31 1_555 1_555
N3 C33 1_555 1_555
N4 H1 1_555 1_555
C1 C2 1_555 1_555
C2 H2 1_555 1_555
C3 C2 1_555 1_555
C4 C3 1_555 1_555
H3 C4 1_555 1_555
C5 N1 1_555 1_555
C6 C5 1_555 1_555
H4 C6 1_555 1_555
H5 C6 1_555 1_555
C7 O1 1_555 1_555
H6 C7 1_555 1_555
H7 C7 1_555 1_555
C8 C7 1_555 1_555
C9 C8 1_555 1_555
H8 C9 1_555 1_555
C10 C9 1_555 1_555
H9 C10 1_555 1_555
C11 C10 1_555 1_555
C12 C11 1_555 1_555
H10 C12 1_555 1_555
C13 C8 1_555 1_555
H11 C13 1_555 1_555
C14 C11 1_555 1_555
H12 C14 1_555 1_555
H13 C14 1_555 1_555
C15 O2 1_555 1_555
H14 C15 1_555 1_555
H15 C15 1_555 1_555
C16 C15 1_555 1_555
H16 C16 1_555 1_555
H17 C16 1_555 1_555
C17 O3 1_555 1_555
H18 C17 1_555 1_555
H19 C17 1_555 1_555
C18 C17 1_555 1_555
H20 C18 1_555 1_555
H21 C18 1_555 1_555
C19 O4 1_555 1_555
H22 C19 1_555 1_555
H23 C19 1_555 1_555
C20 C19 1_555 1_555
C21 C20 1_555 1_555
H24 C21 1_555 1_555
C22 C21 1_555 1_555
H25 C22 1_555 1_555
C23 C22 1_555 1_555
C24 C23 1_555 1_555
H26 C24 1_555 1_555
C25 C20 1_555 1_555
H27 C25 1_555 1_555
C26 C23 1_555 1_555
H28 C26 1_555 1_555
H29 C26 1_555 1_555
C27 O5 1_555 1_555
H30 C27 1_555 1_555
H31 C27 1_555 1_555
C28 C3 1_555 1_555
C29 C28 1_555 1_555
H32 C29 1_555 1_555
C30 C29 1_555 1_555
H33 C30 1_555 1_555
C31 C30 1_555 1_555
C32 N2 1_555 1_555
H34 C32 1_555 1_555
C33 C31 1_555 1_555
C34 C33 1_555 1_555
H35 C34 1_555 1_555
C35 C34 1_555 1_555
H36 C35 1_555 1_555
C36 C35 1_555 1_555
C37 N3 1_555 1_555
H37 C37 1_555 1_555
C38 C36 1_555 1_555
C39 C38 1_555 1_555
H38 C39 1_555 1_555
C40 C39 1_555 1_555
H39 C40 1_555 1_555
C41 N4 1_555 1_555
C42 C41 1_555 1_555
H40 C42 1_555 1_555
C43 C38 1_555 1_555
H41 C43 1_555 1_555
C44 N4 1_555 1_555
N5 C44 1_555 1_555
H42 N5 1_555 1_555
C45 N5 1_555 1_555
C46 C45 1_555 1_555
H43 C46 1_555 1_555
C47 C46 1_555 1_555
C48 C47 1_555 1_555
H44 C48 1_555 1_555
C49 C48 1_555 1_555
C50 C45 1_555 1_555
H45 C50 1_555 1_555
C51 C47 1_555 1_555
F1 C51 1_555 1_555
F2 C51 1_555 1_555
F3 C51 1_555 1_555
C52 C49 1_555 1_555
F4 C52 1_555 1_555
F5 C52 1_555 1_555
F6 C52 1_555 1_555
O7 C58 1_555 1_555
O8 C66 1_555 1_555
O9 C68 1_555 1_555
O10 C70 1_555 1_555
O11 C78 1_555 1_555
O12 C96 1_555 1_555
N6 C53 1_555 1_555
N7 C83 1_555 1_555
N8 C85 1_555 1_555
N9 H46 1_555 1_555
C53 C54 1_555 1_555
C54 H47 1_555 1_555
C55 C54 1_555 1_555
C56 C55 1_555 1_555
H48 C56 1_555 1_555
C57 N6 1_555 1_555
C58 C57 1_555 1_555
H49 C58 1_555 1_555
H50 C58 1_555 1_555
C59 O7 1_555 1_555
H51 C59 1_555 1_555
H52 C59 1_555 1_555
C60 C59 1_555 1_555
C61 C60 1_555 1_555
H53 C61 1_555 1_555
C62 C61 1_555 1_555
H54 C62 1_555 1_555
C63 C62 1_555 1_555
C64 C63 1_555 1_555
H55 C64 1_555 1_555
C65 C60 1_555 1_555
H56 C65 1_555 1_555
C66 C63 1_555 1_555
H57 C66 1_555 1_555
H58 C66 1_555 1_555
C67 O8 1_555 1_555
H59 C67 1_555 1_555
H60 C67 1_555 1_555
C68 C67 1_555 1_555
H61 C68 1_555 1_555
H62 C68 1_555 1_555
C69 O9 1_555 1_555
H63 C69 1_555 1_555
H64 C69 1_555 1_555
C70 C69 1_555 1_555
H65 C70 1_555 1_555
H66 C70 1_555 1_555
C71 O10 1_555 1_555
H67 C71 1_555 1_555
H68 C71 1_555 1_555
C72 C71 1_555 1_555
C73 C72 1_555 1_555
H69 C73 1_555 1_555
C74 C73 1_555 1_555
H70 C74 1_555 1_555
C75 C74 1_555 1_555
C76 C75 1_555 1_555
H71 C76 1_555 1_555
C77 C72 1_555 1_555
H72 C77 1_555 1_555
C78 C75 1_555 1_555
H73 C78 1_555 1_555
H74 C78 1_555 1_555
C79 O11 1_555 1_555
H75 C79 1_555 1_555
H76 C79 1_555 1_555
C80 C55 1_555 1_555
C81 C80 1_555 1_555
H77 C81 1_555 1_555
C82 C81 1_555 1_555
H78 C82 1_555 1_555
C83 C82 1_555 1_555
C84 N7 1_555 1_555
H79 C84 1_555 1_555
C85 C83 1_555 1_555
C86 C85 1_555 1_555
H80 C86 1_555 1_555
C87 C86 1_555 1_555
H81 C87 1_555 1_555
C88 C87 1_555 1_555
C89 N8 1_555 1_555
H82 C89 1_555 1_555
C90 C88 1_555 1_555
C91 C90 1_555 1_555
H83 C91 1_555 1_555
C92 C91 1_555 1_555
H84 C92 1_555 1_555
C93 N9 1_555 1_555
C94 C93 1_555 1_555
H85 C94 1_555 1_555
C95 C90 1_555 1_555
H86 C95 1_555 1_555
C96 N9 1_555 1_555
N10 C96 1_555 1_555
H87 N10 1_555 1_555
C97 N10 1_555 1_555
C98 C97 1_555 1_555
H88 C98 1_555 1_555
C99 C98 1_555 1_555
C100 C99 1_555 1_555
H89 C100 1_555 1_555
C101 C100 1_555 1_555
C102 C97 1_555 1_555
H90 C102 1_555 1_555
C103 C99 1_555 1_555
F7 C103 1_555 1_555
F8 C103 1_555 1_555
F9 C103 1_555 1_555
C104 C101 1_555 1_555
F10 C104 1_555 1_555
F11 C104 1_555 1_555
F12 C104 1_555 1_555
O13 C110 1_555 1_555
O14 C118 1_555 1_555
O15 C120 1_555 1_555
O16 C122 1_555 1_555
O17 C130 1_555 1_555
O18 C148 1_555 1_555
N11 C105 1_555 1_555
N12 C135 1_555 1_555
N13 C137 1_555 1_555
N14 H91 1_555 1_555
C105 C106 1_555 1_555
C106 H92 1_555 1_555
C107 C106 1_555 1_555
C108 C107 1_555 1_555
H93 C108 1_555 1_555
C109 N11 1_555 1_555
C110 C109 1_555 1_555
H94 C110 1_555 1_555
H95 C110 1_555 1_555
C111 O13 1_555 1_555
H96 C111 1_555 1_555
H97 C111 1_555 1_555
C112 C111 1_555 1_555
C113 C112 1_555 1_555
H98 C113 1_555 1_555
C114 C113 1_555 1_555
H99 C114 1_555 1_555
C115 C114 1_555 1_555
C116 C115 1_555 1_555
H100 C116 1_555 1_555
C117 C112 1_555 1_555
H101 C117 1_555 1_555
C118 C115 1_555 1_555
H102 C118 1_555 1_555
H103 C118 1_555 1_555
C119 O14 1_555 1_555
H104 C119 1_555 1_555
H105 C119 1_555 1_555
C120 C119 1_555 1_555
H106 C120 1_555 1_555
H107 C120 1_555 1_555
C121 O15 1_555 1_555
H108 C121 1_555 1_555
H109 C121 1_555 1_555
C122 C121 1_555 1_555
H110 C122 1_555 1_555
H111 C122 1_555 1_555
C123 O16 1_555 1_555
H112 C123 1_555 1_555
H113 C123 1_555 1_555
C124 C123 1_555 1_555
C125 C124 1_555 1_555
H114 C125 1_555 1_555
C126 C125 1_555 1_555
H115 C126 1_555 1_555
C127 C126 1_555 1_555
C128 C127 1_555 1_555
H116 C128 1_555 1_555
C129 C124 1_555 1_555
H117 C129 1_555 1_555
C130 C127 1_555 1_555
H118 C130 1_555 1_555
H119 C130 1_555 1_555
C131 O17 1_555 1_555
H120 C131 1_555 1_555
H121 C131 1_555 1_555
C132 C107 1_555 1_555
C133 C132 1_555 1_555
H122 C133 1_555 1_555
C134 C133 1_555 1_555
H123 C134 1_555 1_555
C135 C134 1_555 1_555
C136 N12 1_555 1_555
H124 C136 1_555 1_555
C137 C135 1_555 1_555
C138 C137 1_555 1_555
H125 C138 1_555 1_555
C139 C138 1_555 1_555
H126 C139 1_555 1_555
C140 C139 1_555 1_555
C141 N13 1_555 1_555
H127 C141 1_555 1_555
C142 C140 1_555 1_555
C143 C142 1_555 1_555
H128 C143 1_555 1_555
C144 C143 1_555 1_555
H129 C144 1_555 1_555
C145 N14 1_555 1_555
C146 C145 1_555 1_555
H130 C146 1_555 1_555
C147 C142 1_555 1_555
H131 C147 1_555 1_555
C148 N14 1_555 1_555
N15 C148 1_555 1_555
H132 N15 1_555 1_555
C149 N15 1_555 1_555
C150 C149 1_555 1_555
H133 C150 1_555 1_555
C151 C150 1_555 1_555
C152 C151 1_555 1_555
H134 C152 1_555 1_555
C153 C152 1_555 1_555
C154 C149 1_555 1_555
H135 C154 1_555 1_555
C155 C153 1_555 1_555
F13 C155 1_555 1_555
F14 C155 1_555 1_555
F15 C155 1_555 1_555
C156 C151 1_555 1_555
F16 C156 1_555 1_555
F17 C156 1_555 1_555
F18 C156 1_555 1_555
O19 C164 1_555 1_555
O20 C172 1_555 1_555
O21 C174 1_555 1_555
O22 C182 1_555 1_555
O23 C200 1_555 1_555
N16 C157 1_555 1_555
N17 C187 1_555 1_555
N18 C189 1_555 1_555
N19 H136 1_555 1_555
C157 C158 1_555 1_555
C158 H137 1_555 1_555
C159 C158 1_555 1_555
C160 C159 1_555 1_555
H138 C160 1_555 1_555
C161 N16 1_555 1_555
C162 C161 1_555 1_555
C163 C169 1_555 1_555
C164 C169 1_555 1_555
H139 C162 1_555 1_555
H140 C162 1_555 1_555
O24 C162 1_555 1_555
C165 O24 1_555 1_555
H141 C165 1_555 1_555
H142 C165 1_555 1_555
C166 C165 1_555 1_555
C167 C166 1_555 1_555
H143 C167 1_555 1_555
C168 C167 1_555 1_555
H144 C168 1_555 1_555
C169 C168 1_555 1_555
H145 C163 1_555 1_555
C170 C163 1_555 1_555
H146 C170 1_555 1_555
H147 C164 1_555 1_555
H148 C164 1_555 1_555
C171 O19 1_555 1_555
H149 C171 1_555 1_555
H150 C171 1_555 1_555
C172 C171 1_555 1_555
H151 C172 1_555 1_555
H152 C172 1_555 1_555
C173 O20 1_555 1_555
H153 C173 1_555 1_555
H154 C173 1_555 1_555
C174 C173 1_555 1_555
H155 C174 1_555 1_555
H156 C174 1_555 1_555
C175 O21 1_555 1_555
H157 C175 1_555 1_555
H158 C175 1_555 1_555
C176 C175 1_555 1_555
C177 C176 1_555 1_555
H159 C177 1_555 1_555
C178 C177 1_555 1_555
H160 C178 1_555 1_555
C179 C178 1_555 1_555
C180 C179 1_555 1_555
H161 C180 1_555 1_555
C181 C176 1_555 1_555
H162 C181 1_555 1_555
C182 C179 1_555 1_555
H163 C182 1_555 1_555
H164 C182 1_555 1_555
C183 O22 1_555 1_555
H165 C183 1_555 1_555
H166 C183 1_555 1_555
C184 C159 1_555 1_555
C185 C184 1_555 1_555
H167 C185 1_555 1_555
C186 C185 1_555 1_555
H168 C186 1_555 1_555
C187 C186 1_555 1_555
C188 N17 1_555 1_555
H169 C188 1_555 1_555
C189 C187 1_555 1_555
C190 C189 1_555 1_555
H170 C190 1_555 1_555
C191 C190 1_555 1_555
H171 C191 1_555 1_555
C192 C191 1_555 1_555
C193 N18 1_555 1_555
H172 C193 1_555 1_555
C194 C192 1_555 1_555
C195 C194 1_555 1_555
H173 C195 1_555 1_555
C196 C195 1_555 1_555
H174 C196 1_555 1_555
C197 N19 1_555 1_555
C198 C197 1_555 1_555
H175 C198 1_555 1_555
C199 C194 1_555 1_555
H176 C199 1_555 1_555
C200 N19 1_555 1_555
N20 C200 1_555 1_555
H177 N20 1_555 1_555
C201 N20 1_555 1_555
C202 C201 1_555 1_555
H178 C202 1_555 1_555
C203 C202 1_555 1_555
C204 C203 1_555 1_555
H179 C204 1_555 1_555
C205 C204 1_555 1_555
C206 C201 1_555 1_555
H180 C206 1_555 1_555
C207 C205 1_555 1_555
F19 C207 1_555 1_555
F20 C207 1_555 1_555
F21 C207 1_555 1_555
C208 C203 1_555 1_555
F22 C208 1_555 1_555
F23 C208 1_555 1_555
F24 C208 1_555 1_555
C215 H191 1_555 1_555
C216 C215 1_555 1_555
H192 C216 1_555 1_555
C217 C216 1_555 1_555
H193 C217 1_555 1_555
C218 C217 1_555 1_555
H194 C218 1_555 1_555
C219 C218 1_555 1_555
H195 C219 1_555 1_555
C220 C215 1_555 1_555
H196 C220 1_555 1_555
N21 C221 1_555 1_555
C221 C222 1_555 1_555
C222 H197 1_555 1_555
H198 C222 1_555 1_555
H199 C222 1_555 1_555
N22 C223 1_555 1_555
C223 C224 1_555 1_555
C224 H200 1_555 1_555
H201 C224 1_555 1_555
H202 C224 1_555 1_555
N23 C225 1_555 1_555
C225 C226 1_555 1_555
C226 H203 1_555 1_555
H204 C226 1_555 1_555
H205 C226 1_555 1_555
N24 C227 1_555 1_555
C227 C228 1_555 1_555
C228 H206 1_555 1_555
H207 C228 1_555 1_555
H208 C228 1_555 1_555
N25 C229 1_555 1_555
C229 C230 1_555 1_555
C230 H209 1_555 1_555
H210 C230 1_555 1_555
H211 C230 1_555 1_555
O19A C164A 1_555 1_555
O20A C172A 1_555 1_555
O21A C174A 1_555 1_555
O22A C182A 1_555 1_555
O23A C200A 1_555 1_555
N16A C157A 1_555 1_555
N17A C187A 1_555 1_555
N18A C189A 1_555 1_555
N19A H136A 1_555 1_555
C157A C158A 1_555 1_555
C158A H137A 1_555 1_555
C159A C158A 1_555 1_555
C160A C159A 1_555 1_555
H138A C160A 1_555 1_555
C161A N16A 1_555 1_555
C162A C161A 1_555 1_555
C163A C169A 1_555 1_555
C164A C169A 1_555 1_555
H139A C162A 1_555 1_555
H140A C162A 1_555 1_555
O24A C162A 1_555 1_555
C165A O24A 1_555 1_555
H141A C165A 1_555 1_555
H142A C165A 1_555 1_555
C166A C165A 1_555 1_555
C167A C166A 1_555 1_555
H143A C167A 1_555 1_555
C168A C167A 1_555 1_555
H144A C168A 1_555 1_555
C169A C168A 1_555 1_555
H145A C163A 1_555 1_555
C170A C163A 1_555 1_555
H146A C170A 1_555 1_555
H147A C164A 1_555 1_555
H148A C164A 1_555 1_555
C171A O19A 1_555 1_555
H149A C171A 1_555 1_555
H150A C171A 1_555 1_555
C172A C171A 1_555 1_555
H151A C172A 1_555 1_555
H152A C172A 1_555 1_555
C173A O20A 1_555 1_555
H153A C173A 1_555 1_555
H154A C173A 1_555 1_555
C174A C173A 1_555 1_555
H155A C174A 1_555 1_555
H156A C174A 1_555 1_555
C175A O21A 1_555 1_555
H157A C175A 1_555 1_555
H158A C175A 1_555 1_555
C176A C175A 1_555 1_555
C177A C176A 1_555 1_555
H159A C177A 1_555 1_555
C178A C177A 1_555 1_555
H160A C178A 1_555 1_555
C179A C178A 1_555 1_555
C180A C179A 1_555 1_555
H161A C180A 1_555 1_555
C181A C176A 1_555 1_555
H162A C181A 1_555 1_555
C182A C179A 1_555 1_555
H163A C182A 1_555 1_555
H164A C182A 1_555 1_555
C183A O22A 1_555 1_555
H165A C183A 1_555 1_555
H166A C183A 1_555 1_555
C184A C159A 1_555 1_555
C185A C184A 1_555 1_555
H167A C185A 1_555 1_555
C186A C185A 1_555 1_555
H168A C186A 1_555 1_555
C187A C186A 1_555 1_555
C188A N17A 1_555 1_555
H169A C188A 1_555 1_555
C189A C187A 1_555 1_555
C190A C189A 1_555 1_555
H170A C190A 1_555 1_555
C191A C190A 1_555 1_555
H171A C191A 1_555 1_555
C192A C191A 1_555 1_555
C193A N18A 1_555 1_555
H172A C193A 1_555 1_555
C194A C192A 1_555 1_555
C195A C194A 1_555 1_555
H173A C195A 1_555 1_555
C196A C195A 1_555 1_555
H174A C196A 1_555 1_555
C197A N19A 1_555 1_555
C198A C197A 1_555 1_555
H175A C198A 1_555 1_555
C199A C194A 1_555 1_555
H176A C199A 1_555 1_555
C200A N19A 1_555 1_555
N20A C200A 1_555 1_555
H177A N20A 1_555 1_555
C201A N20A 1_555 1_555
C202A C201A 1_555 1_555
H178A C202A 1_555 1_555
C203A C202A 1_555 1_555
C204A C203A 1_555 1_555
H179A C204A 1_555 1_555
C205A C204A 1_555 1_555
C206A C201A 1_555 1_555
H180A C206A 1_555 1_555
C207A C205A 1_555 1_555
F19A C207A 1_555 1_555
F20A C207A 1_555 1_555
F21A C207A 1_555 1_555
C208A C203A 1_555 1_555
F22A C208A 1_555 1_555
F23A C208A 1_555 1_555
F24A C208A 1_555 1_555
C1 C27 1_555 1_555
C4 C5 1_555 1_555
C12 C13 1_555 1_555
C24 C25 1_555 1_555
C28 C32 1_555 1_555
C36 C37 1_555 1_555
C40 C41 1_555 1_555
C42 C43 1_555 1_555
C49 C50 1_555 1_555
C53 C79 1_555 1_555
C56 C57 1_555 1_555
C64 C65 1_555 1_555
C76 C77 1_555 1_555
C80 C84 1_555 1_555
C88 C89 1_555 1_555
C92 C93 1_555 1_555
C94 C95 1_555 1_555
C101 C102 1_555 1_555
C105 C131 1_555 1_555
C108 C109 1_555 1_555
C116 C117 1_555 1_555
C128 C129 1_555 1_555
C132 C136 1_555 1_555
C140 C141 1_555 1_555
C144 C145 1_555 1_555
C146 C147 1_555 1_555
C153 C154 1_555 1_555
C157 C183 1_555 1_555
C160 C161 1_555 1_555
C166 C170 1_555 1_555
C180 C181 1_555 1_555
C184 C188 1_555 1_555
C192 C193 1_555 1_555
C196 C197 1_555 1_555
C198 C199 1_555 1_555
C205 C206 1_555 1_555
C219 C220 1_555 1_555
C157A C183A 1_555 1_555
C160A C161A 1_555 1_555
C166A C170A 1_555 1_555
C180A C181A 1_555 1_555
C184A C188A 1_555 1_555
C192A C193A 1_555 1_555
C196A C197A 1_555 1_555
C198A C199A 1_555 1_555
C205A C206A 1_555 1_555

#END
