
#######################################################################
#
#                 Cambridge Crystallographic Data Centre
#                                CCDC 
#
#######################################################################
#
# If this CIF has been generated from an entry in the Cambridge 
# Structural Database, then it will include bibliographic, chemical, 
# crystal, experimental, refinement or atomic coordinate data resulting 
# from the CCDC's data processing and validation procedures.
#
#######################################################################

data_AVUXAS
_chemical_formula_moiety         'C15 H18 O2'
_chemical_name_systematic        '(E)-3-cyclohexyl-2-phenylacrylic acid'
_symmetry_cell_setting           monoclinic
_symmetry_space_group_name_H-M   'C 2/c'
_symmetry_Int_Tables_number      15
_space_group_name_Hall           '-C 2yn'
loop_
_symmetry_equiv_pos_site_id
_symmetry_equiv_pos_as_xyz
1 x,y,z
2 -x,y,1/2-z
3 1/2+x,1/2+y,z
4 1/2-x,1/2+y,1/2-z
5 -x,-y,-z
6 x,-y,1/2+z
7 1/2-x,1/2-y,-z
8 1/2+x,1/2-y,1/2+z
_cell_length_a                   20.050(4)
_cell_length_b                   5.5410(10)
_cell_length_c                   23.195(4)
_cell_angle_alpha                90
_cell_angle_beta                 97.194(4)
_cell_angle_gamma                90
_cell_volume                     2556.61
_exptl_crystal_colour            colorless
_cell_formula_units_Z            8
loop_
_atom_site_label
_atom_site_type_symbol
_atom_site_fract_x
_atom_site_fract_y
_atom_site_fract_z
O1 O 0.83957(4) 0.81597(16) 0.99796(3)
H1 H 0.8048(8) 0.840(3) 1.0178(6)
O2 O 0.76113(4) 0.61164(17) 0.94108(4)
C1 C 0.81087(6) 0.1380(2) 0.77281(5)
H2 H 0.7969 0.0314 0.7415
C2 C 0.79775(6) 0.0830(2) 0.82881(5)
H3 H 0.7747 -0.0618 0.8358
C3 C 0.81811(5) 0.2383(2) 0.87439(5)
H4 H 0.8092 0.1979 0.9125
C4 C 0.85153(5) 0.4537(2) 0.86517(5)
C5 C 0.87203(5) 0.6234(2) 0.91408(5)
C6 C 0.93214(5) 0.7325(2) 0.92475(5)
H5 H 0.9377 0.8386 0.9572
C7 C 0.99164(5) 0.7077(2) 0.89190(5)
H6 H 0.9842 0.5659 0.8652
C8 C 1.05659(6) 0.6661(2) 0.93372(5)
H7 H 1.0631 0.8015 0.9617
H8 H 1.0523 0.5157 0.9560
C9 C 1.11791(6) 0.6472(3) 0.90061(5)
H9 H 1.1591 0.6337 0.9288
H10 H 1.1141 0.4988 0.8766
C10 C 1.12419(6) 0.8647(3) 0.86154(5)
H11 H 1.1616 0.8377 0.8382
H12 H 1.1350 1.0096 0.8859
C11 C 0.84450(5) 0.3501(2) 0.76304(5)
H13 H 0.8541 0.3878 0.7250
C12 C 0.86416(5) 0.5073(2) 0.80850(5)
H14 H 0.8865 0.6533 0.8011
C13 C 0.81949(5) 0.6811(2) 0.95211(5)
C14 C 0.99934(6) 0.9354(2) 0.85530(5)
H15 H 0.9578 0.9613 0.8282
H16 H 1.0062 1.0778 0.8811
C15 C 1.05923(6) 0.9088(3) 0.82081(5)
H17 H 1.0511 0.7720 0.7934
H18 H 1.0639 1.0572 0.7979
loop_
_geom_bond_atom_site_label_1
_geom_bond_atom_site_label_2
_geom_bond_site_symmetry_1
_geom_bond_site_symmetry_2
O1 H1 1_555 1_555
O2 C13 1_555 1_555
C1 H2 1_555 1_555
C2 C1 1_555 1_555
H3 C2 1_555 1_555
C3 C2 1_555 1_555
H4 C3 1_555 1_555
C4 C3 1_555 1_555
C5 C4 1_555 1_555
C6 C5 1_555 1_555
H5 C6 1_555 1_555
C7 C6 1_555 1_555
H6 C7 1_555 1_555
C8 C7 1_555 1_555
H7 C8 1_555 1_555
H8 C8 1_555 1_555
C9 C8 1_555 1_555
H9 C9 1_555 1_555
H10 C9 1_555 1_555
C10 C9 1_555 1_555
H11 C10 1_555 1_555
H12 C10 1_555 1_555
C11 C1 1_555 1_555
H13 C11 1_555 1_555
C12 C4 1_555 1_555
H14 C12 1_555 1_555
C13 O1 1_555 1_555
C14 C7 1_555 1_555
H15 C14 1_555 1_555
H16 C14 1_555 1_555
C15 C10 1_555 1_555
H17 C15 1_555 1_555
H18 C15 1_555 1_555
C5 C13 1_555 1_555
C11 C12 1_555 1_555
C14 C15 1_555 1_555

#END
