
#######################################################################
#
#                 Cambridge Crystallographic Data Centre
#                                CCDC 
#
#######################################################################
#
# If this CIF has been generated from an entry in the Cambridge 
# Structural Database, then it will include bibliographic, chemical, 
# crystal, experimental, refinement or atomic coordinate data resulting 
# from the CCDC's data processing and validation procedures.
#
#######################################################################

data_AVUZOI
_chemical_formula_moiety         'C31 H20 N2 S1'
_chemical_name_systematic        
3-(4-(1,3-benzothiazol-2-yl)phenyl)-9-phenyl-9H-carbazole
_symmetry_cell_setting           monoclinic
_symmetry_space_group_name_H-M   'P 21/n'
_symmetry_Int_Tables_number      14
_space_group_name_Hall           '-P 2yn'
loop_
_symmetry_equiv_pos_site_id
_symmetry_equiv_pos_as_xyz
1 x,y,z
2 1/2-x,1/2+y,1/2-z
3 -x,-y,-z
4 1/2+x,1/2-y,1/2+z
_cell_length_a                   15.88(5)
_cell_length_b                   7.82(2)
_cell_length_c                   17.46(5)
_cell_angle_alpha                90
_cell_angle_beta                 92.54(4)
_cell_angle_gamma                90
_cell_volume                     2166.08
_exptl_crystal_colour            colorless
_exptl_crystal_description       Block
_cell_formula_units_Z            4
loop_
_atom_site_label
_atom_site_type_symbol
_atom_site_fract_x
_atom_site_fract_y
_atom_site_fract_z
S1 S -0.05400(6) 0.79807(12) 1.04285(5)
C1 C -0.0286(2) 0.8398(4) 1.13806(17)
C2 C -0.0807(2) 0.8871(4) 1.1963(2)
H1 H -0.1383 0.9009 1.1867
C3 C -0.0450(3) 0.9130(4) 1.2684(2)
H2 H -0.0787 0.9460 1.3080
C4 C 0.0397(2) 0.8907(4) 1.28260(19)
H3 H 0.0625 0.9061 1.3321
C5 C 0.0912(2) 0.8463(4) 1.22554(19)
H4 H 0.1487 0.8320 1.2359
C6 C 0.0568(2) 0.8226(4) 1.15153(19)
C7 C 0.0517(2) 0.7618(4) 1.0277(2)
C8 C 0.0802(2) 0.7212(4) 0.95121(18)
C9 C 0.1622(2) 0.7525(4) 0.93228(19)
H5 H 0.2009 0.7935 0.9694
C10 C 0.1872(2) 0.7236(4) 0.8587(2)
H6 H 0.2428 0.7450 0.8472
C11 C 0.1313(2) 0.6631(4) 0.80138(19)
C12 C 0.0509(2) 0.6261(4) 0.82197(18)
H7 H 0.0127 0.5806 0.7855
C13 C 0.0252(2) 0.6545(4) 0.89537(19)
H8 H -0.0298 0.6284 0.9074
C14 C 0.1542(2) 0.6487(4) 0.72003(19)
C15 C 0.2065(2) 0.7695(4) 0.6876(2)
H9 H 0.2314 0.8528 0.7191
C16 C 0.2230(2) 0.7708(4) 0.61055(19)
H10 H 0.2579 0.8532 0.5902
C17 C 0.1859(2) 0.6455(4) 0.56490(19)
C18 C 0.1350(2) 0.5211(4) 0.59545(18)
C19 C 0.1198(2) 0.5219(4) 0.67317(19)
H11 H 0.0864 0.4372 0.6937
C20 C 0.2292(2) 0.7274(4) 0.43223(18)
C21 C 0.2143(2) 0.8999(4) 0.43155(19)
H12 H 0.1784 0.9483 0.4662
C22 C 0.2528(2) 1.0002(4) 0.3793(2)
H13 H 0.2445 1.1179 0.3795
C23 C 0.3035(2) 0.9285(5) 0.3266(2)
H14 H 0.3288 0.9972 0.2907
C24 C 0.3169(2) 0.7576(5) 0.32672(19)
H15 H 0.3505 0.7088 0.2903
C25 C 0.2813(2) 0.6564(4) 0.38033(18)
H16 H 0.2923 0.5396 0.3816
C26 C 0.1385(2) 0.4823(4) 0.46621(19)
C27 C 0.1176(2) 0.4180(4) 0.39326(19)
H17 H 0.1398 0.4650 0.3495
C28 C 0.0633(2) 0.2834(4) 0.3891(2)
H18 H 0.0482 0.2371 0.3413
C29 C 0.0298(2) 0.2135(4) 0.4543(2)
H19 H -0.0069 0.1211 0.4495
C30 C 0.0504(2) 0.2796(4) 0.52568(19)
H20 H 0.0275 0.2328 0.5691
C31 C 0.1050(2) 0.4145(4) 0.53238(18)
N1 N 0.10222(17) 0.7805(3) 1.08792(15)
N2 N 0.18877(17) 0.6214(3) 0.48570(14)
loop_
_geom_bond_atom_site_label_1
_geom_bond_atom_site_label_2
_geom_bond_site_symmetry_1
_geom_bond_site_symmetry_2
S1 C1 1_555 1_555
C1 C2 1_555 1_555
C2 H1 1_555 1_555
C3 C2 1_555 1_555
H2 C3 1_555 1_555
C4 C3 1_555 1_555
H3 C4 1_555 1_555
C5 C4 1_555 1_555
H4 C5 1_555 1_555
C6 C1 1_555 1_555
C7 S1 1_555 1_555
C8 C7 1_555 1_555
C9 C8 1_555 1_555
H5 C9 1_555 1_555
C10 C9 1_555 1_555
H6 C10 1_555 1_555
C11 C10 1_555 1_555
C12 C11 1_555 1_555
H7 C12 1_555 1_555
C13 C8 1_555 1_555
H8 C13 1_555 1_555
C14 C11 1_555 1_555
C15 C14 1_555 1_555
H9 C15 1_555 1_555
C16 C15 1_555 1_555
H10 C16 1_555 1_555
C17 C16 1_555 1_555
C18 C17 1_555 1_555
C19 C14 1_555 1_555
H11 C19 1_555 1_555
C20 C21 1_555 1_555
C21 H12 1_555 1_555
C22 C21 1_555 1_555
H13 C22 1_555 1_555
C23 C22 1_555 1_555
H14 C23 1_555 1_555
C24 C23 1_555 1_555
H15 C24 1_555 1_555
C25 C20 1_555 1_555
H16 C25 1_555 1_555
C26 C27 1_555 1_555
C27 H17 1_555 1_555
C28 C27 1_555 1_555
H18 C28 1_555 1_555
C29 C28 1_555 1_555
H19 C29 1_555 1_555
C30 C29 1_555 1_555
H20 C30 1_555 1_555
C31 C18 1_555 1_555
N1 C6 1_555 1_555
N2 C17 1_555 1_555
C5 C6 1_555 1_555
C7 N1 1_555 1_555
C12 C13 1_555 1_555
C18 C19 1_555 1_555
C20 N2 1_555 1_555
C24 C25 1_555 1_555
C26 C31 1_555 1_555
C26 N2 1_555 1_555
C30 C31 1_555 1_555

#END
