
#######################################################################
#
#                 Cambridge Crystallographic Data Centre
#                                CCDC 
#
#######################################################################
#
# If this CIF has been generated from an entry in the Cambridge 
# Structural Database, then it will include bibliographic, chemical, 
# crystal, experimental, refinement or atomic coordinate data resulting 
# from the CCDC's data processing and validation procedures.
#
#######################################################################

data_AVUZIB
_chemical_name_common            
3-methyl-4-(3-(5-methoxy-1H-indole)methylene)-isoxazol-5(4H)-one
_chemical_formula_moiety         'C14 H12 N2 O3'
_chemical_name_systematic        
4-((5-Methoxy-1H-indol-3-yl)methylene)-3-methyl-1,2-oxazol-5(4H)-one
_symmetry_cell_setting           monoclinic
_symmetry_space_group_name_H-M   'P 21/n'
_symmetry_Int_Tables_number      14
_space_group_name_Hall           '-P 2yn'
loop_
_symmetry_equiv_pos_site_id
_symmetry_equiv_pos_as_xyz
1 x,y,z
2 1/2-x,1/2+y,1/2-z
3 -x,-y,-z
4 1/2+x,1/2-y,1/2+z
_cell_length_a                   6.4195(16)
_cell_length_b                   7.5759(19)
_cell_length_c                   25.181(6)
_cell_angle_alpha                90
_cell_angle_beta                 95.995(3)
_cell_angle_gamma                90
_cell_volume                     1217.94
_chemical_melting_point          235-237deg.C
_cell_formula_units_Z            4
loop_
_atom_site_label
_atom_site_type_symbol
_atom_site_fract_x
_atom_site_fract_y
_atom_site_fract_z
N1 N 0.7631(3) 0.8888(3) 0.50501(7)
N2 N -0.0979(3) 0.4803(3) 0.39763(7)
H1 H -0.1996 0.4313 0.4118
O1 O 0.6221(3) 0.7939(2) 0.53651(6)
O2 O 0.3282(3) 0.6374(2) 0.52272(6)
O3 O 0.0744(3) 0.5447(2) 0.19020(6)
C1 C 0.7967(4) 0.9571(3) 0.41315(9)
H2 H 0.9190 1.0173 0.4291
H3 H 0.7035 1.0405 0.3944
H4 H 0.8371 0.8697 0.3886
C2 C 0.6887(4) 0.8695(3) 0.45555(9)
C3 C 0.5006(3) 0.7654(3) 0.44923(8)
C4 C 0.4639(4) 0.7214(3) 0.50372(9)
C5 C 0.3902(3) 0.7207(3) 0.40185(8)
H5 H 0.4501 0.7601 0.3719
C6 C 0.2014(4) 0.6254(3) 0.38977(8)
C7 C 0.0672(4) 0.5574(3) 0.42474(9)
H6 H 0.0897 0.5646 0.4618
C8 C -0.0815(4) 0.4911(3) 0.34327(9)
C9 C -0.2121(4) 0.4238(3) 0.30081(10)
H7 H -0.3357 0.3656 0.3061
C10 C -0.1513(4) 0.4465(3) 0.25057(9)
H8 H -0.2348 0.4021 0.2212
C11 C 0.0345(4) 0.5358(3) 0.24280(8)
C12 C 0.1635(4) 0.6047(3) 0.28502(8)
H9 H 0.2856 0.6648 0.2794
C13 C 0.1048(4) 0.5815(3) 0.33667(8)
C14 C 0.2688(4) 0.6147(4) 0.17828(10)
H10 H 0.2831 0.7336 0.1913
H11 H 0.2742 0.6142 0.1403
H12 H 0.3809 0.5439 0.1951
loop_
_geom_bond_atom_site_label_1
_geom_bond_atom_site_label_2
_geom_bond_site_symmetry_1
_geom_bond_site_symmetry_2
N1 O1 1_555 1_555
N2 H1 1_555 1_555
O1 C4 1_555 1_555
O2 C4 1_555 1_555
O3 C11 1_555 1_555
C1 H2 1_555 1_555
H3 C1 1_555 1_555
H4 C1 1_555 1_555
C2 N1 1_555 1_555
C3 C2 1_555 1_555
C4 C3 1_555 1_555
C5 C3 1_555 1_555
H5 C5 1_555 1_555
C6 C5 1_555 1_555
C7 N2 1_555 1_555
H6 C7 1_555 1_555
C8 N2 1_555 1_555
C9 C8 1_555 1_555
H7 C9 1_555 1_555
C10 C9 1_555 1_555
H8 C10 1_555 1_555
C11 C10 1_555 1_555
C12 C11 1_555 1_555
H9 C12 1_555 1_555
C13 C6 1_555 1_555
C14 O3 1_555 1_555
H10 C14 1_555 1_555
H11 C14 1_555 1_555
H12 C14 1_555 1_555
C1 C2 1_555 1_555
C6 C7 1_555 1_555
C8 C13 1_555 1_555
C12 C13 1_555 1_555

#END
