
#######################################################################
#
#                 Cambridge Crystallographic Data Centre
#                                CCDC 
#
#######################################################################
#
# If this CIF has been generated from an entry in the Cambridge 
# Structural Database, then it will include bibliographic, chemical, 
# crystal, experimental, refinement or atomic coordinate data resulting 
# from the CCDC's data processing and validation procedures.
#
#######################################################################

data_AVUZIC
_chemical_formula_moiety         'C31 H20 N2 S1'
_chemical_name_systematic        
9-(4'-(1,3-benzothiazol-2-yl)biphenyl-4-yl)-9H-carbazole
_symmetry_cell_setting           monoclinic
_symmetry_space_group_name_H-M   'P 21'
_symmetry_Int_Tables_number      4
_space_group_name_Hall           'P 2yb'
loop_
_symmetry_equiv_pos_site_id
_symmetry_equiv_pos_as_xyz
1 x,y,z
2 -x,1/2+y,-z
_cell_length_a                   8.1907(18)
_cell_length_b                   34.463(7)
_cell_length_c                   8.3321(18)
_cell_angle_alpha                90
_cell_angle_beta                 103.940(3)
_cell_angle_gamma                90
_cell_volume                     2282.68
_exptl_crystal_colour            colorless
_exptl_crystal_description       Block
_cell_formula_units_Z            4
loop_
_atom_site_label
_atom_site_type_symbol
_atom_site_fract_x
_atom_site_fract_y
_atom_site_fract_z
S1 S 0.60481(12) 0.00790(2) 1.01554(10)
C1 C 0.6269(4) -0.00704(9) 1.2180(4)
C2 C 0.5587(4) -0.03933(9) 1.2777(4)
H1 H 0.4892 -0.0564 1.2059
C3 C 0.5965(4) -0.04524(10) 1.4449(5)
H2 H 0.5540 -0.0669 1.4877
C4 C 0.6976(4) -0.01927(11) 1.5510(4)
H3 H 0.7198 -0.0235 1.6644
C5 C 0.7654(4) 0.01231(11) 1.4928(4)
H4 H 0.8333 0.0295 1.5656
C6 C 0.7317(4) 0.01855(9) 1.3235(4)
C7 C 0.7369(4) 0.04704(9) 1.0880(4)
C8 C 0.7769(4) 0.07582(9) 0.9725(4)
C9 C 0.8952(4) 0.10457(9) 1.0304(4)
H5 H 0.9519 0.1048 1.1414
C10 C 0.9298(4) 0.13260(9) 0.9261(4)
H6 H 1.0112 0.1513 0.9672
C11 C 0.8452(4) 0.13352(9) 0.7606(4)
C12 C 0.7293(4) 0.10421(9) 0.7024(4)
H7 H 0.6734 0.1037 0.5911
C13 C 0.6963(4) 0.07599(9) 0.8070(4)
H8 H 0.6183 0.0567 0.7653
C14 C 0.8821(4) 0.16404(9) 0.6483(4)
C15 C 0.9434(5) 0.20005(10) 0.7092(4)
H9 H 0.9528 0.2058 0.8201
C16 C 0.9908(5) 0.22741(10) 0.6082(4)
H10 H 1.0313 0.2514 0.6512
C17 C 0.9781(4) 0.21923(9) 0.4444(4)
C18 C 0.9087(4) 0.18467(10) 0.3790(4)
H11 H 0.8934 0.1797 0.2666
C19 C 0.8618(4) 0.15731(10) 0.4799(4)
H12 H 0.8158 0.1339 0.4346
C20 C 1.2103(5) 0.25824(10) 0.3791(5)
C21 C 1.3408(5) 0.24848(12) 0.5114(5)
H13 H 1.3228 0.2334 0.5981
C22 C 1.5019(6) 0.26220(16) 0.5102(7)
H14 H 1.5939 0.2556 0.5954
C23 C 1.5233(8) 0.28570(16) 0.3814(8)
H15 H 1.6300 0.2952 0.3835
C24 C 1.3923(7) 0.29530(12) 0.2516(7)
H16 H 1.4102 0.3112 0.1674
C25 C 1.2320(6) 0.28109(9) 0.2462(5)
C26 C 1.0742(6) 0.28275(10) 0.1282(5)
C27 C 1.0172(7) 0.30085(11) -0.0264(6)
H17 H 1.0901 0.3159 -0.0702
C28 C 0.8547(8) 0.29608(13) -0.1111(6)
H18 H 0.8168 0.3074 -0.2148
C29 C 0.7445(6) 0.27433(12) -0.0431(5)
H19 H 0.6330 0.2718 -0.1017
C30 C 0.7960(6) 0.25648(11) 0.1079(5)
H20 H 0.7215 0.2420 0.1519
C31 C 0.9605(5) 0.26073(10) 0.1917(5)
N1 N 1.0438(4) 0.24631(8) 0.3453(4)
N2 N 0.7924(3) 0.04925(8) 1.2472(3)
S2 S 0.68218(14) 0.64452(3) 0.57650(12)
C32 C 0.6369(4) 0.65249(9) 0.7649(4)
C33 C 0.6104(6) 0.68757(11) 0.8366(5)
H21 H 0.6158 0.7110 0.7828
C34 C 0.5754(6) 0.68638(12) 0.9928(5)
H22 H 0.5587 0.7093 1.0457
C35 C 0.5658(5) 0.65141(12) 1.0669(5)
H23 H 0.5409 0.6510 1.1700
C36 C 0.5909(5) 0.61791(11) 0.9973(5)
H24 H 0.5855 0.5947 1.0525
C37 C 0.6248(4) 0.61775(9) 0.8434(4)
C38 C 0.6918(4) 0.59476(8) 0.6206(4)
C39 C 0.7341(4) 0.56700(8) 0.5026(4)
C40 C 0.7027(4) 0.52777(8) 0.5164(4)
H25 H 0.6549 0.5192 0.6006
C41 C 0.7415(4) 0.50140(9) 0.4071(4)
H26 H 0.7184 0.4752 0.4177
C42 C 0.8147(3) 0.51330(9) 0.2808(4)
C43 C 0.8439(4) 0.55243(9) 0.2666(4)
H27 H 0.8916 0.5611 0.1825
C44 C 0.8035(4) 0.57882(9) 0.3753(4)
H28 H 0.8233 0.6051 0.3625
C45 C 0.8692(4) 0.48505(8) 0.1700(4)
C46 C 0.9284(4) 0.44830(8) 0.2288(4)
H29 H 0.9252 0.4410 0.3356
C47 C 0.9911(4) 0.42272(9) 0.1317(4)
H30 H 1.0288 0.3984 0.1726
C48 C 0.9980(4) 0.43324(9) -0.0257(4)
C49 C 0.9377(4) 0.46896(9) -0.0881(4)
H31 H 0.9405 0.4760 -0.1951
C50 C 0.8728(4) 0.49435(9) 0.0100(4)
H32 H 0.8307 0.5182 -0.0333
C51 C 0.9973(4) 0.39140(8) -0.2729(4)
C52 C 0.8297(4) 0.39357(10) -0.3588(4)
H33 H 0.7523 0.4081 -0.3191
C53 C 0.7830(5) 0.37333(11) -0.5049(4)
H34 H 0.6712 0.3737 -0.5642
C54 C 0.9010(6) 0.35223(11) -0.5657(5)
H35 H 0.8667 0.3394 -0.6663
C55 C 1.0651(5) 0.35012(10) -0.4804(5)
H36 H 1.1419 0.3357 -0.5218
C56 C 1.1163(4) 0.36978(9) -0.3305(4)
C57 C 1.2724(4) 0.37291(8) -0.2071(4)
C58 C 1.4358(5) 0.35892(10) -0.1933(5)
H37 H 1.4595 0.3431 -0.2752
C59 C 1.5599(5) 0.36883(11) -0.0584(6)
H38 H 1.6686 0.3597 -0.0486
C60 C 1.5254(5) 0.39244(11) 0.0645(5)
H39 H 1.6126 0.3991 0.1543
C61 C 1.3670(4) 0.40617(9) 0.0574(4)
H40 H 1.3445 0.4214 0.1417
C62 C 1.2419(4) 0.39651(8) -0.0803(4)
N3 N 1.0734(3) 0.40759(7) -0.1214(3)
N4 N 0.6524(4) 0.58408(7) 0.7609(3)
loop_
_geom_bond_atom_site_label_1
_geom_bond_atom_site_label_2
_geom_bond_site_symmetry_1
_geom_bond_site_symmetry_2
S1 C1 1_555 1_555
C1 C2 1_555 1_555
C2 H1 1_555 1_555
C3 C2 1_555 1_555
H2 C3 1_555 1_555
C4 C3 1_555 1_555
H3 C4 1_555 1_555
C5 C4 1_555 1_555
H4 C5 1_555 1_555
C6 C1 1_555 1_555
C7 S1 1_555 1_555
C8 C7 1_555 1_555
C9 C8 1_555 1_555
H5 C9 1_555 1_555
C10 C9 1_555 1_555
H6 C10 1_555 1_555
C11 C10 1_555 1_555
C12 C11 1_555 1_555
H7 C12 1_555 1_555
C13 C8 1_555 1_555
H8 C13 1_555 1_555
C14 C11 1_555 1_555
C15 C14 1_555 1_555
H9 C15 1_555 1_555
C16 C15 1_555 1_555
H10 C16 1_555 1_555
C17 C16 1_555 1_555
C18 C17 1_555 1_555
H11 C18 1_555 1_555
C19 C14 1_555 1_555
H12 C19 1_555 1_555
C20 C21 1_555 1_555
C21 H13 1_555 1_555
C22 C21 1_555 1_555
H14 C22 1_555 1_555
C23 C22 1_555 1_555
H15 C23 1_555 1_555
C24 C23 1_555 1_555
H16 C24 1_555 1_555
C25 C20 1_555 1_555
C26 C25 1_555 1_555
C27 C26 1_555 1_555
H17 C27 1_555 1_555
C28 C27 1_555 1_555
H18 C28 1_555 1_555
C29 C28 1_555 1_555
H19 C29 1_555 1_555
C30 C29 1_555 1_555
H20 C30 1_555 1_555
C31 C26 1_555 1_555
N1 C17 1_555 1_555
N2 C6 1_555 1_555
S2 C32 1_555 1_555
C32 C33 1_555 1_555
C33 H21 1_555 1_555
C34 C33 1_555 1_555
H22 C34 1_555 1_555
C35 C34 1_555 1_555
H23 C35 1_555 1_555
C36 C35 1_555 1_555
H24 C36 1_555 1_555
C37 C32 1_555 1_555
C38 S2 1_555 1_555
C39 C38 1_555 1_555
C40 C39 1_555 1_555
H25 C40 1_555 1_555
C41 C40 1_555 1_555
H26 C41 1_555 1_555
C42 C41 1_555 1_555
C43 C42 1_555 1_555
H27 C43 1_555 1_555
C44 C39 1_555 1_555
H28 C44 1_555 1_555
C45 C42 1_555 1_555
C46 C45 1_555 1_555
H29 C46 1_555 1_555
C47 C46 1_555 1_555
H30 C47 1_555 1_555
C48 C47 1_555 1_555
C49 C48 1_555 1_555
H31 C49 1_555 1_555
C50 C45 1_555 1_555
H32 C50 1_555 1_555
C51 C52 1_555 1_555
C52 H33 1_555 1_555
C53 C52 1_555 1_555
H34 C53 1_555 1_555
C54 C53 1_555 1_555
H35 C54 1_555 1_555
C55 C54 1_555 1_555
H36 C55 1_555 1_555
C56 C51 1_555 1_555
C57 C56 1_555 1_555
C58 C57 1_555 1_555
H37 C58 1_555 1_555
C59 C58 1_555 1_555
H38 C59 1_555 1_555
C60 C59 1_555 1_555
H39 C60 1_555 1_555
C61 C60 1_555 1_555
H40 C61 1_555 1_555
C62 C57 1_555 1_555
N3 C48 1_555 1_555
N4 C37 1_555 1_555
C5 C6 1_555 1_555
C7 N2 1_555 1_555
C12 C13 1_555 1_555
C18 C19 1_555 1_555
C20 N1 1_555 1_555
C24 C25 1_555 1_555
C30 C31 1_555 1_555
C31 N1 1_555 1_555
C36 C37 1_555 1_555
C38 N4 1_555 1_555
C43 C44 1_555 1_555
C49 C50 1_555 1_555
C51 N3 1_555 1_555
C55 C56 1_555 1_555
C61 C62 1_555 1_555
C62 N3 1_555 1_555

#END
