
#######################################################################
#
#                 Cambridge Crystallographic Data Centre
#                                CCDC 
#
#######################################################################
#
# If this CIF has been generated from an entry in the Cambridge 
# Structural Database, then it will include bibliographic, chemical, 
# crystal, experimental, refinement or atomic coordinate data resulting 
# from the CCDC's data processing and validation procedures.
#
#######################################################################

data_AWALOB
_chemical_name_common            
'4,16-di-t-butyl-24,33-bis(4-nitrophenyl)-8,12-dioxa-38,39,40,41-tetraazaoctacyclo[17.9.9.1$20,23!.1$25,28!.1$29,32!.1$34,37!.0$2,7!.0$13,18!]hentetraconta-1(28),2,4,6,13,15,17,19,21,23,25(40),26,29,31,33,35,37-heptadecaene unknown solvate'
_chemical_formula_moiety         'C55 H48 N6 O6'
_chemical_name_systematic        
"5,15-(2,2'-(propane-1,3-diylbis(oxy))bis(5-t-butylphenyl))-10,20-bis(4-nitrophenyl)porphyrin unknown solvate"
_symmetry_cell_setting           monoclinic
_symmetry_space_group_name_H-M   'C 2/c'
_symmetry_Int_Tables_number      15
_space_group_name_Hall           '-C 2yn'
loop_
_symmetry_equiv_pos_site_id
_symmetry_equiv_pos_as_xyz
1 x,y,z
2 -x,y,1/2-z
3 1/2+x,1/2+y,z
4 1/2-x,1/2+y,1/2-z
5 -x,-y,-z
6 x,-y,1/2+z
7 1/2-x,1/2-y,-z
8 1/2+x,1/2-y,1/2+z
_cell_length_a                   32.7660(9)
_cell_length_b                   20.1360(6)
_cell_length_c                   15.4351(3)
_cell_angle_alpha                90
_cell_angle_beta                 94.707(2)
_cell_angle_gamma                90
_cell_volume                     10149.4
_exptl_crystal_colour            'light purple'
_exptl_crystal_description       needle
_cell_formula_units_Z            8
_chemical_properties_physical    Photo-sensitive
_exptl_crystal_recrystallization_method chloroform/methanol
_exptl_crystal_preparation       Luminescent
loop_
_atom_site_label
_atom_site_type_symbol
_atom_site_fract_x
_atom_site_fract_y
_atom_site_fract_z
C1 C 0.29128(8) 0.12690(13) 0.51670(17)
C2 C 0.27298(8) 0.13621(13) 0.59514(17)
H1 H 0.2558 0.1724 0.6008
C3 C 0.28011(8) 0.09203(14) 0.66509(17)
C4 C 0.30624(9) 0.03874(13) 0.65485(19)
H2 H 0.3122 0.0098 0.7011
C5 C 0.32383(9) 0.02754(14) 0.57609(19)
H3 H 0.3410 -0.0087 0.5704
C6 C 0.31563(8) 0.07012(13) 0.50770(18)
C7 C 0.25893(9) 0.10421(14) 0.74821(18)
C8 C 0.21239(9) 0.10038(17) 0.72793(18)
H4 H 0.1991 0.1077 0.7803
H5 H 0.2051 0.0573 0.7049
H6 H 0.2038 0.1338 0.6859
C9 C 0.27129(9) 0.05207(14) 0.81956(18)
H7 H 0.3004 0.0532 0.8329
H8 H 0.2632 0.0086 0.7990
H9 H 0.2579 0.0621 0.8710
C10 C 0.27001(12) 0.17377(15) 0.78438(19)
H10 H 0.2594 0.2069 0.7438
H11 H 0.2992 0.1780 0.7930
H12 H 0.2583 0.1798 0.8388
C11 C 0.36827(9) 0.08429(14) 0.40638(18)
H13 H 0.3911 0.0647 0.4415
H14 H 0.3683 0.1318 0.4166
C12 C 0.37160(9) 0.06970(15) 0.31095(18)
H15 H 0.3479 0.0882 0.2778
H16 H 0.3710 0.0220 0.3025
C13 C 0.41009(9) 0.09728(14) 0.27509(19)
H17 H 0.4115 0.1451 0.2827
H18 H 0.4344 0.0775 0.3047
C14 C 0.43504(9) 0.10823(14) 0.13242(18)
C15 C 0.46641(10) 0.06893(15) 0.1060(2)
H19 H 0.4699 0.0260 0.1277
C16 C 0.49271(10) 0.09298(16) 0.0474(2)
H20 H 0.5133 0.0655 0.0297
C17 C 0.48914(9) 0.15775(15) 0.01407(19)
C18 C 0.45754(9) 0.19761(14) 0.04334(18)
H21 H 0.4544 0.2409 0.0227
C19 C 0.43107(8) 0.17422(13) 0.10182(18)
C20 C 0.51902(10) 0.18451(16) -0.0480(2)
C21 C 0.53621(15) 0.1292(2) -0.1018(3)
H22 H 0.5505 0.0977 -0.0638
H23 H 0.5548 0.1478 -0.1403
H24 H 0.5142 0.1073 -0.1353
C22 C 0.55465(11) 0.2170(2) 0.0074(3)
H25 H 0.5452 0.2569 0.0333
H26 H 0.5762 0.2276 -0.0288
H27 H 0.5648 0.1868 0.0522
C23 C 0.49906(12) 0.2388(2) -0.1089(2)
H28 H 0.4755 0.2206 -0.1418
H29 H 0.5185 0.2538 -0.1478
H30 H 0.4908 0.2754 -0.0747
C24 C 0.39700(8) 0.21394(13) 0.13370(17)
C25 C 0.40644(8) 0.26296(13) 0.19660(17)
C26 C 0.44439(9) 0.29772(14) 0.21474(18)
H31 H 0.4681 0.2914 0.1866
C27 C 0.43953(8) 0.34175(14) 0.28062(18)
H32 H 0.4587 0.3725 0.3031
C28 C 0.39934(9) 0.33170(12) 0.30859(18)
C29 C 0.38461(8) 0.35122(13) 0.38818(17)
C30 C 0.40679(8) 0.40775(14) 0.43405(18)
C31 C 0.40660(9) 0.46978(15) 0.3936(2)
H33 H 0.3930 0.4751 0.3387
C32 C 0.42651(10) 0.52354(16) 0.4343(2)
H34 H 0.4265 0.5648 0.4072
C33 C 0.44632(10) 0.51457(17) 0.5159(2)
C34 C 0.44805(10) 0.45376(17) 0.5565(2)
H35 H 0.4623 0.4487 0.6107
C35 C 0.42821(9) 0.39978(16) 0.5151(2)
H36 H 0.4293 0.3583 0.5417
C36 C 0.35474(8) 0.31515(13) 0.42808(18)
C37 C 0.34697(8) 0.31989(14) 0.51873(19)
H37 H 0.3557 0.3535 0.5572
C38 C 0.32421(8) 0.26542(14) 0.53698(17)
H38 H 0.3163 0.2525 0.5910
C39 C 0.31501(8) 0.23194(14) 0.45439(17)
C40 C 0.28933(8) 0.17570(13) 0.44330(17)
C41 C 0.26827(8) 0.15648(13) 0.36508(17)
C42 C 0.23296(8) 0.11508(13) 0.35413(17)
H39 H 0.2210 0.0924 0.3980
C43 C 0.21985(8) 0.11465(13) 0.26763(17)
H40 H 0.1964 0.0937 0.2428
C44 C 0.24844(8) 0.15203(13) 0.22213(17)
C45 C 0.25394(9) 0.15365(13) 0.13356(18)
C46 C 0.22340(8) 0.12074(14) 0.07053(16)
C47 C 0.20139(9) 0.15880(14) 0.00671(18)
H41 H 0.2056 0.2044 0.0046
C48 C 0.17339(8) 0.12891(14) -0.05350(17)
H42 H 0.1583 0.1542 -0.0951
C49 C 0.16842(8) 0.06111(14) -0.05052(16)
C50 C 0.18964(8) 0.02197(13) 0.01224(16)
H43 H 0.1856 -0.0237 0.0137
C51 C 0.21670(8) 0.05258(13) 0.07206(16)
H44 H 0.2309 0.0271 0.1147
C52 C 0.29152(8) 0.17252(13) 0.10172(17)
C53 C 0.30547(9) 0.14796(14) 0.02135(18)
H45 H 0.2894 0.1290 -0.0247
C54 C 0.34672(9) 0.15792(14) 0.02618(18)
H46 H 0.3647 0.1446 -0.0140
C55 C 0.35669(8) 0.19324(14) 0.10617(18)
N1 N 0.32287(7) 0.20343(11) 0.15143(14)
H47 H 0.3215 0.2243 0.1997
N2 N 0.27578(7) 0.17876(11) 0.28437(14)
N3 N 0.33295(7) 0.26341(11) 0.38942(15)
H48 H 0.3310 0.2530 0.3352
N4 N 0.38000(7) 0.28639(11) 0.25340(14)
N5 N 0.14109(7) 0.02863(12) -0.11742(14)
O1 O 0.32981(6) 0.05507(10) 0.42760(12)
O2 O 0.40699(6) 0.08038(10) 0.18419(13)
O3 O 0.14530(7) -0.03115(10) -0.12923(13)
O4 O 0.11578(6) 0.06299(11) -0.15933(13)
N6 N 0.46584(17) 0.5754(3) 0.5547(4)
O5 O 0.48538(12) 0.5652(3) 0.6226(4)
O6 O 0.4612(2) 0.6281(3) 0.5167(4)
H49? H 0.2951 0.2059 0.2740
H50? H 0.3548 0.2744 0.2543
O7? O 0.4881(3) 0.5487(6) 0.6491(8)
O8? O 0.4700(4) 0.6194(6) 0.5384(8)
N7? N 0.4711(4) 0.5612(6) 0.5742(9)
loop_
_geom_bond_atom_site_label_1
_geom_bond_atom_site_label_2
_geom_bond_site_symmetry_1
_geom_bond_site_symmetry_2
C1 C2 1_555 1_555
C2 H1 1_555 1_555
C3 C2 1_555 1_555
C4 C3 1_555 1_555
H2 C4 1_555 1_555
C5 C4 1_555 1_555
H3 C5 1_555 1_555
C6 C1 1_555 1_555
C7 C3 1_555 1_555
C8 C7 1_555 1_555
H4 C8 1_555 1_555
H5 C8 1_555 1_555
H6 C8 1_555 1_555
C9 C7 1_555 1_555
H7 C9 1_555 1_555
H8 C9 1_555 1_555
H9 C9 1_555 1_555
C10 C7 1_555 1_555
H10 C10 1_555 1_555
H11 C10 1_555 1_555
H12 C10 1_555 1_555
C11 H13 1_555 1_555
H14 C11 1_555 1_555
C12 C11 1_555 1_555
H15 C12 1_555 1_555
H16 C12 1_555 1_555
C13 C12 1_555 1_555
H17 C13 1_555 1_555
H18 C13 1_555 1_555
C14 C15 1_555 1_555
C15 H19 1_555 1_555
C16 C15 1_555 1_555
H20 C16 1_555 1_555
C17 C16 1_555 1_555
C18 C17 1_555 1_555
H21 C18 1_555 1_555
C19 C14 1_555 1_555
C20 C17 1_555 1_555
C21 C20 1_555 1_555
H22 C21 1_555 1_555
H23 C21 1_555 1_555
H24 C21 1_555 1_555
C22 C20 1_555 1_555
H25 C22 1_555 1_555
H26 C22 1_555 1_555
H27 C22 1_555 1_555
C23 C20 1_555 1_555
H28 C23 1_555 1_555
H29 C23 1_555 1_555
H30 C23 1_555 1_555
C24 C19 1_555 1_555
C25 C24 1_555 1_555
C26 C25 1_555 1_555
H31 C26 1_555 1_555
C27 C26 1_555 1_555
H32 C27 1_555 1_555
C28 C27 1_555 1_555
C29 C28 1_555 1_555
C30 C29 1_555 1_555
C31 C30 1_555 1_555
H33 C31 1_555 1_555
C32 C31 1_555 1_555
H34 C32 1_555 1_555
C33 C32 1_555 1_555
C34 C33 1_555 1_555
H35 C34 1_555 1_555
C35 C30 1_555 1_555
H36 C35 1_555 1_555
C36 C29 1_555 1_555
C37 C36 1_555 1_555
H37 C37 1_555 1_555
C38 C37 1_555 1_555
H38 C38 1_555 1_555
C39 C38 1_555 1_555
C40 C1 1_555 1_555
C41 C40 1_555 1_555
C42 C41 1_555 1_555
H39 C42 1_555 1_555
C43 C42 1_555 1_555
H40 C43 1_555 1_555
C44 C43 1_555 1_555
C45 C44 1_555 1_555
C46 C45 1_555 1_555
C47 C46 1_555 1_555
H41 C47 1_555 1_555
C48 C47 1_555 1_555
H42 C48 1_555 1_555
C49 C48 1_555 1_555
C50 C49 1_555 1_555
H43 C50 1_555 1_555
C51 C46 1_555 1_555
H44 C51 1_555 1_555
C52 C45 1_555 1_555
C53 C52 1_555 1_555
H45 C53 1_555 1_555
C54 C53 1_555 1_555
H46 C54 1_555 1_555
C55 C24 1_555 1_555
N1 C52 1_555 1_555
H47 N1 1_555 1_555
N2 C41 1_555 1_555
N3 C36 1_555 1_555
H48 N3 1_555 1_555
N4 C25 1_555 1_555
N5 C49 1_555 1_555
O1 C6 1_555 1_555
O2 C13 1_555 1_555
O3 N5 1_555 1_555
O4 N5 1_555 1_555
N6 C33 1_555 1_555
O5 N6 1_555 1_555
O6 N6 1_555 1_555
C5 C6 1_555 1_555
C11 O1 1_555 1_555
C14 O2 1_555 1_555
C18 C19 1_555 1_555
C28 N4 1_555 1_555
C34 C35 1_555 1_555
C39 C40 1_555 1_555
C39 N3 1_555 1_555
C44 N2 1_555 1_555
C50 C51 1_555 1_555
C54 C55 1_555 1_555
C55 N1 1_555 1_555

#END
