
#######################################################################
#
#                 Cambridge Crystallographic Data Centre
#                                CCDC 
#
#######################################################################
#
# If this CIF has been generated from an entry in the Cambridge 
# Structural Database, then it will include bibliographic, chemical, 
# crystal, experimental, refinement or atomic coordinate data resulting 
# from the CCDC's data processing and validation procedures.
#
#######################################################################

data_AWAMAO
_chemical_name_common            
'4,18-di-t-butyl-26,35-bis(4-nitrophenyl)-8,14-dioxa-40,41,42,43-tetraazaoctacyclo[19.9.9.1$22,25!.1$27,30!.1$31,34!.1$36,39!.0$2,7!.0$15,20!]tritetraconta-1(30),2,4,6,15,17,19,21,23,25,27(42),28,31,33,35,37,39-heptadecaene unknown solvate'
_chemical_formula_moiety         'C57 H52 N6 O6'
_chemical_name_systematic        
"5,15-(2,2'-(pentane-1,5-diylbis(oxy))bis(5-t-butylphenyl))-10,20-bis(4-nitrophenyl)porphyrin unknown solvate"
_symmetry_cell_setting           triclinic
_symmetry_space_group_name_H-M   'P -1'
_symmetry_Int_Tables_number      2
_space_group_name_Hall           '-P 1'
loop_
_symmetry_equiv_pos_site_id
_symmetry_equiv_pos_as_xyz
1 x,y,z
2 -x,-y,-z
_cell_length_a                   13.7346(10)
_cell_length_b                   16.385(9)
_cell_length_c                   16.825(8)
_cell_angle_alpha                103.443(9)
_cell_angle_beta                 107.063(16)
_cell_angle_gamma                114.025(19)
_cell_volume                     3025.63
_exptl_crystal_colour            'light purple'
_exptl_crystal_description       prism
_cell_formula_units_Z            2
_chemical_properties_physical    Photo-sensitive
_exptl_crystal_recrystallization_method chloroform/methanol
_exptl_crystal_preparation       Luminescent
loop_
_atom_site_label
_atom_site_type_symbol
_atom_site_fract_x
_atom_site_fract_y
_atom_site_fract_z
O1 O 0.7224(2) 0.76061(16) 1.00436(18)
O2 O 0.2309(3) 0.2788(2) 0.6914(2)
O3 O 0.4028(3) 0.7568(2) 0.38992(17)
O4 O 0.2173(4) 0.7093(2) 0.33876(18)
O5 O 0.1701(3) 0.4428(2) 1.40658(15)
O6 O 0.0005(2) 0.4288(2) 1.34271(17)
N1 N 0.3908(2) 0.69512(17) 0.87155(15)
H1 H 0.3370 0.6464 0.8764
N2 N 0.1965(2) 0.50923(17) 0.75408(15)
N3 N 0.1607(2) 0.46389(17) 0.90505(14)
H2 H 0.2020 0.5169 0.8981
N4 N 0.3577(2) 0.65174(17) 1.02438(14)
N5 N 0.3099(3) 0.72473(19) 0.39576(17)
N6 N 0.0973(3) 0.44617(18) 1.34674(16)
C1 C 0.4966(3) 0.7704(2) 0.94210(19)
C2 C 0.5570(3) 0.8356(2) 0.9064(2)
H3 H 0.6327 0.8935 0.9398
C3 C 0.4857(3) 0.7991(2) 0.81558(19)
H4 H 0.5018 0.8288 0.7752
C4 C 0.3822(3) 0.7078(2) 0.79178(18)
C5 C 0.2967(3) 0.6372(2) 0.70490(18)
C6 C 0.2140(3) 0.5423(2) 0.68850(18)
C7 C 0.1480(3) 0.4604(2) 0.59954(17)
H5 H 0.1416 0.4642 0.5429
C8 C 0.0980(3) 0.3787(2) 0.61372(19)
H6 H 0.0530 0.3134 0.5694
C9 C 0.1260(3) 0.4095(2) 0.70958(18)
C10 C 0.0845(3) 0.3440(2) 0.74974(18)
C11 C 0.0955(3) 0.3705(2) 0.83855(18)
C12 C 0.0396(3) 0.3061(2) 0.87711(19)
H7 H -0.0111 0.2372 0.8472
C13 C 0.0735(3) 0.3633(2) 0.96552(19)
H8 H 0.0488 0.3405 1.0071
C14 C 0.1517(3) 0.4619(2) 0.98411(18)
C15 C 0.2202(3) 0.5415(2) 1.06943(17)
C16 C 0.3191(3) 0.6295(2) 1.08807(17)
C17 C 0.4035(3) 0.7042(2) 1.17865(17)
H9 H 0.3950 0.7078 1.2332
C18 C 0.4978(3) 0.7683(2) 1.17029(17)
H10 H 0.5693 0.8234 1.2180
C19 C 0.4663(3) 0.7347(2) 1.07229(17)
C20 C 0.5372(3) 0.7856(2) 1.03437(18)
C21 C 0.6649(3) 0.8586(2) 1.09260(19)
C22 C 0.7511(3) 0.8402(2) 1.0781(2)
C23 C 0.8697(3) 0.9089(3) 1.1321(3)
H11 H 0.9279 0.8965 1.1223
C24 C 0.9054(3) 0.9960(3) 1.2005(2)
H12 H 0.9876 1.0414 1.2369
C25 C 0.8242(3) 1.0180(2) 1.2168(2)
C26 C 0.7035(3) 0.9470(2) 1.16204(18)
H13 H 0.6458 0.9596 1.1726
C27 C 0.8590(4) 1.1138(3) 1.2888(2)
C28 C 0.8058(6) 1.1671(4) 1.2417(3)
H14 H 0.7195 1.1246 1.2081
H15 H 0.8393 1.1828 1.1995
H16 H 0.8251 1.2275 1.2878
C29 C 0.9962(5) 1.1839(4) 1.3413(4)
H17 H 1.0142 1.2449 1.3857
H18 H 1.0286 1.1981 1.2983
H19 H 1.0318 1.1528 1.3730
C30 C 0.8129(5) 1.0955(4) 1.3591(3)
H20 H 0.7269 1.0504 1.3282
H21 H 0.8308 1.1574 1.4019
H22 H 0.8513 1.0668 1.3923
C31 C 0.6524(4) 0.6631(3) 0.9978(3)
H23 H 0.5991 0.6621 1.0269
H24 H 0.7050 0.6424 1.0294
C32 C 0.5812(4) 0.5951(2) 0.8999(4)
H25 H 0.6347 0.5898 0.8731
H26 H 0.5373 0.6212 0.8669
C33 C 0.4936(4) 0.4940(3) 0.8895(4)
H27 H 0.5386 0.4656 0.9172
H28 H 0.4473 0.5011 0.9232
C34 C 0.4117(4) 0.4266(3) 0.7949(4)
H29 H 0.4569 0.4112 0.7638
H30 H 0.3766 0.4595 0.7645
C35 C 0.3106(5) 0.3302(3) 0.7840(3)
H31 H 0.3428 0.2910 0.8053
H32 H 0.2698 0.3441 0.8204
C36 C 0.0397(3) 0.2398(2) 0.69604(18)
C37 C 0.1177(3) 0.2130(2) 0.6764(2)
C38 C 0.0776(4) 0.1153(3) 0.6266(3)
H33 H 0.1304 0.0972 0.6135
C39 C -0.0383(3) 0.0460(2) 0.5968(2)
H34 H -0.0645 -0.0201 0.5632
C40 C -0.1194(3) 0.0690(3) 0.6141(2)
C41 C -0.0787(3) 0.1659(2) 0.6636(2)
H35 H -0.1325 0.1831 0.6759
C42 C -0.2493(3) -0.0094(3) 0.5810(3)
C43 C -0.3067(10) -0.0740(7) 0.4829(5)
H36 H -0.2661 -0.1098 0.4723
H37 H -0.3018 -0.0344 0.4470
H38 H -0.3901 -0.1206 0.4646
C44 C -0.2522(8) -0.0661(7) 0.6411(6)
H39 H -0.3346 -0.1148 0.6232
H40 H -0.2164 -0.0209 0.7047
H41 H -0.2077 -0.0990 0.6340
C45 C -0.3240(9) 0.0404(7) 0.5971(8)
H42 H -0.3097 0.0905 0.5724
H43 H -0.2997 0.0705 0.6624
H44 H -0.4085 -0.0093 0.5664
C46 C 0.3012(3) 0.6601(2) 0.62390(18)
C47 C 0.4030(3) 0.6882(3) 0.61073(19)
H45 H 0.4705 0.6924 0.6526
C48 C 0.4065(3) 0.7106(3) 0.5355(2)
H46 H 0.4764 0.7315 0.5267
C49 C 0.3070(3) 0.7018(2) 0.47533(17)
C50 C 0.2042(3) 0.6736(2) 0.48610(18)
H47 H 0.1366 0.6683 0.4432
C51 C 0.2021(3) 0.6529(2) 0.56146(18)
H48 H 0.1323 0.6338 0.5705
C52 C 0.1908(3) 0.5227(2) 1.14487(17)
C53 C 0.2710(3) 0.5174(2) 1.21571(18)
H49 H 0.3462 0.5310 1.2181
C54 C 0.2405(3) 0.4924(2) 1.28164(18)
H50 H 0.2938 0.4881 1.3291
C55 C 0.1303(3) 0.4736(2) 1.27693(18)
C56 C 0.0514(3) 0.4797(3) 1.2098(2)
H51 H -0.0233 0.4670 1.2081
C57 C 0.0836(3) 0.5050(3) 1.1440(2)
H52 H 0.0302 0.5102 1.0974
C58? C -0.2728(12) -0.1120(7) 0.5216(9)
H53? H -0.3542 -0.1627 0.5036
H54? H -0.2172 -0.1271 0.5573
H55? H -0.2614 -0.1094 0.4672
C59? C -0.2773(12) -0.0214(10) 0.6599(7)
H56? H -0.3513 -0.0832 0.6374
H57? H -0.2860 0.0329 0.6888
H58? H -0.2127 -0.0215 0.7044
C60? C -0.3337(10) 0.0118(9) 0.5206(8)
H59? H -0.3095 0.0251 0.4736
H60? H -0.3320 0.0688 0.5573
H61? H -0.4143 -0.0448 0.4918
loop_
_geom_bond_atom_site_label_1
_geom_bond_atom_site_label_2
_geom_bond_site_symmetry_1
_geom_bond_site_symmetry_2
O1 C22 1_555 1_555
O2 C35 1_555 1_555
O3 N5 1_555 1_555
O4 N5 1_555 1_555
O5 N6 1_555 1_555
O6 N6 1_555 1_555
N1 H1 1_555 1_555
N2 C6 1_555 1_555
N3 H2 1_555 1_555
N4 C16 1_555 1_555
N5 C49 1_555 1_555
N6 C55 1_555 1_555
C1 N1 1_555 1_555
C2 C1 1_555 1_555
H3 C2 1_555 1_555
C3 C2 1_555 1_555
H4 C3 1_555 1_555
C4 N1 1_555 1_555
C5 C4 1_555 1_555
C6 C5 1_555 1_555
C7 C6 1_555 1_555
H5 C7 1_555 1_555
C8 C7 1_555 1_555
H6 C8 1_555 1_555
C9 N2 1_555 1_555
C10 C9 1_555 1_555
C11 N3 1_555 1_555
C12 C11 1_555 1_555
H7 C12 1_555 1_555
C13 C12 1_555 1_555
H8 C13 1_555 1_555
C14 N3 1_555 1_555
C15 C14 1_555 1_555
C16 C15 1_555 1_555
C17 C16 1_555 1_555
H9 C17 1_555 1_555
C18 C17 1_555 1_555
H10 C18 1_555 1_555
C19 N4 1_555 1_555
C20 C1 1_555 1_555
C21 C20 1_555 1_555
C22 C21 1_555 1_555
C23 C22 1_555 1_555
H11 C23 1_555 1_555
C24 C23 1_555 1_555
H12 C24 1_555 1_555
C25 C24 1_555 1_555
C26 C21 1_555 1_555
H13 C26 1_555 1_555
C27 C25 1_555 1_555
C28 C27 1_555 1_555
H14 C28 1_555 1_555
H15 C28 1_555 1_555
H16 C28 1_555 1_555
C29 C27 1_555 1_555
H17 C29 1_555 1_555
H18 C29 1_555 1_555
H19 C29 1_555 1_555
C30 C27 1_555 1_555
H20 C30 1_555 1_555
H21 C30 1_555 1_555
H22 C30 1_555 1_555
C31 O1 1_555 1_555
H23 C31 1_555 1_555
H24 C31 1_555 1_555
C32 C31 1_555 1_555
H25 C32 1_555 1_555
H26 C32 1_555 1_555
C33 C32 1_555 1_555
H27 C33 1_555 1_555
H28 C33 1_555 1_555
C34 C33 1_555 1_555
H29 C34 1_555 1_555
H30 C34 1_555 1_555
C35 C34 1_555 1_555
H31 C35 1_555 1_555
H32 C35 1_555 1_555
C36 C10 1_555 1_555
C37 O2 1_555 1_555
C38 C37 1_555 1_555
H33 C38 1_555 1_555
C39 C38 1_555 1_555
H34 C39 1_555 1_555
C40 C39 1_555 1_555
C41 C36 1_555 1_555
H35 C41 1_555 1_555
C42 C40 1_555 1_555
C43 C42 1_555 1_555
H36 C43 1_555 1_555
H37 C43 1_555 1_555
H38 C43 1_555 1_555
C44 C42 1_555 1_555
H39 C44 1_555 1_555
H40 C44 1_555 1_555
H41 C44 1_555 1_555
C45 C42 1_555 1_555
H42 C45 1_555 1_555
H43 C45 1_555 1_555
H44 C45 1_555 1_555
C46 C5 1_555 1_555
C47 C46 1_555 1_555
H45 C47 1_555 1_555
C48 C47 1_555 1_555
H46 C48 1_555 1_555
C49 C48 1_555 1_555
C50 C49 1_555 1_555
H47 C50 1_555 1_555
C51 C46 1_555 1_555
H48 C51 1_555 1_555
C52 C15 1_555 1_555
C53 C52 1_555 1_555
H49 C53 1_555 1_555
C54 C53 1_555 1_555
H50 C54 1_555 1_555
C55 C54 1_555 1_555
C56 C55 1_555 1_555
H51 C56 1_555 1_555
C57 C52 1_555 1_555
H52 C57 1_555 1_555
C3 C4 1_555 1_555
C8 C9 1_555 1_555
C10 C11 1_555 1_555
C13 C14 1_555 1_555
C18 C19 1_555 1_555
C19 C20 1_555 1_555
C25 C26 1_555 1_555
C36 C37 1_555 1_555
C40 C41 1_555 1_555
C50 C51 1_555 1_555
C56 C57 1_555 1_555

#END
