
#######################################################################
#
#                 Cambridge Crystallographic Data Centre
#                                CCDC 
#
#######################################################################
#
# If this CIF has been generated from an entry in the Cambridge 
# Structural Database, then it will include bibliographic, chemical, 
# crystal, experimental, refinement or atomic coordinate data resulting 
# from the CCDC's data processing and validation procedures.
#
#######################################################################

data_AWAQIZ
_chemical_formula_moiety         'C30 H27 Br1 N2 O4'
_chemical_name_systematic        
'Methyl N-((benzyloxy)carbonyl)-\b-((4-bromophenyl)amino)-\a-phenylphenylalaninate'
_symmetry_cell_setting           monoclinic
_symmetry_space_group_name_H-M   'P 21'
_symmetry_Int_Tables_number      4
_space_group_name_Hall           'P 2yb'
loop_
_symmetry_equiv_pos_site_id
_symmetry_equiv_pos_as_xyz
1 x,y,z
2 -x,1/2+y,-z
_cell_length_a                   8.0469(8)
_cell_length_b                   16.2859(16)
_cell_length_c                   10.5311(10)
_cell_angle_alpha                90
_cell_angle_beta                 106.797(3)
_cell_angle_gamma                90
_cell_volume                     1321.23
_exptl_crystal_colour            colorless
_exptl_crystal_description       block
_cell_formula_units_Z            2
loop_
_atom_site_label
_atom_site_type_symbol
_atom_site_fract_x
_atom_site_fract_y
_atom_site_fract_z
Br1 Br 0.88420(4) -0.12742(4) -0.05139(4)
O1 O 1.9570(2) -0.13716(16) 0.43077(19)
O2 O 2.0249(3) -0.1270(2) 0.6511(2)
O3 O 1.8304(4) 0.0972(2) 0.7994(3)
O4 O 1.6896(5) 0.12373(18) 0.5835(3)
N1 N 1.6073(3) -0.08709(18) 0.3263(2)
H1 H 1.6939 -0.1055 0.3025
N2 N 1.8562(3) 0.00952(18) 0.6481(3)
H2 H 1.9192 -0.0164 0.7163
C1 C 1.2966(4) -0.0656(2) 0.2707(3)
H3 H 1.3094 -0.0401 0.3520
C2 C 1.1324(4) -0.0740(3) 0.1833(3)
H4 H 1.0361 -0.0542 0.2056
C3 C 1.1126(4) -0.1114(3) 0.0646(3)
C4 C 1.2536(4) -0.1377(3) 0.0283(3)
H5 H 1.2393 -0.1609 -0.0549
C5 C 1.4176(4) -0.1296(3) 0.1162(3)
H6 H 1.5134 -0.1482 0.0920
C6 C 1.4418(4) -0.09407(19) 0.2401(3)
C7 C 1.5036(4) -0.0634(2) 0.6433(4)
H7 H 1.4900 -0.0067 0.6412
C8 C 1.4531(4) -0.1093(3) 0.7364(4)
H8 H 1.4069 -0.0833 0.7972
C9 C 1.4710(5) -0.1928(3) 0.7393(4)
H9 H 1.4396 -0.2235 0.8032
C10 C 1.5352(5) -0.2309(3) 0.6483(4)
H10 H 1.5429 -0.2879 0.6478
C11 C 1.5892(5) -0.1851(2) 0.5561(4)
H11 H 1.6359 -0.2116 0.4960
C12 C 1.5743(4) -0.1015(2) 0.5530(3)
C13 C 1.8072(5) 0.0778(3) 0.3275(4)
H12 H 1.6889 0.0670 0.2955
C14 C 1.8826(7) 0.1360(3) 0.2658(4)
H13 H 1.8142 0.1645 0.1928
C15 C 2.0576(7) 0.1521(3) 0.3115(5)
H14 H 2.1074 0.1911 0.2693
C16 C 2.1570(6) 0.1108(3) 0.4180(5)
H15 H 2.2756 0.1210 0.4488
C17 C 2.0816(5) 0.0534(2) 0.4810(4)
H16 H 2.1503 0.0261 0.5552
C18 C 1.9067(4) 0.0359(2) 0.4358(3)
C19 C 1.5723(7) 0.0894(3) 0.9590(5)
H17 H 1.6735 0.0637 1.0084
C20 C 1.4165(9) 0.0723(4) 0.9851(5)
H18 H 1.4155 0.0368 1.0541
C21 C 1.2742(8) 0.1044(4) 0.9156(7)
H19 H 1.1714 0.0918 0.9350
C22 C 1.2700(7) 0.1545(5) 0.8183(8)
H20 H 1.1644 0.1763 0.7688
C23 C 1.4219(8) 0.1758(3) 0.7869(5)
H21 H 1.4170 0.2111 0.7166
C24 C 1.5791(5) 0.1441(2) 0.8610(4)
C25 C 1.7454(7) 0.1686(3) 0.8365(6)
H22 H 1.7228 0.2090 0.7659
H23 H 1.8214 0.1933 0.9160
C26 C 1.7824(5) 0.0814(3) 0.6674(4)
C27 C 1.8339(4) -0.0257(2) 0.5178(3)
C28 C 1.9488(4) -0.1029(2) 0.5437(3)
C29 C 2.0709(5) -0.2075(2) 0.4423(4)
H24 H 2.0663 -0.2271 0.3554
H25 H 2.0342 -0.2503 0.4908
H26 H 2.1877 -0.1917 0.4884
C30 C 1.6383(4) -0.0493(2) 0.4565(3)
H27 H 1.5718 0.0020 0.4436
loop_
_geom_bond_atom_site_label_1
_geom_bond_atom_site_label_2
_geom_bond_site_symmetry_1
_geom_bond_site_symmetry_2
Br1 C3 1_555 1_555
O1 C28 1_555 1_555
O2 C28 1_555 1_555
O3 C25 1_555 1_555
O4 C26 1_555 1_555
N1 H1 1_555 1_555
N2 H2 1_555 1_555
C1 H3 1_555 1_555
C2 C1 1_555 1_555
H4 C2 1_555 1_555
C3 C2 1_555 1_555
C4 C3 1_555 1_555
H5 C4 1_555 1_555
C5 C4 1_555 1_555
H6 C5 1_555 1_555
C6 N1 1_555 1_555
C7 H7 1_555 1_555
C8 C7 1_555 1_555
H8 C8 1_555 1_555
C9 C8 1_555 1_555
H9 C9 1_555 1_555
C10 C9 1_555 1_555
H10 C10 1_555 1_555
C11 C10 1_555 1_555
H11 C11 1_555 1_555
C12 C7 1_555 1_555
C13 H12 1_555 1_555
C14 C13 1_555 1_555
H13 C14 1_555 1_555
C15 C14 1_555 1_555
H14 C15 1_555 1_555
C16 C15 1_555 1_555
H15 C16 1_555 1_555
C17 C16 1_555 1_555
H16 C17 1_555 1_555
C18 C13 1_555 1_555
C19 H17 1_555 1_555
C20 C19 1_555 1_555
H18 C20 1_555 1_555
C21 C20 1_555 1_555
H19 C21 1_555 1_555
C22 C21 1_555 1_555
H20 C22 1_555 1_555
C23 C22 1_555 1_555
H21 C23 1_555 1_555
C24 C19 1_555 1_555
C25 C24 1_555 1_555
H22 C25 1_555 1_555
H23 C25 1_555 1_555
C26 O3 1_555 1_555
C27 N2 1_555 1_555
C28 C27 1_555 1_555
C29 O1 1_555 1_555
H24 C29 1_555 1_555
H25 C29 1_555 1_555
H26 C29 1_555 1_555
C30 N1 1_555 1_555
H27 C30 1_555 1_555
N2 C26 1_555 1_555
C1 C6 1_555 1_555
C5 C6 1_555 1_555
C11 C12 1_555 1_555
C12 C30 1_555 1_555
C17 C18 1_555 1_555
C18 C27 1_555 1_555
C23 C24 1_555 1_555
C27 C30 1_555 1_555

#END
