
#######################################################################
#
#                 Cambridge Crystallographic Data Centre
#                                CCDC 
#
#######################################################################
#
# If this CIF has been generated from an entry in the Cambridge 
# Structural Database, then it will include bibliographic, chemical, 
# crystal, experimental, refinement or atomic coordinate data resulting 
# from the CCDC's data processing and validation procedures.
#
#######################################################################

data_AWAVEZ
_chemical_formula_moiety         'C20 H28 O4'
_chemical_name_systematic        
"Ethyl 2-methyl-2-(2-oxo-6,8a-dihydro-3aH-spiro(cyclohepta(b)furan-3,1'-cyclohexan)-6-yl)propanoate"
_symmetry_cell_setting           triclinic
_symmetry_space_group_name_H-M   'P -1'
_symmetry_Int_Tables_number      2
_space_group_name_Hall           '-P 1'
loop_
_symmetry_equiv_pos_site_id
_symmetry_equiv_pos_as_xyz
1 x,y,z
2 -x,-y,-z
_cell_length_a                   8.997(1)
_cell_length_b                   9.276(2)
_cell_length_c                   11.838(4)
_cell_angle_alpha                72.63(2)
_cell_angle_beta                 73.57(2)
_cell_angle_gamma                88.20(1)
_cell_volume                     902.879
_exptl_crystal_colour            colorless
_exptl_crystal_description       parallelepiped
_chemical_melting_point          110deg.C
_cell_formula_units_Z            2
_exptl_crystal_recrystallization_method hexanes/dichloromethane
loop_
_atom_site_label
_atom_site_type_symbol
_atom_site_fract_x
_atom_site_fract_y
_atom_site_fract_z
O1 O 1.09254(17) 0.12141(15) 0.83511(14)
O2 O 0.91717(18) 0.28434(17) 0.79104(16)
O3 O 1.59750(19) -0.3376(2) 0.81511(18)
O4 O 1.55639(17) -0.40806(19) 0.66244(15)
C1 C 0.9606(2) 0.1584(2) 0.80317(17)
C2 C 0.8858(2) 0.02331(19) 0.78775(15)
C3 C 0.9709(2) -0.1080(2) 0.85458(15)
C4 C 0.9670(2) -0.2527(2) 0.82326(16)
C5 C 1.0775(2) -0.3355(2) 0.78016(17)
C6 C 1.2514(2) -0.30845(19) 0.73506(15)
C7 C 1.3136(2) -0.1460(2) 0.68770(17)
C8 C 1.2602(2) -0.0317(2) 0.72949(18)
C9 C 1.1270(2) -0.0340(2) 0.83990(17)
C10 C 1.3353(2) -0.4075(2) 0.82950(16)
C11 C 1.2907(3) -0.3683(3) 0.95066(19)
C12 C 1.2941(3) -0.5770(2) 0.8557(2)
C13 C 1.5097(2) -0.3798(2) 0.77140(18)
C14 C 1.7215(3) -0.3888(3) 0.6004(3)
C15 C 1.7446(3) -0.4132(3) 0.4799(3)
C16 C 0.9215(2) 0.0416(2) 0.64841(16)
C17 C 0.8316(2) 0.1647(2) 0.58332(18)
C18 C 0.6588(3) 0.1357(3) 0.6451(2)
C19 C 0.6188(2) 0.1268(3) 0.7808(2)
C20 C 0.7102(2) 0.0071(2) 0.84855(18)
H1 H 0.8597 -0.2944 0.8379
H2 H 1.0391 -0.4338 0.7769
H3 H 1.2783 -0.3432 0.6598
H4 H 1.4082 -0.1213 0.6148
H5 H 1.3157 0.0692 0.6813
H6 H 1.3460 -0.4333 1.0080
H7 H 1.3208 -0.2594 0.9339
H8 H 1.1760 -0.3865 0.9894
H9 H 1.3476 -0.6393 0.9157
H10 H 1.3287 -0.6039 0.7769
H11 H 1.1792 -0.5974 0.8916
H12 H 1.7782 -0.4642 0.6504
H13 H 1.7608 -0.2842 0.5888
H14 H 1.8578 -0.4007 0.4345
H15 H 1.7046 -0.5178 0.4923
H16 H 1.6872 -0.3377 0.4307
H17 H 1.0351 0.0678 0.6085
H18 H 0.8938 -0.0567 0.6387
H19 H 0.8653 0.2648 0.5864
H20 H 0.8541 0.1663 0.4952
H21 H 0.6032 0.2200 0.6022
H22 H 0.6244 0.0379 0.6384
H23 H 0.6447 0.2275 0.7873
H24 H 0.5053 0.1000 0.8200
H25 H 0.6903 0.0140 0.9342
H26 H 0.6714 -0.0947 0.8525
H27 H 0.9162 -0.1527 0.9445
H28 H 1.1656 -0.0962 0.9097
loop_
_geom_bond_atom_site_label_1
_geom_bond_atom_site_label_2
_geom_bond_site_symmetry_1
_geom_bond_site_symmetry_2
O1 C1 1_555 1_555
O2 C1 1_555 1_555
O3 C13 1_555 1_555
O4 C13 1_555 1_555
C1 C2 1_555 1_555
C2 C3 1_555 1_555
C3 C4 1_555 1_555
C4 C5 1_555 1_555
C5 C6 1_555 1_555
C6 C7 1_555 1_555
C7 C8 1_555 1_555
C8 C9 1_555 1_555
C9 O1 1_555 1_555
C10 C6 1_555 1_555
C11 C10 1_555 1_555
C12 C10 1_555 1_555
C13 C10 1_555 1_555
C14 O4 1_555 1_555
C15 C14 1_555 1_555
C16 C2 1_555 1_555
C17 C16 1_555 1_555
C18 C17 1_555 1_555
C19 C18 1_555 1_555
C20 C2 1_555 1_555
H1 C4 1_555 1_555
H2 C5 1_555 1_555
H3 C6 1_555 1_555
H4 C7 1_555 1_555
H5 C8 1_555 1_555
H6 C11 1_555 1_555
H7 C11 1_555 1_555
H8 C11 1_555 1_555
H9 C12 1_555 1_555
H10 C12 1_555 1_555
H11 C12 1_555 1_555
H12 C14 1_555 1_555
H13 C14 1_555 1_555
H14 C15 1_555 1_555
H15 C15 1_555 1_555
H16 C15 1_555 1_555
H17 C16 1_555 1_555
H18 C16 1_555 1_555
H19 C17 1_555 1_555
H20 C17 1_555 1_555
H21 C18 1_555 1_555
H22 C18 1_555 1_555
H23 C19 1_555 1_555
H24 C19 1_555 1_555
H25 C20 1_555 1_555
H26 C20 1_555 1_555
H27 C3 1_555 1_555
H28 C9 1_555 1_555
C3 C9 1_555 1_555
C19 C20 1_555 1_555

#END
