
#######################################################################
#
#                 Cambridge Crystallographic Data Centre
#                                CCDC 
#
#######################################################################
#
# If this CIF has been generated from an entry in the Cambridge 
# Structural Database, then it will include bibliographic, chemical, 
# crystal, experimental, refinement or atomic coordinate data resulting 
# from the CCDC's data processing and validation procedures.
#
#######################################################################

data_AWAZAB
_chemical_formula_moiety         'C15 H10 N2 O5 S1'
_chemical_name_systematic        'quinolin-3-yl 3-nitrobenzenesulfonate'
_symmetry_cell_setting           triclinic
_symmetry_space_group_name_H-M   'P -1'
_symmetry_Int_Tables_number      2
_space_group_name_Hall           '-P 1'
loop_
_symmetry_equiv_pos_site_id
_symmetry_equiv_pos_as_xyz
1 x,y,z
2 -x,-y,-z
_cell_length_a                   5.389(4)
_cell_length_b                   8.965(6)
_cell_length_c                   15.069(11)
_cell_angle_alpha                97.810(7)
_cell_angle_beta                 96.175(7)
_cell_angle_gamma                90.485(8)
_cell_volume                     716.885
_exptl_crystal_colour            yellow
_exptl_crystal_description       block
_cell_formula_units_Z            2
loop_
_atom_site_label
_atom_site_type_symbol
_atom_site_fract_x
_atom_site_fract_y
_atom_site_fract_z
S1 S 0.16536(7) 0.21998(5) 0.41920(2)
O1 O 0.2649(2) 0.10357(13) 0.46687(8)
O2 O 0.3315(2) 0.33024(15) 0.39731(8)
O3 O -0.0428(2) 0.30313(14) 0.47419(7)
O4 O -0.2234(3) 0.1251(2) 0.01048(9)
O5 O 0.1275(3) 0.2249(2) 0.07231(9)
N1 N -0.1829(3) 0.25746(17) 0.69898(10)
N2 N -0.0688(3) 0.1582(2) 0.07561(10)
C1 C 0.1814(3) 0.40495(18) 0.61841(11)
H1 H 0.2996 0.4526 0.5906
C2 C -0.0081(3) 0.31914(18) 0.56948(10)
C3 C -0.1862(3) 0.24813(19) 0.61130(12)
H2 H -0.3134 0.1914 0.5751
C4 C 0.0064(3) 0.34225(19) 0.75143(11)
C5 C 0.0170(4) 0.3527(2) 0.84594(12)
H3 H -0.1019 0.3019 0.8717
C6 C 0.1999(4) 0.4366(3) 0.89957(13)
H4 H 0.2056 0.4426 0.9619
C7 C 0.3799(4) 0.5143(3) 0.86215(13)
H5 H 0.5017 0.5732 0.8999
C8 C 0.3790(3) 0.5047(2) 0.77146(13)
H6 H 0.5023 0.5550 0.7475
C9 C 0.1913(3) 0.41872(17) 0.71313(10)
C10 C -0.0282(3) 0.14422(18) 0.32143(10)
C11 C -0.2229(3) 0.04413(19) 0.32731(11)
H7 H -0.2552 0.0193 0.3830
C12 C -0.3679(3) -0.0180(2) 0.24940(12)
H8 H -0.4982 -0.0850 0.2527
C13 C -0.3196(3) 0.0194(2) 0.16644(12)
H9 H -0.4177 -0.0211 0.1140
C14 C -0.1234(3) 0.1175(2) 0.16329(11)
C15 C 0.0254(3) 0.18166(19) 0.23954(10)
H10 H 0.1568 0.2477 0.2359
loop_
_geom_bond_atom_site_label_1
_geom_bond_atom_site_label_2
_geom_bond_site_symmetry_1
_geom_bond_site_symmetry_2
S1 O1 1_555 1_555
O2 S1 1_555 1_555
O3 S1 1_555 1_555
O4 N2 1_555 1_555
O5 N2 1_555 1_555
N1 C3 1_555 1_555
N2 C14 1_555 1_555
C1 H1 1_555 1_555
C2 O3 1_555 1_555
C3 C2 1_555 1_555
H2 C3 1_555 1_555
C4 N1 1_555 1_555
C5 C4 1_555 1_555
H3 C5 1_555 1_555
C6 C5 1_555 1_555
H4 C6 1_555 1_555
C7 C6 1_555 1_555
H5 C7 1_555 1_555
C8 C7 1_555 1_555
H6 C8 1_555 1_555
C9 C1 1_555 1_555
C10 S1 1_555 1_555
C11 C10 1_555 1_555
H7 C11 1_555 1_555
C12 C11 1_555 1_555
H8 C12 1_555 1_555
C13 C12 1_555 1_555
H9 C13 1_555 1_555
C14 C13 1_555 1_555
C15 C10 1_555 1_555
H10 C15 1_555 1_555
C1 C2 1_555 1_555
C4 C9 1_555 1_555
C8 C9 1_555 1_555
C14 C15 1_555 1_555

#END
