
#######################################################################
#
#                 Cambridge Crystallographic Data Centre
#                                CCDC 
#
#######################################################################
#
# If this CIF has been generated from an entry in the Cambridge 
# Structural Database, then it will include bibliographic, chemical, 
# crystal, experimental, refinement or atomic coordinate data resulting 
# from the CCDC's data processing and validation procedures.
#
#######################################################################

data_AWAZIJ
_chemical_formula_moiety         'C25 H29 F1 O3'
_chemical_name_systematic        
4-(2-fluorovinyl)-2-(4-methoxyphenyl)-5-methyl-6-(5-phenylpent-3-en-2-yl)-1,3-dioxane
_symmetry_cell_setting           monoclinic
_symmetry_space_group_name_H-M   'C c'
_symmetry_Int_Tables_number      9
_space_group_name_Hall           'C -2yc'
loop_
_symmetry_equiv_pos_site_id
_symmetry_equiv_pos_as_xyz
1 x,y,z
2 x,-y,1/2+z
3 1/2+x,1/2+y,z
4 1/2+x,1/2-y,1/2+z
_cell_length_a                   5.0411(3)
_cell_length_b                   21.2212(12)
_cell_length_c                   20.2570(11)
_cell_angle_alpha                90
_cell_angle_beta                 93.887(4)
_cell_angle_gamma                90
_cell_volume                     2162.07
_exptl_crystal_colour            colorless
_exptl_crystal_description       block
_cell_formula_units_Z            4
loop_
_atom_site_label
_atom_site_type_symbol
_atom_site_fract_x
_atom_site_fract_y
_atom_site_fract_z
F1 F 0.8152(7) 0.8444(2) 0.72393(16)
O1 O 0.5997(5) 0.73645(14) 0.59511(13)
O2 O 0.7566(5) 0.69197(13) 0.50012(13)
O3 O 0.0572(5) 0.46791(15) 0.58749(14)
C1 C 1.0204(10) 0.8105(3) 0.7010(2)
H1 H 1.1773 0.8048 0.7291
C2 C 1.0083(8) 0.7856(2) 0.6421(2)
H2 H 1.1583 0.7626 0.6295
C3 C 0.7714(7) 0.7909(2) 0.5925(2)
H3 H 0.6660 0.8284 0.6053
C4 C 0.8468(7) 0.80167(19) 0.52108(19)
H4 H 0.6801 0.8131 0.4942
C5 C 0.9513(7) 0.74106(19) 0.49243(19)
H5 H 1.1198 0.7291 0.5183
C6 C 1.0046(7) 0.7439(2) 0.41894(19)
H6 H 1.1501 0.7751 0.4138
C7 C 0.7634(8) 0.7657(2) 0.3767(2)
H7 H 0.6101 0.7396 0.3752
C8 C 0.7491(8) 0.8182(2) 0.3418(2)
H8 H 0.9024 0.8443 0.3433
C9 C 0.5094(8) 0.8400(2) 0.2998(2)
H9 H 0.3697 0.8073 0.3009
H10 H 0.5586 0.8437 0.2535
C10 C 0.3937(7) 0.9025(2) 0.3206(2)
C11 C 0.2253(8) 0.9357(2) 0.2763(2)
H11 H 0.1929 0.9202 0.2325
C12 C 0.1031(8) 0.9909(2) 0.2943(2)
H12 H -0.0138 1.0125 0.2633
C13 C 0.1517(8) 1.0144(2) 0.3576(2)
H13 H 0.0699 1.0524 0.3703
C14 C 0.3210(9) 0.9819(2) 0.4022(2)
H14 H 0.3554 0.9977 0.4458
C15 C 0.4409(8) 0.9263(2) 0.3835(2)
H15 H 0.5569 0.9045 0.4146
C16 C 1.0381(8) 0.8570(2) 0.5173(2)
H16 H 1.2142 0.8446 0.5364
H17 H 0.9725 0.8927 0.5422
H18 H 1.0505 0.8692 0.4710
C17 C 0.7144(7) 0.68252(19) 0.56712(18)
H19 H 0.8881 0.6730 0.5919
C18 C 0.5292(7) 0.62753(19) 0.57307(19)
C19 C 0.3812(7) 0.62027(19) 0.62749(19)
H20 H 0.3900 0.6518 0.6609
C20 C 0.2189(7) 0.5677(2) 0.6346(2)
H21 H 0.1185 0.5635 0.6724
C21 C 0.2058(7) 0.5213(2) 0.5858(2)
C22 C 0.3525(8) 0.5286(2) 0.5304(2)
H22 H 0.3414 0.4977 0.4964
C23 C 0.5142(8) 0.5807(2) 0.5248(2)
H23 H 0.6169 0.5846 0.4874
C24 C -0.1017(8) 0.4602(2) 0.6434(2)
H24 H 0.0139 0.4604 0.6843
H25 H -0.1975 0.4200 0.6395
H26 H -0.2297 0.4949 0.6444
C25 C 1.1004(8) 0.6803(2) 0.3952(2)
H27 H 0.9601 0.6488 0.3991
H28 H 1.2594 0.6675 0.4225
H29 H 1.1434 0.6837 0.3489
loop_
_geom_bond_atom_site_label_1
_geom_bond_atom_site_label_2
_geom_bond_site_symmetry_1
_geom_bond_site_symmetry_2
F1 C1 1_555 1_555
O1 C3 1_555 1_555
O2 C5 1_555 1_555
O3 C21 1_555 1_555
C1 H1 1_555 1_555
C2 C1 1_555 1_555
H2 C2 1_555 1_555
C3 C2 1_555 1_555
H3 C3 1_555 1_555
C4 C3 1_555 1_555
H4 C4 1_555 1_555
C5 C4 1_555 1_555
H5 C5 1_555 1_555
C6 C5 1_555 1_555
H6 C6 1_555 1_555
C7 C6 1_555 1_555
H7 C7 1_555 1_555
C8 C7 1_555 1_555
H8 C8 1_555 1_555
C9 C8 1_555 1_555
H9 C9 1_555 1_555
H10 C9 1_555 1_555
C10 C9 1_555 1_555
C11 C10 1_555 1_555
H11 C11 1_555 1_555
C12 C11 1_555 1_555
H12 C12 1_555 1_555
C13 C12 1_555 1_555
H13 C13 1_555 1_555
C14 C13 1_555 1_555
H14 C14 1_555 1_555
C15 C10 1_555 1_555
H15 C15 1_555 1_555
C16 C4 1_555 1_555
H16 C16 1_555 1_555
H17 C16 1_555 1_555
H18 C16 1_555 1_555
C17 O1 1_555 1_555
H19 C17 1_555 1_555
C18 C17 1_555 1_555
C19 C18 1_555 1_555
H20 C19 1_555 1_555
C20 C19 1_555 1_555
H21 C20 1_555 1_555
C21 C20 1_555 1_555
C22 C21 1_555 1_555
H22 C22 1_555 1_555
C23 C18 1_555 1_555
H23 C23 1_555 1_555
C24 O3 1_555 1_555
H24 C24 1_555 1_555
H25 C24 1_555 1_555
H26 C24 1_555 1_555
C25 C6 1_555 1_555
H27 C25 1_555 1_555
H28 C25 1_555 1_555
H29 C25 1_555 1_555
O2 C17 1_555 1_555
C14 C15 1_555 1_555
C22 C23 1_555 1_555

#END
