
#######################################################################
#
#                 Cambridge Crystallographic Data Centre
#                                CCDC 
#
#######################################################################
#
# If this CIF has been generated from an entry in the Cambridge 
# Structural Database, then it will include bibliographic, chemical, 
# crystal, experimental, refinement or atomic coordinate data resulting 
# from the CCDC's data processing and validation procedures.
#
#######################################################################

data_AWEBOT
_chemical_formula_moiety         'C16 H29 N3 O6'
_chemical_name_systematic        
't-Butoxycarbonyl-alanyl-glycinyl-valine methyl ester'
_symmetry_cell_setting           monoclinic
_symmetry_space_group_name_H-M   'P 21'
_symmetry_Int_Tables_number      4
_space_group_name_Hall           'P 2yb'
loop_
_symmetry_equiv_pos_site_id
_symmetry_equiv_pos_as_xyz
1 x,y,z
2 -x,1/2+y,-z
_cell_length_a                   6.112(12)
_cell_length_b                   12.52(2)
_cell_length_c                   13.36(2)
_cell_angle_alpha                90
_cell_angle_beta                 102.889(10)
_cell_angle_gamma                90
_cell_volume                     996.578
_exptl_crystal_colour            colorless
_chemical_melting_point          97deg.C
_cell_formula_units_Z            2
_exptl_crystal_recrystallization_method 'ethyl acetate'
loop_
_atom_site_label
_atom_site_type_symbol
_atom_site_fract_x
_atom_site_fract_y
_atom_site_fract_z
C1 C 0.3139(14) 0.5905(8) 0.7363(6)
C2 C 0.3071(19) 0.4739(8) 0.7450(9)
H1 H 0.3933 0.4423 0.7007
H2 H 0.1544 0.4499 0.7251
H3 H 0.3692 0.4532 0.8147
C3 C 0.1874(18) 0.6354(8) 0.6324(8)
H4 H 0.2499 0.7034 0.6206
H5 H 0.0316 0.6440 0.6330
H6 H 0.2016 0.5868 0.5786
C4 C 0.5440(15) 0.6404(9) 0.7644(8)
H7 H 0.5307 0.7139 0.7828
H8 H 0.6134 0.6364 0.7067
H9 H 0.6343 0.6028 0.8215
O1 O 0.1945(10) 0.6274(4) 0.8202(4)
C5 C 0.1505(13) 0.7326(7) 0.8365(7)
O2 O 0.1768(9) 0.8044(4) 0.7770(4)
N1 N 0.0966(10) 0.7450(5) 0.9239(5)
H10 H 0.0792 0.6904 0.9605
C6 C 0.0645(12) 0.8572(6) 0.9611(6)
H11 H -0.0615 0.8918 0.9139
C7 C 0.6661(11) 0.9929(5) 0.7078(6)
H12 H 0.8017 0.9561 0.7448
C8 C 0.2797(13) 0.9175(6) 0.9613(5)
O3 O 0.4645(9) 0.8793(5) 0.9960(4)
N2 N 0.2476(8) 1.0195(5) 0.9275(4)
H13 H 0.1150 1.0422 0.9000
C9 C 0.4453(12) 1.0919(7) 0.9385(7)
H14 H 0.3923 1.1649 0.9272
H15 H 0.5335 1.0870 1.0084
C10 C 0.5905(12) 1.0680(5) 0.8678(5)
O4 O 0.7902(8) 1.1043(4) 0.8870(4)
N3 N 0.5177(10) 1.0081(5) 0.7793(5)
H16 H 0.3860 0.9800 0.7663
C11 C 0.0179(15) 0.8525(7) 1.0688(6)
H17 H -0.1393 0.8406 1.0638
H18 H 0.0614 0.9189 1.1037
H19 H 0.1025 0.7952 1.1067
C12 C 0.7342(10) 1.0988(6) 0.6739(5)
O5 O 0.9516(8) 1.1020(5) 0.6713(4)
C13 C 1.0421(16) 1.2009(8) 0.6452(7)
H20 H 1.2009 1.1935 0.6516
H21 H 1.0140 1.2559 0.6908
H22 H 0.9720 1.2196 0.5757
O6 O 0.6119(9) 1.1751(5) 0.6516(5)
C14 C 0.5462(13) 0.9184(7) 0.6150(6)
H23 H 0.4924 0.8555 0.6460
C15 C 0.3397(14) 0.9710(8) 0.5486(7)
H24 H 0.2462 0.9174 0.5090
H25 H 0.3852 1.0215 0.5032
H26 H 0.2572 1.0072 0.5918
C16 C 0.7109(15) 0.8787(8) 0.5575(7)
H27 H 0.8600 0.8871 0.5988
H28 H 0.6964 0.9187 0.4951
H29 H 0.6830 0.8044 0.5414
loop_
_geom_bond_atom_site_label_1
_geom_bond_atom_site_label_2
_geom_bond_site_symmetry_1
_geom_bond_site_symmetry_2
C1 C2 1_555 1_555
C2 H1 1_555 1_555
H2 C2 1_555 1_555
H3 C2 1_555 1_555
C3 C1 1_555 1_555
H4 C3 1_555 1_555
H5 C3 1_555 1_555
H6 C3 1_555 1_555
C4 C1 1_555 1_555
H7 C4 1_555 1_555
H8 C4 1_555 1_555
H9 C4 1_555 1_555
O1 C1 1_555 1_555
C5 O1 1_555 1_555
O2 C5 1_555 1_555
N1 C5 1_555 1_555
H10 N1 1_555 1_555
C6 N1 1_555 1_555
H11 C6 1_555 1_555
C7 H12 1_555 1_555
C8 C6 1_555 1_555
O3 C8 1_555 1_555
N2 C8 1_555 1_555
H13 N2 1_555 1_555
C9 N2 1_555 1_555
H14 C9 1_555 1_555
H15 C9 1_555 1_555
C10 C9 1_555 1_555
O4 C10 1_555 1_555
N3 C7 1_555 1_555
H16 N3 1_555 1_555
C11 C6 1_555 1_555
H17 C11 1_555 1_555
H18 C11 1_555 1_555
H19 C11 1_555 1_555
C12 C7 1_555 1_555
O5 C12 1_555 1_555
C13 O5 1_555 1_555
H20 C13 1_555 1_555
H21 C13 1_555 1_555
H22 C13 1_555 1_555
O6 C12 1_555 1_555
C14 C7 1_555 1_555
H23 C14 1_555 1_555
C15 C14 1_555 1_555
H24 C15 1_555 1_555
H25 C15 1_555 1_555
H26 C15 1_555 1_555
C16 C14 1_555 1_555
H27 C16 1_555 1_555
H28 C16 1_555 1_555
H29 C16 1_555 1_555
C10 N3 1_555 1_555

#END
