
#######################################################################
#
#                 Cambridge Crystallographic Data Centre
#                                CCDC 
#
#######################################################################
#
# If this CIF has been generated from an entry in the Cambridge 
# Structural Database, then it will include bibliographic, chemical, 
# crystal, experimental, refinement or atomic coordinate data resulting 
# from the CCDC's data processing and validation procedures.
#
#######################################################################

data_AWEBEJ
_chemical_formula_moiety         'C18 H33 N3 O6'
_chemical_name_systematic        
't-Butoxycarbonyl-alanyl-(\a-aminoisobutyryl)-valine methyl ester'
_symmetry_cell_setting           monoclinic
_symmetry_space_group_name_H-M   'C 2'
_symmetry_Int_Tables_number      5
_space_group_name_Hall           'C 2y'
loop_
_symmetry_equiv_pos_site_id
_symmetry_equiv_pos_as_xyz
1 x,y,z
2 -x,y,-z
3 1/2+x,1/2+y,z
4 1/2-x,1/2+y,-z
_cell_length_a                   19.35(3)
_cell_length_b                   6.094(10)
_cell_length_c                   19.44(3)
_cell_angle_alpha                90
_cell_angle_beta                 101.340(10)
_cell_angle_gamma                90
_cell_volume                     2247.59
_exptl_crystal_colour            colorless
_chemical_melting_point          184deg.C
_cell_formula_units_Z            4
_exptl_crystal_recrystallization_method dimethylsulfoxide
loop_
_atom_site_label
_atom_site_type_symbol
_atom_site_fract_x
_atom_site_fract_y
_atom_site_fract_z
C1 C 0.6143(5) 0.0760(18) 0.4049(5)
O1 O 0.6197(3) 0.1852(13) 0.3373(3)
C2 C 0.5597(11) 0.165(4) 0.4445(12)
H1 H 0.5648 0.0927 0.4891
H2 H 0.5132 0.1393 0.4177
H3 H 0.5667 0.3202 0.4518
C3 C 0.6892(8) 0.093(5) 0.4444(14)
H4 H 0.6996 0.2429 0.4579
H5 H 0.7206 0.0446 0.4150
H6 H 0.6953 0.0026 0.4856
C4 C 0.5937(16) -0.161(3) 0.3785(14)
H7 H 0.5549 -0.1544 0.3393
H8 H 0.5804 -0.2445 0.4156
H9 H 0.6333 -0.2294 0.3642
C8 C 0.5620(4) 0.2445(16) 0.2905(4)
O2 O 0.5009(3) 0.2226(13) 0.2977(3)
N1 N 0.5810(3) 0.3266(11) 0.2315(3)
H19 H 0.6246 0.3540 0.2313
C9 C 0.5274(4) 0.3673(11) 0.1693(4)
H20 H 0.4940 0.4758 0.1807
C10 C 0.5610(5) 0.4588(14) 0.1103(4)
H21 H 0.5993 0.3658 0.1039
H22 H 0.5784 0.6042 0.1223
H23 H 0.5264 0.4639 0.0675
C11 C 0.4868(4) 0.1526(10) 0.1454(3)
O3 O 0.5158(3) -0.0262(9) 0.1491(3)
N2 N 0.4181(3) 0.1804(8) 0.1160(3)
H24 H 0.4000 0.3085 0.1183
C12 C 0.3723(4) 0.0057(12) 0.0803(4)
C13 C 0.3995(6) -0.0835(15) 0.0166(4)
H25 H 0.4460 -0.1426 0.0317
H26 H 0.4010 0.0332 -0.0163
H27 H 0.3684 -0.1969 -0.0056
C14 C 0.2981(5) 0.0992(14) 0.0585(6)
H28 H 0.2982 0.2136 0.0246
H29 H 0.2830 0.1580 0.0989
H30 H 0.2664 -0.0152 0.0383
C15 C 0.3672(3) -0.1851(11) 0.1301(4)
O4 O 0.3513(3) -0.3741(8) 0.1076(3)
N3 N 0.3723(3) -0.1449(10) 0.1990(3)
H31 H 0.3846 -0.0166 0.2153
C16 C 0.3576(4) -0.3127(12) 0.2452(4)
H32 H 0.3871 -0.4403 0.2403
C17 C 0.3754(5) -0.2343(15) 0.3240(5)
H33 H 0.4224 -0.1687 0.3301
C18 C 0.3826(6) -0.4202(18) 0.3760(5)
H34 H 0.4170 -0.5231 0.3662
H35 H 0.3380 -0.4926 0.3724
H36 H 0.3975 -0.3633 0.4226
C19 C 0.3280(7) -0.0528(15) 0.3422(5)
H37 H 0.2815 -0.1100 0.3409
H38 H 0.3257 0.0645 0.3089
H39 H 0.3469 0.0017 0.3885
C20 C 0.2800(4) -0.3824(11) 0.2253(4)
O5 O 0.2321(3) -0.2550(9) 0.2055(3)
O6 O 0.2720(3) -0.5934(8) 0.2342(3)
C21 C 0.1998(4) -0.6764(14) 0.2143(6)
H40 H 0.1811 -0.6398 0.1662
H41 H 0.1710 -0.6110 0.2438
H42 H 0.1998 -0.8330 0.2199
C5? C 0.5980(16) 0.271(4) 0.4517(15)
H10? H 0.6262 0.3952 0.4448
H11? H 0.6088 0.2275 0.5001
H12? H 0.5490 0.3083 0.4389
C6? C 0.6905(7) -0.007(4) 0.4322(11)
H13? H 0.6962 -0.0450 0.4809
H14? H 0.7233 0.1068 0.4267
H15? H 0.6991 -0.1337 0.4058
C7? C 0.5617(12) -0.106(4) 0.4047(18)
H16? H 0.5565 -0.1864 0.3615
H17? H 0.5171 -0.0452 0.4091
H18? H 0.5781 -0.2033 0.4433
loop_
_geom_bond_atom_site_label_1
_geom_bond_atom_site_label_2
_geom_bond_site_symmetry_1
_geom_bond_site_symmetry_2
C1 O1 1_555 1_555
O1 C8 1_555 1_555
C2 C1 1_555 1_555
H1 C2 1_555 1_555
H2 C2 1_555 1_555
H3 C2 1_555 1_555
C3 C1 1_555 1_555
H4 C3 1_555 1_555
H5 C3 1_555 1_555
H6 C3 1_555 1_555
C4 C1 1_555 1_555
H7 C4 1_555 1_555
H8 C4 1_555 1_555
H9 C4 1_555 1_555
C8 O2 1_555 1_555
N1 C8 1_555 1_555
H19 N1 1_555 1_555
C9 N1 1_555 1_555
H20 C9 1_555 1_555
C10 C9 1_555 1_555
H21 C10 1_555 1_555
H22 C10 1_555 1_555
H23 C10 1_555 1_555
C11 C9 1_555 1_555
O3 C11 1_555 1_555
N2 C11 1_555 1_555
H24 N2 1_555 1_555
C12 N2 1_555 1_555
C13 C12 1_555 1_555
H25 C13 1_555 1_555
H26 C13 1_555 1_555
H27 C13 1_555 1_555
C14 C12 1_555 1_555
H28 C14 1_555 1_555
H29 C14 1_555 1_555
H30 C14 1_555 1_555
C15 C12 1_555 1_555
O4 C15 1_555 1_555
N3 C15 1_555 1_555
H31 N3 1_555 1_555
C16 N3 1_555 1_555
H32 C16 1_555 1_555
C17 C16 1_555 1_555
H33 C17 1_555 1_555
C18 C17 1_555 1_555
H34 C18 1_555 1_555
H35 C18 1_555 1_555
H36 C18 1_555 1_555
C19 C17 1_555 1_555
H37 C19 1_555 1_555
H38 C19 1_555 1_555
H39 C19 1_555 1_555
C20 C16 1_555 1_555
O5 C20 1_555 1_555
O6 C20 1_555 1_555
C21 O6 1_555 1_555
H40 C21 1_555 1_555
H41 C21 1_555 1_555
H42 C21 1_555 1_555

#END
