
#######################################################################
#
#                 Cambridge Crystallographic Data Centre
#                                CCDC 
#
#######################################################################
#
# If this CIF has been generated from an entry in the Cambridge 
# Structural Database, then it will include bibliographic, chemical, 
# crystal, experimental, refinement or atomic coordinate data resulting 
# from the CCDC's data processing and validation procedures.
#
#######################################################################

data_AWEHUH
_chemical_name_common            BMS-890068
_chemical_formula_moiety         'C37 H45 Cl1 F3 N5 O9 S1,H2 O1'
_chemical_name_systematic        
"1,1,1-trifluoropropan-2-yl (2-(4-((7-chloro-4-methoxyisoquinolin-1-yl)oxy)-2-((2-((cyclopropylsulfonyl)carbamoyl)-1,1'-bi(cyclopropyl)-2-yl)carbamoyl)pyrrolidin-1-yl)-1-cyclohexyl-2-oxoethyl)carbamate monohydrate"
_chemical_properties_biological  'Inhibitor of Hepatitis C Virus NS3 Protease'
_symmetry_cell_setting           orthorhombic
_symmetry_space_group_name_H-M   'P 21 21 21'
_symmetry_Int_Tables_number      19
_space_group_name_Hall           'P 2ac 2ab'
loop_
_symmetry_equiv_pos_site_id
_symmetry_equiv_pos_as_xyz
1 x,y,z
2 1/2-x,-y,1/2+z
3 -x,1/2+y,1/2-z
4 1/2+x,1/2-y,-z
_cell_length_a                   5.4448(6)
_cell_length_b                   25.376(3)
_cell_length_c                   29.505(3)
_cell_angle_alpha                90
_cell_angle_beta                 90
_cell_angle_gamma                90
_cell_volume                     4076.62
_exptl_crystal_colour            colorless
_exptl_crystal_description       plate
_cell_formula_units_Z            4
loop_
_atom_site_label
_atom_site_type_symbol
_atom_site_fract_x
_atom_site_fract_y
_atom_site_fract_z
O1 O 0.5334(6) 0.16933(12) -0.02226(12)
H1 H 0.4649 0.2030 -0.0161
H2 H 0.3896 0.1480 -0.0278
S1 S -0.0936(2) 0.19527(4) 0.07318(3)
Cl1 Cl 0.5148(3) 0.09569(6) -0.31099(5)
O2 O -0.0538(5) 0.17200(10) -0.18478(8)
O3 O -0.5189(5) 0.03298(10) -0.15025(9)
O4 O 0.1620(8) -0.07019(13) -0.08184(10)
O5 O -0.1819(8) -0.11134(12) -0.05841(11)
O6 O 0.2796(5) 0.08057(11) -0.04658(8)
O7 O 0.1160(6) 0.08747(12) 0.07890(9)
O8 O -0.2064(7) 0.23797(11) 0.04875(10)
O9 O -0.3685(9) 0.27702(16) -0.33468(10)
O10 O 0.1396(5) 0.20258(14) 0.09186(11)
N1 N -0.2279(5) 0.08895(12) -0.12542(8)
N2 N -0.2151(7) -0.04543(13) -0.10703(10)
H3 H -0.3705 -0.0506 -0.1041
N3 N -0.1225(6) 0.07048(11) -0.03320(9)
H4 H -0.2691 0.0724 -0.0439
N4 N -0.0932(6) 0.14602(12) 0.03662(10)
H5 H -0.1513 0.1519 0.0100
N5 N -0.3291(7) 0.22971(14) -0.21725(10)
C1 C -0.3720(7) 0.13619(14) -0.13704(12)
H6 H -0.4880 0.1447 -0.1132
H7 H -0.4607 0.1313 -0.1652
C2 C 0.2766(10) 0.14007(19) -0.30624(16)
C3 C -0.5544(14) 0.3155(2) -0.3309(2)
H8 H -0.5857 0.3307 -0.3602
H9 H -0.5020 0.3427 -0.3104
H10 H -0.7018 0.2995 -0.3196
C4 C 0.0121(13) 0.2014(2) -0.34336(16)
H11 H -0.0380 0.2186 -0.3696
C5 C 0.1634(10) -0.0469(2) -0.27183(15)
H12 H 0.3285 -0.0359 -0.2639
H13 H 0.1656 -0.0594 -0.3029
C6 C 0.0826(12) -0.0910(2) -0.24057(15)
H14 H 0.1986 -0.1199 -0.2427
H15 H -0.0768 -0.1040 -0.2502
C7 C -0.0554(11) -0.07468(17) -0.08268(14)
C8 C -0.2998(10) 0.25018(19) -0.29581(15)
C9 C -0.0076(10) -0.00100(19) -0.26798(13)
H16 H -0.1694 -0.0114 -0.2785
H17 H 0.0503 0.0274 -0.2873
C10 C 0.1710(9) 0.15007(17) -0.26572(14)
H18 H 0.2266 0.1329 -0.2398
C11 C -0.4046(10) 0.25661(17) -0.25483(14)
H19 H -0.5337 0.2804 -0.2520
C12 C -0.1814(7) 0.17794(14) -0.14164(11)
H20 H -0.2482 0.2135 -0.1374
C13 C -0.0224(8) 0.18630(15) -0.26277(12)
C14 C 0.0663(9) -0.07252(17) -0.19133(13)
H21 H 0.0058 -0.1011 -0.1725
H22 H 0.2288 -0.0630 -0.1806
C15 C -0.2257(13) 0.0017(3) 0.11794(16)
H23 H -0.2513 0.0227 0.1450
H24 H -0.0596 -0.0113 0.1140
C16 C -0.1074(10) 0.21305(18) -0.30160(13)
C17 C -0.3647(9) 0.01603(19) 0.07711(13)
H25 H -0.4791 0.0454 0.0814
C18 C 0.0034(9) 0.00004(16) 0.02139(13)
H26 H 0.0404 -0.0216 -0.0048
H27 H 0.1098 -0.0058 0.0473
C19 C -0.2579(8) 0.01263(17) 0.03041(13)
H28 H -0.3720 -0.0009 0.0075
C20 C -0.0257(8) 0.01878(16) -0.21911(12)
H29 H 0.1322 0.0326 -0.2096
H30 H -0.1447 0.0472 -0.2175
C21 C -0.1033(8) -0.02555(15) -0.18709(11)
H31 H -0.2671 -0.0371 -0.1966
C22 C -0.1257(8) -0.00523(14) -0.13817(11)
H32 H 0.0351 0.0073 -0.1278
C23 C -0.0072(7) 0.09654(15) 0.04564(12)
C24 C 0.0039(7) 0.16347(13) -0.10604(11)
H33 H -0.0479 0.1758 -0.0764
H34 H 0.1632 0.1786 -0.1130
C25 C 0.0144(6) 0.10266(13) -0.10735(10)
H35 H 0.1433 0.0910 -0.1283
C26 C -0.1461(8) 0.19750(16) -0.22127(13)
C27 C -0.0850(7) 0.05447(14) 0.01315(11)
C28 C -0.3084(8) 0.04064(15) -0.13749(11)
C29 C 0.0673(7) 0.08233(13) -0.05953(11)
C30 C 0.1965(13) 0.1660(2) -0.34557(18)
H36 H 0.2708 0.1587 -0.3733
C31 C -0.4327(13) -0.0328(2) 0.10234(17)
H37 H -0.3917 -0.0664 0.0887
H38 H -0.5836 -0.0324 0.1198
C32 C -0.0320(15) -0.1473(2) -0.03393(18)
H39 H 0.1229 -0.1301 -0.0258
C33 C -0.2983(8) 0.17550(18) 0.11481(14)
H40 H -0.4632 0.1662 0.1042
C34 C -0.2098(13) 0.1462(2) 0.15441(16)
H41 H -0.0356 0.1384 0.1561
H42 H -0.3163 0.1194 0.1670
C35 C -0.2866(11) 0.2022(2) 0.15932(14)
H43 H -0.4401 0.2094 0.1748
H44 H -0.1592 0.2284 0.1638
C36 C 0.020(2) -0.1953(2) -0.0608(2)
H45 H 0.1272 -0.1865 -0.0856
H46 H -0.1304 -0.2094 -0.0725
H47 H 0.0988 -0.2211 -0.0419
C37 C -0.173(3) -0.1586(3) 0.0075(3)
F1 F -0.0419(17) -0.19415(18) 0.03349(13)
F2 F -0.3730(19) -0.1829(3) 0.0013(3)
F3 F -0.211(3) -0.11947(18) 0.03089(16)
loop_
_geom_bond_atom_site_label_1
_geom_bond_atom_site_label_2
_geom_bond_site_symmetry_1
_geom_bond_site_symmetry_2
O1 H1 1_555 1_555
H2 O1 1_555 1_555
S1 O8 1_555 1_555
Cl1 C2 1_555 1_555
O2 C12 1_555 1_555
O3 C28 1_555 1_555
O4 C7 1_555 1_555
O5 C7 1_555 1_555
O6 C29 1_555 1_555
O7 C23 1_555 1_555
O9 C3 1_555 1_555
O10 S1 1_555 1_555
N1 C1 1_555 1_555
N2 H3 1_555 1_555
N3 H4 1_555 1_555
N4 S1 1_555 1_555
H5 N4 1_555 1_555
N5 C11 1_555 1_555
C1 H6 1_555 1_555
H7 C1 1_555 1_555
C2 C10 1_555 1_555
C3 H8 1_555 1_555
H9 C3 1_555 1_555
H10 C3 1_555 1_555
C4 H11 1_555 1_555
C5 H12 1_555 1_555
H13 C5 1_555 1_555
C6 C5 1_555 1_555
H14 C6 1_555 1_555
H15 C6 1_555 1_555
C7 N2 1_555 1_555
C8 O9 1_555 1_555
C9 C5 1_555 1_555
H16 C9 1_555 1_555
H17 C9 1_555 1_555
C10 H18 1_555 1_555
C11 C8 1_555 1_555
H19 C11 1_555 1_555
C12 C1 1_555 1_555
H20 C12 1_555 1_555
C13 C10 1_555 1_555
C14 C6 1_555 1_555
H21 C14 1_555 1_555
H22 C14 1_555 1_555
C15 H23 1_555 1_555
H24 C15 1_555 1_555
C16 C4 1_555 1_555
C17 C15 1_555 1_555
H25 C17 1_555 1_555
C18 H26 1_555 1_555
H27 C18 1_555 1_555
C19 C17 1_555 1_555
H28 C19 1_555 1_555
C20 C9 1_555 1_555
H29 C20 1_555 1_555
H30 C20 1_555 1_555
C21 C14 1_555 1_555
H31 C21 1_555 1_555
C22 N2 1_555 1_555
H32 C22 1_555 1_555
C23 N4 1_555 1_555
C24 C12 1_555 1_555
H33 C24 1_555 1_555
H34 C24 1_555 1_555
C25 N1 1_555 1_555
H35 C25 1_555 1_555
C26 O2 1_555 1_555
C27 N3 1_555 1_555
C28 N1 1_555 1_555
C29 N3 1_555 1_555
C30 C2 1_555 1_555
H36 C30 1_555 1_555
C31 C15 1_555 1_555
H37 C31 1_555 1_555
H38 C31 1_555 1_555
C32 O5 1_555 1_555
H39 C32 1_555 1_555
C33 S1 1_555 1_555
H40 C33 1_555 1_555
C34 C33 1_555 1_555
H41 C34 1_555 1_555
H42 C34 1_555 1_555
C35 C33 1_555 1_555
H43 C35 1_555 1_555
H44 C35 1_555 1_555
C36 C32 1_555 1_555
H45 C36 1_555 1_555
H46 C36 1_555 1_555
H47 C36 1_555 1_555
C37 C32 1_555 1_555
F1 C37 1_555 1_555
F2 C37 1_555 1_555
F3 C37 1_555 1_555
N5 C26 1_555 1_555
C4 C30 1_555 1_555
C8 C16 1_555 1_555
C13 C16 1_555 1_555
C13 C26 1_555 1_555
C17 C31 1_555 1_555
C18 C19 1_555 1_555
C18 C27 1_555 1_555
C19 C27 1_555 1_555
C20 C21 1_555 1_555
C21 C22 1_555 1_555
C22 C28 1_555 1_555
C23 C27 1_555 1_555
C24 C25 1_555 1_555
C25 C29 1_555 1_555
C34 C35 1_555 1_555

#END
