
#######################################################################
#
#                 Cambridge Crystallographic Data Centre
#                                CCDC 
#
#######################################################################
#
# If this CIF has been generated from an entry in the Cambridge 
# Structural Database, then it will include bibliographic, chemical, 
# crystal, experimental, refinement or atomic coordinate data resulting 
# from the CCDC's data processing and validation procedures.
#
#######################################################################

data_AWEHAL01
_chemical_formula_moiety         'C20 H14 N4'
_chemical_name_systematic        1,2-bis(2-Benzimidazolyl)benzene
_symmetry_cell_setting           orthorhombic
_symmetry_space_group_name_H-M   'P b c n'
_symmetry_Int_Tables_number      60
_space_group_name_Hall           '-P 2n 2ab'
loop_
_symmetry_equiv_pos_site_id
_symmetry_equiv_pos_as_xyz
1 x,y,z
2 1/2-x,1/2-y,1/2+z
3 -x,y,1/2-z
4 1/2+x,1/2-y,-z
5 -x,-y,-z
6 1/2+x,1/2+y,1/2-z
7 x,-y,1/2+z
8 1/2-x,1/2+y,z
_cell_length_a                   17.928(8)
_cell_length_b                   8.828(4)
_cell_length_c                   9.752(4)
_cell_angle_alpha                90
_cell_angle_beta                 90
_cell_angle_gamma                90
_cell_volume                     1543.43
_exptl_crystal_colour            colorless
_exptl_crystal_description       block
_chemical_melting_point          'above 533 K'
_cell_formula_units_Z            4
loop_
_atom_site_label
_atom_site_type_symbol
_atom_site_fract_x
_atom_site_fract_y
_atom_site_fract_z
N1 N 0.59164(6) 0.91995(13) 0.22829(12)
N2 N 0.59449(6) 0.97453(14) 0.45162(12)
H1 H 0.5867 1.0211 0.5277
C1 C 0.63327(8) 0.80860(16) 0.29290(15)
C2 C 0.63454(8) 0.84209(17) 0.43348(15)
C3 C 0.57030(8) 1.01575(17) 0.32710(14)
C4 C 0.53040(8) 1.15735(16) 0.29573(15)
C5 C 0.67322(9) 0.7514(2) 0.52530(17)
H2 H 0.6733 0.7722 0.6188
C6 C 0.67170(9) 0.68440(18) 0.24124(17)
H3 H 0.6709 0.6615 0.1482
C7 C 0.71102(10) 0.5963(2) 0.33306(19)
H4 H 0.7378 0.5133 0.3010
C8 C 0.71147(9) 0.6292(2) 0.47257(19)
H5 H 0.7383 0.5671 0.5318
C9 C 0.55738(10) 1.29467(19) 0.3448(2)
H6 H 0.5958 1.2954 0.4090
C10 C 0.52771(10) 1.4300(2) 0.2992(2)
H7 H 0.5451 1.5212 0.3348
N1B N 0.40836(6) 0.91995(13) 0.27171(12)
N2B N 0.40551(6) 0.97453(14) 0.04838(12)
H1B H 0.4133 1.0211 -0.0277
C1B C 0.36673(8) 0.80860(16) 0.20710(15)
C2B C 0.36546(8) 0.84209(17) 0.06652(15)
C3B C 0.42970(8) 1.01575(17) 0.17290(14)
C4B C 0.46960(8) 1.15735(16) 0.20427(15)
C5B C 0.32678(9) 0.7514(2) -0.02530(17)
H2B H 0.3267 0.7722 -0.1188
C6B C 0.32830(9) 0.68440(18) 0.25876(17)
H3B H 0.3291 0.6615 0.3518
C7B C 0.28898(10) 0.5963(2) 0.16694(19)
H4B H 0.2622 0.5133 0.1990
C8B C 0.28853(9) 0.6292(2) 0.02743(19)
H5B H 0.2617 0.5671 -0.0318
C9B C 0.44262(10) 1.29467(19) 0.1552(2)
H6B H 0.4042 1.2954 0.0910
C10B C 0.47229(10) 1.4300(2) 0.2008(2)
H7B H 0.4549 1.5212 0.1652
loop_
_geom_bond_atom_site_label_1
_geom_bond_atom_site_label_2
_geom_bond_site_symmetry_1
_geom_bond_site_symmetry_2
N1 C1 1_555 1_555
N2 H1 1_555 1_555
C1 C2 1_555 1_555
C2 N2 1_555 1_555
C3 N1 1_555 1_555
C4 C3 1_555 1_555
C5 C2 1_555 1_555
H2 C5 1_555 1_555
C6 C1 1_555 1_555
H3 C6 1_555 1_555
C7 C6 1_555 1_555
H4 C7 1_555 1_555
C8 C5 1_555 1_555
H5 C8 1_555 1_555
C9 C4 1_555 1_555
H6 C9 1_555 1_555
C10 C9 1_555 1_555
H7 C10 1_555 1_555
N1B C1B 1_555 1_555
N2B H1B 1_555 1_555
C1B C2B 1_555 1_555
C2B N2B 1_555 1_555
C3B N1B 1_555 1_555
C4B C4 1_555 1_555
C5B C2B 1_555 1_555
H2B C5B 1_555 1_555
C6B C1B 1_555 1_555
H3B C6B 1_555 1_555
C7B C6B 1_555 1_555
H4B C7B 1_555 1_555
C8B C5B 1_555 1_555
H5B C8B 1_555 1_555
C9B C4B 1_555 1_555
H6B C9B 1_555 1_555
C10B C10 1_555 1_555
H7B C10B 1_555 1_555
N2 C3 1_555 1_555
C7 C8 1_555 1_555
N2B C3B 1_555 1_555
C3B C4B 1_555 1_555
C7B C8B 1_555 1_555
C9B C10B 1_555 1_555

#END
