
#######################################################################
#
#                 Cambridge Crystallographic Data Centre
#                                CCDC 
#
#######################################################################
#
# If this CIF has been generated from an entry in the Cambridge 
# Structural Database, then it will include bibliographic, chemical, 
# crystal, experimental, refinement or atomic coordinate data resulting 
# from the CCDC's data processing and validation procedures.
#
#######################################################################

data_AWEMIA
_chemical_formula_moiety         'C22 H25 N2 O4 P1'
_chemical_name_systematic        
'diisopropyl (4-((pyridin-2-ylcarbonyl)amino)-1-naphthyl)phosphonate'
_symmetry_cell_setting           orthorhombic
_symmetry_space_group_name_H-M   'P c c n'
_symmetry_Int_Tables_number      56
_space_group_name_Hall           '-P 2ab 2ac'
loop_
_symmetry_equiv_pos_site_id
_symmetry_equiv_pos_as_xyz
1 x,y,z
2 1/2-x,1/2-y,z
3 1/2+x,-y,1/2-z
4 -x,1/2+y,1/2-z
5 -x,-y,-z
6 1/2+x,1/2+y,-z
7 1/2-x,y,1/2+z
8 x,1/2-y,1/2+z
_cell_length_a                   15.3031(6)
_cell_length_b                   18.1046(6)
_cell_length_c                   15.6855(6)
_cell_angle_alpha                90
_cell_angle_beta                 90
_cell_angle_gamma                90
_cell_volume                     4345.77
_exptl_crystal_colour            colorless
_exptl_crystal_description       block
_cell_formula_units_Z            8
loop_
_atom_site_label
_atom_site_type_symbol
_atom_site_fract_x
_atom_site_fract_y
_atom_site_fract_z
C1 C 0.6215(2) 0.26361(17) 1.1069(2)
H1 H 0.6227 0.2898 1.1579
C2 C 0.6081(2) 0.18912(17) 1.1105(2)
H2 H 0.6004 0.1655 1.1626
C3 C 0.6062(2) 0.15014(17) 1.0363(2)
H3 H 0.5972 0.0993 1.0368
C4 C 0.6178(2) 0.18688(16) 0.9608(2)
H4 H 0.6169 0.1615 0.9093
C5 C 0.63070(17) 0.26233(14) 0.96255(18)
C6 C 0.64251(19) 0.30193(15) 0.87981(19)
C7 C 0.68181(17) 0.41738(14) 0.81097(16)
C8 C 0.74600(17) 0.39427(15) 0.75842(18)
H5 H 0.7786 0.3527 0.7727
C9 C 0.76415(18) 0.43230(15) 0.68244(19)
H6 H 0.8071 0.4143 0.6460
C10 C 0.72001(18) 0.49524(14) 0.66095(18)
C11 C 0.65380(17) 0.52290(14) 0.71673(17)
C12 C 0.63359(17) 0.48277(14) 0.79274(18)
C13 C 0.56592(19) 0.50872(17) 0.84698(19)
H7 H 0.5518 0.4823 0.8959
C14 C 0.5216(2) 0.57148(19) 0.8283(2)
H8 H 0.4777 0.5880 0.8646
C15 C 0.5417(2) 0.61142(18) 0.7547(2)
H9 H 0.5112 0.6546 0.7427
C16 C 0.60512(19) 0.58815(15) 0.7006(2)
H10 H 0.6170 0.6156 0.6518
C17 C 0.8755(6) 0.6429(5) 0.5811(6)
H11 H 0.9223 0.6061 0.5854
C18 C 0.8816(6) 0.7059(6) 0.5183(7)
H12 H 0.8577 0.6906 0.4645
H13 H 0.9417 0.7196 0.5109
H14 H 0.8491 0.7474 0.5395
C19 C 0.8504(10) 0.6962(8) 0.6631(8)
H15 H 0.8145 0.7365 0.6441
H16 H 0.9030 0.7153 0.6881
H17 H 0.8191 0.6678 0.7048
C20 C 0.6626(13) 0.5714(5) 0.4207(7)
H18 H 0.7202 0.5645 0.3945
C21 C 0.6386(6) 0.6510(4) 0.4235(6)
H19 H 0.5871 0.6572 0.4576
H20 H 0.6276 0.6684 0.3667
H21 H 0.6858 0.6787 0.4481
C22 C 0.5964(17) 0.5199(14) 0.382(3)
H22 H 0.6205 0.4711 0.3784
H23 H 0.5816 0.5368 0.3255
H24 H 0.5448 0.5190 0.4165
N1 N 0.63300(16) 0.30113(12) 1.03429(15)
N2 N 0.66154(15) 0.37485(11) 0.88513(14)
H25 H 0.6614 0.3960 0.9342
O1 O 0.63473(17) 0.26893(11) 0.81174(14)
O2 O 0.81848(14) 0.49300(11) 0.51746(13)
O3 O 0.66234(13) 0.54464(11) 0.51148(13)
O4 O 0.77702(14) 0.61869(10) 0.57829(15)
P1 P 0.75105(5) 0.53611(4) 0.56097(5)
C23? C 0.8555(8) 0.6340(8) 0.6159(8)
H26? H 0.8741 0.5832 0.6277
C24? C 0.9173(9) 0.6502(8) 0.5373(9)
H27? H 0.9352 0.6043 0.5119
H28? H 0.9680 0.6767 0.5564
H29? H 0.8864 0.6793 0.4960
C25? C 0.9018(13) 0.6690(11) 0.6792(9)
H30? H 0.8641 0.7029 0.7087
H31? H 0.9498 0.6956 0.6545
H32? H 0.9238 0.6330 0.7188
C26? C 0.6603(19) 0.5445(9) 0.4193(10)
H33? H 0.6981 0.5037 0.4013
C27? C 0.7016(10) 0.6152(6) 0.3828(9)
H34? H 0.6622 0.6559 0.3905
H35? H 0.7129 0.6086 0.3230
H36? H 0.7554 0.6253 0.4119
C28? C 0.573(3) 0.531(2) 0.379(4)
H37? H 0.5772 0.5384 0.3183
H38? H 0.5305 0.5640 0.4022
H39? H 0.5552 0.4807 0.3896
loop_
_geom_bond_atom_site_label_1
_geom_bond_atom_site_label_2
_geom_bond_site_symmetry_1
_geom_bond_site_symmetry_2
C1 H1 1_555 1_555
C2 C1 1_555 1_555
H2 C2 1_555 1_555
C3 C2 1_555 1_555
H3 C3 1_555 1_555
C4 C3 1_555 1_555
H4 C4 1_555 1_555
C5 C4 1_555 1_555
C6 C5 1_555 1_555
C7 C8 1_555 1_555
C8 H5 1_555 1_555
C9 C8 1_555 1_555
H6 C9 1_555 1_555
C10 C9 1_555 1_555
C11 C10 1_555 1_555
C12 C7 1_555 1_555
C13 C12 1_555 1_555
H7 C13 1_555 1_555
C14 C13 1_555 1_555
H8 C14 1_555 1_555
C15 C14 1_555 1_555
H9 C15 1_555 1_555
C16 C11 1_555 1_555
H10 C16 1_555 1_555
C17 H11 1_555 1_555
C18 C17 1_555 1_555
H12 C18 1_555 1_555
H13 C18 1_555 1_555
H14 C18 1_555 1_555
C19 C17 1_555 1_555
H15 C19 1_555 1_555
H16 C19 1_555 1_555
H17 C19 1_555 1_555
C20 H18 1_555 1_555
C21 C20 1_555 1_555
H19 C21 1_555 1_555
H20 C21 1_555 1_555
H21 C21 1_555 1_555
C22 C20 1_555 1_555
H22 C22 1_555 1_555
H23 C22 1_555 1_555
H24 C22 1_555 1_555
N1 C1 1_555 1_555
N2 C6 1_555 1_555
H25 N2 1_555 1_555
O1 C6 1_555 1_555
O2 P1 1_555 1_555
O3 C20 1_555 1_555
O4 C17 1_555 1_555
P1 C10 1_555 1_555
C5 N1 1_555 1_555
C7 N2 1_555 1_555
C11 C12 1_555 1_555
C15 C16 1_555 1_555
O3 P1 1_555 1_555
O4 P1 1_555 1_555

#END
