
#######################################################################
#
#                 Cambridge Crystallographic Data Centre
#                                CCDC 
#
#######################################################################
#
# If this CIF has been generated from an entry in the Cambridge 
# Structural Database, then it will include bibliographic, chemical, 
# crystal, experimental, refinement or atomic coordinate data resulting 
# from the CCDC's data processing and validation procedures.
#
#######################################################################

data_AWEWUW
_chemical_formula_moiety         'C16 H13 Cl1 O6,0.5(C2 H3 N1)'
_chemical_name_systematic        
'4-(4-(1-carboxyethoxy)phenoxy)-3-chlorobenzoic acid acetonitrile solvate'
_symmetry_cell_setting           orthorhombic
_symmetry_space_group_name_H-M   'C 2 2 21'
_symmetry_Int_Tables_number      20
_space_group_name_Hall           'C 2n 2'
loop_
_symmetry_equiv_pos_site_id
_symmetry_equiv_pos_as_xyz
1 x,y,z
2 -x,-y,1/2+z
3 -x,y,1/2-z
4 x,-y,-z
5 1/2+x,1/2+y,z
6 1/2-x,1/2-y,1/2+z
7 1/2-x,1/2+y,1/2-z
8 1/2+x,1/2-y,-z
_cell_length_a                   6.8630(14)
_cell_length_b                   23.174(5)
_cell_length_c                   22.172(4)
_cell_angle_alpha                90
_cell_angle_beta                 90
_cell_angle_gamma                90
_cell_volume                     3526.3
_exptl_crystal_colour            colorless
_exptl_crystal_description       block
_cell_formula_units_Z            8
loop_
_atom_site_label
_atom_site_type_symbol
_atom_site_fract_x
_atom_site_fract_y
_atom_site_fract_z
C1 C 0.2361(4) 0.50428(14) 0.25361(13)
C2 C 0.2899(4) 0.45729(14) 0.21241(12)
C3 C 0.2505(4) 0.40074(14) 0.22898(12)
H1 H 0.1875 0.3932 0.2652
C4 C 0.3050(4) 0.35532(14) 0.19154(13)
C5 C 0.4055(4) 0.36711(14) 0.13799(12)
C6 C 0.4399(4) 0.42361(15) 0.12111(13)
H2 H 0.5024 0.4315 0.0848
C7 C 0.3814(4) 0.46831(15) 0.15806(13)
H3 H 0.4038 0.5062 0.1463
C8 C 0.6134(4) 0.32648(14) 0.06295(12)
C9 C 0.7985(5) 0.33758(16) 0.08371(13)
H4 H 0.8203 0.3437 0.1246
C10 C 0.9517(4) 0.33961(15) 0.04339(13)
H5 H 1.0775 0.3471 0.0570
C11 C 0.9168(4) 0.33039(12) -0.01775(10)
C12 C 0.7313(4) 0.31825(14) -0.03715(12)
H6 H 0.7084 0.3112 -0.0778
C13 C 0.5775(4) 0.31637(14) 0.00353(13)
H7 H 0.4518 0.3083 -0.0097
C14 C 1.0565(4) 0.32364(14) -0.11672(11)
H8 H 0.9868 0.2873 -0.1232
C15 C 0.9481(4) 0.37228(13) -0.14687(11)
C16 C 1.2607(5) 0.31964(17) -0.14380(14)
H9 H 1.3308 0.3546 -0.1355
H10 H 1.2511 0.3142 -0.1866
H11 H 1.3287 0.2876 -0.1263
Cl1 Cl 0.25205(16) 0.28493(4) 0.21087(5)
O1 O 0.2677(4) 0.55622(11) 0.23693(10)
H12 H 0.242(6) 0.5810(14) 0.2647(14)
O2 O 0.1607(3) 0.49199(10) 0.30465(9)
O3 O 0.4570(3) 0.32031(10) 0.10384(9)
O4 O 1.0813(3) 0.33324(9) -0.05367(7)
O5 O 0.8503(3) 0.35938(11) -0.19358(10)
O6 O 0.9641(3) 0.42225(10) -0.12612(9)
H13 H 0.918(6) 0.4512(12) -0.1448(17)
N1 N 0.6754(19) 0.5000 0.0000
C17 C 0.843(3) 0.5000 0.0000
C18 C 1.055(2) 0.5000 0.0000
loop_
_geom_bond_atom_site_label_1
_geom_bond_atom_site_label_2
_geom_bond_site_symmetry_1
_geom_bond_site_symmetry_2
C1 C2 1_555 1_555
C2 C3 1_555 1_555
C3 H1 1_555 1_555
C4 C3 1_555 1_555
C5 C4 1_555 1_555
C6 C5 1_555 1_555
H2 C6 1_555 1_555
C7 C2 1_555 1_555
H3 C7 1_555 1_555
C8 C9 1_555 1_555
C9 H4 1_555 1_555
C10 C9 1_555 1_555
H5 C10 1_555 1_555
C11 C10 1_555 1_555
C12 C11 1_555 1_555
H6 C12 1_555 1_555
C13 C8 1_555 1_555
H7 C13 1_555 1_555
C14 H8 1_555 1_555
C15 C14 1_555 1_555
C16 C14 1_555 1_555
H9 C16 1_555 1_555
H10 C16 1_555 1_555
H11 C16 1_555 1_555
Cl1 C4 1_555 1_555
O1 C1 1_555 1_555
H12 O1 1_555 1_555
O2 C1 1_555 1_555
O3 C5 1_555 1_555
O4 C11 1_555 1_555
O5 C15 1_555 1_555
O6 C15 1_555 1_555
H13 O6 1_555 1_555
N1 C17 1_555 1_555
C17 C18 1_555 1_555
C6 C7 1_555 1_555
C8 O3 1_555 1_555
C12 C13 1_555 1_555
C14 O4 1_555 1_555

#END
