
#######################################################################
#
#                 Cambridge Crystallographic Data Centre
#                                CCDC 
#
#######################################################################
#
# If this CIF has been generated from an entry in the Cambridge 
# Structural Database, then it will include bibliographic, chemical, 
# crystal, experimental, refinement or atomic coordinate data resulting 
# from the CCDC's data processing and validation procedures.
#
#######################################################################

data_AWEWUU
_chemical_formula_moiety         'C9 H16 B10 O2'
_chemical_name_systematic        
1-Phenyl-2-carboxy-1,2-dicarba-closo-dodecaborane(12)
_symmetry_cell_setting           monoclinic
_symmetry_space_group_name_H-M   'P 21/n'
_symmetry_Int_Tables_number      14
_space_group_name_Hall           '-P 2yn'
loop_
_symmetry_equiv_pos_site_id
_symmetry_equiv_pos_as_xyz
1 x,y,z
2 1/2+x,1/2-y,1/2+z
3 -x,-y,-z
4 1/2-x,1/2+y,1/2-z
_cell_length_a                   12.3493(13)
_cell_length_b                   13.2722(12)
_cell_length_c                   18.4075(16)
_cell_angle_alpha                90
_cell_angle_beta                 90.632(8)
_cell_angle_gamma                90
_cell_volume                     3016.85
_exptl_crystal_colour            colorless
_exptl_crystal_description       block
_chemical_melting_point          '411 K'
_cell_formula_units_Z            8
_exptl_crystal_recrystallization_method 'petroleum ether'
loop_
_atom_site_label
_atom_site_type_symbol
_atom_site_fract_x
_atom_site_fract_y
_atom_site_fract_z
C1 C 0.20267(19) 0.61556(19) 0.38398(13)
O1 O 0.40864(17) 0.60541(17) 0.51278(11)
H1 H 0.466(4) 0.560(4) 0.546(3)
C2 C 0.3321(2) 0.64871(19) 0.39920(13)
O2 O 0.44820(19) 0.50947(18) 0.41822(12)
B1 B 0.2315(3) 0.7177(2) 0.44010(17)
H2 H 0.2157 0.7191 0.4988
B2 B 0.1266(3) 0.7217(3) 0.37419(18)
H3 H 0.0412 0.7265 0.3902
B3 B 0.1665(3) 0.6505(3) 0.29736(17)
H4 H 0.1071 0.6092 0.2637
B4 B 0.2974(2) 0.6012(3) 0.31477(15)
H5 H 0.3238 0.5279 0.2934
B5 B 0.3480(3) 0.7758(2) 0.40235(19)
H6 H 0.4074 0.8155 0.4369
B6 B 0.2168(3) 0.8249(3) 0.3838(2)
H7 H 0.1901 0.8978 0.4057
B7 B 0.1774(3) 0.7839(3) 0.2960(2)
H8 H 0.1252 0.8305 0.2607
B8 B 0.2820(3) 0.7089(3) 0.25982(19)
H9 H 0.2977 0.7064 0.2011
B9 B 0.3884(3) 0.7041(3) 0.32507(18)
H10 H 0.4739 0.6974 0.3097
B10 B 0.3141(3) 0.8164(3) 0.3136(2)
H11 H 0.3514 0.8840 0.2900
C3 C 0.16212(18) 0.51924(18) 0.41760(12)
C4 C 0.1272(2) 0.4421(2) 0.37289(15)
H12 H 0.1307 0.4498 0.3227
C5 C 0.0870(2) 0.3537(2) 0.40150(17)
H13 H 0.0631 0.3026 0.3707
C6 C 0.0825(2) 0.3411(2) 0.47546(16)
H14 H 0.0562 0.2812 0.4948
C7 C 0.1166(2) 0.4166(2) 0.52052(14)
H15 H 0.1134 0.4079 0.5706
C8 C 0.1558(2) 0.5059(2) 0.49259(13)
H16 H 0.1780 0.5572 0.5238
C9 C 0.4019(2) 0.5806(2) 0.44573(15)
O3 O 0.5589(2) 0.58514(16) 0.06597(14)
H17 H 0.509(4) 0.579(3) 0.022(3)
O4 O 0.57213(18) 0.42306(15) 0.04788(12)
C10 C 0.78603(19) 0.43400(17) 0.13977(13)
C11 C 0.6661(2) 0.49417(17) 0.14808(14)
B11 B 0.7816(3) 0.5656(2) 0.14839(19)
H18 H 0.8042 0.6182 0.1049
B12 B 0.8786(3) 0.4904(2) 0.19613(19)
H19 H 0.9655 0.4949 0.1841
B13 B 0.8160(3) 0.3753(2) 0.21951(16)
H20 H 0.8623 0.3046 0.2229
B14 B 0.6817(3) 0.3772(2) 0.18659(16)
H21 H 0.6400 0.3086 0.1676
B15 B 0.6740(3) 0.5920(3) 0.20761(19)
H22 H 0.6273 0.6623 0.2029
B16 B 0.8090(3) 0.5889(3) 0.2409(2)
H23 H 0.8511 0.6577 0.2588
B17 B 0.8298(3) 0.4723(3) 0.28511(19)
H24 H 0.8852 0.4651 0.3320
B18 B 0.7081(3) 0.4021(3) 0.27907(18)
H25 H 0.6839 0.3489 0.3218
B19 B 0.6110(3) 0.4763(3) 0.23153(19)
H26 H 0.5237 0.4717 0.2423
B20 B 0.7037(3) 0.5349(3) 0.2926(2)
H27 H 0.6770 0.5684 0.3440
C12 C 0.81772(19) 0.3890(2) 0.06809(13)
C13 C 0.8162(2) 0.2855(2) 0.05939(16)
H28 H 0.7938 0.2445 0.0973
C14 C 0.8479(3) 0.2428(3) -0.0055(2)
H29 H 0.8472 0.1731 -0.0106
C15 C 0.8799(3) 0.3010(4) -0.0617(2)
H30 H 0.9003 0.2718 -0.1054
C16 C 0.8816(4) 0.4022(4) -0.0535(2)
H31 H 0.9037 0.4424 -0.0920
C17 C 0.8513(3) 0.4473(3) 0.01108(18)
H32 H 0.8537 0.5170 0.0157
C18 C 0.5940(2) 0.4975(2) 0.08171(15)
loop_
_geom_bond_atom_site_label_1
_geom_bond_atom_site_label_2
_geom_bond_site_symmetry_1
_geom_bond_site_symmetry_2
C1 C2 1_555 1_555
O1 H1 1_555 1_555
C2 B1 1_555 1_555
O2 C9 1_555 1_555
B1 C1 1_555 1_555
H2 B1 1_555 1_555
B2 C1 1_555 1_555
H3 B2 1_555 1_555
B3 C1 1_555 1_555
H4 B3 1_555 1_555
B4 C1 1_555 1_555
H5 B4 1_555 1_555
B5 C2 1_555 1_555
H6 B5 1_555 1_555
B6 B1 1_555 1_555
H7 B6 1_555 1_555
B7 B2 1_555 1_555
H8 B7 1_555 1_555
B8 B3 1_555 1_555
H9 B8 1_555 1_555
B9 C2 1_555 1_555
H10 B9 1_555 1_555
B10 B5 1_555 1_555
H11 B10 1_555 1_555
C3 C1 1_555 1_555
C4 C3 1_555 1_555
H12 C4 1_555 1_555
C5 C4 1_555 1_555
H13 C5 1_555 1_555
C6 C5 1_555 1_555
H14 C6 1_555 1_555
C7 C6 1_555 1_555
H15 C7 1_555 1_555
C8 C3 1_555 1_555
H16 C8 1_555 1_555
C9 O1 1_555 1_555
O3 H17 1_555 1_555
O4 C18 1_555 1_555
C10 C11 1_555 1_555
C11 B11 1_555 1_555
B11 C10 1_555 1_555
H18 B11 1_555 1_555
B12 C10 1_555 1_555
H19 B12 1_555 1_555
B13 C10 1_555 1_555
H20 B13 1_555 1_555
B14 C10 1_555 1_555
H21 B14 1_555 1_555
B15 C11 1_555 1_555
H22 B15 1_555 1_555
B16 B11 1_555 1_555
H23 B16 1_555 1_555
B17 B12 1_555 1_555
H24 B17 1_555 1_555
B18 B13 1_555 1_555
H25 B18 1_555 1_555
B19 C11 1_555 1_555
H26 B19 1_555 1_555
B20 B15 1_555 1_555
H27 B20 1_555 1_555
C12 C10 1_555 1_555
C13 C12 1_555 1_555
H28 C13 1_555 1_555
C14 C13 1_555 1_555
H29 C14 1_555 1_555
C15 C14 1_555 1_555
H30 C15 1_555 1_555
C16 C15 1_555 1_555
H31 C16 1_555 1_555
C17 C12 1_555 1_555
H32 C17 1_555 1_555
C18 O3 1_555 1_555
C2 B4 1_555 1_555
C2 C9 1_555 1_555
B1 B5 1_555 1_555
B1 B2 1_555 1_555
B2 B6 1_555 1_555
B2 B3 1_555 1_555
B3 B7 1_555 1_555
B3 B4 1_555 1_555
B4 B9 1_555 1_555
B4 B8 1_555 1_555
B5 B9 1_555 1_555
B5 B6 1_555 1_555
B6 B10 1_555 1_555
B6 B7 1_555 1_555
B7 B8 1_555 1_555
B7 B10 1_555 1_555
B8 B9 1_555 1_555
B8 B10 1_555 1_555
B9 B10 1_555 1_555
C7 C8 1_555 1_555
C11 C18 1_555 1_555
C11 B14 1_555 1_555
B11 B15 1_555 1_555
B11 B12 1_555 1_555
B12 B16 1_555 1_555
B12 B13 1_555 1_555
B13 B14 1_555 1_555
B13 B17 1_555 1_555
B14 B19 1_555 1_555
B14 B18 1_555 1_555
B15 B16 1_555 1_555
B15 B19 1_555 1_555
B16 B20 1_555 1_555
B16 B17 1_555 1_555
B17 B20 1_555 1_555
B17 B18 1_555 1_555
B18 B19 1_555 1_555
B18 B20 1_555 1_555
B19 B20 1_555 1_555
C16 C17 1_555 1_555

#END
