
#######################################################################
#
#                 Cambridge Crystallographic Data Centre
#                                CCDC 
#
#######################################################################
#
# If this CIF has been generated from an entry in the Cambridge 
# Structural Database, then it will include bibliographic, chemical, 
# crystal, experimental, refinement or atomic coordinate data resulting 
# from the CCDC's data processing and validation procedures.
#
#######################################################################

data_AWEWOO
_chemical_formula_moiety         'C4 H14 B10 O2'
_chemical_name_systematic        
1-Methyl-2-carboxy-1,2-dicarba-closo-dodecaborane(12)
_symmetry_cell_setting           monoclinic
_symmetry_space_group_name_H-M   'P 21/c'
_symmetry_Int_Tables_number      14
_space_group_name_Hall           '-P 2ybc'
loop_
_symmetry_equiv_pos_site_id
_symmetry_equiv_pos_as_xyz
1 x,y,z
2 x,1/2-y,1/2+z
3 -x,-y,-z
4 -x,1/2+y,1/2-z
_cell_length_a                   12.073(2)
_cell_length_b                   7.0945(8)
_cell_length_c                   13.4283(12)
_cell_angle_alpha                90
_cell_angle_beta                 102.235(12)
_cell_angle_gamma                90
_cell_volume                     1124.04
_exptl_crystal_colour            colorless
_exptl_crystal_description       plate
_cell_formula_units_Z            4
_exptl_crystal_recrystallization_method acetonitrile
loop_
_atom_site_label
_atom_site_type_symbol
_atom_site_fract_x
_atom_site_fract_y
_atom_site_fract_z
C1 C 0.70191(10) 1.06013(17) 0.14663(9)
C2 C 0.81786(10) 0.92665(17) 0.15864(9)
B1 B 0.81399(12) 1.0987(2) 0.24915(10)
H1 H 0.8648(12) 1.2247(19) 0.2465(12)
B2 B 0.67143(12) 1.0971(2) 0.26389(11)
H2 H 0.6355(13) 1.2325(19) 0.2749(12)
B3 B 0.59484(12) 0.9306(2) 0.17697(11)
H3 H 0.5089(12) 0.965(2) 0.1345(13)
B4 B 0.68879(12) 0.8255(2) 0.10773(11)
H4 H 0.6681(13) 0.805(2) 0.0261(10)
B5 B 0.87267(12) 0.8707(2) 0.28309(11)
H5 H 0.9666(11) 0.861(2) 0.3042(12)
B6 B 0.77818(12) 0.9749(2) 0.35208(11)
H6 H 0.8072(15) 1.023(2) 0.4303(11)
B7 B 0.64170(12) 0.8702(2) 0.30784(11)
H7 H 0.5820(13) 0.854(2) 0.3580(12)
B8 B 0.65244(13) 0.7027(2) 0.21069(12)
H8 H 0.6028(15) 0.572(2) 0.1969(15)
B9 B 0.79514(13) 0.7027(2) 0.19644(12)
H9 H 0.8397(15) 0.587(2) 0.1656(14)
B10 B 0.76559(13) 0.7298(2) 0.31939(12)
H10 H 0.7906(15) 0.618(2) 0.3764(12)
C3 C 0.67446(12) 1.2096(2) 0.06400(11)
H11 H 0.5931(16) 1.271(3) 0.0546(13)
H12 H 0.7248(17) 1.310(3) 0.0786(14)
H13 H 0.6714(13) 1.160(2) -0.0051(13)
C4 C 0.89834(10) 0.96201(17) 0.08786(9)
O1 O 0.95774(8) 0.81399(14) 0.07669(8)
H14 H 1.0043(19) 0.845(3) 0.0349(17)
O2 O 0.90437(8) 1.11533(13) 0.04851(7)
loop_
_geom_bond_atom_site_label_1
_geom_bond_atom_site_label_2
_geom_bond_site_symmetry_1
_geom_bond_site_symmetry_2
C1 C2 1_555 1_555
C2 B1 1_555 1_555
B1 C1 1_555 1_555
H1 B1 1_555 1_555
B2 C1 1_555 1_555
H2 B2 1_555 1_555
B3 C1 1_555 1_555
H3 B3 1_555 1_555
B4 C1 1_555 1_555
H4 B4 1_555 1_555
B5 C2 1_555 1_555
H5 B5 1_555 1_555
B6 B1 1_555 1_555
H6 B6 1_555 1_555
B7 B2 1_555 1_555
H7 B7 1_555 1_555
B8 B3 1_555 1_555
H8 B8 1_555 1_555
B9 C2 1_555 1_555
H9 B9 1_555 1_555
B10 B5 1_555 1_555
H10 B10 1_555 1_555
C3 C1 1_555 1_555
H11 C3 1_555 1_555
H12 C3 1_555 1_555
H13 C3 1_555 1_555
C4 C2 1_555 1_555
O1 C4 1_555 1_555
H14 O1 1_555 1_555
O2 C4 1_555 1_555
C2 B4 1_555 1_555
B1 B5 1_555 1_555
B1 B2 1_555 1_555
B2 B6 1_555 1_555
B2 B3 1_555 1_555
B3 B7 1_555 1_555
B3 B4 1_555 1_555
B4 B9 1_555 1_555
B4 B8 1_555 1_555
B5 B9 1_555 1_555
B5 B6 1_555 1_555
B6 B10 1_555 1_555
B6 B7 1_555 1_555
B7 B8 1_555 1_555
B7 B10 1_555 1_555
B8 B9 1_555 1_555
B8 B10 1_555 1_555
B9 B10 1_555 1_555

#END
