
#######################################################################
#
#                 Cambridge Crystallographic Data Centre
#                                CCDC 
#
#######################################################################
#
# If this CIF has been generated from an entry in the Cambridge 
# Structural Database, then it will include bibliographic, chemical, 
# crystal, experimental, refinement or atomic coordinate data resulting 
# from the CCDC's data processing and validation procedures.
#
#######################################################################

data_AWICUG01
_chemical_name_common            '7-ethyl-10-hydroxycamptothecin monohydrate'
_chemical_formula_moiety         'C22 H20 N2 O5,H2 O1'
_chemical_name_systematic        
"4,11-diethyl-4,9-dihydroxy-1H-pyrano[3',4':6,7]indolizino[1,2-b]quinoline-3,14(4H,12H)-dione monohydrate"
_chemical_properties_biological  'SN38 is an anticancer drug'
_symmetry_cell_setting           monoclinic
_symmetry_space_group_name_H-M   'P 21'
_symmetry_Int_Tables_number      4
_space_group_name_Hall           'P 2yb'
loop_
_symmetry_equiv_pos_site_id
_symmetry_equiv_pos_as_xyz
1 x,y,z
2 -x,1/2+y,-z
_cell_length_a                   8.6174(18)
_cell_length_b                   7.4215(16)
_cell_length_c                   15.155(3)
_cell_angle_alpha                90
_cell_angle_beta                 100.583(3)
_cell_angle_gamma                90
_cell_volume                     952.737
_cell_formula_units_Z            2
loop_
_atom_site_label
_atom_site_type_symbol
_atom_site_fract_x
_atom_site_fract_y
_atom_site_fract_z
C1 C -0.1690(3) 0.9513(7) 0.3023(2)
H1 H -0.2784 0.9588 0.2944
C2 C -0.0994(4) 0.9433(6) 0.2292(2)
C3 C 0.0666(4) 0.9453(7) 0.2393(2)
H2 H 0.1140 0.9457 0.1889
C4 C 0.1573(3) 0.9468(7) 0.3229(2)
H3 H 0.2667 0.9503 0.3290
C5 C 0.0886(3) 0.9433(5) 0.4006(2)
C6 C -0.0790(3) 0.9482(6) 0.3904(2)
C7 C -0.1471(3) 0.9531(7) 0.4697(2)
C8 C -0.0444(3) 0.9421(6) 0.5495(2)
C9 C 0.1185(3) 0.9361(5) 0.5516(2)
C10 C -0.0745(3) 0.9359(7) 0.6442(2)
H4 H -0.1256 1.0452 0.6593
H5 H -0.1391 0.8329 0.6534
C11 C 0.1999(3) 0.9229(5) 0.6446(2)
C12 C 0.3553(3) 0.9121(5) 0.6818(2)
H6 H 0.4327 0.9166 0.6464
C13 C 0.3951(3) 0.8940(5) 0.7754(2)
C14 C 0.2807(3) 0.8832(5) 0.8267(2)
C15 C 0.1163(3) 0.8967(5) 0.7886(2)
C16 C 0.3272(4) 0.8478(6) 0.9258(2)
H7 H 0.3392 0.9619 0.9575
H8 H 0.2435 0.7811 0.9460
C17 C 0.5881(4) 0.7640(7) 0.9007(2)
C18 C 0.5670(3) 0.8975(5) 0.8233(2)
C19 C 0.6102(5) 1.0829(6) 0.8660(3)
H9 H 0.5554 1.0985 0.9159
H10 H 0.7226 1.0850 0.8899
C20 C 0.5710(6) 1.2373(8) 0.8033(4)
H11 H 0.4585 1.2527 0.7893
H12 H 0.6102 1.2140 0.7490
H13 H 0.6189 1.3450 0.8309
C21 C -0.3225(5) 0.9904(9) 0.4674(3)
H14 H -0.3346 1.0619 0.5193
H15 H -0.3648 1.0592 0.4139
C22 C -0.4093(6) 0.8258(9) 0.4674(5)
H16 H -0.3686 0.7585 0.5207
H17 H -0.3988 0.7559 0.4155
H18 H -0.5187 0.8527 0.4659
N1 N 0.1884(2) 0.9373(5) 0.4817(2)
N2 N 0.0859(3) 0.9194(4) 0.6970(2)
O1 O -0.1917(3) 0.9415(6) 0.1463(2)
H19 H -0.135(5) 0.963(9) 0.109(3)
O2 O 0.0050(2) 0.8914(4) 0.8312(1)
O3 O 0.6615(3) 0.8491(4) 0.7621(2)
H20 H 0.7545 0.8667 0.7844
O4 O 0.4727(3) 0.7473(5) 0.9480(2)
O5 O 0.7083(3) 0.6794(5) 0.9224(2)
O6 O -0.0125(4) -0.0036(6) 0.0148(2)
H21 H -0.015(7) -0.044(9) -0.036(2)
H22 H 0.043(7) 0.086(5) 0.025(5)
loop_
_geom_bond_atom_site_label_1
_geom_bond_atom_site_label_2
_geom_bond_site_symmetry_1
_geom_bond_site_symmetry_2
C1 H1 1_555 1_555
C2 C1 1_555 1_555
C3 C2 1_555 1_555
H2 C3 1_555 1_555
C4 C3 1_555 1_555
H3 C4 1_555 1_555
C5 C4 1_555 1_555
C6 C1 1_555 1_555
C7 C6 1_555 1_555
C8 C7 1_555 1_555
C9 C8 1_555 1_555
C10 C8 1_555 1_555
H4 C10 1_555 1_555
H5 C10 1_555 1_555
C11 C9 1_555 1_555
C12 C11 1_555 1_555
H6 C12 1_555 1_555
C13 C12 1_555 1_555
C14 C13 1_555 1_555
C15 C14 1_555 1_555
C16 C14 1_555 1_555
H7 C16 1_555 1_555
H8 C16 1_555 1_555
C17 C18 1_555 1_555
C18 C13 1_555 1_555
C19 C18 1_555 1_555
H9 C19 1_555 1_555
H10 C19 1_555 1_555
C20 C19 1_555 1_555
H11 C20 1_555 1_555
H12 C20 1_555 1_555
H13 C20 1_555 1_555
C21 C7 1_555 1_555
H14 C21 1_555 1_555
H15 C21 1_555 1_555
C22 C21 1_555 1_555
H16 C22 1_555 1_555
H17 C22 1_555 1_555
H18 C22 1_555 1_555
N1 C5 1_555 1_555
N2 C10 1_555 1_555
O1 C2 1_555 1_555
H19 O1 1_555 1_555
O2 C15 1_555 1_555
O3 C18 1_555 1_555
H20 O3 1_555 1_555
O4 C16 1_555 1_555
O5 C17 1_555 1_555
O6 H21 1_555 1_555
H22 O6 1_555 1_555
C5 C6 1_555 1_555
C9 N1 1_555 1_555
C11 N2 1_555 1_555
C15 N2 1_555 1_555
C17 O4 1_555 1_555

#END
