
#######################################################################
#
#                 Cambridge Crystallographic Data Centre
#                                CCDC 
#
#######################################################################
#
# If this CIF has been generated from an entry in the Cambridge 
# Structural Database, then it will include bibliographic, chemical, 
# crystal, experimental, refinement or atomic coordinate data resulting 
# from the CCDC's data processing and validation procedures.
#
#######################################################################

data_AWIDER
_chemical_formula_moiety         'C6 H15 N2 O2 1+,C6 H4 N1 O3 1-,H2 O1'
_chemical_name_systematic        
'2,6-diammoniohexanoate 4-nitrophenolate monohydrate'
_symmetry_cell_setting           orthorhombic
_symmetry_space_group_name_H-M   'P 21 21 21'
_symmetry_Int_Tables_number      19
_space_group_name_Hall           'P 2ac 2ab'
loop_
_symmetry_equiv_pos_site_id
_symmetry_equiv_pos_as_xyz
1 x,y,z
2 1/2-x,-y,1/2+z
3 -x,1/2+y,1/2-z
4 1/2+x,1/2-y,-z
_cell_length_a                   5.4463(5)
_cell_length_b                   8.5227(7)
_cell_length_c                   30.937(3)
_cell_angle_alpha                90
_cell_angle_beta                 90
_cell_angle_gamma                90
_cell_volume                     1436.01
_exptl_crystal_colour            yellow
_exptl_crystal_description       prism
_cell_formula_units_Z            4
loop_
_atom_site_label
_atom_site_type_symbol
_atom_site_fract_x
_atom_site_fract_y
_atom_site_fract_z
C1 C 0.0961(2) 0.98068(14) 0.01884(4)
C2 C 0.2676(2) 0.86557(14) 0.02872(4)
H1 H 0.4057 0.8521 0.0114
C3 C 0.2315(2) 0.77155(14) 0.06431(4)
H2 H 0.3475 0.6951 0.0709
C4 C 0.0230(2) 0.78812(13) 0.09105(4)
C5 C -0.1458(2) 0.90689(16) 0.07953(4)
H3 H -0.2848 0.9214 0.0965
C6 C -0.1120(2) 1.00168(15) 0.04416(4)
H4 H -0.2265 1.0787 0.0373
N1 N 0.1327(2) 1.07827(14) -0.01850(3)
O1 O -0.01188(17) 0.69881(10) 0.12475(3)
O2 O 0.3205(3) 1.06152(17) -0.03968(4)
O3 O -0.0257(2) 1.17595(14) -0.02810(4)
C7 C 0.5209(3) 0.36658(13) 0.24508(4)
C8 C 0.5825(2) 0.28355(13) 0.28773(4)
H5 H 0.4624 0.1994 0.2922
C9 C 0.5626(2) 0.39810(13) 0.32535(4)
H6 H 0.3981 0.4418 0.3257
H7 H 0.5851 0.3406 0.3521
C10 C 0.7467(2) 0.53227(13) 0.32398(4)
H8 H 0.7339 0.5860 0.2964
H9 H 0.9117 0.4904 0.3264
C11 C 0.7012(2) 0.64847(13) 0.36044(4)
H10 H 0.5382 0.6930 0.3573
H11 H 0.7076 0.5937 0.3879
C12 C 0.8883(2) 0.77892(15) 0.36047(4)
H12 H 1.0493 0.7362 0.3668
H13 H 0.8946 0.8269 0.3321
N2 N 0.8334(2) 0.21151(12) 0.28618(3)
H14 H 0.9290 0.2676 0.2687
H15 H 0.8224 0.1137 0.2763
H16 H 0.8977 0.2105 0.3126
N3 N 0.8243(2) 0.89943(12) 0.39316(3)
H17 H 0.6683 0.9280 0.3898
H18 H 0.9211 0.9827 0.3898
H19 H 0.8451 0.8599 0.4195
O4 O 0.6911(2) 0.38721(15) 0.21912(3)
O5 O 0.30201(18) 0.40935(11) 0.24154(3)
O6 O 0.5980(2) 0.51226(14) 0.14040(3)
H20 H 0.632(4) 0.470(2) 0.1656(6)
H21 H 0.700(3) 0.580(2) 0.1342(6)
loop_
_geom_bond_atom_site_label_1
_geom_bond_atom_site_label_2
_geom_bond_site_symmetry_1
_geom_bond_site_symmetry_2
C1 C2 1_555 1_555
C2 H1 1_555 1_555
C3 C2 1_555 1_555
H2 C3 1_555 1_555
C4 C3 1_555 1_555
C5 C4 1_555 1_555
H3 C5 1_555 1_555
C6 C1 1_555 1_555
H4 C6 1_555 1_555
N1 C1 1_555 1_555
O1 C4 1_555 1_555
O2 N1 1_555 1_555
O3 N1 1_555 1_555
C7 C8 1_555 1_555
C8 H5 1_555 1_555
C9 C8 1_555 1_555
H6 C9 1_555 1_555
H7 C9 1_555 1_555
C10 C9 1_555 1_555
H8 C10 1_555 1_555
H9 C10 1_555 1_555
C11 C10 1_555 1_555
H10 C11 1_555 1_555
H11 C11 1_555 1_555
C12 C11 1_555 1_555
H12 C12 1_555 1_555
H13 C12 1_555 1_555
N2 C8 1_555 1_555
H14 N2 1_555 1_555
H15 N2 1_555 1_555
H16 N2 1_555 1_555
N3 C12 1_555 1_555
H17 N3 1_555 1_555
H18 N3 1_555 1_555
H19 N3 1_555 1_555
O4 C7 1_555 1_555
O5 C7 1_555 1_555
O6 H20 1_555 1_555
H21 O6 1_555 1_555
C5 C6 1_555 1_555

#END
