
#######################################################################
#
#                 Cambridge Crystallographic Data Centre
#                                CCDC 
#
#######################################################################
#
# If this CIF has been generated from an entry in the Cambridge 
# Structural Database, then it will include bibliographic, chemical, 
# crystal, experimental, refinement or atomic coordinate data resulting 
# from the CCDC's data processing and validation procedures.
#
#######################################################################

data_AWIGIW
_chemical_formula_moiety         
'2(C28 H28 N4 2+),Cl1 1-,3(Cl1 O4 1-),C1 H4 O1,H2 O1'
_chemical_name_systematic        
"bis(N,N'-Dibenzyl-1,10-phenanthroline-2,9-bis(methylammonium)) chloride triperchlorate methanol solvate monohydrate"
_symmetry_cell_setting           monoclinic
_symmetry_space_group_name_H-M   'P 21/c'
_symmetry_Int_Tables_number      14
_space_group_name_Hall           '-P 2ybc'
loop_
_symmetry_equiv_pos_site_id
_symmetry_equiv_pos_as_xyz
1 x,y,z
2 x,1/2-y,1/2+z
3 -x,-y,-z
4 -x,1/2+y,1/2-z
_cell_length_a                   18.206(5)
_cell_length_b                   14.802(4)
_cell_length_c                   22.267(6)
_cell_angle_alpha                90.00
_cell_angle_beta                 90.369(6)
_cell_angle_gamma                90.00
_cell_volume                     6000.5
_exptl_crystal_colour            'pale yellow'
_cell_formula_units_Z            4
_exptl_crystal_recrystallization_method 'methanol/diethyl ether(2:1)'
loop_
_atom_site_label
_atom_site_type_symbol
_atom_site_fract_x
_atom_site_fract_y
_atom_site_fract_z
C1 C 0.1393(6) 0.4403(7) -0.0179(5)
H1 H 0.1439 0.3944 0.0104
C2 C 0.1038(7) 0.5193(10) -0.0019(6)
H2 H 0.0861 0.5272 0.0368
C3 C 0.0952(7) 0.5853(9) -0.0440(8)
H3 H 0.0703 0.6380 -0.0341
C4 C 0.1224(7) 0.5757(8) -0.1001(7)
H4 H 0.1169 0.6216 -0.1283
C5 C 0.1586(6) 0.4959(8) -0.1147(5)
H5 H 0.1769 0.4886 -0.1533
C6 C 0.1678(5) 0.4275(7) -0.0736(5)
C7 C 0.2060(4) 0.3417(5) -0.0905(4)
H6 H 0.1768 0.2909 -0.0769
H7 H 0.2089 0.3383 -0.1339
C8 C 0.3346(5) 0.3990(5) -0.0885(4)
H8 H 0.3161 0.4596 -0.0817
H9 H 0.3392 0.3905 -0.1315
C9 C 0.4089(5) 0.3905(5) -0.0599(4)
C10 C 0.4713(6) 0.4150(5) -0.0917(4)
H10 H 0.4681 0.4329 -0.1316
C11 C 0.5371(5) 0.4119(6) -0.0625(5)
H11 H 0.5795 0.4294 -0.0825
C12 C 0.5418(5) 0.3829(6) -0.0033(5)
C13 C 0.6096(5) 0.3764(6) 0.0292(5)
H12 H 0.6534 0.3890 0.0096
C14 C 0.6115(6) 0.3526(6) 0.0867(5)
H13 H 0.6559 0.3532 0.1075
C15 C 0.5458(6) 0.3263(6) 0.1167(5)
C16 C 0.5439(6) 0.2954(6) 0.1756(5)
H14 H 0.5874 0.2923 0.1976
C17 C 0.4793(7) 0.2692(6) 0.2020(4)
H15 H 0.4779 0.2511 0.2420
C18 C 0.4165(6) 0.2709(5) 0.1669(5)
C19 C 0.4773(5) 0.3276(5) 0.0870(4)
C20 C 0.4761(5) 0.3580(5) 0.0257(5)
C21 C 0.3457(6) 0.2288(6) 0.1893(4)
H16 H 0.3324 0.1794 0.1628
H17 H 0.3546 0.2037 0.2289
C22 C 0.2112(6) 0.2439(6) 0.1981(4)
H18 H 0.2025 0.2093 0.1617
H19 H 0.2141 0.2018 0.2314
C23 C 0.1485(6) 0.3058(7) 0.2077(4)
C24 C 0.1087(6) 0.3015(7) 0.2610(5)
H20 H 0.1229 0.2615 0.2911
C25 C 0.0492(7) 0.3554(11) 0.2692(6)
H21 H 0.0229 0.3518 0.3047
C26 C 0.0280(8) 0.4147(9) 0.2257(8)
H22 H -0.0117 0.4530 0.2323
C27 C 0.0646(8) 0.4181(9) 0.1728(8)
H23 H 0.0483 0.4566 0.1426
C28 C 0.1256(6) 0.3650(8) 0.1634(5)
H24 H 0.1512 0.3691 0.1275
N1 N 0.2809(4) 0.3332(4) -0.0651(3)
H49 H 0.2784 0.3395 -0.0250
H50 H 0.2975 0.2771 -0.0727
N2 N 0.4109(4) 0.3629(4) -0.0037(3)
N3 N 0.4144(4) 0.3009(4) 0.1110(3)
N4 N 0.2826(4) 0.2925(4) 0.1928(3)
H51 H 0.2887 0.3288 0.2249
H52 H 0.2817 0.3273 0.1597
C29 C 0.0703(6) 0.5427(7) 0.4004(5)
H25 H 0.0745 0.4958 0.4280
C30 C 0.0155(7) 0.6052(10) 0.4074(6)
H26 H -0.0174 0.5998 0.4390
C31 C 0.0091(7) 0.6749(10) 0.3682(8)
H27 H -0.0274 0.7180 0.3735
C32 C 0.0559(8) 0.6818(9) 0.3211(6)
H28 H 0.0510 0.7289 0.2937
C33 C 0.1117(6) 0.6170(7) 0.3142(5)
H29 H 0.1442 0.6214 0.2823
C34 C 0.1185(5) 0.5472(6) 0.3546(4)
C35 C 0.1752(5) 0.4751(6) 0.3471(4)
H30 H 0.1824 0.4645 0.3046
H31 H 0.1570 0.4195 0.3646
C36 C 0.2972(5) 0.5535(6) 0.3388(4)
H32 H 0.2751 0.6123 0.3320
H33 H 0.3041 0.5247 0.3001
C37 C 0.3705(5) 0.5652(6) 0.3695(5)
C38 C 0.4351(6) 0.5463(6) 0.3387(5)
H34 H 0.4340 0.5266 0.2990
C39 C 0.4998(6) 0.5577(6) 0.3689(5)
H35 H 0.5437 0.5440 0.3498
C40 C 0.5017(5) 0.5897(5) 0.4284(5)
C41 C 0.5671(5) 0.6037(5) 0.4633(5)
H36 H 0.6126 0.5938 0.4457
C42 C 0.5644(5) 0.6308(6) 0.5210(5)
H37 H 0.6076 0.6385 0.5429
C43 C 0.4960(5) 0.6475(5) 0.5486(5)
C44 C 0.4889(6) 0.6766(6) 0.6087(5)
H38 H 0.5307 0.6872 0.6318
C45 C 0.4221(6) 0.6889(5) 0.6325(4)
H39 H 0.4175 0.7071 0.6723
C46 C 0.3586(5) 0.6741(5) 0.5966(5)
C47 C 0.4302(5) 0.6359(5) 0.5158(4)
C48 C 0.4338(5) 0.6063(5) 0.4549(4)
C49 C 0.2825(5) 0.6828(6) 0.6215(4)
H40 H 0.2851 0.6864 0.6650
H41 H 0.2601 0.7380 0.6067
C50 C 0.1645(5) 0.5956(6) 0.6367(4)
H42 H 0.1415 0.5384 0.6266
H43 H 0.1743 0.5959 0.6796
C51 C 0.1128(5) 0.6703(6) 0.6220(4)
C52 C 0.1116(6) 0.7494(7) 0.6544(4)
H44 H 0.1453 0.7561 0.6857
C53 C 0.0640(7) 0.8183(8) 0.6436(6)
H45 H 0.0661 0.8716 0.6657
C54 C 0.0136(7) 0.8063(8) 0.5993(6)
H46 H -0.0209 0.8515 0.5924
C55 C 0.0113(6) 0.7300(9) 0.5643(5)
H47 H -0.0226 0.7244 0.5330
C56 C 0.0618(6) 0.6606(7) 0.5771(4)
H48 H 0.0604 0.6075 0.5548
N5 N 0.2478(4) 0.4981(4) 0.3756(3)
H53 H 0.2392 0.5277 0.4102
H54 H 0.2710 0.4463 0.3850
N6 N 0.3681(4) 0.5954(4) 0.4247(3)
N7 N 0.3634(4) 0.6487(4) 0.5399(3)
N8 N 0.2360(4) 0.6036(4) 0.6036(3)
H55 H 0.2620 0.5527 0.6096
H56 H 0.2262 0.6075 0.5640
C57 C 0.2005(5) 0.7189(6) 0.4585(4)
O14 O 0.2275(3) 0.6305(4) 0.4764(2)
Cl1 Cl 0.31734(12) 0.31546(13) 0.33515(9)
Cl2 Cl 0.20097(15) 0.12741(18) 0.02671(12)
O1 O 0.1594(6) 0.2047(5) 0.0391(4)
O2 O 0.1512(5) 0.0558(6) 0.0141(4)
O3 O 0.2455(5) 0.1395(6) -0.0231(4)
O4 O 0.2397(5) 0.0981(5) 0.0769(3)
Cl3 Cl 0.31988(16) 0.50706(19) 0.74705(12)
O5 O 0.3863(5) 0.4844(6) 0.7734(3)
O6 O 0.3242(4) 0.4987(4) 0.6836(3)
O7 O 0.2990(5) 0.5957(5) 0.7629(3)
O8 O 0.2670(5) 0.4472(5) 0.7686(3)
Cl4 Cl 0.29061(19) 0.5657(2) 0.17198(13)
O9 O 0.3202(7) 0.6379(6) 0.1964(4)
O10 O 0.2245(7) 0.5571(12) 0.1981(5)
O11 O 0.3225(8) 0.4890(6) 0.1887(4)
O12 O 0.2811(4) 0.5720(5) 0.1089(3)
O13 O 0.2776(3) 0.3768(4) 0.0702(3)
loop_
_geom_bond_atom_site_label_1
_geom_bond_atom_site_label_2
_geom_bond_site_symmetry_1
_geom_bond_site_symmetry_2
C1 H1 1_555 1_555
C2 C1 1_555 1_555
H2 C2 1_555 1_555
C3 C2 1_555 1_555
H3 C3 1_555 1_555
C4 C3 1_555 1_555
H4 C4 1_555 1_555
C5 C4 1_555 1_555
H5 C5 1_555 1_555
C6 C1 1_555 1_555
C7 C6 1_555 1_555
H6 C7 1_555 1_555
H7 C7 1_555 1_555
C8 H8 1_555 1_555
H9 C8 1_555 1_555
C9 C8 1_555 1_555
C10 C9 1_555 1_555
H10 C10 1_555 1_555
C11 C10 1_555 1_555
H11 C11 1_555 1_555
C12 C11 1_555 1_555
C13 C12 1_555 1_555
H12 C13 1_555 1_555
C14 C13 1_555 1_555
H13 C14 1_555 1_555
C15 C14 1_555 1_555
C16 C15 1_555 1_555
H14 C16 1_555 1_555
C17 C16 1_555 1_555
H15 C17 1_555 1_555
C18 C17 1_555 1_555
C19 C15 1_555 1_555
C20 C12 1_555 1_555
C21 C18 1_555 1_555
H16 C21 1_555 1_555
H17 C21 1_555 1_555
C22 H18 1_555 1_555
H19 C22 1_555 1_555
C23 C22 1_555 1_555
C24 C23 1_555 1_555
H20 C24 1_555 1_555
C25 C24 1_555 1_555
H21 C25 1_555 1_555
C26 C25 1_555 1_555
H22 C26 1_555 1_555
C27 C26 1_555 1_555
H23 C27 1_555 1_555
C28 C23 1_555 1_555
H24 C28 1_555 1_555
C29 H25 1_555 1_555
C30 C29 1_555 1_555
H26 C30 1_555 1_555
C31 C30 1_555 1_555
H27 C31 1_555 1_555
C32 C31 1_555 1_555
H28 C32 1_555 1_555
C33 C32 1_555 1_555
H29 C33 1_555 1_555
C34 C29 1_555 1_555
C35 C34 1_555 1_555
H30 C35 1_555 1_555
H31 C35 1_555 1_555
C36 H32 1_555 1_555
H33 C36 1_555 1_555
C37 C36 1_555 1_555
C38 C37 1_555 1_555
H34 C38 1_555 1_555
C39 C38 1_555 1_555
H35 C39 1_555 1_555
C40 C39 1_555 1_555
C41 C40 1_555 1_555
H36 C41 1_555 1_555
C42 C41 1_555 1_555
H37 C42 1_555 1_555
C43 C42 1_555 1_555
C44 C43 1_555 1_555
H38 C44 1_555 1_555
C45 C44 1_555 1_555
H39 C45 1_555 1_555
C46 C45 1_555 1_555
C47 C43 1_555 1_555
C48 C40 1_555 1_555
C49 C46 1_555 1_555
H40 C49 1_555 1_555
H41 C49 1_555 1_555
C50 H42 1_555 1_555
H43 C50 1_555 1_555
C51 C50 1_555 1_555
C52 C51 1_555 1_555
H44 C52 1_555 1_555
C53 C52 1_555 1_555
H45 C53 1_555 1_555
C54 C53 1_555 1_555
H46 C54 1_555 1_555
C55 C54 1_555 1_555
H47 C55 1_555 1_555
C56 C51 1_555 1_555
H48 C56 1_555 1_555
C57 O14 1_555 1_555
Cl2 O1 1_555 1_555
Cl3 O5 1_555 1_555
Cl4 O9 1_555 1_555
N1 C7 1_555 1_555
H49 N1 1_555 1_555
H50 N1 1_555 1_555
N2 C9 1_555 1_555
N3 C18 1_555 1_555
N4 C21 1_555 1_555
H51 N4 1_555 1_555
H52 N4 1_555 1_555
N5 C35 1_555 1_555
H53 N5 1_555 1_555
H54 N5 1_555 1_555
N6 C37 1_555 1_555
N7 C46 1_555 1_555
N8 C49 1_555 1_555
H55 N8 1_555 1_555
H56 N8 1_555 1_555
O2 Cl2 1_555 1_555
O3 Cl2 1_555 1_555
O4 Cl2 1_555 1_555
O6 Cl3 1_555 1_555
O7 Cl3 1_555 1_555
O8 Cl3 1_555 1_555
O10 Cl4 1_555 1_555
O11 Cl4 1_555 1_555
O12 Cl4 1_555 1_555
C5 C6 1_555 1_555
C8 N1 1_555 1_555
C19 N3 1_555 1_555
C19 C20 1_555 1_555
C20 N2 1_555 1_555
C22 N4 1_555 1_555
C27 C28 1_555 1_555
C33 C34 1_555 1_555
C36 N5 1_555 1_555
C47 N7 1_555 1_555
C47 C48 1_555 1_555
C48 N6 1_555 1_555
C50 N8 1_555 1_555
C55 C56 1_555 1_555

#END
