
#######################################################################
#
#                 Cambridge Crystallographic Data Centre
#                                CCDC 
#
#######################################################################
#
# If this CIF has been generated from an entry in the Cambridge 
# Structural Database, then it will include bibliographic, chemical, 
# crystal, experimental, refinement or atomic coordinate data resulting 
# from the CCDC's data processing and validation procedures.
#
#######################################################################

data_AWIJIB
_chemical_compound_source        'Melodinus hemselyanus'
_chemical_name_common            'melohemsine D unknown solvate'
_chemical_formula_moiety         'C21 H24 N2 O4'
_chemical_name_systematic        
"methyl 12-hydroxy-1-oxo-12a-vinyl-1,2,7,8,11,12,12a,13-octahydro-10H-indolizino[1',8':2,3,4]cyclopenta[1,2-c]quinoline-13a(12bH)-carboxylate unknown solvate"
_symmetry_cell_setting           tetragonal
_symmetry_space_group_name_H-M   'P 43'
_symmetry_Int_Tables_number      78
_space_group_name_Hall           'P 4cw'
loop_
_symmetry_equiv_pos_site_id
_symmetry_equiv_pos_as_xyz
1 x,y,z
2 -y,x,3/4+z
3 -x,-y,1/2+z
4 y,-x,1/4+z
_cell_length_a                   12.31578(8)
_cell_length_b                   12.31578(8)
_cell_length_c                   13.37214(14)
_cell_angle_alpha                90
_cell_angle_beta                 90
_cell_angle_gamma                90
_cell_volume                     2028.27
_exptl_crystal_colour            colorless
_exptl_crystal_description       block
_cell_formula_units_Z            4
loop_
_atom_site_label
_atom_site_type_symbol
_atom_site_fract_x
_atom_site_fract_y
_atom_site_fract_z
O1 O 0.09764(16) 0.31129(16) 0.21237(17)
O2 O 0.30759(15) 0.47766(15) 0.21540(15)
O3 O 0.19196(17) 0.57773(18) 0.12518(16)
O4 O -0.21495(17) 0.56849(19) 0.43905(18)
H1 H -0.1854 0.5214 0.4727
N1 N 0.19031(19) 0.31932(18) 0.35630(19)
H2 H 0.2010 0.2504 0.3533
C1 C 0.1354(2) 0.3651(2) 0.2806(2)
C2 C -0.0755(2) 0.7514(3) 0.4140(3)
H3 H -0.0687 0.8289 0.4028
H4 H -0.1113 0.7412 0.4779
N2 N 0.03466(18) 0.70336(19) 0.41944(18)
C3 C 0.1128(2) 0.7437(2) 0.3456(2)
H5 H 0.1344 0.8178 0.3601
H6 H 0.0835 0.7401 0.2784
C4 C 0.2065(2) 0.6656(2) 0.3592(2)
H7 H 0.2512 0.6872 0.4154
H8 H 0.2513 0.6636 0.2996
C5 C 0.1536(2) 0.5522(2) 0.3788(2)
C6 C 0.2176(2) 0.4843(2) 0.4528(2)
C7 C 0.2587(2) 0.5306(2) 0.5412(2)
H9 H 0.2497 0.6046 0.5522
C8 C 0.3123(2) 0.4689(3) 0.6121(2)
H10 H 0.3393 0.5014 0.6697
C9 C 0.3256(3) 0.3578(3) 0.5968(3)
H11 H 0.3616 0.3155 0.6439
C10 C 0.2853(3) 0.3120(3) 0.5118(3)
H12 H 0.2935 0.2378 0.5013
C11 C 0.2320(2) 0.3746(2) 0.4406(2)
C12 C -0.1461(2) 0.7033(3) 0.3324(3)
H13 H -0.2173 0.7368 0.3337
H14 H -0.1137 0.7173 0.2675
C13 C -0.1565(2) 0.5832(3) 0.3486(2)
H15 H -0.1991 0.5524 0.2935
C14 C 0.1289(2) 0.4903(2) 0.2775(2)
C15 C 0.0130(2) 0.5240(2) 0.2501(2)
H16 H -0.0202 0.4719 0.2051
H17 H 0.0117 0.5952 0.2193
C16 C -0.0380(3) 0.3598(2) 0.4671(3)
H18 H -0.0021 0.3980 0.5171
H19 H -0.0551 0.2869 0.4765
C17 C -0.0644(2) 0.4083(3) 0.3838(2)
H20 H -0.1002 0.3652 0.3372
C18 C -0.0451(2) 0.5252(2) 0.3523(2)
C19 C 0.0375(2) 0.5836(2) 0.4203(2)
H21 H 0.0298 0.5573 0.4891
C20 C 0.2108(2) 0.5213(2) 0.1960(2)
C21 C 0.3921(2) 0.5018(3) 0.1419(2)
H22 H 0.4586 0.4673 0.1617
H23 H 0.4028 0.5789 0.1382
H24 H 0.3703 0.4749 0.0776
loop_
_geom_bond_atom_site_label_1
_geom_bond_atom_site_label_2
_geom_bond_site_symmetry_1
_geom_bond_site_symmetry_2
O1 C1 1_555 1_555
O2 C20 1_555 1_555
O3 C20 1_555 1_555
O4 H1 1_555 1_555
N1 H2 1_555 1_555
C1 N1 1_555 1_555
C2 H3 1_555 1_555
H4 C2 1_555 1_555
N2 C2 1_555 1_555
C3 N2 1_555 1_555
H5 C3 1_555 1_555
H6 C3 1_555 1_555
C4 C3 1_555 1_555
H7 C4 1_555 1_555
H8 C4 1_555 1_555
C5 C4 1_555 1_555
C6 C5 1_555 1_555
C7 C6 1_555 1_555
H9 C7 1_555 1_555
C8 C7 1_555 1_555
H10 C8 1_555 1_555
C9 C8 1_555 1_555
H11 C9 1_555 1_555
C10 C9 1_555 1_555
H12 C10 1_555 1_555
C11 N1 1_555 1_555
C12 C2 1_555 1_555
H13 C12 1_555 1_555
H14 C12 1_555 1_555
C13 O4 1_555 1_555
H15 C13 1_555 1_555
C14 C1 1_555 1_555
C15 C14 1_555 1_555
H16 C15 1_555 1_555
H17 C15 1_555 1_555
C16 H18 1_555 1_555
H19 C16 1_555 1_555
C17 C16 1_555 1_555
H20 C17 1_555 1_555
C18 C13 1_555 1_555
C19 N2 1_555 1_555
H21 C19 1_555 1_555
C20 C14 1_555 1_555
C21 O2 1_555 1_555
H22 C21 1_555 1_555
H23 C21 1_555 1_555
H24 C21 1_555 1_555
C5 C14 1_555 1_555
C5 C19 1_555 1_555
C6 C11 1_555 1_555
C10 C11 1_555 1_555
C12 C13 1_555 1_555
C15 C18 1_555 1_555
C17 C18 1_555 1_555
C18 C19 1_555 1_555

#END
