
#######################################################################
#
#                 Cambridge Crystallographic Data Centre
#                                CCDC 
#
#######################################################################
#
# If this CIF has been generated from an entry in the Cambridge 
# Structural Database, then it will include bibliographic, chemical, 
# crystal, experimental, refinement or atomic coordinate data resulting 
# from the CCDC's data processing and validation procedures.
#
#######################################################################

data_AWIQOO02
_chemical_formula_moiety         'C33 H23 F1 N2'
_chemical_name_systematic        
2-(4'-(diphenylamino)biphenyl-4-yl)-3-(3-fluorophenyl)acrylonitrile
_symmetry_cell_setting           monoclinic
_symmetry_space_group_name_H-M   'P 21/c'
_symmetry_Int_Tables_number      14
_space_group_name_Hall           '-P 2ybc'
loop_
_symmetry_equiv_pos_site_id
_symmetry_equiv_pos_as_xyz
1 x,y,z
2 -x,1/2+y,1/2-z
3 -x,-y,-z
4 x,1/2-y,1/2+z
_cell_length_a                   26.426(7)
_cell_length_b                   6.8665(17)
_cell_length_c                   13.432(4)
_cell_angle_alpha                90
_cell_angle_beta                 93.450(5)
_cell_angle_gamma                90
_cell_volume                     2432.87
_exptl_crystal_colour            yellow
_cell_formula_units_Z            4
loop_
_atom_site_label
_atom_site_type_symbol
_atom_site_fract_x
_atom_site_fract_y
_atom_site_fract_z
N1 N 0.85402(5) 0.0713(2) 0.09766(13)
N2 N 0.47853(6) 0.8521(3) 0.12505(14)
C1 C 0.85561(7) -0.0675(3) 0.01919(16)
C2 C 0.88325(7) -0.2366(3) 0.0313(2)
H1 H 0.9014 -0.2621 0.0914
C3 C 0.88378(9) -0.3709(3) -0.0479(3)
H2 H 0.9024 -0.4855 -0.0404
C4 C 0.85683(10) -0.3320(4) -0.1357(2)
H3 H 0.8574 -0.4202 -0.1882
C5 C 0.82956(9) -0.1680(4) -0.1469(2)
H4 H 0.8110 -0.1441 -0.2067
C6 C 0.82879(8) -0.0349(3) -0.07056(17)
H5 H 0.8099 0.0787 -0.0796
C7 C 0.89826(6) 0.1774(3) 0.12785(16)
C8 C 0.94036(7) 0.1765(3) 0.07138(18)
H6 H 0.9398 0.1061 0.0122
C9 C 0.98303(8) 0.2795(4) 0.1027(2)
H7 H 1.0113 0.2757 0.0648
C10 C 0.98466(9) 0.3868(4) 0.1881(3)
H8 H 1.0134 0.4587 0.2076
C11 C 0.94328(9) 0.3873(3) 0.2450(2)
H9 H 0.9441 0.4586 0.3039
C12 C 0.90041(8) 0.2830(3) 0.21546(17)
H10 H 0.8727 0.2837 0.2549
C13 C 0.80477(6) 0.1385(3) 0.11900(14)
C14 C 0.76769(7) 0.0026(3) 0.13597(15)
H11 H 0.7762 -0.1287 0.1404
C15 C 0.71842(7) 0.0585(3) 0.14637(14)
H12 H 0.6942 -0.0364 0.1570
C16 C 0.70359(6) 0.2521(3) 0.14152(13)
C17 C 0.74152(7) 0.3880(3) 0.12842(14)
H13 H 0.7334 0.5197 0.1274
C18 C 0.79113(7) 0.3325(3) 0.11682(15)
H14 H 0.8156 0.4271 0.1074
C19 C 0.64964(6) 0.3102(3) 0.14341(13)
C20 C 0.61096(6) 0.1783(3) 0.11989(14)
H15 H 0.6193 0.0496 0.1068
C21 C 0.56074(6) 0.2317(3) 0.11529(15)
H16 H 0.5360 0.1388 0.0990
C22 C 0.54634(6) 0.4207(2) 0.13443(13)
C23 C 0.58465(7) 0.5534(3) 0.15886(15)
H17 H 0.5763 0.6821 0.1719
C24 C 0.63488(7) 0.4980(3) 0.16424(15)
H18 H 0.6596 0.5899 0.1824
C25 C 0.49226(6) 0.4809(2) 0.12772(13)
C26 C 0.48390(6) 0.6877(3) 0.12715(14)
C27 C 0.45302(6) 0.3559(3) 0.12082(13)
H19 H 0.4626 0.2255 0.1218
C28 C 0.39808(6) 0.3864(2) 0.11206(13)
C29 C 0.37362(7) 0.5656(3) 0.11779(14)
H20 H 0.3923 0.6796 0.1276
C30 C 0.32217(7) 0.5715(3) 0.10891(14)
C31 C 0.29207(7) 0.4104(3) 0.09586(15)
H21 H 0.2569 0.4206 0.0909
C32 C 0.31562(7) 0.2338(3) 0.09040(16)
H22 H 0.2963 0.1213 0.0813
C33 C 0.36792(7) 0.2211(3) 0.09821(15)
H23 H 0.3833 0.0998 0.0941
F1 F 0.29897(4) 0.74833(16) 0.11394(10)
loop_
_geom_bond_atom_site_label_1
_geom_bond_atom_site_label_2
_geom_bond_site_symmetry_1
_geom_bond_site_symmetry_2
N1 C1 1_555 1_555
N2 C26 1_555 1_555
C1 C2 1_555 1_555
C2 H1 1_555 1_555
C3 C2 1_555 1_555
H2 C3 1_555 1_555
C4 C3 1_555 1_555
H3 C4 1_555 1_555
C5 C4 1_555 1_555
H4 C5 1_555 1_555
C6 C1 1_555 1_555
H5 C6 1_555 1_555
C7 N1 1_555 1_555
C8 C7 1_555 1_555
H6 C8 1_555 1_555
C9 C8 1_555 1_555
H7 C9 1_555 1_555
C10 C9 1_555 1_555
H8 C10 1_555 1_555
C11 C10 1_555 1_555
H9 C11 1_555 1_555
C12 C7 1_555 1_555
H10 C12 1_555 1_555
C13 N1 1_555 1_555
C14 C13 1_555 1_555
H11 C14 1_555 1_555
C15 C14 1_555 1_555
H12 C15 1_555 1_555
C16 C15 1_555 1_555
C17 C16 1_555 1_555
H13 C17 1_555 1_555
C18 C13 1_555 1_555
H14 C18 1_555 1_555
C19 C16 1_555 1_555
C20 C19 1_555 1_555
H15 C20 1_555 1_555
C21 C20 1_555 1_555
H16 C21 1_555 1_555
C22 C21 1_555 1_555
C23 C22 1_555 1_555
H17 C23 1_555 1_555
C24 C19 1_555 1_555
H18 C24 1_555 1_555
C25 C22 1_555 1_555
C26 C25 1_555 1_555
C27 C25 1_555 1_555
H19 C27 1_555 1_555
C28 C27 1_555 1_555
C29 C28 1_555 1_555
H20 C29 1_555 1_555
C30 C29 1_555 1_555
C31 C30 1_555 1_555
H21 C31 1_555 1_555
C32 C31 1_555 1_555
H22 C32 1_555 1_555
C33 C28 1_555 1_555
H23 C33 1_555 1_555
F1 C30 1_555 1_555
C5 C6 1_555 1_555
C11 C12 1_555 1_555
C17 C18 1_555 1_555
C23 C24 1_555 1_555
C32 C33 1_555 1_555

#END
