
#######################################################################
#
#                 Cambridge Crystallographic Data Centre
#                                CCDC 
#
#######################################################################
#
# If this CIF has been generated from an entry in the Cambridge 
# Structural Database, then it will include bibliographic, chemical, 
# crystal, experimental, refinement or atomic coordinate data resulting 
# from the CCDC's data processing and validation procedures.
#
#######################################################################

data_AWIROP
_chemical_formula_moiety         'C50 H36'
_chemical_name_systematic        
2-(2-(biphenyl-2-yl)-1,2-bis(biphenyl-4-yl)vinyl)biphenyl
_symmetry_cell_setting           triclinic
_symmetry_space_group_name_H-M   'P -1'
_symmetry_Int_Tables_number      2
_space_group_name_Hall           '-P 1'
loop_
_symmetry_equiv_pos_site_id
_symmetry_equiv_pos_as_xyz
1 x,y,z
2 -x,-y,-z
_cell_length_a                   9.8761(7)
_cell_length_b                   18.5457(14)
_cell_length_c                   19.1881(15)
_cell_angle_alpha                95.226(2)
_cell_angle_beta                 93.210(2)
_cell_angle_gamma                94.902(2)
_cell_volume                     3479.85
_exptl_crystal_description       block
_cell_formula_units_Z            4
loop_
_atom_site_label
_atom_site_type_symbol
_atom_site_fract_x
_atom_site_fract_y
_atom_site_fract_z
C1 C 0.5103(3) 0.72546(14) 0.00877(14)
C2 C 0.5864(3) 0.78723(14) -0.00297(14)
C3 C 0.4011(3) 0.68722(14) -0.04231(13)
C4 C 0.2900(3) 0.72105(14) -0.06982(14)
C5 C 0.1966(3) 0.67886(16) -0.11771(14)
H1 H 0.1221 0.7009 -0.1377
C6 C 0.2089(3) 0.60640(16) -0.13690(15)
H2 H 0.1443 0.5795 -0.1701
C7 C 0.3154(3) 0.57279(16) -0.10792(15)
H3 H 0.3235 0.5226 -0.1200
C8 C 0.4095(3) 0.61345(14) -0.06127(14)
H4 H 0.4826 0.5904 -0.0413
C9 C 0.2646(3) 0.79729(14) -0.04870(15)
C10 C 0.2765(3) 0.82663(14) 0.02093(15)
H5 H 0.3023 0.7973 0.0567
C11 C 0.2511(3) 0.89788(16) 0.03873(17)
H6 H 0.2610 0.9172 0.0865
C12 C 0.2117(3) 0.94108(17) -0.0120(2)
H7 H 0.1942 0.9900 0.0007
C13 C 0.1979(3) 0.91310(17) -0.08105(19)
H8 H 0.1701 0.9426 -0.1163
C14 C 0.2244(3) 0.84178(16) -0.09938(16)
H9 H 0.2150 0.8230 -0.1473
C15 C 0.5293(3) 0.68890(13) 0.07352(14)
C16 C 0.4170(3) 0.66049(13) 0.10644(14)
H10 H 0.3283 0.6632 0.0856
C17 C 0.4308(3) 0.62874(13) 0.16813(14)
H11 H 0.3515 0.6109 0.1893
C18 C 0.5591(3) 0.62207(13) 0.20053(14)
C19 C 0.6716(3) 0.64782(14) 0.16570(15)
H12 H 0.7605 0.6431 0.1853
C20 C 0.6577(3) 0.67970(14) 0.10417(15)
H13 H 0.7369 0.6958 0.0820
C21 C 0.5742(3) 0.59177(13) 0.26892(15)
C22 C 0.4704(3) 0.59298(14) 0.31510(14)
H14 H 0.3872 0.6116 0.3015
C23 C 0.4861(3) 0.56746(14) 0.38086(16)
H15 H 0.4136 0.5683 0.4114
C24 C 0.6066(4) 0.54090(15) 0.40180(17)
H16 H 0.6176 0.5238 0.4468
C25 C 0.7116(3) 0.53935(15) 0.35665(17)
H17 H 0.7949 0.5212 0.3708
C26 C 0.6952(3) 0.56415(14) 0.29120(16)
H18 H 0.7676 0.5624 0.2607
C27 C 0.5770(3) 0.82430(14) -0.06864(14)
C28 C 0.5860(3) 0.79028(14) -0.13654(14)
C29 C 0.5650(3) 0.83046(15) -0.19329(15)
H19 H 0.5701 0.8078 -0.2394
C30 C 0.5366(3) 0.90292(15) -0.18466(16)
H20 H 0.5198 0.9287 -0.2244
C31 C 0.5332(3) 0.93682(15) -0.11803(16)
H21 H 0.5168 0.9866 -0.1113
C32 C 0.5538(3) 0.89796(14) -0.06104(15)
H22 H 0.5523 0.9219 -0.0152
C33 C 0.6200(3) 0.71434(14) -0.15155(14)
C34 C 0.7256(3) 0.68587(15) -0.11467(15)
H23 H 0.7783 0.7159 -0.0784
C35 C 0.7551(3) 0.61483(16) -0.12990(16)
H24 H 0.8269 0.5963 -0.1039
C36 C 0.6803(3) 0.57057(16) -0.18291(17)
H25 H 0.7002 0.5217 -0.1933
C37 C 0.5770(3) 0.59795(16) -0.22044(16)
H26 H 0.5257 0.5678 -0.2570
C38 C 0.5471(3) 0.66916(15) -0.20546(14)
H27 H 0.4761 0.6874 -0.2322
C39 C 0.6788(3) 0.82900(14) 0.05375(14)
C40 C 0.6322(3) 0.84968(14) 0.11881(14)
H28 H 0.5397 0.8369 0.1272
C41 C 0.7165(3) 0.88841(14) 0.17178(14)
H29 H 0.6807 0.9022 0.2155
C42 C 0.8537(3) 0.90760(14) 0.16193(14)
C43 C 0.9000(3) 0.88808(14) 0.09600(14)
H30 H 0.9923 0.9009 0.0875
C44 C 0.8146(3) 0.85059(13) 0.04296(14)
H31 H 0.8486 0.8392 -0.0017
C45 C 0.9451(3) 0.94787(14) 0.21876(15)
C46 C 0.9266(3) 0.93773(15) 0.28870(15)
H32 H 0.8554 0.9038 0.2999
C47 C 1.0107(3) 0.97640(16) 0.34261(16)
H33 H 0.9969 0.9687 0.3901
C48 C 1.1141(3) 1.02595(16) 0.32673(17)
H34 H 1.1707 1.0530 0.3634
C49 C 1.1353(3) 1.03616(15) 0.25801(16)
H35 H 1.2074 1.0697 0.2472
C50 C 1.0517(3) 0.99752(14) 0.20440(15)
H36 H 1.0672 1.0050 0.1571
C51 C 0.1066(3) 0.72573(13) 0.48542(13)
C52 C 0.0106(3) 0.76283(13) 0.51733(14)
C53 C 0.2278(3) 0.70018(14) 0.52281(14)
C54 C 0.2212(3) 0.65778(13) 0.58020(14)
C55 C 0.3440(3) 0.64277(14) 0.61428(15)
H37 H 0.3410 0.6163 0.6543
C56 C 0.4691(3) 0.66567(15) 0.59089(16)
H38 H 0.5507 0.6551 0.6149
C57 C 0.4749(3) 0.70375(15) 0.53274(16)
H39 H 0.5605 0.7182 0.5156
C58 C 0.3555(3) 0.72113(14) 0.49904(14)
H40 H 0.3605 0.7477 0.4591
C59 C 0.0913(3) 0.62513(13) 0.60472(14)
C60 C -0.0106(3) 0.58957(14) 0.55701(15)
H41 H 0.0021 0.5869 0.5082
C61 C -0.1297(3) 0.55834(15) 0.58048(16)
H42 H -0.1983 0.5344 0.5477
C62 C -0.1494(3) 0.56177(15) 0.65148(16)
H43 H -0.2319 0.5407 0.6673
C63 C -0.0495(3) 0.59567(15) 0.69915(16)
H44 H -0.0629 0.5977 0.7479
C64 C 0.0707(3) 0.62689(14) 0.67619(15)
H45 H 0.1396 0.6497 0.7095
C65 C 0.1001(3) 0.71026(14) 0.40725(14)
C66 C 0.1126(3) 0.64025(14) 0.37677(14)
H46 H 0.1323 0.6033 0.4060
C67 C 0.0969(3) 0.62341(14) 0.30500(14)
H47 H 0.1043 0.5748 0.2862
C68 C 0.0707(3) 0.67569(14) 0.25922(14)
C69 C 0.0640(3) 0.74635(14) 0.29008(14)
H48 H 0.0484 0.7839 0.2609
C70 C 0.0795(3) 0.76326(14) 0.36194(14)
H49 H 0.0761 0.8122 0.3808
C71 C 0.0524(3) 0.65666(14) 0.18237(14)
C72 C 0.0382(3) 0.58490(16) 0.15348(15)
H50 H 0.0384 0.5470 0.1836
C73 C 0.0238(4) 0.56768(19) 0.08224(17)
H51 H 0.0139 0.5181 0.0639
C74 C 0.0234(3) 0.62124(18) 0.03672(16)
H52 H 0.0157 0.6088 -0.0126
C75 C 0.0342(3) 0.69215(16) 0.06377(14)
H53 H 0.0312 0.7297 0.0333
C76 C 0.0495(3) 0.70945(15) 0.13567(14)
H54 H 0.0583 0.7592 0.1536
C77 C 0.0099(3) 0.78290(13) 0.59503(14)
C78 C 0.1171(3) 0.82305(13) 0.63668(14)
C79 C 0.1045(3) 0.83488(15) 0.70910(14)
H55 H 0.1768 0.8616 0.7376
C80 C -0.0098(3) 0.80885(15) 0.74001(15)
H56 H -0.0149 0.8166 0.7894
C81 C -0.1168(3) 0.77136(15) 0.69895(15)
H57 H -0.1966 0.7538 0.7198
C82 C -0.1072(3) 0.75954(14) 0.62758(14)
H58 H -0.1823 0.7348 0.5996
C83 C 0.2424(3) 0.85419(14) 0.60645(15)
C84 C 0.2379(3) 0.89086(14) 0.54611(15)
H59 H 0.1522 0.8977 0.5239
C85 C 0.3564(4) 0.91744(15) 0.51803(17)
H60 H 0.3518 0.9414 0.4764
C86 C 0.4817(4) 0.90877(16) 0.55115(19)
H61 H 0.5632 0.9268 0.5321
C87 C 0.4883(3) 0.87408(16) 0.61169(18)
H62 H 0.5742 0.8688 0.6346
C88 C 0.3698(3) 0.84694(15) 0.63915(15)
H63 H 0.3753 0.8231 0.6808
C89 C -0.1105(3) 0.78318(14) 0.47664(13)
C90 C -0.1938(3) 0.73165(14) 0.43269(14)
H64 H -0.1771 0.6819 0.4313
C91 C -0.3002(3) 0.75191(14) 0.39119(15)
H65 H -0.3550 0.7154 0.3618
C92 C -0.3301(3) 0.82395(14) 0.39098(14)
C93 C -0.2486(3) 0.87519(14) 0.43701(14)
H66 H -0.2656 0.9249 0.4389
C94 C -0.1434(3) 0.85466(14) 0.47987(14)
H67 H -0.0929 0.8903 0.5121
C95 C -0.4420(3) 0.84551(14) 0.34409(14)
C96 C -0.5125(3) 0.79613(15) 0.29321(15)
H68 H -0.4883 0.7475 0.2880
C97 C -0.6170(3) 0.81601(16) 0.24997(16)
H69 H -0.6628 0.7810 0.2154
C98 C -0.6551(3) 0.88540(16) 0.25631(15)
H70 H -0.7287 0.8986 0.2276
C99 C -0.5844(3) 0.93552(16) 0.30534(15)
H71 H -0.6079 0.9843 0.3095
C100 C -0.4802(3) 0.91609(15) 0.34846(15)
H72 H -0.4333 0.9518 0.3820
loop_
_geom_bond_atom_site_label_1
_geom_bond_atom_site_label_2
_geom_bond_site_symmetry_1
_geom_bond_site_symmetry_2
C1 C2 1_555 1_555
C2 C27 1_555 1_555
C3 C1 1_555 1_555
C4 C3 1_555 1_555
C5 C4 1_555 1_555
H1 C5 1_555 1_555
C6 C5 1_555 1_555
H2 C6 1_555 1_555
C7 C6 1_555 1_555
H3 C7 1_555 1_555
C8 C3 1_555 1_555
H4 C8 1_555 1_555
C9 C4 1_555 1_555
C10 C9 1_555 1_555
H5 C10 1_555 1_555
C11 C10 1_555 1_555
H6 C11 1_555 1_555
C12 C11 1_555 1_555
H7 C12 1_555 1_555
C13 C12 1_555 1_555
H8 C13 1_555 1_555
C14 C9 1_555 1_555
H9 C14 1_555 1_555
C15 C1 1_555 1_555
C16 C15 1_555 1_555
H10 C16 1_555 1_555
C17 C16 1_555 1_555
H11 C17 1_555 1_555
C18 C17 1_555 1_555
C19 C18 1_555 1_555
H12 C19 1_555 1_555
C20 C15 1_555 1_555
H13 C20 1_555 1_555
C21 C18 1_555 1_555
C22 C21 1_555 1_555
H14 C22 1_555 1_555
C23 C22 1_555 1_555
H15 C23 1_555 1_555
C24 C23 1_555 1_555
H16 C24 1_555 1_555
C25 C24 1_555 1_555
H17 C25 1_555 1_555
C26 C21 1_555 1_555
H18 C26 1_555 1_555
C27 C28 1_555 1_555
C28 C29 1_555 1_555
C29 H19 1_555 1_555
C30 C29 1_555 1_555
H20 C30 1_555 1_555
C31 C30 1_555 1_555
H21 C31 1_555 1_555
C32 C27 1_555 1_555
H22 C32 1_555 1_555
C33 C28 1_555 1_555
C34 C33 1_555 1_555
H23 C34 1_555 1_555
C35 C34 1_555 1_555
H24 C35 1_555 1_555
C36 C35 1_555 1_555
H25 C36 1_555 1_555
C37 C36 1_555 1_555
H26 C37 1_555 1_555
C38 C33 1_555 1_555
H27 C38 1_555 1_555
C39 C2 1_555 1_555
C40 C39 1_555 1_555
H28 C40 1_555 1_555
C41 C40 1_555 1_555
H29 C41 1_555 1_555
C42 C41 1_555 1_555
C43 C42 1_555 1_555
H30 C43 1_555 1_555
C44 C39 1_555 1_555
H31 C44 1_555 1_555
C45 C42 1_555 1_555
C46 C45 1_555 1_555
H32 C46 1_555 1_555
C47 C46 1_555 1_555
H33 C47 1_555 1_555
C48 C47 1_555 1_555
H34 C48 1_555 1_555
C49 C48 1_555 1_555
H35 C49 1_555 1_555
C50 C45 1_555 1_555
H36 C50 1_555 1_555
C51 C52 1_555 1_555
C52 C77 1_555 1_555
C53 C51 1_555 1_555
C54 C53 1_555 1_555
C55 C54 1_555 1_555
H37 C55 1_555 1_555
C56 C55 1_555 1_555
H38 C56 1_555 1_555
C57 C56 1_555 1_555
H39 C57 1_555 1_555
C58 C53 1_555 1_555
H40 C58 1_555 1_555
C59 C54 1_555 1_555
C60 C59 1_555 1_555
H41 C60 1_555 1_555
C61 C60 1_555 1_555
H42 C61 1_555 1_555
C62 C61 1_555 1_555
H43 C62 1_555 1_555
C63 C62 1_555 1_555
H44 C63 1_555 1_555
C64 C59 1_555 1_555
H45 C64 1_555 1_555
C65 C51 1_555 1_555
C66 C65 1_555 1_555
H46 C66 1_555 1_555
C67 C66 1_555 1_555
H47 C67 1_555 1_555
C68 C67 1_555 1_555
C69 C68 1_555 1_555
H48 C69 1_555 1_555
C70 C65 1_555 1_555
H49 C70 1_555 1_555
C71 C68 1_555 1_555
C72 C71 1_555 1_555
H50 C72 1_555 1_555
C73 C72 1_555 1_555
H51 C73 1_555 1_555
C74 C73 1_555 1_555
H52 C74 1_555 1_555
C75 C74 1_555 1_555
H53 C75 1_555 1_555
C76 C71 1_555 1_555
H54 C76 1_555 1_555
C77 C78 1_555 1_555
C78 C79 1_555 1_555
C79 H55 1_555 1_555
C80 C79 1_555 1_555
H56 C80 1_555 1_555
C81 C80 1_555 1_555
H57 C81 1_555 1_555
C82 C77 1_555 1_555
H58 C82 1_555 1_555
C83 C78 1_555 1_555
C84 C83 1_555 1_555
H59 C84 1_555 1_555
C85 C84 1_555 1_555
H60 C85 1_555 1_555
C86 C85 1_555 1_555
H61 C86 1_555 1_555
C87 C86 1_555 1_555
H62 C87 1_555 1_555
C88 C83 1_555 1_555
H63 C88 1_555 1_555
C89 C52 1_555 1_555
C90 C89 1_555 1_555
H64 C90 1_555 1_555
C91 C90 1_555 1_555
H65 C91 1_555 1_555
C92 C91 1_555 1_555
C93 C92 1_555 1_555
H66 C93 1_555 1_555
C94 C89 1_555 1_555
H67 C94 1_555 1_555
C95 C92 1_555 1_555
C96 C95 1_555 1_555
H68 C96 1_555 1_555
C97 C96 1_555 1_555
H69 C97 1_555 1_555
C98 C97 1_555 1_555
H70 C98 1_555 1_555
C99 C98 1_555 1_555
H71 C99 1_555 1_555
C100 C95 1_555 1_555
H72 C100 1_555 1_555
C7 C8 1_555 1_555
C13 C14 1_555 1_555
C19 C20 1_555 1_555
C25 C26 1_555 1_555
C31 C32 1_555 1_555
C37 C38 1_555 1_555
C43 C44 1_555 1_555
C49 C50 1_555 1_555
C57 C58 1_555 1_555
C63 C64 1_555 1_555
C69 C70 1_555 1_555
C75 C76 1_555 1_555
C81 C82 1_555 1_555
C87 C88 1_555 1_555
C93 C94 1_555 1_555
C99 C100 1_555 1_555

#END
