
#######################################################################
#
#                 Cambridge Crystallographic Data Centre
#                                CCDC 
#
#######################################################################
#
# If this CIF has been generated from an entry in the Cambridge 
# Structural Database, then it will include bibliographic, chemical, 
# crystal, experimental, refinement or atomic coordinate data resulting 
# from the CCDC's data processing and validation procedures.
#
#######################################################################

data_AWISUV01
_chemical_formula_moiety         'C52 H44 N1 O3 1+,Br1 1-,2(C4 H10 O1)'
_chemical_name_systematic        
"(S)-4-morpholine-2,6-bis(hydroxy(diphenyl)methyl)-4,5-dihydro-3H-dinaphtho(1,2-e:2',1'-c)azepin-4-ium bromide diethyl ether solvate"
_symmetry_cell_setting           orthorhombic
_symmetry_space_group_name_H-M   'P 21 21 21'
_symmetry_Int_Tables_number      19
_space_group_name_Hall           'P 2ac 2ab'
loop_
_symmetry_equiv_pos_site_id
_symmetry_equiv_pos_as_xyz
1 x,y,z
2 1/2+x,1/2-y,-z
3 -x,1/2+y,1/2-z
4 1/2-x,-y,1/2+z
_cell_length_a                   12.6893(3)
_cell_length_b                   13.6179(3)
_cell_length_c                   29.6245(7)
_cell_angle_alpha                90
_cell_angle_beta                 90
_cell_angle_gamma                90
_cell_volume                     5119.16
_exptl_crystal_colour            colorless
_exptl_crystal_description       needle
_cell_formula_units_Z            4
loop_
_atom_site_label
_atom_site_type_symbol
_atom_site_fract_x
_atom_site_fract_y
_atom_site_fract_z
Br1 Br 0.53762(5) 0.69116(5) 0.61095(3)
O1 O 0.8414(4) 0.6696(3) 0.72907(17)
C1 C 0.8915(6) 0.5786(6) 0.7217(2)
C2 C 0.7632(6) 0.6919(6) 0.6967(2)
C3 C 0.9640(8) 0.5599(7) 0.7604(3)
C4 C 0.7099(7) 0.7860(6) 0.7091(3)
H1 H 0.9310 0.5803 0.6937
H2 H 0.8394 0.5266 0.7197
H3 H 0.7117 0.6393 0.6955
H4 H 0.7951 0.6980 0.6671
H5 H 0.9995 0.4984 0.7559
H6 H 0.9241 0.5574 0.7879
H7 H 1.0149 0.6118 0.7622
H8 H 0.6574 0.8015 0.6869
H9 H 0.7612 0.8378 0.7103
H10 H 0.6771 0.7791 0.7382
O2 O 0.9006(3) 0.7763(3) 0.53664(16)
O3 O 0.8067(3) 0.7189(2) 0.38005(14)
O4 O 0.6264(3) 0.9137(3) 0.59835(14)
N1 N 0.7172(3) 0.8385(3) 0.48380(17)
C5 C 0.3532(4) 0.9769(4) 0.4123(2)
C6 C 0.5207(4) 0.9661(4) 0.4577(2)
C7 C 0.4028(4) 0.9913(4) 0.5358(2)
C8 C 0.6459(4) 0.7993(4) 0.4460(2)
C9 C 0.5498(4) 1.1312(4) 0.3923(2)
C10 C 0.6975(5) 0.7003(5) 0.2671(2)
C11 C 0.4097(4) 0.9786(4) 0.4541(2)
C12 C 0.5690(4) 0.9624(4) 0.4992(2)
C13 C 0.5107(4) 0.9806(4) 0.5403(2)
C14 C 0.3502(4) 0.9887(4) 0.4941(2)
C15 C 0.2460(5) 0.9844(4) 0.4111(2)
C16 C 0.6073(5) 1.1870(5) 0.3197(2)
C17 C 0.5843(4) 0.9557(4) 0.4152(2)
C18 C 0.8300(4) 0.8414(4) 0.4671(2)
C19 C 0.7210(4) 0.7448(4) 0.3509(2)
C20 C 0.6779(4) 0.9221(4) 0.3317(2)
C21 C 0.7989(5) 0.7796(5) 0.5565(2)
C22 C 0.7582(5) 0.7408(4) 0.3014(2)
C23 C 0.5302(5) 0.6861(5) 0.3530(2)
C24 C 0.6863(4) 0.9431(3) 0.4993(2)
C25 C 0.6799(4) 0.8491(4) 0.3624(2)
C26 C 0.4884(5) 1.0234(5) 0.6241(2)
C27 C 0.5646(4) 0.9963(4) 0.5861(2)
C28 C 0.7112(4) 0.7659(4) 0.5216(2)
C29 C 0.9075(5) 0.8553(5) 0.5051(2)
C30 C 0.1878(4) 0.9966(4) 0.4508(2)
C31 C 0.5583(5) 1.2047(4) 0.3617(2)
C32 C 0.6368(4) 1.0179(4) 0.3412(2)
C33 C 0.4694(5) 0.9612(4) 0.6598(2)
C34 C 0.2375(4) 0.9972(4) 0.4916(2)
C35 C 0.5870(4) 1.0345(4) 0.3830(2)
C36 C 0.6442(5) 1.0952(4) 0.3098(2)
C37 C 0.6362(4) 0.6673(4) 0.3597(2)
C38 C 0.6423(4) 1.0842(4) 0.5828(2)
C39 C 0.3667(5) 1.1403(5) 0.6587(2)
C40 C 0.4363(5) 1.1161(5) 0.6241(2)
C41 C 0.6371(4) 0.8706(4) 0.4070(2)
C42 C 0.4020(5) 0.9870(5) 0.6944(2)
C43 C 0.7182(5) 1.0934(5) 0.6168(2)
C44 C 0.8572(5) 0.7783(6) 0.2892(2)
C45 C 0.6364(5) 1.1561(4) 0.5503(2)
C46 C 0.5935(6) 0.5028(5) 0.3844(2)
C47 C 0.6661(5) 0.5741(4) 0.3745(2)
C48 C 0.4858(7) 0.5238(6) 0.3774(2)
C49 C 0.3496(5) 1.0794(5) 0.6947(2)
C50 C 0.4538(6) 0.6140(5) 0.3620(2)
C51 C 0.8315(6) 0.7295(6) 0.2119(2)
C52 C 0.7841(5) 1.1758(6) 0.6168(3)
C53 C 0.6999(6) 1.2366(5) 0.5515(3)
C54 C 0.8928(6) 0.7742(6) 0.2453(2)
C55 C 0.7765(6) 1.2470(6) 0.5846(4)
C56 C 0.7339(7) 0.6957(6) 0.2229(2)
H11 H 0.3903 0.9706 0.3854
H12 H 0.578(5) 0.858(5) 0.597(2)
H13 H 0.3630 1.0007 0.5618
H14 H 0.6740 0.7375 0.4350
H15 H 0.5761 0.7868 0.4581
H16 H 0.5189 1.1443 0.4201
H17 H 0.6310 0.6756 0.2738
H18 H 0.872(3) 0.756(4) 0.3734(19)
H19 H 0.2112 0.9814 0.3835
H20 H 0.6146 1.2377 0.2989
H21 H 0.8458 0.7806 0.4515
H22 H 0.8377 0.8948 0.4457
H23 H 0.7044 0.9097 0.3030
H24 H 0.7896 0.8424 0.5715
H25 H 0.7934 0.7285 0.5791
H26 H 0.5091 0.7473 0.3425
H27 H 0.7131 0.9536 0.5295
H28 H 0.7203 0.9903 0.4796
H29 H 0.7156 0.7000 0.5092
H30 H 0.6435 0.7723 0.5365
H31 H 0.9784 0.8585 0.4929
H32 H 0.8930 0.9169 0.5203
H33 H 0.1151 1.0044 0.4493
H34 H 0.5319 1.2668 0.3683
H35 H 0.5027 0.9004 0.6607
H36 H 0.1981 1.0031 0.5180
H37 H 0.6747 1.0835 0.2817
H38 H 0.3308 1.1998 0.6573
H39 H 0.4489 1.1606 0.6009
H40 H 0.3907 0.9432 0.7180
H41 H 0.7247 1.0456 0.6391
H42 H 0.8996 0.8064 0.3113
H43 H 0.5879 1.1495 0.5269
H44 H 0.6147 0.4420 0.3954
H45 H 0.7374 0.5601 0.3778
H46 H 0.4357 0.4757 0.3834
H47 H 0.3055 1.0975 0.7183
H48 H 0.3827 0.6272 0.3575
H49 H 0.8570 0.7229 0.1826
H50 H 0.8345 1.1822 0.6393
H51 H 0.6917 1.2855 0.5299
H52 H 0.9579 0.8013 0.2379
H53 H 0.8215 1.3009 0.5848
H54 H 0.6910 0.6692 0.2006
O5 O 0.3967(5) 0.4306(4) 0.5548(2)
C57 C 0.4558(7) 0.3668(6) 0.4879(2)
C58 C 0.3706(7) 0.4159(7) 0.6003(3)
C59 C 0.4282(10) 0.3440(8) 0.5344(4)
C60 C 0.4677(11) 0.4085(8) 0.6317(3)
H55 H 0.4808 0.3085 0.4732
H56 H 0.5100 0.4160 0.4875
H57 H 0.3947 0.3910 0.4723
H58 H 0.3298 0.3559 0.6029
H59 H 0.3266 0.4698 0.6104
H60 H 0.3714 0.2963 0.5352
H61 H 0.4885 0.3166 0.5501
H62 H 0.4448 0.3991 0.6622
H63 H 0.5081 0.4680 0.6297
H64 H 0.5107 0.3539 0.6226
loop_
_geom_bond_atom_site_label_1
_geom_bond_atom_site_label_2
_geom_bond_site_symmetry_1
_geom_bond_site_symmetry_2
O1 C1 1_555 1_555
C1 C3 1_555 1_555
C2 O1 1_555 1_555
C3 H5 1_555 1_555
C4 C2 1_555 1_555
H1 C1 1_555 1_555
H2 C1 1_555 1_555
H3 C2 1_555 1_555
H4 C2 1_555 1_555
H6 C3 1_555 1_555
H7 C3 1_555 1_555
H8 C4 1_555 1_555
H9 C4 1_555 1_555
H10 C4 1_555 1_555
O2 C21 1_555 1_555
O3 C19 1_555 1_555
O4 C27 1_555 1_555
N1 C8 1_555 1_555
C5 C11 1_555 1_555
C6 C11 1_555 1_555
C7 C13 1_555 1_555
C8 C41 1_555 1_555
C9 C31 1_555 1_555
C10 C22 1_555 1_555
C11 C14 1_555 1_555
C12 C6 1_555 1_555
C13 C12 1_555 1_555
C14 C7 1_555 1_555
C15 C5 1_555 1_555
C16 C31 1_555 1_555
C17 C6 1_555 1_555
C18 N1 1_555 1_555
C19 C22 1_555 1_555
C20 C25 1_555 1_555
C21 C28 1_555 1_555
C22 C44 1_555 1_555
C23 C37 1_555 1_555
C24 N1 1_555 1_555
C25 C19 1_555 1_555
C26 C27 1_555 1_555
C27 C13 1_555 1_555
C28 N1 1_555 1_555
C29 O2 1_555 1_555
C30 C15 1_555 1_555
C31 H34 1_555 1_555
C32 C20 1_555 1_555
C33 C26 1_555 1_555
C34 C14 1_555 1_555
C35 C9 1_555 1_555
C36 C16 1_555 1_555
C37 C19 1_555 1_555
C38 C27 1_555 1_555
C39 C40 1_555 1_555
C40 C26 1_555 1_555
C41 C17 1_555 1_555
C42 C33 1_555 1_555
C43 C38 1_555 1_555
C44 C54 1_555 1_555
C45 C38 1_555 1_555
C46 C47 1_555 1_555
C47 C37 1_555 1_555
C48 C46 1_555 1_555
C49 C39 1_555 1_555
C50 C23 1_555 1_555
C51 C54 1_555 1_555
C52 C43 1_555 1_555
C53 C45 1_555 1_555
C54 H52 1_555 1_555
C55 C52 1_555 1_555
C56 C10 1_555 1_555
H11 C5 1_555 1_555
H12 O4 1_555 1_555
H13 C7 1_555 1_555
H14 C8 1_555 1_555
H15 C8 1_555 1_555
H16 C9 1_555 1_555
H17 C10 1_555 1_555
H18 O3 1_555 1_555
H19 C15 1_555 1_555
H20 C16 1_555 1_555
H21 C18 1_555 1_555
H22 C18 1_555 1_555
H23 C20 1_555 1_555
H24 C21 1_555 1_555
H25 C21 1_555 1_555
H26 C23 1_555 1_555
H27 C24 1_555 1_555
H28 C24 1_555 1_555
H29 C28 1_555 1_555
H30 C28 1_555 1_555
H31 C29 1_555 1_555
H32 C29 1_555 1_555
H33 C30 1_555 1_555
H35 C33 1_555 1_555
H36 C34 1_555 1_555
H37 C36 1_555 1_555
H38 C39 1_555 1_555
H39 C40 1_555 1_555
H40 C42 1_555 1_555
H41 C43 1_555 1_555
H42 C44 1_555 1_555
H43 C45 1_555 1_555
H44 C46 1_555 1_555
H45 C47 1_555 1_555
H46 C48 1_555 1_555
H47 C49 1_555 1_555
H48 C50 1_555 1_555
H49 C51 1_555 1_555
H50 C52 1_555 1_555
H51 C53 1_555 1_555
H53 C55 1_555 1_555
H54 C56 1_555 1_555
O5 C58 1_555 1_555
C57 C59 1_555 1_555
C58 C60 1_555 1_555
C59 O5 1_555 1_555
C60 H62 1_555 1_555
H55 C57 1_555 1_555
H56 C57 1_555 1_555
H57 C57 1_555 1_555
H58 C58 1_555 1_555
H59 C58 1_555 1_555
H60 C59 1_555 1_555
H61 C59 1_555 1_555
H63 C60 1_555 1_555
H64 C60 1_555 1_555
C12 C24 1_555 1_555
C17 C35 1_555 1_555
C18 C29 1_555 1_555
C25 C41 1_555 1_555
C30 C34 1_555 1_555
C32 C35 1_555 1_555
C32 C36 1_555 1_555
C42 C49 1_555 1_555
C48 C50 1_555 1_555
C51 C56 1_555 1_555
C53 C55 1_555 1_555

#END
