
#######################################################################
#
#                 Cambridge Crystallographic Data Centre
#                                CCDC 
#
#######################################################################
#
# If this CIF has been generated from an entry in the Cambridge 
# Structural Database, then it will include bibliographic, chemical, 
# crystal, experimental, refinement or atomic coordinate data resulting 
# from the CCDC's data processing and validation procedures.
#
#######################################################################

data_AWIXOT01
_chemical_formula_moiety         'C16 H12 N4'
_chemical_name_systematic        2,3-bis(1H-Pyrrol-2-yl)quinoxaline
_symmetry_cell_setting           orthorhombic
_symmetry_space_group_name_H-M   'P n a 21'
_symmetry_Int_Tables_number      33
_space_group_name_Hall           'P 2c -2n'
loop_
_symmetry_equiv_pos_site_id
_symmetry_equiv_pos_as_xyz
1 x,y,z
2 -x,-y,1/2+z
3 1/2+x,1/2-y,z
4 1/2-x,1/2+y,1/2+z
_cell_length_a                   6.8864(6)
_cell_length_b                   19.4648(16)
_cell_length_c                   9.6124(8)
_cell_angle_alpha                90
_cell_angle_beta                 90
_cell_angle_gamma                90
_cell_volume                     1288.47
_exptl_crystal_colour            colorless
_exptl_crystal_description       block
_cell_formula_units_Z            4
_exptl_crystal_preparation       Luminescent
loop_
_atom_site_label
_atom_site_type_symbol
_atom_site_fract_x
_atom_site_fract_y
_atom_site_fract_z
C1 C 0.8508(2) 0.42657(7) 0.25896(15)
C2 C 0.9706(2) 0.42124(8) 0.37377(17)
H1 H 0.9456 0.3960 0.4540
C3 C 1.1371(2) 0.46096(9) 0.34717(18)
H2 H 1.2418 0.4670 0.4070
C4 C 1.1173(2) 0.48882(9) 0.2184(2)
H3 H 1.2069 0.5171 0.1742
C5 C 0.6642(2) 0.39769(7) 0.21796(14)
C6 C 0.55565(18) 0.35061(6) 0.30428(14)
C7 C 0.61722(18) 0.33452(7) 0.44770(14)
C8 C 0.5839(2) 0.36910(8) 0.56974(15)
H4 H 0.5081 0.4083 0.5807
C9 C 0.6864(2) 0.33405(8) 0.67580(15)
H5 H 0.6908 0.3460 0.7694
C10 C 0.7770(2) 0.27996(8) 0.61552(16)
H6 H 0.8552 0.2482 0.6611
C11 C 0.3305(2) 0.33816(7) 0.12954(15)
C12 C 0.1614(3) 0.30719(10) 0.07684(19)
H7 H 0.0951 0.2749 0.1300
C13 C 0.0941(3) 0.32447(11) -0.0525(2)
H8 H -0.0163 0.3031 -0.0877
C14 C 0.1899(3) 0.37384(11) -0.13142(18)
H9 H 0.1411 0.3857 -0.2184
C15 C 0.3539(3) 0.40508(10) -0.08381(16)
H10 H 0.4157 0.4382 -0.1376
C16 C 0.4302(2) 0.38681(8) 0.04864(14)
N1 N 0.59835(19) 0.41593(7) 0.09355(13)
N2 N 0.39551(17) 0.32126(6) 0.25963(12)
N3 N 0.73448(18) 0.27969(6) 0.47700(13)
H11 H 0.7749 0.2499 0.4177
N4 N 0.9444(2) 0.46826(7) 0.16548(16)
H12 H 0.9000 0.4797 0.0851
loop_
_geom_bond_atom_site_label_1
_geom_bond_atom_site_label_2
_geom_bond_site_symmetry_1
_geom_bond_site_symmetry_2
C1 C2 1_555 1_555
C2 H1 1_555 1_555
C3 C2 1_555 1_555
H2 C3 1_555 1_555
C4 C3 1_555 1_555
H3 C4 1_555 1_555
C5 C1 1_555 1_555
C6 C5 1_555 1_555
C7 C6 1_555 1_555
C8 C7 1_555 1_555
H4 C8 1_555 1_555
C9 C8 1_555 1_555
H5 C9 1_555 1_555
C10 C9 1_555 1_555
H6 C10 1_555 1_555
C11 C12 1_555 1_555
C12 H7 1_555 1_555
C13 C12 1_555 1_555
H8 C13 1_555 1_555
C14 C13 1_555 1_555
H9 C14 1_555 1_555
C15 C14 1_555 1_555
H10 C15 1_555 1_555
C16 C11 1_555 1_555
N1 C5 1_555 1_555
N2 C6 1_555 1_555
N3 C7 1_555 1_555
H11 N3 1_555 1_555
N4 C1 1_555 1_555
H12 N4 1_555 1_555
C4 N4 1_555 1_555
C10 N3 1_555 1_555
C11 N2 1_555 1_555
C15 C16 1_555 1_555
C16 N1 1_555 1_555

#END
