
#######################################################################
#
#                 Cambridge Crystallographic Data Centre
#                                CCDC 
#
#######################################################################
#
# If this CIF has been generated from an entry in the Cambridge 
# Structural Database, then it will include bibliographic, chemical, 
# crystal, experimental, refinement or atomic coordinate data resulting 
# from the CCDC's data processing and validation procedures.
#
#######################################################################

data_AWIZUD
_chemical_name_common            HOFTPE3N
_chemical_formula_moiety         'C26 H17 N3 O6'
_chemical_name_systematic        
1-(1,2-bis(4-nitrophenyl)-2-phenylvinyl)-4-nitrobenzene
_symmetry_cell_setting           monoclinic
_symmetry_space_group_name_H-M   'P 21/n'
_symmetry_Int_Tables_number      14
_space_group_name_Hall           '-P 2yn'
loop_
_symmetry_equiv_pos_site_id
_symmetry_equiv_pos_as_xyz
1 x,y,z
2 1/2-x,1/2+y,1/2-z
3 -x,-y,-z
4 1/2+x,1/2-y,1/2+z
_cell_length_a                   14.7815(5)
_cell_length_b                   9.0701(3)
_cell_length_c                   21.2106(8)
_cell_angle_alpha                90
_cell_angle_beta                 106.718(4)
_cell_angle_gamma                90
_cell_volume                     2723.5
_exptl_crystal_colour            yellow
_exptl_crystal_description       block
_cell_formula_units_Z            4
loop_
_atom_site_label
_atom_site_type_symbol
_atom_site_fract_x
_atom_site_fract_y
_atom_site_fract_z
C1 C 0.24206(10) 0.90385(17) 0.26068(8)
O1 O -0.22184(18) 1.0284(3) 0.04284(13)
C2 C 0.26769(11) 0.86061(19) 0.38094(8)
C3 C 0.33101(11) 0.96924(19) 0.27234(9)
H1 H 0.3609 1.0113 0.3142
C4 C 0.19819(11) 0.89199(18) 0.31565(8)
O2 O -0.13738(18) 0.8379(3) 0.51263(14)
C5 C 0.28283(13) 0.9619(2) 0.43204(9)
H2 H 0.2454 1.0487 0.4271
C6 C 0.20043(12) 0.84287(19) 0.19886(8)
H3 H 0.1397 0.7987 0.1897
C7 C 0.03659(11) 0.9611(2) 0.24711(9)
C8 C -0.04240(13) 0.8765(2) 0.21550(11)
H4 H -0.0529 0.7848 0.2338
C9 C 0.10480(11) 0.90632(19) 0.30920(9)
O3 O 0.49571(17) 0.8746(3) 0.60052(10)
C10 C 0.35322(16) 0.9354(3) 0.49059(9)
H5 H 0.3653 1.0046 0.5256
C11 C 0.08815(15) 0.7459(2) 0.40202(10)
H6 H 0.1364 0.6836 0.3956
C12 C 0.04834(12) 1.0974(2) 0.22079(10)
H7 H 0.1009 1.1569 0.2426
C13 C 0.32190(13) 0.7327(2) 0.38948(9)
H8 H 0.3119 0.6640 0.3543
C14 C 0.06212(12) 0.8702(2) 0.36284(9)
C15 C -0.01068(15) 0.9578(3) 0.37211(13)
H9 H -0.0312 1.0420 0.3451
C16 C 0.24654(16) 0.8460(2) 0.15073(9)
H10 H 0.2173 0.8035 0.1089
C17 C 0.37600(14) 0.9731(2) 0.22325(11)
H11 H 0.4359 1.0196 0.2313
O4 O -0.13946(18) 1.2230(3) 0.04546(14)
O5 O 0.52339(18) 0.6620(3) 0.56390(10)
C18 C 0.40484(14) 0.8076(3) 0.49685(9)
C19 C 0.33393(16) 0.9096(2) 0.16271(10)
H12 H 0.3655 0.9101 0.1295
C20 C 0.04560(19) 0.7103(3) 0.45017(12)
H13 H 0.0647 0.6257 0.4771
C21 C -0.01506(14) 1.1481(2) 0.16345(12)
H14 H -0.0071 1.2419 0.1459
N1 N 0.48096(17) 0.7795(3) 0.55816(10)
N2 N -0.15579(17) 1.1075(3) 0.06918(14)
C22 C 0.38948(15) 0.7037(3) 0.44764(10)
H15 H 0.4247 0.6145 0.4538
O6 O -0.0395(3) 0.6604(3) 0.54591(16)
C23 C -0.10536(15) 0.9254(3) 0.15775(13)
H16 H -0.1585 0.8672 0.1359
C24 C -0.09026(15) 1.0586(3) 0.13248(12)
C25 C -0.02496(18) 0.8006(3) 0.45804(13)
N3 N -0.0711(2) 0.7623(4) 0.50931(16)
C26 C -0.05333(16) 0.9225(3) 0.42071(14)
H17 H -0.1019 0.9833 0.4276
loop_
_geom_bond_atom_site_label_1
_geom_bond_atom_site_label_2
_geom_bond_site_symmetry_1
_geom_bond_site_symmetry_2
C1 C3 1_555 1_555
O1 N2 1_555 1_555
C2 C4 1_555 1_555
C3 H1 1_555 1_555
C4 C1 1_555 1_555
O2 N3 1_555 1_555
C5 C2 1_555 1_555
H2 C5 1_555 1_555
C6 C1 1_555 1_555
H3 C6 1_555 1_555
C7 C8 1_555 1_555
C8 H4 1_555 1_555
C9 C4 1_555 1_555
O3 N1 1_555 1_555
C10 C5 1_555 1_555
H5 C10 1_555 1_555
C11 H6 1_555 1_555
C12 C7 1_555 1_555
H7 C12 1_555 1_555
C13 C2 1_555 1_555
H8 C13 1_555 1_555
C14 C9 1_555 1_555
C15 C14 1_555 1_555
H9 C15 1_555 1_555
C16 C6 1_555 1_555
H10 C16 1_555 1_555
C17 C3 1_555 1_555
H11 C17 1_555 1_555
O4 N2 1_555 1_555
O5 N1 1_555 1_555
C18 C10 1_555 1_555
C19 C16 1_555 1_555
H12 C19 1_555 1_555
C20 C11 1_555 1_555
H13 C20 1_555 1_555
C21 C12 1_555 1_555
H14 C21 1_555 1_555
N1 C18 1_555 1_555
N2 C24 1_555 1_555
C22 C13 1_555 1_555
H15 C22 1_555 1_555
O6 N3 1_555 1_555
C23 C8 1_555 1_555
H16 C23 1_555 1_555
C24 C21 1_555 1_555
C25 C20 1_555 1_555
N3 C25 1_555 1_555
C26 C15 1_555 1_555
H17 C26 1_555 1_555
C7 C9 1_555 1_555
C11 C14 1_555 1_555
C17 C19 1_555 1_555
C18 C22 1_555 1_555
C23 C24 1_555 1_555
C25 C26 1_555 1_555

#END
