
#######################################################################
#
#                 Cambridge Crystallographic Data Centre
#                                CCDC 
#
#######################################################################
#
# If this CIF has been generated from an entry in the Cambridge 
# Structural Database, then it will include bibliographic, chemical, 
# crystal, experimental, refinement or atomic coordinate data resulting 
# from the CCDC's data processing and validation procedures.
#
#######################################################################

data_AWOGIE
_chemical_formula_moiety         'C23 H15 B1 F2 O3'
_chemical_name_systematic        
difluoro(1-(2-furyl)-3-(4-(2-naphthyl)phenyl)-3-oxoprop-1-en-1-olate)boron
_symmetry_cell_setting           monoclinic
_symmetry_space_group_name_H-M   'P 21/c'
_symmetry_Int_Tables_number      14
_space_group_name_Hall           '-P 2ybc'
loop_
_symmetry_equiv_pos_site_id
_symmetry_equiv_pos_as_xyz
1 x,y,z
2 -x,1/2+y,1/2-z
3 -x,-y,-z
4 x,1/2-y,1/2+z
_cell_length_a                   16.880
_cell_length_b                   9.056
_cell_length_c                   11.782
_cell_angle_alpha                90
_cell_angle_beta                 97.50
_cell_angle_gamma                90
_cell_volume                     1785.65
_exptl_crystal_colour            yellow
_exptl_crystal_description       block
_cell_formula_units_Z            4
_chemical_properties_physical    ', Light-sensitive,Photo-sensitive'
_exptl_crystal_recrystallization_method 'Solvent diffusion'
_exptl_crystal_preparation       ', Luminescent'
loop_
_atom_site_label
_atom_site_type_symbol
_atom_site_fract_x
_atom_site_fract_y
_atom_site_fract_z
O1 O 0.37967(10) 0.31620(18) 0.33440(14)
O2 O 0.40561(10) 0.67260(17) 0.45783(15)
O3 O 0.25237(9) 0.21073(17) 0.37116(14)
F1 F 0.37186(9) 0.08596(15) 0.42097(14)
C1 C -0.07953(15) 0.4096(3) 0.69777(19)
H1 H -0.0474 0.4926 0.7127
F2 F 0.32409(9) 0.11367(17) 0.23340(14)
C2 C 0.29728(14) 0.4356(3) 0.45303(19)
H2 H 0.2905 0.5129 0.5028
C3 C 0.24095(14) 0.3257(2) 0.43478(19)
C4 C -0.19885(14) 0.2701(2) 0.7276(2)
C5 C 0.16410(14) 0.3280(2) 0.4805(2)
C6 C 0.08043(14) 0.4102(2) 0.6187(2)
H3 H 0.0735 0.4697 0.6810
C7 C -0.05676(14) 0.3030(3) 0.6266(2)
C8 C 0.01825(14) 0.3168(2) 0.5732(2)
C9 C -0.27050(15) 0.2571(3) 0.7799(2)
H4 H -0.3023 0.1734 0.7668
C10 C 0.36440(14) 0.4304(2) 0.3965(2)
C11 C -0.15109(15) 0.3976(2) 0.7500(2)
C12 C 0.15179(14) 0.4162(2) 0.5734(2)
H5 H 0.1920 0.4798 0.6052
C13 C 0.48719(15) 0.5691(3) 0.3453(2)
H6 H 0.5096 0.5019 0.2989
C14 C -0.17573(16) 0.5099(3) 0.8200(2)
H7 H -0.1449 0.5947 0.8340
C15 C 0.42002(14) 0.5490(3) 0.3962(2)
C16 C 0.02984(14) 0.2339(3) 0.4765(2)
H8 H -0.0115 0.1750 0.4417
C17 C -0.10667(16) 0.1770(3) 0.6046(2)
H9 H -0.0925 0.1040 0.5555
C18 C -0.17512(16) 0.1609(3) 0.6539(2)
H10 H -0.2064 0.0769 0.6386
C19 C -0.29218(16) 0.3666(3) 0.8486(2)
H11 H -0.3384 0.3566 0.8831
C20 C 0.10132(15) 0.2376(3) 0.4317(2)
H12 H 0.1079 0.1796 0.3685
C21 C -0.24549(15) 0.4944(3) 0.8678(2)
H13 H -0.2618 0.5695 0.9134
C22 C 0.51630(16) 0.7115(3) 0.3765(2)
H14 H 0.5616 0.7564 0.3551
C23 C 0.46539(16) 0.7692(3) 0.4433(2)
H15 H 0.4703 0.8631 0.4754
B1 B 0.33268(18) 0.1781(3) 0.3391(3)
loop_
_geom_bond_atom_site_label_1
_geom_bond_atom_site_label_2
_geom_bond_site_symmetry_1
_geom_bond_site_symmetry_2
O1 C10 1_555 1_555
O2 C15 1_555 1_555
O3 C3 1_555 1_555
F1 B1 1_555 1_555
C1 H1 1_555 1_555
F2 B1 1_555 1_555
C2 H2 1_555 1_555
C3 C2 1_555 1_555
C4 C9 1_555 1_555
C5 C3 1_555 1_555
C6 H3 1_555 1_555
C7 C1 1_555 1_555
C8 C6 1_555 1_555
C9 H4 1_555 1_555
C10 C2 1_555 1_555
C11 C1 1_555 1_555
C12 C5 1_555 1_555
H5 C12 1_555 1_555
C13 H6 1_555 1_555
C14 C11 1_555 1_555
H7 C14 1_555 1_555
C15 C10 1_555 1_555
C16 C8 1_555 1_555
H8 C16 1_555 1_555
C17 C7 1_555 1_555
H9 C17 1_555 1_555
C18 C4 1_555 1_555
H10 C18 1_555 1_555
C19 C9 1_555 1_555
H11 C19 1_555 1_555
C20 C5 1_555 1_555
H12 C20 1_555 1_555
C21 C14 1_555 1_555
H13 C21 1_555 1_555
C22 C13 1_555 1_555
H14 C22 1_555 1_555
C23 O2 1_555 1_555
H15 C23 1_555 1_555
B1 O1 1_555 1_555
O3 B1 1_555 1_555
C4 C11 1_555 1_555
C6 C12 1_555 1_555
C7 C8 1_555 1_555
C13 C15 1_555 1_555
C16 C20 1_555 1_555
C17 C18 1_555 1_555
C19 C21 1_555 1_555
C22 C23 1_555 1_555

#END
