
#######################################################################
#
#                 Cambridge Crystallographic Data Centre
#                                CCDC 
#
#######################################################################
#
# If this CIF has been generated from an entry in the Cambridge 
# Structural Database, then it will include bibliographic, chemical, 
# crystal, experimental, refinement or atomic coordinate data resulting 
# from the CCDC's data processing and validation procedures.
#
#######################################################################

data_AWONAB
_chemical_formula_moiety         'C19 H26 O8 S1'
_chemical_name_systematic        
1,2:5,6-Di-O-isopropylidene-3-O-(p-toluenesulfonyl)-\b-L-talofuranose
_symmetry_cell_setting           orthorhombic
_symmetry_space_group_name_H-M   'P 21 21 21'
_symmetry_Int_Tables_number      19
_space_group_name_Hall           'P 2ac 2ab'
loop_
_symmetry_equiv_pos_site_id
_symmetry_equiv_pos_as_xyz
1 x,y,z
2 1/2-x,-y,1/2+z
3 1/2+x,1/2-y,-z
4 -x,1/2+y,1/2-z
_cell_length_a                   8.7562(15)
_cell_length_b                   11.2482(16)
_cell_length_c                   42.661(8)
_cell_angle_alpha                90
_cell_angle_beta                 90
_cell_angle_gamma                90
_cell_volume                     4201.75
_exptl_crystal_colour            colorless
_chemical_melting_point          143-144deg.C
_cell_formula_units_Z            8
loop_
_atom_site_label
_atom_site_type_symbol
_atom_site_fract_x
_atom_site_fract_y
_atom_site_fract_z
S1 S 0.67196(19) 0.10688(15) 0.01326(3)
C1 C 0.34482(75) -0.24156(54) 0.01077(14)
C2 C 0.45821(69) -0.16061(53) 0.02677(13)
C3 C 0.46842(65) -0.05741(53) 0.00441(13)
C4 C 0.30467(72) -0.04775(53) -0.00815(14)
C5 C 0.28631(75) 0.01207(57) -0.03948(16)
C6 C 0.12083(84) 0.01000(71) -0.05197(20)
C7 C 0.11054(98) -0.14088(76) 0.06447(19)
C8 C 0.29578(93) -0.28244(74) 0.08963(16)
C9 C 0.25891(82) -0.20862(63) 0.06117(16)
C10 C 0.2780(14) -0.17590(99) -0.10415(23)
C11 C 0.3202(17) 0.0422(13) -0.11217(27)
C12 C 0.27651(99) -0.05286(79) -0.09115(18)
C13 C 0.65774(72) 0.16019(55) -0.02525(14)
C14 C 0.57745(80) 0.26217(62) -0.03089(17)
C15 C 0.56151(91) 0.30068(67) -0.06109(22)
C16 C 0.62730(94) 0.23994(77) -0.08602(18)
C17 C 0.70750(95) 0.13767(74) -0.07957(17)
C18 C 0.72352(74) 0.09579(61) -0.04949(16)
C19 C 0.6070(12) 0.28479(98) -0.11904(20)
O1 O 0.25239(55) -0.28717(40) 0.03468(10)
O2 O 0.37964(54) -0.12601(40) 0.05456(9)
O3 O 0.50787(48) 0.05313(36) 0.01966(8)
O4 O 0.25770(53) -0.16902(39) -0.01022(10)
O5 O 0.36852(50) -0.04856(43) -0.06333(10)
O6 O 0.12737(74) -0.03693(78) -0.08099(18)
O7 O 0.78412(50) 0.01521(41) 0.01497(10)
O8 O 0.67988(62) 0.20572(41) 0.03407(10)
H1 H 0.40107 -0.30644 -0.00034
H2 H 0.55988 -0.19819 0.03075
H3 H 0.53921 -0.07579 -0.01334
H4 H 0.24120 -0.00466 0.00768
H5 H 0.32207 0.09622 -0.03766
H6 H 0.07448 0.09108 -0.05059
H7 H 0.05459 -0.03391 -0.03678
H8 H 0.11151 -0.08644 0.08300
H9 H 0.08920 -0.09253 0.04530
H10 H 0.02193 -0.19610 0.06706
H11 H 0.30139 -0.23189 0.10888
H12 H 0.21964 -0.34661 0.09398
H13 H 0.39854 -0.32055 0.08771
H14 H 0.21195 -0.18606 -0.12309
H15 H 0.38314 -0.20639 -0.10850
H16 H 0.23423 -0.23140 -0.08819
H17 H 0.42733 0.03497 -0.12004
H18 H 0.25109 0.05093 -0.13070
H19 H 0.31611 0.12122 -0.10146
H20 H 0.53292 0.30818 -0.01303
H21 H 0.50185 0.37518 -0.06478
H22 H 0.75152 0.09411 -0.09790
H23 H 0.78072 0.02097 -0.04476
H24 H 0.66154 0.23570 -0.13506
H25 H 0.49756 0.29395 -0.12532
H26 H 0.64830 0.36721 -0.12135
S2 S 0.47944(20) 0.22044(18) 0.79460(4)
C20 C -0.01855(77) 0.36403(69) 0.82056(16)
C21 C 0.13490(74) 0.30011(60) 0.82533(14)
C22 C 0.21936(65) 0.32754(60) 0.79501(14)
C23 C 0.15549(70) 0.44687(62) 0.78567(13)
C24 C 0.17742(76) 0.48051(66) 0.75131(15)
C25 C 0.07984(95) 0.58629(75) 0.74059(17)
C26 C 0.1418(12) 0.53059(94) 0.88155(22)
C27 C 0.0269(11) 0.3322(10) 0.89353(17)
C28 C 0.08463(85) 0.41587(75) 0.86853(16)
C29 C -0.0720(13) 0.3546(12) 0.69540(24)
C30 C 0.1757(13) 0.4559(11) 0.67995(18)
C31 C 0.05676(95) 0.43433(86) 0.70479(17)
C32 C 0.46050(73) 0.18510(60) 0.75451(14)
C33 C 0.36470(81) 0.09385(62) 0.74553(17)
C34 C 0.35224(87) 0.06591(68) 0.71385(17)
C35 C 0.43519(84) 0.12669(76) 0.69204(16)
C36 C 0.52718(98) 0.21932(74) 0.70134(16)
C37 C 0.54183(81) 0.24947(67) 0.73271(16)
C38 C 0.4242(12) 0.09204(89) 0.65795(17)
O9 O -0.03529(55) 0.43752(52) 0.84675(10)
O10 O 0.20456(48) 0.36335(42) 0.85026(9)
O11 O 0.38254(44) 0.33850(40) 0.79828(9)
O12 O -0.00361(50) 0.43374(45) 0.79289(10)
O13 O 0.13039(59) 0.38545(46) 0.73173(10)
O14 O -0.00518(77) 0.54407(64) 0.71510(14)
O15 O 0.63227(51) 0.25989(52) 0.80058(10)
O16 O 0.41273(61) 0.12823(48) 0.81234(10)
H27 H -0.10395 0.30550 0.81854
H28 H 0.12336 0.21271 0.82892
H29 H 0.19129 0.26995 0.77811
H30 H 0.20343 0.51059 0.79873
H31 H 0.28749 0.50034 0.74789
H32 H 0.14607 0.65496 0.73453
H33 H 0.01620 0.61762 0.75822
H34 H 0.23062 0.51995 0.89601
H35 H 0.18966 0.57911 0.86455
H36 H 0.06550 0.58256 0.89235
H37 H 0.10810 0.30917 0.90885
H38 H -0.06523 0.35842 0.90554
H39 H 0.00219 0.25340 0.88394
H40 H -0.12641 0.38303 0.67620
H41 H -0.03648 0.27236 0.69031
H42 H -0.14981 0.34438 0.71234
H43 H 0.13626 0.48714 0.65955
H44 H 0.25919 0.50958 0.68739
H45 H 0.23277 0.38143 0.67475
H46 H 0.30701 0.04873 0.76189
H47 H 0.28014 0.00029 0.70827
H48 H 0.58760 0.26522 0.68556
H49 H 0.60860 0.31526 0.74050
H50 H 0.48881 0.14452 0.64447
H51 H 0.46013 0.00886 0.65421
H52 H 0.31823 0.09711 0.64929
loop_
_geom_bond_atom_site_label_1
_geom_bond_atom_site_label_2
_geom_bond_site_symmetry_1
_geom_bond_site_symmetry_2
S1 C13 1_555 1_555
C1 C2 1_555 1_555
C2 C3 1_555 1_555
C3 C4 1_555 1_555
C4 C5 1_555 1_555
C5 C6 1_555 1_555
C6 O6 1_555 1_555
C7 C9 1_555 1_555
C8 C9 1_555 1_555
C9 O1 1_555 1_555
C10 C12 1_555 1_555
C11 C12 1_555 1_555
C12 O5 1_555 1_555
C13 C14 1_555 1_555
C14 C15 1_555 1_555
C15 C16 1_555 1_555
C16 C17 1_555 1_555
C17 C18 1_555 1_555
C18 C13 1_555 1_555
C19 C16 1_555 1_555
O1 C1 1_555 1_555
O2 C2 1_555 1_555
O3 S1 1_555 1_555
O4 C1 1_555 1_555
O5 C5 1_555 1_555
O6 C12 1_555 1_555
O7 S1 1_555 1_555
O8 S1 1_555 1_555
H1 C1 1_555 1_555
H2 C2 1_555 1_555
H3 C3 1_555 1_555
H4 C4 1_555 1_555
H5 C5 1_555 1_555
H6 C6 1_555 1_555
H7 C6 1_555 1_555
H8 C7 1_555 1_555
H9 C7 1_555 1_555
H10 C7 1_555 1_555
H11 C8 1_555 1_555
H12 C8 1_555 1_555
H13 C8 1_555 1_555
H14 C10 1_555 1_555
H15 C10 1_555 1_555
H16 C10 1_555 1_555
H17 C11 1_555 1_555
H18 C11 1_555 1_555
H19 C11 1_555 1_555
H20 C14 1_555 1_555
H21 C15 1_555 1_555
H22 C17 1_555 1_555
H23 C18 1_555 1_555
H24 C19 1_555 1_555
H25 C19 1_555 1_555
H26 C19 1_555 1_555
S2 C32 1_555 1_555
C20 C21 1_555 1_555
C21 C22 1_555 1_555
C22 C23 1_555 1_555
C23 C24 1_555 1_555
C24 C25 1_555 1_555
C25 O14 1_555 1_555
C26 C28 1_555 1_555
C27 C28 1_555 1_555
C28 O9 1_555 1_555
C29 C31 1_555 1_555
C30 C31 1_555 1_555
C31 O13 1_555 1_555
C32 C33 1_555 1_555
C33 C34 1_555 1_555
C34 C35 1_555 1_555
C35 C36 1_555 1_555
C36 C37 1_555 1_555
C37 C32 1_555 1_555
C38 C35 1_555 1_555
O9 C20 1_555 1_555
O10 C21 1_555 1_555
O11 S2 1_555 1_555
O12 C20 1_555 1_555
O13 C24 1_555 1_555
O14 C31 1_555 1_555
O15 S2 1_555 1_555
O16 S2 1_555 1_555
H27 C20 1_555 1_555
H28 C21 1_555 1_555
H29 C22 1_555 1_555
H30 C23 1_555 1_555
H31 C24 1_555 1_555
H32 C25 1_555 1_555
H33 C25 1_555 1_555
H34 C26 1_555 1_555
H35 C26 1_555 1_555
H36 C26 1_555 1_555
H37 C27 1_555 1_555
H38 C27 1_555 1_555
H39 C27 1_555 1_555
H40 C29 1_555 1_555
H41 C29 1_555 1_555
H42 C29 1_555 1_555
H43 C30 1_555 1_555
H44 C30 1_555 1_555
H45 C30 1_555 1_555
H46 C33 1_555 1_555
H47 C34 1_555 1_555
H48 C36 1_555 1_555
H49 C37 1_555 1_555
H50 C38 1_555 1_555
H51 C38 1_555 1_555
H52 C38 1_555 1_555
C3 O3 1_555 1_555
C4 O4 1_555 1_555
C9 O2 1_555 1_555
C22 O11 1_555 1_555
C23 O12 1_555 1_555
C28 O10 1_555 1_555

#END
