
#######################################################################
#
#                 Cambridge Crystallographic Data Centre
#                                CCDC 
#
#######################################################################
#
# If this CIF has been generated from an entry in the Cambridge 
# Structural Database, then it will include bibliographic, chemical, 
# crystal, experimental, refinement or atomic coordinate data resulting 
# from the CCDC's data processing and validation procedures.
#
#######################################################################

data_AWOQUY
_chemical_formula_moiety         'C12 H15 Br1 N1 O2 1+,C8 H7 O3 1-'
_chemical_name_systematic        
'(S)-2-Amino-6-bromo-1,2,3,4-tetrahydro-2-naphthalenecarboxylic acid methyl ester (S)-mandelic acid'
_symmetry_cell_setting           orthorhombic
_symmetry_space_group_name_H-M   'P 21 21 21'
_symmetry_Int_Tables_number      19
_space_group_name_Hall           'P 2ac 2ab'
loop_
_symmetry_equiv_pos_site_id
_symmetry_equiv_pos_as_xyz
1 x,y,z
2 1/2-x,-y,1/2+z
3 1/2+x,1/2-y,-z
4 -x,1/2+y,1/2-z
_cell_length_a                   7.1075(10)
_cell_length_b                   11.5680(17)
_cell_length_c                   23.676(3)
_cell_angle_alpha                90
_cell_angle_beta                 90
_cell_angle_gamma                90
_cell_volume                     1946.63
_exptl_crystal_colour            colorless
_chemical_melting_point          138-140deg.C
_cell_formula_units_Z            4
_exptl_crystal_recrystallization_method 'diethyl ether/methanol'
loop_
_atom_site_label
_atom_site_type_symbol
_atom_site_fract_x
_atom_site_fract_y
_atom_site_fract_z
Br1 Br 0.6982(1) 0.4641(1) 0.8550(1)
C1 C 0.6920(4) 0.4017(2) 0.7807(1)
C2 C 0.8520(4) 0.3518(2) 0.7591(1)
C3 C 0.8492(3) 0.3024(2) 0.7049(1)
C4 C 0.6836(4) 0.3046(2) 0.6739(1)
C5 C 0.5256(4) 0.3590(2) 0.6962(1)
C6 C 0.5273(4) 0.4071(2) 0.7498(1)
C7 C 1.0267(4) 0.2503(2) 0.6815(1)
C8 C 1.0196(4) 0.2344(2) 0.6173(1)
C9 C 0.8351(4) 0.1778(2) 0.5980(1)
C10 C 0.6683(4) 0.2547(2) 0.6149(1)
N1 N 0.8374(3) 0.1682(2) 0.5348(1)
C11 C 0.8147(4) 0.0570(2) 0.6235(1)
O1 O 0.8160(3) -0.0254(1) 0.5842(1)
O2 O 0.7987(3) 0.0401(2) 0.6733(1)
C12 C 0.8064(5) -0.1438(2) 0.6047(1)
H1 H 0.9643 0.3506 0.7808
H2 H 0.4141 0.3633 0.6741
H3 H 0.4180 0.4427 0.7650
H4 H 1.0480 0.1742 0.6996
H5 H 1.1343 0.3008 0.6912
H6 H 1.1268 0.1856 0.6052
H7 H 1.0328 0.3107 0.5987
H8 H 0.6580 0.3191 0.5875
H9 H 0.5512 0.2086 0.6123
H10 H 0.7225 0.1444 0.5225
H11 H 0.9263 0.1160 0.5242
H12 H 0.8647 0.2384 0.5195
H13 H 0.8089 -0.1971 0.5725
H14 H 0.6895 -0.1547 0.6259
H15 H 0.9143 -0.1592 0.6293
C13 C 1.0006(4) 0.0831(2) 0.9331(1)
C14 C 0.8085(5) 0.0964(2) 0.9243(1)
C15 C 0.7402(5) 0.0996(3) 0.8689(1)
C16 C 0.8577(6) 0.0896(2) 0.8238(1)
C17 C 1.0472(5) 0.0769(2) 0.8323(1)
C18 C 1.1193(4) 0.0732(2) 0.8870(1)
C19 C 1.0823(4) 0.0797(2) 0.9922(1)
O3 O 1.2252(4) 0.1631(2) 0.9985(1)
C20 C 1.1587(4) -0.0415(2) 1.0036(1)
O4 O 1.3338(3) -0.0514(2) 1.0058(1)
O5 O 1.0427(3) -0.1237(1) 1.0078(1)
H16 H 0.7249 0.1032 0.9554
H17 H 0.6090 0.1088 0.8627
H18 H 0.8084 0.0916 0.7865
H19 H 1.1296 0.0706 0.8009
H20 H 1.2508 0.0638 0.8927
H21 H 0.9798 0.0965 1.0200
H22 H 1.3320(60) 0.1230(30) 0.9966(18)
loop_
_geom_bond_atom_site_label_1
_geom_bond_atom_site_label_2
_geom_bond_site_symmetry_1
_geom_bond_site_symmetry_2
Br1 C1 1_555 1_555
C1 C2 1_555 1_555
C2 C3 1_555 1_555
C3 C4 1_555 1_555
C4 C5 1_555 1_555
C5 C6 1_555 1_555
C6 C1 1_555 1_555
C7 C3 1_555 1_555
C8 C7 1_555 1_555
C9 C8 1_555 1_555
C10 C4 1_555 1_555
N1 C9 1_555 1_555
C11 C9 1_555 1_555
O1 C11 1_555 1_555
O2 C11 1_555 1_555
C12 O1 1_555 1_555
C13 C14 1_555 1_555
C14 C15 1_555 1_555
C15 C16 1_555 1_555
C16 C17 1_555 1_555
C17 C18 1_555 1_555
C18 C13 1_555 1_555
C19 C13 1_555 1_555
O3 C19 1_555 1_555
C20 C19 1_555 1_555
O4 C20 1_555 1_555
O5 C20 1_555 1_555
H1 C2 1_555 1_555
H2 C5 1_555 1_555
H3 C6 1_555 1_555
H4 C7 1_555 1_555
H5 C7 1_555 1_555
H6 C8 1_555 1_555
H7 C8 1_555 1_555
H8 C10 1_555 1_555
H9 C10 1_555 1_555
H10 N1 1_555 1_555
H11 N1 1_555 1_555
H12 N1 1_555 1_555
H13 C12 1_555 1_555
H14 C12 1_555 1_555
H15 C12 1_555 1_555
H16 C14 1_555 1_555
H17 C15 1_555 1_555
H18 C16 1_555 1_555
H19 C17 1_555 1_555
H20 C18 1_555 1_555
H21 C19 1_555 1_555
H22 O3 1_555 1_555
C9 C10 1_555 1_555

#END
