
#######################################################################
#
#                 Cambridge Crystallographic Data Centre
#                                CCDC 
#
#######################################################################
#
# If this CIF has been generated from an entry in the Cambridge 
# Structural Database, then it will include bibliographic, chemical, 
# crystal, experimental, refinement or atomic coordinate data resulting 
# from the CCDC's data processing and validation procedures.
#
#######################################################################

data_AWOYES
_chemical_formula_moiety         'C30 H37 B1 N2'
_chemical_name_systematic        
8,10-dihexyl-8H,10H-benzo[3,4][2,1]benzazaborinino[1,8-bc][1,2]benzazaborinine
_symmetry_cell_setting           monoclinic
_symmetry_space_group_name_H-M   'C c'
_symmetry_Int_Tables_number      9
_space_group_name_Hall           'C -2yc'
loop_
_symmetry_equiv_pos_site_id
_symmetry_equiv_pos_as_xyz
1 x,y,z
2 x,-y,1/2+z
3 1/2+x,1/2+y,z
4 1/2+x,1/2-y,1/2+z
_cell_length_a                   23.6678(15)
_cell_length_b                   21.4340(13)
_cell_length_c                   9.9370(6)
_cell_angle_alpha                90
_cell_angle_beta                 96.896(2)
_cell_angle_gamma                90
_cell_volume                     5004.53
_exptl_crystal_colour            colorless
_exptl_crystal_description       needle
_cell_formula_units_Z            8
loop_
_atom_site_label
_atom_site_type_symbol
_atom_site_fract_x
_atom_site_fract_y
_atom_site_fract_z
C1 C 0.32640(17) 0.04510(16) 0.7279(4)
H1 H 0.3259 0.0041 0.6888
H2 H 0.3159 0.0426 0.8181
H3 H 0.3640 0.0624 0.7311
C2 C 0.28456(15) 0.08651(15) 0.6421(3)
H4 H 0.2426(8) 0.0673(4) 0.6397(3)
H5 H 0.28439(15) 0.1318(9) 0.6878(9)
C3 C 0.29909(14) 0.09303(15) 0.4982(3)
H6 H 0.3392(8) 0.1119(4) 0.5012(3)
H7 H 0.30009(14) 0.0493(8) 0.4557(9)
C4 C 0.25762(14) 0.13333(15) 0.4083(3)
H8 H 0.25506(16) 0.1752(9) 0.4513(9)
H9 H 0.2190(8) 0.1138(4) 0.4006(3)
C5 C 0.27528(14) 0.14153(15) 0.2674(3)
H10 H 0.3149(8) 0.1553(3) 0.2760(3)
H11 H 0.27317(14) 0.1011(8) 0.2217(9)
C6 C 0.23913(13) 0.18792(15) 0.1801(3)
H12 H 0.24350(16) 0.2304(8) 0.2237(8)
H13 H 0.2535(3) 0.19068(17) 0.0887(17)
C7 C 0.16957(14) 0.31309(15) 0.1488(3)
H14 H 0.1964(5) 0.2861(5) 0.1004(9)
H15 H 0.1938(5) 0.3442(6) 0.2085(11)
C8 C 0.13044(15) 0.34868(15) 0.0440(3)
H16 H 0.1095(5) 0.3189(6) -0.0194(13)
H17 H 0.1024(6) 0.3722(5) 0.0895(9)
C9 C 0.16365(16) 0.39340(15) -0.0343(3)
H18 H 0.1978(7) 0.3697(5) -0.0669(7)
H19 H 0.1800(4) 0.4287(7) 0.0303(13)
C10 C 0.12879(17) 0.42239(16) -0.1559(3)
H20 H 0.1164(3) 0.3900(7) -0.2189(14)
H21 H 0.0955(8) 0.4409(4) -0.1268(7)
C11 C 0.15966(19) 0.47134(18) -0.2286(4)
H22 H 0.1734(4) 0.5037(8) -0.1642(16)
H23 H 0.1329(7) 0.4905(5) -0.2982(17)
C12 C 0.20940(19) 0.44600(19) -0.2937(4)
H24 H 0.2266 0.4791 -0.3393
H25 H 0.1963 0.4142 -0.3579
H26 H 0.2369 0.4286 -0.2251
C13 C 0.10371(13) 0.30207(15) 0.3239(3)
C14 C 0.06146(14) 0.26831(15) 0.3813(3)
C15 C 0.05070(13) 0.20242(15) 0.3483(3)
C16 C 0.08635(13) 0.17167(14) 0.2656(3)
C17 C 0.07730(14) 0.10882(14) 0.2281(3)
C18 C 0.11503(14) 0.07996(15) 0.1399(3)
C19 C 0.16399(14) 0.11152(14) 0.1063(3)
C20 C 0.19763(15) 0.08389(16) 0.0158(3)
H27 H 0.2303(11) 0.1058(8) -0.0084(9)
C21 C 0.18472(17) 0.02606(18) -0.0389(3)
H28 H 0.2098(9) 0.0067(7) -0.106(2)
C22 C 0.13852(18) -0.00577(18) -0.0040(4)
H29 H 0.1308(4) -0.0426(14) -0.0366(13)
C23 C 0.10445(16) 0.02072(16) 0.0827(3)
H30 H 0.0728(11) -0.0018(8) 0.1047(8)
C24 C 0.03204(16) 0.07696(17) 0.2746(4)
H31 H 0.0240(3) 0.0303(14) 0.2474(9)
C25 C -0.00195(16) 0.10752(18) 0.3566(4)
H32 H -0.0329(11) 0.0849(8) 0.3890(12)
C26 C 0.00641(15) 0.16877(17) 0.3939(3)
H33 H -0.0190(8) 0.1890(7) 0.4532(19)
C27 C 0.02998(15) 0.30045(18) 0.4697(3)
H34 H -0.0003(10) 0.2768(8) 0.5127(14)
C28 C 0.03808(16) 0.36208(19) 0.5007(3)
H35 H 0.0135(8) 0.3841(7) 0.566(2)
C29 C 0.07945(16) 0.39427(18) 0.4439(3)
H36 H 0.0863(3) 0.4404(14) 0.4669(8)
C30 C 0.11197(15) 0.36483(15) 0.3560(3)
H37 H 0.1423(10) 0.3894(8) 0.3144(13)
N1 N 0.17820(11) 0.17120(12) 0.1603(2)
N2 N 0.13854(11) 0.27271(11) 0.2360(2)
B1 B 0.13612(16) 0.20670(17) 0.2186(3)
C31 C 0.2925(2) 0.4054(2) 0.4038(6)
H38 H 0.3237 0.4173 0.3559
H39 H 0.2931 0.4300 0.4847
H40 H 0.2573 0.4122 0.3470
C32 C 0.2977(2) 0.3403(2) 0.4396(6)
H41 H 0.3004(2) 0.3133(8) 0.348(2)
H42 H 0.2595(10) 0.3258(5) 0.4814(12)
C33 C 0.35121(19) 0.3250(2) 0.5457(5)
H43 H 0.3855(9) 0.3417(5) 0.5125(9)
H44 H 0.3469(2) 0.3456(6) 0.632(2)
C34 C 0.35844(17) 0.25577(18) 0.5696(4)
H45 H 0.3538(2) 0.2333(5) 0.474(2)
H46 H 0.3250(7) 0.2402(4) 0.6224(11)
C35 C 0.41412(16) 0.23464(17) 0.6473(3)
H47 H 0.41252(16) 0.1863(10) 0.6620(5)
H48 H 0.41875(19) 0.2558(4) 0.7430(19)
C36 C 0.46625(15) 0.25011(17) 0.5761(3)
H49 H 0.47026(18) 0.2969(10) 0.5704(3)
H50 H 0.5015(7) 0.2334(3) 0.6319(11)
C37 C 0.51133(14) 0.35511(16) 0.3872(3)
H51 H 0.5278(3) 0.3253(5) 0.4645(15)
H52 H 0.4996(3) 0.3963(8) 0.4313(10)
C38 C 0.55775(13) 0.36928(16) 0.2956(3)
H53 H 0.5396(4) 0.3867(4) 0.2065(17)
H54 H 0.5846(5) 0.4018(7) 0.3401(8)
C39 C 0.59119(14) 0.31040(16) 0.2695(3)
H55 H 0.6097(4) 0.2940(4) 0.3578(17)
H56 H 0.5642(5) 0.2780(7) 0.2287(8)
C40 C 0.63664(15) 0.32123(16) 0.1761(3)
H57 H 0.6178(4) 0.3354(3) 0.0856(18)
H58 H 0.6625(5) 0.3555(7) 0.2145(8)
C41 C 0.67196(15) 0.26359(18) 0.1564(4)
H59 H 0.6459(6) 0.2271(8) 0.1372(6)
H60 H 0.6928(4) 0.2699(2) 0.0755(18)
C42 C 0.71436(17) 0.24885(17) 0.2775(4)
H61 H 0.6946 0.2402 0.3542
H62 H 0.7392 0.2839 0.2974
H63 H 0.7364 0.2131 0.2581
C43 C 0.42838(14) 0.36322(16) 0.2139(3)
C44 C 0.43144(17) 0.42875(17) 0.2212(4)
H64 H 0.4586(10) 0.4491(7) 0.295(3)
C45 C 0.39819(19) 0.4656(2) 0.1303(5)
H65 H 0.4015(2) 0.5133(17) 0.1366(5)
C46 C 0.3605(2) 0.4386(2) 0.0305(5)
H66 H 0.3363(10) 0.4647(11) -0.033(3)
C47 C 0.35723(16) 0.3749(2) 0.0213(4)
H67 H 0.3294(10) 0.3556(7) -0.051(3)
C48 C 0.39124(15) 0.33575(17) 0.1094(3)
C49 C 0.38921(14) 0.26786(16) 0.0924(3)
C50 C 0.41648(13) 0.23015(15) 0.1967(3)
C51 C 0.41587(13) 0.16495(15) 0.1873(3)
C52 C 0.44185(14) 0.12865(16) 0.3031(3)
C53 C 0.46198(14) 0.15784(16) 0.4266(3)
C54 C 0.48247(14) 0.12028(19) 0.5384(4)
H68 H 0.4955(4) 0.1402(7) 0.628(3)
C55 C 0.48468(16) 0.0564(2) 0.5255(5)
H69 H 0.5005(6) 0.0296(10) 0.608(3)
C56 C 0.46598(18) 0.0278(2) 0.4038(5)
H70 H 0.46761(19) -0.0199(17) 0.3944(6)
C57 C 0.44527(15) 0.06413(18) 0.2960(4)
H71 H 0.4313(5) 0.0422(7) 0.204(3)
C58 C 0.38875(15) 0.13782(18) 0.0691(3)
H72 H 0.38781(15) 0.0941(15) 0.0597(4)
C59 C 0.36352(15) 0.1750(2) -0.0331(4)
H73 H 0.3447(6) 0.1544(7) -0.120(3)
C60 C 0.36255(14) 0.23913(19) -0.0232(3)
H74 H 0.3418(6) 0.2660(8) -0.102(2)
N3 N 0.46231(11) 0.22347(13) 0.4385(2)
N4 N 0.46070(11) 0.32633(12) 0.3119(2)
B2 B 0.44801(16) 0.26105(18) 0.3215(4)
loop_
_geom_bond_atom_site_label_1
_geom_bond_atom_site_label_2
_geom_bond_site_symmetry_1
_geom_bond_site_symmetry_2
C1 H1 1_555 1_555
H2 C1 1_555 1_555
H3 C1 1_555 1_555
C2 C1 1_555 1_555
H4 C2 1_555 1_555
H5 C2 1_555 1_555
C3 C2 1_555 1_555
H6 C3 1_555 1_555
H7 C3 1_555 1_555
C4 C3 1_555 1_555
H8 C4 1_555 1_555
H9 C4 1_555 1_555
C5 C4 1_555 1_555
H10 C5 1_555 1_555
H11 C5 1_555 1_555
C6 C5 1_555 1_555
H12 C6 1_555 1_555
H13 C6 1_555 1_555
C7 H14 1_555 1_555
H15 C7 1_555 1_555
C8 C7 1_555 1_555
H16 C8 1_555 1_555
H17 C8 1_555 1_555
C9 C8 1_555 1_555
H18 C9 1_555 1_555
H19 C9 1_555 1_555
C10 C9 1_555 1_555
H20 C10 1_555 1_555
H21 C10 1_555 1_555
C11 C10 1_555 1_555
H22 C11 1_555 1_555
H23 C11 1_555 1_555
C12 C11 1_555 1_555
H24 C12 1_555 1_555
H25 C12 1_555 1_555
H26 C12 1_555 1_555
C13 C14 1_555 1_555
C14 C15 1_555 1_555
C15 C16 1_555 1_555
C16 C17 1_555 1_555
C17 C18 1_555 1_555
C18 C19 1_555 1_555
C19 C20 1_555 1_555
C20 H27 1_555 1_555
C21 C20 1_555 1_555
H28 C21 1_555 1_555
C22 C21 1_555 1_555
H29 C22 1_555 1_555
C23 C18 1_555 1_555
H30 C23 1_555 1_555
C24 C17 1_555 1_555
H31 C24 1_555 1_555
C25 C24 1_555 1_555
H32 C25 1_555 1_555
C26 C15 1_555 1_555
H33 C26 1_555 1_555
C27 C14 1_555 1_555
H34 C27 1_555 1_555
C28 C27 1_555 1_555
H35 C28 1_555 1_555
C29 C28 1_555 1_555
H36 C29 1_555 1_555
C30 C13 1_555 1_555
H37 C30 1_555 1_555
N1 C6 1_555 1_555
N2 C7 1_555 1_555
B1 C16 1_555 1_555
C31 H38 1_555 1_555
H39 C31 1_555 1_555
H40 C31 1_555 1_555
C32 C31 1_555 1_555
H41 C32 1_555 1_555
H42 C32 1_555 1_555
C33 C32 1_555 1_555
H43 C33 1_555 1_555
H44 C33 1_555 1_555
C34 C33 1_555 1_555
H45 C34 1_555 1_555
H46 C34 1_555 1_555
C35 C34 1_555 1_555
H47 C35 1_555 1_555
H48 C35 1_555 1_555
C36 C35 1_555 1_555
H49 C36 1_555 1_555
H50 C36 1_555 1_555
C37 H51 1_555 1_555
H52 C37 1_555 1_555
C38 C37 1_555 1_555
H53 C38 1_555 1_555
H54 C38 1_555 1_555
C39 C38 1_555 1_555
H55 C39 1_555 1_555
H56 C39 1_555 1_555
C40 C39 1_555 1_555
H57 C40 1_555 1_555
H58 C40 1_555 1_555
C41 C40 1_555 1_555
H59 C41 1_555 1_555
H60 C41 1_555 1_555
C42 C41 1_555 1_555
H61 C42 1_555 1_555
H62 C42 1_555 1_555
H63 C42 1_555 1_555
C43 C44 1_555 1_555
C44 H64 1_555 1_555
C45 C44 1_555 1_555
H65 C45 1_555 1_555
C46 C45 1_555 1_555
H66 C46 1_555 1_555
C47 C46 1_555 1_555
H67 C47 1_555 1_555
C48 C43 1_555 1_555
C49 C48 1_555 1_555
C50 C49 1_555 1_555
C51 C50 1_555 1_555
C52 C51 1_555 1_555
C53 C52 1_555 1_555
C54 C53 1_555 1_555
H68 C54 1_555 1_555
C55 C54 1_555 1_555
H69 C55 1_555 1_555
C56 C55 1_555 1_555
H70 C56 1_555 1_555
C57 C52 1_555 1_555
H71 C57 1_555 1_555
C58 C51 1_555 1_555
H72 C58 1_555 1_555
C59 C58 1_555 1_555
H73 C59 1_555 1_555
C60 C49 1_555 1_555
H74 C60 1_555 1_555
N3 C36 1_555 1_555
N4 C37 1_555 1_555
B2 C50 1_555 1_555
C13 N2 1_555 1_555
C19 N1 1_555 1_555
C22 C23 1_555 1_555
C25 C26 1_555 1_555
C29 C30 1_555 1_555
N1 B1 1_555 1_555
N2 B1 1_555 1_555
C43 N4 1_555 1_555
C47 C48 1_555 1_555
C53 N3 1_555 1_555
C56 C57 1_555 1_555
C59 C60 1_555 1_555
N3 B2 1_555 1_555
N4 B2 1_555 1_555

#END
