
#######################################################################
#
#                 Cambridge Crystallographic Data Centre
#                                CCDC 
#
#######################################################################
#
# If this CIF has been generated from an entry in the Cambridge 
# Structural Database, then it will include bibliographic, chemical, 
# crystal, experimental, refinement or atomic coordinate data resulting 
# from the CCDC's data processing and validation procedures.
#
#######################################################################

data_AWUFEF
_chemical_formula_moiety         'C22 H18 N2 O4 S2'
_chemical_name_systematic        
'2-(((4-methoxyphenyl)sulfonyl)(phenyl)amino)-2-oxo-1-phenylethyl thiocyanate'
_symmetry_cell_setting           monoclinic
_symmetry_space_group_name_H-M   'P 21/c'
_symmetry_Int_Tables_number      14
_space_group_name_Hall           '-P 2ybc'
loop_
_symmetry_equiv_pos_site_id
_symmetry_equiv_pos_as_xyz
1 x,y,z
2 -x,1/2+y,1/2-z
3 -x,-y,-z
4 x,1/2-y,1/2+z
_cell_length_a                   17.653(4)
_cell_length_b                   12.700(3)
_cell_length_c                   9.4888(19)
_cell_angle_alpha                90
_cell_angle_beta                 93.31(3)
_cell_angle_gamma                90
_cell_volume                     2123.77
_exptl_crystal_colour            colorless
_exptl_crystal_description       block
_cell_formula_units_Z            4
loop_
_atom_site_label
_atom_site_type_symbol
_atom_site_fract_x
_atom_site_fract_y
_atom_site_fract_z
S1 S 0.68700(10) 0.40136(17) 0.0710(2)
O1 O 0.6842(3) 0.6136(4) 0.1764(6)
N1 N 0.7560(3) 0.4647(5) 0.1673(6)
S2 S 0.77101(11) 0.75648(15) 0.3166(2)
O2 O 0.6636(3) 0.4643(5) -0.0475(5)
C1 C 0.7421(4) 0.5674(6) 0.2095(8)
N2 N 0.8844(4) 0.8267(5) 0.5174(9)
C2 C 0.8015(4) 0.6168(5) 0.3122(8)
H1 H 0.8515 0.6123 0.2730
O3 O 0.7196(3) 0.2999(4) 0.0495(6)
O4 O 0.4359(3) 0.3666(4) 0.4456(6)
C3 C 0.8044(4) 0.5656(5) 0.4567(7)
C4 C 0.7385(4) 0.5344(6) 0.5184(8)
H2 H 0.6917 0.5494 0.4728
C5 C 0.7408(5) 0.4818(7) 0.6456(8)
H3 H 0.6960 0.4616 0.6849
C6 C 0.8098(5) 0.4593(6) 0.7139(8)
H4 H 0.8120 0.4222 0.7986
C7 C 0.8762(5) 0.4925(6) 0.6556(9)
H5 H 0.9227 0.4791 0.7032
C8 C 0.8742(4) 0.5448(6) 0.5282(8)
H6 H 0.9190 0.5662 0.4901
C9 C 0.8250(4) 0.4097(5) 0.2101(7)
C10 C 0.8275(5) 0.3417(6) 0.3239(8)
H7 H 0.7850 0.3303 0.3755
C11 C 0.8941(6) 0.2922(7) 0.3576(12)
H8 H 0.8967 0.2462 0.4340
C12 C 0.9586(6) 0.3071(8) 0.2830(16)
H9 H 1.0031 0.2706 0.3072
C13 C 0.9551(4) 0.3756(8) 0.1753(14)
H10 H 0.9989 0.3885 0.1280
C14 C 0.8889(4) 0.4279(6) 0.1315(9)
H11 H 0.8869 0.4728 0.0540
C15 C 0.6128(3) 0.3920(6) 0.1817(8)
C16 C 0.5526(4) 0.4613(6) 0.1748(8)
H12 H 0.5514 0.5164 0.1101
C17 C 0.4946(4) 0.4491(6) 0.2627(8)
H13 H 0.4536 0.4950 0.2549
C18 C 0.4955(4) 0.3698(6) 0.3635(9)
C19 C 0.5555(4) 0.3018(6) 0.3717(9)
H14 H 0.5575 0.2487 0.4394
C20 C 0.6139(4) 0.3111(6) 0.2798(10)
H15 H 0.6536 0.2630 0.2843
C21 C 0.4326(4) 0.2828(7) 0.5430(11)
H16 H 0.3878 0.2898 0.5951
H17 H 0.4767 0.2847 0.6071
H18 H 0.4311 0.2170 0.4931
C22 C 0.8392(4) 0.7972(6) 0.4353(9)
loop_
_geom_bond_atom_site_label_1
_geom_bond_atom_site_label_2
_geom_bond_site_symmetry_1
_geom_bond_site_symmetry_2
S1 N1 1_555 1_555
O1 C1 1_555 1_555
N1 C1 1_555 1_555
S2 C2 1_555 1_555
O2 S1 1_555 1_555
C1 C2 1_555 1_555
N2 C22 1_555 1_555
C2 H1 1_555 1_555
O3 S1 1_555 1_555
O4 C18 1_555 1_555
C3 C2 1_555 1_555
C4 C3 1_555 1_555
H2 C4 1_555 1_555
C5 C4 1_555 1_555
H3 C5 1_555 1_555
C6 C5 1_555 1_555
H4 C6 1_555 1_555
C7 C6 1_555 1_555
H5 C7 1_555 1_555
C8 C3 1_555 1_555
H6 C8 1_555 1_555
C9 N1 1_555 1_555
C10 C9 1_555 1_555
H7 C10 1_555 1_555
C11 C10 1_555 1_555
H8 C11 1_555 1_555
C12 C11 1_555 1_555
H9 C12 1_555 1_555
C13 C12 1_555 1_555
H10 C13 1_555 1_555
C14 C9 1_555 1_555
H11 C14 1_555 1_555
C15 S1 1_555 1_555
C16 C15 1_555 1_555
H12 C16 1_555 1_555
C17 C16 1_555 1_555
H13 C17 1_555 1_555
C18 C17 1_555 1_555
C19 C18 1_555 1_555
H14 C19 1_555 1_555
C20 C15 1_555 1_555
H15 C20 1_555 1_555
C21 O4 1_555 1_555
H16 C21 1_555 1_555
H17 C21 1_555 1_555
H18 C21 1_555 1_555
C22 S2 1_555 1_555
C7 C8 1_555 1_555
C13 C14 1_555 1_555
C19 C20 1_555 1_555

#END
