
#######################################################################
#
#                 Cambridge Crystallographic Data Centre
#                                CCDC 
#
#######################################################################
#
# If this CIF has been generated from an entry in the Cambridge 
# Structural Database, then it will include bibliographic, chemical, 
# crystal, experimental, refinement or atomic coordinate data resulting 
# from the CCDC's data processing and validation procedures.
#
#######################################################################

data_AWUHAC
_chemical_formula_moiety         'C15 H13 Br1 N2 O2'
_chemical_name_systematic        
(E)-N'-(5-Bromo-2-hydroxybenzylidene)-3-methylbenzohydrazide
_symmetry_cell_setting           monoclinic
_symmetry_space_group_name_H-M   'P 21/n'
_symmetry_Int_Tables_number      14
_space_group_name_Hall           '-P 2yn'
loop_
_symmetry_equiv_pos_site_id
_symmetry_equiv_pos_as_xyz
1 x,y,z
2 1/2-x,1/2+y,1/2-z
3 -x,-y,-z
4 1/2+x,1/2-y,1/2+z
_cell_length_a                   7.138(3)
_cell_length_b                   27.404(10)
_cell_length_c                   7.859(3)
_cell_angle_alpha                90
_cell_angle_beta                 112.297(5)
_cell_angle_gamma                90
_cell_volume                     1422.35
_exptl_crystal_colour            colorless
_exptl_crystal_description       block
_cell_formula_units_Z            4
loop_
_atom_site_label
_atom_site_type_symbol
_atom_site_fract_x
_atom_site_fract_y
_atom_site_fract_z
Br1 Br 0.82155(9) 1.017416(16) 0.22011(7)
N1 N 0.7539(5) 0.78962(11) 0.4049(4)
N2 N 0.7822(5) 0.76007(11) 0.5550(4)
O1 O 0.6966(5) 0.80234(9) 0.0601(4)
H1 H 0.7095 0.7865 0.1525
O2 O 0.6037(4) 0.69873(9) 0.3697(3)
C1 C 0.7856(6) 0.86760(13) 0.2857(5)
C2 C 0.7363(6) 0.85015(13) 0.1057(5)
C3 C 0.7251(7) 0.88254(15) -0.0339(5)
H2 H 0.6992 0.8709 -0.1518
C4 C 0.7520(7) 0.93154(15) 0.0010(6)
H3 H 0.7406 0.9531 -0.0938
C5 C 0.7957(6) 0.94894(14) 0.1761(6)
C6 C 0.8154(6) 0.91721(13) 0.3166(5)
H4 H 0.8496 0.9293 0.4352
C7 C 0.8052(6) 0.83446(14) 0.4357(5)
H5 H 0.8558 0.8460 0.5559
C8 C 0.7035(6) 0.71426(13) 0.5232(5)
C9 C 0.7491(6) 0.68420(13) 0.6938(5)
C10 C 0.7697(6) 0.63410(14) 0.6820(5)
H6 H 0.7537 0.6202 0.5694
C11 C 0.8140(6) 0.60430(13) 0.8356(6)
C12 C 0.8309(6) 0.62636(16) 1.0002(6)
H7 H 0.8573 0.6069 1.1038
C13 C 0.8099(7) 0.67597(16) 1.0153(6)
H8 H 0.8230 0.6897 1.1275
C14 C 0.7689(6) 0.70533(14) 0.8605(5)
H9 H 0.7548 0.7389 0.8688
C15 C 0.8392(8) 0.55033(15) 0.8246(7)
H10 H 0.7782 0.5400 0.6987
H11 H 0.7747 0.5340 0.8959
H12 H 0.9808 0.5424 0.8722
H13 H 0.879(5) 0.7674(15) 0.664(3)
loop_
_geom_bond_atom_site_label_1
_geom_bond_atom_site_label_2
_geom_bond_site_symmetry_1
_geom_bond_site_symmetry_2
Br1 C5 1_555 1_555
N1 N2 1_555 1_555
N2 C8 1_555 1_555
O1 H1 1_555 1_555
O2 C8 1_555 1_555
C1 C2 1_555 1_555
C2 O1 1_555 1_555
C3 C2 1_555 1_555
H2 C3 1_555 1_555
C4 C3 1_555 1_555
H3 C4 1_555 1_555
C5 C4 1_555 1_555
C6 C1 1_555 1_555
H4 C6 1_555 1_555
C7 N1 1_555 1_555
H5 C7 1_555 1_555
C8 C9 1_555 1_555
C9 C10 1_555 1_555
C10 H6 1_555 1_555
C11 C10 1_555 1_555
C12 C11 1_555 1_555
H7 C12 1_555 1_555
C13 C12 1_555 1_555
H8 C13 1_555 1_555
C14 C9 1_555 1_555
H9 C14 1_555 1_555
C15 C11 1_555 1_555
H10 C15 1_555 1_555
H11 C15 1_555 1_555
H12 C15 1_555 1_555
H13 N2 1_555 1_555
C1 C7 1_555 1_555
C5 C6 1_555 1_555
C13 C14 1_555 1_555

#END
