
#######################################################################
#
#                 Cambridge Crystallographic Data Centre
#                                CCDC 
#
#######################################################################
#
# If this CIF has been generated from an entry in the Cambridge 
# Structural Database, then it will include bibliographic, chemical, 
# crystal, experimental, refinement or atomic coordinate data resulting 
# from the CCDC's data processing and validation procedures.
#
#######################################################################

data_AWUJOR
_chemical_formula_moiety         'C26 H14 F10 N2'
_chemical_name_systematic        
N,N'-bis(Pentafluorophenyl)-1,2-diphenyl-1,2-ethylenediamine
_symmetry_cell_setting           monoclinic
_symmetry_space_group_name_H-M   'P 2/c'
_symmetry_Int_Tables_number      13
_space_group_name_Hall           '-P 2yc'
loop_
_symmetry_equiv_pos_site_id
_symmetry_equiv_pos_as_xyz
1 x,y,z
2 -x,y,1/2-z
3 -x,-y,-z
4 x,-y,1/2+z
_cell_length_a                   17.879(4)
_cell_length_b                   8.9460(18)
_cell_length_c                   16.489(3)
_cell_angle_alpha                90
_cell_angle_beta                 116.36(3)
_cell_angle_gamma                90
_cell_volume                     2363.12
_exptl_crystal_colour            colorless
_chemical_melting_point          109-110deg.C
_cell_formula_units_Z            4
loop_
_atom_site_label
_atom_site_type_symbol
_atom_site_fract_x
_atom_site_fract_y
_atom_site_fract_z
F1 F -0.04736(17) 0.6643(3) 0.46336(16)
F2 F 0.02995(19) 0.6717(3) 0.64559(18)
F3 F 0.16112(16) 0.8572(3) 0.73315(16)
F4 F 0.21103(17) 1.0368(3) 0.63622(17)
F5 F 0.13292(16) 1.0377(3) 0.45571(16)
C1 C 0.0180(3) 0.7567(5) 0.5057(3)
C2 C 0.0571(3) 0.7587(5) 0.5979(3)
C3 C 0.1228(3) 0.8509(5) 0.6421(3)
C4 C 0.1483(3) 0.9419(5) 0.5930(3)
C5 C 0.1083(3) 0.9393(5) 0.5009(3)
C6 C 0.0420(2) 0.8464(4) 0.4538(3)
N1 N -0.0052(2) 0.8471(4) 0.3595(2)
C7 C 0.0355(2) 0.8476(5) 0.2993(2)
C8 C 0.0997(2) 0.7241(4) 0.3188(2)
C9 C 0.0883(3) 0.5838(5) 0.3443(3)
H1 H 0.0411 0.5636 0.3526
C10 C 0.1458(3) 0.4714(5) 0.3579(3)
H2 H 0.1368 0.3759 0.3740
C11 C 0.2167(3) 0.5017(6) 0.3474(3)
H3 H 0.2555 0.4264 0.3565
C12 C 0.2301(3) 0.6411(6) 0.3238(3)
H4 H 0.2782 0.6616 0.3174
C13 C 0.1719(2) 0.7522(5) 0.3095(2)
H5 H 0.1813 0.8475 0.2934
H6 H -0.041(2) 0.778(4) 0.345(3)
H7 H 0.0644(17) 0.941(3) 0.3072(18)
C7A C -0.0355(2) 0.8476(5) 0.2007(2)
N1A N 0.0052(2) 0.8471(4) 0.1405(2)
C6A C -0.0420(2) 0.8464(4) 0.0462(3)
C1A C -0.0180(3) 0.7567(5) -0.0057(3)
F1A F 0.04736(17) 0.6643(3) 0.03664(16)
C2A C -0.0571(3) 0.7587(5) -0.0979(3)
F2A F -0.02995(19) 0.6717(3) -0.14559(18)
C3A C -0.1228(3) 0.8509(5) -0.1421(3)
F3A F -0.16112(16) 0.8572(3) -0.23315(16)
C4A C -0.1483(3) 0.9419(5) -0.0930(3)
F4A F -0.21103(17) 1.0368(3) -0.13622(17)
C5A C -0.1083(3) 0.9393(5) -0.0009(3)
F5A F -0.13292(16) 1.0377(3) 0.04429(16)
H6A H 0.041(2) 0.778(4) 0.155(3)
C8A C -0.0997(2) 0.7241(4) 0.1812(2)
C9A C -0.0883(3) 0.5838(5) 0.1557(3)
H1A H -0.0411 0.5636 0.1474
C10A C -0.1458(3) 0.4714(5) 0.1421(3)
H2A H -0.1368 0.3759 0.1260
C11A C -0.2167(3) 0.5017(6) 0.1526(3)
H3A H -0.2555 0.4264 0.1435
C12A C -0.2301(3) 0.6411(6) 0.1762(3)
H4A H -0.2782 0.6616 0.1826
C13A C -0.1719(2) 0.7522(5) 0.1905(2)
H5A H -0.1813 0.8475 0.2066
H7A H -0.0644(17) 0.941(3) 0.1928(18)
F6 F 0.37730(15) 1.0513(3) 0.31920(15)
F7 F 0.29324(15) 1.0837(3) 0.41739(16)
F8 F 0.32600(15) 0.9081(3) 0.56280(16)
F9 F 0.44729(17) 0.6983(3) 0.60953(18)
F10 F 0.53181(16) 0.6609(3) 0.51090(15)
C14 C 0.3949(2) 0.9559(4) 0.3891(2)
C15 C 0.3513(2) 0.9753(5) 0.4393(3)
C16 C 0.3680(3) 0.8887(5) 0.5121(3)
C17 C 0.4291(3) 0.7833(5) 0.5370(3)
C18 C 0.4699(2) 0.7645(5) 0.4849(3)
C19 C 0.4554(2) 0.8489(4) 0.4099(2)
N2 N 0.5038(2) 0.8330(4) 0.3632(2)
C20 C 0.4649(2) 0.8210(4) 0.2649(2)
C21 C 0.4047(2) 0.6919(4) 0.2282(2)
C22 C 0.4177(3) 0.5547(5) 0.2708(3)
H8 H 0.4647 0.5411 0.3256
C23 C 0.3634(3) 0.4383(5) 0.2346(4)
H9 H 0.3744 0.3465 0.2641
C24 C 0.2935(4) 0.4564(7) 0.1556(4)
H10 H 0.2559 0.3778 0.1320
C25 C 0.2778(3) 0.5898(8) 0.1105(3)
H11 H 0.2306 0.6009 0.0555
C26 C 0.3322(3) 0.7079(5) 0.1467(3)
H12 H 0.3207 0.7992 0.1166
H13 H 0.5380(19) 0.768(4) 0.388(2)
H14 H 0.4327(18) 0.908(3) 0.238(2)
C20A C 0.5351(2) 0.8210(4) 0.2351(2)
N2A N 0.4962(2) 0.8330(4) 0.1368(2)
C19A C 0.5446(2) 0.8489(4) 0.0901(2)
C14A C 0.6051(2) 0.9559(4) 0.1109(2)
F6A F 0.62270(15) 1.0513(3) 0.18080(15)
C15A C 0.6487(2) 0.9753(5) 0.0607(3)
F7A F 0.70676(15) 1.0837(3) 0.08261(16)
C16A C 0.6320(3) 0.8887(5) -0.0121(3)
F8A F 0.67400(15) 0.9081(3) -0.06280(16)
C17A C 0.5709(3) 0.7833(5) -0.0370(3)
F9A F 0.55271(17) 0.6983(3) -0.10953(18)
C18A C 0.5301(2) 0.7645(5) 0.0151(3)
F10A F 0.46819(16) 0.6609(3) -0.01090(15)
H13A H 0.4620(19) 0.768(4) 0.112(2)
C21A C 0.5953(2) 0.6919(4) 0.2718(2)
C22A C 0.5823(3) 0.5547(5) 0.2292(3)
H8A H 0.5353 0.5411 0.1744
C23A C 0.6366(3) 0.4383(5) 0.2654(4)
H9A H 0.6256 0.3465 0.2359
C24A C 0.7065(4) 0.4564(7) 0.3444(4)
H10A H 0.7441 0.3778 0.3680
C25A C 0.7222(3) 0.5898(8) 0.3895(3)
H11A H 0.7694 0.6009 0.4445
C26A C 0.6678(3) 0.7079(5) 0.3533(3)
H12A H 0.6793 0.7992 0.3834
H14A H 0.5673(18) 0.908(3) 0.262(2)
loop_
_geom_bond_atom_site_label_1
_geom_bond_atom_site_label_2
_geom_bond_site_symmetry_1
_geom_bond_site_symmetry_2
F1 C1 1_555 1_555
F2 C2 1_555 1_555
F3 C3 1_555 1_555
F4 C4 1_555 1_555
F5 C5 1_555 1_555
C1 C2 1_555 1_555
C2 C3 1_555 1_555
C3 C4 1_555 1_555
C4 C5 1_555 1_555
C5 C6 1_555 1_555
C6 C1 1_555 1_555
N1 C6 1_555 1_555
C7 N1 1_555 1_555
C8 C7 1_555 1_555
C9 C8 1_555 1_555
H1 C9 1_555 1_555
C10 C9 1_555 1_555
H2 C10 1_555 1_555
C11 C10 1_555 1_555
H3 C11 1_555 1_555
C12 C11 1_555 1_555
H4 C12 1_555 1_555
C13 C8 1_555 1_555
H5 C13 1_555 1_555
H6 N1 1_555 1_555
H7 C7 1_555 1_555
F6 C14 1_555 1_555
F7 C15 1_555 1_555
F8 C16 1_555 1_555
F9 C17 1_555 1_555
F10 C18 1_555 1_555
C14 C15 1_555 1_555
C15 C16 1_555 1_555
C16 C17 1_555 1_555
C17 C18 1_555 1_555
C18 C19 1_555 1_555
C19 C14 1_555 1_555
N2 C19 1_555 1_555
C20 N2 1_555 1_555
C21 C20 1_555 1_555
C22 C21 1_555 1_555
H8 C22 1_555 1_555
C23 C22 1_555 1_555
H9 C23 1_555 1_555
C24 C23 1_555 1_555
H10 C24 1_555 1_555
C25 C24 1_555 1_555
H11 C25 1_555 1_555
C26 C21 1_555 1_555
H12 C26 1_555 1_555
H13 N2 1_555 1_555
H14 C20 1_555 1_555
C7A C7 1_555 1_555
N1A C7A 1_555 1_555
C6A N1A 1_555 1_555
C1A C6A 1_555 1_555
F1A C1A 1_555 1_555
C2A C1A 1_555 1_555
F2A C2A 1_555 1_555
C3A C2A 1_555 1_555
F3A C3A 1_555 1_555
C4A C3A 1_555 1_555
F4A C4A 1_555 1_555
C5A C6A 1_555 1_555
F5A C5A 1_555 1_555
H6A N1A 1_555 1_555
C8A C7A 1_555 1_555
C9A C8A 1_555 1_555
H1A C9A 1_555 1_555
C10A C9A 1_555 1_555
H2A C10A 1_555 1_555
C11A C10A 1_555 1_555
H3A C11A 1_555 1_555
C12A C11A 1_555 1_555
H4A C12A 1_555 1_555
C13A C8A 1_555 1_555
H5A C13A 1_555 1_555
H7A C7A 1_555 1_555
C20A C20 1_555 1_555
N2A C20A 1_555 1_555
C19A N2A 1_555 1_555
C14A C19A 1_555 1_555
F6A C14A 1_555 1_555
C15A C14A 1_555 1_555
F7A C15A 1_555 1_555
C16A C15A 1_555 1_555
F8A C16A 1_555 1_555
C17A C16A 1_555 1_555
F9A C17A 1_555 1_555
C18A C19A 1_555 1_555
F10A C18A 1_555 1_555
H13A N2A 1_555 1_555
C21A C20A 1_555 1_555
C22A C21A 1_555 1_555
H8A C22A 1_555 1_555
C23A C22A 1_555 1_555
H9A C23A 1_555 1_555
C24A C23A 1_555 1_555
H10A C24A 1_555 1_555
C25A C24A 1_555 1_555
H11A C25A 1_555 1_555
C26A C21A 1_555 1_555
H12A C26A 1_555 1_555
H14A C20A 1_555 1_555
C12 C13 1_555 1_555
C25 C26 1_555 1_555
C4A C5A 1_555 1_555
C12A C13A 1_555 1_555
C17A C18A 1_555 1_555
C25A C26A 1_555 1_555

#END
