
#######################################################################
#
#                 Cambridge Crystallographic Data Centre
#                                CCDC 
#
#######################################################################
#
# If this CIF has been generated from an entry in the Cambridge 
# Structural Database, then it will include bibliographic, chemical, 
# crystal, experimental, refinement or atomic coordinate data resulting 
# from the CCDC's data processing and validation procedures.
#
#######################################################################

data_AWUJUY
_chemical_name_common            
't-Butyl (3-hydroxy-1-(2-(2-hydroxy-4-methoxybenzylidene)hydrazino)-1-oxopropan-2-yl)carbamate'
_chemical_formula_moiety         'C16 H23 N3 O6'
_chemical_name_systematic        
"t-Butyl N-((1S)-2-hydroxy-1-(N'-[(1E)-2-hydroxy-4-methoxybenzylidene]hydrazinecarbonyl)ethyl)carbamate"
_symmetry_cell_setting           triclinic
_symmetry_space_group_name_H-M   'P 1'
_symmetry_Int_Tables_number      1
_space_group_name_Hall           'P 1'
loop_
_symmetry_equiv_pos_site_id
_symmetry_equiv_pos_as_xyz
1 x,y,z
_cell_length_a                   5.3101(14)
_cell_length_b                   5.7301(13)
_cell_length_c                   14.651(4)
_cell_angle_alpha                80.364(16)
_cell_angle_beta                 84.788(11)
_cell_angle_gamma                74.845(15)
_cell_volume                     423.698
_exptl_crystal_colour            colorless
_exptl_crystal_description       lath
_cell_formula_units_Z            1
loop_
_atom_site_label
_atom_site_type_symbol
_atom_site_fract_x
_atom_site_fract_y
_atom_site_fract_z
O1 O 1.3235(6) -0.0932(5) 1.0670(2)
H1 H 1.233(10) -0.078(11) 1.021(3)
O2 O 1.5080(6) 0.3094(6) 1.3026(2)
O3 O 0.8525(6) -0.2427(5) 0.8860(2)
O4 O 0.3605(6) -0.3907(5) 0.8847(2)
H2 H 0.201(3) -0.351(11) 0.901(4)
O5 O 0.0570(6) 0.2513(5) 0.7006(2)
O6 O 0.3497(6) 0.4260(5) 0.6066(2)
N1 N 0.8884(7) 0.1219(6) 0.9773(2)
N2 N 0.6946(7) 0.1467(6) 0.9162(2)
H3 H 0.564(7) 0.277(6) 0.907(3)
N3 N 0.4886(7) 0.1547(6) 0.7304(2)
H4 H 0.630(6) 0.207(9) 0.712(3)
C1 C 1.0379(8) 0.2948(7) 1.0923(3)
C2 C 1.2576(8) 0.1000(7) 1.1135(3)
C3 C 1.4175(8) 0.0995(7) 1.1835(3)
H5 H 1.5648 -0.0341 1.1972
C4 C 1.3625(8) 0.2931(8) 1.2332(3)
C5 C 1.1485(10) 0.4908(8) 1.2127(3)
H6 H 1.1141 0.6261 1.2456
C6 C 0.9868(9) 0.4896(8) 1.1443(3)
H7 H 0.8381 0.6226 1.1320
C7 C 1.7297(9) 0.1110(9) 1.3266(3)
H8 H 1.6729 -0.0403 1.3454
H9 H 1.8147 0.1440 1.3779
H10 H 1.8534 0.0933 1.2728
C8 C 0.8536(9) 0.2999(8) 1.0244(3)
H11 H 0.7059 0.4353 1.0146
C9 C 0.6886(8) -0.0437(7) 0.8759(3)
C10 C 0.4544(8) -0.0039(7) 0.8164(3)
H12 H 0.2931 0.0778 0.8509
C11 C 0.4262(9) -0.2510(7) 0.7997(3)
H13 H 0.2880 -0.2258 0.7554
H14 H 0.5923 -0.3421 0.7720
C12 C 0.2788(8) 0.2769(7) 0.6807(3)
C13 C 0.1569(8) 0.5755(7) 0.5405(3)
C14 C -0.0560(9) 0.7519(8) 0.5888(3)
H15 H -0.1694 0.6616 0.6280
H16 H -0.1596 0.8736 0.5424
H17 H 0.0236 0.8347 0.6274
C15 C 0.3213(9) 0.7096(8) 0.4718(3)
H18 H 0.4001 0.8072 0.5042
H19 H 0.2106 0.8176 0.4239
H20 H 0.4595 0.5908 0.4428
C16 C 0.0458(9) 0.4084(8) 0.4931(3)
H21 H 0.1896 0.2843 0.4694
H22 H -0.0583 0.5058 0.4416
H23 H -0.0651 0.3282 0.5380
loop_
_geom_bond_atom_site_label_1
_geom_bond_atom_site_label_2
_geom_bond_site_symmetry_1
_geom_bond_site_symmetry_2
O1 H1 1_555 1_555
O2 C4 1_555 1_555
O3 C9 1_555 1_555
O4 H2 1_555 1_555
O5 C12 1_555 1_555
O6 C12 1_555 1_555
N1 N2 1_555 1_555
N2 H3 1_555 1_555
N3 H4 1_555 1_555
C1 C2 1_555 1_555
C2 O1 1_555 1_555
C3 C2 1_555 1_555
H5 C3 1_555 1_555
C4 C3 1_555 1_555
C5 C4 1_555 1_555
H6 C5 1_555 1_555
C6 C1 1_555 1_555
H7 C6 1_555 1_555
C7 O2 1_555 1_555
H8 C7 1_555 1_555
H9 C7 1_555 1_555
H10 C7 1_555 1_555
C8 N1 1_555 1_555
H11 C8 1_555 1_555
C9 N2 1_555 1_555
C10 N3 1_555 1_555
H12 C10 1_555 1_555
C11 O4 1_555 1_555
H13 C11 1_555 1_555
H14 C11 1_555 1_555
C12 N3 1_555 1_555
C13 O6 1_555 1_555
C14 C13 1_555 1_555
H15 C14 1_555 1_555
H16 C14 1_555 1_555
H17 C14 1_555 1_555
C15 C13 1_555 1_555
H18 C15 1_555 1_555
H19 C15 1_555 1_555
H20 C15 1_555 1_555
C16 C13 1_555 1_555
H21 C16 1_555 1_555
H22 C16 1_555 1_555
H23 C16 1_555 1_555
C1 C8 1_555 1_555
C5 C6 1_555 1_555
C9 C10 1_555 1_555
C10 C11 1_555 1_555

#END
