
#######################################################################
#
#                 Cambridge Crystallographic Data Centre
#                                CCDC 
#
#######################################################################
#
# If this CIF has been generated from an entry in the Cambridge 
# Structural Database, then it will include bibliographic, chemical, 
# crystal, experimental, refinement or atomic coordinate data resulting 
# from the CCDC's data processing and validation procedures.
#
#######################################################################

data_AWUKIO
_chemical_formula_moiety         'C27 H32 B1 N1'
_chemical_name_systematic        
6-(2,4,6-triisopropylphenyl)-5,6-pyrido[2,1-a][2,3]benzazaborinine
_symmetry_cell_setting           orthorhombic
_symmetry_space_group_name_H-M   'P b c n'
_symmetry_Int_Tables_number      60
_space_group_name_Hall           '-P 2n 2ab'
loop_
_symmetry_equiv_pos_site_id
_symmetry_equiv_pos_as_xyz
1 x,y,z
2 1/2+x,1/2-y,-z
3 -x,y,1/2-z
4 1/2-x,1/2-y,1/2+z
5 -x,-y,-z
6 1/2-x,1/2+y,z
7 x,-y,1/2+z
8 1/2+x,1/2+y,1/2-z
_cell_length_a                   31.316(4)
_cell_length_b                   8.2742(12)
_cell_length_c                   16.832(2)
_cell_angle_alpha                90
_cell_angle_beta                 90
_cell_angle_gamma                90
_cell_volume                     4361.42
_exptl_crystal_description       plate
_cell_formula_units_Z            8
loop_
_atom_site_label
_atom_site_type_symbol
_atom_site_fract_x
_atom_site_fract_y
_atom_site_fract_z
N1 N 0.69726(4) -0.0043(2) 0.11140(7)
B1 B 0.65048(6) -0.0223(3) 0.12659(10)
C1 C 0.71056(6) 0.0818(3) 0.04538(9)
H1 H 0.6894 0.1275 0.0118
C2 C 0.75186(6) 0.1044(3) 0.02603(11)
H2 H 0.7593 0.1628 -0.0205
C3 C 0.78361(6) 0.0405(3) 0.07548(10)
H3 H 0.8130 0.0565 0.0636
C4 C 0.77174(6) -0.0447(3) 0.14067(10)
H4 H 0.7933 -0.0874 0.1743
C5 C 0.72834(5) -0.0723(3) 0.16047(9)
C6 C 0.71563(5) -0.1657(2) 0.22789(9)
C7 C 0.74626(6) -0.2428(3) 0.27719(10)
H5 H 0.7757 -0.2311 0.2652
C8 C 0.73455(6) -0.3329(3) 0.34098(10)
H6 H 0.7557 -0.3854 0.3721
C9 C 0.69123(6) -0.3486(3) 0.36111(10)
H7 H 0.6832 -0.4090 0.4067
C10 C 0.66101(6) -0.2776(3) 0.31546(10)
H8 H 0.6319 -0.2891 0.3300
C11 C 0.67140(6) -0.1861(2) 0.24624(9)
C12 C 0.64001(5) -0.1170(3) 0.19736(10)
H9 H 0.6108 -0.1324 0.2108
C13 C 0.61699(5) 0.0594(3) 0.06803(9)
C14 C 0.60864(5) -0.0089(3) -0.00743(9)
C15 C 0.57712(5) 0.0587(3) -0.05596(10)
H10 H 0.5720 0.0122 -0.1067
C16 C 0.55317(5) 0.1908(3) -0.03283(9)
C17 C 0.56167(5) 0.2566(3) 0.04108(9)
H11 H 0.5458 0.3483 0.0579
C18 C 0.59269(5) 0.1932(3) 0.09188(9)
C19 C 0.59773(6) 0.2675(3) 0.17427(9)
H12 H 0.6239 0.2200 0.1990
C20 C 0.55953(6) 0.2219(3) 0.22621(10)
H13 H 0.5625 0.2729 0.2785
H14 H 0.5585 0.1042 0.2325
H15 H 0.5331 0.2594 0.2009
C21 C 0.60321(7) 0.4496(3) 0.17279(12)
H16 H 0.6267 0.4780 0.1370
H17 H 0.6096 0.4883 0.2265
H18 H 0.5768 0.5000 0.1539
C22 C 0.63088(6) -0.1625(3) -0.03363(10)
H19 H 0.6554 -0.1809 0.0033
C23 C 0.60074(7) -0.3061(3) -0.02529(13)
H20 H 0.5910 -0.3141 0.0299
H21 H 0.6158 -0.4055 -0.0400
H22 H 0.5761 -0.2910 -0.0604
C24 C 0.64894(6) -0.1536(3) -0.11764(10)
H23 H 0.6678 -0.0596 -0.1221
H24 H 0.6255 -0.1435 -0.1558
H25 H 0.6652 -0.2522 -0.1290
C25 C 0.51837(6) 0.2632(3) -0.08492(10)
H26 H 0.5008 0.3352 -0.0502
C26 C 0.48861(6) 0.1379(3) -0.11896(12)
H27 H 0.4654 0.1917 -0.1476
H28 H 0.4767 0.0725 -0.0758
H29 H 0.5044 0.0679 -0.1556
C27 C 0.53666(7) 0.3678(3) -0.14987(13)
H30 H 0.5134 0.4227 -0.1779
H31 H 0.5526 0.3002 -0.1874
H32 H 0.5559 0.4484 -0.1265
loop_
_geom_bond_atom_site_label_1
_geom_bond_atom_site_label_2
_geom_bond_site_symmetry_1
_geom_bond_site_symmetry_2
N1 B1 1_555 1_555
B1 C12 1_555 1_555
C1 N1 1_555 1_555
H1 C1 1_555 1_555
C2 C1 1_555 1_555
H2 C2 1_555 1_555
C3 C2 1_555 1_555
H3 C3 1_555 1_555
C4 C3 1_555 1_555
H4 C4 1_555 1_555
C5 N1 1_555 1_555
C6 C5 1_555 1_555
C7 C6 1_555 1_555
H5 C7 1_555 1_555
C8 C7 1_555 1_555
H6 C8 1_555 1_555
C9 C8 1_555 1_555
H7 C9 1_555 1_555
C10 C9 1_555 1_555
H8 C10 1_555 1_555
C11 C6 1_555 1_555
C12 C11 1_555 1_555
H9 C12 1_555 1_555
C13 B1 1_555 1_555
C14 C13 1_555 1_555
C15 C14 1_555 1_555
H10 C15 1_555 1_555
C16 C15 1_555 1_555
C17 C16 1_555 1_555
H11 C17 1_555 1_555
C18 C13 1_555 1_555
C19 C18 1_555 1_555
H12 C19 1_555 1_555
C20 C19 1_555 1_555
H13 C20 1_555 1_555
H14 C20 1_555 1_555
H15 C20 1_555 1_555
C21 C19 1_555 1_555
H16 C21 1_555 1_555
H17 C21 1_555 1_555
H18 C21 1_555 1_555
C22 C14 1_555 1_555
H19 C22 1_555 1_555
C23 C22 1_555 1_555
H20 C23 1_555 1_555
H21 C23 1_555 1_555
H22 C23 1_555 1_555
C24 C22 1_555 1_555
H23 C24 1_555 1_555
H24 C24 1_555 1_555
H25 C24 1_555 1_555
C25 C16 1_555 1_555
H26 C25 1_555 1_555
C26 C25 1_555 1_555
H27 C26 1_555 1_555
H28 C26 1_555 1_555
H29 C26 1_555 1_555
C27 C25 1_555 1_555
H30 C27 1_555 1_555
H31 C27 1_555 1_555
H32 C27 1_555 1_555
C4 C5 1_555 1_555
C10 C11 1_555 1_555
C17 C18 1_555 1_555

#END
