
#######################################################################
#
#                 Cambridge Crystallographic Data Centre
#                                CCDC 
#
#######################################################################
#
# If this CIF has been generated from an entry in the Cambridge 
# Structural Database, then it will include bibliographic, chemical, 
# crystal, experimental, refinement or atomic coordinate data resulting 
# from the CCDC's data processing and validation procedures.
#
#######################################################################

data_AWULEL
_chemical_formula_moiety         'C24 H20 B1 N1'
_chemical_name_systematic        
6,6-diphenyl-6,7-dihydro-5,6-pyrido[2,1-a][2,3]benzazaborinine
_symmetry_cell_setting           monoclinic
_symmetry_space_group_name_H-M   'P 21/c'
_symmetry_Int_Tables_number      14
_space_group_name_Hall           '-P 2ybc'
loop_
_symmetry_equiv_pos_site_id
_symmetry_equiv_pos_as_xyz
1 x,y,z
2 -x,1/2+y,1/2-z
3 -x,-y,-z
4 x,1/2-y,1/2+z
_cell_length_a                   12.4542(5)
_cell_length_b                   15.7598(6)
_cell_length_c                   9.7650(4)
_cell_angle_alpha                90
_cell_angle_beta                 107.055(2)
_cell_angle_gamma                90
_cell_volume                     1832.35
_exptl_crystal_description       PLATE
_cell_formula_units_Z            4
loop_
_atom_site_label
_atom_site_type_symbol
_atom_site_fract_x
_atom_site_fract_y
_atom_site_fract_z
B1 B 0.22922(10) 0.97480(8) 0.90013(13)
N1 N 0.28886(7) 0.90068(6) 1.01517(9)
C1 C 0.09703(9) 0.95060(7) 0.85466(13)
H1 H 0.0680 0.9576 0.9381
H2 H 0.0547 0.9894 0.7780
C2 C 0.07982(9) 0.86088(8) 0.80257(13)
C3 C -0.00264(11) 0.83663(10) 0.67855(15)
H3 H -0.0502 0.8787 0.6222
C4 C -0.01710(12) 0.75257(11) 0.63531(17)
H4 H -0.0739 0.7377 0.5501
C5 C 0.05042(13) 0.69081(10) 0.71541(17)
H5 H 0.0392 0.6330 0.6872
C6 C 0.13466(12) 0.71289(8) 0.83719(16)
H6 H 0.1820 0.6701 0.8919
C7 C 0.15102(10) 0.79775(7) 0.88099(13)
C8 C 0.24604(9) 0.82058(7) 1.00583(12)
C9 C 0.29606(11) 0.76178(8) 1.11202(14)
H7 H 0.2642 0.7068 1.1093
C10 C 0.39085(12) 0.78233(8) 1.22066(14)
H8 H 0.4244 0.7420 1.2927
C11 C 0.43665(10) 0.86235(8) 1.22375(13)
H9 H 0.5039 0.8774 1.2953
C12 C 0.38263(9) 0.91950(7) 1.12094(12)
H10 H 0.4128 0.9751 1.1245
C13 C 0.25599(9) 1.06549(7) 0.98287(12)
C14 C 0.21766(10) 1.08473(8) 1.10081(13)
H11 H 0.1742 1.0438 1.1323
C15 C 0.24098(11) 1.16142(8) 1.17289(13)
H12 H 0.2146 1.1719 1.2533
C16 C 0.30257(11) 1.22272(8) 1.12799(14)
H13 H 0.3181 1.2756 1.1766
C17 C 0.34128(11) 1.20637(8) 1.01193(13)
H14 H 0.3834 1.2481 0.9800
C18 C 0.31857(10) 1.12878(7) 0.94182(12)
H15 H 0.3467 1.1184 0.8629
C19 C 0.28111(9) 0.96899(7) 0.76605(12)
C20 C 0.38597(10) 0.93502(7) 0.77400(13)
H16 H 0.4299 0.9115 0.8622
C21 C 0.42885(11) 0.93428(8) 0.65735(14)
H17 H 0.5005 0.9100 0.6668
C22 C 0.36755(12) 0.96868(9) 0.52820(14)
H18 H 0.3965 0.9685 0.4484
C23 C 0.26399(13) 1.00320(10) 0.51670(15)
H19 H 0.2211 1.0273 0.4284
C24 C 0.22161(12) 1.00317(9) 0.63310(14)
H20 H 0.1496 1.0272 0.6223
loop_
_geom_bond_atom_site_label_1
_geom_bond_atom_site_label_2
_geom_bond_site_symmetry_1
_geom_bond_site_symmetry_2
B1 N1 1_555 1_555
N1 C8 1_555 1_555
C1 B1 1_555 1_555
H1 C1 1_555 1_555
H2 C1 1_555 1_555
C2 C1 1_555 1_555
C3 C2 1_555 1_555
H3 C3 1_555 1_555
C4 C3 1_555 1_555
H4 C4 1_555 1_555
C5 C4 1_555 1_555
H5 C5 1_555 1_555
C6 C5 1_555 1_555
H6 C6 1_555 1_555
C7 C2 1_555 1_555
C8 C7 1_555 1_555
C9 C8 1_555 1_555
H7 C9 1_555 1_555
C10 C9 1_555 1_555
H8 C10 1_555 1_555
C11 C10 1_555 1_555
H9 C11 1_555 1_555
C12 N1 1_555 1_555
H10 C12 1_555 1_555
C13 B1 1_555 1_555
C14 C13 1_555 1_555
H11 C14 1_555 1_555
C15 C14 1_555 1_555
H12 C15 1_555 1_555
C16 C15 1_555 1_555
H13 C16 1_555 1_555
C17 C16 1_555 1_555
H14 C17 1_555 1_555
C18 C13 1_555 1_555
H15 C18 1_555 1_555
C19 B1 1_555 1_555
C20 C19 1_555 1_555
H16 C20 1_555 1_555
C21 C20 1_555 1_555
H17 C21 1_555 1_555
C22 C21 1_555 1_555
H18 C22 1_555 1_555
C23 C22 1_555 1_555
H19 C23 1_555 1_555
C24 C19 1_555 1_555
H20 C24 1_555 1_555
C6 C7 1_555 1_555
C11 C12 1_555 1_555
C17 C18 1_555 1_555
C23 C24 1_555 1_555

#END
