
#######################################################################
#
#                 Cambridge Crystallographic Data Centre
#                                CCDC 
#
#######################################################################
#
# If this CIF has been generated from an entry in the Cambridge 
# Structural Database, then it will include bibliographic, chemical, 
# crystal, experimental, refinement or atomic coordinate data resulting 
# from the CCDC's data processing and validation procedures.
#
#######################################################################

data_AWULAH
_chemical_formula_moiety         'C30 H14 B1 F18 N1'
_chemical_name_systematic        
7,9,10a-tris(trifluoromethyl)-6-(2,4,6-tris(trifluoromethyl)phenyl)-10a,11-dihydro-5,6-dibenzo[c,f]pyrido[2,1-h][1,2]azaborocine
_symmetry_cell_setting           triclinic
_symmetry_space_group_name_H-M   'P -1'
_symmetry_Int_Tables_number      2
_space_group_name_Hall           '-P 1'
loop_
_symmetry_equiv_pos_site_id
_symmetry_equiv_pos_as_xyz
1 x,y,z
2 -x,-y,-z
_cell_length_a                   8.8041(2)
_cell_length_b                   16.8557(3)
_cell_length_c                   20.7579(4)
_cell_angle_alpha                78.7090(10)
_cell_angle_beta                 79.5870(10)
_cell_angle_gamma                82.4680(10)
_cell_volume                     2956.43
_exptl_crystal_colour            brown
_exptl_crystal_description       plate
_cell_formula_units_Z            4
loop_
_atom_site_label
_atom_site_type_symbol
_atom_site_fract_x
_atom_site_fract_y
_atom_site_fract_z
B1 B 0.4402(3) 0.21740(13) 0.26101(11)
N1 N 0.58173(18) 0.22998(9) 0.29423(7)
C1 C 0.6177(3) 0.36663(13) 0.17642(10)
H1 H 0.7022 0.3327 0.1975
H2 H 0.6656 0.4074 0.1400
C2 C 0.5141(2) 0.40977(12) 0.22705(11)
C3 C 0.5068(2) 0.37733(12) 0.29434(10)
C4 C 0.4229(3) 0.42105(13) 0.34213(12)
H3 H 0.4236 0.4002 0.3880
C5 C 0.3392(3) 0.49401(14) 0.32312(15)
H4 H 0.2809 0.5231 0.3558
C6 C 0.3402(3) 0.52472(14) 0.25652(15)
H5 H 0.2798 0.5743 0.2433
C7 C 0.4284(3) 0.48405(13) 0.20880(13)
H6 H 0.4308 0.5068 0.1630
C8 C 0.5987(2) 0.29987(12) 0.31563(9)
C9 C 0.7057(3) 0.29770(14) 0.35780(10)
H7 H 0.7157 0.3457 0.3735
C10 C 0.7972(3) 0.22776(14) 0.37725(10)
H8 H 0.8675 0.2266 0.4072
C11 C 0.7848(2) 0.15910(13) 0.35235(10)
H9 H 0.8502 0.1105 0.3631
C12 C 0.6774(2) 0.16228(12) 0.31217(10)
H10 H 0.6687 0.1145 0.2957
C13 C 0.4036(2) 0.26557(11) 0.19789(9)
C14 C 0.5297(2) 0.31131(13) 0.14626(10)
C15 C 0.4686(3) 0.36383(14) 0.08694(11)
H11 H 0.5360 0.3990 0.0571
C16 C 0.3270(3) 0.36389(13) 0.07395(11)
C17 C 0.2165(3) 0.31636(13) 0.11861(10)
H12 H 0.1166 0.3159 0.1075
C18 C 0.2526(2) 0.27204(11) 0.17651(10)
C19 C 0.6558(3) 0.25072(15) 0.11738(11)
C20 C 0.1142(2) 0.23846(12) 0.22297(11)
C21 C 0.2725(4) 0.41901(19) 0.01591(14)
C22 C 0.3628(2) 0.13840(11) 0.30676(9)
C23 C 0.2939(2) 0.13661(12) 0.37408(10)
C24 C 0.2414(3) 0.06721(13) 0.41479(11)
H13 H 0.1957 0.0690 0.4597
C25 C 0.2545(3) -0.00427(13) 0.39100(11)
C26 C 0.3191(3) -0.00593(12) 0.32585(11)
H14 H 0.3275 -0.0550 0.3089
C27 C 0.3722(2) 0.06338(11) 0.28460(10)
C28 C 0.4447(3) 0.05262(12) 0.21477(11)
C29 C 0.2768(3) 0.20864(13) 0.40826(10)
C30 C 0.2001(5) -0.07869(17) 0.43629(15)
F1 F 0.76733(16) 0.28922(9) 0.07381(6)
F2 F 0.72920(14) 0.20073(8) 0.16274(6)
F3 F 0.60011(16) 0.20352(8) 0.08352(6)
F4 F 0.09876(13) 0.25698(7) 0.28385(6)
F5 F 0.11348(14) 0.15759(7) 0.23193(6)
F6 F -0.02101(14) 0.26841(8) 0.20198(7)
F7 F 0.3899(2) 0.44444(12) -0.03214(8)
F8 F 0.1886(3) 0.48505(12) 0.03200(10)
F9 F 0.1883(2) 0.38386(11) -0.01513(7)
F10 F 0.39822(16) 0.20907(8) 0.43879(6)
F11 F 0.15114(15) 0.20813(8) 0.45563(6)
F12 F 0.26352(15) 0.27997(7) 0.36830(6)
F13 F 0.44791(16) -0.02421(7) 0.20575(6)
F14 F 0.37429(15) 0.09814(7) 0.16699(6)
F15 F 0.59321(14) 0.06876(7) 0.20101(6)
F16 F 0.2983(11) -0.1007(4) 0.4851(3)
F17 F 0.0587(11) -0.0756(4) 0.4592(6)
F18 F 0.2258(15) -0.1429(4) 0.4095(4)
B2 B 0.9161(3) 0.77335(13) 0.23256(12)
N2 N 0.77474(18) 0.75579(9) 0.20178(8)
C31 C 0.7168(2) 0.64487(13) 0.33553(10)
H15 H 0.6599 0.6138 0.3761
H16 H 0.6392 0.6778 0.3096
C32 C 0.8119(2) 0.58660(12) 0.29494(10)
C33 C 0.8290(2) 0.60487(11) 0.22583(10)
C34 C 0.9081(3) 0.54807(13) 0.18801(12)
H17 H 0.9150 0.5594 0.1410
C35 C 0.9762(3) 0.47561(14) 0.21843(14)
H18 H 1.0319 0.4376 0.1923
C36 C 0.9638(3) 0.45810(13) 0.28690(14)
H19 H 1.0122 0.4085 0.3079
C37 C 0.8809(3) 0.51279(13) 0.32465(12)
H20 H 0.8707 0.4999 0.3718
C38 C 0.7499(2) 0.68049(12) 0.19261(9)
C39 C 0.6459(2) 0.67464(13) 0.15106(10)
H21 H 0.6300 0.6225 0.1441
C40 C 0.5661(3) 0.74217(14) 0.12002(11)
H22 H 0.4980 0.7373 0.0907
C41 C 0.5862(2) 0.81746(14) 0.13200(11)
H23 H 0.5291 0.8651 0.1125
C42 C 0.6896(2) 0.82208(12) 0.17238(10)
H24 H 0.7031 0.8741 0.1805
C43 C 0.9472(2) 0.73680(11) 0.29985(10)
C44 C 0.8153(2) 0.70284(12) 0.35616(9)
C45 C 0.8707(3) 0.66025(13) 0.41980(10)
H25 H 0.7994 0.6315 0.4532
C46 C 1.0128(3) 0.66064(12) 0.43172(10)
C47 C 1.1296(3) 0.69752(12) 0.38206(11)
H26 H 1.2305 0.6977 0.3922
C48 C 1.0981(2) 0.73219(11) 0.32069(10)
C49 C 1.2406(2) 0.75665(12) 0.27210(11)
C50 C 0.6997(3) 0.77303(14) 0.37708(11)
C51 C 1.0609(3) 0.61885(14) 0.49617(12)
C52 C 1.0059(2) 0.84150(12) 0.17793(10)
C53 C 1.0849(2) 0.82702(13) 0.11509(11)
C54 C 1.1542(3) 0.88647(16) 0.06651(12)
H27 H 1.2053 0.8737 0.0249
C55 C 1.1480(3) 0.96408(17) 0.07931(14)
C56 C 1.0735(3) 0.98207(14) 0.13951(14)
H28 H 1.0697 1.0356 0.1482
C57 C 1.0039(3) 0.92299(13) 0.18775(12)
C58 C 1.0969(3) 0.74612(16) 0.09424(11)
C59 C 1.2222(5) 1.0292(2) 0.02726(19)
C60 C 0.9232(3) 0.95033(13) 0.25096(14)
F22 F 0.58725(16) 0.74574(8) 0.42696(6)
F23 F 0.62483(14) 0.81408(7) 0.32791(6)
F24 F 0.76575(15) 0.82733(8) 0.39916(6)
F25 F 0.94380(19) 0.59227(10) 0.54252(7)
F26 F 1.16448(19) 0.55369(8) 0.48892(7)
F27 F 1.13079(18) 0.66643(9) 0.52304(7)
F28 F 1.37329(14) 0.72948(8) 0.29637(7)
F29 F 1.25804(13) 0.72722(7) 0.21529(6)
F30 F 1.24782(14) 0.83735(7) 0.25367(6)
F31 F 0.77502(15) 0.93470(7) 0.26606(7)
F32 F 0.98830(16) 0.91666(8) 0.30471(7)
F33 F 0.91976(18) 1.03084(8) 0.24732(9)
F34 F 1.3562(10) 1.0400(6) 0.0418(5)
F35 F 1.1735(11) 1.1046(5) 0.0402(6)
F36 F 1.2011(16) 1.0261(10) -0.0331(5)
F37 F 1.08233(15) 0.68340(7) 0.14350(6)
F38 F 1.23549(16) 0.72962(9) 0.05711(6)
F39 F 0.98983(17) 0.74307(9) 0.05689(7)
F19? F 0.1675(9) -0.0739(3) 0.4993(2)
F20? F 0.0454(9) -0.0798(7) 0.4317(3)
F21? F 0.2696(16) -0.1461(5) 0.4206(6)
F40? F 1.2697(14) 1.0050(8) -0.0315(4)
F41? F 1.3647(9) 1.0371(8) 0.0287(6)
F42? F 1.1218(12) 1.0958(5) 0.0190(7)
loop_
_geom_bond_atom_site_label_1
_geom_bond_atom_site_label_2
_geom_bond_site_symmetry_1
_geom_bond_site_symmetry_2
B1 N1 1_555 1_555
N1 C8 1_555 1_555
C1 H1 1_555 1_555
H2 C1 1_555 1_555
C2 C1 1_555 1_555
C3 C2 1_555 1_555
C4 C3 1_555 1_555
H3 C4 1_555 1_555
C5 C4 1_555 1_555
H4 C5 1_555 1_555
C6 C5 1_555 1_555
H5 C6 1_555 1_555
C7 C2 1_555 1_555
H6 C7 1_555 1_555
C8 C3 1_555 1_555
C9 C8 1_555 1_555
H7 C9 1_555 1_555
C10 C9 1_555 1_555
H8 C10 1_555 1_555
C11 C10 1_555 1_555
H9 C11 1_555 1_555
C12 N1 1_555 1_555
H10 C12 1_555 1_555
C13 B1 1_555 1_555
C14 C1 1_555 1_555
C15 C14 1_555 1_555
H11 C15 1_555 1_555
C16 C15 1_555 1_555
C17 C16 1_555 1_555
H12 C17 1_555 1_555
C18 C13 1_555 1_555
C19 C14 1_555 1_555
C20 C18 1_555 1_555
C21 C16 1_555 1_555
C22 B1 1_555 1_555
C23 C22 1_555 1_555
C24 C23 1_555 1_555
H13 C24 1_555 1_555
C25 C24 1_555 1_555
C26 C25 1_555 1_555
H14 C26 1_555 1_555
C27 C22 1_555 1_555
C28 C27 1_555 1_555
C29 C23 1_555 1_555
C30 C25 1_555 1_555
F1 C19 1_555 1_555
F2 C19 1_555 1_555
F3 C19 1_555 1_555
F4 C20 1_555 1_555
F5 C20 1_555 1_555
F6 C20 1_555 1_555
F7 C21 1_555 1_555
F8 C21 1_555 1_555
F9 C21 1_555 1_555
F10 C29 1_555 1_555
F11 C29 1_555 1_555
F12 C29 1_555 1_555
F13 C28 1_555 1_555
F14 C28 1_555 1_555
F15 C28 1_555 1_555
F16 C30 1_555 1_555
F17 C30 1_555 1_555
F18 C30 1_555 1_555
B2 N2 1_555 1_555
N2 C38 1_555 1_555
C31 H15 1_555 1_555
H16 C31 1_555 1_555
C32 C31 1_555 1_555
C33 C32 1_555 1_555
C34 C33 1_555 1_555
H17 C34 1_555 1_555
C35 C34 1_555 1_555
H18 C35 1_555 1_555
C36 C35 1_555 1_555
H19 C36 1_555 1_555
C37 C32 1_555 1_555
H20 C37 1_555 1_555
C38 C33 1_555 1_555
C39 C38 1_555 1_555
H21 C39 1_555 1_555
C40 C39 1_555 1_555
H22 C40 1_555 1_555
C41 C40 1_555 1_555
H23 C41 1_555 1_555
C42 N2 1_555 1_555
H24 C42 1_555 1_555
C43 B2 1_555 1_555
C44 C31 1_555 1_555
C45 C44 1_555 1_555
H25 C45 1_555 1_555
C46 C45 1_555 1_555
C47 C46 1_555 1_555
H26 C47 1_555 1_555
C48 C43 1_555 1_555
C49 C48 1_555 1_555
C50 C44 1_555 1_555
C51 C46 1_555 1_555
C52 B2 1_555 1_555
C53 C52 1_555 1_555
C54 C53 1_555 1_555
H27 C54 1_555 1_555
C55 C54 1_555 1_555
C56 C55 1_555 1_555
H28 C56 1_555 1_555
C57 C52 1_555 1_555
C58 C53 1_555 1_555
C59 C55 1_555 1_555
C60 C57 1_555 1_555
F22 C50 1_555 1_555
F23 C50 1_555 1_555
F24 C50 1_555 1_555
F25 C51 1_555 1_555
F26 C51 1_555 1_555
F27 C51 1_555 1_555
F28 C49 1_555 1_555
F29 C49 1_555 1_555
F30 C49 1_555 1_555
F31 C60 1_555 1_555
F32 C60 1_555 1_555
F33 C60 1_555 1_555
F34 C59 1_555 1_555
F35 C59 1_555 1_555
F36 C59 1_555 1_555
F37 C58 1_555 1_555
F38 C58 1_555 1_555
F39 C58 1_555 1_555
C6 C7 1_555 1_555
C11 C12 1_555 1_555
C13 C14 1_555 1_555
C17 C18 1_555 1_555
C26 C27 1_555 1_555
C36 C37 1_555 1_555
C41 C42 1_555 1_555
C43 C44 1_555 1_555
C47 C48 1_555 1_555
C56 C57 1_555 1_555

#END
