
#######################################################################
#
#                 Cambridge Crystallographic Data Centre
#                                CCDC 
#
#######################################################################
#
# If this CIF has been generated from an entry in the Cambridge 
# Structural Database, then it will include bibliographic, chemical, 
# crystal, experimental, refinement or atomic coordinate data resulting 
# from the CCDC's data processing and validation procedures.
#
#######################################################################

data_AWUMUC
_chemical_formula_moiety         'C42 H45 B1 N2'
_chemical_name_systematic        
8,10-dihexyl-5,13-diphenyl-8H,10H-[1,2]benzazaborinino[4,3,2-ij]benzo[c][2,1]benzazaborinine
_symmetry_cell_setting           triclinic
_symmetry_space_group_name_H-M   'P -1'
_symmetry_Int_Tables_number      2
_space_group_name_Hall           '-P 1'
loop_
_symmetry_equiv_pos_site_id
_symmetry_equiv_pos_as_xyz
1 x,y,z
2 -x,-y,-z
_cell_length_a                   9.3703(4)
_cell_length_b                   9.8045(4)
_cell_length_c                   17.2896(8)
_cell_angle_alpha                92.270(2)
_cell_angle_beta                 92.092(2)
_cell_angle_gamma                93.949(2)
_cell_volume                     1582.17
_exptl_crystal_colour            colorless
_exptl_crystal_description       block
_cell_formula_units_Z            2
_exptl_crystal_recrystallization_method 
'chloroform/methanol by slow evaporation'
loop_
_atom_site_label
_atom_site_type_symbol
_atom_site_fract_x
_atom_site_fract_y
_atom_site_fract_z
N1 N 0.41167(10) 0.52410(10) 0.34149(6)
N2 N 0.33832(10) 0.72404(10) 0.26022(6)
C1 C 0.38351(12) 0.44646(12) 0.40688(7)
C2 C 0.44044(13) 0.31878(13) 0.41513(7)
H1 H 0.5019 0.2869 0.3769
C3 C 0.41042(13) 0.23841(13) 0.47656(7)
H2 H 0.4517 0.1529 0.4798
C4 C 0.32061(12) 0.27966(12) 0.53444(7)
C5 C 0.26666(12) 0.40748(12) 0.52743(7)
H3 H 0.2052 0.4379 0.5661
C6 C 0.29759(12) 0.49382(12) 0.46677(7)
C7 C 0.25007(12) 0.63358(12) 0.46737(7)
C8 C 0.19318(13) 0.69496(13) 0.53269(7)
H4 H 0.1800 0.6441 0.5778
C9 C 0.15596(13) 0.82868(13) 0.53227(7)
H5 H 0.1197 0.8696 0.5776
C10 C 0.17085(13) 0.90385(13) 0.46667(7)
H6 H 0.1441 0.9956 0.4671
C11 C 0.22512(12) 0.84540(12) 0.39968(7)
C12 C 0.23537(12) 0.91856(12) 0.32731(7)
C13 C 0.18723(12) 1.05019(12) 0.32233(7)
H7 H 0.1593 1.0947 0.3686
C14 C 0.17766(12) 1.11996(12) 0.25404(7)
C15 C 0.22123(14) 1.05172(14) 0.18779(7)
H8 H 0.2152 1.0945 0.1395
C16 C 0.27275(14) 0.92403(13) 0.19043(7)
H9 H 0.3023 0.8817 0.1439
C17 C 0.28340(12) 0.85373(12) 0.25944(7)
C18 C 0.26799(12) 0.70999(12) 0.40055(7)
C19 C 0.28943(13) 0.19358(12) 0.60132(7)
C20 C 0.38767(13) 0.10239(13) 0.62716(7)
H10 H 0.4747 0.0955 0.6012
C21 C 0.36055(13) 0.02220(13) 0.68971(7)
H11 H 0.4285 -0.0393 0.7061
C22 C 0.23477(14) 0.03124(13) 0.72861(7)
H12 H 0.2162 -0.0237 0.7716
C23 C 0.13629(13) 0.12107(13) 0.70421(7)
H13 H 0.0502 0.1284 0.7310
C24 C 0.16248(13) 0.20046(13) 0.64093(7)
H14 H 0.0932 0.2604 0.6243
C25 C 0.12084(12) 1.25755(13) 0.25133(7)
C26 C 0.08246(13) 1.32927(13) 0.31780(7)
H15 H 0.0921 1.2890 0.3666
C27 C 0.03064(13) 1.45780(13) 0.31415(8)
H16 H 0.0055 1.5044 0.3604
C28 C 0.01515(14) 1.51912(13) 0.24401(8)
H17 H -0.0206 1.6073 0.2416
C29 C 0.05244(15) 1.45005(14) 0.17759(8)
H18 H 0.0423 1.4909 0.1290
C30 C 0.10444(14) 1.32205(14) 0.18112(8)
H19 H 0.1298 1.2765 0.1346
C31 C 0.53116(12) 0.48137(12) 0.29521(7)
H20 H 0.6093 0.4589 0.3316
H21 H 0.5674 0.5611 0.2665
C32 C 0.50184(12) 0.36042(12) 0.23701(7)
H22 H 0.4612 0.2802 0.2639
H23 H 0.4308 0.3838 0.1968
C33 C 0.63917(13) 0.32476(13) 0.19907(7)
H24 H 0.6861 0.4087 0.1786
H25 H 0.7052 0.2907 0.2387
C34 C 0.61326(13) 0.21719(13) 0.13350(7)
H26 H 0.5351 0.2444 0.0985
H27 H 0.5808 0.1292 0.1555
C35 C 0.74423(14) 0.19568(14) 0.08618(7)
H28 H 0.7696 0.2800 0.0585
H29 H 0.8260 0.1792 0.1216
C36 C 0.71977(18) 0.07658(16) 0.02791(9)
H30 H 0.7011 -0.0081 0.0552
H31 H 0.8051 0.0694 -0.0027
H32 H 0.6373 0.0912 -0.0065
C37 C 0.37068(13) 0.66398(13) 0.18415(7)
H33 H 0.2912 0.6804 0.1471
H34 H 0.3721 0.5637 0.1886
C38 C 0.51111(13) 0.71615(13) 0.14946(7)
H35 H 0.5061 0.8134 0.1370
H36 H 0.5912 0.7099 0.1878
C39 C 0.53883(13) 0.63184(13) 0.07605(7)
H37 H 0.4550 0.6339 0.0397
H38 H 0.5472 0.5355 0.0898
C40 C 0.67323(13) 0.68058(13) 0.03461(7)
H39 H 0.6872 0.6154 -0.0092
H40 H 0.6582 0.7707 0.0129
C41 C 0.80838(14) 0.69363(15) 0.08659(8)
H41 H 0.8185 0.6062 0.1123
H42 H 0.7984 0.7656 0.1275
C42 C 0.94356(15) 0.72898(17) 0.04310(9)
H43 H 0.9580 0.6551 0.0050
H44 H 1.0260 0.7402 0.0799
H45 H 0.9336 0.8144 0.0165
B1 B 0.34168(14) 0.64926(14) 0.33056(8)
loop_
_geom_bond_atom_site_label_1
_geom_bond_atom_site_label_2
_geom_bond_site_symmetry_1
_geom_bond_site_symmetry_2
N1 C1 1_555 1_555
N2 C17 1_555 1_555
C1 C2 1_555 1_555
C2 H1 1_555 1_555
C3 C2 1_555 1_555
H2 C3 1_555 1_555
C4 C3 1_555 1_555
C5 C4 1_555 1_555
H3 C5 1_555 1_555
C6 C1 1_555 1_555
C7 C6 1_555 1_555
C8 C7 1_555 1_555
H4 C8 1_555 1_555
C9 C8 1_555 1_555
H5 C9 1_555 1_555
C10 C9 1_555 1_555
H6 C10 1_555 1_555
C11 C10 1_555 1_555
C12 C11 1_555 1_555
C13 C12 1_555 1_555
H7 C13 1_555 1_555
C14 C13 1_555 1_555
C15 C14 1_555 1_555
H8 C15 1_555 1_555
C16 C15 1_555 1_555
H9 C16 1_555 1_555
C17 C12 1_555 1_555
C18 C7 1_555 1_555
C19 C4 1_555 1_555
C20 C19 1_555 1_555
H10 C20 1_555 1_555
C21 C20 1_555 1_555
H11 C21 1_555 1_555
C22 C21 1_555 1_555
H12 C22 1_555 1_555
C23 C22 1_555 1_555
H13 C23 1_555 1_555
C24 C19 1_555 1_555
H14 C24 1_555 1_555
C25 C14 1_555 1_555
C26 C25 1_555 1_555
H15 C26 1_555 1_555
C27 C26 1_555 1_555
H16 C27 1_555 1_555
C28 C27 1_555 1_555
H17 C28 1_555 1_555
C29 C28 1_555 1_555
H18 C29 1_555 1_555
C30 C25 1_555 1_555
H19 C30 1_555 1_555
C31 N1 1_555 1_555
H20 C31 1_555 1_555
H21 C31 1_555 1_555
C32 C31 1_555 1_555
H22 C32 1_555 1_555
H23 C32 1_555 1_555
C33 C32 1_555 1_555
H24 C33 1_555 1_555
H25 C33 1_555 1_555
C34 C33 1_555 1_555
H26 C34 1_555 1_555
H27 C34 1_555 1_555
C35 C34 1_555 1_555
H28 C35 1_555 1_555
H29 C35 1_555 1_555
C36 C35 1_555 1_555
H30 C36 1_555 1_555
H31 C36 1_555 1_555
H32 C36 1_555 1_555
C37 N2 1_555 1_555
H33 C37 1_555 1_555
H34 C37 1_555 1_555
C38 C37 1_555 1_555
H35 C38 1_555 1_555
H36 C38 1_555 1_555
C39 C38 1_555 1_555
H37 C39 1_555 1_555
H38 C39 1_555 1_555
C40 C39 1_555 1_555
H39 C40 1_555 1_555
H40 C40 1_555 1_555
C41 C40 1_555 1_555
H41 C41 1_555 1_555
H42 C41 1_555 1_555
C42 C41 1_555 1_555
H43 C42 1_555 1_555
H44 C42 1_555 1_555
H45 C42 1_555 1_555
B1 N1 1_555 1_555
N2 B1 1_555 1_555
C5 C6 1_555 1_555
C11 C18 1_555 1_555
C16 C17 1_555 1_555
C18 B1 1_555 1_555
C23 C24 1_555 1_555
C29 C30 1_555 1_555

#END
