
#######################################################################
#
#                 Cambridge Crystallographic Data Centre
#                                CCDC 
#
#######################################################################
#
# If this CIF has been generated from an entry in the Cambridge 
# Structural Database, then it will include bibliographic, chemical, 
# crystal, experimental, refinement or atomic coordinate data resulting 
# from the CCDC's data processing and validation procedures.
#
#######################################################################

data_AWUNOV01
_chemical_formula_moiety         'C12 H10 N4 O2'
_chemical_name_systematic        N,N'-bis(pyridin-2-yl)ethanediamide
_symmetry_cell_setting           triclinic
_symmetry_space_group_name_H-M   'P -1'
_symmetry_Int_Tables_number      2
_space_group_name_Hall           '-P 1'
loop_
_symmetry_equiv_pos_site_id
_symmetry_equiv_pos_as_xyz
1 x,y,z
2 -x,-y,-z
_cell_length_a                   8.459(2)
_cell_length_b                   10.705(3)
_cell_length_c                   11.058(3)
_cell_angle_alpha                99.555(9)
_cell_angle_beta                 101.344(8)
_cell_angle_gamma                112.980(8)
_cell_volume                     870.558
_exptl_crystal_colour            colorless
_exptl_crystal_description       block
_cell_formula_units_Z            3
loop_
_atom_site_label
_atom_site_type_symbol
_atom_site_fract_x
_atom_site_fract_y
_atom_site_fract_z
C1 C 0.8362(2) 0.46853(19) 0.37248(18)
H1 H 0.8499 0.5608 0.3908
C2 C 0.9305(2) 0.4331(2) 0.29625(17)
H2 H 1.0085 0.5002 0.2655
C3 C 0.9066(3) 0.2958(2) 0.26675(17)
H3 H 0.9672 0.2682 0.2144
C4 C 0.7921(3) 0.1992(2) 0.31520(17)
H4 H 0.7732 0.1056 0.2957
C5 C 0.7062(2) 0.24577(17) 0.39383(15)
C6 C 0.5610(2) 0.02730(17) 0.45799(16)
N1 N 0.72567(19) 0.37762(14) 0.42180(14)
N2 N 0.59256(19) 0.15935(14) 0.45411(14)
H13 H 0.5362 0.1959 0.4934
O1 O 0.62022(18) -0.04585(13) 0.40434(13)
C1A C 0.1638(2) -0.46853(19) 0.62752(18)
H1A H 0.1501 -0.5608 0.6092
C2A C 0.0695(2) -0.4331(2) 0.70375(17)
H2A H -0.0085 -0.5002 0.7345
C3A C 0.0934(3) -0.2958(2) 0.73325(17)
H3A H 0.0328 -0.2682 0.7856
C4A C 0.2079(3) -0.1992(2) 0.68480(17)
H4A H 0.2268 -0.1056 0.7043
C5A C 0.2938(2) -0.24577(17) 0.60617(15)
C6A C 0.4390(2) -0.02730(17) 0.54201(16)
N1A N 0.27433(19) -0.37762(14) 0.57820(14)
N2A N 0.40744(19) -0.15935(14) 0.54589(14)
H13A H 0.4638 -0.1959 0.5066
O1A O 0.37978(18) 0.04585(13) 0.59566(13)
C7 C 0.2643(3) 0.1234(2) 0.11856(19)
H5 H 0.3133 0.2017 0.0881
C8 C 0.2515(4) -0.0019(2) 0.0534(2)
H6 H 0.2911 -0.0087 -0.0191
C9 C 0.1791(4) -0.1164(2) 0.0977(2)
H7 H 0.1681 -0.2033 0.0552
C10 C 0.1222(3) -0.1038(2) 0.20524(19)
H8 H 0.0731 -0.1809 0.2371
C11 C 0.1405(2) 0.02693(16) 0.26431(14)
C12 C 0.0128(2) -0.03698(15) 0.43944(14)
N3 N 0.2108(2) 0.14008(15) 0.22304(13)
N4 N 0.08990(17) 0.05422(13) 0.37520(12)
H14 H 0.1109 0.1402 0.4060
O2 O -0.03443(16) -0.16334(11) 0.41046(11)
C7A C -0.2643(3) -0.1234(2) 0.88144(19)
H5A H -0.3133 -0.2017 0.9119
C8A C -0.2515(4) 0.0019(2) 0.9466(2)
H6A H -0.2911 0.0087 1.0191
C9A C -0.1791(4) 0.1164(2) 0.9023(2)
H7A H -0.1681 0.2033 0.9448
C10A C -0.1222(3) 0.1038(2) 0.79476(19)
H8A H -0.0731 0.1809 0.7629
C11A C -0.1405(2) -0.02693(16) 0.73569(14)
C12A C -0.0128(2) 0.03698(15) 0.56056(14)
N3A N -0.2108(2) -0.14008(15) 0.77696(13)
N4A N -0.08990(17) -0.05422(13) 0.62480(12)
H14A H -0.1109 -0.1402 0.5940
O2A O 0.03443(16) 0.16334(11) 0.58954(11)
C13 C 0.7504(3) 0.5115(2) 0.97931(17)
H9 H 0.8479 0.5692 1.0504
C14 C 0.6308(3) 0.3874(2) 0.99039(17)
H10 H 0.6460 0.3612 1.0664
C15 C 0.4884(3) 0.3032(2) 0.88626(18)
H11 H 0.4042 0.2175 0.8901
C16 C 0.4690(3) 0.34467(18) 0.77573(16)
H12 H 0.3719 0.2886 0.7040
C17 C 0.5974(2) 0.47196(15) 0.77397(13)
C18 C 0.48440(19) 0.45519(14) 0.54712(13)
N5 N 0.7374(2) 0.55612(16) 0.87343(13)
N6 N 0.59098(16) 0.52565(12) 0.66636(11)
H15 H 0.6628 0.6127 0.6784
O3 O 0.37249(15) 0.33253(10) 0.51223(9)
C13A C 0.2496(3) 0.4885(2) 0.02069(17)
H9A H 0.1521 0.4308 -0.0504
C14A C 0.3692(3) 0.6126(2) 0.00961(17)
H10A H 0.3540 0.6388 -0.0664
C15A C 0.5116(3) 0.6968(2) 0.11374(18)
H11A H 0.5958 0.7825 0.1099
C16A C 0.5310(3) 0.65533(18) 0.22427(16)
H12A H 0.6281 0.7114 0.2960
C17A C 0.4026(2) 0.52804(15) 0.22603(13)
C18A C 0.51560(19) 0.54481(14) 0.45288(13)
N5A N 0.2626(2) 0.44388(16) 0.12657(13)
N6A N 0.40902(16) 0.47435(12) 0.33364(11)
H15A H 0.3372 0.3873 0.3216
O3A O 0.62751(15) 0.66747(10) 0.48777(9)
loop_
_geom_bond_atom_site_label_1
_geom_bond_atom_site_label_2
_geom_bond_site_symmetry_1
_geom_bond_site_symmetry_2
C1 H1 1_555 1_555
C2 C1 1_555 1_555
H2 C2 1_555 1_555
C3 C2 1_555 1_555
H3 C3 1_555 1_555
C4 C3 1_555 1_555
H4 C4 1_555 1_555
C5 C4 1_555 1_555
C6 N2 1_555 1_555
C7 H5 1_555 1_555
C8 C7 1_555 1_555
H6 C8 1_555 1_555
C9 C8 1_555 1_555
H7 C9 1_555 1_555
C10 C9 1_555 1_555
H8 C10 1_555 1_555
C11 C10 1_555 1_555
C12 N4 1_555 1_555
C13 H9 1_555 1_555
C14 C13 1_555 1_555
H10 C14 1_555 1_555
C15 C14 1_555 1_555
H11 C15 1_555 1_555
C16 C15 1_555 1_555
H12 C16 1_555 1_555
C17 C16 1_555 1_555
C18 N6 1_555 1_555
N1 C1 1_555 1_555
N2 C5 1_555 1_555
H13 N2 1_555 1_555
N3 C7 1_555 1_555
N4 C11 1_555 1_555
H14 N4 1_555 1_555
N5 C13 1_555 1_555
N6 C17 1_555 1_555
H15 N6 1_555 1_555
O1 C6 1_555 1_555
O2 C12 1_555 1_555
O3 C18 1_555 1_555
C1A H1A 1_555 1_555
C2A C1A 1_555 1_555
H2A C2A 1_555 1_555
C3A C2A 1_555 1_555
H3A C3A 1_555 1_555
C4A C3A 1_555 1_555
H4A C4A 1_555 1_555
C5A C4A 1_555 1_555
C6A C6 1_555 1_555
C7A H5A 1_555 1_555
C8A C7A 1_555 1_555
H6A C8A 1_555 1_555
C9A C8A 1_555 1_555
H7A C9A 1_555 1_555
C10A C9A 1_555 1_555
H8A C10A 1_555 1_555
C11A C10A 1_555 1_555
C12A C12 1_555 1_555
C13A H9A 1_555 1_555
C14A C13A 1_555 1_555
H10A C14A 1_555 1_555
C15A C14A 1_555 1_555
H11A C15A 1_555 1_555
C16A C15A 1_555 1_555
H12A C16A 1_555 1_555
C17A C16A 1_555 1_555
C18A C18 1_555 1_555
N1A C1A 1_555 1_555
N2A C5A 1_555 1_555
H13A N2A 1_555 1_555
N3A C7A 1_555 1_555
N4A C11A 1_555 1_555
H14A N4A 1_555 1_555
N5A C13A 1_555 1_555
N6A C17A 1_555 1_555
H15A N6A 1_555 1_555
O1A C6A 1_555 1_555
O2A C12A 1_555 1_555
O3A C18A 1_555 1_555
C5 N1 1_555 1_555
C11 N3 1_555 1_555
C17 N5 1_555 1_555
C5A N1A 1_555 1_555
C6A N2A 1_555 1_555
C11A N3A 1_555 1_555
C12A N4A 1_555 1_555
C17A N5A 1_555 1_555
C18A N6A 1_555 1_555

#END
