
#######################################################################
#
#                 Cambridge Crystallographic Data Centre
#                                CCDC 
#
#######################################################################
#
# If this CIF has been generated from an entry in the Cambridge 
# Structural Database, then it will include bibliographic, chemical, 
# crystal, experimental, refinement or atomic coordinate data resulting 
# from the CCDC's data processing and validation procedures.
#
#######################################################################

data_AWUPUE
_chemical_formula_moiety         'C19 H17 Br1 N2 O2'
_chemical_name_systematic        
'Ethyl 1-benzyl-3-(4-bromophenyl)-1H-pyrazole-5-carboxylate'
_symmetry_cell_setting           monoclinic
_symmetry_space_group_name_H-M   'P 21/n'
_symmetry_Int_Tables_number      14
_space_group_name_Hall           '-P 2yn'
loop_
_symmetry_equiv_pos_site_id
_symmetry_equiv_pos_as_xyz
1 x,y,z
2 1/2-x,1/2+y,1/2-z
3 -x,-y,-z
4 1/2+x,1/2-y,1/2+z
_cell_length_a                   10.5656(13)
_cell_length_b                   15.3433(19)
_cell_length_c                   11.5706(14)
_cell_angle_alpha                90
_cell_angle_beta                 111.506(2)
_cell_angle_gamma                90
_cell_volume                     1745.13
_exptl_crystal_colour            colorless
_exptl_crystal_description       block
_cell_formula_units_Z            4
loop_
_atom_site_label
_atom_site_type_symbol
_atom_site_fract_x
_atom_site_fract_y
_atom_site_fract_z
Br1 Br 0.14954(3) 0.23557(2) 0.33861(3)
N1 N 0.5993(2) 0.57103(14) 0.88561(19)
N2 N 0.4883(2) 0.52724(13) 0.81156(19)
O1 O 0.87411(19) 0.63973(15) 1.00922(19)
O2 O 0.92884(17) 0.57135(12) 0.86274(18)
C1 C 0.2646(3) 0.31434(16) 0.4583(2)
C2 C 0.2191(3) 0.35288(18) 0.5429(3)
H1 H 0.1316 0.3421 0.5405
C3 C 0.3052(3) 0.40806(17) 0.6317(3)
H2 H 0.2748 0.4342 0.6892
C4 C 0.4364(2) 0.42517(14) 0.6366(2)
C5 C 0.4785(3) 0.38498(17) 0.5496(2)
H3 H 0.5657 0.3955 0.5509
C6 C 0.3933(3) 0.32961(18) 0.4609(3)
H4 H 0.4231 0.3029 0.4033
C7 C 0.5294(2) 0.48270(15) 0.7316(2)
C8 C 0.6665(2) 0.49904(16) 0.7551(2)
H5 H 0.7185 0.4762 0.7126
C9 C 0.7089(2) 0.55554(16) 0.8535(2)
C10 C 0.8439(3) 0.59442(17) 0.9187(3)
C11 C 1.0643(3) 0.6089(2) 0.9142(3)
H6 H 1.1091 0.5912 1.0002
H7 H 1.0590 0.6721 0.9111
C12 C 1.1416(3) 0.5767(3) 0.8380(4)
H8 H 1.1463 0.5142 0.8421
H9 H 1.2319 0.6004 0.8696
H10 H 1.0963 0.5946 0.7533
C13 C 0.5871(3) 0.62843(18) 0.9823(3)
H11 H 0.6578 0.6137 1.0610
H12 H 0.5000 0.6180 0.9900
C14 C 0.5983(2) 0.72389(17) 0.9565(2)
C15 C 0.5372(3) 0.7587(2) 0.8389(3)
H13 H 0.4890 0.7225 0.7730
C16 C 0.5469(4) 0.8471(2) 0.8179(3)
H14 H 0.5064 0.8695 0.7381
C17 C 0.6163(4) 0.9013(2) 0.9148(3)
H15 H 0.6217 0.9607 0.9010
C18 C 0.6778(3) 0.8676(2) 1.0323(3)
H16 H 0.7254 0.9041 1.0981
C19 C 0.6687(3) 0.77974(19) 1.0524(3)
H17 H 0.7108 0.7575 1.1321
loop_
_geom_bond_atom_site_label_1
_geom_bond_atom_site_label_2
_geom_bond_site_symmetry_1
_geom_bond_site_symmetry_2
Br1 C1 1_555 1_555
N1 N2 1_555 1_555
N2 C7 1_555 1_555
O1 C10 1_555 1_555
O2 C10 1_555 1_555
C1 C2 1_555 1_555
C2 H1 1_555 1_555
C3 C2 1_555 1_555
H2 C3 1_555 1_555
C4 C3 1_555 1_555
C5 C4 1_555 1_555
H3 C5 1_555 1_555
C6 C1 1_555 1_555
H4 C6 1_555 1_555
C7 C4 1_555 1_555
C8 C7 1_555 1_555
H5 C8 1_555 1_555
C9 N1 1_555 1_555
C10 C9 1_555 1_555
C11 O2 1_555 1_555
H6 C11 1_555 1_555
H7 C11 1_555 1_555
C12 C11 1_555 1_555
H8 C12 1_555 1_555
H9 C12 1_555 1_555
H10 C12 1_555 1_555
C13 N1 1_555 1_555
H11 C13 1_555 1_555
H12 C13 1_555 1_555
C14 C13 1_555 1_555
C15 C14 1_555 1_555
H13 C15 1_555 1_555
C16 C15 1_555 1_555
H14 C16 1_555 1_555
C17 C16 1_555 1_555
H15 C17 1_555 1_555
C18 C17 1_555 1_555
H16 C18 1_555 1_555
C19 C14 1_555 1_555
H17 C19 1_555 1_555
C5 C6 1_555 1_555
C8 C9 1_555 1_555
C18 C19 1_555 1_555

#END
