
#######################################################################
#
#                 Cambridge Crystallographic Data Centre
#                                CCDC 
#
#######################################################################
#
# If this CIF has been generated from an entry in the Cambridge 
# Structural Database, then it will include bibliographic, chemical, 
# crystal, experimental, refinement or atomic coordinate data resulting 
# from the CCDC's data processing and validation procedures.
#
#######################################################################

data_AWUQUF
_chemical_name_common            
"bis(4-pyridyl) disulfide 2,2'-(p-phenylenebis(oxy))diacetic acid"
_chemical_formula_moiety         'C10 H10 O6,C10 H8 N2 S2'
_chemical_name_systematic        
"2,2'-(1,4-Phenylenebis(oxy))diacetic acid 4,4'-disulfanediyldipyridine"
_symmetry_cell_setting           monoclinic
_symmetry_space_group_name_H-M   'C 2/c'
_symmetry_Int_Tables_number      15
_space_group_name_Hall           '-C 2yn'
loop_
_symmetry_equiv_pos_site_id
_symmetry_equiv_pos_as_xyz
1 x,y,z
2 -x,y,1/2-z
3 1/2+x,1/2+y,z
4 1/2-x,1/2+y,1/2-z
5 -x,-y,-z
6 x,-y,1/2+z
7 1/2-x,1/2-y,-z
8 1/2+x,1/2-y,1/2+z
_cell_length_a                   14.3310(10)
_cell_length_b                   5.0570(10)
_cell_length_c                   28.003(3)
_cell_angle_alpha                90
_cell_angle_beta                 90.200(5)
_cell_angle_gamma                90
_cell_volume                     2029.42
_exptl_crystal_colour            colorless
_exptl_crystal_description       block
_cell_formula_units_Z            4
loop_
_atom_site_label
_atom_site_type_symbol
_atom_site_fract_x
_atom_site_fract_y
_atom_site_fract_z
S1 S 0.92972(4) -0.22476(13) 0.24909(2)
N1 N 0.83733(14) 0.3882(5) 0.14055(7)
C4 C 0.89942(16) 0.0216(4) 0.20664(8)
C6 C 0.92798(17) 0.3451(5) 0.14718(8)
H5 H 0.9703 0.4408 0.1289
C7 C 0.96216(16) 0.1654(5) 0.17981(8)
H6 H 1.0261 0.1414 0.1837
C9 C 0.80519(17) 0.0660(6) 0.19985(10)
H8 H 0.7612 -0.0283 0.2173
C10 C 0.77771(19) 0.2495(6) 0.16724(11)
H9 H 0.7142 0.2800 0.1633
S1A S 1.07028(4) -0.22476(13) 0.25091(2)
N1A N 1.16267(14) 0.3882(5) 0.35945(7)
C4A C 1.10058(16) 0.0216(4) 0.29336(8)
C6A C 1.07202(17) 0.3451(5) 0.35282(8)
H5A H 1.0297 0.4408 0.3711
C7A C 1.03784(16) 0.1654(5) 0.32019(8)
H6A H 0.9739 0.1414 0.3163
C9A C 1.19481(17) 0.0660(6) 0.30015(10)
H8A H 1.2388 -0.0283 0.2827
C10A C 1.22229(19) 0.2495(6) 0.33276(11)
H9A H 1.2858 0.2800 0.3367
O1 O 0.07968(11) 0.6344(3) 0.06109(5)
O2 O 0.15067(12) 0.2818(4) 0.12321(6)
O3 O 0.26328(12) 0.1757(4) 0.07197(7)
H1 H 0.2843 0.0923 0.0947
C1 C 0.04234(15) 0.8125(4) 0.02905(8)
C2 C -0.02803(15) 0.9711(5) 0.04649(8)
H2 H -0.0471 0.9519 0.0780
C3 C 0.15542(15) 0.4802(5) 0.04525(8)
H3 H 0.2061 0.5945 0.0353
H4 H 0.1364 0.3737 0.0181
C5 C 0.18774(15) 0.3037(5) 0.08524(9)
C8 C -0.07061(15) 1.1580(5) 0.01785(8)
H7 H -0.1181 1.2636 0.0300
O1D O -0.07968(11) 1.3656(3) -0.06109(5)
O2D O -0.15067(12) 1.7182(4) -0.12321(6)
O3D O -0.26328(12) 1.8243(4) -0.07197(7)
H1D H -0.2843 1.9077 -0.0947
C1D C -0.04234(15) 1.1875(4) -0.02905(8)
C2D C 0.02803(15) 1.0289(5) -0.04649(8)
H2D H 0.0471 1.0481 -0.0780
C3D C -0.15542(15) 1.5198(5) -0.04525(8)
H3D H -0.2061 1.4055 -0.0353
H4D H -0.1364 1.6263 -0.0181
C5D C -0.18774(15) 1.6963(5) -0.08524(9)
C8D C 0.07061(15) 0.8420(5) -0.01785(8)
H7D H 0.1181 0.7364 -0.0300
loop_
_geom_bond_atom_site_label_1
_geom_bond_atom_site_label_2
_geom_bond_site_symmetry_1
_geom_bond_site_symmetry_2
S1 C4 1_555 1_555
O1 C1 1_555 1_555
O2 C5 1_555 1_555
N1 C6 1_555 1_555
O3 H1 1_555 1_555
C1 C2 1_555 1_555
C2 H2 1_555 1_555
C3 O1 1_555 1_555
H3 C3 1_555 1_555
H4 C3 1_555 1_555
C4 C7 1_555 1_555
C5 O3 1_555 1_555
C6 H5 1_555 1_555
C7 C6 1_555 1_555
H6 C7 1_555 1_555
C8 C2 1_555 1_555
H7 C8 1_555 1_555
C9 C4 1_555 1_555
H8 C9 1_555 1_555
C10 N1 1_555 1_555
H9 C10 1_555 1_555
S1A S1 1_555 1_555
O1D C1D 1_555 1_555
O2D C5D 1_555 1_555
N1A C6A 1_555 1_555
O3D H1D 1_555 1_555
C1D C8 1_555 1_555
C2D C1D 1_555 1_555
H2D C2D 1_555 1_555
C3D O1D 1_555 1_555
H3D C3D 1_555 1_555
H4D C3D 1_555 1_555
C4A S1A 1_555 1_555
C5D O3D 1_555 1_555
C6A H5A 1_555 1_555
C7A C4A 1_555 1_555
H6A C7A 1_555 1_555
C8D C1 1_555 1_555
H7D C8D 1_555 1_555
C9A C4A 1_555 1_555
H8A C9A 1_555 1_555
C10A N1A 1_555 1_555
H9A C10A 1_555 1_555
C3 C5 1_555 1_555
C9 C10 1_555 1_555
C2D C8D 1_555 1_555
C3D C5D 1_555 1_555
C6A C7A 1_555 1_555
C9A C10A 1_555 1_555

#END
