
#######################################################################
#
#                 Cambridge Crystallographic Data Centre
#                                CCDC 
#
#######################################################################
#
# If this CIF has been generated from an entry in the Cambridge 
# Structural Database, then it will include bibliographic, chemical, 
# crystal, experimental, refinement or atomic coordinate data resulting 
# from the CCDC's data processing and validation procedures.
#
#######################################################################

data_AWURUH
_chemical_formula_moiety         'C12 H16 O3'
_chemical_name_systematic        
3,3',4,4',4a',7',8',8a'-octahydro-5H-spiro[furan-2,1'-isochromen]-5-one
_symmetry_cell_setting           monoclinic
_symmetry_space_group_name_H-M   'P 21'
_symmetry_Int_Tables_number      4
_space_group_name_Hall           'P 2yb'
loop_
_symmetry_equiv_pos_site_id
_symmetry_equiv_pos_as_xyz
1 x,y,z
2 -x,1/2+y,-z
_cell_length_a                   6.3424(5)
_cell_length_b                   16.9401(14)
_cell_length_c                   9.9234(8)
_cell_angle_alpha                90
_cell_angle_beta                 103.8763(12)
_cell_angle_gamma                90
_cell_volume                     1035.06
_exptl_crystal_colour            yellow
_exptl_crystal_description       block
_cell_formula_units_Z            4
loop_
_atom_site_label
_atom_site_type_symbol
_atom_site_fract_x
_atom_site_fract_y
_atom_site_fract_z
O1 O 0.0989(2) 0.58865(8) 0.25701(13)
O2 O -0.0829(3) 0.54983(9) 0.04605(15)
O3 O 0.2416(2) 0.71415(7) 0.31195(14)
C1 C 0.0772(3) 0.57961(11) 0.1181(2)
C2 C 0.2769(3) 0.61039(12) 0.0786(2)
H1 H 0.2470 0.6614 0.0290
H2 H 0.3302 0.5722 0.0189
C3 C 0.4410(3) 0.62061(12) 0.2177(2)
H3 H 0.5319 0.5728 0.2425
H4 H 0.5363 0.6667 0.2161
C4 C 0.2962(3) 0.63360(11) 0.31818(19)
C5 C 0.3805(3) 0.60345(11) 0.46594(19)
H5 H 0.3914 0.5447 0.4617
C6 C 0.2208(3) 0.62347(11) 0.55568(18)
H6 H 0.0870 0.5908 0.5228
C7 C 0.1556(3) 0.71112(11) 0.5392(2)
H7 H 0.0369 0.7211 0.5862
H8 H 0.2813 0.7442 0.5848
C8 C 0.0812(3) 0.73438(11) 0.3880(2)
H9 H -0.0569 0.7071 0.3459
H10 H 0.0541 0.7920 0.3813
C9 C 0.3181(3) 0.60383(11) 0.70574(19)
H11 H 0.2230 0.5993 0.7662
C10 C 0.5286(3) 0.59241(11) 0.7586(2)
H12 H 0.5755 0.5800 0.8545
C11 C 0.6969(3) 0.59802(13) 0.6751(2)
H13 H 0.7513 0.5444 0.6624
H14 H 0.8210 0.6298 0.7271
C12 C 0.6074(3) 0.63566(12) 0.5327(2)
H15 H 0.7065 0.6243 0.4718
H16 H 0.5998 0.6936 0.5431
O4 O 0.2523(2) 0.40923(8) -0.14174(14)
O5 O 0.0751(2) 0.43712(9) -0.35962(15)
O6 O 0.3956(2) 0.28440(8) -0.07832(14)
C13 C 0.2372(3) 0.41351(11) -0.2805(2)
C14 C 0.4456(3) 0.38496(13) -0.3122(2)
H17 H 0.5002 0.4236 -0.3706
H18 H 0.4240 0.3334 -0.3606
C15 C 0.6019(3) 0.37723(12) -0.1701(2)
H19 H 0.6907 0.4255 -0.1456
H20 H 0.6995 0.3313 -0.1667
C16 C 0.4492(3) 0.36558(11) -0.07442(19)
C17 C 0.5254(3) 0.39686(11) 0.07327(19)
H21 H 0.5374 0.4556 0.0679
C18 C 0.3585(3) 0.37810(11) 0.15853(19)
H22 H 0.2255 0.4105 0.1214
C19 C 0.2943(3) 0.29007(11) 0.14405(19)
H23 H 0.4184 0.2575 0.1936
H24 H 0.1715 0.2807 0.1877
C20 C 0.2292(3) 0.26523(11) -0.0070(2)
H25 H 0.2023 0.2076 -0.0126
H26 H 0.0924 0.2922 -0.0533
C21 C 0.4477(3) 0.39953(11) 0.30893(19)
H27 H 0.3485 0.4049 0.3665
C22 C 0.6573(3) 0.41127(11) 0.3653(2)
H28 H 0.6995 0.4252 0.4607
C23 C 0.8315(3) 0.40383(12) 0.28690(19)
H29 H 0.9531 0.3723 0.3426
H30 H 0.8880 0.4570 0.2737
C24 C 0.7498(3) 0.36463(11) 0.14506(19)
H31 H 0.7409 0.3068 0.1570
H32 H 0.8531 0.3751 0.0866
loop_
_geom_bond_atom_site_label_1
_geom_bond_atom_site_label_2
_geom_bond_site_symmetry_1
_geom_bond_site_symmetry_2
O1 C1 1_555 1_555
O2 C1 1_555 1_555
O3 C4 1_555 1_555
C1 C2 1_555 1_555
C2 H1 1_555 1_555
H2 C2 1_555 1_555
C3 C2 1_555 1_555
H3 C3 1_555 1_555
H4 C3 1_555 1_555
C4 O1 1_555 1_555
C5 C4 1_555 1_555
H5 C5 1_555 1_555
C6 C5 1_555 1_555
H6 C6 1_555 1_555
C7 C6 1_555 1_555
H7 C7 1_555 1_555
H8 C7 1_555 1_555
C8 O3 1_555 1_555
H9 C8 1_555 1_555
H10 C8 1_555 1_555
C9 C6 1_555 1_555
H11 C9 1_555 1_555
C10 C9 1_555 1_555
H12 C10 1_555 1_555
C11 C10 1_555 1_555
H13 C11 1_555 1_555
H14 C11 1_555 1_555
C12 C5 1_555 1_555
H15 C12 1_555 1_555
H16 C12 1_555 1_555
O4 C13 1_555 1_555
O5 C13 1_555 1_555
O6 C16 1_555 1_555
C13 C14 1_555 1_555
C14 H17 1_555 1_555
H18 C14 1_555 1_555
C15 C14 1_555 1_555
H19 C15 1_555 1_555
H20 C15 1_555 1_555
C16 O4 1_555 1_555
C17 C16 1_555 1_555
H21 C17 1_555 1_555
C18 C17 1_555 1_555
H22 C18 1_555 1_555
C19 C18 1_555 1_555
H23 C19 1_555 1_555
H24 C19 1_555 1_555
C20 O6 1_555 1_555
H25 C20 1_555 1_555
H26 C20 1_555 1_555
C21 C18 1_555 1_555
H27 C21 1_555 1_555
C22 C21 1_555 1_555
H28 C22 1_555 1_555
C23 C22 1_555 1_555
H29 C23 1_555 1_555
H30 C23 1_555 1_555
C24 C17 1_555 1_555
H31 C24 1_555 1_555
H32 C24 1_555 1_555
C3 C4 1_555 1_555
C7 C8 1_555 1_555
C11 C12 1_555 1_555
C15 C16 1_555 1_555
C19 C20 1_555 1_555
C23 C24 1_555 1_555

#END
