
#######################################################################
#
#                 Cambridge Crystallographic Data Centre
#                                CCDC 
#
#######################################################################
#
# If this CIF has been generated from an entry in the Cambridge 
# Structural Database, then it will include bibliographic, chemical, 
# crystal, experimental, refinement or atomic coordinate data resulting 
# from the CCDC's data processing and validation procedures.
#
#######################################################################

data_AWURIV
_chemical_name_common            alpha-Levantenolide
_chemical_formula_moiety         'C20 H30 O3'
_chemical_name_systematic        
3,3a',6',6',9a'-pentamethyl-3a',4',5',5a',6',7',8',9',9a',9b'-decahydro-1'H,5H-spiro[furan-2,2'-naphtho[2,1-b]furan]-5-one
_symmetry_cell_setting           monoclinic
_symmetry_space_group_name_H-M   'P 21'
_symmetry_Int_Tables_number      4
_space_group_name_Hall           'P 2yb'
loop_
_symmetry_equiv_pos_site_id
_symmetry_equiv_pos_as_xyz
1 x,y,z
2 -x,1/2+y,-z
_cell_length_a                   8.5261(10)
_cell_length_b                   9.7486(11)
_cell_length_c                   11.1669(13)
_cell_angle_alpha                90
_cell_angle_beta                 107.7021(19)
_cell_angle_gamma                90
_cell_volume                     884.217
_exptl_crystal_colour            colorless
_exptl_crystal_description       block
_cell_formula_units_Z            2
loop_
_atom_site_label
_atom_site_type_symbol
_atom_site_fract_x
_atom_site_fract_y
_atom_site_fract_z
O1 O 0.10858(13) 0.62412(11) 0.46633(10)
O2 O -0.04187(15) 0.73362(14) 0.56953(12)
O3 O 0.34925(12) 0.66605(10) 0.41277(10)
C1 C 0.01907(18) 0.73337(17) 0.48520(15)
C2 C 0.01636(19) 0.83873(17) 0.39018(16)
H1 H -0.0405 0.9237 0.3810
C3 C 0.10680(18) 0.79522(15) 0.31933(14)
C4 C 0.17663(17) 0.65474(15) 0.36440(13)
C5 C 0.13826(18) 0.53465(16) 0.26925(14)
H2 H 0.0917 0.4550 0.3018
H3 H 0.0612 0.5630 0.1873
C6 C 0.30987(17) 0.50240(14) 0.25865(14)
H4 H 0.3326 0.5775 0.2052
C7 C 0.42054(18) 0.53453(15) 0.39238(13)
C8 C 0.59667(18) 0.55227(15) 0.38949(14)
H5 H 0.6712 0.5664 0.4758
H6 H 0.6042 0.6336 0.3384
C9 C 0.64806(18) 0.42224(16) 0.33184(14)
H7 H 0.7610 0.4351 0.3266
H8 H 0.6502 0.3434 0.3882
C10 C 0.53149(17) 0.38872(15) 0.19976(13)
H9 H 0.5291 0.4747 0.1504
C11 C 0.34888(17) 0.36899(15) 0.19981(13)
C12 C 0.23810(19) 0.36121(17) 0.06208(14)
H10 H 0.1235 0.3419 0.0606
H11 H 0.2390 0.4512 0.0212
C13 C 0.2945(2) 0.24999(18) -0.01271(15)
H12 H 0.2809 0.1587 0.0217
H13 H 0.2244 0.2529 -0.1015
C14 C 0.4745(2) 0.26959(17) -0.00702(15)
H14 H 0.4838 0.3552 -0.0522
H15 H 0.5072 0.1926 -0.0521
C15 C 0.59659(19) 0.27722(16) 0.12710(14)
C16 C 0.1499(2) 0.86505(18) 0.21523(16)
H16 H 0.1158 0.8077 0.1396
H17 H 0.2692 0.8798 0.2395
H18 H 0.0932 0.9536 0.1979
C17 C 0.4128(2) 0.43903(16) 0.49932(14)
H19 H 0.2988 0.4095 0.4857
H20 H 0.4523 0.4879 0.5796
H21 H 0.4823 0.3585 0.5011
C18 C 0.31900(19) 0.24112(16) 0.27071(15)
H22 H 0.3023 0.1611 0.2151
H23 H 0.2210 0.2553 0.2976
H24 H 0.4147 0.2255 0.3446
C19 C 0.6233(2) 0.13510(16) 0.18967(15)
H25 H 0.5163 0.0920 0.1802
H26 H 0.6834 0.1451 0.2792
H27 H 0.6871 0.0776 0.1495
C20 C 0.7644(2) 0.32248(18) 0.11475(16)
H28 H 0.7929 0.2644 0.0528
H29 H 0.8492 0.3134 0.1964
H30 H 0.7577 0.4184 0.0873
loop_
_geom_bond_atom_site_label_1
_geom_bond_atom_site_label_2
_geom_bond_site_symmetry_1
_geom_bond_site_symmetry_2
O1 C1 1_555 1_555
O2 C1 1_555 1_555
O3 C4 1_555 1_555
C1 C2 1_555 1_555
C2 H1 1_555 1_555
C3 C2 1_555 1_555
C4 O1 1_555 1_555
C5 C4 1_555 1_555
H2 C5 1_555 1_555
H3 C5 1_555 1_555
C6 C5 1_555 1_555
H4 C6 1_555 1_555
C7 O3 1_555 1_555
C8 C7 1_555 1_555
H5 C8 1_555 1_555
H6 C8 1_555 1_555
C9 C8 1_555 1_555
H7 C9 1_555 1_555
H8 C9 1_555 1_555
C10 C9 1_555 1_555
H9 C10 1_555 1_555
C11 C6 1_555 1_555
C12 C11 1_555 1_555
H10 C12 1_555 1_555
H11 C12 1_555 1_555
C13 C12 1_555 1_555
H12 C13 1_555 1_555
H13 C13 1_555 1_555
C14 C13 1_555 1_555
H14 C14 1_555 1_555
H15 C14 1_555 1_555
C15 C10 1_555 1_555
C16 C3 1_555 1_555
H16 C16 1_555 1_555
H17 C16 1_555 1_555
H18 C16 1_555 1_555
C17 C7 1_555 1_555
H19 C17 1_555 1_555
H20 C17 1_555 1_555
H21 C17 1_555 1_555
C18 C11 1_555 1_555
H22 C18 1_555 1_555
H23 C18 1_555 1_555
H24 C18 1_555 1_555
C19 C15 1_555 1_555
H25 C19 1_555 1_555
H26 C19 1_555 1_555
H27 C19 1_555 1_555
C20 C15 1_555 1_555
H28 C20 1_555 1_555
H29 C20 1_555 1_555
H30 C20 1_555 1_555
C3 C4 1_555 1_555
C6 C7 1_555 1_555
C10 C11 1_555 1_555
C14 C15 1_555 1_555

#END
