
#######################################################################
#
#                 Cambridge Crystallographic Data Centre
#                                CCDC 
#
#######################################################################
#
# If this CIF has been generated from an entry in the Cambridge 
# Structural Database, then it will include bibliographic, chemical, 
# crystal, experimental, refinement or atomic coordinate data resulting 
# from the CCDC's data processing and validation procedures.
#
#######################################################################

data_AWUTES
_chemical_formula_moiety         'C16 H18 Br1 N1 O3'
_chemical_name_systematic        
(S)-2-[(S,Z)-3-Bromo-1-nitro-4-phenylbut-3-en-2-yl]cyclohexanone
_symmetry_cell_setting           orthorhombic
_symmetry_space_group_name_H-M   'P 21 21 21'
_symmetry_Int_Tables_number      19
_space_group_name_Hall           'P 2ac 2ab'
loop_
_symmetry_equiv_pos_site_id
_symmetry_equiv_pos_as_xyz
1 x,y,z
2 1/2-x,-y,1/2+z
3 1/2+x,1/2-y,-z
4 -x,1/2+y,1/2-z
_cell_length_a                   8.0091(3)
_cell_length_b                   12.2395(6)
_cell_length_c                   16.3039(7)
_cell_angle_alpha                90
_cell_angle_beta                 90
_cell_angle_gamma                90
_cell_volume                     1598.23
_exptl_crystal_colour            colorless
_exptl_crystal_description       chunk
_cell_formula_units_Z            4
loop_
_atom_site_label
_atom_site_type_symbol
_atom_site_fract_x
_atom_site_fract_y
_atom_site_fract_z
Br1 Br 0.63058(7) 0.46482(5) 0.55564(4)
N1 N 0.1663(6) 0.3677(4) 0.5794(3)
O1 O 0.0229(5) 0.3856(5) 0.5610(4)
O2 O 0.1693(7) 0.3171(5) 0.3392(3)
C1 C 0.4279(6) 0.7079(4) 0.5742(3)
C2 C 0.4282(7) 0.3931(5) 0.3846(3)
H1 H 0.5210 0.3467 0.4025
C3 C 0.3329(6) 0.4313(4) 0.4610(3)
H2 H 0.2289 0.4650 0.4420
C4 C 0.3654(7) 0.6156(4) 0.5251(3)
H3 H 0.2658 0.6305 0.4979
O3 O 0.2193(7) 0.3763(5) 0.6486(3)
C5 C 0.4339(8) 0.9025(5) 0.5950(4)
H4 H 0.4060 0.9722 0.5771
C6 C 0.3855(7) 0.8127(4) 0.5505(4)
H5 H 0.3225 0.8227 0.5031
C7 C 0.5235(8) 0.8893(6) 0.6660(4)
H6 H 0.5559 0.9500 0.6964
C8 C 0.5005(8) 0.4881(5) 0.3337(4)
H7 H 0.4103 0.5348 0.3152
H8 H 0.5743 0.5314 0.3678
C9 C 0.4228(6) 0.5152(4) 0.5117(3)
C10 C 0.3176(9) 0.3261(5) 0.3272(4)
C11 C 0.5181(8) 0.6956(5) 0.6466(4)
H9 H 0.5470 0.6260 0.6647
C12 C 0.2845(8) 0.3328(5) 0.5139(4)
H10 H 0.2324 0.2774 0.4799
H11 H 0.3837 0.3014 0.5386
C13 C 0.4045(10) 0.2823(6) 0.2531(4)
H12 H 0.3246 0.2449 0.2183
H13 H 0.4887 0.2298 0.2698
C14 C 0.5965(9) 0.4456(6) 0.2599(4)
H14 H 0.6393 0.5069 0.2286
H15 H 0.6911 0.4028 0.2787
C15 C 0.5651(9) 0.7863(6) 0.6919(4)
H16 H 0.6254 0.7772 0.7402
C16 C 0.4875(11) 0.3752(7) 0.2046(4)
H17 H 0.5553 0.3445 0.1611
H18 H 0.4019 0.4204 0.1797
loop_
_geom_bond_atom_site_label_1
_geom_bond_atom_site_label_2
_geom_bond_site_symmetry_1
_geom_bond_site_symmetry_2
Br1 C9 1_555 1_555
N1 O1 1_555 1_555
O2 C10 1_555 1_555
C1 C4 1_555 1_555
C2 H1 1_555 1_555
C3 C2 1_555 1_555
H2 C3 1_555 1_555
C4 H3 1_555 1_555
O3 N1 1_555 1_555
C5 H4 1_555 1_555
C6 C1 1_555 1_555
H5 C6 1_555 1_555
C7 C5 1_555 1_555
H6 C7 1_555 1_555
C8 C2 1_555 1_555
H7 C8 1_555 1_555
H8 C8 1_555 1_555
C9 C3 1_555 1_555
C10 C2 1_555 1_555
C11 C1 1_555 1_555
H9 C11 1_555 1_555
C12 N1 1_555 1_555
H10 C12 1_555 1_555
H11 C12 1_555 1_555
C13 C10 1_555 1_555
H12 C13 1_555 1_555
H13 C13 1_555 1_555
C14 C8 1_555 1_555
H14 C14 1_555 1_555
H15 C14 1_555 1_555
C15 C7 1_555 1_555
H16 C15 1_555 1_555
C16 C13 1_555 1_555
H17 C16 1_555 1_555
H18 C16 1_555 1_555
C3 C12 1_555 1_555
C4 C9 1_555 1_555
C5 C6 1_555 1_555
C11 C15 1_555 1_555
C14 C16 1_555 1_555

#END
