
#######################################################################
#
#                 Cambridge Crystallographic Data Centre
#                                CCDC 
#
#######################################################################
#
# If this CIF has been generated from an entry in the Cambridge 
# Structural Database, then it will include bibliographic, chemical, 
# crystal, experimental, refinement or atomic coordinate data resulting 
# from the CCDC's data processing and validation procedures.
#
#######################################################################

data_AWUWEW
_chemical_formula_moiety         'C47 H28 O5'
_chemical_name_systematic        
1,3,11,13-tetramethoxy-7H-cyclohepta[rstuv]diphenanthro[1,10,9-fgh:9',10',1'-jkl]pentahelicen-7-one
_symmetry_cell_setting           monoclinic
_symmetry_space_group_name_H-M   'P 21/c'
_symmetry_Int_Tables_number      14
_space_group_name_Hall           '-P 2ybc'
loop_
_symmetry_equiv_pos_site_id
_symmetry_equiv_pos_as_xyz
1 x,y,z
2 -x,1/2+y,1/2-z
3 -x,-y,-z
4 x,1/2-y,1/2+z
_cell_length_a                   7.5395(5)
_cell_length_b                   34.5192(18)
_cell_length_c                   11.7823(6)
_cell_angle_alpha                90
_cell_angle_beta                 100.084(3)
_cell_angle_gamma                90
_cell_volume                     3019.06
_exptl_crystal_colour            red
_exptl_crystal_description       block
_cell_formula_units_Z            4
loop_
_atom_site_label
_atom_site_type_symbol
_atom_site_fract_x
_atom_site_fract_y
_atom_site_fract_z
O1 O 0.0128(3) 0.59280(7) 0.5539(2)
C1 C 0.7391(5) 0.40855(10) 0.7988(3)
H1 H 0.7272 0.3898 0.7354
H2 H 0.6794 0.3984 0.8601
H3 H 0.8670 0.4129 0.8294
C2 C 0.1693(5) 0.59339(11) 0.5410(3)
C3 C 0.2492(5) 0.62889(10) 0.5019(3)
C4 C 0.4346(5) 0.63941(10) 0.5291(3)
C5 C 0.5608(5) 0.62230(9) 0.6244(3)
C6 C 0.5369(5) 0.58661(10) 0.6821(3)
C7 C 0.4296(5) 0.55336(10) 0.6321(3)
C8 C 0.2699(5) 0.55669(10) 0.5502(3)
C9 C 0.1259(5) 0.65021(11) 0.4265(3)
H4 H 0.0029 0.6426 0.4119
C10 C 0.1801(5) 0.68250(11) 0.3719(3)
H5 H 0.0950 0.6969 0.3195
C11 C 0.3565(5) 0.69345(11) 0.3939(3)
H6 H 0.3929 0.7157 0.3563
C12 C 0.4868(5) 0.67260(10) 0.4712(3)
C13 C 0.6694(5) 0.68720(10) 0.4989(3)
C14 C 0.7820(5) 0.67500(10) 0.6010(3)
C15 C 0.7199(5) 0.64411(9) 0.6686(3)
C16 C 0.7398(5) 0.71605(10) 0.4331(3)
O2 O 0.6462(4) 0.72286(7) 0.3234(2)
C17 C 0.7109(6) 0.75169(11) 0.2571(3)
H7 H 0.6352 0.7526 0.1805
H8 H 0.8352 0.7457 0.2493
H9 H 0.7074 0.7768 0.2951
C18 C 0.8937(5) 0.73684(11) 0.4773(3)
H10 H 0.9286 0.7584 0.4362
C19 C 0.9953(5) 0.72614(10) 0.5806(3)
O3 O 1.1422(4) 0.74732(7) 0.6314(2)
C20 C 1.1953(6) 0.77968(11) 0.5688(4)
H11 H 1.2215 0.7708 0.4945
H12 H 1.3032 0.7917 0.6135
H13 H 1.0973 0.7987 0.5557
C21 C 0.9519(5) 0.69319(10) 0.6415(3)
C22 C 1.0733(5) 0.67728(10) 0.7407(3)
C23 C 1.0049(4) 0.65078(9) 0.8126(3)
C24 C 0.8204(5) 0.63680(9) 0.7805(3)
C25 C 1.2602(5) 0.68511(11) 0.7606(3)
H14 H 1.3082 0.7025 0.7114
C26 C 1.3727(5) 0.66780(10) 0.8503(3)
H15 H 1.4977 0.6737 0.8635
C27 C 1.3070(5) 0.64215(10) 0.9210(3)
H16 H 1.3862 0.6301 0.9824
C28 C 1.1254(5) 0.63389(10) 0.9028(3)
H17 H 1.0808 0.6162 0.9529
C29 C 0.1886(5) 0.52523(10) 0.4927(3)
H18 H 0.0832 0.5286 0.4362
C30 C 0.2597(5) 0.48815(10) 0.5166(3)
H19 H 0.2132 0.4667 0.4704
C31 C 0.3985(5) 0.48329(10) 0.6085(3)
H20 H 0.4385 0.4578 0.6300
C32 C 0.4835(5) 0.51513(10) 0.6718(3)
C33 C 0.6020(4) 0.50997(10) 0.7826(3)
C34 C 0.6690(5) 0.47478(10) 0.8312(3)
O4 O 0.6591(3) 0.44341(7) 0.7584(2)
C35 C 0.8847(5) 0.46543(10) 1.1838(3)
H21 H 0.9821 0.4548 1.1481
H22 H 0.7817 0.4477 1.1711
H23 H 0.9270 0.4686 1.2667
C36 C 0.7446(4) 0.47166(10) 0.9478(3)
H24 H 0.7849 0.4472 0.9794
C37 C 0.7608(5) 0.50409(10) 1.0170(3)
O5 O 0.8309(3) 0.50244(7) 1.1330(2)
C38 C 0.7158(4) 0.54091(10) 0.9724(3)
C39 C 0.6436(4) 0.54349(10) 0.8533(3)
C40 C 0.6340(4) 0.58081(10) 0.7944(3)
C41 C 0.7460(4) 0.61000(9) 0.8514(3)
C42 C 0.7718(4) 0.61114(10) 0.9783(3)
C43 C 0.7433(4) 0.57701(10) 1.0376(3)
C44 C 0.7353(5) 0.57971(11) 1.1562(3)
H25 H 0.7187 0.5569 1.1983
C45 C 0.7512(5) 0.61493(11) 1.2113(3)
H26 H 0.7409 0.6164 1.2904
C46 C 0.7825(5) 0.64865(10) 1.1517(3)
H27 H 0.7961 0.6729 1.1905
C47 C 0.7931(4) 0.64638(11) 1.0370(3)
H28 H 0.8154 0.6692 0.9967
loop_
_geom_bond_atom_site_label_1
_geom_bond_atom_site_label_2
_geom_bond_site_symmetry_1
_geom_bond_site_symmetry_2
O1 C2 1_555 1_555
C1 H1 1_555 1_555
H2 C1 1_555 1_555
H3 C1 1_555 1_555
C2 C3 1_555 1_555
C3 C4 1_555 1_555
C4 C5 1_555 1_555
C5 C6 1_555 1_555
C6 C7 1_555 1_555
C7 C8 1_555 1_555
C8 C2 1_555 1_555
C9 C3 1_555 1_555
H4 C9 1_555 1_555
C10 C9 1_555 1_555
H5 C10 1_555 1_555
C11 C10 1_555 1_555
H6 C11 1_555 1_555
C12 C4 1_555 1_555
C13 C12 1_555 1_555
C14 C13 1_555 1_555
C15 C5 1_555 1_555
C16 C13 1_555 1_555
O2 C16 1_555 1_555
C17 O2 1_555 1_555
H7 C17 1_555 1_555
H8 C17 1_555 1_555
H9 C17 1_555 1_555
C18 C16 1_555 1_555
H10 C18 1_555 1_555
C19 C18 1_555 1_555
O3 C19 1_555 1_555
C20 O3 1_555 1_555
H11 C20 1_555 1_555
H12 C20 1_555 1_555
H13 C20 1_555 1_555
C21 C14 1_555 1_555
C22 C21 1_555 1_555
C23 C22 1_555 1_555
C24 C15 1_555 1_555
C25 C22 1_555 1_555
H14 C25 1_555 1_555
C26 C25 1_555 1_555
H15 C26 1_555 1_555
C27 C26 1_555 1_555
H16 C27 1_555 1_555
C28 C23 1_555 1_555
H17 C28 1_555 1_555
C29 C8 1_555 1_555
H18 C29 1_555 1_555
C30 C29 1_555 1_555
H19 C30 1_555 1_555
C31 C30 1_555 1_555
H20 C31 1_555 1_555
C32 C7 1_555 1_555
C33 C32 1_555 1_555
C34 C33 1_555 1_555
O4 C1 1_555 1_555
C35 H21 1_555 1_555
H22 C35 1_555 1_555
H23 C35 1_555 1_555
C36 C34 1_555 1_555
H24 C36 1_555 1_555
C37 C36 1_555 1_555
O5 C35 1_555 1_555
C38 C37 1_555 1_555
C39 C33 1_555 1_555
C40 C6 1_555 1_555
C41 C24 1_555 1_555
C42 C41 1_555 1_555
C43 C38 1_555 1_555
C44 C43 1_555 1_555
H25 C44 1_555 1_555
C45 C44 1_555 1_555
H26 C45 1_555 1_555
C46 C45 1_555 1_555
H27 C46 1_555 1_555
C47 C42 1_555 1_555
H28 C47 1_555 1_555
C11 C12 1_555 1_555
C14 C15 1_555 1_555
C19 C21 1_555 1_555
C23 C24 1_555 1_555
C27 C28 1_555 1_555
C31 C32 1_555 1_555
C34 O4 1_555 1_555
C37 O5 1_555 1_555
C38 C39 1_555 1_555
C39 C40 1_555 1_555
C40 C41 1_555 1_555
C42 C43 1_555 1_555
C46 C47 1_555 1_555

#END
