
#######################################################################
#
#                 Cambridge Crystallographic Data Centre
#                                CCDC 
#
#######################################################################
#
# If this CIF has been generated from an entry in the Cambridge 
# Structural Database, then it will include bibliographic, chemical, 
# crystal, experimental, refinement or atomic coordinate data resulting 
# from the CCDC's data processing and validation procedures.
#
#######################################################################

data_AWUWIA
_chemical_formula_moiety         'C45 H24 O5,C1 H2 Cl2'
_chemical_name_systematic        
"11,12-dimethoxy-9H-dibenzo[fg,ij]dibenzo[3',4':6',7']cyclohepta[1',2':5,6]benzo[1,2,3,4-rst]pentaphene-9,14,23-trione dichloromethane solvate"
_symmetry_cell_setting           triclinic
_symmetry_space_group_name_H-M   'P -1'
_symmetry_Int_Tables_number      2
_space_group_name_Hall           '-P 1'
loop_
_symmetry_equiv_pos_site_id
_symmetry_equiv_pos_as_xyz
1 x,y,z
2 -x,-y,-z
_cell_length_a                   11.664(2)
_cell_length_b                   12.471(2)
_cell_length_c                   13.809(3)
_cell_angle_alpha                116.004(15)
_cell_angle_beta                 114.439(13)
_cell_angle_gamma                91.219(14)
_cell_volume                     1592.36
_exptl_crystal_colour            orange
_exptl_crystal_description       plate
_cell_formula_units_Z            2
loop_
_atom_site_label
_atom_site_type_symbol
_atom_site_fract_x
_atom_site_fract_y
_atom_site_fract_z
O1 O 0.1354(3) 0.0472(3) 0.4205(3)
C1 C 0.0955(4) 0.1354(4) 0.4155(4)
C2 C 0.0494(4) 0.2167(4) 0.4998(4)
C3 C 0.0769(4) 0.3462(3) 0.5478(4)
C4 C 0.1752(4) 0.4154(3) 0.5412(4)
C5 C 0.1852(4) 0.3795(4) 0.4355(4)
C6 C 0.0621(4) 0.1526(4) 0.3077(4)
C7 C -0.0330(5) 0.1615(4) 0.5225(4)
H1 H -0.0494 0.0749 0.4905
C8 C -0.0925(5) 0.2271(4) 0.5898(4)
H2 H -0.1457 0.1876 0.6074
C9 C -0.0719(4) 0.3533(4) 0.6311(4)
H3 H -0.1149 0.4003 0.6742
C10 C 0.0107(4) 0.4106(4) 0.6098(4)
H4 H 0.0226 0.4966 0.6383
C11 C 0.2531(4) 0.5344(3) 0.6461(4)
C12 C 0.2809(4) 0.5709(4) 0.7699(4)
C13 C 0.2850(4) 0.4827(4) 0.8097(4)
H5 H 0.2622 0.3977 0.7518
C14 C 0.3207(5) 0.5166(4) 0.9281(4)
H6 H 0.3233 0.4558 0.9523
C15 C 0.3536(5) 0.6420(4) 1.0146(4)
H7 H 0.3770 0.6661 1.0971
C16 C 0.3520(4) 0.7300(4) 0.9794(4)
H8 H 0.3740 0.8143 1.0388
C17 C 0.3185(4) 0.6988(4) 0.8581(4)
C18 C 0.3300(4) 0.7878(3) 0.8212(4)
C19 C 0.3336(4) 0.7500(3) 0.7110(4)
C20 C 0.3036(4) 0.6214(3) 0.6275(4)
C21 C 0.3461(4) 0.9224(4) 0.8981(4)
O2 O 0.3527(3) 0.9666(2) 0.9997(3)
C22 C 0.3453(4) 1.0002(4) 0.8446(4)
H9 H 0.3346 1.0811 0.8823
C23 C 0.3590(4) 0.9619(4) 0.7440(4)
O3 O 0.3474(3) 1.0241(2) 0.6816(2)
C24 C 0.3161(5) 1.1406(3) 0.7275(4)
H10 H 0.3074 1.1752 0.6741
H11 H 0.3855 1.1970 0.8102
H12 H 0.2339 1.1293 0.7297
C25 C 0.3734(4) 0.8370(3) 0.6827(3)
C26 C 0.4244(4) 0.8002(3) 0.6026(3)
C27 C 0.5179(4) 0.8846(3) 0.6054(4)
O4 O 0.5813(3) 0.9889(2) 0.7153(2)
C28 C 0.6824(5) 1.0732(4) 0.7299(4)
H13 H 0.6441 1.1038 0.6722
H14 H 0.7472 1.0301 0.7140
H15 H 0.7242 1.1426 0.8135
C29 C 0.5418(4) 0.8518(4) 0.5109(4)
H16 H 0.6005 0.9088 0.5141
C30 C 0.4801(5) 0.7311(4) 0.4040(4)
O5 O 0.4837(4) 0.7122(3) 0.3097(3)
C31 C 0.4168(4) 0.6335(4) 0.4142(4)
C32 C 0.3915(4) 0.6704(3) 0.5122(4)
C33 C 0.3825(4) 0.5031(4) 0.3263(3)
C34 C 0.4157(4) 0.4598(4) 0.2300(4)
H17 H 0.4526 0.5169 0.2163
C35 C 0.3946(4) 0.3356(4) 0.1567(4)
H18 H 0.4141 0.3073 0.0906
C36 C 0.3446(4) 0.2507(4) 0.1783(4)
H19 H 0.3351 0.1653 0.1299
C37 C 0.3095(4) 0.2896(4) 0.2684(4)
H20 H 0.2768 0.2307 0.2827
C38 C 0.3204(4) 0.4167(3) 0.3418(4)
C39 C 0.2769(4) 0.4566(4) 0.4321(4)
C40 C 0.3224(4) 0.5824(3) 0.5225(3)
C41 C 0.0906(4) 0.2693(4) 0.3180(4)
C42 C 0.0345(4) 0.2786(4) 0.2127(4)
H21 H 0.0505 0.3563 0.2175
C43 C -0.0457(5) 0.1745(4) 0.0988(4)
H22 H -0.0860 0.1830 0.0279
C44 C -0.0662(5) 0.0612(4) 0.0892(4)
H23 H -0.1174 -0.0094 0.0115
C45 C -0.0126(5) 0.0495(4) 0.1927(4)
H24 H -0.0265 -0.0294 0.1857
loop_
_geom_bond_atom_site_label_1
_geom_bond_atom_site_label_2
_geom_bond_site_symmetry_1
_geom_bond_site_symmetry_2
O1 C1 1_555 1_555
C1 C2 1_555 1_555
C2 C3 1_555 1_555
C3 C4 1_555 1_555
C4 C5 1_555 1_555
C5 C39 1_555 1_555
C6 C1 1_555 1_555
C7 C2 1_555 1_555
H1 C7 1_555 1_555
C8 C7 1_555 1_555
H2 C8 1_555 1_555
C9 C8 1_555 1_555
H3 C9 1_555 1_555
C10 C3 1_555 1_555
H4 C10 1_555 1_555
C11 C4 1_555 1_555
C12 C11 1_555 1_555
C13 C12 1_555 1_555
H5 C13 1_555 1_555
C14 C13 1_555 1_555
H6 C14 1_555 1_555
C15 C14 1_555 1_555
H7 C15 1_555 1_555
C16 C15 1_555 1_555
H8 C16 1_555 1_555
C17 C12 1_555 1_555
C18 C17 1_555 1_555
C19 C18 1_555 1_555
C20 C11 1_555 1_555
C21 C18 1_555 1_555
O2 C21 1_555 1_555
C22 C21 1_555 1_555
H9 C22 1_555 1_555
C23 C22 1_555 1_555
O3 C23 1_555 1_555
C24 O3 1_555 1_555
H10 C24 1_555 1_555
H11 C24 1_555 1_555
H12 C24 1_555 1_555
C25 C19 1_555 1_555
C26 C25 1_555 1_555
C27 C26 1_555 1_555
O4 C27 1_555 1_555
C28 O4 1_555 1_555
H13 C28 1_555 1_555
H14 C28 1_555 1_555
H15 C28 1_555 1_555
C29 C27 1_555 1_555
H16 C29 1_555 1_555
C30 C29 1_555 1_555
O5 C30 1_555 1_555
C31 C30 1_555 1_555
C32 C26 1_555 1_555
C33 C31 1_555 1_555
C34 C33 1_555 1_555
H17 C34 1_555 1_555
C35 C34 1_555 1_555
H18 C35 1_555 1_555
C36 C35 1_555 1_555
H19 C36 1_555 1_555
C37 C36 1_555 1_555
H20 C37 1_555 1_555
C38 C33 1_555 1_555
C39 C38 1_555 1_555
C40 C20 1_555 1_555
C41 C5 1_555 1_555
C42 C41 1_555 1_555
H21 C42 1_555 1_555
C43 C42 1_555 1_555
H22 C43 1_555 1_555
C44 C43 1_555 1_555
H23 C44 1_555 1_555
C45 C6 1_555 1_555
H24 C45 1_555 1_555
C6 C41 1_555 1_555
C9 C10 1_555 1_555
C16 C17 1_555 1_555
C19 C20 1_555 1_555
C23 C25 1_555 1_555
C31 C32 1_555 1_555
C32 C40 1_555 1_555
C37 C38 1_555 1_555
C39 C40 1_555 1_555
C44 C45 1_555 1_555

#END
