
#######################################################################
#
#                 Cambridge Crystallographic Data Centre
#                                CCDC 
#
#######################################################################
#
# If this CIF has been generated from an entry in the Cambridge 
# Structural Database, then it will include bibliographic, chemical, 
# crystal, experimental, refinement or atomic coordinate data resulting 
# from the CCDC's data processing and validation procedures.
#
#######################################################################

data_AXABAD03
_chemical_formula_moiety         'C18 H17 N1 O1'
_chemical_name_systematic        
2-{[4-(dimethylamino)phenyl]methylidene}-2,3-dihydro-1H-inden-1-one
_symmetry_cell_setting           monoclinic
_symmetry_space_group_name_H-M   'C 2/c'
_symmetry_Int_Tables_number      15
_space_group_name_Hall           '-C 2yn'
loop_
_symmetry_equiv_pos_site_id
_symmetry_equiv_pos_as_xyz
1 x,y,z
2 -x,y,1/2-z
3 1/2+x,1/2+y,z
4 1/2-x,1/2+y,1/2-z
5 -x,-y,-z
6 x,-y,1/2+z
7 1/2-x,1/2-y,-z
8 1/2+x,1/2-y,1/2+z
_cell_length_a                   13.4847(9)
_cell_length_b                   14.7060(9)
_cell_length_c                   14.6325(13)
_cell_angle_alpha                90
_cell_angle_beta                 102.934(7)
_cell_angle_gamma                90
_cell_volume                     2828.09
_exptl_crystal_colour            orange
_exptl_crystal_description       blocky
_cell_formula_units_Z            8
loop_
_atom_site_label
_atom_site_type_symbol
_atom_site_fract_x
_atom_site_fract_y
_atom_site_fract_z
C1 C 0.62263(16) 0.14142(14) 0.06005(16)
C2 C 0.51683(15) 0.15027(13) 0.01303(14)
C3 C 0.33698(16) 0.11562(14) -0.00589(15)
C4 C 0.43665(15) 0.10424(14) 0.03957(15)
C5 C 0.30946(15) 0.17356(13) -0.08357(14)
C6 C 0.66802(14) 0.09040(14) 0.13351(14)
O1 O 0.84152(11) 0.13998(12) 0.14376(12)
C7 C 0.38954(17) 0.22001(14) -0.11111(17)
C8 C 0.80051(15) 0.03608(14) 0.25715(15)
C9 C 0.48853(17) 0.20883(14) -0.06393(16)
C10 C 0.62248(16) 0.02524(16) 0.19207(15)
C11 C 0.77899(15) 0.09494(15) 0.17387(16)
N1 N 0.21047(13) 0.18283(11) -0.13009(13)
C12 C 0.71164(15) -0.00500(14) 0.26714(15)
C13 C 0.89212(18) 0.01989(19) 0.32234(19)
C14 C 0.18142(19) 0.24367(17) -0.20894(18)
H1 H 0.1977 0.3050 -0.1887
H2 H 0.1096 0.2387 -0.2345
H3 H 0.2177 0.2278 -0.2561
C15 C 0.12904(16) 0.13622(14) -0.09964(17)
H4 H 0.1405 0.0718 -0.0998
H5 H 0.0653 0.1503 -0.1416
H6 H 0.1273 0.1556 -0.0374
C16 C 0.71189(19) -0.06424(17) 0.34124(17)
C17 C 0.8023(2) -0.0798(2) 0.40479(19)
C18 C 0.8914(2) -0.03753(19) 0.39563(19)
H7 H 0.5845(15) -0.0261(14) 0.1541(14)
H8 H 0.5411(17) 0.2414(14) -0.0836(15)
H9 H 0.2847(16) 0.0855(14) 0.0156(14)
H10 H 0.5711(16) 0.0526(13) 0.2189(15)
H11 H 0.6674(15) 0.1810(14) 0.0336(14)
H12 H 0.4507(14) 0.0612(13) 0.0922(15)
H13 H 0.6493(17) -0.0934(16) 0.3455(16)
H14 H 0.805(2) -0.1188(17) 0.461(2)
H15 H 0.3750(16) 0.2597(15) -0.1626(16)
H16 H 0.9491(18) 0.0558(15) 0.3139(16)
H17 H 0.9540(19) -0.0491(14) 0.4442(17)
loop_
_geom_bond_atom_site_label_1
_geom_bond_atom_site_label_2
_geom_bond_site_symmetry_1
_geom_bond_site_symmetry_2
C1 C2 1_555 1_555
C2 C4 1_555 1_555
C3 C4 1_555 1_555
C4 H12 1_555 1_555
C5 C3 1_555 1_555
C6 C1 1_555 1_555
O1 C11 1_555 1_555
C7 C5 1_555 1_555
C8 C11 1_555 1_555
C9 C2 1_555 1_555
C10 C6 1_555 1_555
C11 C6 1_555 1_555
N1 C5 1_555 1_555
C12 C8 1_555 1_555
C13 C8 1_555 1_555
C14 N1 1_555 1_555
H1 C14 1_555 1_555
H2 C14 1_555 1_555
H3 C14 1_555 1_555
C15 N1 1_555 1_555
H4 C15 1_555 1_555
H5 C15 1_555 1_555
H6 C15 1_555 1_555
C16 C12 1_555 1_555
C17 C16 1_555 1_555
C18 C13 1_555 1_555
H7 C10 1_555 1_555
H8 C9 1_555 1_555
H9 C3 1_555 1_555
H10 C10 1_555 1_555
H11 C1 1_555 1_555
H13 C16 1_555 1_555
H14 C17 1_555 1_555
H15 C7 1_555 1_555
H16 C13 1_555 1_555
H17 C18 1_555 1_555
C7 C9 1_555 1_555
C10 C12 1_555 1_555
C17 C18 1_555 1_555

#END
