
#######################################################################
#
#                 Cambridge Crystallographic Data Centre
#                                CCDC 
#
#######################################################################
#
# If this CIF has been generated from an entry in the Cambridge 
# Structural Database, then it will include bibliographic, chemical, 
# crystal, experimental, refinement or atomic coordinate data resulting 
# from the CCDC's data processing and validation procedures.
#
#######################################################################

data_AXABAD01
_chemical_formula_moiety         'C18 H17 N1 O1'
_chemical_name_systematic        
(E)-2-(4-dimethylaminobenzylidene)-2,3-dihydro-1H-inden-1-one
_symmetry_cell_setting           orthorhombic
_symmetry_space_group_name_H-M   'P c a 21'
_symmetry_Int_Tables_number      29
_space_group_name_Hall           'P 2c -2ac'
loop_
_symmetry_equiv_pos_site_id
_symmetry_equiv_pos_as_xyz
1 x,y,z
2 -x,-y,1/2+z
3 1/2+x,-y,z
4 1/2-x,y,1/2+z
_cell_length_a                   29.998(2)
_cell_length_b                   5.8993(3)
_cell_length_c                   7.5350(4)
_cell_angle_alpha                90
_cell_angle_beta                 90
_cell_angle_gamma                90
_cell_volume                     1333.45
_exptl_crystal_colour            yellow
_exptl_crystal_description       plate
_cell_formula_units_Z            4
loop_
_atom_site_label
_atom_site_type_symbol
_atom_site_fract_x
_atom_site_fract_y
_atom_site_fract_z
O1 O 0.33603(6) 0.2570(3) 0.6450(3)
N1 N 0.58871(7) 0.9182(4) 0.5487(3)
C1 C 0.33592(9) 0.4375(4) 0.5641(4)
C2 C 0.37527(10) 0.5855(4) 0.5288(4)
C3 C 0.35974(9) 0.7947(4) 0.4305(4)
H1 H 0.3735 0.8039 0.3113
H2 H 0.3670 0.9342 0.4976
C4 C 0.27795(9) 0.9099(5) 0.3505(4)
H3 H 0.2865 1.0518 0.3017
C5 C 0.30982(9) 0.7614(4) 0.4171(4)
C6 C 0.23335(10) 0.8470(5) 0.3565(4)
H4 H 0.2113 0.9469 0.3113
C7 C 0.22072(9) 0.6391(4) 0.4282(4)
H5 H 0.1901 0.5985 0.4302
C8 C 0.25206(10) 0.4908(4) 0.4964(4)
H6 H 0.2434 0.3493 0.5459
C9 C 0.29666(9) 0.5559(4) 0.4900(4)
C10 C 0.45879(9) 0.6378(4) 0.5730(4)
C11 C 0.49578(10) 0.5314(4) 0.6514(4)
H7 H 0.4914 0.3916 0.7116
C12 C 0.53812(10) 0.6217(4) 0.6446(4)
H8 H 0.5621 0.5440 0.7000
C13 C 0.54618(9) 0.8278(4) 0.5562(4)
C14 C 0.50923(8) 0.9377(4) 0.4789(4)
H9 H 0.5134 1.0784 0.4199
C15 C 0.46709(9) 0.8447(4) 0.4873(4)
H10 H 0.4430 0.9230 0.4334
C16 C 0.41594(9) 0.5251(4) 0.5866(4)
H11 H 0.4168 0.3837 0.6469
C17 C 0.59776(9) 1.0999(5) 0.4236(4)
H12 H 0.6285 1.1526 0.4389
H13 H 0.5772 1.2258 0.4452
H14 H 0.5937 1.0438 0.3022
C18 C 0.62644(10) 0.7700(5) 0.5874(4)
H15 H 0.6543 0.8519 0.5657
H16 H 0.6251 0.6362 0.5106
H17 H 0.6252 0.7225 0.7119
loop_
_geom_bond_atom_site_label_1
_geom_bond_atom_site_label_2
_geom_bond_site_symmetry_1
_geom_bond_site_symmetry_2
O1 C1 1_555 1_555
N1 C13 1_555 1_555
C1 C2 1_555 1_555
C2 C3 1_555 1_555
C3 H1 1_555 1_555
H2 C3 1_555 1_555
C4 H3 1_555 1_555
C5 C3 1_555 1_555
C6 C4 1_555 1_555
H4 C6 1_555 1_555
C7 C6 1_555 1_555
H5 C7 1_555 1_555
C8 C7 1_555 1_555
H6 C8 1_555 1_555
C9 C1 1_555 1_555
C10 C11 1_555 1_555
C11 H7 1_555 1_555
C12 C11 1_555 1_555
H8 C12 1_555 1_555
C13 C12 1_555 1_555
C14 C13 1_555 1_555
H9 C14 1_555 1_555
C15 C10 1_555 1_555
H10 C15 1_555 1_555
C16 C2 1_555 1_555
H11 C16 1_555 1_555
C17 N1 1_555 1_555
H12 C17 1_555 1_555
H13 C17 1_555 1_555
H14 C17 1_555 1_555
C18 N1 1_555 1_555
H15 C18 1_555 1_555
H16 C18 1_555 1_555
H17 C18 1_555 1_555
C4 C5 1_555 1_555
C5 C9 1_555 1_555
C8 C9 1_555 1_555
C10 C16 1_555 1_555
C14 C15 1_555 1_555

#END
