
#######################################################################
#
#                 Cambridge Crystallographic Data Centre
#                                CCDC 
#
#######################################################################
#
# If this CIF has been generated from an entry in the Cambridge 
# Structural Database, then it will include bibliographic, chemical, 
# crystal, experimental, refinement or atomic coordinate data resulting 
# from the CCDC's data processing and validation procedures.
#
#######################################################################

data_AXADOT
_chemical_name_common            4-Chloro-N-(mesitylmethylene)aniline
_chemical_formula_moiety         'C16 H16 Cl1 N1'
_chemical_name_systematic        
(E)-4-Chloro-N-(2,4,6-trimethylbenzylidene)aniline
_symmetry_cell_setting           monoclinic
_symmetry_space_group_name_H-M   'P 21/c'
_symmetry_Int_Tables_number      14
_space_group_name_Hall           '-P 2ybc'
loop_
_symmetry_equiv_pos_site_id
_symmetry_equiv_pos_as_xyz
1 x,y,z
2 -x,1/2+y,1/2-z
3 -x,-y,-z
4 x,1/2-y,1/2+z
_cell_length_a                   7.198(2)
_cell_length_b                   12.398(4)
_cell_length_c                   15.865(5)
_cell_angle_alpha                90
_cell_angle_beta                 102.296(4)
_cell_angle_gamma                90
_cell_volume                     1383.33
_exptl_crystal_colour            colorless
_exptl_crystal_description       block
_cell_formula_units_Z            4
loop_
_atom_site_label
_atom_site_type_symbol
_atom_site_fract_x
_atom_site_fract_y
_atom_site_fract_z
C1 C 0.2061(3) 0.3177(2) -0.07427(15)
C2 C 0.1376(4) 0.3161(2) -0.16278(16)
H1 H 0.1204 0.2497 -0.1906
C3 C 0.0937(4) 0.4085(2) -0.21154(16)
C4 C 0.1175(3) 0.5063(2) -0.16925(16)
H2 H 0.0864 0.5692 -0.2010
C5 C 0.1867(3) 0.51398(19) -0.08065(15)
C6 C 0.2323(3) 0.41907(19) -0.03188(14)
C7 C 0.3158(3) 0.4292(2) 0.06073(15)
H3 H 0.3552 0.4976 0.0811
C8 C 0.2484(5) 0.2115(2) -0.02813(18)
H4 H 0.2283 0.1538 -0.0695
H5 H 0.1655 0.2022 0.0114
H6 H 0.3782 0.2107 0.0031
C9 C 0.0207(5) 0.4020(3) -0.30862(17)
H7 H 0.0000 0.4735 -0.3319
H8 H -0.0967 0.3626 -0.3210
H9 H 0.1129 0.3657 -0.3342
C10 C 0.2072(4) 0.6250(2) -0.04014(17)
H10 H 0.1588 0.6781 -0.0833
H11 H 0.3390 0.6392 -0.0163
H12 H 0.1367 0.6281 0.0048
C11 C 0.4309(4) 0.3741(2) 0.20165(15)
C12 C 0.5466(4) 0.2942(2) 0.24460(18)
H13 H 0.5584 0.2297 0.2162
C13 C 0.6456(4) 0.3073(2) 0.32874(18)
H14 H 0.7257 0.2532 0.3561
C14 C 0.6243(4) 0.4007(2) 0.37115(16)
C15 C 0.5060(4) 0.4801(2) 0.33155(17)
H15 H 0.4903 0.5429 0.3613
C16 C 0.4093(4) 0.4668(2) 0.24666(17)
H16 H 0.3289 0.5211 0.2198
Cl1 Cl 0.74755(12) 0.41813(6) 0.47717(5)
N1 N 0.3387(3) 0.35391(18) 0.11479(13)
loop_
_geom_bond_atom_site_label_1
_geom_bond_atom_site_label_2
_geom_bond_site_symmetry_1
_geom_bond_site_symmetry_2
C1 C2 1_555 1_555
C2 H1 1_555 1_555
C3 C2 1_555 1_555
C4 C3 1_555 1_555
H2 C4 1_555 1_555
C5 C4 1_555 1_555
C6 C1 1_555 1_555
C7 C6 1_555 1_555
H3 C7 1_555 1_555
C8 C1 1_555 1_555
H4 C8 1_555 1_555
H5 C8 1_555 1_555
H6 C8 1_555 1_555
C9 C3 1_555 1_555
H7 C9 1_555 1_555
H8 C9 1_555 1_555
H9 C9 1_555 1_555
C10 C5 1_555 1_555
H10 C10 1_555 1_555
H11 C10 1_555 1_555
H12 C10 1_555 1_555
C11 C12 1_555 1_555
C12 H13 1_555 1_555
C13 C12 1_555 1_555
H14 C13 1_555 1_555
C14 C13 1_555 1_555
C15 C14 1_555 1_555
H15 C15 1_555 1_555
C16 C11 1_555 1_555
H16 C16 1_555 1_555
Cl1 C14 1_555 1_555
N1 C7 1_555 1_555
C5 C6 1_555 1_555
C11 N1 1_555 1_555
C15 C16 1_555 1_555

#END
