
#######################################################################
#
#                 Cambridge Crystallographic Data Centre
#                                CCDC 
#
#######################################################################
#
# If this CIF has been generated from an entry in the Cambridge 
# Structural Database, then it will include bibliographic, chemical, 
# crystal, experimental, refinement or atomic coordinate data resulting 
# from the CCDC's data processing and validation procedures.
#
#######################################################################

data_AXAGAI
_chemical_formula_moiety         'C16 H20 N1 O4 P1'
_chemical_name_systematic        
'Ethyl ((benzylammonio)(2-hydroxyphenyl)methyl)phosphonate'
_symmetry_cell_setting           monoclinic
_symmetry_space_group_name_H-M   'C 2/c'
_symmetry_Int_Tables_number      15
_space_group_name_Hall           '-C 2yn'
loop_
_symmetry_equiv_pos_site_id
_symmetry_equiv_pos_as_xyz
1 x,y,z
2 -x,y,1/2-z
3 1/2+x,1/2+y,z
4 1/2-x,1/2+y,1/2-z
5 -x,-y,-z
6 x,-y,1/2+z
7 1/2-x,1/2-y,-z
8 1/2+x,1/2-y,1/2+z
_cell_length_a                   28.069(3)
_cell_length_b                   6.0927(7)
_cell_length_c                   22.333(3)
_cell_angle_alpha                90
_cell_angle_beta                 124.464(2)
_cell_angle_gamma                90
_cell_volume                     3148.94
_exptl_crystal_colour            colorless
_exptl_crystal_description       block
_cell_formula_units_Z            8
loop_
_atom_site_label
_atom_site_type_symbol
_atom_site_fract_x
_atom_site_fract_y
_atom_site_fract_z
P1 P 0.17738(3) 0.87761(11) 0.22830(4)
O1 O 0.11541(7) 0.8149(3) 0.20942(10)
N1 N 0.23047(10) 0.8251(4) 0.15689(12)
O2 O 0.22470(8) 0.7684(3) 0.29547(9)
C1 C 0.17490(11) 0.7697(4) 0.14969(13)
H1 H 0.1735 0.6094 0.1520
C2 C 0.12149(11) 0.8387(4) 0.07710(13)
O3 O 0.17840(8) 1.1221(3) 0.22305(10)
O4 O 0.15309(10) 1.2130(3) 0.08789(11)
H2 H 0.1652 1.2047 0.1309
C3 C 0.28397(12) 0.7998(5) 0.09779(14)
C4 C 0.06502(13) 1.1018(5) -0.01849(15)
H3 H 0.0610 1.2415 -0.0376
C5 C 0.23072(12) 0.7379(5) 0.09411(15)
H4 H 0.2277 0.5791 0.0932
H5 H 0.1971 0.7936 0.0492
C6 C 0.07828(12) 0.6856(5) 0.03567(15)
H6 H 0.0826 0.5438 0.0535
C7 C 0.11301(12) 1.0518(4) 0.04989(15)
C8 C 0.02300(13) 0.9456(5) -0.05861(16)
H7 H -0.0095 0.9812 -0.1042
C9 C 0.32831(13) 0.6516(5) 0.12183(16)
H8 H 0.3259 0.5144 0.1382
C10 C 0.02899(12) 0.7382(5) -0.03144(16)
H9 H 0.0002 0.6339 -0.0578
C11 C 0.38007(15) 0.9030(7) 0.09799(19)
H10 H 0.4122 0.9375 0.0978
C12 C 0.28884(14) 1.0027(5) 0.07376(17)
H11 H 0.2595 1.1056 0.0572
C13 C 0.10333(14) 0.5962(5) 0.2229(2)
H12 H 0.1335 0.5506 0.2718
H13 H 0.1024 0.4934 0.1890
C14 C 0.04702(15) 0.5964(7) 0.2139(2)
H14 H 0.0485 0.6956 0.2483
H15 H 0.0386 0.4511 0.2220
H16 H 0.0173 0.6426 0.1655
C15 C 0.33690(16) 1.0534(6) 0.07413(19)
H17 H 0.3399 1.1903 0.0581
C16 C 0.37635(15) 0.7037(6) 0.12200(19)
H18 H 0.4060 0.6021 0.1386
H19 H 0.2628(13) 0.754(4) 0.1997(16)
H20 H 0.2378(11) 0.963(4) 0.1627(14)
loop_
_geom_bond_atom_site_label_1
_geom_bond_atom_site_label_2
_geom_bond_site_symmetry_1
_geom_bond_site_symmetry_2
P1 O1 1_555 1_555
O1 C13 1_555 1_555
N1 C1 1_555 1_555
O2 P1 1_555 1_555
C1 P1 1_555 1_555
H1 C1 1_555 1_555
C2 C1 1_555 1_555
O3 P1 1_555 1_555
O4 H2 1_555 1_555
C3 C5 1_555 1_555
C4 H3 1_555 1_555
C5 N1 1_555 1_555
H4 C5 1_555 1_555
H5 C5 1_555 1_555
C6 C2 1_555 1_555
H6 C6 1_555 1_555
C7 C2 1_555 1_555
C8 C4 1_555 1_555
H7 C8 1_555 1_555
C9 C3 1_555 1_555
H8 C9 1_555 1_555
C10 C6 1_555 1_555
H9 C10 1_555 1_555
C11 H10 1_555 1_555
C12 C3 1_555 1_555
H11 C12 1_555 1_555
C13 H12 1_555 1_555
H13 C13 1_555 1_555
C14 C13 1_555 1_555
H14 C14 1_555 1_555
H15 C14 1_555 1_555
H16 C14 1_555 1_555
C15 C11 1_555 1_555
H17 C15 1_555 1_555
C16 C9 1_555 1_555
H18 C16 1_555 1_555
H19 N1 1_555 1_555
H20 N1 1_555 1_555
O4 C7 1_555 1_555
C4 C7 1_555 1_555
C8 C10 1_555 1_555
C11 C16 1_555 1_555
C12 C15 1_555 1_555

#END
