
#######################################################################
#
#                 Cambridge Crystallographic Data Centre
#                                CCDC 
#
#######################################################################
#
# If this CIF has been generated from an entry in the Cambridge 
# Structural Database, then it will include bibliographic, chemical, 
# crystal, experimental, refinement or atomic coordinate data resulting 
# from the CCDC's data processing and validation procedures.
#
#######################################################################

data_AXAHIS
_chemical_formula_moiety         'C12 H14 N1 O1 1+,H2 O1,Br1 1-'
_chemical_name_systematic        
'1-ethyl-6-methoxyquinolinium bromide monohydrate'
_symmetry_cell_setting           monoclinic
_symmetry_space_group_name_H-M   'P 21/n'
_symmetry_Int_Tables_number      14
_space_group_name_Hall           '-P 2yn'
loop_
_symmetry_equiv_pos_site_id
_symmetry_equiv_pos_as_xyz
1 x,y,z
2 1/2-x,1/2+y,1/2-z
3 -x,-y,-z
4 1/2+x,1/2-y,1/2+z
_cell_length_a                   9.7890(8)
_cell_length_b                   12.5062(11)
_cell_length_c                   10.3991(9)
_cell_angle_alpha                90
_cell_angle_beta                 91.746(7)
_cell_angle_gamma                90
_cell_volume                     1272.5
_cell_formula_units_Z            4
loop_
_atom_site_label
_atom_site_type_symbol
_atom_site_fract_x
_atom_site_fract_y
_atom_site_fract_z
Br1 Br 0.82219(4) 0.35380(3) 0.40980(3)
O1 O 0.8596(2) -0.07722(18) 0.5463(2)
N1 N 0.4592(2) 0.23085(19) 0.4930(2)
C1 C 0.5606(3) 0.1552(2) 0.5048(3)
C2 C 0.6215(3) 0.1279(2) 0.6258(3)
H1 H 0.5946 0.1623 0.7001
C3 C 0.9148(4) -0.1314(3) 0.4385(4)
H2 H 0.9553 -0.0802 0.3824
H3 H 0.8430 -0.1689 0.3926
H4 H 0.9832 -0.1814 0.4682
C4 C 0.7046(3) 0.0212(2) 0.4043(3)
H5 H 0.7326 -0.0146 0.3313
C5 C 0.7189(3) 0.0514(2) 0.6322(3)
H6 H 0.7586 0.0338 0.7118
C6 C 0.7620(3) -0.0023(2) 0.5219(3)
C7 C 0.3988(3) 0.2513(3) 0.3796(3)
H7 H 0.3300 0.3026 0.3745
C8 C 0.6021(3) 0.1003(2) 0.3945(2)
C9 C 0.5358(3) 0.1242(2) 0.2757(3)
H8 H 0.5613 0.0889 0.2015
C10 C 0.4348(3) 0.1988(3) 0.2693(3)
H9 H 0.3904 0.2141 0.1912
C11 C 0.4153(3) 0.2927(3) 0.6070(3)
H10 H 0.4067 0.2446 0.6794
H11 H 0.3263 0.3241 0.5882
C12 C 0.5150(4) 0.3797(3) 0.6425(4)
H12 H 0.5251 0.4267 0.5704
H13 H 0.6019 0.3486 0.6658
H14 H 0.4817 0.4195 0.7140
O2 O 0.8457(3) 0.5874(3) 0.5571(3)
H15 H 0.838(4) 0.5290(19) 0.519(3)
H16 H 0.928(2) 0.598(4) 0.573(4)
loop_
_geom_bond_atom_site_label_1
_geom_bond_atom_site_label_2
_geom_bond_site_symmetry_1
_geom_bond_site_symmetry_2
O1 C3 1_555 1_555
N1 C1 1_555 1_555
C1 C2 1_555 1_555
C2 H1 1_555 1_555
C3 H2 1_555 1_555
H3 C3 1_555 1_555
H4 C3 1_555 1_555
C4 H5 1_555 1_555
C5 C2 1_555 1_555
H6 C5 1_555 1_555
C6 O1 1_555 1_555
C7 N1 1_555 1_555
H7 C7 1_555 1_555
C8 C1 1_555 1_555
C9 C8 1_555 1_555
H8 C9 1_555 1_555
C10 C7 1_555 1_555
H9 C10 1_555 1_555
C11 N1 1_555 1_555
H10 C11 1_555 1_555
H11 C11 1_555 1_555
C12 C11 1_555 1_555
H12 C12 1_555 1_555
H13 C12 1_555 1_555
H14 C12 1_555 1_555
O2 H15 1_555 1_555
H16 O2 1_555 1_555
C4 C6 1_555 1_555
C4 C8 1_555 1_555
C5 C6 1_555 1_555
C9 C10 1_555 1_555

#END
