
#######################################################################
#
#                 Cambridge Crystallographic Data Centre
#                                CCDC 
#
#######################################################################
#
# If this CIF has been generated from an entry in the Cambridge 
# Structural Database, then it will include bibliographic, chemical, 
# crystal, experimental, refinement or atomic coordinate data resulting 
# from the CCDC's data processing and validation procedures.
#
#######################################################################

data_AXAHOY
_chemical_formula_moiety         'C14 H12 Cl1 N1'
_chemical_name_systematic        9-(2-chloroethyl)-9H-carbazole
_symmetry_cell_setting           monoclinic
_symmetry_space_group_name_H-M   'P 21/c'
_symmetry_Int_Tables_number      14
_space_group_name_Hall           '-P 2ybc'
loop_
_symmetry_equiv_pos_site_id
_symmetry_equiv_pos_as_xyz
1 x,y,z
2 -x,1/2+y,1/2-z
3 -x,-y,-z
4 x,1/2-y,1/2+z
_cell_length_a                   5.3267(7)
_cell_length_b                   12.3539(16)
_cell_length_c                   17.375(3)
_cell_angle_alpha                90
_cell_angle_beta                 95.587(12)
_cell_angle_gamma                90
_cell_volume                     1137.94
_cell_formula_units_Z            4
loop_
_atom_site_label
_atom_site_type_symbol
_atom_site_fract_x
_atom_site_fract_y
_atom_site_fract_z
Cl1 Cl 0.74992(13) -0.06588(6) 0.92765(5)
N1 N 0.5463(3) 0.12014(16) 0.80912(11)
C1 C 0.7420(4) 0.19217(19) 0.83149(14)
C2 C 0.8505(4) 0.22628(18) 0.76565(14)
C3 C 0.7143(4) 0.17391(18) 0.69942(14)
C4 C 1.0516(4) 0.2989(2) 0.77363(17)
H1 H 1.1268 0.3228 0.7306
C5 C 0.3519(4) 0.05264(19) 0.68087(15)
H2 H 0.2275 0.0109 0.7005
C6 C 0.5262(4) 0.11097(18) 0.72976(13)
C7 C 0.7302(5) 0.1762(2) 0.62022(15)
H3 H 0.8557 0.2161 0.5996
C8 C 1.0244(5) 0.3001(2) 0.91103(19)
H4 H 1.0843 0.3264 0.9595
C9 C 0.3842(4) 0.0679(2) 0.85946(16)
H5 H 0.2112 0.0728 0.8365
H6 H 0.3953 0.1063 0.9084
C10 C 0.3705(5) 0.0591(2) 0.60325(16)
H7 H 0.2536 0.0222 0.5697
C11 C 0.5573(5) 0.1185(2) 0.57279(16)
H8 H 0.5661 0.1194 0.5196
C12 C 0.4489(5) -0.0499(2) 0.87472(16)
H9 H 0.4475 -0.0879 0.8258
H10 H 0.3212 -0.0824 0.9036
C13 C 1.1364(5) 0.3346(2) 0.8467(2)
H11 H 1.2713 0.3827 0.8529
C14 C 0.8270(5) 0.2281(2) 0.90498(16)
H12 H 0.7535 0.2045 0.9484
loop_
_geom_bond_atom_site_label_1
_geom_bond_atom_site_label_2
_geom_bond_site_symmetry_1
_geom_bond_site_symmetry_2
Cl1 C12 1_555 1_555
N1 C1 1_555 1_555
C1 C2 1_555 1_555
C2 C3 1_555 1_555
C3 C6 1_555 1_555
C4 C2 1_555 1_555
H1 C4 1_555 1_555
C5 H2 1_555 1_555
C6 N1 1_555 1_555
C7 C3 1_555 1_555
H3 C7 1_555 1_555
C8 H4 1_555 1_555
C9 N1 1_555 1_555
H5 C9 1_555 1_555
H6 C9 1_555 1_555
C10 C5 1_555 1_555
H7 C10 1_555 1_555
C11 C7 1_555 1_555
H8 C11 1_555 1_555
C12 C9 1_555 1_555
H9 C12 1_555 1_555
H10 C12 1_555 1_555
C13 C4 1_555 1_555
H11 C13 1_555 1_555
C14 C1 1_555 1_555
H12 C14 1_555 1_555
C5 C6 1_555 1_555
C8 C13 1_555 1_555
C8 C14 1_555 1_555
C10 C11 1_555 1_555

#END
