
#######################################################################
#
#                 Cambridge Crystallographic Data Centre
#                                CCDC 
#
#######################################################################
#
# If this CIF has been generated from an entry in the Cambridge 
# Structural Database, then it will include bibliographic, chemical, 
# crystal, experimental, refinement or atomic coordinate data resulting 
# from the CCDC's data processing and validation procedures.
#
#######################################################################

data_AXAJEQ
_chemical_formula_moiety         'C11 H12 N1 1+,F6 P1 1-'
_chemical_name_systematic        '1-ethylquinolinium hexafluorophosphate'
_symmetry_cell_setting           triclinic
_symmetry_space_group_name_H-M   'P -1'
_symmetry_Int_Tables_number      2
_space_group_name_Hall           '-P 1'
loop_
_symmetry_equiv_pos_site_id
_symmetry_equiv_pos_as_xyz
1 x,y,z
2 -x,-y,-z
_cell_length_a                   6.9573(9)
_cell_length_b                   8.2064(11)
_cell_length_c                   11.7459(10)
_cell_angle_alpha                78.273(9)
_cell_angle_beta                 85.744(9)
_cell_angle_gamma                74.308(11)
_cell_volume                     632.023
_exptl_crystal_description       block
_cell_formula_units_Z            2
loop_
_atom_site_label
_atom_site_type_symbol
_atom_site_fract_x
_atom_site_fract_y
_atom_site_fract_z
P1 P 0.11362(10) 0.76736(8) 0.22177(5)
F1 F 0.1107(4) 0.6084(3) 0.3201(2)
F2 F 0.0666(4) 0.8852(3) 0.3168(2)
F3 F 0.1163(4) 0.9298(3) 0.1246(2)
F4 F 0.1566(4) 0.6523(3) 0.1267(2)
F5 F 0.3427(3) 0.7445(4) 0.2362(2)
F6 F -0.1177(3) 0.7971(4) 0.2094(2)
N1 N 0.6058(3) 0.2130(2) 0.18969(17)
C1 C 0.5151(3) 0.2167(3) 0.29795(19)
C2 C 0.5938(4) 0.2880(3) 0.3780(2)
C3 C 0.3633(5) 0.2688(4) 0.0337(3)
H1 H 0.3159 0.2163 -0.0207
H2 H 0.4111 0.3641 -0.0077
H3 H 0.2561 0.3093 0.0858
C4 C 0.5306(4) 0.1381(3) 0.1022(2)
H4 H 0.4835 0.0398 0.1415
H5 H 0.6390 0.0979 0.0494
C5 C 0.7570(4) 0.3583(4) 0.3414(3)
H6 H 0.8104 0.4065 0.3926
C6 C 0.7600(4) 0.2794(4) 0.1599(3)
H7 H 0.8190 0.2739 0.0866
C7 C 0.8365(4) 0.3565(4) 0.2339(3)
H8 H 0.9414 0.4063 0.2095
C8 C 0.3472(4) 0.1511(3) 0.3307(2)
H9 H 0.2935 0.1044 0.2788
C9 C 0.2649(5) 0.1571(4) 0.4388(3)
H10 H 0.1533 0.1151 0.4599
C10 C 0.5052(5) 0.2866(4) 0.4899(3)
H11 H 0.5586 0.3290 0.5444
C11 C 0.3437(5) 0.2245(4) 0.5190(3)
H12 H 0.2848 0.2266 0.5926
loop_
_geom_bond_atom_site_label_1
_geom_bond_atom_site_label_2
_geom_bond_site_symmetry_1
_geom_bond_site_symmetry_2
P1 F1 1_555 1_555
F2 P1 1_555 1_555
F3 P1 1_555 1_555
F4 P1 1_555 1_555
F5 P1 1_555 1_555
F6 P1 1_555 1_555
N1 C1 1_555 1_555
C1 C2 1_555 1_555
C2 C5 1_555 1_555
C3 H1 1_555 1_555
H2 C3 1_555 1_555
H3 C3 1_555 1_555
C4 N1 1_555 1_555
H4 C4 1_555 1_555
H5 C4 1_555 1_555
C5 H6 1_555 1_555
C6 N1 1_555 1_555
H7 C6 1_555 1_555
C7 C5 1_555 1_555
H8 C7 1_555 1_555
C8 C1 1_555 1_555
H9 C8 1_555 1_555
C9 C8 1_555 1_555
H10 C9 1_555 1_555
C10 C2 1_555 1_555
H11 C10 1_555 1_555
C11 C9 1_555 1_555
H12 C11 1_555 1_555
C3 C4 1_555 1_555
C6 C7 1_555 1_555
C10 C11 1_555 1_555

#END
