
#######################################################################
#
#                 Cambridge Crystallographic Data Centre
#                                CCDC 
#
#######################################################################
#
# If this CIF has been generated from an entry in the Cambridge 
# Structural Database, then it will include bibliographic, chemical, 
# crystal, experimental, refinement or atomic coordinate data resulting 
# from the CCDC's data processing and validation procedures.
#
#######################################################################

data_AXAJUG
_chemical_formula_moiety         'C11 H12 N1 1+,H2 O1,Br1 1-'
_chemical_name_systematic        '1-ethylquinolinium bromide monohydrate'
_symmetry_cell_setting           triclinic
_symmetry_space_group_name_H-M   'P -1'
_symmetry_Int_Tables_number      2
_space_group_name_Hall           '-P 1'
loop_
_symmetry_equiv_pos_site_id
_symmetry_equiv_pos_as_xyz
1 x,y,z
2 -x,-y,-z
_cell_length_a                   7.9102(9)
_cell_length_b                   8.4568(9)
_cell_length_c                   9.3598(7)
_cell_angle_alpha                94.319(7)
_cell_angle_beta                 104.239(8)
_cell_angle_gamma                109.133(10)
_cell_volume                     564.99
_cell_formula_units_Z            2
loop_
_atom_site_label
_atom_site_type_symbol
_atom_site_fract_x
_atom_site_fract_y
_atom_site_fract_z
Br1 Br 0.77623(6) 0.10490(5) 0.69399(4)
N1 N 0.3011(4) 0.2623(3) 0.7286(3)
C1 C 0.2477(4) 0.2396(4) 0.9682(3)
C2 C 0.2454(5) 0.5674(4) 0.9947(4)
H1 H 0.2444 0.6773 1.0050
C3 C 0.3240(5) 0.3540(4) 0.6017(3)
H2 H 0.3961 0.3119 0.5490
H3 H 0.3928 0.4740 0.6399
C4 C 0.2510(5) 0.0744(4) 0.9521(4)
H4 H 0.2345 0.0099 1.0272
C5 C 0.2731(4) 0.3357(4) 0.8536(3)
C6 C 0.2725(5) 0.5016(4) 0.8686(3)
H5 H 0.2903 0.5658 0.7935
C7 C 0.1402(6) 0.3318(5) 0.4956(4)
H6 H 0.1596 0.3993 0.4190
H7 H 0.0658 0.3674 0.5487
H8 H 0.0767 0.2144 0.4507
C8 C 0.2781(6) 0.0095(5) 0.8270(4)
H9 H 0.2804 -0.0999 0.8154
C9 C 0.2191(5) 0.4731(5) 1.1095(4)
H10 H 0.2012 0.5211 1.1947
C10 C 0.2196(5) 0.3132(4) 1.0973(4)
H11 H 0.2014 0.2512 1.1737
C11 C 0.3024(5) 0.1061(4) 0.7168(4)
H12 H 0.3203 0.0599 0.6309
O1 O 0.6016(5) 0.2421(4) 0.3868(4)
H13 H 0.643(7) 0.214(6) 0.467(3)
H14 H 0.504(4) 0.154(4) 0.353(4)
loop_
_geom_bond_atom_site_label_1
_geom_bond_atom_site_label_2
_geom_bond_site_symmetry_1
_geom_bond_site_symmetry_2
N1 C3 1_555 1_555
C1 C4 1_555 1_555
C2 H1 1_555 1_555
C3 H2 1_555 1_555
H3 C3 1_555 1_555
C4 H4 1_555 1_555
C5 N1 1_555 1_555
C6 C2 1_555 1_555
H5 C6 1_555 1_555
C7 C3 1_555 1_555
H6 C7 1_555 1_555
H7 C7 1_555 1_555
H8 C7 1_555 1_555
C8 C4 1_555 1_555
H9 C8 1_555 1_555
C9 C2 1_555 1_555
H10 C9 1_555 1_555
C10 C1 1_555 1_555
H11 C10 1_555 1_555
C11 N1 1_555 1_555
H12 C11 1_555 1_555
O1 H13 1_555 1_555
H14 O1 1_555 1_555
C1 C5 1_555 1_555
C5 C6 1_555 1_555
C8 C11 1_555 1_555
C9 C10 1_555 1_555

#END
