
#######################################################################
#
#                 Cambridge Crystallographic Data Centre
#                                CCDC 
#
#######################################################################
#
# If this CIF has been generated from an entry in the Cambridge 
# Structural Database, then it will include bibliographic, chemical, 
# crystal, experimental, refinement or atomic coordinate data resulting 
# from the CCDC's data processing and validation procedures.
#
#######################################################################

data_AXAJAM
_chemical_formula_moiety         'C16 H16 I1 N1'
_chemical_name_systematic        9-(4-iodobutyl)-9H-carbazole
_symmetry_cell_setting           orthorhombic
_symmetry_space_group_name_H-M   'P b c a'
_symmetry_Int_Tables_number      61
_space_group_name_Hall           '-P 2ac 2ab'
loop_
_symmetry_equiv_pos_site_id
_symmetry_equiv_pos_as_xyz
1 x,y,z
2 1/2-x,-y,1/2+z
3 1/2+x,1/2-y,-z
4 -x,1/2+y,1/2-z
5 -x,-y,-z
6 1/2+x,y,1/2-z
7 1/2-x,1/2+y,z
8 x,1/2-y,1/2+z
_cell_length_a                   16.4326(17)
_cell_length_b                   7.7795(5)
_cell_length_c                   22.582(2)
_cell_angle_alpha                90
_cell_angle_beta                 90
_cell_angle_gamma                90
_cell_volume                     2886.82
_cell_formula_units_Z            8
loop_
_atom_site_label
_atom_site_type_symbol
_atom_site_fract_x
_atom_site_fract_y
_atom_site_fract_z
I1 I 0.15649(2) 0.18671(4) 0.49446(2)
N1 N 0.0782(2) -0.5359(4) 0.36085(14)
C1 C 0.1139(3) -0.3901(5) 0.39163(19)
H1 H 0.1724 -0.4055 0.3934
H2 H 0.0937 -0.3882 0.4320
C2 C -0.0101(2) -0.7447(5) 0.33335(18)
C3 C 0.0044(2) -0.6099(5) 0.37394(18)
C4 C 0.0957(3) -0.2194(5) 0.3630(2)
H3 H 0.0374 -0.1997 0.3634
H4 H 0.1133 -0.2224 0.3220
C5 C 0.1114(2) -0.6184(5) 0.31267(17)
C6 C 0.0583(3) -0.7495(5) 0.29403(18)
C7 C 0.1850(3) -0.5903(5) 0.2839(2)
H5 H 0.2207 -0.5055 0.2968
C8 C -0.0818(3) -0.8400(6) 0.3384(3)
H6 H -0.0927 -0.9299 0.3124
C9 C 0.1394(3) -0.0679(6) 0.3955(2)
H7 H 0.1939 -0.1027 0.4068
H8 H 0.1438 0.0300 0.3691
C10 C -0.1359(4) -0.7982(9) 0.3824(3)
H9 H -0.1839 -0.8608 0.3862
C11 C 0.2033(3) -0.6913(6) 0.2359(2)
H10 H 0.2518 -0.6734 0.2156
C12 C -0.1204(3) -0.6642(9) 0.4216(3)
H11 H -0.1583 -0.6388 0.4509
C13 C 0.0934(3) -0.0195(6) 0.4480(2)
H12 H 0.0877 -0.1182 0.4740
H13 H 0.0394 0.0185 0.4366
C14 C 0.0792(3) -0.8488(5) 0.2457(2)
H14 H 0.0445 -0.9353 0.2326
C15 C -0.0505(3) -0.5688(7) 0.4180(2)
H15 H -0.0403 -0.4794 0.4444
C16 C 0.1509(4) -0.8195(7) 0.2172(3)
H16 H 0.1648 -0.8866 0.1847
loop_
_geom_bond_atom_site_label_1
_geom_bond_atom_site_label_2
_geom_bond_site_symmetry_1
_geom_bond_site_symmetry_2
I1 C13 1_555 1_555
N1 C1 1_555 1_555
C1 H1 1_555 1_555
H2 C1 1_555 1_555
C2 C3 1_555 1_555
C3 N1 1_555 1_555
C4 C1 1_555 1_555
H3 C4 1_555 1_555
H4 C4 1_555 1_555
C5 N1 1_555 1_555
C6 C2 1_555 1_555
C7 C5 1_555 1_555
H5 C7 1_555 1_555
C8 C2 1_555 1_555
H6 C8 1_555 1_555
C9 C4 1_555 1_555
H7 C9 1_555 1_555
H8 C9 1_555 1_555
C10 C8 1_555 1_555
H9 C10 1_555 1_555
C11 C7 1_555 1_555
H10 C11 1_555 1_555
C12 C10 1_555 1_555
H11 C12 1_555 1_555
C13 C9 1_555 1_555
H12 C13 1_555 1_555
H13 C13 1_555 1_555
C14 C6 1_555 1_555
H14 C14 1_555 1_555
C15 C3 1_555 1_555
H15 C15 1_555 1_555
C16 C11 1_555 1_555
H16 C16 1_555 1_555
C5 C6 1_555 1_555
C12 C15 1_555 1_555
C14 C16 1_555 1_555

#END
