
#######################################################################
#
#                 Cambridge Crystallographic Data Centre
#                                CCDC 
#
#######################################################################
#
# If this CIF has been generated from an entry in the Cambridge 
# Structural Database, then it will include bibliographic, chemical, 
# crystal, experimental, refinement or atomic coordinate data resulting 
# from the CCDC's data processing and validation procedures.
#
#######################################################################

data_AXAKER
_chemical_formula_moiety         'C12 H11 F3 N1 1+,I1 1-'
_chemical_name_systematic        '1-ethyl-6-(trifluoromethyl)quinolinium iodide'
_symmetry_cell_setting           orthorhombic
_symmetry_space_group_name_H-M   'P n m a'
_symmetry_Int_Tables_number      62
_space_group_name_Hall           '-P 2ac 2n'
loop_
_symmetry_equiv_pos_site_id
_symmetry_equiv_pos_as_xyz
1 x,y,z
2 1/2-x,-y,1/2+z
3 1/2+x,1/2-y,1/2-z
4 -x,1/2+y,-z
5 -x,-y,-z
6 1/2+x,y,1/2-z
7 1/2-x,1/2+y,1/2+z
8 x,1/2-y,z
_cell_length_a                   15.8119(12)
_cell_length_b                   7.3074(4)
_cell_length_c                   11.4308(5)
_cell_angle_alpha                90
_cell_angle_beta                 90
_cell_angle_gamma                90
_cell_volume                     1320.76
_exptl_crystal_description       block
_cell_formula_units_Z            4
loop_
_atom_site_label
_atom_site_type_symbol
_atom_site_fract_x
_atom_site_fract_y
_atom_site_fract_z
F1 F 0.4025(4) 0.7500 0.7897(5)
F2 F 0.4880(3) 0.6101(6) 0.8843(4)
N1 N 0.7085(3) 0.7500 0.4378(4)
C1 C 0.6797(4) 0.7500 0.3295(5)
H1 H 0.7179 0.7500 0.2676
C2 C 0.5942(4) 0.7500 0.3059(6)
H2 H 0.5756 0.7500 0.2287
C3 C 0.5369(4) 0.7500 0.3942(6)
H3 H 0.4792 0.7500 0.3782
C4 C 0.5662(4) 0.7500 0.5102(5)
C5 C 0.5101(4) 0.7500 0.6073(5)
H4 H 0.4520 0.7500 0.5942
C6 C 0.5392(4) 0.7500 0.7176(5)
C7 C 0.6277(4) 0.7500 0.7380(5)
H5 H 0.6476 0.7500 0.8145
C8 C 0.6837(4) 0.7500 0.6482(5)
H6 H 0.7416 0.7500 0.6631
C9 C 0.6539(3) 0.7500 0.5325(4)
C10 C 0.4823(5) 0.7500 0.8200(7)
C11 C 0.8016(4) 0.7500 0.4618(5)
H7 H 0.8150 0.8570 0.5084
C12 C 0.8570(4) 0.7500 0.3557(6)
H8 H 0.9152 0.7500 0.3795
H9 H 0.8456 0.6427 0.3099
H7G H 0.8150 0.6430 0.5084
F2G F 0.4880(3) 0.8899(6) 0.8843(4)
H9G H 0.8456 0.8573 0.3099
I1 I 0.77455(3) 0.7500 0.01750(3)
H10? H 0.8150 0.8570 0.5084
loop_
_geom_bond_atom_site_label_1
_geom_bond_atom_site_label_2
_geom_bond_site_symmetry_1
_geom_bond_site_symmetry_2
F1 C10 1_555 1_555
F2 C10 1_555 1_555
N1 C1 1_555 1_555
C1 H1 1_555 1_555
C2 C1 1_555 1_555
H2 C2 1_555 1_555
C3 C2 1_555 1_555
H3 C3 1_555 1_555
C4 C3 1_555 1_555
C5 C4 1_555 1_555
H4 C5 1_555 1_555
C6 C5 1_555 1_555
C7 C6 1_555 1_555
H5 C7 1_555 1_555
C8 C7 1_555 1_555
H6 C8 1_555 1_555
C9 N1 1_555 1_555
C10 C6 1_555 1_555
C11 N1 1_555 1_555
H7 C11 1_555 1_555
C12 C11 1_555 1_555
H8 C12 1_555 1_555
H9 C12 1_555 1_555
H7G C11 1_555 1_555
F2G C10 1_555 1_555
H9G C12 1_555 1_555
C4 C9 1_555 1_555
C8 C9 1_555 1_555

#END
