
#######################################################################
#
#                 Cambridge Crystallographic Data Centre
#                                CCDC 
#
#######################################################################
#
# If this CIF has been generated from an entry in the Cambridge 
# Structural Database, then it will include bibliographic, chemical, 
# crystal, experimental, refinement or atomic coordinate data resulting 
# from the CCDC's data processing and validation procedures.
#
#######################################################################

data_AXALOB
_chemical_formula_moiety         'C9 H7 N7'
_chemical_name_systematic        5-(Pyridin-2-yl)-3,3'-bi(1H-1,2,4-triazole)
_symmetry_cell_setting           monoclinic
_symmetry_space_group_name_H-M   'P 21/c'
_symmetry_Int_Tables_number      14
_space_group_name_Hall           '-P 2ybc'
loop_
_symmetry_equiv_pos_site_id
_symmetry_equiv_pos_as_xyz
1 x,y,z
2 -x,1/2+y,1/2-z
3 -x,-y,-z
4 x,1/2-y,1/2+z
_cell_length_a                   12.372(3)
_cell_length_b                   7.5361(15)
_cell_length_c                   10.007(2)
_cell_angle_alpha                90
_cell_angle_beta                 93.670(4)
_cell_angle_gamma                90
_cell_volume                     931.106
_exptl_crystal_colour            colorless
_exptl_crystal_description       block
_cell_formula_units_Z            4
_exptl_crystal_recrystallization_method dimethylformamide/ethanol
loop_
_atom_site_label
_atom_site_type_symbol
_atom_site_fract_x
_atom_site_fract_y
_atom_site_fract_z
N1 N 0.22980(16) 0.2080(3) 0.46400(19)
N2 N 0.23958(18) 0.2161(3) 0.6818(2)
N3 N 0.07056(18) -0.2247(3) 0.2744(2)
N4 N 0.06963(16) -0.2067(3) 0.4914(2)
N5 N 0.18243(17) 0.0672(3) 0.6502(2)
C1 C 0.1252(2) -0.0720(3) 0.4381(2)
N6 N 0.12802(17) -0.0763(3) 0.3067(2)
C2 C 0.26642(19) 0.2993(3) 0.5708(2)
C3 C 0.1792(2) 0.0682(3) 0.5182(2)
C4 C 0.0376(2) -0.2994(3) 0.3838(3)
H1 H -0.0028 -0.4034 0.3851
N7 N 0.40073(18) 0.4877(3) 0.6744(2)
C5 C 0.4476(2) 0.7649(4) 0.5774(3)
H2 H 0.4900 0.8669 0.5828
C6 C 0.3285(2) 0.4650(3) 0.5701(2)
C7 C 0.3123(2) 0.5856(3) 0.4680(3)
H3 H 0.2620 0.5636 0.3969
C8 C 0.3724(2) 0.7401(4) 0.4729(3)
H4 H 0.3618 0.8257 0.4064
C9 C 0.4592(2) 0.6366(4) 0.6738(3)
H5 H 0.5113 0.6543 0.7437
H6 H 0.249(2) 0.252(4) 0.776(4)
H7 H 0.062(2) -0.262(4) 0.179(3)
loop_
_geom_bond_atom_site_label_1
_geom_bond_atom_site_label_2
_geom_bond_site_symmetry_1
_geom_bond_site_symmetry_2
N1 C2 1_555 1_555
N2 N5 1_555 1_555
N3 N6 1_555 1_555
N4 C1 1_555 1_555
N5 C3 1_555 1_555
C1 N6 1_555 1_555
C2 N2 1_555 1_555
C3 N1 1_555 1_555
C4 N3 1_555 1_555
H1 C4 1_555 1_555
N7 C6 1_555 1_555
C5 H2 1_555 1_555
C6 C2 1_555 1_555
C7 C6 1_555 1_555
H3 C7 1_555 1_555
C8 C5 1_555 1_555
H4 C8 1_555 1_555
C9 N7 1_555 1_555
H5 C9 1_555 1_555
H6 N2 1_555 1_555
H7 N3 1_555 1_555
N4 C4 1_555 1_555
C1 C3 1_555 1_555
C5 C9 1_555 1_555
C7 C8 1_555 1_555

#END
