
#######################################################################
#
#                 Cambridge Crystallographic Data Centre
#                                CCDC 
#
#######################################################################
#
# If this CIF has been generated from an entry in the Cambridge 
# Structural Database, then it will include bibliographic, chemical, 
# crystal, experimental, refinement or atomic coordinate data resulting 
# from the CCDC's data processing and validation procedures.
#
#######################################################################

data_AXAMOD
_chemical_formula_moiety         '2(C15 H21 O3 1-),C3 H12 N2 2+,2(H2 O1)'
_chemical_name_systematic        
'propane-1,3-diaminium 5-(2,5-dimethylphenoxy)-2,2-dimethylpentanoate dihydrate'
_symmetry_cell_setting           triclinic
_symmetry_space_group_name_H-M   'P -1'
_symmetry_Int_Tables_number      2
_space_group_name_Hall           '-P 1'
loop_
_symmetry_equiv_pos_site_id
_symmetry_equiv_pos_as_xyz
1 x,y,z
2 -x,-y,-z
_cell_length_a                   8.1777(7)
_cell_length_b                   11.4827(11)
_cell_length_c                   20.919(2)
_cell_angle_alpha                74.116(3)
_cell_angle_beta                 83.301(4)
_cell_angle_gamma                75.865(3)
_cell_volume                     1829.52
_exptl_crystal_colour            colorless
_exptl_crystal_description       block
_cell_formula_units_Z            2
loop_
_atom_site_label
_atom_site_type_symbol
_atom_site_fract_x
_atom_site_fract_y
_atom_site_fract_z
O1 O 0.57352(12) 0.61518(10) 0.40956(5)
O2 O 0.79321(13) 0.45846(11) 0.41157(5)
O3 O 0.92764(19) 0.89123(13) 0.23511(8)
C1 C 0.67185(16) 0.53786(13) 0.38246(7)
C2 C 0.64937(17) 0.54013(14) 0.31010(7)
C3 C 0.79158(19) 0.59427(15) 0.26672(7)
H1 H 0.8989 0.5389 0.2802
H2 H 0.7795 0.5963 0.2208
C4 C 0.7964(2) 0.72320(16) 0.27007(9)
H3 H 0.6955 0.7809 0.2512
H4 H 0.7946 0.7240 0.3164
C5 C 0.9474(2) 0.76716(16) 0.23423(9)
H5 H 1.0491 0.7170 0.2560
H6 H 0.9570 0.7602 0.1887
C6 C 1.0331(2) 0.96074(18) 0.19519(9)
C7 C 1.1920(3) 0.9104(2) 0.17306(10)
H7 H 1.2305 0.8246 0.1833
C8 C 1.2961(3) 0.9856(3) 0.13567(10)
C9 C 1.2327(4) 1.1118(3) 0.12080(11)
H8 H 1.3003 1.1646 0.0961
C10 C 1.0711(4) 1.1616(2) 0.14177(11)
H9 H 1.0308 1.2472 0.1298
C11 C 0.9690(3) 1.08805(19) 0.17965(10)
C12 C 0.7924(4) 1.1420(2) 0.20323(16)
H10 H 0.7125 1.1131 0.1848
H11 H 0.7707 1.2310 0.1890
H12 H 0.7817 1.1163 0.2509
C13 C 1.4733(3) 0.9295(3) 0.11332(15)
H13 H 1.5530 0.9437 0.1390
H14 H 1.4936 0.9674 0.0670
H15 H 1.4857 0.8418 0.1197
C14 C 0.4771(2) 0.61707(19) 0.28679(9)
H16 H 0.3903 0.5786 0.3125
H17 H 0.4704 0.6219 0.2406
H18 H 0.4620 0.6992 0.2926
C15 C 0.6686(2) 0.40726(17) 0.30451(9)
H19 H 0.7778 0.3588 0.3185
H20 H 0.6575 0.4085 0.2591
H21 H 0.5826 0.3712 0.3324
O4 O 0.32133(13) 0.23856(9) 0.40957(5)
O5 O 0.50474(13) 0.06422(9) 0.41064(6)
O6 O 0.4010(2) 0.43834(13) 0.15243(7)
C16 C 0.37241(17) 0.13919(12) 0.39111(7)
C17 C 0.26151(18) 0.11030(13) 0.34562(7)
C18 C 0.20120(19) 0.22604(14) 0.28929(7)
H22 H 0.1246 0.2071 0.2635
H23 H 0.1375 0.2919 0.3090
C19 C 0.3391(2) 0.27429(15) 0.24226(8)
H24 H 0.4259 0.2819 0.2677
H25 H 0.3905 0.2157 0.2160
C20 C 0.2683(3) 0.39878(16) 0.19668(9)
H26 H 0.1797 0.3922 0.1717
H27 H 0.2204 0.4586 0.2225
C21 C 0.3595(4) 0.5499(2) 0.10478(9)
C22 C 0.1987(5) 0.6215(2) 0.09557(10)
H28 H 0.1098 0.5947 0.1228
C23 C 0.1648(6) 0.7333(2) 0.04649(13)
C24 C 0.3008(9) 0.7661(4) 0.0070(2)
H29 H 0.2831 0.8383 -0.0274
C25 C 0.4610(8) 0.6964(4) 0.0165(2)
H30 H 0.5496 0.7239 -0.0106
C26 C 0.4963(5) 0.5845(3) 0.06601(13)
C27 C 0.6723(6) 0.5072(4) 0.07551(17)
H31 H 0.7037 0.4990 0.1196
H32 H 0.7489 0.5466 0.0434
H33 H 0.6770 0.4264 0.0696
C28 C -0.0128(6) 0.8115(3) 0.03878(16)
H34 H -0.0898 0.7591 0.0413
H35 H -0.0190 0.8716 -0.0036
H36 H -0.0424 0.8536 0.0737
C29 C 0.3550(3) 0.00064(15) 0.31797(9)
H37 H 0.4611 0.0160 0.2969
H38 H 0.2879 -0.0095 0.2860
H39 H 0.3746 -0.0735 0.3537
C30 C 0.1058(2) 0.07775(18) 0.38881(10)
H40 H 0.1413 0.0100 0.4266
H41 H 0.0355 0.0542 0.3631
H42 H 0.0433 0.1487 0.4038
N1 N -0.24088(13) 0.39725(11) 0.55015(6)
H43 H -0.2334 0.4223 0.5059
H44 H -0.2147 0.4529 0.5673
H45 H -0.3459 0.3896 0.5638
N2 N 0.35490(13) 0.18233(10) 0.54526(6)
H46 H 0.3608 0.2060 0.5010
H47 H 0.4286 0.1107 0.5590
H48 H 0.3791 0.2400 0.5614
C31 C -0.12243(16) 0.27593(13) 0.57252(8)
H49 H -0.1539 0.2141 0.5557
H50 H -0.1281 0.2493 0.6208
C32 C 0.05491(16) 0.28709(12) 0.54742(7)
H51 H 0.0845 0.3502 0.5637
H52 H 0.0594 0.3136 0.4992
C33 C 0.18227(16) 0.16635(12) 0.56926(7)
H53 H 0.1766 0.1383 0.6175
H54 H 0.1557 0.1036 0.5517
O7 O -0.30233(16) 0.18217(15) 0.46936(7)
H55 H -0.3541 0.1450 0.4511
H56 H -0.2850 0.2443 0.4385
O8 O -0.13272(13) 0.53142(9) 0.62211(6)
H57 H -0.0325 0.5420 0.6129
H58 H -0.1812 0.6080 0.6131
loop_
_geom_bond_atom_site_label_1
_geom_bond_atom_site_label_2
_geom_bond_site_symmetry_1
_geom_bond_site_symmetry_2
O1 C1 1_555 1_555
O2 C1 1_555 1_555
O3 C5 1_555 1_555
C1 C2 1_555 1_555
C2 C3 1_555 1_555
C3 H1 1_555 1_555
H2 C3 1_555 1_555
C4 C3 1_555 1_555
H3 C4 1_555 1_555
H4 C4 1_555 1_555
C5 C4 1_555 1_555
H5 C5 1_555 1_555
H6 C5 1_555 1_555
C6 O3 1_555 1_555
C7 C6 1_555 1_555
H7 C7 1_555 1_555
C8 C7 1_555 1_555
C9 C8 1_555 1_555
H8 C9 1_555 1_555
C10 C9 1_555 1_555
H9 C10 1_555 1_555
C11 C6 1_555 1_555
C12 C11 1_555 1_555
H10 C12 1_555 1_555
H11 C12 1_555 1_555
H12 C12 1_555 1_555
C13 C8 1_555 1_555
H13 C13 1_555 1_555
H14 C13 1_555 1_555
H15 C13 1_555 1_555
C14 C2 1_555 1_555
H16 C14 1_555 1_555
H17 C14 1_555 1_555
H18 C14 1_555 1_555
C15 C2 1_555 1_555
H19 C15 1_555 1_555
H20 C15 1_555 1_555
H21 C15 1_555 1_555
O4 C16 1_555 1_555
O5 C16 1_555 1_555
O6 C20 1_555 1_555
C16 C17 1_555 1_555
C17 C18 1_555 1_555
C18 H22 1_555 1_555
H23 C18 1_555 1_555
C19 C18 1_555 1_555
H24 C19 1_555 1_555
H25 C19 1_555 1_555
C20 C19 1_555 1_555
H26 C20 1_555 1_555
H27 C20 1_555 1_555
C21 O6 1_555 1_555
C22 C21 1_555 1_555
H28 C22 1_555 1_555
C23 C22 1_555 1_555
C24 C23 1_555 1_555
H29 C24 1_555 1_555
C25 C24 1_555 1_555
H30 C25 1_555 1_555
C26 C21 1_555 1_555
C27 C26 1_555 1_555
H31 C27 1_555 1_555
H32 C27 1_555 1_555
H33 C27 1_555 1_555
C28 C23 1_555 1_555
H34 C28 1_555 1_555
H35 C28 1_555 1_555
H36 C28 1_555 1_555
C29 C17 1_555 1_555
H37 C29 1_555 1_555
H38 C29 1_555 1_555
H39 C29 1_555 1_555
C30 C17 1_555 1_555
H40 C30 1_555 1_555
H41 C30 1_555 1_555
H42 C30 1_555 1_555
N1 H43 1_555 1_555
H44 N1 1_555 1_555
H45 N1 1_555 1_555
N2 H46 1_555 1_555
H47 N2 1_555 1_555
H48 N2 1_555 1_555
C31 N1 1_555 1_555
H49 C31 1_555 1_555
H50 C31 1_555 1_555
C32 C31 1_555 1_555
H51 C32 1_555 1_555
H52 C32 1_555 1_555
C33 N2 1_555 1_555
H53 C33 1_555 1_555
H54 C33 1_555 1_555
O7 H55 1_555 1_555
H56 O7 1_555 1_555
O8 H57 1_555 1_555
H58 O8 1_555 1_555
C10 C11 1_555 1_555
C25 C26 1_555 1_555
C32 C33 1_555 1_555

#END
