
#######################################################################
#
#                 Cambridge Crystallographic Data Centre
#                                CCDC 
#
#######################################################################
#
# If this CIF has been generated from an entry in the Cambridge 
# Structural Database, then it will include bibliographic, chemical, 
# crystal, experimental, refinement or atomic coordinate data resulting 
# from the CCDC's data processing and validation procedures.
#
#######################################################################

data_AXAPAR
_chemical_formula_moiety         'C17 H26 Cl1 N1 O3'
_chemical_name_systematic        
'(E)-Methyl 2-chloro-4-dicyclohexylamino-4-oxobut-2-enoate'
_symmetry_cell_setting           monoclinic
_symmetry_space_group_name_H-M   'P 21/c'
_symmetry_Int_Tables_number      14
_space_group_name_Hall           '-P 2ybc'
loop_
_symmetry_equiv_pos_site_id
_symmetry_equiv_pos_as_xyz
1 x,y,z
2 -x,1/2+y,1/2-z
3 -x,-y,-z
4 x,1/2-y,1/2+z
_cell_length_a                   8.8291(19)
_cell_length_b                   10.533(2)
_cell_length_c                   19.139(4)
_cell_angle_alpha                90
_cell_angle_beta                 92.955(3)
_cell_angle_gamma                90
_cell_volume                     1777.5
_exptl_crystal_colour            colorless
_exptl_crystal_description       block
_cell_formula_units_Z            4
loop_
_atom_site_label
_atom_site_type_symbol
_atom_site_fract_x
_atom_site_fract_y
_atom_site_fract_z
Cl1 Cl 1.02330(7) 0.47301(6) 0.29004(3)
N1 N 0.7284(2) 0.73071(19) 0.10932(8)
C1 C 0.6049(2) 0.7104(2) 0.15716(10)
H1 H 0.6483 0.6628 0.1974
C2 C 0.4768(3) 0.6305(3) 0.12475(14)
H2 H 0.4338 0.6728 0.0833
H3 H 0.5167 0.5492 0.1105
C3 C 0.4221(3) 0.8114(3) 0.23589(14)
H4 H 0.4656 0.7696 0.2774
H5 H 0.3815 0.8924 0.2501
C4 C 0.5460(3) 0.8343(3) 0.18519(12)
H6 H 0.5062 0.8861 0.1465
H7 H 0.6288 0.8804 0.2088
C5 C 0.2953(3) 0.7311(3) 0.20438(14)
H8 H 0.2238 0.7126 0.2398
H9 H 0.2421 0.7781 0.1671
C6 C 0.3537(3) 0.6090(3) 0.17577(18)
H10 H 0.2704 0.5633 0.1523
H11 H 0.3937 0.5568 0.2142
C7 C 0.9064(2) 0.6357(2) 0.19601(10)
H12 H 0.9020 0.6907 0.2338
C8 C 0.9445(2) 0.5170(2) 0.20899(10)
C9 C 0.8696(2) 0.6886(2) 0.12389(10)
C10 C 0.6909(3) 0.7947(2) 0.04169(10)
H13 H 0.5843 0.8202 0.0426
C11 C 0.9352(3) 0.4105(2) 0.15775(11)
C12 C 0.7807(3) 0.9153(3) 0.03266(13)
H14 H 0.8878 0.8952 0.0320
H15 H 0.7662 0.9716 0.0718
C13 C 0.7013(3) 0.7045(3) -0.02024(11)
H16 H 0.6369 0.6312 -0.0140
H17 H 0.8049 0.6752 -0.0233
C14 C 0.7293(4) 0.9818(3) -0.03560(14)
H18 H 0.6254 1.0104 -0.0327
H19 H 0.7924 1.0557 -0.0423
C15 C 0.6504(4) 0.7749(4) -0.08734(13)
H20 H 0.6612 0.7190 -0.1271
H21 H 0.5439 0.7967 -0.0855
C16 C 0.7399(4) 0.8930(4) -0.09763(14)
H22 H 0.7018 0.9357 -0.1399
H23 H 0.8452 0.8710 -0.1033
O1 O 0.97348(18) 0.69654(19) 0.08431(8)
O2 O 0.8279(2) 0.43037(19) 0.10887(9)
O3 O 1.0144(3) 0.3193(2) 0.16138(10)
C17 C 0.8142(4) 0.3387(4) 0.05276(16)
H24 H 0.8939 0.3520 0.0213
H25 H 0.7177 0.3487 0.0279
H26 H 0.8218 0.2545 0.0718
loop_
_geom_bond_atom_site_label_1
_geom_bond_atom_site_label_2
_geom_bond_site_symmetry_1
_geom_bond_site_symmetry_2
Cl1 C8 1_555 1_555
N1 C1 1_555 1_555
C1 H1 1_555 1_555
C2 C1 1_555 1_555
H2 C2 1_555 1_555
H3 C2 1_555 1_555
C3 H4 1_555 1_555
H5 C3 1_555 1_555
C4 C1 1_555 1_555
H6 C4 1_555 1_555
H7 C4 1_555 1_555
C5 C3 1_555 1_555
H8 C5 1_555 1_555
H9 C5 1_555 1_555
C6 C2 1_555 1_555
H10 C6 1_555 1_555
H11 C6 1_555 1_555
C7 H12 1_555 1_555
C8 C7 1_555 1_555
C9 N1 1_555 1_555
C10 N1 1_555 1_555
H13 C10 1_555 1_555
C11 C8 1_555 1_555
C12 C10 1_555 1_555
H14 C12 1_555 1_555
H15 C12 1_555 1_555
C13 C10 1_555 1_555
H16 C13 1_555 1_555
H17 C13 1_555 1_555
C14 C12 1_555 1_555
H18 C14 1_555 1_555
H19 C14 1_555 1_555
C15 C13 1_555 1_555
H20 C15 1_555 1_555
H21 C15 1_555 1_555
C16 C14 1_555 1_555
H22 C16 1_555 1_555
H23 C16 1_555 1_555
O1 C9 1_555 1_555
O2 C11 1_555 1_555
O3 C11 1_555 1_555
C17 O2 1_555 1_555
H24 C17 1_555 1_555
H25 C17 1_555 1_555
H26 C17 1_555 1_555
C3 C4 1_555 1_555
C5 C6 1_555 1_555
C7 C9 1_555 1_555
C15 C16 1_555 1_555

#END
