
#######################################################################
#
#                 Cambridge Crystallographic Data Centre
#                                CCDC 
#
#######################################################################
#
# If this CIF has been generated from an entry in the Cambridge 
# Structural Database, then it will include bibliographic, chemical, 
# crystal, experimental, refinement or atomic coordinate data resulting 
# from the CCDC's data processing and validation procedures.
#
#######################################################################

data_AXAQIA
_chemical_name_common            
(2aR,2bR)-6-(1-Hydroxypropan-2-yl)-2a,2b-diphenyl-2a,2b,6,7-tetrahydro-5H-2,3,4a,6,7a-pentaazacyclopenta[cd]indene-1,4(2H,3H)-dithione
_chemical_formula_moiety         'C21 H23 N5 O1 S2'
_chemical_name_systematic        
(4R,11R)-9-(1-hydroxypropan-2-yl)-4,11-diphenyl-1,3,5,7,9-pentaazatricyclo[5.3.1.0^4,11^]undecane-2,6-dithione
_symmetry_cell_setting           monoclinic
_symmetry_space_group_name_H-M   'P 21'
_symmetry_Int_Tables_number      4
_space_group_name_Hall           'P 2yb'
loop_
_symmetry_equiv_pos_site_id
_symmetry_equiv_pos_as_xyz
1 x,y,z
2 -x,1/2+y,-z
_cell_length_a                   9.0030(9)
_cell_length_b                   12.6382(13)
_cell_length_c                   18.5830(2)
_cell_angle_alpha                90
_cell_angle_beta                 100.169(2)
_cell_angle_gamma                90
_cell_volume                     2081.19
_exptl_crystal_colour            colorless
_exptl_crystal_description       block
_cell_formula_units_Z            4
_exptl_crystal_recrystallization_method dichloromethane/methanol
loop_
_atom_site_label
_atom_site_type_symbol
_atom_site_fract_x
_atom_site_fract_y
_atom_site_fract_z
C1 C 0.0087(3) 0.7199(2) 0.40140(14)
H1 H -0.0524 0.7447 0.3563
H2 H -0.0158 0.6461 0.4075
C2 C 0.0195(3) 0.8891(2) 0.46139(15)
H3 H 0.0063 0.9231 0.5067
H4 H -0.0427 0.9263 0.4214
C3 C 0.2791(3) 0.6653(2) 0.43454(15)
C4 C 0.2955(3) 0.9396(2) 0.49851(14)
C5 C 0.2239(3) 0.8369(2) 0.39335(13)
C6 C 0.1707(3) 0.8900(2) 0.31971(14)
C7 C 0.1547(4) 0.8312(3) 0.25592(15)
H5 H 0.1756 0.7591 0.2577
C8 C 0.1069(4) 0.8815(3) 0.18885(18)
H6 H 0.0978 0.8426 0.1458
C9 C 0.0734(4) 0.9867(3) 0.18586(19)
H7 H 0.0403 1.0190 0.1409
C10 C 0.0885(4) 1.0451(3) 0.24900(19)
H8 H 0.0653 1.1168 0.2468
C11 C 0.1385(4) 0.9968(3) 0.31635(16)
H9 H 0.1503 1.0367 0.3591
C12 C 0.4004(3) 0.8274(2) 0.42058(14)
C13 C 0.5006(3) 0.8395(2) 0.36367(15)
C14 C 0.5248(4) 0.7536(3) 0.3207(2)
H10 H 0.4799 0.6889 0.3273
C15 C 0.6163(5) 0.7638(4) 0.2678(2)
H11 H 0.6295 0.7064 0.2382
C16 C 0.6858(5) 0.8568(5) 0.2592(2)
H12 H 0.7484 0.8627 0.2246
C17 C 0.6640(4) 0.9408(4) 0.3010(2)
H13 H 0.7120 1.0045 0.2948
C18 C 0.5709(4) 0.9339(3) 0.35345(18)
H14 H 0.5563 0.9927 0.3814
C19 C -0.0175(3) 0.7270(2) 0.53353(14)
H15 H -0.0373 0.6516 0.5240
C20 C -0.1461(3) 0.7702(3) 0.56985(17)
H16 H -0.1593 0.7246 0.6102
H17 H -0.1195 0.8403 0.5893
C21 C 0.1319(3) 0.7357(3) 0.58612(16)
H18 H 0.2112 0.7071 0.5635
H19 H 0.1262 0.6968 0.6299
H20 H 0.1528 0.8087 0.5981
N1 N -0.0297(2) 0.78024(17) 0.46192(12)
N2 N 0.1697(2) 0.72850(18) 0.39543(12)
N3 N 0.1782(2) 0.89701(18) 0.45329(11)
N4 N 0.4072(2) 0.7193(2) 0.45007(13)
H41 H 0.486(4) 0.688(3) 0.4681(16)
N5 N 0.4231(3) 0.9080(2) 0.47628(13)
H42 H 0.503(4) 0.930(3) 0.4934(18)
O1 O -0.2835(3) 0.7757(2) 0.51903(15)
H45 H -0.251(5) 0.777(4) 0.472(2)
S1 S 0.25277(9) 0.53965(6) 0.45623(5)
S2 S 0.28553(9) 1.02021(7) 0.56882(4)
C22 C 0.5347(3) 0.8098(2) 0.95706(14)
H21 H 0.4753 0.7825 0.9122
H22 H 0.5229 0.7616 0.9963
C23 C 0.5052(3) 0.9915(2) 0.91961(14)
H23 H 0.4790 1.0609 0.9358
H24 H 0.4407 0.9771 0.8731
C24 C 0.8133(3) 0.7917(2) 1.00265(13)
C25 C 0.7688(3) 1.0667(2) 0.93261(14)
C26 C 0.7301(3) 0.89034(19) 0.89609(13)
C27 C 0.6763(3) 0.8523(2) 0.81857(14)
C28 C 0.6589(4) 0.7455(3) 0.80296(17)
H25 H 0.6844 0.6958 0.8400
C29 C 0.6036(4) 0.7124(4) 0.7324(2)
H26 H 0.5889 0.6406 0.7226
C30 C 0.5708(4) 0.7836(5) 0.67732(19)
H27 H 0.5334 0.7606 0.6300
C31 C 0.5924(4) 0.8889(5) 0.6912(2)
H28 H 0.5733 0.9373 0.6529
C32 C 0.6426(4) 0.9244(3) 0.76170(17)
H29 H 0.6537 0.9966 0.7710
C33 C 0.9044(3) 0.9102(2) 0.92241(13)
C34 C 1.0088(3) 0.8872(2) 0.86789(14)
C35 C 1.0333(4) 0.9641(3) 0.81817(19)
H30 H 0.9854 1.0294 0.8175
C36 C 1.1301(5) 0.9430(5) 0.7692(2)
H31 H 1.1459 0.9946 0.7356
C37 C 1.2020(4) 0.8481(5) 0.7696(2)
H32 H 1.2673 0.8351 0.7370
C38 C 1.1775(4) 0.7728(4) 0.8180(2)
H33 H 1.2271 0.7081 0.8187
C39 C 1.0797(3) 0.7906(3) 0.86668(17)
H34 H 1.0619 0.7372 0.8986
C40 C 0.4939(3) 0.9423(2) 1.05056(14)
H35 H 0.4941 0.8765 1.0785
C41 C 0.3536(3) 1.0042(2) 1.06007(16)
H36 H 0.3474 1.0079 1.1116
H37 H 0.3609 1.0759 1.0424
C42 C 0.6351(3) 1.0042(3) 1.08372(16)
H38 H 0.7228 0.9613 1.0830
H39 H 0.6297 1.0229 1.1333
H40 H 0.6417 1.0673 1.0557
N6 N 0.4774(2) 0.91310(17) 0.97243(11)
N7 N 0.6935(2) 0.81281(17) 0.94950(11)
N8 N 0.6638(2) 0.99257(17) 0.90927(11)
N9 N 0.9352(3) 0.8419(2) 0.98643(13)
H43 H 1.022(4) 0.832(3) 1.0115(17)
N10 N 0.9063(3) 1.0212(2) 0.94075(14)
H44 H 0.979(4) 1.054(3) 0.9465(17)
O2 O 0.2204(2) 0.9554(2) 1.02108(13)
H46 H 0.268(4) 0.916(4) 0.986(2)
S3 S 0.80953(8) 0.71417(6) 1.07516(4)
S4 S 0.73491(9) 1.19461(6) 0.94594(5)
loop_
_geom_bond_atom_site_label_1
_geom_bond_atom_site_label_2
_geom_bond_site_symmetry_1
_geom_bond_site_symmetry_2
C1 H1 1_555 1_555
H2 C1 1_555 1_555
C2 H3 1_555 1_555
H4 C2 1_555 1_555
C3 N2 1_555 1_555
C4 N3 1_555 1_555
C5 C6 1_555 1_555
C6 C7 1_555 1_555
C7 H5 1_555 1_555
C8 C7 1_555 1_555
H6 C8 1_555 1_555
C9 C8 1_555 1_555
H7 C9 1_555 1_555
C10 C9 1_555 1_555
H8 C10 1_555 1_555
C11 C6 1_555 1_555
H9 C11 1_555 1_555
C12 C5 1_555 1_555
C13 C12 1_555 1_555
C14 C13 1_555 1_555
H10 C14 1_555 1_555
C15 C14 1_555 1_555
H11 C15 1_555 1_555
C16 C15 1_555 1_555
H12 C16 1_555 1_555
C17 C16 1_555 1_555
H13 C17 1_555 1_555
C18 C13 1_555 1_555
H14 C18 1_555 1_555
C19 H15 1_555 1_555
C20 C19 1_555 1_555
H16 C20 1_555 1_555
H17 C20 1_555 1_555
C21 C19 1_555 1_555
H18 C21 1_555 1_555
H19 C21 1_555 1_555
H20 C21 1_555 1_555
C22 H21 1_555 1_555
H22 C22 1_555 1_555
C23 H23 1_555 1_555
H24 C23 1_555 1_555
C24 N7 1_555 1_555
C25 N8 1_555 1_555
C26 C27 1_555 1_555
C27 C28 1_555 1_555
C28 H25 1_555 1_555
C29 C28 1_555 1_555
H26 C29 1_555 1_555
C30 C29 1_555 1_555
H27 C30 1_555 1_555
C31 C30 1_555 1_555
H28 C31 1_555 1_555
C32 C27 1_555 1_555
H29 C32 1_555 1_555
C33 C26 1_555 1_555
C34 C33 1_555 1_555
C35 C34 1_555 1_555
H30 C35 1_555 1_555
C36 C35 1_555 1_555
H31 C36 1_555 1_555
C37 C36 1_555 1_555
H32 C37 1_555 1_555
C38 C37 1_555 1_555
H33 C38 1_555 1_555
C39 C34 1_555 1_555
H34 C39 1_555 1_555
C40 H35 1_555 1_555
C41 C40 1_555 1_555
H36 C41 1_555 1_555
H37 C41 1_555 1_555
C42 C40 1_555 1_555
H38 C42 1_555 1_555
H39 C42 1_555 1_555
H40 C42 1_555 1_555
N1 C1 1_555 1_555
N2 C1 1_555 1_555
N3 C2 1_555 1_555
N4 C3 1_555 1_555
H41 N4 1_555 1_555
N5 C4 1_555 1_555
H42 N5 1_555 1_555
N6 C22 1_555 1_555
N7 C22 1_555 1_555
N8 C23 1_555 1_555
N9 C24 1_555 1_555
H43 N9 1_555 1_555
N10 C25 1_555 1_555
H44 N10 1_555 1_555
O1 C20 1_555 1_555
H45 O1 1_555 1_555
O2 C41 1_555 1_555
H46 O2 1_555 1_555
S1 C3 1_555 1_555
S2 C4 1_555 1_555
S3 C24 1_555 1_555
S4 C25 1_555 1_555
C2 N1 1_555 1_555
C5 N2 1_555 1_555
C5 N3 1_555 1_555
C10 C11 1_555 1_555
C12 N4 1_555 1_555
C12 N5 1_555 1_555
C17 C18 1_555 1_555
C19 N1 1_555 1_555
C23 N6 1_555 1_555
C26 N7 1_555 1_555
C26 N8 1_555 1_555
C31 C32 1_555 1_555
C33 N9 1_555 1_555
C33 N10 1_555 1_555
C38 C39 1_555 1_555
C40 N6 1_555 1_555

#END
