
#######################################################################
#
#                 Cambridge Crystallographic Data Centre
#                                CCDC 
#
#######################################################################
#
# If this CIF has been generated from an entry in the Cambridge 
# Structural Database, then it will include bibliographic, chemical, 
# crystal, experimental, refinement or atomic coordinate data resulting 
# from the CCDC's data processing and validation procedures.
#
#######################################################################

data_AXASIC
_chemical_formula_moiety         'C28 H27 Cl1 N2 O3 S1'
_chemical_name_systematic        
2-(4-Chlorophenyl)-5-(cyclohex-1-en-1-yl)-3-((4-methylphenyl)sulfonyl)-1-phenylimidazolidin-4-one
_symmetry_cell_setting           monoclinic
_symmetry_space_group_name_H-M   'P 21/n'
_symmetry_Int_Tables_number      14
_space_group_name_Hall           '-P 2yn'
loop_
_symmetry_equiv_pos_site_id
_symmetry_equiv_pos_as_xyz
1 x,y,z
2 1/2-x,1/2+y,1/2-z
3 -x,-y,-z
4 1/2+x,1/2-y,1/2+z
_cell_length_a                   10.9974(3)
_cell_length_b                   13.4095(4)
_cell_length_c                   17.4434(5)
_cell_angle_alpha                90
_cell_angle_beta                 105.103(2)
_cell_angle_gamma                90
_cell_volume                     2483.52
_exptl_crystal_colour            white
_exptl_crystal_description       block
_cell_formula_units_Z            4
_exptl_crystal_recrystallization_method acetone
loop_
_atom_site_label
_atom_site_type_symbol
_atom_site_fract_x
_atom_site_fract_y
_atom_site_fract_z
C1 C 0.3220(3) 0.3780(3) -0.10334(16)
H1 H 0.2431 0.3432 -0.1139
H2 H 0.3896 0.3306 -0.0959
H3 H 0.3229 0.4206 -0.1474
C2 C 0.3385(2) 0.4401(2) -0.02909(13)
C3 C 0.3809(2) 0.39928(18) 0.04443(15)
H4 H 0.4018 0.3319 0.0488
C4 C 0.3938(2) 0.45477(15) 0.11277(12)
H5 H 0.4217 0.4250 0.1624
C5 C 0.36483(15) 0.55480(14) 0.10642(10)
C6 C 0.32259(19) 0.59833(18) 0.03261(11)
H6 H 0.3030 0.6659 0.0279
C7 C 0.3098(2) 0.5397(2) -0.03421(12)
H7 H 0.2809 0.5687 -0.0841
C8 C 0.15703(15) 0.68904(13) 0.20985(9)
H8 H 0.1924 0.7545 0.2284
C9 C 0.08827(14) 0.69380(12) 0.12235(9)
C10 C 0.01018(16) 0.61671(13) 0.08682(10)
H9 H -0.0062 0.5645 0.1178
C11 C -0.04370(16) 0.61627(14) 0.00593(10)
H10 H -0.0969 0.5646 -0.0176
C12 C -0.01773(16) 0.69310(14) -0.03927(9)
C13 C 0.05538(18) 0.77282(14) -0.00504(10)
H11 H 0.0696 0.8257 -0.0361
C14 C 0.10737(17) 0.77306(13) 0.07623(10)
H12 H 0.1557 0.8271 0.1001
C15 C -0.02845(16) 0.69953(14) 0.26500(9)
C16 C -0.05654(17) 0.79523(14) 0.23440(10)
H13 H -0.0010 0.8280 0.2109
C17 C -0.1665(2) 0.84149(17) 0.23890(12)
H14 H -0.1839 0.9057 0.2188
C18 C -0.2509(2) 0.79421(19) 0.27261(12)
H15 H -0.3255 0.8255 0.2744
C19 C -0.22360(19) 0.70099(19) 0.30332(12)
H16 H -0.2799 0.6691 0.3267
C20 C -0.11374(18) 0.65312(16) 0.30031(11)
H17 H -0.0965 0.5897 0.3219
C21 C 0.11459(17) 0.55093(13) 0.29037(9)
H18 H 0.0469 0.5047 0.2652
C22 C 0.23143(17) 0.52896(14) 0.26277(9)
C23 C 0.14710(17) 0.53918(13) 0.37990(9)
N1 N 0.25822(13) 0.61314(11) 0.22405(8)
N2 N 0.08217(14) 0.65180(11) 0.26115(8)
O1 O 0.48872(12) 0.58412(12) 0.25198(8)
O2 O 0.38986(13) 0.72903(10) 0.17229(9)
O3 O 0.29106(14) 0.45255(10) 0.27358(8)
S1 S 0.38901(4) 0.62668(4) 0.19262(2)
Cl1 Cl -0.07606(6) 0.68766(5) -0.14158(3)
C24 C 0.1128(2) 0.45825(15) 0.41165(11)
H19 H 0.0584 0.4123 0.3803
C25 C 0.2297(2) 0.61722(17) 0.42755(11)
H20 H 0.1981 0.6823 0.4074
H21 H 0.3137 0.6102 0.4202
C26 C 0.1632(15) 0.4414(10) 0.4994(2)
H22 H 0.1889 0.3723 0.5081
H23 H 0.0956 0.4525 0.5247
C27 C 0.2734(7) 0.5069(4) 0.5394(3)
H24 H 0.2921 0.4992 0.5966
H25 H 0.3475 0.4881 0.5225
C28 C 0.2384(8) 0.6130(3) 0.5167(2)
H26 H 0.3023 0.6585 0.5460
H27 H 0.1582 0.6300 0.5268
C29? C 0.1412(18) 0.4256(11) 0.4969(3)
C30? C 0.2104(10) 0.5104(8) 0.5469(5)
C31? C 0.2928(6) 0.5719(8) 0.5090(3)
H28? H 0.1931 0.3661 0.5050
H29? H 0.0637 0.4109 0.5113
H30? H 0.1488 0.5540 0.5605
H31? H 0.2621 0.4829 0.5961
H32? H 0.3623 0.5306 0.5035
H33? H 0.3281 0.6259 0.5450
loop_
_geom_bond_atom_site_label_1
_geom_bond_atom_site_label_2
_geom_bond_site_symmetry_1
_geom_bond_site_symmetry_2
C1 H1 1_555 1_555
H2 C1 1_555 1_555
H3 C1 1_555 1_555
C2 C1 1_555 1_555
C3 C2 1_555 1_555
H4 C3 1_555 1_555
C4 C3 1_555 1_555
H5 C4 1_555 1_555
C5 C4 1_555 1_555
C6 C5 1_555 1_555
H6 C6 1_555 1_555
C7 C2 1_555 1_555
H7 C7 1_555 1_555
C8 H8 1_555 1_555
C9 C8 1_555 1_555
C10 C9 1_555 1_555
H9 C10 1_555 1_555
C11 C10 1_555 1_555
H10 C11 1_555 1_555
C12 C11 1_555 1_555
C13 C12 1_555 1_555
H11 C13 1_555 1_555
C14 C9 1_555 1_555
H12 C14 1_555 1_555
C15 C16 1_555 1_555
C16 H13 1_555 1_555
C17 C16 1_555 1_555
H14 C17 1_555 1_555
C18 C17 1_555 1_555
H15 C18 1_555 1_555
C19 C18 1_555 1_555
H16 C19 1_555 1_555
C20 C15 1_555 1_555
H17 C20 1_555 1_555
C21 H18 1_555 1_555
C22 C21 1_555 1_555
C23 C21 1_555 1_555
N1 C8 1_555 1_555
N2 C8 1_555 1_555
O1 S1 1_555 1_555
O2 S1 1_555 1_555
O3 C22 1_555 1_555
S1 C5 1_555 1_555
Cl1 C12 1_555 1_555
C24 C23 1_555 1_555
H19 C24 1_555 1_555
C25 C23 1_555 1_555
H20 C25 1_555 1_555
H21 C25 1_555 1_555
C26 C24 1_555 1_555
H22 C26 1_555 1_555
H23 C26 1_555 1_555
C27 C26 1_555 1_555
H24 C27 1_555 1_555
H25 C27 1_555 1_555
C28 C25 1_555 1_555
H26 C28 1_555 1_555
H27 C28 1_555 1_555
C6 C7 1_555 1_555
C13 C14 1_555 1_555
C15 N2 1_555 1_555
C19 C20 1_555 1_555
C21 N2 1_555 1_555
C22 N1 1_555 1_555
N1 S1 1_555 1_555
C27 C28 1_555 1_555

#END
