
#######################################################################
#
#                 Cambridge Crystallographic Data Centre
#                                CCDC 
#
#######################################################################
#
# If this CIF has been generated from an entry in the Cambridge 
# Structural Database, then it will include bibliographic, chemical, 
# crystal, experimental, refinement or atomic coordinate data resulting 
# from the CCDC's data processing and validation procedures.
#
#######################################################################

data_AXAXIH
_chemical_formula_moiety         'C7 H5 Br2 N1 O2'
_chemical_name_systematic        3,5-Dibromosalicylaldoxime
_symmetry_cell_setting           triclinic
_symmetry_space_group_name_H-M   'P -1'
_symmetry_Int_Tables_number      2
_space_group_name_Hall           '-P 1'
loop_
_symmetry_equiv_pos_site_id
_symmetry_equiv_pos_as_xyz
1 x,y,z
2 -x,-y,-z
_cell_length_a                   4.2590(5)
_cell_length_b                   8.6742(7)
_cell_length_c                   12.0831(11)
_cell_angle_alpha                74.1710(10)
_cell_angle_beta                 82.248(2)
_cell_angle_gamma                79.0280(10)
_cell_volume                     419.983
_exptl_crystal_colour            white
_exptl_crystal_description       prism
_cell_formula_units_Z            2
loop_
_atom_site_label
_atom_site_type_symbol
_atom_site_fract_x
_atom_site_fract_y
_atom_site_fract_z
Br1 Br 0.3846(3) 0.03675(11) 1.18327(9)
Br2 Br 0.1284(3) 0.71718(11) 1.09089(9)
N1 N 0.9050(19) 0.2301(9) 1.5027(7)
O1 O 1.0649(17) 0.2544(8) 1.5855(6)
H1 H 1.1377 0.1664 1.6269
O2 O 0.6873(17) 0.0731(7) 1.3820(6)
H2 H 0.7721 0.0846 1.4357
C1 C 0.783(2) 0.3610(10) 1.4352(8)
H3 H 0.8077 0.4594 1.4471
C2 C 0.609(2) 0.3625(10) 1.3421(8)
C3 C 0.575(2) 0.2192(10) 1.3157(7)
C4 C 0.424(2) 0.2277(10) 1.2216(8)
C5 C 0.287(2) 0.3756(11) 1.1518(8)
H4 H 0.1827 0.3798 1.0881
C6 C 0.314(2) 0.5157(10) 1.1813(8)
C7 C 0.477(2) 0.5089(11) 1.2733(8)
H5 H 0.4994 0.6049 1.2896
loop_
_geom_bond_atom_site_label_1
_geom_bond_atom_site_label_2
_geom_bond_site_symmetry_1
_geom_bond_site_symmetry_2
Br1 C4 1_555 1_555
Br2 C6 1_555 1_555
N1 O1 1_555 1_555
O1 H1 1_555 1_555
O2 H2 1_555 1_555
C1 N1 1_555 1_555
H3 C1 1_555 1_555
C2 C1 1_555 1_555
C3 O2 1_555 1_555
C4 C3 1_555 1_555
C5 C4 1_555 1_555
H4 C5 1_555 1_555
C6 C5 1_555 1_555
C7 C2 1_555 1_555
H5 C7 1_555 1_555
C2 C3 1_555 1_555
C6 C7 1_555 1_555

#END
