
#######################################################################
#
#                 Cambridge Crystallographic Data Centre
#                                CCDC 
#
#######################################################################
#
# If this CIF has been generated from an entry in the Cambridge 
# Structural Database, then it will include bibliographic, chemical, 
# crystal, experimental, refinement or atomic coordinate data resulting 
# from the CCDC's data processing and validation procedures.
#
#######################################################################

data_AXEFAL
_chemical_formula_moiety         'C20 H20 Br1 N1 O5 S1'
_chemical_name_systematic        
'Methyl (1-(4-bromophenyl)-2-methylene-3-oxobutyl)((4-methylphenyl)sulfonyl)carbamate'
_symmetry_cell_setting           orthorhombic
_symmetry_space_group_name_H-M   'P 21 21 21'
_symmetry_Int_Tables_number      19
_space_group_name_Hall           'P 2ac 2ab'
loop_
_symmetry_equiv_pos_site_id
_symmetry_equiv_pos_as_xyz
1 x,y,z
2 1/2-x,-y,1/2+z
3 -x,1/2+y,1/2-z
4 1/2+x,1/2-y,-z
_cell_length_a                   9.5008(10)
_cell_length_b                   14.2871(15)
_cell_length_c                   15.2917(16)
_cell_angle_alpha                90
_cell_angle_beta                 90
_cell_angle_gamma                90
_cell_volume                     2075.68
_exptl_crystal_colour            colorless
_exptl_crystal_description       prismatic
_cell_formula_units_Z            4
loop_
_atom_site_label
_atom_site_type_symbol
_atom_site_fract_x
_atom_site_fract_y
_atom_site_fract_z
Br1 Br 1.28210(5) 0.77042(3) 1.13561(3)
S1 S 0.91935(10) 0.42702(6) 0.82373(5)
O1 O 1.0022(4) 0.22344(19) 0.9773(2)
O2 O 0.6460(3) 0.45972(18) 0.89766(14)
O3 O 0.7322(2) 0.49644(17) 1.02941(13)
O4 O 0.8664(3) 0.50928(15) 0.78321(13)
O5 O 1.0663(2) 0.41062(17) 0.82314(14)
N1 N 0.8763(3) 0.43185(18) 0.93064(15)
C1 C 0.9865(3) 0.4134(2) 0.99842(19)
H1 H 1.0613 0.3792 0.9680
C2 C 0.9314(4) 0.3467(2) 1.0670(2)
C3 C 0.8874(4) 0.3723(3) 1.1446(2)
H2 H 0.8587 0.3274 1.1848
H3 H 0.8850 0.4354 1.1595
C4 C 0.9364(4) 0.2459(3) 1.0414(3)
C5 C 0.8630(5) 0.1746(3) 1.0962(3)
H4 H 0.8536 0.1175 1.0637
H5 H 0.7714 0.1973 1.1120
H6 H 0.9169 0.1631 1.1482
C6 C 1.0556(3) 0.5026(2) 1.03226(19)
C7 C 1.0342(4) 0.5885(2) 0.9941(2)
H7 H 0.9715 0.5935 0.9476
C8 C 1.1035(4) 0.6676(2) 1.0232(2)
H8 H 1.0880 0.7251 0.9963
C9 C 1.1942(4) 0.6606(3) 1.0910(2)
C10 C 1.2233(4) 0.5765(3) 1.1290(2)
H9 H 1.2885 0.5720 1.1742
C11 C 1.1525(4) 0.4972(3) 1.0983(2)
H10 H 1.1718 0.4393 1.1233
C12 C 0.7405(4) 0.4623(2) 0.9482(2)
C13 C 0.5931(4) 0.5209(3) 1.0583(2)
H11 H 0.5609 0.5748 1.0266
H12 H 0.5951 0.5349 1.1197
H13 H 0.5304 0.4694 1.0479
C14 C 0.8354(3) 0.3286(2) 0.77907(19)
C15 C 0.7072(4) 0.3381(2) 0.7385(2)
H14 H 0.6612 0.3955 0.7377
C16 C 0.6478(4) 0.2604(3) 0.6986(2)
H15 H 0.5623 0.2669 0.6697
C17 C 0.7117(4) 0.1738(2) 0.7007(2)
C18 C 0.8395(4) 0.1673(2) 0.7415(2)
H16 H 0.8858 0.1099 0.7424
C19 C 0.9016(4) 0.2432(2) 0.7814(2)
H17 H 0.9877 0.2368 0.8097
C20 C 0.6454(5) 0.0911(3) 0.6564(3)
H18 H 0.6459 0.1006 0.5942
H19 H 0.5501 0.0842 0.6762
H20 H 0.6977 0.0355 0.6703
loop_
_geom_bond_atom_site_label_1
_geom_bond_atom_site_label_2
_geom_bond_site_symmetry_1
_geom_bond_site_symmetry_2
Br1 C9 1_555 1_555
S1 O4 1_555 1_555
O1 C4 1_555 1_555
O2 C12 1_555 1_555
O3 C12 1_555 1_555
O5 S1 1_555 1_555
N1 S1 1_555 1_555
C1 N1 1_555 1_555
H1 C1 1_555 1_555
C2 C1 1_555 1_555
C3 C2 1_555 1_555
H2 C3 1_555 1_555
H3 C3 1_555 1_555
C4 C2 1_555 1_555
C5 C4 1_555 1_555
H4 C5 1_555 1_555
H5 C5 1_555 1_555
H6 C5 1_555 1_555
C6 C1 1_555 1_555
C7 C6 1_555 1_555
H7 C7 1_555 1_555
C8 C7 1_555 1_555
H8 C8 1_555 1_555
C9 C8 1_555 1_555
C10 C9 1_555 1_555
H9 C10 1_555 1_555
C11 C6 1_555 1_555
H10 C11 1_555 1_555
C12 N1 1_555 1_555
C13 O3 1_555 1_555
H11 C13 1_555 1_555
H12 C13 1_555 1_555
H13 C13 1_555 1_555
C14 S1 1_555 1_555
C15 C14 1_555 1_555
H14 C15 1_555 1_555
C16 C15 1_555 1_555
H15 C16 1_555 1_555
C17 C16 1_555 1_555
C18 C17 1_555 1_555
H16 C18 1_555 1_555
C19 C14 1_555 1_555
H17 C19 1_555 1_555
C20 C17 1_555 1_555
H18 C20 1_555 1_555
H19 C20 1_555 1_555
H20 C20 1_555 1_555
C10 C11 1_555 1_555
C18 C19 1_555 1_555

#END
