
#######################################################################
#
#                 Cambridge Crystallographic Data Centre
#                                CCDC 
#
#######################################################################
#
# If this CIF has been generated from an entry in the Cambridge 
# Structural Database, then it will include bibliographic, chemical, 
# crystal, experimental, refinement or atomic coordinate data resulting 
# from the CCDC's data processing and validation procedures.
#
#######################################################################

data_AXEFUF
_chemical_formula_moiety         'C16 H13 N3'
_chemical_name_systematic        
(5-(4-(Dimethylamino)phenyl)pent-2-en-4-yn-1-ylidene)malononitrile
_symmetry_cell_setting           monoclinic
_symmetry_space_group_name_H-M   'P 21/c'
_symmetry_Int_Tables_number      14
_space_group_name_Hall           '-P 2ybc'
loop_
_symmetry_equiv_pos_site_id
_symmetry_equiv_pos_as_xyz
1 x,y,z
2 -x,1/2+y,1/2-z
3 -x,-y,-z
4 x,1/2-y,1/2+z
_cell_length_a                   7.9783(5)
_cell_length_b                   13.3236(10)
_cell_length_c                   13.4951(8)
_cell_angle_alpha                90
_cell_angle_beta                 107.212(4)
_cell_angle_gamma                90
_cell_volume                     1370.28
_exptl_crystal_colour            'dark brown'
_exptl_crystal_description       needle
_cell_formula_units_Z            4
loop_
_atom_site_label
_atom_site_type_symbol
_atom_site_fract_x
_atom_site_fract_y
_atom_site_fract_z
N1 N 0.2822(3) 0.94649(14) 0.27970(13)
N2 N 0.5295(3) 0.72832(15) 0.11966(13)
N3 N 1.2026(2) 0.05332(12) 0.60413(13)
C1 C 0.4518(2) 0.78097(13) 0.28449(12)
C2 C 0.5037(2) 0.72283(13) 0.37080(13)
C3 C 0.6009(2) 0.63266(13) 0.38084(13)
C4 C 0.6480(2) 0.58204(13) 0.47139(14)
C5 C 0.7447(2) 0.49280(15) 0.49125(13)
C6 C 0.8276(2) 0.41581(14) 0.51179(14)
C7 C 0.9239(2) 0.32454(14) 0.53489(13)
C8 C 0.9829(2) 0.27495(14) 0.46024(14)
C9 C 1.0760(2) 0.18636(14) 0.48257(14)
C10 C 1.1132(2) 0.14210(13) 0.58165(13)
C11 C 1.0553(2) 0.19296(14) 0.65674(14)
C12 C 0.9639(2) 0.28122(15) 0.63367(15)
C13 C 0.3571(2) 0.87258(14) 0.28171(13)
C14 C 0.4942(3) 0.75274(14) 0.19212(14)
C15 C 1.2777(3) 0.00717(19) 0.5302(2)
C16 C 1.2236(4) 0.0029(2) 0.70188(19)
H1 H 0.475(2) 0.7446(13) 0.4270(14)
H2 H 0.635(2) 0.6111(13) 0.3206(14)
H3 H 0.608(2) 0.6035(14) 0.5275(14)
H4 H 0.962(3) 0.3029(16) 0.3889(16)
H5 H 1.115(2) 0.1545(15) 0.4289(15)
H6 H 1.085(3) 0.1648(16) 0.7281(17)
H7 H 0.931(3) 0.3151(16) 0.6880(16)
H8 H 1.347(4) -0.049(2) 0.563(2)
H9 H 1.196(4) -0.011(2) 0.465(2)
H10 H 1.352(4) 0.057(2) 0.5040(19)
H11 H 1.114(4) 0.001(2) 0.7199(18)
H12 H 1.259(4) -0.063(3) 0.697(2)
H13 H 1.300(3) 0.0389(19) 0.7622(19)
loop_
_geom_bond_atom_site_label_1
_geom_bond_atom_site_label_2
_geom_bond_site_symmetry_1
_geom_bond_site_symmetry_2
N1 C13 1_555 1_555
N2 C14 1_555 1_555
N3 C10 1_555 1_555
C1 C2 1_555 1_555
C2 C3 1_555 1_555
C3 C4 1_555 1_555
C4 C5 1_555 1_555
C5 C6 1_555 1_555
C6 C7 1_555 1_555
C7 C8 1_555 1_555
C8 C9 1_555 1_555
C9 C10 1_555 1_555
C10 C11 1_555 1_555
C11 C12 1_555 1_555
C12 C7 1_555 1_555
C13 C1 1_555 1_555
C14 C1 1_555 1_555
C15 N3 1_555 1_555
C16 N3 1_555 1_555
H1 C2 1_555 1_555
H2 C3 1_555 1_555
H3 C4 1_555 1_555
H4 C8 1_555 1_555
H5 C9 1_555 1_555
H6 C11 1_555 1_555
H7 C12 1_555 1_555
H8 C15 1_555 1_555
H9 C15 1_555 1_555
H10 C15 1_555 1_555
H11 C16 1_555 1_555
H12 C16 1_555 1_555
H13 C16 1_555 1_555

#END
