
#######################################################################
#
#                 Cambridge Crystallographic Data Centre
#                                CCDC 
#
#######################################################################
#
# If this CIF has been generated from an entry in the Cambridge 
# Structural Database, then it will include bibliographic, chemical, 
# crystal, experimental, refinement or atomic coordinate data resulting 
# from the CCDC's data processing and validation procedures.
#
#######################################################################

data_AXELOF
_chemical_formula_moiety         'C63 H54 Br3 N1 S3'
_chemical_name_systematic        
7-(5-Bromo-2-thienyl)-N,N-bis(7-(5-bromo-2-thienyl)-9,9-diethyl-9H-fluoren-2-yl)-9,9-diethyl-9H-fluoren-2-amine
_symmetry_cell_setting           monoclinic
_symmetry_space_group_name_H-M   'P 21/n'
_symmetry_Int_Tables_number      14
_space_group_name_Hall           '-P 2yn'
loop_
_symmetry_equiv_pos_site_id
_symmetry_equiv_pos_as_xyz
1 x,y,z
2 1/2-x,1/2+y,1/2-z
3 -x,-y,-z
4 1/2+x,1/2-y,1/2+z
_cell_length_a                   11.9821(15)
_cell_length_b                   18.270(2)
_cell_length_c                   24.485(3)
_cell_angle_alpha                90
_cell_angle_beta                 92.937(2)
_cell_angle_gamma                90
_cell_volume                     5353.04
_exptl_crystal_colour            yellow
_exptl_crystal_description       block
_cell_formula_units_Z            4
loop_
_atom_site_label
_atom_site_type_symbol
_atom_site_fract_x
_atom_site_fract_y
_atom_site_fract_z
Br1 Br 0.18433(5) 1.30689(3) 0.11804(2)
Br2 Br 1.17230(4) 1.07360(3) 1.06901(2)
Br3 Br 1.04840(5) 0.28334(3) 0.30910(3)
C1 C 0.2885(4) 1.2500(2) 0.15911(19)
C2 C 0.3677(4) 1.2066(3) 0.13994(19)
H1 H 0.3805 1.2010 0.1022
C3 C 0.4300(4) 1.1702(3) 0.18217(19)
H2 H 0.4888 1.1369 0.1757
C4 C 0.3974(3) 1.1875(2) 0.23382(18)
C5 C 0.4421(3) 1.1614(2) 0.28713(18)
C6 C 0.3958(3) 1.1838(2) 0.33596(18)
H3 H 0.3344 1.2168 0.3344
C7 C 0.4377(3) 1.1588(2) 0.38638(19)
H4 H 0.4053 1.1744 0.4190
C8 C 0.5270(3) 1.1111(2) 0.38855(18)
C9 C 0.5738(3) 1.0882(2) 0.33993(18)
C10 C 0.5325(3) 1.1128(2) 0.28994(18)
H5 H 0.5652 1.0969 0.2574
C11 C 0.6735(3) 1.0376(2) 0.35241(17)
C12 C 0.6559(4) 0.9615(2) 0.32465(19)
H6 H 0.6500 0.9685 0.2845
H7 H 0.7227 0.9309 0.3333
C13 C 0.5533(4) 0.9206(3) 0.3418(2)
H8 H 0.5476 0.8737 0.3223
H9 H 0.4864 0.9499 0.3328
H10 H 0.5595 0.9116 0.3812
C14 C 0.7828(4) 1.0713(2) 0.3333(2)
H11 H 0.8459 1.0392 0.3454
H12 H 0.7794 1.0725 0.2928
C15 C 0.8064(4) 1.1481(3) 0.3546(2)
H13 H 0.8772 1.1656 0.3410
H14 H 0.8113 1.1475 0.3946
H15 H 0.7458 1.1809 0.3417
C16 C 0.6743(3) 1.0332(2) 0.41424(17)
C17 C 0.5908(3) 1.0769(2) 0.43514(18)
C18 C 0.5792(3) 1.0812(2) 0.49114(18)
H16 H 0.5227 1.1110 0.5055
C19 C 0.6516(4) 1.0412(2) 0.52582(19)
H17 H 0.6439 1.0436 0.5642
C20 C 0.7352(4) 0.9976(2) 0.50527(18)
C21 C 0.7477(3) 0.9941(2) 0.44945(17)
H18 H 0.8056 0.9654 0.4352
C22 C 1.1467(3) 1.1113(3) 0.99836(19)
C23 C 1.1578(4) 1.1819(3) 0.9818(2)
H19 H 1.1822 1.2208 1.0052
C24 C 1.1288(4) 1.1904(3) 0.92593(19)
H20 H 1.1327 1.2360 0.9075
C25 C 1.0941(3) 1.1266(2) 0.90017(18)
C26 C 1.0592(3) 1.1147(2) 0.84267(18)
C27 C 1.0881(3) 1.1647(2) 0.80275(18)
H21 H 1.1294 1.2072 0.8134
C28 C 1.0581(4) 1.1539(2) 0.74808(19)
H22 H 1.0781 1.1887 0.7215
C29 C 0.9981(3) 1.0912(2) 0.73234(17)
C30 C 0.9693(3) 1.0402(2) 0.77135(17)
C31 C 0.9976(3) 1.0519(2) 0.82675(18)
H23 H 0.9756 1.0177 0.8534
C32 C 0.8996(3) 0.9777(2) 0.74484(17)
C33 C 0.7813(4) 0.9744(2) 0.7661(2)
H24 H 0.7391 0.9352 0.7460
H25 H 0.7871 0.9603 0.8052
C34 C 0.7149(4) 1.0450(3) 0.7605(2)
H26 H 0.6410 1.0378 0.7751
H27 H 0.7062 1.0587 0.7218
H28 H 0.7545 1.0839 0.7810
C35 C 0.9599(4) 0.9023(2) 0.7492(2)
H29 H 0.9153 0.8667 0.7268
H30 H 1.0330 0.9073 0.7325
C36 C 0.9804(5) 0.8702(3) 0.8045(2)
H31 H 1.0177 0.8228 0.8014
H32 H 0.9090 0.8634 0.8216
H33 H 1.0280 0.9032 0.8269
C37 C 0.8969(3) 1.0012(2) 0.68576(17)
C38 C 0.9560(3) 1.0667(2) 0.67822(18)
C39 C 0.9634(3) 1.0961(2) 0.62684(18)
H34 H 1.0018 1.1410 0.6222
C40 C 0.9146(3) 1.0599(2) 0.58154(18)
H35 H 0.9208 1.0795 0.5459
C41 C 0.8568(3) 0.9950(2) 0.58889(18)
C42 C 0.8471(3) 0.9655(2) 0.64037(18)
H36 H 0.8068 0.9212 0.6449
C43 C 0.9723(4) 0.3641(3) 0.3361(2)
C44 C 0.8703(5) 0.3866(3) 0.3197(3)
H37 H 0.8237 0.3625 0.2929
C45 C 0.8399(4) 0.4515(3) 0.3475(2)
H38 H 0.7698 0.4750 0.3411
C46 C 0.9202(4) 0.4768(2) 0.3841(2)
C47 C 0.9211(4) 0.5425(2) 0.41916(19)
C48 C 1.0176(4) 0.5619(2) 0.45040(19)
H39 H 1.0806 0.5303 0.4512
C49 C 1.0232(3) 0.6268(2) 0.48030(18)
H40 H 1.0891 0.6391 0.5016
C50 C 0.9315(3) 0.6731(2) 0.47862(17)
C51 C 0.8319(3) 0.6519(2) 0.44970(18)
C52 C 0.8271(4) 0.5875(2) 0.42052(19)
H41 H 0.7596 0.5737 0.4012
C53 C 0.7405(3) 0.7094(2) 0.45631(18)
C54 C 0.6851(4) 0.7333(3) 0.4016(2)
H42 H 0.6446 0.6909 0.3851
H43 H 0.6290 0.7715 0.4087
C55 C 0.7639(4) 0.7629(3) 0.3604(2)
H44 H 0.7212 0.7767 0.3268
H45 H 0.8187 0.7252 0.3521
H46 H 0.8030 0.8060 0.3757
C56 C 0.6493(4) 0.6788(3) 0.4930(2)
H47 H 0.5924 0.7173 0.4975
H48 H 0.6118 0.6372 0.4738
C57 C 0.6918(4) 0.6533(3) 0.5491(2)
H49 H 0.6291 0.6349 0.5693
H50 H 0.7271 0.6944 0.5691
H51 H 0.7466 0.6141 0.5452
C58 C 0.8066(3) 0.7692(2) 0.48628(18)
C59 C 0.9147(3) 0.7461(2) 0.50188(18)
C60 C 0.9861(4) 0.7924(2) 0.53172(18)
H52 H 1.0594 0.7765 0.5427
C61 C 0.9504(4) 0.8617(2) 0.54547(18)
H53 H 0.9993 0.8932 0.5663
C62 C 0.8429(4) 0.8860(2) 0.52903(18)
C63 C 0.7699(3) 0.8383(2) 0.49986(17)
H54 H 0.6959 0.8533 0.4895
N1 N 0.8073(3) 0.95767(19) 0.54198(15)
S1 S 0.28834(9) 1.24986(6) 0.22883(5)
S2 S 1.09899(10) 1.05488(6) 0.94636(5)
S3 S 1.03541(11) 0.41976(7) 0.38430(6)
loop_
_geom_bond_atom_site_label_1
_geom_bond_atom_site_label_2
_geom_bond_site_symmetry_1
_geom_bond_site_symmetry_2
Br1 C1 1_555 1_555
Br2 C22 1_555 1_555
Br3 C43 1_555 1_555
C1 C2 1_555 1_555
C2 H1 1_555 1_555
C3 C2 1_555 1_555
H2 C3 1_555 1_555
C4 C3 1_555 1_555
C5 C4 1_555 1_555
C6 C5 1_555 1_555
H3 C6 1_555 1_555
C7 C6 1_555 1_555
H4 C7 1_555 1_555
C8 C7 1_555 1_555
C9 C8 1_555 1_555
C10 C5 1_555 1_555
H5 C10 1_555 1_555
C11 C9 1_555 1_555
C12 C11 1_555 1_555
H6 C12 1_555 1_555
H7 C12 1_555 1_555
C13 C12 1_555 1_555
H8 C13 1_555 1_555
H9 C13 1_555 1_555
H10 C13 1_555 1_555
C14 C11 1_555 1_555
H11 C14 1_555 1_555
H12 C14 1_555 1_555
C15 C14 1_555 1_555
H13 C15 1_555 1_555
H14 C15 1_555 1_555
H15 C15 1_555 1_555
C16 C11 1_555 1_555
C17 C8 1_555 1_555
C18 C17 1_555 1_555
H16 C18 1_555 1_555
C19 C18 1_555 1_555
H17 C19 1_555 1_555
C20 C19 1_555 1_555
C21 C16 1_555 1_555
H18 C21 1_555 1_555
C22 C23 1_555 1_555
C23 H19 1_555 1_555
C24 C23 1_555 1_555
H20 C24 1_555 1_555
C25 C24 1_555 1_555
C26 C25 1_555 1_555
C27 C26 1_555 1_555
H21 C27 1_555 1_555
C28 C27 1_555 1_555
H22 C28 1_555 1_555
C29 C28 1_555 1_555
C30 C29 1_555 1_555
C31 C26 1_555 1_555
H23 C31 1_555 1_555
C32 C30 1_555 1_555
C33 C32 1_555 1_555
H24 C33 1_555 1_555
H25 C33 1_555 1_555
C34 C33 1_555 1_555
H26 C34 1_555 1_555
H27 C34 1_555 1_555
H28 C34 1_555 1_555
C35 C32 1_555 1_555
H29 C35 1_555 1_555
H30 C35 1_555 1_555
C36 C35 1_555 1_555
H31 C36 1_555 1_555
H32 C36 1_555 1_555
H33 C36 1_555 1_555
C37 C32 1_555 1_555
C38 C29 1_555 1_555
C39 C38 1_555 1_555
H34 C39 1_555 1_555
C40 C39 1_555 1_555
H35 C40 1_555 1_555
C41 C40 1_555 1_555
C42 C37 1_555 1_555
H36 C42 1_555 1_555
C43 C44 1_555 1_555
C44 H37 1_555 1_555
C45 C44 1_555 1_555
H38 C45 1_555 1_555
C46 C45 1_555 1_555
C47 C46 1_555 1_555
C48 C47 1_555 1_555
H39 C48 1_555 1_555
C49 C48 1_555 1_555
H40 C49 1_555 1_555
C50 C49 1_555 1_555
C51 C50 1_555 1_555
C52 C47 1_555 1_555
H41 C52 1_555 1_555
C53 C51 1_555 1_555
C54 C53 1_555 1_555
H42 C54 1_555 1_555
H43 C54 1_555 1_555
C55 C54 1_555 1_555
H44 C55 1_555 1_555
H45 C55 1_555 1_555
H46 C55 1_555 1_555
C56 C53 1_555 1_555
H47 C56 1_555 1_555
H48 C56 1_555 1_555
C57 C56 1_555 1_555
H49 C57 1_555 1_555
H50 C57 1_555 1_555
H51 C57 1_555 1_555
C58 C53 1_555 1_555
C59 C50 1_555 1_555
C60 C59 1_555 1_555
H52 C60 1_555 1_555
C61 C60 1_555 1_555
H53 C61 1_555 1_555
C62 C61 1_555 1_555
C63 C58 1_555 1_555
H54 C63 1_555 1_555
N1 C20 1_555 1_555
S1 C1 1_555 1_555
S2 C22 1_555 1_555
S3 C43 1_555 1_555
C4 S1 1_555 1_555
C9 C10 1_555 1_555
C16 C17 1_555 1_555
C20 C21 1_555 1_555
C25 S2 1_555 1_555
C30 C31 1_555 1_555
C37 C38 1_555 1_555
C41 C42 1_555 1_555
C41 N1 1_555 1_555
C46 S3 1_555 1_555
C51 C52 1_555 1_555
C58 C59 1_555 1_555
C62 C63 1_555 1_555
C62 N1 1_555 1_555

#END
