
#######################################################################
#
#                 Cambridge Crystallographic Data Centre
#                                CCDC 
#
#######################################################################
#
# If this CIF has been generated from an entry in the Cambridge 
# Structural Database, then it will include bibliographic, chemical, 
# crystal, experimental, refinement or atomic coordinate data resulting 
# from the CCDC's data processing and validation procedures.
#
#######################################################################

data_AXELEV
_chemical_formula_moiety         'C27 H19 Br2 N1 S2,0.5(C1 H4 O1)'
_chemical_name_systematic        
'4-(5-bromo-2-thienyl)-N-(4-(5-bromo-2-thienyl)phenyl)-N-(4-methylphenyl)aniline methanol solvate'
_symmetry_cell_setting           triclinic
_symmetry_space_group_name_H-M   'P -1'
_symmetry_Int_Tables_number      2
_space_group_name_Hall           '-P 1'
loop_
_symmetry_equiv_pos_site_id
_symmetry_equiv_pos_as_xyz
1 x,y,z
2 -x,-y,-z
_cell_length_a                   10.0617(9)
_cell_length_b                   12.0195(11)
_cell_length_c                   21.644(2)
_cell_angle_alpha                84.260(2)
_cell_angle_beta                 79.477(2)
_cell_angle_gamma                74.694(2)
_cell_volume                     2478.54
_exptl_crystal_colour            yellow
_exptl_crystal_description       rod
_cell_formula_units_Z            4
loop_
_atom_site_label
_atom_site_type_symbol
_atom_site_fract_x
_atom_site_fract_y
_atom_site_fract_z
Br1 Br 0.72033(8) 0.89988(7) 0.01108(4)
Br2 Br 0.43985(9) 0.39015(7) 0.69640(4)
C1 C 0.6284(7) 0.7814(6) 0.0362(3)
C2 C 0.5446(7) 0.7481(6) 0.0038(4)
H1 H 0.5204 0.7837 -0.0352
C3 C 0.4969(7) 0.6529(6) 0.0354(3)
H2 H 0.4378 0.6173 0.0192
C4 C 0.5435(6) 0.6175(5) 0.0909(3)
C5 C 0.5196(6) 0.5208(5) 0.1352(3)
C6 C 0.6092(6) 0.4712(5) 0.1776(3)
H3 H 0.6864 0.5020 0.1789
C7 C 0.5899(6) 0.3781(5) 0.2182(3)
H4 H 0.6521 0.3469 0.2473
C8 C 0.4794(7) 0.3307(6) 0.2161(3)
C9 C 0.3882(7) 0.3804(6) 0.1745(3)
H5 H 0.3102 0.3504 0.1738
C10 C 0.4085(7) 0.4724(6) 0.1342(3)
H6 H 0.3459 0.5035 0.1052
C11 C 0.4191(6) 0.1428(5) 0.2350(3)
C12 C 0.4679(7) 0.1099(6) 0.1733(3)
H7 H 0.5337 0.1454 0.1473
C13 C 0.4226(7) 0.0274(6) 0.1497(4)
H8 H 0.4558 0.0086 0.1070
C14 C 0.3293(7) -0.0296(6) 0.1864(4)
C15 C 0.2857(7) 0.0012(6) 0.2482(4)
H9 H 0.2243 -0.0376 0.2750
C16 C 0.3277(7) 0.0857(5) 0.2728(3)
H10 H 0.2941 0.1047 0.3154
C17 C 0.2770(9) -0.1192(7) 0.1592(4)
H11 H 0.2121 -0.1491 0.1918
H12 H 0.3564 -0.1829 0.1442
H13 H 0.2289 -0.0833 0.1239
C18 C 0.4684(7) 0.2367(6) 0.3221(3)
C19 C 0.5274(7) 0.1369(6) 0.3562(3)
H14 H 0.5643 0.0659 0.3362
C20 C 0.5318(7) 0.1419(6) 0.4188(3)
H15 H 0.5723 0.0730 0.4413
C21 C 0.4797(7) 0.2429(6) 0.4506(3)
C22 C 0.4242(7) 0.3426(6) 0.4155(3)
H16 H 0.3903 0.4140 0.4353
C23 C 0.4175(7) 0.3397(6) 0.3521(3)
H17 H 0.3779 0.4085 0.3293
C24 C 0.4844(8) 0.2450(6) 0.5180(3)
C25 C 0.5216(10) 0.1579(7) 0.5611(4)
H18 H 0.5524 0.0795 0.5502
C26 C 0.5123(9) 0.1893(7) 0.6218(4)
H19 H 0.5362 0.1370 0.6563
C27 C 0.4640(7) 0.3057(6) 0.6250(3)
N1 N 0.4600(6) 0.2330(4) 0.2577(3)
S1 S 0.65047(18) 0.70110(15) 0.10494(8)
S2 S 0.43284(19) 0.37436(16) 0.55490(9)
Br3 Br 0.17450(9) 0.62077(8) 0.27596(4)
Br4 Br -0.14084(9) 0.13327(7) 1.02816(4)
C28 C 0.0931(8) 0.6343(6) 0.3607(3)
C29 C -0.0311(8) 0.6210(7) 0.3873(4)
H20 H -0.0954 0.6043 0.3647
C30 C -0.0585(8) 0.6339(8) 0.4526(4)
H21 H -0.1443 0.6287 0.4782
C31 C 0.0511(7) 0.6550(6) 0.4761(3)
C32 C 0.0573(7) 0.6760(6) 0.5405(3)
C33 C -0.0532(7) 0.6715(6) 0.5883(3)
H22 H -0.1319 0.6504 0.5792
C34 C -0.0517(7) 0.6973(6) 0.6496(3)
H23 H -0.1290 0.6934 0.6816
C35 C 0.0611(6) 0.7285(5) 0.6643(3)
C36 C 0.1746(7) 0.7275(6) 0.6172(3)
H24 H 0.2553 0.7448 0.6267
C37 C 0.1729(7) 0.7020(6) 0.5567(4)
H25 H 0.2525 0.7022 0.5254
C38 C 0.0945(6) 0.8636(6) 0.7347(3)
C39 C 0.1496(7) 0.8748(6) 0.7879(3)
H26 H 0.1640 0.8127 0.8187
C40 C 0.1835(7) 0.9776(6) 0.7955(4)
H27 H 0.2185 0.9860 0.8322
C41 C 0.1664(7) 1.0672(6) 0.7499(4)
C42 C 0.1122(7) 1.0554(6) 0.6978(4)
H28 H 0.1001 1.1170 0.6665
C43 C 0.0747(7) 0.9551(6) 0.6901(3)
H29 H 0.0355 0.9491 0.6542
C44 C 0.2063(9) 1.1782(6) 0.7578(4)
H30 H 0.2425 1.1719 0.7974
H31 H 0.1238 1.2436 0.7584
H32 H 0.2784 1.1906 0.7226
C45 C 0.0214(7) 0.6844(5) 0.7775(3)
C46 C 0.0621(7) 0.5661(5) 0.7708(3)
H33 H 0.1151 0.5363 0.7323
C47 C 0.0255(6) 0.4909(6) 0.8203(3)
H34 H 0.0525 0.4102 0.8147
C48 C -0.0499(6) 0.5313(5) 0.8779(3)
C49 C -0.0907(6) 0.6524(5) 0.8830(3)
H35 H -0.1435 0.6833 0.9213
C50 C -0.0564(7) 0.7250(5) 0.8347(3)
H36 H -0.0859 0.8059 0.8398
C51 C -0.0896(6) 0.4526(5) 0.9302(3)
C52 C -0.1505(7) 0.4759(6) 0.9911(3)
H37 H -0.1745 0.5513 1.0062
C53 C -0.1749(7) 0.3787(6) 1.0296(3)
H38 H -0.2161 0.3807 1.0728
C54 C -0.1311(7) 0.2818(6) 0.9961(4)
N2 N 0.0598(6) 0.7587(5) 0.7265(3)
S3 S 0.18545(19) 0.66100(19) 0.41482(9)
S4 S -0.0618(2) 0.30653(15) 0.91955(9)
C55 C 0.8363(11) 0.9437(8) 0.4801(4)
O1 O 0.8971(10) 1.0048(8) 0.5317(7)
loop_
_geom_bond_atom_site_label_1
_geom_bond_atom_site_label_2
_geom_bond_site_symmetry_1
_geom_bond_site_symmetry_2
Br1 C1 1_555 1_555
Br2 C27 1_555 1_555
Br3 C28 1_555 1_555
Br4 C54 1_555 1_555
C1 C2 1_555 1_555
C2 H1 1_555 1_555
C3 C2 1_555 1_555
H2 C3 1_555 1_555
C4 C3 1_555 1_555
C5 C4 1_555 1_555
C6 C5 1_555 1_555
H3 C6 1_555 1_555
C7 C6 1_555 1_555
H4 C7 1_555 1_555
C8 C7 1_555 1_555
C9 C8 1_555 1_555
H5 C9 1_555 1_555
C10 C5 1_555 1_555
H6 C10 1_555 1_555
C11 C12 1_555 1_555
C12 H7 1_555 1_555
C13 C12 1_555 1_555
H8 C13 1_555 1_555
C14 C13 1_555 1_555
C15 C14 1_555 1_555
H9 C15 1_555 1_555
C16 C11 1_555 1_555
H10 C16 1_555 1_555
C17 C14 1_555 1_555
H11 C17 1_555 1_555
H12 C17 1_555 1_555
H13 C17 1_555 1_555
C18 C19 1_555 1_555
C19 H14 1_555 1_555
C20 C19 1_555 1_555
H15 C20 1_555 1_555
C21 C20 1_555 1_555
C22 C21 1_555 1_555
H16 C22 1_555 1_555
C23 C18 1_555 1_555
H17 C23 1_555 1_555
C24 C21 1_555 1_555
C25 C24 1_555 1_555
H18 C25 1_555 1_555
C26 C25 1_555 1_555
H19 C26 1_555 1_555
C27 C26 1_555 1_555
C28 C29 1_555 1_555
C29 H20 1_555 1_555
C30 C29 1_555 1_555
H21 C30 1_555 1_555
C31 C30 1_555 1_555
C32 C31 1_555 1_555
C33 C32 1_555 1_555
H22 C33 1_555 1_555
C34 C33 1_555 1_555
H23 C34 1_555 1_555
C35 C34 1_555 1_555
C36 C35 1_555 1_555
H24 C36 1_555 1_555
C37 C32 1_555 1_555
H25 C37 1_555 1_555
C38 C39 1_555 1_555
C39 H26 1_555 1_555
C40 C39 1_555 1_555
H27 C40 1_555 1_555
C41 C40 1_555 1_555
C42 C41 1_555 1_555
H28 C42 1_555 1_555
C43 C38 1_555 1_555
H29 C43 1_555 1_555
C44 C41 1_555 1_555
H30 C44 1_555 1_555
H31 C44 1_555 1_555
H32 C44 1_555 1_555
C45 C46 1_555 1_555
C46 H33 1_555 1_555
C47 C46 1_555 1_555
H34 C47 1_555 1_555
C48 C47 1_555 1_555
C49 C48 1_555 1_555
H35 C49 1_555 1_555
C50 C45 1_555 1_555
H36 C50 1_555 1_555
C51 C48 1_555 1_555
C52 C51 1_555 1_555
H37 C52 1_555 1_555
C53 C52 1_555 1_555
H38 C53 1_555 1_555
C54 C53 1_555 1_555
C55 O1 1_555 1_555
N1 C8 1_555 1_555
N2 C35 1_555 1_555
S1 C1 1_555 1_555
S2 C24 1_555 1_555
S3 C28 1_555 1_555
S4 C51 1_555 1_555
C4 S1 1_555 1_555
C9 C10 1_555 1_555
C11 N1 1_555 1_555
C15 C16 1_555 1_555
C18 N1 1_555 1_555
C22 C23 1_555 1_555
C27 S2 1_555 1_555
C31 S3 1_555 1_555
C36 C37 1_555 1_555
C38 N2 1_555 1_555
C42 C43 1_555 1_555
C45 N2 1_555 1_555
C49 C50 1_555 1_555
C54 S4 1_555 1_555

#END
