
#######################################################################
#
#                 Cambridge Crystallographic Data Centre
#                                CCDC 
#
#######################################################################
#
# If this CIF has been generated from an entry in the Cambridge 
# Structural Database, then it will include bibliographic, chemical, 
# crystal, experimental, refinement or atomic coordinate data resulting 
# from the CCDC's data processing and validation procedures.
#
#######################################################################

data_AXELAQ
_chemical_formula_moiety         'C19 H24 O3'
_chemical_name_systematic        
6-Acetyl-5-hydroxy-7-phenyl-1,4,4-trimethylbicyclo(3.3.0)octan-2-one
_symmetry_cell_setting           orthorhombic
_symmetry_space_group_name_H-M   'P 21 21 21'
_symmetry_Int_Tables_number      19
_space_group_name_Hall           'P 2ac 2ab'
loop_
_symmetry_equiv_pos_site_id
_symmetry_equiv_pos_as_xyz
1 x,y,z
2 1/2-x,-y,1/2+z
3 1/2+x,1/2-y,-z
4 -x,1/2+y,1/2-z
_cell_length_a                   8.4701(2)
_cell_length_b                   10.4326(3)
_cell_length_c                   18.5409(5)
_cell_angle_alpha                90
_cell_angle_beta                 90
_cell_angle_gamma                90
_cell_volume                     1638.37
_exptl_crystal_colour            colorless
_exptl_crystal_description       plates
_cell_formula_units_Z            4
_exptl_crystal_recrystallization_method hexanes
loop_
_atom_site_label
_atom_site_type_symbol
_atom_site_fract_x
_atom_site_fract_y
_atom_site_fract_z
C1 C 0.0357(3) 0.1828(2) 0.16161(11)
C2 C 0.1760(3) 0.1079(2) 0.13570(13)
C3 C 0.2967(2) 0.21012(19) 0.11386(11)
C4 C 0.2711(2) 0.31504(17) 0.17261(10)
C5 C 0.3570(2) 0.28520(19) 0.24492(10)
C6 C 0.2482(3) 0.34270(19) 0.30354(10)
C7 C 0.0848(2) 0.3019(2) 0.27634(11)
C8 C 0.0912(2) 0.30982(19) 0.19285(10)
O1 O -0.1015(2) 0.14941(17) 0.15802(9)
C9 C 0.2514(4) 0.2629(3) 0.03932(13)
C10 C 0.4652(3) 0.1592(3) 0.11089(14)
O2 O 0.31047(19) 0.43938(13) 0.14654(7)
C11 C 0.5248(2) 0.33314(19) 0.25346(11)
O3 O 0.56368(17) 0.43983(14) 0.23192(8)
C12 C 0.6402(3) 0.2504(3) 0.29187(15)
C13 C 0.2806(2) 0.30092(18) 0.38023(10)
C14 C 0.3116(3) 0.1733(2) 0.39715(12)
C15 C 0.3438(4) 0.1367(2) 0.46737(13)
C16 C 0.3426(4) 0.2268(3) 0.52206(13)
C17 C 0.3065(3) 0.3524(2) 0.50712(12)
C18 C 0.2769(3) 0.3900(2) 0.43617(11)
C19 C -0.0073(3) 0.4217(2) 0.16543(15)
H1 H 0.148(3) 0.044(2) 0.0972(13)
H2 H 0.211(3) 0.059(2) 0.1782(13)
H3 H 0.353(2) 0.1882(19) 0.2523(11)
H4 H 0.257(3) 0.437(2) 0.3010(10)
H5 H 0.001(3) 0.356(2) 0.2959(13)
H6 H 0.065(3) 0.213(2) 0.2923(12)
H7 H 0.138(3) 0.302(2) 0.0385(13)
H8 H 0.264(3) 0.194(2) 0.0026(14)
H9 H 0.329(3) 0.331(3) 0.0264(13)
H10 H 0.479(3) 0.097(2) 0.0707(14)
H11 H 0.495(3) 0.110(2) 0.1576(13)
H12 H 0.547(3) 0.237(2) 0.1013(13)
H13 H 0.411(5) 0.465(3) 0.1688(18)
H14 H 0.747(4) 0.296(3) 0.2994(16)
H15 H 0.646(4) 0.167(4) 0.2624(19)
H16 H 0.592(4) 0.224(3) 0.3395(17)
H17 H 0.315(3) 0.106(2) 0.3599(12)
H18 H 0.371(3) 0.050(3) 0.4777(13)
H19 H 0.370(3) 0.197(2) 0.5737(13)
H20 H 0.297(3) 0.419(2) 0.5462(13)
H21 H 0.256(3) 0.482(2) 0.4245(12)
H22 H -0.002(3) 0.422(2) 0.1143(16)
H23 H 0.028(4) 0.508(3) 0.1912(14)
H24 H -0.123(3) 0.411(2) 0.1789(12)
loop_
_geom_bond_atom_site_label_1
_geom_bond_atom_site_label_2
_geom_bond_site_symmetry_1
_geom_bond_site_symmetry_2
C1 C2 1_555 1_555
C2 C3 1_555 1_555
C3 C4 1_555 1_555
C4 C5 1_555 1_555
C5 C6 1_555 1_555
C6 C7 1_555 1_555
C7 C8 1_555 1_555
C8 C1 1_555 1_555
O1 C1 1_555 1_555
C9 C3 1_555 1_555
C10 C3 1_555 1_555
O2 C4 1_555 1_555
C11 C5 1_555 1_555
O3 C11 1_555 1_555
C12 C11 1_555 1_555
C13 C6 1_555 1_555
C14 C13 1_555 1_555
C15 C14 1_555 1_555
C16 C15 1_555 1_555
C17 C16 1_555 1_555
C18 C13 1_555 1_555
C19 C8 1_555 1_555
H1 C2 1_555 1_555
H2 C2 1_555 1_555
H3 C5 1_555 1_555
H4 C6 1_555 1_555
H5 C7 1_555 1_555
H6 C7 1_555 1_555
H7 C9 1_555 1_555
H8 C9 1_555 1_555
H9 C9 1_555 1_555
H10 C10 1_555 1_555
H11 C10 1_555 1_555
H12 C10 1_555 1_555
H13 O2 1_555 1_555
H14 C12 1_555 1_555
H15 C12 1_555 1_555
H16 C12 1_555 1_555
H17 C14 1_555 1_555
H18 C15 1_555 1_555
H19 C16 1_555 1_555
H20 C17 1_555 1_555
H21 C18 1_555 1_555
H22 C19 1_555 1_555
H23 C19 1_555 1_555
H24 C19 1_555 1_555
C4 C8 1_555 1_555
C17 C18 1_555 1_555

#END
