
#######################################################################
#
#                 Cambridge Crystallographic Data Centre
#                                CCDC 
#
#######################################################################
#
# If this CIF has been generated from an entry in the Cambridge 
# Structural Database, then it will include bibliographic, chemical, 
# crystal, experimental, refinement or atomic coordinate data resulting 
# from the CCDC's data processing and validation procedures.
#
#######################################################################

data_AXEPAV
_chemical_formula_moiety         'C24 H26 N2 O5'
_chemical_name_systematic        
'4-Phenylhexahydro-1H-cyclopenta[c]furan-5-yl 1-(2-nitrophenyl)prolinate'
_symmetry_cell_setting           monoclinic
_symmetry_space_group_name_H-M   'C 2'
_symmetry_Int_Tables_number      5
_space_group_name_Hall           'C 2y'
loop_
_symmetry_equiv_pos_site_id
_symmetry_equiv_pos_as_xyz
1 x,y,z
2 -x,y,-z
3 1/2+x,1/2+y,z
4 1/2-x,1/2+y,-z
_cell_length_a                   23.533(5)
_cell_length_b                   5.3630(11)
_cell_length_c                   18.146(4)
_cell_angle_alpha                90
_cell_angle_beta                 114.31(3)
_cell_angle_gamma                90
_cell_volume                     2087.1
_exptl_crystal_colour            yellow
_exptl_crystal_description       needle
_cell_formula_units_Z            4
loop_
_atom_site_label
_atom_site_type_symbol
_atom_site_fract_x
_atom_site_fract_y
_atom_site_fract_z
O1 O 0.59963(10) 1.1692(5) -0.07844(15)
O2 O 0.73588(9) 0.8744(4) 0.18509(12)
O3 O 0.79657(10) 0.5298(4) 0.21305(13)
O4 O 0.93299(10) 0.5887(5) 0.55216(13)
O5 O 0.94498(11) 0.1909(5) 0.53895(15)
N1 N 0.91391(12) 0.3838(6) 0.51986(16)
N2 N 0.85698(10) 0.7170(5) 0.37538(14)
C1 C 0.55810(14) 1.0766(7) -0.0457(2)
H1 H 0.5178 1.0324 -0.0891
H2 H 0.5511 1.2025 -0.0111
C2 C 0.58962(14) 0.8454(7) 0.00384(18)
H3 H 0.5590 0.7103 -0.0040
C3 C 0.62838(12) 0.8959(6) 0.09418(17)
H4 H 0.6376 1.0768 0.0998
C4 C 0.68996(13) 0.7619(6) 0.11254(18)
H5 H 0.6861 0.5810 0.1203
C5 C 0.70198(14) 0.8109(7) 0.03760(18)
H6 H 0.7327 0.6937 0.0342
H7 H 0.7168 0.9816 0.0375
C6 C 0.63773(14) 0.7707(7) -0.03217(19)
H8 H 0.6320 0.5955 -0.0509
C7 C 0.62238(17) 0.9504(8) -0.1020(2)
H9 H 0.6597 0.9883 -0.1112
H10 H 0.5905 0.8799 -0.1517
C8 C 0.59993(14) 0.8315(6) 0.15347(19)
C9 C 0.61055(14) 0.9866(7) 0.21853(19)
H11 H 0.6353 1.1295 0.2253
C10 C 0.58561(15) 0.9369(7) 0.2740(2)
H12 H 0.5935 1.0451 0.3179
C11 C 0.54879(15) 0.7263(7) 0.2646(2)
H13 H 0.5312 0.6924 0.3016
C12 C 0.53833(15) 0.5685(7) 0.2007(2)
H14 H 0.5133 0.4264 0.1941
C13 C 0.56430(13) 0.6162(6) 0.1456(2)
H15 H 0.5579 0.5038 0.1032
C14 C 0.78587(14) 0.7358(6) 0.23117(19)
C15 C 0.82614(13) 0.8831(7) 0.30602(18)
H16 H 0.8010 1.0103 0.3186
C16 C 0.88055(14) 1.0054(7) 0.2940(2)
H17 H 0.8687 1.0491 0.2371
H18 H 0.8948 1.1560 0.3272
C17 C 0.93066(14) 0.8035(7) 0.32150(19)
H19 H 0.9229 0.6777 0.2793
H20 H 0.9722 0.8750 0.3363
C18 C 0.92417(13) 0.6929(6) 0.39489(19)
H21 H 0.9371 0.5177 0.4024
H22 H 0.9493 0.7860 0.4441
C19 C 0.82351(13) 0.5572(6) 0.40035(18)
C20 C 0.84876(13) 0.3723(6) 0.45999(17)
C21 C 0.81378(15) 0.1828(6) 0.47349(19)
H23 H 0.8336 0.0552 0.5107
C22 C 0.74988(14) 0.1835(7) 0.43196(19)
H24 H 0.7256 0.0549 0.4393
C23 C 0.72213(14) 0.3793(7) 0.37882(19)
H25 H 0.6784 0.3878 0.3530
C24 C 0.75687(13) 0.5600(7) 0.36309(18)
H26 H 0.7363 0.6891 0.3269
loop_
_geom_bond_atom_site_label_1
_geom_bond_atom_site_label_2
_geom_bond_site_symmetry_1
_geom_bond_site_symmetry_2
O1 C1 1_555 1_555
O2 C4 1_555 1_555
O3 C14 1_555 1_555
O4 N1 1_555 1_555
O5 N1 1_555 1_555
N1 C20 1_555 1_555
N2 C15 1_555 1_555
C1 H1 1_555 1_555
H2 C1 1_555 1_555
C2 C1 1_555 1_555
H3 C2 1_555 1_555
C3 C2 1_555 1_555
H4 C3 1_555 1_555
C4 C3 1_555 1_555
H5 C4 1_555 1_555
C5 C4 1_555 1_555
H6 C5 1_555 1_555
H7 C5 1_555 1_555
C6 C2 1_555 1_555
H8 C6 1_555 1_555
C7 O1 1_555 1_555
H9 C7 1_555 1_555
H10 C7 1_555 1_555
C8 C3 1_555 1_555
C9 C8 1_555 1_555
H11 C9 1_555 1_555
C10 C9 1_555 1_555
H12 C10 1_555 1_555
C11 C10 1_555 1_555
H13 C11 1_555 1_555
C12 C11 1_555 1_555
H14 C12 1_555 1_555
C13 C8 1_555 1_555
H15 C13 1_555 1_555
C14 O2 1_555 1_555
C15 C14 1_555 1_555
H16 C15 1_555 1_555
C16 C15 1_555 1_555
H17 C16 1_555 1_555
H18 C16 1_555 1_555
C17 C16 1_555 1_555
H19 C17 1_555 1_555
H20 C17 1_555 1_555
C18 N2 1_555 1_555
H21 C18 1_555 1_555
H22 C18 1_555 1_555
C19 N2 1_555 1_555
C20 C19 1_555 1_555
C21 C20 1_555 1_555
H23 C21 1_555 1_555
C22 C21 1_555 1_555
H24 C22 1_555 1_555
C23 C22 1_555 1_555
H25 C23 1_555 1_555
C24 C19 1_555 1_555
H26 C24 1_555 1_555
C5 C6 1_555 1_555
C6 C7 1_555 1_555
C12 C13 1_555 1_555
C17 C18 1_555 1_555
C23 C24 1_555 1_555

#END
