
#######################################################################
#
#                 Cambridge Crystallographic Data Centre
#                                CCDC 
#
#######################################################################
#
# If this CIF has been generated from an entry in the Cambridge 
# Structural Database, then it will include bibliographic, chemical, 
# crystal, experimental, refinement or atomic coordinate data resulting 
# from the CCDC's data processing and validation procedures.
#
#######################################################################

data_AXEQEA
_chemical_formula_moiety         'C16 H15 N1 O3'
_chemical_name_systematic        
1-(2-(4-Methoxyphenyl)cyclopropyl)-3-nitrobenzene
_symmetry_cell_setting           monoclinic
_symmetry_space_group_name_H-M   'P 21/c'
_symmetry_Int_Tables_number      14
_space_group_name_Hall           '-P 2ybc'
loop_
_symmetry_equiv_pos_site_id
_symmetry_equiv_pos_as_xyz
1 x,y,z
2 -x,1/2+y,1/2-z
3 -x,-y,-z
4 x,1/2-y,1/2+z
_cell_length_a                   12.306(2)
_cell_length_b                   15.287(2)
_cell_length_c                   7.0855(11)
_cell_angle_alpha                90
_cell_angle_beta                 98.782(6)
_cell_angle_gamma                90
_cell_volume                     1317.31
_exptl_crystal_colour            colorless
_exptl_crystal_description       needle
_cell_formula_units_Z            4
loop_
_atom_site_label
_atom_site_type_symbol
_atom_site_fract_x
_atom_site_fract_y
_atom_site_fract_z
C1 C 0.95436(12) 0.20351(10) 1.0679(2)
C2 C 0.99791(12) 0.28724(10) 1.0862(2)
H1 H 0.9531 0.3356 1.0539
C3 C 1.10877(13) 0.29815(10) 1.1531(2)
C4 C 1.17978(12) 0.22904(10) 1.2012(2)
H2 H 1.2541 0.2383 1.2443
C5 C 1.13613(13) 0.14537(10) 1.1828(2)
H3 H 1.1817 0.0973 1.2143
C6 C 1.02527(13) 0.13260(10) 1.1178(2)
H4 H 0.9974 0.0760 1.1070
C7 C 0.83498(12) 0.19237(10) 1.0015(2)
H5 H 0.7938 0.2468 0.9721
C8 C 0.79153(12) 0.11369(10) 0.8819(2)
H6 H 0.8478 0.0712 0.8590
C9 C 0.77354(13) 0.12083(12) 1.0871(2)
H7 H 0.8155 0.0822 1.1794
H8 H 0.6997 0.1337 1.1113
C10 C 0.69664(12) 0.12060(9) 0.7258(2)
C11 C 0.69304(12) 0.06932(9) 0.5630(2)
H9 H 0.7528 0.0337 0.5504
C12 C 0.60305(12) 0.06954(9) 0.4187(2)
H10 H 0.6024 0.0339 0.3121
C13 C 0.51389(12) 0.12351(9) 0.4349(2)
C14 C 0.51561(12) 0.17559(10) 0.5966(2)
H11 H 0.4559 0.2113 0.6088
C15 C 0.60563(13) 0.17428(10) 0.7389(2)
H12 H 0.6060 0.2097 0.8457
C16 C 0.42226(13) 0.08241(12) 0.1269(2)
H13 H 0.4825 0.1018 0.0660
H14 H 0.3544 0.0922 0.0431
H15 H 0.4303 0.0211 0.1551
N1 N 1.15217(11) 0.38761(9) 1.17218(19)
O1 O 1.08741(11) 0.44880(8) 1.1452(2)
O2 O 1.25190(10) 0.39752(8) 1.21350(19)
O3 O 0.42170(9) 0.12998(7) 0.29964(16)
loop_
_geom_bond_atom_site_label_1
_geom_bond_atom_site_label_2
_geom_bond_site_symmetry_1
_geom_bond_site_symmetry_2
C1 C2 1_555 1_555
C2 H1 1_555 1_555
C3 C2 1_555 1_555
C4 C3 1_555 1_555
H2 C4 1_555 1_555
C5 C4 1_555 1_555
H3 C5 1_555 1_555
C6 C1 1_555 1_555
H4 C6 1_555 1_555
C7 C1 1_555 1_555
H5 C7 1_555 1_555
C8 C7 1_555 1_555
H6 C8 1_555 1_555
C9 C7 1_555 1_555
H7 C9 1_555 1_555
H8 C9 1_555 1_555
C10 C8 1_555 1_555
C11 C10 1_555 1_555
H9 C11 1_555 1_555
C12 C11 1_555 1_555
H10 C12 1_555 1_555
C13 C12 1_555 1_555
C14 C13 1_555 1_555
H11 C14 1_555 1_555
C15 C10 1_555 1_555
H12 C15 1_555 1_555
C16 H13 1_555 1_555
H14 C16 1_555 1_555
H15 C16 1_555 1_555
N1 C3 1_555 1_555
O1 N1 1_555 1_555
O2 N1 1_555 1_555
O3 C13 1_555 1_555
C5 C6 1_555 1_555
C8 C9 1_555 1_555
C14 C15 1_555 1_555
C16 O3 1_555 1_555

#END
