
#######################################################################
#
#                 Cambridge Crystallographic Data Centre
#                                CCDC 
#
#######################################################################
#
# If this CIF has been generated from an entry in the Cambridge 
# Structural Database, then it will include bibliographic, chemical, 
# crystal, experimental, refinement or atomic coordinate data resulting 
# from the CCDC's data processing and validation procedures.
#
#######################################################################

data_AXIBIT
_chemical_formula_moiety         'C20 H24 N1 O6 P1'
_chemical_name_systematic        
'Diethyl (4-nitro-1-oxo-1,3-diphenylbutan-2-yl)phosphonate'
_symmetry_cell_setting           triclinic
_symmetry_space_group_name_H-M   'P 1'
_symmetry_Int_Tables_number      1
_space_group_name_Hall           'P 1'
loop_
_symmetry_equiv_pos_site_id
_symmetry_equiv_pos_as_xyz
1 x,y,z
_cell_length_a                   11.0078(10)
_cell_length_b                   11.3157(12)
_cell_length_c                   17.7880(19)
_cell_angle_alpha                72.11(2)
_cell_angle_beta                 89.35(3)
_cell_angle_gamma                73.86(2)
_cell_volume                     2018.79
_exptl_crystal_colour            colorless
_exptl_crystal_description       prism
_cell_formula_units_Z            4
loop_
_atom_site_label
_atom_site_type_symbol
_atom_site_fract_x
_atom_site_fract_y
_atom_site_fract_z
P1 P 0.76521(5) 0.86525(5) 0.84156(3)
O1 O 0.67112(12) 0.86313(13) 0.90062(8)
O2 O 0.76057(13) 1.00194(13) 0.78169(8)
O3 O 0.90777(12) 0.81005(13) 0.87659(8)
O4 O 0.93356(12) 0.78076(14) 0.70153(8)
O5 O 0.89850(13) 0.40096(14) 0.94825(8)
O6 O 0.72022(14) 0.36973(14) 0.92306(10)
N1 N 0.78753(16) 0.43989(16) 0.92090(10)
C1 C 0.7101(2) 1.1219(2) 0.80185(13)
H1 H 0.7749 1.1691 0.7962
H2 H 0.6872 1.1014 0.8574
C2 C 0.5962(2) 1.2032(2) 0.74730(16)
H3 H 0.5283 1.1612 0.7585
H4 H 0.6172 1.2137 0.6924
H5 H 0.5677 1.2886 0.7550
C3 C 0.94933(18) 0.7133(2) 0.95492(12)
H6 H 0.9546 0.6256 0.9528
H7 H 0.8887 0.7331 0.9940
C4 C 1.07942(18) 0.7196(2) 0.97823(12)
H8 H 1.0728 0.8068 0.9801
H9 H 1.1384 0.6999 0.9391
H10 H 1.1109 0.6561 1.0305
C5 C 0.75012(17) 0.77758(18) 0.77302(11)
H11 H 0.6581 0.7965 0.7572
C6 C 0.81786(17) 0.82334(18) 0.69847(11)
C7 C 0.74511(18) 0.91778(18) 0.62413(11)
C8 C 0.61382(18) 0.97132(19) 0.61681(12)
H12 H 0.5657 0.9448 0.6602
C9 C 0.55315(19) 1.0628(2) 0.54680(13)
H13 H 0.4637 1.0992 0.5423
C10 C 0.62263(19) 1.1012(2) 0.48335(12)
H14 H 0.5810 1.1652 0.4356
C11 C 0.7530(2) 1.0465(2) 0.48934(12)
H15 H 0.8002 1.0717 0.4452
C12 C 0.81434(19) 0.95595(19) 0.55870(12)
H16 H 0.9037 0.9191 0.5625
C13 C 0.80697(17) 0.62927(18) 0.81189(11)
H17 H 0.8966 0.6123 0.8322
C14 C 0.73218(17) 0.58252(18) 0.88315(11)
H18 H 0.7369 0.6280 0.9220
H19 H 0.6419 0.6023 0.8652
C15 C 0.80817(17) 0.55126(19) 0.75519(11)
C16 C 0.70087(18) 0.57307(19) 0.70538(11)
H20 H 0.6282 0.6439 0.7021
C17 C 0.7003(2) 0.4917(2) 0.66082(12)
H21 H 0.6266 0.5064 0.6280
C18 C 0.8060(2) 0.3896(2) 0.66374(12)
H22 H 0.8047 0.3340 0.6334
C19 C 0.9137(2) 0.3686(2) 0.71094(12)
H23 H 0.9870 0.2993 0.7125
C20 C 0.91421(18) 0.4492(2) 0.75602(12)
H24 H 0.9887 0.4343 0.7882
P2 P 0.08003(5) 0.71637(5) 0.34752(3)
O7 O 0.20167(12) 0.67314(13) 0.39551(8)
O8 O -0.03381(12) 0.67162(13) 0.38876(8)
O9 O 0.02270(12) 0.86869(13) 0.31130(8)
O10 O 0.25514(12) 0.73523(13) 0.20024(8)
O11 O 0.33776(14) 0.27367(15) 0.38006(9)
O12 O 0.17356(16) 0.19989(15) 0.38829(10)
N2 N 0.22265(18) 0.28815(17) 0.37663(10)
C21 C -0.08979(19) 0.7272(2) 0.45094(12)
H25 H -0.1666 0.8007 0.4283
H26 H -0.0280 0.7593 0.4730
C22 C -0.1233(2) 0.6228(2) 0.51428(12)
H27 H -0.0470 0.5499 0.5355
H28 H -0.1862 0.5934 0.4921
H29 H -0.1588 0.6565 0.5569
C23 C 0.0966(2) 0.9567(2) 0.31320(13)
H30 H 0.1734 0.9392 0.2842
H31 H 0.1233 0.9448 0.3686
C24 C 0.0133(2) 1.0924(2) 0.27442(14)
H32 H -0.0620 1.1087 0.3038
H33 H -0.0128 1.1027 0.2197
H34 H 0.0604 1.1542 0.2744
C25 C 0.08845(18) 0.65469(18) 0.26328(11)
H35 H 0.0008 0.6605 0.2450
C26 C 0.14135(17) 0.74633(18) 0.19814(11)
C27 C 0.05174(17) 0.85474(18) 0.13596(11)
C28 C -0.06548(17) 0.84824(19) 0.11215(11)
H36 H -0.0918 0.7733 0.1369
C29 C -0.14370(19) 0.9500(2) 0.05286(12)
H37 H -0.2219 0.9432 0.0352
C30 C -0.10828(19) 1.0622(2) 0.01892(12)
H38 H -0.1634 1.1333 -0.0207
C31 C 0.0081(2) 1.0704(2) 0.04309(12)
H39 H 0.0322 1.1473 0.0203
C32 C 0.08849(19) 0.96647(19) 0.10019(12)
H40 H 0.1692 0.9710 0.1152
C33 C 0.17345(17) 0.51236(18) 0.28228(11)
H41 H 0.2633 0.5110 0.2915
C34 C 0.13735(18) 0.42441(18) 0.35759(11)
H42 H 0.1446 0.4575 0.4023
H43 H 0.0481 0.4251 0.3502
C35 C 0.16599(17) 0.46059(18) 0.21309(11)
C36 C 0.04975(18) 0.46204(19) 0.18236(11)
H44 H -0.0262 0.4992 0.2029
C37 C 0.04373(19) 0.4094(2) 0.12152(12)
H45 H -0.0360 0.4105 0.1009
C38 C 0.1543(2) 0.3555(2) 0.09132(12)
H46 H 0.1507 0.3198 0.0498
C39 C 0.26992(19) 0.3538(2) 0.12158(12)
H47 H 0.3456 0.3158 0.1011
C40 C 0.27700(19) 0.40678(19) 0.18167(11)
H48 H 0.3570 0.4065 0.2014
P3 P 0.24102(4) 0.78509(5) 0.57424(3)
O13 O 0.12484(12) 0.84366(12) 0.52055(7)
O14 O 0.36138(12) 0.82670(14) 0.54400(8)
O15 O 0.28934(12) 0.63212(12) 0.60202(8)
O16 O 0.42986(11) 0.76970(12) 0.72958(8)
O17 O 0.22549(14) 1.22192(14) 0.55339(8)
O18 O 0.02083(14) 1.28837(15) 0.54574(10)
N3 N 0.12106(17) 1.20240(16) 0.56054(9)
C41 C 0.39851(18) 0.8309(2) 0.46388(11)
H49 H 0.3708 0.9213 0.4277
H50 H 0.3578 0.7780 0.4433
C42 C 0.54096(18) 0.7780(2) 0.46798(12)
H51 H 0.5670 0.6866 0.5006
H52 H 0.5805 0.8274 0.4915
H53 H 0.5679 0.7858 0.4144
C43 C 0.19917(19) 0.55740(19) 0.60601(12)
H54 H 0.1724 0.5618 0.5520
H55 H 0.1229 0.5929 0.6311
C44 C 0.2647(2) 0.4186(2) 0.65460(14)
H56 H 0.2913 0.4155 0.7077
H57 H 0.3393 0.3841 0.6288
H58 H 0.2060 0.3662 0.6588
C45 C 0.22390(17) 0.83080(17) 0.66438(11)
H59 H 0.1419 0.8195 0.6856
C46 C 0.33125(17) 0.74136(17) 0.72656(11)
C47 C 0.31619(17) 0.61769(18) 0.78262(10)
C48 C 0.19939(18) 0.60360(19) 0.80768(11)
H60 H 0.1238 0.6714 0.7855
C49 C 0.19301(19) 0.49038(19) 0.86522(12)
H61 H 0.1132 0.4818 0.8829
C50 C 0.30172(18) 0.39097(19) 0.89654(11)
H62 H 0.2966 0.3137 0.9355
C51 C 0.41844(18) 0.40280(19) 0.87157(12)
H63 H 0.4933 0.3335 0.8930
C52 C 0.42587(17) 0.51591(18) 0.81527(11)
H64 H 0.5062 0.5244 0.7987
C53 C 0.22042(17) 0.97458(17) 0.64867(11)
H65 H 0.3034 0.9853 0.6289
C54 C 0.11516(18) 1.06480(18) 0.58480(11)
H66 H 0.1231 1.0345 0.5379
H67 H 0.0317 1.0614 0.6051
C55 C 0.20295(17) 1.01264(18) 0.72430(11)
C56 C 0.28857(18) 1.0660(2) 0.74856(12)
H68 H 0.3588 1.0767 0.7184
C57 C 0.2737(2) 1.1040(2) 0.81597(13)
H69 H 0.3332 1.1407 0.8315
C58 C 0.1721(2) 1.0885(2) 0.86058(12)
H70 H 0.1617 1.1144 0.9068
C59 C 0.08573(19) 1.0351(2) 0.83773(12)
H71 H 0.0159 1.0241 0.8682
C60 C 0.10152(18) 0.99755(19) 0.77016(12)
H72 H 0.0420 0.9608 0.7548
P4 P 0.59374(4) 0.58009(5) 0.12024(3)
O19 O 0.70194(12) 0.58056(13) 0.07064(8)
O20 O 0.45828(12) 0.63048(13) 0.07543(8)
O21 O 0.59856(12) 0.44259(13) 0.18070(8)
O22 O 0.78109(12) 0.61793(13) 0.24284(8)
O23 O 0.54749(14) 1.07695(14) 0.02219(10)
O24 O 0.34644(13) 1.09427(14) 0.02808(9)
N4 N 0.45863(17) 1.02993(16) 0.03693(10)
C61 C 0.43417(19) 0.6080(2) 0.00035(11)
H73 H 0.3625 0.5701 0.0040
H74 H 0.5102 0.5468 -0.0109
C62 C 0.4030(2) 0.7359(2) -0.06450(12)
H75 H 0.4765 0.7698 -0.0701
H76 H 0.3306 0.7973 -0.0513
H77 H 0.3813 0.7241 -0.1145
C63 C 0.7033(2) 0.3273(2) 0.18984(14)
H78 H 0.7098 0.2669 0.2444
H79 H 0.7835 0.3514 0.1818
C64 C 0.6856(3) 0.2613(2) 0.13185(15)
H80 H 0.6891 0.3172 0.0780
H81 H 0.6030 0.2439 0.1367
H82 H 0.7531 0.1793 0.1427
C65 C 0.57100(17) 0.68302(18) 0.18375(11)
H83 H 0.4854 0.6897 0.2046
C66 C 0.67176(17) 0.61523(18) 0.25359(11)
C67 C 0.63732(18) 0.54314(18) 0.33194(11)
C68 C 0.51254(18) 0.56134(18) 0.35390(11)
H84 H 0.4442 0.6198 0.3170
C69 C 0.48850(19) 0.4945(2) 0.42910(12)
H85 H 0.4039 0.5088 0.4442
C70 C 0.5871(2) 0.4070(2) 0.48226(12)
H86 H 0.5701 0.3602 0.5336
C71 C 0.7114(2) 0.3872(2) 0.46093(12)
H87 H 0.7791 0.3266 0.4975
C72 C 0.73599(18) 0.4555(2) 0.38676(12)
H88 H 0.8211 0.4428 0.3727
C73 C 0.58009(17) 0.82260(17) 0.14144(11)
H89 H 0.6679 0.8156 0.1241
C74 C 0.48636(18) 0.88534(18) 0.06712(11)
H90 H 0.5220 0.8490 0.0249
H91 H 0.4060 0.8631 0.0797
C75 C 0.55765(18) 0.90163(18) 0.19860(11)
C76 C 0.65884(18) 0.92387(19) 0.23218(12)
H92 H 0.7429 0.8869 0.2209
C77 C 0.6387(2) 0.9993(2) 0.28190(12)
H93 H 0.7091 1.0132 0.3046
C78 C 0.5176(2) 1.0547(2) 0.29884(12)
H94 H 0.5044 1.1073 0.3325
C79 C 0.41502(19) 1.03264(19) 0.26625(12)
H95 H 0.3312 1.0707 0.2773
C80 C 0.43505(18) 0.95476(19) 0.21740(12)
H96 H 0.3650 0.9376 0.1967
loop_
_geom_bond_atom_site_label_1
_geom_bond_atom_site_label_2
_geom_bond_site_symmetry_1
_geom_bond_site_symmetry_2
P1 O1 1_555 1_555
O2 P1 1_555 1_555
O3 P1 1_555 1_555
O4 C6 1_555 1_555
O5 N1 1_555 1_555
O6 N1 1_555 1_555
N1 C14 1_555 1_555
C1 O2 1_555 1_555
H1 C1 1_555 1_555
H2 C1 1_555 1_555
C2 C1 1_555 1_555
H3 C2 1_555 1_555
H4 C2 1_555 1_555
H5 C2 1_555 1_555
C3 O3 1_555 1_555
H6 C3 1_555 1_555
H7 C3 1_555 1_555
C4 C3 1_555 1_555
H8 C4 1_555 1_555
H9 C4 1_555 1_555
H10 C4 1_555 1_555
C5 P1 1_555 1_555
H11 C5 1_555 1_555
C6 C5 1_555 1_555
C7 C6 1_555 1_555
C8 C7 1_555 1_555
H12 C8 1_555 1_555
C9 C8 1_555 1_555
H13 C9 1_555 1_555
C10 C9 1_555 1_555
H14 C10 1_555 1_555
C11 C10 1_555 1_555
H15 C11 1_555 1_555
C12 C7 1_555 1_555
H16 C12 1_555 1_555
C13 C5 1_555 1_555
H17 C13 1_555 1_555
C14 C13 1_555 1_555
H18 C14 1_555 1_555
H19 C14 1_555 1_555
C15 C13 1_555 1_555
C16 C15 1_555 1_555
H20 C16 1_555 1_555
C17 C16 1_555 1_555
H21 C17 1_555 1_555
C18 C17 1_555 1_555
H22 C18 1_555 1_555
C19 C18 1_555 1_555
H23 C19 1_555 1_555
C20 C15 1_555 1_555
H24 C20 1_555 1_555
P2 O7 1_555 1_555
O8 P2 1_555 1_555
O9 P2 1_555 1_555
O10 C26 1_555 1_555
O11 N2 1_555 1_555
O12 N2 1_555 1_555
N2 C34 1_555 1_555
C21 O8 1_555 1_555
H25 C21 1_555 1_555
H26 C21 1_555 1_555
C22 C21 1_555 1_555
H27 C22 1_555 1_555
H28 C22 1_555 1_555
H29 C22 1_555 1_555
C23 O9 1_555 1_555
H30 C23 1_555 1_555
H31 C23 1_555 1_555
C24 C23 1_555 1_555
H32 C24 1_555 1_555
H33 C24 1_555 1_555
H34 C24 1_555 1_555
C25 P2 1_555 1_555
H35 C25 1_555 1_555
C26 C25 1_555 1_555
C27 C26 1_555 1_555
C28 C27 1_555 1_555
H36 C28 1_555 1_555
C29 C28 1_555 1_555
H37 C29 1_555 1_555
C30 C29 1_555 1_555
H38 C30 1_555 1_555
C31 C30 1_555 1_555
H39 C31 1_555 1_555
C32 C27 1_555 1_555
H40 C32 1_555 1_555
C33 C25 1_555 1_555
H41 C33 1_555 1_555
C34 C33 1_555 1_555
H42 C34 1_555 1_555
H43 C34 1_555 1_555
C35 C33 1_555 1_555
C36 C35 1_555 1_555
H44 C36 1_555 1_555
C37 C36 1_555 1_555
H45 C37 1_555 1_555
C38 C37 1_555 1_555
H46 C38 1_555 1_555
C39 C38 1_555 1_555
H47 C39 1_555 1_555
C40 C35 1_555 1_555
H48 C40 1_555 1_555
P3 O13 1_555 1_555
O14 P3 1_555 1_555
O15 P3 1_555 1_555
O16 C46 1_555 1_555
O17 N3 1_555 1_555
O18 N3 1_555 1_555
N3 C54 1_555 1_555
C41 O14 1_555 1_555
H49 C41 1_555 1_555
H50 C41 1_555 1_555
C42 C41 1_555 1_555
H51 C42 1_555 1_555
H52 C42 1_555 1_555
H53 C42 1_555 1_555
C43 O15 1_555 1_555
H54 C43 1_555 1_555
H55 C43 1_555 1_555
C44 C43 1_555 1_555
H56 C44 1_555 1_555
H57 C44 1_555 1_555
H58 C44 1_555 1_555
C45 P3 1_555 1_555
H59 C45 1_555 1_555
C46 C45 1_555 1_555
C47 C46 1_555 1_555
C48 C47 1_555 1_555
H60 C48 1_555 1_555
C49 C48 1_555 1_555
H61 C49 1_555 1_555
C50 C49 1_555 1_555
H62 C50 1_555 1_555
C51 C50 1_555 1_555
H63 C51 1_555 1_555
C52 C47 1_555 1_555
H64 C52 1_555 1_555
C53 C45 1_555 1_555
H65 C53 1_555 1_555
C54 C53 1_555 1_555
H66 C54 1_555 1_555
H67 C54 1_555 1_555
C55 C53 1_555 1_555
C56 C55 1_555 1_555
H68 C56 1_555 1_555
C57 C56 1_555 1_555
H69 C57 1_555 1_555
C58 C57 1_555 1_555
H70 C58 1_555 1_555
C59 C58 1_555 1_555
H71 C59 1_555 1_555
C60 C55 1_555 1_555
H72 C60 1_555 1_555
P4 O19 1_555 1_555
O20 P4 1_555 1_555
O21 P4 1_555 1_555
O22 C66 1_555 1_555
O23 N4 1_555 1_555
O24 N4 1_555 1_555
N4 C74 1_555 1_555
C61 O20 1_555 1_555
H73 C61 1_555 1_555
H74 C61 1_555 1_555
C62 C61 1_555 1_555
H75 C62 1_555 1_555
H76 C62 1_555 1_555
H77 C62 1_555 1_555
C63 O21 1_555 1_555
H78 C63 1_555 1_555
H79 C63 1_555 1_555
C64 C63 1_555 1_555
H80 C64 1_555 1_555
H81 C64 1_555 1_555
H82 C64 1_555 1_555
C65 P4 1_555 1_555
H83 C65 1_555 1_555
C66 C65 1_555 1_555
C67 C66 1_555 1_555
C68 C67 1_555 1_555
H84 C68 1_555 1_555
C69 C68 1_555 1_555
H85 C69 1_555 1_555
C70 C69 1_555 1_555
H86 C70 1_555 1_555
C71 C70 1_555 1_555
H87 C71 1_555 1_555
C72 C67 1_555 1_555
H88 C72 1_555 1_555
C73 C65 1_555 1_555
H89 C73 1_555 1_555
C74 C73 1_555 1_555
H90 C74 1_555 1_555
H91 C74 1_555 1_555
C75 C73 1_555 1_555
C76 C75 1_555 1_555
H92 C76 1_555 1_555
C77 C76 1_555 1_555
H93 C77 1_555 1_555
C78 C77 1_555 1_555
H94 C78 1_555 1_555
C79 C78 1_555 1_555
H95 C79 1_555 1_555
C80 C75 1_555 1_555
H96 C80 1_555 1_555
C11 C12 1_555 1_555
C19 C20 1_555 1_555
C31 C32 1_555 1_555
C39 C40 1_555 1_555
C51 C52 1_555 1_555
C59 C60 1_555 1_555
C71 C72 1_555 1_555
C79 C80 1_555 1_555

#END
