
#######################################################################
#
#                 Cambridge Crystallographic Data Centre
#                                CCDC 
#
#######################################################################
#
# If this CIF has been generated from an entry in the Cambridge 
# Structural Database, then it will include bibliographic, chemical, 
# crystal, experimental, refinement or atomic coordinate data resulting 
# from the CCDC's data processing and validation procedures.
#
#######################################################################

data_AXIJOH
_chemical_formula_moiety         'C13 H16 Cl2 N2 O4'
_chemical_name_systematic        
't-butyl (2,2-dichloro-2-nitro-1-phenylethyl)carbamate'
_symmetry_cell_setting           orthorhombic
_symmetry_space_group_name_H-M   'P 21 21 21'
_symmetry_Int_Tables_number      19
_space_group_name_Hall           'P 2ac 2ab'
loop_
_symmetry_equiv_pos_site_id
_symmetry_equiv_pos_as_xyz
1 x,y,z
2 1/2-x,-y,1/2+z
3 -x,1/2+y,1/2-z
4 1/2+x,1/2-y,-z
_cell_length_a                   5.7762(8)
_cell_length_b                   9.6032(13)
_cell_length_c                   28.672(4)
_cell_angle_alpha                90
_cell_angle_beta                 90
_cell_angle_gamma                90
_cell_volume                     1590.44
_exptl_crystal_colour            colorless
_exptl_crystal_description       rectangle
_cell_formula_units_Z            4
loop_
_atom_site_label
_atom_site_type_symbol
_atom_site_fract_x
_atom_site_fract_y
_atom_site_fract_z
Cl1 Cl -0.00183(13) -0.30147(6) 0.09760(3)
Cl2 Cl 0.44999(12) -0.18325(8) 0.08764(3)
C1 C 0.0474(5) 0.1927(3) 0.06249(9)
H1 H -0.0946 0.1605 0.0517
C2 C 0.0745(4) -0.0229(2) 0.11133(8)
H2 H -0.0938 -0.0163 0.1076
C3 C 0.1753(4) 0.1135(2) 0.09381(8)
C4 C 0.3886(5) 0.1624(2) 0.10922(9)
H3 H 0.4766 0.1089 0.1296
C5 C 0.4713(5) 0.2912(3) 0.09424(11)
H4 H 0.6125 0.3247 0.1051
C6 C 0.3416(6) 0.3687(3) 0.06318(11)
H5 H 0.3969 0.4543 0.0529
C7 C 0.1334(7) 0.3213(3) 0.04733(11)
H6 H 0.0483 0.3745 0.0264
O1 O 0.0251(3) -0.07399(18) 0.23423(6)
N1 N 0.0944(5) -0.1186(2) 0.03063(8)
O2 O -0.1098(5) -0.1123(3) 0.02199(8)
O3 O -0.2628(4) -0.0340(2) 0.18137(7)
O4 O 0.2502(5) -0.0945(3) 0.00396(9)
C8 C -0.0617(5) -0.0511(2) 0.19124(8)
N2 N 0.1178(4) -0.0495(2) 0.16043(7)
C9 C 0.1547(4) -0.1510(2) 0.08269(9)
C10 C -0.1295(5) -0.0889(3) 0.27498(8)
C11 C 0.0403(6) -0.1209(4) 0.31356(10)
H7 H 0.1165 -0.2076 0.3071
H8 H -0.0409 -0.1276 0.3427
H9 H 0.1533 -0.0478 0.3154
C12 C -0.2933(6) -0.2106(3) 0.26760(12)
H10 H -0.3930 -0.1914 0.2416
H11 H -0.3852 -0.2241 0.2951
H12 H -0.2053 -0.2934 0.2614
C13 C -0.2589(7) 0.0467(3) 0.28380(13)
H13 H -0.1503 0.1223 0.2852
H14 H -0.3410 0.0405 0.3128
H15 H -0.3668 0.0628 0.2589
loop_
_geom_bond_atom_site_label_1
_geom_bond_atom_site_label_2
_geom_bond_site_symmetry_1
_geom_bond_site_symmetry_2
Cl1 C9 1_555 1_555
Cl2 C9 1_555 1_555
C1 H1 1_555 1_555
C2 H2 1_555 1_555
C3 C1 1_555 1_555
C4 C3 1_555 1_555
H3 C4 1_555 1_555
C5 C4 1_555 1_555
H4 C5 1_555 1_555
C6 C5 1_555 1_555
H5 C6 1_555 1_555
C7 C1 1_555 1_555
H6 C7 1_555 1_555
O1 C8 1_555 1_555
N1 O2 1_555 1_555
O3 C8 1_555 1_555
O4 N1 1_555 1_555
C8 N2 1_555 1_555
N2 C2 1_555 1_555
C9 C2 1_555 1_555
C10 O1 1_555 1_555
C11 C10 1_555 1_555
H7 C11 1_555 1_555
H8 C11 1_555 1_555
H9 C11 1_555 1_555
C12 C10 1_555 1_555
H10 C12 1_555 1_555
H11 C12 1_555 1_555
H12 C12 1_555 1_555
C13 C10 1_555 1_555
H13 C13 1_555 1_555
H14 C13 1_555 1_555
H15 C13 1_555 1_555
C2 C3 1_555 1_555
C6 C7 1_555 1_555
N1 C9 1_555 1_555

#END
