
#######################################################################
#
#                 Cambridge Crystallographic Data Centre
#                                CCDC 
#
#######################################################################
#
# If this CIF has been generated from an entry in the Cambridge 
# Structural Database, then it will include bibliographic, chemical, 
# crystal, experimental, refinement or atomic coordinate data resulting 
# from the CCDC's data processing and validation procedures.
#
#######################################################################

data_AXILUQ
_chemical_formula_moiety         'C18 H16 N2 O1,C6 H6 O2'
_chemical_name_systematic        
'2,6-bis(pyridin-4-ylmethylene)cyclohexanone benzene-1,4-diol'
_symmetry_cell_setting           monoclinic
_symmetry_space_group_name_H-M   'P 21/c'
_symmetry_Int_Tables_number      14
_space_group_name_Hall           '-P 2ybc'
loop_
_symmetry_equiv_pos_site_id
_symmetry_equiv_pos_as_xyz
1 x,y,z
2 -x,1/2+y,1/2-z
3 -x,-y,-z
4 x,1/2-y,1/2+z
_cell_length_a                   9.8017(6)
_cell_length_b                   9.0807(5)
_cell_length_c                   22.1860(13)
_cell_angle_alpha                90
_cell_angle_beta                 91.1280(10)
_cell_angle_gamma                90
_cell_volume                     1974.31
_exptl_crystal_colour            yellow
_exptl_crystal_description       block
_cell_formula_units_Z            4
loop_
_atom_site_label
_atom_site_type_symbol
_atom_site_fract_x
_atom_site_fract_y
_atom_site_fract_z
C1 C 0.81115(14) 0.37120(16) 0.20395(6)
H1 H 0.8802 0.4387 0.1967
C2 C 0.68326(13) 0.39803(15) 0.17957(6)
H2 H 0.6681 0.4820 0.1564
C3 C 0.57666(13) 0.30056(15) 0.18937(6)
C4 C 0.60767(14) 0.17928(18) 0.22586(7)
H3 H 0.5401 0.1116 0.2352
C5 C 0.73889(16) 0.16042(19) 0.24790(7)
H4 H 0.7575 0.0779 0.2715
C6 C 0.44244(13) 0.33567(15) 0.16297(6)
H5 H 0.4296 0.4348 0.1541
C7 C 0.33504(13) 0.24996(14) 0.14941(6)
C8 C 0.21130(13) 0.32869(15) 0.12436(5)
C9 C 0.08988(13) 0.24060(14) 0.10290(6)
C10 C 0.09329(14) 0.07626(15) 0.10999(8)
H6 H 0.0389 0.0317 0.0779
H7 H 0.0526 0.0500 0.1480
C11 C 0.23714(15) 0.01473(16) 0.10845(8)
H8 H 0.2344 -0.0908 0.1151
H9 H 0.2748 0.0320 0.0690
C12 C 0.32828(14) 0.08550(15) 0.15608(7)
H10 H 0.2942 0.0616 0.1956
H11 H 0.4195 0.0450 0.1533
C13 C -0.01203(13) 0.31900(15) 0.07796(6)
H12 H 0.0050 0.4196 0.0761
C14 C -0.14572(13) 0.27555(14) 0.05295(6)
C15 C -0.21000(15) 0.37193(17) 0.01279(7)
H13 H -0.1651 0.4565 0.0004
C16 C -0.33959(16) 0.34260(18) -0.00859(7)
H14 H -0.3797 0.4090 -0.0355
C17 C -0.21971(13) 0.15058(15) 0.06868(6)
H15 H -0.1819 0.0811 0.0949
C18 C -0.34944(14) 0.13127(16) 0.04491(6)
H16 H -0.3972 0.0474 0.0561
N1 N 0.84071(12) 0.25352(14) 0.23740(6)
N2 N -0.41082(12) 0.22459(14) 0.00701(6)
O1 O 0.20916(10) 0.46301(11) 0.12204(5)
C19 C 0.73080(13) 0.75176(14) 0.06893(6)
C20 C 0.64636(13) 0.78061(14) 0.11676(6)
H17 H 0.5534 0.7949 0.1097
C21 C 0.69925(13) 0.78837(15) 0.17505(6)
H18 H 0.6418 0.8096 0.2068
C22 C 0.83699(13) 0.76474(15) 0.18650(6)
C23 C 0.92128(13) 0.73509(15) 0.13860(6)
H19 H 1.0138 0.7184 0.1457
C24 C 0.86885(13) 0.73010(16) 0.08050(6)
H20 H 0.9269 0.7120 0.0487
O2 O 0.68574(11) 0.74320(13) 0.01039(4)
H21 H 0.6039 0.7620 0.0085
O3 O 0.88298(10) 0.76891(15) 0.24489(5)
H22 H 0.9658 0.7557 0.2460
loop_
_geom_bond_atom_site_label_1
_geom_bond_atom_site_label_2
_geom_bond_site_symmetry_1
_geom_bond_site_symmetry_2
C1 H1 1_555 1_555
C2 C1 1_555 1_555
H2 C2 1_555 1_555
C3 C2 1_555 1_555
C4 C3 1_555 1_555
H3 C4 1_555 1_555
C5 C4 1_555 1_555
H4 C5 1_555 1_555
C6 C3 1_555 1_555
H5 C6 1_555 1_555
C7 C6 1_555 1_555
C8 C7 1_555 1_555
C9 C8 1_555 1_555
C10 C9 1_555 1_555
H6 C10 1_555 1_555
H7 C10 1_555 1_555
C11 C10 1_555 1_555
H8 C11 1_555 1_555
H9 C11 1_555 1_555
C12 C7 1_555 1_555
H10 C12 1_555 1_555
H11 C12 1_555 1_555
C13 C9 1_555 1_555
H12 C13 1_555 1_555
C14 C13 1_555 1_555
C15 C14 1_555 1_555
H13 C15 1_555 1_555
C16 C15 1_555 1_555
H14 C16 1_555 1_555
C17 C14 1_555 1_555
H15 C17 1_555 1_555
C18 C17 1_555 1_555
H16 C18 1_555 1_555
N1 C1 1_555 1_555
N2 C16 1_555 1_555
O1 C8 1_555 1_555
C19 C20 1_555 1_555
C20 H17 1_555 1_555
C21 C20 1_555 1_555
H18 C21 1_555 1_555
C22 C21 1_555 1_555
C23 C22 1_555 1_555
H19 C23 1_555 1_555
C24 C19 1_555 1_555
H20 C24 1_555 1_555
O2 C19 1_555 1_555
H21 O2 1_555 1_555
O3 C22 1_555 1_555
H22 O3 1_555 1_555
C5 N1 1_555 1_555
C11 C12 1_555 1_555
C18 N2 1_555 1_555
C23 C24 1_555 1_555

#END
