
#######################################################################
#
#                 Cambridge Crystallographic Data Centre
#                                CCDC 
#
#######################################################################
#
# If this CIF has been generated from an entry in the Cambridge 
# Structural Database, then it will include bibliographic, chemical, 
# crystal, experimental, refinement or atomic coordinate data resulting 
# from the CCDC's data processing and validation procedures.
#
#######################################################################

data_AXIMEB
_chemical_formula_moiety         'C18 H17 N3 O1,C8 H6 O4,0.5(C1 H4 O1)'
_chemical_name_systematic        
'2-((dimethylamino)methyl)-1,5-bis(pyridin-4-yl)penta-1,4-dien-3-one isophthalic acid methanol solvate'
_symmetry_cell_setting           monoclinic
_symmetry_space_group_name_H-M   'P 21/c'
_symmetry_Int_Tables_number      14
_space_group_name_Hall           '-P 2ybc'
loop_
_symmetry_equiv_pos_site_id
_symmetry_equiv_pos_as_xyz
1 x,y,z
2 -x,1/2+y,1/2-z
3 -x,-y,-z
4 x,1/2-y,1/2+z
_cell_length_a                   19.841(5)
_cell_length_b                   7.349(5)
_cell_length_c                   16.433(5)
_cell_angle_alpha                90
_cell_angle_beta                 94.520(5)
_cell_angle_gamma                90
_cell_volume                     2388.67
_exptl_crystal_colour            yellow
_exptl_crystal_description       block
_cell_formula_units_Z            4
loop_
_atom_site_label
_atom_site_type_symbol
_atom_site_fract_x
_atom_site_fract_y
_atom_site_fract_z
C1 C 0.46472(16) 0.6384(5) 0.71844(19)
H1 H 0.5042 0.6674 0.6943
C2 C 0.40399(15) 0.6469(4) 0.67137(17)
H2 H 0.4031 0.6831 0.6171
C3 C 0.34468(13) 0.6016(3) 0.70504(15)
C4 C 0.35052(15) 0.5532(4) 0.78701(16)
H3 H 0.3120 0.5230 0.8130
C5 C 0.41228(18) 0.5496(5) 0.82965(19)
H4 H 0.4146 0.5169 0.8845
C6 C 0.27778(13) 0.6070(3) 0.66101(15)
H5 H 0.2419 0.6180 0.6939
C7 C 0.26001(13) 0.5985(3) 0.58079(15)
C8 C 0.18639(13) 0.6116(4) 0.55548(15)
C9 C 0.16442(12) 0.6122(3) 0.46650(14)
C10 C 0.21746(13) 0.5762(4) 0.40799(15)
H6 H 0.1975 0.5086 0.3614
H7 H 0.2340 0.6910 0.3883
C11 C 0.30707(13) 0.5731(4) 0.51499(15)
H8 H 0.3216 0.6909 0.4963
H9 H 0.3468 0.5065 0.5364
C12 C 0.32061(17) 0.4214(5) 0.38817(18)
H10 H 0.2976 0.3488 0.3460
H11 H 0.3569 0.3520 0.4150
H12 H 0.3386 0.5285 0.3645
C13 C 0.09938(13) 0.6426(4) 0.44592(16)
H13 H 0.0737 0.6671 0.4896
C14 C 0.06124(13) 0.6439(3) 0.36557(15)
C15 C -0.00807(13) 0.6148(4) 0.36221(17)
H14 H -0.0293 0.5994 0.4102
C16 C -0.04532(14) 0.6085(4) 0.28829(18)
H15 H -0.0915 0.5862 0.2879
C17 C 0.04733(13) 0.6649(4) 0.22039(17)
H16 H 0.0669 0.6829 0.1714
C18 C 0.08819(13) 0.6729(4) 0.29170(16)
H17 H 0.1340 0.6979 0.2903
N1 N 0.46924(14) 0.5905(4) 0.79666(16)
N2 N -0.01903(11) 0.6325(3) 0.21765(14)
N3 N 0.27348(11) 0.4736(3) 0.44698(12)
O1 O 0.14487(10) 0.6223(3) 0.60605(12)
C19 C 0.15351(14) 0.0900(4) 0.42272(18)
C20 C 0.19039(13) 0.0893(3) 0.50567(15)
C21 C 0.26009(13) 0.0776(3) 0.51181(15)
H18 H 0.2828 0.0629 0.4649
C22 C 0.29664(13) 0.0875(3) 0.58738(15)
C23 C 0.26236(16) 0.1092(4) 0.65630(17)
H19 H 0.2863 0.1185 0.7071
C24 C 0.19322(17) 0.1172(5) 0.65058(18)
H20 H 0.1704 0.1287 0.6976
C25 C 0.15736(15) 0.1084(4) 0.57565(17)
H21 H 0.1104 0.1153 0.5723
C26 C 0.37152(15) 0.0812(4) 0.59110(18)
O2 O 0.08858(10) 0.1199(3) 0.42496(12)
H22 H 0.0705 0.1212 0.3783
O3 O 0.18122(10) 0.0663(3) 0.36087(12)
O4 O 0.40249(11) 0.0466(4) 0.53355(14)
O5 O 0.40065(11) 0.1120(4) 0.66381(13)
H23 H 0.4417 0.1008 0.6628
C27 C 0.4948(4) 0.5902(10) 0.4775(5)
O6 O 0.4955(3) 0.7139(9) 0.5193(4)
loop_
_geom_bond_atom_site_label_1
_geom_bond_atom_site_label_2
_geom_bond_site_symmetry_1
_geom_bond_site_symmetry_2
C1 H1 1_555 1_555
C2 C1 1_555 1_555
H2 C2 1_555 1_555
C3 C2 1_555 1_555
C4 C3 1_555 1_555
H3 C4 1_555 1_555
C5 C4 1_555 1_555
H4 C5 1_555 1_555
C6 C3 1_555 1_555
H5 C6 1_555 1_555
C7 C6 1_555 1_555
C8 C7 1_555 1_555
C9 C8 1_555 1_555
C10 C9 1_555 1_555
H6 C10 1_555 1_555
H7 C10 1_555 1_555
C11 C7 1_555 1_555
H8 C11 1_555 1_555
H9 C11 1_555 1_555
C12 H10 1_555 1_555
H11 C12 1_555 1_555
H12 C12 1_555 1_555
C13 C9 1_555 1_555
H13 C13 1_555 1_555
C14 C13 1_555 1_555
C15 C14 1_555 1_555
H14 C15 1_555 1_555
C16 C15 1_555 1_555
H15 C16 1_555 1_555
C17 H16 1_555 1_555
C18 C14 1_555 1_555
H17 C18 1_555 1_555
N1 C1 1_555 1_555
N2 C16 1_555 1_555
N3 C10 1_555 1_555
O1 C8 1_555 1_555
C19 C20 1_555 1_555
C20 C21 1_555 1_555
C21 H18 1_555 1_555
C22 C21 1_555 1_555
C23 C22 1_555 1_555
H19 C23 1_555 1_555
C24 C23 1_555 1_555
H20 C24 1_555 1_555
C25 C20 1_555 1_555
H21 C25 1_555 1_555
C26 C22 1_555 1_555
O2 C19 1_555 1_555
H22 O2 1_555 1_555
O3 C19 1_555 1_555
O4 C26 1_555 1_555
O5 C26 1_555 1_555
H23 O5 1_555 1_555
C27 O6 1_555 1_555
C5 N1 1_555 1_555
C11 N3 1_555 1_555
C12 N3 1_555 1_555
C17 C18 1_555 1_555
C17 N2 1_555 1_555
C24 C25 1_555 1_555

#END
