
#######################################################################
#
#                 Cambridge Crystallographic Data Centre
#                                CCDC 
#
#######################################################################
#
# If this CIF has been generated from an entry in the Cambridge 
# Structural Database, then it will include bibliographic, chemical, 
# crystal, experimental, refinement or atomic coordinate data resulting 
# from the CCDC's data processing and validation procedures.
#
#######################################################################

data_AXIMIE
_chemical_formula_moiety         'C22 H22 I1 N1 O6'
_chemical_name_systematic        
'4-Iodophenyl 4-cyano-4-(3-methoxy-2-(methoxymethoxy)phenyl)-5-oxohexanoate'
_symmetry_cell_setting           monoclinic
_symmetry_space_group_name_H-M   'P 21'
_symmetry_Int_Tables_number      4
_space_group_name_Hall           'P 2yb'
loop_
_symmetry_equiv_pos_site_id
_symmetry_equiv_pos_as_xyz
1 x,y,z
2 -x,1/2+y,-z
_cell_length_a                   6.654(2)
_cell_length_b                   9.505(3)
_cell_length_c                   17.762(6)
_cell_angle_alpha                90
_cell_angle_beta                 92.502(4)
_cell_angle_gamma                90
_cell_volume                     1122.31
_exptl_crystal_colour            colorless
_exptl_crystal_description       block
_cell_formula_units_Z            2
loop_
_atom_site_label
_atom_site_type_symbol
_atom_site_fract_x
_atom_site_fract_y
_atom_site_fract_z
C1 C 0.5621(8) 0.6463(6) 0.1539(3)
C2 C 0.5586(10) 0.5006(6) 0.1378(3)
C3 C 0.3904(9) 0.4249(6) 0.1512(3)
H1 H 0.3875 0.3293 0.1399
C4 C 0.2248(10) 0.4863(6) 0.1809(4)
H2 H 0.1092 0.4338 0.1879
C5 C 0.2320(7) 0.6290(6) 0.2004(3)
H3 H 0.1235 0.6699 0.2233
C6 C 0.3968(9) 0.7090(6) 0.1860(3)
C7 C 0.4099(8) 0.8677(6) 0.2055(3)
C8 C 0.2365(8) 0.9184(5) 0.2540(3)
H4 H 0.1093 0.8913 0.2294
H5 H 0.2469 0.8715 0.3025
C9 C 0.2366(8) 1.0782(8) 0.2667(3)
H6 H 0.3687 1.1073 0.2862
H7 H 0.2102 1.1254 0.2189
C10 C 0.0825(7) 1.1221(8) 0.3206(3)
C11 C -0.1077(10) 1.3262(6) 0.3497(4)
C12 C -0.3012(12) 1.3524(8) 0.3224(4)
H8 H -0.3454 1.3164 0.2759
C13 C -0.4283(9) 1.4314(6) 0.3639(4)
H9 H -0.5567 1.4534 0.3446
C14 C -0.3651(9) 1.4779(6) 0.4340(4)
C15 C -0.1741(10) 1.4452(7) 0.4610(3)
H10 H -0.1330 1.4749 0.5092
C16 C -0.0428(9) 1.3708(7) 0.4198(4)
H11 H 0.0866 1.3510 0.4387
C17 C 0.7342(10) 0.3035(6) 0.0902(4)
H12 H 0.7101 0.2437 0.1324
H13 H 0.8625 0.2812 0.0707
H14 H 0.6305 0.2891 0.0517
C18 C 0.8136(12) 0.7214(7) 0.0694(4)
C19 C 0.8680(13) 0.9602(7) 0.0478(6)
C20 C 0.6097(8) 0.9070(6) 0.2483(3)
C21 C 0.6755(11) 0.8122(7) 0.3138(4)
H15 H 0.7281 0.7258 0.2947
H16 H 0.5621 0.7921 0.3437
H17 H 0.7778 0.8586 0.3444
C22 C 0.4000(8) 0.9501(6) 0.1338(4)
H18 H 0.936(7) 0.666(8) 0.070(5)
H19 H 0.758(6) 0.988(6) 0.015(2)
H20 H 0.713(7) 0.674(6) 0.037(3)
H21 H 0.839(8) 0.987(6) 0.0982(12)
H22 H 0.987(5) 1.008(6) 0.033(3)
I1 I -0.55771(6) 1.59610(6) 0.49875(3)
N1 N 0.3831(7) 1.0167(5) 0.0812(3)
O1 O 0.7331(7) 0.4465(4) 0.1138(3)
O2 O 0.7296(6) 0.7279(4) 0.1427(2)
O3 O 0.6988(5) 1.0118(4) 0.2328(2)
O4 O 0.0187(5) 1.0575(4) 0.3707(2)
O5 O 0.0243(6) 1.2568(4) 0.3033(2)
O6 O 0.9567(11) 0.8250(8) 0.0684(4)
O7? O 0.7499(17) 0.8328(11) 0.0219(5)
loop_
_geom_bond_atom_site_label_1
_geom_bond_atom_site_label_2
_geom_bond_site_symmetry_1
_geom_bond_site_symmetry_2
C1 C2 1_555 1_555
C2 C3 1_555 1_555
C3 H1 1_555 1_555
C4 C3 1_555 1_555
H2 C4 1_555 1_555
C5 C4 1_555 1_555
H3 C5 1_555 1_555
C6 C1 1_555 1_555
C7 C6 1_555 1_555
C8 C7 1_555 1_555
H4 C8 1_555 1_555
H5 C8 1_555 1_555
C9 C8 1_555 1_555
H6 C9 1_555 1_555
H7 C9 1_555 1_555
C10 C9 1_555 1_555
C11 C12 1_555 1_555
C12 H8 1_555 1_555
C13 C12 1_555 1_555
H9 C13 1_555 1_555
C14 C13 1_555 1_555
C15 C14 1_555 1_555
H10 C15 1_555 1_555
C16 C11 1_555 1_555
H11 C16 1_555 1_555
C17 H12 1_555 1_555
H13 C17 1_555 1_555
H14 C17 1_555 1_555
C18 H18 1_555 1_555
C19 H19 1_555 1_555
C20 C7 1_555 1_555
C21 C20 1_555 1_555
H15 C21 1_555 1_555
H16 C21 1_555 1_555
H17 C21 1_555 1_555
C22 C7 1_555 1_555
H20 C18 1_555 1_555
H21 C19 1_555 1_555
H22 C19 1_555 1_555
I1 C14 1_555 1_555
N1 C22 1_555 1_555
O1 C2 1_555 1_555
O2 C1 1_555 1_555
O3 C20 1_555 1_555
O4 C10 1_555 1_555
O5 C10 1_555 1_555
O6 C18 1_555 1_555
C5 C6 1_555 1_555
C11 O5 1_555 1_555
C15 C16 1_555 1_555
C17 O1 1_555 1_555
C18 O2 1_555 1_555
C19 O6 1_555 1_555

#END
