
#######################################################################
#
#                 Cambridge Crystallographic Data Centre
#                                CCDC 
#
#######################################################################
#
# If this CIF has been generated from an entry in the Cambridge 
# Structural Database, then it will include bibliographic, chemical, 
# crystal, experimental, refinement or atomic coordinate data resulting 
# from the CCDC's data processing and validation procedures.
#
#######################################################################

data_AXIPUT
_chemical_formula_moiety         'C28 H30 O2'
_chemical_name_systematic        '2-(9,9-Dibutyl-9H-fluoren-2-yl)benzoic acid'
_symmetry_cell_setting           monoclinic
_symmetry_space_group_name_H-M   'P 21/c'
_symmetry_Int_Tables_number      14
_space_group_name_Hall           '-P 2ybc'
loop_
_symmetry_equiv_pos_site_id
_symmetry_equiv_pos_as_xyz
1 x,y,z
2 -x,1/2+y,1/2-z
3 -x,-y,-z
4 x,1/2-y,1/2+z
_cell_length_a                   9.7460(19)
_cell_length_b                   21.681(4)
_cell_length_c                   22.838(5)
_cell_angle_alpha                90
_cell_angle_beta                 100.53(3)
_cell_angle_gamma                90
_cell_volume                     4744.47
_exptl_crystal_colour            colorless
_exptl_crystal_description       prism
_cell_formula_units_Z            8
loop_
_atom_site_label
_atom_site_type_symbol
_atom_site_fract_x
_atom_site_fract_y
_atom_site_fract_z
O1 O 0.9236(2) 0.16641(10) 0.11108(10)
O2 O 1.02597(19) 0.15368(11) 0.03327(9)
C1 C 0.9197(3) 0.15547(13) 0.05593(15)
C2 C 0.7792(2) 0.14069(13) 0.02007(13)
C3 C 0.6957(3) 0.10010(14) 0.04518(14)
H1 H 0.7255 0.0857 0.0838
C4 C 0.5690(3) 0.08111(15) 0.01310(16)
H2 H 0.5135 0.0539 0.0299
C5 C 0.5253(3) 0.10247(15) -0.04379(17)
H3 H 0.4406 0.0891 -0.0657
C6 C 0.6061(3) 0.14367(13) -0.06871(13)
H4 H 0.5739 0.1585 -0.1070
C7 C 0.7356(2) 0.16361(12) -0.03753(13)
C8 C 0.8153(2) 0.20941(13) -0.06597(13)
C9 C 0.8384(3) 0.19948(13) -0.12360(14)
H5 H 0.8053 0.1635 -0.1435
C10 C 0.9098(3) 0.24210(15) -0.15182(13)
H6 H 0.9254 0.2346 -0.1902
C11 C 0.9576(2) 0.29573(14) -0.12255(13)
C12 C 0.9359(2) 0.30650(13) -0.06460(13)
C13 C 0.8648(2) 0.26379(14) -0.03686(13)
H7 H 0.8497 0.2713 0.0016
C14 C 1.0305(2) 0.34828(14) -0.14163(14)
C15 C 1.0515(3) 0.39150(15) -0.09577(14)
C16 C 1.1194(3) 0.44638(15) -0.10330(16)
H8 H 1.1329 0.4759 -0.0733
C17 C 1.1669(3) 0.45667(17) -0.15606(19)
H9 H 1.2128 0.4933 -0.1613
C18 C 1.1470(3) 0.41347(19) -0.20070(16)
H10 H 1.1803 0.4210 -0.2357
C19 C 1.0783(3) 0.35903(15) -0.19427(14)
H11 H 1.0642 0.3300 -0.2248
C20 C 0.9981(3) 0.36828(13) -0.04166(13)
C21 C 1.1201(3) 0.35898(14) 0.01161(13)
H12 H 1.1590 0.3990 0.0242
H13 H 1.0830 0.3414 0.0446
C22 C 1.2379(3) 0.31743(15) -0.00132(14)
H14 H 1.2020 0.2758 -0.0076
H15 H 1.2640 0.3310 -0.0382
C23 C 1.3677(3) 0.3156(2) 0.04623(17)
H16 H 1.3437 0.3005 0.0830
H17 H 1.4042 0.3571 0.0533
C24 C 1.4811(4) 0.2739(2) 0.0283(2)
H18 H 1.5616 0.2738 0.0596
H19 H 1.5065 0.2893 -0.0076
H20 H 1.4458 0.2327 0.0219
C25 C 0.8879(3) 0.41067(14) -0.02283(14)
H21 H 0.8568 0.3923 0.0112
H22 H 0.9317 0.4498 -0.0100
C26 C 0.7611(3) 0.42322(15) -0.07055(16)
H23 H 0.7904 0.4461 -0.1027
H24 H 0.7230 0.3842 -0.0867
C27 C 0.6484(3) 0.45881(19) -0.04879(19)
H25 H 0.6329 0.4397 -0.0122
H26 H 0.6833 0.5001 -0.0388
C28 C 0.5242(4) 0.4640(3) -0.0854(3)
H27 H 0.4618 0.4875 -0.0661
H28 H 0.4857 0.4236 -0.0947
H29 H 0.5362 0.4844 -0.1214
H59 H 1.028(4) 0.1735(16) 0.1365(17)
O3 O 1.2762(2) 0.16572(13) 0.09834(11)
O4 O 1.17686(17) 0.18093(9) 0.17636(8)
C29 C 1.2826(3) 0.17302(14) 0.15466(15)
C30 C 1.4243(2) 0.16849(13) 0.19198(13)
C31 C 1.5204(3) 0.13241(15) 0.16912(14)
H30 H 1.4979 0.1172 0.1305
C32 C 1.6490(3) 0.11899(16) 0.20343(17)
H31 H 1.7130 0.0951 0.1878
C33 C 1.6816(3) 0.14077(15) 0.26005(17)
H32 H 1.7662 0.1302 0.2839
C34 C 1.5895(3) 0.17843(13) 0.28210(13)
H33 H 1.6149 0.1941 0.3205
C35 C 1.4596(2) 0.19390(13) 0.24895(13)
C36 C 1.3741(2) 0.23939(13) 0.27501(13)
C37 C 1.3536(2) 0.23335(13) 0.33352(13)
H34 H 1.3873 0.1984 0.3551
C38 C 1.2842(3) 0.27813(14) 0.36049(13)
H35 H 1.2695 0.2728 0.3993
C39 C 1.2377(2) 0.33020(14) 0.32922(13)
C40 C 1.2567(2) 0.33744(13) 0.27030(13)
C41 C 1.3250(2) 0.29239(14) 0.24385(12)
H36 H 1.3383 0.2976 0.2049
C42 C 1.1688(2) 0.38550(15) 0.34615(15)
C43 C 1.1261(3) 0.40065(17) 0.39916(15)
H37 H 1.1385 0.3731 0.4309
C44 C 1.0647(3) 0.4576(2) 0.4039(2)
H38 H 1.0354 0.4685 0.4390
C45 C 1.0472(3) 0.49807(19) 0.3568(2)
H39 H 1.0071 0.5363 0.3610
C46 C 1.0873(3) 0.48388(16) 0.30321(17)
H40 H 1.0733 0.5116 0.2716
C47 C 1.1491(2) 0.42673(16) 0.29843(15)
C48 C 1.2017(3) 0.39942(14) 0.24515(13)
C49 C 1.0806(3) 0.39088(14) 0.19129(13)
H41 H 1.0464 0.4312 0.1772
H42 H 1.1170 0.3710 0.1593
C50 C 0.9579(3) 0.35278(16) 0.20496(15)
H43 H 0.9923 0.3118 0.2167
H44 H 0.9273 0.3712 0.2391
C51 C 0.8335(4) 0.3460(2) 0.15665(18)
H45 H 0.8606 0.3244 0.1233
H46 H 0.8002 0.3866 0.1429
C52 C 0.7163(4) 0.3109(2) 0.1769(2)
H47 H 0.6383 0.3081 0.1446
H48 H 0.6885 0.3323 0.2097
H49 H 0.7478 0.2702 0.1894
C53 C 1.3194(3) 0.43893(14) 0.22803(14)
H50 H 1.3512 0.4196 0.1946
H51 H 1.2818 0.4791 0.2150
C54 C 1.4445(3) 0.44807(15) 0.27811(16)
H52 H 1.4140 0.4709 0.3100
H53 H 1.4760 0.4079 0.2938
C55 C 1.5659(3) 0.48125(18) 0.2610(2)
H54 H 1.5366 0.5222 0.2468
H55 H 1.5962 0.4593 0.2287
C56 C 1.6862(3) 0.4867(2) 0.3123(3)
H56 H 1.7621 0.5076 0.2993
H57 H 1.7159 0.4462 0.3263
H58 H 1.6575 0.5096 0.3439
H60 H 1.180(4) 0.1661(18) 0.0809(19)
loop_
_geom_bond_atom_site_label_1
_geom_bond_atom_site_label_2
_geom_bond_site_symmetry_1
_geom_bond_site_symmetry_2
O1 C1 1_555 1_555
O2 C1 1_555 1_555
C1 C2 1_555 1_555
C2 C3 1_555 1_555
C3 H1 1_555 1_555
C4 C3 1_555 1_555
H2 C4 1_555 1_555
C5 C4 1_555 1_555
H3 C5 1_555 1_555
C6 C5 1_555 1_555
H4 C6 1_555 1_555
C7 C2 1_555 1_555
C8 C7 1_555 1_555
C9 C8 1_555 1_555
H5 C9 1_555 1_555
C10 C9 1_555 1_555
H6 C10 1_555 1_555
C11 C10 1_555 1_555
C12 C11 1_555 1_555
C13 C8 1_555 1_555
H7 C13 1_555 1_555
C14 C11 1_555 1_555
C15 C14 1_555 1_555
C16 C15 1_555 1_555
H8 C16 1_555 1_555
C17 C16 1_555 1_555
H9 C17 1_555 1_555
C18 C17 1_555 1_555
H10 C18 1_555 1_555
C19 C14 1_555 1_555
H11 C19 1_555 1_555
C20 C12 1_555 1_555
C21 C20 1_555 1_555
H12 C21 1_555 1_555
H13 C21 1_555 1_555
C22 C21 1_555 1_555
H14 C22 1_555 1_555
H15 C22 1_555 1_555
C23 C22 1_555 1_555
H16 C23 1_555 1_555
H17 C23 1_555 1_555
C24 C23 1_555 1_555
H18 C24 1_555 1_555
H19 C24 1_555 1_555
H20 C24 1_555 1_555
C25 C20 1_555 1_555
H21 C25 1_555 1_555
H22 C25 1_555 1_555
C26 C25 1_555 1_555
H23 C26 1_555 1_555
H24 C26 1_555 1_555
C27 C26 1_555 1_555
H25 C27 1_555 1_555
H26 C27 1_555 1_555
C28 C27 1_555 1_555
H27 C28 1_555 1_555
H28 C28 1_555 1_555
H29 C28 1_555 1_555
O3 C29 1_555 1_555
O4 C29 1_555 1_555
C29 C30 1_555 1_555
C30 C31 1_555 1_555
C31 H30 1_555 1_555
C32 C31 1_555 1_555
H31 C32 1_555 1_555
C33 C32 1_555 1_555
H32 C33 1_555 1_555
C34 C33 1_555 1_555
H33 C34 1_555 1_555
C35 C30 1_555 1_555
C36 C35 1_555 1_555
C37 C36 1_555 1_555
H34 C37 1_555 1_555
C38 C37 1_555 1_555
H35 C38 1_555 1_555
C39 C38 1_555 1_555
C40 C39 1_555 1_555
C41 C36 1_555 1_555
H36 C41 1_555 1_555
C42 C39 1_555 1_555
C43 C42 1_555 1_555
H37 C43 1_555 1_555
C44 C43 1_555 1_555
H38 C44 1_555 1_555
C45 C44 1_555 1_555
H39 C45 1_555 1_555
C46 C45 1_555 1_555
H40 C46 1_555 1_555
C47 C42 1_555 1_555
C48 C40 1_555 1_555
C49 C48 1_555 1_555
H41 C49 1_555 1_555
H42 C49 1_555 1_555
C50 C49 1_555 1_555
H43 C50 1_555 1_555
H44 C50 1_555 1_555
C51 C50 1_555 1_555
H45 C51 1_555 1_555
H46 C51 1_555 1_555
C52 C51 1_555 1_555
H47 C52 1_555 1_555
H48 C52 1_555 1_555
H49 C52 1_555 1_555
C53 C48 1_555 1_555
H50 C53 1_555 1_555
H51 C53 1_555 1_555
C54 C53 1_555 1_555
H52 C54 1_555 1_555
H53 C54 1_555 1_555
C55 C54 1_555 1_555
H54 C55 1_555 1_555
H55 C55 1_555 1_555
C56 C55 1_555 1_555
H56 C56 1_555 1_555
H57 C56 1_555 1_555
H58 C56 1_555 1_555
H59 O1 1_555 1_555
H60 O3 1_555 1_555
C6 C7 1_555 1_555
C12 C13 1_555 1_555
C15 C20 1_555 1_555
C18 C19 1_555 1_555
C34 C35 1_555 1_555
C40 C41 1_555 1_555
C46 C47 1_555 1_555
C47 C48 1_555 1_555

#END
