
#######################################################################
#
#                 Cambridge Crystallographic Data Centre
#                                CCDC 
#
#######################################################################
#
# If this CIF has been generated from an entry in the Cambridge 
# Structural Database, then it will include bibliographic, chemical, 
# crystal, experimental, refinement or atomic coordinate data resulting 
# from the CCDC's data processing and validation procedures.
#
#######################################################################

data_AXIQEE
_chemical_formula_moiety         'C30 H44 Li2 N6 O2'
_chemical_name_systematic        
bis(\m~2~-bis((1H-pyrrol-2-yl)methyl)(methyl)amine)-bis(tetrahydrofuran)-di-lithium
_symmetry_cell_setting           triclinic
_symmetry_space_group_name_H-M   'P -1'
_symmetry_Int_Tables_number      2
_space_group_name_Hall           '-P 1'
loop_
_symmetry_equiv_pos_site_id
_symmetry_equiv_pos_as_xyz
1 x,y,z
2 -x,-y,-z
_cell_length_a                   11.485(2)
_cell_length_b                   12.345(2)
_cell_length_c                   12.704(2)
_cell_angle_alpha                76.660(3)
_cell_angle_beta                 89.023(3)
_cell_angle_gamma                67.554(3)
_cell_volume                     1614.76
_cell_formula_units_Z            2
loop_
_atom_site_label
_atom_site_type_symbol
_atom_site_fract_x
_atom_site_fract_y
_atom_site_fract_z
Li1 Li 0.7656(7) 0.3870(7) 0.2342(6)
Li2 Li 0.7340(7) 0.6098(7) 0.1960(6)
N1 N 0.9033(4) 0.4605(3) 0.2285(3)
N2 N 0.8418(4) 0.2795(3) 0.3905(3)
N3 N 0.5589(5) 0.3022(4) 0.3715(4)
N4 N 0.5972(4) 0.5363(3) 0.2164(3)
N5 N 0.6587(4) 0.7022(3) 0.3169(3)
N6 N 0.9474(5) 0.6736(4) 0.3110(3)
O1 O 0.7847(3) 0.2888(3) 0.1315(3)
O2 O 0.7120(3) 0.7217(3) 0.0556(3)
C1 C 0.9838(7) 0.4821(4) 0.1544(4)
H1 H 0.9599 0.5255 0.0826
C2 C 1.1053(6) 0.4303(5) 0.2013(5)
H2 H 1.1773 0.4336 0.1684
C3 C 1.0997(6) 0.3714(5) 0.3090(5)
H3 H 1.1672 0.3269 0.3610
C4 C 0.9740(6) 0.3927(4) 0.3219(4)
C5 C 0.9171(4) 0.3469(4) 0.4194(4)
H4 H 0.8623 0.4142 0.4474
H5 H 0.9833 0.2936 0.4756
C6 C 0.7574(5) 0.2618(4) 0.4770(4)
H6 H 0.7156 0.3369 0.4987
H7 H 0.8081 0.2014 0.5398
C7 C 0.6603(6) 0.2228(6) 0.4414(5)
C8 C 0.6518(6) 0.1108(5) 0.4679(5)
H8 H 0.7082 0.0404 0.5138
C9 C 0.5418(7) 0.1248(6) 0.4118(6)
H9 H 0.5114 0.0645 0.4143
C10 C 0.4856(6) 0.2424(7) 0.3524(5)
H10 H 0.4113 0.2753 0.3074
C11 C 0.9329(4) 0.1603(4) 0.3786(4)
H11 H 0.9806 0.1149 0.4467
H12 H 0.9893 0.1721 0.3247
H13 H 0.8876 0.1169 0.3566
C12 C 0.5122(7) 0.5208(4) 0.1507(4)
H14 H 0.5333 0.4845 0.0927
C13 C 0.3934(7) 0.5665(5) 0.1838(5)
H15 H 0.3205 0.5666 0.1530
C14 C 0.4013(6) 0.6131(5) 0.2723(5)
H16 H 0.3349 0.6497 0.3117
C15 C 0.5247(6) 0.5947(4) 0.2901(4)
C16 C 0.5865(4) 0.6304(4) 0.3723(4)
H17 H 0.5224 0.6780 0.4124
H18 H 0.6432 0.5585 0.4235
C17 C 0.7443(5) 0.7119(4) 0.3968(4)
H19 H 0.7846 0.6338 0.4475
H20 H 0.6946 0.7689 0.4376
C18 C 0.8440(6) 0.7517(5) 0.3466(4)
C19 C 0.8534(6) 0.8619(5) 0.3282(4)
H21 H 0.7954 0.9313 0.3448
C20 C 0.9666(7) 0.8502(6) 0.2798(5)
H22 H 0.9975 0.9107 0.2578
C21 C 1.0228(5) 0.7344(6) 0.2709(4)
H23 H 1.0999 0.7016 0.2422
C22 C 0.5694(4) 0.8243(4) 0.2609(4)
H24 H 0.5231 0.8652 0.3134
H25 H 0.5116 0.8178 0.2113
H26 H 0.6154 0.8691 0.2215
C23 C 0.8856(5) 0.2675(5) 0.0631(4)
H27 H 0.9609 0.2636 0.0999
H28 H 0.8635 0.3320 -0.0026
C24 C 0.9077(7) 0.1520(5) 0.0368(6)
H29 H 0.9726 0.0859 0.0872
H30 H 0.9336 0.1530 -0.0363
C25 C 0.7826(6) 0.1395(5) 0.0471(5)
H31 H 0.7339 0.1703 -0.0226
H32 H 0.7945 0.0556 0.0748
C26 C 0.7180(5) 0.2125(5) 0.1248(5)
H33 H 0.6302 0.2610 0.0991
H34 H 0.7209 0.1603 0.1955
C27 C 0.6156(6) 0.7477(5) -0.0254(5)
H35 H 0.5354 0.7611 0.0063
H36 H 0.6353 0.6805 -0.0593
C28 C 0.6085(8) 0.8563(6) -0.1059(6)
H37 H 0.6153 0.8417 -0.1780
H38 H 0.5286 0.9226 -0.1052
C29 C 0.7111(8) 0.8849(7) -0.0774(7)
H39 H 0.6795 0.9662 -0.0668
H40 H 0.7679 0.8806 -0.1351
C30 C 0.7773(6) 0.7997(6) 0.0210(5)
H41 H 0.8636 0.7533 0.0082
H42 H 0.7793 0.8416 0.0763
loop_
_geom_bond_atom_site_label_1
_geom_bond_atom_site_label_2
_geom_bond_site_symmetry_1
_geom_bond_site_symmetry_2
Li1 N1 1_555 1_555
Li2 N1 1_555 1_555
N1 C1 1_555 1_555
N2 Li1 1_555 1_555
N3 C7 1_555 1_555
N4 Li1 1_555 1_555
N5 Li2 1_555 1_555
N6 C18 1_555 1_555
O1 Li1 1_555 1_555
O2 Li2 1_555 1_555
C1 H1 1_555 1_555
C2 C1 1_555 1_555
H2 C2 1_555 1_555
C3 C2 1_555 1_555
H3 C3 1_555 1_555
C4 N1 1_555 1_555
C5 N2 1_555 1_555
H4 C5 1_555 1_555
H5 C5 1_555 1_555
C6 N2 1_555 1_555
H6 C6 1_555 1_555
H7 C6 1_555 1_555
C7 C6 1_555 1_555
C8 C7 1_555 1_555
H8 C8 1_555 1_555
C9 C8 1_555 1_555
H9 C9 1_555 1_555
C10 N3 1_555 1_555
H10 C10 1_555 1_555
C11 N2 1_555 1_555
H11 C11 1_555 1_555
H12 C11 1_555 1_555
H13 C11 1_555 1_555
C12 N4 1_555 1_555
H14 C12 1_555 1_555
C13 C12 1_555 1_555
H15 C13 1_555 1_555
C14 C13 1_555 1_555
H16 C14 1_555 1_555
C15 N4 1_555 1_555
C16 N5 1_555 1_555
H17 C16 1_555 1_555
H18 C16 1_555 1_555
C17 N5 1_555 1_555
H19 C17 1_555 1_555
H20 C17 1_555 1_555
C18 C17 1_555 1_555
C19 C18 1_555 1_555
H21 C19 1_555 1_555
C20 C19 1_555 1_555
H22 C20 1_555 1_555
C21 N6 1_555 1_555
H23 C21 1_555 1_555
C22 N5 1_555 1_555
H24 C22 1_555 1_555
H25 C22 1_555 1_555
H26 C22 1_555 1_555
C23 O1 1_555 1_555
H27 C23 1_555 1_555
H28 C23 1_555 1_555
C24 C23 1_555 1_555
H29 C24 1_555 1_555
H30 C24 1_555 1_555
C25 C24 1_555 1_555
H31 C25 1_555 1_555
H32 C25 1_555 1_555
C26 O1 1_555 1_555
H33 C26 1_555 1_555
H34 C26 1_555 1_555
C27 O2 1_555 1_555
H35 C27 1_555 1_555
H36 C27 1_555 1_555
C28 C27 1_555 1_555
H37 C28 1_555 1_555
H38 C28 1_555 1_555
C29 C28 1_555 1_555
H39 C29 1_555 1_555
H40 C29 1_555 1_555
C30 O2 1_555 1_555
H41 C30 1_555 1_555
H42 C30 1_555 1_555
Li2 N4 1_555 1_555
C3 C4 1_555 1_555
C4 C5 1_555 1_555
C9 C10 1_555 1_555
C14 C15 1_555 1_555
C15 C16 1_555 1_555
C20 C21 1_555 1_555
C25 C26 1_555 1_555
C29 C30 1_555 1_555

#END
