
#######################################################################
#
#                 Cambridge Crystallographic Data Centre
#                                CCDC 
#
#######################################################################
#
# If this CIF has been generated from an entry in the Cambridge 
# Structural Database, then it will include bibliographic, chemical, 
# crystal, experimental, refinement or atomic coordinate data resulting 
# from the CCDC's data processing and validation procedures.
#
#######################################################################

data_AXIRUV
_chemical_formula_moiety         'C9 H8 N2 O1 S2'
_chemical_name_systematic        
5-((1-Methyl-1H-pyrrol-2-yl)methylene)-2-thioxo-1,3-thiazolidin-4-one
_symmetry_cell_setting           monoclinic
_symmetry_space_group_name_H-M   'C 2/c'
_symmetry_Int_Tables_number      15
_space_group_name_Hall           '-C 2yn'
loop_
_symmetry_equiv_pos_site_id
_symmetry_equiv_pos_as_xyz
1 x,y,z
2 -x,y,1/2-z
3 1/2+x,1/2+y,z
4 1/2-x,1/2+y,1/2-z
5 -x,-y,-z
6 x,-y,1/2+z
7 1/2-x,1/2-y,-z
8 1/2+x,1/2-y,1/2+z
_cell_length_a                   16.736(3)
_cell_length_b                   7.4588(11)
_cell_length_c                   16.567(3)
_cell_angle_alpha                90
_cell_angle_beta                 93.731(3)
_cell_angle_gamma                90
_cell_volume                     2063.68
_cell_formula_units_Z            8
loop_
_atom_site_label
_atom_site_type_symbol
_atom_site_fract_x
_atom_site_fract_y
_atom_site_fract_z
S1 S 0.35681(5) 0.02714(10) 0.51892(4)
S2 S 0.49207(6) 0.04574(12) 0.64584(5)
N1 N 0.45958(14) 0.2796(3) 0.52654(13)
H1 H 0.5003 0.3440 0.5423
N2 N 0.17551(15) 0.1235(3) 0.29455(14)
O1 O 0.41934(12) 0.4674(3) 0.42188(12)
C1 C 0.44233(18) 0.1264(4) 0.56611(16)
C2 C 0.41011(17) 0.3294(4) 0.46031(16)
C3 C 0.34621(17) 0.1972(4) 0.44647(16)
C4 C 0.29027(17) 0.2124(4) 0.38510(16)
H2 H 0.2960 0.3101 0.3511
C5 C 0.22326(17) 0.0994(4) 0.36492(16)
C6 C 0.19150(18) -0.0438(4) 0.40484(18)
H3 H 0.2113 -0.0915 0.4540
C7 C 0.12430(19) -0.1046(4) 0.35831(19)
H4 H 0.0912 -0.1995 0.3708
C8 C 0.11634(18) 0.0009(4) 0.29155(19)
H5 H 0.0763 -0.0099 0.2502
C9 C 0.1856(2) 0.2605(5) 0.23374(19)
H6 H 0.1463 0.2440 0.1896
H7 H 0.2383 0.2512 0.2143
H8 H 0.1791 0.3768 0.2572
loop_
_geom_bond_atom_site_label_1
_geom_bond_atom_site_label_2
_geom_bond_site_symmetry_1
_geom_bond_site_symmetry_2
S1 C1 1_555 1_555
S2 C1 1_555 1_555
N1 H1 1_555 1_555
N2 C5 1_555 1_555
O1 C2 1_555 1_555
C1 N1 1_555 1_555
C2 N1 1_555 1_555
C3 S1 1_555 1_555
C4 C3 1_555 1_555
H2 C4 1_555 1_555
C5 C4 1_555 1_555
C6 C5 1_555 1_555
H3 C6 1_555 1_555
C7 C6 1_555 1_555
H4 C7 1_555 1_555
C8 N2 1_555 1_555
H5 C8 1_555 1_555
C9 N2 1_555 1_555
H6 C9 1_555 1_555
H7 C9 1_555 1_555
H8 C9 1_555 1_555
C2 C3 1_555 1_555
C7 C8 1_555 1_555

#END
