
#######################################################################
#
#                 Cambridge Crystallographic Data Centre
#                                CCDC 
#
#######################################################################
#
# If this CIF has been generated from an entry in the Cambridge 
# Structural Database, then it will include bibliographic, chemical, 
# crystal, experimental, refinement or atomic coordinate data resulting 
# from the CCDC's data processing and validation procedures.
#
#######################################################################

data_AXOKII
_chemical_formula_moiety         'C104 H110 N12 O19,C6 H14'
_chemical_name_systematic        
'4-Isobutoxy-8-(((4-isobutoxy-8-(((4-isobutoxy-8-(((4,7,7-trimethyl-3-oxo-2-oxabicyclo[2.2.1]hept-1-yl)carbonyl)amino)quinolin-2-yl)carbonyl)amino)quinolin-2-yl)carbonyl)amino)quinoline-2-carboxylic anhydride hexane solvate'
_symmetry_cell_setting           monoclinic
_symmetry_space_group_name_H-M   'P 21'
_symmetry_Int_Tables_number      4
_space_group_name_Hall           'P 2yb'
loop_
_symmetry_equiv_pos_site_id
_symmetry_equiv_pos_as_xyz
1 x,y,z
2 -x,1/2+y,-z
_cell_length_a                   13.940(3)
_cell_length_b                   13.983(3)
_cell_length_c                   52.858(11)
_cell_angle_alpha                90
_cell_angle_beta                 90.15(3)
_cell_angle_gamma                90
_cell_volume                     10303.2
_cell_formula_units_Z            4
loop_
_atom_site_label
_atom_site_type_symbol
_atom_site_fract_x
_atom_site_fract_y
_atom_site_fract_z
O1 O 0.2430(3) 0.2516(4) 0.37507(8)
O3 O 0.6498(3) 0.2411(5) 0.42404(8)
N4 N 0.4810(4) 0.3702(5) 0.36341(9)
H2 H 0.4788 0.3325 0.3763
O6 O 0.2536(4) -0.1564(5) 0.32613(9)
O9 O 0.1204(4) 0.3128(5) 0.39885(9)
O10 O 0.7388(4) 0.0833(5) 0.31481(10)
N6 N 0.3168(4) 0.1657(5) 0.41377(9)
N7 N 0.1247(4) 0.0138(5) 0.38684(9)
H4 H 0.1621 0.0163 0.3739
N9 N 0.3288(4) 0.1777(5) 0.33622(9)
O11 O 0.4120(4) -0.2458(5) 0.43508(10)
C1 C 0.3667(4) 0.4047(6) 0.43145(12)
N10 N 0.4918(4) 0.3038(5) 0.44673(10)
H6 H 0.5047 0.2967 0.4309
N12 N 0.1902(4) 0.0009(5) 0.30335(12)
H8 H 0.1957 -0.0132 0.3191
C2 C 0.0889(4) 0.1268(5) 0.31824(11)
N13 N 0.2968(4) -0.0611(4) 0.38165(10)
O13 O 0.1672(3) 0.1164(5) 0.48034(8)
O14 O 0.3798(4) 0.3260(5) 0.26950(9)
N15 N 0.4125(4) 0.4019(5) 0.40893(10)
O15 O -0.0761(4) 0.3231(4) 0.32939(9)
N17 N 0.0917(4) 0.0829(5) 0.34080(10)
O16 O 0.1715(3) 0.5703(5) 0.42052(9)
O18 O 0.1809(4) 0.3754(5) 0.35124(9)
N18 N 0.4048(4) 0.0095(5) 0.34424(10)
H9 H 0.3640 0.0408 0.3532
N22 N 0.4859(3) 0.0901(5) 0.40578(9)
H12 H 0.4555 0.1318 0.3969
C6 C 0.2478(5) -0.0854(5) 0.40304(11)
C8 C 0.2310(4) 0.2040(5) 0.41763(11)
O23 O -0.0149(4) 0.0783(6) 0.40037(11)
N24 N 0.5557(4) 0.1975(5) 0.36832(9)
C10 C 0.1588(4) -0.0438(6) 0.40674(11)
C13 C 0.5812(4) 0.2462(6) 0.34689(11)
O24 O 0.7632(4) 0.2512(6) 0.39400(12)
C15 C 0.3512(4) 0.1071(6) 0.43235(11)
O25 O 0.6199(4) -0.0024(5) 0.40440(10)
C18 C 0.4248(5) -0.1679(6) 0.39438(13)
H14 H 0.4827 -0.1971 0.3903
C20 C 0.5390(4) 0.3374(6) 0.34337(12)
C21 C 0.4070(5) 0.1918(6) 0.29451(12)
O28 O 0.4966(4) -0.1255(5) 0.34562(11)
C26 C 0.3869(4) 0.1426(5) 0.31753(11)
C28 C 0.2487(5) 0.5166(6) 0.41598(14)
C29 C 0.1777(5) 0.1931(7) 0.43964(14)
H15 H 0.1194 0.2246 0.4414
C32 C 0.3026(5) 0.0882(6) 0.45555(12)
C35 C 0.6836(5) 0.1175(7) 0.33330(13)
C37 C 0.2991(5) 0.5184(6) 0.39315(13)
H17 H 0.2810 0.5588 0.3800
C38 C 0.3769(5) -0.1878(6) 0.41679(13)
C39 C 0.4409(4) 0.0644(6) 0.42817(11)
C40 C 0.4060(4) 0.3498(6) 0.45162(12)
O31 O 0.4173(5) 0.5117(5) 0.34930(12)
C42 C -0.0240(5) 0.2445(6) 0.33426(13)
C43 C 0.3587(5) 0.2817(6) 0.29128(12)
O34 O 0.2431(5) -0.2681(5) 0.35550(13)
C45 C 0.2110(5) 0.1363(6) 0.45846(12)
C47 C 0.6620(5) 0.0711(7) 0.35553(14)
H19 H 0.6912 0.0132 0.3595
C48 C 0.2885(4) 0.2624(6) 0.33288(12)
C53 C 0.5690(5) 0.0604(6) 0.39577(13)
C54 C 0.1449(5) 0.0876(5) 0.29800(11)
C55 C 0.3808(5) -0.1014(6) 0.37838(12)
C56 C 0.3603(5) 0.3490(7) 0.47507(14)
H22 H 0.3858 0.3131 0.4883
C61 C 0.4310(5) 0.0525(6) 0.32185(11)
C63 C 0.5955(5) 0.1125(6) 0.37200(12)
C65 C 0.4335(5) -0.0734(7) 0.35410(13)
C66 C 0.4679(5) 0.1529(7) 0.27679(12)
H25 H 0.4794 0.1846 0.2616
O37 O 0.5444(4) 0.2617(8) 0.48539(10)
C68 C -0.0246(5) 0.1943(6) 0.35658(13)
H27 H -0.0650 0.2120 0.3697
C70 C 0.2825(5) 0.4597(6) 0.43617(12)
C71 C 0.1459(6) 0.1320(7) 0.27524(14)
H29 H 0.1818 0.1060 0.2621
C72 C 0.6427(5) 0.2078(7) 0.32846(13)
C75 C 0.3007(5) 0.3171(6) 0.31004(12)
H31 H 0.2697 0.3755 0.3080
C77 C 0.3407(5) 0.0266(7) 0.47311(13)
H33 H 0.3083 0.0145 0.4881
C78 C 0.4935(5) 0.0157(6) 0.30406(13)
H34 H 0.5233 -0.0428 0.3069
O38 O 0.2320(7) -0.0507(6) 0.26436(10)
C79 C 0.4776(5) -0.0013(6) 0.44589(13)
H35 H 0.5345 -0.0336 0.4425
C81 C 0.1908(5) 0.2649(6) 0.39659(12)
C82 C 0.5118(5) 0.0659(7) 0.28187(13)
H36 H 0.5546 0.0405 0.2702
C84 C 0.2294(5) 0.3037(6) 0.35294(13)
C85 C 0.3794(5) 0.4558(6) 0.39083(12)
C91 C 0.2855(5) -0.1507(6) 0.42126(12)
C92 C 0.0372(4) 0.1156(6) 0.35911(12)
C95 C 0.0341(5) 0.2122(6) 0.31394(13)
C96 C 0.0433(5) 0.0662(6) 0.38444(13)
C97 C 0.4282(5) 0.4512(7) 0.36585(14)
C98 C 0.8081(5) -0.0443(8) 0.29059(16)
H40 H 0.7619 -0.0261 0.2774
C99 C 0.1311(6) 0.6253(7) 0.40002(16)
H41 H 0.1227 0.5845 0.3853
H42 H 0.1748 0.6764 0.3955
C102 C 0.4297(5) -0.0182(6) 0.46819(12)
H43 H 0.4561 -0.0594 0.4801
C107 C 0.7359(5) 0.3131(7) 0.45687(15)
C108 C 0.6536(5) 0.2392(7) 0.45212(14)
C109 C 0.2422(7) -0.2483(8) 0.33369(19)
C113 C 0.5397(6) -0.3144(7) 0.45915(15)
H51 H 0.5234 -0.2676 0.4723
C114 C 0.7442(5) 0.2514(8) 0.41616(17)
C115 C 0.1830(6) -0.2406(6) 0.29263(15)
C118 C 0.2296(6) -0.1677(7) 0.44316(13)
H52 H 0.2514 -0.2111 0.4552
C119 C 0.5569(5) 0.3895(7) 0.32155(13)
H53 H 0.5293 0.4493 0.3191
C121 C -0.1328(6) 0.3617(8) 0.35012(16)
H55 H -0.0929 0.3687 0.3651
H56 H -0.1848 0.3183 0.3541
C125 C 0.1454(5) -0.1222(7) 0.44689(12)
H58 H 0.1125 -0.1317 0.4620
C126 C 0.1068(5) -0.0616(6) 0.42875(13)
H59 H 0.0472 -0.0332 0.4312
C127 C 0.2773(6) 0.4013(8) 0.47881(15)
H60 H 0.2470 0.3985 0.4944
C130 C 0.6630(5) 0.2652(8) 0.30669(12)
H61 H 0.7074 0.2445 0.2948
C131 C 0.2384(5) 0.4576(8) 0.45981(15)
H62 H 0.1835 0.4936 0.4628
C134 C 0.2263(7) -0.0632(8) 0.28718(17)
C136 C 0.2542(6) -0.1566(6) 0.29790(14)
C140 C 0.5583(5) 0.2684(8) 0.46257(15)
C141 C 0.6171(5) 0.3497(6) 0.30348(12)
H70 H 0.6265 0.3829 0.2884
C142 C 0.0780(6) 0.1574(9) 0.48497(15)
H71 H 0.0347 0.1452 0.4709
H72 H 0.0843 0.2260 0.4871
C143 C 0.0934(6) 0.2173(7) 0.27096(15)
H73 H 0.0968 0.2482 0.2554
C145 C 0.0368(6) 0.2545(7) 0.29018(15)
H76 H 0.0000 0.3087 0.2871
C148 C 0.0366(6) 0.6668(8) 0.40742(18)
H80 H 0.0458 0.7059 0.4226
C149 C 0.3842(7) 0.4549(8) 0.24001(17)
H81 H 0.3750 0.4063 0.2269
C150 C 0.0386(7) 0.1105(10) 0.50978(18)
H82 H 0.0867 0.1191 0.5231
C152 C 0.3397(7) 0.4166(8) 0.26426(15)
H84 H 0.3527 0.4601 0.2782
H85 H 0.2708 0.4111 0.2623
C159 C 0.3525(6) -0.1978(7) 0.29157(19)
H92 H 0.4027 -0.1664 0.3012
H93 H 0.3664 -0.1915 0.2737
C161 C 0.8028(5) 0.2592(7) 0.43980(17)
C163 C -0.1728(6) 0.4577(8) 0.34247(17)
H98 H -0.2119 0.4480 0.3273
C166 C 0.2376(6) -0.3098(7) 0.31028(17)
C168 C 0.7682(6) -0.0149(9) 0.31599(16)
H103 H 0.7138 -0.0549 0.3203
H104 H 0.8167 -0.0228 0.3290
C171 C 0.5098(7) -0.2732(8) 0.43408(17)
H110 H 0.5492 -0.2180 0.4301
H111 H 0.5188 -0.3205 0.4209
C173 C 0.8000(6) 0.1529(7) 0.45016(18)
H114 H 0.8150 0.1071 0.4370
H115 H 0.8440 0.1442 0.4642
C177 C 0.3424(6) -0.3068(8) 0.29946(18)
H125 H 0.3492 -0.3487 0.2850
H126 H 0.3892 -0.3243 0.3122
C179 C 0.7166(6) 0.4119(9) 0.44928(19)
H130 H 0.6728 0.4406 0.4610
H131 H 0.6889 0.4126 0.4326
H132 H 0.7756 0.4474 0.4492
C180 C 0.0184(9) 0.0121(11) 0.5077(2)
H133 H 0.0752 -0.0215 0.5027
H134 H -0.0312 0.0025 0.4953
H135 H -0.0028 -0.0117 0.5238
C181 C 0.9050(5) 0.2972(10) 0.43386(19)
H136 H 0.9409 0.3030 0.4493
H137 H 0.9003 0.3588 0.4259
H138 H 0.9370 0.2535 0.4227
C182 C 0.4823(8) 0.4725(10) 0.24194(19)
H139 H 0.5069 0.4904 0.2257
H140 H 0.5143 0.4158 0.2477
H141 H 0.4932 0.5235 0.2538
C184 C 0.6934(6) 0.1443(7) 0.45881(18)
H145 H 0.6605 0.0935 0.4498
H146 H 0.6891 0.1326 0.4769
C185 C 0.1983(8) -0.4100(7) 0.3150(2)
H147 H 0.1966 -0.4449 0.2994
H148 H 0.1346 -0.4054 0.3218
H149 H 0.2389 -0.4427 0.3269
C186 C 0.7636(6) 0.3110(9) 0.48530(15)
H150 H 0.7773 0.2464 0.4903
H151 H 0.7113 0.3353 0.4952
H152 H 0.8194 0.3500 0.4880
C188 C -0.0505(9) 0.1620(12) 0.5175(2)
H156 H -0.0371 0.2291 0.5190
H157 H -0.0721 0.1377 0.5335
H158 H -0.0995 0.1523 0.5050
C189 C 0.0807(6) -0.2190(8) 0.3005(2)
H159 H 0.0519 -0.1763 0.2884
H160 H 0.0808 -0.1897 0.3169
H161 H 0.0446 -0.2774 0.3011
C191 C -0.2393(8) 0.4876(10) 0.3636(3)
H165 H -0.2694 0.5472 0.3593
H166 H -0.2032 0.4951 0.3790
H167 H -0.2876 0.4394 0.3659
C192 C 0.1827(8) -0.2707(8) 0.26456(16)
H168 H 0.2469 -0.2861 0.2594
H169 H 0.1587 -0.2191 0.2544
H170 H 0.1424 -0.3258 0.2624
C194 C 0.0059(9) 0.7329(10) 0.3854(2)
H174 H -0.0532 0.7642 0.3896
H175 H -0.0029 0.6955 0.3703
H176 H 0.0548 0.7800 0.3825
C196 C 0.8214(8) -0.1563(11) 0.2898(2)
H180 H 0.7615 -0.1868 0.2938
H181 H 0.8689 -0.1750 0.3020
H182 H 0.8417 -0.1753 0.2732
C200 C 0.3314(10) 0.5405(12) 0.2322(2)
H192 H 0.2646 0.5252 0.2303
H193 H 0.3562 0.5630 0.2163
H194 H 0.3388 0.5895 0.2448
C201 C 0.6509(8) -0.3296(10) 0.4599(2)
H195 H 0.6825 -0.2703 0.4561
H196 H 0.6686 -0.3768 0.4476
H197 H 0.6697 -0.3510 0.4764
C205 C 0.8974(6) 0.0035(9) 0.28556(19)
H206 H 0.9220 -0.0173 0.2695
H207 H 0.9428 -0.0117 0.2986
H208 H 0.8871 0.0714 0.2851
C208 C -0.0321(7) 0.5919(11) 0.4130(2)
H214 H -0.0913 0.6202 0.4185
H215 H -0.0071 0.5516 0.4262
H216 H -0.0434 0.5545 0.3981
C210 C -0.0936(10) 0.5278(9) 0.3358(2)
H220 H -0.0558 0.5023 0.3223
H221 H -0.0535 0.5381 0.3504
H222 H -0.1215 0.5875 0.3307
C211 C 0.4872(8) -0.4030(9) 0.46476(19)
H223 H 0.5053 -0.4258 0.4812
H224 H 0.5026 -0.4506 0.4523
H225 H 0.4195 -0.3906 0.4644
O2 O 0.7424(3) 0.7373(4) 0.12522(8)
N1 N 0.8167(4) 0.8234(5) 0.08631(9)
N2 N 0.9807(4) 0.6196(5) 0.13686(10)
H1 H 0.9772 0.6578 0.1241
O4 O 1.2400(4) 0.9053(5) 0.18523(10)
N3 N 0.8292(4) 0.8100(5) 0.16365(9)
O5 O 1.1506(3) 0.7473(5) 0.07582(8)
O7 O 0.9112(4) 1.2349(5) 0.06488(10)
O8 O 0.7536(4) 1.1449(4) 0.17406(9)
N5 N 0.6251(4) 0.9752(5) 0.11314(9)
H3 H 0.6628 0.9731 0.1260
N8 N 0.6910(5) 0.9860(5) 0.19669(10)
H5 H 0.6989 0.9984 0.1809
N11 N 0.9922(4) 0.6855(5) 0.05352(11)
H7 H 1.0053 0.6919 0.0693
O12 O 0.6192(4) 0.6766(5) 0.10119(9)
N14 N 0.9126(4) 0.5871(5) 0.09093(10)
N16 N 0.5923(4) 0.9068(5) 0.15893(10)
C3 C 0.8679(4) 0.5836(6) 0.06804(12)
C4 C 0.5881(4) 0.8618(6) 0.18168(12)
O17 O 0.6717(3) 0.4201(5) 0.07954(10)
O19 O 0.6819(4) 0.6157(5) 0.14874(9)
O20 O 0.4246(4) 0.6663(4) 0.17063(10)
C5 C 0.7477(5) 1.0757(5) 0.09683(11)
N19 N 0.7979(4) 1.0497(5) 0.11820(10)
N20 N 0.9853(3) 0.8985(5) 0.09419(9)
H10 H 0.9546 0.8569 0.1030
N21 N 0.9045(4) 0.9810(5) 0.15544(10)
H11 H 0.8634 0.9499 0.1465
O21 O 0.8805(4) 0.6623(4) 0.23041(8)
O22 O 0.6686(3) 0.8737(5) 0.01953(8)
N23 N 1.0560(4) 0.7906(5) 0.13177(10)
C7 C 0.8518(4) 0.8811(6) 0.06775(12)
C9 C 1.0799(4) 0.7433(6) 0.15287(11)
C11 C 0.4783(5) 0.7435(6) 0.16600(14)
C12 C 0.8018(4) 0.9008(6) 0.04453(11)
C14 C 0.7326(4) 0.7823(5) 0.08258(12)
C16 C 0.7497(5) 0.4724(6) 0.08431(14)
C17 C 1.1639(5) 0.9203(7) 0.14459(14)
H13 H 1.1923 0.9785 0.1407
C19 C 0.8880(5) 0.8464(6) 0.18237(11)
O26 O 1.2616(4) 0.7385(6) 0.10550(11)
O27 O 0.9972(4) 1.1153(5) 0.15418(10)
O29 O 0.4846(4) 0.9119(6) 0.09919(11)
C22 C 0.6583(5) 1.0321(6) 0.09322(11)
O30 O 1.1203(4) 0.9906(5) 0.09560(10)
C23 C 1.1832(5) 0.8725(7) 0.16667(13)
C24 C 0.9053(5) 0.7972(6) 0.20540(12)
C25 C 1.0386(4) 0.6526(6) 0.15638(12)
C27 C 0.8818(5) 1.0916(6) 0.12184(12)
C30 C 0.8599(5) 0.7066(7) 0.20859(12)
C31 C 0.7900(5) 0.7264(6) 0.16716(12)
C33 C 0.8758(5) 1.1781(6) 0.08337(14)
C34 C 0.9245(5) 1.1555(6) 0.10543(13)
H16 H 0.9840 1.1824 0.1091
C36 C 0.9065(4) 0.6403(6) 0.04789(12)
C41 C 0.6768(5) 0.7969(7) 0.06014(13)
H18 H 0.6172 0.7677 0.0584
O32 O 0.7439(6) 1.2602(5) 0.14487(13)
O33 O 0.9167(5) 0.4801(5) 0.15074(12)
C44 C 0.7115(5) 0.8538(6) 0.04140(13)
C46 C 0.6455(5) 0.9021(6) 0.20172(13)
C49 C 0.8010(5) 0.6719(7) 0.18986(12)
H20 H 0.7689 0.6141 0.1919
C50 C 1.0964(5) 0.8740(7) 0.12790(12)
C51 C 0.8000(5) 0.4697(7) 0.10692(13)
H21 H 0.7828 0.4285 0.1199
C52 C 0.9420(4) 0.9265(6) 0.07167(11)
O35 O 1.0450(4) 0.7262(7) 0.01451(10)
C57 C 0.9950(5) 0.9721(6) 0.19579(12)
H23 H 1.0279 1.0286 0.1925
C58 C 0.9335(5) 1.0631(6) 0.14579(13)
C59 C 0.7830(4) 0.5277(6) 0.06388(12)
C60 C 0.4776(5) 0.7948(7) 0.14317(13)
H24 H 0.4380 0.7766 0.1298
C62 C 1.0695(5) 0.9284(7) 0.10386(13)
C64 C 0.9314(5) 0.9374(6) 0.17819(11)
O36 O 0.7326(7) 1.0388(6) 0.23549(10)
C67 C 0.8622(5) 0.6414(7) 0.02512(13)
H26 H 0.8869 0.6782 0.0120
C69 C 0.9690(5) 0.8363(7) 0.22319(12)
H28 H 0.9828 0.8035 0.2381
C73 C 0.8417(5) 0.9621(7) 0.02688(12)
H30 H 0.8100 0.9732 0.0117
C74 C 0.5350(5) 0.7784(6) 0.18606(13)
C76 C 0.9787(5) 0.9892(6) 0.05432(13)
H32 H 1.0366 1.0200 0.0575
C80 C 0.6925(5) 0.7227(6) 0.10306(12)
C83 C 0.9286(5) 1.0070(6) 0.03173(13)
H37 H 0.9538 1.0493 0.0199
C86 C 0.7291(5) 0.6866(7) 0.14655(13)
C87 C 1.1432(5) 0.7812(6) 0.17158(12)
C88 C 0.8788(5) 0.5326(6) 0.10925(12)
C89 C 0.5375(4) 0.8729(6) 0.14110(12)
C90 C 0.7861(5) 1.1399(6) 0.07901(13)
C93 C 0.6457(7) 0.8556(7) 0.22508(15)
H38 H 0.6816 0.8809 0.2383
C94 C 1.0109(5) 0.9240(7) 0.21838(13)
H39 H 1.0507 0.9514 0.2305
C100 C 1.2354(5) 0.6771(7) 0.04308(15)
C101 C 0.5438(5) 0.9229(6) 0.11560(13)
C103 C 0.3683(6) 0.6279(7) 0.14966(15)
H44 H 0.4089 0.6194 0.1350
H45 H 0.3174 0.6723 0.1452
C104 C 0.9280(5) 0.5373(6) 0.13410(14)
C105 C 0.6329(6) 0.3634(7) 0.10036(15)
H46 H 0.6254 0.4037 0.1152
H47 H 0.6774 0.3126 0.1046
C106 C 1.0398(6) 1.3003(7) 0.04067(17)
H48 H 1.0206 1.2535 0.0278
C110 C 1.3067(5) 1.0321(7) 0.20947(16)
H49 H 1.2602 1.0143 0.2225
C111 C 1.0556(5) 0.5995(7) 0.17853(12)
H50 H 1.0264 0.5406 0.1812
C112 C 0.7449(7) 1.2387(7) 0.16630(19)
C116 C 1.1526(5) 0.7477(7) 0.04823(14)
C117 C 1.2422(5) 0.7398(8) 0.08361(18)
C120 C 0.7300(6) 1.1576(7) 0.05683(14)
H54 H 0.7517 1.2009 0.0448
C122 C 0.6826(6) 1.2315(7) 0.20715(15)
C123 C 1.0580(5) 0.7207(8) 0.03722(15)
C124 C 0.6059(5) 1.0510(6) 0.07125(12)
H57 H 0.5459 1.0235 0.0688
C128 C 0.7254(8) 1.0523(7) 0.21265(16)
C129 C 0.7547(6) 1.1471(7) 0.20222(14)
C132 C 1.1188(5) 0.6396(7) 0.19648(13)
H63 H 1.1314 0.6058 0.2113
C133 C 0.6444(5) 1.1111(7) 0.05318(13)
H64 H 0.6113 1.1204 0.0381
C135 C 1.1628(5) 0.7269(7) 0.19304(13)
H65 H 1.2058 0.7496 0.2051
C137 C 0.5739(6) 0.8344(8) 0.01544(16)
H66 H 0.5310 0.8526 0.0290
H67 H 0.5765 0.7651 0.0145
C138 C 0.7781(6) 0.5864(8) 0.02127(16)
H68 H 0.7482 0.5876 0.0055
C139 C 0.7403(5) 0.5322(8) 0.04001(14)
H69 H 0.6847 0.4972 0.0369
C144 C 0.8386(7) 0.5701(8) 0.23508(15)
H74 H 0.8532 0.5265 0.2214
H75 H 0.7695 0.5754 0.2366
C147 C 0.5379(6) 0.7341(7) 0.20986(14)
H79 H 0.5024 0.6789 0.2128
C151 C 0.5371(6) 0.3208(8) 0.09323(19)
H83 H 0.5464 0.2826 0.0779
C153 C 1.3043(5) 0.7321(7) 0.05991(16)
C154 C 0.3242(7) 0.5299(8) 0.15764(17)
H86 H 0.2847 0.5393 0.1727
C156 C 0.5940(7) 0.7730(8) 0.22896(15)
H89 H 0.5966 0.7429 0.2446
C157 C 0.5394(6) 0.8773(9) -0.01021(17)
H90 H 0.5890 0.8674 -0.0230
C158 C 0.8827(7) 0.5341(9) 0.25996(17)
H91 H 0.8757 0.5853 0.2725
C160 C 1.2672(6) 1.0056(9) 0.18455(17)
H94 H 1.2117 1.0448 0.1807
H95 H 1.3150 1.0160 0.1715
C162 C 1.0129(6) 1.2617(8) 0.06623(16)
H96 H 1.0519 1.2064 0.0704
H97 H 1.0228 1.3100 0.0791
C164 C 0.8399(6) 1.2952(7) 0.20006(18)
H99 H 0.8478 1.3380 0.2144
H100 H 0.8862 1.3120 0.1871
C165 C 1.1941(6) 0.8454(8) 0.04145(17)
H101 H 1.1622 0.8963 0.0506
H102 H 1.1894 0.8577 0.0234
C167 C 0.7377(6) 1.2995(7) 0.18969(16)
C169 C 0.8519(6) 1.1868(8) 0.20849(18)
H105 H 0.9020 1.1550 0.1989
H106 H 0.8659 1.1816 0.2264
C170 C 0.6824(7) 1.2572(8) 0.23543(16)
H107 H 0.7467 1.2711 0.2409
H108 H 0.6577 1.2044 0.2450
H109 H 0.6426 1.3124 0.2381
C172 C 1.2999(6) 0.8345(8) 0.04994(18)
H112 H 1.3433 0.8433 0.0358
H113 H 1.3158 0.8801 0.0631
C174 C 0.6953(8) 1.3983(7) 0.1846(2)
H116 H 0.6949 1.4347 0.2000
H117 H 0.6309 1.3916 0.1784
H118 H 0.7335 1.4307 0.1721
C175 C 1.2148(6) 0.5773(9) 0.0509(2)
H119 H 1.1725 0.5481 0.0388
H120 H 1.1849 0.5775 0.0672
H121 H 1.2737 0.5418 0.0517
C176 C 0.9869(7) 0.5135(12) 0.2575(2)
H122 H 1.0123 0.4951 0.2737
H123 H 1.0196 0.5698 0.2517
H124 H 0.9962 0.4625 0.2456
C178 C 1.2616(6) 0.6768(9) 0.01391(15)
H127 H 1.2776 0.7406 0.0087
H128 H 1.2076 0.6544 0.0043
H129 H 1.3154 0.6354 0.0111
C183 C 0.5216(8) 0.9786(10) -0.00740(19)
H142 H 0.5022 1.0049 -0.0234
H143 H 0.5791 1.0097 -0.0017
H144 H 0.4715 0.9883 0.0048
C187 C 0.5820(6) 1.2099(9) 0.1990(2)
H153 H 0.5817 1.1914 0.1815
H154 H 0.5430 1.2659 0.2012
H155 H 0.5569 1.1587 0.2091
C190 C 0.2584(7) 0.5015(10) 0.1353(2)
H162 H 0.2117 0.5509 0.1325
H163 H 0.2263 0.4426 0.1392
H164 H 0.2963 0.4935 0.1203
C193 C 0.5046(8) 0.2564(10) 0.1131(3)
H171 H 0.4435 0.2299 0.1086
H172 H 0.4987 0.2912 0.1287
H173 H 0.5504 0.2057 0.1153
C195 C 1.4033(5) 0.6950(9) 0.06486(19)
H177 H 1.4392 0.6950 0.0494
H178 H 1.3995 0.6310 0.0714
H179 H 1.4348 0.7353 0.0770
C197 C 0.4055(11) 0.4605(10) 0.1640(2)
H183 H 0.4439 0.4865 0.1774
H184 H 0.4447 0.4509 0.1493
H185 H 0.3789 0.4003 0.1693
C198 C 1.1527(8) 1.3117(11) 0.0398(2)
H186 H 1.1823 1.2508 0.0428
H187 H 1.1728 1.3564 0.0525
H188 H 1.1714 1.3348 0.0234
C199 C 0.8270(10) 0.4536(14) 0.2687(3)
H189 H 0.7611 0.4724 0.2706
H190 H 0.8514 0.4325 0.2848
H191 H 0.8314 0.4023 0.2567
C202 C 1.3998(6) 0.9824(9) 0.21499(18)
H198 H 1.4223 1.0008 0.2315
H199 H 1.4464 1.0002 0.2025
H200 H 1.3902 0.9144 0.2145
C204 C 0.4654(7) 0.3979(12) 0.0871(2)
H203 H 0.4063 0.3692 0.0817
H204 H 0.4901 0.4377 0.0738
H205 H 0.4542 0.4361 0.1019
C207 C 0.9899(7) 1.3923(9) 0.0353(2)
H211 H 1.0095 1.4158 0.0190
H212 H 1.0062 1.4383 0.0480
H213 H 0.9217 1.3821 0.0352
C209 C 1.3212(8) 1.1467(10) 0.2101(2)
H217 H 1.2613 1.1776 0.2064
H218 H 1.3679 1.1649 0.1977
H219 H 1.3430 1.1657 0.2266
C212 C 0.4531(10) 0.8253(11) -0.0175(2)
H226 H 0.4678 0.7585 -0.0191
H227 H 0.4299 0.8492 -0.0334
H228 H 0.4048 0.8339 -0.0048
C146 C 0.6812(8) 0.7388(9) 0.35258(19)
H77 H 0.7065 0.6785 0.3588
H78 H 0.7326 0.7628 0.3420
C155 C 0.8085(13) 0.9028(13) 0.4149(3)
H87 H 0.7649 0.9569 0.4143
H88 H 0.8655 0.9198 0.4054
C214 C 0.627(3) 0.690(3) 0.3295(5)
H232 H 0.5684 0.7279 0.3306
H233 H 0.6099 0.6311 0.3381
C217 C 0.7572(7) 0.8110(8) 0.40144(17)
H238 H 0.8041 0.7602 0.4032
H239 H 0.7057 0.7945 0.4129
C218 C 0.715(3) 0.795(3) 0.3759(5)
H240 H 0.7547 0.8406 0.3670
H241 H 0.6558 0.8293 0.3788
C222 C 0.6095(12) 0.6513(14) 0.3010(3)
H249 H 0.5442 0.6305 0.2992
H250 H 0.6519 0.5987 0.2978
H251 H 0.6221 0.7019 0.2892
C203 C 0.3135(17) 0.1035(17) 0.0801(3)
H201 H 0.2783 0.0444 0.0825
H202 H 0.3736 0.0949 0.0891
C215 C 0.1858(6) 0.2584(8) 0.15356(18)
H234 H 0.1530 0.2475 0.1376
H235 H 0.2269 0.3129 0.1501
C216 C 0.2579(7) 0.1776(8) 0.09669(17)
H236 H 0.2857 0.2408 0.0949
H237 H 0.1910 0.1804 0.0916
C219 C 0.2618(18) 0.179(2) 0.1517(3)
H242 H 0.2443 0.1253 0.1625
H243 H 0.3239 0.2024 0.1570
C220 C 0.266(2) 0.1445(17) 0.1230(3)
H244 H 0.3288 0.1136 0.1226
H245 H 0.2209 0.0921 0.1231
C223 C 0.3442(12) 0.0998(15) 0.0505(3)
H252 H 0.3758 0.0402 0.0471
H253 H 0.3871 0.1518 0.0469
H254 H 0.2880 0.1052 0.0401
C206? C 0.1036(14) 0.3115(19) 0.1679(3)
H209? H 0.0459 0.2736 0.1657
H210? H 0.0928 0.3714 0.1591
C213? C 0.8393(15) 0.8813(18) 0.4450(3)
H229? H 0.8691 0.9372 0.4521
H230? H 0.8835 0.8287 0.4457
H231? H 0.7830 0.8657 0.4546
C221? C 0.1114(14) 0.3366(17) 0.1979(3)
H246? H 0.0519 0.3637 0.2036
H247? H 0.1623 0.3817 0.2006
H248? H 0.1245 0.2792 0.2072
loop_
_geom_bond_atom_site_label_1
_geom_bond_atom_site_label_2
_geom_bond_site_symmetry_1
_geom_bond_site_symmetry_2
O1 C81 1_555 1_555
O2 C80 1_555 1_555
O3 C108 1_555 1_555
N1 C7 1_555 1_555
N2 H1 1_555 1_555
O4 C23 1_555 1_555
N3 C19 1_555 1_555
N4 H2 1_555 1_555
O5 C116 1_555 1_555
O6 C109 1_555 1_555
O7 C33 1_555 1_555
O8 C112 1_555 1_555
O9 C81 1_555 1_555
O10 C35 1_555 1_555
N5 H3 1_555 1_555
N6 C8 1_555 1_555
N7 H4 1_555 1_555
N8 H5 1_555 1_555
N9 C26 1_555 1_555
O11 C38 1_555 1_555
C1 N15 1_555 1_555
N10 H6 1_555 1_555
N11 H7 1_555 1_555
O12 C80 1_555 1_555
N12 H8 1_555 1_555
C2 N17 1_555 1_555
N13 C6 1_555 1_555
N14 C3 1_555 1_555
O13 C45 1_555 1_555
O14 C43 1_555 1_555
N15 C85 1_555 1_555
O15 C42 1_555 1_555
N16 C4 1_555 1_555
C3 C36 1_555 1_555
N17 C92 1_555 1_555
O16 C28 1_555 1_555
C4 C46 1_555 1_555
O17 C16 1_555 1_555
O18 C84 1_555 1_555
O19 C86 1_555 1_555
N18 H9 1_555 1_555
O20 C11 1_555 1_555
C5 N19 1_555 1_555
N19 C27 1_555 1_555
N20 H10 1_555 1_555
N21 H11 1_555 1_555
N22 H12 1_555 1_555
O21 C30 1_555 1_555
O22 C44 1_555 1_555
C6 C10 1_555 1_555
N23 C9 1_555 1_555
C7 C12 1_555 1_555
C8 C29 1_555 1_555
O23 C96 1_555 1_555
C9 C25 1_555 1_555
N24 C13 1_555 1_555
C10 N7 1_555 1_555
C11 C60 1_555 1_555
C12 C44 1_555 1_555
C13 C20 1_555 1_555
C14 N1 1_555 1_555
O24 C114 1_555 1_555
C15 N6 1_555 1_555
O25 C53 1_555 1_555
C16 C51 1_555 1_555
C17 H13 1_555 1_555
C18 H14 1_555 1_555
C19 C24 1_555 1_555
C20 N4 1_555 1_555
O26 C117 1_555 1_555
O27 C58 1_555 1_555
C21 C26 1_555 1_555
O28 C65 1_555 1_555
O29 C101 1_555 1_555
C22 N5 1_555 1_555
O30 C62 1_555 1_555
C23 C17 1_555 1_555
C24 C30 1_555 1_555
C25 N2 1_555 1_555
C26 C61 1_555 1_555
C27 C34 1_555 1_555
C28 C37 1_555 1_555
C29 H15 1_555 1_555
C30 C49 1_555 1_555
C31 N3 1_555 1_555
C32 C15 1_555 1_555
C33 C34 1_555 1_555
C34 H16 1_555 1_555
C35 C47 1_555 1_555
C36 N11 1_555 1_555
C37 H17 1_555 1_555
C38 C18 1_555 1_555
C39 N22 1_555 1_555
C40 C1 1_555 1_555
O31 C97 1_555 1_555
C41 C14 1_555 1_555
H18 C41 1_555 1_555
C42 C68 1_555 1_555
O32 C112 1_555 1_555
O33 C104 1_555 1_555
C43 C21 1_555 1_555
O34 C109 1_555 1_555
C44 C41 1_555 1_555
C45 C29 1_555 1_555
C46 N8 1_555 1_555
C47 H19 1_555 1_555
C48 N9 1_555 1_555
C49 C31 1_555 1_555
H20 C49 1_555 1_555
C50 N23 1_555 1_555
C51 H21 1_555 1_555
C52 N20 1_555 1_555
C53 N22 1_555 1_555
O35 C123 1_555 1_555
C54 N12 1_555 1_555
C55 N13 1_555 1_555
C56 C40 1_555 1_555
H22 C56 1_555 1_555
C57 H23 1_555 1_555
C58 N21 1_555 1_555
C59 C3 1_555 1_555
C60 H24 1_555 1_555
C61 N18 1_555 1_555
C62 N20 1_555 1_555
C63 N24 1_555 1_555
C64 N21 1_555 1_555
O36 C128 1_555 1_555
C65 N18 1_555 1_555
C66 C21 1_555 1_555
H25 C66 1_555 1_555
O37 C140 1_555 1_555
C67 C36 1_555 1_555
H26 C67 1_555 1_555
C68 H27 1_555 1_555
C69 C24 1_555 1_555
H28 C69 1_555 1_555
C70 C1 1_555 1_555
C71 C54 1_555 1_555
H29 C71 1_555 1_555
C72 C13 1_555 1_555
C73 C12 1_555 1_555
H30 C73 1_555 1_555
C74 C4 1_555 1_555
C75 C43 1_555 1_555
H31 C75 1_555 1_555
C76 C52 1_555 1_555
H32 C76 1_555 1_555
C77 C32 1_555 1_555
H33 C77 1_555 1_555
C78 C61 1_555 1_555
H34 C78 1_555 1_555
O38 C134 1_555 1_555
C79 C39 1_555 1_555
H35 C79 1_555 1_555
C80 C14 1_555 1_555
C81 C8 1_555 1_555
C82 C66 1_555 1_555
H36 C82 1_555 1_555
C83 C73 1_555 1_555
H37 C83 1_555 1_555
C84 O1 1_555 1_555
C85 C37 1_555 1_555
C86 O2 1_555 1_555
C87 C9 1_555 1_555
C88 N14 1_555 1_555
C89 N16 1_555 1_555
C90 C5 1_555 1_555
C91 C6 1_555 1_555
C92 C68 1_555 1_555
C93 C46 1_555 1_555
H38 C93 1_555 1_555
C94 C57 1_555 1_555
H39 C94 1_555 1_555
C95 C2 1_555 1_555
C96 N7 1_555 1_555
C97 N4 1_555 1_555
C98 H40 1_555 1_555
C99 O16 1_555 1_555
H41 C99 1_555 1_555
H42 C99 1_555 1_555
C100 C116 1_555 1_555
C101 N5 1_555 1_555
C102 C77 1_555 1_555
H43 C102 1_555 1_555
C103 O20 1_555 1_555
H44 C103 1_555 1_555
H45 C103 1_555 1_555
C104 N2 1_555 1_555
C105 O17 1_555 1_555
H46 C105 1_555 1_555
H47 C105 1_555 1_555
C106 H48 1_555 1_555
C107 C108 1_555 1_555
C108 C140 1_555 1_555
C109 C166 1_555 1_555
C110 H49 1_555 1_555
C111 C25 1_555 1_555
H50 C111 1_555 1_555
C112 C167 1_555 1_555
C113 H51 1_555 1_555
C114 O3 1_555 1_555
C115 C136 1_555 1_555
C116 C123 1_555 1_555
C117 O5 1_555 1_555
C118 C91 1_555 1_555
H52 C118 1_555 1_555
C119 C20 1_555 1_555
H53 C119 1_555 1_555
C120 C90 1_555 1_555
H54 C120 1_555 1_555
C121 O15 1_555 1_555
H55 C121 1_555 1_555
H56 C121 1_555 1_555
C122 C129 1_555 1_555
C123 N11 1_555 1_555
C124 C22 1_555 1_555
H57 C124 1_555 1_555
C125 C118 1_555 1_555
H58 C125 1_555 1_555
C126 C10 1_555 1_555
H59 C126 1_555 1_555
C127 C56 1_555 1_555
H60 C127 1_555 1_555
C128 N8 1_555 1_555
C129 O8 1_555 1_555
C130 C72 1_555 1_555
H61 C130 1_555 1_555
C131 C70 1_555 1_555
H62 C131 1_555 1_555
C132 C111 1_555 1_555
H63 C132 1_555 1_555
C133 C120 1_555 1_555
H64 C133 1_555 1_555
C134 N12 1_555 1_555
C135 C87 1_555 1_555
H65 C135 1_555 1_555
C136 O6 1_555 1_555
C137 O22 1_555 1_555
H66 C137 1_555 1_555
H67 C137 1_555 1_555
C138 C67 1_555 1_555
H68 C138 1_555 1_555
C139 C59 1_555 1_555
H69 C139 1_555 1_555
C140 N10 1_555 1_555
C141 C119 1_555 1_555
H70 C141 1_555 1_555
C142 O13 1_555 1_555
H71 C142 1_555 1_555
H72 C142 1_555 1_555
C143 C71 1_555 1_555
H73 C143 1_555 1_555
C144 O21 1_555 1_555
H74 C144 1_555 1_555
H75 C144 1_555 1_555
C145 C95 1_555 1_555
H76 C145 1_555 1_555
C146 H77 1_555 1_555
H78 C146 1_555 1_555
C147 C74 1_555 1_555
H79 C147 1_555 1_555
C148 C99 1_555 1_555
H80 C148 1_555 1_555
C149 H81 1_555 1_555
C150 C142 1_555 1_555
H82 C150 1_555 1_555
C151 C105 1_555 1_555
H83 C151 1_555 1_555
C152 O14 1_555 1_555
H84 C152 1_555 1_555
H85 C152 1_555 1_555
C153 C100 1_555 1_555
C154 C103 1_555 1_555
H86 C154 1_555 1_555
C155 H87 1_555 1_555
H88 C155 1_555 1_555
C156 C93 1_555 1_555
H89 C156 1_555 1_555
C157 C137 1_555 1_555
H90 C157 1_555 1_555
C158 C144 1_555 1_555
H91 C158 1_555 1_555
C159 C136 1_555 1_555
H92 C159 1_555 1_555
H93 C159 1_555 1_555
C160 O4 1_555 1_555
H94 C160 1_555 1_555
H95 C160 1_555 1_555
C161 C107 1_555 1_555
C162 O7 1_555 1_555
H96 C162 1_555 1_555
H97 C162 1_555 1_555
C163 C121 1_555 1_555
H98 C163 1_555 1_555
C164 H99 1_555 1_555
H100 C164 1_555 1_555
C165 C116 1_555 1_555
H101 C165 1_555 1_555
H102 C165 1_555 1_555
C166 C115 1_555 1_555
C167 C122 1_555 1_555
C168 O10 1_555 1_555
H103 C168 1_555 1_555
H104 C168 1_555 1_555
C169 C129 1_555 1_555
H105 C169 1_555 1_555
H106 C169 1_555 1_555
C170 C122 1_555 1_555
H107 C170 1_555 1_555
H108 C170 1_555 1_555
H109 C170 1_555 1_555
C171 O11 1_555 1_555
H110 C171 1_555 1_555
H111 C171 1_555 1_555
C172 C153 1_555 1_555
H112 C172 1_555 1_555
H113 C172 1_555 1_555
C173 C161 1_555 1_555
H114 C173 1_555 1_555
H115 C173 1_555 1_555
C174 C167 1_555 1_555
H116 C174 1_555 1_555
H117 C174 1_555 1_555
H118 C174 1_555 1_555
C175 C100 1_555 1_555
H119 C175 1_555 1_555
H120 C175 1_555 1_555
H121 C175 1_555 1_555
C176 C158 1_555 1_555
H122 C176 1_555 1_555
H123 C176 1_555 1_555
H124 C176 1_555 1_555
C177 C159 1_555 1_555
H125 C177 1_555 1_555
H126 C177 1_555 1_555
C178 C100 1_555 1_555
H127 C178 1_555 1_555
H128 C178 1_555 1_555
H129 C178 1_555 1_555
C179 C107 1_555 1_555
H130 C179 1_555 1_555
H131 C179 1_555 1_555
H132 C179 1_555 1_555
C180 C150 1_555 1_555
H133 C180 1_555 1_555
H134 C180 1_555 1_555
H135 C180 1_555 1_555
C181 C161 1_555 1_555
H136 C181 1_555 1_555
H137 C181 1_555 1_555
H138 C181 1_555 1_555
C182 C149 1_555 1_555
H139 C182 1_555 1_555
H140 C182 1_555 1_555
H141 C182 1_555 1_555
C183 C157 1_555 1_555
H142 C183 1_555 1_555
H143 C183 1_555 1_555
H144 C183 1_555 1_555
C184 C108 1_555 1_555
H145 C184 1_555 1_555
H146 C184 1_555 1_555
C185 C166 1_555 1_555
H147 C185 1_555 1_555
H148 C185 1_555 1_555
H149 C185 1_555 1_555
C186 C107 1_555 1_555
H150 C186 1_555 1_555
H151 C186 1_555 1_555
H152 C186 1_555 1_555
C187 C122 1_555 1_555
H153 C187 1_555 1_555
H154 C187 1_555 1_555
H155 C187 1_555 1_555
C188 C150 1_555 1_555
H156 C188 1_555 1_555
H157 C188 1_555 1_555
H158 C188 1_555 1_555
C189 C115 1_555 1_555
H159 C189 1_555 1_555
H160 C189 1_555 1_555
H161 C189 1_555 1_555
C190 C154 1_555 1_555
H162 C190 1_555 1_555
H163 C190 1_555 1_555
H164 C190 1_555 1_555
C191 C163 1_555 1_555
H165 C191 1_555 1_555
H166 C191 1_555 1_555
H167 C191 1_555 1_555
C192 C115 1_555 1_555
H168 C192 1_555 1_555
H169 C192 1_555 1_555
H170 C192 1_555 1_555
C193 C151 1_555 1_555
H171 C193 1_555 1_555
H172 C193 1_555 1_555
H173 C193 1_555 1_555
C194 C148 1_555 1_555
H174 C194 1_555 1_555
H175 C194 1_555 1_555
H176 C194 1_555 1_555
C195 C153 1_555 1_555
H177 C195 1_555 1_555
H178 C195 1_555 1_555
H179 C195 1_555 1_555
C196 C98 1_555 1_555
H180 C196 1_555 1_555
H181 C196 1_555 1_555
H182 C196 1_555 1_555
C197 C154 1_555 1_555
H183 C197 1_555 1_555
H184 C197 1_555 1_555
H185 C197 1_555 1_555
C198 C106 1_555 1_555
H186 C198 1_555 1_555
H187 C198 1_555 1_555
H188 C198 1_555 1_555
C199 C158 1_555 1_555
H189 C199 1_555 1_555
H190 C199 1_555 1_555
H191 C199 1_555 1_555
C200 C149 1_555 1_555
H192 C200 1_555 1_555
H193 C200 1_555 1_555
H194 C200 1_555 1_555
C201 C113 1_555 1_555
H195 C201 1_555 1_555
H196 C201 1_555 1_555
H197 C201 1_555 1_555
C202 C110 1_555 1_555
H198 C202 1_555 1_555
H199 C202 1_555 1_555
H200 C202 1_555 1_555
C203 H201 1_555 1_555
H202 C203 1_555 1_555
C204 C151 1_555 1_555
H203 C204 1_555 1_555
H204 C204 1_555 1_555
H205 C204 1_555 1_555
C205 C98 1_555 1_555
H206 C205 1_555 1_555
H207 C205 1_555 1_555
H208 C205 1_555 1_555
C207 C106 1_555 1_555
H211 C207 1_555 1_555
H212 C207 1_555 1_555
H213 C207 1_555 1_555
C208 C148 1_555 1_555
H214 C208 1_555 1_555
H215 C208 1_555 1_555
H216 C208 1_555 1_555
C209 C110 1_555 1_555
H217 C209 1_555 1_555
H218 C209 1_555 1_555
H219 C209 1_555 1_555
C210 C163 1_555 1_555
H220 C210 1_555 1_555
H221 C210 1_555 1_555
H222 C210 1_555 1_555
C211 C113 1_555 1_555
H223 C211 1_555 1_555
H224 C211 1_555 1_555
H225 C211 1_555 1_555
C212 C157 1_555 1_555
H226 C212 1_555 1_555
H227 C212 1_555 1_555
H228 C212 1_555 1_555
C214 C146 1_555 1_555
H232 C214 1_555 1_555
H233 C214 1_555 1_555
C215 H234 1_555 1_555
H235 C215 1_555 1_555
C216 C203 1_555 1_555
H236 C216 1_555 1_555
H237 C216 1_555 1_555
C217 C155 1_555 1_555
H238 C217 1_555 1_555
H239 C217 1_555 1_555
C218 C146 1_555 1_555
H240 C218 1_555 1_555
H241 C218 1_555 1_555
C219 C215 1_555 1_555
H242 C219 1_555 1_555
H243 C219 1_555 1_555
C220 C216 1_555 1_555
H244 C220 1_555 1_555
H245 C220 1_555 1_555
C222 C214 1_555 1_555
H249 C222 1_555 1_555
H250 C222 1_555 1_555
H251 C222 1_555 1_555
C223 C203 1_555 1_555
H252 C223 1_555 1_555
H253 C223 1_555 1_555
H254 C223 1_555 1_555
N10 C40 1_555 1_555
C2 C54 1_555 1_555
C5 C22 1_555 1_555
C7 C52 1_555 1_555
C11 C74 1_555 1_555
C15 C39 1_555 1_555
C16 C59 1_555 1_555
C17 C50 1_555 1_555
C18 C55 1_555 1_555
C19 C64 1_555 1_555
C23 C87 1_555 1_555
C27 C58 1_555 1_555
C28 C70 1_555 1_555
C31 C86 1_555 1_555
C32 C45 1_555 1_555
C33 C90 1_555 1_555
C35 C72 1_555 1_555
C38 C91 1_555 1_555
C42 C95 1_555 1_555
C47 C63 1_555 1_555
C48 C75 1_555 1_555
C48 C84 1_555 1_555
C50 C62 1_555 1_555
C51 C88 1_555 1_555
C53 C63 1_555 1_555
C55 C65 1_555 1_555
C57 C64 1_555 1_555
C60 C89 1_555 1_555
C69 C94 1_555 1_555
C76 C83 1_555 1_555
C78 C82 1_555 1_555
C79 C102 1_555 1_555
C85 C97 1_555 1_555
C88 C104 1_555 1_555
C89 C101 1_555 1_555
C92 C96 1_555 1_555
C98 C168 1_555 1_555
C106 C162 1_555 1_555
C110 C160 1_555 1_555
C113 C171 1_555 1_555
C114 C161 1_555 1_555
C117 C153 1_555 1_555
C124 C133 1_555 1_555
C125 C126 1_555 1_555
C127 C131 1_555 1_555
C128 C129 1_555 1_555
C130 C141 1_555 1_555
C132 C135 1_555 1_555
C134 C136 1_555 1_555
C138 C139 1_555 1_555
C143 C145 1_555 1_555
C147 C156 1_555 1_555
C149 C152 1_555 1_555
C164 C167 1_555 1_555
C164 C169 1_555 1_555
C165 C172 1_555 1_555
C166 C177 1_555 1_555
C173 C184 1_555 1_555
C217 C218 1_555 1_555
C219 C220 1_555 1_555

#END
