
#######################################################################
#
#                 Cambridge Crystallographic Data Centre
#                                CCDC 
#
#######################################################################
#
# If this CIF has been generated from an entry in the Cambridge 
# Structural Database, then it will include bibliographic, chemical, 
# crystal, experimental, refinement or atomic coordinate data resulting 
# from the CCDC's data processing and validation procedures.
#
#######################################################################

data_AXOKUU
_chemical_formula_moiety         'C29 H28 O6'
_chemical_name_systematic        
'Diethyl 4-benzoyl-2,5-diphenyldihydrofuran-3,3(2H)-dicarboxylate'
_symmetry_cell_setting           triclinic
_symmetry_space_group_name_H-M   'P -1'
_symmetry_Int_Tables_number      2
_space_group_name_Hall           '-P 1'
loop_
_symmetry_equiv_pos_site_id
_symmetry_equiv_pos_as_xyz
1 x,y,z
2 -x,-y,-z
_cell_length_a                   10.529(7)
_cell_length_b                   15.041(10)
_cell_length_c                   17.359(12)
_cell_angle_alpha                111.840(8)
_cell_angle_beta                 90.489(8)
_cell_angle_gamma                92.944(8)
_cell_volume                     2547.27
_cell_formula_units_Z            4
loop_
_atom_site_label
_atom_site_type_symbol
_atom_site_fract_x
_atom_site_fract_y
_atom_site_fract_z
C1 C 0.7669(16) 0.4010(13) 0.1937(11)
H1 H 0.8206 0.4589 0.2042
H2 H 0.7552 0.3919 0.2457
C2 C 0.6397(18) 0.4082(17) 0.1556(12)
H3 H 0.6521 0.4099 0.1014
H4 H 0.6018 0.4657 0.1902
H5 H 0.5846 0.3534 0.1510
C3 C 1.2673(6) 0.2777(5) 0.2948(4)
H6 H 1.2111 0.3140 0.3334
O1 O 1.0278(4) 0.3012(3) 0.2365(3)
C4 C 1.3888(7) 0.2660(5) 0.3202(4)
H7 H 1.4131 0.2942 0.3761
O2 O 0.9671(4) 0.2201(3) -0.0187(2)
C5 C 1.4733(6) 0.2135(6) 0.2641(5)
H8 H 1.5549 0.2070 0.2815
O3 O 0.7438(4) 0.2146(3) 0.1886(3)
C6 C 1.4363(6) 0.1707(6) 0.1820(5)
H9 H 1.4937 0.1358 0.1436
O4 O 0.8243(4) 0.3182(3) 0.1331(3)
C7 C 1.3141(6) 0.1788(5) 0.1553(4)
H10 H 1.2886 0.1466 0.1000
O5 O 0.8216(4) -0.0040(3) 0.0482(2)
C8 C 1.2303(5) 0.2350(4) 0.2115(3)
O6 O 0.9269(4) 0.0712(3) 0.1698(2)
C9 C 1.0963(5) 0.2470(4) 0.1869(4)
C10 C 1.0491(4) 0.1886(4) 0.0971(3)
H11 H 1.0900 0.1274 0.0804
C11 C 1.0829(5) 0.2316(4) 0.0297(3)
H12 H 1.1453 0.1914 -0.0067
C12 C 1.1351(6) 0.3355(5) 0.0585(4)
C13 C 1.2641(7) 0.3565(6) 0.0733(6)
H13 H 1.3193 0.3080 0.0665
C14 C 1.3108(10) 0.4537(9) 0.0992(9)
H14 H 1.3978 0.4690 0.1080
C15 C 1.2287(12) 0.5255(7) 0.1113(7)
H15 H 1.2599 0.5892 0.1314
C16 C 1.1052(10) 0.5044(6) 0.0945(6)
H16 H 1.0516 0.5533 0.0993
C17 C 1.0545(7) 0.4105(5) 0.0699(5)
H17 H 0.9672 0.3975 0.0611
C18 C 0.8802(5) 0.1506(4) -0.0071(3)
H18 H 0.9041 0.0865 -0.0429
C19 C 0.7458(5) 0.1650(4) -0.0328(3)
C20 C 0.7243(7) 0.2346(6) -0.0656(5)
H19 H 0.7915 0.2743 -0.0710
C21 C 0.6016(8) 0.2441(6) -0.0902(6)
H20 H 0.5883 0.2911 -0.1116
C22 C 0.5003(7) 0.1877(6) -0.0844(5)
H21 H 0.4191 0.1963 -0.1009
C23 C 0.5210(6) 0.1161(5) -0.0528(4)
H22 H 0.4538 0.0764 -0.0474
C24 C 0.6453(6) 0.1061(5) -0.0298(4)
H23 H 0.6600 0.0566 -0.0114
C25 C 0.9027(5) 0.1627(4) 0.0857(3)
C26 C 0.8151(5) 0.2359(4) 0.1445(4)
C27 C 0.8766(5) 0.0675(4) 0.0982(4)
C28 C 0.8970(6) -0.0100(4) 0.1950(4)
H24 H 0.9574 -0.0085 0.2380
H25 H 0.9045 -0.0696 0.1479
C29 C 0.7659(7) -0.0065(5) 0.2266(5)
H26 H 0.7552 0.0556 0.2686
H27 H 0.7523 -0.0548 0.2499
H28 H 0.7055 -0.0179 0.1818
O7 O 0.4721(4) 0.6866(4) 0.2636(3)
O8 O 0.4511(4) 0.7799(3) 0.5176(2)
O9 O 0.2048(4) 0.7788(4) 0.3143(3)
O10 O 0.2713(4) 0.6806(3) 0.3750(2)
O11 O 0.3248(4) 0.9992(3) 0.4464(3)
O12 O 0.4105(4) 0.9189(3) 0.3232(3)
C30 C 0.7090(7) 0.6962(6) 0.1966(4)
H29 H 0.6443 0.6594 0.1602
C31 C 0.8337(8) 0.7036(7) 0.1693(5)
H30 H 0.8512 0.6709 0.1138
C32 C 0.9289(8) 0.7574(8) 0.2223(6)
H31 H 1.0100 0.7602 0.2023
C33 C 0.9074(7) 0.8078(7) 0.3048(6)
H32 H 0.9738 0.8439 0.3401
C34 C 0.7854(6) 0.8045(5) 0.3355(5)
H33 H 0.7701 0.8398 0.3909
C35 C 0.6864(6) 0.7479(5) 0.2828(4)
C36 C 0.5536(5) 0.7413(4) 0.3101(3)
C37 C 0.5248(4) 0.8075(4) 0.3979(3)
H34 H 0.5743 0.8680 0.4084
C38 C 0.5624(5) 0.7729(4) 0.4707(4)
H35 H 0.6274 0.8193 0.5063
C39 C 0.6116(6) 0.6749(5) 0.4478(4)
C40 C 0.7395(7) 0.6659(6) 0.4596(5)
H36 H 0.7946 0.7205 0.4773
C41 C 0.7882(11) 0.5762(10) 0.4454(7)
H37 H 0.8738 0.5713 0.4559
C42 C 0.7080(17) 0.4971(8) 0.4162(8)
H38 H 0.7402 0.4370 0.4034
C43 C 0.5808(17) 0.5036(7) 0.4052(8)
H39 H 0.5262 0.4488 0.3883
C44 C 0.5340(9) 0.5919(6) 0.4194(6)
H40 H 0.4478 0.5957 0.4095
C45 C 0.3708(5) 0.8485(4) 0.5059(3)
H41 H 0.4071 0.9130 0.5391
C46 C 0.2385(6) 0.8369(4) 0.5376(3)
C47 C 0.2159(6) 0.7702(4) 0.5745(4)
H42 H 0.2791 0.7309 0.5781
C48 C 0.0959(8) 0.7641(6) 0.6060(5)
H43 H 0.0792 0.7194 0.6305
C49 C 0.0020(8) 0.8216(6) 0.6018(5)
H44 H -0.0770 0.8166 0.6240
C50 C 0.0251(7) 0.8867(6) 0.5648(5)
H45 H -0.0390 0.9247 0.5599
C51 C 0.1447(6) 0.8954(5) 0.5346(4)
H46 H 0.1615 0.9418 0.5120
C52 C 0.3827(5) 0.8330(4) 0.4128(3)
C53 C 0.2796(5) 0.7611(4) 0.3590(4)
C54 C 0.1629(9) 0.6145(7) 0.3375(6)
H47 H 0.0852 0.6475 0.3547
H48 H 0.1662 0.5935 0.2776
C55 C 0.1605(12) 0.5345(9) 0.3600(10)
H49 H 0.1732 0.5550 0.4190
H50 H 0.2270 0.4939 0.3326
H51 H 0.0797 0.4994 0.3438
C56 C 0.3679(5) 0.9272(4) 0.3977(4)
C57 C 0.3916(6) 0.9985(5) 0.2954(4)
H52 H 0.4487 0.9945 0.2508
H53 H 0.4111 1.0591 0.3410
C58 C 0.2573(7) 0.9941(5) 0.2657(5)
H54 H 0.2347 0.9310 0.2258
H55 H 0.2487 1.0404 0.2402
H56 H 0.2019 1.0082 0.3119
C59? C 0.713(3) 0.3711(19) 0.175(3)
C60? C 0.732(3) 0.4701(18) 0.171(2)
H57? H 0.7107 0.3755 0.2320
H58? H 0.6346 0.3390 0.1462
H59? H 0.8174 0.4954 0.1891
H60? H 0.6731 0.5119 0.2069
H61? H 0.7174 0.4658 0.1152
loop_
_geom_bond_atom_site_label_1
_geom_bond_atom_site_label_2
_geom_bond_site_symmetry_1
_geom_bond_site_symmetry_2
C1 H1 1_555 1_555
H2 C1 1_555 1_555
C2 C1 1_555 1_555
H3 C2 1_555 1_555
H4 C2 1_555 1_555
H5 C2 1_555 1_555
C3 H6 1_555 1_555
O1 C9 1_555 1_555
C4 C3 1_555 1_555
H7 C4 1_555 1_555
O2 C11 1_555 1_555
C5 C4 1_555 1_555
H8 C5 1_555 1_555
O3 C26 1_555 1_555
C6 C5 1_555 1_555
H9 C6 1_555 1_555
O4 C1 1_555 1_555
C7 C6 1_555 1_555
H10 C7 1_555 1_555
O5 C27 1_555 1_555
C8 C3 1_555 1_555
O6 C27 1_555 1_555
C9 C8 1_555 1_555
O7 C36 1_555 1_555
C10 C9 1_555 1_555
H11 C10 1_555 1_555
O8 C38 1_555 1_555
C11 C10 1_555 1_555
H12 C11 1_555 1_555
O9 C53 1_555 1_555
C12 C11 1_555 1_555
O10 C53 1_555 1_555
C13 C12 1_555 1_555
H13 C13 1_555 1_555
O11 C56 1_555 1_555
C14 C13 1_555 1_555
H14 C14 1_555 1_555
O12 C56 1_555 1_555
C15 C14 1_555 1_555
H15 C15 1_555 1_555
C16 C15 1_555 1_555
H16 C16 1_555 1_555
C17 C12 1_555 1_555
H17 C17 1_555 1_555
C18 O2 1_555 1_555
H18 C18 1_555 1_555
C19 C18 1_555 1_555
C20 C19 1_555 1_555
H19 C20 1_555 1_555
C21 C20 1_555 1_555
H20 C21 1_555 1_555
C22 C21 1_555 1_555
H21 C22 1_555 1_555
C23 C22 1_555 1_555
H22 C23 1_555 1_555
C24 C19 1_555 1_555
H23 C24 1_555 1_555
C25 C10 1_555 1_555
C26 O4 1_555 1_555
C27 C25 1_555 1_555
C28 O6 1_555 1_555
H24 C28 1_555 1_555
H25 C28 1_555 1_555
C29 C28 1_555 1_555
H26 C29 1_555 1_555
H27 C29 1_555 1_555
H28 C29 1_555 1_555
C30 H29 1_555 1_555
C31 C30 1_555 1_555
H30 C31 1_555 1_555
C32 C31 1_555 1_555
H31 C32 1_555 1_555
C33 C32 1_555 1_555
H32 C33 1_555 1_555
C34 C33 1_555 1_555
H33 C34 1_555 1_555
C35 C30 1_555 1_555
C36 C35 1_555 1_555
C37 C36 1_555 1_555
H34 C37 1_555 1_555
C38 C37 1_555 1_555
H35 C38 1_555 1_555
C39 C38 1_555 1_555
C40 C39 1_555 1_555
H36 C40 1_555 1_555
C41 C40 1_555 1_555
H37 C41 1_555 1_555
C42 C41 1_555 1_555
H38 C42 1_555 1_555
C43 C42 1_555 1_555
H39 C43 1_555 1_555
C44 C39 1_555 1_555
H40 C44 1_555 1_555
C45 O8 1_555 1_555
H41 C45 1_555 1_555
C46 C45 1_555 1_555
C47 C46 1_555 1_555
H42 C47 1_555 1_555
C48 C47 1_555 1_555
H43 C48 1_555 1_555
C49 C48 1_555 1_555
H44 C49 1_555 1_555
C50 C49 1_555 1_555
H45 C50 1_555 1_555
C51 C46 1_555 1_555
H46 C51 1_555 1_555
C52 C37 1_555 1_555
C53 C52 1_555 1_555
C54 O10 1_555 1_555
H47 C54 1_555 1_555
H48 C54 1_555 1_555
C55 C54 1_555 1_555
H49 C55 1_555 1_555
H50 C55 1_555 1_555
H51 C55 1_555 1_555
C56 C52 1_555 1_555
C57 O12 1_555 1_555
H52 C57 1_555 1_555
H53 C57 1_555 1_555
C58 C57 1_555 1_555
H54 C58 1_555 1_555
H55 C58 1_555 1_555
H56 C58 1_555 1_555
C7 C8 1_555 1_555
C16 C17 1_555 1_555
C18 C25 1_555 1_555
C23 C24 1_555 1_555
C25 C26 1_555 1_555
C34 C35 1_555 1_555
C43 C44 1_555 1_555
C45 C52 1_555 1_555
C50 C51 1_555 1_555

#END
