
#######################################################################
#
#                 Cambridge Crystallographic Data Centre
#                                CCDC 
#
#######################################################################
#
# If this CIF has been generated from an entry in the Cambridge 
# Structural Database, then it will include bibliographic, chemical, 
# crystal, experimental, refinement or atomic coordinate data resulting 
# from the CCDC's data processing and validation procedures.
#
#######################################################################

data_AXOLAB
_chemical_formula_moiety         'C29 H28 O6'
_chemical_name_systematic        
'Diethyl 4-benzoyl-2,5-diphenyldihydrofuran-3,3(2H)-dicarboxylate'
_symmetry_cell_setting           monoclinic
_symmetry_space_group_name_H-M   'P 21/c'
_symmetry_Int_Tables_number      14
_space_group_name_Hall           '-P 2ybc'
loop_
_symmetry_equiv_pos_site_id
_symmetry_equiv_pos_as_xyz
1 x,y,z
2 -x,1/2+y,1/2-z
3 -x,-y,-z
4 x,1/2-y,1/2+z
_cell_length_a                   19.5178(19)
_cell_length_b                   8.2127(8)
_cell_length_c                   15.4641(15)
_cell_angle_alpha                90
_cell_angle_beta                 95.4980(10)
_cell_angle_gamma                90
_cell_volume                     2467.4
_cell_formula_units_Z            4
loop_
_atom_site_label
_atom_site_type_symbol
_atom_site_fract_x
_atom_site_fract_y
_atom_site_fract_z
C1 C 0.23589(10) -0.1124(2) 0.76020(11)
H1 H 0.2175 -0.0198 0.7836
O1 O 0.18092(6) -0.04045(12) 0.53170(7)
C2 C 0.26200(11) -0.2357(3) 0.81459(12)
H2 H 0.2612 -0.2253 0.8744
O2 O 0.33852(6) -0.01481(14) 0.51608(7)
C3 C 0.28901(9) -0.3729(2) 0.78100(12)
H3 H 0.3070 -0.4552 0.8178
O3 O 0.28719(6) 0.26725(15) 0.38063(7)
C4 C 0.28945(9) -0.3882(2) 0.69308(12)
H4 H 0.3073 -0.4818 0.6700
O4 O 0.32263(5) 0.39882(12) 0.50399(7)
C5 C 0.26346(9) -0.26532(19) 0.63818(11)
H5 H 0.2639 -0.2771 0.5784
O5 O 0.15424(6) 0.35763(14) 0.60247(8)
C6 C 0.23696(8) -0.12576(17) 0.67139(10)
O6 O 0.16581(5) 0.45810(12) 0.47085(7)
C7 C 0.21045(8) 0.01425(17) 0.61439(10)
H6 H 0.1743 0.0690 0.6432
C8 C 0.26431(7) 0.14355(16) 0.59525(9)
H7 H 0.2697 0.2241 0.6422
C9 C 0.33387(8) 0.07191(17) 0.57900(10)
C10 C 0.39666(8) 0.11832(18) 0.63617(10)
C11 C 0.45977(9) 0.0997(2) 0.60353(13)
H8 H 0.4617 0.0532 0.5490
C12 C 0.51955(10) 0.1486(3) 0.65043(16)
H9 H 0.5615 0.1369 0.6273
C13 C 0.51721(12) 0.2148(3) 0.73152(16)
H10 H 0.5576 0.2483 0.7633
C14 C 0.45568(12) 0.2313(3) 0.76552(13)
H11 H 0.4545 0.2749 0.8209
C15 C 0.39487(10) 0.1840(2) 0.71850(11)
H12 H 0.3531 0.1962 0.7421
C16 C 0.22973(7) 0.22196(16) 0.51104(9)
C17 C 0.28191(8) 0.29683(18) 0.45553(10)
C18 C 0.38024(9) 0.4690(2) 0.46379(12)
H13 H 0.3637 0.5298 0.4122
H14 H 0.4108 0.3837 0.4472
C19 C 0.41731(10) 0.5789(2) 0.52879(14)
H15 H 0.3871 0.6651 0.5431
H16 H 0.4567 0.6244 0.5050
H17 H 0.4320 0.5182 0.5803
C20 C 0.17935(8) 0.35332(17) 0.53486(10)
C21 C 0.11185(10) 0.5779(2) 0.48357(12)
H18 H 0.0762 0.5276 0.5141
H19 H 0.1312 0.6678 0.5185
C22 C 0.08288(13) 0.6370(3) 0.40092(14)
H20 H 0.1181 0.6894 0.3716
H21 H 0.0470 0.7138 0.4093
H22 H 0.0641 0.5475 0.3664
C23 C 0.19084(8) 0.07448(17) 0.46451(10)
H23 H 0.2216 0.0248 0.4255
C24 C 0.12384(8) 0.11394(18) 0.41180(10)
C25 C 0.12323(10) 0.1410(2) 0.32369(11)
H24 H 0.1637 0.1307 0.2970
C26 C 0.06287(11) 0.1833(3) 0.27480(13)
H25 H 0.0630 0.2022 0.2155
C27 C 0.00295(11) 0.1973(3) 0.31341(13)
H26 H -0.0374 0.2281 0.2806
C28 C 0.00227(9) 0.1661(2) 0.40013(13)
H27 H -0.0388 0.1720 0.4259
C29 C 0.06270(9) 0.1257(2) 0.44969(11)
H28 H 0.0622 0.1064 0.5089
loop_
_geom_bond_atom_site_label_1
_geom_bond_atom_site_label_2
_geom_bond_site_symmetry_1
_geom_bond_site_symmetry_2
C1 H1 1_555 1_555
O1 C7 1_555 1_555
C2 C1 1_555 1_555
H2 C2 1_555 1_555
O2 C9 1_555 1_555
C3 C2 1_555 1_555
H3 C3 1_555 1_555
O3 C17 1_555 1_555
C4 C3 1_555 1_555
H4 C4 1_555 1_555
O4 C17 1_555 1_555
C5 C4 1_555 1_555
H5 C5 1_555 1_555
O5 C20 1_555 1_555
C6 C1 1_555 1_555
O6 C20 1_555 1_555
C7 C6 1_555 1_555
H6 C7 1_555 1_555
C8 C7 1_555 1_555
H7 C8 1_555 1_555
C9 C8 1_555 1_555
C10 C9 1_555 1_555
C11 C10 1_555 1_555
H8 C11 1_555 1_555
C12 C11 1_555 1_555
H9 C12 1_555 1_555
C13 C12 1_555 1_555
H10 C13 1_555 1_555
C14 C13 1_555 1_555
H11 C14 1_555 1_555
C15 C10 1_555 1_555
H12 C15 1_555 1_555
C16 C8 1_555 1_555
C17 C16 1_555 1_555
C18 O4 1_555 1_555
H13 C18 1_555 1_555
H14 C18 1_555 1_555
C19 C18 1_555 1_555
H15 C19 1_555 1_555
H16 C19 1_555 1_555
H17 C19 1_555 1_555
C20 C16 1_555 1_555
C21 O6 1_555 1_555
H18 C21 1_555 1_555
H19 C21 1_555 1_555
C22 C21 1_555 1_555
H20 C22 1_555 1_555
H21 C22 1_555 1_555
H22 C22 1_555 1_555
C23 O1 1_555 1_555
H23 C23 1_555 1_555
C24 C23 1_555 1_555
C25 C24 1_555 1_555
H24 C25 1_555 1_555
C26 C25 1_555 1_555
H25 C26 1_555 1_555
C27 C26 1_555 1_555
H26 C27 1_555 1_555
C28 C27 1_555 1_555
H27 C28 1_555 1_555
C29 C24 1_555 1_555
H28 C29 1_555 1_555
C5 C6 1_555 1_555
C14 C15 1_555 1_555
C16 C23 1_555 1_555
C28 C29 1_555 1_555

#END
