
#######################################################################
#
#                 Cambridge Crystallographic Data Centre
#                                CCDC 
#
#######################################################################
#
# If this CIF has been generated from an entry in the Cambridge 
# Structural Database, then it will include bibliographic, chemical, 
# crystal, experimental, refinement or atomic coordinate data resulting 
# from the CCDC's data processing and validation procedures.
#
#######################################################################

data_AXOMAC
_chemical_formula_moiety         'C19 H15 Br1 O4'
_chemical_name_systematic        
'Methyl (2-(4-bromobenzoyl)-3-phenylcyclopropyl)(oxo)acetate'
_symmetry_cell_setting           orthorhombic
_symmetry_space_group_name_H-M   'P 21 21 21'
_symmetry_Int_Tables_number      19
_space_group_name_Hall           'P 2ac 2ab'
loop_
_symmetry_equiv_pos_site_id
_symmetry_equiv_pos_as_xyz
1 x,y,z
2 1/2-x,-y,1/2+z
3 -x,1/2+y,1/2-z
4 1/2+x,1/2-y,-z
_cell_length_a                   5.6153(8)
_cell_length_b                   16.599(2)
_cell_length_c                   18.194(2)
_cell_angle_alpha                90
_cell_angle_beta                 90
_cell_angle_gamma                90
_cell_volume                     1695.83
_exptl_crystal_colour            colorless
_exptl_crystal_description       block
_cell_formula_units_Z            4
loop_
_atom_site_label
_atom_site_type_symbol
_atom_site_fract_x
_atom_site_fract_y
_atom_site_fract_z
Br1 Br 0.04101(9) 0.64704(2) 0.65249(2)
C1 C 0.0965(6) 0.74967(17) 0.60973(14)
C2 C 0.3023(6) 0.78978(19) 0.62639(15)
H1 H 0.4127 0.7680 0.6589
C3 C 0.3412(5) 0.86341(19) 0.59369(15)
H2 H 0.4817 0.8909 0.6039
C4 C 0.1783(5) 0.89778(16) 0.54616(14)
C5 C -0.0292(5) 0.85597(16) 0.53114(14)
H3 H -0.1425 0.8782 0.4999
C6 C -0.0693(6) 0.78083(17) 0.56255(15)
H4 H -0.2071 0.7521 0.5516
C7 C 0.2318(5) 0.97853(17) 0.51433(14)
C8 C 0.0389(5) 1.02382(16) 0.47786(13)
H5 H -0.1234 1.0031 0.4837
C9 C 0.0663(6) 1.11373(16) 0.46807(14)
H6 H -0.0837 1.1439 0.4682
C10 C 0.1029(5) 1.06173(17) 0.40245(14)
H7 H 0.2708 1.0551 0.3891
C11 C 0.2753(5) 1.15870(17) 0.49937(15)
C12 C 0.2867(8) 1.16405(19) 0.58308(19)
C13 C 0.5188(12) 1.2140(3) 0.6817(2)
H8 H 0.3741 1.2035 0.7081
H9 H 0.5715 1.2679 0.6920
H10 H 0.6390 1.1764 0.6967
C14 C -0.0608(5) 1.05675(17) 0.33883(14)
C15 C -0.2701(6) 1.0994(2) 0.33394(19)
H11 H -0.3158 1.1330 0.3724
C16 C -0.4126(8) 1.0929(3) 0.2726(2)
H12 H -0.5522 1.1228 0.2699
C17 C -0.3532(8) 1.0437(3) 0.2162(2)
H13 H -0.4527 1.0392 0.1755
C18 C -0.1482(8) 1.0010(2) 0.2193(2)
H14 H -0.1054 0.9677 0.1804
C19 C -0.0024(7) 1.00683(19) 0.28004(16)
H15 H 0.1375 0.9769 0.2818
O1 O 0.4334(4) 1.00584(13) 0.51770(12)
O2 O 0.4189(5) 1.19326(13) 0.46219(12)
O3 O 0.1487(6) 1.13294(18) 0.62295(14)
O4 O 0.4757(6) 1.20554(16) 0.60306(13)
loop_
_geom_bond_atom_site_label_1
_geom_bond_atom_site_label_2
_geom_bond_site_symmetry_1
_geom_bond_site_symmetry_2
Br1 C1 1_555 1_555
C1 C2 1_555 1_555
C2 H1 1_555 1_555
C3 C2 1_555 1_555
H2 C3 1_555 1_555
C4 C3 1_555 1_555
C5 C4 1_555 1_555
H3 C5 1_555 1_555
C6 C1 1_555 1_555
H4 C6 1_555 1_555
C7 C4 1_555 1_555
C8 C7 1_555 1_555
H5 C8 1_555 1_555
C9 C8 1_555 1_555
H6 C9 1_555 1_555
C10 C8 1_555 1_555
H7 C10 1_555 1_555
C11 C9 1_555 1_555
C12 C11 1_555 1_555
C13 H8 1_555 1_555
H9 C13 1_555 1_555
H10 C13 1_555 1_555
C14 C10 1_555 1_555
C15 C14 1_555 1_555
H11 C15 1_555 1_555
C16 C15 1_555 1_555
H12 C16 1_555 1_555
C17 C16 1_555 1_555
H13 C17 1_555 1_555
C18 C17 1_555 1_555
H14 C18 1_555 1_555
C19 C14 1_555 1_555
H15 C19 1_555 1_555
O1 C7 1_555 1_555
O2 C11 1_555 1_555
O3 C12 1_555 1_555
O4 C12 1_555 1_555
C5 C6 1_555 1_555
C9 C10 1_555 1_555
C13 O4 1_555 1_555
C18 C19 1_555 1_555

#END
