
#######################################################################
#
#                 Cambridge Crystallographic Data Centre
#                                CCDC 
#
#######################################################################
#
# If this CIF has been generated from an entry in the Cambridge 
# Structural Database, then it will include bibliographic, chemical, 
# crystal, experimental, refinement or atomic coordinate data resulting 
# from the CCDC's data processing and validation procedures.
#
#######################################################################

data_AXONUX
_chemical_formula_moiety         'C19 H19 N1 O3'
_chemical_name_systematic        
3-(3-((3-Methoxyphenyl)amino)propyl)-2H-chromen-2-one
_symmetry_cell_setting           monoclinic
_symmetry_space_group_name_H-M   'P 21/n'
_symmetry_Int_Tables_number      14
_space_group_name_Hall           '-P 2yn'
loop_
_symmetry_equiv_pos_site_id
_symmetry_equiv_pos_as_xyz
1 x,y,z
2 1/2-x,1/2+y,1/2-z
3 -x,-y,-z
4 1/2+x,1/2-y,1/2+z
_cell_length_a                   7.4632(3)
_cell_length_b                   22.1589(10)
_cell_length_c                   9.6495(4)
_cell_angle_alpha                90
_cell_angle_beta                 94.640(3)
_cell_angle_gamma                90
_cell_volume                     1590.57
_exptl_crystal_colour            yellow
_exptl_crystal_description       block
_cell_formula_units_Z            4
loop_
_atom_site_label
_atom_site_type_symbol
_atom_site_fract_x
_atom_site_fract_y
_atom_site_fract_z
C1 C 0.7062(3) -0.04623(8) 0.91389(19)
C2 C 0.8104(3) -0.08094(10) 1.0086(2)
H1 H 0.9313 -0.0721 1.0300
C3 C 0.7306(4) -0.12864(10) 1.0700(2)
H2 H 0.7990 -0.1530 1.1325
C4 C 0.5514(3) -0.14109(9) 1.0408(2)
H3 H 0.4994 -0.1734 1.0843
C5 C 0.4482(3) -0.10597(8) 0.94753(19)
H4 H 0.3267 -0.1145 0.9287
C6 C 0.5256(2) -0.05750(8) 0.88088(18)
C7 C 0.4302(2) -0.01985(8) 0.77854(18)
H5 H 0.3088 -0.0270 0.7549
C8 C 0.5123(2) 0.02548(8) 0.71615(17)
C9 C 0.7022(3) 0.03678(9) 0.7547(2)
C10 C 0.4275(3) 0.06690(8) 0.60684(19)
H6 H 0.4879 0.0610 0.5226
H7 H 0.4506 0.1081 0.6372
C11 C 0.2283(3) 0.06035(9) 0.5705(2)
H8 H 0.1641 0.0685 0.6520
H9 H 0.2014 0.0193 0.5407
C12 C 0.1663(3) 0.10393(9) 0.4550(2)
H10 H 0.2212 0.1430 0.4743
H11 H 0.2065 0.0894 0.3679
C13 C -0.1079(3) 0.15485(8) 0.35544(19)
C14 C -0.0222(3) 0.18027(9) 0.2466(2)
H12 H 0.0943 0.1687 0.2310
C15 C -0.1110(3) 0.22267(9) 0.1619(2)
H13 H -0.0524 0.2393 0.0895
C16 C -0.2830(3) 0.24118(9) 0.1806(2)
H14 H -0.3404 0.2698 0.1222
C17 C -0.3685(3) 0.21604(8) 0.28919(19)
C18 C -0.2817(3) 0.17369(8) 0.37514(18)
H15 H -0.3405 0.1574 0.4478
C19 C -0.6355(3) 0.27408(10) 0.2356(3)
H16 H -0.5708 0.3116 0.2410
H17 H -0.7524 0.2799 0.2684
H18 H -0.6482 0.2605 0.1409
N1 N -0.0261(3) 0.11061(8) 0.4410(2)
O1 O 0.79074(17) 0.00084(6) 0.85231(13)
O2 O 0.78948(19) 0.07674(7) 0.70617(15)
O3 O -0.53972(19) 0.23031(6) 0.31931(15)
H19 H -0.076(3) 0.1040(9) 0.513(2)
loop_
_geom_bond_atom_site_label_1
_geom_bond_atom_site_label_2
_geom_bond_site_symmetry_1
_geom_bond_site_symmetry_2
C1 C2 1_555 1_555
C2 H1 1_555 1_555
C3 C2 1_555 1_555
H2 C3 1_555 1_555
C4 C3 1_555 1_555
H3 C4 1_555 1_555
C5 C4 1_555 1_555
H4 C5 1_555 1_555
C6 C1 1_555 1_555
C7 C6 1_555 1_555
H5 C7 1_555 1_555
C8 C7 1_555 1_555
C9 C8 1_555 1_555
C10 C8 1_555 1_555
H6 C10 1_555 1_555
H7 C10 1_555 1_555
C11 C10 1_555 1_555
H8 C11 1_555 1_555
H9 C11 1_555 1_555
C12 C11 1_555 1_555
H10 C12 1_555 1_555
H11 C12 1_555 1_555
C13 C14 1_555 1_555
C14 H12 1_555 1_555
C15 C14 1_555 1_555
H13 C15 1_555 1_555
C16 C15 1_555 1_555
H14 C16 1_555 1_555
C17 C16 1_555 1_555
C18 C13 1_555 1_555
H15 C18 1_555 1_555
C19 H16 1_555 1_555
H17 C19 1_555 1_555
H18 C19 1_555 1_555
N1 C12 1_555 1_555
O1 C1 1_555 1_555
O2 C9 1_555 1_555
O3 C17 1_555 1_555
H19 N1 1_555 1_555
C5 C6 1_555 1_555
C9 O1 1_555 1_555
C13 N1 1_555 1_555
C17 C18 1_555 1_555
C19 O3 1_555 1_555

#END
