
#######################################################################
#
#                 Cambridge Crystallographic Data Centre
#                                CCDC 
#
#######################################################################
#
# If this CIF has been generated from an entry in the Cambridge 
# Structural Database, then it will include bibliographic, chemical, 
# crystal, experimental, refinement or atomic coordinate data resulting 
# from the CCDC's data processing and validation procedures.
#
#######################################################################

data_AXOPEJ
_chemical_formula_moiety         'C20 H14 N2,C8 H10 O4'
_chemical_name_systematic        
"2,5-Dimethylhexa-2,4-dienedioic acid 4,4'-naphthalene-1,8-diyldipyridine"
_symmetry_cell_setting           monoclinic
_symmetry_space_group_name_H-M   'P 21/n'
_symmetry_Int_Tables_number      14
_space_group_name_Hall           '-P 2yn'
loop_
_symmetry_equiv_pos_site_id
_symmetry_equiv_pos_as_xyz
1 x,y,z
2 1/2-x,1/2+y,1/2-z
3 -x,-y,-z
4 1/2+x,1/2-y,1/2+z
_cell_length_a                   14.5252(16)
_cell_length_b                   6.9630(8)
_cell_length_c                   23.665(3)
_cell_angle_alpha                90
_cell_angle_beta                 102.029(5)
_cell_angle_gamma                90
_cell_volume                     2340.9
_exptl_crystal_colour            colorless
_exptl_crystal_description       plate
_cell_formula_units_Z            4
loop_
_atom_site_label
_atom_site_type_symbol
_atom_site_fract_x
_atom_site_fract_y
_atom_site_fract_z
C1 C 0.67840(10) -0.1563(2) 0.29842(7)
C2 C 0.62103(10) 0.0026(2) 0.28585(7)
C3 C 0.52388(9) -0.0142(2) 0.28286(6)
C4 C 0.48977(10) -0.1971(2) 0.29065(6)
C5 C 0.55219(10) -0.3475(2) 0.30323(7)
C6 C 0.45955(9) 0.15421(19) 0.26819(6)
C7 C 0.45829(10) 0.2339(2) 0.21484(6)
C8 C 0.39490(10) 0.3819(2) 0.19203(7)
C9 C 0.33355(10) 0.4490(2) 0.22361(6)
C10 C 0.33301(9) 0.37603(18) 0.27921(6)
C11 C 0.26680(10) 0.4500(2) 0.30997(6)
C12 C 0.26167(11) 0.3810(2) 0.36266(7)
C13 C 0.32501(10) 0.2383(2) 0.38809(6)
C14 C 0.39321(10) 0.1633(2) 0.36119(6)
C15 C 0.39747(9) 0.22660(19) 0.30383(6)
C16 C 0.45799(10) 0.0187(2) 0.39503(6)
C17 C 0.42203(11) -0.1516(2) 0.41272(7)
C18 C 0.48309(11) -0.2874(2) 0.44211(7)
C19 C 0.61130(11) -0.0968(2) 0.44115(7)
C20 C 0.55524(10) 0.0473(2) 0.41170(6)
H1 H 0.7426 -0.1418 0.3004
H3 H 0.6468 0.1208 0.2794
H4 H 0.4256 -0.2174 0.2874
H5 H 0.5283 -0.4683 0.3089
H6 H 0.5004 0.189 0.1932
H7 H 0.3951 0.433 0.1557
H8 H 0.2911 0.5449 0.2083
H9 H 0.2262 0.5477 0.2936
H10 H 0.2166 0.4278 0.3818
H11 H 0.3211 0.1921 0.4244
H12 H 0.3575 -0.1735 0.4048
H13 H 0.458 -0.4008 0.4531
H14 H 0.6759 -0.0764 0.4514
H15 H 0.582 0.1621 0.4031
N1 N 0.64562(9) -0.33006(18) 0.30782(6)
N2 N 0.57705(9) -0.26377(19) 0.45559(6)
C21 C 0.64456(10) -0.0347(2) 0.13947(6)
C22 C 0.57049(10) -0.1812(2) 0.11659(7)
C23 C 0.48728(10) -0.1346(2) 0.08198(6)
C24 C 0.45483(10) 0.0544(2) 0.06094(6)
C25 C 0.37001(10) 0.1036(2) 0.02842(6)
C26 C 0.29409(10) -0.0404(2) 0.00685(6)
C27 C 0.59426(12) -0.3864(2) 0.13390(8)
C28 C 0.34622(12) 0.3095(2) 0.01320(8)
H2 H 0.7684 -0.0228 0.1646
H16 H 0.4459 -0.2357 0.0702
H17 H 0.4976 0.1542 0.071
H18 H 0.5427 -0.4681 0.1169
H19 H 0.6057 -0.3973 0.1752
H20 H 0.6496 -0.4245 0.1206
H21 H 0.2997 0.3533 0.0337
H22 H 0.3218 0.3201 -0.0276
H23 H 0.4019 0.3867 0.0238
H24 H 0.1695 -0.0454 -0.0178
O1 O 0.73027(7) -0.10865(15) 0.15340(6)
O2 O 0.62870(7) 0.13406(15) 0.14588(5)
O3 O 0.20891(7) 0.03878(15) -0.00747(5)
O4 O 0.30631(8) -0.21147(16) 0.00352(5)
loop_
_geom_bond_atom_site_label_1
_geom_bond_atom_site_label_2
_geom_bond_site_symmetry_1
_geom_bond_site_symmetry_2
C1 C2 1_555 1_555
C2 C3 1_555 1_555
C3 C4 1_555 1_555
C4 C5 1_555 1_555
C5 H5 1_555 1_555
C6 C3 1_555 1_555
C7 C6 1_555 1_555
C8 C7 1_555 1_555
C9 C8 1_555 1_555
C10 C9 1_555 1_555
C11 C10 1_555 1_555
C12 C11 1_555 1_555
C13 C12 1_555 1_555
C14 C13 1_555 1_555
C15 C6 1_555 1_555
C16 C14 1_555 1_555
C17 C16 1_555 1_555
C18 C17 1_555 1_555
C19 C20 1_555 1_555
C20 C16 1_555 1_555
C21 C22 1_555 1_555
C22 C23 1_555 1_555
C23 C24 1_555 1_555
C24 C25 1_555 1_555
C25 C26 1_555 1_555
C26 O3 1_555 1_555
C27 C22 1_555 1_555
C28 C25 1_555 1_555
H1 C1 1_555 1_555
H2 O1 1_555 1_555
H3 C2 1_555 1_555
H4 C4 1_555 1_555
H6 C7 1_555 1_555
H7 C8 1_555 1_555
H8 C9 1_555 1_555
H9 C11 1_555 1_555
H10 C12 1_555 1_555
H11 C13 1_555 1_555
H12 C17 1_555 1_555
H13 C18 1_555 1_555
H14 C19 1_555 1_555
H15 C20 1_555 1_555
H16 C23 1_555 1_555
H17 C24 1_555 1_555
H18 C27 1_555 1_555
H19 C27 1_555 1_555
H20 C27 1_555 1_555
H21 C28 1_555 1_555
H22 C28 1_555 1_555
H23 C28 1_555 1_555
H24 O3 1_555 1_555
N1 C1 1_555 1_555
N2 C18 1_555 1_555
O1 C21 1_555 1_555
O2 C21 1_555 1_555
O4 C26 1_555 1_555
C5 N1 1_555 1_555
C10 C15 1_555 1_555
C14 C15 1_555 1_555
C19 N2 1_555 1_555

#END
