
#######################################################################
#
#                 Cambridge Crystallographic Data Centre
#                                CCDC 
#
#######################################################################
#
# If this CIF has been generated from an entry in the Cambridge 
# Structural Database, then it will include bibliographic, chemical, 
# crystal, experimental, refinement or atomic coordinate data resulting 
# from the CCDC's data processing and validation procedures.
#
#######################################################################

data_AXOPAF
_chemical_formula_moiety         'C22 H18 N2 S2,C8 H10 O4'
_chemical_name_systematic        
"2,5-Dimethylhexa-2,4-dienedioic acid 4,4'-(naphthalene-2,3-diylbis(methylenesulfanediyl))dipyridine"
_symmetry_cell_setting           monoclinic
_symmetry_space_group_name_H-M   'C 2/c'
_symmetry_Int_Tables_number      15
_space_group_name_Hall           '-C 2yn'
loop_
_symmetry_equiv_pos_site_id
_symmetry_equiv_pos_as_xyz
1 x,y,z
2 -x,y,1/2-z
3 1/2+x,1/2+y,z
4 1/2-x,1/2+y,1/2-z
5 -x,-y,-z
6 x,-y,1/2+z
7 1/2-x,1/2-y,-z
8 1/2+x,1/2-y,1/2+z
_cell_length_a                   12.8295(14)
_cell_length_b                   14.5618(16)
_cell_length_c                   14.3340(15)
_cell_angle_alpha                90
_cell_angle_beta                 95.724(5)
_cell_angle_gamma                90
_cell_volume                     2664.53
_exptl_crystal_colour            colorless
_exptl_crystal_description       blade
_cell_formula_units_Z            4
loop_
_atom_site_label
_atom_site_type_symbol
_atom_site_fract_x
_atom_site_fract_y
_atom_site_fract_z
C1 C 0.24406(15) 0.31736(13) 0.89507(13)
C2 C 0.24474(14) 0.22956(13) 0.86058(13)
C3 C 0.33914(13) 0.18177(12) 0.86290(12)
C4 C 0.42886(14) 0.22550(13) 0.90423(13)
C5 C 0.42023(15) 0.31421(13) 0.93666(13)
C6 C 0.46512(14) 0.02701(13) 0.84597(14)
C7 C 0.48028(13) -0.06156(12) 0.79523(13)
C8 C 0.45840(13) -0.14339(12) 0.83549(13)
C9 C 0.47704(13) -0.22867(12) 0.79314(13)
C10 C 0.45338(14) -0.31425(13) 0.83345(14)
C11 C 0.47615(15) -0.39492(13) 0.79200(14)
H1 H 0.1804 0.3483 0.8924
H3 H 0.1826 0.2021 0.8358
H4 H 0.4932 0.1955 0.9098
H5 H 0.4808 0.3431 0.9631
H6 H 0.5188 0.0706 0.8326
H7 H 0.4715 0.0161 0.9131
H8 H 0.4302 -0.143 0.8928
H9 H 0.4218 -0.3152 0.8891
H10 H 0.46 -0.4503 0.8195
N1 N 0.33062(12) 0.36094(11) 0.93245(11)
S1 S 0.33624(3) 0.07399(3) 0.80861(4)
C1A C 0.75594(15) 0.31736(13) 0.60493(13)
C2A C 0.75526(14) 0.22956(13) 0.63942(13)
C3A C 0.66086(13) 0.18177(12) 0.63710(12)
C4A C 0.57114(14) 0.22550(13) 0.59577(13)
C5A C 0.57977(15) 0.31421(13) 0.56334(13)
C6A C 0.53488(14) 0.02701(13) 0.65403(14)
C7A C 0.51972(13) -0.06156(12) 0.70477(13)
C8A C 0.54160(13) -0.14339(12) 0.66451(13)
C9A C 0.52296(13) -0.22867(12) 0.70686(13)
C10A C 0.54662(14) -0.31425(13) 0.66655(14)
C11A C 0.52385(15) -0.39492(13) 0.70800(14)
H1A H 0.8196 0.3483 0.6076
H3A H 0.8174 0.2021 0.6642
H4A H 0.5068 0.1955 0.5902
H5A H 0.5192 0.3431 0.5369
H6A H 0.4812 0.0706 0.6674
H7A H 0.5285 0.0161 0.5869
H8A H 0.5698 -0.143 0.6072
H9A H 0.5782 -0.3152 0.6109
H10A H 0.54 -0.4503 0.6805
N1A N 0.66938(12) 0.36094(11) 0.56755(11)
S1A S 0.66376(3) 0.07399(3) 0.69139(4)
C12 C 0.27247(14) 0.57075(12) 1.01826(13)
C13 C 0.29745(13) 0.65383(13) 1.07870(13)
C14 C 0.27473(13) 0.73855(13) 1.04638(13)
C15 C 0.35099(16) 0.63543(14) 1.17496(13)
H2 H 0.3392 0.473 0.9828
H11 H 0.2922 0.7872 1.087
H12 H 0.367 0.6927 1.2064
H13 H 0.4146 0.602 1.1697
H14 H 0.3055 0.5999 1.2102
O1 O 0.35502(10) 0.51836(10) 1.01509(11)
O2 O 0.18618(10) 0.55426(9) 0.97922(10)
C12F C 0.22753(14) 0.92925(12) 0.98174(13)
C13F C 0.20255(13) 0.84617(13) 0.92130(13)
C14F C 0.22527(13) 0.76145(13) 0.95362(13)
C15F C 0.14901(16) 0.86457(14) 0.82504(13)
H2F H 0.1608 1.027 1.0172
H11F H 0.2078 0.7128 0.913
H12F H 0.133 0.8073 0.7936
H13F H 0.0854 0.898 0.8303
H14F H 0.1945 0.9001 0.7898
O1F O 0.14498(10) 0.98164(10) 0.98491(11)
O2F O 0.31382(10) 0.94574(9) 1.02078(10)
loop_
_geom_bond_atom_site_label_1
_geom_bond_atom_site_label_2
_geom_bond_site_symmetry_1
_geom_bond_site_symmetry_2
C1 C2 1_555 1_555
C2 C3 1_555 1_555
C3 C4 1_555 1_555
C4 C5 1_555 1_555
C5 H5 1_555 1_555
C6 C7 1_555 1_555
C7 C8 1_555 1_555
C8 C9 1_555 1_555
C9 C10 1_555 1_555
C10 C11 1_555 1_555
C11 H10 1_555 1_555
C12 C13 1_555 1_555
C13 C14 1_555 1_555
C14 H11 1_555 1_555
C15 C13 1_555 1_555
H1 C1 1_555 1_555
H2 O1 1_555 1_555
H3 C2 1_555 1_555
H4 C4 1_555 1_555
H6 C6 1_555 1_555
H7 C6 1_555 1_555
H8 C8 1_555 1_555
H9 C10 1_555 1_555
H12 C15 1_555 1_555
H13 C15 1_555 1_555
H14 C15 1_555 1_555
N1 C1 1_555 1_555
O1 C12 1_555 1_555
O2 C12 1_555 1_555
S1 C3 1_555 1_555
C1A C2A 1_555 1_555
C2A C3A 1_555 1_555
C3A C4A 1_555 1_555
C4A C5A 1_555 1_555
C5A H5A 1_555 1_555
C6A C7A 1_555 1_555
C7A C7 1_555 1_555
C8A C7A 1_555 1_555
C9A C9 1_555 1_555
C10A C9A 1_555 1_555
C11A C11 1_555 1_555
C12F C13F 1_555 1_555
C13F C14F 1_555 1_555
C14F C14 1_555 1_555
C15F C13F 1_555 1_555
H1A C1A 1_555 1_555
H2F O1F 1_555 1_555
H3A C2A 1_555 1_555
H4A C4A 1_555 1_555
H6A C6A 1_555 1_555
H7A C6A 1_555 1_555
H8A C8A 1_555 1_555
H9A C10A 1_555 1_555
H10A C11A 1_555 1_555
H11F C14F 1_555 1_555
H12F C15F 1_555 1_555
H13F C15F 1_555 1_555
H14F C15F 1_555 1_555
N1A C1A 1_555 1_555
O1F C12F 1_555 1_555
O2F C12F 1_555 1_555
S1A C3A 1_555 1_555
C5 N1 1_555 1_555
C6 S1 1_555 1_555
C5A N1A 1_555 1_555
C6A S1A 1_555 1_555
C8A C9A 1_555 1_555
C10A C11A 1_555 1_555

#END
