
#######################################################################
#
#                 Cambridge Crystallographic Data Centre
#                                CCDC 
#
#######################################################################
#
# If this CIF has been generated from an entry in the Cambridge 
# Structural Database, then it will include bibliographic, chemical, 
# crystal, experimental, refinement or atomic coordinate data resulting 
# from the CCDC's data processing and validation procedures.
#
#######################################################################

data_AXOQOV
_chemical_formula_moiety         'C28 H16 N2,2(C1 H4 O1)'
_chemical_name_systematic        
'4,7-bis(phenylethynyl)-1,10-phenanthroline methanol solvate'
_symmetry_cell_setting           monoclinic
_symmetry_space_group_name_H-M   'P 21'
_symmetry_Int_Tables_number      4
_space_group_name_Hall           'P 2yb'
loop_
_symmetry_equiv_pos_site_id
_symmetry_equiv_pos_as_xyz
1 x,y,z
2 -x,1/2+y,-z
_cell_length_a                   4.83270(10)
_cell_length_b                   21.4973(4)
_cell_length_c                   22.7234(4)
_cell_angle_alpha                90
_cell_angle_beta                 90.0020(10)
_cell_angle_gamma                90
_cell_volume                     2360.73
_exptl_crystal_colour            yellow
_exptl_crystal_description       Block
_cell_formula_units_Z            4
loop_
_atom_site_label
_atom_site_type_symbol
_atom_site_fract_x
_atom_site_fract_y
_atom_site_fract_z
N1 N 0.5701(5) -0.05112(12) 0.06507(12)
N2 N 0.9170(5) 0.00062(12) 0.14388(11)
C1 C 0.3942(7) -0.07659(16) 0.02748(16)
H1 H 0.3920 -0.1207 0.0245
C2 C 0.2136(6) -0.04347(14) -0.00772(14)
H2 H 0.0897 -0.0646 -0.0333
C3 C 0.2149(6) 0.02033(14) -0.00536(12)
C4 C 0.3968(6) 0.05007(13) 0.03476(12)
C5 C 0.5700(6) 0.01172(14) 0.06942(12)
C6 C 0.7553(6) 0.03946(13) 0.11125(12)
C7 C 0.7631(6) 0.10480(13) 0.11673(12)
C8 C 0.9455(6) 0.13122(15) 0.15901(12)
C9 C 1.1097(6) 0.09084(17) 0.19124(13)
H3 H 1.2365 0.1065 0.2195
C10 C 1.0871(7) 0.02703(17) 0.18173(14)
H4 H 1.2032 0.0005 0.2043
C11 C 0.5865(6) 0.14215(14) 0.08028(12)
H5 H 0.5934 0.1862 0.0835
C12 C 0.4107(6) 0.11579(14) 0.04146(13)
H6 H 0.2943 0.1416 0.0182
C13 C 0.0331(6) 0.05635(14) -0.04247(13)
C14 C -0.1225(6) 0.08471(15) -0.07335(14)
C15 C -0.3156(6) 0.11813(13) -0.10913(12)
C16 C -0.4471(6) 0.08830(14) -0.15613(13)
H7 H -0.4053 0.0461 -0.1647
C17 C -0.6377(6) 0.12006(15) -0.19018(14)
H8 H -0.7254 0.0998 -0.2223
C18 C -0.7004(6) 0.18133(16) -0.17740(15)
H9 H -0.8320 0.2031 -0.2007
C19 C -0.5730(7) 0.21081(15) -0.13118(15)
H10 H -0.6187 0.2528 -0.1223
C20 C -0.3778(6) 0.17980(14) -0.09725(14)
H11 H -0.2870 0.2008 -0.0660
C21 C 0.9533(6) 0.19667(17) 0.16857(13)
C22 C 0.9512(6) 0.25109(19) 0.17655(13)
C23 C 0.9299(14) 0.3137(3) 0.1799(3)
C24 C 0.7054(15) 0.3437(4) 0.1543(3)
H12 H 0.5678 0.3202 0.1343
C25 C 0.6823(16) 0.4080(4) 0.1579(3)
H13 H 0.5289 0.4285 0.1404
C26 C 0.8836(14) 0.4423(3) 0.1871(5)
H14 H 0.8678 0.4863 0.1895
C27 C 1.1081(12) 0.4123(3) 0.2127(6)
H15 H 1.2457 0.4358 0.2327
C28 C 1.1312(13) 0.3480(3) 0.2091(5)
H16 H 1.2846 0.3275 0.2266
N3 N 1.4173(5) 0.25136(12) 0.35618(11)
N4 N 1.0683(5) 0.30347(12) 0.43498(11)
C35 C 1.5877(6) 0.22475(17) 0.31811(14)
H22 H 1.7040 0.2512 0.2956
C36 C 1.6094(6) 0.16133(16) 0.30859(13)
H23 H 1.7356 0.1456 0.2802
C37 C 1.4457(6) 0.12105(15) 0.34081(12)
C38 C 1.2627(5) 0.14730(13) 0.38308(12)
C39 C 1.2556(6) 0.21251(13) 0.38862(12)
C40 C 1.0693(6) 0.24036(14) 0.43081(12)
C41 C 0.8974(5) 0.20199(13) 0.46514(12)
C42 C 0.7140(5) 0.23137(14) 0.50546(12)
C43 C 0.7131(6) 0.29550(14) 0.50783(14)
H24 H 0.5893 0.3166 0.5334
C44 C 0.8944(6) 0.32891(15) 0.47256(16)
H25 H 0.8930 0.3730 0.4757
C45 C 0.9120(6) 0.13623(14) 0.45870(12)
H26 H 0.7974 0.1104 0.4823
C46 C 1.0864(6) 0.10990(14) 0.41943(13)
H27 H 1.0923 0.0659 0.4159
C47 C 1.4542(6) 0.05530(17) 0.33142(13)
C48 C 1.4517(6) 0.00092(19) 0.32370(13)
C49 C 1.4495(15) -0.0699(2) 0.3119(3)
C50 C 1.5614(14) -0.0936(3) 0.2601(3)
H28 H 1.6421 -0.0663 0.2321
C51 C 1.5553(13) -0.1573(3) 0.2494(3)
H29 H 1.6317 -0.1734 0.2141
C52 C 1.4372(16) -0.1972(2) 0.2904(3)
H30 H 1.4330 -0.2407 0.2831
C53 C 1.325(2) -0.1736(3) 0.3421(2)
H31 H 1.2446 -0.2009 0.3702
C54 C 1.3314(19) -0.1099(3) 0.3529(2)
H32 H 1.2549 -0.0938 0.3882
C55 C 0.5312(6) 0.19549(15) 0.54211(13)
C56 C 0.3773(6) 0.16770(14) 0.57326(13)
C57 C 0.1839(6) 0.13404(13) 0.60913(12)
C58 C 0.1214(6) 0.07216(15) 0.59719(14)
H33 H 0.2118 0.0511 0.5659
C59 C -0.0737(7) 0.04141(15) 0.63123(15)
H34 H -0.1192 -0.0006 0.6226
C60 C -0.2017(6) 0.07118(16) 0.67735(15)
H35 H -0.3342 0.0496 0.7005
C61 C -0.1383(6) 0.13200(15) 0.68995(13)
H36 H -0.2258 0.1523 0.7221
C62 C 0.0531(6) 0.16395(14) 0.65594(13)
H37 H 0.0950 0.2062 0.6645
C69 C 0.1085(10) 0.85434(18) 0.15524(19)
H43 H 0.2682 0.8778 0.1406
H44 H 0.1651 0.8116 0.1641
H45 H 0.0378 0.8741 0.1911
O1 O -0.1013(5) 0.85366(12) 0.11187(13)
H46 H -0.201(9) 0.893(2) 0.101(2)
C70 C 0.6063(9) 0.39806(18) 0.34466(19)
H47 H 0.6583 0.4409 0.3351
H48 H 0.5361 0.3774 0.3093
H49 H 0.7688 0.3756 0.3593
O2 O 0.3998(5) 0.39843(12) 0.38808(13)
H50 H 0.311(10) 0.356(2) 0.395(2)
C71 C 0.3177(8) 0.46969(18) 0.52423(17)
H51 H 0.3608 0.5015 0.5537
H52 H 0.2681 0.4308 0.5440
H53 H 0.1620 0.4837 0.5000
O3 O 0.5446(5) 0.46005(13) 0.48914(15)
H54 H 0.504(14) 0.428(4) 0.453(4)
C72 C 0.8178(8) 0.78235(19) 0.97614(17)
H55 H 0.6637 0.7678 1.0005
H56 H 0.8608 0.7510 0.9462
H57 H 0.7659 0.8214 0.9568
O4 O 1.0444(5) 0.79199(14) 1.01067(16)
H58 H 0.999(11) 0.817(3) 1.047(3)
C29? C 0.9500(14) 0.3221(2) 0.1885(3)
C30? C 0.8310(18) 0.3619(3) 0.1475(2)
H17? H 0.7540 0.3457 0.1123
C31? C 0.8247(19) 0.4256(3) 0.1581(2)
H18? H 0.7434 0.4528 0.1301
C32? C 0.9374(14) 0.4494(2) 0.2097(3)
H19? H 0.9331 0.4929 0.2169
C33? C 1.0564(12) 0.4096(3) 0.2507(3)
H20? H 1.1334 0.4259 0.2859
C34? C 1.0627(13) 0.3459(3) 0.2401(3)
H21? H 1.1440 0.3187 0.2681
C63? C 1.4305(16) -0.0614(3) 0.3188(3)
C64? C 1.6315(14) -0.0960(3) 0.2898(5)
H38? H 1.7850 -0.0757 0.2721
C65? C 1.6078(13) -0.1604(3) 0.2865(6)
H39? H 1.7451 -0.1840 0.2667
C66? C 1.3831(14) -0.1901(3) 0.3123(5)
H40? H 1.3669 -0.2341 0.3101
C67? C 1.1821(17) -0.1556(4) 0.3414(3)
H41? H 1.0286 -0.1759 0.3590
C68? C 1.2059(17) -0.0912(4) 0.3446(3)
H42? H 1.0685 -0.0676 0.3645
loop_
_geom_bond_atom_site_label_1
_geom_bond_atom_site_label_2
_geom_bond_site_symmetry_1
_geom_bond_site_symmetry_2
N1 C1 1_555 1_555
N2 C6 1_555 1_555
C1 H1 1_555 1_555
C2 C1 1_555 1_555
H2 C2 1_555 1_555
C3 C2 1_555 1_555
C4 C3 1_555 1_555
C5 N1 1_555 1_555
C6 C5 1_555 1_555
C7 C6 1_555 1_555
C8 C7 1_555 1_555
C9 C8 1_555 1_555
H3 C9 1_555 1_555
C10 N2 1_555 1_555
H4 C10 1_555 1_555
C11 C7 1_555 1_555
H5 C11 1_555 1_555
C12 C4 1_555 1_555
H6 C12 1_555 1_555
C13 C3 1_555 1_555
C14 C13 1_555 1_555
C15 C14 1_555 1_555
C16 C15 1_555 1_555
H7 C16 1_555 1_555
C17 C16 1_555 1_555
H8 C17 1_555 1_555
C18 C17 1_555 1_555
H9 C18 1_555 1_555
C19 C18 1_555 1_555
H10 C19 1_555 1_555
C20 C15 1_555 1_555
H11 C20 1_555 1_555
C21 C8 1_555 1_555
C22 C21 1_555 1_555
C23 C22 1_555 1_555
C24 C23 1_555 1_555
H12 C24 1_555 1_555
C25 C24 1_555 1_555
H13 C25 1_555 1_555
C26 C25 1_555 1_555
H14 C26 1_555 1_555
C27 C26 1_555 1_555
H15 C27 1_555 1_555
C28 C23 1_555 1_555
H16 C28 1_555 1_555
N3 C35 1_555 1_555
N4 C40 1_555 1_555
C35 H22 1_555 1_555
C36 C35 1_555 1_555
H23 C36 1_555 1_555
C37 C36 1_555 1_555
C38 C37 1_555 1_555
C39 N3 1_555 1_555
C40 C39 1_555 1_555
C41 C40 1_555 1_555
C42 C41 1_555 1_555
C43 C42 1_555 1_555
H24 C43 1_555 1_555
C44 N4 1_555 1_555
H25 C44 1_555 1_555
C45 C41 1_555 1_555
H26 C45 1_555 1_555
C46 C38 1_555 1_555
H27 C46 1_555 1_555
C47 C37 1_555 1_555
C48 C47 1_555 1_555
C49 C48 1_555 1_555
C50 C49 1_555 1_555
H28 C50 1_555 1_555
C51 C50 1_555 1_555
H29 C51 1_555 1_555
C52 C51 1_555 1_555
H30 C52 1_555 1_555
C53 C52 1_555 1_555
H31 C53 1_555 1_555
C54 C49 1_555 1_555
H32 C54 1_555 1_555
C55 C42 1_555 1_555
C56 C55 1_555 1_555
C57 C56 1_555 1_555
C58 C57 1_555 1_555
H33 C58 1_555 1_555
C59 C58 1_555 1_555
H34 C59 1_555 1_555
C60 C59 1_555 1_555
H35 C60 1_555 1_555
C61 C60 1_555 1_555
H36 C61 1_555 1_555
C62 C57 1_555 1_555
H37 C62 1_555 1_555
C69 H43 1_555 1_555
H44 C69 1_555 1_555
H45 C69 1_555 1_555
O1 C69 1_555 1_555
H46 O1 1_555 1_555
C70 H47 1_555 1_555
H48 C70 1_555 1_555
H49 C70 1_555 1_555
O2 C70 1_555 1_555
H50 O2 1_555 1_555
C71 H51 1_555 1_555
H52 C71 1_555 1_555
H53 C71 1_555 1_555
O3 C71 1_555 1_555
H54 O3 1_555 1_555
C72 H55 1_555 1_555
H56 C72 1_555 1_555
H57 C72 1_555 1_555
O4 C72 1_555 1_555
H58 O4 1_555 1_555
C4 C5 1_555 1_555
C9 C10 1_555 1_555
C11 C12 1_555 1_555
C19 C20 1_555 1_555
C27 C28 1_555 1_555
C38 C39 1_555 1_555
C43 C44 1_555 1_555
C45 C46 1_555 1_555
C53 C54 1_555 1_555
C61 C62 1_555 1_555

#END
