
#######################################################################
#
#                 Cambridge Crystallographic Data Centre
#                                CCDC 
#
#######################################################################
#
# If this CIF has been generated from an entry in the Cambridge 
# Structural Database, then it will include bibliographic, chemical, 
# crystal, experimental, refinement or atomic coordinate data resulting 
# from the CCDC's data processing and validation procedures.
#
#######################################################################

data_AXOQIP
_chemical_formula_moiety         'C16 H8 N2'
_chemical_name_systematic        4,7-diethynyl-1,10-phenanthroline
_symmetry_cell_setting           monoclinic
_symmetry_space_group_name_H-M   'C 2/c'
_symmetry_Int_Tables_number      15
_space_group_name_Hall           '-C 2yn'
loop_
_symmetry_equiv_pos_site_id
_symmetry_equiv_pos_as_xyz
1 x,y,z
2 -x,y,1/2-z
3 1/2+x,1/2+y,z
4 1/2-x,1/2+y,1/2-z
5 -x,-y,-z
6 x,-y,1/2+z
7 1/2-x,1/2-y,-z
8 1/2+x,1/2-y,1/2+z
_cell_length_a                   11.1522(3)
_cell_length_b                   14.9034(4)
_cell_length_c                   6.8821(2)
_cell_angle_alpha                90
_cell_angle_beta                 105.324(2)
_cell_angle_gamma                90
_cell_volume                     1103.18
_exptl_crystal_colour            brown
_exptl_crystal_description       Block
_cell_formula_units_Z            4
loop_
_atom_site_label
_atom_site_type_symbol
_atom_site_fract_x
_atom_site_fract_y
_atom_site_fract_z
N1 N 0.87367(10) -0.12641(7) 0.19323(16)
C1 C 0.73671(13) 0.03456(8) 0.14127(19)
C2 C 0.67843(14) -0.04811(8) 0.1154(2)
H1 H 0.5903 -0.0521 0.0802
C3 C 0.75131(13) -0.12564(9) 0.1421(2)
H2 H 0.7096 -0.1818 0.1219
C4 C 0.93290(13) -0.04570(8) 0.22069(18)
C5 C 0.86815(13) 0.03704(8) 0.19514(18)
C6 C 0.93763(12) 0.11931(8) 0.22467(18)
H3 H 0.8944 0.1749 0.2080
C7 C 0.66520(12) 0.11641(9) 0.11885(19)
C8 C 0.60626(13) 0.18288(9) 0.1074(2)
H4 H 0.5588 0.2364 0.0981
N1A N 1.12633(10) -0.12641(7) 0.30677(16)
C1A C 1.26329(13) 0.03456(8) 0.35873(19)
C2A C 1.32157(14) -0.04811(8) 0.3846(2)
H1A H 1.4097 -0.0521 0.4198
C3A C 1.24869(13) -0.12564(9) 0.3579(2)
H2A H 1.2904 -0.1818 0.3781
C4A C 1.06710(13) -0.04570(8) 0.27931(18)
C5A C 1.13185(13) 0.03704(8) 0.30486(18)
C6A C 1.06237(12) 0.11931(8) 0.27533(18)
H3A H 1.1056 0.1749 0.2920
C7A C 1.33480(12) 0.11641(9) 0.38115(19)
C8A C 1.39374(13) 0.18288(9) 0.3926(2)
H4A H 1.4412 0.2364 0.4019
loop_
_geom_bond_atom_site_label_1
_geom_bond_atom_site_label_2
_geom_bond_site_symmetry_1
_geom_bond_site_symmetry_2
N1 C3 1_555 1_555
C1 C2 1_555 1_555
C2 H1 1_555 1_555
C3 C2 1_555 1_555
H2 C3 1_555 1_555
C4 N1 1_555 1_555
C5 C1 1_555 1_555
C6 C5 1_555 1_555
H3 C6 1_555 1_555
C7 C1 1_555 1_555
C8 C7 1_555 1_555
H4 C8 1_555 1_555
N1A C3A 1_555 1_555
C1A C2A 1_555 1_555
C2A H1A 1_555 1_555
C3A C2A 1_555 1_555
H2A C3A 1_555 1_555
C4A C4 1_555 1_555
C5A C1A 1_555 1_555
C6A C6 1_555 1_555
H3A C6A 1_555 1_555
C7A C1A 1_555 1_555
C8A C7A 1_555 1_555
H4A C8A 1_555 1_555
C4 C5 1_555 1_555
N1A C4A 1_555 1_555
C4A C5A 1_555 1_555
C5A C6A 1_555 1_555

#END
