
#######################################################################
#
#                 Cambridge Crystallographic Data Centre
#                                CCDC 
#
#######################################################################
#
# If this CIF has been generated from an entry in the Cambridge 
# Structural Database, then it will include bibliographic, chemical, 
# crystal, experimental, refinement or atomic coordinate data resulting 
# from the CCDC's data processing and validation procedures.
#
#######################################################################

data_AXOWOA
_chemical_name_common            
'5,10,15:5,10,15-bis(1,3,5-trimethoxybenzene-2,4,6-triyltris(methoxy-1,3-phenylene))truxene toluene solvate'
_chemical_formula_moiety         'C87 H66 O12,2(C7 H8)'
_chemical_name_systematic        
"5,10,15:5,10,15-bis(1,3,5-trimethoxybenzene-2,4,6-triyltris(methoxy-1,3-phenylene))-10,15-dihydro-5H-diindeno[1,2-a:1',2'-c]fluorene toluene solvate"
_symmetry_cell_setting           monoclinic
_symmetry_space_group_name_H-M   'P 21/c'
_symmetry_Int_Tables_number      14
_space_group_name_Hall           '-P 2ybc'
loop_
_symmetry_equiv_pos_site_id
_symmetry_equiv_pos_as_xyz
1 x,y,z
2 -x,1/2+y,1/2-z
3 -x,-y,-z
4 x,1/2-y,1/2+z
_cell_length_a                   14.49570(10)
_cell_length_b                   23.2552(3)
_cell_length_c                   22.2461(3)
_cell_angle_alpha                90
_cell_angle_beta                 92.0180(10)
_cell_angle_gamma                90
_cell_volume                     7494.52
_cell_formula_units_Z            4
loop_
_atom_site_label
_atom_site_type_symbol
_atom_site_fract_x
_atom_site_fract_y
_atom_site_fract_z
O1 O 0.15553(10) 0.47109(7) 0.72666(7)
O2 O 0.11256(10) 0.65168(8) 0.82570(7)
O3 O 0.10866(11) 0.64363(8) 0.61148(7)
O4 O 0.23331(10) 0.52142(7) 0.58773(7)
O5 O 0.22665(11) 0.49663(7) 0.84483(7)
O6 O 0.17076(10) 0.74813(7) 0.73086(7)
O7 O 0.86935(11) 0.72294(8) 0.85118(9)
O8 O 0.86442(11) 0.69713(8) 0.63787(8)
O9 O 0.90882(10) 0.53584(7) 0.76858(8)
O10 O 0.82777(11) 0.58157(8) 0.59796(7)
O11 O 0.77804(11) 0.80338(7) 0.76486(9)
O12 O 0.82599(10) 0.56804(7) 0.89285(7)
C1 C 0.14322(13) 0.52989(10) 0.72409(10)
C2 C 0.13864(14) 0.56099(10) 0.77789(10)
C3 C 0.12513(13) 0.62020(10) 0.77389(10)
C4 C 0.11629(13) 0.64880(10) 0.71812(10)
C5 C 0.12482(14) 0.61630(10) 0.66574(10)
C6 C 0.13766(13) 0.55644(10) 0.66783(10)
C7 C 0.14312(15) 0.52994(11) 0.83684(11)
H1 H 0.1398 0.5583 0.8699
H2 H 0.0891 0.5040 0.8391
C8 C 0.09220(14) 0.71164(10) 0.71582(11)
H3 H 0.0681 0.7214 0.6749
H4 H 0.0427 0.7194 0.7443
C9 C 0.14194(14) 0.52137(11) 0.61145(10)
H5 H 0.1235 0.4813 0.6201
H6 H 0.0976 0.5371 0.5808
C10 C 0.07242(18) 0.43793(12) 0.72780(14)
H7 H 0.0879 0.3969 0.7296
H8 H 0.0346 0.4457 0.6913
H9 H 0.0379 0.4485 0.7632
C11 C 0.19558(16) 0.67610(12) 0.85235(11)
H10 H 0.1806 0.6975 0.8887
H11 H 0.2235 0.7022 0.8235
H12 H 0.2392 0.6452 0.8630
C12 C 0.18624(17) 0.65035(11) 0.57319(11)
H13 H 0.1661 0.6701 0.5361
H14 H 0.2109 0.6124 0.5633
H15 H 0.2343 0.6731 0.5942
C13 C 0.29370(15) 0.52074(10) 0.88241(10)
C14 C 0.29864(16) 0.50332(11) 0.94188(11)
H16 H 0.2543 0.4775 0.9570
C15 C 0.36936(17) 0.52428(12) 0.97893(11)
H17 H 0.3737 0.5124 1.0198
C16 C 0.43384(15) 0.56215(11) 0.95754(10)
H18 H 0.4819 0.5760 0.9838
C17 C 0.42911(14) 0.58017(9) 0.89787(9)
C18 C 0.35789(15) 0.55891(9) 0.86048(9)
H19 H 0.3533 0.5707 0.8196
C19 C 0.23283(14) 0.75491(9) 0.68597(10)
C20 C 0.32174(14) 0.73393(9) 0.69622(10)
H20 H 0.3361 0.7129 0.7319
C21 C 0.39005(13) 0.74332(9) 0.65491(10)
C22 C 0.36411(14) 0.77108(9) 0.60104(10)
H21 H 0.4082 0.7760 0.5709
C23 C 0.27484(15) 0.79155(10) 0.59110(11)
H22 H 0.2592 0.8108 0.5545
C24 C 0.20877(14) 0.78444(10) 0.63328(11)
H23 H 0.1482 0.7993 0.6267
C25 C 0.29810(14) 0.48628(10) 0.61639(9)
C26 C 0.37978(13) 0.51206(9) 0.63682(9)
H24 H 0.3874 0.5524 0.6328
C27 C 0.45081(13) 0.47897(9) 0.66323(9)
C28 C 0.43688(14) 0.42008(9) 0.66861(10)
H25 H 0.4839 0.3969 0.6870
C29 C 0.35549(15) 0.39459(10) 0.64756(10)
H26 H 0.3478 0.3542 0.6513
C30 C 0.28546(15) 0.42732(10) 0.62115(10)
H27 H 0.2298 0.4098 0.6066
C31 C 0.49692(13) 0.62451(9) 0.87241(9)
C32 C 0.45602(14) 0.68512(9) 0.87436(9)
C33 C 0.41358(14) 0.71154(10) 0.92184(10)
H28 H 0.4041 0.6911 0.9581
C34 C 0.38516(15) 0.76816(10) 0.91570(10)
H29 H 0.3557 0.7868 0.9478
C35 C 0.39959(15) 0.79757(9) 0.86281(10)
H30 H 0.3829 0.8370 0.8600
C36 C 0.43799(14) 0.77077(9) 0.81368(10)
H31 H 0.4466 0.7913 0.7774
C37 C 0.46362(13) 0.71291(9) 0.81875(9)
C38 C 0.49181(13) 0.66974(8) 0.77375(9)
C39 C 0.49760(12) 0.67199(8) 0.71114(9)
C40 C 0.49161(13) 0.72380(9) 0.66780(9)
C41 C 0.52490(13) 0.69582(9) 0.61026(9)
C42 C 0.55311(14) 0.72265(10) 0.55810(10)
H32 H 0.5595 0.7633 0.5567
C43 C 0.57172(15) 0.68958(11) 0.50832(10)
H33 H 0.5925 0.7074 0.4728
C44 C 0.56011(15) 0.63040(10) 0.51006(10)
H34 H 0.5693 0.6082 0.4749
C45 C 0.53525(14) 0.60323(10) 0.56259(9)
H35 H 0.5269 0.5627 0.5634
C46 C 0.52249(13) 0.63596(9) 0.61442(9)
C47 C 0.51253(12) 0.62053(9) 0.67859(9)
C48 C 0.52553(12) 0.56837(8) 0.70902(9)
C49 C 0.54318(13) 0.50726(8) 0.68487(9)
C50 C 0.57827(13) 0.47720(9) 0.74230(9)
C51 C 0.62659(14) 0.42599(9) 0.74727(10)
H36 H 0.6427 0.4054 0.7122
C52 C 0.65123(15) 0.40504(9) 0.80372(10)
H37 H 0.6857 0.3704 0.8076
C53 C 0.62538(15) 0.43475(9) 0.85486(10)
H38 H 0.6397 0.4191 0.8935
C54 C 0.57897(14) 0.48686(9) 0.85007(10)
H39 H 0.5617 0.5069 0.8851
C55 C 0.55807(13) 0.50946(9) 0.79296(9)
C56 C 0.52673(13) 0.56722(9) 0.77246(9)
C57 C 0.50769(13) 0.61715(9) 0.80460(9)
C58 C 0.59212(14) 0.62522(9) 0.90705(9)
C59 C 0.60140(16) 0.64939(10) 0.96492(10)
H40 H 0.5498 0.6676 0.9820
C60 C 0.68468(16) 0.64713(10) 0.99752(11)
H41 H 0.6893 0.6638 1.0365
C61 C 0.76112(16) 0.62084(10) 0.97398(10)
H42 H 0.8178 0.6187 0.9966
C62 C 0.75306(15) 0.59772(9) 0.91664(10)
C63 C 0.67061(14) 0.60106(9) 0.88321(10)
H43 H 0.6677 0.5866 0.8433
C64 C 0.55613(13) 0.77472(9) 0.68485(9)
C65 C 0.54005(14) 0.82933(9) 0.66138(10)
H44 H 0.4847 0.8365 0.6385
C66 C 0.60341(16) 0.87364(10) 0.67075(11)
H45 H 0.5909 0.9105 0.6539
C67 C 0.68375(15) 0.86473(10) 0.70398(11)
H46 H 0.7272 0.8949 0.7103
C68 C 0.69977(14) 0.81089(10) 0.72799(11)
C69 C 0.63715(14) 0.76591(9) 0.71915(10)
H47 H 0.6497 0.7293 0.7365
C70 C 0.61641(14) 0.50426(9) 0.63689(9)
C71 C 0.69222(14) 0.54106(10) 0.64243(10)
H48 H 0.7005 0.5645 0.6772
C72 C 0.75519(14) 0.54334(11) 0.59728(10)
C73 C 0.74318(16) 0.50969(12) 0.54599(11)
H49 H 0.7844 0.5131 0.5139
C74 C 0.67058(16) 0.47115(11) 0.54209(11)
H50 H 0.6637 0.4467 0.5080
C75 C 0.60766(15) 0.46788(10) 0.58756(10)
H51 H 0.5587 0.4408 0.5849
C76 C 0.90021(14) 0.60365(10) 0.87232(11)
H52 H 0.9575 0.5805 0.8715
H53 H 0.9110 0.6356 0.9011
C77 C 0.89409(15) 0.57805(12) 0.64758(11)
H54 H 0.9553 0.5891 0.6329
H55 H 0.8983 0.5374 0.6608
C78 C 0.85401(15) 0.77520(11) 0.73765(15)
H56 H 0.9123 0.7907 0.7557
H57 H 0.8526 0.7847 0.6943
C79 C 0.87940(13) 0.62794(10) 0.81081(11)
C80 C 0.88436(13) 0.59279(10) 0.75998(11)
C81 C 0.87437(13) 0.61457(10) 0.70151(11)
C82 C 0.86079(14) 0.67438(11) 0.69533(11)
C83 C 0.85455(14) 0.71071(10) 0.74444(12)
C84 C 0.86408(14) 0.68681(10) 0.80220(11)
C85 C 0.83289(16) 0.49644(11) 0.77184(12)
H58 H 0.8566 0.4574 0.7781
H59 H 0.7958 0.4979 0.7342
H60 H 0.7945 0.5072 0.8054
C86 C 0.77611(17) 0.70561(14) 0.60717(13)
H61 H 0.7855 0.7217 0.5671
H62 H 0.7389 0.7322 0.6303
H63 H 0.7440 0.6686 0.6032
C87 C 0.78358(19) 0.73904(12) 0.87774(14)
H64 H 0.7964 0.7646 0.9121
H65 H 0.7519 0.7044 0.8914
H66 H 0.7442 0.7590 0.8477
C88 C -0.0456(2) 0.60671(18) 0.48368(14)
H67 H -0.0267 0.5695 0.5007
H68 H -0.1099 0.6044 0.4687
H69 H -0.0400 0.6364 0.5148
C89 C 0.0139(2) 0.62135(14) 0.43395(14)
C90 C 0.0014(2) 0.67246(15) 0.40210(16)
H70 H -0.0476 0.6975 0.4118
C91 C 0.0591(2) 0.68726(17) 0.35681(19)
H71 H 0.0494 0.7223 0.3356
C92 C 0.1313(2) 0.65133(17) 0.34191(16)
H72 H 0.1710 0.6616 0.3106
C93 C 0.1445(2) 0.60123(16) 0.37277(16)
H73 H 0.1939 0.5763 0.3634
C94 C 0.0848(2) 0.58674(13) 0.41836(14)
H74 H 0.0941 0.5514 0.4392
C95 C 0.9054(8) 0.4456(4) 0.9572(4)
H75 H 0.8716 0.4504 0.9943
H76 H 0.8614 0.4409 0.9231
H77 H 0.9437 0.4796 0.9507
C96 C 0.9579(5) 0.4001(3) 0.9619(3)
C97 C 1.0169(3) 0.3806(3) 0.9137(2)
H78 H 1.0345 0.4048 0.8816
C98 C 1.0430(5) 0.3270(4) 0.9189(3)
H79 H 1.0822 0.3140 0.8884
C99 C 1.0234(6) 0.2874(4) 0.9604(5)
H80 H 1.0527 0.2509 0.9611
C100 C 0.9568(5) 0.3022(4) 1.0035(4)
H81 H 0.9340 0.2759 1.0321
C101 C 0.9296(3) 0.3579(2) 0.99920(18)
H82 H 0.8838 0.3691 1.0264
C102? C 0.8754(8) 0.3953(5) 0.9946(5)
C103? C 0.9296(3) 0.3579(2) 0.99920(18)
C104? C 1.0234(6) 0.2874(4) 0.9604(5)
C105? C 0.9892(5) 0.3363(3) 0.9644(4)
C106? C 1.0169(3) 0.3806(3) 0.9137(2)
C107? C 0.9552(6) 0.4288(4) 0.9090(4)
C108? C 0.9054(8) 0.4456(4) 0.9572(4)
H83? H 0.8172 0.3939 1.0129
H84? H 0.9293 0.3395 1.0373
H85? H 1.0025 0.2634 0.9934
H86? H 1.0909 0.2903 0.9628
H87? H 1.0038 0.2701 0.9219
H88? H 1.0687 0.3758 0.8891
H89? H 0.9487 0.4492 0.8721
H90? H 0.8914 0.4845 0.9661
loop_
_geom_bond_atom_site_label_1
_geom_bond_atom_site_label_2
_geom_bond_site_symmetry_1
_geom_bond_site_symmetry_2
O1 C1 1_555 1_555
O2 C3 1_555 1_555
O3 C5 1_555 1_555
O4 C9 1_555 1_555
O5 C7 1_555 1_555
O6 C8 1_555 1_555
O7 C84 1_555 1_555
O8 C82 1_555 1_555
O9 C80 1_555 1_555
O10 C72 1_555 1_555
O11 C68 1_555 1_555
O12 C62 1_555 1_555
C1 C2 1_555 1_555
C2 C3 1_555 1_555
C3 C4 1_555 1_555
C4 C5 1_555 1_555
C5 C6 1_555 1_555
C6 C1 1_555 1_555
C7 C2 1_555 1_555
H1 C7 1_555 1_555
H2 C7 1_555 1_555
C8 C4 1_555 1_555
H3 C8 1_555 1_555
H4 C8 1_555 1_555
C9 C6 1_555 1_555
H5 C9 1_555 1_555
H6 C9 1_555 1_555
C10 O1 1_555 1_555
H7 C10 1_555 1_555
H8 C10 1_555 1_555
H9 C10 1_555 1_555
C11 O2 1_555 1_555
H10 C11 1_555 1_555
H11 C11 1_555 1_555
H12 C11 1_555 1_555
C12 O3 1_555 1_555
H13 C12 1_555 1_555
H14 C12 1_555 1_555
H15 C12 1_555 1_555
C13 O5 1_555 1_555
C14 C13 1_555 1_555
H16 C14 1_555 1_555
C15 C14 1_555 1_555
H17 C15 1_555 1_555
C16 C15 1_555 1_555
H18 C16 1_555 1_555
C17 C16 1_555 1_555
C18 C13 1_555 1_555
H19 C18 1_555 1_555
C19 O6 1_555 1_555
C20 C19 1_555 1_555
H20 C20 1_555 1_555
C21 C20 1_555 1_555
C22 C21 1_555 1_555
H21 C22 1_555 1_555
C23 C22 1_555 1_555
H22 C23 1_555 1_555
C24 C19 1_555 1_555
H23 C24 1_555 1_555
C25 O4 1_555 1_555
C26 C25 1_555 1_555
H24 C26 1_555 1_555
C27 C26 1_555 1_555
C28 C27 1_555 1_555
H25 C28 1_555 1_555
C29 C28 1_555 1_555
H26 C29 1_555 1_555
C30 C25 1_555 1_555
H27 C30 1_555 1_555
C31 C17 1_555 1_555
C32 C31 1_555 1_555
C33 C32 1_555 1_555
H28 C33 1_555 1_555
C34 C33 1_555 1_555
H29 C34 1_555 1_555
C35 C34 1_555 1_555
H30 C35 1_555 1_555
C36 C35 1_555 1_555
H31 C36 1_555 1_555
C37 C32 1_555 1_555
C38 C37 1_555 1_555
C39 C38 1_555 1_555
C40 C21 1_555 1_555
C41 C40 1_555 1_555
C42 C41 1_555 1_555
H32 C42 1_555 1_555
C43 C42 1_555 1_555
H33 C43 1_555 1_555
C44 C43 1_555 1_555
H34 C44 1_555 1_555
C45 C44 1_555 1_555
H35 C45 1_555 1_555
C46 C41 1_555 1_555
C47 C39 1_555 1_555
C48 C47 1_555 1_555
C49 C27 1_555 1_555
C50 C49 1_555 1_555
C51 C50 1_555 1_555
H36 C51 1_555 1_555
C52 C51 1_555 1_555
H37 C52 1_555 1_555
C53 C52 1_555 1_555
H38 C53 1_555 1_555
C54 C53 1_555 1_555
H39 C54 1_555 1_555
C55 C50 1_555 1_555
C56 C48 1_555 1_555
C57 C31 1_555 1_555
C58 C31 1_555 1_555
C59 C58 1_555 1_555
H40 C59 1_555 1_555
C60 C59 1_555 1_555
H41 C60 1_555 1_555
C61 C60 1_555 1_555
H42 C61 1_555 1_555
C62 C61 1_555 1_555
C63 C58 1_555 1_555
H43 C63 1_555 1_555
C64 C40 1_555 1_555
C65 C64 1_555 1_555
H44 C65 1_555 1_555
C66 C65 1_555 1_555
H45 C66 1_555 1_555
C67 C66 1_555 1_555
H46 C67 1_555 1_555
C68 C67 1_555 1_555
C69 C64 1_555 1_555
H47 C69 1_555 1_555
C70 C49 1_555 1_555
C71 C70 1_555 1_555
H48 C71 1_555 1_555
C72 C71 1_555 1_555
C73 C72 1_555 1_555
H49 C73 1_555 1_555
C74 C73 1_555 1_555
H50 C74 1_555 1_555
C75 C70 1_555 1_555
H51 C75 1_555 1_555
C76 O12 1_555 1_555
H52 C76 1_555 1_555
H53 C76 1_555 1_555
C77 O10 1_555 1_555
H54 C77 1_555 1_555
H55 C77 1_555 1_555
C78 O11 1_555 1_555
H56 C78 1_555 1_555
H57 C78 1_555 1_555
C79 C76 1_555 1_555
C80 C79 1_555 1_555
C81 C77 1_555 1_555
C82 C81 1_555 1_555
C83 C78 1_555 1_555
C84 C79 1_555 1_555
C85 O9 1_555 1_555
H58 C85 1_555 1_555
H59 C85 1_555 1_555
H60 C85 1_555 1_555
C86 O8 1_555 1_555
H61 C86 1_555 1_555
H62 C86 1_555 1_555
H63 C86 1_555 1_555
C87 O7 1_555 1_555
H64 C87 1_555 1_555
H65 C87 1_555 1_555
H66 C87 1_555 1_555
C88 H67 1_555 1_555
H68 C88 1_555 1_555
H69 C88 1_555 1_555
C89 C88 1_555 1_555
C90 C89 1_555 1_555
H70 C90 1_555 1_555
C91 C90 1_555 1_555
H71 C91 1_555 1_555
C92 C91 1_555 1_555
H72 C92 1_555 1_555
C93 C92 1_555 1_555
H73 C93 1_555 1_555
C94 C89 1_555 1_555
H74 C94 1_555 1_555
C95 H75 1_555 1_555
H76 C95 1_555 1_555
H77 C95 1_555 1_555
C96 C95 1_555 1_555
C97 C96 1_555 1_555
H78 C97 1_555 1_555
C98 C97 1_555 1_555
H79 C98 1_555 1_555
C99 C98 1_555 1_555
H80 C99 1_555 1_555
C100 C99 1_555 1_555
H81 C100 1_555 1_555
C101 C96 1_555 1_555
H82 C101 1_555 1_555
C17 C18 1_555 1_555
C23 C24 1_555 1_555
C29 C30 1_555 1_555
C36 C37 1_555 1_555
C38 C57 1_555 1_555
C39 C40 1_555 1_555
C45 C46 1_555 1_555
C46 C47 1_555 1_555
C48 C49 1_555 1_555
C54 C55 1_555 1_555
C55 C56 1_555 1_555
C56 C57 1_555 1_555
C62 C63 1_555 1_555
C68 C69 1_555 1_555
C74 C75 1_555 1_555
C80 C81 1_555 1_555
C82 C83 1_555 1_555
C83 C84 1_555 1_555
C93 C94 1_555 1_555
C100 C101 1_555 1_555

#END
