
#######################################################################
#
#                 Cambridge Crystallographic Data Centre
#                                CCDC 
#
#######################################################################
#
# If this CIF has been generated from an entry in the Cambridge 
# Structural Database, then it will include bibliographic, chemical, 
# crystal, experimental, refinement or atomic coordinate data resulting 
# from the CCDC's data processing and validation procedures.
#
#######################################################################

data_AXPEAM
_chemical_formula_moiety         'C23 H25 N1 O4'
_chemical_name_systematic        
"N-Acetyl-\a-acetoxy-\a-(bis(2'-phenylethyl) methylene)acetamide"
_symmetry_cell_setting           monoclinic
_symmetry_space_group_name_H-M   'P 21/c'
_symmetry_Int_Tables_number      14
_space_group_name_Hall           '-P 2ybc'
loop_
_symmetry_equiv_pos_site_id
_symmetry_equiv_pos_as_xyz
1 x,y,z
2 -x,1/2+y,1/2-z
3 -x,-y,-z
4 x,1/2-y,1/2+z
_cell_length_a                   10.627(3)
_cell_length_b                   15.951(6)
_cell_length_c                   12.615(5)
_cell_angle_alpha                90
_cell_angle_beta                 98.41(3)
_cell_angle_gamma                90
_cell_volume                     2115.39
_cell_formula_units_Z            4
loop_
_atom_site_label
_atom_site_type_symbol
_atom_site_fract_x
_atom_site_fract_y
_atom_site_fract_z
C1 C -0.23088 0.21700 0.24856
O1 O -0.40203 0.26008 0.05376
O2 O -0.23317 0.08455 0.17461
O3 O -0.59318 0.05768 -0.08089
O4 O -0.11583 0.10723 0.04372
N1 N -0.44038 0.12261 0.03152
C2 C -0.37359 0.18876 0.08195
C3 C -0.27428 0.16825 0.16910
C4 C -0.14301 0.18003 0.36684
C5 C -0.04518 0.20576 0.33698
C6 C -0.54964 0.12271 -0.04622
C7 C -0.60552 0.20488 -0.08104
C8 C -0.30272 0.30792 0.27003
C9 C -0.22975 0.36371 0.21563
C10 C -0.30565 0.45431 0.23577
C11 C -0.25478 0.50805 0.31253
C12 C -0.29767 0.58376 0.32148
C13 C -0.39977 0.60918 0.25267
C14 C -0.45688 0.55834 0.17535
C15 C -0.41370 0.47900 0.16736
C16 C 0.04796 0.16364 0.46122
C17 C 0.06307 0.20584 0.55676
C18 C 0.16133 0.17914 0.63209
C19 C 0.22966 0.11465 0.62128
C20 C 0.21634 0.07145 0.53019
C21 C 0.12564 0.10403 0.45031
C22 C -0.14687 0.06269 0.10800
C23 C -0.11021 -0.02678 0.12863
H1 H -0.18037 -0.06405 0.11450
H2 H -0.04762 -0.04390 0.08315
H3 H -0.07012 -0.03564 0.20152
H4 H -0.40650 0.06720 0.05223
H5 H -0.16040 0.20527 0.43458
H6 H -0.14762 0.11924 0.37982
H7 H -0.03471 0.17820 0.26744
H8 H -0.04764 0.26429 0.32204
H9 H -0.39077 0.30791 0.24128
H10 H -0.29616 0.32061 0.34633
H11 H -0.14099 0.36455 0.24733
H12 H -0.23348 0.34985 0.14164
H13 H -0.18008 0.48963 0.36310
H14 H -0.25766 0.62156 0.37913
H15 H -0.43012 0.66660 0.25899
H16 H -0.52641 0.58026 0.12473
H17 H -0.45773 0.43918 0.11613
H18 H 0.00676 0.25129 0.57257
H19 H 0.17882 0.21130 0.69897
H20 H 0.28981 0.09838 0.68566
H21 H 0.27383 0.02332 0.52250
H22 H 0.12680 0.08149 0.37744
H23 H -0.54441 0.23767 -0.11218
H24 H -0.67894 0.19800 -0.13468
H25 H -0.63059 0.23559 -0.02360
loop_
_geom_bond_atom_site_label_1
_geom_bond_atom_site_label_2
_geom_bond_site_symmetry_1
_geom_bond_site_symmetry_2
C1 C3 1_555 1_555
O1 C2 1_555 1_555
O2 C3 1_555 1_555
O3 C6 1_555 1_555
O4 C22 1_555 1_555
N1 C2 1_555 1_555
C2 C3 1_555 1_555
C4 C1 1_555 1_555
C5 C4 1_555 1_555
C6 N1 1_555 1_555
C7 C6 1_555 1_555
C8 C1 1_555 1_555
C9 C8 1_555 1_555
C10 C9 1_555 1_555
C11 C10 1_555 1_555
C12 C11 1_555 1_555
C13 C12 1_555 1_555
C14 C13 1_555 1_555
C15 C10 1_555 1_555
C16 C5 1_555 1_555
C17 C16 1_555 1_555
C18 C17 1_555 1_555
C19 C18 1_555 1_555
C20 C19 1_555 1_555
C21 C16 1_555 1_555
C22 O2 1_555 1_555
C23 C22 1_555 1_555
H1 C23 1_555 1_555
H2 C23 1_555 1_555
H3 C23 1_555 1_555
H4 N1 1_555 1_555
H5 C4 1_555 1_555
H6 C4 1_555 1_555
H7 C5 1_555 1_555
H8 C5 1_555 1_555
H9 C8 1_555 1_555
H10 C8 1_555 1_555
H11 C9 1_555 1_555
H12 C9 1_555 1_555
H13 C11 1_555 1_555
H14 C12 1_555 1_555
H15 C13 1_555 1_555
H16 C14 1_555 1_555
H17 C15 1_555 1_555
H18 C17 1_555 1_555
H19 C18 1_555 1_555
H20 C19 1_555 1_555
H21 C20 1_555 1_555
H22 C21 1_555 1_555
H23 C7 1_555 1_555
H24 C7 1_555 1_555
H25 C7 1_555 1_555
C14 C15 1_555 1_555
C20 C21 1_555 1_555

#END
