
#######################################################################
#
#                 Cambridge Crystallographic Data Centre
#                                CCDC 
#
#######################################################################
#
# If this CIF has been generated from an entry in the Cambridge 
# Structural Database, then it will include bibliographic, chemical, 
# crystal, experimental, refinement or atomic coordinate data resulting 
# from the CCDC's data processing and validation procedures.
#
#######################################################################

data_AXUBUR02
_chemical_formula_moiety         'C8 H5 F1'
_chemical_name_systematic        1-ethynyl-2-fluorobenzene
_symmetry_cell_setting           monoclinic
_symmetry_space_group_name_H-M   'P 21'
_symmetry_Int_Tables_number      4
_space_group_name_Hall           'P 2yb'
loop_
_symmetry_equiv_pos_site_id
_symmetry_equiv_pos_as_xyz
1 x,y,z
2 -x,1/2+y,-z
_cell_length_a                   3.9343(7)
_cell_length_b                   5.9336(10)
_cell_length_c                   12.962(4)
_cell_angle_alpha                90
_cell_angle_beta                 98.467(9)
_cell_angle_gamma                90
_cell_volume                     299.294
_exptl_crystal_colour            'light colorless'
_exptl_crystal_description       Cylinder
_cell_formula_units_Z            2
loop_
_atom_site_label
_atom_site_type_symbol
_atom_site_fract_x
_atom_site_fract_y
_atom_site_fract_z
C1 C 0.0285(14) 0.1232(10) 0.2665(9)
H1 H -0.0958 -0.0077 0.2481
C2 C 0.3749(13) 0.5082(8) 0.3232(10)
C3 C 0.2857(14) 0.4710(8) 0.2200(11)
C4 C 0.2978(13) 0.3671(8) 0.3996(9)
H2 H 0.3584 0.4010 0.4700
C5 C 0.1103(15) 0.2653(8) 0.1893(10)
H3 H 0.0527 0.2281 0.1192
F1 F 0.5545(10) 0.6942(5) 0.3515(6)
C6 C 0.3745(14) 0.6204(9) 0.1410(9)
C7 C 0.4492(16) 0.7492(10) 0.0818(8)
H4 H 0.5095 0.8533 0.0340
C8 C 0.1253(14) 0.1714(10) 0.3669(10)
H5 H 0.0747 0.0692 0.4169
H6? H 0.4972 0.6388 0.3436
F2? F 0.040(7) 0.226(4) 0.107(3)
loop_
_geom_bond_atom_site_label_1
_geom_bond_atom_site_label_2
_geom_bond_site_symmetry_1
_geom_bond_site_symmetry_2
C1 H1 1_555 1_555
C2 C3 1_555 1_555
C3 C5 1_555 1_555
C4 C2 1_555 1_555
H2 C4 1_555 1_555
C5 C1 1_555 1_555
H3 C5 1_555 1_555
F1 C2 1_555 1_555
C6 C3 1_555 1_555
C7 C6 1_555 1_555
H4 C7 1_555 1_555
C8 C1 1_555 1_555
H5 C8 1_555 1_555
C4 C8 1_555 1_555

#END
