
#######################################################################
#
#                 Cambridge Crystallographic Data Centre
#                                CCDC 
#
#######################################################################
#
# If this CIF has been generated from an entry in the Cambridge 
# Structural Database, then it will include bibliographic, chemical, 
# crystal, experimental, refinement or atomic coordinate data resulting 
# from the CCDC's data processing and validation procedures.
#
#######################################################################

data_AXUHAE
_chemical_formula_moiety         'C20 H22 N6 O6'
_chemical_name_systematic        
N-(2-(5-cyano-3-((4-methoxy-2-nitrophenyl)hydrazono)-4-methyl-2,6-dioxo-3,6-dihydropyridin-1(2H)-yl)ethyl)-N-ethylacetamide
_symmetry_cell_setting           orthorhombic
_symmetry_space_group_name_H-M   'P n a 21'
_symmetry_Int_Tables_number      33
_space_group_name_Hall           'P 2c -2n'
loop_
_symmetry_equiv_pos_site_id
_symmetry_equiv_pos_as_xyz
1 x,y,z
2 -x,-y,1/2+z
3 1/2+x,1/2-y,z
4 1/2-x,1/2+y,1/2+z
_cell_length_a                   17.441(5)
_cell_length_b                   24.502(7)
_cell_length_c                   4.8317(15)
_cell_angle_alpha                90
_cell_angle_beta                 90
_cell_angle_gamma                90
_cell_volume                     2064.78
_exptl_crystal_colour            orange
_exptl_crystal_description       needle
_cell_formula_units_Z            4
loop_
_atom_site_label
_atom_site_type_symbol
_atom_site_fract_x
_atom_site_fract_y
_atom_site_fract_z
C1 C 0.6654(2) 0.47208(18) 0.6988(9)
C2 C 0.6131(3) 0.46165(19) 0.9136(9)
C3 C 0.5804(3) 0.50346(18) 1.0646(10)
H1 H 0.5466 0.4955 1.2077
C4 C 0.5977(2) 0.5570(2) 1.0037(11)
C5 C 0.6483(3) 0.56830(19) 0.7906(10)
H2 H 0.6602 0.6043 0.7478
C6 C 0.6816(2) 0.52614(19) 0.6401(10)
H3 H 0.7153 0.5344 0.4972
C7 C 0.5790(3) 0.65138(19) 1.1148(14)
H4 H 0.5647 0.6605 0.9285
H5 H 0.6328 0.6580 1.1401
H6 H 0.5503 0.6735 1.2419
C8 C 0.7865(2) 0.40222(17) 0.2226(10)
C9 C 0.7664(2) 0.34494(19) 0.2512(10)
C10 C 0.8545(2) 0.3221(2) -0.1288(11)
C11 C 0.8757(2) 0.3797(2) -0.1377(10)
C12 C 0.8441(2) 0.41866(17) 0.0228(10)
C13 C 0.9335(3) 0.3926(2) -0.3351(11)
C14 C 0.8682(3) 0.47709(18) 0.0050(12)
H7 H 0.9022 0.4818 -0.1494
H8 H 0.8941 0.4873 0.1725
H9 H 0.8238 0.4997 -0.0194
C15 C 0.7799(3) 0.25073(18) 0.1095(10)
H10 H 0.7719 0.2421 0.3033
H11 H 0.8206 0.2274 0.0402
C16 C 0.7064(3) 0.23988(19) -0.0519(11)
H12 H 0.6738 0.2719 -0.0430
H13 H 0.7191 0.2335 -0.2447
C17 C 0.6812(3) 0.1432(2) -0.0384(11)
C18 C 0.6350(3) 0.09655(19) 0.0735(14)
H14 H 0.6488 0.0636 -0.0219
H15 H 0.5814 0.1038 0.0465
H16 H 0.6452 0.0924 0.2676
C19 C 0.6057(3) 0.2052(2) 0.2716(12)
H17 H 0.5961 0.1725 0.3793
H18 H 0.6250 0.2330 0.3961
C20 C 0.5326(3) 0.2242(3) 0.1455(16)
H19 H 0.5149 0.1975 0.0147
H20 H 0.5410 0.2583 0.0526
H21 H 0.4948 0.2290 0.2878
N1 N 0.5904(2) 0.40633(16) 0.9911(9)
N2 N 0.7010(2) 0.43021(15) 0.5486(8)
H22 H 0.6882 0.3968 0.5763
N3 N 0.7540(2) 0.44220(14) 0.3656(8)
N4 N 0.8026(2) 0.30783(14) 0.0820(8)
N5 N 0.9792(3) 0.40476(19) -0.4938(10)
N6 N 0.6648(2) 0.19324(16) 0.0552(9)
O1 O 0.56268(18) 0.59471(13) 1.1656(7)
O2 O 0.5495(2) 0.40026(14) 1.1940(9)
O3 O 0.61463(18) 0.36734(14) 0.8559(8)
O4 O 0.71947(18) 0.32940(12) 0.4260(7)
O5 O 0.87860(17) 0.28799(13) -0.2887(7)
O6 O 0.7324(2) 0.13583(15) -0.2071(9)
loop_
_geom_bond_atom_site_label_1
_geom_bond_atom_site_label_2
_geom_bond_site_symmetry_1
_geom_bond_site_symmetry_2
C1 C2 1_555 1_555
C2 C3 1_555 1_555
C3 H1 1_555 1_555
C4 C3 1_555 1_555
C5 C4 1_555 1_555
H2 C5 1_555 1_555
C6 C1 1_555 1_555
H3 C6 1_555 1_555
C7 H4 1_555 1_555
H5 C7 1_555 1_555
H6 C7 1_555 1_555
C8 C9 1_555 1_555
C9 N4 1_555 1_555
C10 C11 1_555 1_555
C11 C12 1_555 1_555
C12 C8 1_555 1_555
C13 C11 1_555 1_555
C14 C12 1_555 1_555
H7 C14 1_555 1_555
H8 C14 1_555 1_555
H9 C14 1_555 1_555
C15 H10 1_555 1_555
H11 C15 1_555 1_555
C16 C15 1_555 1_555
H12 C16 1_555 1_555
H13 C16 1_555 1_555
C17 C18 1_555 1_555
C18 H14 1_555 1_555
H15 C18 1_555 1_555
H16 C18 1_555 1_555
C19 H17 1_555 1_555
H18 C19 1_555 1_555
C20 C19 1_555 1_555
H19 C20 1_555 1_555
H20 C20 1_555 1_555
H21 C20 1_555 1_555
N1 C2 1_555 1_555
N2 C1 1_555 1_555
H22 N2 1_555 1_555
N3 C8 1_555 1_555
N4 C10 1_555 1_555
N5 C13 1_555 1_555
N6 C16 1_555 1_555
O1 C4 1_555 1_555
O2 N1 1_555 1_555
O3 N1 1_555 1_555
O4 C9 1_555 1_555
O5 C10 1_555 1_555
O6 C17 1_555 1_555
C5 C6 1_555 1_555
C7 O1 1_555 1_555
C15 N4 1_555 1_555
C17 N6 1_555 1_555
C19 N6 1_555 1_555
N2 N3 1_555 1_555

#END
