
#######################################################################
#
#                 Cambridge Crystallographic Data Centre
#                                CCDC 
#
#######################################################################
#
# If this CIF has been generated from an entry in the Cambridge 
# Structural Database, then it will include bibliographic, chemical, 
# crystal, experimental, refinement or atomic coordinate data resulting 
# from the CCDC's data processing and validation procedures.
#
#######################################################################

data_AXUQIT
_chemical_formula_moiety         'C9 H13 N4 O2 1+,F6 P1 1-'
_chemical_name_systematic        
'1,3,7,9-Tetramethylxanthinium hexafluorophosphate'
_symmetry_cell_setting           monoclinic
_symmetry_space_group_name_H-M   'P 21/c'
_symmetry_Int_Tables_number      14
_space_group_name_Hall           '-P 2ybc'
loop_
_symmetry_equiv_pos_site_id
_symmetry_equiv_pos_as_xyz
1 x,y,z
2 x,1/2-y,1/2+z
3 -x,-y,-z
4 -x,1/2+y,1/2-z
_cell_length_a                   12.7755(15)
_cell_length_b                   6.4242(7)
_cell_length_c                   17.118(2)
_cell_angle_alpha                90
_cell_angle_beta                 111.836(2)
_cell_angle_gamma                90
_cell_volume                     1304.12
_exptl_crystal_colour            colorless
_exptl_crystal_description       plate
_chemical_melting_point          240deg.C
_cell_formula_units_Z            4
loop_
_atom_site_label
_atom_site_type_symbol
_atom_site_fract_x
_atom_site_fract_y
_atom_site_fract_z
P1 P 0.39110(6) -0.01576(13) 0.10095(5)
F1 F 0.3700(2) 0.2255(4) 0.10638(16)
F2 F 0.32769(17) -0.0128(3) 0.00213(12)
F3 F 0.50885(17) 0.0277(4) 0.09295(15)
F4 F 0.45514(19) -0.0252(4) 0.20219(13)
F5 F 0.41489(16) -0.2606(3) 0.09826(12)
F6 F 0.27597(18) -0.0650(5) 0.11163(16)
O1 O -0.00032(17) 0.2290(3) 0.44377(13)
O2 O 0.08075(18) 0.6938(3) 0.27326(13)
N1 N 0.2628(2) 0.3922(4) 0.27293(15)
N2 N 0.30285(19) 0.1166(4) 0.35345(15)
N3 N 0.15321(19) 0.1566(4) 0.41180(14)
N4 N 0.0462(2) 0.4670(4) 0.36439(14)
C1 C 0.2662(3) 0.5483(6) 0.2112(2)
C2 C 0.3292(2) 0.2300(5) 0.29756(18)
C3 C 0.3682(3) -0.0678(5) 0.3955(2)
C4 C 0.2132(2) 0.2145(5) 0.36423(17)
C5 C 0.1784(3) -0.0284(5) 0.4663(2)
C6 C 0.0620(2) 0.2798(5) 0.40832(16)
C7 C -0.0509(3) 0.5913(6) 0.3632(2)
C8 C 0.1024(2) 0.5324(5) 0.31286(17)
C9 C 0.1886(2) 0.3873(5) 0.31512(17)
H1 H 0.289(3) 0.682(7) 0.241(3)
H2 H 0.194(3) 0.569(6) 0.168(2)
H3 H 0.318(3) 0.507(6) 0.189(2)
H4 H 0.385(3) 0.203(5) 0.282(2)
H5 H 0.322(3) -0.189(6) 0.386(2)
H6 H 0.429(3) -0.078(6) 0.376(2)
H7 H 0.401(3) -0.046(6) 0.458(3)
H8 H 0.122(3) -0.039(5) 0.487(2)
H9 H 0.178(3) -0.147(7) 0.433(3)
H10 H 0.251(3) -0.013(5) 0.512(2)
H11 H -0.115(3) 0.530(6) 0.328(3)
H12 H -0.040(3) 0.727(6) 0.347(2)
H13 H -0.046(3) 0.604(6) 0.421(3)
loop_
_geom_bond_atom_site_label_1
_geom_bond_atom_site_label_2
_geom_bond_site_symmetry_1
_geom_bond_site_symmetry_2
P1 F1 1_555 1_555
F2 P1 1_555 1_555
F3 P1 1_555 1_555
F4 P1 1_555 1_555
F5 P1 1_555 1_555
F6 P1 1_555 1_555
O1 C6 1_555 1_555
O2 C8 1_555 1_555
N1 C1 1_555 1_555
N2 C2 1_555 1_555
N3 C4 1_555 1_555
N4 C6 1_555 1_555
C1 H1 1_555 1_555
C2 N1 1_555 1_555
C3 N2 1_555 1_555
C4 N2 1_555 1_555
C5 N3 1_555 1_555
C6 N3 1_555 1_555
C7 N4 1_555 1_555
C8 N4 1_555 1_555
C9 N1 1_555 1_555
H2 C1 1_555 1_555
H3 C1 1_555 1_555
H4 C2 1_555 1_555
H5 C3 1_555 1_555
H6 C3 1_555 1_555
H7 C3 1_555 1_555
H8 C5 1_555 1_555
H9 C5 1_555 1_555
H10 C5 1_555 1_555
H11 C7 1_555 1_555
H12 C7 1_555 1_555
H13 C7 1_555 1_555
C4 C9 1_555 1_555
C8 C9 1_555 1_555

#END
