
#######################################################################
#
#                 Cambridge Crystallographic Data Centre
#                                CCDC 
#
#######################################################################
#
# If this CIF has been generated from an entry in the Cambridge 
# Structural Database, then it will include bibliographic, chemical, 
# crystal, experimental, refinement or atomic coordinate data resulting 
# from the CCDC's data processing and validation procedures.
#
#######################################################################

data_AYASIE
_chemical_name_common            
'4-[bis(2,4,6-trichlorophenyl)methyl radical]-3,5-dichloropyridine[tris(pentafluorophenyl)]boron'
_chemical_formula_moiety         'C36 H6 B1 Cl8 F15 N1'
_chemical_name_systematic        
'[3,5-dichloro-1-(tris(pentafluorophenyl)boraunidyl)pyridin-1-ium-4-yl]bis(2,4,6-trichlorophenyl)methyl radical'
_symmetry_cell_setting           monoclinic
_symmetry_space_group_name_H-M   'P 21/c'
_symmetry_Int_Tables_number      14
_space_group_name_Hall           '-P 2ybc'
loop_
_symmetry_equiv_pos_site_id
_symmetry_equiv_pos_as_xyz
1 x,y,z
2 -x,1/2+y,1/2-z
3 -x,-y,-z
4 x,1/2-y,1/2+z
_cell_length_a                   15.446(4)
_cell_length_b                   8.397(2)
_cell_length_c                   28.324(7)
_cell_angle_alpha                90
_cell_angle_beta                 91.897(2)
_cell_angle_gamma                90
_cell_volume                     3671.61
_exptl_crystal_colour            red
_exptl_crystal_description       Block
_cell_formula_units_Z            4
loop_
_atom_site_label
_atom_site_type_symbol
_atom_site_fract_x
_atom_site_fract_y
_atom_site_fract_z
B1 B 0.7609(2) 0.1930(4) 0.04973(12)
C1 C 0.74068(19) -0.0039(4) -0.15114(10)
C2 C 0.74762(18) -0.0233(4) -0.01738(10)
H1 H 0.7475 -0.1024 0.0066
C3 C 0.74268(18) -0.0695(3) -0.06398(10)
C4 C 0.74081(17) 0.0419(4) -0.10135(10)
C5 C 0.74036(19) 0.2015(4) -0.08594(10)
C6 C 0.74709(19) 0.2425(4) -0.03915(10)
H2 H 0.7479 0.3519 -0.0306
C7 C 0.8980(2) 0.2807(4) -0.23852(12)
C8 C 0.8157(2) 0.2433(4) -0.25425(11)
H3 H 0.7931 0.2844 -0.2834
C9 C 0.7661(2) 0.1445(4) -0.22695(11)
C10 C 0.7958(2) 0.0838(4) -0.18276(11)
C11 C 0.8823(2) 0.1233(4) -0.16978(11)
C12 C 0.9328(2) 0.2216(4) -0.19670(12)
H4 H 0.9903 0.2478 -0.1866
C13 C 0.5782(2) -0.3948(4) -0.19156(12)
C14 C 0.6639(2) -0.3953(4) -0.20436(11)
H5 H 0.6869 -0.4831 -0.221
C15 C 0.7155(2) -0.2657(4) -0.19254(11)
C16 C 0.68424(19) -0.1339(4) -0.16767(10)
C17 C 0.5955(2) -0.1386(4) -0.15714(11)
C18 C 0.5425(2) -0.2659(4) -0.16902(12)
H6 H 0.4829 -0.2648 -0.1618
C19 C 0.5174(2) 0.4777(5) 0.05731(13)
C20 C 0.5163(2) 0.3178(5) 0.04726(12)
C21 C 0.5934(2) 0.2371(4) 0.04559(11)
C22 C 0.6745(2) 0.3055(4) 0.05347(11)
C23 C 0.6716(2) 0.4673(4) 0.06156(12)
C24 C 0.5959(3) 0.5546(4) 0.06441(13)
C25 C 0.7898(3) -0.2127(4) 0.15086(12)
C26 C 0.8455(2) -0.1927(4) 0.11492(12)
C27 C 0.8322(2) -0.0684(4) 0.08366(11)
C28 C 0.7647(2) 0.0407(4) 0.08607(11)
C29 C 0.7118(2) 0.0166(4) 0.12419(11)
C30 C 0.7228(3) -0.1089(5) 0.15573(12)
C31 C 1.0173(2) 0.4048(4) 0.09111(12)
C32 C 0.9506(2) 0.3910(4) 0.12193(11)
C33 C 0.8724(2) 0.3341(4) 0.10579(11)
C34 C 0.85450(19) 0.2814(4) 0.05978(10)
C35 C 0.9249(2) 0.2917(4) 0.03087(11)
C36 C 1.0047(2) 0.3529(4) 0.04546(12)
N1 N 0.75254(15) 0.1309(3) -0.00491(8)
F1 F 0.44324(14) 0.5609(3) 0.05949(8)
F2 F 0.44026(13) 0.2430(3) 0.03850(8)
F3 F 0.58814(12) 0.0790(2) 0.03584(7)
F4 F 0.74567(13) 0.5529(2) 0.06708(8)
F5 F 0.59805(16) 0.7107(3) 0.07314(9)
F6 F 0.80089(17) -0.3365(3) 0.18102(8)
F7 F 0.91166(14) -0.2937(2) 0.10924(8)
F8 F 0.88947(11) -0.0554(2) 0.04876(7)
F9 F 0.64686(13) 0.1184(3) 0.13328(7)
F10 F 0.66733(16) -0.1267(3) 0.19096(7)
F11 F 1.09285(12) 0.4715(2) 0.10551(8)
F12 F 0.96235(13) 0.4419(2) 0.16696(7)
F13 F 0.80773(12) 0.3300(2) 0.13712(6)
F14 F 0.91945(11) 0.2403(2) -0.01449(6)
F15 F 1.06908(12) 0.3641(3) 0.01493(7)
Cl1 Cl 0.74847(5) -0.27180(9) -0.07408(3)
Cl2 Cl 0.72530(5) 0.35725(9) -0.12536(3)
Cl3 Cl 0.66133(6) 0.10705(12) -0.24739(3)
Cl4 Cl 0.93167(5) 0.03816(11) -0.11972(3)
Cl5 Cl 0.96040(7) 0.40555(12) -0.27236(3)
Cl6 Cl 0.82405(5) -0.27762(10) -0.20571(3)
Cl7 Cl 0.54864(5) 0.02516(10) -0.13091(3)
Cl8 Cl 0.51471(7) -0.56110(11) -0.20380(4)
loop_
_geom_bond_atom_site_label_1
_geom_bond_atom_site_label_2
_geom_bond_site_symmetry_1
_geom_bond_site_symmetry_2
B1 C22 1_555 1_555
C1 C4 1_555 1_555
C2 H1 1_555 1_555
C3 C2 1_555 1_555
C4 C3 1_555 1_555
C5 C4 1_555 1_555
C6 C5 1_555 1_555
H2 C6 1_555 1_555
C7 C8 1_555 1_555
C8 H3 1_555 1_555
C9 C8 1_555 1_555
C10 C1 1_555 1_555
C11 C10 1_555 1_555
C12 C7 1_555 1_555
H4 C12 1_555 1_555
C13 C14 1_555 1_555
C14 H5 1_555 1_555
C15 C14 1_555 1_555
C16 C1 1_555 1_555
C17 C16 1_555 1_555
C18 C13 1_555 1_555
H6 C18 1_555 1_555
C19 C20 1_555 1_555
C20 C21 1_555 1_555
C21 C22 1_555 1_555
C22 C23 1_555 1_555
C23 C24 1_555 1_555
C24 C19 1_555 1_555
C25 C26 1_555 1_555
C26 C27 1_555 1_555
C27 C28 1_555 1_555
C28 B1 1_555 1_555
C29 C28 1_555 1_555
C30 C25 1_555 1_555
C31 C32 1_555 1_555
C32 C33 1_555 1_555
C33 C34 1_555 1_555
C34 B1 1_555 1_555
C35 C34 1_555 1_555
C36 C31 1_555 1_555
N1 B1 1_555 1_555
F1 C19 1_555 1_555
F2 C20 1_555 1_555
F3 C21 1_555 1_555
F4 C23 1_555 1_555
F5 C24 1_555 1_555
F6 C25 1_555 1_555
F7 C26 1_555 1_555
F8 C27 1_555 1_555
F9 C29 1_555 1_555
F10 C30 1_555 1_555
F11 C31 1_555 1_555
F12 C32 1_555 1_555
F13 C33 1_555 1_555
F14 C35 1_555 1_555
F15 C36 1_555 1_555
Cl1 C3 1_555 1_555
Cl2 C5 1_555 1_555
Cl3 C9 1_555 1_555
Cl4 C11 1_555 1_555
Cl5 C7 1_555 1_555
Cl6 C15 1_555 1_555
Cl7 C17 1_555 1_555
Cl8 C13 1_555 1_555
C2 N1 1_555 1_555
C6 N1 1_555 1_555
C9 C10 1_555 1_555
C11 C12 1_555 1_555
C15 C16 1_555 1_555
C17 C18 1_555 1_555
C29 C30 1_555 1_555
C35 C36 1_555 1_555

#END
