
#######################################################################
#
#                 Cambridge Crystallographic Data Centre
#                                CCDC 
#
#######################################################################
#
# If this CIF has been generated from an entry in the Cambridge 
# Structural Database, then it will include bibliographic, chemical, 
# crystal, experimental, refinement or atomic coordinate data resulting 
# from the CCDC's data processing and validation procedures.
#
#######################################################################

data_AYASEA
_chemical_formula_moiety         'C19 H9 Cl8 N1 1+,B1 F4 1-'
_chemical_name_systematic        
'(3,5-dichloro-1-methylpyridin-1-ium-4-yl)bis(2,4,6-trichlorophenyl)methyl radical tetrafluoroborate'
_symmetry_cell_setting           monoclinic
_symmetry_space_group_name_H-M   'P 21/a'
_symmetry_Int_Tables_number      14
_space_group_name_Hall           '-P 2yab'
loop_
_symmetry_equiv_pos_site_id
_symmetry_equiv_pos_as_xyz
1 x,y,z
2 1/2-x,1/2+y,-z
3 -x,-y,-z
4 1/2+x,1/2-y,z
_cell_length_a                   15.669(3)
_cell_length_b                   7.8581(16)
_cell_length_c                   19.101(4)
_cell_angle_alpha                90
_cell_angle_beta                 91.318(2)
_cell_angle_gamma                90
_cell_volume                     2351.26
_exptl_crystal_colour            red
_exptl_crystal_description       Block
_cell_formula_units_Z            4
loop_
_atom_site_label
_atom_site_type_symbol
_atom_site_fract_x
_atom_site_fract_y
_atom_site_fract_z
Cl1 Cl 0.55609(7) -0.18941(15) 0.40354(6)
Cl2 Cl 0.72700(7) 0.19324(15) 0.37336(6)
Cl3 Cl 0.45369(7) 0.00915(16) 0.20709(6)
Cl4 Cl 0.82402(7) -0.11894(17) 0.22702(6)
Cl5 Cl 0.41972(7) 0.45945(15) 0.41291(7)
Cl6 Cl 0.85783(8) -0.47911(16) 0.46096(6)
Cl7 Cl 0.58040(8) -0.41306(15) 0.22599(6)
Cl8 Cl 0.68747(9) 0.22630(15) 0.16330(6)
N1 N 0.6318(3) -0.1761(5) 0.0517(2)
C1 C 0.6901(3) -0.1575(5) 0.3157(2)
C2 C 0.4842(3) 0.3253(6) 0.3667(2)
C3 C 0.6189(3) 0.1953(5) 0.3501(2)
C4 C 0.7754(3) -0.2015(6) 0.2998(2)
C5 C 0.5016(3) 0.1229(6) 0.2748(2)
C6 C 0.5878(3) 0.0891(5) 0.2955(2)
C7 C 0.7100(3) -0.3202(6) 0.4246(2)
H1 H 0.6881 -0.36 0.4676
C8 C 0.7935(3) -0.3591(6) 0.4049(3)
C9 C 0.6605(3) -0.2216(6) 0.3791(2)
C10 C 0.6113(3) -0.2964(6) 0.0987(2)
H2 H 0.5954 -0.4073 0.0835
C11 C 0.6541(3) -0.0180(6) 0.0720(3)
H3 H 0.6695 0.0641 0.038
C12 C 0.6546(3) 0.0241(6) 0.1408(2)
C13 C 0.5696(3) 0.3092(6) 0.3863(3)
H4 H 0.5934 0.3748 0.4237
C14 C 0.8259(3) -0.3029(6) 0.3426(3)
H5 H 0.8819 -0.3334 0.3293
C15 C 0.6135(3) -0.2568(6) 0.1688(2)
C16 C 0.4506(3) 0.2382(6) 0.3091(2)
H6 H 0.3935 0.2576 0.2934
C17 C 0.6344(3) -0.0934(6) 0.1937(2)
C18 C 0.6378(3) -0.0512(6) 0.2682(2)
C19 C 0.6298(4) -0.2204(7) -0.0238(3)
H7 H 0.5777 -0.1744 -0.046
H8 H 0.6305 -0.3444 -0.0291
H9 H 0.6798 -0.1715 -0.0462
F1 F 0.8115(4) -0.2149(18) 0.0457(6)
F2 F 0.9170(2) -0.0777(4) 0.10020(16)
F3 F 0.9271(6) -0.1410(8) -0.0150(3)
F4 F 0.9382(8) -0.3408(13) 0.0651(5)
B1 B 0.8923(5) -0.1959(9) 0.0504(3)
F5? F 0.8200(8) -0.3032(15) 0.0798(7)
F6? F 0.9491(12) -0.314(3) 0.0346(14)
F7? F 0.8488(11) -0.1230(14) -0.0047(6)
loop_
_geom_bond_atom_site_label_1
_geom_bond_atom_site_label_2
_geom_bond_site_symmetry_1
_geom_bond_site_symmetry_2
Cl1 C9 1_555 1_555
Cl2 C3 1_555 1_555
Cl3 C5 1_555 1_555
Cl4 C4 1_555 1_555
Cl5 C2 1_555 1_555
Cl6 C8 1_555 1_555
Cl7 C15 1_555 1_555
Cl8 C12 1_555 1_555
N1 C10 1_555 1_555
C1 C4 1_555 1_555
C2 C13 1_555 1_555
C3 C6 1_555 1_555
C4 C14 1_555 1_555
C5 C6 1_555 1_555
C6 C18 1_555 1_555
C7 H1 1_555 1_555
C8 C7 1_555 1_555
C9 C1 1_555 1_555
C10 H2 1_555 1_555
C11 N1 1_555 1_555
H3 C11 1_555 1_555
C12 C11 1_555 1_555
C13 C3 1_555 1_555
H4 C13 1_555 1_555
C14 C8 1_555 1_555
H5 C14 1_555 1_555
C15 C10 1_555 1_555
C16 C2 1_555 1_555
H6 C16 1_555 1_555
C17 C12 1_555 1_555
C18 C1 1_555 1_555
C19 N1 1_555 1_555
H7 C19 1_555 1_555
H8 C19 1_555 1_555
H9 C19 1_555 1_555
F1 B1 1_555 1_555
F2 B1 1_555 1_555
F3 B1 1_555 1_555
F4 B1 1_555 1_555
C5 C16 1_555 1_555
C7 C9 1_555 1_555
C15 C17 1_555 1_555
C17 C18 1_555 1_555

#END
