
#######################################################################
#
#                 Cambridge Crystallographic Data Centre
#                                CCDC 
#
#######################################################################
#
# If this CIF has been generated from an entry in the Cambridge 
# Structural Database, then it will include bibliographic, chemical, 
# crystal, experimental, refinement or atomic coordinate data resulting 
# from the CCDC's data processing and validation procedures.
#
#######################################################################

data_AYEFEP
_chemical_name_common            
trans-5,5'-((But-2-ene-1,4-diyl)dithio)-bis(1-phenyl-1,2,3,4-tetrazole)
_chemical_formula_moiety         'C18 H16 N8 S2'
_chemical_name_systematic        
trans-1,4-bis((1-Phenyl-1,2,3,4-tetrazol-5-yl)thio)but-2-ene
_symmetry_cell_setting           monoclinic
_symmetry_space_group_name_H-M   'P 21/c'
_symmetry_Int_Tables_number      14
_space_group_name_Hall           '-P 2ybc'
loop_
_symmetry_equiv_pos_site_id
_symmetry_equiv_pos_as_xyz
1 x,y,z
2 x,1/2-y,1/2+z
3 -x,-y,-z
4 -x,1/2+y,1/2-z
_cell_length_a                   9.727(3)
_cell_length_b                   12.770(4)
_cell_length_c                   15.947(6)
_cell_angle_alpha                90
_cell_angle_beta                 100.332(6)
_cell_angle_gamma                90
_cell_volume                     1948.72
_exptl_crystal_colour            colorless
_exptl_crystal_description       prism
_chemical_melting_point          '405 K'
_cell_formula_units_Z            4
_exptl_crystal_recrystallization_method acetonitrile
loop_
_atom_site_label
_atom_site_type_symbol
_atom_site_fract_x
_atom_site_fract_y
_atom_site_fract_z
S1 S 0.94012(5) -0.01410(4) 0.16461(4)
S2 S 0.56451(5) 0.10776(4) -0.14436(4)
N1 N 0.84945(17) 0.18624(14) 0.17421(11)
N2 N 0.68139(18) 0.07358(16) 0.16311(14)
N3 N 0.6311(2) 0.17264(18) 0.16686(16)
N4 N 0.7300(2) 0.24115(16) 0.17412(14)
N5 N 0.67510(18) 0.29875(14) -0.10188(11)
N6 N 0.83367(18) 0.18473(15) -0.11681(13)
N7 N 0.8916(2) 0.28087(18) -0.09981(15)
N8 N 0.8000(2) 0.35044(16) -0.09111(14)
C1 C 0.9811(2) 0.23763(17) 0.17667(13)
C2 C 1.0971(2) 0.20098(18) 0.23056(14)
H1 H 1.0900 0.1451 0.2670
C3 C 1.2241(2) 0.2480(2) 0.22998(17)
H2 H 1.3039 0.2228 0.2652
C4 C 1.2334(3) 0.3308(2) 0.1784(2)
H3 H 1.3199 0.3618 0.1781
C5 C 1.1175(3) 0.3695(2) 0.12670(19)
H4 H 1.1249 0.4281 0.0931
C6 C 0.9883(3) 0.32171(19) 0.12401(16)
H5 H 0.9092 0.3460 0.0876
C7 C 0.8179(2) 0.08359(17) 0.16754(13)
C8 C 0.8330(2) -0.10676(16) 0.09474(14)
H6 H 0.8787 -0.1746 0.0992
H7 H 0.7436 -0.1147 0.1129
C9 C 0.8094(2) -0.07177(16) 0.00485(14)
H8 H 0.8870 -0.0656 -0.0215
C10 C 0.6880(2) -0.04913(16) -0.03975(14)
H9 H 0.6110 -0.0551 -0.0129
C11 C 0.6618(2) -0.01445(16) -0.13034(14)
H10 H 0.6096 -0.0683 -0.1654
H11 H 0.7504 -0.0053 -0.1492
C12 C 0.6987(2) 0.19758(16) -0.11852(13)
C13 C 0.5475(2) 0.35120(17) -0.09497(14)
C14 C 0.5113(3) 0.44014(18) -0.14219(16)
H12 H 0.5683 0.4659 -0.1784
C15 C 0.3883(3) 0.4906(2) -0.13476(19)
H13 H 0.3633 0.5522 -0.1648
C16 C 0.3033(3) 0.4499(2) -0.0830(2)
H14 H 0.2199 0.4835 -0.0790
C17 C 0.3395(3) 0.3608(2) -0.03732(19)
H15 H 0.2801 0.3332 -0.0033
C18 C 0.4644(3) 0.31147(19) -0.04161(15)
H16 H 0.4917 0.2523 -0.0089
loop_
_geom_bond_atom_site_label_1
_geom_bond_atom_site_label_2
_geom_bond_site_symmetry_1
_geom_bond_site_symmetry_2
S1 C7 1_555 1_555
S2 C11 1_555 1_555
N1 N4 1_555 1_555
N2 N3 1_555 1_555
N3 N4 1_555 1_555
N5 N8 1_555 1_555
N6 N7 1_555 1_555
N7 N8 1_555 1_555
C1 N1 1_555 1_555
C2 C1 1_555 1_555
H1 C2 1_555 1_555
C3 C2 1_555 1_555
H2 C3 1_555 1_555
C4 C3 1_555 1_555
H3 C4 1_555 1_555
C5 C4 1_555 1_555
H4 C5 1_555 1_555
C6 C1 1_555 1_555
H5 C6 1_555 1_555
C7 N1 1_555 1_555
C8 S1 1_555 1_555
H6 C8 1_555 1_555
H7 C8 1_555 1_555
C9 C8 1_555 1_555
H8 C9 1_555 1_555
C10 C9 1_555 1_555
H9 C10 1_555 1_555
C11 C10 1_555 1_555
H10 C11 1_555 1_555
H11 C11 1_555 1_555
C12 S2 1_555 1_555
C13 N5 1_555 1_555
C14 C13 1_555 1_555
H12 C14 1_555 1_555
C15 C14 1_555 1_555
H13 C15 1_555 1_555
C16 C15 1_555 1_555
H14 C16 1_555 1_555
C17 C16 1_555 1_555
H15 C17 1_555 1_555
C18 C13 1_555 1_555
H16 C18 1_555 1_555
N2 C7 1_555 1_555
N5 C12 1_555 1_555
N6 C12 1_555 1_555
C5 C6 1_555 1_555
C17 C18 1_555 1_555

#END
