
#######################################################################
#
#                 Cambridge Crystallographic Data Centre
#                                CCDC 
#
#######################################################################
#
# If this CIF has been generated from an entry in the Cambridge 
# Structural Database, then it will include bibliographic, chemical, 
# crystal, experimental, refinement or atomic coordinate data resulting 
# from the CCDC's data processing and validation procedures.
#
#######################################################################

data_AYEFUF
_chemical_formula_moiety         'C15 H14 O3 S1'
_chemical_name_systematic        1-Phenyl-2-(toluene-4-sulfonyl)ethanone
_symmetry_cell_setting           monoclinic
_symmetry_space_group_name_H-M   'P 21/c'
_symmetry_Int_Tables_number      14
_space_group_name_Hall           '-P 2ybc'
loop_
_symmetry_equiv_pos_site_id
_symmetry_equiv_pos_as_xyz
1 x,y,z
2 x,1/2-y,1/2+z
3 -x,-y,-z
4 -x,1/2+y,1/2-z
_cell_length_a                   15.8077(7)
_cell_length_b                   5.4113(2)
_cell_length_c                   15.8940(9)
_cell_angle_alpha                90
_cell_angle_beta                 95.343(2)
_cell_angle_gamma                90
_cell_volume                     1353.67
_exptl_crystal_colour            colorless
_exptl_crystal_description       chunk
_cell_formula_units_Z            4
_exptl_crystal_recrystallization_method ethanol
loop_
_atom_site_label
_atom_site_type_symbol
_atom_site_fract_x
_atom_site_fract_y
_atom_site_fract_z
S1 S 0.27957(4) 0.81402(14) 0.39622(4)
O1 O 0.07615(15) 0.6611(4) 0.41481(14)
O2 O 0.26681(15) 0.5529(4) 0.39131(15)
O3 O 0.32615(12) 0.9155(4) 0.46984(11)
C1 C 0.17732(16) 0.9554(5) 0.38419(15)
H1 H 0.18261 1.1300 0.39749
H2 H 0.1533 0.9395 0.3262
C2 C 0.11915(17) 0.8326(5) 0.44272(17)
C3 C 0.11789(15) 0.9178(5) 0.53130(16)
C4 C 0.16240(18) 1.1226(5) 0.56344(18)
H3 H 0.19491 1.2140 0.52879
C5 C 0.15893(19) 1.1908(6) 0.64633(19)
H4 H 0.18900 1.3286 0.66743
C6 C 0.11144(19) 1.0573(7) 0.69779(19)
H5 H 0.10916 1.1048 0.75377
C7 C 0.06723(18) 0.8539(6) 0.66705(19)
H6 H 0.03536 0.7623 0.70224
C8 C 0.07002(17) 0.7850(6) 0.58410(18)
H7 H 0.03938 0.6479 0.56322
C9 C 0.32716(16) 0.9122(5) 0.30642(15)
C10 C 0.31451(18) 0.7786(5) 0.23290(17)
H8 H 0.28115 0.6367 0.23069
C11 C 0.35141(18) 0.8567(6) 0.16250(17)
H9 H 0.34255 0.7665 0.11264
C12 C 0.40109(17) 1.0642(6) 0.16441(17)
C13 C 0.41287(18) 1.1956(5) 0.23909(19)
H10 H 0.44611 1.3377 0.24125
C14 C 0.37657(17) 1.1210(5) 0.31043(17)
H11 H 0.38546 1.2106 0.36042
C15 C 0.4428(2) 1.1482(7) 0.0880(2)
H12 H 0.4282 1.0375 0.0417
H13 H 0.5033 1.1492 0.1011
H14 H 0.4237 1.3119 0.0726
loop_
_geom_bond_atom_site_label_1
_geom_bond_atom_site_label_2
_geom_bond_site_symmetry_1
_geom_bond_site_symmetry_2
S1 O2 1_555 1_555
O1 C2 1_555 1_555
O3 S1 1_555 1_555
C1 S1 1_555 1_555
H1 C1 1_555 1_555
H2 C1 1_555 1_555
C2 C1 1_555 1_555
C3 C2 1_555 1_555
C4 C3 1_555 1_555
H3 C4 1_555 1_555
C5 C4 1_555 1_555
H4 C5 1_555 1_555
C6 C5 1_555 1_555
H5 C6 1_555 1_555
C7 C6 1_555 1_555
H6 C7 1_555 1_555
C8 C3 1_555 1_555
H7 C8 1_555 1_555
C9 S1 1_555 1_555
C10 C9 1_555 1_555
H8 C10 1_555 1_555
C11 C10 1_555 1_555
H9 C11 1_555 1_555
C12 C11 1_555 1_555
C13 C12 1_555 1_555
H10 C13 1_555 1_555
C14 C9 1_555 1_555
H11 C14 1_555 1_555
C15 C12 1_555 1_555
H12 C15 1_555 1_555
H13 C15 1_555 1_555
H14 C15 1_555 1_555
C7 C8 1_555 1_555
C13 C14 1_555 1_555

#END
