
#######################################################################
#
#                 Cambridge Crystallographic Data Centre
#                                CCDC 
#
#######################################################################
#
# If this CIF has been generated from an entry in the Cambridge 
# Structural Database, then it will include bibliographic, chemical, 
# crystal, experimental, refinement or atomic coordinate data resulting 
# from the CCDC's data processing and validation procedures.
#
#######################################################################

data_AYEMIA
_chemical_formula_moiety         'C23 H26 Br2 O6'
_chemical_name_systematic        
5,6a-Dibromo-7,11-dimethoxy-12b-(3-methylbutyl)-7,12,12a,12b-tetrahydroanthra(1,2-b)(1,4)dioxine-2,6(3H,6aH)-dione
_symmetry_cell_setting           monoclinic
_symmetry_space_group_name_H-M   'C 2/c'
_symmetry_Int_Tables_number      15
_space_group_name_Hall           '-C 2yn'
loop_
_symmetry_equiv_pos_site_id
_symmetry_equiv_pos_as_xyz
1 x,y,z
2 1/2+x,1/2+y,z
3 x,-y,1/2+z
4 1/2+x,1/2-y,1/2+z
5 -x,-y,-z
6 1/2-x,1/2-y,-z
7 -x,y,1/2-z
8 1/2-x,1/2+y,1/2-z
_cell_length_a                   25.635(6)
_cell_length_b                   11.515(3)
_cell_length_c                   18.490(5)
_cell_angle_alpha                90.00
_cell_angle_beta                 121.721(4)
_cell_angle_gamma                90.00
_cell_volume                     4642.68
_cell_formula_units_Z            8
loop_
_atom_site_label
_atom_site_type_symbol
_atom_site_fract_x
_atom_site_fract_y
_atom_site_fract_z
Br1 Br 0.215621(13) 0.00897(3) 0.341747(18)
O1 O -0.05096(9) -0.07244(19) 0.08951(14)
C1 C -0.00027(12) -0.1435(2) 0.12702(17)
Br2 Br 0.242278(12) 0.19225(3) 0.081424(18)
O2 O 0.15548(9) -0.09549(17) 0.10103(12)
C2 C -0.00031(13) -0.2553(2) 0.15525(18)
H1 H -0.0361 -0.2863 0.1487
O3 O 0.27132(8) 0.03570(17) 0.23237(13)
C3 C 0.05315(14) -0.3205(3) 0.19325(19)
H2 H 0.0528 -0.3957 0.2113
O4 O 0.12780(9) 0.31061(17) 0.05353(14)
C4 C 0.10698(13) -0.2753(2) 0.20475(19)
H3 H 0.1429 -0.3189 0.2313
O5 O 0.05248(9) 0.25361(16) 0.11207(13)
C5 C 0.10653(12) -0.1631(2) 0.17592(17)
O6 O -0.01316(12) 0.3885(2) 0.0319(2)
C6 C 0.16228(12) -0.1080(2) 0.18268(17)
H4 H 0.1987 -0.1547 0.2200
C7 C 0.17233(12) 0.0192(2) 0.21616(16)
C8 C 0.21907(12) 0.0718(2) 0.19688(17)
C9 C 0.19578(12) 0.1617(2) 0.13144(17)
C10 C 0.14711(12) 0.2275(2) 0.11300(18)
C11 C 0.11620(12) 0.2158(2) 0.16339(18)
C12 C 0.11141(12) 0.0869(2) 0.18313(17)
H5 H 0.1036 0.0870 0.2296
C13 C 0.05660(12) 0.0241(2) 0.10786(18)
H6 H 0.0189 0.0658 0.0906
H7 H 0.0621 0.0209 0.0598
C14 C 0.05292(12) -0.0969(2) 0.13547(16)
C15 C 0.08655(14) 0.3987(3) 0.0509(2)
H8 H 0.0672 0.4380 -0.0036
H9 H 0.1100 0.4559 0.0948
C16 C 0.03790(15) 0.3496(3) 0.0637(2)
C17 C -0.09764(14) -0.0966(3) 0.1070(2)
H10 H -0.1170 -0.1690 0.0811
H11 H -0.1276 -0.0355 0.0844
H12 H -0.0798 -0.1016 0.1674
C18 C 0.14354(17) -0.2020(3) 0.0554(2)
H13 H 0.1742 -0.2581 0.0906
H14 H 0.1446 -0.1889 0.0049
H15 H 0.1038 -0.2305 0.0400
C19 C 0.15027(14) 0.2926(2) 0.24294(19)
H16 H 0.1600 0.3659 0.2269
H17 H 0.1887 0.2551 0.2832
C20 C 0.11540(15) 0.3183(3) 0.2880(2)
H18 H 0.0735 0.3393 0.2458
H19 H 0.1143 0.2484 0.3164
C21 C 0.14453(14) 0.4158(3) 0.35275(19)
H20 H 0.1488 0.4833 0.3240
C22 C 0.20801(16) 0.3831(3) 0.4260(2)
H21 H 0.2055 0.3132 0.4523
H22 H 0.2240 0.4448 0.4670
H23 H 0.2347 0.3705 0.4049
C23 C 0.10366(17) 0.4507(3) 0.3860(2)
H24 H 0.0994 0.3863 0.4154
H25 H 0.0640 0.4728 0.3392
H26 H 0.1218 0.5151 0.4243
loop_
_geom_bond_atom_site_label_1
_geom_bond_atom_site_label_2
_geom_bond_site_symmetry_1
_geom_bond_site_symmetry_2
Br1 C7 1_555 1_555
O1 C1 1_555 1_555
C1 C2 1_555 1_555
Br2 C9 1_555 1_555
O2 C6 1_555 1_555
C2 H1 1_555 1_555
O3 C8 1_555 1_555
C3 C2 1_555 1_555
H2 C3 1_555 1_555
O4 C10 1_555 1_555
C4 C3 1_555 1_555
H3 C4 1_555 1_555
O5 C11 1_555 1_555
C5 C4 1_555 1_555
O6 C16 1_555 1_555
C6 C5 1_555 1_555
H4 C6 1_555 1_555
C7 C6 1_555 1_555
C8 C7 1_555 1_555
C9 C8 1_555 1_555
C10 C9 1_555 1_555
C11 C10 1_555 1_555
C12 C7 1_555 1_555
H5 C12 1_555 1_555
C13 C12 1_555 1_555
H6 C13 1_555 1_555
H7 C13 1_555 1_555
C14 C1 1_555 1_555
C15 O4 1_555 1_555
H8 C15 1_555 1_555
H9 C15 1_555 1_555
C16 O5 1_555 1_555
C17 O1 1_555 1_555
H10 C17 1_555 1_555
H11 C17 1_555 1_555
H12 C17 1_555 1_555
C18 O2 1_555 1_555
H13 C18 1_555 1_555
H14 C18 1_555 1_555
H15 C18 1_555 1_555
C19 C11 1_555 1_555
H16 C19 1_555 1_555
H17 C19 1_555 1_555
C20 C19 1_555 1_555
H18 C20 1_555 1_555
H19 C20 1_555 1_555
C21 C20 1_555 1_555
H20 C21 1_555 1_555
C22 C21 1_555 1_555
H21 C22 1_555 1_555
H22 C22 1_555 1_555
H23 C22 1_555 1_555
C23 C21 1_555 1_555
H24 C23 1_555 1_555
H25 C23 1_555 1_555
H26 C23 1_555 1_555
C5 C14 1_555 1_555
C11 C12 1_555 1_555
C13 C14 1_555 1_555
C15 C16 1_555 1_555

#END
