
#######################################################################
#
#                 Cambridge Crystallographic Data Centre
#                                CCDC 
#
#######################################################################
#
# If this CIF has been generated from an entry in the Cambridge 
# Structural Database, then it will include bibliographic, chemical, 
# crystal, experimental, refinement or atomic coordinate data resulting 
# from the CCDC's data processing and validation procedures.
#
#######################################################################

data_AYEWIM
_chemical_formula_moiety         'C5 H3 N9 O6,C1 H4 O1'
_chemical_name_systematic        
'1-(3,5-dinitro-1H-pyrazol-4-yl)-3-nitro-1H-1,2,4-triazol-5-amine methanol solvate'
_symmetry_cell_setting           triclinic
_symmetry_space_group_name_H-M   'P -1'
_symmetry_Int_Tables_number      2
_space_group_name_Hall           '-P 1'
loop_
_symmetry_equiv_pos_site_id
_symmetry_equiv_pos_as_xyz
1 x,y,z
2 -x,-y,-z
_cell_length_a                   8.2011(16)
_cell_length_b                   11.917(2)
_cell_length_c                   14.159(3)
_cell_angle_alpha                89.83(3)
_cell_angle_beta                 76.32(3)
_cell_angle_gamma                87.38(3)
_cell_volume                     1343.09
_exptl_crystal_colour            yellow
_exptl_crystal_description       rod
_cell_formula_units_Z            4
loop_
_atom_site_label
_atom_site_type_symbol
_atom_site_fract_x
_atom_site_fract_y
_atom_site_fract_z
O1 O 0.5402(8) 0.4615(6) 0.0955(4)
O2 O 0.4462(7) 0.4746(6) 0.2523(5)
O3 O 0.9784(12) 0.2462(7) 0.3039(7)
O4 O 1.0795(16) 0.2110(9) 0.4274(9)
O5 O 1.0067(13) 0.7145(7) 0.2759(7)
O6 O 1.1902(12) 0.7485(7) 0.3581(7)
N1 N 0.5596(8) 0.4701(6) 0.1779(5)
N2 N 0.8600(7) 0.4860(5) 0.1095(4)
N3 N 0.7649(8) 0.4711(5) 0.2734(4)
N4 N 0.9400(8) 0.4770(5) 0.2472(4)
N5 N 1.1520(8) 0.4978(6) 0.1017(4)
H1 H 1.1786 0.5066 0.0397
H2 H 1.2285 0.4967 0.1340
N6 N 1.0453(12) 0.2743(8) 0.3676(7)
N7 N 1.1703(9) 0.4223(6) 0.4334(5)
N8 N 1.1864(8) 0.5312(6) 0.4197(4)
H3 H 1.2409 0.5733 0.4494
N9 N 1.1022(11) 0.6848(7) 0.3264(6)
C1 C 0.7333(9) 0.4761(6) 0.1872(5)
C2 C 0.9920(9) 0.4865(6) 0.1480(5)
C3 C 1.0822(10) 0.3904(7) 0.3721(5)
C4 C 1.0331(9) 0.4800(7) 0.3185(5)
C5 C 1.1046(9) 0.5692(7) 0.3522(5)
O7 O 0.0333(7) 0.0268(6) 0.5971(4)
O8 O -0.0558(7) 0.0190(6) 0.7536(4)
O9 O 0.5311(14) -0.2116(7) 0.7762(7)
O10 O 0.6878(13) -0.2466(7) 0.8755(8)
O11 O 0.4423(11) 0.2584(6) 0.8033(6)
O12 O 0.5892(15) 0.3013(8) 0.9038(9)
N10 N 0.0570(7) 0.0226(5) 0.6784(5)
N11 N 0.3577(7) 0.0129(5) 0.6104(4)
N12 N 0.2642(7) 0.0269(5) 0.7737(4)
N13 N 0.4343(7) 0.0231(5) 0.7479(4)
N14 N 0.6503(7) 0.0067(6) 0.6007(4)
H4 H 0.6764 0.0009 0.5383
H5 H 0.7280 0.0082 0.6321
N15 N 0.6096(11) -0.1822(7) 0.8346(6)
N16 N 0.6845(7) -0.0255(6) 0.9219(4)
H6 H 0.7407 -0.0667 0.9542
N17 N 0.6651(8) 0.0853(6) 0.9310(4)
N18 N 0.5322(11) 0.2328(7) 0.8583(6)
C6 C 0.2267(8) 0.0205(6) 0.6879(5)
C7 C 0.4921(8) 0.0137(6) 0.6478(5)
C8 C 0.6052(9) -0.0652(6) 0.8564(5)
C9 C 0.5306(8) 0.0237(6) 0.8188(5)
C10 C 0.5725(9) 0.1164(7) 0.8687(5)
O13 O 0.6391(11) 0.3768(7) 0.4688(5)
H7 H 0.6749 0.4037 0.4133
C11 C 0.5387(19) 0.2855(12) 0.4826(11)
H8 H 0.4840 0.2805 0.4299
H9 H 0.4556 0.2944 0.5428
H10 H 0.6066 0.2182 0.4846
O14 O 0.8700(10) 0.8792(7) 0.0301(5)
H11 H 0.8317 0.9061 0.0862
C12 C 0.9814(17) 0.7879(12) 0.0101(11)
H12 H 1.0099 0.7731 -0.0586
H13 H 0.9309 0.7235 0.0439
H14 H 1.0813 0.8033 0.0311
loop_
_geom_bond_atom_site_label_1
_geom_bond_atom_site_label_2
_geom_bond_site_symmetry_1
_geom_bond_site_symmetry_2
O1 N1 1_555 1_555
O2 N1 1_555 1_555
O3 N6 1_555 1_555
O4 N6 1_555 1_555
O5 N9 1_555 1_555
O6 N9 1_555 1_555
N1 C1 1_555 1_555
N2 C1 1_555 1_555
N3 N4 1_555 1_555
N4 C2 1_555 1_555
N5 H1 1_555 1_555
H2 N5 1_555 1_555
N6 C3 1_555 1_555
N7 N8 1_555 1_555
N8 H3 1_555 1_555
N9 C5 1_555 1_555
C1 N3 1_555 1_555
C2 N2 1_555 1_555
C3 N7 1_555 1_555
C4 N4 1_555 1_555
C5 N8 1_555 1_555
O7 N10 1_555 1_555
O8 N10 1_555 1_555
O9 N15 1_555 1_555
O10 N15 1_555 1_555
O11 N18 1_555 1_555
O12 N18 1_555 1_555
N10 C6 1_555 1_555
N11 C6 1_555 1_555
N12 N13 1_555 1_555
N13 C7 1_555 1_555
N14 H4 1_555 1_555
H5 N14 1_555 1_555
N15 C8 1_555 1_555
N16 H6 1_555 1_555
N17 N16 1_555 1_555
N18 C10 1_555 1_555
C6 N12 1_555 1_555
C7 N11 1_555 1_555
C8 N16 1_555 1_555
C9 N13 1_555 1_555
C10 N17 1_555 1_555
O13 H7 1_555 1_555
C11 O13 1_555 1_555
H8 C11 1_555 1_555
H9 C11 1_555 1_555
H10 C11 1_555 1_555
O14 H11 1_555 1_555
C12 O14 1_555 1_555
H12 C12 1_555 1_555
H13 C12 1_555 1_555
H14 C12 1_555 1_555
N5 C2 1_555 1_555
C3 C4 1_555 1_555
C4 C5 1_555 1_555
N14 C7 1_555 1_555
C8 C9 1_555 1_555
C9 C10 1_555 1_555

#END
