
#######################################################################
#
#                 Cambridge Crystallographic Data Centre
#                                CCDC 
#
#######################################################################
#
# If this CIF has been generated from an entry in the Cambridge 
# Structural Database, then it will include bibliographic, chemical, 
# crystal, experimental, refinement or atomic coordinate data resulting 
# from the CCDC's data processing and validation procedures.
#
#######################################################################

data_AYIBER
_chemical_formula_moiety         'C31 H30 N6 O4'
_chemical_name_systematic        
2-(((3-((2-hydroxy-3-methoxy-5-(phenyldiazenyl)benzylidene)amino)propyl)imino)methyl)-6-methoxy-4-(phenyldiazenyl)phenol
_symmetry_cell_setting           triclinic
_symmetry_space_group_name_H-M   'P -1'
_symmetry_Int_Tables_number      2
_space_group_name_Hall           '-P 1'
loop_
_symmetry_equiv_pos_site_id
_symmetry_equiv_pos_as_xyz
1 x,y,z
2 -x,-y,-z
_cell_length_a                   8.648(2)
_cell_length_b                   11.051(3)
_cell_length_c                   13.816(4)
_cell_angle_alpha                91.833(9)
_cell_angle_beta                 97.710(9)
_cell_angle_gamma                92.902(8)
_cell_volume                     1305.76
_exptl_crystal_colour            orange
_exptl_crystal_description       Block
_cell_formula_units_Z            2
loop_
_atom_site_label
_atom_site_type_symbol
_atom_site_fract_x
_atom_site_fract_y
_atom_site_fract_z
O1 O 0.9706(7) 0.5439(4) 0.3863(4)
H1 H 1.0352 0.5633 0.4360
O2 O 0.7860(7) 0.9392(4) 0.5274(5)
H2 H 0.8522 0.9139 0.5711
O3 O 0.7748(7) 0.5157(4) 0.2221(4)
O4 O 0.5600(7) 0.9881(5) 0.3913(5)
N1 N 0.8481(9) 0.9489(6) 0.1714(6)
N2 N 0.7829(12) 0.9332(6) 0.0879(6)
N3 N 1.1666(8) 0.6822(5) 0.5092(5)
N4 N 0.9367(8) 0.7798(5) 0.6332(5)
N5 N 0.4340(8) 0.5494(6) 0.3377(5)
N6 N 0.3339(8) 0.5728(6) 0.2660(5)
C1 C 0.9450(9) 0.6358(6) 0.3363(6)
C2 C 1.0211(10) 0.7555(7) 0.3675(6)
C3 C 0.9813(11) 0.8564(7) 0.3095(6)
H3 H 1.0291 0.9341 0.3294
C4 C 0.8769(10) 0.8448(6) 0.2263(6)
C5 C 0.8085(10) 0.7292(7) 0.1925(6)
H4 H 0.7414 0.7213 0.1321
C6 C 0.8381(10) 0.6292(6) 0.2459(6)
C7 C 0.6731(11) 0.4987(7) 0.1303(7)
H5 H 0.5788 0.5435 0.1334
H6 H 0.6437 0.4122 0.1180
H7 H 0.7276 0.5287 0.0774
C8 C 0.7427(13) 1.0397(8) 0.0364(7)
C9 C 0.8097(13) 1.0644(9) -0.0481(10)
H8 H 0.8840 1.0123 -0.0689
C10 C 0.7693(15) 1.1612(9) -0.1000(10)
H9 H 0.8217 1.1810 -0.1541
C11 C 0.6535(12) 1.2320(7) -0.0759(7)
H10 H 0.6255 1.2999 -0.1136
C12 C 0.5774(14) 1.2049(7) 0.0029(8)
H11 H 0.4921 1.2502 0.0172
C13 C 0.6281(17) 1.1090(8) 0.0621(8)
H12 H 0.5825 1.0929 0.1195
C14 C 1.1296(10) 0.7696(7) 0.4522(6)
H13 H 1.1787 0.8477 0.4688
C15 C 1.2757(10) 0.7007(7) 0.6008(6)
H14 H 1.3786 0.7305 0.5845
H15 H 1.2897 0.6212 0.6309
C16 C 1.2247(10) 0.7894(7) 0.6763(7)
H16 H 1.3059 0.7960 0.7343
H17 H 1.2184 0.8705 0.6481
C17 C 1.0694(10) 0.7541(7) 0.7091(7)
H18 H 1.0650 0.6665 0.7224
H19 H 1.0595 0.7998 0.7706
C18 C 0.8375(10) 0.6993(7) 0.5892(7)
H20 H 0.8458 0.6174 0.6070
C19 C 0.7179(9) 0.7267(7) 0.5161(6)
C20 C 0.6984(10) 0.8493(7) 0.4865(7)
C21 C 0.5740(10) 0.8677(7) 0.4089(7)
C22 C 0.4387(11) 1.0112(7) 0.3085(7)
H21 H 0.4587 0.9652 0.2501
H22 H 0.4417 1.0980 0.2958
H23 H 0.3355 0.9857 0.3249
C23 C 0.4851(10) 0.7731(7) 0.3613(7)
H24 H 0.4046 0.7880 0.3100
C24 C 0.5123(10) 0.6524(7) 0.3880(6)
C25 C 0.6228(9) 0.6295(7) 0.4639(6)
H25 H 0.6371 0.5483 0.4824
C26 C 0.2675(11) 0.4691(7) 0.2118(7)
C27 C 0.1372(11) 0.4858(9) 0.1472(7)
H26 H 0.0937 0.5630 0.1436
C28 C 0.0687(12) 0.3903(9) 0.0871(8)
H27 H -0.0236 0.4011 0.0433
C29 C 0.1336(11) 0.2811(8) 0.0907(7)
H28 H 0.0864 0.2167 0.0478
C30 C 0.2641(12) 0.2606(8) 0.1536(7)
H29 H 0.3067 0.1831 0.1552
C31 C 0.3335(11) 0.3556(7) 0.2154(7)
H30 H 0.4249 0.3437 0.2597
loop_
_geom_bond_atom_site_label_1
_geom_bond_atom_site_label_2
_geom_bond_site_symmetry_1
_geom_bond_site_symmetry_2
O1 H1 1_555 1_555
O2 H2 1_555 1_555
O3 C6 1_555 1_555
O4 C21 1_555 1_555
N1 N2 1_555 1_555
N2 C8 1_555 1_555
N3 C14 1_555 1_555
N4 C17 1_555 1_555
N5 N6 1_555 1_555
N6 C26 1_555 1_555
C1 O1 1_555 1_555
C2 C1 1_555 1_555
C3 C2 1_555 1_555
H3 C3 1_555 1_555
C4 N1 1_555 1_555
C5 C4 1_555 1_555
H4 C5 1_555 1_555
C6 C1 1_555 1_555
C7 O3 1_555 1_555
H5 C7 1_555 1_555
H6 C7 1_555 1_555
H7 C7 1_555 1_555
C8 C9 1_555 1_555
C9 H8 1_555 1_555
C10 C9 1_555 1_555
H9 C10 1_555 1_555
C11 C10 1_555 1_555
H10 C11 1_555 1_555
C12 C11 1_555 1_555
H11 C12 1_555 1_555
C13 C8 1_555 1_555
H12 C13 1_555 1_555
C14 C2 1_555 1_555
H13 C14 1_555 1_555
C15 N3 1_555 1_555
H14 C15 1_555 1_555
H15 C15 1_555 1_555
C16 C15 1_555 1_555
H16 C16 1_555 1_555
H17 C16 1_555 1_555
C17 C16 1_555 1_555
H18 C17 1_555 1_555
H19 C17 1_555 1_555
C18 N4 1_555 1_555
H20 C18 1_555 1_555
C19 C18 1_555 1_555
C20 O2 1_555 1_555
C21 C20 1_555 1_555
C22 O4 1_555 1_555
H21 C22 1_555 1_555
H22 C22 1_555 1_555
H23 C22 1_555 1_555
C23 C21 1_555 1_555
H24 C23 1_555 1_555
C24 N5 1_555 1_555
C25 C19 1_555 1_555
H25 C25 1_555 1_555
C26 C27 1_555 1_555
C27 H26 1_555 1_555
C28 C27 1_555 1_555
H27 C28 1_555 1_555
C29 C28 1_555 1_555
H28 C29 1_555 1_555
C30 C29 1_555 1_555
H29 C30 1_555 1_555
C31 C26 1_555 1_555
H30 C31 1_555 1_555
C3 C4 1_555 1_555
C5 C6 1_555 1_555
C12 C13 1_555 1_555
C19 C20 1_555 1_555
C23 C24 1_555 1_555
C24 C25 1_555 1_555
C30 C31 1_555 1_555

#END
