
#######################################################################
#
#                 Cambridge Crystallographic Data Centre
#                                CCDC 
#
#######################################################################
#
# If this CIF has been generated from an entry in the Cambridge 
# Structural Database, then it will include bibliographic, chemical, 
# crystal, experimental, refinement or atomic coordinate data resulting 
# from the CCDC's data processing and validation procedures.
#
#######################################################################

data_AYOHOL
_chemical_formula_moiety         'C9 H6 O1'
_chemical_name_systematic        4-Ethynylbenzaldehyde
_symmetry_cell_setting           orthorhombic
_symmetry_space_group_name_H-M   'P 21 21 21'
_symmetry_Int_Tables_number      19
_space_group_name_Hall           'P 2ac 2ab'
loop_
_symmetry_equiv_pos_site_id
_symmetry_equiv_pos_as_xyz
1 x,y,z
2 1/2-x,-y,1/2+z
3 -x,1/2+y,1/2-z
4 1/2+x,1/2-y,-z
_cell_length_a                   7.0501(6)
_cell_length_b                   8.9204(8)
_cell_length_c                   10.7990(9)
_cell_angle_alpha                90
_cell_angle_beta                 90
_cell_angle_gamma                90
_cell_volume                     679.146
_exptl_crystal_colour            colorless
_exptl_crystal_description       prism
_cell_formula_units_Z            4
_exptl_crystal_recrystallization_method sublimation
loop_
_atom_site_label
_atom_site_type_symbol
_atom_site_fract_x
_atom_site_fract_y
_atom_site_fract_z
O1 O 0.11344(17) 0.17049(12) 0.77337(8)
C1 C 0.11276(16) 0.26697(13) 0.56699(9)
C2 C 0.12461(17) 0.12829(15) 0.50704(10)
H1 H 0.124(3) 0.034(2) 0.5575(16)
C3 C 0.13194(19) 0.12227(12) 0.37885(10)
H2 H 0.145(2) 0.021(2) 0.3366(15)
C4 C 0.12736(15) 0.25544(14) 0.30909(11)
C5 C 0.11653(18) 0.39471(12) 0.36997(10)
H3 H 0.109(3) 0.4929(19) 0.3194(16)
C6 C 0.10896(19) 0.39930(15) 0.49837(10)
H4 H 0.102(3) 0.495(2) 0.5378(16)
C7 C 0.10326(18) 0.27657(15) 0.70329(11)
H5 H 0.086(3) 0.378(2) 0.7421(16)
C8 C 0.13259(16) 0.24981(12) 0.17623(11)
C9 C 0.13484(19) 0.24293(14) 0.06555(11)
H6 H 0.133(2) 0.235(2) -0.0288(19)
loop_
_geom_bond_atom_site_label_1
_geom_bond_atom_site_label_2
_geom_bond_site_symmetry_1
_geom_bond_site_symmetry_2
O1 C7 1_555 1_555
C1 C2 1_555 1_555
C2 H1 1_555 1_555
C3 C2 1_555 1_555
H2 C3 1_555 1_555
C4 C3 1_555 1_555
C5 C4 1_555 1_555
H3 C5 1_555 1_555
C6 C1 1_555 1_555
H4 C6 1_555 1_555
C7 C1 1_555 1_555
H5 C7 1_555 1_555
C8 C4 1_555 1_555
C9 C8 1_555 1_555
H6 C9 1_555 1_555
C5 C6 1_555 1_555

#END
