
#######################################################################
#
#                 Cambridge Crystallographic Data Centre
#                                CCDC 
#
#######################################################################
#
# If this CIF has been generated from an entry in the Cambridge 
# Structural Database, then it will include bibliographic, chemical, 
# crystal, experimental, refinement or atomic coordinate data resulting 
# from the CCDC's data processing and validation procedures.
#
#######################################################################

data_AYOPEK
_chemical_formula_moiety         'C10 H10 F4 N2'
_chemical_name_systematic        2-(3,3,4,4-Tetrafluoropyrrolidin-1-yl)aniline
_symmetry_cell_setting           orthorhombic
_symmetry_space_group_name_H-M   'P 21 21 21'
_symmetry_Int_Tables_number      19
_space_group_name_Hall           'P 2ac 2ab'
loop_
_symmetry_equiv_pos_site_id
_symmetry_equiv_pos_as_xyz
1 x,y,z
2 1/2-x,-y,1/2+z
3 -x,1/2+y,1/2-z
4 1/2+x,1/2-y,-z
_cell_length_a                   6.791(13)
_cell_length_b                   8.185(16)
_cell_length_c                   18.66(4)
_cell_angle_alpha                90
_cell_angle_beta                 90
_cell_angle_gamma                90
_cell_volume                     1037.2
_exptl_crystal_colour            purple
_exptl_crystal_description       block
_cell_formula_units_Z            4
loop_
_atom_site_label
_atom_site_type_symbol
_atom_site_fract_x
_atom_site_fract_y
_atom_site_fract_z
F1 F 0.5502(4) 0.9533(4) 0.28755(12)
F2 F 0.9856(4) 0.9465(4) 0.22927(13)
F3 F 0.7878(4) 1.1542(3) 0.23004(13)
F4 F 0.7058(4) 0.7458(3) 0.24699(12)
C1 C 0.5124(5) 0.9963(4) 0.04139(17)
C2 C 0.3393(5) 1.0854(4) 0.02680(18)
C3 C 0.8125(6) 1.0019(5) 0.2037(2)
C4 C 0.6375(6) 0.8962(5) 0.22754(19)
C5 C 0.6062(6) 0.9131(5) -0.01323(19)
H1 H 0.7199 0.8541 -0.0031
C6 C 0.2663(6) 1.0832(5) -0.0431(2)
H2 H 0.1501 1.1383 -0.0536
C7 C 0.3635(7) 1.0009(5) -0.0966(2)
H3 H 0.3133 1.0027 -0.1430
C8 C 0.5346(7) 0.9155(5) -0.0827(2)
H4 H 0.6004 0.8608 -0.1192
C9 C 0.7993(5) 0.9997(5) 0.12353(18)
H5 H 0.8623 1.0946 0.1025
H6 H 0.8569 0.9013 0.1036
C10 C 0.5016(6) 0.8845(5) 0.16406(19)
H7 H 0.5021 0.7752 0.1440
H8 H 0.3679 0.9136 0.1771
N1 N 0.5854(4) 1.0035(4) 0.11341(14)
N2 N 0.2447(6) 1.1710(5) 0.0805(2)
H9 H 0.312(7) 1.201(6) 0.116(3)
H10 H 0.171(9) 1.254(9) 0.068(3)
loop_
_geom_bond_atom_site_label_1
_geom_bond_atom_site_label_2
_geom_bond_site_symmetry_1
_geom_bond_site_symmetry_2
F1 C4 1_555 1_555
F2 C3 1_555 1_555
F3 C3 1_555 1_555
F4 C4 1_555 1_555
C1 C2 1_555 1_555
C2 C6 1_555 1_555
C3 C4 1_555 1_555
C4 C10 1_555 1_555
C5 C1 1_555 1_555
H1 C5 1_555 1_555
C6 H2 1_555 1_555
C7 C6 1_555 1_555
H3 C7 1_555 1_555
C8 C5 1_555 1_555
H4 C8 1_555 1_555
C9 C3 1_555 1_555
H5 C9 1_555 1_555
H6 C9 1_555 1_555
C10 H7 1_555 1_555
H8 C10 1_555 1_555
N1 C1 1_555 1_555
N2 C2 1_555 1_555
H9 N2 1_555 1_555
H10 N2 1_555 1_555
C7 C8 1_555 1_555
C9 N1 1_555 1_555
C10 N1 1_555 1_555

#END
