
#######################################################################
#
#                 Cambridge Crystallographic Data Centre
#                                CCDC 
#
#######################################################################
#
# If this CIF has been generated from an entry in the Cambridge 
# Structural Database, then it will include bibliographic, chemical, 
# crystal, experimental, refinement or atomic coordinate data resulting 
# from the CCDC's data processing and validation procedures.
#
#######################################################################

data_AYOREL
_chemical_formula_moiety         'C59 H78 N2 O5 P2,C7 H8'
_chemical_name_systematic        
'5,11,17,23,29-Penta-t-butyl-35-hydroxycalix(5)arene-31,32;33,34-tetrayl bis(dimethylaminophosphite) toluene solvate'
_symmetry_cell_setting           monoclinic
_symmetry_space_group_name_H-M   'P 21/n'
_symmetry_Int_Tables_number      14
_space_group_name_Hall           '-P 2yn'
loop_
_symmetry_equiv_pos_site_id
_symmetry_equiv_pos_as_xyz
1 x,y,z
2 1/2+x,1/2-y,1/2+z
3 -x,-y,-z
4 1/2-x,1/2+y,1/2-z
_cell_length_a                   13.886(4)
_cell_length_b                   24.733(6)
_cell_length_c                   18.573(4)
_cell_angle_alpha                90
_cell_angle_beta                 104.74(2)
_cell_angle_gamma                90
_cell_volume                     6168.83
_exptl_crystal_colour            colorless
_exptl_crystal_description       plates
_chemical_melting_point          252-254deg.C
_cell_formula_units_Z            4
loop_
_atom_site_label
_atom_site_type_symbol
_atom_site_fract_x
_atom_site_fract_y
_atom_site_fract_z
P1 P 0.17457(11) 0.24604(6) 0.13703(8)
P2 P 0.34652(11) 0.23791(6) 0.32678(8)
O1 O 0.1161(3) 0.19803(18) 0.2635(2)
H1 H 0.1691 0.2052 0.2933
O2 O 0.0558(2) 0.23526(13) 0.08969(18)
O3 O 0.2071(2) 0.29433(13) 0.08686(17)
O4 O 0.3272(2) 0.30281(14) 0.30927(18)
O5 O 0.3641(3) 0.23821(14) 0.41831(18)
N1 N 0.2290(3) 0.19611(17) 0.1012(3)
N2 N 0.4612(3) 0.22354(18) 0.3238(2)
C1 C 0.2258(5) 0.1923(2) 0.0228(3)
H2 H 0.2363 0.2274 0.0042
H3 H 0.1619 0.1788 -0.0041
H4 H 0.2770 0.1681 0.0162
C2 C 0.2201(5) 0.1431(2) 0.1337(3)
H5 H 0.2191 0.1474 0.1849
H6 H 0.2758 0.1210 0.1308
H7 H 0.1595 0.1261 0.1068
C3 C 0.4735(5) 0.1954(3) 0.2573(4)
H8 H 0.4102 0.1817 0.2295
H9 H 0.5192 0.1659 0.2719
H10 H 0.4992 0.2201 0.2269
C4 C 0.5516(4) 0.2443(3) 0.3716(3)
H11 H 0.5371 0.2617 0.4139
H12 H 0.5808 0.2700 0.3447
H13 H 0.5974 0.2151 0.3883
C5 C 0.0516(5) 0.1767(2) 0.3007(3)
C6 C 0.0779(4) 0.16711(19) 0.3766(3)
C7 C 0.0057(4) 0.1433(2) 0.4067(3)
H14 H 0.0226 0.1356 0.4574
C8 C -0.0899(4) 0.1306(2) 0.3655(3)
C9 C -0.1111(4) 0.1418(2) 0.2890(3)
H15 H -0.1742 0.1336 0.2594
C10 C -0.0425(4) 0.1643(2) 0.2558(3)
C11 C -0.1654(5) 0.1055(3) 0.4028(4)
C12 C -0.1234(8) 0.0569(5) 0.4472(8)
H16 H -0.0824 0.0681 0.4946
H17 H -0.0840 0.0367 0.4210
H18 H -0.1767 0.0347 0.4545
C13 C -0.1905(8) 0.1454(5) 0.4550(6)
H19 H -0.1307 0.1631 0.4824
H20 H -0.2212 0.1272 0.4890
H21 H -0.2357 0.1719 0.4274
C14 C -0.2601(7) 0.0892(5) 0.3482(5)
H22 H -0.2503 0.0555 0.3255
H23 H -0.2788 0.1165 0.3105
H24 H -0.3118 0.0852 0.3736
C15 C -0.0214(4) 0.2622(2) 0.1107(3)
C16 C -0.0782(4) 0.2353(2) 0.1519(3)
C17 C -0.1543(4) 0.2637(2) 0.1698(3)
H25 H -0.1923 0.2462 0.1973
C18 C -0.1776(4) 0.3172(2) 0.1490(3)
C19 C -0.1208(4) 0.3413(2) 0.1060(3)
H26 H -0.1356 0.3766 0.0899
C20 C -0.0427(4) 0.3150(2) 0.0858(3)
C21 C -0.2644(4) 0.3448(2) 0.1707(3)
C22 C -0.2819(5) 0.4022(2) 0.1407(4)
H27 H -0.3398 0.4169 0.1529
H28 H -0.2922 0.4017 0.0876
H29 H -0.2250 0.4241 0.1627
C23 C -0.3607(4) 0.3126(3) 0.1400(4)
H30 H -0.3537 0.2771 0.1615
H31 H -0.3732 0.3097 0.0869
H32 H -0.4154 0.3308 0.1524
C24 C -0.2440(5) 0.3464(3) 0.2561(3)
H33 H -0.2355 0.3103 0.2755
H34 H -0.2992 0.3632 0.2698
H35 H -0.1846 0.3669 0.2765
C25 C 0.1955(4) 0.3485(2) 0.1067(3)
C26 C 0.1049(4) 0.3737(2) 0.0779(3)
C27 C 0.1015(4) 0.4291(2) 0.0892(3)
H36 H 0.0412 0.4467 0.0699
C28 C 0.1812(4) 0.4599(2) 0.1271(3)
C29 C 0.2688(4) 0.4316(2) 0.1594(3)
H37 H 0.3229 0.4506 0.1880
C30 C 0.2778(4) 0.3764(2) 0.1505(3)
C31 C 0.1782(5) 0.5222(2) 0.1286(3)
C32 C 0.2594(5) 0.5466(2) 0.1909(3)
H38 H 0.2527 0.5333 0.2380
H39 H 0.2534 0.5852 0.1897
H40 H 0.3235 0.5365 0.1844
C33 C 0.1929(5) 0.5418(2) 0.0543(3)
H41 H 0.1445 0.5250 0.0144
H42 H 0.2586 0.5324 0.0508
H43 H 0.1848 0.5804 0.0510
C34 C 0.0763(5) 0.5426(2) 0.1370(4)
H44 H 0.0251 0.5327 0.0937
H45 H 0.0781 0.5812 0.1422
H46 H 0.0625 0.5265 0.1803
C35 C 0.3961(4) 0.3445(2) 0.3237(3)
C36 C 0.4239(4) 0.3673(2) 0.2637(3)
C37 C 0.4904(4) 0.4100(2) 0.2765(3)
H47 H 0.5097 0.4249 0.2363
C38 C 0.5298(4) 0.4318(2) 0.3474(3)
C39 C 0.4966(4) 0.4085(2) 0.4048(3)
H48 H 0.5203 0.4225 0.4525
C40 C 0.4305(4) 0.3657(2) 0.3955(3)
C41 C 0.6024(5) 0.4800(2) 0.3621(3)
C42 C 0.6984(6) 0.4611(3) 0.4166(5)
H49 H 0.6830 0.4459 0.4600
H50 H 0.7426 0.4912 0.4310
H51 H 0.7299 0.4341 0.3932
C43 C 0.6294(6) 0.4999(3) 0.2930(4)
H52 H 0.6598 0.4711 0.2720
H53 H 0.6753 0.5296 0.3058
H54 H 0.5704 0.5118 0.2574
C44 C 0.5562(7) 0.5263(3) 0.3952(5)
H55 H 0.5504 0.5163 0.4439
H56 H 0.4913 0.5340 0.3638
H57 H 0.5975 0.5578 0.3989
C45 C 0.2888(4) 0.2657(2) 0.4417(3)
C46 C 0.3066(4) 0.3193(2) 0.4630(3)
C47 C 0.2335(4) 0.3478(2) 0.4864(3)
H58 H 0.2458 0.3834 0.5019
C48 C 0.1431(4) 0.3245(2) 0.4873(3)
C49 C 0.1283(4) 0.2705(2) 0.4660(3)
H59 H 0.0686 0.2539 0.4672
C50 C 0.2001(4) 0.2403(2) 0.4429(3)
C51 C 0.0634(5) 0.3556(3) 0.5126(4)
C52 C 0.0402(8) 0.3307(4) 0.5783(5)
H60 H 0.0310 0.2925 0.5703
H61 H -0.0196 0.3464 0.5860
H62 H 0.0943 0.3370 0.6213
C53 C 0.0810(6) 0.4152(3) 0.5191(5)
H63 H 0.1017 0.4279 0.4765
H64 H 0.1321 0.4228 0.5635
H65 H 0.0206 0.4332 0.5214
C54 C -0.0356(6) 0.3540(3) 0.4477(5)
H66 H -0.0224 0.3675 0.4027
H67 H -0.0854 0.3760 0.4609
H68 H -0.0591 0.3174 0.4400
C55 C -0.0650(4) 0.1759(2) 0.1730(3)
H69 H -0.1253 0.1568 0.1483
H70 H -0.0112 0.1615 0.1542
C56 C 0.0143(4) 0.3428(2) 0.0366(3)
H71 H 0.0348 0.3157 0.0058
H72 H -0.0303 0.3676 0.0037
C57 C 0.3762(4) 0.3486(2) 0.1853(3)
H73 H 0.3652 0.3099 0.1858
H74 H 0.4218 0.3554 0.1545
C58 C 0.4073(4) 0.3444(2) 0.4666(3)
H75 H 0.4576 0.3176 0.4879
H76 H 0.4162 0.3742 0.5016
C59 C 0.1814(4) 0.1806(2) 0.4236(3)
H77 H 0.2296 0.1685 0.3974
H78 H 0.1931 0.1602 0.4697
C60 C 0.0927(5) 0.41949(19) 0.3029(3)
C61 C 0.0040(4) 0.4471(3) 0.2911(4)
H79 H -0.0550 0.4307 0.2652
C62 C 0.0024(5) 0.4990(3) 0.3177(5)
H80 H -0.0573 0.5180 0.3088
C63 C 0.0894(6) 0.5228(2) 0.3575(4)
H81 H 0.0879 0.5571 0.3778
C64 C 0.1786(5) 0.4958(3) 0.3673(4)
H82 H 0.2377 0.5125 0.3923
C65 C 0.1802(4) 0.4441(3) 0.3402(3)
H83 H 0.2403 0.4258 0.3471
C66 C 0.0938(5) 0.3620(3) 0.2782(4)
H84 H 0.0277 0.3514 0.2521
H85 H 0.1171 0.3392 0.3209
H86 H 0.1374 0.3586 0.2458
loop_
_geom_bond_atom_site_label_1
_geom_bond_atom_site_label_2
_geom_bond_site_symmetry_1
_geom_bond_site_symmetry_2
P1 O2 1_555 1_555
P2 O4 1_555 1_555
O1 H1 1_555 1_555
O2 C15 1_555 1_555
O3 P1 1_555 1_555
O4 C35 1_555 1_555
O5 P2 1_555 1_555
N1 P1 1_555 1_555
N2 P2 1_555 1_555
C1 N1 1_555 1_555
H2 C1 1_555 1_555
H3 C1 1_555 1_555
H4 C1 1_555 1_555
C2 N1 1_555 1_555
H5 C2 1_555 1_555
H6 C2 1_555 1_555
H7 C2 1_555 1_555
C3 N2 1_555 1_555
H8 C3 1_555 1_555
H9 C3 1_555 1_555
H10 C3 1_555 1_555
C4 N2 1_555 1_555
H11 C4 1_555 1_555
H12 C4 1_555 1_555
H13 C4 1_555 1_555
C5 O1 1_555 1_555
C6 C5 1_555 1_555
C7 C6 1_555 1_555
H14 C7 1_555 1_555
C8 C7 1_555 1_555
C9 C8 1_555 1_555
H15 C9 1_555 1_555
C10 C5 1_555 1_555
C11 C8 1_555 1_555
C12 C11 1_555 1_555
H16 C12 1_555 1_555
H17 C12 1_555 1_555
H18 C12 1_555 1_555
C13 C11 1_555 1_555
H19 C13 1_555 1_555
H20 C13 1_555 1_555
H21 C13 1_555 1_555
C14 C11 1_555 1_555
H22 C14 1_555 1_555
H23 C14 1_555 1_555
H24 C14 1_555 1_555
C15 C16 1_555 1_555
C16 C17 1_555 1_555
C17 H25 1_555 1_555
C18 C17 1_555 1_555
C19 C18 1_555 1_555
H26 C19 1_555 1_555
C20 C15 1_555 1_555
C21 C18 1_555 1_555
C22 C21 1_555 1_555
H27 C22 1_555 1_555
H28 C22 1_555 1_555
H29 C22 1_555 1_555
C23 C21 1_555 1_555
H30 C23 1_555 1_555
H31 C23 1_555 1_555
H32 C23 1_555 1_555
C24 C21 1_555 1_555
H33 C24 1_555 1_555
H34 C24 1_555 1_555
H35 C24 1_555 1_555
C25 O3 1_555 1_555
C26 C25 1_555 1_555
C27 C26 1_555 1_555
H36 C27 1_555 1_555
C28 C27 1_555 1_555
C29 C28 1_555 1_555
H37 C29 1_555 1_555
C30 C25 1_555 1_555
C31 C28 1_555 1_555
C32 C31 1_555 1_555
H38 C32 1_555 1_555
H39 C32 1_555 1_555
H40 C32 1_555 1_555
C33 C31 1_555 1_555
H41 C33 1_555 1_555
H42 C33 1_555 1_555
H43 C33 1_555 1_555
C34 C31 1_555 1_555
H44 C34 1_555 1_555
H45 C34 1_555 1_555
H46 C34 1_555 1_555
C35 C36 1_555 1_555
C36 C37 1_555 1_555
C37 H47 1_555 1_555
C38 C37 1_555 1_555
C39 C38 1_555 1_555
H48 C39 1_555 1_555
C40 C35 1_555 1_555
C41 C38 1_555 1_555
C42 C41 1_555 1_555
H49 C42 1_555 1_555
H50 C42 1_555 1_555
H51 C42 1_555 1_555
C43 C41 1_555 1_555
H52 C43 1_555 1_555
H53 C43 1_555 1_555
H54 C43 1_555 1_555
C44 C41 1_555 1_555
H55 C44 1_555 1_555
H56 C44 1_555 1_555
H57 C44 1_555 1_555
C45 O5 1_555 1_555
C46 C45 1_555 1_555
C47 C46 1_555 1_555
H58 C47 1_555 1_555
C48 C47 1_555 1_555
C49 C48 1_555 1_555
H59 C49 1_555 1_555
C50 C45 1_555 1_555
C51 C48 1_555 1_555
C52 C51 1_555 1_555
H60 C52 1_555 1_555
H61 C52 1_555 1_555
H62 C52 1_555 1_555
C53 C51 1_555 1_555
H63 C53 1_555 1_555
H64 C53 1_555 1_555
H65 C53 1_555 1_555
C54 C51 1_555 1_555
H66 C54 1_555 1_555
H67 C54 1_555 1_555
H68 C54 1_555 1_555
C55 C10 1_555 1_555
H69 C55 1_555 1_555
H70 C55 1_555 1_555
C56 C20 1_555 1_555
H71 C56 1_555 1_555
H72 C56 1_555 1_555
C57 C30 1_555 1_555
H73 C57 1_555 1_555
H74 C57 1_555 1_555
C58 C40 1_555 1_555
H75 C58 1_555 1_555
H76 C58 1_555 1_555
C59 C6 1_555 1_555
H77 C59 1_555 1_555
H78 C59 1_555 1_555
C60 C61 1_555 1_555
C61 H79 1_555 1_555
C62 C61 1_555 1_555
H80 C62 1_555 1_555
C63 C62 1_555 1_555
H81 C63 1_555 1_555
C64 C63 1_555 1_555
H82 C64 1_555 1_555
C65 C60 1_555 1_555
H83 C65 1_555 1_555
C66 C60 1_555 1_555
H84 C66 1_555 1_555
H85 C66 1_555 1_555
H86 C66 1_555 1_555
C9 C10 1_555 1_555
C16 C55 1_555 1_555
C19 C20 1_555 1_555
C26 C56 1_555 1_555
C29 C30 1_555 1_555
C36 C57 1_555 1_555
C39 C40 1_555 1_555
C46 C58 1_555 1_555
C49 C50 1_555 1_555
C50 C59 1_555 1_555
C64 C65 1_555 1_555

#END
