
#######################################################################
#
#                 Cambridge Crystallographic Data Centre
#                                CCDC 
#
#######################################################################
#
# If this CIF has been generated from an entry in the Cambridge 
# Structural Database, then it will include bibliographic, chemical, 
# crystal, experimental, refinement or atomic coordinate data resulting 
# from the CCDC's data processing and validation procedures.
#
#######################################################################

data_AYOREM
_chemical_formula_moiety         'C11 H11 N1 O3 S1'
_chemical_name_systematic        
'Propyl 3-oxo-1,2-benzothiazole-2(3H)-carboxylate'
_symmetry_cell_setting           monoclinic
_symmetry_space_group_name_H-M   'P 21/c'
_symmetry_Int_Tables_number      14
_space_group_name_Hall           '-P 2ybc'
loop_
_symmetry_equiv_pos_site_id
_symmetry_equiv_pos_as_xyz
1 x,y,z
2 -x,1/2+y,1/2-z
3 -x,-y,-z
4 x,1/2-y,1/2+z
_cell_length_a                   16.235(7)
_cell_length_b                   5.123(2)
_cell_length_c                   12.791(6)
_cell_angle_alpha                90
_cell_angle_beta                 90.720(7)
_cell_angle_gamma                90
_cell_volume                     1063.77
_exptl_crystal_colour            pink
_exptl_crystal_description       block
_cell_formula_units_Z            4
_exptl_crystal_recrystallization_method cyclohexane
loop_
_atom_site_label
_atom_site_type_symbol
_atom_site_fract_x
_atom_site_fract_y
_atom_site_fract_z
S1 S 0.25453(2) 0.70918(8) 0.71855(3)
O1 O 0.16642(7) 0.7439(2) 0.43840(8)
O2 O 0.28813(7) 1.0985(2) 0.46620(9)
O3 O 0.34796(8) 1.1023(3) 0.62778(10)
N1 N 0.24529(8) 0.8149(3) 0.59025(10)
C1 C 0.17595(9) 0.4842(3) 0.69666(11)
C2 C 0.14578(10) 0.3037(3) 0.76888(12)
H1 H 0.1671 0.2966 0.8383
C3 C 0.08395(10) 0.1360(3) 0.73593(13)
H2 H 0.0628 0.0116 0.7837
C4 C 0.05157(10) 0.1449(3) 0.63348(13)
H3 H 0.0088 0.0285 0.6130
C5 C 0.08200(9) 0.3230(3) 0.56251(12)
H4 H 0.0608 0.3292 0.4930
C6 C 0.14445(9) 0.4939(3) 0.59480(11)
C7 C 0.18296(9) 0.6918(3) 0.52901(12)
C8 C 0.29898(9) 1.0187(3) 0.56431(12)
C9 C 0.34321(10) 1.3087(3) 0.43295(15)
H5 H 0.3533 1.4290 0.4923
H6 H 0.3163 1.4093 0.3760
C10 C 0.42408(10) 1.2039(4) 0.39541(14)
H7 H 0.4139 1.0737 0.3395
H8 H 0.4532 1.1151 0.4539
C11 C 0.47784(11) 1.4220(4) 0.35365(15)
H9 H 0.4520 1.4964 0.2907
H10 H 0.5322 1.3520 0.3364
H11 H 0.4840 1.5583 0.4070
loop_
_geom_bond_atom_site_label_1
_geom_bond_atom_site_label_2
_geom_bond_site_symmetry_1
_geom_bond_site_symmetry_2
S1 N1 1_555 1_555
O1 C7 1_555 1_555
O2 C8 1_555 1_555
O3 C8 1_555 1_555
N1 C7 1_555 1_555
C1 S1 1_555 1_555
C2 C1 1_555 1_555
H1 C2 1_555 1_555
C3 C2 1_555 1_555
H2 C3 1_555 1_555
C4 C3 1_555 1_555
H3 C4 1_555 1_555
C5 C4 1_555 1_555
H4 C5 1_555 1_555
C6 C1 1_555 1_555
C7 C6 1_555 1_555
C8 N1 1_555 1_555
C9 O2 1_555 1_555
H5 C9 1_555 1_555
H6 C9 1_555 1_555
C10 C9 1_555 1_555
H7 C10 1_555 1_555
H8 C10 1_555 1_555
C11 C10 1_555 1_555
H9 C11 1_555 1_555
H10 C11 1_555 1_555
H11 C11 1_555 1_555
C5 C6 1_555 1_555

#END
