
#######################################################################
#
#                 Cambridge Crystallographic Data Centre
#                                CCDC 
#
#######################################################################
#
# If this CIF has been generated from an entry in the Cambridge 
# Structural Database, then it will include bibliographic, chemical, 
# crystal, experimental, refinement or atomic coordinate data resulting 
# from the CCDC's data processing and validation procedures.
#
#######################################################################

data_AYORUD
_chemical_formula_moiety         'C4 H2 N10 O8,H2 O1'
_chemical_name_systematic        
"N,N',3,6-tetranitropyrazolo[4,3-c]pyrazole-1,4-diamine monohydrate"
_symmetry_cell_setting           monoclinic
_symmetry_space_group_name_H-M   'I 2/a'
_symmetry_Int_Tables_number      15
_space_group_name_Hall           '-I 2ya'
loop_
_symmetry_equiv_pos_site_id
_symmetry_equiv_pos_as_xyz
1 x,y,z
2 1/2-x,y,-z
3 1/2+x,1/2+y,1/2+z
4 -x,1/2+y,1/2-z
5 -x,-y,-z
6 1/2+x,-y,z
7 1/2-x,1/2-y,1/2-z
8 x,1/2-y,1/2+z
_cell_length_a                   10.4425(9)
_cell_length_b                   6.0238(5)
_cell_length_c                   19.1447(17)
_cell_angle_alpha                90
_cell_angle_beta                 100.966(5)
_cell_angle_gamma                90
_cell_volume                     1182.28
_exptl_crystal_colour            colorless
_exptl_crystal_description       plate
_cell_formula_units_Z            4
loop_
_atom_site_label
_atom_site_type_symbol
_atom_site_fract_x
_atom_site_fract_y
_atom_site_fract_z
O1 O 0.13905(18) -0.2122(3) 0.15259(10)
O2 O 0.1326(2) -0.1715(3) 0.03939(10)
O3 O 0.02191(17) 0.3070(3) 0.09536(8)
O4 O -0.10548(15) 0.4636(3) 0.15808(10)
N1 N 0.17170(19) -0.1305(3) 0.10128(11)
N2 N 0.27482(19) 0.0314(3) 0.11361(10)
H1 H 0.264(3) 0.135(5) 0.0810(15)
N3 N 0.29552(17) 0.1110(3) 0.18155(9)
N4 N 0.40756(17) 0.0533(3) 0.22618(10)
N5 N -0.00253(18) 0.3770(3) 0.15141(10)
C1 C 0.2178(2) 0.2375(3) 0.21583(11)
C2 C 0.0996(2) 0.3538(4) 0.21261(12)
O1F O 0.36095(18) 0.7122(3) 0.34741(10)
O2F O 0.3674(2) 0.6715(3) 0.46061(10)
O3F O 0.47809(17) 0.1930(3) 0.40464(8)
O4F O 0.60548(15) 0.0364(3) 0.34192(10)
N1F N 0.32830(19) 0.6305(3) 0.39872(11)
N2F N 0.22518(19) 0.4686(3) 0.38639(10)
H1F H 0.236(3) 0.365(5) 0.4190(15)
N3F N 0.20448(17) 0.3890(3) 0.31845(9)
N4F N 0.09244(17) 0.4467(3) 0.27382(10)
N5F N 0.50253(18) 0.1230(3) 0.34859(10)
C1F C 0.2822(2) 0.2625(3) 0.28417(11)
C2F C 0.4004(2) 0.1462(4) 0.28739(12)
O5 O 0.2500 0.1451(5) 0.5000
H2 H 0.320(2) 0.084(6) 0.502(2)
H2A H 0.180(2) 0.084(6) 0.498(2)
loop_
_geom_bond_atom_site_label_1
_geom_bond_atom_site_label_2
_geom_bond_site_symmetry_1
_geom_bond_site_symmetry_2
O1 N1 1_555 1_555
O2 N1 1_555 1_555
O3 N5 1_555 1_555
O4 N5 1_555 1_555
N1 N2 1_555 1_555
N2 H1 1_555 1_555
N3 N2 1_555 1_555
N4 N3 1_555 1_555
N5 C2 1_555 1_555
C1 N3 1_555 1_555
C2 C1 1_555 1_555
O5 H2 1_555 1_555
O1F N1F 1_555 1_555
O2F N1F 1_555 1_555
O3F N5F 1_555 1_555
O4F N5F 1_555 1_555
N1F N2F 1_555 1_555
N2F H1F 1_555 1_555
N3F N2F 1_555 1_555
N4F C2 1_555 1_555
N5F C2F 1_555 1_555
C1F C1 1_555 1_555
C2F N4 1_555 1_555
H2A O5 1_555 1_555
N3F N4F 1_555 1_555
N3F C1F 1_555 1_555
C1F C2F 1_555 1_555

#END
