
#######################################################################
#
#                 Cambridge Crystallographic Data Centre
#                                CCDC 
#
#######################################################################
#
# If this CIF has been generated from an entry in the Cambridge 
# Structural Database, then it will include bibliographic, chemical, 
# crystal, experimental, refinement or atomic coordinate data resulting 
# from the CCDC's data processing and validation procedures.
#
#######################################################################

data_AYOVIU
_chemical_name_common            
2,2'-(Octane-1,8-diylbis(nitrilomethylylidene))bis(4-bromophenol)
_chemical_formula_moiety         'C22 H26 Br2 N2 O2'
_chemical_name_systematic        
4-bromo-2-[((8-[(5-hydroxy-2-methylphenyl)methylideneamino]octyl)imino)methyl]phenol
_symmetry_cell_setting           triclinic
_symmetry_space_group_name_H-M   'P -1'
_symmetry_Int_Tables_number      2
_space_group_name_Hall           '-P 1'
loop_
_symmetry_equiv_pos_site_id
_symmetry_equiv_pos_as_xyz
1 x,y,z
2 -x,-y,-z
_cell_length_a                   8.253(3)
_cell_length_b                   8.363(3)
_cell_length_c                   9.571(3)
_cell_angle_alpha                64.431(6)
_cell_angle_beta                 65.839(7)
_cell_angle_gamma                87.403(7)
_cell_volume                     536.726
_exptl_crystal_colour            yellow
_exptl_crystal_description       block
_cell_formula_units_Z            1
loop_
_atom_site_label
_atom_site_type_symbol
_atom_site_fract_x
_atom_site_fract_y
_atom_site_fract_z
Br1 Br -0.15293(11) -0.11794(9) 0.87746(8)
O1 O -0.2341(6) 0.5706(6) 0.3510(5)
H1 H -0.139(10) 0.622(10) 0.262(9)
N1 N 0.1031(7) 0.6095(6) 0.1542(6)
C1 C -0.0431(8) 0.3603(8) 0.4327(7)
C2 C -0.2133(8) 0.4146(8) 0.4675(7)
C3 C -0.3617(8) 0.3092(8) 0.6202(7)
H2 H -0.4757 0.3477 0.6419
C4 C -0.3464(8) 0.1514(8) 0.7395(7)
H3 H -0.4488 0.0792 0.8427
C5 C -0.1777(9) 0.0982(8) 0.7068(7)
C6 C -0.0262(8) 0.1996(7) 0.5568(7)
H4 H 0.0876 0.1611 0.5380
C7 C 0.1174(8) 0.4680(8) 0.2747(7)
H5 H 0.2322 0.4338 0.2609
C8 C 0.2663(9) 0.7103(8) -0.0021(7)
H6 H 0.3705 0.6960 0.0261
H7 H 0.2560 0.8395 -0.0495
C9 C 0.2982(9) 0.6468(8) -0.1364(6)
H8 H 0.1890 0.6500 -0.1560
H9 H 0.3198 0.5209 -0.0929
C10 C 0.4597(8) 0.7637(7) -0.3076(6)
H10 H 0.5599 0.7859 -0.2834
H11 H 0.5002 0.6963 -0.3761
C11 C 0.4197(8) 0.9434(7) -0.4143(6)
H12 H 0.3817 1.0120 -0.3470
H13 H 0.3180 0.9215 -0.4368
Br1A Br 1.15293(11) 2.11794(9) -1.87746(8)
O1A O 1.2341(6) 1.4294(6) -1.3510(5)
H1A H 1.139(10) 1.378(10) -1.262(9)
N1A N 0.8969(7) 1.3905(6) -1.1542(6)
C1A C 1.0431(8) 1.6397(8) -1.4327(7)
C2A C 1.2133(8) 1.5854(8) -1.4675(7)
C3A C 1.3617(8) 1.6908(8) -1.6202(7)
H2A H 1.4757 1.6523 -1.6419
C4A C 1.3464(8) 1.8486(8) -1.7395(7)
H3A H 1.4488 1.9208 -1.8427
C5A C 1.1777(9) 1.9018(8) -1.7068(7)
C6A C 1.0262(8) 1.8004(7) -1.5568(7)
H4A H 0.9124 1.8389 -1.5380
C7A C 0.8826(8) 1.5320(8) -1.2747(7)
H5A H 0.7678 1.5662 -1.2609
C8A C 0.7337(9) 1.2897(8) -0.9979(7)
H6A H 0.6295 1.3040 -1.0261
H7A H 0.7440 1.1605 -0.9505
C9A C 0.7018(9) 1.3532(8) -0.8636(6)
H8A H 0.8110 1.3500 -0.8440
H9A H 0.6802 1.4791 -0.9071
C10A C 0.5403(8) 1.2363(7) -0.6924(6)
H10A H 0.4401 1.2141 -0.7166
H11A H 0.4998 1.3037 -0.6239
C11A C 0.5803(8) 1.0566(7) -0.5857(6)
H12A H 0.6183 0.9880 -0.6530
H13A H 0.6820 1.0785 -0.5632
loop_
_geom_bond_atom_site_label_1
_geom_bond_atom_site_label_2
_geom_bond_site_symmetry_1
_geom_bond_site_symmetry_2
Br1 C5 1_555 1_555
O1 H1 1_555 1_555
N1 C7 1_555 1_555
C1 C2 1_555 1_555
C2 O1 1_555 1_555
C3 C2 1_555 1_555
H2 C3 1_555 1_555
C4 C3 1_555 1_555
H3 C4 1_555 1_555
C5 C4 1_555 1_555
C6 C1 1_555 1_555
H4 C6 1_555 1_555
C7 C1 1_555 1_555
H5 C7 1_555 1_555
C8 N1 1_555 1_555
H6 C8 1_555 1_555
H7 C8 1_555 1_555
C9 C8 1_555 1_555
H8 C9 1_555 1_555
H9 C9 1_555 1_555
C10 C9 1_555 1_555
H10 C10 1_555 1_555
H11 C10 1_555 1_555
C11 C10 1_555 1_555
H12 C11 1_555 1_555
H13 C11 1_555 1_555
Br1A C5A 1_555 1_555
O1A H1A 1_555 1_555
N1A C7A 1_555 1_555
C1A C2A 1_555 1_555
C2A O1A 1_555 1_555
C3A C2A 1_555 1_555
H2A C3A 1_555 1_555
C4A C3A 1_555 1_555
H3A C4A 1_555 1_555
C5A C4A 1_555 1_555
C6A C1A 1_555 1_555
H4A C6A 1_555 1_555
C7A C1A 1_555 1_555
H5A C7A 1_555 1_555
C8A N1A 1_555 1_555
H6A C8A 1_555 1_555
H7A C8A 1_555 1_555
C9A C8A 1_555 1_555
H8A C9A 1_555 1_555
H9A C9A 1_555 1_555
C10A C9A 1_555 1_555
H10A C10A 1_555 1_555
H11A C10A 1_555 1_555
C11A C11 1_555 1_555
H12A C11A 1_555 1_555
H13A C11A 1_555 1_555
C5 C6 1_555 1_555
C5A C6A 1_555 1_555
C10A C11A 1_555 1_555

#END
