
#######################################################################
#
#                 Cambridge Crystallographic Data Centre
#                                CCDC 
#
#######################################################################
#
# If this CIF has been generated from an entry in the Cambridge 
# Structural Database, then it will include bibliographic, chemical, 
# crystal, experimental, refinement or atomic coordinate data resulting 
# from the CCDC's data processing and validation procedures.
#
#######################################################################

data_AYOXES
_chemical_formula_moiety         'C9 H14 N1 O1 S1 1+,Cl1 1-'
_chemical_name_systematic        
'N,N-Dimethyl-3-oxo-3-(2-thienyl)propan-1-aminium chloride'
_symmetry_cell_setting           monoclinic
_symmetry_space_group_name_H-M   'P 21/n'
_symmetry_Int_Tables_number      14
_space_group_name_Hall           '-P 2yn'
loop_
_symmetry_equiv_pos_site_id
_symmetry_equiv_pos_as_xyz
1 x,y,z
2 1/2-x,1/2+y,1/2-z
3 -x,-y,-z
4 1/2+x,1/2-y,1/2+z
_cell_length_a                   5.8663(3)
_cell_length_b                   27.0109(9)
_cell_length_c                   7.1385(4)
_cell_angle_alpha                90
_cell_angle_beta                 110.767(6)
_cell_angle_gamma                90
_cell_volume                     1057.64
_exptl_crystal_colour            colorless
_exptl_crystal_description       block
_cell_formula_units_Z            4
loop_
_atom_site_label
_atom_site_type_symbol
_atom_site_fract_x
_atom_site_fract_y
_atom_site_fract_z
S1 S 0.52202(6) 0.201976(12) 0.22248(5)
O1 O 0.59639(18) 0.31119(4) 0.23658(16)
N1 N 0.1628(2) 0.42989(4) 0.28618(16)
H1 H 0.185(3) 0.4283(6) 0.413(2)
C1 C 0.3315(2) 0.15653(5) 0.24400(19)
H2 H 0.3584 0.1222 0.2307
C2 C 0.1360(2) 0.17494(5) 0.2825(2)
H3 H 0.0125 0.1549 0.3008
C3 C 0.1380(2) 0.22742(4) 0.29226(19)
H4 H 0.0157 0.2465 0.3172
C4 C 0.3377(2) 0.24739(4) 0.26137(17)
C5 C 0.4056(2) 0.29935(4) 0.25738(17)
C6 C 0.2273(2) 0.33779(4) 0.27755(18)
H5 H 0.0631 0.3312 0.1780
H6 H 0.2174 0.3358 0.4129
C7 C 0.3098(2) 0.38907(4) 0.24408(19)
H7 H 0.4826 0.3934 0.3311
H8 H 0.3006 0.3918 0.1033
C8 C -0.1028(3) 0.42606(5) 0.1722(2)
H9 H -0.1859 0.4550 0.2009
H10 H -0.1665 0.3959 0.2118
H11 H -0.1313 0.4248 0.0284
C9 C 0.2585(3) 0.47836(5) 0.2479(2)
H12 H 0.1668 0.5052 0.2806
H13 H 0.2405 0.4806 0.1063
H14 H 0.4313 0.4812 0.3315
Cl1 Cl 0.25260(7) 0.437297(12) 0.73047(5)
loop_
_geom_bond_atom_site_label_1
_geom_bond_atom_site_label_2
_geom_bond_site_symmetry_1
_geom_bond_site_symmetry_2
S1 C1 1_555 1_555
O1 C5 1_555 1_555
N1 H1 1_555 1_555
C1 H2 1_555 1_555
C2 C1 1_555 1_555
H3 C2 1_555 1_555
C3 C2 1_555 1_555
H4 C3 1_555 1_555
C4 S1 1_555 1_555
C5 C4 1_555 1_555
C6 C5 1_555 1_555
H5 C6 1_555 1_555
H6 C6 1_555 1_555
C7 N1 1_555 1_555
H7 C7 1_555 1_555
H8 C7 1_555 1_555
C8 N1 1_555 1_555
H9 C8 1_555 1_555
H10 C8 1_555 1_555
H11 C8 1_555 1_555
C9 N1 1_555 1_555
H12 C9 1_555 1_555
H13 C9 1_555 1_555
H14 C9 1_555 1_555
C3 C4 1_555 1_555
C6 C7 1_555 1_555

#END
