
#######################################################################
#
#                 Cambridge Crystallographic Data Centre
#                                CCDC 
#
#######################################################################
#
# If this CIF has been generated from an entry in the Cambridge 
# Structural Database, then it will include bibliographic, chemical, 
# crystal, experimental, refinement or atomic coordinate data resulting 
# from the CCDC's data processing and validation procedures.
#
#######################################################################

data_AYOXIX01
_chemical_formula_moiety         'C14 H13 N1 O1'
_chemical_name_systematic        5-methoxy-3-methyl-9H-carbazole
_symmetry_cell_setting           monoclinic
_symmetry_space_group_name_H-M   'P 21/n'
_symmetry_Int_Tables_number      14
_space_group_name_Hall           '-P 2yn'
loop_
_symmetry_equiv_pos_site_id
_symmetry_equiv_pos_as_xyz
1 x,y,z
2 1/2-x,1/2+y,1/2-z
3 -x,-y,-z
4 1/2+x,1/2-y,1/2+z
_cell_length_a                   11.4714(17)
_cell_length_b                   5.6130(6)
_cell_length_c                   16.915(2)
_cell_angle_alpha                90
_cell_angle_beta                 95.648(12)
_cell_angle_gamma                90
_cell_volume                     1083.85
_exptl_crystal_colour            colorless
_exptl_crystal_description       plate
_cell_formula_units_Z            4
loop_
_atom_site_label
_atom_site_type_symbol
_atom_site_fract_x
_atom_site_fract_y
_atom_site_fract_z
N1 N 0.75351(16) 0.9019(3) 0.33733(11)
O1 O 0.87342(14) 0.2515(3) 0.48861(9)
C1 C 0.7233(2) 0.7729(4) 0.40170(13)
C2 C 0.6320(2) 0.8112(5) 0.44900(14)
C3 C 0.6240(2) 0.6549(5) 0.51063(15)
C4 C 0.7020(2) 0.4666(5) 0.52713(14)
C5 C 0.7916(2) 0.4278(4) 0.47924(12)
C6 C 0.80227(19) 0.5816(4) 0.41493(12)
C7 C 0.88139(18) 0.5927(4) 0.35401(12)
C8 C 0.97356(19) 0.4503(4) 0.33407(12)
C9 C 1.0346(2) 0.5130(4) 0.26990(13)
C10 C 1.0020(2) 0.7209(4) 0.22706(13)
C11 C 0.9103(2) 0.8641(4) 0.24500(12)
C12 C 0.84878(19) 0.7963(4) 0.30811(12)
C13 C 1.1343(2) 0.3616(5) 0.24792(17)
C14 C 0.8706(2) 0.0955(5) 0.55566(14)
H1 H 0.5752 0.9433 0.4370
H2 H 0.5608 0.6778 0.5451
H3 H 0.6923 0.3644 0.5727
H4 H 0.9956 0.3076 0.3658
H5 H 1.0484 0.7652 0.1829
H6 H 0.8895 1.0072 0.2138
H7 H 1.1667 0.4306 0.2018
H8 H 1.1975 0.3556 0.2913
H9 H 1.1063 0.2024 0.2341
H10 H 0.9386 -0.0155 0.5567
H11 H 0.8800 0.1893 0.6047
H12 H 0.7969 0.0007 0.5539
H13 H 0.7146 1.0337 0.3178
loop_
_geom_bond_atom_site_label_1
_geom_bond_atom_site_label_2
_geom_bond_site_symmetry_1
_geom_bond_site_symmetry_2
N1 C1 1_555 1_555
O1 C5 1_555 1_555
C1 C2 1_555 1_555
C2 C3 1_555 1_555
C3 C4 1_555 1_555
C4 C5 1_555 1_555
C5 C6 1_555 1_555
C6 C1 1_555 1_555
C7 C6 1_555 1_555
C8 C7 1_555 1_555
C9 C8 1_555 1_555
C10 C9 1_555 1_555
C11 C10 1_555 1_555
C12 N1 1_555 1_555
C13 C9 1_555 1_555
C14 O1 1_555 1_555
H1 C2 1_555 1_555
H2 C3 1_555 1_555
H3 C4 1_555 1_555
H4 C8 1_555 1_555
H5 C10 1_555 1_555
H6 C11 1_555 1_555
H7 C13 1_555 1_555
H8 C13 1_555 1_555
H9 C13 1_555 1_555
H10 C14 1_555 1_555
H11 C14 1_555 1_555
H12 C14 1_555 1_555
H13 N1 1_555 1_555
C7 C12 1_555 1_555
C11 C12 1_555 1_555

#END
