
#######################################################################
#
#                 Cambridge Crystallographic Data Centre
#                                CCDC 
#
#######################################################################
#
# If this CIF has been generated from an entry in the Cambridge 
# Structural Database, then it will include bibliographic, chemical, 
# crystal, experimental, refinement or atomic coordinate data resulting 
# from the CCDC's data processing and validation procedures.
#
#######################################################################

data_AYOYUK
_chemical_formula_moiety         'C10 H7 N3 O4'
_chemical_name_systematic        
4-carboxy-2-(2-pyridinio)imidazole-5-carboxylate
_symmetry_cell_setting           monoclinic
_symmetry_space_group_name_H-M   'P 21/c'
_symmetry_Int_Tables_number      14
_space_group_name_Hall           '-P 2ybc'
loop_
_symmetry_equiv_pos_site_id
_symmetry_equiv_pos_as_xyz
1 x,y,z
2 -x,1/2+y,1/2-z
3 -x,-y,-z
4 x,1/2-y,1/2+z
_cell_length_a                   11.701(2)
_cell_length_b                   10.947(2)
_cell_length_c                   7.4253(15)
_cell_angle_alpha                90
_cell_angle_beta                 107.68(3)
_cell_angle_gamma                90
_cell_volume                     906.19
_exptl_crystal_colour            yellow
_exptl_crystal_description       prism
_cell_formula_units_Z            4
loop_
_atom_site_label
_atom_site_type_symbol
_atom_site_fract_x
_atom_site_fract_y
_atom_site_fract_z
O1 O 1.04791(13) 0.34830(13) -0.0067(2)
O2 O 0.99988(13) 0.15468(13) 0.0351(2)
O3 O 0.82521(13) 0.04871(13) 0.0987(2)
H1 H 0.8827 0.0852 0.0831
O4 O 0.65300(13) 0.09509(14) 0.1472(2)
N1 N 0.85670(15) 0.43688(16) 0.0864(2)
H2 H 0.9034 0.4932 0.0687
N2 N 0.70101(15) 0.34866(15) 0.1471(2)
N3 N 0.76016(15) 0.67597(16) 0.1238(2)
H3 H 0.8277 0.6683 0.1013
C1 C 0.98184(17) 0.26779(18) 0.0321(3)
C2 C 0.87398(17) 0.31449(18) 0.0776(3)
C3 C 0.77614(18) 0.26033(18) 0.1155(3)
C4 C 0.74573(18) 0.12859(19) 0.1211(3)
C5 C 0.75262(17) 0.45424(18) 0.1280(3)
C6 C 0.70164(18) 0.57337(19) 0.1471(3)
C7 C 0.59330(18) 0.5860(2) 0.1861(3)
H4 H 0.5524 0.5172 0.2066
C8 C 0.54629(19) 0.7017(2) 0.1945(3)
H5 H 0.4731 0.7105 0.2179
C9 C 0.60908(19) 0.80397(19) 0.1676(3)
H6 H 0.5783 0.8818 0.1721
C10 C 0.71828(18) 0.78862(19) 0.1340(3)
H7 H 0.7624 0.8564 0.1187
loop_
_geom_bond_atom_site_label_1
_geom_bond_atom_site_label_2
_geom_bond_site_symmetry_1
_geom_bond_site_symmetry_2
O1 C1 1_555 1_555
O2 C1 1_555 1_555
O3 H1 1_555 1_555
O4 C4 1_555 1_555
N1 H2 1_555 1_555
N2 C3 1_555 1_555
N3 H3 1_555 1_555
C1 C2 1_555 1_555
C2 N1 1_555 1_555
C3 C2 1_555 1_555
C4 O3 1_555 1_555
C5 N1 1_555 1_555
C6 N3 1_555 1_555
C7 C6 1_555 1_555
H4 C7 1_555 1_555
C8 C7 1_555 1_555
H5 C8 1_555 1_555
C9 C8 1_555 1_555
H6 C9 1_555 1_555
C10 N3 1_555 1_555
H7 C10 1_555 1_555
N2 C5 1_555 1_555
C3 C4 1_555 1_555
C5 C6 1_555 1_555
C9 C10 1_555 1_555

#END
