
#######################################################################
#
#                 Cambridge Crystallographic Data Centre
#                                CCDC 
#
#######################################################################
#
# If this CIF has been generated from an entry in the Cambridge 
# Structural Database, then it will include bibliographic, chemical, 
# crystal, experimental, refinement or atomic coordinate data resulting 
# from the CCDC's data processing and validation procedures.
#
#######################################################################

data_AYOZIY
_chemical_formula_moiety         'C21 H18 Br1 N1 O1'
_chemical_name_systematic        
4-(4-Bromophenyl)-2,3,3a,4,5,11c-hexahydrobenzo[f]furo[3,2-c]quinoline
_symmetry_cell_setting           triclinic
_symmetry_space_group_name_H-M   'P -1'
_symmetry_Int_Tables_number      2
_space_group_name_Hall           '-P 1'
loop_
_symmetry_equiv_pos_site_id
_symmetry_equiv_pos_as_xyz
1 x,y,z
2 -x,-y,-z
_cell_length_a                   9.4019(2)
_cell_length_b                   9.6025(2)
_cell_length_c                   10.4660(2)
_cell_angle_alpha                103.888(1)
_cell_angle_beta                 114.075(1)
_cell_angle_gamma                92.469(1)
_cell_volume                     826.812
_exptl_crystal_colour            colorless
_exptl_crystal_description       block
_cell_formula_units_Z            2
_exptl_crystal_recrystallization_method dimethylformamide
loop_
_atom_site_label
_atom_site_type_symbol
_atom_site_fract_x
_atom_site_fract_y
_atom_site_fract_z
Br1 Br 1.51042(4) 0.37481(4) 0.64000(4)
O1 O 0.7657(2) 0.0345(2) 0.8561(2)
C1 C 1.1935(3) 0.2498(3) 0.8548(3)
C2 C 1.3806(3) 0.3222(3) 0.7264(3)
N1 N 1.1406(3) 0.3070(3) 1.0684(3)
C3 C 0.8940(3) 0.2371(3) 1.0725(3)
C4 C 1.0888(3) 0.2098(3) 0.9222(3)
H1 H 1.0959 0.1099 0.9283
C5 C 1.2412(3) 0.1435(3) 0.7724(3)
H2 H 1.2100 0.0462 0.7605
C6 C 0.8804(3) 0.2858(3) 1.3089(3)
C7 C 1.3343(3) 0.1788(3) 0.7073(3)
H3 H 1.3647 0.1063 0.6515
C8 C 1.0518(3) 0.2965(3) 1.1442(3)
C9 C 0.8052(3) 0.2325(3) 1.1546(3)
C10 C 0.8148(3) 0.1891(3) 0.9095(3)
H4 H 0.7211 0.2361 0.8765
C11 C 0.9162(3) 0.2214(3) 0.8341(3)
H5 H 0.9075 0.3181 0.8190
C12 C 1.2421(3) 0.3929(3) 0.8702(3)
H6 H 1.2106 0.4661 0.9242
C13 C 0.6415(3) 0.1764(3) 1.0879(3)
H7 H 0.5893 0.1401 0.9869
C14 C 0.5593(3) 0.1746(3) 1.1694(3)
H8 H 0.4519 0.1385 1.1231
C15 C 0.7913(4) 0.2808(3) 1.3891(3)
H9 H 0.8407 0.3153 1.4903
C16 C 0.6344(4) 0.2263(3) 1.3208(3)
H10 H 0.5776 0.2237 1.3753
C17 C 1.1242(3) 0.3524(3) 1.2979(3)
H11 H 1.2300 0.3943 1.3452
C18 C 1.3365(3) 0.4302(3) 0.8073(3)
H12 H 1.3695 0.5273 0.8199
C19 C 1.0424(4) 0.3462(3) 1.3777(3)
H13 H 1.0932 0.3820 1.4788
C20 C 0.8387(4) 0.1035(4) 0.6873(3)
H14 H 0.7779 0.1450 0.6097
H15 H 0.9180 0.0569 0.6639
C21 C 0.7334(4) -0.0034(4) 0.7062(3)
H16 H 0.6236 0.0002 0.6472
H17 H 0.7538 -0.1011 0.6758
H18 H 1.234(4) 0.323(3) 1.114(3)
loop_
_geom_bond_atom_site_label_1
_geom_bond_atom_site_label_2
_geom_bond_site_symmetry_1
_geom_bond_site_symmetry_2
Br1 C2 1_555 1_555
O1 C10 1_555 1_555
C1 C4 1_555 1_555
C2 C7 1_555 1_555
N1 C4 1_555 1_555
C3 C8 1_555 1_555
C4 H1 1_555 1_555
C5 C1 1_555 1_555
H2 C5 1_555 1_555
C6 C9 1_555 1_555
C7 C5 1_555 1_555
H3 C7 1_555 1_555
C8 N1 1_555 1_555
C9 C3 1_555 1_555
C10 C3 1_555 1_555
H4 C10 1_555 1_555
C11 C4 1_555 1_555
H5 C11 1_555 1_555
C12 C1 1_555 1_555
H6 C12 1_555 1_555
C13 C9 1_555 1_555
H7 C13 1_555 1_555
C14 C13 1_555 1_555
H8 C14 1_555 1_555
C15 C6 1_555 1_555
H9 C15 1_555 1_555
C16 C14 1_555 1_555
H10 C16 1_555 1_555
C17 C8 1_555 1_555
H11 C17 1_555 1_555
C18 C2 1_555 1_555
H12 C18 1_555 1_555
C19 C6 1_555 1_555
H13 C19 1_555 1_555
C20 C11 1_555 1_555
H14 C20 1_555 1_555
H15 C20 1_555 1_555
C21 O1 1_555 1_555
H16 C21 1_555 1_555
H17 C21 1_555 1_555
H18 N1 1_555 1_555
C10 C11 1_555 1_555
C12 C18 1_555 1_555
C15 C16 1_555 1_555
C17 C19 1_555 1_555
C20 C21 1_555 1_555

#END
