
#######################################################################
#
#                 Cambridge Crystallographic Data Centre
#                                CCDC 
#
#######################################################################
#
# If this CIF has been generated from an entry in the Cambridge 
# Structural Database, then it will include bibliographic, chemical, 
# crystal, experimental, refinement or atomic coordinate data resulting 
# from the CCDC's data processing and validation procedures.
#
#######################################################################

data_AYUBED01
_chemical_formula_moiety         'C27 H36 N4 S3'
_chemical_name_systematic        
tris(2-(2-(methylsulfanyl)phenylamino)ethyl)amine
_symmetry_cell_setting           orthorhombic
_symmetry_space_group_name_H-M   'P 21 21 21'
_symmetry_Int_Tables_number      19
_space_group_name_Hall           'P 2ac 2ab'
loop_
_symmetry_equiv_pos_site_id
_symmetry_equiv_pos_as_xyz
1 x,y,z
2 1/2+x,1/2-y,-z
3 -x,1/2+y,1/2-z
4 1/2-x,-y,1/2+z
_cell_length_a                   10.4020(13)
_cell_length_b                   12.5438(14)
_cell_length_c                   20.097(2)
_cell_angle_alpha                90
_cell_angle_beta                 90
_cell_angle_gamma                90
_cell_volume                     2622.27
_exptl_crystal_colour            colorless
_exptl_crystal_description       block
_cell_formula_units_Z            4
loop_
_atom_site_label
_atom_site_type_symbol
_atom_site_fract_x
_atom_site_fract_y
_atom_site_fract_z
S1 S 0.34035(7) 0.40603(6) 0.71037(4)
S2 S 0.25131(7) 0.55649(5) 0.55548(4)
S3 S 0.29420(7) 0.75469(6) 0.69323(3)
N1 N 0.1467(2) 0.51764(18) 0.78584(12)
H1 H 0.140(3) 0.512(2) 0.7434(4)
N2 N 0.0093(2) 0.44597(18) 0.60266(12)
H2 H 0.040(3) 0.5077(11) 0.6120(15)
N3 N 0.0242(2) 0.75968(19) 0.66126(12)
H3 H 0.063(3) 0.7042(15) 0.6766(14)
N4 N -0.0986(2) 0.57117(16) 0.71382(11)
C1 C 0.4915(3) 0.3949(3) 0.66791(14)
H4 H 0.5237 0.4662 0.6572
H5 H 0.4797 0.3541 0.6267
H6 H 0.5534 0.3581 0.6966
C2 C 0.3768(3) 0.4939(2) 0.77681(14)
C3 C 0.5001(3) 0.5143(2) 0.79948(14)
H7 H 0.5714 0.4810 0.7785
C4 C 0.5205(3) 0.5835(2) 0.85297(14)
H8 H 0.6054 0.5978 0.8680
C5 C 0.4168(3) 0.6309(2) 0.88378(14)
H9 H 0.4301 0.6771 0.9206
C6 C 0.2930(3) 0.6111(2) 0.86110(13)
H10 H 0.2224 0.6447 0.8825
C7 C 0.2701(2) 0.5432(2) 0.80769(13)
C8 C 0.0358(3) 0.5690(2) 0.81502(14)
H11 H 0.0431 0.6472 0.8095
H12 H 0.0326 0.5532 0.8633
C9 C -0.0862(3) 0.5301(2) 0.78210(14)
H13 H -0.0860 0.4512 0.7811
H14 H -0.1612 0.5535 0.8087
C10 C 0.1590(3) 0.6066(2) 0.48617(15)
H15 H 0.1909 0.5749 0.4448
H16 H 0.1676 0.6843 0.4839
H17 H 0.0682 0.5878 0.4922
C11 C 0.2173(3) 0.41808(19) 0.55020(13)
C12 C 0.3084(3) 0.3487(2) 0.52362(13)
H18 H 0.3862 0.3767 0.5060
C13 C 0.2875(3) 0.2395(2) 0.52245(13)
H19 H 0.3507 0.1926 0.5048
C14 C 0.1731(3) 0.2001(2) 0.54741(13)
H20 H 0.1575 0.1255 0.5462
C15 C 0.0808(3) 0.2671(2) 0.57409(13)
H21 H 0.0030 0.2382 0.5909
C16 C 0.1016(3) 0.3778(2) 0.57642(13)
C17 C -0.0911(3) 0.4056(2) 0.64603(14)
H22 H -0.0519 0.3670 0.6839
H23 H -0.1461 0.3551 0.6212
C18 C -0.1724(3) 0.4972(2) 0.67199(13)
H24 H -0.2090 0.5368 0.6338
H25 H -0.2449 0.4680 0.6982
C19 C 0.4587(3) 0.7270(2) 0.67116(16)
H26 H 0.4609 0.6840 0.6305
H27 H 0.5003 0.6878 0.7074
H28 H 0.5044 0.7943 0.6636
C20 C 0.2315(3) 0.8129(2) 0.61983(13)
C21 C 0.3071(3) 0.8632(2) 0.57229(14)
H29 H 0.3978 0.8648 0.5774
C22 C 0.2504(3) 0.9114(2) 0.51708(14)
H30 H 0.3025 0.9454 0.4846
C23 C 0.1187(3) 0.9096(2) 0.50969(15)
H31 H 0.0803 0.9432 0.4723
C24 C 0.0416(3) 0.8590(2) 0.55668(14)
H32 H -0.0491 0.8581 0.5511
C25 C 0.0966(3) 0.8095(2) 0.61195(14)
C26 C -0.1135(2) 0.7436(2) 0.65432(15)
H33 H -0.1325 0.7056 0.6123
H34 H -0.1585 0.8132 0.6535
C27 C -0.1582(3) 0.6779(2) 0.71356(14)
H35 H -0.1356 0.7156 0.7552
H36 H -0.2528 0.6704 0.7120
loop_
_geom_bond_atom_site_label_1
_geom_bond_atom_site_label_2
_geom_bond_site_symmetry_1
_geom_bond_site_symmetry_2
S1 C1 1_555 1_555
S2 C10 1_555 1_555
S3 C19 1_555 1_555
N1 H1 1_555 1_555
N2 H2 1_555 1_555
N3 H3 1_555 1_555
N4 C9 1_555 1_555
C1 H4 1_555 1_555
H5 C1 1_555 1_555
H6 C1 1_555 1_555
C2 S1 1_555 1_555
C3 C2 1_555 1_555
H7 C3 1_555 1_555
C4 C3 1_555 1_555
H8 C4 1_555 1_555
C5 C4 1_555 1_555
H9 C5 1_555 1_555
C6 C5 1_555 1_555
H10 C6 1_555 1_555
C7 N1 1_555 1_555
C8 N1 1_555 1_555
H11 C8 1_555 1_555
H12 C8 1_555 1_555
C9 C8 1_555 1_555
H13 C9 1_555 1_555
H14 C9 1_555 1_555
C10 H15 1_555 1_555
H16 C10 1_555 1_555
H17 C10 1_555 1_555
C11 S2 1_555 1_555
C12 C11 1_555 1_555
H18 C12 1_555 1_555
C13 C12 1_555 1_555
H19 C13 1_555 1_555
C14 C13 1_555 1_555
H20 C14 1_555 1_555
C15 C14 1_555 1_555
H21 C15 1_555 1_555
C16 N2 1_555 1_555
C17 N2 1_555 1_555
H22 C17 1_555 1_555
H23 C17 1_555 1_555
C18 N4 1_555 1_555
H24 C18 1_555 1_555
H25 C18 1_555 1_555
C19 H26 1_555 1_555
H27 C19 1_555 1_555
H28 C19 1_555 1_555
C20 S3 1_555 1_555
C21 C20 1_555 1_555
H29 C21 1_555 1_555
C22 C21 1_555 1_555
H30 C22 1_555 1_555
C23 C22 1_555 1_555
H31 C23 1_555 1_555
C24 C23 1_555 1_555
H32 C24 1_555 1_555
C25 N3 1_555 1_555
C26 N3 1_555 1_555
H33 C26 1_555 1_555
H34 C26 1_555 1_555
C27 N4 1_555 1_555
H35 C27 1_555 1_555
H36 C27 1_555 1_555
C2 C7 1_555 1_555
C6 C7 1_555 1_555
C11 C16 1_555 1_555
C15 C16 1_555 1_555
C17 C18 1_555 1_555
C20 C25 1_555 1_555
C24 C25 1_555 1_555
C26 C27 1_555 1_555

#END
