
#######################################################################
#
#                 Cambridge Crystallographic Data Centre
#                                CCDC 
#
#######################################################################
#
# If this CIF has been generated from an entry in the Cambridge 
# Structural Database, then it will include bibliographic, chemical, 
# crystal, experimental, refinement or atomic coordinate data resulting 
# from the CCDC's data processing and validation procedures.
#
#######################################################################

data_AYUGAD
_chemical_formula_moiety         'C19 H25 N3 O3 S1,H2 O1'
_chemical_name_systematic        
'(2S,3S)-t-Butyl N-(3-hydroxy-1-phenyl-4-(pyrimidin-2-ylsulfanyl)butan-2-yl)carbamate monohydrate'
_symmetry_cell_setting           monoclinic
_symmetry_space_group_name_H-M   'C 2'
_symmetry_Int_Tables_number      5
_space_group_name_Hall           'C 2y'
loop_
_symmetry_equiv_pos_site_id
_symmetry_equiv_pos_as_xyz
1 x,y,z
2 -x,y,-z
3 1/2+x,1/2+y,z
4 1/2-x,1/2+y,-z
_cell_length_a                   19.4238(7)
_cell_length_b                   5.1275(2)
_cell_length_c                   22.4815(8)
_cell_angle_alpha                90
_cell_angle_beta                 114.319(2)
_cell_angle_gamma                90
_cell_volume                     2040.38
_exptl_crystal_colour            colorless
_exptl_crystal_description       needle
_chemical_melting_point          '371-373 K'
_cell_formula_units_Z            4
_exptl_crystal_recrystallization_method ethanol/water
loop_
_atom_site_label
_atom_site_type_symbol
_atom_site_fract_x
_atom_site_fract_y
_atom_site_fract_z
S1 S 0.38657(5) 0.93234(19) 0.94519(4)
O1 O 0.51141(12) 0.8689(5) 0.89189(11)
H1 H 0.526(2) 1.023(3) 0.898(2)
O2 O 0.33859(13) 0.2943(4) 0.71553(11)
O3 O 0.25342(12) 0.5902(4) 0.64894(11)
N1 N 0.29924(15) 1.2998(6) 0.95196(13)
N2 N 0.27041(16) 1.1435(6) 0.84405(13)
N3 N 0.35124(14) 0.7325(5) 0.73525(13)
H2 H 0.3325(17) 0.881(3) 0.7189(14)
C1 C 0.43449(16) 0.8764(7) 0.84546(14)
H3 H 0.4184 1.0614 0.8337
C2 C 0.38603(18) 0.7501(7) 0.87609(15)
H4 H 0.4049 0.5714 0.8905
H5 H 0.3334 0.7358 0.8428
C3 C 0.31002(17) 1.1467(7) 0.90796(16)
C4 C 0.24166(18) 1.4693(7) 0.92708(16)
H6 H 0.2315 1.5825 0.9560
C5 C 0.19690(19) 1.4849(8) 0.86141(17)
H7 H 0.1561 1.6048 0.8445
C6 C 0.21382(19) 1.3195(8) 0.82139(17)
H8 H 0.1844 1.3292 0.7757
C7 C 0.42887(16) 0.7273(7) 0.78451(14)
H9 H 0.4438 0.5418 0.7969
C8 C 0.31684(17) 0.5180(6) 0.70118(15)
C9 C 0.20689(17) 0.3927(7) 0.60200(15)
C10 C 0.16727(19) 0.2235(7) 0.63384(17)
H10 H 0.1391 0.3348 0.6514
H11 H 0.2049 0.1222 0.6693
H12 H 0.1323 0.1045 0.6013
C11 C 0.15008(19) 0.5600(7) 0.54834(17)
H13 H 0.1767 0.6684 0.5286
H14 H 0.1231 0.6722 0.5669
H15 H 0.1138 0.4472 0.5149
C12 C 0.25420(18) 0.2360(7) 0.57476(16)
H16 H 0.2829 0.1024 0.6064
H17 H 0.2892 0.3529 0.5665
H18 H 0.2208 0.1520 0.5338
C13 C 0.48159(17) 0.8439(7) 0.75607(15)
H19 H 0.4615 1.0151 0.7361
H20 H 0.5320 0.8734 0.7919
C14 C 0.48983(18) 0.6690(7) 0.70518(16)
C15 C 0.44298(19) 0.6935(7) 0.63926(16)
H21 H 0.4064 0.8291 0.6250
C16 C 0.44908(19) 0.5222(7) 0.59414(17)
H22 H 0.4163 0.5397 0.5492
C17 C 0.50219(19) 0.3270(8) 0.61384(17)
H23 H 0.5059 0.2091 0.5827
C18 C 0.55023(19) 0.3022(7) 0.67897(18)
H24 H 0.5876 0.1693 0.6926
C19 C 0.54376(18) 0.4719(7) 0.72444(17)
H25 H 0.5766 0.4532 0.7693
O4 O 0.58202(13) 0.3603(5) 0.91425(12)
H26 H 0.6181(15) 0.351(8) 0.9517(9)
H27 H 0.561(2) 0.506(4) 0.912(2)
loop_
_geom_bond_atom_site_label_1
_geom_bond_atom_site_label_2
_geom_bond_site_symmetry_1
_geom_bond_site_symmetry_2
S1 C2 1_555 1_555
O1 H1 1_555 1_555
O2 C8 1_555 1_555
O3 C8 1_555 1_555
N1 C3 1_555 1_555
N2 C3 1_555 1_555
N3 H2 1_555 1_555
C1 O1 1_555 1_555
H3 C1 1_555 1_555
C2 C1 1_555 1_555
H4 C2 1_555 1_555
H5 C2 1_555 1_555
C3 S1 1_555 1_555
C4 N1 1_555 1_555
H6 C4 1_555 1_555
C5 C4 1_555 1_555
H7 C5 1_555 1_555
C6 N2 1_555 1_555
H8 C6 1_555 1_555
C7 N3 1_555 1_555
H9 C7 1_555 1_555
C8 N3 1_555 1_555
C9 O3 1_555 1_555
C10 C9 1_555 1_555
H10 C10 1_555 1_555
H11 C10 1_555 1_555
H12 C10 1_555 1_555
C11 C9 1_555 1_555
H13 C11 1_555 1_555
H14 C11 1_555 1_555
H15 C11 1_555 1_555
C12 C9 1_555 1_555
H16 C12 1_555 1_555
H17 C12 1_555 1_555
H18 C12 1_555 1_555
C13 C7 1_555 1_555
H19 C13 1_555 1_555
H20 C13 1_555 1_555
C14 C13 1_555 1_555
C15 C14 1_555 1_555
H21 C15 1_555 1_555
C16 C15 1_555 1_555
H22 C16 1_555 1_555
C17 C16 1_555 1_555
H23 C17 1_555 1_555
C18 C17 1_555 1_555
H24 C18 1_555 1_555
C19 C14 1_555 1_555
H25 C19 1_555 1_555
O4 H26 1_555 1_555
H27 O4 1_555 1_555
C1 C7 1_555 1_555
C5 C6 1_555 1_555
C18 C19 1_555 1_555

#END
