
#######################################################################
#
#                 Cambridge Crystallographic Data Centre
#                                CCDC 
#
#######################################################################
#
# If this CIF has been generated from an entry in the Cambridge 
# Structural Database, then it will include bibliographic, chemical, 
# crystal, experimental, refinement or atomic coordinate data resulting 
# from the CCDC's data processing and validation procedures.
#
#######################################################################

data_AYUHOS
_chemical_formula_moiety         'C7 H13 N1 O5'
_chemical_name_systematic        '2-((t-Butoxycarbonylamino)oxy)acetic acid'
_symmetry_cell_setting           monoclinic
_symmetry_space_group_name_H-M   'P 21/c'
_symmetry_Int_Tables_number      14
_space_group_name_Hall           '-P 2ybc'
loop_
_symmetry_equiv_pos_site_id
_symmetry_equiv_pos_as_xyz
1 x,y,z
2 -x,1/2+y,1/2-z
3 -x,-y,-z
4 x,1/2-y,1/2+z
_cell_length_a                   5.9973(5)
_cell_length_b                   10.1292(13)
_cell_length_c                   15.6445(17)
_cell_angle_alpha                90
_cell_angle_beta                 90.570(1)
_cell_angle_gamma                90
_cell_volume                     950.323
_exptl_crystal_colour            colorless
_exptl_crystal_description       block
_cell_formula_units_Z            4
_exptl_crystal_recrystallization_method methanol
loop_
_atom_site_label
_atom_site_type_symbol
_atom_site_fract_x
_atom_site_fract_y
_atom_site_fract_z
N1 N 0.6083(5) 0.1502(3) 0.0709(2)
O1 O 0.8143(4) 0.3814(3) -0.00926(18)
O2 O 1.1753(4) 0.3574(3) 0.02405(19)
H1 H 1.2247 0.3245 0.0682
O3 O 0.7431(4) 0.1152(2) 0.00116(15)
O4 O 0.3937(4) 0.0832(3) 0.17426(16)
O5 O 0.6762(5) -0.0506(3) 0.13138(17)
C1 C 0.9751(6) 0.3117(4) 0.0088(2)
C2 C 0.9609(6) 0.1647(4) 0.0151(2)
H2 H 1.0601 0.1258 -0.0265
H3 H 1.0122 0.1375 0.0715
C3 C 0.5677(6) 0.0477(4) 0.1261(2)
C4 C 0.3312(6) 0.0044(4) 0.2499(2)
C5 C 0.1486(8) 0.0912(5) 0.2878(3)
H4 H 0.2111 0.1745 0.3047
H5 H 0.0867 0.0481 0.3368
H6 H 0.0334 0.1053 0.2458
C6 C 0.2369(8) -0.1253(5) 0.2217(3)
H7 H 0.1142 -0.1105 0.1830
H8 H 0.1858 -0.1734 0.2706
H9 H 0.3502 -0.1754 0.1934
C7 C 0.5264(7) -0.0085(5) 0.3105(3)
H10 H 0.6414 -0.0598 0.2841
H11 H 0.4792 -0.0515 0.3619
H12 H 0.5832 0.0777 0.3242
H13 H 0.488(8) 0.201(5) 0.055(3)
loop_
_geom_bond_atom_site_label_1
_geom_bond_atom_site_label_2
_geom_bond_site_symmetry_1
_geom_bond_site_symmetry_2
N1 O3 1_555 1_555
O1 C1 1_555 1_555
O2 H1 1_555 1_555
O3 C2 1_555 1_555
O4 C3 1_555 1_555
O5 C3 1_555 1_555
C1 O2 1_555 1_555
C2 C1 1_555 1_555
H2 C2 1_555 1_555
H3 C2 1_555 1_555
C3 N1 1_555 1_555
C4 O4 1_555 1_555
C5 C4 1_555 1_555
H4 C5 1_555 1_555
H5 C5 1_555 1_555
H6 C5 1_555 1_555
C6 C4 1_555 1_555
H7 C6 1_555 1_555
H8 C6 1_555 1_555
H9 C6 1_555 1_555
C7 C4 1_555 1_555
H10 C7 1_555 1_555
H11 C7 1_555 1_555
H12 C7 1_555 1_555
H13 N1 1_555 1_555

#END
