
#######################################################################
#
#                 Cambridge Crystallographic Data Centre
#                                CCDC 
#
#######################################################################
#
# If this CIF has been generated from an entry in the Cambridge 
# Structural Database, then it will include bibliographic, chemical, 
# crystal, experimental, refinement or atomic coordinate data resulting 
# from the CCDC's data processing and validation procedures.
#
#######################################################################

data_AYUHIM
_chemical_name_common            
2,3,6,3',4'-Penta-O-acetyl-4,1',6'-trichloro-4,1',6'-trideoxysucrose
_chemical_formula_moiety         'C22 H29 Cl3 O13'
_chemical_name_systematic        
'6-(Acetoxymethyl)-5-chloro-2-((3,4-diacetoxy-2,5-bis(chloromethyl)tetrahydrofuran-2-yl)oxy)tetrahydro-2H-pyran-3,4-diyl diacetate'
_symmetry_cell_setting           orthorhombic
_symmetry_space_group_name_H-M   'P 21 21 21'
_symmetry_Int_Tables_number      19
_space_group_name_Hall           'P 2ac 2ab'
loop_
_symmetry_equiv_pos_site_id
_symmetry_equiv_pos_as_xyz
1 x,y,z
2 1/2-x,-y,1/2+z
3 -x,1/2+y,1/2-z
4 1/2+x,1/2-y,-z
_cell_length_a                   8.9813(6)
_cell_length_b                   15.5062(10)
_cell_length_c                   19.9737(13)
_cell_angle_alpha                90
_cell_angle_beta                 90
_cell_angle_gamma                90
_cell_volume                     2781.65
_exptl_crystal_colour            colorless
_exptl_crystal_description       prism
_cell_formula_units_Z            4
_exptl_crystal_recrystallization_method ethanol
loop_
_atom_site_label
_atom_site_type_symbol
_atom_site_fract_x
_atom_site_fract_y
_atom_site_fract_z
Cl1 Cl 0.18975(7) 0.24388(4) -0.12651(3)
Cl2 Cl 0.09410(10) 0.70991(4) 0.09992(4)
Cl3 Cl 0.38581(8) 0.40249(5) 0.17639(5)
O1 O 0.16446(17) 0.35433(9) 0.00841(7)
O2 O 0.0328(2) 0.21775(11) 0.08279(9)
O3 O 0.1521(3) 0.09365(15) 0.09253(11)
O4 O 0.0716(2) 0.39925(11) -0.18950(8)
O5 O -0.1314(2) 0.32350(16) -0.21651(11)
O6 O 0.14003(19) 0.53711(9) -0.10439(8)
O7 O 0.3616(3) 0.54004(15) -0.15533(15)
O8 O 0.02654(16) 0.48044(9) 0.01512(7)
O9 O 0.15910(17) 0.51900(10) 0.11205(7)
O10 O -0.23093(18) 0.51482(10) 0.07552(8)
O11 O -0.2683(3) 0.65461(13) 0.05707(14)
O12 O -0.1484(2) 0.47132(10) 0.21759(8)
O13 O -0.1041(3) 0.33524(11) 0.24732(9)
C1 C 0.0421(2) 0.30399(14) -0.01580(11)
H1 H -0.0509 0.3286 0.0013
C2 C 0.0366(2) 0.30306(14) -0.09186(11)
H2 H -0.0562 0.2750 -0.1058
C3 C 0.0374(2) 0.39501(13) -0.11934(10)
H3 H -0.0595 0.4220 -0.1111
C4 C 0.1589(2) 0.44793(13) -0.08635(11)
H4 H 0.2559 0.4280 -0.1026
C5 C 0.1564(2) 0.44207(13) -0.01042(11)
H5 H 0.2433 0.4725 0.0075
C6 C 0.0430(3) 0.54111(14) 0.06840(10)
C7 C -0.0980(2) 0.53377(14) 0.11150(10)
H6 H -0.1114 0.5867 0.1376
C8 C -0.0613(3) 0.46004(15) 0.15774(11)
H7 H -0.0838 0.4046 0.1365
C9 C 0.1065(3) 0.47010(14) 0.16894(10)
H8 H 0.1240 0.5030 0.2101
C10 C 0.0605(3) 0.21462(15) 0.01212(13)
H9 H -0.0091 0.1755 -0.0092
H10 H 0.1607 0.1939 0.0037
C11 C 0.0786(3) 0.14943(14) 0.11772(13)
C12 C 0.0301(3) 0.15198(16) 0.18838(13)
H11 H -0.0737 0.1375 0.1911
H12 H 0.0455 0.2089 0.2061
H13 H 0.0870 0.1112 0.2139
C13 C -0.0184(4) 0.35766(17) -0.23298(13)
C14 C 0.0489(6) 0.3574(3) -0.30054(15)
H14 H 0.1269 0.3151 -0.3023
H15 H 0.0895 0.4133 -0.3101
H16 H -0.0259 0.3435 -0.3331
C15 C 0.2519(3) 0.57680(15) -0.13722(12)
C16 C 0.2162(4) 0.66902(16) -0.14929(15)
H17 H 0.3024 0.6978 -0.1668
H18 H 0.1870 0.6957 -0.1079
H19 H 0.1360 0.6732 -0.1809
C17 C 0.0780(3) 0.62800(15) 0.03785(12)
H20 H -0.0003 0.6435 0.0066
H21 H 0.1706 0.6242 0.0130
C18 C -0.3104(3) 0.58228(18) 0.05202(13)
C19 C -0.4519(3) 0.5537(2) 0.02097(17)
H22 H -0.5134 0.5267 0.0543
H23 H -0.4310 0.5131 -0.0141
H24 H -0.5031 0.6026 0.0026
C20 C -0.1637(3) 0.40117(15) 0.25818(12)
C21 C -0.2646(4) 0.42122(19) 0.31566(15)
H25 H -0.2709 0.3720 0.3446
H26 H -0.3620 0.4351 0.2991
H27 H -0.2257 0.4694 0.3402
C22 C 0.1891(3) 0.38625(16) 0.17245(13)
H28 H 0.1653 0.3519 0.1333
H29 H 0.1569 0.3545 0.2117
loop_
_geom_bond_atom_site_label_1
_geom_bond_atom_site_label_2
_geom_bond_site_symmetry_1
_geom_bond_site_symmetry_2
Cl1 C2 1_555 1_555
Cl2 C17 1_555 1_555
Cl3 C22 1_555 1_555
O1 C1 1_555 1_555
O2 C10 1_555 1_555
O3 C11 1_555 1_555
O4 C3 1_555 1_555
O5 C13 1_555 1_555
O6 C4 1_555 1_555
O7 C15 1_555 1_555
O8 C5 1_555 1_555
O9 C6 1_555 1_555
O10 C7 1_555 1_555
O11 C18 1_555 1_555
O12 C8 1_555 1_555
O13 C20 1_555 1_555
C1 H1 1_555 1_555
C2 C1 1_555 1_555
H2 C2 1_555 1_555
C3 C2 1_555 1_555
H3 C3 1_555 1_555
C4 C3 1_555 1_555
H4 C4 1_555 1_555
C5 O1 1_555 1_555
H5 C5 1_555 1_555
C6 O8 1_555 1_555
C7 C6 1_555 1_555
H6 C7 1_555 1_555
C8 C7 1_555 1_555
H7 C8 1_555 1_555
C9 O9 1_555 1_555
H8 C9 1_555 1_555
C10 C1 1_555 1_555
H9 C10 1_555 1_555
H10 C10 1_555 1_555
C11 O2 1_555 1_555
C12 C11 1_555 1_555
H11 C12 1_555 1_555
H12 C12 1_555 1_555
H13 C12 1_555 1_555
C13 O4 1_555 1_555
C14 C13 1_555 1_555
H14 C14 1_555 1_555
H15 C14 1_555 1_555
H16 C14 1_555 1_555
C15 O6 1_555 1_555
C16 C15 1_555 1_555
H17 C16 1_555 1_555
H18 C16 1_555 1_555
H19 C16 1_555 1_555
C17 C6 1_555 1_555
H20 C17 1_555 1_555
H21 C17 1_555 1_555
C18 O10 1_555 1_555
C19 C18 1_555 1_555
H22 C19 1_555 1_555
H23 C19 1_555 1_555
H24 C19 1_555 1_555
C20 O12 1_555 1_555
C21 C20 1_555 1_555
H25 C21 1_555 1_555
H26 C21 1_555 1_555
H27 C21 1_555 1_555
C22 C9 1_555 1_555
H28 C22 1_555 1_555
H29 C22 1_555 1_555
C4 C5 1_555 1_555
C8 C9 1_555 1_555

#END
