
#######################################################################
#
#                 Cambridge Crystallographic Data Centre
#                                CCDC 
#
#######################################################################
#
# If this CIF has been generated from an entry in the Cambridge 
# Structural Database, then it will include bibliographic, chemical, 
# crystal, experimental, refinement or atomic coordinate data resulting 
# from the CCDC's data processing and validation procedures.
#
#######################################################################

data_AYUKUB
_chemical_formula_moiety         'C13 H11 Br1 N2'
_chemical_name_systematic        
(E)-N-((6-Bromopyridin-2-yl)methylidene)-4-methylaniline
_symmetry_cell_setting           orthorhombic
_symmetry_space_group_name_H-M   'P b c a'
_symmetry_Int_Tables_number      61
_space_group_name_Hall           '-P 2ac 2ab'
loop_
_symmetry_equiv_pos_site_id
_symmetry_equiv_pos_as_xyz
1 x,y,z
2 1/2-x,-y,1/2+z
3 -x,1/2+y,1/2-z
4 1/2+x,1/2-y,-z
5 -x,-y,-z
6 1/2+x,y,1/2-z
7 x,1/2-y,1/2+z
8 1/2-x,1/2+y,z
_cell_length_a                   13.542(3)
_cell_length_b                   6.1544(15)
_cell_length_c                   27.620(7)
_cell_angle_alpha                90
_cell_angle_beta                 90
_cell_angle_gamma                90
_cell_volume                     2301.93
_exptl_crystal_colour            colorless
_exptl_crystal_description       prism
_cell_formula_units_Z            8
_exptl_crystal_recrystallization_method methanol
loop_
_atom_site_label
_atom_site_type_symbol
_atom_site_fract_x
_atom_site_fract_y
_atom_site_fract_z
Br1 Br 0.38420(2) 0.10293(5) 0.750452(7)
N1 N 0.38367(13) 0.1724(3) 0.65201(6)
N2 N 0.38262(12) 0.2660(3) 0.52490(7)
C1 C 0.37666(14) 0.2783(4) 0.69322(8)
C2 C 0.36569(15) 0.5001(4) 0.69829(8)
H1 H 0.3618 0.5667 0.7293
C3 C 0.36066(16) 0.6208(4) 0.65619(9)
H2 H 0.3531 0.7742 0.6576
C4 C 0.36681(14) 0.5157(4) 0.61200(8)
H3 H 0.3629 0.5959 0.5827
C5 C 0.37868(14) 0.2921(4) 0.61109(8)
C6 C 0.38647(15) 0.1703(4) 0.56563(8)
H4 H 0.3945 0.0171 0.5666
C7 C 0.38278(14) 0.1445(4) 0.48137(8)
C8 C 0.41670(16) 0.2481(4) 0.43969(7)
H5 H 0.4428 0.3912 0.4417
C9 C 0.41266(17) 0.1437(4) 0.39534(8)
H6 H 0.4372 0.2151 0.3673
C10 C 0.37303(14) -0.0649(4) 0.39118(9)
C11 C 0.33938(16) -0.1659(4) 0.43272(8)
H7 H 0.3123 -0.3079 0.4305
C12 C 0.34413(15) -0.0651(4) 0.47738(8)
H8 H 0.3211 -0.1387 0.5054
C13 C 0.36452(17) -0.1756(5) 0.34244(9)
H9 H 0.2966 -0.1623 0.3305
H10 H 0.3816 -0.3296 0.3458
H11 H 0.4098 -0.1065 0.3195
loop_
_geom_bond_atom_site_label_1
_geom_bond_atom_site_label_2
_geom_bond_site_symmetry_1
_geom_bond_site_symmetry_2
Br1 C1 1_555 1_555
N1 C1 1_555 1_555
N2 C6 1_555 1_555
C1 C2 1_555 1_555
C2 H1 1_555 1_555
C3 C2 1_555 1_555
H2 C3 1_555 1_555
C4 C3 1_555 1_555
H3 C4 1_555 1_555
C5 N1 1_555 1_555
C6 C5 1_555 1_555
H4 C6 1_555 1_555
C7 N2 1_555 1_555
C8 C7 1_555 1_555
H5 C8 1_555 1_555
C9 C8 1_555 1_555
H6 C9 1_555 1_555
C10 C9 1_555 1_555
C11 C10 1_555 1_555
H7 C11 1_555 1_555
C12 C7 1_555 1_555
H8 C12 1_555 1_555
C13 C10 1_555 1_555
H9 C13 1_555 1_555
H10 C13 1_555 1_555
H11 C13 1_555 1_555
C4 C5 1_555 1_555
C11 C12 1_555 1_555

#END
