
#######################################################################
#
#                 Cambridge Crystallographic Data Centre
#                                CCDC 
#
#######################################################################
#
# If this CIF has been generated from an entry in the Cambridge 
# Structural Database, then it will include bibliographic, chemical, 
# crystal, experimental, refinement or atomic coordinate data resulting 
# from the CCDC's data processing and validation procedures.
#
#######################################################################

data_AYUMUD
_chemical_name_common            '6-Methylnicotinic acid'
_chemical_formula_moiety         'C7 H7 N1 O2'
_chemical_name_systematic        '6-Methylpyridine-3-carboxylic acid'
_symmetry_cell_setting           monoclinic
_symmetry_space_group_name_H-M   'P 21'
_symmetry_Int_Tables_number      4
_space_group_name_Hall           'P 2yb'
loop_
_symmetry_equiv_pos_site_id
_symmetry_equiv_pos_as_xyz
1 x,y,z
2 -x,1/2+y,-z
_cell_length_a                   3.8788(8)
_cell_length_b                   13.634(3)
_cell_length_c                   6.1094(12)
_cell_angle_alpha                90
_cell_angle_beta                 90.51(3)
_cell_angle_gamma                90
_cell_volume                     323.074
_exptl_crystal_colour            colorless
_exptl_crystal_description       prism
_cell_formula_units_Z            2
_exptl_crystal_recrystallization_method methanol
loop_
_atom_site_label
_atom_site_type_symbol
_atom_site_fract_x
_atom_site_fract_y
_atom_site_fract_z
O1 O 0.0195(8) 0.40438(18) 0.9514(4)
H1 H -0.0573 0.3629 1.0349
O2 O -0.1535(7) 0.50696(18) 1.2089(4)
C1 C -0.0216(7) 0.4918(2) 1.0367(5)
C2 C 0.4505(10) 0.8121(3) 0.5202(7)
H2 H 0.5640 0.8578 0.6162
H3 H 0.2546 0.8431 0.4526
H4 H 0.6080 0.7911 0.4092
C3 C 0.2600(8) 0.5539(3) 0.6920(6)
H5 H 0.2823 0.4902 0.6394
C4 C 0.3724(8) 0.6311(3) 0.5713(5)
H6 H 0.4753 0.6202 0.4366
C5 C 0.3345(9) 0.7257(3) 0.6479(5)
C6 C 0.0802(8) 0.6670(2) 0.9593(5)
H7 H -0.0207 0.6796 1.0940
N1 N 0.1857(8) 0.74310(17) 0.8408(4)
C7 C 0.1119(9) 0.5709(2) 0.8942(5)
loop_
_geom_bond_atom_site_label_1
_geom_bond_atom_site_label_2
_geom_bond_site_symmetry_1
_geom_bond_site_symmetry_2
O1 H1 1_555 1_555
O2 C1 1_555 1_555
C1 O1 1_555 1_555
C2 H2 1_555 1_555
H3 C2 1_555 1_555
H4 C2 1_555 1_555
C3 H5 1_555 1_555
C4 C3 1_555 1_555
H6 C4 1_555 1_555
C5 C2 1_555 1_555
C6 H7 1_555 1_555
N1 C5 1_555 1_555
C7 C1 1_555 1_555
C3 C7 1_555 1_555
C4 C5 1_555 1_555
C6 N1 1_555 1_555
C6 C7 1_555 1_555

#END
