
#######################################################################
#
#                 Cambridge Crystallographic Data Centre
#                                CCDC 
#
#######################################################################
#
# If this CIF has been generated from an entry in the Cambridge 
# Structural Database, then it will include bibliographic, chemical, 
# crystal, experimental, refinement or atomic coordinate data resulting 
# from the CCDC's data processing and validation procedures.
#
#######################################################################

data_AYUMIR
_chemical_name_common            
"1,1'-(Naphthalene-1,4-diylbis(methylene))bis(3-benzyl-1H-imidazol-3-ium) bis(hexafluorophosphate)"
_chemical_formula_moiety         'C32 H30 N4 2+,2(F6 P1 1-)'
_chemical_name_systematic        
"3,3'-Dibenzyl-1,1'-(naphthalene-1,4-diylbis(methylene))bis(1H-imidazol-3-ium) bis(hexafluorophosphate)"
_symmetry_cell_setting           monoclinic
_symmetry_space_group_name_H-M   'C 2/c'
_symmetry_Int_Tables_number      15
_space_group_name_Hall           '-C 2yn'
loop_
_symmetry_equiv_pos_site_id
_symmetry_equiv_pos_as_xyz
1 x,y,z
2 -x,y,1/2-z
3 1/2+x,1/2+y,z
4 1/2-x,1/2+y,1/2-z
5 -x,-y,-z
6 x,-y,1/2+z
7 1/2-x,1/2-y,-z
8 1/2+x,1/2-y,1/2+z
_cell_length_a                   33.8250(9)
_cell_length_b                   11.6062(3)
_cell_length_c                   17.6986(5)
_cell_angle_alpha                90
_cell_angle_beta                 101.158(1)
_cell_angle_gamma                90
_cell_volume                     6816.77
_exptl_crystal_colour            colorless
_exptl_crystal_description       block
_cell_formula_units_Z            8
_exptl_crystal_recrystallization_method 'acetonitrile/diethyl ether'
loop_
_atom_site_label
_atom_site_type_symbol
_atom_site_fract_x
_atom_site_fract_y
_atom_site_fract_z
N1 N 0.08264(7) 0.9657(2) 0.37930(14)
N2 N 0.14129(8) 0.9374(2) 0.44984(15)
N3 N 0.11786(8) 0.5263(2) 0.15155(14)
N4 N 0.15515(8) 0.3862(2) 0.20370(16)
C1 C 0.15298(16) 0.2279(4) 0.4641(3)
C2 C 0.12019(14) 0.2474(4) 0.4077(3)
C3 C 0.12467(12) 0.2595(3) 0.3324(2)
C4 C 0.16251(11) 0.2531(3) 0.3133(2)
C5 C 0.19513(12) 0.2329(3) 0.3711(3)
C6 C 0.19023(15) 0.2197(4) 0.4466(3)
C7 C 0.16755(12) 0.2689(3) 0.2311(2)
C8 C 0.17466(11) 0.4866(3) 0.2285(2)
C9 C 0.15153(10) 0.5735(3) 0.1960(2)
C10 C 0.12119(10) 0.4129(3) 0.15704(18)
C11 C 0.08189(11) 0.5901(3) 0.11210(18)
C12 C 0.07110(9) 0.6843(3) 0.16312(17)
C13 C 0.07231(10) 0.7958(3) 0.14081(18)
C14 C 0.06459(10) 0.8860(3) 0.18869(19)
C15 C 0.05548(9) 0.8652(3) 0.25894(18)
C16 C 0.05272(8) 0.7490(3) 0.28405(17)
C17 C 0.06026(9) 0.6572(3) 0.23542(17)
C18 C 0.05654(10) 0.5432(3) 0.2607(2)
C19 C 0.04682(11) 0.5197(3) 0.3299(2)
C20 C 0.03969(11) 0.6100(4) 0.3780(2)
C21 C 0.04222(9) 0.7207(3) 0.35529(19)
C22 C 0.04995(10) 0.9646(3) 0.31026(19)
C23 C 0.12086(9) 0.9425(3) 0.37841(18)
C24 C 0.07865(11) 0.9759(3) 0.45441(19)
C25 C 0.11500(11) 0.9584(3) 0.49870(19)
C26 C 0.18335(10) 0.8995(4) 0.4714(2)
C27 C 0.18627(11) 0.7727(4) 0.48956(19)
C28 C 0.16502(17) 0.6915(4) 0.4413(3)
C29 C 0.1689(2) 0.5760(5) 0.4574(3)
C30 C 0.19425(18) 0.5390(5) 0.5218(3)
C31 C 0.21537(13) 0.6164(5) 0.5702(3)
C32 C 0.21155(11) 0.7333(4) 0.5550(2)
H1 H 0.14990 0.22020 0.51500
H2 H 0.09470 0.25260 0.41990
H3 H 0.10210 0.27200 0.29400
H4 H 0.22080 0.22810 0.35960
H5 H 0.21250 0.20520 0.48530
H6 H 0.19550 0.25660 0.22780
H7 H 0.15130 0.21250 0.19850
H8 H 0.19940 0.49320 0.26180
H9 H 0.15730 0.65160 0.20250
H10 H 0.10240 0.36020 0.13180
H11 H 0.05940 0.53740 0.09870
H12 H 0.08720 0.62350 0.06480
H13 H 0.07840 0.81270 0.09300
H14 H 0.06570 0.96170 0.17200
H15 H 0.06090 0.48250 0.22900
H16 H 0.04490 0.44370 0.34540
H17 H 0.03320 0.59390 0.42560
H18 H 0.03690 0.77970 0.38740
H19 H 0.05020 1.03630 0.28220
H20 H 0.02410 0.95790 0.32590
H21 H 0.13160 0.93150 0.33440
H22 H 0.05500 0.99210 0.47170
H23 H 0.12130 0.96010 0.55220
H24 H 0.19670 0.94270 0.51600
H25 H 0.19720 0.91550 0.42940
H26 H 0.14770 0.71560 0.39670
H27 H 0.15400 0.52290 0.42410
H28 H 0.19710 0.46060 0.53240
H29 H 0.23270 0.59100 0.61440
H30 H 0.22620 0.78570 0.58930
P1 P 0.01796(3) 0.22512(7) 0.09338(5)
F1 F 0.0471(3) 0.2620(10) 0.0432(4)
F2 F -0.0064(5) 0.1822(15) 0.1482(8)
F3 F 0.0099(3) 0.1149(13) 0.0461(12)
F4 F 0.0551(4) 0.1765(9) 0.1469(9)
F5 F 0.0261(2) 0.3391(8) 0.1372(8)
F6 F -0.0194(3) 0.2793(10) 0.0455(8)
P2 P 0.19770(3) 0.92074(8) 0.20869(5)
F7 F 0.23389(10) 0.8405(3) 0.2363(2)
F8 F 0.16208(12) 1.0041(3) 0.1833(3)
F9 F 0.17942(15) 0.8392(3) 0.14383(19)
F10 F 0.17314(15) 0.8443(4) 0.2571(3)
F11 F 0.2123(2) 0.9987(4) 0.2799(3)
F12 F 0.2185(3) 0.9949(9) 0.1582(5)
F13? F 0.0597(3) 0.2222(14) 0.0719(12)
F14? F 0.0399(6) 0.246(2) 0.1736(5)
F15? F -0.0018(5) 0.2177(15) 0.0093(5)
F16? F 0.1816(8) 0.937(3) 0.2751(11)
F17? F 0.2303(5) 1.015(2) 0.230(2)
F18? F 0.2236(9) 0.916(2) 0.1454(17)
F19? F 0.0197(5) 0.3549(9) 0.0831(11)
F20? F -0.0224(3) 0.2198(11) 0.1211(10)
F21? F 0.0171(4) 0.0931(7) 0.0937(9)
loop_
_geom_bond_atom_site_label_1
_geom_bond_atom_site_label_2
_geom_bond_site_symmetry_1
_geom_bond_site_symmetry_2
N1 C22 1_555 1_555
N2 C23 1_555 1_555
N3 C9 1_555 1_555
N4 C7 1_555 1_555
C1 C2 1_555 1_555
C2 C3 1_555 1_555
C3 C4 1_555 1_555
C4 C5 1_555 1_555
C5 C6 1_555 1_555
C6 C1 1_555 1_555
C7 C4 1_555 1_555
C8 N4 1_555 1_555
C9 C8 1_555 1_555
C10 N3 1_555 1_555
C11 N3 1_555 1_555
C12 C11 1_555 1_555
C13 C12 1_555 1_555
C14 C13 1_555 1_555
C15 C14 1_555 1_555
C16 C15 1_555 1_555
C17 C12 1_555 1_555
C18 C17 1_555 1_555
C19 C18 1_555 1_555
C20 C19 1_555 1_555
C21 C16 1_555 1_555
C22 C15 1_555 1_555
C23 N1 1_555 1_555
C24 N1 1_555 1_555
C25 N2 1_555 1_555
C26 N2 1_555 1_555
C27 C26 1_555 1_555
C28 C27 1_555 1_555
C29 C28 1_555 1_555
C30 C29 1_555 1_555
C31 C30 1_555 1_555
C32 C27 1_555 1_555
P1 F1 1_555 1_555
F2 P1 1_555 1_555
F3 P1 1_555 1_555
F4 P1 1_555 1_555
F5 P1 1_555 1_555
F6 P1 1_555 1_555
P2 F7 1_555 1_555
F8 P2 1_555 1_555
F9 P2 1_555 1_555
F10 P2 1_555 1_555
F11 P2 1_555 1_555
F12 P2 1_555 1_555
H1 C1 1_555 1_555
H2 C2 1_555 1_555
H3 C3 1_555 1_555
H4 C5 1_555 1_555
H5 C6 1_555 1_555
H6 C7 1_555 1_555
H7 C7 1_555 1_555
H8 C8 1_555 1_555
H9 C9 1_555 1_555
H10 C10 1_555 1_555
H11 C11 1_555 1_555
H12 C11 1_555 1_555
H13 C13 1_555 1_555
H14 C14 1_555 1_555
H15 C18 1_555 1_555
H16 C19 1_555 1_555
H17 C20 1_555 1_555
H18 C21 1_555 1_555
H19 C22 1_555 1_555
H20 C22 1_555 1_555
H21 C23 1_555 1_555
H22 C24 1_555 1_555
H23 C25 1_555 1_555
H24 C26 1_555 1_555
H25 C26 1_555 1_555
H26 C28 1_555 1_555
H27 C29 1_555 1_555
H28 C30 1_555 1_555
H29 C31 1_555 1_555
H30 C32 1_555 1_555
N4 C10 1_555 1_555
C16 C17 1_555 1_555
C20 C21 1_555 1_555
C24 C25 1_555 1_555
C31 C32 1_555 1_555

#END
