
#######################################################################
#
#                 Cambridge Crystallographic Data Centre
#                                CCDC 
#
#######################################################################
#
# If this CIF has been generated from an entry in the Cambridge 
# Structural Database, then it will include bibliographic, chemical, 
# crystal, experimental, refinement or atomic coordinate data resulting 
# from the CCDC's data processing and validation procedures.
#
#######################################################################

data_AYUPAM
_chemical_formula_moiety         'C17 H18 Cl1 N3 O4 S1'
_chemical_name_systematic        
'Ethyl 6-amino-8-(4-chlorophenyl)-9-nitro-2,3,4,8-tetrahydropyrido[2,1-b][1,3]thiazine-7-carboxylate'
_chemical_properties_biological  'moderate insecticidal activity'
_symmetry_cell_setting           triclinic
_symmetry_space_group_name_H-M   'P -1'
_symmetry_Int_Tables_number      2
_space_group_name_Hall           '-P 1'
loop_
_symmetry_equiv_pos_site_id
_symmetry_equiv_pos_as_xyz
1 x,y,z
2 -x,-y,-z
_cell_length_a                   8.6376(8)
_cell_length_b                   9.9719(8)
_cell_length_c                   12.0616(11)
_cell_angle_alpha                110.970(8)
_cell_angle_beta                 103.252(8)
_cell_angle_gamma                99.663(7)
_cell_volume                     907.874
_exptl_crystal_colour            colorless
_exptl_crystal_description       prism
_cell_formula_units_Z            2
_exptl_crystal_recrystallization_method 'dichloromethane/ethyl acetate'
loop_
_atom_site_label
_atom_site_type_symbol
_atom_site_fract_x
_atom_site_fract_y
_atom_site_fract_z
S1 S 0.55649(9) 0.69346(7) 1.02703(6)
Cl1 Cl -0.06895(8) 0.51657(8) 0.27303(6)
O1 O 0.7918(2) 1.0629(2) 0.70241(19)
C1 C 0.0733(3) 0.6242(3) 0.4217(2)
C2 C 0.1908(3) 0.5640(2) 0.4697(2)
H1 H 0.1918 0.4665 0.4251
C3 C 0.1846(3) 0.8525(3) 0.6042(2)
H2 H 0.1810 0.9488 0.6496
C4 C 0.6594(3) 1.0300(3) 0.7201(2)
C5 C 0.3069(3) 0.6519(2) 0.5857(2)
H3 H 0.3874 0.6128 0.6183
C6 C 0.0684(3) 0.7665(3) 0.4875(2)
H4 H -0.0120 0.8051 0.4543
C7 C 0.5733(4) 1.1999(3) 0.6395(3)
H5 H 0.6017 1.1547 0.5639
H6 H 0.6655 1.2843 0.6994
C8 C 0.7619(4) 0.6382(3) 0.8644(3)
H7 H 0.8354 0.6341 0.8141
H8 H 0.6767 0.5437 0.8247
C9 C 0.7196(3) 0.8499(3) 0.8047(2)
O2 O 0.53736(19) 1.09179(17) 0.69114(15)
O3 O 0.2722(2) 0.75602(19) 0.98083(15)
O4 O 0.21057(18) 0.91022(19) 0.89999(15)
C10 C 0.4386(2) 0.8934(2) 0.78073(18)
H9 H 0.4147 0.9901 0.8135
N1 N 0.3003(2) 0.8315(2) 0.92150(16)
C11 C 0.3064(2) 0.7963(2) 0.65422(18)
C12 C 0.5529(3) 0.7644(2) 0.91386(19)
N2 N 0.6833(2) 0.7590(2) 0.86615(17)
C13 C 0.6108(2) 0.9223(2) 0.76932(19)
C14 C 0.4350(2) 0.8266(2) 0.87397(18)
C15 C 0.7765(4) 0.7224(4) 1.0854(3)
H10 H 0.8287 0.8291 1.1280
H11 H 0.7976 0.6811 1.1472
N3 N 0.8663(3) 0.8554(3) 0.7814(2)
H12 H 0.943(3) 0.848(4) 0.8361
H13 H 0.895(4) 0.923(4) 0.756
C16 C 0.4207(4) 1.2497(4) 0.6110(3)
H14 H 0.3289 1.1643 0.5560
H15 H 0.4372 1.3166 0.5713
H16 H 0.3982 1.3001 0.6873
C17 C 0.8573(5) 0.6566(5) 0.9903(4)
H17 H 0.9679 0.7208 1.0146
H18 H 0.8672 0.5600 0.9875
loop_
_geom_bond_atom_site_label_1
_geom_bond_atom_site_label_2
_geom_bond_site_symmetry_1
_geom_bond_site_symmetry_2
S1 C12 1_555 1_555
Cl1 C1 1_555 1_555
O1 C4 1_555 1_555
C1 C2 1_555 1_555
C2 H1 1_555 1_555
C3 H2 1_555 1_555
C4 O2 1_555 1_555
C5 C2 1_555 1_555
H3 C5 1_555 1_555
C6 C1 1_555 1_555
H4 C6 1_555 1_555
C7 H5 1_555 1_555
H6 C7 1_555 1_555
C8 H7 1_555 1_555
H8 C8 1_555 1_555
C9 N2 1_555 1_555
O2 C7 1_555 1_555
O3 N1 1_555 1_555
O4 N1 1_555 1_555
C10 H9 1_555 1_555
N1 C14 1_555 1_555
C11 C3 1_555 1_555
C12 N2 1_555 1_555
N2 C8 1_555 1_555
C13 C4 1_555 1_555
C14 C10 1_555 1_555
C15 S1 1_555 1_555
H10 C15 1_555 1_555
H11 C15 1_555 1_555
N3 C9 1_555 1_555
H12 N3 1_555 1_555
H13 N3 1_555 1_555
C16 C7 1_555 1_555
H14 C16 1_555 1_555
H15 C16 1_555 1_555
H16 C16 1_555 1_555
C17 C8 1_555 1_555
H17 C17 1_555 1_555
H18 C17 1_555 1_555
C3 C6 1_555 1_555
C5 C11 1_555 1_555
C9 C13 1_555 1_555
C10 C11 1_555 1_555
C10 C13 1_555 1_555
C12 C14 1_555 1_555
C15 C17 1_555 1_555

#END
