
#######################################################################
#
#                 Cambridge Crystallographic Data Centre
#                                CCDC 
#
#######################################################################
#
# If this CIF has been generated from an entry in the Cambridge 
# Structural Database, then it will include bibliographic, chemical, 
# crystal, experimental, refinement or atomic coordinate data resulting 
# from the CCDC's data processing and validation procedures.
#
#######################################################################

data_AYUPUH
_chemical_formula_moiety         'C23 H21 N1 O1'
_chemical_name_systematic        
(4-(2-(4-(dimethylamino)phenyl)vinyl)phenyl)(phenyl)methanone
_symmetry_cell_setting           orthorhombic
_symmetry_space_group_name_H-M   'P 21 21 21'
_symmetry_Int_Tables_number      19
_space_group_name_Hall           'P 2ac 2ab'
loop_
_symmetry_equiv_pos_site_id
_symmetry_equiv_pos_as_xyz
1 x,y,z
2 1/2-x,-y,1/2+z
3 -x,1/2+y,1/2-z
4 1/2+x,1/2-y,-z
_cell_length_a                   7.7541(13)
_cell_length_b                   11.7975(18)
_cell_length_c                   38.629(3)
_cell_angle_alpha                90
_cell_angle_beta                 90
_cell_angle_gamma                90
_cell_volume                     3533.74
_cell_formula_units_Z            8
loop_
_atom_site_label
_atom_site_type_symbol
_atom_site_fract_x
_atom_site_fract_y
_atom_site_fract_z
N1 N 0.0758(6) 0.2020(4) 0.37014(11)
O1 O -0.0012(6) 0.6902(4) 0.67200(9)
C1 C -0.0050(7) 0.5897(5) 0.66564(14)
C2 C 0.0195(7) 0.5498(5) 0.62936(14)
C3 C 0.1075(7) 0.6159(5) 0.60590(14)
H1 H 0.1552 0.6843 0.6131
C4 C 0.1259(7) 0.5819(5) 0.57175(15)
H2 H 0.1897 0.6266 0.5566
C5 C 0.0515(7) 0.4831(5) 0.55975(13)
C6 C -0.0413(7) 0.4169(5) 0.58315(13)
H3 H -0.0930 0.3499 0.5759
C7 C -0.0560(7) 0.4517(5) 0.61724(14)
H4 H -0.1192 0.4073 0.6325
C8 C 0.0765(6) 0.4489(5) 0.52334(14)
H5 H 0.1350 0.4991 0.5090
C9 C 0.0227(7) 0.3529(5) 0.50949(13)
H6 H -0.0351 0.3033 0.5242
C10 C 0.0442(7) 0.3155(5) 0.47322(13)
C11 C -0.0346(7) 0.2161(4) 0.46292(13)
H7 H -0.0963 0.1740 0.4791
C12 C -0.0241(7) 0.1779(5) 0.42926(13)
H8 H -0.0770 0.1100 0.4232
C13 C 0.0640(7) 0.2389(5) 0.40426(13)
C14 C 0.1451(7) 0.3392(5) 0.41503(14)
H9 H 0.2074 0.3816 0.3990
C15 C 0.1344(7) 0.3760(5) 0.44863(14)
H10 H 0.1890 0.4431 0.4550
C16 C -0.0386(7) 0.5079(5) 0.69434(13)
C17 C -0.1341(8) 0.5425(5) 0.72211(15)
H11 H -0.1808 0.6151 0.7223
C18 C -0.1623(8) 0.4716(7) 0.74979(16)
H12 H -0.2302 0.4959 0.7682
C19 C -0.0905(8) 0.3645(6) 0.75044(14)
H13 H -0.1080 0.3166 0.7692
C20 C 0.0070(8) 0.3304(5) 0.72279(15)
H14 H 0.0564 0.2585 0.7229
C21 C 0.0333(8) 0.4008(5) 0.69468(13)
H15 H 0.0993 0.3762 0.6760
C22 C 0.1541(8) 0.2728(5) 0.34448(13)
H16 H 0.1626 0.2320 0.3230
H17 H 0.2673 0.2946 0.3520
H18 H 0.0849 0.3394 0.3412
C23 C -0.0198(8) 0.1043(5) 0.35898(15)
H19 H 0.0150 0.0394 0.3723
H20 H 0.0024 0.0905 0.3349
H21 H -0.1408 0.1175 0.3623
N2 N 0.5482(6) 0.4534(4) 0.37358(11)
O2 O 0.5167(7) 0.9579(3) 0.67237(9)
C24 C 0.5174(7) 0.8554(5) 0.66706(13)
C25 C 0.5272(7) 0.8125(5) 0.63125(13)
C26 C 0.4594(7) 0.8770(5) 0.60476(13)
H22 H 0.4118 0.9473 0.6100
C27 C 0.4597(8) 0.8413(5) 0.57086(15)
H23 H 0.4111 0.8869 0.5538
C28 C 0.5310(8) 0.7391(5) 0.56203(12)
C29 C 0.6060(7) 0.6737(5) 0.58832(13)
H24 H 0.6584 0.6051 0.5828
C30 C 0.6029(7) 0.7101(5) 0.62229(14)
H25 H 0.6523 0.6653 0.6394
C31 C 0.5227(7) 0.7019(5) 0.52581(14)
H26 H 0.4775 0.7538 0.5101
C32 C 0.5711(7) 0.6049(5) 0.51298(14)
H27 H 0.6216 0.5539 0.5283
C33 C 0.5543(7) 0.5672(5) 0.47670(14)
C34 C 0.4733(7) 0.6288(5) 0.45130(13)
H28 H 0.4207 0.6971 0.4571
C35 C 0.4678(7) 0.5920(5) 0.41716(13)
H29 H 0.4089 0.6344 0.4007
C36 C 0.5502(7) 0.4920(5) 0.40752(13)
C37 C 0.6272(7) 0.4278(5) 0.43340(13)
H30 H 0.6774 0.3583 0.4281
C38 C 0.6290(7) 0.4674(5) 0.46709(14)
H31 H 0.6836 0.4241 0.4840
C39 C 0.5049(7) 0.7770(4) 0.69667(12)
C40 C 0.5723(7) 0.8113(5) 0.72827(13)
H32 H 0.6332 0.8790 0.7301
C41 C 0.5474(8) 0.7431(6) 0.75720(14)
H33 H 0.5928 0.7659 0.7784
C42 C 0.4577(8) 0.6431(5) 0.75530(15)
H34 H 0.4420 0.5983 0.7749
C43 C 0.3919(8) 0.6108(5) 0.72412(14)
H35 H 0.3295 0.5437 0.7224
C44 C 0.4169(7) 0.6763(5) 0.69523(13)
H36 H 0.3731 0.6517 0.6741
C45 C 0.4931(9) 0.5266(5) 0.34586(12)
H37 H 0.3759 0.5495 0.3498
H38 H 0.5007 0.4866 0.3243
H39 H 0.5659 0.5923 0.3451
C46 C 0.6536(8) 0.3592(5) 0.36309(14)
H40 H 0.7638 0.3639 0.3743
H41 H 0.6694 0.3611 0.3384
H42 H 0.5979 0.2895 0.3695
loop_
_geom_bond_atom_site_label_1
_geom_bond_atom_site_label_2
_geom_bond_site_symmetry_1
_geom_bond_site_symmetry_2
N1 C13 1_555 1_555
O1 C1 1_555 1_555
C1 C2 1_555 1_555
C2 C3 1_555 1_555
C3 H1 1_555 1_555
C4 C3 1_555 1_555
H2 C4 1_555 1_555
C5 C4 1_555 1_555
C6 C5 1_555 1_555
H3 C6 1_555 1_555
C7 C2 1_555 1_555
H4 C7 1_555 1_555
C8 C5 1_555 1_555
H5 C8 1_555 1_555
C9 C8 1_555 1_555
H6 C9 1_555 1_555
C10 C9 1_555 1_555
C11 C10 1_555 1_555
H7 C11 1_555 1_555
C12 C11 1_555 1_555
H8 C12 1_555 1_555
C13 C12 1_555 1_555
C14 C13 1_555 1_555
H9 C14 1_555 1_555
C15 C10 1_555 1_555
H10 C15 1_555 1_555
C16 C1 1_555 1_555
C17 C16 1_555 1_555
H11 C17 1_555 1_555
C18 C17 1_555 1_555
H12 C18 1_555 1_555
C19 C18 1_555 1_555
H13 C19 1_555 1_555
C20 C19 1_555 1_555
H14 C20 1_555 1_555
C21 C16 1_555 1_555
H15 C21 1_555 1_555
C22 N1 1_555 1_555
H16 C22 1_555 1_555
H17 C22 1_555 1_555
H18 C22 1_555 1_555
C23 N1 1_555 1_555
H19 C23 1_555 1_555
H20 C23 1_555 1_555
H21 C23 1_555 1_555
N2 C36 1_555 1_555
O2 C24 1_555 1_555
C24 C25 1_555 1_555
C25 C26 1_555 1_555
C26 H22 1_555 1_555
C27 C26 1_555 1_555
H23 C27 1_555 1_555
C28 C27 1_555 1_555
C29 C28 1_555 1_555
H24 C29 1_555 1_555
C30 C25 1_555 1_555
H25 C30 1_555 1_555
C31 C28 1_555 1_555
H26 C31 1_555 1_555
C32 C31 1_555 1_555
H27 C32 1_555 1_555
C33 C32 1_555 1_555
C34 C33 1_555 1_555
H28 C34 1_555 1_555
C35 C34 1_555 1_555
H29 C35 1_555 1_555
C36 C35 1_555 1_555
C37 C36 1_555 1_555
H30 C37 1_555 1_555
C38 C33 1_555 1_555
H31 C38 1_555 1_555
C39 C24 1_555 1_555
C40 C39 1_555 1_555
H32 C40 1_555 1_555
C41 C40 1_555 1_555
H33 C41 1_555 1_555
C42 C41 1_555 1_555
H34 C42 1_555 1_555
C43 C42 1_555 1_555
H35 C43 1_555 1_555
C44 C39 1_555 1_555
H36 C44 1_555 1_555
C45 N2 1_555 1_555
H37 C45 1_555 1_555
H38 C45 1_555 1_555
H39 C45 1_555 1_555
C46 N2 1_555 1_555
H40 C46 1_555 1_555
H41 C46 1_555 1_555
H42 C46 1_555 1_555
C6 C7 1_555 1_555
C14 C15 1_555 1_555
C20 C21 1_555 1_555
C29 C30 1_555 1_555
C37 C38 1_555 1_555
C43 C44 1_555 1_555

#END
