
#######################################################################
#
#                 Cambridge Crystallographic Data Centre
#                                CCDC 
#
#######################################################################
#
# If this CIF has been generated from an entry in the Cambridge 
# Structural Database, then it will include bibliographic, chemical, 
# crystal, experimental, refinement or atomic coordinate data resulting 
# from the CCDC's data processing and validation procedures.
#
#######################################################################

data_AYURAO
_chemical_formula_moiety         'C31 H25 N1 O6'
_chemical_name_systematic        
3,4-bis(4-(4-Methoxyphenoxy)phenyl)-1-methyl-1H-pyrrole-2,5-dione
_symmetry_cell_setting           triclinic
_symmetry_space_group_name_H-M   'P -1'
_symmetry_Int_Tables_number      2
_space_group_name_Hall           '-P 1'
loop_
_symmetry_equiv_pos_site_id
_symmetry_equiv_pos_as_xyz
1 x,y,z
2 -x,-y,-z
_cell_length_a                   8.751(4)
_cell_length_b                   10.681(5)
_cell_length_c                   13.630(7)
_cell_angle_alpha                97.956(5)
_cell_angle_beta                 91.951(4)
_cell_angle_gamma                93.615(5)
_cell_volume                     1258.04
_exptl_crystal_colour            red
_exptl_crystal_description       block
_chemical_melting_point          '373 K'
_cell_formula_units_Z            2
_exptl_crystal_recrystallization_method methanol
loop_
_atom_site_label
_atom_site_type_symbol
_atom_site_fract_x
_atom_site_fract_y
_atom_site_fract_z
O1 O 1.34578(18) 0.43301(16) 0.57789(11)
O2 O 0.71603(19) 0.58407(17) 0.79815(11)
C1 C 0.9988(2) 0.3937(2) 0.59643(14)
N1 N 1.3183(2) 0.27986(17) 0.44303(13)
O3 O 1.21810(18) 0.11724(15) 0.32755(11)
C2 C 0.9188(2) 0.1458(2) 0.42139(14)
C3 C 1.2649(3) 0.3562(2) 0.52269(16)
O4 O 0.54088(19) -0.10824(17) 0.34147(11)
C4 C 1.2023(3) 0.1979(2) 0.39736(16)
C5 C 1.0950(2) 0.3234(2) 0.52514(14)
C6 C 0.8148(3) 0.5244(2) 0.73415(16)
C7 C 0.6666(3) -0.0239(2) 0.36263(16)
C8 C 0.8297(3) 0.0946(2) 0.49091(15)
H1 H 0.8556 0.1168 0.5581
C9 C 0.7048(3) 0.0122(2) 0.46208(16)
H2 H 0.6457 -0.0195 0.5096
C10 C 0.8407(3) 0.3901(2) 0.58153(16)
H3 H 0.7953 0.3436 0.5241
C11 C 1.0589(2) 0.2265(2) 0.45106(14)
O5 O 0.9801(2) 0.87749(17) 1.13293(12)
C12 C 1.0617(3) 0.4688(2) 0.68122(16)
H4 H 1.1675 0.4751 0.6926
C13 C 0.9115(3) 0.7981(2) 1.05445(16)
C14 C 0.8780(3) 0.1087(2) 0.32176(15)
H5 H 0.9361 0.1410 0.2739
C15 C 0.7493(3) 0.4533(2) 0.64913(16)
H6 H 0.6436 0.4482 0.6376
C16 C 0.7808(3) 0.6555(2) 0.88531(16)
C17 C 0.9718(3) 0.5342(2) 0.74917(17)
H7 H 1.0171 0.5848 0.8049
C18 C 0.7526(3) 0.0248(2) 0.29221(16)
H8 H 0.7266 0.0015 0.2252
C19 C 0.5045(3) -0.1585(3) 0.24244(17)
C20 C 0.8242(3) 0.5976(2) 0.96397(18)
H9 H 0.8092 0.5101 0.9604
C21 C 0.4252(3) -0.2663(3) 0.05195(19)
C22 C 1.4766(3) 0.2811(3) 0.41449(19)
H10 H 1.5341 0.2340 0.4562
H11 H 1.5196 0.3670 0.4217
H12 H 1.4808 0.2432 0.3466
C23 C 0.5342(3) -0.2811(2) 0.21135(19)
H13 H 0.5814 -0.3283 0.2547
O6 O 0.3898(3) -0.3287(2) -0.04174(14)
C24 C 0.8906(3) 0.6690(2) 1.04909(17)
H14 H 0.9209 0.6294 1.1025
C25 C 0.8626(3) 0.8553(3) 0.97553(17)
H15 H 0.8733 0.9431 0.9796
C26 C 0.7982(3) 0.7842(3) 0.89093(18)
H16 H 0.7665 0.8236 0.8377
C27 C 0.4940(3) -0.3346(3) 0.1158(2)
H17 H 0.5140 -0.4183 0.0945
C28 C 0.4343(3) -0.0889(3) 0.1802(2)
H18 H 0.4131 -0.0058 0.2025
C29 C 0.3944(3) -0.1425(3) 0.0832(2)
H19 H 0.3473 -0.0954 0.0398
C30 C 0.3351(5) -0.2593(4) -0.1141(2)
H20 H 0.2410 -0.2241 -0.0937
H21 H 0.3172 -0.3141 -0.1759
H22 H 0.4096 -0.1919 -0.1220
C31 C 1.0342(4) 0.8222(3) 1.21523(18)
H23 H 0.9499 0.7790 1.2427
H24 H 1.0809 0.8873 1.2647
H25 H 1.1084 0.7628 1.1939
loop_
_geom_bond_atom_site_label_1
_geom_bond_atom_site_label_2
_geom_bond_site_symmetry_1
_geom_bond_site_symmetry_2
O1 C3 1_555 1_555
O2 C6 1_555 1_555
C1 C5 1_555 1_555
N1 C3 1_555 1_555
O3 C4 1_555 1_555
C2 C8 1_555 1_555
C3 C5 1_555 1_555
O4 C7 1_555 1_555
C4 N1 1_555 1_555
C5 C11 1_555 1_555
C6 C15 1_555 1_555
C7 C9 1_555 1_555
C8 H1 1_555 1_555
C9 C8 1_555 1_555
H2 C9 1_555 1_555
C10 C1 1_555 1_555
H3 C10 1_555 1_555
C11 C2 1_555 1_555
O5 C13 1_555 1_555
C12 C1 1_555 1_555
H4 C12 1_555 1_555
C13 C24 1_555 1_555
C14 C2 1_555 1_555
H5 C14 1_555 1_555
C15 C10 1_555 1_555
H6 C15 1_555 1_555
C16 O2 1_555 1_555
C17 C6 1_555 1_555
H7 C17 1_555 1_555
C18 C7 1_555 1_555
H8 C18 1_555 1_555
C19 O4 1_555 1_555
C20 C16 1_555 1_555
H9 C20 1_555 1_555
C21 O6 1_555 1_555
C22 N1 1_555 1_555
H10 C22 1_555 1_555
H11 C22 1_555 1_555
H12 C22 1_555 1_555
C23 C19 1_555 1_555
H13 C23 1_555 1_555
O6 C30 1_555 1_555
C24 C20 1_555 1_555
H14 C24 1_555 1_555
C25 C13 1_555 1_555
H15 C25 1_555 1_555
C26 C16 1_555 1_555
H16 C26 1_555 1_555
C27 C21 1_555 1_555
H17 C27 1_555 1_555
C28 C19 1_555 1_555
H18 C28 1_555 1_555
C29 C21 1_555 1_555
H19 C29 1_555 1_555
C30 H20 1_555 1_555
H21 C30 1_555 1_555
H22 C30 1_555 1_555
C31 O5 1_555 1_555
H23 C31 1_555 1_555
H24 C31 1_555 1_555
H25 C31 1_555 1_555
C4 C11 1_555 1_555
C12 C17 1_555 1_555
C14 C18 1_555 1_555
C23 C27 1_555 1_555
C25 C26 1_555 1_555
C28 C29 1_555 1_555

#END
