
#######################################################################
#
#                 Cambridge Crystallographic Data Centre
#                                CCDC 
#
#######################################################################
#
# If this CIF has been generated from an entry in the Cambridge 
# Structural Database, then it will include bibliographic, chemical, 
# crystal, experimental, refinement or atomic coordinate data resulting 
# from the CCDC's data processing and validation procedures.
#
#######################################################################

data_AYURIW
_chemical_formula_moiety         'C12 H18 N4 O2 S1 Si1'
_chemical_name_systematic        
1-Phenyl-5-((2-(trimethylsilyl)ethyl)sulfonyl)-1H-tetrazole
_symmetry_cell_setting           monoclinic
_symmetry_space_group_name_H-M   'P 21/c'
_symmetry_Int_Tables_number      14
_space_group_name_Hall           '-P 2ybc'
loop_
_symmetry_equiv_pos_site_id
_symmetry_equiv_pos_as_xyz
1 x,y,z
2 -x,1/2+y,1/2-z
3 -x,-y,-z
4 x,1/2-y,1/2+z
_cell_length_a                   11.3126(4)
_cell_length_b                   13.2707(4)
_cell_length_c                   10.8277(4)
_cell_angle_alpha                90
_cell_angle_beta                 106.902(4)
_cell_angle_gamma                90
_cell_volume                     1555.3
_exptl_crystal_colour            colorless
_exptl_crystal_description       block
_cell_formula_units_Z            4
_exptl_crystal_recrystallization_method n-pentane
loop_
_atom_site_label
_atom_site_type_symbol
_atom_site_fract_x
_atom_site_fract_y
_atom_site_fract_z
Si1 Si 0.47993(3) 0.79710(3) 1.25192(3)
C1 C 0.47042(15) 0.87175(12) 1.39384(14)
H1 H 0.3933 0.8557 1.4135
H2 H 0.4722 0.9438 1.3744
H3 H 0.5408 0.8552 1.4684
C2 C 0.61720(14) 0.83876(13) 1.20403(15)
H4 H 0.6923 0.8247 1.2743
H5 H 0.6114 0.9113 1.1862
H6 H 0.6203 0.8022 1.1263
C3 C 0.48654(13) 0.66005(11) 1.28620(15)
H7 H 0.4895 0.6228 1.2090
H8 H 0.4130 0.6399 1.3105
H9 H 0.5607 0.6450 1.3573
C4 C 0.33521(12) 0.81809(10) 1.11572(13)
H10 H 0.3418 0.7802 1.0393
H11 H 0.2643 0.7903 1.1407
C5 C 0.30914(11) 0.92782(10) 1.07831(12)
H12 H 0.3797 0.9573 1.0541
H13 H 0.2977 0.9664 1.1523
S1 S 0.17351(3) 0.93484(2) 0.94605(3)
O1 O 0.19901(9) 0.90232(7) 0.83074(9)
O2 O 0.07296(8) 0.89053(7) 0.98167(9)
C6 C 0.14770(11) 1.06672(9) 0.93227(12)
N1 N 0.20780(10) 1.12950(8) 1.02188(10)
N2 N 0.16789(11) 1.22251(8) 0.97617(11)
N3 N 0.08670(11) 1.21661(8) 0.86430(11)
N4 N 0.07262(9) 1.11767(8) 0.83393(10)
C7 C -0.01458(11) 1.08607(10) 0.71540(12)
C8 C -0.02014(13) 1.14131(11) 0.60586(13)
H14 H 0.0318 1.1982 0.6096
C9 C -0.10312(14) 1.11189(12) 0.49061(13)
H15 H -0.1085 1.1485 0.4138
C10 C -0.17799(14) 1.02960(12) 0.48703(14)
H16 H -0.2349 1.0098 0.4075
C11 C -0.17131(13) 0.97537(11) 0.59818(14)
H17 H -0.2235 0.9187 0.5945
C12 C -0.08875(12) 1.00359(10) 0.71465(13)
H18 H -0.0834 0.9672 0.7916
loop_
_geom_bond_atom_site_label_1
_geom_bond_atom_site_label_2
_geom_bond_site_symmetry_1
_geom_bond_site_symmetry_2
Si1 C1 1_555 1_555
C1 H1 1_555 1_555
H2 C1 1_555 1_555
H3 C1 1_555 1_555
C2 Si1 1_555 1_555
H4 C2 1_555 1_555
H5 C2 1_555 1_555
H6 C2 1_555 1_555
C3 Si1 1_555 1_555
H7 C3 1_555 1_555
H8 C3 1_555 1_555
H9 C3 1_555 1_555
C4 Si1 1_555 1_555
H10 C4 1_555 1_555
H11 C4 1_555 1_555
C5 C4 1_555 1_555
H12 C5 1_555 1_555
H13 C5 1_555 1_555
S1 C5 1_555 1_555
O1 S1 1_555 1_555
O2 S1 1_555 1_555
C6 S1 1_555 1_555
N1 C6 1_555 1_555
N2 N1 1_555 1_555
N3 N2 1_555 1_555
N4 C6 1_555 1_555
C7 N4 1_555 1_555
C8 C7 1_555 1_555
H14 C8 1_555 1_555
C9 C8 1_555 1_555
H15 C9 1_555 1_555
C10 C9 1_555 1_555
H16 C10 1_555 1_555
C11 C10 1_555 1_555
H17 C11 1_555 1_555
C12 C7 1_555 1_555
H18 C12 1_555 1_555
N3 N4 1_555 1_555
C11 C12 1_555 1_555

#END
