
#######################################################################
#
#                 Cambridge Crystallographic Data Centre
#                                CCDC 
#
#######################################################################
#
# If this CIF has been generated from an entry in the Cambridge 
# Structural Database, then it will include bibliographic, chemical, 
# crystal, experimental, refinement or atomic coordinate data resulting 
# from the CCDC's data processing and validation procedures.
#
#######################################################################

data_AYUTAQ
_chemical_formula_moiety         'C25 H21 Cl1 N4 O1 S1'
_chemical_name_systematic        
3-[4-(2-Chlorobenzylideneamino)-3-methyl-5-sulfanylidene-4,5-dihydro-1H-1,2,4-triazol-1-yl]-1,3-diphenylpropan-1-one
_symmetry_cell_setting           triclinic
_symmetry_space_group_name_H-M   'P -1'
_symmetry_Int_Tables_number      2
_space_group_name_Hall           '-P 1'
loop_
_symmetry_equiv_pos_site_id
_symmetry_equiv_pos_as_xyz
1 x,y,z
2 -x,-y,-z
_cell_length_a                   8.3347(9)
_cell_length_b                   10.6029(12)
_cell_length_c                   13.4262(16)
_cell_angle_alpha                87.907(19)
_cell_angle_beta                 81.026(18)
_cell_angle_gamma                82.024(17)
_cell_volume                     1160.5
_exptl_crystal_colour            colorless
_exptl_crystal_description       prism
_cell_formula_units_Z            2
_exptl_crystal_recrystallization_method chloroform/ethanol
loop_
_atom_site_label
_atom_site_type_symbol
_atom_site_fract_x
_atom_site_fract_y
_atom_site_fract_z
S1 S 0.29774(8) 0.61784(5) 0.10454(4)
Cl1 Cl 0.20199(11) 0.93846(6) -0.11093(5)
O1 O 0.3085(2) 0.22648(14) 0.34675(11)
N1 N 0.4144(2) 0.59915(15) 0.28411(12)
N2 N 0.4657(2) 0.66988(15) 0.35541(12)
N3 N 0.3976(2) 0.79060(15) 0.22639(12)
N4 N 0.3676(2) 0.90997(15) 0.18009(13)
C1 C 0.3707(3) 0.66863(19) 0.20309(15)
C2 C 0.4535(3) 0.78623(19) 0.31822(15)
C3 C 0.4152(3) 0.46078(18) 0.30128(15)
H1 H 0.3646 0.4275 0.2465
C4 C 0.3078(3) 0.43869(18) 0.40126(15)
H2 H 0.2043 0.4980 0.4053
H3 H 0.3646 0.4583 0.4571
C5 C 0.2675(3) 0.3027(2) 0.41478(16)
C6 C 0.1735(3) 0.26640(19) 0.51340(16)
C7 C 0.1321(3) 0.1420(2) 0.52621(17)
H4 H 0.1621 0.0838 0.4722
C8 C 0.0481(3) 0.1038(2) 0.61687(19)
H5 H 0.0223 0.0193 0.6254
C9 C 0.0018(3) 0.1891(2) 0.69522(18)
H6 H -0.0565 0.1629 0.7573
C10 C 0.0399(3) 0.3124(2) 0.68346(17)
H7 H 0.0071 0.3707 0.7372
C11 C 0.1257(3) 0.3505(2) 0.59356(16)
H8 H 0.1525 0.4349 0.5862
C12 C 0.5930(3) 0.39735(18) 0.29147(15)
C13 C 0.6642(3) 0.34362(19) 0.37317(17)
H9 H 0.6004 0.3426 0.4383
C14 C 0.8284(3) 0.2916(2) 0.3594(2)
H10 H 0.8759 0.2543 0.4153
C15 C 0.9234(3) 0.2933(2) 0.2655(2)
H11 H 1.0360 0.2586 0.2571
C16 C 0.8540(3) 0.3458(2) 0.1841(2)
H12 H 0.9188 0.3470 0.1193
C17 C 0.6896(3) 0.3970(2) 0.19660(17)
H13 H 0.6423 0.4322 0.1400
C18 C 0.3300(3) 0.91863(19) 0.09206(15)
H14 H 0.3212 0.8449 0.0562
C19 C 0.3002(3) 1.04705(19) 0.04715(15)
C20 C 0.2424(3) 1.0664(2) -0.04535(16)
C21 C 0.2152(3) 1.1880(2) -0.08722(18)
H15 H 0.1754 1.1999 -0.1499
C22 C 0.2463(3) 1.2909(2) -0.03757(18)
H16 H 0.2267 1.3740 -0.0658
C23 C 0.3057(3) 1.2743(2) 0.05313(18)
H17 H 0.3284 1.3458 0.0865
C24 C 0.3322(3) 1.1538(2) 0.09534(17)
H18 H 0.3728 1.1432 0.1579
C25 C 0.4944(3) 0.9002(2) 0.36488(17)
H19 H 0.5084 0.8804 0.4351
H20 H 0.4054 0.9706 0.3628
H21 H 0.5964 0.9248 0.3275
loop_
_geom_bond_atom_site_label_1
_geom_bond_atom_site_label_2
_geom_bond_site_symmetry_1
_geom_bond_site_symmetry_2
S1 C1 1_555 1_555
Cl1 C20 1_555 1_555
O1 C5 1_555 1_555
N1 N2 1_555 1_555
N2 C2 1_555 1_555
N3 N4 1_555 1_555
N4 C18 1_555 1_555
C1 N1 1_555 1_555
C2 N3 1_555 1_555
C3 N1 1_555 1_555
H1 C3 1_555 1_555
C4 C3 1_555 1_555
H2 C4 1_555 1_555
H3 C4 1_555 1_555
C5 C4 1_555 1_555
C6 C5 1_555 1_555
C7 C6 1_555 1_555
H4 C7 1_555 1_555
C8 C7 1_555 1_555
H5 C8 1_555 1_555
C9 C8 1_555 1_555
H6 C9 1_555 1_555
C10 C9 1_555 1_555
H7 C10 1_555 1_555
C11 C6 1_555 1_555
H8 C11 1_555 1_555
C12 C3 1_555 1_555
C13 C12 1_555 1_555
H9 C13 1_555 1_555
C14 C13 1_555 1_555
H10 C14 1_555 1_555
C15 C14 1_555 1_555
H11 C15 1_555 1_555
C16 C15 1_555 1_555
H12 C16 1_555 1_555
C17 C12 1_555 1_555
H13 C17 1_555 1_555
C18 H14 1_555 1_555
C19 C18 1_555 1_555
C20 C19 1_555 1_555
C21 C20 1_555 1_555
H15 C21 1_555 1_555
C22 C21 1_555 1_555
H16 C22 1_555 1_555
C23 C22 1_555 1_555
H17 C23 1_555 1_555
C24 C19 1_555 1_555
H18 C24 1_555 1_555
C25 C2 1_555 1_555
H19 C25 1_555 1_555
H20 C25 1_555 1_555
H21 C25 1_555 1_555
N3 C1 1_555 1_555
C10 C11 1_555 1_555
C16 C17 1_555 1_555
C23 C24 1_555 1_555

#END
