
#######################################################################
#
#                 Cambridge Crystallographic Data Centre
#                                CCDC 
#
#######################################################################
#
# If this CIF has been generated from an entry in the Cambridge 
# Structural Database, then it will include bibliographic, chemical, 
# crystal, experimental, refinement or atomic coordinate data resulting 
# from the CCDC's data processing and validation procedures.
#
#######################################################################

data_AYUWEX
_chemical_formula_moiety         'C20 H22 N6 2+,2(F6 P1 1-)'
_chemical_name_systematic        
"3,3'-Dimethyl-1,1'-[2,2'-bipyridine-5,5'-diylbis(methylene)]diimidazol-3-ium bis(hexafluorophosphate)"
_symmetry_cell_setting           monoclinic
_symmetry_space_group_name_H-M   'P 21/c'
_symmetry_Int_Tables_number      14
_space_group_name_Hall           '-P 2ybc'
loop_
_symmetry_equiv_pos_site_id
_symmetry_equiv_pos_as_xyz
1 x,y,z
2 -x,1/2+y,1/2-z
3 -x,-y,-z
4 x,1/2-y,1/2+z
_cell_length_a                   7.5323(4)
_cell_length_b                   10.7169(6)
_cell_length_c                   15.4602(9)
_cell_angle_alpha                90
_cell_angle_beta                 93.9220(10)
_cell_angle_gamma                90
_cell_volume                     1245.07
_exptl_crystal_colour            colorless
_exptl_crystal_description       plate
_cell_formula_units_Z            2
_exptl_crystal_recrystallization_method acetonitrile
loop_
_atom_site_label
_atom_site_type_symbol
_atom_site_fract_x
_atom_site_fract_y
_atom_site_fract_z
N1 N 0.6669(2) 0.90672(19) 0.45131(12)
N2 N 0.4666(2) 0.75139(19) 0.16354(12)
N3 N 0.2383(3) 0.7410(2) 0.07124(12)
C1 C 0.6823(3) 0.8369(3) 0.38058(15)
H1 H 0.7937 0.7979 0.3739
C2 C 0.5479(3) 0.8172(2) 0.31630(14)
C3 C 0.3880(3) 0.8772(2) 0.32510(14)
H2 H 0.2924 0.8675 0.2823
C4 C 0.3687(3) 0.9517(2) 0.39729(14)
H3 H 0.2605 0.9952 0.4037
C5 C 0.5085(3) 0.9623(2) 0.45999(13)
C6 C 0.5823(3) 0.7291(2) 0.24282(15)
H4 H 0.7080 0.7377 0.2288
H5 H 0.5647 0.6423 0.2624
C7 C 0.3074(3) 0.7000(2) 0.14706(15)
H6 H 0.2519 0.6430 0.1838
C8 C 0.5004(3) 0.8271(3) 0.09592(16)
H7 H 0.6048 0.8755 0.0905
C9 C 0.3580(3) 0.8208(3) 0.03775(16)
H8 H 0.3437 0.8636 -0.0161
C10 C 0.0635(3) 0.7051(3) 0.03147(18)
H9 H 0.0059 0.6473 0.0699
H10 H 0.0783 0.6643 -0.0243
H11 H -0.0106 0.7797 0.0222
N1B N 0.3331(2) 1.09328(19) 0.54869(12)
N2B N 0.5334(2) 1.24861(19) 0.83646(12)
N3B N 0.7617(3) 1.2590(2) 0.92876(12)
C1B C 0.3177(3) 1.1631(3) 0.61942(15)
H1B H 0.2063 1.2021 0.6261
C2B C 0.4521(3) 1.1828(2) 0.68370(14)
C3B C 0.6120(3) 1.1228(2) 0.67490(14)
H2B H 0.7076 1.1325 0.7177
C4B C 0.6313(3) 1.0483(2) 0.60271(14)
H3B H 0.7395 1.0048 0.5963
C5B C 0.4915(3) 1.0377(2) 0.54001(13)
C6B C 0.4177(3) 1.2709(2) 0.75718(15)
H4B H 0.2920 1.2623 0.7712
H5B H 0.4353 1.3577 0.7376
C7B C 0.6926(3) 1.3000(2) 0.85294(15)
H6B H 0.7481 1.3570 0.8162
C8B C 0.4996(3) 1.1729(3) 0.90408(16)
H7B H 0.3952 1.1245 0.9095
C9B C 0.6420(3) 1.1792(3) 0.96225(16)
H8B H 0.6563 1.1364 1.0161
C10B C 0.9365(3) 1.2949(3) 0.96853(18)
H9B H 0.9941 1.3527 0.9301
H10B H 0.9217 1.3357 1.0243
H11B H 1.0106 1.2203 0.9778
P1 P 0.04237(8) 0.51966(6) 0.32208(4)
F1 F 0.24565(19) 0.51442(16) 0.29682(10)
F2 F 0.1084(2) 0.48970(16) 0.42008(9)
F3 F 0.0232(2) 0.37450(15) 0.30333(11)
F4 F -0.0194(2) 0.54954(16) 0.22308(10)
F5 F -0.1585(2) 0.52519(18) 0.34678(11)
F6 F 0.0658(2) 0.66508(15) 0.33975(12)
loop_
_geom_bond_atom_site_label_1
_geom_bond_atom_site_label_2
_geom_bond_site_symmetry_1
_geom_bond_site_symmetry_2
N1 C1 1_555 1_555
N2 C6 1_555 1_555
N3 C7 1_555 1_555
C1 H1 1_555 1_555
C2 C1 1_555 1_555
C3 C2 1_555 1_555
H2 C3 1_555 1_555
C4 C3 1_555 1_555
H3 C4 1_555 1_555
C5 N1 1_555 1_555
C6 C2 1_555 1_555
H4 C6 1_555 1_555
H5 C6 1_555 1_555
C7 N2 1_555 1_555
H6 C7 1_555 1_555
C8 N2 1_555 1_555
H7 C8 1_555 1_555
C9 N3 1_555 1_555
H8 C9 1_555 1_555
C10 N3 1_555 1_555
H9 C10 1_555 1_555
H10 C10 1_555 1_555
H11 C10 1_555 1_555
P1 F1 1_555 1_555
F2 P1 1_555 1_555
F3 P1 1_555 1_555
F4 P1 1_555 1_555
F5 P1 1_555 1_555
F6 P1 1_555 1_555
N1B C1B 1_555 1_555
N2B C6B 1_555 1_555
N3B C7B 1_555 1_555
C1B H1B 1_555 1_555
C2B C1B 1_555 1_555
C3B C2B 1_555 1_555
H2B C3B 1_555 1_555
C4B C3B 1_555 1_555
H3B C4B 1_555 1_555
C5B C5 1_555 1_555
C6B C2B 1_555 1_555
H4B C6B 1_555 1_555
H5B C6B 1_555 1_555
C7B N2B 1_555 1_555
H6B C7B 1_555 1_555
C8B N2B 1_555 1_555
H7B C8B 1_555 1_555
C9B N3B 1_555 1_555
H8B C9B 1_555 1_555
C10B N3B 1_555 1_555
H9B C10B 1_555 1_555
H10B C10B 1_555 1_555
H11B C10B 1_555 1_555
C4 C5 1_555 1_555
C8 C9 1_555 1_555
N1B C5B 1_555 1_555
C4B C5B 1_555 1_555
C8B C9B 1_555 1_555

#END
