
#######################################################################
#
#                 Cambridge Crystallographic Data Centre
#                                CCDC 
#
#######################################################################
#
# If this CIF has been generated from an entry in the Cambridge 
# Structural Database, then it will include bibliographic, chemical, 
# crystal, experimental, refinement or atomic coordinate data resulting 
# from the CCDC's data processing and validation procedures.
#
#######################################################################

data_AYUXID
_chemical_formula_moiety         'C22 H22 N6 O5 S1,C1 H4 O1'
_chemical_name_systematic        
'N-benzyl-N-methyl-13-((3-nitrophenyl)sulfonyl)-12-oxa-4,6,8,13-tetraazatricyclo[8.2.1.0^2,7^]trideca-2,4,6-trien-3-amine methanol solvate'
_symmetry_cell_setting           monoclinic
_symmetry_space_group_name_H-M   'P 21'
_symmetry_Int_Tables_number      4
_space_group_name_Hall           'P 2yb'
loop_
_symmetry_equiv_pos_site_id
_symmetry_equiv_pos_as_xyz
1 x,y,z
2 -x,1/2+y,-z
_cell_length_a                   10.0193(5)
_cell_length_b                   11.4723(6)
_cell_length_c                   10.4263(5)
_cell_angle_alpha                90
_cell_angle_beta                 92.079(3)
_cell_angle_gamma                90
_cell_volume                     1197.66
_exptl_crystal_colour            colorless
_exptl_crystal_description       block
_cell_formula_units_Z            2
loop_
_atom_site_label
_atom_site_type_symbol
_atom_site_fract_x
_atom_site_fract_y
_atom_site_fract_z
C1 C 1.0654(11) 0.2662(8) 1.2825(11)
C2 C 1.0756(9) 0.2179(9) 1.1610(11)
H1 H 1.1527 0.2292 1.1155
C3 C 0.9707(10) 0.1529(9) 1.1075(7)
C4 C 0.8555(9) 0.1360(9) 1.1755(8)
H2 H 0.7852 0.0925 1.1397
C5 C 0.8452(10) 0.1843(10) 1.2971(8)
H3 H 0.7681 0.1731 1.3426
C6 C 0.9502(12) 0.2494(10) 1.3506(8)
H4 H 0.9433 0.2817 1.4319
C7 C 0.9039(13) 0.3097(11) 0.8665(12)
H5 H 0.9894 0.3236 0.9126
C8 C 0.7896(15) 0.3606(14) 0.9460(14)
H6 H 0.8229 0.3878 1.0293
H7 H 0.745 0.4245 0.9011
C9 C 0.7383(13) 0.1742(13) 0.8667(14)
H8 H 0.7188 0.0974 0.9027
C10 C 0.9085(16) 0.3633(13) 0.7335(15)
H9 H 0.9274 0.4459 0.7425
H10 H 0.982 0.3284 0.689
C11 C 0.6910(13) 0.2706(12) 0.6512(12)
C12 C 0.6595(13) 0.1888(14) 0.7453(12)
C13 C 0.5495(16) 0.1137(14) 0.7190(14)
C14 C 0.510(2) 0.1962(16) 0.5265(16)
H11 H 0.458 0.1991 0.4507
C15 C 0.4248(16) -0.0585(14) 0.7672(15)
H12 H 0.3333 -0.0339 0.7582
H13 H 0.4316 -0.1225 0.8264
H14 H 0.4554 -0.0828 0.6852
C16 C 0.4715(13) 0.0786(11) 0.9379(13)
H15 H 0.3752 0.0808 0.9442
H16 H 0.5041 0.1581 0.9453
C17 C 0.5295(13) 0.0088(13) 1.0482(14)
C18 C 0.6162(14) -0.0807(11) 1.0347(13)
H17 H 0.6403 -0.1026 0.9528
C19 C 0.6710(15) -0.1421(15) 1.1429(15)
H18 H 0.7301 -0.2034 1.1314
C20 C 0.6369(19) -0.1108(17) 1.2628(15)
H19 H 0.6724 -0.1498 1.3344
C21 C 0.5471(17) -0.0183(18) 1.2765(18)
H20 H 0.5215 0.0046 1.3575
C22 C 0.4972(17) 0.0382(16) 1.1683(18)
H21 H 0.4382 0.0998 1.1788
N1 N 1.1780(19) 0.3272(16) 1.3397(16)
N2 N 0.8809(11) 0.1862(9) 0.8580(10)
N3 N 0.6145(14) 0.2749(11) 0.5388(11)
N4 N 0.4777(12) 0.1196(11) 0.6096(13)
N5 N 0.7864(13) 0.3494(11) 0.6539(13)
H22 H 0.7745 0.4035 0.5976
N6 N 0.5032(10) 0.0339(10) 0.8133(11)
O1 O 1.1590(19) 0.3801(18) 1.4392(17)
O2 O 1.2791(15) 0.3318(15) 1.2851(12)
O3 O 0.9228(11) -0.0131(8) 0.9465(9)
O4 O 1.1082(9) 0.1229(9) 0.9126(8)
O5 O 0.7025(8) 0.2633(8) 0.9584(8)
S1 S 0.9786(4) 0.1030(3) 0.9515(3)
O6 O 0.2246(13) 0.0545(10) 0.5055(11)
H23 H 0.2565 0.114 0.4756
C23 C 0.1250(19) 0.0840(18) 0.5891(17)
H24 H 0.1324 0.0355 0.664
H25 H 0.0391 0.0726 0.5471
H26 H 0.1348 0.1642 0.6138
loop_
_geom_bond_atom_site_label_1
_geom_bond_atom_site_label_2
_geom_bond_site_symmetry_1
_geom_bond_site_symmetry_2
C1 C2 1_555 1_555
C2 H1 1_555 1_555
C3 C2 1_555 1_555
C4 C3 1_555 1_555
H2 C4 1_555 1_555
C5 C4 1_555 1_555
H3 C5 1_555 1_555
C6 C1 1_555 1_555
H4 C6 1_555 1_555
C7 H5 1_555 1_555
C8 C7 1_555 1_555
H6 C8 1_555 1_555
H7 C8 1_555 1_555
C9 H8 1_555 1_555
C10 C7 1_555 1_555
H9 C10 1_555 1_555
H10 C10 1_555 1_555
C11 C12 1_555 1_555
C12 C9 1_555 1_555
C13 C12 1_555 1_555
C14 H11 1_555 1_555
C15 H12 1_555 1_555
H13 C15 1_555 1_555
H14 C15 1_555 1_555
C16 H15 1_555 1_555
H16 C16 1_555 1_555
C17 C16 1_555 1_555
C18 C17 1_555 1_555
H17 C18 1_555 1_555
C19 C18 1_555 1_555
H18 C19 1_555 1_555
C20 C19 1_555 1_555
H19 C20 1_555 1_555
C21 C20 1_555 1_555
H20 C21 1_555 1_555
C22 C17 1_555 1_555
H21 C22 1_555 1_555
N1 C1 1_555 1_555
N2 C7 1_555 1_555
N3 C11 1_555 1_555
N4 C13 1_555 1_555
N5 C10 1_555 1_555
H22 N5 1_555 1_555
N6 C13 1_555 1_555
O1 N1 1_555 1_555
O2 N1 1_555 1_555
O3 S1 1_555 1_555
O4 S1 1_555 1_555
O5 C8 1_555 1_555
S1 C3 1_555 1_555
O6 H23 1_555 1_555
C23 O6 1_555 1_555
H24 C23 1_555 1_555
H25 C23 1_555 1_555
H26 C23 1_555 1_555
C5 C6 1_555 1_555
C9 N2 1_555 1_555
C9 O5 1_555 1_555
C11 N5 1_555 1_555
C14 N3 1_555 1_555
C14 N4 1_555 1_555
C15 N6 1_555 1_555
C16 N6 1_555 1_555
C21 C22 1_555 1_555
N2 S1 1_555 1_555

#END
