
#######################################################################
#
#                 Cambridge Crystallographic Data Centre
#                                CCDC 
#
#######################################################################
#
# If this CIF has been generated from an entry in the Cambridge 
# Structural Database, then it will include bibliographic, chemical, 
# crystal, experimental, refinement or atomic coordinate data resulting 
# from the CCDC's data processing and validation procedures.
#
#######################################################################

data_AZACUB
_chemical_formula_moiety         'C17 H17 Br1 O3'
_chemical_name_systematic        
'isopropyl (2-bromophenyl)(2-hydroxyphenyl)acetate'
_symmetry_cell_setting           monoclinic
_symmetry_space_group_name_H-M   'P 21/n'
_symmetry_Int_Tables_number      14
_space_group_name_Hall           '-P 2yn'
loop_
_symmetry_equiv_pos_site_id
_symmetry_equiv_pos_as_xyz
1 x,y,z
2 1/2-x,1/2+y,1/2-z
3 -x,-y,-z
4 1/2+x,1/2-y,1/2+z
_cell_length_a                   7.8959(5)
_cell_length_b                   13.7051(8)
_cell_length_c                   15.1518(9)
_cell_angle_alpha                90
_cell_angle_beta                 97.706(2)
_cell_angle_gamma                90
_cell_volume                     1624.83
_exptl_crystal_colour            colorless
_exptl_crystal_description       block
_cell_formula_units_Z            4
loop_
_atom_site_label
_atom_site_type_symbol
_atom_site_fract_x
_atom_site_fract_y
_atom_site_fract_z
Br1 Br 0.19779(6) 0.41389(3) 0.42024(3)
O1 O 0.3536(3) 0.2135(2) 0.28983(18)
O2 O 0.1467(3) 0.2746(2) 0.19063(16)
O3 O -0.2873(3) 0.21367(19) 0.32755(17)
H1 H -0.3918 0.2134 0.3164
C1 C 0.0213(5) 0.0531(3) 0.2460(2)
H2 H 0.1386 0.0505 0.2448
C2 C -0.0788(5) -0.0227(3) 0.2089(3)
H3 H -0.0303 -0.0753 0.1827
C3 C -0.2513(5) -0.0186(3) 0.2117(3)
H4 H -0.3208 -0.0688 0.1862
C4 C -0.3233(4) 0.0579(3) 0.2511(2)
H5 H -0.4403 0.0586 0.2535
C5 C -0.2216(4) 0.1346(2) 0.2876(2)
C6 C -0.0462(4) 0.1325(2) 0.28463(19)
C7 C 0.0626(4) 0.2175(2) 0.32306(19)
H6 H -0.0105 0.2756 0.3162
C8 C 0.1288(4) 0.2086(2) 0.4219(2)
C9 C 0.1271(4) 0.1206(3) 0.4659(2)
H7 H 0.0870 0.0653 0.4341
C10 C 0.1829(5) 0.1123(3) 0.5551(2)
H8 H 0.1818 0.0517 0.5827
C11 C 0.2404(5) 0.1927(3) 0.6040(2)
H9 H 0.2759 0.1870 0.6648
C12 C 0.2454(5) 0.2816(3) 0.5626(2)
H10 H 0.2858 0.3366 0.5947
C13 C 0.1896(4) 0.2879(3) 0.4726(2)
C14 C 0.2077(4) 0.2350(2) 0.2675(2)
C15 C 0.2610(5) 0.2867(3) 0.1214(3)
H11 H 0.3762 0.3039 0.1496
C16 C 0.2671(7) 0.1952(4) 0.0716(3)
H12 H 0.3190 0.1452 0.1107
H13 H 0.3332 0.2047 0.0235
H14 H 0.1531 0.1759 0.0481
C17 C 0.1859(7) 0.3702(4) 0.0655(4)
H15 H 0.2540 0.3825 0.0187
H16 H 0.1840 0.4274 0.1019
H17 H 0.0714 0.3541 0.0399
loop_
_geom_bond_atom_site_label_1
_geom_bond_atom_site_label_2
_geom_bond_site_symmetry_1
_geom_bond_site_symmetry_2
Br1 C13 1_555 1_555
O1 C14 1_555 1_555
O2 C14 1_555 1_555
O3 H1 1_555 1_555
C1 H2 1_555 1_555
C2 C1 1_555 1_555
H3 C2 1_555 1_555
C3 C2 1_555 1_555
H4 C3 1_555 1_555
C4 C3 1_555 1_555
H5 C4 1_555 1_555
C5 O3 1_555 1_555
C6 C1 1_555 1_555
C7 C6 1_555 1_555
H6 C7 1_555 1_555
C8 C7 1_555 1_555
C9 C8 1_555 1_555
H7 C9 1_555 1_555
C10 C9 1_555 1_555
H8 C10 1_555 1_555
C11 C10 1_555 1_555
H9 C11 1_555 1_555
C12 C11 1_555 1_555
H10 C12 1_555 1_555
C13 C8 1_555 1_555
C14 C7 1_555 1_555
C15 O2 1_555 1_555
H11 C15 1_555 1_555
C16 C15 1_555 1_555
H12 C16 1_555 1_555
H13 C16 1_555 1_555
H14 C16 1_555 1_555
C17 C15 1_555 1_555
H15 C17 1_555 1_555
H16 C17 1_555 1_555
H17 C17 1_555 1_555
C4 C5 1_555 1_555
C5 C6 1_555 1_555
C12 C13 1_555 1_555

#END
