
#######################################################################
#
#                 Cambridge Crystallographic Data Centre
#                                CCDC 
#
#######################################################################
#
# If this CIF has been generated from an entry in the Cambridge 
# Structural Database, then it will include bibliographic, chemical, 
# crystal, experimental, refinement or atomic coordinate data resulting 
# from the CCDC's data processing and validation procedures.
#
#######################################################################

data_AZADEM
_chemical_formula_moiety         'C15 H17 Cl1 N2 O3'
_chemical_name_systematic        
"methyl 5-chloro-4',4'-dimethyl-2-oxo-1,2-dihydrospiro[indole-3,3'-pyrrolidine]-5'-carboxylate"
_symmetry_cell_setting           orthorhombic
_symmetry_space_group_name_H-M   'P 21 21 21'
_symmetry_Int_Tables_number      19
_space_group_name_Hall           'P 2ac 2ab'
loop_
_symmetry_equiv_pos_site_id
_symmetry_equiv_pos_as_xyz
1 x,y,z
2 1/2-x,-y,1/2+z
3 -x,1/2+y,1/2-z
4 1/2+x,1/2-y,-z
_cell_length_a                   7.2915(5)
_cell_length_b                   12.7983(10)
_cell_length_c                   15.9552(9)
_cell_angle_alpha                90
_cell_angle_beta                 90
_cell_angle_gamma                90
_cell_volume                     1488.92
_exptl_crystal_colour            colorless
_exptl_crystal_description       Block
_cell_formula_units_Z            4
loop_
_atom_site_label
_atom_site_type_symbol
_atom_site_fract_x
_atom_site_fract_y
_atom_site_fract_z
Cl1 Cl 0.65918(13) 0.17919(7) 0.41821(5)
O1 O 0.6976(4) 0.11735(17) 0.94577(14)
O2 O 0.4967(4) 0.48385(18) 0.81141(14)
N1 N 0.4752(4) 0.2231(2) 0.84215(15)
H1 H 0.387(4) 0.240(3) 0.875(2)
N2 N 0.5894(4) 0.50078(19) 0.67513(16)
H2 H 0.5891 0.5678 0.6718
O3 O 0.8717(5) 0.2556(2) 0.97438(16)
C1 C 0.7532(4) 0.2908(2) 0.78525(18)
C2 C 0.6257(4) 0.3306(2) 0.63501(18)
C3 C 0.6293(5) 0.4338(2) 0.60787(19)
C4 C 0.5902(4) 0.3290(2) 0.72841(17)
C5 C 0.8315(5) 0.1868(2) 0.7530(2)
H3 H 0.7337 0.1373 0.7463
H4 H 0.9189 0.1603 0.7926
H5 H 0.8907 0.1980 0.7000
C6 C 0.6591(5) 0.2781(2) 0.49319(18)
C7 C 0.6373(4) 0.2504(2) 0.57689(19)
H6 H 0.6307 0.1808 0.5932
C8 C 0.5517(5) 0.4465(2) 0.7459(2)
C9 C 0.6578(6) 0.4611(3) 0.5253(2)
H7 H 0.6666 0.5307 0.5089
C10 C 0.6457(5) 0.2738(2) 0.86826(18)
H8 H 0.6143 0.3427 0.8909
C11 C 0.6728(5) 0.3801(3) 0.4677(2)
H9 H 0.6923 0.3952 0.4114
C12 C 0.4290(4) 0.2607(3) 0.75714(18)
H10 H 0.3166 0.3012 0.7583
H11 H 0.4124 0.2022 0.7192
C13 C 0.7504(5) 0.2158(3) 0.9343(2)
C14 C 0.9072(5) 0.3705(3) 0.7941(2)
H12 H 0.9590 0.3847 0.7399
H13 H 1.0005 0.3431 0.8304
H14 H 0.8592 0.4340 0.8175
C15 C 0.7855(7) 0.0628(3) 1.0139(3)
H15 H 0.9132 0.0535 1.0013
H16 H 0.7287 -0.0043 1.0213
H17 H 0.7731 0.1028 1.0645
loop_
_geom_bond_atom_site_label_1
_geom_bond_atom_site_label_2
_geom_bond_site_symmetry_1
_geom_bond_site_symmetry_2
Cl1 C6 1_555 1_555
O1 C13 1_555 1_555
O2 C8 1_555 1_555
N1 H1 1_555 1_555
N2 H2 1_555 1_555
O3 C13 1_555 1_555
C1 C4 1_555 1_555
C2 C3 1_555 1_555
C3 N2 1_555 1_555
C4 C2 1_555 1_555
C5 C1 1_555 1_555
H3 C5 1_555 1_555
H4 C5 1_555 1_555
H5 C5 1_555 1_555
C6 C7 1_555 1_555
C7 C2 1_555 1_555
H6 C7 1_555 1_555
C8 N2 1_555 1_555
C9 C3 1_555 1_555
H7 C9 1_555 1_555
C10 N1 1_555 1_555
H8 C10 1_555 1_555
C11 C6 1_555 1_555
H9 C11 1_555 1_555
C12 N1 1_555 1_555
H10 C12 1_555 1_555
H11 C12 1_555 1_555
C13 C10 1_555 1_555
C14 C1 1_555 1_555
H12 C14 1_555 1_555
H13 C14 1_555 1_555
H14 C14 1_555 1_555
C15 O1 1_555 1_555
H15 C15 1_555 1_555
H16 C15 1_555 1_555
H17 C15 1_555 1_555
C1 C10 1_555 1_555
C4 C8 1_555 1_555
C4 C12 1_555 1_555
C9 C11 1_555 1_555

#END
