
#######################################################################
#
#                 Cambridge Crystallographic Data Centre
#                                CCDC 
#
#######################################################################
#
# If this CIF has been generated from an entry in the Cambridge 
# Structural Database, then it will include bibliographic, chemical, 
# crystal, experimental, refinement or atomic coordinate data resulting 
# from the CCDC's data processing and validation procedures.
#
#######################################################################

data_AZAGOY
_chemical_formula_moiety         'C6 H7 N1 O1'
_chemical_name_systematic        5-Methylpyridin-2(1H)-one
_symmetry_cell_setting           monoclinic
_symmetry_space_group_name_H-M   'C 2/c'
_symmetry_Int_Tables_number      15
_space_group_name_Hall           '-C 2yn'
loop_
_symmetry_equiv_pos_site_id
_symmetry_equiv_pos_as_xyz
1 x,y,z
2 -x,y,1/2-z
3 1/2+x,1/2+y,z
4 1/2-x,1/2+y,1/2-z
5 -x,-y,-z
6 x,-y,1/2+z
7 1/2-x,1/2-y,-z
8 1/2+x,1/2-y,1/2+z
_cell_length_a                   12.965(3)
_cell_length_b                   9.7154(19)
_cell_length_c                   10.908(2)
_cell_angle_alpha                90
_cell_angle_beta                 118.96(3)
_cell_angle_gamma                90
_cell_volume                     1202.17
_exptl_crystal_colour            colorless
_exptl_crystal_description       prism
_cell_formula_units_Z            8
loop_
_atom_site_label
_atom_site_type_symbol
_atom_site_fract_x
_atom_site_fract_y
_atom_site_fract_z
N1 N 0.28530(13) 0.79540(16) 0.17990(16)
H1 H 0.3148 0.7521 0.1353
O1 O 0.11700(11) 0.82537(15) -0.02634(14)
C1 C 0.17371(17) 0.8437(2) 0.1049(2)
C2 C 0.13100(19) 0.9133(2) 0.1852(2)
H2 H 0.0549 0.9488 0.1410
C3 C 0.35432(18) 0.8107(2) 0.3216(2)
H3 H 0.4300 0.7740 0.3655
C4 C 0.3147(2) 0.8781(2) 0.3988(2)
C5 C 0.1989(2) 0.9291(2) 0.3250(2)
H4 H 0.1679 0.9755 0.3743
C6 C 0.3897(2) 0.8989(2) 0.5532(3)
H5 H 0.4652 0.8566 0.5840
H6 H 0.3520 0.8578 0.6013
H7 H 0.4000 0.9956 0.5734
loop_
_geom_bond_atom_site_label_1
_geom_bond_atom_site_label_2
_geom_bond_site_symmetry_1
_geom_bond_site_symmetry_2
N1 H1 1_555 1_555
O1 C1 1_555 1_555
C1 N1 1_555 1_555
C2 C1 1_555 1_555
H2 C2 1_555 1_555
C3 N1 1_555 1_555
H3 C3 1_555 1_555
C4 C3 1_555 1_555
C5 C2 1_555 1_555
H4 C5 1_555 1_555
C6 C4 1_555 1_555
H5 C6 1_555 1_555
H6 C6 1_555 1_555
H7 C6 1_555 1_555
C4 C5 1_555 1_555

#END
