
#######################################################################
#
#                 Cambridge Crystallographic Data Centre
#                                CCDC 
#
#######################################################################
#
# If this CIF has been generated from an entry in the Cambridge 
# Structural Database, then it will include bibliographic, chemical, 
# crystal, experimental, refinement or atomic coordinate data resulting 
# from the CCDC's data processing and validation procedures.
#
#######################################################################

data_AZAJUH
_chemical_formula_moiety         'C12 H16 Cl1 N3 O1'
_chemical_name_systematic        
N-(4-Chlorophenyl)-4-methylpiperazine-1-carboxamide
_symmetry_cell_setting           orthorhombic
_symmetry_space_group_name_H-M   'P b c n'
_symmetry_Int_Tables_number      60
_space_group_name_Hall           '-P 2n 2ab'
loop_
_symmetry_equiv_pos_site_id
_symmetry_equiv_pos_as_xyz
1 x,y,z
2 1/2-x,1/2-y,1/2+z
3 -x,y,1/2-z
4 1/2+x,1/2-y,-z
5 -x,-y,-z
6 1/2+x,1/2+y,1/2-z
7 x,-y,1/2+z
8 1/2-x,1/2+y,z
_cell_length_a                   24.920(5)
_cell_length_b                   9.5033(19)
_cell_length_c                   11.064(2)
_cell_angle_alpha                90
_cell_angle_beta                 90
_cell_angle_gamma                90
_cell_volume                     2620.2
_exptl_crystal_colour            colorless
_exptl_crystal_description       block
_cell_formula_units_Z            8
_exptl_crystal_recrystallization_method ethanol
loop_
_atom_site_label
_atom_site_type_symbol
_atom_site_fract_x
_atom_site_fract_y
_atom_site_fract_z
Cl1 Cl 0.07382(3) 0.14060(8) 0.66714(8)
O1 O 0.28704(6) 0.11160(14) 1.01352(17)
C1 C 0.28896(7) -0.0180(2) 1.0143(2)
C2 C 0.21110(7) -0.0415(2) 0.88098(19)
N1 N 0.25282(6) -0.09932(17) 0.95154(18)
H1 H 0.2558 -0.1894 0.9555
C3 C 0.16012(8) -0.0996(2) 0.8900(2)
H2 H 0.1541 -0.1754 0.9415
C4 C 0.11817(8) -0.0447(3) 0.8224(2)
H3 H 0.0840 -0.0836 0.8282
C5 C 0.12738(8) 0.0675(2) 0.7469(2)
C6 C 0.17805(9) 0.1239(2) 0.7340(2)
H4 H 0.1840 0.1981 0.6809
C7 C 0.21988(8) 0.0687(2) 0.8010(2)
H5 H 0.2542 0.1057 0.7925
N2 N 0.32650(7) -0.08928(19) 1.0782(2)
N3 N 0.43172(7) -0.1934(2) 1.1165(2)
C8 C 0.33749(9) -0.2391(2) 1.0715(3)
H6 H 0.3139 -0.2824 1.0126
H7 H 0.3306 -0.2822 1.1495
C9 C 0.36406(10) -0.0151(3) 1.1554(3)
H8 H 0.3592 -0.0450 1.2385
H9 H 0.3572 0.0852 1.1512
C10 C 0.42085(10) -0.0446(3) 1.1162(3)
H10 H 0.4265 -0.0074 1.0356
H11 H 0.4456 0.0025 1.1705
C11 C 0.39479(11) -0.2641(3) 1.0361(3)
H12 H 0.4021 -0.3643 1.0372
H13 H 0.4004 -0.2305 0.9542
C12 C 0.48742(12) -0.2234(5) 1.0819(4)
H14 H 0.5114 -0.1767 1.1367
H15 H 0.4937 -0.1902 1.0012
H16 H 0.4936 -0.3231 1.0851
loop_
_geom_bond_atom_site_label_1
_geom_bond_atom_site_label_2
_geom_bond_site_symmetry_1
_geom_bond_site_symmetry_2
Cl1 C5 1_555 1_555
O1 C1 1_555 1_555
C1 N1 1_555 1_555
C2 N1 1_555 1_555
N1 H1 1_555 1_555
C3 C2 1_555 1_555
H2 C3 1_555 1_555
C4 C3 1_555 1_555
H3 C4 1_555 1_555
C5 C4 1_555 1_555
C6 C5 1_555 1_555
H4 C6 1_555 1_555
C7 C2 1_555 1_555
H5 C7 1_555 1_555
N2 C1 1_555 1_555
N3 C10 1_555 1_555
C8 N2 1_555 1_555
H6 C8 1_555 1_555
H7 C8 1_555 1_555
C9 N2 1_555 1_555
H8 C9 1_555 1_555
H9 C9 1_555 1_555
C10 C9 1_555 1_555
H10 C10 1_555 1_555
H11 C10 1_555 1_555
C11 N3 1_555 1_555
H12 C11 1_555 1_555
H13 C11 1_555 1_555
C12 N3 1_555 1_555
H14 C12 1_555 1_555
H15 C12 1_555 1_555
H16 C12 1_555 1_555
C6 C7 1_555 1_555
C8 C11 1_555 1_555

#END
