
#######################################################################
#
#                 Cambridge Crystallographic Data Centre
#                                CCDC 
#
#######################################################################
#
# If this CIF has been generated from an entry in the Cambridge 
# Structural Database, then it will include bibliographic, chemical, 
# crystal, experimental, refinement or atomic coordinate data resulting 
# from the CCDC's data processing and validation procedures.
#
#######################################################################

data_AZALUK
_chemical_formula_moiety         'C22 H21 N1 O2'
_chemical_name_systematic        
'benzyl 2,4-dimethyl-6-(4-methylphenyl)-nicotinate'
_symmetry_cell_setting           monoclinic
_symmetry_space_group_name_H-M   'P 21/n'
_symmetry_Int_Tables_number      14
_space_group_name_Hall           '-P 2yn'
loop_
_symmetry_equiv_pos_site_id
_symmetry_equiv_pos_as_xyz
1 x,y,z
2 1/2-x,1/2+y,1/2-z
3 -x,-y,-z
4 1/2+x,1/2-y,1/2+z
_cell_length_a                   7.3480(9)
_cell_length_b                   22.781(3)
_cell_length_c                   11.2360(15)
_cell_angle_alpha                90
_cell_angle_beta                 101.092(13)
_cell_angle_gamma                90
_cell_volume                     1845.71
_exptl_crystal_colour            colorless
_exptl_crystal_description       block
_cell_formula_units_Z            4
loop_
_atom_site_label
_atom_site_type_symbol
_atom_site_fract_x
_atom_site_fract_y
_atom_site_fract_z
N1 N 0.7309(3) 0.14321(11) 0.8413(2)
C1 C 0.7517(4) 0.30048(15) 0.7656(3)
H1 H 0.7625 0.3177 0.8417
C2 C 0.7527(4) 0.33580(15) 0.6653(3)
H2 H 0.7638 0.3763 0.6749
C3 C 0.7373(4) 0.31123(19) 0.5509(3)
C4 C 0.7223(4) 0.2520(2) 0.5414(3)
H3 H 0.7133 0.2347 0.4655
C5 C 0.7198(4) 0.21649(15) 0.6400(3)
H4 H 0.7078 0.1761 0.6293
C6 C 0.7350(3) 0.24008(13) 0.7550(2)
C7 C 0.7378(5) 0.3500(2) 0.4418(3)
H5 H 0.6177 0.3490 0.3899
H6 H 0.8293 0.3361 0.3980
H7 H 0.7668 0.3896 0.4681
C8 C 0.7324(3) 0.20136(12) 0.8609(2)
C9 C 0.7327(3) 0.22338(12) 0.9767(2)
H8 H 0.7298 0.2638 0.9882
C10 C 0.7371(3) 0.18653(13) 1.0742(2)
C11 C 0.7380(3) 0.12643(13) 1.0521(3)
C12 C 0.7324(4) 0.10664(13) 0.9350(3)
C13 C 0.7400(4) 0.21180(14) 1.1982(3)
H9 H 0.8367 0.2406 1.2160
H10 H 0.7626 0.1810 1.2575
H11 H 0.6226 0.2299 1.2002
C14 C 0.7282(6) 0.04208(15) 0.9024(4)
H12 H 0.6373 0.0356 0.8299
H13 H 0.6965 0.0195 0.9676
H14 H 0.8481 0.0303 0.8890
C15 C 0.7414(5) 0.08336(15) 1.1527(4)
C16 C 1.0634(5) 0.06023(15) 1.4152(3)
C17 C 1.0018(6) 0.09311(18) 1.4985(5)
H15 H 0.8750 0.0989 1.4918
C18 C 1.1197(7) 0.11789(17) 1.5916(4)
H16 H 1.0723 0.1409 1.6468
C19 C 1.3004(6) 0.11031(16) 1.6064(3)
H17 H 1.3791 0.1272 1.6722
C20 C 1.3729(5) 0.07687(17) 1.5230(4)
H18 H 1.5001 0.0711 1.5316
C21 C 1.2489(6) 0.05204(16) 1.4254(3)
H19 H 1.2937 0.0299 1.3677
O1 O 0.6193(12) 0.0717(5) 1.2100(11)
O2 O 0.9163(12) 0.0623(4) 1.2011(9)
C22 C 0.9588(15) 0.0252(5) 1.3062(12)
H20 H 1.0346 -0.0076 1.2895
H21 H 0.8449 0.0096 1.3252
O3? O 0.6187(15) 0.0474(5) 1.1389(11)
O4? O 0.8847(16) 0.0863(5) 1.2223(11)
C23? C 0.894(2) 0.0410(7) 1.3209(15)
H22? H 0.9117 0.0019 1.2905
H23? H 0.7825 0.0414 1.3549
loop_
_geom_bond_atom_site_label_1
_geom_bond_atom_site_label_2
_geom_bond_site_symmetry_1
_geom_bond_site_symmetry_2
N1 C8 1_555 1_555
C1 H1 1_555 1_555
C2 C1 1_555 1_555
H2 C2 1_555 1_555
C3 C2 1_555 1_555
C4 C3 1_555 1_555
H3 C4 1_555 1_555
C5 C4 1_555 1_555
H4 C5 1_555 1_555
C6 C1 1_555 1_555
C7 C3 1_555 1_555
H5 C7 1_555 1_555
H6 C7 1_555 1_555
H7 C7 1_555 1_555
C8 C6 1_555 1_555
C9 C8 1_555 1_555
H8 C9 1_555 1_555
C10 C9 1_555 1_555
C11 C10 1_555 1_555
C12 N1 1_555 1_555
C13 C10 1_555 1_555
H9 C13 1_555 1_555
H10 C13 1_555 1_555
H11 C13 1_555 1_555
C14 C12 1_555 1_555
H12 C14 1_555 1_555
H13 C14 1_555 1_555
H14 C14 1_555 1_555
C15 C11 1_555 1_555
C16 C17 1_555 1_555
C17 H15 1_555 1_555
C18 C17 1_555 1_555
H16 C18 1_555 1_555
C19 C18 1_555 1_555
H17 C19 1_555 1_555
C20 C19 1_555 1_555
H18 C20 1_555 1_555
C21 C16 1_555 1_555
H19 C21 1_555 1_555
O1 C15 1_555 1_555
O2 C15 1_555 1_555
C22 C16 1_555 1_555
H20 C22 1_555 1_555
H21 C22 1_555 1_555
C5 C6 1_555 1_555
C11 C12 1_555 1_555
C20 C21 1_555 1_555
O2 C22 1_555 1_555

#END
