
#######################################################################
#
#                 Cambridge Crystallographic Data Centre
#                                CCDC 
#
#######################################################################
#
# If this CIF has been generated from an entry in the Cambridge 
# Structural Database, then it will include bibliographic, chemical, 
# crystal, experimental, refinement or atomic coordinate data resulting 
# from the CCDC's data processing and validation procedures.
#
#######################################################################

data_AZAXUW
_chemical_formula_moiety         'C10 H18 O2'
_chemical_name_systematic        
5-(hydroxymethyl)-4,6,6-trimethylcyclohex-3-en-1-ol
_symmetry_cell_setting           orthorhombic
_symmetry_space_group_name_H-M   'P 21 21 21'
_symmetry_Int_Tables_number      19
_space_group_name_Hall           'P 2ac 2ab'
loop_
_symmetry_equiv_pos_site_id
_symmetry_equiv_pos_as_xyz
1 x,y,z
2 1/2+x,1/2-y,-z
3 -x,1/2+y,1/2-z
4 1/2-x,-y,1/2+z
_cell_length_a                   7.17540(10)
_cell_length_b                   10.5044(2)
_cell_length_c                   12.4274(2)
_cell_angle_alpha                90
_cell_angle_beta                 90
_cell_angle_gamma                90
_cell_volume                     936.694
_exptl_crystal_colour            colorless
_exptl_crystal_description       block
_cell_formula_units_Z            4
loop_
_atom_site_label
_atom_site_type_symbol
_atom_site_fract_x
_atom_site_fract_y
_atom_site_fract_z
O1 O 0.7092(3) 0.29010(19) 0.12571(15)
H1 H 0.8110 0.2792 0.0972
O2 O 0.0857(3) 0.2997(2) 0.07079(16)
C1 C 0.6927(4) 0.4206(3) 0.1595(2)
H2 H 0.7067 0.4757 0.0974
H3 H 0.7926 0.4401 0.2094
C2 C 0.5058(4) 0.4482(2) 0.2135(2)
H4 H 0.5150 0.5368 0.2375
C3 C 0.4819(4) 0.3717(3) 0.3163(2)
C4 C 0.3431(4) 0.2902(3) 0.3307(2)
H5 H 0.3363 0.2482 0.3965
C5 C 0.1967(4) 0.2611(3) 0.2485(2)
H6 H 0.0804 0.3007 0.2700
H7 H 0.1768 0.1698 0.2459
C6 C 0.6207(4) 0.3980(3) 0.4047(2)
C7 C 0.2503(3) 0.3081(2) 0.1372(2)
H8 H 0.3456 0.2511 0.1077
C8 C 0.3294(4) 0.4449(2) 0.1397(2)
C9 C 0.3744(4) 0.4882(3) 0.0253(2)
H9 H 0.460(2) 0.4344(13) -0.0043(7)
H10 H 0.4217(12) 0.5686(19) 0.0269(2)
H11 H 0.268(3) 0.4873(3) -0.0151(10)
C10 C 0.1852(4) 0.5372(2) 0.1871(2)
H12 H 0.2296 0.6230 0.1798
H13 H 0.1665 0.5181 0.2618
H14 H 0.0694 0.5283 0.1491
H15 H 0.134(7) 0.279(5) 0.001(5)
loop_
_geom_bond_atom_site_label_1
_geom_bond_atom_site_label_2
_geom_bond_site_symmetry_1
_geom_bond_site_symmetry_2
O1 H1 1_555 1_555
O2 C7 1_555 1_555
C1 O1 1_555 1_555
H2 C1 1_555 1_555
H3 C1 1_555 1_555
C2 C1 1_555 1_555
H4 C2 1_555 1_555
C3 C2 1_555 1_555
C4 C3 1_555 1_555
H5 C4 1_555 1_555
C5 C4 1_555 1_555
H6 C5 1_555 1_555
H7 C5 1_555 1_555
C6 C3 1_555 1_555
C7 C5 1_555 1_555
H8 C7 1_555 1_555
C8 C2 1_555 1_555
C9 C8 1_555 1_555
H9 C9 1_555 1_555
H10 C9 1_555 1_555
H11 C9 1_555 1_555
C10 C8 1_555 1_555
H12 C10 1_555 1_555
H13 C10 1_555 1_555
H14 C10 1_555 1_555
H15 O2 1_555 1_555
C7 C8 1_555 1_555

#END
