
#######################################################################
#
#                 Cambridge Crystallographic Data Centre
#                                CCDC 
#
#######################################################################
#
# If this CIF has been generated from an entry in the Cambridge 
# Structural Database, then it will include bibliographic, chemical, 
# crystal, experimental, refinement or atomic coordinate data resulting 
# from the CCDC's data processing and validation procedures.
#
#######################################################################

data_AZAXEG
_chemical_name_common            Nitrofurantoin
_chemical_formula_moiety         'C8 H6 N4 O5'
_chemical_name_systematic        
1-(((5-nitro-2-furyl)methylene)amino)imidazolidine-2,4-dione
_chemical_properties_biological  'antibacterial drug'
_symmetry_cell_setting           monoclinic
_symmetry_space_group_name_H-M   'P 21/c'
_symmetry_Int_Tables_number      14
_space_group_name_Hall           '-P 2ybc'
loop_
_symmetry_equiv_pos_site_id
_symmetry_equiv_pos_as_xyz
1 x,y,z
2 -x,1/2+y,1/2-z
3 -x,-y,-z
4 x,1/2-y,1/2+z
_cell_length_a                   7.849(3)
_cell_length_b                   6.500(3)
_cell_length_c                   20.057(7)
_cell_angle_alpha                90
_cell_angle_beta                 109.675(14)
_cell_angle_gamma                90
_cell_volume                     963.537
_exptl_crystal_colour            yellow
_exptl_crystal_description       block
_cell_formula_units_Z            4
loop_
_atom_site_label
_atom_site_type_symbol
_atom_site_fract_x
_atom_site_fract_y
_atom_site_fract_z
O1 O 0.6700(3) 1.3626(3) 0.09084(11)
O2 O 0.5174(3) 0.8953(4) 0.22986(11)
O3 O 0.8282(2) 0.9465(3) -0.08079(9)
O4 O 0.9372(4) 0.9610(4) -0.23313(11)
O5 O 0.9044(3) 1.2054(3) -0.16528(11)
N1 N 0.7277(3) 0.9860(3) 0.03422(10)
N2 N 0.6769(3) 1.0062(3) 0.09271(11)
N3 N 0.5894(3) 1.1656(4) 0.17164(11)
H1 H 0.5663 1.2635 0.1962
N4 N 0.9060(3) 1.0244(4) -0.18093(12)
C1 C 0.8742(3) 0.8730(4) -0.13575(13)
C2 C 0.6490(4) 1.1996(4) 0.11468(14)
C3 C 0.8053(3) 0.7736(4) -0.04577(13)
C4 C 0.7512(4) 0.8036(4) 0.01537(14)
C5 C 0.8826(4) 0.6679(4) -0.13667(14)
H2 H 0.9119 0.5859 -0.1692
C6 C 0.5711(4) 0.9645(5) 0.18485(14)
C7 C 0.8377(4) 0.6028(4) -0.07807(14)
H3 H 0.8314 0.4675 -0.0640
C8 C 0.6277(4) 0.8421(4) 0.13201(14)
H4 H 0.7300 0.7536 0.1552
H5 H 0.5288 0.7598 0.1017
H6 H 0.731(4) 0.684(5) 0.0354(14)
loop_
_geom_bond_atom_site_label_1
_geom_bond_atom_site_label_2
_geom_bond_site_symmetry_1
_geom_bond_site_symmetry_2
O1 C2 1_555 1_555
O2 C6 1_555 1_555
O3 C1 1_555 1_555
O4 N4 1_555 1_555
O5 N4 1_555 1_555
N1 N2 1_555 1_555
N2 C2 1_555 1_555
N3 H1 1_555 1_555
N4 C1 1_555 1_555
C1 C5 1_555 1_555
C2 N3 1_555 1_555
C3 O3 1_555 1_555
C4 N1 1_555 1_555
C5 H2 1_555 1_555
C6 N3 1_555 1_555
C7 C3 1_555 1_555
H3 C7 1_555 1_555
C8 N2 1_555 1_555
H4 C8 1_555 1_555
H5 C8 1_555 1_555
H6 C4 1_555 1_555
C3 C4 1_555 1_555
C5 C7 1_555 1_555
C6 C8 1_555 1_555

#END
