
#######################################################################
#
#                 Cambridge Crystallographic Data Centre
#                                CCDC 
#
#######################################################################
#
# If this CIF has been generated from an entry in the Cambridge 
# Structural Database, then it will include bibliographic, chemical, 
# crystal, experimental, refinement or atomic coordinate data resulting 
# from the CCDC's data processing and validation procedures.
#
#######################################################################

data_AZBNBT01
_chemical_formula_moiety         'C12 H8 Br2 N2'
_chemical_name_systematic        trans-p,p'-Dibromoazobenzene
_symmetry_cell_setting           monoclinic
_symmetry_space_group_name_H-M   'P 21/c'
_symmetry_Int_Tables_number      14
_space_group_name_Hall           '-P 2ybc'
loop_
_symmetry_equiv_pos_site_id
_symmetry_equiv_pos_as_xyz
1 x,y,z
2 -x,1/2+y,1/2-z
3 -x,-y,-z
4 x,1/2-y,1/2+z
_cell_length_a                   10.1046(14)
_cell_length_b                   4.7565(11)
_cell_length_c                   11.677(3)
_cell_angle_alpha                90
_cell_angle_beta                 92.09(2)
_cell_angle_gamma                90
_cell_volume                     560.853
_exptl_crystal_colour            brown
_cell_formula_units_Z            2
loop_
_atom_site_label
_atom_site_type_symbol
_atom_site_fract_x
_atom_site_fract_y
_atom_site_fract_z
Br1 Br 0.08500(5) 0.08195(10) 0.16769(4)
N1 N 0.4564(4) 0.9505(9) -0.0340(3)
C1 C 0.3758(5) 0.7412(10) 0.0222(4)
C2 C 0.3912(5) 0.6513(10) 0.1354(4)
H1 H 0.4633(46) 0.724(11) 0.1836(37)
C3 C 0.3063(5) 0.4517(11) 0.1781(4)
H2 H 0.3188(46) 0.394(10) 0.2503(40)
C4 C 0.2051(4) 0.3465(9) 0.1069(4)
C5 C 0.1879(5) 0.4312(11) -0.0059(4)
H3 H 0.1148(48) 0.358(10) -0.0532(39)
C6 C 0.2744(5) 0.6288(11) -0.0481(4)
H4 H 0.2682(47) 0.703(11) -0.1265(41)
N1B N 0.5436(4) 1.0495(9) 0.0340(3)
C1B C 0.6242(5) 1.2588(10) -0.0222(4)
C2B C 0.6088(5) 1.3487(10) -0.1354(4)
C6B C 0.7256(5) 1.3712(11) 0.0481(4)
H1B H 0.5367(46) 1.276(11) -0.1836(37)
C3B C 0.6937(5) 1.5483(11) -0.1781(4)
C5B C 0.8121(5) 1.5688(11) 0.0059(4)
H4B H 0.7318(47) 1.297(11) 0.1265(41)
H2B H 0.6812(46) 1.606(10) -0.2503(40)
C4B C 0.7949(4) 1.6535(9) -0.1069(4)
H3B H 0.8852(48) 1.642(10) 0.0532(39)
Br1B Br 0.91500(5) 1.91805(10) -0.16769(4)
loop_
_geom_bond_atom_site_label_1
_geom_bond_atom_site_label_2
_geom_bond_site_symmetry_1
_geom_bond_site_symmetry_2
Br1 C4 1_555 1_555
N1 C1 1_555 1_555
C1 C2 1_555 1_555
C2 H1 1_555 1_555
C3 C2 1_555 1_555
H2 C3 1_555 1_555
C4 C3 1_555 1_555
C5 C4 1_555 1_555
H3 C5 1_555 1_555
C6 C1 1_555 1_555
H4 C6 1_555 1_555
N1B N1 1_555 1_555
C1B N1B 1_555 1_555
C2B C1B 1_555 1_555
C6B C1B 1_555 1_555
H1B C2B 1_555 1_555
C3B C2B 1_555 1_555
C5B C6B 1_555 1_555
H4B C6B 1_555 1_555
H2B C3B 1_555 1_555
C4B C3B 1_555 1_555
H3B C5B 1_555 1_555
Br1B C4B 1_555 1_555
C5 C6 1_555 1_555
C5B C4B 1_555 1_555

#END
