
#######################################################################
#
#                 Cambridge Crystallographic Data Centre
#                                CCDC 
#
#######################################################################
#
# If this CIF has been generated from an entry in the Cambridge 
# Structural Database, then it will include bibliographic, chemical, 
# crystal, experimental, refinement or atomic coordinate data resulting 
# from the CCDC's data processing and validation procedures.
#
#######################################################################

data_AZEDUF
_chemical_formula_moiety         'C22 H22 Br1 N1 O6'
_chemical_name_systematic        
'Trimethyl 5-(4-bromophenyl)-2-phenylpyrrolidine-2,3,4-tricarboxylate'
_symmetry_cell_setting           monoclinic
_symmetry_space_group_name_H-M   'P 21'
_symmetry_Int_Tables_number      4
_space_group_name_Hall           'P 2yb'
loop_
_symmetry_equiv_pos_site_id
_symmetry_equiv_pos_as_xyz
1 x,y,z
2 -x,1/2+y,-z
_cell_length_a                   9.175(5)
_cell_length_b                   8.368(5)
_cell_length_c                   14.289(5)
_cell_angle_alpha                90
_cell_angle_beta                 100.801(5)
_cell_angle_gamma                90
_cell_volume                     1077.62
_exptl_crystal_colour            colorless
_exptl_crystal_description       block
_cell_formula_units_Z            2
loop_
_atom_site_label
_atom_site_type_symbol
_atom_site_fract_x
_atom_site_fract_y
_atom_site_fract_z
Br1 Br 0.12056(3) -0.25979(4) 0.72419(3)
O1 O 0.7633(2) 0.2237(3) 0.68904(13)
N1 N 0.5626(3) 0.3739(3) 0.82052(15)
O2 O 0.8316(2) 0.4155(3) 0.59645(14)
O3 O 0.3058(2) 0.4380(3) 0.52928(13)
O4 O 0.5219(2) 0.3264(3) 0.51780(14)
O5 O 0.9446(2) 0.4741(3) 0.83347(16)
O6 O 0.8228(2) 0.3388(3) 0.92995(14)
C1 C 0.6665(3) 0.4899(3) 0.69413(17)
H1 H 0.7014 0.5937 0.6755
C2 C 0.6775(3) 0.4854(3) 0.80415(17)
C3 C 0.4976(3) 0.4769(3) 0.65887(17)
H2 H 0.4597 0.5866 0.6547
C4 C 0.8308(3) 0.4325(3) 0.85610(19)
C5 C 0.7324(3) 0.7835(3) 0.81985(18)
H3 H 0.8022 0.7697 0.7811
C6 C 0.4045(3) 0.1076(3) 0.6843(2)
H4 H 0.4893 0.1184 0.6579
C7 C 0.4343(3) 0.3948(3) 0.74212(18)
H5 H 0.3675 0.4720 0.7639
C8 C 0.3344(3) -0.0393(3) 0.6807(2)
H6 H 0.3705 -0.1260 0.6512
C9 C 0.4481(3) 0.4048(3) 0.56186(18)
C10 C 0.1536(3) 0.0722(4) 0.7603(3)
H7 H 0.0676 0.0607 0.7853
C11 C 0.2230(3) 0.2192(5) 0.7632(2)
H8 H 0.1833 0.3062 0.7902
C12 C 0.3515(2) 0.2379(4) 0.72602(16)
C13 C 0.6521(3) 0.6528(3) 0.84188(17)
C14 C 0.5480(4) 0.6776(4) 0.9003(2)
H9 H 0.4924 0.5922 0.9161
C15 C 0.7103(3) 0.9331(4) 0.8544(2)
H10 H 0.7642 1.0196 0.8381
C16 C 0.7567(3) 0.3584(3) 0.66023(19)
C17 C 0.6090(4) 0.9557(4) 0.9129(2)
H11 H 0.5957 1.0564 0.9375
C18 C 0.2417(4) 0.3716(5) 0.4381(2)
H12 H 0.1394 0.4027 0.4215
H13 H 0.2484 0.2571 0.4411
H14 H 0.2945 0.4105 0.3907
C19 C 0.9130(4) 0.2993(5) 0.5514(3)
H15 H 0.9628 0.3525 0.5068
H16 H 0.8453 0.2215 0.5184
H17 H 0.9848 0.2470 0.5991
C20 C 0.2111(3) -0.0552(4) 0.7211(2)
C21 C 0.9626(4) 0.2885(5) 0.9871(3)
H18 H 0.9440 0.2210 1.0379
H19 H 1.0179 0.3807 1.0133
H20 H 1.0186 0.2303 0.9480
C22 C 0.5276(5) 0.8274(4) 0.9345(3)
H21 H 0.4575 0.8426 0.9730
H22 H 0.596(3) 0.283(3) 0.8202(16)
loop_
_geom_bond_atom_site_label_1
_geom_bond_atom_site_label_2
_geom_bond_site_symmetry_1
_geom_bond_site_symmetry_2
Br1 C20 1_555 1_555
O1 C16 1_555 1_555
N1 C2 1_555 1_555
O2 C16 1_555 1_555
O3 C9 1_555 1_555
O4 C9 1_555 1_555
O5 C4 1_555 1_555
O6 C4 1_555 1_555
C1 H1 1_555 1_555
C2 C1 1_555 1_555
C3 C1 1_555 1_555
H2 C3 1_555 1_555
C4 C2 1_555 1_555
C5 H3 1_555 1_555
C6 H4 1_555 1_555
C7 N1 1_555 1_555
H5 C7 1_555 1_555
C8 C6 1_555 1_555
H6 C8 1_555 1_555
C9 C3 1_555 1_555
C10 H7 1_555 1_555
C11 C10 1_555 1_555
H8 C11 1_555 1_555
C12 C6 1_555 1_555
C13 C2 1_555 1_555
C14 C13 1_555 1_555
H9 C14 1_555 1_555
C15 C5 1_555 1_555
H10 C15 1_555 1_555
C16 C1 1_555 1_555
C17 C15 1_555 1_555
H11 C17 1_555 1_555
C18 O3 1_555 1_555
H12 C18 1_555 1_555
H13 C18 1_555 1_555
H14 C18 1_555 1_555
C19 O2 1_555 1_555
H15 C19 1_555 1_555
H16 C19 1_555 1_555
H17 C19 1_555 1_555
C20 C8 1_555 1_555
C21 O6 1_555 1_555
H18 C21 1_555 1_555
H19 C21 1_555 1_555
H20 C21 1_555 1_555
C22 C14 1_555 1_555
H21 C22 1_555 1_555
H22 N1 1_555 1_555
C3 C7 1_555 1_555
C5 C13 1_555 1_555
C7 C12 1_555 1_555
C10 C20 1_555 1_555
C11 C12 1_555 1_555
C17 C22 1_555 1_555

#END
