
#######################################################################
#
#                 Cambridge Crystallographic Data Centre
#                                CCDC 
#
#######################################################################
#
# If this CIF has been generated from an entry in the Cambridge 
# Structural Database, then it will include bibliographic, chemical, 
# crystal, experimental, refinement or atomic coordinate data resulting 
# from the CCDC's data processing and validation procedures.
#
#######################################################################

data_AZEFIW
_chemical_formula_moiety         'C16 H18 N1 O1 1+,0.5(C6 H6 O2),Cl1 O4 1-'
_chemical_name_systematic        
'1-ethyl-4-(2-(4-methoxyphenyl)vinyl)pyridinium perchlorate hemikis(benzene-1,2-diol)'
_symmetry_cell_setting           monoclinic
_symmetry_space_group_name_H-M   'P 2/n'
_symmetry_Int_Tables_number      13
_space_group_name_Hall           '-P 2yac'
loop_
_symmetry_equiv_pos_site_id
_symmetry_equiv_pos_as_xyz
1 x,y,z
2 1/2-x,y,1/2-z
3 -x,-y,-z
4 1/2+x,-y,1/2+z
_cell_length_a                   15.7614(3)
_cell_length_b                   7.4137(2)
_cell_length_c                   16.6326(4)
_cell_angle_alpha                90
_cell_angle_beta                 96.2570(10)
_cell_angle_gamma                90
_cell_volume                     1931.95
_exptl_crystal_colour            yellow
_exptl_crystal_description       block
_cell_formula_units_Z            4
loop_
_atom_site_label
_atom_site_type_symbol
_atom_site_fract_x
_atom_site_fract_y
_atom_site_fract_z
Cl1 Cl 0.05601(3) 0.45921(7) 0.26774(3)
O1 O 0.00523(11) 0.3286(2) 0.21953(10)
O2 O 0.05560(11) 0.4207(2) 0.35183(9)
O3 O 0.01933(15) 0.6354(2) 0.25129(11)
O4 O 0.14200(12) 0.4576(4) 0.24808(12)
O5 O 0.88979(8) 0.03154(19) 0.53340(8)
N1 N 0.23732(9) 0.4532(2) 0.51759(9)
C1 C 0.29603(12) 0.4458(3) 0.58340(11)
C2 C 0.37638(12) 0.3806(3) 0.57776(11)
C3 C 0.39990(11) 0.3196(2) 0.50322(10)
C4 C 0.33721(12) 0.3295(3) 0.43681(11)
C5 C 0.25728(12) 0.3956(3) 0.44531(11)
C6 C 0.48483(11) 0.2504(2) 0.49222(11)
C7 C 0.54779(12) 0.2318(3) 0.55267(11)
C8 C 0.63519(11) 0.1709(2) 0.54657(11)
C9 C 0.69332(12) 0.1741(3) 0.61654(12)
C10 C 0.77830(12) 0.1266(3) 0.61541(12)
C11 C 0.80690(11) 0.0731(2) 0.54263(11)
C12 C 0.74967(12) 0.0650(2) 0.47175(11)
C13 C 0.66521(12) 0.1134(3) 0.47418(11)
C14 C 0.95024(13) 0.0286(3) 0.60456(13)
C15 C 0.14985(12) 0.5196(3) 0.52815(12)
C16 C 0.09450(13) 0.3687(3) 0.55314(13)
H1 H 0.6299(13) 0.108(3) 0.4260(12)
H2 H 0.2142(14) 0.404(3) 0.4035(13)
H3 H 0.9573(13) 0.150(3) 0.6306(12)
H4 H 0.2775(15) 0.489(3) 0.6282(15)
H5 H 0.4963(14) 0.220(3) 0.4389(13)
H6 H 0.1281(14) 0.574(3) 0.4769(14)
H7 H 0.5352(14) 0.262(3) 0.6090(14)
H8 H 0.0407(16) 0.417(3) 0.5601(15)
H9 H 0.7720(15) 0.027(3) 0.4216(15)
H10 H 0.8167(15) 0.127(3) 0.6656(14)
H11 H 0.1575(15) 0.623(4) 0.5701(15)
H12 H 0.4148(16) 0.380(3) 0.6264(15)
H13 H 0.3498(14) 0.291(3) 0.3867(14)
H14 H 1.0046(17) -0.008(3) 0.5873(16)
H15 H 0.1237(16) 0.314(4) 0.5993(15)
H16 H 0.9286(16) -0.056(3) 0.6416(15)
H17 H 0.0856(15) 0.274(4) 0.5124(15)
H18 H 0.6723(16) 0.211(4) 0.6641(15)
C17 C -0.16147(15) 0.0229(3) 0.25371(11)
C18 C -0.20543(13) 0.1861(3) 0.25210(10)
O6 O -0.16611(11) 0.3510(2) 0.25537(10)
C19 C -0.20601(16) -0.1400(3) 0.25176(12)
H19 H -0.1016(17) 0.031(3) 0.2544(15)
H20 H -0.1758(18) -0.251(4) 0.2514(16)
H21 H -0.119(2) 0.337(4) 0.2529(18)
C17A C -0.33853(15) 0.0229(3) 0.24629(11)
C18A C -0.29457(13) 0.1861(3) 0.24790(10)
O6A O -0.33389(11) 0.3510(2) 0.24463(10)
C19A C -0.29399(16) -0.1400(3) 0.24824(12)
H19A H -0.3984(17) 0.031(3) 0.2456(15)
H20A H -0.3242(18) -0.251(4) 0.2486(16)
H21A H -0.381(2) 0.337(4) 0.2471(18)
loop_
_geom_bond_atom_site_label_1
_geom_bond_atom_site_label_2
_geom_bond_site_symmetry_1
_geom_bond_site_symmetry_2
Cl1 O1 1_555 1_555
O2 Cl1 1_555 1_555
O3 Cl1 1_555 1_555
O4 Cl1 1_555 1_555
O5 C11 1_555 1_555
N1 C1 1_555 1_555
C1 C2 1_555 1_555
C2 C3 1_555 1_555
C3 C4 1_555 1_555
C4 C5 1_555 1_555
C5 N1 1_555 1_555
C6 C3 1_555 1_555
C7 C6 1_555 1_555
C8 C7 1_555 1_555
C9 C8 1_555 1_555
C10 C9 1_555 1_555
C11 C10 1_555 1_555
C12 C11 1_555 1_555
C13 C8 1_555 1_555
C14 O5 1_555 1_555
C15 N1 1_555 1_555
C16 C15 1_555 1_555
H1 C13 1_555 1_555
H2 C5 1_555 1_555
H3 C14 1_555 1_555
H4 C1 1_555 1_555
H5 C6 1_555 1_555
H6 C15 1_555 1_555
H7 C7 1_555 1_555
H8 C16 1_555 1_555
H9 C12 1_555 1_555
H10 C10 1_555 1_555
H11 C15 1_555 1_555
H12 C2 1_555 1_555
H13 C4 1_555 1_555
H14 C14 1_555 1_555
H15 C16 1_555 1_555
H16 C14 1_555 1_555
H17 C16 1_555 1_555
H18 C9 1_555 1_555
C17 C18 1_555 1_555
C18 O6 1_555 1_555
O6 H21 1_555 1_555
C19 C17 1_555 1_555
H19 C17 1_555 1_555
H20 C19 1_555 1_555
C17A C18A 1_555 1_555
C18A C18 1_555 1_555
O6A C18A 1_555 1_555
C19A C19 1_555 1_555
H19A C17A 1_555 1_555
H20A C19A 1_555 1_555
H21A O6A 1_555 1_555
C12 C13 1_555 1_555
C17A C19A 1_555 1_555

#END
