
#######################################################################
#
#                 Cambridge Crystallographic Data Centre
#                                CCDC 
#
#######################################################################
#
# If this CIF has been generated from an entry in the Cambridge 
# Structural Database, then it will include bibliographic, chemical, 
# crystal, experimental, refinement or atomic coordinate data resulting 
# from the CCDC's data processing and validation procedures.
#
#######################################################################

data_AZEFES
_chemical_formula_moiety         'C16 H18 N1 O1 1+,0.5(C6 H6 O2),Cl1 O4 1-'
_chemical_name_systematic        
'1-ethyl-4-(2-(4-methoxyphenyl)vinyl)pyridinium perchlorate hemikis(benzene-1,3-diol)'
_symmetry_cell_setting           monoclinic
_symmetry_space_group_name_H-M   'P 21/c'
_symmetry_Int_Tables_number      14
_space_group_name_Hall           '-P 2ybc'
loop_
_symmetry_equiv_pos_site_id
_symmetry_equiv_pos_as_xyz
1 x,y,z
2 -x,1/2+y,1/2-z
3 -x,-y,-z
4 x,1/2-y,1/2+z
_cell_length_a                   17.2826(17)
_cell_length_b                   16.6325(13)
_cell_length_c                   14.7289(11)
_cell_angle_alpha                90
_cell_angle_beta                 114.754(3)
_cell_angle_gamma                90
_cell_volume                     3844.83
_exptl_crystal_colour            yellow
_exptl_crystal_description       plate
_cell_formula_units_Z            8
loop_
_atom_site_label
_atom_site_type_symbol
_atom_site_fract_x
_atom_site_fract_y
_atom_site_fract_z
Cl1 Cl 0.91724(9) 0.75972(9) 0.21438(11)
O1 O 0.9196(8) 0.7019(8) 0.2870(10)
O2 O 0.8905(5) 0.8440(5) 0.2064(6)
O3 O 0.8687(7) 0.7187(6) 0.1212(7)
O4 O 1.0071(5) 0.7649(6) 0.2333(7)
Cl2 Cl 1.50889(12) 0.74095(10) 0.59678(16)
O9 O 1.4904(5) 0.7906(4) 0.6636(6)
O10 O 1.4759(5) 0.7799(4) 0.5021(6)
O11 O 1.4672(4) 0.6649(3) 0.5869(5)
O12 O 1.5981(3) 0.7309(3) 0.6308(7)
O13 O 1.8876(3) 0.5379(3) 0.4641(3)
N1 N 1.2308(3) 0.5452(3) 0.3456(4)
C1 C 1.2780(4) 0.6129(4) 0.3576(5)
H1 H 1.2538 0.6636 0.3602
C2 C 1.3600(4) 0.6093(4) 0.3659(5)
H2 H 1.3919 0.6574 0.3742
C3 C 1.3973(4) 0.5346(4) 0.3623(5)
C4 C 1.3464(5) 0.4656(4) 0.3503(5)
H3 H 1.3689 0.4141 0.3475
C5 C 1.2654(4) 0.4721(4) 0.3427(5)
H4 H 1.2323 0.4249 0.3352
C6 C 1.4849(4) 0.5232(4) 0.3718(5)
H5 H 1.5024 0.4701 0.3656
C7 C 1.5408(5) 0.5819(4) 0.3882(5)
H6 H 1.5224 0.6355 0.3897
C8 C 1.6310(4) 0.5688(4) 0.4046(4)
C9 C 1.6858(4) 0.6354(4) 0.4308(5)
H7 H 1.6637 0.6869 0.4349
C10 C 1.7709(4) 0.6284(4) 0.4507(5)
H8 H 1.8067 0.6744 0.4697
C11 C 1.8048(4) 0.5528(4) 0.4428(5)
C12 C 1.7497(4) 0.4862(4) 0.4139(5)
H9 H 1.7711 0.4350 0.4073
C13 C 1.6646(4) 0.4942(4) 0.3950(5)
H10 H 1.6284 0.4484 0.3753
C14 C 1.9453(4) 0.6054(4) 0.4930(5)
H11 H 2.0028 0.5869 0.5060
H12 H 1.9457 0.6299 0.5538
H13 H 1.9265 0.6452 0.4390
C15 C 1.1422(4) 0.5529(4) 0.3352(5)
H14 H 1.1405 0.5917 0.3854
H15 H 1.1223 0.5002 0.3484
C16 C 1.0832(4) 0.5813(4) 0.2317(5)
H16 H 1.0251 0.5860 0.2271
H17 H 1.0839 0.5425 0.1820
H18 H 1.1022 0.6339 0.2189
O14 O 0.1176(3) 0.4674(3) 0.0613(4)
N2 N 0.7671(3) 0.5024(3) 0.1522(4)
C17 C 0.7198(4) 0.4344(4) 0.1296(5)
H19 H 0.7428 0.3859 0.1171
C18 C 0.6377(4) 0.4349(4) 0.1246(5)
H20 H 0.6050 0.3868 0.1084
C19 C 0.6025(4) 0.5059(4) 0.1434(5)
C20 C 0.6549(4) 0.5747(4) 0.1671(5)
H21 H 0.6339 0.6240 0.1804
C21 C 0.7351(5) 0.5717(4) 0.1712(5)
H22 H 0.7692 0.6189 0.1877
C22 C 0.5178(4) 0.5124(4) 0.1380(5)
H23 H 0.4987 0.5645 0.1453
C23 C 0.4629(5) 0.4510(4) 0.1234(5)
H24 H 0.4835 0.3987 0.1199
C24 C 0.3751(4) 0.4565(4) 0.1125(5)
C25 C 0.3272(4) 0.3862(4) 0.0990(5)
H25 H 0.3537 0.3360 0.0998
C26 C 0.2420(4) 0.3867(4) 0.0846(5)
H26 H 0.2120 0.3375 0.0774
C27 C 0.2017(4) 0.4588(4) 0.0808(4)
C28 C 0.2489(4) 0.5308(4) 0.0969(4)
H27 H 0.2223 0.5807 0.0967
C29 C 0.3328(4) 0.5292(4) 0.1127(5)
H28 H 0.3635 0.5784 0.1242
C30 C 0.0656(5) 0.3949(4) 0.0436(6)
H29 H 0.0068 0.4099 0.0294
H30 H 0.0886 0.3606 0.1032
H31 H 0.0667 0.3655 -0.0136
C31 C 0.8559(4) 0.4978(4) 0.1621(5)
H32 H 0.8752 0.5522 0.1536
H33 H 0.8579 0.4629 0.1087
C32 C 0.9151(4) 0.4648(4) 0.2625(5)
H34 H 0.9729 0.4615 0.2662
H35 H 0.8960 0.4110 0.2712
H36 H 0.9148 0.5004 0.3154
O15 O 1.3638(4) 0.7304(3) 0.7229(4)
O16 O 1.1680(3) 0.7726(3) 0.3834(3)
C33 C 1.2665(4) 0.7521(4) 0.5500(5)
H37 H 1.3117 0.7587 0.5300
C34 C 1.2829(5) 0.7366(4) 0.6498(5)
C35 C 1.2165(6) 0.7274(4) 0.6791(6)
H38 H 1.2284 0.7176 0.7472
C36 C 1.1339(6) 0.7325(4) 0.6090(6)
H39 H 1.0889 0.7256 0.6294
C37 C 1.1137(4) 0.7477(4) 0.5076(5)
H40 H 1.0563 0.7510 0.4593
C38 C 1.1818(4) 0.7577(4) 0.4810(5)
H41 H 1.404(5) 0.747(5) 0.696(6)
H42 H 1.118(4) 0.770(4) 0.349(5)
O5? O 0.8982(11) 0.7265(11) 0.2926(13)
O6? O 0.8588(11) 0.8195(10) 0.2057(12)
O7? O 0.9027(9) 0.7217(8) 0.1200(10)
O8? O 1.0002(15) 0.7927(14) 0.2561(18)
loop_
_geom_bond_atom_site_label_1
_geom_bond_atom_site_label_2
_geom_bond_site_symmetry_1
_geom_bond_site_symmetry_2
Cl1 O1 1_555 1_555
O2 Cl1 1_555 1_555
O3 Cl1 1_555 1_555
O4 Cl1 1_555 1_555
Cl2 O9 1_555 1_555
O10 Cl2 1_555 1_555
O11 Cl2 1_555 1_555
O12 Cl2 1_555 1_555
O13 C11 1_555 1_555
N1 C1 1_555 1_555
C1 H1 1_555 1_555
C2 C1 1_555 1_555
H2 C2 1_555 1_555
C3 C2 1_555 1_555
C4 C3 1_555 1_555
H3 C4 1_555 1_555
C5 N1 1_555 1_555
H4 C5 1_555 1_555
C6 C3 1_555 1_555
H5 C6 1_555 1_555
C7 C6 1_555 1_555
H6 C7 1_555 1_555
C8 C7 1_555 1_555
C9 C8 1_555 1_555
H7 C9 1_555 1_555
C10 C9 1_555 1_555
H8 C10 1_555 1_555
C11 C10 1_555 1_555
C12 C11 1_555 1_555
H9 C12 1_555 1_555
C13 C8 1_555 1_555
H10 C13 1_555 1_555
C14 O13 1_555 1_555
H11 C14 1_555 1_555
H12 C14 1_555 1_555
H13 C14 1_555 1_555
C15 N1 1_555 1_555
H14 C15 1_555 1_555
H15 C15 1_555 1_555
C16 C15 1_555 1_555
H16 C16 1_555 1_555
H17 C16 1_555 1_555
H18 C16 1_555 1_555
O14 C27 1_555 1_555
N2 C17 1_555 1_555
C17 H19 1_555 1_555
C18 C17 1_555 1_555
H20 C18 1_555 1_555
C19 C18 1_555 1_555
C20 C19 1_555 1_555
H21 C20 1_555 1_555
C21 N2 1_555 1_555
H22 C21 1_555 1_555
C22 C19 1_555 1_555
H23 C22 1_555 1_555
C23 C22 1_555 1_555
H24 C23 1_555 1_555
C24 C23 1_555 1_555
C25 C24 1_555 1_555
H25 C25 1_555 1_555
C26 C25 1_555 1_555
H26 C26 1_555 1_555
C27 C26 1_555 1_555
C28 C27 1_555 1_555
H27 C28 1_555 1_555
C29 C24 1_555 1_555
H28 C29 1_555 1_555
C30 O14 1_555 1_555
H29 C30 1_555 1_555
H30 C30 1_555 1_555
H31 C30 1_555 1_555
C31 N2 1_555 1_555
H32 C31 1_555 1_555
H33 C31 1_555 1_555
C32 C31 1_555 1_555
H34 C32 1_555 1_555
H35 C32 1_555 1_555
H36 C32 1_555 1_555
O15 C34 1_555 1_555
O16 C38 1_555 1_555
C33 H37 1_555 1_555
C34 C33 1_555 1_555
C35 C34 1_555 1_555
H38 C35 1_555 1_555
C36 C35 1_555 1_555
H39 C36 1_555 1_555
C37 C36 1_555 1_555
H40 C37 1_555 1_555
C38 C33 1_555 1_555
H41 O15 1_555 1_555
H42 O16 1_555 1_555
C4 C5 1_555 1_555
C12 C13 1_555 1_555
C20 C21 1_555 1_555
C28 C29 1_555 1_555
C37 C38 1_555 1_555

#END
