
#######################################################################
#
#                 Cambridge Crystallographic Data Centre
#                                CCDC 
#
#######################################################################
#
# If this CIF has been generated from an entry in the Cambridge 
# Structural Database, then it will include bibliographic, chemical, 
# crystal, experimental, refinement or atomic coordinate data resulting 
# from the CCDC's data processing and validation procedures.
#
#######################################################################

data_AZEKEW
_chemical_formula_moiety         'C18 H22 Br1 N2 O5,Br3,0.5(Br2)'
_chemical_name_systematic        
'2-Bromomethyl-5-hydroxy-7,8-dimethoxy-4-isopropylcarbamoyl-1,2-dihydro-oxazolo(3,2-a)quinolinium tribromide bromine solvate'
_symmetry_cell_setting           monoclinic
_symmetry_space_group_name_H-M   'P 21/c'
_symmetry_Int_Tables_number      14
_space_group_name_Hall           '-P 2ybc'
loop_
_symmetry_equiv_pos_site_id
_symmetry_equiv_pos_as_xyz
1 x,y,z
2 -x,1/2+y,1/2-z
3 -x,-y,-z
4 x,1/2-y,1/2+z
_cell_length_a                   31.882(3)
_cell_length_b                   18.831(2)
_cell_length_c                   7.897(1)
_cell_angle_alpha                90
_cell_angle_beta                 90.14(1)
_cell_angle_gamma                90
_cell_volume                     4741.11
_exptl_crystal_colour            colorless
_exptl_crystal_description       stick
_chemical_melting_point          128-130deg.C
_cell_formula_units_Z            8
loop_
_atom_site_label
_atom_site_type_symbol
_atom_site_fract_x
_atom_site_fract_y
_atom_site_fract_z
Br1 Br 0.25821(6) 0.18906(15) 0.2535(3)
Br2 Br 0.24233(7) 0.31158(16) 0.2538(3)
Br3 Br 0.27274(4) 0.46263(10) 0.74349(19)
Br4 Br 0.34304(4) 0.47492(6) 0.90560(15)
Br5 Br 0.41117(4) 0.48769(7) 1.05728(16)
Br6 Br 0.39013(4) 0.27388(7) -0.12577(16)
N1 N 0.3621(3) 0.0130(5) -0.0534(11)
N2 N 0.4716(3) 0.1004(5) 0.1799(10)
H1 H 0.4516 0.1284 0.1419
O1 O 0.3961(2) 0.1125(4) 0.0043(10)
O2 O 0.4951(2) -0.0107(4) 0.2088(8)
O3 O 0.4519(2) -0.1155(4) 0.1434(8)
H2 H 0.4740 -0.0926 0.1632
O4 O 0.2842(2) -0.1944(4) -0.2264(10)
O5 O 0.3396(2) -0.2770(4) -0.1043(9)
C1 C 0.3554(3) -0.0591(5) -0.0628(11)
C2 C 0.3203(3) -0.0873(6) -0.1419(12)
H3 H 0.2991 -0.0572 -0.1872
C3 C 0.3169(3) -0.1611(6) -0.1532(12)
C4 C 0.3471(3) -0.2057(6) -0.0824(12)
C5 C 0.3820(3) -0.1786(6) -0.0068(12)
H4 H 0.4031 -0.2093 0.0366
C6 C 0.3867(3) -0.1040(5) 0.0061(11)
C7 C 0.4232(3) -0.0722(5) 0.0809(12)
C8 C 0.4289(3) 0.0021(5) 0.0852(11)
C9 C 0.3963(3) 0.0414(6) 0.0162(12)
C10 C 0.3553(3) 0.1361(5) -0.0516(15)
H5 H 0.3389 0.1606 0.0390
C11 C 0.3640(5) 0.1835(9) -0.2062(16)
H6 H 0.3375 0.1939 -0.2668
H7 H 0.3831 0.1589 -0.2853
C12 C 0.3335(3) 0.0691(5) -0.1208(15)
H8 H 0.3055 0.0619 -0.0764
H9 H 0.3324 0.0683 -0.2435
C13 C 0.4671(3) 0.0323(5) 0.1617(12)
C14 C 0.5082(3) 0.1328(6) 0.2604(13)
H10 H 0.5339 0.1062 0.2253
C15 C 0.5038(3) 0.1281(6) 0.4556(12)
H11 H 0.5000 0.0784 0.4890
H12 H 0.4794 0.1559 0.4918
H13 H 0.5291 0.1472 0.5093
C16 C 0.5119(4) 0.2088(5) 0.2023(13)
H14 H 0.5100 0.2107 0.0785
H15 H 0.5390 0.2281 0.2387
H16 H 0.4892 0.2370 0.2518
C17 C 0.3710(4) -0.3245(6) -0.0489(12)
H17 H 0.3626 -0.3733 -0.0759
H18 H 0.3748 -0.3197 0.0737
H19 H 0.3974 -0.3135 -0.1062
C18 C 0.2528(4) -0.1526(7) -0.3102(17)
H20 H 0.2330 -0.1840 -0.3689
H21 H 0.2662 -0.1210 -0.3927
H22 H 0.2377 -0.1240 -0.2264
Br7 Br 0.22726(4) 0.46263(10) 0.24345(19)
Br8 Br 0.15690(4) 0.47487(7) 0.40550(15)
Br9 Br 0.08884(4) 0.48754(7) 0.55692(16)
Br10 Br 0.10984(4) 0.22602(7) -0.12579(16)
N3 N 0.1379(3) 0.4874(5) -0.0531(11)
N4 N 0.0281(2) 0.3995(4) 0.1798(10)
H23 H 0.0477 0.3713 0.1397
O6 O 0.1039(2) 0.3881(4) 0.0051(10)
O7 O 0.0047(2) 0.5113(4) 0.2102(8)
O8 O 0.0479(2) 0.6149(4) 0.1430(9)
H24 H 0.0258 0.5917 0.1593
O9 O 0.2158(2) 0.6938(4) -0.2279(9)
O10 O 0.1604(2) 0.7767(4) -0.1057(9)
C19 C 0.1441(3) 0.5591(6) -0.0621(12)
C20 C 0.1795(3) 0.5875(6) -0.1385(12)
H25 H 0.2008 0.5570 -0.1814
C21 C 0.1837(3) 0.6600(6) -0.1515(12)
C22 C 0.1528(3) 0.7059(6) -0.0826(12)
C23 C 0.1181(3) 0.6786(5) -0.0061(12)
H26 H 0.0973 0.7093 0.0392
C24 C 0.1133(3) 0.6038(5) 0.0050(12)
C25 C 0.0767(3) 0.5728(5) 0.0793(12)
C26 C 0.0710(3) 0.4990(5) 0.0844(11)
C27 C 0.1035(3) 0.4587(6) 0.0169(11)
C28 C 0.1448(3) 0.3646(6) -0.0491(16)
H27 H 0.1612 0.3407 0.0427
C29 C 0.1377(6) 0.3171(9) -0.2051(17)
H28 H 0.1649 0.3062 -0.2599
H29 H 0.1196 0.3417 -0.2884
C30 C 0.1662(4) 0.4320(5) -0.1175(15)
H30 H 0.1681 0.4309 -0.2401
H31 H 0.1940 0.4360 -0.0688
C31 C 0.0330(3) 0.4683(5) 0.1625(11)
C32 C -0.0085(3) 0.3668(5) 0.2628(12)
H32 H -0.0342 0.3934 0.2274
C33 C -0.0041(3) 0.3725(5) 0.4543(12)
H33 H -0.0016 0.4225 0.4866
H34 H 0.0210 0.3466 0.4913
H35 H -0.0289 0.3519 0.5084
C34 C -0.0124(3) 0.2912(6) 0.2010(14)
H36 H -0.0143 0.2908 0.0772
H37 H -0.0377 0.2696 0.2489
H38 H 0.0123 0.2640 0.2369
C35 C 0.1292(3) 0.8259(6) -0.0482(13)
H39 H 0.1383 0.8745 -0.0729
H40 H 0.1253 0.8204 0.0741
H41 H 0.1026 0.8165 -0.1067
C36 C 0.2482(4) 0.6521(7) -0.3072(17)
H42 H 0.2683 0.6838 -0.3626
H43 H 0.2355 0.6205 -0.3918
H44 H 0.2627 0.6237 -0.2212
Br11? Br 0.2634(3) 0.1895(5) 0.4428(14)
Br12? Br 0.2372(5) 0.3089(7) 0.4412(16)
Br13? Br 0.2585(3) 0.2008(6) 0.0752(14)
Br14? Br 0.2442(5) 0.2958(7) 0.0757(15)
Br15? Br 0.213(3) 0.345(12) 0.002(10)
C37? C 0.3663(7) 0.1290(11) -0.128(3)
H45? H 0.3814 0.1246 -0.2381
C38? C 0.3508(11) 0.2061(14) -0.113(7)
H46? H 0.3360 0.2114 -0.0040
H47? H 0.3301 0.2146 -0.2045
H48? H 0.3055 0.0619 -0.0764
H49? H 0.3324 0.0683 -0.2435
C39? C 0.1345(9) 0.3702(13) -0.122(5)
H50? H 0.1199 0.3727 -0.2339
C40? C 0.1484(17) 0.2925(19) -0.098(8)
H51? H 0.1599 0.2877 0.0184
H52? H 0.1716 0.2829 -0.1775
H53? H 0.1681 0.4309 -0.2401
H54? H 0.1940 0.4360 -0.0688
loop_
_geom_bond_atom_site_label_1
_geom_bond_atom_site_label_2
_geom_bond_site_symmetry_1
_geom_bond_site_symmetry_2
Br1 Br2 1_555 1_555
Br3 Br4 1_555 1_555
Br4 Br5 1_555 1_555
Br6 C11 1_555 1_555
N1 C1 1_555 1_555
N2 H1 1_555 1_555
O1 C9 1_555 1_555
O2 C13 1_555 1_555
O3 H2 1_555 1_555
O4 C3 1_555 1_555
O5 C4 1_555 1_555
C1 C2 1_555 1_555
C2 H3 1_555 1_555
C3 C2 1_555 1_555
C4 C3 1_555 1_555
C5 C4 1_555 1_555
H4 C5 1_555 1_555
C6 C1 1_555 1_555
C7 O3 1_555 1_555
C8 C7 1_555 1_555
C9 N1 1_555 1_555
C10 O1 1_555 1_555
H5 C10 1_555 1_555
C11 C10 1_555 1_555
H6 C11 1_555 1_555
H7 C11 1_555 1_555
C12 N1 1_555 1_555
H8 C12 1_555 1_555
H9 C12 1_555 1_555
C13 N2 1_555 1_555
C14 N2 1_555 1_555
H10 C14 1_555 1_555
C15 C14 1_555 1_555
H11 C15 1_555 1_555
H12 C15 1_555 1_555
H13 C15 1_555 1_555
C16 C14 1_555 1_555
H14 C16 1_555 1_555
H15 C16 1_555 1_555
H16 C16 1_555 1_555
C17 O5 1_555 1_555
H17 C17 1_555 1_555
H18 C17 1_555 1_555
H19 C17 1_555 1_555
C18 O4 1_555 1_555
H20 C18 1_555 1_555
H21 C18 1_555 1_555
H22 C18 1_555 1_555
Br7 Br8 1_555 1_555
Br8 Br9 1_555 1_555
Br10 C29 1_555 1_555
N3 C19 1_555 1_555
N4 H23 1_555 1_555
O6 C27 1_555 1_555
O7 C31 1_555 1_555
O8 H24 1_555 1_555
O9 C21 1_555 1_555
O10 C22 1_555 1_555
C19 C20 1_555 1_555
C20 H25 1_555 1_555
C21 C20 1_555 1_555
C22 C21 1_555 1_555
C23 C22 1_555 1_555
H26 C23 1_555 1_555
C24 C19 1_555 1_555
C25 O8 1_555 1_555
C26 C25 1_555 1_555
C27 N3 1_555 1_555
C28 O6 1_555 1_555
H27 C28 1_555 1_555
C29 C28 1_555 1_555
H28 C29 1_555 1_555
H29 C29 1_555 1_555
C30 N3 1_555 1_555
H30 C30 1_555 1_555
H31 C30 1_555 1_555
C31 N4 1_555 1_555
C32 N4 1_555 1_555
H32 C32 1_555 1_555
C33 C32 1_555 1_555
H33 C33 1_555 1_555
H34 C33 1_555 1_555
H35 C33 1_555 1_555
C34 C32 1_555 1_555
H36 C34 1_555 1_555
H37 C34 1_555 1_555
H38 C34 1_555 1_555
C35 O10 1_555 1_555
H39 C35 1_555 1_555
H40 C35 1_555 1_555
H41 C35 1_555 1_555
C36 O9 1_555 1_555
H42 C36 1_555 1_555
H43 C36 1_555 1_555
H44 C36 1_555 1_555
C5 C6 1_555 1_555
C6 C7 1_555 1_555
C8 C9 1_555 1_555
C8 C13 1_555 1_555
C10 C12 1_555 1_555
C23 C24 1_555 1_555
C24 C25 1_555 1_555
C26 C27 1_555 1_555
C26 C31 1_555 1_555
C28 C30 1_555 1_555

#END
