
#######################################################################
#
#                 Cambridge Crystallographic Data Centre
#                                CCDC 
#
#######################################################################
#
# If this CIF has been generated from an entry in the Cambridge 
# Structural Database, then it will include bibliographic, chemical, 
# crystal, experimental, refinement or atomic coordinate data resulting 
# from the CCDC's data processing and validation procedures.
#
#######################################################################

data_AZENUP
_chemical_formula_moiety         'C28 H40 Cl2 Na2 O20 S2'
_chemical_name_systematic        
"bis((\m~2~-2,3,5,6,8,9,11,12-Octahydro-1,4,7,10,13-benzotetraoxathiacyclopentadecin-15-ol 13-oxide)-(perchlorato-O,O'))-di-sodium"
_symmetry_cell_setting           triclinic
_symmetry_space_group_name_H-M   'P -1'
_symmetry_Int_Tables_number      2
_space_group_name_Hall           '-P 1'
loop_
_symmetry_equiv_pos_site_id
_symmetry_equiv_pos_as_xyz
1 x,y,z
2 -x,-y,-z
_cell_length_a                   9.3808(3)
_cell_length_b                   9.9652(3)
_cell_length_c                   11.0984(3)
_cell_angle_alpha                103.947(1)
_cell_angle_beta                 93.594(1)
_cell_angle_gamma                112.389(1)
_cell_volume                     917.107
_exptl_crystal_colour            colorless
_exptl_crystal_description       block
_cell_formula_units_Z            1
_exptl_crystal_recrystallization_method 
'benzene vapor diffusion into MeCN solution'
loop_
_atom_site_label
_atom_site_type_symbol
_atom_site_fract_x
_atom_site_fract_y
_atom_site_fract_z
Na1 Na 0.63113(6) 0.59791(6) 0.75552(5)
Cl1 Cl 0.55217(4) 0.87922(3) 0.82377(3)
O1 O 0.64503(12) 0.84843(11) 0.72708(9)
O2 O 0.48900(13) 0.74639(11) 0.86661(10)
O3 O 0.65085(13) 1.00824(12) 0.92465(10)
O4 O 0.42779(13) 0.90589(12) 0.76730(11)
S1 S 0.71316(4) 0.57554(4) 0.49601(6)
O5 O 0.39007(12) 0.45457(11) 0.62438(10)
O7 O 0.95789(11) 0.75051(11) 0.70942(9)
O8 O 0.83077(12) 0.75812(11) 0.93428(9)
O9 O 0.63511(12) 0.45825(11) 0.90476(9)
O10 O 0.66870(11) 0.35580(10) 0.66218(9)
O11 O 1.09957(13) 0.89099(13) 0.26632(10)
C1 C 0.76047(17) 0.41254(15) 0.48031(13)
C2 C 0.89997(15) 0.71377(14) 0.49231(12)
C3 C 0.93385(16) 0.74481(15) 0.37970(13)
C4 C 1.07191(16) 0.86557(15) 0.37995(13)
C5 C 1.17187(16) 0.95449(15) 0.49328(13)
C6 C 1.13835(15) 0.92120(15) 0.60635(13)
C7 C 1.00223(15) 0.79874(14) 0.60641(12)
C8 C 1.04987(17) 0.84472(17) 0.83111(13)
C9 C 0.98474(17) 0.76386(18) 0.92699(14)
C10 C 0.76755(18) 0.71021(16) 1.03850(13)
C11 C 0.73150(18) 0.54506(16) 1.02466(13)
C12 C 0.6359(2) 0.31130(16) 0.86009(14)
C13 C 0.56980(18) 0.25217(15) 0.72186(14)
C14 C 0.63840(17) 0.29715(15) 0.52845(13)
H1 H 1.176(3) 0.972(3) 0.274(2)
H2 H 0.762(2) 0.3720(19) 0.3931(17)
H3 H 0.858(2) 0.449(2) 0.5282(17)
H4 H 0.857(2) 0.686(2) 0.3038(19)
H5 H 1.261(2) 1.042(2) 0.4906(18)
H6 H 1.210(2) 0.9838(19) 0.6797(16)
H7 H 1.043(2) 0.937(2) 0.8486(17)
H8 H 1.153(2) 0.856(2) 0.8318(18)
H9 H 0.976(2) 0.658(2) 0.9009(17)
H10 H 1.051(2) 0.817(2) 1.0077(18)
H11 H 0.670(2) 0.7277(19) 1.0393(16)
H12 H 0.841(2) 0.7728(19) 1.1189(16)
H13 H 0.833(2) 0.5354(19) 1.0234(16)
H14 H 0.686(2) 0.514(2) 1.0871(19)
H15 H 0.575(2) 0.242(2) 0.9017(18)
H16 H 0.746(2) 0.3201(19) 0.8736(16)
H17 H 0.570(2) 0.153(2) 0.6886(16)
H18 H 0.465(2) 0.2507(19) 0.7063(16)
H19 H 0.534(2) 0.2856(18) 0.4945(16)
H20 H 0.645(2) 0.199(2) 0.5039(17)
Na1A Na 0.36887(6) 0.40209(6) 0.24448(5)
Cl1A Cl 0.44783(4) 0.12078(3) 0.17623(3)
O1A O 0.35497(12) 0.15157(11) 0.27292(9)
O2A O 0.51100(13) 0.25361(11) 0.13339(10)
O3A O 0.34915(13) -0.00824(12) 0.07535(10)
O4A O 0.57221(13) 0.09411(12) 0.23270(11)
S1A S 0.28684(4) 0.42446(4) 0.50399(6)
O5A O 0.60993(12) 0.54543(11) 0.37562(10)
O7A O 0.04211(11) 0.24949(11) 0.29058(9)
O8A O 0.16923(12) 0.24188(11) 0.06572(9)
O9A O 0.36489(12) 0.54175(11) 0.09524(9)
O10A O 0.33130(11) 0.64420(10) 0.33782(9)
O11A O -0.09957(13) 0.10901(13) 0.73368(10)
C1A C 0.23953(17) 0.58746(15) 0.51969(13)
C2A C 0.10003(15) 0.28623(14) 0.50769(12)
C3A C 0.06615(16) 0.25519(15) 0.62030(13)
C4A C -0.07191(16) 0.13443(15) 0.62005(13)
C5A C -0.17187(16) 0.04551(15) 0.50672(13)
C6A C -0.13835(15) 0.07880(15) 0.39365(13)
C7A C -0.00223(15) 0.20126(14) 0.39359(12)
C8A C -0.04987(17) 0.15528(17) 0.16889(13)
C9A C 0.01526(17) 0.23614(18) 0.07301(14)
C10A C 0.23245(18) 0.28979(16) -0.03850(13)
C11A C 0.26850(18) 0.45494(16) -0.02466(13)
C12A C 0.3641(2) 0.68870(16) 0.13991(14)
C13A C 0.43020(18) 0.74783(15) 0.27814(14)
C14A C 0.36160(17) 0.70285(15) 0.47155(13)
H1A H -0.176(3) 0.028(3) 0.726(2)
H2A H 0.238(2) 0.6280(19) 0.6069(17)
H3A H 0.142(2) 0.551(2) 0.4718(17)
H4A H 0.143(2) 0.314(2) 0.6962(19)
H5A H -0.261(2) -0.042(2) 0.5094(18)
H6A H -0.210(2) 0.0162(19) 0.3203(16)
H7A H -0.043(2) 0.063(2) 0.1514(17)
H8A H -0.153(2) 0.144(2) 0.1682(18)
H9A H 0.024(2) 0.342(2) 0.0991(17)
H10A H -0.051(2) 0.183(2) -0.0077(18)
H11A H 0.330(2) 0.2723(19) -0.0393(16)
H12A H 0.159(2) 0.2272(19) -0.1189(16)
H13A H 0.167(2) 0.4646(19) -0.0234(16)
H14A H 0.314(2) 0.486(2) -0.0871(19)
H15A H 0.425(2) 0.758(2) 0.0983(18)
H16A H 0.254(2) 0.6799(19) 0.1264(16)
H17A H 0.430(2) 0.847(2) 0.3114(16)
H18A H 0.535(2) 0.7493(19) 0.2937(16)
H19A H 0.466(2) 0.7144(18) 0.5055(16)
H20A H 0.355(2) 0.801(2) 0.4961(17)
S2? S 0.7259(12) 0.5499(12) 0.4434(16)
O6? O 0.653(2) 0.607(2) 0.5586(19)
loop_
_geom_bond_atom_site_label_1
_geom_bond_atom_site_label_2
_geom_bond_site_symmetry_1
_geom_bond_site_symmetry_2
Na1 O1 1_555 1_555
Cl1 O1 1_555 1_555
O2 Na1 1_555 1_555
O3 Cl1 1_555 1_555
O4 Cl1 1_555 1_555
S1 Na1 1_555 1_555
O5 Na1 1_555 1_555
O7 Na1 1_555 1_555
O8 Na1 1_555 1_555
O9 Na1 1_555 1_555
O10 Na1 1_555 1_555
O11 C4 1_555 1_555
C1 S1 1_555 1_555
C2 S1 1_555 1_555
C3 C2 1_555 1_555
C4 C3 1_555 1_555
C5 C4 1_555 1_555
C6 C5 1_555 1_555
C7 O7 1_555 1_555
C8 O7 1_555 1_555
C9 O8 1_555 1_555
C10 O8 1_555 1_555
C11 O9 1_555 1_555
C12 O9 1_555 1_555
C13 O10 1_555 1_555
C14 O10 1_555 1_555
H1 O11 1_555 1_555
H2 C1 1_555 1_555
H3 C1 1_555 1_555
H4 C3 1_555 1_555
H5 C5 1_555 1_555
H6 C6 1_555 1_555
H7 C8 1_555 1_555
H8 C8 1_555 1_555
H9 C9 1_555 1_555
H10 C9 1_555 1_555
H11 C10 1_555 1_555
H12 C10 1_555 1_555
H13 C11 1_555 1_555
H14 C11 1_555 1_555
H15 C12 1_555 1_555
H16 C12 1_555 1_555
H17 C13 1_555 1_555
H18 C13 1_555 1_555
H19 C14 1_555 1_555
H20 C14 1_555 1_555
Na1A O1A 1_555 1_555
Cl1A O1A 1_555 1_555
O2A Na1A 1_555 1_555
O3A Cl1A 1_555 1_555
O4A Cl1A 1_555 1_555
S1A O5 1_555 1_555
O5A S1 1_555 1_555
O7A Na1A 1_555 1_555
O8A Na1A 1_555 1_555
O9A Na1A 1_555 1_555
O10A Na1A 1_555 1_555
O11A C4A 1_555 1_555
C1A S1A 1_555 1_555
C2A S1A 1_555 1_555
C3A C2A 1_555 1_555
C4A C3A 1_555 1_555
C5A C4A 1_555 1_555
C6A C5A 1_555 1_555
C7A O7A 1_555 1_555
C8A O7A 1_555 1_555
C9A O8A 1_555 1_555
C10A O8A 1_555 1_555
C11A O9A 1_555 1_555
C12A O9A 1_555 1_555
C13A O10A 1_555 1_555
C14A O10A 1_555 1_555
H1A O11A 1_555 1_555
H2A C1A 1_555 1_555
H3A C1A 1_555 1_555
H4A C3A 1_555 1_555
H5A C5A 1_555 1_555
H6A C6A 1_555 1_555
H7A C8A 1_555 1_555
H8A C8A 1_555 1_555
H9A C9A 1_555 1_555
H10A C9A 1_555 1_555
H11A C10A 1_555 1_555
H12A C10A 1_555 1_555
H13A C11A 1_555 1_555
H14A C11A 1_555 1_555
H15A C12A 1_555 1_555
H16A C12A 1_555 1_555
H17A C13A 1_555 1_555
H18A C13A 1_555 1_555
H19A C14A 1_555 1_555
H20A C14A 1_555 1_555
Cl1 O2 1_555 1_555
C1 C14 1_555 1_555
C2 C7 1_555 1_555
C6 C7 1_555 1_555
C8 C9 1_555 1_555
C10 C11 1_555 1_555
C12 C13 1_555 1_555
Na1A S1A 1_555 1_555
Na1A O5A 1_555 1_555
Cl1A O2A 1_555 1_555
C1A C14A 1_555 1_555
C2A C7A 1_555 1_555
C6A C7A 1_555 1_555
C8A C9A 1_555 1_555
C10A C11A 1_555 1_555
C12A C13A 1_555 1_555

#END
