
#######################################################################
#
#                 Cambridge Crystallographic Data Centre
#                                CCDC 
#
#######################################################################
#
# If this CIF has been generated from an entry in the Cambridge 
# Structural Database, then it will include bibliographic, chemical, 
# crystal, experimental, refinement or atomic coordinate data resulting 
# from the CCDC's data processing and validation procedures.
#
#######################################################################

data_AZEPUQ
_chemical_formula_moiety         'C28 H32 N2 O4 P2 S2'
_chemical_name_systematic        
Cyclo(bis(naphthalene-1,7-diyl(diethylamido)thiophosphate))
_symmetry_cell_setting           monoclinic
_symmetry_space_group_name_H-M   'P 21/c'
_symmetry_Int_Tables_number      14
_space_group_name_Hall           '-P 2ybc'
loop_
_symmetry_equiv_pos_site_id
_symmetry_equiv_pos_as_xyz
1 x,y,z
2 x,1/2-y,1/2+z
3 -x,-y,-z
4 -x,1/2+y,1/2-z
_cell_length_a                   8.089(2)
_cell_length_b                   14.357(3)
_cell_length_c                   12.634(3)
_cell_angle_alpha                90
_cell_angle_beta                 104.58(3)
_cell_angle_gamma                90
_cell_volume                     1419.98
_exptl_crystal_colour            colorless
_exptl_crystal_description       prism
_chemical_melting_point          '181-183 deg.C'
_cell_formula_units_Z            2
loop_
_atom_site_label
_atom_site_type_symbol
_atom_site_fract_x
_atom_site_fract_y
_atom_site_fract_z
P1 P 0.57580(8) 0.55001(4) 0.24570(5)
S1 S 0.71439(10) 0.44067(5) 0.26236(6)
O1 O 0.5813(2) 0.61313(11) 0.14077(13)
O2 O 0.3739(2) 0.53489(12) 0.21793(14)
N1 N 0.6073(3) 0.61743(15) 0.35120(17)
C1 C 0.7386(3) 0.64274(17) 0.1246(2)
C2 C 0.8419(4) 0.7013(2) 0.1966(2)
C3 C 0.9998(4) 0.7277(2) 0.1779(2)
C4 C 1.0496(3) 0.6969(2) 0.0897(2)
C5 C 0.0121(3) 0.39578(19) 0.0807(2)
C6 C 0.1164(3) 0.45202(18) 0.1544(2)
C7 C 0.2767(3) 0.47597(16) 0.1383(2)
C8 C 0.3284(3) 0.44520(17) 0.05003(19)
C9 C 0.9418(3) 0.63819(17) 0.0122(2)
C10 C 0.7817(3) 0.61132(15) 0.0286(2)
C11 C 0.5102(4) 0.70487(19) 0.3458(2)
C12 C 0.4011(5) 0.7115(3) 0.4235(3)
C13 C 0.7559(5) 0.6093(3) 0.4446(3)
C14 C 0.7320(8) 0.5547(4) 0.5344(5)
H1 H 0.8053 0.7198 0.2613
H2 H 1.0631 0.7690 0.2275
H3 H 1.1511 0.7160 0.0785
H4 H -0.0793 0.3836 0.0915
H5 H 0.0849 0.4749 0.2173
H6 H 0.4407 0.4602 0.0442
H7 H 0.4456 0.7103 0.2739
H8 H 0.5858 0.7533 0.3578
H9 H 0.3133 0.6622 0.4042
H10 H 0.4647 0.6988 0.4954
H11 H 0.3342 0.7710 0.4141
H12 H 0.7987 0.6750 0.4777
H13 H 0.9028 0.5959 0.4624
H14 H 0.6903 0.4850 0.5001
H15 H 0.6013 0.5863 0.5436
H16 H 0.8175 0.5554 0.6033
C5B C 0.9879(3) 0.60422(19) -0.0807(2)
C6B C 0.8836(3) 0.54798(18) -0.1544(2)
C7B C 0.7233(3) 0.52403(16) -0.1383(2)
O2B O 0.6261(2) 0.46511(12) -0.21793(14)
P1B P 0.42420(8) 0.44999(4) -0.24570(5)
S1B S 0.28561(10) 0.55933(5) -0.26236(6)
O1B O 0.4187(2) 0.38687(11) -0.14077(13)
C1B C 0.2614(3) 0.35726(17) -0.1246(2)
C2B C 0.1581(4) 0.2987(2) -0.1966(2)
C3B C 0.0002(4) 0.2723(2) -0.1779(2)
C4B C -0.0496(3) 0.3031(2) -0.0897(2)
C9B C 0.0582(3) 0.36181(17) -0.0122(2)
C10B C 0.2183(3) 0.38868(15) -0.0286(2)
H3B H -0.1511 0.2840 -0.0785
H2B H -0.0631 0.2310 -0.2275
H1B H 0.1947 0.2802 -0.2613
N1B N 0.3927(3) 0.38257(15) -0.35120(17)
C11B C 0.4898(4) 0.29513(19) -0.3458(2)
C12B C 0.5989(5) 0.2885(3) -0.4235(3)
H9B H 0.6867 0.3378 -0.4042
H10B H 0.5353 0.3012 -0.4954
H11B H 0.6658 0.2290 -0.4141
H7B H 0.5544 0.2897 -0.2739
H8B H 0.4142 0.2467 -0.3578
C13B C 0.2441(5) 0.3907(3) -0.4446(3)
C14B C 0.2680(8) 0.4453(4) -0.5344(5)
H14B H 0.3097 0.5150 -0.5001
H15B H 0.3987 0.4137 -0.5436
H16B H 0.1825 0.4446 -0.6033
H12B H 0.2013 0.3250 -0.4777
H13B H 0.0972 0.4041 -0.4624
C8B C 0.6716(3) 0.55480(17) -0.05003(19)
H6B H 0.5593 0.5398 -0.0442
H5B H 0.9151 0.5251 -0.2173
H4B H 1.0793 0.6164 -0.0915
loop_
_geom_bond_atom_site_label_1
_geom_bond_atom_site_label_2
_geom_bond_site_symmetry_1
_geom_bond_site_symmetry_2
P1 S1 1_555 1_555
O1 P1 1_555 1_555
O2 P1 1_555 1_555
N1 P1 1_555 1_555
C1 O1 1_555 1_555
C2 C1 1_555 1_555
C3 C2 1_555 1_555
C4 C3 1_555 1_555
C5 C6 1_555 1_555
C6 C7 1_555 1_555
C7 O2 1_555 1_555
C8 C7 1_555 1_555
C9 C4 1_555 1_555
C10 C1 1_555 1_555
C11 N1 1_555 1_555
C12 C11 1_555 1_555
C13 N1 1_555 1_555
C14 C13 1_555 1_555
H1 C2 1_555 1_555
H2 C3 1_555 1_555
H3 C4 1_555 1_555
H4 C5 1_555 1_555
H5 C6 1_555 1_555
H6 C8 1_555 1_555
H7 C11 1_555 1_555
H8 C11 1_555 1_555
H9 C12 1_555 1_555
H10 C12 1_555 1_555
H11 C12 1_555 1_555
H12 C13 1_555 1_555
H13 C13 1_555 1_555
H14 C14 1_555 1_555
H15 C14 1_555 1_555
H16 C14 1_555 1_555
C5B C9 1_555 1_555
C6B C5B 1_555 1_555
C7B C6B 1_555 1_555
O2B C7B 1_555 1_555
P1B O2B 1_555 1_555
S1B P1B 1_555 1_555
O1B P1B 1_555 1_555
C1B O1B 1_555 1_555
C2B C1B 1_555 1_555
C3B C2B 1_555 1_555
C4B C3B 1_555 1_555
C9B C5 1_555 1_555
C10B C8 1_555 1_555
H3B C4B 1_555 1_555
H2B C3B 1_555 1_555
H1B C2B 1_555 1_555
N1B P1B 1_555 1_555
C11B N1B 1_555 1_555
C12B C11B 1_555 1_555
H9B C12B 1_555 1_555
H10B C12B 1_555 1_555
H11B C12B 1_555 1_555
H7B C11B 1_555 1_555
H8B C11B 1_555 1_555
C13B N1B 1_555 1_555
C14B C13B 1_555 1_555
H14B C14B 1_555 1_555
H15B C14B 1_555 1_555
H16B C14B 1_555 1_555
H12B C13B 1_555 1_555
H13B C13B 1_555 1_555
C8B C10 1_555 1_555
H6B C8B 1_555 1_555
H5B C6B 1_555 1_555
H4B C5B 1_555 1_555
C9 C10 1_555 1_555
C7B C8B 1_555 1_555
C1B C10B 1_555 1_555
C4B C9B 1_555 1_555
C9B C10B 1_555 1_555

#END
