
#######################################################################
#
#                 Cambridge Crystallographic Data Centre
#                                CCDC 
#
#######################################################################
#
# If this CIF has been generated from an entry in the Cambridge 
# Structural Database, then it will include bibliographic, chemical, 
# crystal, experimental, refinement or atomic coordinate data resulting 
# from the CCDC's data processing and validation procedures.
#
#######################################################################

data_AZEXUA
_chemical_formula_moiety         'C32 H30 O4 S2'
_chemical_name_systematic        
'ethyl 2-(4-(3-(ethoxycarbonyl)-4-phenyl-4,5-dihydrothiophen-2-yl)phenyl)-4-phenyl-4,5-dihydrothiophene-3-carboxylate'
_symmetry_cell_setting           monoclinic
_symmetry_space_group_name_H-M   'P 21/n'
_symmetry_Int_Tables_number      14
_space_group_name_Hall           '-P 2yn'
loop_
_symmetry_equiv_pos_site_id
_symmetry_equiv_pos_as_xyz
1 x,y,z
2 1/2-x,1/2+y,1/2-z
3 -x,-y,-z
4 1/2+x,1/2-y,1/2+z
_cell_length_a                   9.7687(3)
_cell_length_b                   18.1178(6)
_cell_length_c                   16.7748(5)
_cell_angle_alpha                90
_cell_angle_beta                 103.6681(15)
_cell_angle_gamma                90
_cell_volume                     2884.85
_exptl_crystal_colour            colorless
_exptl_crystal_description       rod
_cell_formula_units_Z            4
loop_
_atom_site_label
_atom_site_type_symbol
_atom_site_fract_x
_atom_site_fract_y
_atom_site_fract_z
C1 C 0.6526(4) 0.0880(2) 1.0501(3)
H1 H 0.5623 0.0926 1.0167
C2 C 0.7463(5) 0.0367(2) 1.0321(3)
H2 H 0.7174 0.007 0.986
C3 C 0.8844(5) 0.0282(3) 1.0816(3)
H3 H 0.9447 -0.0083 1.0708
C4 C 0.9249(4) 0.0755(3) 1.1455(3)
H4 H 1.0165 0.0729 1.1777
C5 C 0.8321(4) 0.1283(2) 1.1643(3)
H5 H 0.863 0.1608 1.2078
C6 C 0.6957(4) 0.1321(2) 1.1184(2)
C7 C 0.5955(4) 0.1873(2) 1.1451(2)
H6 H 0.65 0.2294 1.1722
C8 C 0.5157(4) 0.1522(2) 1.2039(2)
H7 H 0.499 0.1886 1.2429
H8 H 0.5707 0.1122 1.2342
C9 C 0.3545(4) 0.1807(2) 1.0653(2)
C10 C 0.4799(3) 0.2147(2) 1.0759(2)
C11 C 0.5137(4) 0.2748(2) 1.0234(2)
C12 C 0.4251(7) 0.3720(4) 0.9308(4)
C13 C 0.375(2) 0.4414(8) 0.9608(14)
C14 C 0.2333(3) 0.18275(19) 0.9946(2)
C15 C 0.0933(4) 0.1795(2) 1.0057(2)
H9 H 0.0794 0.1778 1.0586
C16 C -0.0212(3) 0.1787(2) 0.9406(2)
H10 H -0.1114 0.1773 0.9498
C17 C -0.0036(3) 0.1802(2) 0.8604(2)
C18 C 0.1338(3) 0.1808(2) 0.8495(2)
H11 H 0.1488 0.1795 0.7968
C19 C 0.2478(3) 0.1833(2) 0.9166(2)
H12 H 0.338 0.1854 0.9075
C20 C -0.1256(4) 0.1764(2) 0.7881(2)
C21 C -0.2434(3) 0.2168(2) 0.7685(2)
C22 C -0.2754(4) 0.2832(2) 0.8089(3)
C23 C -0.1752(10) 0.3726(5) 0.9160(6)
C24 C -0.0433(12) 0.4161(8) 0.9333(10)
C25 C -0.3534(4) 0.1886(3) 0.6970(2)
H13 H -0.397 0.2309 0.6641
C26 C -0.2750(4) 0.1428(3) 0.6458(3)
H14 H -0.2466 0.1735 0.6052
H15 H -0.3345 0.1034 0.6178
C27 C -0.4673(4) 0.1440(2) 0.7205(2)
C28 C -0.4456(4) 0.1019(2) 0.7910(3)
H16 H -0.3575 0.1028 0.8273
C29 C -0.5514(5) 0.0580(2) 0.8099(3)
H17 H -0.5344 0.0305 0.858
C30 C -0.6844(5) 0.0564(2) 0.7541(3)
H18 H -0.7542 0.0248 0.7633
C31 C -0.7106(5) 0.1005(3) 0.6874(4)
H19 H -0.8005 0.1023 0.6531
C32 C -0.6034(4) 0.1431(2) 0.6699(3)
H20 H -0.6227 0.1721 0.6229
O1 O 0.6302(3) 0.2880(2) 1.0164(2)
O2 O 0.4025(3) 0.31657(16) 0.98935(19)
O3 O -0.3900(3) 0.3076(2) 0.8033(3)
O4 O -0.1601(3) 0.31678(15) 0.85418(19)
S1 S 0.35067(10) 0.11743(6) 1.14402(6)
S2 S -0.12136(12) 0.10520(8) 0.71737(7)
C33? C 0.2855(11) 0.4033(10) 0.8916(10)
C34? C -0.2005(12) 0.3871(4) 0.8871(8)
C35? C -0.096(2) 0.4357(9) 0.8934(14)
loop_
_geom_bond_atom_site_label_1
_geom_bond_atom_site_label_2
_geom_bond_site_symmetry_1
_geom_bond_site_symmetry_2
C1 H1 1_555 1_555
C2 C1 1_555 1_555
H2 C2 1_555 1_555
C3 C2 1_555 1_555
H3 C3 1_555 1_555
C4 C3 1_555 1_555
H4 C4 1_555 1_555
C5 C4 1_555 1_555
H5 C5 1_555 1_555
C6 C1 1_555 1_555
C7 C6 1_555 1_555
H6 C7 1_555 1_555
C8 C7 1_555 1_555
H7 C8 1_555 1_555
H8 C8 1_555 1_555
C9 C10 1_555 1_555
C10 C7 1_555 1_555
C11 C10 1_555 1_555
C12 C13 1_555 1_555
C14 C9 1_555 1_555
C15 C14 1_555 1_555
H9 C15 1_555 1_555
C16 C15 1_555 1_555
H10 C16 1_555 1_555
C17 C16 1_555 1_555
C18 C17 1_555 1_555
H11 C18 1_555 1_555
C19 C14 1_555 1_555
H12 C19 1_555 1_555
C20 C17 1_555 1_555
C21 C20 1_555 1_555
C22 C21 1_555 1_555
C23 C24 1_555 1_555
C25 C21 1_555 1_555
H13 C25 1_555 1_555
C26 C25 1_555 1_555
H14 C26 1_555 1_555
H15 C26 1_555 1_555
C27 C25 1_555 1_555
C28 C27 1_555 1_555
H16 C28 1_555 1_555
C29 C28 1_555 1_555
H17 C29 1_555 1_555
C30 C29 1_555 1_555
H18 C30 1_555 1_555
C31 C30 1_555 1_555
H19 C31 1_555 1_555
C32 C27 1_555 1_555
H20 C32 1_555 1_555
O1 C11 1_555 1_555
O2 C11 1_555 1_555
O3 C22 1_555 1_555
O4 C22 1_555 1_555
S1 C8 1_555 1_555
S2 C20 1_555 1_555
C5 C6 1_555 1_555
C9 S1 1_555 1_555
C12 O2 1_555 1_555
C18 C19 1_555 1_555
C23 O4 1_555 1_555
C26 S2 1_555 1_555
C31 C32 1_555 1_555

#END
