
#######################################################################
#
#                 Cambridge Crystallographic Data Centre
#                                CCDC 
#
#######################################################################
#
# If this CIF has been generated from an entry in the Cambridge 
# Structural Database, then it will include bibliographic, chemical, 
# crystal, experimental, refinement or atomic coordinate data resulting 
# from the CCDC's data processing and validation procedures.
#
#######################################################################

data_AZEXIO
_chemical_formula_moiety         'C19 H17 Br1 O2 S1'
_chemical_name_systematic        
'ethyl 2-(4-bromophenyl)-4-phenyl-4,5-dihydrothiophene-3-carboxylate'
_symmetry_cell_setting           orthorhombic
_symmetry_space_group_name_H-M   'P b c a'
_symmetry_Int_Tables_number      61
_space_group_name_Hall           '-P 2ac 2ab'
loop_
_symmetry_equiv_pos_site_id
_symmetry_equiv_pos_as_xyz
1 x,y,z
2 1/2-x,-y,1/2+z
3 -x,1/2+y,1/2-z
4 1/2+x,1/2-y,-z
5 -x,-y,-z
6 1/2+x,y,1/2-z
7 x,1/2-y,1/2+z
8 1/2-x,1/2+y,z
_cell_length_a                   14.8765(6)
_cell_length_b                   9.6372(4)
_cell_length_c                   24.3534(9)
_cell_angle_alpha                90
_cell_angle_beta                 90
_cell_angle_gamma                90
_cell_volume                     3491.49
_exptl_crystal_colour            colorless
_exptl_crystal_description       block
_cell_formula_units_Z            8
loop_
_atom_site_label
_atom_site_type_symbol
_atom_site_fract_x
_atom_site_fract_y
_atom_site_fract_z
Br1 Br 0.25125(3) 0.06574(7) 1.22536(2)
C1 C 0.4625(2) 0.2469(3) 1.02093(12)
C2 C 0.44343(19) 0.3188(3) 0.97540(12)
C3 C 0.5199(2) 0.3286(3) 0.93413(13)
H1 H 0.5262 0.4259 0.923
C4 C 0.6067(2) 0.2850(4) 0.96484(14)
H2 H 0.6403 0.3665 0.9761
H3 H 0.6446 0.2294 0.941
C5 C 0.4050(2) 0.2101(3) 1.06886(12)
C6 C 0.4206(3) 0.2734(4) 1.11923(14)
H4 H 0.4635 0.3432 1.1221
C7 C 0.3727(3) 0.2331(4) 1.16515(14)
H5 H 0.3823 0.2768 1.1987
C8 C 0.3110(2) 0.1283(4) 1.16093(13)
C9 C 0.2943(2) 0.0646(4) 1.11180(15)
H6 H 0.2519 -0.006 1.1095
C10 C 0.3412(2) 0.1065(4) 1.06559(13)
H7 H 0.3295 0.0643 1.032
C11 C 0.3561(2) 0.3844(3) 0.96471(13)
C12 C 0.2788(3) 0.5371(4) 0.90471(17)
H8 H 0.2575 0.5933 0.9351
H9 H 0.2323 0.4706 0.8953
C13 C 0.2994(3) 0.6264(5) 0.85673(17)
H10 H 0.3419 0.6964 0.8673
H11 H 0.2452 0.6697 0.844
H12 H 0.3245 0.5707 0.8279
C14 C 0.5050(2) 0.2419(3) 0.88292(12)
C15 C 0.4614(2) 0.1164(3) 0.88400(15)
H13 H 0.4364 0.0851 0.9167
C16 C 0.4540(3) 0.0355(4) 0.83720(17)
H14 H 0.4238 -0.049 0.8386
C17 C 0.4907(3) 0.0796(4) 0.78916(17)
H15 H 0.4853 0.0258 0.7576
C18 C 0.5351(4) 0.2018(5) 0.78743(17)
H16 H 0.5611 0.2313 0.7547
C19 C 0.5422(3) 0.2832(4) 0.83379(15)
H17 H 0.5725 0.3674 0.8318
O1 O 0.28924(17) 0.3718(3) 0.99184(11)
O2 O 0.36041(16) 0.4654(2) 0.91995(9)
S1 S 0.57307(6) 0.18529(9) 1.02443(4)
loop_
_geom_bond_atom_site_label_1
_geom_bond_atom_site_label_2
_geom_bond_site_symmetry_1
_geom_bond_site_symmetry_2
Br1 C8 1_555 1_555
C1 C2 1_555 1_555
C2 C3 1_555 1_555
C3 H1 1_555 1_555
C4 C3 1_555 1_555
H2 C4 1_555 1_555
H3 C4 1_555 1_555
C5 C1 1_555 1_555
C6 C5 1_555 1_555
H4 C6 1_555 1_555
C7 C6 1_555 1_555
H5 C7 1_555 1_555
C8 C7 1_555 1_555
C9 C8 1_555 1_555
H6 C9 1_555 1_555
C10 C5 1_555 1_555
H7 C10 1_555 1_555
C11 C2 1_555 1_555
C12 H8 1_555 1_555
H9 C12 1_555 1_555
C13 C12 1_555 1_555
H10 C13 1_555 1_555
H11 C13 1_555 1_555
H12 C13 1_555 1_555
C14 C3 1_555 1_555
C15 C14 1_555 1_555
H13 C15 1_555 1_555
C16 C15 1_555 1_555
H14 C16 1_555 1_555
C17 C16 1_555 1_555
H15 C17 1_555 1_555
C18 C17 1_555 1_555
H16 C18 1_555 1_555
C19 C14 1_555 1_555
H17 C19 1_555 1_555
O1 C11 1_555 1_555
O2 C11 1_555 1_555
S1 C1 1_555 1_555
C4 S1 1_555 1_555
C9 C10 1_555 1_555
C12 O2 1_555 1_555
C18 C19 1_555 1_555

#END
