
#######################################################################
#
#                 Cambridge Crystallographic Data Centre
#                                CCDC 
#
#######################################################################
#
# If this CIF has been generated from an entry in the Cambridge 
# Structural Database, then it will include bibliographic, chemical, 
# crystal, experimental, refinement or atomic coordinate data resulting 
# from the CCDC's data processing and validation procedures.
#
#######################################################################

data_AZEYUB
_chemical_formula_moiety         'C24 H18 Br1 N1 O3'
_chemical_name_systematic        
(2S,3R)-1'-benzyl-4'-bromo-3-phenyl-3H-spiro[furan-2,3'-indole]-2',5(1'H,4H)-dione
_symmetry_cell_setting           orthorhombic
_symmetry_space_group_name_H-M   'P 21 21 21'
_symmetry_Int_Tables_number      19
_space_group_name_Hall           'P 2ac 2ab'
loop_
_symmetry_equiv_pos_site_id
_symmetry_equiv_pos_as_xyz
1 x,y,z
2 1/2-x,-y,1/2+z
3 -x,1/2+y,1/2-z
4 1/2+x,1/2-y,-z
_cell_length_a                   8.8078(18)
_cell_length_b                   9.5713(19)
_cell_length_c                   23.675(5)
_cell_angle_alpha                90
_cell_angle_beta                 90
_cell_angle_gamma                90
_cell_volume                     1995.85
_exptl_crystal_colour            colorless
_exptl_crystal_description       block
_cell_formula_units_Z            4
loop_
_atom_site_label
_atom_site_type_symbol
_atom_site_fract_x
_atom_site_fract_y
_atom_site_fract_z
Br1 Br 0.66519(4) 0.92897(3) 0.20914(2)
O1 O 0.7651(2) 1.5366(2) 0.21573(10)
O2 O 0.7383(2) 1.2607(2) 0.26708(9)
O3 O 0.9199(3) 1.2660(3) 0.33226(10)
N1 N 0.5606(3) 1.4481(2) 0.16649(10)
C1 C 0.5433(3) 1.0749(3) 0.17902(12)
C2 C 0.4051(4) 1.0403(3) 0.15417(13)
H1 H 0.3738 0.9476 0.1526
C3 C 0.3149(4) 1.1447(3) 0.13190(13)
H2 H 0.2222 1.1211 0.1157
C4 C 0.3591(3) 1.2845(3) 0.13311(13)
H3 H 0.2987 1.3542 0.1175
C5 C 0.4962(3) 1.3148(3) 0.15843(12)
C6 C 0.5889(3) 1.2123(3) 0.18211(12)
C7 C 0.7267(3) 1.2830(3) 0.20693(13)
C8 C 0.6906(3) 1.4401(3) 0.19764(10)
C9 C 0.8842(3) 1.2420(3) 0.18320(12)
H4 H 0.8857 1.1399 0.1803
C10 C 0.9881(4) 1.2814(4) 0.23235(13)
H5 H 1.0734 1.2177 0.2350
H6 H 1.0261 1.3760 0.2281
C11 C 0.8880(4) 1.2695(4) 0.28291(14)
C12 C 0.9183(3) 1.2986(3) 0.12480(13)
C13 C 0.8801(4) 1.2170(4) 0.07843(14)
H7 H 0.8342 1.1306 0.0839
C14 C 0.9099(5) 1.2633(5) 0.02393(16)
H8 H 0.8841 1.2077 -0.0068
C15 C 0.9772(5) 1.3906(5) 0.01525(17)
H9 H 0.9986 1.4205 -0.0213
C16 C 1.0129(4) 1.4744(5) 0.06070(18)
H10 H 1.0567 1.5615 0.0547
C17 C 0.9839(3) 1.4290(4) 0.11573(15)
H11 H 1.0083 1.4859 0.1463
C18 C 0.4918(4) 1.5779(3) 0.14748(12)
H12 H 0.5473 1.6559 0.1635
H13 H 0.3883 1.5825 0.1613
C19 C 0.4906(3) 1.5918(3) 0.08380(13)
C20 C 0.6039(4) 1.5333(4) 0.05102(14)
H14 H 0.6816 1.4827 0.0680
C21 C 0.6018(4) 1.5502(4) -0.00745(14)
H15 H 0.6780 1.5100 -0.0293
C22 C 0.4887(5) 1.6251(4) -0.03313(15)
H16 H 0.4887 1.6370 -0.0721
C23 C 0.3748(5) 1.6828(4) -0.00071(16)
H17 H 0.2968 1.7326 -0.0179
C24 C 0.3761(4) 1.6669(4) 0.05761(15)
H18 H 0.2995 1.7070 0.0792
loop_
_geom_bond_atom_site_label_1
_geom_bond_atom_site_label_2
_geom_bond_site_symmetry_1
_geom_bond_site_symmetry_2
Br1 C1 1_555 1_555
O1 C8 1_555 1_555
O2 C7 1_555 1_555
O3 C11 1_555 1_555
N1 C5 1_555 1_555
C1 C2 1_555 1_555
C2 H1 1_555 1_555
C3 C2 1_555 1_555
H2 C3 1_555 1_555
C4 C3 1_555 1_555
H3 C4 1_555 1_555
C5 C4 1_555 1_555
C6 C1 1_555 1_555
C7 C6 1_555 1_555
C8 N1 1_555 1_555
C9 C7 1_555 1_555
H4 C9 1_555 1_555
C10 C9 1_555 1_555
H5 C10 1_555 1_555
H6 C10 1_555 1_555
C11 O2 1_555 1_555
C12 C9 1_555 1_555
C13 C12 1_555 1_555
H7 C13 1_555 1_555
C14 C13 1_555 1_555
H8 C14 1_555 1_555
C15 C14 1_555 1_555
H9 C15 1_555 1_555
C16 C15 1_555 1_555
H10 C16 1_555 1_555
C17 C12 1_555 1_555
H11 C17 1_555 1_555
C18 N1 1_555 1_555
H12 C18 1_555 1_555
H13 C18 1_555 1_555
C19 C18 1_555 1_555
C20 C19 1_555 1_555
H14 C20 1_555 1_555
C21 C20 1_555 1_555
H15 C21 1_555 1_555
C22 C21 1_555 1_555
H16 C22 1_555 1_555
C23 C22 1_555 1_555
H17 C23 1_555 1_555
C24 C19 1_555 1_555
H18 C24 1_555 1_555
C5 C6 1_555 1_555
C7 C8 1_555 1_555
C10 C11 1_555 1_555
C16 C17 1_555 1_555
C23 C24 1_555 1_555

#END
