
#######################################################################
#
#                 Cambridge Crystallographic Data Centre
#                                CCDC 
#
#######################################################################
#
# If this CIF has been generated from an entry in the Cambridge 
# Structural Database, then it will include bibliographic, chemical, 
# crystal, experimental, refinement or atomic coordinate data resulting 
# from the CCDC's data processing and validation procedures.
#
#######################################################################

data_AZIGAR
_chemical_formula_moiety         'C8 H13 N1 O6'
_chemical_name_systematic        
'(+-)-2,5-Dimethyl-5-trans-nitro-1,3-dioxane-2-carboxylic acid methyl ester'
_symmetry_cell_setting           monoclinic
_symmetry_space_group_name_H-M   'P 21/c'
_symmetry_Int_Tables_number      14
_space_group_name_Hall           '-P 2ybc'
loop_
_symmetry_equiv_pos_site_id
_symmetry_equiv_pos_as_xyz
1 x,y,z
2 x,1/2-y,1/2+z
3 -x,-y,-z
4 -x,1/2+y,1/2-z
_cell_length_a                   8.3538(9)
_cell_length_b                   10.6290(11)
_cell_length_c                   11.7773(12)
_cell_angle_alpha                90
_cell_angle_beta                 91.720(2)
_cell_angle_gamma                90
_cell_volume                     1045.27
_exptl_crystal_colour            colorless
_exptl_crystal_description       prism
_chemical_melting_point          '353-354 K'
_cell_formula_units_Z            4
_exptl_crystal_recrystallization_method 'hexanes/ethyl acetate'
loop_
_atom_site_label
_atom_site_type_symbol
_atom_site_fract_x
_atom_site_fract_y
_atom_site_fract_z
O1 O 0.23857(11) 0.19319(8) 0.15686(8)
O2 O 0.42433(13) 0.38868(10) 0.21253(10)
O3 O 0.12194(12) 0.30743(10) 0.00822(9)
C1 C 0.11343(17) 0.22406(15) 0.23072(12)
H1 H 0.1439 0.2978 0.2749
H2 H 0.0980 0.1550 0.2831
C2 C -0.00966(18) 0.34428(16) 0.07455(14)
H3 H -0.1045 0.3528 0.0256
H4 H 0.0128 0.4256 0.1088
C3 C -0.04152(17) 0.24996(13) 0.16655(12)
O4 O -0.18695(17) 0.13543(14) 0.02634(12)
O5 O 0.30461(16) 0.50841(12) 0.08093(14)
N1 N -0.10325(16) 0.12782(14) 0.11135(13)
C4 C 0.26331(18) 0.28351(15) 0.07223(13)
C5 C 0.32961(19) 0.40755(16) 0.12206(15)
O6 O -0.07561(17) 0.02987(13) 0.15921(13)
C6 C -0.17375(19) 0.29194(18) 0.24362(16)
H5 H -0.1421 0.3681 0.2819
H6 H -0.1928 0.2275 0.2987
H7 H -0.2700 0.3067 0.1990
C7 C 0.3829(2) 0.22835(19) -0.00689(15)
H8 H 0.3426 0.1502 -0.0370
H9 H 0.4823 0.2137 0.0340
H10 H 0.4002 0.2860 -0.0681
C8 C 0.5005(2) 0.49905(17) 0.26261(19)
H11 H 0.5687 0.5373 0.2083
H12 H 0.5633 0.4747 0.3286
H13 H 0.4199 0.5581 0.2841
loop_
_geom_bond_atom_site_label_1
_geom_bond_atom_site_label_2
_geom_bond_site_symmetry_1
_geom_bond_site_symmetry_2
O1 C1 1_555 1_555
O2 C5 1_555 1_555
O3 C2 1_555 1_555
C1 H1 1_555 1_555
H2 C1 1_555 1_555
C2 H3 1_555 1_555
H4 C2 1_555 1_555
C3 C1 1_555 1_555
O4 N1 1_555 1_555
O5 C5 1_555 1_555
N1 C3 1_555 1_555
C4 O1 1_555 1_555
C5 C4 1_555 1_555
O6 N1 1_555 1_555
C6 C3 1_555 1_555
H5 C6 1_555 1_555
H6 C6 1_555 1_555
H7 C6 1_555 1_555
C7 C4 1_555 1_555
H8 C7 1_555 1_555
H9 C7 1_555 1_555
H10 C7 1_555 1_555
C8 O2 1_555 1_555
H11 C8 1_555 1_555
H12 C8 1_555 1_555
H13 C8 1_555 1_555
O3 C4 1_555 1_555
C2 C3 1_555 1_555

#END
