
#######################################################################
#
#                 Cambridge Crystallographic Data Centre
#                                CCDC 
#
#######################################################################
#
# If this CIF has been generated from an entry in the Cambridge 
# Structural Database, then it will include bibliographic, chemical, 
# crystal, experimental, refinement or atomic coordinate data resulting 
# from the CCDC's data processing and validation procedures.
#
#######################################################################

data_AZIJUQ
_chemical_formula_moiety         'C17 H28 N2 O3'
_chemical_name_systematic        
"methyl (2-ethyl-2-methylhexahydro-5H,9H-[1,3]oxazolo[2',3':2,3]pyrimido[1,2-a]azepin-3(2H)-ylidene)acetate"
_symmetry_cell_setting           triclinic
_symmetry_space_group_name_H-M   'P -1'
_symmetry_Int_Tables_number      2
_space_group_name_Hall           '-P 1'
loop_
_symmetry_equiv_pos_site_id
_symmetry_equiv_pos_as_xyz
1 x,y,z
2 -x,-y,-z
_cell_length_a                   8.6493(11)
_cell_length_b                   9.4955(11)
_cell_length_c                   10.5130(12)
_cell_angle_alpha                94.254(4)
_cell_angle_beta                 97.615(4)
_cell_angle_gamma                105.340(4)
_cell_volume                     819.915
_exptl_crystal_colour            white
_exptl_crystal_description       prism
_cell_formula_units_Z            2
loop_
_atom_site_label
_atom_site_type_symbol
_atom_site_fract_x
_atom_site_fract_y
_atom_site_fract_z
O1 O 1.20095(13) -0.20717(11) 0.87474(10)
O2 O 1.35904(13) -0.00175(12) 0.81599(11)
O3 O 1.08189(11) 0.33852(10) 0.73379(9)
N1 N 0.92094(13) 0.14998(12) 0.81408(10)
N2 N 0.83678(13) 0.20485(12) 0.60484(10)
C1 C 1.3406(2) -0.26257(18) 0.88597(16)
H1 H 1.3773 -0.2668 0.8039
H2 H 1.3124 -0.3594 0.9127
H3 H 1.4257 -0.1987 0.9488
C2 C 1.22739(17) -0.06838(14) 0.83987(13)
C3 C 1.07976(16) -0.02280(15) 0.83752(13)
H4 H 0.9908 -0.0893 0.8607
C4 C 1.05845(15) 0.10773(14) 0.80475(12)
C5 C 0.91679(15) 0.27124(14) 0.73558(12)
C6 C 0.84784(17) 0.38488(15) 0.80083(13)
H5 H 0.9132 0.4219 0.8849
H6 H 0.7387 0.3364 0.8147
C7 C 0.84176(18) 0.51532(15) 0.72502(14)
H7 H 0.9425 0.5476 0.6908
H8 H 0.8338 0.5960 0.7837
C8 C 0.69903(19) 0.48006(18) 0.61290(15)
H9 H 0.6804 0.5719 0.5899
H10 H 0.6024 0.4246 0.6434
C9 C 0.76374(16) 0.04557(15) 0.81884(13)
H11 H 0.6945 0.0957 0.8579
H12 H 0.7791 -0.0313 0.8708
C10 C 0.68423(17) -0.02133(15) 0.68161(14)
H13 H 0.7471 -0.0810 0.6461
H14 H 0.5757 -0.0838 0.6823
C11 C 0.67601(16) 0.10243(15) 0.59869(13)
H15 H 0.6331 0.0612 0.5098
H16 H 0.6030 0.1548 0.6288
C12 C 0.84608(17) 0.30624(15) 0.50574(13)
H17 H 0.8392 0.2501 0.4233
H18 H 0.9527 0.3765 0.5238
C13 C 0.71983(18) 0.39299(16) 0.48997(14)
H19 H 0.6155 0.3246 0.4541
H20 H 0.7487 0.4614 0.4272
C14 C 1.17435(15) 0.23162(14) 0.75030(13)
C15 C 1.21382(17) 0.18125(16) 0.61905(13)
H21 H 1.1147 0.1390 0.5600
H22 H 1.2727 0.1092 0.6299
H23 H 1.2787 0.2642 0.5853
C16 C 1.32747(16) 0.31246(15) 0.84524(13)
H24 H 1.4032 0.2531 0.8486
H25 H 1.3786 0.4041 0.8137
C17 C 1.29385(17) 0.34566(16) 0.98137(13)
H26 H 1.2073 0.3918 0.9775
H27 H 1.3899 0.4104 1.0327
H28 H 1.2631 0.2557 1.0197
loop_
_geom_bond_atom_site_label_1
_geom_bond_atom_site_label_2
_geom_bond_site_symmetry_1
_geom_bond_site_symmetry_2
O1 C1 1_555 1_555
O2 C2 1_555 1_555
O3 C5 1_555 1_555
N1 C4 1_555 1_555
N2 C5 1_555 1_555
C1 H1 1_555 1_555
H2 C1 1_555 1_555
H3 C1 1_555 1_555
C2 O1 1_555 1_555
C3 C2 1_555 1_555
H4 C3 1_555 1_555
C4 C3 1_555 1_555
C5 N1 1_555 1_555
C6 C5 1_555 1_555
H5 C6 1_555 1_555
H6 C6 1_555 1_555
C7 C6 1_555 1_555
H7 C7 1_555 1_555
H8 C7 1_555 1_555
C8 C7 1_555 1_555
H9 C8 1_555 1_555
H10 C8 1_555 1_555
C9 N1 1_555 1_555
H11 C9 1_555 1_555
H12 C9 1_555 1_555
C10 C9 1_555 1_555
H13 C10 1_555 1_555
H14 C10 1_555 1_555
C11 N2 1_555 1_555
H15 C11 1_555 1_555
H16 C11 1_555 1_555
C12 N2 1_555 1_555
H17 C12 1_555 1_555
H18 C12 1_555 1_555
C13 C8 1_555 1_555
H19 C13 1_555 1_555
H20 C13 1_555 1_555
C14 O3 1_555 1_555
C15 C14 1_555 1_555
H21 C15 1_555 1_555
H22 C15 1_555 1_555
H23 C15 1_555 1_555
C16 C14 1_555 1_555
H24 C16 1_555 1_555
H25 C16 1_555 1_555
C17 C16 1_555 1_555
H26 C17 1_555 1_555
H27 C17 1_555 1_555
H28 C17 1_555 1_555
C4 C14 1_555 1_555
C10 C11 1_555 1_555
C12 C13 1_555 1_555

#END
