
#######################################################################
#
#                 Cambridge Crystallographic Data Centre
#                                CCDC 
#
#######################################################################
#
# If this CIF has been generated from an entry in the Cambridge 
# Structural Database, then it will include bibliographic, chemical, 
# crystal, experimental, refinement or atomic coordinate data resulting 
# from the CCDC's data processing and validation procedures.
#
#######################################################################

data_AZILOM
_chemical_formula_moiety         'C12 H9 N3 O4'
_chemical_name_systematic        N'-(2-nitrobenzylidene)-2-furohydrazide
_symmetry_cell_setting           monoclinic
_symmetry_space_group_name_H-M   'P 21/c'
_symmetry_Int_Tables_number      14
_space_group_name_Hall           '-P 2ybc'
loop_
_symmetry_equiv_pos_site_id
_symmetry_equiv_pos_as_xyz
1 x,y,z
2 -x,1/2+y,1/2-z
3 -x,-y,-z
4 x,1/2-y,1/2+z
_cell_length_a                   17.3618(9)
_cell_length_b                   9.1506(4)
_cell_length_c                   15.5801(7)
_cell_angle_alpha                90
_cell_angle_beta                 104.532(5)
_cell_angle_gamma                90
_cell_volume                     2396.04
_exptl_crystal_colour            yellow
_exptl_crystal_description       block
_cell_formula_units_Z            8
loop_
_atom_site_label
_atom_site_type_symbol
_atom_site_fract_x
_atom_site_fract_y
_atom_site_fract_z
O1 O 0.07642(14) 0.6020(3) 0.27017(15)
O2 O 0.10014(13) 0.4091(2) 0.08119(14)
O3 O 0.43296(19) 0.1228(4) 0.47437(19)
O4 O 0.41732(18) 0.3485(3) 0.43150(18)
N1 N 0.18352(15) 0.4365(3) 0.21838(17)
H1 H 0.1907 0.4751 0.2701
N2 N 0.24289(14) 0.3515(3) 0.19838(16)
N3 N 0.42318(17) 0.2173(4) 0.41756(19)
C1 C -0.01895(19) 0.5824(3) 0.1471(2)
H2 H -0.0469 0.5567 0.0900
C2 C -0.0475(2) 0.6679(4) 0.2081(2)
H3 H -0.0978 0.7094 0.1991
C3 C 0.0118(2) 0.6773(4) 0.2808(2)
H4 H 0.0095 0.7281 0.3318
C4 C 0.05543(18) 0.5456(3) 0.18694(19)
C5 C 0.11517(18) 0.4583(3) 0.1573(2)
C6 C 0.30159(18) 0.3276(3) 0.2638(2)
H5 H 0.3029 0.3696 0.3185
C7 C 0.36715(18) 0.2346(3) 0.25394(19)
C8 C 0.3752(2) 0.1945(4) 0.1704(2)
H6 H 0.3408 0.2344 0.1203
C9 C 0.4324(2) 0.0978(4) 0.1601(3)
H7 H 0.4378 0.0758 0.1036
C10 C 0.4818(2) 0.0333(4) 0.2330(3)
H8 H 0.5190 -0.0353 0.2255
C11 C 0.4766(2) 0.0693(4) 0.3170(3)
H9 H 0.5096 0.0249 0.3664
C12 C 0.42167(19) 0.1721(3) 0.3265(2)
O5 O 0.8646(2) 0.3647(3) 0.50945(19)
O6 O 0.78170(15) 0.5392(2) 0.59432(15)
O7 O 0.6812(3) 1.1293(6) 0.4129(3)
O8 O 0.6182(4) 1.3063(5) 0.4333(3)
N4 N 0.80462(15) 0.7378(3) 0.51706(16)
H10 H 0.8235 0.7710 0.4749
N5 N 0.76967(14) 0.8306(3) 0.56567(16)
N6 N 0.6622(3) 1.2128(4) 0.4621(3)
C13 C 0.9067(3) 0.3058(5) 0.4552(3)
H11 H 0.9249 0.2098 0.4583
C14 C 0.9181(3) 0.4026(5) 0.3982(3)
H12 H 0.9445 0.3884 0.3538
C15 C 0.8823(3) 0.5334(4) 0.4170(3)
H13 H 0.8810 0.6220 0.3875
C16 C 0.8510(2) 0.5061(3) 0.4845(2)
C17 C 0.80883(18) 0.5936(3) 0.53661(19)
C18 C 0.76489(18) 0.9629(3) 0.5417(2)
H14 H 0.7822 0.9924 0.4925
C19 C 0.73131(19) 1.0697(3) 0.5933(2)
C20 C 0.7468(2) 1.0531(4) 0.6845(2)
H15 H 0.7796 0.9771 0.7116
C21 C 0.7153(3) 1.1457(4) 0.7362(3)
H16 H 0.7258 1.1303 0.7971
C22 C 0.6686(3) 1.2601(5) 0.6984(3)
H17 H 0.6479 1.3236 0.7336
C23 C 0.6521(3) 1.2816(4) 0.6087(3)
H18 H 0.6201 1.3593 0.5826
C24 C 0.6833(2) 1.1870(4) 0.5574(3)
loop_
_geom_bond_atom_site_label_1
_geom_bond_atom_site_label_2
_geom_bond_site_symmetry_1
_geom_bond_site_symmetry_2
O1 C3 1_555 1_555
O2 C5 1_555 1_555
O3 N3 1_555 1_555
O4 N3 1_555 1_555
N1 H1 1_555 1_555
N2 N1 1_555 1_555
N3 C12 1_555 1_555
C1 H2 1_555 1_555
C2 C1 1_555 1_555
H3 C2 1_555 1_555
C3 C2 1_555 1_555
H4 C3 1_555 1_555
C4 O1 1_555 1_555
C5 N1 1_555 1_555
C6 N2 1_555 1_555
H5 C6 1_555 1_555
C7 C6 1_555 1_555
C8 C7 1_555 1_555
H6 C8 1_555 1_555
C9 C8 1_555 1_555
H7 C9 1_555 1_555
C10 C9 1_555 1_555
H8 C10 1_555 1_555
C11 C10 1_555 1_555
H9 C11 1_555 1_555
C12 C7 1_555 1_555
O5 C13 1_555 1_555
O6 C17 1_555 1_555
O7 N6 1_555 1_555
O8 N6 1_555 1_555
N4 H10 1_555 1_555
N5 N4 1_555 1_555
N6 C24 1_555 1_555
C13 H11 1_555 1_555
C14 C13 1_555 1_555
H12 C14 1_555 1_555
C15 C14 1_555 1_555
H13 C15 1_555 1_555
C16 O5 1_555 1_555
C17 N4 1_555 1_555
C18 N5 1_555 1_555
H14 C18 1_555 1_555
C19 C18 1_555 1_555
C20 C19 1_555 1_555
H15 C20 1_555 1_555
C21 C20 1_555 1_555
H16 C21 1_555 1_555
C22 C21 1_555 1_555
H17 C22 1_555 1_555
C23 C22 1_555 1_555
H18 C23 1_555 1_555
C24 C19 1_555 1_555
C1 C4 1_555 1_555
C4 C5 1_555 1_555
C11 C12 1_555 1_555
C15 C16 1_555 1_555
C16 C17 1_555 1_555
C23 C24 1_555 1_555

#END
