
#######################################################################
#
#                 Cambridge Crystallographic Data Centre
#                                CCDC 
#
#######################################################################
#
# If this CIF has been generated from an entry in the Cambridge 
# Structural Database, then it will include bibliographic, chemical, 
# crystal, experimental, refinement or atomic coordinate data resulting 
# from the CCDC's data processing and validation procedures.
#
#######################################################################

data_AZIQUX
_chemical_name_common            'meso-asaronan A'
_chemical_formula_moiety         'C24 H34 O9'
_chemical_name_systematic        
1,1'-oxybis(1-(2,4,5-trimethoxyphenyl)propan-2-ol)
_symmetry_cell_setting           monoclinic
_symmetry_space_group_name_H-M   'P 21/c'
_symmetry_Int_Tables_number      14
_space_group_name_Hall           '-P 2ybc'
loop_
_symmetry_equiv_pos_site_id
_symmetry_equiv_pos_as_xyz
1 x,y,z
2 -x,1/2+y,1/2-z
3 -x,-y,-z
4 x,1/2-y,1/2+z
_cell_length_a                   18.377(4)
_cell_length_b                   7.9014(16)
_cell_length_c                   17.239(3)
_cell_angle_alpha                90
_cell_angle_beta                 99.43(3)
_cell_angle_gamma                90
_cell_volume                     2469.35
_exptl_crystal_colour            colorless
_exptl_crystal_description       block
_cell_formula_units_Z            4
loop_
_atom_site_label
_atom_site_type_symbol
_atom_site_fract_x
_atom_site_fract_y
_atom_site_fract_z
O1 O -0.32381(8) 0.83226(19) -0.28358(8)
O2 O -0.42561(9) 0.6005(2) -0.27198(9)
H1 H -0.4654 0.5518 -0.2830
O3 O -0.43998(8) 0.9345(2) -0.21510(10)
H2 H -0.4324 0.8379 -0.2292
O4 O -0.42222(9) 0.8451(2) -0.50956(9)
O5 O -0.08560(9) 1.1668(2) -0.12283(10)
O6 O -0.17840(9) 0.8313(2) -0.58766(9)
O7 O -0.29482(9) 1.2043(2) -0.39242(9)
O8 O -0.12072(9) 0.7378(2) -0.44022(10)
O9 O -0.05433(10) 1.3385(3) -0.24020(11)
C1 C -0.38570(13) 0.5862(3) -0.33652(13)
H3 H -0.3410 0.5195 -0.3194
C2 C -0.03185(18) 1.4237(5) -0.3042(2)
H4 H -0.0296 1.3449 -0.3461
H5 H 0.0160 1.4727 -0.2878
H6 H -0.0666 1.5115 -0.3222
C3 C -0.07696(17) 0.8873(5) -0.4245(2)
H7 H -0.0832 0.9574 -0.4706
H8 H -0.0260 0.8565 -0.4105
H9 H -0.0924 0.9485 -0.3819
C4 C -0.37135(12) 1.0253(3) -0.19953(14)
H10 H -0.3400 0.9744 -0.1541
C5 C -0.36321(12) 0.7650(3) -0.35557(12)
H11 H -0.4080 0.8325 -0.3712
C6 C -0.25936(12) 1.1000(3) -0.26421(13)
C7 C -0.34741(13) 0.8204(3) -0.49695(13)
C8 C -0.31646(13) 0.7758(3) -0.41987(13)
C9 C -0.22735(13) 0.8139(3) -0.53594(13)
C10 C -0.33311(12) 1.0107(3) -0.27107(13)
H12 H -0.3660 1.0568 -0.3167
C11 C -0.13910(13) 1.1671(3) -0.18880(14)
C12 C -0.20661(12) 1.0874(3) -0.19570(14)
H13 H -0.2175 1.0235 -0.1538
C13 C -0.24158(13) 1.1944(3) -0.32643(14)
C14 C -0.45621(14) 0.9115(3) -0.58316(13)
H14 H -0.4525 0.8305 -0.6239
H15 H -0.4318 1.0143 -0.5938
H16 H -0.5072 0.9346 -0.5816
C15 C -0.12240(13) 1.2615(3) -0.25205(15)
C16 C -0.24080(13) 0.7500(3) -0.40320(13)
H17 H -0.2197 0.7198 -0.3523
C17 C -0.19602(13) 0.7675(3) -0.45913(13)
C18 C -0.30299(13) 0.8395(3) -0.55487(13)
H18 H -0.3240 0.8691 -0.6059
C19 C -0.43103(14) 0.4991(3) -0.40654(14)
H19 H -0.4437 0.3871 -0.3918
H20 H -0.4028 0.4923 -0.4486
H21 H -0.4753 0.5627 -0.4235
C20 C -0.17280(14) 1.2743(3) -0.32069(14)
H22 H -0.1611 1.3357 -0.3630
C21 C -0.20444(15) 0.9091(4) -0.66182(14)
H23 H -0.1642 0.9214 -0.6906
H24 H -0.2245 1.0185 -0.6535
H25 H -0.2421 0.8395 -0.6912
C22 C -0.38874(14) 1.2048(3) -0.18015(16)
H26 H -0.4173 1.2571 -0.2254
H27 H -0.3436 1.2666 -0.1652
H28 H -0.4164 1.2054 -0.1375
C23 C -0.27259(15) 1.2653(4) -0.46290(14)
H29 H -0.3124 1.2517 -0.5060
H30 H -0.2305 1.2022 -0.4732
H31 H -0.2599 1.3829 -0.4569
C24 C -0.09947(15) 1.0684(4) -0.05771(15)
H32 H -0.1062 0.9521 -0.0733
H33 H -0.1432 1.1091 -0.0402
H34 H -0.0584 1.0777 -0.0157
loop_
_geom_bond_atom_site_label_1
_geom_bond_atom_site_label_2
_geom_bond_site_symmetry_1
_geom_bond_site_symmetry_2
O1 C5 1_555 1_555
O2 H1 1_555 1_555
O3 H2 1_555 1_555
O4 C7 1_555 1_555
O5 C11 1_555 1_555
O6 C9 1_555 1_555
O7 C13 1_555 1_555
O8 C3 1_555 1_555
O9 C2 1_555 1_555
C1 O2 1_555 1_555
H3 C1 1_555 1_555
C2 H4 1_555 1_555
H5 C2 1_555 1_555
H6 C2 1_555 1_555
C3 H7 1_555 1_555
H8 C3 1_555 1_555
H9 C3 1_555 1_555
C4 O3 1_555 1_555
H10 C4 1_555 1_555
C5 C1 1_555 1_555
H11 C5 1_555 1_555
C6 C10 1_555 1_555
C7 C8 1_555 1_555
C8 C5 1_555 1_555
C9 C17 1_555 1_555
C10 O1 1_555 1_555
H12 C10 1_555 1_555
C11 C12 1_555 1_555
C12 C6 1_555 1_555
H13 C12 1_555 1_555
C13 C6 1_555 1_555
C14 O4 1_555 1_555
H14 C14 1_555 1_555
H15 C14 1_555 1_555
H16 C14 1_555 1_555
C15 O9 1_555 1_555
C16 C8 1_555 1_555
H17 C16 1_555 1_555
C17 O8 1_555 1_555
C18 C7 1_555 1_555
H18 C18 1_555 1_555
C19 C1 1_555 1_555
H19 C19 1_555 1_555
H20 C19 1_555 1_555
H21 C19 1_555 1_555
C20 C13 1_555 1_555
H22 C20 1_555 1_555
C21 O6 1_555 1_555
H23 C21 1_555 1_555
H24 C21 1_555 1_555
H25 C21 1_555 1_555
C22 C4 1_555 1_555
H26 C22 1_555 1_555
H27 C22 1_555 1_555
H28 C22 1_555 1_555
C23 O7 1_555 1_555
H29 C23 1_555 1_555
H30 C23 1_555 1_555
H31 C23 1_555 1_555
C24 O5 1_555 1_555
H32 C24 1_555 1_555
H33 C24 1_555 1_555
H34 C24 1_555 1_555
C4 C10 1_555 1_555
C9 C18 1_555 1_555
C11 C15 1_555 1_555
C15 C20 1_555 1_555
C16 C17 1_555 1_555

#END
