
#######################################################################
#
#                 Cambridge Crystallographic Data Centre
#                                CCDC 
#
#######################################################################
#
# If this CIF has been generated from an entry in the Cambridge 
# Structural Database, then it will include bibliographic, chemical, 
# crystal, experimental, refinement or atomic coordinate data resulting 
# from the CCDC's data processing and validation procedures.
#
#######################################################################

data_AZITEI
_chemical_formula_moiety         'C20 H16 N2 O2 S1'
_chemical_name_systematic        
4-Methoxyphenyl-(6-phenylthieno(2,3-d)pyrimidin-4-yl)methanol
_symmetry_cell_setting           orthorhombic
_symmetry_space_group_name_H-M   'P 21 21 21'
_symmetry_Int_Tables_number      19
_space_group_name_Hall           'P 2ac 2ab'
loop_
_symmetry_equiv_pos_site_id
_symmetry_equiv_pos_as_xyz
1 x,y,z
2 1/2-x,-y,1/2+z
3 -x,1/2+y,1/2-z
4 1/2+x,1/2-y,-z
_cell_length_a                   5.8532(4)
_cell_length_b                   14.5436(10)
_cell_length_c                   19.3274(14)
_cell_angle_alpha                90
_cell_angle_beta                 90
_cell_angle_gamma                90
_cell_volume                     1645.28
_exptl_crystal_colour            white
_exptl_crystal_description       prism
_chemical_melting_point          '152.5-154.5 deg.C'
_cell_formula_units_Z            4
loop_
_atom_site_label
_atom_site_type_symbol
_atom_site_fract_x
_atom_site_fract_y
_atom_site_fract_z
S1 S 0.38842(9) 0.20703(4) 0.29338(2)
O1 O 0.6748(3) 0.21272(11) -0.01740(7)
H1 H 0.5911 0.2596 -0.0163
O2 O 1.2025(3) -0.15800(10) 0.03020(8)
N1 N 0.7389(3) 0.29557(13) 0.23168(9)
N2 N 0.8235(3) 0.26324(12) 0.11244(9)
C1 C 0.6488(3) 0.20468(13) 0.10732(9)
C2 C 0.8585(4) 0.30547(15) 0.17341(10)
H2 H 0.9830 0.3473 0.1752
C3 C 0.5667(4) 0.23558(13) 0.22517(10)
C4 C 0.5078(4) 0.18770(13) 0.16443(10)
C5 C 0.3158(4) 0.12834(13) 0.17506(10)
H3 H 0.2514 0.0914 0.1396
C6 C 0.2349(4) 0.13015(13) 0.24112(10)
C7 C 0.0464(3) 0.07766(14) 0.27139(10)
C8 C 0.0124(4) 0.07495(14) 0.34292(10)
H4 H 0.1162 0.1059 0.3727
C9 C -0.1715(4) 0.02753(15) 0.37098(11)
H5 H -0.1937 0.0273 0.4197
C10 C -0.3222(4) -0.01922(15) 0.32900(12)
H6 H -0.4489 -0.0509 0.3484
C11 C -0.2860(4) -0.01944(14) 0.25722(12)
H7 H -0.3860 -0.0529 0.2278
C12 C -0.1050(4) 0.02897(14) 0.22935(11)
H8 H -0.0831 0.0291 0.1806
C13 C 0.6189(4) 0.15451(13) 0.03825(9)
H9 H 0.4555 0.1355 0.0336
C14 C 0.7680(4) 0.06864(13) 0.03707(9)
C15 C 0.9827(4) 0.07185(14) 0.00570(10)
H10 H 1.0342 0.1277 -0.0144
C16 C 1.1215(4) -0.00495(14) 0.00345(10)
H11 H 1.2657 -0.0020 -0.0190
C17 C 1.0497(4) -0.08708(15) 0.03427(10)
C18 C 0.8356(4) -0.09159(14) 0.06533(10)
H12 H 0.7844 -0.1473 0.0858
C19 C 0.6965(4) -0.01347(14) 0.06611(10)
H13 H 0.5498 -0.0168 0.0870
C20 C 1.1511(5) -0.23868(15) 0.06999(13)
H14 H 1.1288 -0.2216 0.1186
H15 H 1.2780 -0.2824 0.0664
H16 H 1.0113 -0.2672 0.0522
loop_
_geom_bond_atom_site_label_1
_geom_bond_atom_site_label_2
_geom_bond_site_symmetry_1
_geom_bond_site_symmetry_2
S1 C3 1_555 1_555
O1 H1 1_555 1_555
O2 C17 1_555 1_555
N1 C2 1_555 1_555
N2 C1 1_555 1_555
C1 C4 1_555 1_555
C2 N2 1_555 1_555
H2 C2 1_555 1_555
C3 N1 1_555 1_555
C4 C3 1_555 1_555
C5 C4 1_555 1_555
H3 C5 1_555 1_555
C6 S1 1_555 1_555
C7 C6 1_555 1_555
C8 C7 1_555 1_555
H4 C8 1_555 1_555
C9 C8 1_555 1_555
H5 C9 1_555 1_555
C10 C9 1_555 1_555
H6 C10 1_555 1_555
C11 C10 1_555 1_555
H7 C11 1_555 1_555
C12 C7 1_555 1_555
H8 C12 1_555 1_555
C13 O1 1_555 1_555
H9 C13 1_555 1_555
C14 C13 1_555 1_555
C15 C14 1_555 1_555
H10 C15 1_555 1_555
C16 C15 1_555 1_555
H11 C16 1_555 1_555
C17 C16 1_555 1_555
C18 C17 1_555 1_555
H12 C18 1_555 1_555
C19 C14 1_555 1_555
H13 C19 1_555 1_555
C20 O2 1_555 1_555
H14 C20 1_555 1_555
H15 C20 1_555 1_555
H16 C20 1_555 1_555
C1 C13 1_555 1_555
C5 C6 1_555 1_555
C11 C12 1_555 1_555
C18 C19 1_555 1_555

#END
