
#######################################################################
#
#                 Cambridge Crystallographic Data Centre
#                                CCDC 
#
#######################################################################
#
# If this CIF has been generated from an entry in the Cambridge 
# Structural Database, then it will include bibliographic, chemical, 
# crystal, experimental, refinement or atomic coordinate data resulting 
# from the CCDC's data processing and validation procedures.
#
#######################################################################

data_AZIVEM
_chemical_formula_moiety         'C108 H90'
_chemical_name_systematic        
"11,22-di-t-butyl-1,2:9,10:12,13:20,21-tetrakis(4-t-butylbenzo)ditriptyceno[4,5-d:4',5'-o]ovalene unknown solvate"
_symmetry_cell_setting           monoclinic
_symmetry_space_group_name_H-M   'P 21/n'
_symmetry_Int_Tables_number      14
_space_group_name_Hall           '-P 2yn'
loop_
_symmetry_equiv_pos_site_id
_symmetry_equiv_pos_as_xyz
1 x,y,z
2 1/2-x,1/2+y,1/2-z
3 -x,-y,-z
4 1/2+x,1/2-y,1/2+z
_cell_length_a                   8.4907(6)
_cell_length_b                   32.2657(14)
_cell_length_c                   33.2212(17)
_cell_angle_alpha                90
_cell_angle_beta                 90.442(5)
_cell_angle_gamma                90
_cell_volume                     9100.96
_exptl_crystal_colour            red
_exptl_crystal_description       shim
_cell_formula_units_Z            4
loop_
_atom_site_label
_atom_site_type_symbol
_atom_site_fract_x
_atom_site_fract_y
_atom_site_fract_z
C1 C 0.9160(12) 0.7371(3) 0.11488(19)
C2 C 0.9965(10) 0.6988(3) 0.11421(18)
C3 C 0.9932(10) 0.6960(3) 0.26226(18)
C4 C 0.9120(12) 0.7346(3) 0.26232(19)
C5 C 0.786(2) 0.7967(4) 0.0792(3)
C6 C 0.806(2) 0.8239(4) 0.0465(4)
H1 H 0.8454 0.8129 0.0220
C7 C 0.772(3) 0.8650(5) 0.0480(4)
H2 H 0.7788 0.8812 0.0241
C8 C 0.728(3) 0.8842(4) 0.0842(4)
C9 C 0.716(3) 0.8581(4) 0.1174(4)
H3 H 0.6917 0.8702 0.1427
C10 C 0.736(2) 0.8152(4) 0.1158(3)
C11 C 0.6550(19) 0.8011(6) 0.1889(3)
C12 C 0.740(2) 0.7904(5) 0.1530(3)
C13 C 0.842(2) 0.7559(5) 0.1521(3)
C14 C 0.892(2) 0.7361(5) 0.1886(3)
C15 C 0.839(2) 0.7539(5) 0.2254(3)
C16 C 0.734(2) 0.7877(4) 0.2251(3)
C17 C 0.729(2) 0.8117(4) 0.2629(3)
C18 C 0.697(2) 0.8535(4) 0.2629(4)
H4 H 0.6657 0.8658 0.2381
C19 C 0.708(3) 0.8784(4) 0.2963(4)
C20 C 0.762(3) 0.8593(4) 0.3318(4)
H5 H 0.7763 0.8756 0.3554
C21 C 0.796(2) 0.8179(4) 0.3333(4)
H6 H 0.8334 0.8062 0.3578
C22 C 0.776(2) 0.7922(4) 0.2994(3)
C23 C 0.8550(12) 0.7504(3) 0.29858(19)
C24 C 0.8463(10) 0.7231(2) 0.33283(18)
C25 C 0.7423(10) 0.7319(3) 0.36508(19)
H7 H 0.6811 0.7565 0.3647
C26 C 0.7302(9) 0.7053(3) 0.39632(19)
C27 C 0.6146(9) 0.7089(3) 0.43193(19)
H8 H 0.5472 0.7343 0.4304
C28 C 0.7207(10) 0.7079(3) 0.46937(19)
C29 C 0.7187(10) 0.7360(3) 0.5004(2)
H9 H 0.6534 0.7599 0.4991
C30 C 0.8154(11) 0.7286(3) 0.5339(2)
H10 H 0.8156 0.7477 0.5557
C31 C 0.9086(12) 0.6946(3) 0.5358(2)
H11 H 0.9741 0.6904 0.5588
C32 C 0.9102(10) 0.6655(3) 0.5047(2)
H12 H 0.9755 0.6417 0.5064
C33 C 0.8146(9) 0.6722(2) 0.47117(18)
C34 C 0.5197(10) 0.6691(3) 0.4331(2)
C35 C 0.3587(10) 0.6654(3) 0.4351(2)
H13 H 0.2929 0.6892 0.4346
C36 C 0.2948(11) 0.6257(3) 0.4380(2)
H14 H 0.1836 0.6228 0.4394
C37 C 0.3864(11) 0.5906(3) 0.4389(2)
H15 H 0.3386 0.5640 0.4401
C38 C 0.5485(11) 0.5942(3) 0.4379(2)
H16 H 0.6135 0.5702 0.4392
C39 C 0.6150(9) 0.6334(3) 0.43485(19)
C40 C 0.7912(9) 0.6430(2) 0.43554(17)
H17 H 0.8583 0.6176 0.4372
C41 C 0.8232(9) 0.6693(2) 0.39778(18)
C42 C 0.9207(9) 0.6591(2) 0.36678(18)
H18 H 0.9797 0.6340 0.3676
C43 C 0.9333(9) 0.6863(2) 0.33318(18)
C44 C 1.0235(9) 0.6751(3) 0.29862(18)
C45 C 1.1486(9) 0.6440(3) 0.29835(18)
C46 C 1.2400(10) 0.6359(3) 0.3331(2)
H19 H 1.2107 0.6482 0.3579
C47 C 1.3691(11) 0.6108(3) 0.3319(2)
H20 H 1.4280 0.6060 0.3559
C48 C 1.4166(10) 0.5920(3) 0.2957(2)
C49 C 1.3290(10) 0.6010(3) 0.2619(2)
H21 H 1.3612 0.5896 0.2369
C50 C 1.1956(10) 0.6260(3) 0.26235(19)
C51 C 1.1314(10) 0.6154(3) 0.18793(18)
C52 C 1.1220(9) 0.6388(3) 0.22416(18)
C53 C 1.0474(10) 0.6773(3) 0.22452(19)
C54 C 1.0021(11) 0.6974(3) 0.18809(18)
C55 C 1.0493(11) 0.6781(3) 0.15180(19)
C56 C 1.1207(9) 0.6394(3) 0.15171(18)
C57 C 1.1952(10) 0.6273(3) 0.11365(18)
C58 C 1.3275(10) 0.6018(3) 0.1139(2)
H22 H 1.3598 0.5897 0.1387
C59 C 1.4139(10) 0.5931(3) 0.0798(2)
C60 C 1.3683(11) 0.6139(3) 0.0445(2)
H23 H 1.4278 0.6098 0.0207
C61 C 1.2419(10) 0.6396(3) 0.0433(2)
H24 H 1.2160 0.6533 0.0189
C62 C 1.1480(9) 0.6464(3) 0.07737(19)
C63 C 1.0265(9) 0.6786(3) 0.07797(18)
C64 C 0.9366(9) 0.6902(3) 0.04302(18)
C65 C 0.9189(9) 0.6637(3) 0.00873(18)
H25 H 0.9764 0.6385 0.0074
C66 C 0.8194(9) 0.6745(3) -0.02203(18)
C67 C 0.7832(9) 0.6489(2) -0.05995(17)
H26 H 0.8491 0.6233 -0.0618
C68 C 0.8047(9) 0.6777(3) -0.09545(18)
C69 C 0.9005(10) 0.6712(3) -0.1282(2)
H27 H 0.9663 0.6475 -0.1296
C70 C 0.8990(11) 0.7005(3) -0.1596(2)
H28 H 0.9609 0.6959 -0.1828
C71 C 0.8105(11) 0.7353(3) -0.1570(2)
H29 H 0.8137 0.7552 -0.1781
C72 C 0.7146(10) 0.7424(3) -0.1237(2)
H30 H 0.6513 0.7666 -0.1222
C73 C 0.7136(10) 0.7134(3) -0.09286(18)
C74 C 0.6078(9) 0.6396(3) -0.0590(2)
C75 C 0.5399(10) 0.6008(3) -0.06125(19)
H31 H 0.6037 0.5766 -0.0624
C76 C 0.3759(10) 0.5976(3) -0.0618(2)
H32 H 0.3273 0.5712 -0.0631
C77 C 0.2854(11) 0.6325(3) -0.0605(2)
H33 H 0.1739 0.6300 -0.0614
C78 C 0.3540(10) 0.6718(3) -0.05781(19)
H34 H 0.2891 0.6958 -0.0568
C79 C 0.5164(9) 0.6759(3) -0.05661(18)
C80 C 0.6131(9) 0.7155(3) -0.05539(18)
H35 H 0.5476 0.7412 -0.0538
C81 C 0.7302(9) 0.7108(3) -0.02003(18)
C82 C 0.7452(10) 0.7370(3) 0.01157(18)
H36 H 0.6838 0.7616 0.0124
C83 C 0.8529(10) 0.7280(3) 0.04371(19)
C84 C 0.8632(12) 0.7545(3) 0.07862(19)
C85 C 0.708(3) 0.9313(5) 0.0860(4)
C86 C 0.639(3) 0.9457(7) 0.1253(4)
H37 H 0.7073 0.9370 0.1476
H38 H 0.6297 0.9760 0.1252
H39 H 0.5340 0.9334 0.1287
C87 C 0.868(3) 0.9515(7) 0.0821(7)
H40 H 0.9368 0.9418 0.1039
H41 H 0.9133 0.9441 0.0561
H42 H 0.8562 0.9817 0.0838
C88 C 0.598(3) 0.9454(7) 0.0533(5)
H43 H 0.6395 0.9366 0.0271
H44 H 0.4941 0.9331 0.0573
H45 H 0.5899 0.9757 0.0538
C89 C 0.4802(19) 0.8126(6) 0.1878(4)
C90 C 0.388(2) 0.7994(8) 0.2248(4)
H46 H 0.2775 0.8079 0.2217
H47 H 0.3932 0.7692 0.2277
H48 H 0.4331 0.8126 0.2488
C91 C 0.432(3) 0.8582(6) 0.1820(8)
H49 H 0.4857 0.8696 0.1585
H50 H 0.3175 0.8598 0.1777
H51 H 0.4608 0.8741 0.2060
C92 C 0.392(2) 0.7903(8) 0.1534(5)
H52 H 0.4425 0.7968 0.1277
H53 H 0.3952 0.7603 0.1579
H54 H 0.2822 0.7997 0.1526
C93 C 0.667(3) 0.9246(5) 0.2969(4)
C94 C 0.815(3) 0.9470(8) 0.3096(10)
H55 H 0.8965 0.9428 0.2894
H56 H 0.7924 0.9766 0.3122
H57 H 0.8513 0.9361 0.3356
C95 C 0.547(3) 0.9322(7) 0.3289(5)
H58 H 0.4491 0.9180 0.3217
H59 H 0.5869 0.9214 0.3547
H60 H 0.5279 0.9620 0.3313
C96 C 0.616(3) 0.9402(6) 0.2562(4)
H61 H 0.6979 0.9345 0.2365
H62 H 0.5181 0.9261 0.2481
H63 H 0.5968 0.9701 0.2576
C97 C 1.5634(12) 0.5647(4) 0.2950(3)
C98 C 1.7046(13) 0.5886(5) 0.3091(4)
H64 H 1.6824 0.6012 0.3353
H65 H 1.7949 0.5699 0.3117
H66 H 1.7287 0.6104 0.2895
C99 C 1.5426(17) 0.5292(4) 0.3250(4)
H67 H 1.5221 0.5407 0.3518
H68 H 1.4536 0.5119 0.3166
H69 H 1.6387 0.5125 0.3260
C100 C 1.5939(13) 0.5452(5) 0.2552(3)
H70 H 1.5005 0.5297 0.2464
H71 H 1.6175 0.5668 0.2354
H72 H 1.6838 0.5263 0.2575
C101 C 1.0954(10) 0.5689(3) 0.18711(19)
C102 C 1.0012(14) 0.5573(3) 0.1496(3)
H73 H 0.9132 0.5767 0.1462
H74 H 1.0695 0.5587 0.1260
H75 H 0.9602 0.5291 0.1524
C103 C 0.9857(15) 0.5579(4) 0.2217(3)
H76 H 0.8957 0.5769 0.2217
H77 H 0.9481 0.5294 0.2185
H78 H 1.0430 0.5604 0.2473
C104 C 1.2285(13) 0.5377(4) 0.1903(3)
H79 H 1.2928 0.5439 0.2142
H80 H 1.1847 0.5097 0.1927
H81 H 1.2940 0.5394 0.1662
C105 C 1.5593(10) 0.5646(3) 0.0795(2)
C106 C 1.7024(11) 0.5902(4) 0.0691(3)
H82 H 1.6850 0.6040 0.0432
H83 H 1.7201 0.6111 0.0901
H84 H 1.7948 0.5721 0.0674
C107 C 1.5370(13) 0.5319(4) 0.0470(3)
H85 H 1.4445 0.5149 0.0532
H86 H 1.5214 0.5454 0.0209
H87 H 1.6306 0.5141 0.0460
C108 C 1.5880(12) 0.5436(4) 0.1195(2)
H88 H 1.4959 0.5269 0.1266
H89 H 1.6807 0.5257 0.1177
H90 H 1.6060 0.5647 0.1403
C109? C 0.891(3) 0.7983(5) 0.0772(4)
C110? C 0.904(3) 0.8211(5) 0.0413(4)
H91? H 0.8927 0.8070 0.0163
C111? C 0.931(3) 0.8629(5) 0.0410(4)
H92? H 0.9314 0.8773 0.0161
C112? C 0.958(3) 0.8850(5) 0.0770(4)
C113? C 0.929(3) 0.8634(5) 0.1125(4)
H93? H 0.9336 0.8782 0.1373
C114? C 0.894(3) 0.8212(4) 0.1134(3)
C115? C 0.833(2) 0.8185(5) 0.1881(3)
C116? C 0.886(2) 0.7987(4) 0.1520(3)
C117? C 0.942(3) 0.7580(5) 0.1525(4)
C118? C 0.975(3) 0.7359(6) 0.1887(4)
C119? C 0.936(3) 0.7569(5) 0.2249(4)
C120? C 0.879(2) 0.7977(4) 0.2247(3)
C121? C 0.888(3) 0.8191(4) 0.2635(3)
C122? C 0.921(3) 0.8615(5) 0.2655(4)
H94? H 0.9298 0.8768 0.2412
C123? C 0.940(3) 0.8819(5) 0.3018(4)
C124? C 0.915(3) 0.8589(5) 0.3369(4)
H95? H 0.9151 0.8729 0.3621
C125? C 0.889(3) 0.8172(5) 0.3362(5)
H96? H 0.8804 0.8024 0.3607
C126? C 0.875(3) 0.7958(5) 0.2993(4)
C127? C 1.021(3) 0.9294(5) 0.0752(5)
C128? C 1.166(3) 0.9317(9) 0.0488(7)
H97? H 1.1405 0.9212 0.0219
H98? H 1.2015 0.9605 0.0469
H99? H 1.2504 0.9148 0.0607
C129? C 1.068(4) 0.9457(8) 0.1154(5)
H100? H 1.1453 0.9269 0.1278
H101? H 1.1155 0.9732 0.1123
H102? H 0.9754 0.9477 0.1326
C130? C 0.902(4) 0.9563(8) 0.0538(9)
H103? H 0.8759 0.9440 0.0276
H104? H 0.8068 0.9585 0.0700
H105? H 0.9469 0.9840 0.0497
C131? C 0.6865(19) 0.8467(5) 0.1874(4)
C132? C 0.577(2) 0.8381(7) 0.2228(5)
H106? H 0.5526 0.8084 0.2239
H107? H 0.6281 0.8465 0.2480
H108? H 0.4786 0.8538 0.2192
C133? C 0.715(3) 0.8934(5) 0.1888(6)
H109? H 0.7853 0.9013 0.1668
H110? H 0.6147 0.9080 0.1858
H111? H 0.7642 0.9008 0.2146
C134? C 0.585(2) 0.8390(7) 0.1496(4)
H112? H 0.5626 0.8093 0.1472
H113? H 0.4857 0.8544 0.1519
H114? H 0.6418 0.8485 0.1258
C135? C 0.996(3) 0.9269(5) 0.3039(4)
C136? C 1.108(3) 0.9335(7) 0.3378(5)
H115? H 1.2015 0.9160 0.3341
H116? H 1.1404 0.9627 0.3387
H117? H 1.0573 0.9261 0.3632
C137? C 1.076(3) 0.9392(8) 0.2653(5)
H118? H 1.0032 0.9350 0.2426
H119? H 1.1066 0.9684 0.2667
H120? H 1.1700 0.9220 0.2615
C138? C 0.854(3) 0.9537(9) 0.3095(11)
H121? H 0.7798 0.9493 0.2871
H122? H 0.8022 0.9463 0.3349
H123? H 0.8853 0.9829 0.3103
loop_
_geom_bond_atom_site_label_1
_geom_bond_atom_site_label_2
_geom_bond_site_symmetry_1
_geom_bond_site_symmetry_2
C1 C2 1_555 1_555
C2 C55 1_555 1_555
C3 C4 1_555 1_555
C4 C15 1_555 1_555
C5 C6 1_555 1_555
C6 H1 1_555 1_555
C7 C6 1_555 1_555
H2 C7 1_555 1_555
C8 C7 1_555 1_555
C9 C8 1_555 1_555
H3 C9 1_555 1_555
C10 C5 1_555 1_555
C11 C12 1_555 1_555
C12 C10 1_555 1_555
C13 C1 1_555 1_555
C14 C13 1_555 1_555
C15 C14 1_555 1_555
C16 C11 1_555 1_555
C17 C16 1_555 1_555
C18 C17 1_555 1_555
H4 C18 1_555 1_555
C19 C18 1_555 1_555
C20 C19 1_555 1_555
H5 C20 1_555 1_555
C21 C20 1_555 1_555
H6 C21 1_555 1_555
C22 C17 1_555 1_555
C23 C4 1_555 1_555
C24 C23 1_555 1_555
C25 C24 1_555 1_555
H7 C25 1_555 1_555
C26 C25 1_555 1_555
C27 C26 1_555 1_555
H8 C27 1_555 1_555
C28 C27 1_555 1_555
C29 C28 1_555 1_555
H9 C29 1_555 1_555
C30 C29 1_555 1_555
H10 C30 1_555 1_555
C31 C30 1_555 1_555
H11 C31 1_555 1_555
C32 C31 1_555 1_555
H12 C32 1_555 1_555
C33 C28 1_555 1_555
C34 C27 1_555 1_555
C35 C34 1_555 1_555
H13 C35 1_555 1_555
C36 C35 1_555 1_555
H14 C36 1_555 1_555
C37 C36 1_555 1_555
H15 C37 1_555 1_555
C38 C37 1_555 1_555
H16 C38 1_555 1_555
C39 C34 1_555 1_555
C40 C33 1_555 1_555
H17 C40 1_555 1_555
C41 C26 1_555 1_555
C42 C41 1_555 1_555
H18 C42 1_555 1_555
C43 C24 1_555 1_555
C44 C3 1_555 1_555
C45 C44 1_555 1_555
C46 C45 1_555 1_555
H19 C46 1_555 1_555
C47 C46 1_555 1_555
H20 C47 1_555 1_555
C48 C47 1_555 1_555
C49 C48 1_555 1_555
H21 C49 1_555 1_555
C50 C45 1_555 1_555
C51 C52 1_555 1_555
C52 C50 1_555 1_555
C53 C3 1_555 1_555
C54 C14 1_555 1_555
C55 C54 1_555 1_555
C56 C51 1_555 1_555
C57 C56 1_555 1_555
C58 C57 1_555 1_555
H22 C58 1_555 1_555
C59 C58 1_555 1_555
C60 C59 1_555 1_555
H23 C60 1_555 1_555
C61 C60 1_555 1_555
H24 C61 1_555 1_555
C62 C57 1_555 1_555
C63 C2 1_555 1_555
C64 C63 1_555 1_555
C65 C64 1_555 1_555
H25 C65 1_555 1_555
C66 C65 1_555 1_555
C67 C66 1_555 1_555
H26 C67 1_555 1_555
C68 C67 1_555 1_555
C69 C68 1_555 1_555
H27 C69 1_555 1_555
C70 C69 1_555 1_555
H28 C70 1_555 1_555
C71 C70 1_555 1_555
H29 C71 1_555 1_555
C72 C71 1_555 1_555
H30 C72 1_555 1_555
C73 C68 1_555 1_555
C74 C67 1_555 1_555
C75 C74 1_555 1_555
H31 C75 1_555 1_555
C76 C75 1_555 1_555
H32 C76 1_555 1_555
C77 C76 1_555 1_555
H33 C77 1_555 1_555
C78 C77 1_555 1_555
H34 C78 1_555 1_555
C79 C74 1_555 1_555
C80 C73 1_555 1_555
H35 C80 1_555 1_555
C81 C66 1_555 1_555
C82 C81 1_555 1_555
H36 C82 1_555 1_555
C83 C64 1_555 1_555
C84 C1 1_555 1_555
C85 C8 1_555 1_555
C86 C85 1_555 1_555
H37 C86 1_555 1_555
H38 C86 1_555 1_555
H39 C86 1_555 1_555
C87 C85 1_555 1_555
H40 C87 1_555 1_555
H41 C87 1_555 1_555
H42 C87 1_555 1_555
C88 C85 1_555 1_555
H43 C88 1_555 1_555
H44 C88 1_555 1_555
H45 C88 1_555 1_555
C89 C11 1_555 1_555
C90 C89 1_555 1_555
H46 C90 1_555 1_555
H47 C90 1_555 1_555
H48 C90 1_555 1_555
C91 C89 1_555 1_555
H49 C91 1_555 1_555
H50 C91 1_555 1_555
H51 C91 1_555 1_555
C92 C89 1_555 1_555
H52 C92 1_555 1_555
H53 C92 1_555 1_555
H54 C92 1_555 1_555
C93 C19 1_555 1_555
C94 C93 1_555 1_555
H55 C94 1_555 1_555
H56 C94 1_555 1_555
H57 C94 1_555 1_555
C95 C93 1_555 1_555
H58 C95 1_555 1_555
H59 C95 1_555 1_555
H60 C95 1_555 1_555
C96 C93 1_555 1_555
H61 C96 1_555 1_555
H62 C96 1_555 1_555
H63 C96 1_555 1_555
C97 C48 1_555 1_555
C98 C97 1_555 1_555
H64 C98 1_555 1_555
H65 C98 1_555 1_555
H66 C98 1_555 1_555
C99 C97 1_555 1_555
H67 C99 1_555 1_555
H68 C99 1_555 1_555
H69 C99 1_555 1_555
C100 C97 1_555 1_555
H70 C100 1_555 1_555
H71 C100 1_555 1_555
H72 C100 1_555 1_555
C101 C51 1_555 1_555
C102 C101 1_555 1_555
H73 C102 1_555 1_555
H74 C102 1_555 1_555
H75 C102 1_555 1_555
C103 C101 1_555 1_555
H76 C103 1_555 1_555
H77 C103 1_555 1_555
H78 C103 1_555 1_555
C104 C101 1_555 1_555
H79 C104 1_555 1_555
H80 C104 1_555 1_555
H81 C104 1_555 1_555
C105 C59 1_555 1_555
C106 C105 1_555 1_555
H82 C106 1_555 1_555
H83 C106 1_555 1_555
H84 C106 1_555 1_555
C107 C105 1_555 1_555
H85 C107 1_555 1_555
H86 C107 1_555 1_555
H87 C107 1_555 1_555
C108 C105 1_555 1_555
H88 C108 1_555 1_555
H89 C108 1_555 1_555
H90 C108 1_555 1_555
C5 C84 1_555 1_555
C9 C10 1_555 1_555
C12 C13 1_555 1_555
C15 C16 1_555 1_555
C21 C22 1_555 1_555
C22 C23 1_555 1_555
C32 C33 1_555 1_555
C38 C39 1_555 1_555
C39 C40 1_555 1_555
C40 C41 1_555 1_555
C42 C43 1_555 1_555
C43 C44 1_555 1_555
C49 C50 1_555 1_555
C52 C53 1_555 1_555
C53 C54 1_555 1_555
C55 C56 1_555 1_555
C61 C62 1_555 1_555
C62 C63 1_555 1_555
C72 C73 1_555 1_555
C78 C79 1_555 1_555
C79 C80 1_555 1_555
C80 C81 1_555 1_555
C82 C83 1_555 1_555
C83 C84 1_555 1_555

#END
