
#######################################################################
#
#                 Cambridge Crystallographic Data Centre
#                                CCDC 
#
#######################################################################
#
# If this CIF has been generated from an entry in the Cambridge 
# Structural Database, then it will include bibliographic, chemical, 
# crystal, experimental, refinement or atomic coordinate data resulting 
# from the CCDC's data processing and validation procedures.
#
#######################################################################

data_AZIVIQ
_chemical_formula_moiety         'C66 H62,1.5(C1 H2 Cl2)'
_chemical_name_systematic        
'9,16-di-t-butyl-5,20-bis(4-t-butylphenyl)decacyclo[22.6.6.2^11,14^.0^2,23^.0^4,21^.0^6,19^.0^7,12^.0^13,18^.0^25,30^.0^31,36^]octatriaconta-2,4,6,8,10,12,14,16,18,20,22,25,27,29,31,33,35,37-octadecaene dichloromethane solvate'
_symmetry_cell_setting           monoclinic
_symmetry_space_group_name_H-M   'P 21/c'
_symmetry_Int_Tables_number      14
_space_group_name_Hall           '-P 2ybc'
loop_
_symmetry_equiv_pos_site_id
_symmetry_equiv_pos_as_xyz
1 x,y,z
2 -x,1/2+y,1/2-z
3 -x,-y,-z
4 x,1/2-y,1/2+z
_cell_length_a                   21.3041(10)
_cell_length_b                   19.2848(9)
_cell_length_c                   13.8137(5)
_cell_angle_alpha                90
_cell_angle_beta                 106.328(3)
_cell_angle_gamma                90
_cell_volume                     5446.4
_exptl_crystal_colour            colorless
_exptl_crystal_description       needle
_cell_formula_units_Z            4
loop_
_atom_site_label
_atom_site_type_symbol
_atom_site_fract_x
_atom_site_fract_y
_atom_site_fract_z
C1 C 0.2702(3) 0.4389(3) 0.3985(4)
C2 C 0.2977(3) 0.3720(3) 0.4244(4)
C3 C 0.3544(3) 0.3492(3) 0.3948(4)
H1 H 0.3764 0.3807 0.3625
C4 C 0.3761(3) 0.2837(3) 0.4129(4)
C5 C 0.4374(3) 0.2535(3) 0.3910(4)
H2 H 0.4613 0.2876 0.3599
C6 C 0.4128(3) 0.1905(3) 0.3248(4)
C7 C 0.4192(3) 0.1803(3) 0.2284(4)
H3 H 0.4398 0.2141 0.1978
C8 C 0.3945(3) 0.1193(4) 0.1776(5)
H4 H 0.3991 0.1112 0.1121
C9 C 0.3639(3) 0.0712(4) 0.2203(5)
H5 H 0.3478 0.0298 0.1846
C10 C 0.3557(3) 0.0820(3) 0.3168(5)
H6 H 0.3334 0.0489 0.3459
C11 C 0.3807(3) 0.1416(3) 0.3678(4)
C12 C 0.4785(3) 0.2252(4) 0.4922(5)
C13 C 0.5418(3) 0.2460(5) 0.5433(6)
H7 H 0.5639 0.2805 0.5162
C14 C 0.5722(4) 0.2136(5) 0.6372(6)
H8 H 0.6157 0.2260 0.6728
C15 C 0.5406(4) 0.1655(6) 0.6770(6)
H9 H 0.5624 0.1444 0.7395
C16 C 0.4766(4) 0.1463(5) 0.6276(5)
H10 H 0.4540 0.1131 0.6562
C17 C 0.4470(3) 0.1770(4) 0.5355(4)
C18 C 0.3770(3) 0.1635(3) 0.4720(4)
H11 H 0.3537 0.1288 0.5034
C19 C 0.3443(3) 0.2349(3) 0.4590(4)
C20 C 0.2917(3) 0.2542(3) 0.4913(4)
H12 H 0.2704 0.2213 0.5221
C21 C 0.2691(3) 0.3248(3) 0.4782(4)
C22 C 0.2200(2) 0.3498(3) 0.5209(4)
C23 C 0.2017(3) 0.4196(3) 0.5100(4)
C24 C 0.1613(3) 0.4501(3) 0.5704(4)
C25 C 0.1636(3) 0.4255(3) 0.6662(4)
H13 H 0.1930 0.3889 0.6941
C26 C 0.1243(3) 0.4527(3) 0.7232(4)
C27 C 0.0814(3) 0.5045(3) 0.6798(4)
H14 H 0.0511 0.5205 0.7140
C28 C 0.0803(3) 0.5347(3) 0.5872(4)
C29 C 0.0365(3) 0.5909(3) 0.5442(5)
H15 H 0.0044 0.6053 0.5757
C30 C 0.0410(3) 0.6230(3) 0.4595(5)
H16 H 0.0117 0.6598 0.4321
C31 C 0.0893(3) 0.6025(3) 0.4097(4)
C32 C 0.0970(3) 0.6410(3) 0.3280(4)
H17 H 0.0695 0.6798 0.3044
C33 C 0.1439(3) 0.6232(3) 0.2811(4)
C34 C 0.1841(3) 0.5664(3) 0.3189(4)
H18 H 0.2166 0.5546 0.2867
C35 C 0.1798(3) 0.5256(3) 0.4008(4)
C36 C 0.2204(3) 0.4628(3) 0.4370(4)
C37 C 0.1300(3) 0.5446(3) 0.4466(4)
C38 C 0.1229(3) 0.5095(3) 0.5336(4)
C39 C 0.2990(3) 0.4791(3) 0.3286(4)
C40 C 0.2872(3) 0.4585(3) 0.2277(4)
H19 H 0.2604 0.4192 0.2038
C41 C 0.3142(3) 0.4948(3) 0.1626(4)
H20 H 0.3052 0.4798 0.0946
C42 C 0.3541(3) 0.5527(3) 0.1932(4)
C43 C 0.3669(3) 0.5713(3) 0.2946(4)
H21 H 0.3948 0.6096 0.3192
C44 C 0.3401(3) 0.5354(3) 0.3605(4)
H22 H 0.3501 0.5497 0.4290
C45 C 0.3813(3) 0.5937(3) 0.1187(5)
C46 C 0.3291(4) 0.6037(5) 0.0196(6)
H23 H 0.2919 0.6285 0.0315
H24 H 0.3471 0.6307 -0.0265
H25 H 0.3146 0.5583 -0.0104
C47 C 0.4403(4) 0.5552(4) 0.1030(7)
H26 H 0.4733 0.5493 0.1680
H27 H 0.4264 0.5095 0.0734
H28 H 0.4589 0.5819 0.0574
C48 C 0.4047(4) 0.6657(4) 0.1610(6)
H29 H 0.4386 0.6606 0.2253
H30 H 0.4227 0.6906 0.1130
H31 H 0.3677 0.6918 0.1716
C49 C 0.1837(2) 0.2981(3) 0.5666(4)
C50 C 0.1169(2) 0.2882(3) 0.5176(4)
H32 H 0.0965 0.3159 0.4606
C51 C 0.0803(3) 0.2391(3) 0.5504(4)
H33 H 0.0356 0.2329 0.5145
C52 C 0.1080(3) 0.1982(3) 0.6356(4)
C53 C 0.1741(3) 0.2086(3) 0.6835(4)
H34 H 0.1944 0.1815 0.7412
C54 C 0.2115(3) 0.2569(3) 0.6506(4)
H35 H 0.2565 0.2620 0.6856
C55 C 0.0660(3) 0.1453(3) 0.6711(4)
C56 C 0.0117(5) 0.1856(5) 0.7059(8)
H36 H 0.0325 0.2180 0.7601
H37 H -0.0162 0.2114 0.6487
H38 H -0.0151 0.1524 0.7306
C57 C 0.0313(5) 0.0961(5) 0.5876(6)
H39 H 0.0050 0.0632 0.6137
H40 H 0.0027 0.1226 0.5319
H41 H 0.0637 0.0708 0.5632
C58 C 0.1046(4) 0.1040(5) 0.7632(6)
H42 H 0.1270 0.1361 0.8169
H43 H 0.0746 0.0746 0.7873
H44 H 0.1371 0.0749 0.7446
C59 C 0.1279(3) 0.4256(3) 0.8283(4)
C60 C 0.1473(4) 0.4875(4) 0.9040(6)
H45 H 0.1904 0.5050 0.9038
H46 H 0.1148 0.5246 0.8836
H47 H 0.1487 0.4716 0.9720
C61 C 0.0610(4) 0.3984(5) 0.8287(6)
H48 H 0.0282 0.4348 0.8051
H49 H 0.0498 0.3581 0.7839
H50 H 0.0619 0.3847 0.8974
C62 C 0.1795(4) 0.3697(5) 0.8648(6)
H51 H 0.2224 0.3878 0.8642
H52 H 0.1808 0.3559 0.9336
H53 H 0.1687 0.3293 0.8201
C63 C 0.1545(3) 0.6638(3) 0.1919(4)
C64 C 0.1029(3) 0.7208(4) 0.1551(5)
H54 H 0.1115 0.7454 0.0980
H55 H 0.0593 0.6998 0.1336
H56 H 0.1049 0.7536 0.2100
C65 C 0.2221(3) 0.6983(4) 0.2245(6)
H57 H 0.2293 0.7244 0.1676
H58 H 0.2243 0.7299 0.2808
H59 H 0.2559 0.6626 0.2456
C66 C 0.1510(4) 0.6138(4) 0.1034(5)
H60 H 0.1578 0.6398 0.0462
H61 H 0.1851 0.5783 0.1245
H62 H 0.1080 0.5914 0.0831
C67 C 0.2552(5) 0.6125(6) 0.6220(7)
H63 H 0.2110 0.6328 0.5961
H64 H 0.2540 0.5654 0.5931
Cl1 Cl 0.31009(16) 0.6627(2) 0.5795(2)
Cl2 Cl 0.27357(17) 0.60559(17) 0.7516(2)
C68? C 0.0964(10) 0.0729(8) 0.6564(16)
H65? H 0.0919 0.0654 0.5845
H66? H 0.1429 0.0722 0.6940
H67? H 0.0734 0.0360 0.6814
C69? C 0.0741(10) 0.1543(12) 0.7811(10)
H68? H 0.1208 0.1549 0.8174
H69? H 0.0540 0.1981 0.7925
H70? H 0.0529 0.1157 0.8057
C70? C -0.0036(6) 0.1434(13) 0.6055(13)
H71? H -0.0040 0.1373 0.5348
H72? H -0.0267 0.1045 0.6260
H73? H -0.0255 0.1869 0.6128
C71? C 0.1111(19) 0.3462(8) 0.813(2)
H74? H 0.0678 0.3407 0.7645
H75? H 0.1440 0.3231 0.7869
H76? H 0.1109 0.3254 0.8775
C72? C 0.1949(10) 0.432(2) 0.903(2)
H77? H 0.1935 0.4138 0.9688
H78? H 0.2268 0.4058 0.8790
H79? H 0.2077 0.4811 0.9106
C73? C 0.0738(15) 0.456(2) 0.869(2)
H80? H 0.0314 0.4507 0.8183
H81? H 0.0729 0.4315 0.9308
H82? H 0.0824 0.5053 0.8841
Cl3? Cl 0.5179(7) 0.4638(7) 0.4121(8)
Cl4? Cl 0.4888(8) 0.5568(7) 0.5642(12)
C74? C 0.4833(11) 0.4722(9) 0.5141(14)
H83? H 0.4367 0.4585 0.4910
H84? H 0.5058 0.4398 0.5683
loop_
_geom_bond_atom_site_label_1
_geom_bond_atom_site_label_2
_geom_bond_site_symmetry_1
_geom_bond_site_symmetry_2
C1 C2 1_555 1_555
C2 C3 1_555 1_555
C3 H1 1_555 1_555
C4 C3 1_555 1_555
C5 C4 1_555 1_555
H2 C5 1_555 1_555
C6 C5 1_555 1_555
C7 C6 1_555 1_555
H3 C7 1_555 1_555
C8 C7 1_555 1_555
H4 C8 1_555 1_555
C9 C8 1_555 1_555
H5 C9 1_555 1_555
C10 C9 1_555 1_555
H6 C10 1_555 1_555
C11 C6 1_555 1_555
C12 C5 1_555 1_555
C13 C12 1_555 1_555
H7 C13 1_555 1_555
C14 C13 1_555 1_555
H8 C14 1_555 1_555
C15 C14 1_555 1_555
H9 C15 1_555 1_555
C16 C15 1_555 1_555
H10 C16 1_555 1_555
C17 C12 1_555 1_555
C18 C11 1_555 1_555
H11 C18 1_555 1_555
C19 C4 1_555 1_555
C20 C19 1_555 1_555
H12 C20 1_555 1_555
C21 C2 1_555 1_555
C22 C21 1_555 1_555
C23 C22 1_555 1_555
C24 C23 1_555 1_555
C25 C24 1_555 1_555
H13 C25 1_555 1_555
C26 C25 1_555 1_555
C27 C26 1_555 1_555
H14 C27 1_555 1_555
C28 C27 1_555 1_555
C29 C28 1_555 1_555
H15 C29 1_555 1_555
C30 C29 1_555 1_555
H16 C30 1_555 1_555
C31 C30 1_555 1_555
C32 C31 1_555 1_555
H17 C32 1_555 1_555
C33 C32 1_555 1_555
C34 C33 1_555 1_555
H18 C34 1_555 1_555
C35 C34 1_555 1_555
C36 C1 1_555 1_555
C37 C31 1_555 1_555
C38 C24 1_555 1_555
C39 C1 1_555 1_555
C40 C39 1_555 1_555
H19 C40 1_555 1_555
C41 C40 1_555 1_555
H20 C41 1_555 1_555
C42 C41 1_555 1_555
C43 C42 1_555 1_555
H21 C43 1_555 1_555
C44 C39 1_555 1_555
H22 C44 1_555 1_555
C45 C42 1_555 1_555
C46 C45 1_555 1_555
H23 C46 1_555 1_555
H24 C46 1_555 1_555
H25 C46 1_555 1_555
C47 C45 1_555 1_555
H26 C47 1_555 1_555
H27 C47 1_555 1_555
H28 C47 1_555 1_555
C48 C45 1_555 1_555
H29 C48 1_555 1_555
H30 C48 1_555 1_555
H31 C48 1_555 1_555
C49 C22 1_555 1_555
C50 C49 1_555 1_555
H32 C50 1_555 1_555
C51 C50 1_555 1_555
H33 C51 1_555 1_555
C52 C51 1_555 1_555
C53 C52 1_555 1_555
H34 C53 1_555 1_555
C54 C49 1_555 1_555
H35 C54 1_555 1_555
C55 C52 1_555 1_555
C56 C55 1_555 1_555
H36 C56 1_555 1_555
H37 C56 1_555 1_555
H38 C56 1_555 1_555
C57 C55 1_555 1_555
H39 C57 1_555 1_555
H40 C57 1_555 1_555
H41 C57 1_555 1_555
C58 C55 1_555 1_555
H42 C58 1_555 1_555
H43 C58 1_555 1_555
H44 C58 1_555 1_555
C59 C26 1_555 1_555
C60 C59 1_555 1_555
H45 C60 1_555 1_555
H46 C60 1_555 1_555
H47 C60 1_555 1_555
C61 C59 1_555 1_555
H48 C61 1_555 1_555
H49 C61 1_555 1_555
H50 C61 1_555 1_555
C62 C59 1_555 1_555
H51 C62 1_555 1_555
H52 C62 1_555 1_555
H53 C62 1_555 1_555
C63 C33 1_555 1_555
C64 C63 1_555 1_555
H54 C64 1_555 1_555
H55 C64 1_555 1_555
H56 C64 1_555 1_555
C65 C63 1_555 1_555
H57 C65 1_555 1_555
H58 C65 1_555 1_555
H59 C65 1_555 1_555
C66 C63 1_555 1_555
H60 C66 1_555 1_555
H61 C66 1_555 1_555
H62 C66 1_555 1_555
C67 H63 1_555 1_555
H64 C67 1_555 1_555
Cl1 C67 1_555 1_555
Cl2 C67 1_555 1_555
C10 C11 1_555 1_555
C16 C17 1_555 1_555
C17 C18 1_555 1_555
C18 C19 1_555 1_555
C20 C21 1_555 1_555
C23 C36 1_555 1_555
C28 C38 1_555 1_555
C35 C36 1_555 1_555
C35 C37 1_555 1_555
C37 C38 1_555 1_555
C43 C44 1_555 1_555
C53 C54 1_555 1_555

#END
