
#######################################################################
#
#                 Cambridge Crystallographic Data Centre
#                                CCDC 
#
#######################################################################
#
# If this CIF has been generated from an entry in the Cambridge 
# Structural Database, then it will include bibliographic, chemical, 
# crystal, experimental, refinement or atomic coordinate data resulting 
# from the CCDC's data processing and validation procedures.
#
#######################################################################

data_AZIWIR
_chemical_formula_moiety         'C47 H50 O1'
_chemical_name_systematic        
2,7-di-t-butyl-9,11-bis(4-t-butylphenyl)-10H-cyclopenta[e]pyren-10-one
_symmetry_cell_setting           monoclinic
_symmetry_space_group_name_H-M   'P 21/c'
_symmetry_Int_Tables_number      14
_space_group_name_Hall           '-P 2ybc'
loop_
_symmetry_equiv_pos_site_id
_symmetry_equiv_pos_as_xyz
1 x,y,z
2 -x,1/2+y,1/2-z
3 -x,-y,-z
4 x,1/2-y,1/2+z
_cell_length_a                   13.471(3)
_cell_length_b                   20.860(4)
_cell_length_c                   14.114(3)
_cell_angle_alpha                90
_cell_angle_beta                 110.944(5)
_cell_angle_gamma                90
_cell_volume                     3704.07
_exptl_crystal_colour            yellow
_exptl_crystal_description       needle
_cell_formula_units_Z            4
loop_
_atom_site_label
_atom_site_type_symbol
_atom_site_fract_x
_atom_site_fract_y
_atom_site_fract_z
C1 C 0.4801(2) 0.18616(14) 0.3456(2)
O1 O 0.48581(16) 0.12777(10) 0.34396(16)
C2 C 0.5403(2) 0.23218(13) 0.3056(2)
C3 C 0.5105(2) 0.29165(13) 0.3227(2)
C4 C 0.4291(2) 0.28621(13) 0.3738(2)
C5 C 0.4097(2) 0.22385(13) 0.3861(2)
C6 C 0.5420(2) 0.35523(13) 0.2992(2)
C7 C 0.6150(2) 0.36370(14) 0.2517(2)
H1 H 0.6489 0.3270 0.2374
C8 C 0.6412(2) 0.42427(14) 0.2239(2)
C9 C 0.5922(2) 0.47649(14) 0.2464(2)
H2 H 0.6073 0.5178 0.2266
C10 C 0.5201(2) 0.47108(13) 0.2978(2)
C11 C 0.4731(2) 0.52680(14) 0.3225(2)
H3 H 0.4909 0.5679 0.3044
C12 C 0.4041(2) 0.52188(14) 0.3710(2)
H4 H 0.3737 0.5597 0.3866
C13 C 0.3752(2) 0.46116(13) 0.3996(2)
C14 C 0.3004(2) 0.45639(14) 0.4482(2)
H5 H 0.2701 0.4945 0.4628
C15 C 0.2700(2) 0.39856(14) 0.4749(2)
C16 C 0.3158(2) 0.34318(14) 0.4527(2)
H6 H 0.2970 0.3028 0.4726
C17 C 0.3876(2) 0.34486(13) 0.4030(2)
C18 C 0.4187(2) 0.40482(13) 0.3757(2)
C19 C 0.4946(2) 0.41003(13) 0.3249(2)
C20 C 0.7244(4) 0.4281(2) 0.1734(3)
C21 C 0.6837(4) 0.3913(3) 0.0730(3)
H7 H 0.6162 0.4099 0.0290
H8 H 0.7360 0.3944 0.0396
H9 H 0.6730 0.3462 0.0863
C22 C 0.8298(3) 0.3991(2) 0.2420(3)
H10 H 0.8559 0.4226 0.3063
H11 H 0.8190 0.3540 0.2551
H12 H 0.8820 0.4021 0.2084
C23 C 0.7459(4) 0.49802(19) 0.1515(4)
H13 H 0.6795 0.5179 0.1076
H14 H 0.7740 0.5218 0.2155
H15 H 0.7979 0.4988 0.1176
C24 C 0.1861(2) 0.39154(15) 0.5242(2)
C25 C 0.2327(3) 0.35675(16) 0.6248(2)
H16 H 0.2923 0.3816 0.6707
H17 H 0.1780 0.3518 0.6550
H18 H 0.2580 0.3144 0.6137
C26 C 0.0930(3) 0.35314(19) 0.4520(3)
H19 H 0.0632 0.3759 0.3871
H20 H 0.1181 0.3107 0.4406
H21 H 0.0381 0.3482 0.4819
C27 C 0.1448(3) 0.45725(16) 0.5425(3)
H22 H 0.1145 0.4801 0.4779
H23 H 0.0900 0.4513 0.5723
H24 H 0.2037 0.4822 0.5891
C28 C 0.6161(2) 0.21123(13) 0.2583(2)
C29 C 0.7182(2) 0.19389(18) 0.3166(2)
H25 H 0.7391 0.1931 0.3884
C30 C 0.7909(3) 0.17765(19) 0.2722(3)
H26 H 0.8611 0.1664 0.3145
C31 C 0.7650(2) 0.17715(14) 0.1686(2)
C32 C 0.6622(2) 0.19228(14) 0.1112(2)
H27 H 0.6407 0.1914 0.0393
C33 C 0.5885(2) 0.20889(14) 0.1548(2)
H28 H 0.5177 0.2188 0.1124
C34 C 0.8499(2) 0.16120(16) 0.1233(2)
C35 C 0.8002(3) 0.14786(18) 0.0094(2)
H29 H 0.7518 0.1112 -0.0023
H30 H 0.7605 0.1857 -0.0252
H31 H 0.8564 0.1382 -0.0173
C36 C 0.9255(3) 0.21844(18) 0.1420(3)
H32 H 0.9572 0.2268 0.2150
H33 H 0.9819 0.2088 0.1155
H34 H 0.8860 0.2563 0.1075
C37 C 0.9132(3) 0.10163(17) 0.1749(3)
H35 H 0.9458 0.1092 0.2481
H36 H 0.8654 0.0647 0.1625
H37 H 0.9690 0.0930 0.1471
C38 C 0.3385(2) 0.19207(12) 0.4301(2)
C39 C 0.2290(2) 0.19403(14) 0.3844(2)
H38 H 0.1977 0.2148 0.3207
C40 C 0.1642(2) 0.16627(15) 0.4301(2)
H39 H 0.0893 0.1688 0.3972
C41 C 0.2054(2) 0.13499(14) 0.5222(2)
C42 C 0.3145(2) 0.13092(15) 0.5649(2)
H40 H 0.3456 0.1084 0.6271
C43 C 0.3802(2) 0.15847(15) 0.5205(2)
H41 H 0.4551 0.1544 0.5522
C44 C 0.1354(2) 0.10781(17) 0.5778(2)
C45 C 0.0184(3) 0.1066(2) 0.5109(3)
H42 H 0.0085 0.0791 0.4519
H43 H -0.0233 0.0896 0.5498
H44 H -0.0054 0.1502 0.4881
C46 C 0.1479(3) 0.1509(2) 0.6688(3)
H45 H 0.2229 0.1524 0.7130
H46 H 0.1234 0.1942 0.6450
H47 H 0.1055 0.1337 0.7067
C47 C 0.1717(3) 0.03964(18) 0.6159(3)
H48 H 0.2471 0.0403 0.6590
H49 H 0.1298 0.0239 0.6552
H50 H 0.1614 0.0113 0.5578
C48? C 0.704(2) 0.4373(10) 0.1471(19)
C49? C 0.8031(18) 0.4767(12) 0.2060(19)
H51? H 0.7811 0.5187 0.2228
H52? H 0.8443 0.4541 0.2686
H53? H 0.8469 0.4826 0.1642
C50? C 0.6353(16) 0.4725(10) 0.0513(15)
H54? H 0.6153 0.5146 0.0698
H55? H 0.6752 0.4782 0.0059
H56? H 0.5709 0.4474 0.0168
C51? C 0.736(2) 0.3716(10) 0.120(2)
H57? H 0.7805 0.3496 0.1819
H58? H 0.6723 0.3462 0.0856
H59? H 0.7765 0.3770 0.0747
loop_
_geom_bond_atom_site_label_1
_geom_bond_atom_site_label_2
_geom_bond_site_symmetry_1
_geom_bond_site_symmetry_2
C1 O1 1_555 1_555
C2 C1 1_555 1_555
C3 C2 1_555 1_555
C4 C3 1_555 1_555
C5 C1 1_555 1_555
C6 C3 1_555 1_555
C7 C6 1_555 1_555
H1 C7 1_555 1_555
C8 C7 1_555 1_555
C9 C8 1_555 1_555
H2 C9 1_555 1_555
C10 C9 1_555 1_555
C11 C10 1_555 1_555
H3 C11 1_555 1_555
C12 C11 1_555 1_555
H4 C12 1_555 1_555
C13 C12 1_555 1_555
C14 C13 1_555 1_555
H5 C14 1_555 1_555
C15 C14 1_555 1_555
C16 C15 1_555 1_555
H6 C16 1_555 1_555
C17 C4 1_555 1_555
C18 C13 1_555 1_555
C19 C6 1_555 1_555
C20 C8 1_555 1_555
C21 C20 1_555 1_555
H7 C21 1_555 1_555
H8 C21 1_555 1_555
H9 C21 1_555 1_555
C22 C20 1_555 1_555
H10 C22 1_555 1_555
H11 C22 1_555 1_555
H12 C22 1_555 1_555
C23 C20 1_555 1_555
H13 C23 1_555 1_555
H14 C23 1_555 1_555
H15 C23 1_555 1_555
C24 C15 1_555 1_555
C25 C24 1_555 1_555
H16 C25 1_555 1_555
H17 C25 1_555 1_555
H18 C25 1_555 1_555
C26 C24 1_555 1_555
H19 C26 1_555 1_555
H20 C26 1_555 1_555
H21 C26 1_555 1_555
C27 C24 1_555 1_555
H22 C27 1_555 1_555
H23 C27 1_555 1_555
H24 C27 1_555 1_555
C28 C2 1_555 1_555
C29 C28 1_555 1_555
H25 C29 1_555 1_555
C30 C29 1_555 1_555
H26 C30 1_555 1_555
C31 C30 1_555 1_555
C32 C31 1_555 1_555
H27 C32 1_555 1_555
C33 C28 1_555 1_555
H28 C33 1_555 1_555
C34 C31 1_555 1_555
C35 C34 1_555 1_555
H29 C35 1_555 1_555
H30 C35 1_555 1_555
H31 C35 1_555 1_555
C36 C34 1_555 1_555
H32 C36 1_555 1_555
H33 C36 1_555 1_555
H34 C36 1_555 1_555
C37 C34 1_555 1_555
H35 C37 1_555 1_555
H36 C37 1_555 1_555
H37 C37 1_555 1_555
C38 C5 1_555 1_555
C39 C38 1_555 1_555
H38 C39 1_555 1_555
C40 C39 1_555 1_555
H39 C40 1_555 1_555
C41 C40 1_555 1_555
C42 C41 1_555 1_555
H40 C42 1_555 1_555
C43 C38 1_555 1_555
H41 C43 1_555 1_555
C44 C41 1_555 1_555
C45 C44 1_555 1_555
H42 C45 1_555 1_555
H43 C45 1_555 1_555
H44 C45 1_555 1_555
C46 C44 1_555 1_555
H45 C46 1_555 1_555
H46 C46 1_555 1_555
H47 C46 1_555 1_555
C47 C44 1_555 1_555
H48 C47 1_555 1_555
H49 C47 1_555 1_555
H50 C47 1_555 1_555
C4 C5 1_555 1_555
C10 C19 1_555 1_555
C16 C17 1_555 1_555
C17 C18 1_555 1_555
C18 C19 1_555 1_555
C32 C33 1_555 1_555
C42 C43 1_555 1_555

#END
