
#######################################################################
#
#                 Cambridge Crystallographic Data Centre
#                                CCDC 
#
#######################################################################
#
# If this CIF has been generated from an entry in the Cambridge 
# Structural Database, then it will include bibliographic, chemical, 
# crystal, experimental, refinement or atomic coordinate data resulting 
# from the CCDC's data processing and validation procedures.
#
#######################################################################

data_AZIWEN
_chemical_formula_moiety         'C21 H15 Br1 O1'
_chemical_name_systematic        
4-bromo-5-methoxypentacyclo[6.6.6.0^2,7^.0^9,14^.0^15,20^]icosa-2,4,6,9,11,13,15,17,19-nonaene
_symmetry_cell_setting           orthorhombic
_symmetry_space_group_name_H-M   'P n a 21'
_symmetry_Int_Tables_number      33
_space_group_name_Hall           'P 2c -2n'
loop_
_symmetry_equiv_pos_site_id
_symmetry_equiv_pos_as_xyz
1 x,y,z
2 -x,-y,1/2+z
3 1/2+x,1/2-y,z
4 1/2-x,1/2+y,1/2+z
_cell_length_a                   9.5629(2)
_cell_length_b                   10.6345(3)
_cell_length_c                   15.6041(4)
_cell_angle_alpha                90
_cell_angle_beta                 90
_cell_angle_gamma                90
_cell_volume                     1586.88
_exptl_crystal_colour            colorless
_exptl_crystal_description       plate
_cell_formula_units_Z            4
loop_
_atom_site_label
_atom_site_type_symbol
_atom_site_fract_x
_atom_site_fract_y
_atom_site_fract_z
Br1 Br 0.38853(6) -0.02942(5) 0.34098(6)
C1 C 0.4819(7) 0.4839(6) 0.5144(4)
H1 H 0.5430 0.5462 0.4844
C2 C 0.3240(6) 0.3215(6) 0.5931(4)
H2 H 0.2628 0.2593 0.6230
C3 C 0.4669(6) 0.3609(6) 0.4662(4)
C4 C 0.5276(6) 0.3350(6) 0.3879(4)
H3 H 0.5840 0.3963 0.3603
C5 C 0.5059(6) 0.2189(5) 0.3500(4)
C6 C 0.4211(7) 0.1301(6) 0.3920(4)
C7 C 0.3594(7) 0.1579(6) 0.4706(4)
H4 H 0.3019 0.0976 0.4984
C8 C 0.3822(6) 0.2726(6) 0.5072(4)
O1 O 0.5596(5) 0.1844(4) 0.2723(3)
C9 C 0.6439(7) 0.2780(7) 0.2294(5)
H5 H 0.6751 0.2451 0.1740
H6 H 0.7254 0.2982 0.2649
H7 H 0.5881 0.3542 0.2204
C10 C 0.5343(7) 0.4499(6) 0.6047(4)
C11 C 0.6510(8) 0.4985(8) 0.6454(5)
H8 H 0.7079 0.5589 0.6171
C12 C 0.6845(8) 0.4590(6) 0.7271(5)
H9 H 0.7651 0.4914 0.7551
C13 C 0.5997(7) 0.3717(7) 0.7682(5)
H10 H 0.6234 0.3449 0.8245
C14 C 0.4819(7) 0.3228(6) 0.7294(4)
H11 H 0.4240 0.2644 0.7587
C15 C 0.4498(6) 0.3612(6) 0.6460(4)
C16 C 0.3327(8) 0.5312(6) 0.5287(5)
C17 C 0.2796(7) 0.6469(6) 0.5044(4)
H12 H 0.3373 0.7065 0.4760
C18 C 0.1400(7) 0.6746(7) 0.5221(5)
H13 H 0.1017 0.7528 0.5043
C19 C 0.0569(7) 0.5888(7) 0.5656(5)
H14 H -0.0379 0.6089 0.5778
C20 C 0.1112(6) 0.4739(6) 0.5912(5)
H15 H 0.0551 0.4162 0.6225
C21 C 0.2482(7) 0.4443(6) 0.5707(4)
loop_
_geom_bond_atom_site_label_1
_geom_bond_atom_site_label_2
_geom_bond_site_symmetry_1
_geom_bond_site_symmetry_2
Br1 C6 1_555 1_555
C1 H1 1_555 1_555
C2 H2 1_555 1_555
C3 C1 1_555 1_555
C4 C3 1_555 1_555
H3 C4 1_555 1_555
C5 C4 1_555 1_555
C6 C5 1_555 1_555
C7 C6 1_555 1_555
H4 C7 1_555 1_555
C8 C2 1_555 1_555
O1 C5 1_555 1_555
C9 O1 1_555 1_555
H5 C9 1_555 1_555
H6 C9 1_555 1_555
H7 C9 1_555 1_555
C10 C1 1_555 1_555
C11 C10 1_555 1_555
H8 C11 1_555 1_555
C12 C11 1_555 1_555
H9 C12 1_555 1_555
C13 C12 1_555 1_555
H10 C13 1_555 1_555
C14 C13 1_555 1_555
H11 C14 1_555 1_555
C15 C2 1_555 1_555
C16 C1 1_555 1_555
C17 C16 1_555 1_555
H12 C17 1_555 1_555
C18 C17 1_555 1_555
H13 C18 1_555 1_555
C19 C18 1_555 1_555
H14 C19 1_555 1_555
C20 C19 1_555 1_555
H15 C20 1_555 1_555
C21 C2 1_555 1_555
C3 C8 1_555 1_555
C7 C8 1_555 1_555
C10 C15 1_555 1_555
C14 C15 1_555 1_555
C16 C21 1_555 1_555
C20 C21 1_555 1_555

#END
