
#######################################################################
#
#                 Cambridge Crystallographic Data Centre
#                                CCDC 
#
#######################################################################
#
# If this CIF has been generated from an entry in the Cambridge 
# Structural Database, then it will include bibliographic, chemical, 
# crystal, experimental, refinement or atomic coordinate data resulting 
# from the CCDC's data processing and validation procedures.
#
#######################################################################

data_AZOMIL
_chemical_formula_moiety         'C60 H72 N4 O6'
_chemical_name_systematic        
5,11,17,23-Tetra-t-butyl-25,27-bis(2-(N-(pyrid-3-ylcarbonyl)amino)ethoxy)-26,28-dihydroxycalix(4)arene
_symmetry_cell_setting           triclinic
_symmetry_space_group_name_H-M   'P -1'
_symmetry_Int_Tables_number      2
_space_group_name_Hall           '-P 1'
loop_
_symmetry_equiv_pos_site_id
_symmetry_equiv_pos_as_xyz
1 x,y,z
2 -x,-y,-z
_cell_length_a                   10.158(4)
_cell_length_b                   13.317(4)
_cell_length_c                   19.899(6)
_cell_angle_alpha                94.811(6)
_cell_angle_beta                 97.347(6)
_cell_angle_gamma                94.218(4)
_cell_volume                     2650.62
_chemical_melting_point          '270-272 deg.C'
_cell_formula_units_Z            2
_exptl_crystal_recrystallization_method methanol
loop_
_atom_site_label
_atom_site_type_symbol
_atom_site_fract_x
_atom_site_fract_y
_atom_site_fract_z
N1 N 0.3980(3) 0.8541(2) 0.03288(15)
H1 H 0.3197 0.8744 0.0337
N2 N 0.5640(5) 1.1675(3) 0.1624(3)
N3 N 0.9083(3) 0.8905(2) 0.05940(14)
H2 H 0.8234 0.8799 0.0482
N4 N 0.9400(6) 0.5716(4) -0.0662(2)
O1 O 0.6379(2) 0.85282(18) 0.20817(12)
H3 H 0.7179 0.8692 0.2103
O2 O 0.4897(2) 0.69250(17) 0.10714(12)
O3 O 0.7761(2) 0.67986(16) 0.13727(12)
H4 H 0.6945 0.6765 0.1304
O4 O 0.9072(2) 0.88561(17) 0.19725(12)
O5 O 0.6177(3) 0.9016(2) 0.05240(14)
O6 O 1.1083(3) 0.8446(2) 0.04029(15)
C1 C 0.8905(3) 0.9054(2) 0.31579(18)
C2 C 0.8128(4) 0.9969(3) 0.3060(2)
H5 H 0.8290 1.0227 0.2633
H6 H 0.8463 1.0493 0.3423
C3 C 0.6629(3) 0.9767(2) 0.30527(18)
C4 C 0.5975(4) 1.0327(3) 0.35084(18)
H7 H 0.6479 1.0806 0.3823
C5 C 0.4611(4) 1.0206(3) 0.35168(19)
C6 C 0.3910(4) 0.9441(3) 0.30584(19)
H8 H 0.3000 0.9316 0.3066
C7 C 0.4501(3) 0.8867(3) 0.25971(18)
C8 C 0.3728(3) 0.8077(3) 0.2095(2)
H9 H 0.3830 0.8249 0.1639
H10 H 0.2791 0.8080 0.2145
C9 C 0.4153(3) 0.7029(3) 0.21729(19)
C10 C 0.4111(3) 0.6612(3) 0.27822(19)
H11 H 0.3739 0.6966 0.3123
C11 C 0.4598(4) 0.5688(3) 0.29117(19)
C12 C 0.5095(4) 0.5165(3) 0.2377(2)
H12 H 0.5391 0.4531 0.2440
C13 C 0.5169(3) 0.5549(2) 0.17538(18)
C14 C 0.5900(3) 0.5013(3) 0.12393(18)
H13 H 0.5823 0.5349 0.0824
H14 H 0.5517 0.4321 0.1131
C15 C 0.7346(3) 0.5027(2) 0.15341(17)
C16 C 0.7848(4) 0.4191(3) 0.17983(18)
H15 H 0.7307 0.3587 0.1740
C17 C 0.9118(4) 0.4204(3) 0.2147(2)
C18 C 0.9885(4) 0.5113(3) 0.22232(18)
H16 H 1.0744 0.5145 0.2455
C19 C 0.9436(3) 0.5981(2) 0.19699(17)
C20 C 1.0298(3) 0.6966(3) 0.20881(19)
H17 H 1.0174 0.7323 0.1683
H18 H 1.1226 0.6825 0.2167
C21 C 0.9978(3) 0.7636(3) 0.26897(18)
C22 C 1.0210(4) 0.7334(3) 0.33369(19)
H19 H 1.0645 0.6750 0.3396
C23 C 0.9830(4) 0.7856(3) 0.39067(19)
C24 C 0.9152(4) 0.8710(3) 0.3793(2)
H20 H 0.8854 0.9063 0.4159
C25 C 0.9356(3) 0.8519(3) 0.26155(18)
C26 C 0.5879(3) 0.9069(2) 0.25843(18)
C27 C 0.4679(3) 0.6477(3) 0.16639(18)
C28 C 0.8160(3) 0.5933(2) 0.16234(17)
C29 C 1.0123(5) 0.7504(4) 0.4608(2)
C30 C 0.9211(18) 0.6784(14) 0.4718(6)
H21 H 0.9109 0.6255 0.4352
H22 H 0.8375 0.7068 0.4742
H23 H 0.9494 0.6511 0.5139
C31 C 1.0067(18) 0.8291(10) 0.5144(4)
H24 H 1.0250 0.8026 0.5577
H25 H 0.9195 0.8531 0.5100
H26 H 1.0719 0.8838 0.5112
C32 C 1.1377(13) 0.7198(14) 0.4755(4)
H27 H 1.1467 0.6601 0.4465
H28 H 1.1521 0.7054 0.5222
H29 H 1.2024 0.7727 0.4681
C33 C 0.3861(4) 1.0870(3) 0.3962(2)
C34 C 0.2895(6) 1.1412(4) 0.3515(3)
H30 H 0.2289 1.0926 0.3224
H31 H 0.3375 1.1831 0.3243
H32 H 0.2403 1.1826 0.3794
C35 C 0.3134(6) 1.0231(5) 0.4417(3)
H33 H 0.2536 0.9722 0.4142
H34 H 0.2638 1.0654 0.4688
H35 H 0.3769 0.9913 0.4711
C36 C 0.4792(6) 1.1681(4) 0.4426(3)
H36 H 0.5268 1.2100 0.4151
H37 H 0.5415 1.1359 0.4723
H38 H 0.4274 1.2091 0.4692
C37 C 0.4712(5) 0.5319(3) 0.3611(2)
C38 C 0.5047(14) 0.4309(7) 0.3637(4)
H39 H 0.5874 0.4237 0.3459
H40 H 0.4357 0.3860 0.3369
H41 H 0.5138 0.4145 0.4101
C39 C 0.3454(9) 0.5386(10) 0.3901(4)
H42 H 0.3552 0.5150 0.4346
H43 H 0.2754 0.4974 0.3612
H44 H 0.3236 0.6076 0.3934
C40 C 0.5666(13) 0.5975(9) 0.4055(4)
H45 H 0.6516 0.5966 0.3892
H46 H 0.5737 0.5752 0.4503
H47 H 0.5392 0.6650 0.4069
C41 C 0.9619(5) 0.3262(3) 0.2444(3)
C42 C 1.1063(9) 0.3331(7) 0.2580(9)
H48 H 1.1343 0.2725 0.2765
H49 H 1.1371 0.3904 0.2902
H50 H 1.1431 0.3409 0.2165
C43 C 0.9230(7) 0.2336(4) 0.1967(4)
H51 H 0.8277 0.2221 0.1887
H52 H 0.9599 0.1766 0.2162
H53 H 0.9565 0.2423 0.1544
C44 C 0.9029(18) 0.3126(8) 0.3052(4)
H54 H 0.8077 0.3110 0.2951
H55 H 0.9348 0.3677 0.3390
H56 H 0.9266 0.2500 0.3222
C45 C 0.3850(4) 0.6757(3) 0.05172(18)
H57 H 0.2997 0.6827 0.0679
H58 H 0.3843 0.6080 0.0295
C46 C 0.4087(4) 0.7523(3) 0.00293(18)
H59 H 0.4968 0.7477 -0.0104
H60 H 0.3441 0.7379 -0.0377
C47 C 0.5020(4) 0.9171(3) 0.05901(18)
C48 C 0.4717(4) 1.0116(3) 0.09862(18)
C49 C 0.3482(4) 1.0345(3) 0.1095(3)
H61 H 0.2742 0.9908 0.0913
C50 C 0.3325(6) 1.1227(4) 0.1477(3)
H62 H 0.2482 1.1388 0.1560
C51 C 0.4407(7) 1.1855(4) 0.1727(3)
H63 H 0.4286 1.2447 0.1986
C52 C 0.5752(5) 1.0792(4) 0.1272(3)
H64 H 0.6608 1.0625 0.1218
C53 C 1.0119(3) 0.9459(2) 0.17502(18)
H65 H 1.0888 0.9075 0.1720
H66 H 1.0383 1.0053 0.2069
C54 C 0.9607(4) 0.9763(3) 0.10670(19)
H67 H 0.8911 1.0215 0.1115
H68 H 1.0323 1.0129 0.0886
C55 C 0.9866(4) 0.8273(3) 0.03256(19)
C56 C 0.9218(4) 0.7337(3) -0.00826(18)
C57 C 0.7889(4) 0.7156(4) -0.0266(3)
H69 H 0.7355 0.7651 -0.0129
C58 C 0.7291(4) 0.6339(4) -0.0622(3)
H70 H 0.6369 0.6258 -0.0731
C59 C 0.8031(6) 0.5649(4) -0.0814(3)
H71 H 0.7614 0.5070 -0.1072
C60 C 0.9995(4) 0.6593(3) -0.0281(2)
H72 H 1.0914 0.6676 -0.0162
loop_
_geom_bond_atom_site_label_1
_geom_bond_atom_site_label_2
_geom_bond_site_symmetry_1
_geom_bond_site_symmetry_2
N1 H1 1_555 1_555
N2 C51 1_555 1_555
N3 H2 1_555 1_555
N4 C59 1_555 1_555
O1 H3 1_555 1_555
O2 C27 1_555 1_555
O3 H4 1_555 1_555
O4 C25 1_555 1_555
O5 C47 1_555 1_555
O6 C55 1_555 1_555
C1 C2 1_555 1_555
C2 H5 1_555 1_555
H6 C2 1_555 1_555
C3 C2 1_555 1_555
C4 C3 1_555 1_555
H7 C4 1_555 1_555
C5 C4 1_555 1_555
C6 C5 1_555 1_555
H8 C6 1_555 1_555
C7 C6 1_555 1_555
C8 C7 1_555 1_555
H9 C8 1_555 1_555
H10 C8 1_555 1_555
C9 C8 1_555 1_555
C10 C9 1_555 1_555
H11 C10 1_555 1_555
C11 C10 1_555 1_555
C12 C11 1_555 1_555
H12 C12 1_555 1_555
C13 C12 1_555 1_555
C14 C13 1_555 1_555
H13 C14 1_555 1_555
H14 C14 1_555 1_555
C15 C14 1_555 1_555
C16 C15 1_555 1_555
H15 C16 1_555 1_555
C17 C16 1_555 1_555
C18 C17 1_555 1_555
H16 C18 1_555 1_555
C19 C18 1_555 1_555
C20 C19 1_555 1_555
H17 C20 1_555 1_555
H18 C20 1_555 1_555
C21 C20 1_555 1_555
C22 C21 1_555 1_555
H19 C22 1_555 1_555
C23 C22 1_555 1_555
C24 C1 1_555 1_555
H20 C24 1_555 1_555
C25 C1 1_555 1_555
C26 O1 1_555 1_555
C27 C9 1_555 1_555
C28 O3 1_555 1_555
C29 C23 1_555 1_555
C30 C29 1_555 1_555
H21 C30 1_555 1_555
H22 C30 1_555 1_555
H23 C30 1_555 1_555
C31 C29 1_555 1_555
H24 C31 1_555 1_555
H25 C31 1_555 1_555
H26 C31 1_555 1_555
C32 C29 1_555 1_555
H27 C32 1_555 1_555
H28 C32 1_555 1_555
H29 C32 1_555 1_555
C33 C5 1_555 1_555
C34 C33 1_555 1_555
H30 C34 1_555 1_555
H31 C34 1_555 1_555
H32 C34 1_555 1_555
C35 C33 1_555 1_555
H33 C35 1_555 1_555
H34 C35 1_555 1_555
H35 C35 1_555 1_555
C36 C33 1_555 1_555
H36 C36 1_555 1_555
H37 C36 1_555 1_555
H38 C36 1_555 1_555
C37 C11 1_555 1_555
C38 C37 1_555 1_555
H39 C38 1_555 1_555
H40 C38 1_555 1_555
H41 C38 1_555 1_555
C39 C37 1_555 1_555
H42 C39 1_555 1_555
H43 C39 1_555 1_555
H44 C39 1_555 1_555
C40 C37 1_555 1_555
H45 C40 1_555 1_555
H46 C40 1_555 1_555
H47 C40 1_555 1_555
C41 C17 1_555 1_555
C42 C41 1_555 1_555
H48 C42 1_555 1_555
H49 C42 1_555 1_555
H50 C42 1_555 1_555
C43 C41 1_555 1_555
H51 C43 1_555 1_555
H52 C43 1_555 1_555
H53 C43 1_555 1_555
C44 C41 1_555 1_555
H54 C44 1_555 1_555
H55 C44 1_555 1_555
H56 C44 1_555 1_555
C45 O2 1_555 1_555
H57 C45 1_555 1_555
H58 C45 1_555 1_555
C46 N1 1_555 1_555
H59 C46 1_555 1_555
H60 C46 1_555 1_555
C47 N1 1_555 1_555
C48 C47 1_555 1_555
C49 C48 1_555 1_555
H61 C49 1_555 1_555
C50 C49 1_555 1_555
H62 C50 1_555 1_555
C51 C50 1_555 1_555
H63 C51 1_555 1_555
C52 N2 1_555 1_555
H64 C52 1_555 1_555
C53 O4 1_555 1_555
H65 C53 1_555 1_555
H66 C53 1_555 1_555
C54 N3 1_555 1_555
H67 C54 1_555 1_555
H68 C54 1_555 1_555
C55 N3 1_555 1_555
C56 C55 1_555 1_555
C57 C56 1_555 1_555
H69 C57 1_555 1_555
C58 C57 1_555 1_555
H70 C58 1_555 1_555
C59 C58 1_555 1_555
H71 C59 1_555 1_555
C60 N4 1_555 1_555
H72 C60 1_555 1_555
C3 C26 1_555 1_555
C7 C26 1_555 1_555
C13 C27 1_555 1_555
C15 C28 1_555 1_555
C19 C28 1_555 1_555
C21 C25 1_555 1_555
C23 C24 1_555 1_555
C45 C46 1_555 1_555
C48 C52 1_555 1_555
C53 C54 1_555 1_555
C56 C60 1_555 1_555

#END
