
#######################################################################
#
#                 Cambridge Crystallographic Data Centre
#                                CCDC 
#
#######################################################################
#
# If this CIF has been generated from an entry in the Cambridge 
# Structural Database, then it will include bibliographic, chemical, 
# crystal, experimental, refinement or atomic coordinate data resulting 
# from the CCDC's data processing and validation procedures.
#
#######################################################################

data_AZONOT
_chemical_formula_moiety         'C8 H8 N4 2+,2(I3 1-),2(C8 H6 N4),2(H2 O1)'
_chemical_name_systematic        
"2,2'-Bipyrimidine-1,1'-diium bis(tri-iodide) 2,2'-bipyrimidine solvate dihydrate"
_symmetry_cell_setting           triclinic
_symmetry_space_group_name_H-M   'P -1'
_symmetry_Int_Tables_number      2
_space_group_name_Hall           '-P 1'
loop_
_symmetry_equiv_pos_site_id
_symmetry_equiv_pos_as_xyz
1 x,y,z
2 -x,-y,-z
_cell_length_a                   8.964(2)
_cell_length_b                   9.013(2)
_cell_length_c                   12.112(3)
_cell_angle_alpha                77.265(5)
_cell_angle_beta                 76.881(5)
_cell_angle_gamma                76.287(4)
_cell_volume                     911.381
_exptl_crystal_colour            red-brown
_exptl_crystal_description       block
_cell_formula_units_Z            1
loop_
_atom_site_label
_atom_site_type_symbol
_atom_site_fract_x
_atom_site_fract_y
_atom_site_fract_z
I1 I 1.0000 0.0000 0.0000
I2 I 0.74916(11) 0.26620(10) 0.03957(9)
I2A I 1.25084(11) -0.26620(10) -0.03957(9)
I3 I 0.0000 0.5000 0.5000
I4 I 0.11198(10) 0.59729(11) 0.67614(7)
I4A I -0.11198(10) 0.40271(11) 0.32386(7)
N1 N 0.3970(10) 0.1722(10) -0.0778(7)
H1 H 0.4476 0.1641 -0.1482
N2 N 0.3607(9) 0.0652(9) 0.1209(7)
C1 C 0.2819(12) 0.2904(12) -0.0578(9)
H2 H 0.2550 0.3689 -0.1207
C2 C 0.1989(12) 0.3036(12) 0.0521(9)
H3 H 0.1168 0.3895 0.0664
C3 C 0.2421(12) 0.1847(12) 0.1401(9)
H4 H 0.1859 0.1880 0.2165
C4 C 0.4339(11) 0.0663(11) 0.0113(9)
N1A N 0.6030(10) -0.1722(10) 0.0778(7)
H1A H 0.5524 -0.1641 0.1482
N2A N 0.6393(9) -0.0652(9) -0.1209(7)
C1A C 0.7181(12) -0.2904(12) 0.0578(9)
H2A H 0.7450 -0.3689 0.1207
C2A C 0.8011(12) -0.3036(12) -0.0521(9)
H3A H 0.8832 -0.3895 -0.0664
C3A C 0.7579(12) -0.1847(12) -0.1401(9)
H4A H 0.8141 -0.1880 -0.2165
C4A C 0.5661(11) -0.0663(11) -0.0113(9)
N3 N 0.4427(9) 0.6152(9) 0.3680(7)
N4 N 0.4734(10) 0.3448(10) 0.4394(7)
C5 C 0.4007(12) 0.5968(13) 0.2747(8)
H5 H 0.3729 0.6850 0.2184
C6 C 0.3968(13) 0.4517(14) 0.2580(9)
H6 H 0.3698 0.4370 0.1903
C7 C 0.4334(14) 0.3302(13) 0.3431(10)
H7 H 0.4303 0.2292 0.3335
C8 C 0.4744(11) 0.4879(11) 0.4473(8)
N3A N 0.5573(9) 0.3848(9) 0.6320(7)
N4A N 0.5266(10) 0.6552(10) 0.5606(7)
C5A C 0.5993(12) 0.4032(13) 0.7253(8)
H5A H 0.6271 0.3150 0.7816
C6A C 0.6032(13) 0.5483(14) 0.7420(9)
H6A H 0.6302 0.5630 0.8097
C7A C 0.5666(14) 0.6698(13) 0.6569(10)
H7A H 0.5697 0.7708 0.6665
C8A C 0.5256(11) 0.5121(11) 0.5527(8)
N5 N 0.1907(9) 0.0208(9) 0.5125(7)
N6 N -0.0604(10) 0.0811(10) 0.6308(7)
C9 C 0.2583(12) 0.0653(12) 0.5860(9)
H8 H 0.3679 0.0607 0.5701
C10 C 0.1691(12) 0.1169(12) 0.6831(8)
H9 H 0.2159 0.1437 0.7371
C11 C 0.0077(13) 0.1291(13) 0.7005(8)
H10 H -0.0562 0.1729 0.7641
C12 C 0.0361(12) 0.0280(11) 0.5389(8)
N5A N -0.1907(9) -0.0208(9) 0.4875(7)
N6A N 0.0604(10) -0.0811(10) 0.3692(7)
C9A C -0.2583(12) -0.0653(12) 0.4140(9)
H8A H -0.3679 -0.0607 0.4299
C10A C -0.1691(12) -0.1169(12) 0.3169(8)
H9A H -0.2159 -0.1437 0.2629
C11A C -0.0077(13) -0.1291(13) 0.2995(8)
H10A H 0.0562 -0.1729 0.2359
C12A C -0.0361(12) -0.0280(11) 0.4611(8)
O1 O 0.5739(8) 0.0741(8) 0.6568(6)
H11 H 0.5705 0.1700 0.6472
H12 H 0.6249 0.0175 0.7061
loop_
_geom_bond_atom_site_label_1
_geom_bond_atom_site_label_2
_geom_bond_site_symmetry_1
_geom_bond_site_symmetry_2
I1 I2 1_555 1_555
I3 I4 1_555 1_555
N1 H1 1_555 1_555
N2 C3 1_555 1_555
N3 C5 1_555 1_555
N4 C7 1_555 1_555
N5 C9 1_555 1_555
N6 C11 1_555 1_555
C1 N1 1_555 1_555
H2 C1 1_555 1_555
C2 C1 1_555 1_555
H3 C2 1_555 1_555
C3 C2 1_555 1_555
H4 C3 1_555 1_555
C4 N1 1_555 1_555
C5 H5 1_555 1_555
C6 C5 1_555 1_555
H6 C6 1_555 1_555
C7 C6 1_555 1_555
H7 C7 1_555 1_555
C8 N3 1_555 1_555
C9 H8 1_555 1_555
C10 C9 1_555 1_555
H9 C10 1_555 1_555
C11 C10 1_555 1_555
H10 C11 1_555 1_555
C12 N5 1_555 1_555
O1 H11 1_555 1_555
H12 O1 1_555 1_555
I2A I1 1_555 1_555
I4A I3 1_555 1_555
N1A H1A 1_555 1_555
N2A C3A 1_555 1_555
N3A C5A 1_555 1_555
N4A C7A 1_555 1_555
N5A C9A 1_555 1_555
N6A C11A 1_555 1_555
C1A N1A 1_555 1_555
H2A C1A 1_555 1_555
C2A C1A 1_555 1_555
H3A C2A 1_555 1_555
C3A C2A 1_555 1_555
H4A C3A 1_555 1_555
C4A C4 1_555 1_555
C5A H5A 1_555 1_555
C6A C5A 1_555 1_555
H6A C6A 1_555 1_555
C7A C6A 1_555 1_555
H7A C7A 1_555 1_555
C8A C8 1_555 1_555
C9A H8A 1_555 1_555
C10A C9A 1_555 1_555
H9A C10A 1_555 1_555
C11A C10A 1_555 1_555
H10A C11A 1_555 1_555
C12A C12 1_555 1_555
N2 C4 1_555 1_555
N4 C8 1_555 1_555
N6 C12 1_555 1_555
N1A C4A 1_555 1_555
N2A C4A 1_555 1_555
N3A C8A 1_555 1_555
N4A C8A 1_555 1_555
N5A C12A 1_555 1_555
N6A C12A 1_555 1_555

#END
