
#######################################################################
#
#                 Cambridge Crystallographic Data Centre
#                                CCDC 
#
#######################################################################
#
# If this CIF has been generated from an entry in the Cambridge 
# Structural Database, then it will include bibliographic, chemical, 
# crystal, experimental, refinement or atomic coordinate data resulting 
# from the CCDC's data processing and validation procedures.
#
#######################################################################

data_AZOPOV
_chemical_name_common            
4,6,10,12,16,18,22,24-Octa-O-methyl-2,8,14,20-tetrapentylresorcin[4]arene
_chemical_formula_moiety         'C56 H80 O8'
_chemical_name_systematic        
4,6,10,12,16,18,22,24-Octamethoxy-2,8,14,20-tetrapentylpentacyclo[19.3.1.1^3,7^.1^9,13^.1^15,19^]octacosa-1(25),3(28),4,6,9(27),10,12,15(26),16,18,21,23-dodecaene
_symmetry_cell_setting           triclinic
_symmetry_space_group_name_H-M   'P -1'
_symmetry_Int_Tables_number      2
_space_group_name_Hall           '-P 1'
loop_
_symmetry_equiv_pos_site_id
_symmetry_equiv_pos_as_xyz
1 x,y,z
2 -x,-y,-z
_cell_length_a                   8.2084(2)
_cell_length_b                   14.1270(2)
_cell_length_c                   23.1489(4)
_cell_angle_alpha                98.9290(10)
_cell_angle_beta                 97.9140(10)
_cell_angle_gamma                103.5810(10)
_cell_volume                     2534.93
_exptl_crystal_colour            colorless
_exptl_crystal_description       plate
_chemical_melting_point          516-519K
_cell_formula_units_Z            2
loop_
_atom_site_label
_atom_site_type_symbol
_atom_site_fract_x
_atom_site_fract_y
_atom_site_fract_z
C1 C 0.57192(19) 0.04899(10) -0.06674(6)
H1 H 0.4525 0.0246 -0.0692
C2 C 0.65461(18) 0.00564(10) -0.10787(6)
C3 C 0.82972(18) 0.04165(10) -0.10628(6)
C4 C 0.91774(18) 0.11977(10) -0.05978(6)
H2 H 1.0373 0.1438 -0.0571
C5 C 0.84136(19) 0.16501(10) -0.01687(6)
C6 C 0.66495(19) 0.12805(10) -0.02208(6)
C7 C 0.9370(2) 0.25271(10) 0.03240(6)
H3 H 0.8554 0.2941 0.0391
C8 C 1.03311(19) 0.26193(10) 0.19982(6)
H4 H 1.0392 0.3073 0.2354
C9 C 0.99799(19) 0.28811(10) 0.14464(6)
C10 C 0.98417(18) 0.22153(10) 0.09158(6)
C11 C 1.01599(18) 0.13015(10) 0.09603(6)
H5 H 1.0101 0.0848 0.0604
C12 C 1.05618(18) 0.10183(10) 0.15035(6)
C13 C 1.05902(18) 0.16881(10) 0.20215(6)
C14 C 1.08814(17) 0.00129(10) 0.15609(6)
H6 H 1.1731 0.0135 0.1936
C15 C 0.3894(2) -0.10994(12) -0.15630(7)
H7 H 0.3671 -0.1293 -0.1187
H8 H 0.3444 -0.1677 -0.1888
H9 H 0.3336 -0.0577 -0.1637
C16 C 0.4127(2) 0.16205(13) 0.00749(8)
H10 H 0.3828 0.1829 -0.0301
H11 H 0.3788 0.2029 0.0396
H12 H 0.3531 0.0921 0.0043
C17 C 1.0271(3) 0.45754(13) 0.18855(9)
H13 H 0.9504 0.4463 0.2172
H14 H 1.0256 0.5204 0.1758
H15 H 1.1432 0.4604 0.2073
C18 C 1.0755(2) 0.19585(11) 0.30801(7)
H16 H 1.1562 0.2614 0.3144
H17 H 1.1003 0.1636 0.3415
H18 H 0.9591 0.2034 0.3049
C19 C 1.0918(2) 0.32067(11) 0.01602(7)
H19 H 1.1528 0.3718 0.0515
H20 H 1.1707 0.2808 0.0045
C20 C 1.0443(3) 0.37200(13) -0.03473(8)
H21 H 0.9915 0.3207 -0.0710
H22 H 0.9576 0.4069 -0.0245
C21 C 1.1938(3) 0.44644(15) -0.04869(10)
H23 H 1.1493 0.4820 -0.0783
H24 H 1.2496 0.4961 -0.0120
C22 C 1.3244(4) 0.40150(18) -0.07211(12)
H25 H 1.2664 0.3424 -0.1035
H26 H 1.3876 0.3791 -0.0396
C23 C 1.4507(4) 0.4738(2) -0.09782(13)
H27 H 1.3920 0.4874 -0.1342
H28 H 1.5432 0.4444 -0.1071
H29 H 1.4979 0.5359 -0.0687
C24 C 0.92534(19) -0.07005(10) 0.16585(7)
H30 H 0.8710 -0.0325 0.1937
H31 H 0.8449 -0.0933 0.1274
C25 C 0.9520(2) -0.16053(11) 0.19023(8)
H32 H 0.8401 -0.2095 0.1847
H33 H 1.0242 -0.1916 0.1666
C26 C 1.0343(3) -0.13830(14) 0.25552(9)
H34 H 0.9687 -0.1010 0.2787
H35 H 1.1510 -0.0948 0.2603
C27 C 1.0449(3) -0.22990(16) 0.28167(10)
H36 H 0.9287 -0.2744 0.2760
H37 H 1.1136 -0.2662 0.2595
C28 C 1.1227(4) -0.2061(2) 0.34712(12)
H38 H 1.2352 -0.1591 0.3535
H39 H 1.1344 -0.2672 0.3603
H40 H 1.0488 -0.1766 0.3700
O1 O 0.56951(13) -0.07364(7) -0.15298(4)
O2 O 0.59201(14) 0.17402(8) 0.02027(5)
O3 O 0.97265(16) 0.37925(8) 0.13885(5)
O4 O 1.09114(14) 0.13645(7) 0.25449(4)
C1A C 1.42808(19) -0.04899(10) 0.06674(6)
H1A H 1.5475 -0.0246 0.0692
C2A C 1.34539(18) -0.00564(10) 0.10787(6)
C3A C 1.17028(18) -0.04165(10) 0.10628(6)
C4A C 1.08226(18) -0.11977(10) 0.05978(6)
H2A H 0.9627 -0.1438 0.0571
C5A C 1.15864(19) -0.16501(10) 0.01687(6)
C6A C 1.33505(19) -0.12805(10) 0.02208(6)
C7A C 1.0630(2) -0.25271(10) -0.03240(6)
H3A H 1.1446 -0.2941 -0.0391
C8A C 0.96689(19) -0.26193(10) -0.19982(6)
H4A H 0.9608 -0.3073 -0.2354
C9A C 1.00201(19) -0.28811(10) -0.14464(6)
C10A C 1.01583(18) -0.22153(10) -0.09158(6)
C11A C 0.98401(18) -0.13015(10) -0.09603(6)
H5A H 0.9899 -0.0848 -0.0604
C12A C 0.94382(18) -0.10183(10) -0.15035(6)
C13A C 0.94098(18) -0.16881(10) -0.20215(6)
C14A C 0.91186(17) -0.00129(10) -0.15609(6)
H6A H 0.8269 -0.0135 -0.1936
C15A C 1.6106(2) 0.10994(12) 0.15630(7)
H7A H 1.6329 0.1293 0.1187
H8A H 1.6556 0.1677 0.1888
H9A H 1.6664 0.0577 0.1637
C16A C 1.5873(2) -0.16205(13) -0.00749(8)
H10A H 1.6172 -0.1829 0.0301
H11A H 1.6212 -0.2029 -0.0396
H12A H 1.6469 -0.0921 -0.0043
C17A C 0.9729(3) -0.45754(13) -0.18855(9)
H13A H 1.0496 -0.4463 -0.2172
H14A H 0.9744 -0.5204 -0.1758
H15A H 0.8568 -0.4604 -0.2073
C18A C 0.9245(2) -0.19585(11) -0.30801(7)
H16A H 0.8438 -0.2614 -0.3144
H17A H 0.8997 -0.1636 -0.3415
H18A H 1.0409 -0.2034 -0.3049
C19A C 0.9082(2) -0.32067(11) -0.01602(7)
H19A H 0.8472 -0.3718 -0.0515
H20A H 0.8293 -0.2808 -0.0045
C20A C 0.9557(3) -0.37200(13) 0.03473(8)
H21A H 1.0085 -0.3207 0.0710
H22A H 1.0424 -0.4069 0.0245
C21A C 0.8062(3) -0.44644(15) 0.04869(10)
H23A H 0.8507 -0.4820 0.0783
H24A H 0.7504 -0.4961 0.0120
C22A C 0.6756(4) -0.40150(18) 0.07211(12)
H25A H 0.7336 -0.3424 0.1035
H26A H 0.6124 -0.3791 0.0396
C23A C 0.5493(4) -0.4738(2) 0.09782(13)
H27A H 0.6080 -0.4874 0.1342
H28A H 0.4568 -0.4444 0.1071
H29A H 0.5021 -0.5359 0.0687
C24A C 1.07466(19) 0.07005(10) -0.16585(7)
H30A H 1.1290 0.0325 -0.1937
H31A H 1.1551 0.0933 -0.1274
C25A C 1.0480(2) 0.16053(11) -0.19023(8)
H32A H 1.1599 0.2095 -0.1847
H33A H 0.9758 0.1916 -0.1666
C26A C 0.9657(3) 0.13830(14) -0.25552(9)
H34A H 1.0313 0.1010 -0.2787
H35A H 0.8490 0.0948 -0.2603
C27A C 0.9551(3) 0.22990(16) -0.28167(10)
H36A H 1.0713 0.2744 -0.2760
H37A H 0.8864 0.2662 -0.2595
C28A C 0.8773(4) 0.2061(2) -0.34712(12)
H38A H 0.7648 0.1591 -0.3535
H39A H 0.8656 0.2672 -0.3603
H40A H 0.9512 0.1766 -0.3700
O1A O 1.43049(13) 0.07364(7) 0.15298(4)
O2A O 1.40799(14) -0.17402(8) -0.02027(5)
O3A O 1.02735(16) -0.37925(8) -0.13885(5)
O4A O 0.90886(14) -0.13645(7) -0.25449(4)
C29 C 0.92260(19) 0.44372(10) 0.56863(6)
H41 H 1.0429 0.4674 0.5734
C30 C 0.83704(18) 0.47882(9) 0.61160(6)
C31 C 0.66025(17) 0.44376(9) 0.60632(6)
C32 C 0.57479(18) 0.37462(9) 0.55514(6)
H42 H 0.4544 0.3515 0.5501
C33 C 0.65478(18) 0.33708(9) 0.51066(6)
C34 C 0.83149(18) 0.37388(10) 0.51865(6)
C35 C 0.56261(18) 0.25566(9) 0.45731(6)
H43 H 0.6422 0.2131 0.4502
C36 C 0.49061(18) 0.26418(10) 0.29213(6)
H44 H 0.4891 0.2221 0.2557
C37 C 0.52010(18) 0.23300(10) 0.34572(6)
C38 C 0.52755(18) 0.29423(10) 0.40005(6)
C39 C 0.49580(17) 0.38639(9) 0.39833(6)
H45 H 0.4980 0.4285 0.4348
C40 C 0.46084(17) 0.41983(9) 0.34553(6)
C41 C 0.46333(18) 0.35759(10) 0.29239(6)
C42 C 0.42842(17) 0.52173(9) 0.34370(6)
H46 H 0.3481 0.5141 0.3056
C43 C 1.0998(2) 0.58625(13) 0.66741(8)
H47 H 1.1532 0.5312 0.6683
H48 H 1.1440 0.6354 0.7044
H49 H 1.1260 0.6174 0.6336
C44 C 1.0860(2) 0.34697(12) 0.48723(7)
H50 H 1.1474 0.4175 0.4968
H51 H 1.1223 0.3140 0.4527
H52 H 1.1112 0.3161 0.5213
C45 C 0.5143(3) 0.07023(12) 0.29651(8)
H53 H 0.4027 0.0656 0.2731
H54 H 0.5165 0.0054 0.3062
H55 H 0.6034 0.0905 0.2734
C46 C 0.4490(2) 0.33674(11) 0.18674(6)
H56 H 0.5665 0.3314 0.1885
H57 H 0.4189 0.3690 0.1537
H58 H 0.3715 0.2702 0.1805
C47 C 0.39980(19) 0.18682(10) 0.46791(6)
H59 H 0.3190 0.2268 0.4771
H60 H 0.3461 0.1378 0.4308
C48 C 0.4288(2) 0.13113(10) 0.51825(7)
H61 H 0.5097 0.0912 0.5093
H62 H 0.4817 0.1799 0.5555
C49 C 0.2662(2) 0.06318(13) 0.52775(8)
H63 H 0.1814 0.1019 0.5330
H64 H 0.2189 0.0106 0.4918
C50 C 0.2925(2) 0.01513(13) 0.58115(8)
H65 H 0.3348 0.0677 0.6174
H66 H 0.3811 -0.0211 0.5767
C51 C 0.1312(3) -0.0566(2) 0.58920(13)
H67 H 0.0454 -0.0204 0.5964
H68 H 0.1572 -0.0875 0.6232
H69 H 0.0871 -0.1081 0.5532
C52 C 0.59415(19) 0.59643(10) 0.33991(6)
H70 H 0.6719 0.6113 0.3788
H71 H 0.6497 0.5646 0.3099
C53 C 0.5731(2) 0.69418(10) 0.32391(7)
H72 H 0.4973 0.7195 0.3486
H73 H 0.6857 0.7434 0.3340
C54 C 0.5003(3) 0.68609(13) 0.25889(8)
H74 H 0.3838 0.6412 0.2497
H75 H 0.5708 0.6556 0.2341
C55 C 0.4927(3) 0.78484(15) 0.24201(10)
H76 H 0.4229 0.8156 0.2669
H77 H 0.6093 0.8296 0.2509
C56 C 0.4189(4) 0.7761(2) 0.17737(12)
H78 H 0.4914 0.7498 0.1523
H79 H 0.4135 0.8418 0.1698
H80 H 0.3039 0.7312 0.1680
O5 O 0.91909(13) 0.54939(7) 0.66135(4)
O6 O 0.90743(13) 0.33729(8) 0.47391(4)
O7 O 0.54300(15) 0.14038(7) 0.34895(4)
O8 O 0.43475(14) 0.39443(7) 0.24128(4)
C29A C 0.07740(19) 0.55628(10) 0.43137(6)
H41A H -0.0429 0.5326 0.4266
C30A C 0.16296(18) 0.52118(9) 0.38840(6)
C31A C 0.33975(17) 0.55624(9) 0.39368(6)
C32A C 0.42521(18) 0.62538(9) 0.44486(6)
H42A H 0.5456 0.6485 0.4499
C33A C 0.34522(18) 0.66292(9) 0.48934(6)
C34A C 0.16851(18) 0.62612(10) 0.48135(6)
C35A C 0.43739(18) 0.74434(9) 0.54269(6)
H43A H 0.3578 0.7869 0.5498
C36A C 0.50939(18) 0.73582(10) 0.70787(6)
H44A H 0.5109 0.7779 0.7443
C37A C 0.47990(18) 0.76700(10) 0.65428(6)
C38A C 0.47245(18) 0.70577(10) 0.59995(6)
C39A C 0.50420(17) 0.61361(9) 0.60167(6)
H45A H 0.5020 0.5715 0.5652
C40A C 0.53916(17) 0.58017(9) 0.65447(6)
C41A C 0.53667(18) 0.64241(10) 0.70761(6)
C42A C 0.57158(17) 0.47827(9) 0.65630(6)
H46A H 0.6519 0.4859 0.6944
C43A C -0.0998(2) 0.41375(13) 0.33259(8)
H47A H -0.1532 0.4688 0.3317
H48A H -0.1440 0.3646 0.2956
H49A H -0.1260 0.3826 0.3664
C44A C -0.0860(2) 0.65303(12) 0.51277(7)
H50A H -0.1474 0.5825 0.5032
H51A H -0.1223 0.6860 0.5473
H52A H -0.1112 0.6839 0.4787
C45A C 0.4857(3) 0.92977(12) 0.70349(8)
H53A H 0.5973 0.9344 0.7269
H54A H 0.4835 0.9946 0.6938
H55A H 0.3966 0.9095 0.7266
C46A C 0.5510(2) 0.66326(11) 0.81326(6)
H56A H 0.4335 0.6686 0.8115
H57A H 0.5811 0.6310 0.8463
H58A H 0.6285 0.7298 0.8195
C47A C 0.60020(19) 0.81318(10) 0.53209(6)
H59A H 0.6810 0.7732 0.5229
H60A H 0.6539 0.8622 0.5692
C48A C 0.5712(2) 0.86887(10) 0.48175(7)
H61A H 0.4903 0.9088 0.4907
H62A H 0.5183 0.8201 0.4445
C49A C 0.7338(2) 0.93682(13) 0.47225(8)
H63A H 0.8186 0.8981 0.4670
H64A H 0.7811 0.9894 0.5082
C50A C 0.7075(2) 0.98487(13) 0.41885(8)
H65A H 0.6652 0.9323 0.3826
H66A H 0.6189 1.0211 0.4233
C51A C 0.8688(3) 1.0566(2) 0.41080(13)
H67A H 0.9546 1.0204 0.4036
H68A H 0.8428 1.0875 0.3768
H69A H 0.9129 1.1081 0.4468
C52A C 0.40585(19) 0.40357(10) 0.66009(6)
H70A H 0.3281 0.3887 0.6212
H71A H 0.3503 0.4354 0.6901
C53A C 0.4269(2) 0.30582(10) 0.67609(7)
H72A H 0.5027 0.2805 0.6514
H73A H 0.3143 0.2566 0.6660
C54A C 0.4997(3) 0.31391(13) 0.74111(8)
H74A H 0.6162 0.3588 0.7503
H75A H 0.4292 0.3444 0.7659
C55A C 0.5073(3) 0.21516(15) 0.75799(10)
H76A H 0.5771 0.1844 0.7331
H77A H 0.3907 0.1704 0.7491
C56A C 0.5811(4) 0.2239(2) 0.82263(12)
H78A H 0.5086 0.2502 0.8477
H79A H 0.5865 0.1582 0.8302
H80A H 0.6961 0.2688 0.8320
O5A O 0.08091(13) 0.45061(7) 0.33865(4)
O6A O 0.09257(13) 0.66271(8) 0.52609(4)
O7A O 0.45700(15) 0.85962(7) 0.65105(4)
O8A O 0.56525(14) 0.60557(7) 0.75872(4)
loop_
_geom_bond_atom_site_label_1
_geom_bond_atom_site_label_2
_geom_bond_site_symmetry_1
_geom_bond_site_symmetry_2
C1 H1 1_555 1_555
C2 C1 1_555 1_555
C3 C2 1_555 1_555
C4 C3 1_555 1_555
H2 C4 1_555 1_555
C5 C4 1_555 1_555
C6 C1 1_555 1_555
C7 C5 1_555 1_555
H3 C7 1_555 1_555
C8 H4 1_555 1_555
C9 C8 1_555 1_555
C10 C7 1_555 1_555
C11 C10 1_555 1_555
H5 C11 1_555 1_555
C12 C11 1_555 1_555
C13 C8 1_555 1_555
C14 C12 1_555 1_555
H6 C14 1_555 1_555
C15 H7 1_555 1_555
H8 C15 1_555 1_555
H9 C15 1_555 1_555
C16 H10 1_555 1_555
H11 C16 1_555 1_555
H12 C16 1_555 1_555
C17 H13 1_555 1_555
H14 C17 1_555 1_555
H15 C17 1_555 1_555
C18 H16 1_555 1_555
H17 C18 1_555 1_555
H18 C18 1_555 1_555
C19 C7 1_555 1_555
H19 C19 1_555 1_555
H20 C19 1_555 1_555
C20 C19 1_555 1_555
H21 C20 1_555 1_555
H22 C20 1_555 1_555
C21 C20 1_555 1_555
H23 C21 1_555 1_555
H24 C21 1_555 1_555
C22 C21 1_555 1_555
H25 C22 1_555 1_555
H26 C22 1_555 1_555
C23 C22 1_555 1_555
H27 C23 1_555 1_555
H28 C23 1_555 1_555
H29 C23 1_555 1_555
C24 C14 1_555 1_555
H30 C24 1_555 1_555
H31 C24 1_555 1_555
C25 C24 1_555 1_555
H32 C25 1_555 1_555
H33 C25 1_555 1_555
C26 C25 1_555 1_555
H34 C26 1_555 1_555
H35 C26 1_555 1_555
C27 C26 1_555 1_555
H36 C27 1_555 1_555
H37 C27 1_555 1_555
C28 C27 1_555 1_555
H38 C28 1_555 1_555
H39 C28 1_555 1_555
H40 C28 1_555 1_555
O1 C2 1_555 1_555
O2 C6 1_555 1_555
O3 C9 1_555 1_555
O4 C13 1_555 1_555
C29 H41 1_555 1_555
C30 C29 1_555 1_555
C31 C30 1_555 1_555
C32 C31 1_555 1_555
H42 C32 1_555 1_555
C33 C32 1_555 1_555
C34 C29 1_555 1_555
C35 C33 1_555 1_555
H43 C35 1_555 1_555
C36 H44 1_555 1_555
C37 C36 1_555 1_555
C38 C35 1_555 1_555
C39 C38 1_555 1_555
H45 C39 1_555 1_555
C40 C39 1_555 1_555
C41 C36 1_555 1_555
C42 C40 1_555 1_555
H46 C42 1_555 1_555
C43 H47 1_555 1_555
H48 C43 1_555 1_555
H49 C43 1_555 1_555
C44 H50 1_555 1_555
H51 C44 1_555 1_555
H52 C44 1_555 1_555
C45 H53 1_555 1_555
H54 C45 1_555 1_555
H55 C45 1_555 1_555
C46 H56 1_555 1_555
H57 C46 1_555 1_555
H58 C46 1_555 1_555
C47 C35 1_555 1_555
H59 C47 1_555 1_555
H60 C47 1_555 1_555
C48 C47 1_555 1_555
H61 C48 1_555 1_555
H62 C48 1_555 1_555
C49 C48 1_555 1_555
H63 C49 1_555 1_555
H64 C49 1_555 1_555
C50 C49 1_555 1_555
H65 C50 1_555 1_555
H66 C50 1_555 1_555
C51 C50 1_555 1_555
H67 C51 1_555 1_555
H68 C51 1_555 1_555
H69 C51 1_555 1_555
C52 C42 1_555 1_555
H70 C52 1_555 1_555
H71 C52 1_555 1_555
C53 C52 1_555 1_555
H72 C53 1_555 1_555
H73 C53 1_555 1_555
C54 C53 1_555 1_555
H74 C54 1_555 1_555
H75 C54 1_555 1_555
C55 C54 1_555 1_555
H76 C55 1_555 1_555
H77 C55 1_555 1_555
C56 C55 1_555 1_555
H78 C56 1_555 1_555
H79 C56 1_555 1_555
H80 C56 1_555 1_555
O5 C30 1_555 1_555
O6 C34 1_555 1_555
O7 C37 1_555 1_555
O8 C41 1_555 1_555
C1A H1A 1_555 1_555
C2A C1A 1_555 1_555
C3A C14 1_555 1_555
C4A C3A 1_555 1_555
H2A C4A 1_555 1_555
C5A C4A 1_555 1_555
C6A C1A 1_555 1_555
C7A C5A 1_555 1_555
H3A C7A 1_555 1_555
C8A H4A 1_555 1_555
C9A C8A 1_555 1_555
C10A C7A 1_555 1_555
C11A C10A 1_555 1_555
H5A C11A 1_555 1_555
C12A C11A 1_555 1_555
C13A C8A 1_555 1_555
C14A C3 1_555 1_555
H6A C14A 1_555 1_555
C15A H7A 1_555 1_555
H8A C15A 1_555 1_555
H9A C15A 1_555 1_555
C16A H10A 1_555 1_555
H11A C16A 1_555 1_555
H12A C16A 1_555 1_555
C17A H13A 1_555 1_555
H14A C17A 1_555 1_555
H15A C17A 1_555 1_555
C18A H16A 1_555 1_555
H17A C18A 1_555 1_555
H18A C18A 1_555 1_555
C19A C7A 1_555 1_555
H19A C19A 1_555 1_555
H20A C19A 1_555 1_555
C20A C19A 1_555 1_555
H21A C20A 1_555 1_555
H22A C20A 1_555 1_555
C21A C20A 1_555 1_555
H23A C21A 1_555 1_555
H24A C21A 1_555 1_555
C22A C21A 1_555 1_555
H25A C22A 1_555 1_555
H26A C22A 1_555 1_555
C23A C22A 1_555 1_555
H27A C23A 1_555 1_555
H28A C23A 1_555 1_555
H29A C23A 1_555 1_555
C24A C14A 1_555 1_555
H30A C24A 1_555 1_555
H31A C24A 1_555 1_555
C25A C24A 1_555 1_555
H32A C25A 1_555 1_555
H33A C25A 1_555 1_555
C26A C25A 1_555 1_555
H34A C26A 1_555 1_555
H35A C26A 1_555 1_555
C27A C26A 1_555 1_555
H36A C27A 1_555 1_555
H37A C27A 1_555 1_555
C28A C27A 1_555 1_555
H38A C28A 1_555 1_555
H39A C28A 1_555 1_555
H40A C28A 1_555 1_555
O1A C2A 1_555 1_555
O2A C6A 1_555 1_555
O3A C9A 1_555 1_555
O4A C13A 1_555 1_555
C29A H41A 1_555 1_555
C30A C29A 1_555 1_555
C31A C42 1_555 1_555
C32A C31A 1_555 1_555
H42A C32A 1_555 1_555
C33A C32A 1_555 1_555
C34A C29A 1_555 1_555
C35A C33A 1_555 1_555
H43A C35A 1_555 1_555
C36A H44A 1_555 1_555
C37A C36A 1_555 1_555
C38A C35A 1_555 1_555
C39A C38A 1_555 1_555
H45A C39A 1_555 1_555
C40A C39A 1_555 1_555
C41A C36A 1_555 1_555
C42A C31 1_555 1_555
H46A C42A 1_555 1_555
C43A H47A 1_555 1_555
H48A C43A 1_555 1_555
H49A C43A 1_555 1_555
C44A H50A 1_555 1_555
H51A C44A 1_555 1_555
H52A C44A 1_555 1_555
C45A H53A 1_555 1_555
H54A C45A 1_555 1_555
H55A C45A 1_555 1_555
C46A H56A 1_555 1_555
H57A C46A 1_555 1_555
H58A C46A 1_555 1_555
C47A C35A 1_555 1_555
H59A C47A 1_555 1_555
H60A C47A 1_555 1_555
C48A C47A 1_555 1_555
H61A C48A 1_555 1_555
H62A C48A 1_555 1_555
C49A C48A 1_555 1_555
H63A C49A 1_555 1_555
H64A C49A 1_555 1_555
C50A C49A 1_555 1_555
H65A C50A 1_555 1_555
H66A C50A 1_555 1_555
C51A C50A 1_555 1_555
H67A C51A 1_555 1_555
H68A C51A 1_555 1_555
H69A C51A 1_555 1_555
C52A C42A 1_555 1_555
H70A C52A 1_555 1_555
H71A C52A 1_555 1_555
C53A C52A 1_555 1_555
H72A C53A 1_555 1_555
H73A C53A 1_555 1_555
C54A C53A 1_555 1_555
H74A C54A 1_555 1_555
H75A C54A 1_555 1_555
C55A C54A 1_555 1_555
H76A C55A 1_555 1_555
H77A C55A 1_555 1_555
C56A C55A 1_555 1_555
H78A C56A 1_555 1_555
H79A C56A 1_555 1_555
H80A C56A 1_555 1_555
O5A C30A 1_555 1_555
O6A C34A 1_555 1_555
O7A C37A 1_555 1_555
O8A C41A 1_555 1_555
C5 C6 1_555 1_555
C9 C10 1_555 1_555
C12 C13 1_555 1_555
C15 O1 1_555 1_555
C16 O2 1_555 1_555
C17 O3 1_555 1_555
C18 O4 1_555 1_555
C33 C34 1_555 1_555
C37 C38 1_555 1_555
C40 C41 1_555 1_555
C43 O5 1_555 1_555
C44 O6 1_555 1_555
C45 O7 1_555 1_555
C46 O8 1_555 1_555
C2A C3A 1_555 1_555
C5A C6A 1_555 1_555
C9A C10A 1_555 1_555
C12A C13A 1_555 1_555
C12A C14A 1_555 1_555
C15A O1A 1_555 1_555
C16A O2A 1_555 1_555
C17A O3A 1_555 1_555
C18A O4A 1_555 1_555
C30A C31A 1_555 1_555
C33A C34A 1_555 1_555
C37A C38A 1_555 1_555
C40A C41A 1_555 1_555
C40A C42A 1_555 1_555
C43A O5A 1_555 1_555
C44A O6A 1_555 1_555
C45A O7A 1_555 1_555
C46A O8A 1_555 1_555

#END
