
#######################################################################
#
#                 Cambridge Crystallographic Data Centre
#                                CCDC 
#
#######################################################################
#
# If this CIF has been generated from an entry in the Cambridge 
# Structural Database, then it will include bibliographic, chemical, 
# crystal, experimental, refinement or atomic coordinate data resulting 
# from the CCDC's data processing and validation procedures.
#
#######################################################################

data_AZOTIU
_chemical_formula_moiety         'C10 H14 Br1 N2 O1 S1 1+,Br1 1-'
_chemical_name_systematic        
'2-(bromomethyl)-6-ethyl-7-methyl-5-oxo-2,3-dihydro-5H-[1,3]thiazolo[3,2-a]pyrimidin-8-ium bromide'
_symmetry_cell_setting           triclinic
_symmetry_space_group_name_H-M   'P -1'
_symmetry_Int_Tables_number      2
_space_group_name_Hall           '-P 1'
loop_
_symmetry_equiv_pos_site_id
_symmetry_equiv_pos_as_xyz
1 x,y,z
2 -x,-y,-z
_cell_length_a                   5.8512(4)
_cell_length_b                   10.8066(7)
_cell_length_c                   13.6465(11)
_cell_angle_alpha                105.907(4)
_cell_angle_beta                 100.798(4)
_cell_angle_gamma                105.486(4)
_cell_volume                     767.474
_exptl_crystal_colour            colorless
_exptl_crystal_description       block
_cell_formula_units_Z            2
loop_
_atom_site_label
_atom_site_type_symbol
_atom_site_fract_x
_atom_site_fract_y
_atom_site_fract_z
Br1 Br -0.82893(17) -0.77140(9) -0.02834(8)
Br2 Br 1.3780(3) 0.84479(13) 0.36481(11)
S1 S 0.8010(4) 0.4918(2) 0.09468(18)
O1 O 1.3429(14) 0.3216(9) 0.2910(7)
N1 N 1.0626(12) 0.3910(7) 0.2067(6)
C1 C 0.987(4) 0.1276(16) 0.4060(11)
H1 H 1.0491 0.0724 0.4407
H2 H 0.8212 0.1184 0.4102
H3 H 1.0901 0.2216 0.4402
C2 C 0.985(3) 0.0807(14) 0.2894(10)
H4 H 1.1458 0.0742 0.2854
H5 H 0.8631 -0.0098 0.2529
C3 C 0.9281(18) 0.1766(9) 0.2339(8)
C4 C 1.1323(18) 0.2985(11) 0.2490(8)
C5 C 1.2490(16) 0.5197(10) 0.2121(9)
H6 H 1.3456 0.4995 0.1632
H7 H 1.3603 0.5661 0.2833
C6 C 1.1048(17) 0.6090(9) 0.1819(7)
H8 H 1.1901 0.6618 0.1435
C7 C 1.064(2) 0.7045(11) 0.2759(8)
H9 H 0.9916 0.6531 0.3172
H10 H 0.9498 0.7474 0.2510
C8 C 0.8416(15) 0.3655(9) 0.1450(7)
C9 C 0.7037(17) 0.1528(9) 0.1709(7)
N2 N 0.6621(13) 0.2504(7) 0.1273(6)
H11 H 0.5172 0.2353 0.0881
C10 C 0.4788(19) 0.0306(11) 0.1422(9)
H12 H 0.5129 -0.0503 0.1088
H13 H 0.3454 0.0386 0.0942
H14 H 0.4333 0.0248 0.2053
loop_
_geom_bond_atom_site_label_1
_geom_bond_atom_site_label_2
_geom_bond_site_symmetry_1
_geom_bond_site_symmetry_2
Br2 C7 1_555 1_555
S1 C6 1_555 1_555
O1 C4 1_555 1_555
N1 C4 1_555 1_555
C1 H1 1_555 1_555
H2 C1 1_555 1_555
H3 C1 1_555 1_555
C2 C1 1_555 1_555
H4 C2 1_555 1_555
H5 C2 1_555 1_555
C3 C2 1_555 1_555
C4 C3 1_555 1_555
C5 N1 1_555 1_555
H6 C5 1_555 1_555
H7 C5 1_555 1_555
C6 C5 1_555 1_555
H8 C6 1_555 1_555
C7 C6 1_555 1_555
H9 C7 1_555 1_555
H10 C7 1_555 1_555
C8 S1 1_555 1_555
C9 C3 1_555 1_555
N2 C8 1_555 1_555
H11 N2 1_555 1_555
C10 C9 1_555 1_555
H12 C10 1_555 1_555
H13 C10 1_555 1_555
H14 C10 1_555 1_555
N1 C8 1_555 1_555
C9 N2 1_555 1_555

#END
