
#######################################################################
#
#                 Cambridge Crystallographic Data Centre
#                                CCDC 
#
#######################################################################
#
# If this CIF has been generated from an entry in the Cambridge 
# Structural Database, then it will include bibliographic, chemical, 
# crystal, experimental, refinement or atomic coordinate data resulting 
# from the CCDC's data processing and validation procedures.
#
#######################################################################

data_AZOWIW
_chemical_formula_moiety         'C23 H19 Cl1 N2'
_chemical_name_systematic        
2-(2-Chlorophenyl)-3-methyl-5,6-diphenyl-2,3-dihydropyrazine
_symmetry_cell_setting           monoclinic
_symmetry_space_group_name_H-M   'P 21/c'
_symmetry_Int_Tables_number      14
_space_group_name_Hall           '-P 2ybc'
loop_
_symmetry_equiv_pos_site_id
_symmetry_equiv_pos_as_xyz
1 x,y,z
2 -x,1/2+y,1/2-z
3 -x,-y,-z
4 x,1/2-y,1/2+z
_cell_length_a                   10.5675(8)
_cell_length_b                   19.7014(9)
_cell_length_c                   10.4207(7)
_cell_angle_alpha                90
_cell_angle_beta                 118.479(9)
_cell_angle_gamma                90
_cell_volume                     1907
_exptl_crystal_colour            'pale yellow'
_exptl_crystal_description       block
_chemical_melting_point          '417 K'
_cell_formula_units_Z            4
loop_
_atom_site_label
_atom_site_type_symbol
_atom_site_fract_x
_atom_site_fract_y
_atom_site_fract_z
Cl1 Cl 0.25340(11) -0.21842(8) 0.16414(14)
N1 N 0.24840(17) -0.00156(8) 0.13885(16)
N2 N 0.2879(2) -0.02095(9) -0.10830(18)
C1 C 0.3045(2) -0.06586(10) 0.1173(2)
C2 C 0.3806(3) -0.05552(12) 0.0291(3)
C3 C 0.2014(2) 0.02435(9) -0.10666(19)
C4 C 0.20118(18) 0.04090(9) 0.03284(18)
C5 C 0.3972(2) -0.09884(10) 0.2638(2)
C6 C 0.3840(3) -0.16562(12) 0.2953(3)
C7 C 0.4712(3) -0.19357(14) 0.4313(3)
C8 C 0.5737(3) -0.15478(14) 0.5392(3)
C9 C 0.5914(3) -0.08844(13) 0.5117(2)
C10 C 0.5037(2) -0.06128(10) 0.3758(2)
C11 C 0.4413(3) -0.11844(14) -0.0028(3)
C12 C 0.1010(2) 0.05635(9) -0.24852(19)
C13 C -0.0386(2) 0.07317(11) -0.2826(2)
C14 C -0.1342(3) 0.09626(12) -0.4219(2)
C15 C -0.0896(3) 0.10359(11) -0.5258(2)
C16 C 0.0493(3) 0.08806(11) -0.4913(2)
C17 C 0.1443(2) 0.06438(10) -0.3546(2)
C18 C 0.15526(19) 0.10853(9) 0.05924(18)
C19 C 0.0827(2) 0.11347(9) 0.14084(19)
C20 C 0.0489(2) 0.17630(11) 0.1757(2)
C21 C 0.0894(3) 0.23491(10) 0.1328(2)
C22 C 0.1610(3) 0.23089(10) 0.0524(2)
C23 C 0.1926(2) 0.16820(10) 0.0139(2)
H1 H 0.22221 -0.09585 0.06166
H2 H 0.46199 -0.02520 0.08554
H3 H 0.45990 -0.23883 0.44909
H4 H 0.63129 -0.17328 0.63114
H5 H 0.66209 -0.06190 0.58423
H6 H 0.51645 -0.01613 0.35854
H7 H 0.36507 -0.15035 -0.05490
H8 H 0.51148 -0.13840 0.08724
H9 H 0.48607 -0.10673 -0.06119
H10 H -0.06864 0.06904 -0.21230
H11 H -0.22846 0.10679 -0.44500
H12 H -0.15360 0.11902 -0.61885
H13 H 0.07976 0.09357 -0.56100
H14 H 0.23810 0.05365 -0.33281
H15 H 0.05680 0.07420 0.17213
H16 H -0.00147 0.17897 0.22840
H17 H 0.06832 0.27704 0.15826
H18 H 0.18848 0.27043 0.02348
H19 H 0.23901 0.16601 -0.04263
Cl2? Cl 0.249(2) -0.1906(15) 0.131(2)
loop_
_geom_bond_atom_site_label_1
_geom_bond_atom_site_label_2
_geom_bond_site_symmetry_1
_geom_bond_site_symmetry_2
Cl1 C6 1_555 1_555
N1 C1 1_555 1_555
N2 C2 1_555 1_555
C1 C2 1_555 1_555
C2 C11 1_555 1_555
C3 N2 1_555 1_555
C4 N1 1_555 1_555
C5 C1 1_555 1_555
C6 C5 1_555 1_555
C7 C6 1_555 1_555
C8 C7 1_555 1_555
C9 C8 1_555 1_555
C10 C5 1_555 1_555
C11 H7 1_555 1_555
C12 C3 1_555 1_555
C13 C12 1_555 1_555
C14 C13 1_555 1_555
C15 C14 1_555 1_555
C16 C15 1_555 1_555
C17 C12 1_555 1_555
C18 C4 1_555 1_555
C19 C18 1_555 1_555
C20 C19 1_555 1_555
C21 C20 1_555 1_555
C22 C21 1_555 1_555
C23 C18 1_555 1_555
H1 C1 1_555 1_555
H2 C2 1_555 1_555
H3 C7 1_555 1_555
H4 C8 1_555 1_555
H5 C9 1_555 1_555
H6 C10 1_555 1_555
H8 C11 1_555 1_555
H9 C11 1_555 1_555
H10 C13 1_555 1_555
H11 C14 1_555 1_555
H12 C15 1_555 1_555
H13 C16 1_555 1_555
H14 C17 1_555 1_555
H15 C19 1_555 1_555
H16 C20 1_555 1_555
H17 C21 1_555 1_555
H18 C22 1_555 1_555
H19 C23 1_555 1_555
C3 C4 1_555 1_555
C9 C10 1_555 1_555
C16 C17 1_555 1_555
C22 C23 1_555 1_555

#END
