
#######################################################################
#
#                 Cambridge Crystallographic Data Centre
#                                CCDC 
#
#######################################################################
#
# If this CIF has been generated from an entry in the Cambridge 
# Structural Database, then it will include bibliographic, chemical, 
# crystal, experimental, refinement or atomic coordinate data resulting 
# from the CCDC's data processing and validation procedures.
#
#######################################################################

data_AZOWUI
_chemical_formula_moiety         'C20 H24 N1 O1 1+,C4 H3 O4 1-'
_chemical_name_systematic        
'[3-(5-Hydroxy-5H-dibenzo[a,d]cyclohepten-5-yl)propyl]dimethylammonium 3-carboxyprop-2-enoate'
_symmetry_cell_setting           monoclinic
_symmetry_space_group_name_H-M   'P 21'
_symmetry_Int_Tables_number      4
_space_group_name_Hall           'P 2yb'
loop_
_symmetry_equiv_pos_site_id
_symmetry_equiv_pos_as_xyz
1 x,y,z
2 -x,1/2+y,-z
_cell_length_a                   9.2115(2)
_cell_length_b                   11.5840(2)
_cell_length_c                   10.4640(2)
_cell_angle_alpha                90
_cell_angle_beta                 101.591(2)
_cell_angle_gamma                90
_cell_volume                     1093.8
_exptl_crystal_colour            colorless
_exptl_crystal_description       block
_cell_formula_units_Z            2
loop_
_atom_site_label
_atom_site_type_symbol
_atom_site_fract_x
_atom_site_fract_y
_atom_site_fract_z
O1 O 0.41330(14) 0.34062(11) 0.16548(12)
H1 H 0.348(2) 0.353(2) 0.208(2)
N1 N 0.46816(15) 0.73787(12) 0.40245(12)
H3 H 0.412(2) 0.7907(18) 0.430(2)
C1 C 0.39082(17) 0.42003(14) 0.06008(14)
C2 C 0.53853(18) 0.42751(15) 0.01408(16)
C3 C 0.6595(2) 0.36330(18) 0.0782(2)
H4 H 0.6485 0.3144 0.1485
C4 C 0.7959(2) 0.3695(2) 0.0410(3)
H5 H 0.8766 0.3244 0.0852
C5 C 0.8143(2) 0.4409(2) -0.0598(3)
H6 H 0.9076 0.4455 -0.0850
C6 C 0.6963(3) 0.5059(2) -0.1237(2)
H7 H 0.7101 0.5559 -0.1922
C7 C 0.5557(2) 0.49996(16) -0.09015(18)
C8 C 0.4376(2) 0.56887(17) -0.16865(17)
H8 H 0.4668 0.6404 -0.2000
C9 C 0.2936(2) 0.54318(16) -0.20162(17)
H9 H 0.2312 0.5988 -0.2522
C10 C 0.22200(19) 0.43761(15) -0.16756(16)
C11 C 0.1030(2) 0.39442(19) -0.26041(17)
H10 H 0.0649 0.4393 -0.3357
C12 C 0.0399(2) 0.2891(2) -0.2456(2)
H11 H -0.0394 0.2610 -0.3106
C13 C 0.0926(2) 0.22432(19) -0.1354(2)
H12 H 0.0516 0.1505 -0.1253
C14 C 0.2057(2) 0.26732(17) -0.03967(18)
H13 H 0.2395 0.2229 0.0368
C15 C 0.27125(18) 0.37390(14) -0.05244(15)
C16 C 0.34051(18) 0.53637(14) 0.10869(15)
H14 H 0.3252 0.5924 0.0357
H15 H 0.2442 0.5252 0.1352
C17 C 0.45116(19) 0.58700(16) 0.22342(16)
H16 H 0.4873 0.5258 0.2880
H17 H 0.5373 0.6196 0.1925
C18 C 0.37420(18) 0.68131(15) 0.28617(15)
H18 H 0.3389 0.7413 0.2198
H19 H 0.2860 0.6476 0.3127
C19 C 0.5987(2) 0.79753(19) 0.3701(2)
H20 H 0.6437 0.8475 0.4429
H21 H 0.5672 0.8444 0.2914
H22 H 0.6713 0.7401 0.3546
C20 C 0.5116(3) 0.65885(18) 0.51531(18)
H23 H 0.5644 0.7025 0.5907
H24 H 0.5763 0.5981 0.4931
H25 H 0.4226 0.6238 0.5367
O2 O -0.0516(2) 0.7602(3) 0.6263(2)
H2 H 0.037(3) 0.759(4) 0.606(3)
O3 O -0.2140(2) 0.8844(3) 0.6744(2)
O4 O 0.18355(17) 0.77043(15) 0.55298(16)
O5 O 0.32094(17) 0.90841(13) 0.49397(16)
C21 C -0.0942(3) 0.8652(3) 0.6456(2)
C22 C 0.0010(3) 0.9628(3) 0.6312(3)
H26 H -0.0342 1.0349 0.6559
C23 C 0.1278(2) 0.9692(2) 0.5899(3)
H27 H 0.1684 1.0446 0.5898
C24 C 0.2169(2) 0.87546(18) 0.54356(19)
loop_
_geom_bond_atom_site_label_1
_geom_bond_atom_site_label_2
_geom_bond_site_symmetry_1
_geom_bond_site_symmetry_2
O1 H1 1_555 1_555
O2 H2 1_555 1_555
O3 C21 1_555 1_555
O4 C24 1_555 1_555
O5 C24 1_555 1_555
N1 H3 1_555 1_555
C1 O1 1_555 1_555
C2 C1 1_555 1_555
C3 C2 1_555 1_555
H4 C3 1_555 1_555
C4 C3 1_555 1_555
H5 C4 1_555 1_555
C5 C4 1_555 1_555
H6 C5 1_555 1_555
C6 C5 1_555 1_555
H7 C6 1_555 1_555
C7 C2 1_555 1_555
C8 C7 1_555 1_555
H8 C8 1_555 1_555
C9 C8 1_555 1_555
H9 C9 1_555 1_555
C10 C9 1_555 1_555
C11 C10 1_555 1_555
H10 C11 1_555 1_555
C12 C11 1_555 1_555
H11 C12 1_555 1_555
C13 C12 1_555 1_555
H12 C13 1_555 1_555
C14 C13 1_555 1_555
H13 C14 1_555 1_555
C15 C1 1_555 1_555
C16 C1 1_555 1_555
H14 C16 1_555 1_555
H15 C16 1_555 1_555
C17 C16 1_555 1_555
H16 C17 1_555 1_555
H17 C17 1_555 1_555
C18 N1 1_555 1_555
H18 C18 1_555 1_555
H19 C18 1_555 1_555
C19 N1 1_555 1_555
H20 C19 1_555 1_555
H21 C19 1_555 1_555
H22 C19 1_555 1_555
C20 N1 1_555 1_555
H23 C20 1_555 1_555
H24 C20 1_555 1_555
H25 C20 1_555 1_555
C21 O2 1_555 1_555
C22 C21 1_555 1_555
H26 C22 1_555 1_555
C23 C22 1_555 1_555
H27 C23 1_555 1_555
C24 C23 1_555 1_555
C6 C7 1_555 1_555
C10 C15 1_555 1_555
C14 C15 1_555 1_555
C17 C18 1_555 1_555

#END
