
#######################################################################
#
#                 Cambridge Crystallographic Data Centre
#                                CCDC 
#
#######################################################################
#
# If this CIF has been generated from an entry in the Cambridge 
# Structural Database, then it will include bibliographic, chemical, 
# crystal, experimental, refinement or atomic coordinate data resulting 
# from the CCDC's data processing and validation procedures.
#
#######################################################################

data_AZOXET
_chemical_formula_moiety         'C20 H15 Cl1 F1 N1 O1'
_chemical_name_systematic        
N-(3-Chloro-4-fluorophenyl)-2,2-diphenylacetamide
_symmetry_cell_setting           monoclinic
_symmetry_space_group_name_H-M   'P c'
_symmetry_Int_Tables_number      7
_space_group_name_Hall           'P -2yc'
loop_
_symmetry_equiv_pos_site_id
_symmetry_equiv_pos_as_xyz
1 x,y,z
2 x,-y,1/2+z
_cell_length_a                   9.3665(17)
_cell_length_b                   10.2069(12)
_cell_length_c                   9.7774(16)
_cell_angle_alpha                90
_cell_angle_beta                 114.42(2)
_cell_angle_gamma                90
_cell_volume                     851.125
_exptl_crystal_colour            colorless
_exptl_crystal_description       block
_cell_formula_units_Z            2
loop_
_atom_site_label
_atom_site_type_symbol
_atom_site_fract_x
_atom_site_fract_y
_atom_site_fract_z
Cl1 Cl 0.25355(8) 0.11734(7) 0.82272(8)
F1 F 0.15076(18) 0.07394(14) 0.50254(19)
O1 O 0.6516(2) 0.52072(16) 0.54006(16)
N1 N 0.6367(2) 0.42807(16) 0.74325(18)
H1 H 0.665(3) 0.433(2) 0.837(2)
C1 C 0.4496(3) 0.28097(19) 0.7678(2)
H2 H 0.4915 0.3022 0.8716
C2 C 0.3294(3) 0.19290(18) 0.7097(3)
C3 C 0.2684(2) 0.16238(19) 0.5588(3)
C4 C 0.3265(3) 0.2195(2) 0.4665(3)
H3 H 0.2836 0.1976 0.3628
C5 C 0.4470(3) 0.3086(2) 0.5227(2)
H4 H 0.4865 0.3489 0.4579
C6 C 0.5107(2) 0.33973(18) 0.6746(2)
C7 C 0.6985(2) 0.51195(18) 0.6763(2)
C8 C 0.8312(2) 0.59755(18) 0.7841(2)
H5 H 0.8897 0.5446 0.8765
C9 C 0.7663(3) 0.71731(18) 0.8311(2)
C10 C 0.8448(3) 0.7672(2) 0.9741(3)
H6 H 0.9365 0.7245 1.0431
C11 C 0.7909(4) 0.8791(3) 1.0177(4)
H7 H 0.8460 0.9124 1.1165
C12 C 0.6600(4) 0.9418(3) 0.9208(4)
H8 H 0.6245 1.0189 0.9515
C13 C 0.5799(4) 0.8935(3) 0.7795(4)
H9 H 0.4882 0.9370 0.7117
C14 C 0.6317(3) 0.7811(3) 0.7341(3)
H10 H 0.5745 0.7476 0.6357
C15 C 0.9445(2) 0.62793(18) 0.7125(2)
C16 C 1.0589(3) 0.5378(2) 0.7245(3)
H11 H 1.0688 0.4600 0.7810
C17 C 1.1594(3) 0.5589(3) 0.6554(3)
H12 H 1.2372 0.4956 0.6645
C18 C 1.1470(3) 0.6703(3) 0.5742(3)
H13 H 1.2167 0.6854 0.5277
C19 C 1.0328(3) 0.7606(3) 0.5601(3)
H14 H 1.0229 0.8377 0.5024
C20 C 0.9324(3) 0.7403(2) 0.6290(3)
H15 H 0.8545 0.8038 0.6191
loop_
_geom_bond_atom_site_label_1
_geom_bond_atom_site_label_2
_geom_bond_site_symmetry_1
_geom_bond_site_symmetry_2
Cl1 C2 1_555 1_555
F1 C3 1_555 1_555
O1 C7 1_555 1_555
N1 H1 1_555 1_555
C1 H2 1_555 1_555
C2 C1 1_555 1_555
C3 C2 1_555 1_555
C4 C3 1_555 1_555
H3 C4 1_555 1_555
C5 C4 1_555 1_555
H4 C5 1_555 1_555
C6 N1 1_555 1_555
C7 N1 1_555 1_555
C8 C7 1_555 1_555
H5 C8 1_555 1_555
C9 C8 1_555 1_555
C10 C9 1_555 1_555
H6 C10 1_555 1_555
C11 C10 1_555 1_555
H7 C11 1_555 1_555
C12 C11 1_555 1_555
H8 C12 1_555 1_555
C13 C12 1_555 1_555
H9 C13 1_555 1_555
C14 C9 1_555 1_555
H10 C14 1_555 1_555
C15 C8 1_555 1_555
C16 C15 1_555 1_555
H11 C16 1_555 1_555
C17 C16 1_555 1_555
H12 C17 1_555 1_555
C18 C17 1_555 1_555
H13 C18 1_555 1_555
C19 C18 1_555 1_555
H14 C19 1_555 1_555
C20 C15 1_555 1_555
H15 C20 1_555 1_555
C1 C6 1_555 1_555
C5 C6 1_555 1_555
C13 C14 1_555 1_555
C19 C20 1_555 1_555

#END
