
#######################################################################
#
#                 Cambridge Crystallographic Data Centre
#                                CCDC 
#
#######################################################################
#
# If this CIF has been generated from an entry in the Cambridge 
# Structural Database, then it will include bibliographic, chemical, 
# crystal, experimental, refinement or atomic coordinate data resulting 
# from the CCDC's data processing and validation procedures.
#
#######################################################################

data_AZOXAP
_chemical_formula_moiety         'C16 H13 Cl1 N2 O1 S1,H2 O1'
_chemical_name_systematic        
'N-(4-Chloro-1,3-benzothiazol-2-yl)-2-(3-methylphenyl)acetamide monohydrate'
_symmetry_cell_setting           triclinic
_symmetry_space_group_name_H-M   'P -1'
_symmetry_Int_Tables_number      2
_space_group_name_Hall           '-P 1'
loop_
_symmetry_equiv_pos_site_id
_symmetry_equiv_pos_as_xyz
1 x,y,z
2 -x,-y,-z
_cell_length_a                   7.2771(3)
_cell_length_b                   9.2568(5)
_cell_length_c                   12.0851(5)
_cell_angle_alpha                83.948(4)
_cell_angle_beta                 84.306(3)
_cell_angle_gamma                72.133(4)
_cell_volume                     768.578
_exptl_crystal_colour            colorless
_exptl_crystal_description       block
_cell_formula_units_Z            2
loop_
_atom_site_label
_atom_site_type_symbol
_atom_site_fract_x
_atom_site_fract_y
_atom_site_fract_z
S1 S 0.10411(4) 0.65402(3) 0.47845(2)
Cl1 Cl 0.78434(4) 0.64763(4) 0.28146(3)
O1 O -0.10370(13) 0.84965(11) 0.62242(8)
N1 N 0.41640(14) 0.74054(11) 0.44287(8)
N2 N 0.19872(14) 0.86818(11) 0.58166(8)
H3 H 0.285(2) 0.9074(18) 0.5985(13)
C1 C 0.43805(16) 0.62472(13) 0.37390(9)
C2 C 0.59653(16) 0.56742(13) 0.29843(10)
C3 C 0.60131(18) 0.44952(14) 0.23612(11)
H4 H 0.7097 0.4102 0.1856
C4 C 0.44702(19) 0.38796(14) 0.24728(11)
H5 H 0.4525 0.3063 0.2043
C5 C 0.28611(18) 0.44326(14) 0.31952(11)
H6 H 0.1808 0.4018 0.3261
C6 C 0.28419(17) 0.56185(13) 0.38211(9)
C7 C 0.25131(16) 0.76327(13) 0.50223(9)
C8 C 0.02371(17) 0.90296(13) 0.64119(10)
C9 C 0.00054(18) 1.00506(14) 0.73487(10)
H7 H -0.1334 1.0745 0.7408
H8 H 0.0903 1.0675 0.7194
C10 C 0.04473(18) 0.90619(14) 0.84323(10)
C11 C 0.20475(18) 0.90263(15) 0.89814(10)
H9 H 0.2826 0.9654 0.8689
C12 C 0.2537(2) 0.80858(16) 0.99563(11)
C13 C 0.1374(2) 0.71844(17) 1.03722(12)
H10 H 0.1688 0.6535 1.1033
C14 C -0.0235(2) 0.72173(17) 0.98378(12)
H11 H -0.1020 0.6597 1.0137
C15 C -0.0708(2) 0.81538(16) 0.88651(11)
H12 H -0.1813 0.8174 0.8498
C16 C 0.4298(2) 0.8049(2) 1.05269(14)
H13 H 0.5070 0.6990 1.0692
H14 H 0.3894 0.8551 1.1224
H15 H 0.5076 0.8584 1.0037
O2 O 0.47923(14) 0.98584(11) 0.64369(9)
H1 H 0.477(2) 1.0762(16) 0.6127(14)
H2 H 0.600(2) 0.9272(17) 0.6380(15)
loop_
_geom_bond_atom_site_label_1
_geom_bond_atom_site_label_2
_geom_bond_site_symmetry_1
_geom_bond_site_symmetry_2
S1 C6 1_555 1_555
Cl1 C2 1_555 1_555
O1 C8 1_555 1_555
O2 H1 1_555 1_555
H2 O2 1_555 1_555
N1 C1 1_555 1_555
N2 H3 1_555 1_555
C1 C2 1_555 1_555
C2 C3 1_555 1_555
C3 H4 1_555 1_555
C4 C3 1_555 1_555
H5 C4 1_555 1_555
C5 C4 1_555 1_555
H6 C5 1_555 1_555
C6 C1 1_555 1_555
C7 S1 1_555 1_555
C8 N2 1_555 1_555
C9 C8 1_555 1_555
H7 C9 1_555 1_555
H8 C9 1_555 1_555
C10 C9 1_555 1_555
C11 C10 1_555 1_555
H9 C11 1_555 1_555
C12 C11 1_555 1_555
C13 C12 1_555 1_555
H10 C13 1_555 1_555
C14 C13 1_555 1_555
H11 C14 1_555 1_555
C15 C10 1_555 1_555
H12 C15 1_555 1_555
C16 C12 1_555 1_555
H13 C16 1_555 1_555
H14 C16 1_555 1_555
H15 C16 1_555 1_555
N1 C7 1_555 1_555
N2 C7 1_555 1_555
C5 C6 1_555 1_555
C14 C15 1_555 1_555

#END
