
#######################################################################
#
#                 Cambridge Crystallographic Data Centre
#                                CCDC 
#
#######################################################################
#
# If this CIF has been generated from an entry in the Cambridge 
# Structural Database, then it will include bibliographic, chemical, 
# crystal, experimental, refinement or atomic coordinate data resulting 
# from the CCDC's data processing and validation procedures.
#
#######################################################################

data_AZUDEC10
_chemical_formula_moiety         'C10 H20 N1 1+,Cl1 1-'
_chemical_name_systematic        '1-Azabicyclo(3.3.3)undecane hydrochloride'
_symmetry_cell_setting           triclinic
_symmetry_space_group_name_H-M   'P -1'
_symmetry_Int_Tables_number      2
_space_group_name_Hall           '-P 1'
loop_
_symmetry_equiv_pos_site_id
_symmetry_equiv_pos_as_xyz
1 x,y,z
2 -x,-y,-z
_cell_length_a                   10.830(8)
_cell_length_b                   7.122(6)
_cell_length_c                   7.014(3)
_cell_angle_alpha                97.97
_cell_angle_beta                 90.40
_cell_angle_gamma                96.28
_cell_volume                     532.423
_cell_formula_units_Z            2
loop_
_atom_site_label
_atom_site_type_symbol
_atom_site_fract_x
_atom_site_fract_y
_atom_site_fract_z
Cl1 Cl 0.34784 0.31049 0.21732
C1 C -0.23690 0.23540 -0.08260
C2 C -0.12880 0.15030 -0.00520
C3 C -0.36740 0.17230 0.36560
C4 C -0.26720 0.03950 0.34420
C5 C -0.13100 0.12000 0.35820
C6 C -0.07830 0.23440 0.19930
C7 C -0.08050 0.45110 0.24510
C8 C -0.18990 0.52550 0.35460
C9 C -0.31580 0.49970 0.25850
C10 C -0.36330 0.20360 0.00530
H1 H -0.47400 0.31900 0.21400
H2 H -0.21000 0.37500 -0.08700
H3 H -0.25100 0.17300 -0.20900
H4 H -0.15700 0.00200 -0.01300
H5 H -0.04700 0.17800 -0.10200
H6 H -0.45800 0.08000 0.37400
H7 H -0.35700 0.26300 0.49800
H8 H -0.28800 -0.05200 0.44900
H9 H -0.28300 -0.05700 0.22000
H10 H -0.08100 -0.00600 0.35300
H11 H -0.10700 0.20300 0.49500
H12 H 0.01000 0.22000 0.19400
H13 H -0.06600 0.51700 0.13300
H14 H -0.00700 0.51100 0.31700
H15 H -0.20100 0.46600 0.47100
H16 H -0.15900 0.67500 0.38500
H17 H -0.38100 0.55900 0.34300
H18 H -0.30700 0.56400 0.14000
H19 H -0.39700 0.05400 0.00000
H20 H -0.42500 0.26100 -0.06600
N1 N -0.37820 0.29830 0.20970
loop_
_geom_bond_atom_site_label_1
_geom_bond_atom_site_label_2
_geom_bond_site_symmetry_1
_geom_bond_site_symmetry_2
C1 C2 1_555 1_555
C2 C6 1_555 1_555
C3 C4 1_555 1_555
C4 C5 1_555 1_555
C5 C6 1_555 1_555
C6 C7 1_555 1_555
C7 C8 1_555 1_555
C8 C9 1_555 1_555
C9 H17 1_555 1_555
C10 C1 1_555 1_555
H1 N1 1_555 1_555
H2 C1 1_555 1_555
H3 C1 1_555 1_555
H4 C2 1_555 1_555
H5 C2 1_555 1_555
H6 C3 1_555 1_555
H7 C3 1_555 1_555
H8 C4 1_555 1_555
H9 C4 1_555 1_555
H10 C5 1_555 1_555
H11 C5 1_555 1_555
H12 C6 1_555 1_555
H13 C7 1_555 1_555
H14 C7 1_555 1_555
H15 C8 1_555 1_555
H16 C8 1_555 1_555
H18 C9 1_555 1_555
H19 C10 1_555 1_555
H20 C10 1_555 1_555
N1 C3 1_555 1_555
C9 N1 1_555 1_555
C10 N1 1_555 1_555

#END
