
#######################################################################
#
#                 Cambridge Crystallographic Data Centre
#                                CCDC 
#
#######################################################################
#
# If this CIF has been generated from an entry in the Cambridge 
# Structural Database, then it will include bibliographic, chemical, 
# crystal, experimental, refinement or atomic coordinate data resulting 
# from the CCDC's data processing and validation procedures.
#
#######################################################################

data_AZUDAB
_chemical_formula_moiety         'C16 H18 N2 O3'
_chemical_name_systematic        
1-(2-Hydroxy-2-phenylethyl)-3-(4-methoxyphenyl)urea
_symmetry_cell_setting           monoclinic
_symmetry_space_group_name_H-M   'P 21'
_symmetry_Int_Tables_number      4
_space_group_name_Hall           'P 2yb'
loop_
_symmetry_equiv_pos_site_id
_symmetry_equiv_pos_as_xyz
1 x,y,z
2 -x,1/2+y,-z
_cell_length_a                   6.8120(6)
_cell_length_b                   8.7659(7)
_cell_length_c                   12.1393(10)
_cell_angle_alpha                90
_cell_angle_beta                 97.009(3)
_cell_angle_gamma                90
_cell_volume                     719.461
_exptl_crystal_colour            colorless
_exptl_crystal_description       block
_chemical_melting_point          '468 K'
_cell_formula_units_Z            2
_exptl_crystal_recrystallization_method ethanol
loop_
_atom_site_label
_atom_site_type_symbol
_atom_site_fract_x
_atom_site_fract_y
_atom_site_fract_z
C1 C 0.3090(6) 0.9178(6) -0.2016(4)
C2 C 0.2104(7) 0.7832(7) -0.1959(4)
H1 H 0.2401 0.7201 -0.1345
C3 C 0.0666(8) 0.7396(7) -0.2805(4)
H2 H 0.0017 0.6469 -0.2758
C4 C 0.0191(7) 0.8310(7) -0.3707(4)
H3 H -0.0787 0.8012 -0.4268
C5 C 0.1151(7) 0.9660(7) -0.3783(4)
H4 H 0.0838 1.0293 -0.4394
C6 C 0.2616(7) 1.0081(7) -0.2929(5)
H5 H 0.3285 1.0998 -0.2983
C7 C 0.4712(7) 0.9574(7) -0.1086(5)
H6 H 0.4519 0.8924 -0.0451
O1 O 0.4713(6) 1.1060(5) -0.0726(3)
H7 H 0.347(10) 1.118(8) -0.071(5)
C8 C 0.6694(6) 0.9180(6) -0.1428(3)
H8 H 0.6796 0.8079 -0.1485
H9 H 0.6782 0.9604 -0.2159
N1 N 0.8347(5) 0.9736(5) -0.0668(3)
H10 H 0.876(8) 1.060(7) -0.072(4)
C9 C 0.9310(5) 0.8900(5) 0.0159(3)
O2 O 0.8885(4) 0.7545(3) 0.0342(2)
N2 N 1.0818(5) 0.9640(5) 0.0765(3)
H11 H 1.108(7) 1.048(7) 0.060(4)
C10 C 1.2036(6) 0.9091(5) 0.1709(3)
C11 C 1.3978(6) 0.9599(5) 0.1905(3)
H12 H 1.4482 1.0223 0.1387
C12 C 1.5166(6) 0.9188(5) 0.2859(3)
H13 H 1.6459 0.9546 0.2983
C13 C 1.4460(6) 0.8252(5) 0.3630(3)
C14 C 1.2540(6) 0.7706(6) 0.3442(3)
H14 H 1.2069 0.705 0.3951
C15 C 1.1310(6) 0.8140(5) 0.2487(3)
H15 H 1.001 0.7795 0.237
O3 O 1.5764(4) 0.7926(4) 0.4554(2)
C16 C 1.5099(8) 0.6908(7) 0.5350(4)
H16 H 1.6131 0.6768 0.5954
H17 H 1.4764 0.5942 0.5005
H18 H 1.3954 0.7331 0.5626
loop_
_geom_bond_atom_site_label_1
_geom_bond_atom_site_label_2
_geom_bond_site_symmetry_1
_geom_bond_site_symmetry_2
C1 C2 1_555 1_555
C2 H1 1_555 1_555
C3 C2 1_555 1_555
H2 C3 1_555 1_555
C4 C3 1_555 1_555
H3 C4 1_555 1_555
C5 C4 1_555 1_555
H4 C5 1_555 1_555
C6 C1 1_555 1_555
H5 C6 1_555 1_555
C7 C1 1_555 1_555
H6 C7 1_555 1_555
O1 C7 1_555 1_555
H7 O1 1_555 1_555
C8 C7 1_555 1_555
H8 C8 1_555 1_555
H9 C8 1_555 1_555
N1 C8 1_555 1_555
H10 N1 1_555 1_555
C9 N1 1_555 1_555
O2 C9 1_555 1_555
N2 C9 1_555 1_555
H11 N2 1_555 1_555
C10 N2 1_555 1_555
C11 C10 1_555 1_555
H12 C11 1_555 1_555
C12 C11 1_555 1_555
H13 C12 1_555 1_555
C13 C12 1_555 1_555
C14 C13 1_555 1_555
H14 C14 1_555 1_555
C15 C10 1_555 1_555
H15 C15 1_555 1_555
O3 C13 1_555 1_555
C16 O3 1_555 1_555
H16 C16 1_555 1_555
H17 C16 1_555 1_555
H18 C16 1_555 1_555
C5 C6 1_555 1_555
C14 C15 1_555 1_555

#END
