
#######################################################################
#
#                 Cambridge Crystallographic Data Centre
#                                CCDC 
#
#######################################################################
#
# If this CIF has been generated from an entry in the Cambridge 
# Structural Database, then it will include bibliographic, chemical, 
# crystal, experimental, refinement or atomic coordinate data resulting 
# from the CCDC's data processing and validation procedures.
#
#######################################################################

data_AZUFEH
_chemical_formula_moiety         'C7 H6 Br1 N1 O2'
_chemical_name_systematic        1-Bromo-4-methyl-2-nitrobenzene
_symmetry_cell_setting           orthorhombic
_symmetry_space_group_name_H-M   'P n a 21'
_symmetry_Int_Tables_number      33
_space_group_name_Hall           'P 2c -2n'
loop_
_symmetry_equiv_pos_site_id
_symmetry_equiv_pos_as_xyz
1 x,y,z
2 -x,-y,1/2+z
3 1/2-x,1/2+y,1/2+z
4 1/2+x,1/2-y,z
_cell_length_a                   13.016(5)
_cell_length_b                   14.617(5)
_cell_length_c                   4.037(5)
_cell_angle_alpha                90
_cell_angle_beta                 90
_cell_angle_gamma                90
_cell_volume                     768.059
_exptl_crystal_colour            'pale yellow'
_exptl_crystal_description       block
_cell_formula_units_Z            4
loop_
_atom_site_label
_atom_site_type_symbol
_atom_site_fract_x
_atom_site_fract_y
_atom_site_fract_z
Br1 Br 0.38514(5) 0.46896(5) -0.1387(5)
C1 C 0.1871(6) 0.4507(5) 0.1963(18)
C2 C 0.2674(5) 0.4080(5) 0.0313(18)
C3 C 0.2651(6) 0.3145(5) -0.003(2)
H1 H 0.3182 0.2847 -0.1126
C4 C 0.1847(6) 0.2649(5) 0.1252(19)
H2 H 0.1855 0.2016 0.1034
C5 C 0.1030(6) 0.3055(6) 0.2844(19)
C6 C 0.1046(5) 0.4002(5) 0.314(2)
H3 H 0.0496 0.4301 0.4135
C7 C 0.0156(6) 0.2492(6) 0.422(2)
H4 H 0.0271 0.1857 0.3726
H5 H -0.0478 0.2686 0.3221
H6 H 0.0118 0.2575 0.6572
N1 N 0.1794(8) 0.5505(5) 0.2441(19)
O1 O 0.1192(6) 0.5797(5) 0.451(2)
O2 O 0.2367(7) 0.5997(5) 0.110(2)
loop_
_geom_bond_atom_site_label_1
_geom_bond_atom_site_label_2
_geom_bond_site_symmetry_1
_geom_bond_site_symmetry_2
Br1 C2 1_555 1_555
C1 C2 1_555 1_555
C2 C3 1_555 1_555
C3 H1 1_555 1_555
C4 C3 1_555 1_555
H2 C4 1_555 1_555
C5 C4 1_555 1_555
C6 C1 1_555 1_555
H3 C6 1_555 1_555
C7 C5 1_555 1_555
H4 C7 1_555 1_555
H5 C7 1_555 1_555
H6 C7 1_555 1_555
N1 C1 1_555 1_555
O1 N1 1_555 1_555
O2 N1 1_555 1_555
C5 C6 1_555 1_555

#END
