
#######################################################################
#
#                 Cambridge Crystallographic Data Centre
#                                CCDC 
#
#######################################################################
#
# If this CIF has been generated from an entry in the Cambridge 
# Structural Database, then it will include bibliographic, chemical, 
# crystal, experimental, refinement or atomic coordinate data resulting 
# from the CCDC's data processing and validation procedures.
#
#######################################################################

data_AZUMOY
_chemical_formula_moiety         'C11 H9 Cl1 N4 O2'
_chemical_name_systematic        
6-Chloro-N-methyl-5-nitro-N-phenylpyrimidin-4-amine
_symmetry_cell_setting           triclinic
_symmetry_space_group_name_H-M   'P -1'
_symmetry_Int_Tables_number      2
_space_group_name_Hall           '-P 1'
loop_
_symmetry_equiv_pos_site_id
_symmetry_equiv_pos_as_xyz
1 x,y,z
2 -x,-y,-z
_cell_length_a                   6.8980(14)
_cell_length_b                   8.9282(18)
_cell_length_c                   11.427(2)
_cell_angle_alpha                73.76(3)
_cell_angle_beta                 86.80(3)
_cell_angle_gamma                84.21(3)
_cell_volume                     671.943
_exptl_crystal_colour            colorless
_exptl_crystal_description       block
_chemical_melting_point          '130.3-131.4 deg.C'
_cell_formula_units_Z            2
_exptl_crystal_recrystallization_method methanol
loop_
_atom_site_label
_atom_site_type_symbol
_atom_site_fract_x
_atom_site_fract_y
_atom_site_fract_z
Cl1 Cl 0.27001(12) 0.38397(9) 0.55435(6)
C1 C 0.2612(3) 0.1851(3) 0.52481(19)
C2 C 0.2496(3) 0.1772(2) 0.40780(17)
C3 C 0.2386(3) 0.0133(2) 0.38625(17)
C4 C 0.2470(3) -0.1014(3) 0.59315(19)
H1 H 0.2468 -0.1895 0.6599
N1 N 0.2346(3) -0.1270(2) 0.48527(16)
N2 N 0.2610(3) 0.0465(3) 0.62119(16)
C5 C 0.2510(3) 0.1072(2) 0.16239(18)
C6 C 0.4329(4) 0.1522(3) 0.1186(2)
H2 H 0.5428 0.1063 0.1631
C7 C 0.4528(5) 0.2692(4) 0.0051(3)
H3 H 0.5759 0.3000 -0.0227
C8 C 0.2935(6) 0.3371(4) -0.0638(2)
H4 H 0.3077 0.4122 -0.1381
C9 C 0.1135(6) 0.2917(4) -0.0205(3)
H5 H 0.0043 0.3376 -0.0656
C10 C 0.0897(4) 0.1749(3) 0.0930(2)
H6 H -0.0337 0.1445 0.1202
C11 C 0.2102(5) -0.1969(3) 0.2719(3)
H7 H 0.3338 -0.2570 0.2895
H8 H 0.1728 -0.1948 0.1917
H9 H 0.1136 -0.2440 0.3307
N3 N 0.2395(3) 0.3422(2) 0.31108(16)
N4 N 0.2279(3) -0.0184(2) 0.27815(15)
O1 O 0.0799(3) 0.4051(2) 0.27365(17)
O2 O 0.3903(3) 0.4091(2) 0.27659(17)
loop_
_geom_bond_atom_site_label_1
_geom_bond_atom_site_label_2
_geom_bond_site_symmetry_1
_geom_bond_site_symmetry_2
Cl1 C1 1_555 1_555
C1 C2 1_555 1_555
C2 C3 1_555 1_555
C3 N1 1_555 1_555
C4 H1 1_555 1_555
N1 C4 1_555 1_555
N2 C1 1_555 1_555
C5 C6 1_555 1_555
C6 H2 1_555 1_555
C7 C6 1_555 1_555
H3 C7 1_555 1_555
C8 C7 1_555 1_555
H4 C8 1_555 1_555
C9 C8 1_555 1_555
H5 C9 1_555 1_555
C10 C5 1_555 1_555
H6 C10 1_555 1_555
C11 H7 1_555 1_555
H8 C11 1_555 1_555
H9 C11 1_555 1_555
N3 C2 1_555 1_555
N4 C3 1_555 1_555
O1 N3 1_555 1_555
O2 N3 1_555 1_555
C4 N2 1_555 1_555
C5 N4 1_555 1_555
C9 C10 1_555 1_555
C11 N4 1_555 1_555

#END
