
#######################################################################
#
#                 Cambridge Crystallographic Data Centre
#                                CCDC 
#
#######################################################################
#
# If this CIF has been generated from an entry in the Cambridge 
# Structural Database, then it will include bibliographic, chemical, 
# crystal, experimental, refinement or atomic coordinate data resulting 
# from the CCDC's data processing and validation procedures.
#
#######################################################################

data_AZUSIY
_chemical_formula_moiety         'C15 H13 N1 O2'
_chemical_name_systematic        
2-(2-Hydroxyphenyl)-3,4-dihydroisoquinolin-1(2H)-one
_symmetry_cell_setting           monoclinic
_symmetry_space_group_name_H-M   'C 2/c'
_symmetry_Int_Tables_number      15
_space_group_name_Hall           '-C 2yn'
loop_
_symmetry_equiv_pos_site_id
_symmetry_equiv_pos_as_xyz
1 x,y,z
2 -x,y,1/2-z
3 1/2+x,1/2+y,z
4 1/2-x,1/2+y,1/2-z
5 -x,-y,-z
6 x,-y,1/2+z
7 1/2-x,1/2-y,-z
8 1/2+x,1/2-y,1/2+z
_cell_length_a                   21.350(3)
_cell_length_b                   11.0670(14)
_cell_length_c                   21.064(3)
_cell_angle_alpha                90
_cell_angle_beta                 100.227(2)
_cell_angle_gamma                90
_cell_volume                     4897.94
_exptl_crystal_colour            colorless
_exptl_crystal_description       block
_cell_formula_units_Z            16
loop_
_atom_site_label
_atom_site_type_symbol
_atom_site_fract_x
_atom_site_fract_y
_atom_site_fract_z
C1 C 0.64702(8) 1.22521(16) 0.96814(8)
C2 C 0.64055(9) 1.20334(19) 0.90234(9)
H1 H 0.6244 1.1297 0.8855
C3 C 0.65796(10) 1.2900(2) 0.86179(10)
H2 H 0.6529 1.2752 0.8177
C4 C 0.68274(10) 1.3979(2) 0.88650(12)
H3 H 0.6942 1.4566 0.8591
C5 C 0.69074(10) 1.41978(19) 0.95193(12)
H4 H 0.7086 1.4924 0.9684
C6 C 0.67252(8) 1.33481(17) 0.99346(9)
C7 C 0.67903(10) 1.35321(18) 1.06454(10)
H5 H 0.6800 1.4390 1.0741
H6 H 0.7186 1.3178 1.0863
C8 C 0.62387(10) 1.29515(17) 1.08845(9)
H7 H 0.6301 1.3014 1.1351
H8 H 0.5849 1.3373 1.0707
C9 C 0.62857(8) 1.13100(17) 1.01102(8)
C10 C 0.60218(8) 1.08107(17) 1.11477(8)
C11 C 0.64429(8) 1.06340(17) 1.17237(8)
C12 C 0.62941(10) 0.9830(2) 1.21757(9)
H9 H 0.6573 0.9722 1.2564
C13 C 0.57360(11) 0.9192(2) 1.20525(11)
H10 H 0.5637 0.8650 1.2358
C14 C 0.53190(10) 0.9349(2) 1.14774(12)
H11 H 0.4943 0.8906 1.1394
C15 C 0.54588(9) 1.0160(2) 1.10293(10)
H12 H 0.5174 1.0273 1.0645
N1 N 0.61817(7) 1.16666(13) 1.06934(7)
O1 O 0.62296(6) 1.02339(11) 0.99405(6)
O2 O 0.69906(6) 1.12681(14) 1.18018(6)
H25 H 0.7209 1.1098 1.2151
C16 C 0.87970(8) 0.86788(16) 0.85716(8)
C17 C 0.91880(9) 0.92042(19) 0.81889(10)
H13 H 0.9022 0.9415 0.7765
C18 C 0.98214(10) 0.9416(2) 0.84322(12)
H14 H 1.0083 0.9763 0.8173
C19 C 1.00639(11) 0.9113(2) 0.90587(13)
H15 H 1.0489 0.9268 0.9227
C20 C 0.96817(11) 0.8582(2) 0.94387(11)
H16 H 0.9853 0.8378 0.9862
C21 C 0.90435(9) 0.83423(18) 0.92027(9)
C22 C 0.86093(10) 0.7762(2) 0.95990(9)
H17 H 0.8428 0.8378 0.9839
H18 H 0.8852 0.7210 0.9906
C23 C 0.80834(10) 0.70835(19) 0.91819(9)
H19 H 0.8255 0.6360 0.9017
H20 H 0.7771 0.6837 0.9439
C24 C 0.81068(9) 0.85581(16) 0.83172(8)
C25 C 0.70918(8) 0.77602(15) 0.84686(8)
C26 C 0.67305(8) 0.84301(15) 0.88288(8)
C27 C 0.60732(9) 0.83775(18) 0.86810(9)
H21 H 0.5829 0.8822 0.8922
C28 C 0.57827(10) 0.7672(2) 0.81807(10)
H22 H 0.5341 0.7645 0.8082
C29 C 0.61354(11) 0.7005(2) 0.78239(10)
H23 H 0.5933 0.6528 0.7485
C30 C 0.67912(10) 0.70412(18) 0.79681(9)
H24 H 0.7031 0.6583 0.7729
N2 N 0.77725(7) 0.78299(13) 0.86388(7)
O3 O 0.78604(6) 0.91442(13) 0.78357(6)
O4 O 0.70448(6) 0.91102(12) 0.93171(6)
H26 H 0.6787 0.9484 0.9488
loop_
_geom_bond_atom_site_label_1
_geom_bond_atom_site_label_2
_geom_bond_site_symmetry_1
_geom_bond_site_symmetry_2
C1 C2 1_555 1_555
C2 H1 1_555 1_555
C3 C2 1_555 1_555
H2 C3 1_555 1_555
C4 C3 1_555 1_555
H3 C4 1_555 1_555
C5 C4 1_555 1_555
H4 C5 1_555 1_555
C6 C1 1_555 1_555
C7 C6 1_555 1_555
H5 C7 1_555 1_555
H6 C7 1_555 1_555
C8 C7 1_555 1_555
H7 C8 1_555 1_555
H8 C8 1_555 1_555
C9 C1 1_555 1_555
C10 C11 1_555 1_555
C11 C12 1_555 1_555
C12 H9 1_555 1_555
C13 C12 1_555 1_555
H10 C13 1_555 1_555
C14 C13 1_555 1_555
H11 C14 1_555 1_555
C15 C10 1_555 1_555
H12 C15 1_555 1_555
C16 C17 1_555 1_555
C17 H13 1_555 1_555
C18 C17 1_555 1_555
H14 C18 1_555 1_555
C19 C18 1_555 1_555
H15 C19 1_555 1_555
C20 C19 1_555 1_555
H16 C20 1_555 1_555
C21 C16 1_555 1_555
C22 C21 1_555 1_555
H17 C22 1_555 1_555
H18 C22 1_555 1_555
C23 C22 1_555 1_555
H19 C23 1_555 1_555
H20 C23 1_555 1_555
C24 C16 1_555 1_555
C25 C26 1_555 1_555
C26 C27 1_555 1_555
C27 H21 1_555 1_555
C28 C27 1_555 1_555
H22 C28 1_555 1_555
C29 C28 1_555 1_555
H23 C29 1_555 1_555
C30 C25 1_555 1_555
H24 C30 1_555 1_555
N1 C8 1_555 1_555
N2 C23 1_555 1_555
O1 C9 1_555 1_555
O2 C11 1_555 1_555
H25 O2 1_555 1_555
O3 C24 1_555 1_555
O4 C26 1_555 1_555
H26 O4 1_555 1_555
C5 C6 1_555 1_555
C9 N1 1_555 1_555
C10 N1 1_555 1_555
C14 C15 1_555 1_555
C20 C21 1_555 1_555
C24 N2 1_555 1_555
C25 N2 1_555 1_555
C29 C30 1_555 1_555

#END
