
#######################################################################
#
#                 Cambridge Crystallographic Data Centre
#                                CCDC 
#
#######################################################################
#
# If this CIF has been generated from an entry in the Cambridge 
# Structural Database, then it will include bibliographic, chemical, 
# crystal, experimental, refinement or atomic coordinate data resulting 
# from the CCDC's data processing and validation procedures.
#
#######################################################################

data_AZUTIZ
_chemical_name_common            
3-(4-((2-Furylmethylene)amino)-3-methyl-5-thioxo-4,5-dihydro-1H-1,2,4-triazol-1-yl)-1,3-diphenylpropan-1-one
_chemical_formula_moiety         'C23 H20 N4 O2 S1'
_chemical_name_systematic        
rac-3-(4-[(Furan-2-ylmethylidene)amino]-3-methyl-5-sulfanylidene-4,5-dihydro-1H-1,2,4-triazol-1-yl)-1,3-diphenylpropan-1-one
_symmetry_cell_setting           monoclinic
_symmetry_space_group_name_H-M   'P 21/c'
_symmetry_Int_Tables_number      14
_space_group_name_Hall           '-P 2ybc'
loop_
_symmetry_equiv_pos_site_id
_symmetry_equiv_pos_as_xyz
1 x,y,z
2 -x,1/2+y,1/2-z
3 -x,-y,-z
4 x,1/2-y,1/2+z
_cell_length_a                   8.154(3)
_cell_length_b                   21.194(6)
_cell_length_c                   12.878(4)
_cell_angle_alpha                90
_cell_angle_beta                 107.965(5)
_cell_angle_gamma                90
_cell_volume                     2117.02
_exptl_crystal_colour            colorless
_exptl_crystal_description       prism
_cell_formula_units_Z            4
loop_
_atom_site_label
_atom_site_type_symbol
_atom_site_fract_x
_atom_site_fract_y
_atom_site_fract_z
S1 S 1.09278(4) 0.678722(17) 0.64588(3)
O1 O 0.74128(14) 0.76825(5) 0.75402(7)
O2 O 0.80256(13) 0.49556(5) 0.33988(7)
N1 N 0.89702(13) 0.64352(5) 0.77200(8)
N2 N 0.76948(13) 0.60222(5) 0.77821(8)
N3 N 0.82733(13) 0.59160(5) 0.62302(8)
N4 N 0.81208(14) 0.55961(5) 0.52572(8)
C1 C 0.93901(15) 0.63862(6) 0.67870(9)
C2 C 0.73025(17) 0.57115(6) 0.68692(10)
C3 C 0.98664(16) 0.68280(6) 0.86642(9)
H1 H 1.0421 0.7187 0.8396
C4 C 0.85808(17) 0.71013(6) 0.91857(10)
H2 H 0.7942 0.6751 0.9394
H3 H 0.9219 0.7329 0.9861
C5 C 0.73023(17) 0.75493(6) 0.84367(10)
C6 C 0.59252(16) 0.78340(6) 0.88329(10)
C7 C 0.45618(19) 0.81411(6) 0.80761(12)
H4 H 0.4509 0.8154 0.7329
C8 C 0.3287(2) 0.84270(7) 0.84094(13)
H5 H 0.2349 0.8630 0.7889
C9 C 0.3374(2) 0.84195(7) 0.95004(13)
H6 H 0.2509 0.8625 0.9729
C10 C 0.47170(19) 0.81126(6) 1.02590(12)
H7 H 0.4766 0.8104 1.1005
C11 C 0.59897(17) 0.78178(6) 0.99299(10)
H8 H 0.6907 0.7605 1.0450
C12 C 1.12820(16) 0.64429(6) 0.94503(9)
C13 C 1.08906(17) 0.59523(6) 1.00540(10)
H9 H 0.9722 0.5870 1.0001
C14 C 1.21854(18) 0.55835(7) 1.07314(11)
H10 H 1.1904 0.5249 1.1137
C15 C 1.38920(18) 0.57036(7) 1.08172(11)
H11 H 1.4783 0.5452 1.1281
C16 C 1.42945(18) 0.61911(7) 1.02258(12)
H12 H 1.5466 0.6274 1.0287
C17 C 1.30023(17) 0.65601(7) 0.95437(11)
H13 H 1.3291 0.6894 0.9139
C18 C 0.86294(17) 0.58860(7) 0.45364(10)
H14 H 0.9078 0.6302 0.4672
C19 C 0.85153(17) 0.55772(7) 0.35217(10)
C20 C 0.87864(18) 0.57953(8) 0.26002(11)
H15 H 0.9137 0.6209 0.2477
C21 C 0.84408(19) 0.52813(8) 0.18528(12)
H16 H 0.8514 0.5284 0.1131
C22 C 0.79925(19) 0.47929(8) 0.23657(11)
H17 H 0.7691 0.4387 0.2053
C23 C 0.5960(2) 0.52161(7) 0.65264(11)
H18 H 0.5505 0.5122 0.7130
H19 H 0.6465 0.4833 0.6326
H20 H 0.5023 0.5366 0.5896
loop_
_geom_bond_atom_site_label_1
_geom_bond_atom_site_label_2
_geom_bond_site_symmetry_1
_geom_bond_site_symmetry_2
S1 C1 1_555 1_555
O1 C5 1_555 1_555
O2 C19 1_555 1_555
N1 N2 1_555 1_555
N2 C2 1_555 1_555
N3 N4 1_555 1_555
N4 C18 1_555 1_555
C1 N1 1_555 1_555
C2 N3 1_555 1_555
C3 N1 1_555 1_555
H1 C3 1_555 1_555
C4 C3 1_555 1_555
H2 C4 1_555 1_555
H3 C4 1_555 1_555
C5 C4 1_555 1_555
C6 C5 1_555 1_555
C7 C6 1_555 1_555
H4 C7 1_555 1_555
C8 C7 1_555 1_555
H5 C8 1_555 1_555
C9 C8 1_555 1_555
H6 C9 1_555 1_555
C10 C9 1_555 1_555
H7 C10 1_555 1_555
C11 C6 1_555 1_555
H8 C11 1_555 1_555
C12 C3 1_555 1_555
C13 C12 1_555 1_555
H9 C13 1_555 1_555
C14 C13 1_555 1_555
H10 C14 1_555 1_555
C15 C14 1_555 1_555
H11 C15 1_555 1_555
C16 C15 1_555 1_555
H12 C16 1_555 1_555
C17 C12 1_555 1_555
H13 C17 1_555 1_555
C18 H14 1_555 1_555
C19 C18 1_555 1_555
C20 C19 1_555 1_555
H15 C20 1_555 1_555
C21 C20 1_555 1_555
H16 C21 1_555 1_555
C22 O2 1_555 1_555
H17 C22 1_555 1_555
C23 C2 1_555 1_555
H18 C23 1_555 1_555
H19 C23 1_555 1_555
H20 C23 1_555 1_555
N3 C1 1_555 1_555
C10 C11 1_555 1_555
C16 C17 1_555 1_555
C21 C22 1_555 1_555

#END
