
#######################################################################
#
#                 Cambridge Crystallographic Data Centre
#                                CCDC 
#
#######################################################################
#
# If this CIF has been generated from an entry in the Cambridge 
# Structural Database, then it will include bibliographic, chemical, 
# crystal, experimental, refinement or atomic coordinate data resulting 
# from the CCDC's data processing and validation procedures.
#
#######################################################################

data_AZUTEV
_chemical_name_common            
3-(4-((4-Nitrobenzylidene)amino)-3-phenyl-5-thioxo-4,5-dihydro-1H-1,2,4-triazol-1-yl)-1,3-diphenylpropan-1-one
_chemical_formula_moiety         'C30 H23 N5 O3 S1'
_chemical_name_systematic        
rac-3-(4-[(4-Nitrobenzylidene)amino]-3-phenyl-5-sulfanylidene-4,5-dihydro-1H-1,2,4-triazol-1-yl)-1,3-diphenylpropan-1-one
_symmetry_cell_setting           monoclinic
_symmetry_space_group_name_H-M   'P 21/c'
_symmetry_Int_Tables_number      14
_space_group_name_Hall           '-P 2ybc'
loop_
_symmetry_equiv_pos_site_id
_symmetry_equiv_pos_as_xyz
1 x,y,z
2 -x,1/2+y,1/2-z
3 -x,-y,-z
4 x,1/2-y,1/2+z
_cell_length_a                   13.3303(13)
_cell_length_b                   21.832(2)
_cell_length_c                   9.2773(9)
_cell_angle_alpha                90
_cell_angle_beta                 98.213(3)
_cell_angle_gamma                90
_cell_volume                     2672.25
_exptl_crystal_colour            colorless
_exptl_crystal_description       prism
_cell_formula_units_Z            4
loop_
_atom_site_label
_atom_site_type_symbol
_atom_site_fract_x
_atom_site_fract_y
_atom_site_fract_z
S1 S 0.40778(3) 0.258871(19) 0.46718(5)
O1 O 0.33880(9) 0.08657(5) 0.76721(14)
O2 O -0.05157(12) 0.41949(7) -0.22517(19)
O3 O -0.07948(10) 0.33342(7) -0.34027(17)
N1 N 0.41855(9) 0.13669(6) 0.49993(14)
N2 N 0.37677(10) 0.08227(6) 0.44644(15)
N3 N 0.30586(9) 0.16063(6) 0.32011(14)
N4 N 0.23159(10) 0.18795(7) 0.22006(15)
N5 N -0.03993(11) 0.36460(8) -0.23724(19)
C1 C 0.37777(12) 0.18629(7) 0.42770(17)
C2 C 0.30761(12) 0.09772(7) 0.33837(18)
C3 C 0.49357(11) 0.13916(7) 0.63312(17)
H1 H 0.4677 0.1679 0.7033
C4 C 0.50513(11) 0.07593(7) 0.70349(17)
H2 H 0.5231 0.0462 0.6307
H3 H 0.5621 0.0772 0.7846
C5 C 0.41174(12) 0.05325(7) 0.76135(17)
C6 C 0.41222(11) -0.01130(7) 0.81389(16)
C7 C 0.50162(12) -0.04455(7) 0.84342(17)
H4 H 0.5640 -0.0265 0.8279
C8 C 0.50025(13) -0.10395(7) 0.89538(18)
H5 H 0.5617 -0.1265 0.9151
C9 C 0.40986(13) -0.13060(8) 0.91858(19)
H6 H 0.4091 -0.1715 0.9534
C10 C 0.32011(14) -0.09748(8) 0.89083(19)
H7 H 0.2580 -0.1155 0.9079
C11 C 0.32128(12) -0.03833(8) 0.83847(18)
H8 H 0.2598 -0.0159 0.8190
C12 C 0.59542(11) 0.16257(7) 0.60266(17)
C13 C 0.64074(12) 0.14022(8) 0.48742(18)
H9 H 0.6057 0.1114 0.4219
C14 C 0.73711(13) 0.15985(8) 0.4674(2)
H10 H 0.7679 0.1442 0.3888
C15 C 0.78809(13) 0.20224(8) 0.5621(2)
H11 H 0.8536 0.2160 0.5482
C16 C 0.74310(13) 0.22440(8) 0.67691(19)
H12 H 0.7783 0.2532 0.7424
C17 C 0.64733(12) 0.20516(7) 0.69740(18)
H13 H 0.6169 0.2210 0.7761
C18 C 0.23453(13) 0.24544(9) 0.1994(2)
H14 H 0.2862 0.2696 0.2532
C19 C 0.15729(12) 0.27428(9) 0.0914(2)
C20 C 0.09104(13) 0.24006(8) -0.0091(2)
H15 H 0.0912 0.1966 -0.0037
C21 C 0.02564(13) 0.26954(9) -0.1159(2)
H16 H -0.0185 0.2469 -0.1858
C22 C 0.02605(12) 0.33251(8) -0.1185(2)
C23 C 0.08666(13) 0.36786(9) -0.0181(2)
H17 H 0.0828 0.4113 -0.0206
C24 C 0.15371(13) 0.33767(9) 0.0872(2)
H18 H 0.1974 0.3608 0.1568
C25 C 0.24185(12) 0.05265(8) 0.25380(19)
C26 C 0.22312(14) -0.00168(8) 0.3235(2)
H19 H 0.2505 -0.0077 0.4227
C27 C 0.16458(16) -0.04698(9) 0.2484(3)
H20 H 0.1526 -0.0843 0.2959
C28 C 0.12366(15) -0.03807(10) 0.1051(3)
H21 H 0.0829 -0.0691 0.0544
C29 C 0.14132(14) 0.01515(10) 0.0354(2)
H22 H 0.1124 0.0210 -0.0633
C30 C 0.20157(13) 0.06087(9) 0.1082(2)
H23 H 0.2151 0.0974 0.0589
loop_
_geom_bond_atom_site_label_1
_geom_bond_atom_site_label_2
_geom_bond_site_symmetry_1
_geom_bond_site_symmetry_2
S1 C1 1_555 1_555
O1 C5 1_555 1_555
O2 N5 1_555 1_555
O3 N5 1_555 1_555
N1 N2 1_555 1_555
N2 C2 1_555 1_555
N3 N4 1_555 1_555
N4 C18 1_555 1_555
N5 C22 1_555 1_555
C1 N1 1_555 1_555
C2 N3 1_555 1_555
C3 N1 1_555 1_555
H1 C3 1_555 1_555
C4 C3 1_555 1_555
H2 C4 1_555 1_555
H3 C4 1_555 1_555
C5 C4 1_555 1_555
C6 C5 1_555 1_555
C7 C6 1_555 1_555
H4 C7 1_555 1_555
C8 C7 1_555 1_555
H5 C8 1_555 1_555
C9 C8 1_555 1_555
H6 C9 1_555 1_555
C10 C9 1_555 1_555
H7 C10 1_555 1_555
C11 C6 1_555 1_555
H8 C11 1_555 1_555
C12 C3 1_555 1_555
C13 C12 1_555 1_555
H9 C13 1_555 1_555
C14 C13 1_555 1_555
H10 C14 1_555 1_555
C15 C14 1_555 1_555
H11 C15 1_555 1_555
C16 C15 1_555 1_555
H12 C16 1_555 1_555
C17 C12 1_555 1_555
H13 C17 1_555 1_555
C18 H14 1_555 1_555
C19 C18 1_555 1_555
C20 C19 1_555 1_555
H15 C20 1_555 1_555
C21 C20 1_555 1_555
H16 C21 1_555 1_555
C22 C21 1_555 1_555
C23 C22 1_555 1_555
H17 C23 1_555 1_555
C24 C19 1_555 1_555
H18 C24 1_555 1_555
C25 C2 1_555 1_555
C26 C25 1_555 1_555
H19 C26 1_555 1_555
C27 C26 1_555 1_555
H20 C27 1_555 1_555
C28 C27 1_555 1_555
H21 C28 1_555 1_555
C29 C28 1_555 1_555
H22 C29 1_555 1_555
C30 C25 1_555 1_555
H23 C30 1_555 1_555
N3 C1 1_555 1_555
C10 C11 1_555 1_555
C16 C17 1_555 1_555
C23 C24 1_555 1_555
C29 C30 1_555 1_555

#END
