
#######################################################################
#
#                 Cambridge Crystallographic Data Centre
#                                CCDC 
#
#######################################################################
#
# If this CIF has been generated from an entry in the Cambridge 
# Structural Database, then it will include bibliographic, chemical, 
# crystal, experimental, refinement or atomic coordinate data resulting 
# from the CCDC's data processing and validation procedures.
#
#######################################################################

data_BABCEP
_chemical_formula_moiety         'C15 H12 O3'
_chemical_name_systematic        
5-Hydroxy-2-(4-methylbenzoyl)cyclohepta-2,4,6-trien-1-one
_symmetry_cell_setting           monoclinic
_symmetry_space_group_name_H-M   'P 21/n'
_symmetry_Int_Tables_number      14
_space_group_name_Hall           '-P 2yn'
loop_
_symmetry_equiv_pos_site_id
_symmetry_equiv_pos_as_xyz
1 x,y,z
2 1/2-x,1/2+y,1/2-z
3 -x,-y,-z
4 1/2+x,1/2-y,1/2+z
_cell_length_a                   13.899(3)
_cell_length_b                   6.5834(12)
_cell_length_c                   14.579(3)
_cell_angle_alpha                90
_cell_angle_beta                 117.751(3)
_cell_angle_gamma                90
_cell_volume                     1180.58
_exptl_crystal_colour            yellow
_exptl_crystal_description       prismatic
_cell_formula_units_Z            4
loop_
_atom_site_label
_atom_site_type_symbol
_atom_site_fract_x
_atom_site_fract_y
_atom_site_fract_z
O1 O 0.80421(9) 0.1335(2) 0.70709(10)
O2 O 1.09551(10) 0.2982(2) 1.13192(9)
H1 H 1.1612 0.3179 1.1569
O3 O 1.03696(13) 0.0303(2) 0.67929(12)
C1 C 0.88457(13) 0.1788(3) 0.79116(13)
C2 C 0.86917(14) 0.2035(3) 0.88141(14)
H2 H 0.7971 0.1932 0.8683
C3 C 0.93946(14) 0.2387(2) 0.98103(14)
H3 H 0.9083 0.2452 1.0253
C4 C 1.05397(14) 0.2678(2) 1.02989(13)
C5 C 1.11807(13) 0.2649(3) 0.98206(14)
H4 H 1.1919 0.2869 1.0245
C6 C 1.08666(14) 0.2331(3) 0.87762(14)
H5 H 1.1443 0.2348 0.8620
C7 C 0.98813(13) 0.1998(3) 0.79349(13)
C8 C 0.98833(13) 0.1721(3) 0.69109(14)
C9 C 0.93236(13) 0.3247(3) 0.60892(13)
C10 C 0.90885(15) 0.2798(3) 0.50747(15)
H6 H 0.9294 0.1554 0.4918
C11 C 0.85506(16) 0.4202(4) 0.43030(15)
H7 H 0.8387 0.3878 0.3625
C12 C 0.82453(15) 0.6084(4) 0.45062(15)
C13 C 0.85216(15) 0.6537(3) 0.55151(15)
H8 H 0.8353 0.7811 0.5676
C14 C 0.90449(14) 0.5143(3) 0.62981(14)
H9 H 0.9213 0.5483 0.6975
C15 C 0.7630(2) 0.7551(4) 0.3646(2)
H10 H 0.6864 0.7315 0.3374
H11 H 0.7833 0.7364 0.3106
H12 H 0.7798 0.8914 0.3906
loop_
_geom_bond_atom_site_label_1
_geom_bond_atom_site_label_2
_geom_bond_site_symmetry_1
_geom_bond_site_symmetry_2
O1 C1 1_555 1_555
O2 H1 1_555 1_555
O3 C8 1_555 1_555
C1 C2 1_555 1_555
C2 H2 1_555 1_555
C3 C2 1_555 1_555
H3 C3 1_555 1_555
C4 O2 1_555 1_555
C5 C4 1_555 1_555
H4 C5 1_555 1_555
C6 C5 1_555 1_555
H5 C6 1_555 1_555
C7 C1 1_555 1_555
C8 C7 1_555 1_555
C9 C8 1_555 1_555
C10 C9 1_555 1_555
H6 C10 1_555 1_555
C11 C10 1_555 1_555
H7 C11 1_555 1_555
C12 C11 1_555 1_555
C13 C12 1_555 1_555
H8 C13 1_555 1_555
C14 C9 1_555 1_555
H9 C14 1_555 1_555
C15 C12 1_555 1_555
H10 C15 1_555 1_555
H11 C15 1_555 1_555
H12 C15 1_555 1_555
C3 C4 1_555 1_555
C6 C7 1_555 1_555
C13 C14 1_555 1_555

#END
