
#######################################################################
#
#                 Cambridge Crystallographic Data Centre
#                                CCDC 
#
#######################################################################
#
# If this CIF has been generated from an entry in the Cambridge 
# Structural Database, then it will include bibliographic, chemical, 
# crystal, experimental, refinement or atomic coordinate data resulting 
# from the CCDC's data processing and validation procedures.
#
#######################################################################

data_BABCIT
_chemical_formula_moiety         'C21 H14 O4'
_chemical_name_systematic        
'2-Benzoyl-5-oxocyclohepta-1,3,6-trien-1-yl benzoate'
_symmetry_cell_setting           orthorhombic
_symmetry_space_group_name_H-M   'P n a 21'
_symmetry_Int_Tables_number      33
_space_group_name_Hall           'P 2c -2n'
loop_
_symmetry_equiv_pos_site_id
_symmetry_equiv_pos_as_xyz
1 x,y,z
2 -x,-y,1/2+z
3 1/2+x,1/2-y,z
4 1/2-x,1/2+y,1/2+z
_cell_length_a                   9.2786(15)
_cell_length_b                   23.641(4)
_cell_length_c                   7.5289(11)
_cell_angle_alpha                90
_cell_angle_beta                 90
_cell_angle_gamma                90
_cell_volume                     1651.5
_exptl_crystal_colour            colorless
_exptl_crystal_description       prismatic
_cell_formula_units_Z            4
loop_
_atom_site_label
_atom_site_type_symbol
_atom_site_fract_x
_atom_site_fract_y
_atom_site_fract_z
O1 O 0.6583(3) 0.29115(10) 0.5125(5)
O2 O 0.4160(3) 0.54052(10) 0.5301(4)
O3 O 0.7889(2) 0.52537(7) 0.3902(3)
O4 O 0.9978(3) 0.50517(9) 0.5265(4)
C1 C 0.5227(4) 0.43010(14) 0.5986(5)
H1 H 0.4366 0.4399 0.6537
C2 C 0.5456(4) 0.37431(15) 0.5858(5)
H2 H 0.4758 0.3522 0.6408
C3 C 0.6589(4) 0.34271(14) 0.5022(5)
C4 C 0.7707(4) 0.37020(13) 0.4001(5)
H3 H 0.8323 0.3456 0.3407
C5 C 0.8005(4) 0.42504(13) 0.3765(5)
H4 H 0.8791 0.4325 0.3035
C6 C 0.7303(3) 0.47367(11) 0.4463(4)
C7 C 0.6082(3) 0.47735(11) 0.5420(4)
C8 C 0.5404(4) 0.53424(13) 0.5750(5)
C9 C 0.6217(4) 0.58004(13) 0.6642(5)
C10 C 0.7367(3) 0.56886(14) 0.7750(4)
H5 H 0.7658 0.5317 0.7942
C11 C 0.8077(4) 0.61217(18) 0.8564(6)
H6 H 0.8847 0.6045 0.9317
C12 C 0.7661(6) 0.66678(19) 0.8275(7)
H7 H 0.8157 0.6962 0.8824
C13 C 0.6519(6) 0.67868(17) 0.7182(7)
H8 H 0.6241 0.7160 0.6987
C14 C 0.5791(5) 0.63539(15) 0.6381(5)
H9 H 0.5005 0.6432 0.5656
C15 C 0.9270(4) 0.53776(13) 0.4438(4)
C16 C 0.9695(3) 0.59529(12) 0.3925(4)
C17 C 1.1100(4) 0.61163(14) 0.4219(5)
H10 H 1.1761 0.5858 0.4670
C18 C 1.1526(4) 0.66589(16) 0.3848(6)
H11 H 1.2472 0.6769 0.4063
C19 C 1.0559(5) 0.70390(17) 0.3159(6)
H12 H 1.0851 0.7407 0.2907
C20 C 0.9178(5) 0.68788(15) 0.2846(6)
H13 H 0.8526 0.7137 0.2374
C21 C 0.8742(4) 0.63400(14) 0.3221(5)
H14 H 0.7794 0.6233 0.3001
loop_
_geom_bond_atom_site_label_1
_geom_bond_atom_site_label_2
_geom_bond_site_symmetry_1
_geom_bond_site_symmetry_2
O1 C3 1_555 1_555
O2 C8 1_555 1_555
O3 C6 1_555 1_555
O4 C15 1_555 1_555
C1 H1 1_555 1_555
C2 C1 1_555 1_555
H2 C2 1_555 1_555
C3 C2 1_555 1_555
C4 C3 1_555 1_555
H3 C4 1_555 1_555
C5 C4 1_555 1_555
H4 C5 1_555 1_555
C6 C5 1_555 1_555
C7 C1 1_555 1_555
C8 C7 1_555 1_555
C9 C8 1_555 1_555
C10 C9 1_555 1_555
H5 C10 1_555 1_555
C11 C10 1_555 1_555
H6 C11 1_555 1_555
C12 C11 1_555 1_555
H7 C12 1_555 1_555
C13 C12 1_555 1_555
H8 C13 1_555 1_555
C14 C9 1_555 1_555
H9 C14 1_555 1_555
C15 O3 1_555 1_555
C16 C15 1_555 1_555
C17 C16 1_555 1_555
H10 C17 1_555 1_555
C18 C17 1_555 1_555
H11 C18 1_555 1_555
C19 C18 1_555 1_555
H12 C19 1_555 1_555
C20 C19 1_555 1_555
H13 C20 1_555 1_555
C21 C16 1_555 1_555
H14 C21 1_555 1_555
C6 C7 1_555 1_555
C13 C14 1_555 1_555
C20 C21 1_555 1_555

#END
