
#######################################################################
#
#                 Cambridge Crystallographic Data Centre
#                                CCDC 
#
#######################################################################
#
# If this CIF has been generated from an entry in the Cambridge 
# Structural Database, then it will include bibliographic, chemical, 
# crystal, experimental, refinement or atomic coordinate data resulting 
# from the CCDC's data processing and validation procedures.
#
#######################################################################

data_BABDOA
_chemical_formula_moiety         'C27 H32 N4 S1'
_chemical_name_systematic        
N^4^,N^5^-dicyclohexyl-N^2^,3-diphenyl-1,3-thiazolidine-2,4,5-triimine
_symmetry_cell_setting           monoclinic
_symmetry_space_group_name_H-M   'P c'
_symmetry_Int_Tables_number      7
_space_group_name_Hall           'P -2yc'
loop_
_symmetry_equiv_pos_site_id
_symmetry_equiv_pos_as_xyz
1 x,y,z
2 x,-y,1/2+z
_cell_length_a                   11.214(7)
_cell_length_b                   5.560(3)
_cell_length_c                   19.572(12)
_cell_angle_alpha                90
_cell_angle_beta                 96.454(8)
_cell_angle_gamma                90
_cell_volume                     1212.58
_exptl_crystal_colour            colorless
_exptl_crystal_description       rod
_cell_formula_units_Z            2
loop_
_atom_site_label
_atom_site_type_symbol
_atom_site_fract_x
_atom_site_fract_y
_atom_site_fract_z
S1 S 0.50144(7) 0.30190(18) 0.42916(5)
N1 N 0.6665(3) 0.4699(6) 0.52209(17)
N2 N 0.7447(3) 0.2375(6) 0.43880(17)
N3 N 0.3576(3) 0.6176(6) 0.48937(17)
N4 N 0.5640(3) 0.6634(6) 0.60305(16)
C1 C 0.6553(3) 0.3284(7) 0.46404(19)
C2 C 0.4584(3) 0.5143(7) 0.49066(19)
C3 C 0.5609(3) 0.5628(7) 0.54502(19)
C4 C 0.7264(3) 0.0914(7) 0.37905(19)
C5 C 0.6589(4) -0.1194(7) 0.3778(2)
H1 H 0.6216 -0.1624 0.4161
C6 C 0.6467(4) -0.2663(7) 0.3198(2)
H2 H 0.6016 -0.4067 0.3195
C7 C 0.7019(4) -0.2032(7) 0.2625(2)
H3 H 0.6936 -0.3002 0.2235
C8 C 0.7697(4) 0.0064(8) 0.2636(2)
H4 H 0.8069 0.0492 0.2252
C9 C 0.7825(3) 0.1516(7) 0.3212(2)
H5 H 0.8289 0.2904 0.3214
C10 C 0.2586(3) 0.5643(8) 0.4367(2)
H6 H 0.2838 0.4412 0.4055
C11 C 0.1541(4) 0.4695(8) 0.4722(2)
H7 H 0.1382 0.5803 0.5084
H8 H 0.1762 0.3157 0.4934
C12 C 0.0402(4) 0.4386(8) 0.4224(3)
H9 H 0.0524 0.3131 0.3895
H10 H -0.0254 0.3899 0.4477
C13 C 0.0076(4) 0.6720(9) 0.3845(3)
H11 H -0.0629 0.6468 0.3518
H12 H -0.0116 0.7936 0.4171
C14 C 0.1102(4) 0.7596(9) 0.3468(2)
H13 H 0.0884 0.9114 0.3244
H14 H 0.1252 0.6440 0.3116
C15 C 0.2239(4) 0.7928(8) 0.3963(2)
H15 H 0.2115 0.9216 0.4282
H16 H 0.2892 0.8396 0.3706
C16 C 0.4534(3) 0.7482(7) 0.62901(19)
H17 H 0.3859 0.6536 0.6071
C17 C 0.4299(4) 1.0126(8) 0.6121(2)
H18 H 0.4965 1.1090 0.6328
H19 H 0.4234 1.0357 0.5627
C18 C 0.3147(4) 1.0934(8) 0.6391(2)
H20 H 0.2474 1.0071 0.6151
H21 H 0.3026 1.2637 0.6300
C19 C 0.3186(4) 1.0481(9) 0.7164(2)
H22 H 0.3790 1.1509 0.7409
H23 H 0.2416 1.0893 0.7313
C20 C 0.3476(4) 0.7864(8) 0.7343(2)
H24 H 0.3564 0.7668 0.7838
H25 H 0.2817 0.6852 0.7151
C21 C 0.4626(3) 0.7070(8) 0.7063(2)
H26 H 0.5299 0.7972 0.7287
H27 H 0.4766 0.5377 0.7161
C22 C 0.7823(3) 0.5115(7) 0.5611(2)
C23 C 0.8279(4) 0.3439(9) 0.6089(2)
H28 H 0.7860 0.2028 0.6151
C24 C 0.9377(4) 0.3881(10) 0.6477(3)
H29 H 0.9696 0.2758 0.6800
C25 C 0.9989(4) 0.5984(10) 0.6383(3)
H30 H 1.0713 0.6288 0.6650
C26 C 0.9537(4) 0.7646(9) 0.5895(3)
H31 H 0.9962 0.9045 0.5827
C27 C 0.8437(4) 0.7211(8) 0.5506(2)
H32 H 0.8122 0.8322 0.5180
loop_
_geom_bond_atom_site_label_1
_geom_bond_atom_site_label_2
_geom_bond_site_symmetry_1
_geom_bond_site_symmetry_2
S1 C1 1_555 1_555
N1 C1 1_555 1_555
N2 C1 1_555 1_555
N3 C2 1_555 1_555
N4 C3 1_555 1_555
C2 S1 1_555 1_555
C3 N1 1_555 1_555
C4 N2 1_555 1_555
C5 C4 1_555 1_555
H1 C5 1_555 1_555
C6 C5 1_555 1_555
H2 C6 1_555 1_555
C7 C6 1_555 1_555
H3 C7 1_555 1_555
C8 C7 1_555 1_555
H4 C8 1_555 1_555
C9 C4 1_555 1_555
H5 C9 1_555 1_555
C10 N3 1_555 1_555
H6 C10 1_555 1_555
C11 C10 1_555 1_555
H7 C11 1_555 1_555
H8 C11 1_555 1_555
C12 C11 1_555 1_555
H9 C12 1_555 1_555
H10 C12 1_555 1_555
C13 C12 1_555 1_555
H11 C13 1_555 1_555
H12 C13 1_555 1_555
C14 C13 1_555 1_555
H13 C14 1_555 1_555
H14 C14 1_555 1_555
C15 C10 1_555 1_555
H15 C15 1_555 1_555
H16 C15 1_555 1_555
C16 N4 1_555 1_555
H17 C16 1_555 1_555
C17 C16 1_555 1_555
H18 C17 1_555 1_555
H19 C17 1_555 1_555
C18 C17 1_555 1_555
H20 C18 1_555 1_555
H21 C18 1_555 1_555
C19 C18 1_555 1_555
H22 C19 1_555 1_555
H23 C19 1_555 1_555
C20 C19 1_555 1_555
H24 C20 1_555 1_555
H25 C20 1_555 1_555
C21 C16 1_555 1_555
H26 C21 1_555 1_555
H27 C21 1_555 1_555
C22 N1 1_555 1_555
C23 C22 1_555 1_555
H28 C23 1_555 1_555
C24 C23 1_555 1_555
H29 C24 1_555 1_555
C25 C24 1_555 1_555
H30 C25 1_555 1_555
C26 C25 1_555 1_555
H31 C26 1_555 1_555
C27 C22 1_555 1_555
H32 C27 1_555 1_555
C2 C3 1_555 1_555
C8 C9 1_555 1_555
C14 C15 1_555 1_555
C20 C21 1_555 1_555
C26 C27 1_555 1_555

#END
