
#######################################################################
#
#                 Cambridge Crystallographic Data Centre
#                                CCDC 
#
#######################################################################
#
# If this CIF has been generated from an entry in the Cambridge 
# Structural Database, then it will include bibliographic, chemical, 
# crystal, experimental, refinement or atomic coordinate data resulting 
# from the CCDC's data processing and validation procedures.
#
#######################################################################

data_BABYAG
_chemical_formula_moiety         'C42 H46 N4'
_chemical_name_systematic        
"N,N'-Bis(2,6-dimethylphenyl)-2,4-diisopropyl-3,8-diphenyl-1,6-dihydropyrrolo[3,2-c]azepine-6,7-diamine unknown solvate"
_symmetry_cell_setting           triclinic
_symmetry_space_group_name_H-M   'P -1'
_symmetry_Int_Tables_number      2
_space_group_name_Hall           '-P 1'
loop_
_symmetry_equiv_pos_site_id
_symmetry_equiv_pos_as_xyz
1 x,y,z
2 -x,-y,-z
_cell_length_a                   11.649(2)
_cell_length_b                   17.851(4)
_cell_length_c                   20.528(4)
_cell_angle_alpha                96.01(3)
_cell_angle_beta                 105.24(3)
_cell_angle_gamma                100.38(3)
_cell_volume                     3998.86
_cell_formula_units_Z            4
loop_
_atom_site_label
_atom_site_type_symbol
_atom_site_fract_x
_atom_site_fract_y
_atom_site_fract_z
C1 C 0.7483(2) 0.92976(13) 0.46556(13)
C2 C 0.8253(2) 0.94320(13) 0.53061(13)
C3 C 0.8698(2) 0.87290(13) 0.54242(13)
C4 C 0.9376(2) 0.85262(13) 0.60608(13)
C5 C 1.0257(2) 0.76821(14) 0.54699(14)
H1 H 1.047(2) 0.8094(12) 0.5214(11)
C6 C 0.9112(2) 0.71043(13) 0.50318(12)
C7 C 0.8133(2) 0.73710(13) 0.46881(12)
C8 C 0.8137(2) 0.81844(13) 0.48375(12)
C9 C 0.6822(2) 0.98246(15) 0.42519(15)
H2 H 0.695(2) 1.0308(13) 0.4562(12)
C10 C 0.5450(2) 0.95014(17) 0.39894(17)
H3 H 0.5290 0.9018 0.3694
H4 H 0.5065 0.9859 0.3740
H5 H 0.5131 0.9424 0.4369
C11 C 0.7324(3) 1.00193(19) 0.36673(17)
H6 H 0.8146 1.0314 0.3847
H7 H 0.6830 1.0316 0.3397
H8 H 0.7315 0.9551 0.3387
C12 C 0.8591(2) 1.01713(13) 0.57751(12)
C13 C 0.7770(2) 1.03978(16) 0.60966(15)
H9 H 0.6990 1.0091 0.5994
C14 C 0.8080(3) 1.10640(18) 0.65625(17)
H10 H 0.7510 1.1204 0.6768
C15 C 0.9219(3) 1.15222(17) 0.67264(15)
H11 H 0.9437 1.1965 0.7052
C16 C 1.0049(3) 1.13194(16) 0.64012(16)
H12 H 1.0822 1.1633 0.6500
C17 C 0.9723(2) 1.06493(15) 0.59302(14)
H13 H 1.0284 1.0519 0.5713
C18 C 0.9216(3) 0.88650(17) 0.67285(15)
H14 H 0.924(2) 0.9414(14) 0.6716(12)
C19 C 1.0221(3) 0.8813(2) 0.73474(17)
H15 H 1.0138 0.9107 0.7745
H16 H 1.0997 0.9016 0.7282
H17 H 1.0168 0.8284 0.7409
C20 C 0.8005(4) 0.8513(3) 0.6787(2)
H18 H 0.7392 0.8511 0.6369
H19 H 0.7843 0.8806 0.7159
H20 H 0.7993 0.7993 0.6870
C21 C 1.2444(2) 0.76482(14) 0.55913(15)
C22 C 1.3422(3) 0.79842(15) 0.61724(16)
C23 C 1.4552(3) 0.82821(17) 0.6068(2)
H21 H 1.5223 0.8498 0.6443
C24 C 1.4674(3) 0.82582(19) 0.5428(2)
H22 H 1.5420 0.8479 0.5371
C25 C 1.3709(3) 0.79106(17) 0.48574(18)
H23 H 1.3812 0.7892 0.4422
C26 C 1.2578(3) 0.75881(15) 0.49421(16)
C27 C 1.3302(3) 0.80220(17) 0.68815(16)
H24 H 1.2642 0.8264 0.6912
H25 H 1.4046 0.8317 0.7200
H26 H 1.3142 0.7509 0.6988
C28 C 1.1579(3) 0.71381(17) 0.43311(15)
H27 H 1.1337 0.6621 0.4411
H28 H 1.1869 0.7126 0.3934
H29 H 1.0893 0.7380 0.4258
C29 C 0.8221(2) 0.56764(14) 0.49454(14)
C30 C 0.7397(3) 0.56659(16) 0.53351(16)
C31 C 0.6543(3) 0.4978(2) 0.5249(2)
H30 H 0.5980 0.4953 0.5499
C32 C 0.6513(4) 0.4341(2) 0.4808(2)
H31 H 0.5935 0.3891 0.4764
C33 C 0.7328(3) 0.43578(17) 0.44270(19)
H32 H 0.7298 0.3922 0.4127
C34 C 0.8199(3) 0.50322(16) 0.44937(16)
C35 C 0.7440(3) 0.63347(18) 0.58455(16)
H33 H 0.8272 0.6555 0.6103
H34 H 0.6985 0.6165 0.6150
H35 H 0.7093 0.6716 0.5613
C36 C 0.9079(3) 0.50455(16) 0.40789(15)
H36 H 0.9046 0.5469 0.3828
H37 H 0.8868 0.4570 0.3765
H38 H 0.9888 0.5105 0.4377
C37 C 0.7060(2) 0.68608(13) 0.41580(13)
C38 C 0.7202(3) 0.64136(15) 0.36167(15)
H39 H 0.7983 0.6437 0.3574
C39 C 0.6226(4) 0.59252(18) 0.31275(17)
H40 H 0.6348 0.5620 0.2766
C40 C 0.5070(4) 0.5903(2) 0.3189(2)
H41 H 0.4406 0.5574 0.2867
C41 C 0.4885(3) 0.6352(2) 0.37118(19)
H42 H 0.4099 0.6338 0.3742
C42 C 0.5874(3) 0.68328(15) 0.41996(15)
H43 H 0.5747 0.7139 0.4558
N1 N 0.74043(16) 0.85372(10) 0.43788(10)
H101 H 0.6960 0.8317 0.3976
N2 N 1.00282(18) 0.80078(11) 0.60869(10)
N3 N 1.13022(17) 0.73150(11) 0.56922(11)
H102 H 1.1227 0.6907 0.5880
N4 N 0.91656(18) 0.63442(11) 0.50419(10)
H103 H 0.9887 0.6256 0.5119
C43 C 0.3644(3) 0.03649(15) 0.08957(15)
C44 C 0.3175(3) 0.02684(14) 0.02089(15)
C45 C 0.3408(2) 0.10228(14) -0.00036(14)
C46 C 0.2910(3) 0.12548(16) -0.06561(14)
C47 C 0.4610(3) 0.22924(16) -0.04605(14)
H44 H 0.514(2) 0.1930(13) -0.0334(12)
C48 C 0.4535(2) 0.27545(14) 0.01725(14)
C49 C 0.4341(2) 0.23876(14) 0.07006(14)
C50 C 0.4007(2) 0.15558(14) 0.05851(13)
C51 C 0.3708(4) -0.02000(17) 0.13925(17)
H45 H 0.323(3) -0.0703(16) 0.1137(15)
C52 C 0.3143(4) 0.0018(2) 0.19540(19)
H46 H 0.3663 0.0468 0.2258
H47 H 0.3048 -0.0402 0.2205
H48 H 0.2360 0.0127 0.1753
C53 C 0.5014(4) -0.0293(2) 0.1696(2)
H49 H 0.5350 -0.0433 0.1333
H50 H 0.5009 -0.0689 0.1978
H51 H 0.5501 0.0186 0.1968
C54 C 0.2585(3) -0.04866(16) -0.02416(15)
C55 C 0.1438(4) -0.0866(2) -0.02420(19)
H52 H 0.1056 -0.0659 0.0057
C56 C 0.0851(5) -0.1553(3) -0.0685(3)
H53 H 0.0079 -0.1801 -0.0682
C57 C 0.1396(6) -0.1857(3) -0.1117(3)
H54 H 0.0989 -0.2310 -0.1418
C58 C 0.2548(5) -0.1507(2) -0.1118(2)
H55 H 0.2926 -0.1726 -0.1413
C59 C 0.3146(3) -0.08159(17) -0.06686(17)
H56 H 0.3930 -0.0580 -0.0661
C60 C 0.1647(3) 0.08209(19) -0.11131(18)
H57 H 0.159(3) 0.0269(17) -0.1100(14)
C61 C 0.1425(4) 0.0938(2) -0.18446(19)
H58 H 0.1474 0.1476 -0.1871
H59 H 0.0629 0.0649 -0.2107
H60 H 0.2028 0.0763 -0.2025
C62 C 0.0692(4) 0.1061(3) -0.0821(3)
H61 H 0.0587 0.1560 -0.0929
H62 H 0.0942 0.1086 -0.0333
H63 H -0.0065 0.0692 -0.1013
C63 C 0.6003(3) 0.26038(15) -0.11910(18)
C64 C 0.5745(4) 0.23771(17) -0.1891(2)
C65 C 0.6687(5) 0.2224(2) -0.2148(2)
H64 H 0.6534 0.2080 -0.2617
C66 C 0.7823(5) 0.2281(3) -0.1726(3)
H65 H 0.8430 0.2155 -0.1907
C67 C 0.8086(4) 0.2523(2) -0.1039(3)
H66 H 0.8868 0.2564 -0.0754
C68 C 0.7168(4) 0.27096(19) -0.0764(2)
C69 C 0.4488(4) 0.22861(19) -0.23709(17)
H67 H 0.3930 0.1895 -0.2254
H68 H 0.4500 0.2139 -0.2832
H69 H 0.4231 0.2767 -0.2333
C70 C 0.7498(3) 0.3063(2) -0.00232(19)
H70 H 0.7249 0.3546 0.0012
H71 H 0.8364 0.3148 0.0175
H72 H 0.7092 0.2720 0.0217
C71 C 0.4198(4) 0.40782(17) 0.05173(15)
C72 C 0.5005(4) 0.47686(19) 0.08740(16)
C73 C 0.4569(6) 0.5324(2) 0.1196(2)
H73 H 0.5107 0.5777 0.1440
C74 C 0.3377(7) 0.5224(3) 0.1166(3)
H74 H 0.3092 0.5612 0.1373
C75 C 0.2582(5) 0.4533(3) 0.0821(2)
H75 H 0.1768 0.4455 0.0816
C76 C 0.2975(4) 0.3958(2) 0.04848(19)
C77 C 0.6315(4) 0.49079(19) 0.09086(19)
H76 H 0.6692 0.4555 0.1168
H77 H 0.6704 0.5428 0.1126
H78 H 0.6396 0.4831 0.0454
C78 C 0.2066(3) 0.3239(2) 0.0064(2)
H79 H 0.2251 0.3113 -0.0358
H80 H 0.1257 0.3334 -0.0033
H81 H 0.2115 0.2817 0.0316
C79 C 0.4495(3) 0.28068(15) 0.13918(15)
C80 C 0.5572(3) 0.33220(16) 0.17575(16)
H82 H 0.6214 0.3402 0.1564
C81 C 0.5720(4) 0.37188(18) 0.23992(19)
H83 H 0.6449 0.4065 0.2627
C82 C 0.4802(5) 0.3605(2) 0.2700(2)
H84 H 0.4899 0.3877 0.3130
C83 C 0.3747(4) 0.3091(2) 0.2366(2)
H85 H 0.3125 0.3004 0.2573
C84 C 0.3585(3) 0.26947(18) 0.17185(18)
H86 H 0.2853 0.2347 0.1498
N5 N 0.4138(2) 0.11486(12) 0.11227(11)
H104 H 0.4481 0.1351 0.1544
N6 N 0.3397(2) 0.18666(12) -0.08603(11)
N7 N 0.5061(2) 0.27792(12) -0.09169(11)
H105 H 0.4755 0.3171 -0.1018
N8 N 0.4647(2) 0.35370(12) 0.01584(11)
H106 H 0.5049 0.3719 -0.0107
C85? C 1.0163(12) 0.5058(11) 0.2039(8)
H87? H 0.9495 0.4703 0.2118
H88? H 1.0329 0.4824 0.1635
C86? C 0.9985(16) 0.476(2) 0.2231(6)
H89? H 0.9915 0.4697 0.1746
H90? H 0.9421 0.5073 0.2317
C87? C 0.9645(12) 0.3806(6) 0.2509(5)
H91? H 1.0096 0.3470 0.2341
H92? H 0.8789 0.3583 0.2330
H93? H 0.9874 0.3871 0.3000
C88? C 0.9036(12) 0.6482(6) 0.2062(5)
H94? H 0.8788 0.6717 0.1663
H95? H 0.9571 0.6867 0.2431
H96? H 0.8331 0.6258 0.2190
C89? C 0.9753(12) 0.5806(11) 0.1894(17)
H97? H 0.9361 0.5664 0.1406
H98? H 1.0535 0.6129 0.1925
C90? C 1.1293(10) 0.5150(14) 0.2651(7)
H99? H 1.1439 0.5543 0.3045
H100? H 1.1965 0.4919 0.2602
loop_
_geom_bond_atom_site_label_1
_geom_bond_atom_site_label_2
_geom_bond_site_symmetry_1
_geom_bond_site_symmetry_2
C1 C2 1_555 1_555
C2 C3 1_555 1_555
C3 C4 1_555 1_555
C4 C18 1_555 1_555
C5 H1 1_555 1_555
C6 C5 1_555 1_555
C7 C6 1_555 1_555
C8 C3 1_555 1_555
C9 C1 1_555 1_555
H2 C9 1_555 1_555
C10 C9 1_555 1_555
H3 C10 1_555 1_555
H4 C10 1_555 1_555
H5 C10 1_555 1_555
C11 C9 1_555 1_555
H6 C11 1_555 1_555
H7 C11 1_555 1_555
H8 C11 1_555 1_555
C12 C2 1_555 1_555
C13 C12 1_555 1_555
H9 C13 1_555 1_555
C14 C13 1_555 1_555
H10 C14 1_555 1_555
C15 C14 1_555 1_555
H11 C15 1_555 1_555
C16 C15 1_555 1_555
H12 C16 1_555 1_555
C17 C12 1_555 1_555
H13 C17 1_555 1_555
C18 H14 1_555 1_555
C19 C18 1_555 1_555
H15 C19 1_555 1_555
H16 C19 1_555 1_555
H17 C19 1_555 1_555
C20 C18 1_555 1_555
H18 C20 1_555 1_555
H19 C20 1_555 1_555
H20 C20 1_555 1_555
C21 C22 1_555 1_555
C22 C23 1_555 1_555
C23 H21 1_555 1_555
C24 C23 1_555 1_555
H22 C24 1_555 1_555
C25 C24 1_555 1_555
H23 C25 1_555 1_555
C26 C21 1_555 1_555
C27 C22 1_555 1_555
H24 C27 1_555 1_555
H25 C27 1_555 1_555
H26 C27 1_555 1_555
C28 C26 1_555 1_555
H27 C28 1_555 1_555
H28 C28 1_555 1_555
H29 C28 1_555 1_555
C29 C30 1_555 1_555
C30 C31 1_555 1_555
C31 H30 1_555 1_555
C32 C31 1_555 1_555
H31 C32 1_555 1_555
C33 C32 1_555 1_555
H32 C33 1_555 1_555
C34 C29 1_555 1_555
C35 C30 1_555 1_555
H33 C35 1_555 1_555
H34 C35 1_555 1_555
H35 C35 1_555 1_555
C36 C34 1_555 1_555
H36 C36 1_555 1_555
H37 C36 1_555 1_555
H38 C36 1_555 1_555
C37 C7 1_555 1_555
C38 C37 1_555 1_555
H39 C38 1_555 1_555
C39 C38 1_555 1_555
H40 C39 1_555 1_555
C40 C39 1_555 1_555
H41 C40 1_555 1_555
C41 C40 1_555 1_555
H42 C41 1_555 1_555
C42 C37 1_555 1_555
H43 C42 1_555 1_555
C43 C44 1_555 1_555
C44 C45 1_555 1_555
C45 C46 1_555 1_555
C46 C60 1_555 1_555
C47 H44 1_555 1_555
C48 C47 1_555 1_555
C49 C48 1_555 1_555
C50 C45 1_555 1_555
C51 C43 1_555 1_555
H45 C51 1_555 1_555
C52 C51 1_555 1_555
H46 C52 1_555 1_555
H47 C52 1_555 1_555
H48 C52 1_555 1_555
C53 C51 1_555 1_555
H49 C53 1_555 1_555
H50 C53 1_555 1_555
H51 C53 1_555 1_555
C54 C44 1_555 1_555
C55 C54 1_555 1_555
H52 C55 1_555 1_555
C56 C55 1_555 1_555
H53 C56 1_555 1_555
C57 C56 1_555 1_555
H54 C57 1_555 1_555
C58 C57 1_555 1_555
H55 C58 1_555 1_555
C59 C54 1_555 1_555
H56 C59 1_555 1_555
C60 H57 1_555 1_555
C61 C60 1_555 1_555
H58 C61 1_555 1_555
H59 C61 1_555 1_555
H60 C61 1_555 1_555
C62 C60 1_555 1_555
H61 C62 1_555 1_555
H62 C62 1_555 1_555
H63 C62 1_555 1_555
C63 C64 1_555 1_555
C64 C65 1_555 1_555
C65 H64 1_555 1_555
C66 C65 1_555 1_555
H65 C66 1_555 1_555
C67 C66 1_555 1_555
H66 C67 1_555 1_555
C68 C63 1_555 1_555
C69 C64 1_555 1_555
H67 C69 1_555 1_555
H68 C69 1_555 1_555
H69 C69 1_555 1_555
C70 C68 1_555 1_555
H70 C70 1_555 1_555
H71 C70 1_555 1_555
H72 C70 1_555 1_555
C71 C72 1_555 1_555
C72 C73 1_555 1_555
C73 H73 1_555 1_555
C74 C73 1_555 1_555
H74 C74 1_555 1_555
C75 C74 1_555 1_555
H75 C75 1_555 1_555
C76 C71 1_555 1_555
C77 C72 1_555 1_555
H76 C77 1_555 1_555
H77 C77 1_555 1_555
H78 C77 1_555 1_555
C78 C76 1_555 1_555
H79 C78 1_555 1_555
H80 C78 1_555 1_555
H81 C78 1_555 1_555
C79 C49 1_555 1_555
C80 C79 1_555 1_555
H82 C80 1_555 1_555
C81 C80 1_555 1_555
H83 C81 1_555 1_555
C82 C81 1_555 1_555
H84 C82 1_555 1_555
C83 C82 1_555 1_555
H85 C83 1_555 1_555
C84 C79 1_555 1_555
H86 C84 1_555 1_555
N1 C1 1_555 1_555
H101 N1 1_555 1_555
N2 C4 1_555 1_555
N3 C5 1_555 1_555
H102 N3 1_555 1_555
N4 C6 1_555 1_555
H103 N4 1_555 1_555
N5 C43 1_555 1_555
H104 N5 1_555 1_555
N6 C46 1_555 1_555
N7 C47 1_555 1_555
H105 N7 1_555 1_555
N8 C48 1_555 1_555
H106 N8 1_555 1_555
C5 N2 1_555 1_555
C7 C8 1_555 1_555
C8 N1 1_555 1_555
C16 C17 1_555 1_555
C21 N3 1_555 1_555
C25 C26 1_555 1_555
C29 N4 1_555 1_555
C33 C34 1_555 1_555
C41 C42 1_555 1_555
C47 N6 1_555 1_555
C49 C50 1_555 1_555
C50 N5 1_555 1_555
C58 C59 1_555 1_555
C63 N7 1_555 1_555
C67 C68 1_555 1_555
C71 N8 1_555 1_555
C75 C76 1_555 1_555
C83 C84 1_555 1_555

#END
