
#######################################################################
#
#                 Cambridge Crystallographic Data Centre
#                                CCDC 
#
#######################################################################
#
# If this CIF has been generated from an entry in the Cambridge 
# Structural Database, then it will include bibliographic, chemical, 
# crystal, experimental, refinement or atomic coordinate data resulting 
# from the CCDC's data processing and validation procedures.
#
#######################################################################

data_BACBIT
_chemical_formula_moiety         'C27 H21 N9 O6,3(C2 H6 O1 S1)'
_chemical_name_systematic        
"N'-(2,4,6-Trihydroxy-3,5-bis((isonicotinoylhydrazono)methyl)benzylidene)isonicotinohydrazide dimethyl sulfoxide solvate"
_symmetry_cell_setting           trigonal
_symmetry_space_group_name_H-M   'P 3 1 c'
_symmetry_Int_Tables_number      159
_space_group_name_Hall           "P 3 -2'c"
loop_
_symmetry_equiv_pos_site_id
_symmetry_equiv_pos_as_xyz
1 x,y,z
2 -x+y,-x,z
3 -x,-x+y,1/2+z
4 y,x,1/2+z
5 -y,x-y,z
6 x-y,-y,1/2+z
_cell_length_a                   18.241(2)
_cell_length_b                   18.241(2)
_cell_length_c                   6.5002(16)
_cell_angle_alpha                90
_cell_angle_beta                 90
_cell_angle_gamma                120
_cell_volume                     1873.07
_exptl_crystal_colour            'pale yellow'
_exptl_crystal_description       needle
_cell_formula_units_Z            2
loop_
_atom_site_label
_atom_site_type_symbol
_atom_site_fract_x
_atom_site_fract_y
_atom_site_fract_z
C1 C 0.9107(3) 0.9477(3) 0.7071(8)
C2 C 0.9488(3) 1.0366(3) 0.7067(7)
O1 O 0.89737(19) 1.0696(2) 0.7002(6)
C3 C 0.8204(3) 0.8970(3) 0.6902(8)
N1 N 0.7852(2) 0.8158(2) 0.6717(7)
N2 N 0.6991(2) 0.7713(2) 0.6419(7)
C4 C 0.6615(3) 0.6874(3) 0.6036(8)
O2 O 0.6998(2) 0.6477(2) 0.5980(7)
C5 C 0.5685(3) 0.6447(3) 0.5627(8)
C6 C 0.5214(3) 0.5566(3) 0.5642(9)
C7 C 0.4362(3) 0.5163(3) 0.5198(11)
N3 N 0.3942(3) 0.5564(3) 0.4684(9)
C8 C 0.4407(3) 0.6406(3) 0.4703(11)
C9 C 0.5257(3) 0.6867(3) 0.5115(10)
H1 H 0.9202 1.1223 0.6859
H2 H 0.7865 0.9226 0.6927
H3 H 0.6690(13) 0.7946(16) 0.674(9)
H4 H 0.5484 0.5260 0.5954
H5 H 0.4055 0.4567 0.5193
H6 H 0.4123 0.6702 0.4412
H7 H 0.5532 0.7458 0.5066
C1A C 1.0370(4) 1.0893(3) 0.7071(8)
C2A C 1.0878(4) 1.0512(3) 0.7067(7)
O1A O 1.17223(28) 1.10263(19) 0.7002(6)
C3A C 1.0766(4) 1.1796(3) 0.6902(8)
N1A N 1.0306(3) 1.2148(2) 0.6717(7)
N2A N 1.0722(3) 1.3009(2) 0.6419(7)
C4A C 1.0259(4) 1.3385(3) 0.6036(8)
O2A O 0.9479(3) 1.3002(2) 0.5980(7)
C5A C 1.0762(4) 1.4315(3) 0.5627(8)
C6A C 1.0352(4) 1.4786(3) 0.5642(9)
C7A C 1.0801(4) 1.5638(3) 0.5198(11)
N3A N 1.1622(4) 1.6058(3) 0.4684(9)
C8A C 1.1999(4) 1.5593(3) 0.4703(11)
C9A C 1.1610(4) 1.4743(3) 0.5115(10)
H1A H 1.2021 1.0798 0.6859
H2A H 1.1361 1.2135 0.6927
H3A H 1.1256(21) 1.3310(13) 0.674(9)
H4A H 0.9776 1.4516 0.5954
H5A H 1.0512 1.5945 0.5193
H6A H 1.2579 1.5877 0.4412
H7A H 1.1926 1.4468 0.5066
C1D C 1.0523(3) 0.9630(4) 0.7071(8)
C2D C 0.9634(3) 0.9122(4) 0.7067(7)
O1D O 0.9304(2) 0.82777(28) 0.7002(6)
C3D C 1.1030(3) 0.9234(4) 0.6902(8)
N1D N 1.1842(2) 0.9694(3) 0.6717(7)
N2D N 1.2287(2) 0.9278(3) 0.6419(7)
C4D C 1.3126(3) 0.9741(4) 0.6036(8)
O2D O 1.3523(2) 1.0521(3) 0.5980(7)
C5D C 1.3553(3) 0.9238(4) 0.5627(8)
C6D C 1.4434(3) 0.9648(4) 0.5642(9)
C7D C 1.4837(3) 0.9199(4) 0.5198(11)
N3D N 1.4436(3) 0.8378(4) 0.4684(9)
C8D C 1.3594(3) 0.8001(4) 0.4703(11)
C9D C 1.3133(3) 0.8390(4) 0.5115(10)
H1D H 0.8777 0.7979 0.6859
H2D H 1.0774 0.8639 0.6927
H3D H 1.2054(16) 0.8744(21) 0.674(9)
H4D H 1.4740 1.0224 0.5954
H5D H 1.5433 0.9488 0.5193
H6D H 1.3298 0.7421 0.4412
H7D H 1.2542 0.8074 0.5066
S1 S 0.57928(8) 0.87730(8) 0.9333(4)
O3 O 0.6287(2) 0.8757(2) 0.7483(8)
C10 C 0.4967(4) 0.7701(4) 0.9756(12)
C11 C 0.6390(4) 0.8863(4) 1.1554(12)
H8 H 0.5218 0.7351 0.9949
H9 H 0.4606 0.7522 0.8573
H10 H 0.4659 0.7695 1.0965
H11 H 0.6484 0.8384 1.1594
H12 H 0.6078 0.8867 1.2739
H13 H 0.6923 0.9378 1.1480
loop_
_geom_bond_atom_site_label_1
_geom_bond_atom_site_label_2
_geom_bond_site_symmetry_1
_geom_bond_site_symmetry_2
C1 C2 1_555 1_555
C2 O1 1_555 1_555
O1 H1 1_555 1_555
C3 C1 1_555 1_555
N1 C3 1_555 1_555
N2 N1 1_555 1_555
C4 N2 1_555 1_555
O2 C4 1_555 1_555
C5 C4 1_555 1_555
C6 C5 1_555 1_555
C7 C6 1_555 1_555
N3 C7 1_555 1_555
C8 N3 1_555 1_555
C9 C5 1_555 1_555
H2 C3 1_555 1_555
H3 N2 1_555 1_555
H4 C6 1_555 1_555
H5 C7 1_555 1_555
H6 C8 1_555 1_555
H7 C9 1_555 1_555
S1 O3 1_555 1_555
C10 S1 1_555 1_555
C11 S1 1_555 1_555
H8 C10 1_555 1_555
H9 C10 1_555 1_555
H10 C10 1_555 1_555
H11 C11 1_555 1_555
H12 C11 1_555 1_555
H13 C11 1_555 1_555
C1A C2 1_555 1_555
C2A C1A 1_555 1_555
O1A C2A 1_555 1_555
C3A C1A 1_555 1_555
N1A C3A 1_555 1_555
N2A N1A 1_555 1_555
C4A N2A 1_555 1_555
O2A C4A 1_555 1_555
C5A C4A 1_555 1_555
C6A C5A 1_555 1_555
C7A C6A 1_555 1_555
N3A C7A 1_555 1_555
C8A N3A 1_555 1_555
C9A C5A 1_555 1_555
H1A O1A 1_555 1_555
H2A C3A 1_555 1_555
H3A N2A 1_555 1_555
H4A C6A 1_555 1_555
H5A C7A 1_555 1_555
H6A C8A 1_555 1_555
H7A C9A 1_555 1_555
C1D C2A 1_555 1_555
C2D C1 1_555 1_555
O1D C2D 1_555 1_555
C3D C1D 1_555 1_555
N1D C3D 1_555 1_555
N2D N1D 1_555 1_555
C4D N2D 1_555 1_555
O2D C4D 1_555 1_555
C5D C4D 1_555 1_555
C6D C5D 1_555 1_555
C7D C6D 1_555 1_555
N3D C7D 1_555 1_555
C8D N3D 1_555 1_555
C9D C5D 1_555 1_555
H1D O1D 1_555 1_555
H2D C3D 1_555 1_555
H3D N2D 1_555 1_555
H4D C6D 1_555 1_555
H5D C7D 1_555 1_555
H6D C8D 1_555 1_555
H7D C9D 1_555 1_555
C8 C9 1_555 1_555
C8A C9A 1_555 1_555
C1D C2D 1_555 1_555
C8D C9D 1_555 1_555

#END
