
#######################################################################
#
#                 Cambridge Crystallographic Data Centre
#                                CCDC 
#
#######################################################################
#
# If this CIF has been generated from an entry in the Cambridge 
# Structural Database, then it will include bibliographic, chemical, 
# crystal, experimental, refinement or atomic coordinate data resulting 
# from the CCDC's data processing and validation procedures.
#
#######################################################################

data_BACCOZ
_chemical_formula_moiety         'C7 H9 I1 O4 S1'
_chemical_name_systematic        Hydroxy((methylsulfonyl)oxy)phenyl-iodane
_symmetry_cell_setting           monoclinic
_symmetry_space_group_name_H-M   'P 21/c'
_symmetry_Int_Tables_number      14
_space_group_name_Hall           '-P 2ybc'
loop_
_symmetry_equiv_pos_site_id
_symmetry_equiv_pos_as_xyz
1 x,y,z
2 -x,1/2+y,1/2-z
3 -x,-y,-z
4 x,1/2-y,1/2+z
_cell_length_a                   6.1909(2)
_cell_length_b                   7.4487(2)
_cell_length_c                   21.8864(4)
_cell_angle_alpha                90
_cell_angle_beta                 94.824(4)
_cell_angle_gamma                90
_cell_volume                     1005.7
_exptl_crystal_colour            colorless
_exptl_crystal_description       block
_cell_formula_units_Z            4
loop_
_atom_site_label
_atom_site_type_symbol
_atom_site_fract_x
_atom_site_fract_y
_atom_site_fract_z
I1 I 0.51860(3) 0.66304(3) 0.899242(8)
S1 S 0.78298(13) 0.26776(11) 0.94971(4)
O1 O 0.3666(4) 0.8923(3) 0.89326(11)
H1 H 0.4468 0.9729 0.9097
C1 C 1.0628(6) 0.2231(5) 0.94832(17)
H2 H 1.1138 0.1545 0.9849
H3 H 1.1425 0.3367 0.9477
H4 H 1.0873 0.1534 0.9116
O2 O 0.7535(5) 0.3740(4) 1.00442(12)
O3 O 0.7197(5) 0.3723(4) 0.89304(12)
O4 O 0.6765(5) 0.0936(4) 0.94979(15)
C2 C 0.8936(6) 0.7910(5) 0.83064(16)
H5 H 0.9630 0.8037 0.8708
C3 C 0.9972(6) 0.8434(5) 0.7796(2)
H6 H 1.1392 0.8925 0.7847
C4 C 0.8928(7) 0.8238(5) 0.72076(18)
H7 H 0.9638 0.8600 0.6860
C5 C 0.6857(6) 0.7517(5) 0.71319(15)
H8 H 0.6159 0.7392 0.6731
C6 C 0.5786(6) 0.6973(5) 0.76344(15)
H9 H 0.4373 0.6468 0.7583
C7 C 0.6853(5) 0.7196(5) 0.82146(14)
loop_
_geom_bond_atom_site_label_1
_geom_bond_atom_site_label_2
_geom_bond_site_symmetry_1
_geom_bond_site_symmetry_2
I1 O1 1_555 1_555
S1 C1 1_555 1_555
O1 H1 1_555 1_555
C1 H2 1_555 1_555
H3 C1 1_555 1_555
H4 C1 1_555 1_555
O2 S1 1_555 1_555
O3 I1 1_555 1_555
O4 S1 1_555 1_555
C2 H5 1_555 1_555
C3 C2 1_555 1_555
H6 C3 1_555 1_555
C4 C3 1_555 1_555
H7 C4 1_555 1_555
C5 C4 1_555 1_555
H8 C5 1_555 1_555
C6 C5 1_555 1_555
H9 C6 1_555 1_555
C7 I1 1_555 1_555
S1 O3 1_555 1_555
C2 C7 1_555 1_555
C6 C7 1_555 1_555

#END
