
#######################################################################
#
#                 Cambridge Crystallographic Data Centre
#                                CCDC 
#
#######################################################################
#
# If this CIF has been generated from an entry in the Cambridge 
# Structural Database, then it will include bibliographic, chemical, 
# crystal, experimental, refinement or atomic coordinate data resulting 
# from the CCDC's data processing and validation procedures.
#
#######################################################################

data_BACREE
_chemical_formula_moiety         'C4 H8 N7 O2 1+,C2 N3 O4 1-'
_chemical_name_systematic        
'2-Iminium-5-nitriminooctahydroimidazo[4,5-d]imidazole dinitrocyanomethanide'
_symmetry_cell_setting           monoclinic
_symmetry_space_group_name_H-M   'C 2/c'
_symmetry_Int_Tables_number      15
_space_group_name_Hall           '-C 2yn'
loop_
_symmetry_equiv_pos_site_id
_symmetry_equiv_pos_as_xyz
1 x,y,z
2 -x,y,1/2-z
3 1/2+x,1/2+y,z
4 1/2-x,1/2+y,1/2-z
5 -x,-y,-z
6 x,-y,1/2+z
7 1/2-x,1/2-y,-z
8 1/2+x,1/2-y,1/2+z
_cell_length_a                   25.041(11)
_cell_length_b                   8.330(3)
_cell_length_c                   13.653(6)
_cell_angle_alpha                90
_cell_angle_beta                 121.360(7)
_cell_angle_gamma                90
_cell_volume                     2431.86
_exptl_crystal_colour            colorless
_exptl_crystal_description       block
_cell_formula_units_Z            8
loop_
_atom_site_label
_atom_site_type_symbol
_atom_site_fract_x
_atom_site_fract_y
_atom_site_fract_z
O1 O 0.25834(6) 0.01519(14) 0.35454(12)
O2 O 0.26918(7) 0.25808(17) 0.31358(16)
N1 N 0.17056(8) 0.90966(18) 0.47162(15)
N2 N 0.17130(7) 0.74905(16) 0.33204(13)
N3 N 0.18937(6) 0.47337(15) 0.29827(12)
N4 N 0.13348(7) 0.38485(16) 0.36886(13)
N5 N 0.12110(7) 0.65930(16) 0.41299(13)
N6 N 0.20071(6) 0.19840(15) 0.37018(11)
N7 N 0.24402(6) 0.15938(16) 0.34395(12)
C1 C 0.15487(7) 0.77887(18) 0.40856(14)
C2 C 0.10665(7) 0.54094(18) 0.32505(15)
C3 C 0.17752(7) 0.34884(17) 0.34529(13)
C4 C 0.14419(7) 0.60147(18) 0.27080(14)
H1 H 0.1851(12) 0.988(3) 0.454(2)
H2 H 0.1555(11) 0.923(3) 0.516(2)
H3 H 0.1011(13) 0.666(3) 0.447(2)
H4 H 0.0633(10) 0.538(2) 0.2730(17)
H5 H 0.1169(10) 0.315(3) 0.3873(18)
H6 H 0.2110(11) 0.459(3) 0.263(2)
H7 H 0.1197(8) 0.622(2) 0.1896(16)
H8 H 0.1859(10) 0.810(3) 0.3144(18)
O3 O 0.11699(7) 0.0341(2) 0.11852(14)
O4 O 0.09082(9) 0.2866(2) 0.09670(14)
O5 O -0.05666(6) 0.14323(17) 0.11986(14)
O6 O -0.00999(10) 0.35415(19) 0.10542(18)
N8 N 0.08222(7) 0.1456(2) 0.11371(13)
N9 N -0.01248(8) 0.20897(19) 0.11605(14)
N10 N 0.01911(10) -0.1944(2) 0.15276(17)
C5 C 0.02571(8) -0.0618(2) 0.14212(14)
C6 C 0.03322(8) 0.1028(2) 0.12718(14)
loop_
_geom_bond_atom_site_label_1
_geom_bond_atom_site_label_2
_geom_bond_site_symmetry_1
_geom_bond_site_symmetry_2
O1 N7 1_555 1_555
O2 N7 1_555 1_555
O3 N8 1_555 1_555
O4 N8 1_555 1_555
O5 N9 1_555 1_555
O6 N9 1_555 1_555
N1 C1 1_555 1_555
N2 C1 1_555 1_555
N3 C3 1_555 1_555
N4 C2 1_555 1_555
N5 C1 1_555 1_555
N6 N7 1_555 1_555
N8 C6 1_555 1_555
N9 C6 1_555 1_555
N10 C5 1_555 1_555
C2 N5 1_555 1_555
C3 N4 1_555 1_555
C4 N2 1_555 1_555
C5 C6 1_555 1_555
H1 N1 1_555 1_555
H2 N1 1_555 1_555
H3 N5 1_555 1_555
H4 C2 1_555 1_555
H5 N4 1_555 1_555
H6 N3 1_555 1_555
H7 C4 1_555 1_555
H8 N2 1_555 1_555
N3 C4 1_555 1_555
N6 C3 1_555 1_555
C2 C4 1_555 1_555

#END
