
#######################################################################
#
#                 Cambridge Crystallographic Data Centre
#                                CCDC 
#
#######################################################################
#
# If this CIF has been generated from an entry in the Cambridge 
# Structural Database, then it will include bibliographic, chemical, 
# crystal, experimental, refinement or atomic coordinate data resulting 
# from the CCDC's data processing and validation procedures.
#
#######################################################################

data_BADAUN
_chemical_formula_moiety         'C29 H30 Br1 N1 O11,2(C3 H6 O1),2(C2 H6 O1)'
_chemical_name_systematic        
'N-Bromoacetyl-daunomycin acetone ethanol solvate'
_symmetry_cell_setting           monoclinic
_symmetry_space_group_name_H-M   'P 21'
_symmetry_Int_Tables_number      4
_space_group_name_Hall           'P 2yb'
loop_
_symmetry_equiv_pos_site_id
_symmetry_equiv_pos_as_xyz
1 x,y,z
2 -x,1/2+y,-z
_cell_length_a                   15.84(9)
_cell_length_b                   8.49(2)
_cell_length_c                   15.44(8)
_cell_angle_alpha                90
_cell_angle_beta                 111.2(2)
_cell_angle_gamma                90
_cell_volume                     1935.87
_chemical_melting_point          154deg.C
_cell_formula_units_Z            2
loop_
_atom_site_label
_atom_site_type_symbol
_atom_site_fract_x
_atom_site_fract_y
_atom_site_fract_z
Br1 Br 0.32500 0.90200 0.11700
C4 C -0.12800 0.10300 -0.33500
C5 C 0.27400 0.56700 -0.41700
C6 C 0.34300 0.50700 -0.45400
C7 C 0.36100 0.32300 -0.41500
C8 C 0.27800 0.21900 -0.45100
C9 C 0.20700 0.29100 -0.41900
C10 C 0.13600 0.19700 -0.41900
C11 C 0.06100 0.26000 -0.39700
C12 C 0.00000 0.14800 -0.38000
C13 C -0.07700 0.22200 -0.36500
C14 C -0.20500 0.16500 -0.31700
C15 C -0.22600 0.66700 -0.27300
C16 C 0.43700 0.25900 -0.45300
C17 C 0.53600 0.31200 -0.40600
C18 C -0.21300 0.32500 -0.28500
C19 C 0.30900 0.82500 -0.33000
C20 C 0.48700 0.80200 -0.26800
C21 C 0.48500 0.89500 -0.18000
C22 C 0.40600 0.84600 -0.15700
C23 C 0.32200 0.89600 -0.23800
C24 C 0.57000 0.87100 -0.29000
C25 C 0.42500 0.85100 0.00000
C26 C -0.14400 0.43300 -0.30600
C27 C 0.43600 0.94800 0.09800
C28 C -0.08200 0.38300 -0.34300
C29 C -0.01700 0.49900 -0.36100
C30 C 0.05800 0.43400 -0.37800
C31 C 0.12400 0.52700 -0.39500
C32 C 0.20100 0.46500 -0.42200
N1 N 0.40200 0.93200 -0.07700
O2 O -0.15600 0.59600 -0.30100
O3 O -0.01600 0.64300 -0.35500
O4 O 0.12400 0.69800 -0.38400
O5 O 0.41000 0.33700 -0.30700
O6 O 0.41300 0.17500 -0.51100
O7 O 0.14700 0.03500 -0.43700
O8 O 0.00000 0.00300 -0.39200
O9 O 0.31100 0.64400 -0.33100
O10 O 0.39600 0.86500 -0.34200
O11 O 0.48500 1.07900 -0.18700
O12 O 0.45000 0.69700 0.01700
C1 C 0.29300 0.35200 -0.15600
C2 C 0.26900 0.47500 -0.02700
C3 C 0.28800 0.32500 -0.07900
O1 O 0.33400 0.23400 -0.04600
loop_
_geom_bond_atom_site_label_1
_geom_bond_atom_site_label_2
_geom_bond_site_symmetry_1
_geom_bond_site_symmetry_2
C1 C3 1_555 1_555
C2 C3 1_555 1_555
C3 O1 1_555 1_555
Br1 C27 1_555 1_555
C4 C13 1_555 1_555
C5 C6 1_555 1_555
C6 C7 1_555 1_555
C7 C8 1_555 1_555
C8 C9 1_555 1_555
C9 C10 1_555 1_555
C10 C11 1_555 1_555
C11 C12 1_555 1_555
C12 C13 1_555 1_555
C13 C28 1_555 1_555
C14 C4 1_555 1_555
C15 O2 1_555 1_555
C16 C7 1_555 1_555
C17 C16 1_555 1_555
C18 C14 1_555 1_555
C19 C23 1_555 1_555
C20 C21 1_555 1_555
C21 C22 1_555 1_555
C22 C23 1_555 1_555
C24 C20 1_555 1_555
C25 C27 1_555 1_555
C26 C18 1_555 1_555
C28 C26 1_555 1_555
C29 C28 1_555 1_555
C30 C11 1_555 1_555
C31 C30 1_555 1_555
C32 C5 1_555 1_555
N1 C22 1_555 1_555
O2 C26 1_555 1_555
O3 C29 1_555 1_555
O4 C31 1_555 1_555
O5 C7 1_555 1_555
O6 C16 1_555 1_555
O7 C10 1_555 1_555
O8 C12 1_555 1_555
O9 C5 1_555 1_555
O10 C19 1_555 1_555
O11 C21 1_555 1_555
O12 C25 1_555 1_555
C9 C32 1_555 1_555
C19 O9 1_555 1_555
C20 O10 1_555 1_555
C25 N1 1_555 1_555
C29 C30 1_555 1_555
C31 C32 1_555 1_555

#END
