
#######################################################################
#
#                 Cambridge Crystallographic Data Centre
#                                CCDC 
#
#######################################################################
#
# If this CIF has been generated from an entry in the Cambridge 
# Structural Database, then it will include bibliographic, chemical, 
# crystal, experimental, refinement or atomic coordinate data resulting 
# from the CCDC's data processing and validation procedures.
#
#######################################################################

data_BADCIS20
_chemical_formula_moiety         '2(C2 H9 N4 O2 1+),F6 Si1 2-'
_chemical_name_systematic        
'bis((\m~2~-Hydrido)-bis(urea)) hexafluorosilicate'
_symmetry_cell_setting           tetragonal
_symmetry_space_group_name_H-M   'P 41 21 2'
_symmetry_Int_Tables_number      92
_space_group_name_Hall           'P 4abw 2nw'
loop_
_symmetry_equiv_pos_site_id
_symmetry_equiv_pos_as_xyz
1 x,y,z
2 1/2-y,1/2+x,1/4+z
3 -x,-y,1/2+z
4 1/2+y,1/2-x,3/4+z
5 y,x,-z
6 1/2+x,1/2-y,3/4-z
7 -y,-x,1/2-z
8 1/2-x,1/2+y,1/4-z
_cell_length_a                   9.263(4)
_cell_length_b                   9.263(4)
_cell_length_c                   17.898(6)
_cell_angle_alpha                90
_cell_angle_beta                 90
_cell_angle_gamma                90
_cell_volume                     1535.71
_cell_formula_units_Z            4
loop_
_atom_site_label
_atom_site_type_symbol
_atom_site_fract_x
_atom_site_fract_y
_atom_site_fract_z
Si1 Si 0.17890 0.17890 0.00000
F1 F 0.03720 0.13640 0.05650
F2 F 0.28750 0.07000 0.05190
F3 F 0.21940 0.31750 0.05650
F1D F 0.13640 0.03720 -0.05650
F2D F 0.07000 0.28750 -0.05190
F3D F 0.31750 0.21940 -0.05650
O1 O 0.57330 0.24290 0.26140
N1 N 0.40710 0.09770 0.20870
N2 N 0.46250 0.31470 0.15430
C1 C 0.48260 0.22000 0.20790
H1 H 0.67100 0.32900 0.25000
H3 H 0.34400 0.07900 0.16100
H4 H 0.42400 0.03200 0.24800
H5 H 0.39500 0.30000 0.11700
H6 H 0.51300 0.41500 0.15200
O1F O 0.75710 0.42670 0.23860
C1F C 0.78000 0.51740 0.29210
N1F N 0.90230 0.59290 0.29130
N2F N 0.68530 0.53750 0.34570
H3F H 0.92100 0.65600 0.33900
H4F H 0.96800 0.57600 0.25200
H5F H 0.70000 0.60500 0.38300
H6F H 0.58500 0.48700 0.34800
O2 O -0.01670 0.14330 0.29940
N3 N 0.13580 0.32230 0.32950
N4 N 0.09140 0.27010 0.20530
C2 C 0.06920 0.24300 0.27820
H2 H -0.08700 0.08700 0.25000
H7 H 0.20200 0.39800 0.31600
H8 H 0.11900 0.30400 0.37800
H9 H 0.16000 0.34100 0.19000
H10 H 0.04800 0.20800 0.16500
O2F O -0.14330 0.01670 0.20060
C2F C -0.24300 -0.06920 0.22180
N3F N -0.32230 -0.13580 0.17050
N4F N -0.27010 -0.09140 0.29470
H7F H -0.39800 -0.20200 0.18400
H8F H -0.30400 -0.11900 0.12200
H9F H -0.34100 -0.16000 0.31000
H10F H -0.20800 -0.04800 0.33500
loop_
_geom_bond_atom_site_label_1
_geom_bond_atom_site_label_2
_geom_bond_site_symmetry_1
_geom_bond_site_symmetry_2
Si1 F1 1_555 1_555
F2 Si1 1_555 1_555
F3 Si1 1_555 1_555
O1 C1 1_555 1_555
O2 C2 1_555 1_555
N1 C1 1_555 1_555
N2 C1 1_555 1_555
N3 C2 1_555 1_555
N4 C2 1_555 1_555
H1 O1 1_555 1_555
H2 O2 1_555 1_555
H3 N1 1_555 1_555
H4 N1 1_555 1_555
H5 N2 1_555 1_555
H6 N2 1_555 1_555
H7 N3 1_555 1_555
H8 N3 1_555 1_555
H9 N4 1_555 1_555
H10 N4 1_555 1_555
F1D Si1 1_555 1_555
F2D Si1 1_555 1_555
F3D Si1 1_555 1_555
O1F H1 1_555 1_555
C1F O1F 1_555 1_555
N1F C1F 1_555 1_555
N2F C1F 1_555 1_555
H3F N1F 1_555 1_555
H4F N1F 1_555 1_555
H5F N2F 1_555 1_555
H6F N2F 1_555 1_555
O2F H2 1_555 1_555
C2F O2F 1_555 1_555
N3F C2F 1_555 1_555
N4F C2F 1_555 1_555
H7F N3F 1_555 1_555
H8F N3F 1_555 1_555
H9F N4F 1_555 1_555
H10F N4F 1_555 1_555

#END
