
#######################################################################
#
#                 Cambridge Crystallographic Data Centre
#                                CCDC 
#
#######################################################################
#
# If this CIF has been generated from an entry in the Cambridge 
# Structural Database, then it will include bibliographic, chemical, 
# crystal, experimental, refinement or atomic coordinate data resulting 
# from the CCDC's data processing and validation procedures.
#
#######################################################################

data_BADDOZ
_chemical_formula_moiety         'C16 H28 N4 O4'
_chemical_name_systematic        
7,16-bis(Cyanomethyl)-1,4,10,13-tetraoxa-7,16-diazacyclo-octadecane
_symmetry_cell_setting           triclinic
_symmetry_space_group_name_H-M   'P -1'
_symmetry_Int_Tables_number      2
_space_group_name_Hall           '-P 1'
loop_
_symmetry_equiv_pos_site_id
_symmetry_equiv_pos_as_xyz
1 x,y,z
2 -x,-y,-z
_cell_length_a                   6.226(3)
_cell_length_b                   8.367(4)
_cell_length_c                   9.323(4)
_cell_angle_alpha                74.13(3)
_cell_angle_beta                 74.66(2)
_cell_angle_gamma                81.56(2)
_cell_volume                     449.055
_exptl_crystal_colour            colorless
_exptl_crystal_description       prisms
_cell_formula_units_Z            1
_exptl_crystal_recrystallization_method 'acetone/petroleum ether'
loop_
_atom_site_label
_atom_site_type_symbol
_atom_site_fract_x
_atom_site_fract_y
_atom_site_fract_z
O1 O 0.7062(7) 0.2821(4) 0.2360(4)
C1 C 0.5838(4) 0.1878(3) 0.3740(3)
C2 C 0.4552(4) 0.3061(3) 0.4679(2)
O2 O 0.3268(6) 0.4401(6) 0.3863(5)
C3 C 0.1614(3) 0.3919(2) 0.3320(2)
C4 C 0.0562(2) 0.5466(2) 0.2454(2)
N1 N 0.1879(2) 0.61243(13) 0.09141(12)
C5 C 0.0490(2) 0.7346(2) 0.0043(2)
C6 C 0.8323(3) 0.1721(2) 0.1488(2)
C7 C 0.3947(2) 0.6719(2) 0.0888(2)
C8 C 0.3655(3) 0.8148(2) 0.1575(2)
N2 N 0.3361(3) 0.9243(2) 0.2101(2)
H1 H 0.6764(47) 0.1111(36) 0.4262(33)
H2 H 0.5030(43) 0.1225(27) 0.3504(23)
H3 H 0.5436(46) 0.3579(28) 0.4998(26)
H4 H 0.3599(47) 0.2457(36) 0.5587(34)
H5 H 0.2247(28) 0.3184(22) 0.2658(21)
H6 H 0.0426(31) 0.3362(23) 0.4178(22)
H7 H -0.0826(30) 0.5245(21) 0.2338(19)
H8 H 0.0200(26) 0.6314(20) 0.3048(19)
H9 H -0.0673(28) 0.6723(20) -0.0079(18)
H10 H -0.0269(28) 0.8193(21) 0.0632(19)
H11 H 0.7304(29) 0.0974(21) 0.1364(19)
H12 H 0.9394(30) 0.0991(22) 0.2021(20)
H13 H 0.4816(27) 0.5841(20) 0.1431(19)
H14 H 0.4769(26) 0.7086(19) -0.0156(20)
C6A C 0.1677(3) 0.8279(2) -0.1488(2)
O1A O 0.2938(7) 0.7179(4) -0.2360(4)
C1A C 0.4162(4) 0.8122(3) -0.3740(3)
C2A C 0.5448(4) 0.6939(3) -0.4679(2)
O2A O 0.6732(6) 0.5599(6) -0.3863(5)
C3A C 0.8386(3) 0.6081(2) -0.3320(2)
C4A C 0.9438(2) 0.4534(2) -0.2454(2)
N1A N 0.8121(2) 0.38757(13) -0.09141(12)
C5A C 0.9510(2) 0.2654(2) -0.0043(2)
H9A H 1.0673(28) 0.3277(20) 0.0079(18)
H10A H 1.0269(28) 0.1807(21) -0.0632(19)
C7A C 0.6053(2) 0.3281(2) -0.0888(2)
C8A C 0.6345(3) 0.1852(2) -0.1575(2)
N2A N 0.6639(3) 0.0757(2) -0.2101(2)
H13A H 0.5184(27) 0.4159(20) -0.1431(19)
H14A H 0.5231(26) 0.2914(19) 0.0156(20)
H7A H 1.0826(30) 0.4755(21) -0.2338(19)
H8A H 0.9800(26) 0.3686(20) -0.3048(19)
H5A H 0.7753(28) 0.6816(22) -0.2658(21)
H6A H 0.9574(31) 0.6638(23) -0.4178(22)
H3A H 0.4564(46) 0.6421(28) -0.4998(26)
H4A H 0.6401(47) 0.7543(36) -0.5587(34)
H1A H 0.3236(47) 0.8889(36) -0.4262(33)
H2A H 0.4970(43) 0.8775(27) -0.3504(23)
H11A H 0.2696(29) 0.9026(21) -0.1364(19)
H12A H 0.0606(30) 0.9009(22) -0.2021(20)
O3? O 0.7546(23) 0.2844(16) 0.2457(15)
C9? C 0.6291(17) 0.2472(15) 0.4130(9)
C10? C 0.3964(18) 0.2386(15) 0.4409(13)
O4? O 0.3353(22) 0.4043(20) 0.3915(21)
H15? H 0.650(10) 0.3448(70) 0.4750(66)
H16? H 0.727(10) 0.1287(80) 0.4543(67)
H17? H 0.391(12) 0.1467(86) 0.3589(76)
H18? H 0.306(13) 0.1961(95) 0.5629(91)
loop_
_geom_bond_atom_site_label_1
_geom_bond_atom_site_label_2
_geom_bond_site_symmetry_1
_geom_bond_site_symmetry_2
O1 C1 1_555 1_555
C1 C2 1_555 1_555
C2 O2 1_555 1_555
O2 C3 1_555 1_555
C3 C4 1_555 1_555
C4 N1 1_555 1_555
N1 C5 1_555 1_555
C5 H9 1_555 1_555
C6 O1 1_555 1_555
C7 N1 1_555 1_555
C8 C7 1_555 1_555
N2 C8 1_555 1_555
H1 C1 1_555 1_555
H2 C1 1_555 1_555
H3 C2 1_555 1_555
H4 C2 1_555 1_555
H5 C3 1_555 1_555
H6 C3 1_555 1_555
H7 C4 1_555 1_555
H8 C4 1_555 1_555
H10 C5 1_555 1_555
H11 C6 1_555 1_555
H12 C6 1_555 1_555
H13 C7 1_555 1_555
H14 C7 1_555 1_555
C6A C5 1_555 1_555
O1A C6A 1_555 1_555
C1A O1A 1_555 1_555
C2A C1A 1_555 1_555
O2A C2A 1_555 1_555
C3A O2A 1_555 1_555
C4A C3A 1_555 1_555
N1A C4A 1_555 1_555
C5A C6 1_555 1_555
H9A C5A 1_555 1_555
H10A C5A 1_555 1_555
C7A N1A 1_555 1_555
C8A C7A 1_555 1_555
N2A C8A 1_555 1_555
H13A C7A 1_555 1_555
H14A C7A 1_555 1_555
H7A C4A 1_555 1_555
H8A C4A 1_555 1_555
H5A C3A 1_555 1_555
H6A C3A 1_555 1_555
H3A C2A 1_555 1_555
H4A C2A 1_555 1_555
H1A C1A 1_555 1_555
H2A C1A 1_555 1_555
H11A C6A 1_555 1_555
H12A C6A 1_555 1_555
N1A C5A 1_555 1_555

#END
