
#######################################################################
#
#                 Cambridge Crystallographic Data Centre
#                                CCDC 
#
#######################################################################
#
# If this CIF has been generated from an entry in the Cambridge 
# Structural Database, then it will include bibliographic, chemical, 
# crystal, experimental, refinement or atomic coordinate data resulting 
# from the CCDC's data processing and validation procedures.
#
#######################################################################

data_BADKUP
_chemical_formula_moiety         'C14 H20 Cl1 N3'
_chemical_name_systematic        
(E)-1-((E)-1-Chloro-2-phenylvinyl)-3,3-di-isopropyltriaz-1-ene
_symmetry_cell_setting           monoclinic
_symmetry_space_group_name_H-M   'P 21/n'
_symmetry_Int_Tables_number      14
_space_group_name_Hall           '-P 2yn'
loop_
_symmetry_equiv_pos_site_id
_symmetry_equiv_pos_as_xyz
1 x,y,z
2 1/2-x,1/2+y,1/2-z
3 -x,-y,-z
4 1/2+x,1/2-y,1/2+z
_cell_length_a                   9.5663(8)
_cell_length_b                   15.735(3)
_cell_length_c                   10.1040(14)
_cell_angle_alpha                90
_cell_angle_beta                 103.263(9)
_cell_angle_gamma                90
_cell_volume                     1480.35
_exptl_crystal_colour            colorless
_exptl_crystal_description       prism
_cell_formula_units_Z            4
loop_
_atom_site_label
_atom_site_type_symbol
_atom_site_fract_x
_atom_site_fract_y
_atom_site_fract_z
Cl1 Cl 0.82155(3) 0.06268(2) 0.30581(3)
N1 N 0.61057(11) 0.12048(6) 0.42312(10)
N2 N 0.57998(11) 0.16255(6) 0.31078(10)
N3 N 0.46314(11) 0.20959(6) 0.29434(10)
C1 C 0.73264(13) 0.02289(7) 0.68006(12)
C2 C 0.82926(14) -0.00527(9) 0.79901(13)
H1 H 0.9214 -0.0254 0.7935
C3 C 0.79228(15) -0.00416(9) 0.92433(13)
H2 H 0.8595 -0.0228 1.0034
C4 C 0.65774(15) 0.02403(9) 0.93436(13)
H3 H 0.6330 0.0258 1.0202
C5 C 0.55942(14) 0.04974(8) 0.81730(13)
H4 H 0.4663 0.0678 0.8233
C6 C 0.59574(14) 0.04932(8) 0.69175(12)
H5 H 0.5272 0.0671 0.6130
C7 C 0.78351(13) 0.02356(7) 0.55334(12)
H6 H 0.8635 -0.0118 0.5515
C8 C 0.72952(13) 0.06874(7) 0.43899(11)
C9 C 0.37504(14) 0.21293(8) 0.39732(12)
H7 H 0.3848 0.1566 0.4443
C10 C 0.43413(18) 0.27943(12) 0.50425(16)
H8 H 0.5360 0.2680 0.5432
H9 H 0.3809 0.2773 0.5763
H10 H 0.4237 0.3359 0.4623
C11 C 0.21641(15) 0.22537(10) 0.33201(14)
H11 H 0.2008 0.2832 0.2955
H12 H 0.1598 0.2167 0.4004
H13 H 0.1865 0.1843 0.2581
C12 C 0.44212(14) 0.26787(8) 0.17620(12)
H14 H 0.3576 0.3049 0.1782
C13 C 0.40770(16) 0.21801(9) 0.04317(13)
H15 H 0.4898 0.1821 0.0376
H16 H 0.3880 0.2577 -0.0336
H17 H 0.3231 0.1822 0.0401
C14 C 0.57263(17) 0.32541(9) 0.18681(15)
H18 H 0.5904 0.3568 0.2729
H19 H 0.5544 0.3657 0.1108
H20 H 0.6569 0.2907 0.1836
loop_
_geom_bond_atom_site_label_1
_geom_bond_atom_site_label_2
_geom_bond_site_symmetry_1
_geom_bond_site_symmetry_2
Cl1 C8 1_555 1_555
N1 N2 1_555 1_555
N2 N3 1_555 1_555
N3 C9 1_555 1_555
C1 C2 1_555 1_555
C2 H1 1_555 1_555
C3 C2 1_555 1_555
H2 C3 1_555 1_555
C4 C3 1_555 1_555
H3 C4 1_555 1_555
C5 C4 1_555 1_555
H4 C5 1_555 1_555
C6 C1 1_555 1_555
H5 C6 1_555 1_555
C7 C1 1_555 1_555
H6 C7 1_555 1_555
C8 N1 1_555 1_555
C9 H7 1_555 1_555
C10 C9 1_555 1_555
H8 C10 1_555 1_555
H9 C10 1_555 1_555
H10 C10 1_555 1_555
C11 C9 1_555 1_555
H11 C11 1_555 1_555
H12 C11 1_555 1_555
H13 C11 1_555 1_555
C12 N3 1_555 1_555
H14 C12 1_555 1_555
C13 C12 1_555 1_555
H15 C13 1_555 1_555
H16 C13 1_555 1_555
H17 C13 1_555 1_555
C14 C12 1_555 1_555
H18 C14 1_555 1_555
H19 C14 1_555 1_555
H20 C14 1_555 1_555
C5 C6 1_555 1_555
C7 C8 1_555 1_555

#END
