
#######################################################################
#
#                 Cambridge Crystallographic Data Centre
#                                CCDC 
#
#######################################################################
#
# If this CIF has been generated from an entry in the Cambridge 
# Structural Database, then it will include bibliographic, chemical, 
# crystal, experimental, refinement or atomic coordinate data resulting 
# from the CCDC's data processing and validation procedures.
#
#######################################################################

data_BADLIE
_chemical_formula_moiety         'C29 H32 N4 O6'
_chemical_name_systematic        
'Dimethyl (E)-2-(3,3-di-isopropyltriaz-1-en-1-yl)-4-(1,3-dioxoisoindolin-2-yl)-3-phenylcyclopent-2-ene-1,1-dicarboxylate'
_symmetry_cell_setting           triclinic
_symmetry_space_group_name_H-M   'P -1'
_symmetry_Int_Tables_number      2
_space_group_name_Hall           '-P 1'
loop_
_symmetry_equiv_pos_site_id
_symmetry_equiv_pos_as_xyz
1 x,y,z
2 -x,-y,-z
_cell_length_a                   11.087(3)
_cell_length_b                   11.491(4)
_cell_length_c                   12.859(5)
_cell_angle_alpha                65.36(2)
_cell_angle_beta                 68.35(2)
_cell_angle_gamma                78.82(3)
_cell_volume                     1382.47
_exptl_crystal_colour            colorless
_exptl_crystal_description       prism
_cell_formula_units_Z            2
loop_
_atom_site_label
_atom_site_type_symbol
_atom_site_fract_x
_atom_site_fract_y
_atom_site_fract_z
O1 O 0.5379(4) 0.2163(4) 0.1666(4)
O2 O 0.1758(4) 0.0785(4) 0.5014(4)
O3 O 0.1080(4) 0.1488(4) 0.7515(4)
O4 O 0.2572(4) -0.0136(4) 0.7534(4)
O5 O 0.3986(4) 0.1409(4) 0.8029(4)
O6 O 0.5054(4) 0.2884(4) 0.6235(4)
N1 N 0.2291(5) 0.4225(5) 0.5840(4)
N2 N 0.2158(5) 0.3925(5) 0.6957(4)
N3 N 0.1589(5) 0.4818(5) 0.7408(5)
N4 N 0.3687(5) 0.1595(5) 0.3491(4)
C1 C 0.2902(5) 0.3223(5) 0.5452(5)
C2 C 0.3214(5) 0.3333(5) 0.4294(5)
C3 C 0.4113(5) 0.2236(5) 0.4069(5)
H1 H 0.4986 0.2580 0.3527
C4 C 0.4234(5) 0.1327(5) 0.5328(5)
H2 H 0.5147 0.1248 0.5308
H3 H 0.3953 0.0463 0.5553
C5 C 0.3344(5) 0.1924(5) 0.6261(5)
C6 C 0.1520(7) 0.4454(6) 0.8679(6)
H4 H 0.1017 0.5156 0.8951
C7 C 0.0790(9) 0.3237(8) 0.9482(7)
H5 H -0.0113 0.3396 0.9486
H6 H 0.0806 0.2968 1.0307
H7 H 0.1203 0.2559 0.9172
C8 C 0.2875(9) 0.4324(10) 0.8783(8)
H8 H 0.3375 0.3616 0.8555
H9 H 0.2796 0.4151 0.9619
H10 H 0.3321 0.5123 0.8243
C9 C 0.1244(6) 0.6128(6) 0.6650(6)
H11 H 0.1199 0.6089 0.5903
C10 C -0.0076(7) 0.6627(7) 0.7273(7)
H12 H -0.0722 0.5989 0.7579
H13 H -0.0328 0.7427 0.6694
H14 H -0.0030 0.6787 0.7949
C11 C 0.2312(8) 0.7042(7) 0.6257(8)
H15 H 0.2421 0.7056 0.6974
H16 H 0.2066 0.7908 0.5765
H17 H 0.3132 0.6747 0.5779
C12 C 0.2847(6) 0.4409(5) 0.3318(5)
C13 C 0.1688(6) 0.5141(6) 0.3550(6)
H18 H 0.1098 0.4905 0.4352
C14 C 0.1379(7) 0.6206(7) 0.2637(7)
H19 H 0.0589 0.6694 0.2815
C15 C 0.2242(8) 0.6553(6) 0.1450(7)
H20 H 0.2059 0.7303 0.0827
C16 C 0.3354(7) 0.5807(6) 0.1191(6)
H21 H 0.3911 0.6019 0.0378
C17 C 0.3672(6) 0.4753(6) 0.2100(5)
H22 H 0.4449 0.4254 0.1906
C18 C 0.4348(5) 0.1657(5) 0.2300(5)
C19 C 0.3537(5) 0.0984(5) 0.2031(5)
C20 C 0.3727(6) 0.0796(6) 0.0992(5)
H23 H 0.4472 0.1095 0.0302
C21 C 0.2778(6) 0.0146(6) 0.0984(6)
H24 H 0.2881 -0.0007 0.0284
C22 C 0.1668(6) -0.0279(6) 0.2021(6)
H25 H 0.1036 -0.0720 0.2007
C23 C 0.1484(6) -0.0067(6) 0.3050(6)
H26 H 0.0736 -0.0349 0.3741
C24 C 0.2438(5) 0.0575(5) 0.3039(5)
C25 C 0.2506(5) 0.0957(5) 0.4001(5)
C26 C 0.2182(6) 0.1097(6) 0.7170(5)
C27 C 0.1565(6) -0.1016(6) 0.8427(6)
H27 H 0.1170 -0.0781 0.9136
H28 H 0.1948 -0.1891 0.8670
H29 H 0.0899 -0.0968 0.8077
C28 C 0.4123(5) 0.2036(6) 0.6975(5)
C29 C 0.5979(7) 0.2982(7) 0.6743(7)
H30 H 0.5517 0.3217 0.7446
H31 H 0.6592 0.3640 0.6134
H32 H 0.6454 0.2155 0.6994
loop_
_geom_bond_atom_site_label_1
_geom_bond_atom_site_label_2
_geom_bond_site_symmetry_1
_geom_bond_site_symmetry_2
O1 C18 1_555 1_555
O2 C25 1_555 1_555
O3 C26 1_555 1_555
O4 C26 1_555 1_555
O5 C28 1_555 1_555
O6 C28 1_555 1_555
N1 N2 1_555 1_555
N2 N3 1_555 1_555
N3 C6 1_555 1_555
N4 C3 1_555 1_555
C1 N1 1_555 1_555
C2 C1 1_555 1_555
C3 C2 1_555 1_555
H1 C3 1_555 1_555
C4 C3 1_555 1_555
H2 C4 1_555 1_555
H3 C4 1_555 1_555
C5 C1 1_555 1_555
C6 H4 1_555 1_555
C7 C6 1_555 1_555
H5 C7 1_555 1_555
H6 C7 1_555 1_555
H7 C7 1_555 1_555
C8 C6 1_555 1_555
H8 C8 1_555 1_555
H9 C8 1_555 1_555
H10 C8 1_555 1_555
C9 N3 1_555 1_555
H11 C9 1_555 1_555
C10 C9 1_555 1_555
H12 C10 1_555 1_555
H13 C10 1_555 1_555
H14 C10 1_555 1_555
C11 C9 1_555 1_555
H15 C11 1_555 1_555
H16 C11 1_555 1_555
H17 C11 1_555 1_555
C12 C2 1_555 1_555
C13 C12 1_555 1_555
H18 C13 1_555 1_555
C14 C13 1_555 1_555
H19 C14 1_555 1_555
C15 C14 1_555 1_555
H20 C15 1_555 1_555
C16 C15 1_555 1_555
H21 C16 1_555 1_555
C17 C12 1_555 1_555
H22 C17 1_555 1_555
C18 N4 1_555 1_555
C19 C18 1_555 1_555
C20 C19 1_555 1_555
H23 C20 1_555 1_555
C21 C20 1_555 1_555
H24 C21 1_555 1_555
C22 C21 1_555 1_555
H25 C22 1_555 1_555
C23 C22 1_555 1_555
H26 C23 1_555 1_555
C24 C19 1_555 1_555
C25 N4 1_555 1_555
C26 C5 1_555 1_555
C27 O4 1_555 1_555
H27 C27 1_555 1_555
H28 C27 1_555 1_555
H29 C27 1_555 1_555
C28 C5 1_555 1_555
C29 O6 1_555 1_555
H30 C29 1_555 1_555
H31 C29 1_555 1_555
H32 C29 1_555 1_555
C4 C5 1_555 1_555
C16 C17 1_555 1_555
C23 C24 1_555 1_555
C24 C25 1_555 1_555

#END
