
#######################################################################
#
#                 Cambridge Crystallographic Data Centre
#                                CCDC 
#
#######################################################################
#
# If this CIF has been generated from an entry in the Cambridge 
# Structural Database, then it will include bibliographic, chemical, 
# crystal, experimental, refinement or atomic coordinate data resulting 
# from the CCDC's data processing and validation procedures.
#
#######################################################################

data_BADLEA
_chemical_formula_moiety         'C13 H20 O2'
_chemical_name_systematic        3-t-Butyl-1-oxaspiro[4.5]dec-3-en-2-one
_symmetry_cell_setting           orthorhombic
_symmetry_space_group_name_H-M   'P c c n'
_symmetry_Int_Tables_number      56
_space_group_name_Hall           '-P 2ab 2ac'
loop_
_symmetry_equiv_pos_site_id
_symmetry_equiv_pos_as_xyz
1 x,y,z
2 1/2-x,1/2-y,z
3 -x,1/2+y,1/2-z
4 1/2+x,-y,1/2-z
5 -x,-y,-z
6 1/2+x,1/2+y,-z
7 x,1/2-y,1/2+z
8 1/2-x,y,1/2+z
_cell_length_a                   12.4309(8)
_cell_length_b                   19.3227(14)
_cell_length_c                   10.0873(9)
_cell_angle_alpha                90
_cell_angle_beta                 90
_cell_angle_gamma                90
_cell_volume                     2422.95
_exptl_crystal_colour            colorless
_exptl_crystal_description       prism
_cell_formula_units_Z            8
loop_
_atom_site_label
_atom_site_type_symbol
_atom_site_fract_x
_atom_site_fract_y
_atom_site_fract_z
O1 O 0.47987(8) 0.53541(6) 0.26214(11)
O2 O 0.57264(9) 0.45152(6) 0.15892(12)
C1 C 0.48647(12) 0.47390(8) 0.19663(16)
C2 C 0.37621(12) 0.44377(8) 0.18433(16)
C3 C 0.30840(12) 0.48785(8) 0.24241(16)
H1 H 0.2329 0.4810 0.2485
C4 C 0.36670(12) 0.54969(8) 0.29697(16)
C5 C 0.35915(13) 0.55447(9) 0.44841(16)
H2 H 0.3907 0.5122 0.4880
H3 H 0.2825 0.5565 0.4746
C6 C 0.41775(13) 0.61817(9) 0.50360(17)
H4 H 0.4059 0.6210 0.6005
H5 H 0.4960 0.6133 0.4879
C7 C 0.37766(14) 0.68469(9) 0.43811(18)
H6 H 0.4188 0.7246 0.4729
H7 H 0.3008 0.6918 0.4601
C8 C 0.39102(14) 0.68077(9) 0.28744(18)
H8 H 0.4685 0.6779 0.2653
H9 H 0.3618 0.7234 0.2466
C9 C 0.33242(13) 0.61752(8) 0.23057(17)
H10 H 0.2539 0.6238 0.2422
H11 H 0.3471 0.6145 0.1343
C10 C 0.35392(12) 0.37355(8) 0.12255(15)
C11 C 0.40670(16) 0.36783(11) -0.01431(19)
H12 H 0.3789 0.4044 -0.0722
H13 H 0.3901 0.3225 -0.0530
H14 H 0.4848 0.3728 -0.0053
C12 C 0.40058(17) 0.31743(9) 0.2142(2)
H15 H 0.4781 0.3249 0.2250
H16 H 0.3881 0.2717 0.1750
H17 H 0.3653 0.3199 0.3010
C13 C 0.23230(13) 0.36275(9) 0.1069(2)
H18 H 0.1981 0.3634 0.1944
H19 H 0.2188 0.3180 0.0642
H20 H 0.2023 0.3999 0.0521
loop_
_geom_bond_atom_site_label_1
_geom_bond_atom_site_label_2
_geom_bond_site_symmetry_1
_geom_bond_site_symmetry_2
O1 C1 1_555 1_555
O2 C1 1_555 1_555
C1 C2 1_555 1_555
C2 C3 1_555 1_555
C3 H1 1_555 1_555
C4 O1 1_555 1_555
C5 C4 1_555 1_555
H2 C5 1_555 1_555
H3 C5 1_555 1_555
C6 C5 1_555 1_555
H4 C6 1_555 1_555
H5 C6 1_555 1_555
C7 C6 1_555 1_555
H6 C7 1_555 1_555
H7 C7 1_555 1_555
C8 C7 1_555 1_555
H8 C8 1_555 1_555
H9 C8 1_555 1_555
C9 C4 1_555 1_555
H10 C9 1_555 1_555
H11 C9 1_555 1_555
C10 C2 1_555 1_555
C11 C10 1_555 1_555
H12 C11 1_555 1_555
H13 C11 1_555 1_555
H14 C11 1_555 1_555
C12 C10 1_555 1_555
H15 C12 1_555 1_555
H16 C12 1_555 1_555
H17 C12 1_555 1_555
C13 C10 1_555 1_555
H18 C13 1_555 1_555
H19 C13 1_555 1_555
H20 C13 1_555 1_555
C3 C4 1_555 1_555
C8 C9 1_555 1_555

#END
