
#######################################################################
#
#                 Cambridge Crystallographic Data Centre
#                                CCDC 
#
#######################################################################
#
# If this CIF has been generated from an entry in the Cambridge 
# Structural Database, then it will include bibliographic, chemical, 
# crystal, experimental, refinement or atomic coordinate data resulting 
# from the CCDC's data processing and validation procedures.
#
#######################################################################

data_BADNIG
_chemical_formula_moiety         'C20 H40 K1 O8 1+,C50 H52 B2 1-'
_chemical_name_systematic        
'(18-Crown-6)-bis(tetrahydrofuran)-potassium (9,10-bis(dimesitylboranyl)anthracene radical anion)'
_symmetry_cell_setting           monoclinic
_symmetry_space_group_name_H-M   'C 2/m'
_symmetry_Int_Tables_number      12
_space_group_name_Hall           '-C 2y'
loop_
_symmetry_equiv_pos_site_id
_symmetry_equiv_pos_as_xyz
1 x,y,z
2 -x,y,-z
3 1/2+x,1/2+y,z
4 1/2-x,1/2+y,-z
5 -x,-y,-z
6 x,-y,z
7 1/2-x,1/2-y,-z
8 1/2+x,1/2-y,z
_cell_length_a                   15.2804(18)
_cell_length_b                   19.2788(15)
_cell_length_c                   11.6460(10)
_cell_angle_alpha                90
_cell_angle_beta                 102.103(9)
_cell_angle_gamma                90
_cell_volume                     3354.51
_exptl_crystal_colour            green
_exptl_crystal_description       block
_cell_formula_units_Z            2
loop_
_atom_site_label
_atom_site_type_symbol
_atom_site_fract_x
_atom_site_fract_y
_atom_site_fract_z
B1 B 0.5000 0.3436(3) 0.0000
C6 C 0.5000 0.4231(3) 0.0000
C7 C 0.4180(2) 0.46301(17) -0.0170(3)
C8 C 0.3347(3) 0.4289(2) -0.0255(3)
H7 H 0.3337 0.3797 -0.0228
C9 C 0.2561(3) 0.46410(19) -0.0375(3)
H8 H 0.2013 0.4394 -0.0459
C10 C 0.5707(2) 0.2990(2) 0.0931(3)
C11 C 0.5795(3) 0.3128(2) 0.2143(4)
C12 C 0.6369(3) 0.2713(3) 0.2965(4)
H9 H 0.6407 0.2795 0.3778
C13 C 0.6885(3) 0.2185(3) 0.2627(5)
C14 C 0.6789(3) 0.2059(2) 0.1438(4)
H10 H 0.7126 0.1698 0.1184
C15 C 0.6204(3) 0.24525(19) 0.0602(3)
C16 C 0.6160(3) 0.2269(2) -0.0678(3)
H11 H 0.6149 0.2695 -0.1139
H12 H 0.5616 0.1999 -0.0978
H13 H 0.6687 0.1993 -0.0743
C17 C 0.5289(3) 0.3696(2) 0.2606(3)
H14 H 0.5367 0.3649 0.3459
H15 H 0.4651 0.3662 0.2240
H16 H 0.5518 0.4148 0.2421
C18 C 0.7523(4) 0.1756(3) 0.3538(4)
H17 H 0.7180 0.1422 0.3900
H18 H 0.7858 0.2063 0.4144
H19 H 0.7942 0.1506 0.3154
C7A C 0.5820(2) 0.46301(17) 0.0170(3)
C8A C 0.6653(3) 0.4289(2) 0.0255(3)
H7A H 0.6663 0.3797 0.0228
C9A C 0.7439(3) 0.46410(19) 0.0375(3)
H8A H 0.7987 0.4394 0.0459
C10A C 0.4293(2) 0.2990(2) -0.0931(3)
C11A C 0.4205(3) 0.3128(2) -0.2143(4)
C12A C 0.3631(3) 0.2713(3) -0.2965(4)
H9A H 0.3593 0.2795 -0.3778
C13A C 0.3115(3) 0.2185(3) -0.2627(5)
C14A C 0.3211(3) 0.2059(2) -0.1438(4)
H10A H 0.2874 0.1698 -0.1184
C15A C 0.3796(3) 0.24525(19) -0.0602(3)
C16A C 0.3840(3) 0.2269(2) 0.0678(3)
H11A H 0.3851 0.2695 0.1139
H12A H 0.4384 0.1999 0.0978
H13A H 0.3313 0.1993 0.0743
C17A C 0.4711(3) 0.3696(2) -0.2606(3)
H14A H 0.4633 0.3649 -0.3459
H15A H 0.5349 0.3662 -0.2240
H16A H 0.4482 0.4148 -0.2421
C18A C 0.2477(4) 0.1756(3) -0.3538(4)
H17A H 0.2820 0.1422 -0.3900
H18A H 0.2142 0.2063 -0.4144
H19A H 0.2058 0.1506 -0.3154
B1D B 0.5000 0.6564(3) 0.0000
C6D C 0.5000 0.5769(3) 0.0000
C7D C 0.5820(2) 0.53699(17) 0.0170(3)
C8D C 0.6653(3) 0.5711(2) 0.0255(3)
H7D H 0.6663 0.6203 0.0228
C9D C 0.7439(3) 0.53590(19) 0.0375(3)
H8D H 0.7987 0.5606 0.0459
C10D C 0.4293(2) 0.7010(2) -0.0931(3)
C11D C 0.4205(3) 0.6872(2) -0.2143(4)
C12D C 0.3631(3) 0.7287(3) -0.2965(4)
H9D H 0.3593 0.7205 -0.3778
C13D C 0.3115(3) 0.7815(3) -0.2627(5)
C14D C 0.3211(3) 0.7941(2) -0.1438(4)
H10D H 0.2874 0.8302 -0.1184
C15D C 0.3796(3) 0.75475(19) -0.0602(3)
C16D C 0.3840(3) 0.7731(2) 0.0678(3)
H11D H 0.3851 0.7305 0.1139
H12D H 0.4384 0.8001 0.0978
H13D H 0.3313 0.8007 0.0743
C17D C 0.4711(3) 0.6304(2) -0.2606(3)
H14D H 0.4633 0.6351 -0.3459
H15D H 0.5349 0.6338 -0.2240
H16D H 0.4482 0.5852 -0.2421
C18D C 0.2477(4) 0.8244(3) -0.3538(4)
H17D H 0.2820 0.8578 -0.3900
H18D H 0.2142 0.7937 -0.4144
H19D H 0.2058 0.8494 -0.3154
C7E C 0.4180(2) 0.53699(17) -0.0170(3)
C8E C 0.3347(3) 0.5711(2) -0.0255(3)
H7E H 0.3337 0.6203 -0.0228
C9E C 0.2561(3) 0.53590(19) -0.0375(3)
H8E H 0.2013 0.5606 -0.0459
C10E C 0.5707(2) 0.7010(2) 0.0931(3)
C11E C 0.5795(3) 0.6872(2) 0.2143(4)
C12E C 0.6369(3) 0.7287(3) 0.2965(4)
H9E H 0.6407 0.7205 0.3778
C13E C 0.6885(3) 0.7815(3) 0.2627(5)
C14E C 0.6789(3) 0.7941(2) 0.1438(4)
H10E H 0.7126 0.8302 0.1184
C15E C 0.6204(3) 0.75475(19) 0.0602(3)
C16E C 0.6160(3) 0.7731(2) -0.0678(3)
H11E H 0.6149 0.7305 -0.1139
H12E H 0.5616 0.8001 -0.0978
H13E H 0.6687 0.8007 -0.0743
C17E C 0.5289(3) 0.6304(2) 0.2606(3)
H14E H 0.5367 0.6351 0.3459
H15E H 0.4651 0.6338 0.2240
H16E H 0.5518 0.5852 0.2421
C18E C 0.7523(4) 0.8244(3) 0.3538(4)
H17E H 0.7180 0.8578 0.3900
H18E H 0.7858 0.7937 0.4144
H19E H 0.7942 0.8494 0.3154
K1 K 0.5000 1.0000 0.5000
O1 O 0.3329(3) 1.0000 0.3525(3)
O2 O 0.4087(2) 0.87442(19) 0.4472(3)
C1 C 0.2824(3) 0.9385(4) 0.3531(4)
H1 H 0.2305 0.9389 0.2860
H2 H 0.2594 0.9361 0.4264
C2 C 0.3383(4) 0.8779(4) 0.3449(6)
H3 H 0.3016 0.8352 0.3387
H4 H 0.3640 0.8814 0.2738
C3 C 0.4661(4) 0.8155(3) 0.4476(6)
H5 H 0.4941 0.8173 0.3783
H6 H 0.4305 0.7723 0.4430
O3 O 0.5662(5) 0.9859(5) 0.3041(4)
C4 C 0.6049(6) 1.0387(4) 0.2456(9)
C5 C 0.5758(9) 1.0284(7) 0.1228(8)
O1A O 0.6671(3) 1.0000 0.6475(3)
O2A O 0.5913(2) 0.87442(19) 0.5528(3)
C1A C 0.7176(3) 0.9385(4) 0.6469(4)
H1A H 0.7695 0.9389 0.7140
H2A H 0.7406 0.9361 0.5736
C2A C 0.6617(4) 0.8779(4) 0.6551(6)
H3A H 0.6984 0.8352 0.6613
H4A H 0.6360 0.8814 0.7262
C3A C 0.5339(4) 0.8155(3) 0.5524(6)
H5A H 0.5059 0.8173 0.6217
H6A H 0.5695 0.7723 0.5570
O2E O 0.4087(2) 1.12558(19) 0.4472(3)
C1E C 0.2824(3) 1.0615(4) 0.3531(4)
H1E H 0.2305 1.0611 0.2860
H2E H 0.2594 1.0639 0.4264
C2E C 0.3383(4) 1.1221(4) 0.3449(6)
H3E H 0.3016 1.1648 0.3387
H4E H 0.3640 1.1186 0.2738
C3E C 0.4661(4) 1.1845(3) 0.4476(6)
H5E H 0.4941 1.1827 0.3783
H6E H 0.4305 1.2277 0.4430
O2D O 0.5913(2) 1.12558(19) 0.5528(3)
C1D C 0.7176(3) 1.0615(4) 0.6469(4)
H1D H 0.7695 1.0611 0.7140
H2D H 0.7406 1.0639 0.5736
C2D C 0.6617(4) 1.1221(4) 0.6551(6)
H3D H 0.6984 1.1648 0.6613
H4D H 0.6360 1.1186 0.7262
C3D C 0.5339(4) 1.1845(3) 0.5524(6)
H5D H 0.5059 1.1827 0.6217
H6D H 0.5695 1.2277 0.5570
O3E O 0.5662(5) 1.0141(5) 0.3041(4)
C4E C 0.6049(6) 0.9613(4) 0.2456(9)
C5E C 0.5758(9) 0.9716(7) 0.1228(8)
O3A O 0.4338(5) 0.9859(5) 0.6959(4)
C4A C 0.3951(6) 1.0387(4) 0.7544(9)
C5A C 0.4242(9) 1.0284(7) 0.8772(8)
O3D O 0.4338(5) 1.0141(5) 0.6959(4)
C4D C 0.3951(6) 0.9613(4) 0.7544(9)
C5D C 0.4242(9) 0.9716(7) 0.8772(8)
H20? H 0.5353 0.8947 0.2261
H21? H 0.5859 1.0849 0.2681
H22? H 0.5428 1.0697 0.0864
H23? H 0.5440 0.9335 0.0603
H24? H 0.4501 0.9435 0.2262
H25? H 0.6279 1.0209 0.0862
H26? H 0.4589 0.9823 0.0605
C19? C 0.5132(6) 0.9430(5) 0.2174(7)
C20? C 0.5191(8) 0.9693(7) 0.1053(5)
H27? H 0.6710 1.0361 0.2679
loop_
_geom_bond_atom_site_label_1
_geom_bond_atom_site_label_2
_geom_bond_site_symmetry_1
_geom_bond_site_symmetry_2
K1 O1 1_555 1_555
O1 C1 1_555 1_555
O2 K1 1_555 1_555
C1 H1 1_555 1_555
H2 C1 1_555 1_555
C2 O2 1_555 1_555
H3 C2 1_555 1_555
H4 C2 1_555 1_555
C3 O2 1_555 1_555
H5 C3 1_555 1_555
H6 C3 1_555 1_555
O3 K1 1_555 1_555
C4 O3 1_555 1_555
C5 C4 1_555 1_555
B1 C6 1_555 1_555
C6 C7 1_555 1_555
C7 C8 1_555 1_555
C8 H7 1_555 1_555
C9 C8 1_555 1_555
H8 C9 1_555 1_555
C10 B1 1_555 1_555
C11 C10 1_555 1_555
C12 C11 1_555 1_555
H9 C12 1_555 1_555
C13 C12 1_555 1_555
C14 C13 1_555 1_555
H10 C14 1_555 1_555
C15 C10 1_555 1_555
C16 C15 1_555 1_555
H11 C16 1_555 1_555
H12 C16 1_555 1_555
H13 C16 1_555 1_555
C17 C11 1_555 1_555
H14 C17 1_555 1_555
H15 C17 1_555 1_555
H16 C17 1_555 1_555
C18 C13 1_555 1_555
H17 C18 1_555 1_555
H18 C18 1_555 1_555
H19 C18 1_555 1_555
O1A K1 1_555 1_555
O2A K1 1_555 1_555
C1A O1A 1_555 1_555
H1A C1A 1_555 1_555
H2A C1A 1_555 1_555
C2A O2A 1_555 1_555
H3A C2A 1_555 1_555
H4A C2A 1_555 1_555
C3A C3 1_555 1_555
H5A C3A 1_555 1_555
H6A C3A 1_555 1_555
O2E K1 1_555 1_555
C1E O1 1_555 1_555
H1E C1E 1_555 1_555
H2E C1E 1_555 1_555
C2E O2E 1_555 1_555
H3E C2E 1_555 1_555
H4E C2E 1_555 1_555
C3E O2E 1_555 1_555
H5E C3E 1_555 1_555
H6E C3E 1_555 1_555
O2D K1 1_555 1_555
C1D O1A 1_555 1_555
H1D C1D 1_555 1_555
H2D C1D 1_555 1_555
C2D O2D 1_555 1_555
H3D C2D 1_555 1_555
H4D C2D 1_555 1_555
C3D C3E 1_555 1_555
H5D C3D 1_555 1_555
H6D C3D 1_555 1_555
O3E K1 1_555 1_555
C4E O3 1_555 1_555
C5E C5 1_555 1_555
O3A K1 1_555 1_555
C4A O3A 1_555 1_555
C5A C4A 1_555 1_555
O3D K1 1_555 1_555
C4D O3A 1_555 1_555
C5D C5A 1_555 1_555
C7A C6 1_555 1_555
C8A C7A 1_555 1_555
H7A C8A 1_555 1_555
C9A C8A 1_555 1_555
H8A C9A 1_555 1_555
C10A B1 1_555 1_555
C11A C10A 1_555 1_555
C12A C11A 1_555 1_555
H9A C12A 1_555 1_555
C13A C12A 1_555 1_555
C14A C13A 1_555 1_555
H10A C14A 1_555 1_555
C15A C10A 1_555 1_555
C16A C15A 1_555 1_555
H11A C16A 1_555 1_555
H12A C16A 1_555 1_555
H13A C16A 1_555 1_555
C17A C11A 1_555 1_555
H14A C17A 1_555 1_555
H15A C17A 1_555 1_555
H16A C17A 1_555 1_555
C18A C13A 1_555 1_555
H17A C18A 1_555 1_555
H18A C18A 1_555 1_555
H19A C18A 1_555 1_555
B1D C6D 1_555 1_555
C6D C7D 1_555 1_555
C7D C7A 1_555 1_555
C8D C7D 1_555 1_555
H7D C8D 1_555 1_555
C9D C9A 1_555 1_555
H8D C9D 1_555 1_555
C10D B1D 1_555 1_555
C11D C10D 1_555 1_555
C12D C11D 1_555 1_555
H9D C12D 1_555 1_555
C13D C12D 1_555 1_555
C14D C13D 1_555 1_555
H10D C14D 1_555 1_555
C15D C10D 1_555 1_555
C16D C15D 1_555 1_555
H11D C16D 1_555 1_555
H12D C16D 1_555 1_555
H13D C16D 1_555 1_555
C17D C11D 1_555 1_555
H14D C17D 1_555 1_555
H15D C17D 1_555 1_555
H16D C17D 1_555 1_555
C18D C13D 1_555 1_555
H17D C18D 1_555 1_555
H18D C18D 1_555 1_555
H19D C18D 1_555 1_555
C7E C7 1_555 1_555
C8E C7E 1_555 1_555
H7E C8E 1_555 1_555
C9E C9 1_555 1_555
H8E C9E 1_555 1_555
C10E B1D 1_555 1_555
C11E C10E 1_555 1_555
C12E C11E 1_555 1_555
H9E C12E 1_555 1_555
C13E C12E 1_555 1_555
C14E C13E 1_555 1_555
H10E C14E 1_555 1_555
C15E C10E 1_555 1_555
C16E C15E 1_555 1_555
H11E C16E 1_555 1_555
H12E C16E 1_555 1_555
H13E C16E 1_555 1_555
C17E C11E 1_555 1_555
H14E C17E 1_555 1_555
H15E C17E 1_555 1_555
H16E C17E 1_555 1_555
C18E C13E 1_555 1_555
H17E C18E 1_555 1_555
H18E C18E 1_555 1_555
H19E C18E 1_555 1_555
C1 C2 1_555 1_555
C4 O3E 1_555 1_555
C4 C4E 1_555 1_555
C14 C15 1_555 1_555
O2A C3A 1_555 1_555
C1A C2A 1_555 1_555
C1E C2E 1_555 1_555
O2D C3D 1_555 1_555
C1D C2D 1_555 1_555
O3E C4E 1_555 1_555
C4E C5E 1_555 1_555
C4A O3D 1_555 1_555
C4A C4D 1_555 1_555
O3D C4D 1_555 1_555
C4D C5D 1_555 1_555
C14A C15A 1_555 1_555
C6D C7E 1_555 1_555
C8D C9D 1_555 1_555
C14D C15D 1_555 1_555
C8E C9E 1_555 1_555
C14E C15E 1_555 1_555

#END
