
#######################################################################
#
#                 Cambridge Crystallographic Data Centre
#                                CCDC 
#
#######################################################################
#
# If this CIF has been generated from an entry in the Cambridge 
# Structural Database, then it will include bibliographic, chemical, 
# crystal, experimental, refinement or atomic coordinate data resulting 
# from the CCDC's data processing and validation procedures.
#
#######################################################################

data_BADSOP
_chemical_formula_moiety         'C14 H11 N1 O4'
_chemical_name_systematic        
syn-1-Acetyl-2'a,5'a-dihydrospiro(indole-3,2'-oxeto(2,3-b)furan)-2(1H)-one
_symmetry_cell_setting           monoclinic
_symmetry_space_group_name_H-M   'C 2/c'
_symmetry_Int_Tables_number      15
_space_group_name_Hall           '-C 2yn'
loop_
_symmetry_equiv_pos_site_id
_symmetry_equiv_pos_as_xyz
1 x,y,z
2 1/2+x,1/2+y,z
3 x,-y,1/2+z
4 1/2+x,1/2-y,1/2+z
5 -x,-y,-z
6 1/2-x,1/2-y,-z
7 -x,y,1/2-z
8 1/2-x,1/2+y,1/2-z
_cell_length_a                   19.2158(1)
_cell_length_b                   9.2422(2)
_cell_length_c                   15.6965(3)
_cell_angle_alpha                90
_cell_angle_beta                 121.111(1)
_cell_angle_gamma                90
_cell_volume                     2386.69
_exptl_crystal_colour            colorless
_exptl_crystal_description       block
_chemical_melting_point          155-157deg.C
_cell_formula_units_Z            8
_exptl_crystal_recrystallization_method 'petroleum ether/acetone'
loop_
_atom_site_label
_atom_site_type_symbol
_atom_site_fract_x
_atom_site_fract_y
_atom_site_fract_z
O1 O 0.22503(16) 0.3396(3) 0.38753(17)
O2 O 0.22868(11) 0.1421(2) 0.29500(13)
O3 O 0.11606(17) -0.1083(3) 0.23077(17)
O4 O 0.05513(16) -0.1797(3) -0.06136(19)
N1 N 0.10048(13) -0.0461(2) 0.07802(16)
C1 C 0.11670(15) 0.0826(3) 0.04060(19)
C2 C 0.1068(2) 0.1084(3) -0.0517(2)
H1 H 0.0858 0.0376 -0.1009
C3 C 0.1291(2) 0.2423(4) -0.0686(3)
H2 H 0.1236 0.2612 -0.1301
C4 C 0.1594(3) 0.3484(4) 0.0031(3)
H3 H 0.1730 0.4383 -0.0108
C5 C 0.16964(19) 0.3223(3) 0.0957(2)
H4 H 0.1922 0.3924 0.1453
C6 C 0.14588(15) 0.1907(3) 0.11300(18)
C7 C 0.14957(16) 0.1345(3) 0.20401(18)
C8 C 0.1689(2) 0.4335(4) 0.3175(3)
H5 H 0.1770 0.5331 0.3221
C9 C 0.1035(2) 0.3735(4) 0.2440(2)
H6 H 0.0597 0.4224 0.1923
C10 C 0.11135(17) 0.2145(3) 0.2575(2)
H7 H 0.0666 0.1647 0.2582
C11 C 0.19467(19) 0.1990(4) 0.3502(2)
H8 H 0.1965 0.1322 0.3998
C12 C 0.12071(17) -0.0220(3) 0.1766(2)
C13 C 0.07453(17) -0.1778(3) 0.0249(2)
C14 C 0.0698(2) -0.3078(3) 0.0780(3)
H9 H 0.0880 -0.2830 0.1458
H10 H 0.1038 -0.3830 0.0768
H11 H 0.0146 -0.3413 0.0457
loop_
_geom_bond_atom_site_label_1
_geom_bond_atom_site_label_2
_geom_bond_site_symmetry_1
_geom_bond_site_symmetry_2
O1 C8 1_555 1_555
O2 C7 1_555 1_555
O3 C12 1_555 1_555
O4 C13 1_555 1_555
N1 C1 1_555 1_555
C1 C2 1_555 1_555
C2 H1 1_555 1_555
C3 C2 1_555 1_555
H2 C3 1_555 1_555
C4 C3 1_555 1_555
H3 C4 1_555 1_555
C5 C4 1_555 1_555
H4 C5 1_555 1_555
C6 C1 1_555 1_555
C7 C6 1_555 1_555
C8 H5 1_555 1_555
C9 C8 1_555 1_555
H6 C9 1_555 1_555
C10 C7 1_555 1_555
H7 C10 1_555 1_555
C11 O1 1_555 1_555
H8 C11 1_555 1_555
C12 N1 1_555 1_555
C13 N1 1_555 1_555
C14 C13 1_555 1_555
H9 C14 1_555 1_555
H10 C14 1_555 1_555
H11 C14 1_555 1_555
O2 C11 1_555 1_555
C5 C6 1_555 1_555
C7 C12 1_555 1_555
C9 C10 1_555 1_555
C10 C11 1_555 1_555

#END
