
#######################################################################
#
#                 Cambridge Crystallographic Data Centre
#                                CCDC 
#
#######################################################################
#
# If this CIF has been generated from an entry in the Cambridge 
# Structural Database, then it will include bibliographic, chemical, 
# crystal, experimental, refinement or atomic coordinate data resulting 
# from the CCDC's data processing and validation procedures.
#
#######################################################################

data_BADVOU
_chemical_formula_moiety         'C20 H17 Br1 N4 O4 S1'
_chemical_name_systematic        
5-(1-(4-Bromophenyl)-2-((1-phenyl-1H-tetrazol-5-yl)sulfonyl)ethyl)-5-methylfuran-2(5H)-one
_symmetry_cell_setting           triclinic
_symmetry_space_group_name_H-M   'P -1'
_symmetry_Int_Tables_number      2
_space_group_name_Hall           '-P 1'
loop_
_symmetry_equiv_pos_site_id
_symmetry_equiv_pos_as_xyz
1 x,y,z
2 -x,-y,-z
_cell_length_a                   8.1772(5)
_cell_length_b                   9.7706(5)
_cell_length_c                   13.9947(8)
_cell_angle_alpha                70.184(2)
_cell_angle_beta                 73.970(2)
_cell_angle_gamma                83.379(2)
_cell_volume                     1010.72
_exptl_crystal_colour            colorless
_exptl_crystal_description       block
_cell_formula_units_Z            2
_exptl_crystal_recrystallization_method dichloromethane/pentane
loop_
_atom_site_label
_atom_site_type_symbol
_atom_site_fract_x
_atom_site_fract_y
_atom_site_fract_z
Br1 Br 0.15828(3) 0.85202(3) 0.451728(19)
S1 S 0.07400(8) 0.73330(7) 1.00887(5)
O1 O 0.5899(2) 0.56631(17) 0.84038(12)
O2 O -0.0335(2) 0.61515(18) 1.07646(13)
O3 O 0.0137(2) 0.84843(18) 0.93081(13)
N1 N 0.0430(2) 0.8178(2) 1.18631(15)
O4 O 0.7402(2) 0.4515(2) 0.72859(15)
C1 C 0.2782(3) 0.6664(3) 0.73737(19)
H1 H 0.2783 0.5714 0.7865
N2 N 0.2783(3) 0.9222(2) 1.14625(16)
C2 C 0.2819(3) 0.9414(3) 0.59180(19)
H2 H 0.2847 1.0356 0.5412
N3 N 0.2775(3) 0.8795(2) 1.06340(16)
N4 N 0.1390(3) 0.8870(2) 1.21976(16)
C3 C 0.2284(3) 0.6867(3) 0.64698(19)
H3 H 0.1937 0.6065 0.6342
C4 C 0.3842(3) 0.7640(2) 0.85625(18)
H4 H 0.3726 0.8614 0.8666
C5 C 0.3303(3) 0.9198(3) 0.68266(18)
H5 H 0.3661 1.0005 0.6945
C6 C 0.6391(3) 0.7156(3) 0.9370(2)
H6 H 0.5746 0.6476 1.0024
H7 H 0.6255 0.8140 0.9422
H8 H 0.7599 0.6864 0.9250
C7 C 0.6861(3) 0.7982(3) 0.7439(2)
H9 H 0.7019 0.9001 0.7214
C8 C 0.3280(3) 0.7826(3) 0.75760(18)
C9 C 0.5732(3) 0.7138(2) 0.84605(19)
C10 C -0.2583(3) 0.7840(3) 1.2098(2)
H10 H -0.2472 0.8326 1.1370
C11 C -0.2903(4) 0.6492(3) 1.4235(2)
H11 H -0.3026 0.6054 1.4969
C12 C 0.7032(3) 0.5632(3) 0.7480(2)
C13 C -0.1327(3) 0.6954(3) 1.3576(2)
H12 H -0.0352 0.6806 1.3846
C14 C 0.1314(3) 0.8150(2) 1.09041(19)
C15 C 0.7606(3) 0.7119(3) 0.6892(2)
H13 H 0.8391 0.7414 0.6222
C16 C 0.2707(3) 0.6591(3) 0.95411(18)
H14 H 0.3350 0.6216 1.0086
H15 H 0.2474 0.5752 0.9358
C17 C -0.4135(3) 0.7320(3) 1.2765(3)
H16 H -0.5099 0.7414 1.2491
C18 C -0.1197(3) 0.7632(3) 1.25210(19)
C19 C 0.2295(3) 0.8244(3) 0.57543(18)
C20 C -0.4290(4) 0.6665(3) 1.3829(2)
H17 H -0.5367 0.6332 1.4284
loop_
_geom_bond_atom_site_label_1
_geom_bond_atom_site_label_2
_geom_bond_site_symmetry_1
_geom_bond_site_symmetry_2
Br1 C19 1_555 1_555
S1 O2 1_555 1_555
O1 C9 1_555 1_555
O3 S1 1_555 1_555
N1 N4 1_555 1_555
O4 C12 1_555 1_555
C1 H1 1_555 1_555
N2 N3 1_555 1_555
C2 H2 1_555 1_555
N3 C14 1_555 1_555
N4 N2 1_555 1_555
C3 C1 1_555 1_555
H3 C3 1_555 1_555
C4 H4 1_555 1_555
C5 C2 1_555 1_555
H5 C5 1_555 1_555
C6 H6 1_555 1_555
H7 C6 1_555 1_555
H8 C6 1_555 1_555
C7 H9 1_555 1_555
C8 C1 1_555 1_555
C9 C4 1_555 1_555
C10 H10 1_555 1_555
C11 H11 1_555 1_555
C12 O1 1_555 1_555
C13 C11 1_555 1_555
H12 C13 1_555 1_555
C14 S1 1_555 1_555
C15 C7 1_555 1_555
H13 C15 1_555 1_555
C16 S1 1_555 1_555
H14 C16 1_555 1_555
H15 C16 1_555 1_555
C17 C10 1_555 1_555
H16 C17 1_555 1_555
C18 N1 1_555 1_555
C19 C2 1_555 1_555
C20 C11 1_555 1_555
H17 C20 1_555 1_555
N1 C14 1_555 1_555
C3 C19 1_555 1_555
C4 C8 1_555 1_555
C4 C16 1_555 1_555
C5 C8 1_555 1_555
C6 C9 1_555 1_555
C7 C9 1_555 1_555
C10 C18 1_555 1_555
C12 C15 1_555 1_555
C13 C18 1_555 1_555
C17 C20 1_555 1_555

#END
