
#######################################################################
#
#                 Cambridge Crystallographic Data Centre
#                                CCDC 
#
#######################################################################
#
# If this CIF has been generated from an entry in the Cambridge 
# Structural Database, then it will include bibliographic, chemical, 
# crystal, experimental, refinement or atomic coordinate data resulting 
# from the CCDC's data processing and validation procedures.
#
#######################################################################

data_BADVIO
_chemical_formula_moiety         'C15 H16 N4 O4 S1'
_chemical_name_systematic        
(R)-5-Ethyl-5-(2-((1-phenyl-1H-tetrazol-5-yl)sulfonyl)ethyl)furan-2(5H)-one
_symmetry_cell_setting           orthorhombic
_symmetry_space_group_name_H-M   'P 21 21 21'
_symmetry_Int_Tables_number      19
_space_group_name_Hall           'P 2ac 2ab'
loop_
_symmetry_equiv_pos_site_id
_symmetry_equiv_pos_as_xyz
1 x,y,z
2 1/2-x,-y,1/2+z
3 -x,1/2+y,1/2-z
4 1/2+x,1/2-y,-z
_cell_length_a                   5.8334(5)
_cell_length_b                   10.9763(9)
_cell_length_c                   24.922(2)
_cell_angle_alpha                90
_cell_angle_beta                 90
_cell_angle_gamma                90
_cell_volume                     1595.73
_exptl_crystal_colour            colorless
_exptl_crystal_description       block
_chemical_melting_point          '92-94 deg.C'
_cell_formula_units_Z            4
_exptl_crystal_recrystallization_method dichloromethane/pentane
loop_
_atom_site_label
_atom_site_type_symbol
_atom_site_fract_x
_atom_site_fract_y
_atom_site_fract_z
C1 C 0.5956(7) -0.7086(3) -0.28725(15)
H1 H 0.017(5) -0.802(2) -0.1338(10)
H2 H 0.434(5) -1.038(2) 0.1041(11)
H3 H -0.005(6) -1.307(3) 0.0800(11)
H4 H 0.378(5) -0.498(3) -0.1553(11)
H5 H -0.236(5) -1.181(3) 0.0288(11)
H6 H 0.226(5) -0.820(2) -0.0952(12)
H7 H 0.678(6) -0.740(3) -0.3170(14)
H8 H 0.325(5) -1.233(3) 0.1200(12)
H9 H 0.221(5) -0.910(3) 0.0483(11)
H10 H 0.398(5) -0.932(3) -0.1613(11)
H11 H 0.603(5) -0.701(3) -0.1525(11)
H12 H 0.465(5) -0.664(2) -0.2999(10)
H13 H 0.417(5) -0.867(3) -0.2749(12)
H14 H 0.712(7) -0.649(3) -0.2657(14)
H15 H 0.629(6) -0.858(3) -0.2369(12)
H16 H 0.178(6) -0.935(3) -0.1989(12)
S1 S -0.01335(16) -0.98263(6) -0.10158(3)
O1 O 0.0055(5) -0.51901(19) -0.21588(8)
O2 O -0.1759(4) -1.02439(18) -0.14046(8)
O3 O 0.1540(4) -0.70660(17) -0.22509(8)
N1 N -0.1622(5) -0.94940(18) 0.00446(9)
N2 N -0.3136(5) -0.8779(2) 0.03092(10)
C2 C 0.1811(6) -0.9887(3) 0.05670(12)
O4 O 0.1482(4) -1.06527(19) -0.07901(8)
C3 C -0.0164(6) -1.0331(2) 0.03466(10)
C4 C 0.2452(6) -1.1832(3) 0.09668(13)
C5 C 0.1276(7) -0.8517(3) -0.12608(13)
C6 C 0.3571(6) -0.5761(3) -0.17122(12)
C7 C 0.4706(7) -0.6798(3) -0.17073(12)
N3 N -0.4146(4) -0.8111(2) -0.00514(10)
C8 C -0.0909(6) -1.1509(3) 0.04259(13)
C9 C 0.2712(6) -0.8849(3) -0.17468(13)
N4 N -0.3321(5) -0.8373(2) -0.05496(10)
C10 C 0.1553(6) -0.5907(3) -0.20544(12)
C11 C 0.0449(6) -1.2270(3) 0.07427(12)
C12 C 0.5011(8) -0.8119(3) -0.25330(13)
C13 C 0.3140(6) -1.0649(3) 0.08769(13)
C14 C 0.3557(6) -0.7719(3) -0.20547(12)
C15 C -0.1763(6) -0.9217(2) -0.04763(11)
loop_
_geom_bond_atom_site_label_1
_geom_bond_atom_site_label_2
_geom_bond_site_symmetry_1
_geom_bond_site_symmetry_2
C1 H7 1_555 1_555
H1 C5 1_555 1_555
H2 C13 1_555 1_555
H3 C11 1_555 1_555
H4 C6 1_555 1_555
H5 C8 1_555 1_555
H6 C5 1_555 1_555
H8 C4 1_555 1_555
H9 C2 1_555 1_555
H10 C9 1_555 1_555
H11 C7 1_555 1_555
H12 C1 1_555 1_555
H13 C12 1_555 1_555
H14 C1 1_555 1_555
H15 C12 1_555 1_555
H16 C9 1_555 1_555
S1 O2 1_555 1_555
O1 C10 1_555 1_555
O3 C10 1_555 1_555
N1 N2 1_555 1_555
N2 N3 1_555 1_555
C2 C3 1_555 1_555
O4 S1 1_555 1_555
C3 N1 1_555 1_555
C4 C11 1_555 1_555
C5 S1 1_555 1_555
C6 C7 1_555 1_555
C7 C14 1_555 1_555
N3 N4 1_555 1_555
C8 C3 1_555 1_555
C9 C5 1_555 1_555
N4 C15 1_555 1_555
C10 C6 1_555 1_555
C11 C8 1_555 1_555
C12 C1 1_555 1_555
C13 C2 1_555 1_555
C14 O3 1_555 1_555
C15 S1 1_555 1_555
N1 C15 1_555 1_555
C4 C13 1_555 1_555
C9 C14 1_555 1_555
C12 C14 1_555 1_555

#END
