
#######################################################################
#
#                 Cambridge Crystallographic Data Centre
#                                CCDC 
#
#######################################################################
#
# If this CIF has been generated from an entry in the Cambridge 
# Structural Database, then it will include bibliographic, chemical, 
# crystal, experimental, refinement or atomic coordinate data resulting 
# from the CCDC's data processing and validation procedures.
#
#######################################################################

data_BADZEO
_chemical_formula_moiety         'C23 H28 Br1 N1 O5'
_chemical_name_systematic        
'1-t-Butyl 4-methyl 3-(4-bromophenyl)-N-(4-methoxyphenyl)-N-methylaspartate'
_symmetry_cell_setting           monoclinic
_symmetry_space_group_name_H-M   'P 21'
_symmetry_Int_Tables_number      4
_space_group_name_Hall           'P 2yb'
loop_
_symmetry_equiv_pos_site_id
_symmetry_equiv_pos_as_xyz
1 x,y,z
2 -x,1/2+y,-z
_cell_length_a                   12.309(3)
_cell_length_b                   6.1732(12)
_cell_length_c                   15.362(3)
_cell_angle_alpha                90
_cell_angle_beta                 95.89(3)
_cell_angle_gamma                90
_cell_volume                     1161.13
_exptl_crystal_colour            colorless
_exptl_crystal_description       Plate
_cell_formula_units_Z            2
_exptl_crystal_recrystallization_method chloroform/n-hexane
loop_
_atom_site_label
_atom_site_type_symbol
_atom_site_fract_x
_atom_site_fract_y
_atom_site_fract_z
N1 N -0.2848(3) 0.4567(6) 0.8168(3)
Br1 Br 0.18596(5) 0.5232(2) 0.60324(5)
C1 C -0.3502(4) 0.7523(10) 0.6022(3)
C2 C -0.2989(4) 0.5789(9) 0.6644(3)
H1 H -0.3334 0.4369 0.6465
C3 C -0.3248(4) 0.6272(8) 0.7573(3)
H2 H -0.2881 0.7659 0.7769
C4 C -0.4482(4) 0.6546(8) 0.7592(4)
C5 C -0.4299(4) 0.8160(9) 0.4589(3)
H3 H -0.4424 0.7415 0.4025
H4 H -0.3848 0.9448 0.4526
H5 H -0.5001 0.8595 0.4783
C6 C -0.5813(4) 0.8315(10) 0.8415(3)
C7 C -0.6445(5) 0.6278(10) 0.8569(4)
H6 H -0.6544 0.5430 0.8027
H7 H -0.7161 0.6665 0.8749
H8 H -0.6040 0.5416 0.9030
C8 C -0.6355(4) 0.9645(10) 0.7661(4)
H9 H -0.5928 1.0963 0.7592
H10 H -0.7095 1.0039 0.7782
H11 H -0.6391 0.8791 0.7121
C9 C -0.5653(5) 0.9660(11) 0.9222(3)
H12 H -0.5249 1.0976 0.9103
H13 H -0.5239 0.8832 0.9689
H14 H -0.6366 1.0056 0.9406
C10 C -0.1799(4) 0.5642(10) 0.6521(3)
C11 C -0.1052(5) 0.7152(10) 0.6868(4)
H15 H -0.1296 0.8292 0.7215
C12 C 0.0032(5) 0.7069(11) 0.6730(4)
H16 H 0.0540 0.8099 0.6989
C13 C 0.0345(4) 0.5478(15) 0.6215(4)
C14 C -0.0334(5) 0.3937(11) 0.5848(3)
H17 H -0.0078 0.2830 0.5491
C15 C -0.1426(5) 0.4037(10) 0.6016(4)
H18 H -0.1921 0.2965 0.5772
C16 C -0.2254(4) 0.5000(9) 0.8970(3)
C17 C -0.2258(4) 0.6987(8) 0.9393(3)
H19 H -0.2666 0.8153 0.9121
C18 C -0.1684(4) 0.7297(9) 1.0198(3)
H20 H -0.1694 0.8680 1.0467
C19 C -0.1100(4) 0.5659(11) 1.0618(4)
C20 C -0.1087(5) 0.3687(10) 1.0212(4)
H21 H -0.0677 0.2535 1.0493
C21 C -0.1647(4) 0.3341(9) 0.9417(4)
H22 H -0.1629 0.1947 0.9157
C22 C -0.0494(5) 0.7812(11) 1.1854(4)
H23 H -0.0035 0.7706 1.2413
H24 H -0.1240 0.8204 1.1963
H25 H -0.0198 0.8926 1.1489
C23 C -0.3134(5) 0.2344(8) 0.7945(3)
H26 H -0.2802 0.1378 0.8404
H27 H -0.2863 0.1971 0.7386
H28 H -0.3930 0.2180 0.7894
O1 O -0.3656(4) 0.9351(6) 0.6226(2)
O2 O -0.3741(3) 0.6713(6) 0.5231(2)
O3 O -0.5136(3) 0.5695(7) 0.7074(2)
O4 O -0.4692(3) 0.7797(5) 0.8245(2)
O5 O -0.0506(3) 0.5810(7) 1.1421(2)
loop_
_geom_bond_atom_site_label_1
_geom_bond_atom_site_label_2
_geom_bond_site_symmetry_1
_geom_bond_site_symmetry_2
N1 C3 1_555 1_555
Br1 C13 1_555 1_555
C1 C2 1_555 1_555
C2 H1 1_555 1_555
C3 C2 1_555 1_555
H2 C3 1_555 1_555
C4 C3 1_555 1_555
C5 H3 1_555 1_555
H4 C5 1_555 1_555
H5 C5 1_555 1_555
C6 C7 1_555 1_555
C7 H6 1_555 1_555
H7 C7 1_555 1_555
H8 C7 1_555 1_555
C8 C6 1_555 1_555
H9 C8 1_555 1_555
H10 C8 1_555 1_555
H11 C8 1_555 1_555
C9 C6 1_555 1_555
H12 C9 1_555 1_555
H13 C9 1_555 1_555
H14 C9 1_555 1_555
C10 C2 1_555 1_555
C11 C10 1_555 1_555
H15 C11 1_555 1_555
C12 C11 1_555 1_555
H16 C12 1_555 1_555
C13 C12 1_555 1_555
C14 C13 1_555 1_555
H17 C14 1_555 1_555
C15 C10 1_555 1_555
H18 C15 1_555 1_555
C16 N1 1_555 1_555
C17 C16 1_555 1_555
H19 C17 1_555 1_555
C18 C17 1_555 1_555
H20 C18 1_555 1_555
C19 C18 1_555 1_555
C20 C19 1_555 1_555
H21 C20 1_555 1_555
C21 C16 1_555 1_555
H22 C21 1_555 1_555
C22 H23 1_555 1_555
H24 C22 1_555 1_555
H25 C22 1_555 1_555
C23 N1 1_555 1_555
H26 C23 1_555 1_555
H27 C23 1_555 1_555
H28 C23 1_555 1_555
O1 C1 1_555 1_555
O2 C1 1_555 1_555
O3 C4 1_555 1_555
O4 C4 1_555 1_555
O5 C19 1_555 1_555
C5 O2 1_555 1_555
C6 O4 1_555 1_555
C14 C15 1_555 1_555
C20 C21 1_555 1_555
C22 O5 1_555 1_555

#END
