
#######################################################################
#
#                 Cambridge Crystallographic Data Centre
#                                CCDC 
#
#######################################################################
#
# If this CIF has been generated from an entry in the Cambridge 
# Structural Database, then it will include bibliographic, chemical, 
# crystal, experimental, refinement or atomic coordinate data resulting 
# from the CCDC's data processing and validation procedures.
#
#######################################################################

data_BAEDTA
_chemical_name_common            'Barium edetate hydrate'
_chemical_formula_moiety         'C10 H12 N2 O8 4-,2(Ba1 2+),2.5(H2 O1)'
_chemical_name_systematic        'Barium ethylenediamine-tetra-acetate hydrate'
_symmetry_cell_setting           tetragonal
_symmetry_space_group_name_H-M   'P 4 n c'
_symmetry_Int_Tables_number      104
_space_group_name_Hall           'P 4 -2n'
loop_
_symmetry_equiv_pos_site_id
_symmetry_equiv_pos_as_xyz
1 x,y,z
2 -y,x,z
3 -x,-y,z
4 y,-x,z
5 1/2-x,1/2+y,1/2+z
6 1/2+y,1/2+x,1/2+z
7 1/2+x,1/2-y,1/2+z
8 1/2-y,1/2-x,1/2+z
_cell_length_a                   19.76(5)
_cell_length_b                   19.76(5)
_cell_length_c                   8.96(2)
_cell_angle_alpha                90
_cell_angle_beta                 90
_cell_angle_gamma                90
_cell_volume                     3498.5
_cell_formula_units_Z            8
loop_
_atom_site_label
_atom_site_type_symbol
_atom_site_fract_x
_atom_site_fract_y
_atom_site_fract_z
Ba1 Ba 0.36700 0.19200 0.00000
Ba2 Ba 0.18200 0.35500 0.51500
O1 O 0.29200 0.31800 0.01300
O2 O 0.24700 0.35000 -0.20000
C1 C 0.36000 0.31700 -0.21100
C2 C 0.29400 0.32900 -0.12500
O3 O 0.51300 0.19800 -0.38300
O4 O 0.40800 0.19500 -0.29300
C3 C 0.47800 0.28800 -0.21700
C4 C 0.46500 0.22200 -0.30500
N1 N 0.42100 0.30300 -0.11900
C5 C 0.43800 0.36800 -0.04300
C6 C 0.46800 0.36300 0.11300
N2 N 0.43700 0.31200 0.20900
O5 O 0.33700 0.23200 0.29200
O6 O 0.30000 0.29500 0.47700
C7 C 0.38200 0.34200 0.30200
C8 C 0.33500 0.28500 0.36200
O7 O 0.57700 0.19500 0.24200
O8 O 0.49000 0.18300 0.08700
C9 C 0.48700 0.27000 0.28900
C10 C 0.52000 0.21200 0.19800
O9 O 0.43500 0.11200 0.30700
O10 O 0.08300 0.44000 0.46700
O11 O 0.50000 0.00000 0.25700
loop_
_geom_bond_atom_site_label_1
_geom_bond_atom_site_label_2
_geom_bond_site_symmetry_1
_geom_bond_site_symmetry_2
O1 C2 1_555 1_555
O2 C2 1_555 1_555
C1 C2 1_555 1_555
O3 C4 1_555 1_555
O4 C4 1_555 1_555
C3 C4 1_555 1_555
N1 C1 1_555 1_555
C5 N1 1_555 1_555
C6 C5 1_555 1_555
N2 C6 1_555 1_555
O5 C8 1_555 1_555
O6 C8 1_555 1_555
C7 N2 1_555 1_555
C8 C7 1_555 1_555
O7 C10 1_555 1_555
O8 C10 1_555 1_555
C9 N2 1_555 1_555
C10 C9 1_555 1_555
C3 N1 1_555 1_555

#END
