
#######################################################################
#
#                 Cambridge Crystallographic Data Centre
#                                CCDC 
#
#######################################################################
#
# If this CIF has been generated from an entry in the Cambridge 
# Structural Database, then it will include bibliographic, chemical, 
# crystal, experimental, refinement or atomic coordinate data resulting 
# from the CCDC's data processing and validation procedures.
#
#######################################################################

data_BAFJIE
_chemical_formula_moiety         'C18 H15 N1 O1'
_chemical_name_systematic        
(Z)-1-(Naphthalen-1-yl)-3-(pyridin-2-yl)prop-2-en-1-ol
_symmetry_cell_setting           monoclinic
_symmetry_space_group_name_H-M   'P 21/c'
_symmetry_Int_Tables_number      14
_space_group_name_Hall           '-P 2ybc'
loop_
_symmetry_equiv_pos_site_id
_symmetry_equiv_pos_as_xyz
1 x,y,z
2 -x,1/2+y,1/2-z
3 -x,-y,-z
4 x,1/2-y,1/2+z
_cell_length_a                   7.7053(15)
_cell_length_b                   27.239(5)
_cell_length_c                   7.3395(15)
_cell_angle_alpha                90
_cell_angle_beta                 118.22(3)
_cell_angle_gamma                90
_cell_volume                     1357.35
_exptl_crystal_colour            colorless
_exptl_crystal_description       block
_cell_formula_units_Z            4
loop_
_atom_site_label
_atom_site_type_symbol
_atom_site_fract_x
_atom_site_fract_y
_atom_site_fract_z
O1 O 0.3488(2) 0.57925(6) 0.2902(2)
H1 H 0.3763 0.5557 0.2389
N1 N 0.6245(2) 0.51917(6) 0.2570(2)
C1 C 0.4772(3) 0.63984(7) 0.5577(3)
C2 C 0.2868(3) 0.65041(7) 0.5080(3)
H2 H 0.1851 0.6348 0.3955
C3 C 0.2410(3) 0.68441(8) 0.6231(3)
H3 H 0.1099 0.6908 0.5859
C4 C 0.3859(3) 0.70794(8) 0.7876(3)
H4 H 0.3535 0.7305 0.8618
C5 C 0.5863(3) 0.69827(7) 0.8469(3)
C6 C 0.7398(3) 0.72202(7) 1.0188(3)
H5 H 0.7091 0.7449 1.0932
C7 C 0.9323(3) 0.71181(8) 1.0771(3)
H6 H 1.0317 0.7276 1.1909
C8 C 0.9808(3) 0.67742(8) 0.9655(3)
H7 H 1.1123 0.6706 1.0060
C9 C 0.8360(3) 0.65402(7) 0.7981(3)
H8 H 0.8705 0.6313 0.7261
C10 C 0.6335(3) 0.66366(7) 0.7317(3)
C11 C 0.5246(3) 0.60320(7) 0.4327(3)
H9 H 0.6135 0.5784 0.5278
C12 C 0.6261(3) 0.62667(7) 0.3212(3)
H10 H 0.6204 0.6607 0.3091
C13 C 0.7227(3) 0.60271(7) 0.2391(3)
H11 H 0.7783 0.6220 0.1757
C14 C 0.7523(3) 0.54954(8) 0.2362(3)
C15 C 0.9075(3) 0.53149(8) 0.2093(3)
H12 H 0.9937 0.5530 0.1944
C16 C 0.9326(3) 0.48134(9) 0.2048(3)
H13 H 1.0362 0.4688 0.1877
C17 C 0.8023(3) 0.45020(8) 0.2260(3)
H14 H 0.8151 0.4163 0.2227
C18 C 0.6515(3) 0.47095(8) 0.2525(3)
H15 H 0.5641 0.4500 0.2681
loop_
_geom_bond_atom_site_label_1
_geom_bond_atom_site_label_2
_geom_bond_site_symmetry_1
_geom_bond_site_symmetry_2
O1 H1 1_555 1_555
N1 C14 1_555 1_555
C1 C2 1_555 1_555
C2 H2 1_555 1_555
C3 C2 1_555 1_555
H3 C3 1_555 1_555
C4 C3 1_555 1_555
H4 C4 1_555 1_555
C5 C4 1_555 1_555
C6 C5 1_555 1_555
H5 C6 1_555 1_555
C7 C6 1_555 1_555
H6 C7 1_555 1_555
C8 C7 1_555 1_555
H7 C8 1_555 1_555
C9 C8 1_555 1_555
H8 C9 1_555 1_555
C10 C1 1_555 1_555
C11 O1 1_555 1_555
H9 C11 1_555 1_555
C12 C11 1_555 1_555
H10 C12 1_555 1_555
C13 C12 1_555 1_555
H11 C13 1_555 1_555
C14 C13 1_555 1_555
C15 C14 1_555 1_555
H12 C15 1_555 1_555
C16 C15 1_555 1_555
H13 C16 1_555 1_555
C17 C16 1_555 1_555
H14 C17 1_555 1_555
C18 N1 1_555 1_555
H15 C18 1_555 1_555
C1 C11 1_555 1_555
C5 C10 1_555 1_555
C9 C10 1_555 1_555
C17 C18 1_555 1_555

#END
