
#######################################################################
#
#                 Cambridge Crystallographic Data Centre
#                                CCDC 
#
#######################################################################
#
# If this CIF has been generated from an entry in the Cambridge 
# Structural Database, then it will include bibliographic, chemical, 
# crystal, experimental, refinement or atomic coordinate data resulting 
# from the CCDC's data processing and validation procedures.
#
#######################################################################

data_BAFSUX
_chemical_formula_moiety         'C22 H28 N2 O13'
_chemical_name_systematic        
(3R,5R,1'R,2'S)-3-(1',2'-Diacetoxypropyl)-2,3-dihydro-5,6,7-trimethoxycarbonyl-5-methoxycarbonylmethyl-1H,5H-pyrazolo(1,2-a)pyrazol-1-one
_chemical_properties_biological  
'no detectable inhibition of DD-carboxypeptidase 64-575 activity'
_symmetry_cell_setting           orthorhombic
_symmetry_space_group_name_H-M   'P 21 21 21'
_symmetry_Int_Tables_number      19
_space_group_name_Hall           'P 2ac 2ab'
loop_
_symmetry_equiv_pos_site_id
_symmetry_equiv_pos_as_xyz
1 x,y,z
2 1/2-x,-y,1/2+z
3 1/2+x,1/2-y,-z
4 -x,1/2+y,1/2-z
_cell_length_a                   10.9900(5)
_cell_length_b                   12.6390(5)
_cell_length_c                   18.149(1)
_cell_angle_alpha                90
_cell_angle_beta                 90
_cell_angle_gamma                90
_cell_volume                     2520.94
_exptl_crystal_colour            'pale yellow'
_exptl_crystal_description       block
_chemical_melting_point          140-142deg.C
_cell_formula_units_Z            4
loop_
_atom_site_label
_atom_site_type_symbol
_atom_site_fract_x
_atom_site_fract_y
_atom_site_fract_z
N1 N 0.6160(2) 0.6581(2) 0.38315(16)
C1 C 0.7376(3) 0.6500(2) 0.40182(18)
C2 C 0.7844(3) 0.5599(3) 0.37563(19)
C3 C 0.6914(3) 0.5031(2) 0.3274(2)
N2 N 0.5760(2) 0.5606(2) 0.34817(16)
C4 C 0.4899(3) 0.5996(3) 0.29055(19)
H1 H 0.5375 0.6274 0.2492
C5 C 0.4314(3) 0.6938(2) 0.33160(19)
H2 H 0.3978 0.7448 0.2972
H3 H 0.3674 0.6701 0.3645
C6 C 0.5354(3) 0.7402(3) 0.37380(18)
C7 C 0.7944(3) 0.7356(3) 0.4476(2)
O1 O 0.7763(2) 0.74525(19) 0.51208(14)
O2 O 0.8655(2) 0.79578(18) 0.40616(14)
C8 C 0.9346(4) 0.8758(3) 0.4457(3)
H4 H 0.8807 0.9163 0.4763
H5 H 0.9740 0.9218 0.4110
H6 H 0.9949 0.8420 0.4759
C9 C 0.9089(3) 0.5227(3) 0.3833(2)
O3 O 0.9513(2) 0.4491(2) 0.34945(16)
O4 O 0.9714(2) 0.58049(19) 0.43157(15)
C10 C 1.0970(3) 0.5511(3) 0.4425(2)
H7 H 1.1010 0.4806 0.4620
H8 H 1.1343 0.5994 0.4765
H9 H 1.1392 0.5538 0.3962
C11 C 0.7279(3) 0.5219(3) 0.2464(2)
O5 O 0.7801(2) 0.5999(2) 0.22655(14)
O6 O 0.6888(2) 0.4470(2) 0.20112(14)
C12 C 0.7154(5) 0.4656(4) 0.1233(2)
H10 H 0.6802 0.5317 0.1084
H11 H 0.6815 0.4093 0.0943
H12 H 0.8019 0.4679 0.1162
C13 C 0.6733(3) 0.3852(3) 0.3448(2)
H13 H 0.6051 0.3584 0.3165
H14 H 0.7454 0.3462 0.3302
C14 C 0.6496(4) 0.3674(3) 0.4256(2)
O7 O 0.7229(3) 0.3795(3) 0.47352(18)
O8 O 0.5368(2) 0.3322(2) 0.43781(14)
C15 C 0.5065(4) 0.3086(4) 0.5139(2)
H15 H 0.5613 0.2559 0.5326
H16 H 0.4245 0.2826 0.5166
H17 H 0.5136 0.3718 0.5430
C16 C 0.4085(3) 0.5124(2) 0.2619(2)
H18 H 0.4607 0.4577 0.2403
O9 O 0.34212(19) 0.46496(16) 0.32228(13)
C17 C 0.3375(3) 0.3577(3) 0.3227(2)
O10 O 0.3934(2) 0.30345(18) 0.27992(15)
C18 C 0.2535(4) 0.3181(3) 0.3804(2)
H19 H 0.1710 0.3319 0.3659
H20 H 0.2703 0.3535 0.4261
H21 H 0.2649 0.2433 0.3865
C19 C 0.3175(3) 0.5465(3) 0.2036(2)
H22 H 0.2676 0.4851 0.1902
C20 C 0.3751(4) 0.5898(3) 0.1347(2)
H23 H 0.3126 0.6097 0.1004
H24 H 0.4261 0.5367 0.1129
H25 H 0.4232 0.6508 0.1468
O11 O 0.2390(2) 0.62547(17) 0.23782(14)
C21 C 0.1229(3) 0.6326(3) 0.2143(2)
O12 O 0.0839(3) 0.5785(3) 0.16551(19)
C22 C 0.0542(3) 0.7149(3) 0.2546(3)
H26 H 0.0629 0.7815 0.2298
H27 H 0.0853 0.7208 0.3039
H28 H -0.0303 0.6957 0.2564
O13 O 0.5526(2) 0.82841(17) 0.39851(14)
loop_
_geom_bond_atom_site_label_1
_geom_bond_atom_site_label_2
_geom_bond_site_symmetry_1
_geom_bond_site_symmetry_2
N1 C1 1_555 1_555
C1 C2 1_555 1_555
C2 C3 1_555 1_555
C3 N2 1_555 1_555
N2 N1 1_555 1_555
C4 N2 1_555 1_555
H1 C4 1_555 1_555
C5 C4 1_555 1_555
H2 C5 1_555 1_555
H3 C5 1_555 1_555
C6 N1 1_555 1_555
C7 C1 1_555 1_555
O1 C7 1_555 1_555
O2 C7 1_555 1_555
C8 O2 1_555 1_555
H4 C8 1_555 1_555
H5 C8 1_555 1_555
H6 C8 1_555 1_555
C9 C2 1_555 1_555
O3 C9 1_555 1_555
O4 C9 1_555 1_555
C10 O4 1_555 1_555
H7 C10 1_555 1_555
H8 C10 1_555 1_555
H9 C10 1_555 1_555
C11 C3 1_555 1_555
O5 C11 1_555 1_555
O6 C11 1_555 1_555
C12 O6 1_555 1_555
H10 C12 1_555 1_555
H11 C12 1_555 1_555
H12 C12 1_555 1_555
C13 C3 1_555 1_555
H13 C13 1_555 1_555
H14 C13 1_555 1_555
C14 C13 1_555 1_555
O7 C14 1_555 1_555
O8 C14 1_555 1_555
C15 O8 1_555 1_555
H15 C15 1_555 1_555
H16 C15 1_555 1_555
H17 C15 1_555 1_555
C16 C4 1_555 1_555
H18 C16 1_555 1_555
O9 C16 1_555 1_555
C17 O9 1_555 1_555
O10 C17 1_555 1_555
C18 C17 1_555 1_555
H19 C18 1_555 1_555
H20 C18 1_555 1_555
H21 C18 1_555 1_555
C19 C16 1_555 1_555
H22 C19 1_555 1_555
C20 C19 1_555 1_555
H23 C20 1_555 1_555
H24 C20 1_555 1_555
H25 C20 1_555 1_555
O11 C19 1_555 1_555
C21 O11 1_555 1_555
O12 C21 1_555 1_555
C22 C21 1_555 1_555
H26 C22 1_555 1_555
H27 C22 1_555 1_555
H28 C22 1_555 1_555
O13 C6 1_555 1_555
C5 C6 1_555 1_555

#END
