
#######################################################################
#
#                 Cambridge Crystallographic Data Centre
#                                CCDC 
#
#######################################################################
#
# If this CIF has been generated from an entry in the Cambridge 
# Structural Database, then it will include bibliographic, chemical, 
# crystal, experimental, refinement or atomic coordinate data resulting 
# from the CCDC's data processing and validation procedures.
#
#######################################################################

data_BAFXOY
_chemical_formula_moiety         'C22 H22 F1 N1 O2 S1'
_chemical_name_systematic        
(3aR*,10bS*,10cS*)-9-fluoro-5-((4-methylphenyl)sulfonyl)-1,2,3,3a,4,5,10b,10c-octahydrodibenzo[cd,f]indole
_symmetry_cell_setting           monoclinic
_symmetry_space_group_name_H-M   'P 21/c'
_symmetry_Int_Tables_number      14
_space_group_name_Hall           '-P 2ybc'
loop_
_symmetry_equiv_pos_site_id
_symmetry_equiv_pos_as_xyz
1 x,y,z
2 -x,1/2+y,1/2-z
3 -x,-y,-z
4 x,1/2-y,1/2+z
_cell_length_a                   20.988(2)
_cell_length_b                   10.9938(12)
_cell_length_c                   17.5014(19)
_cell_angle_alpha                90
_cell_angle_beta                 111.6630(10)
_cell_angle_gamma                90
_cell_volume                     3753.02
_exptl_crystal_colour            colorless
_exptl_crystal_description       prism
_cell_formula_units_Z            8
loop_
_atom_site_label
_atom_site_type_symbol
_atom_site_fract_x
_atom_site_fract_y
_atom_site_fract_z
C1 C 0.06502(10) 0.8836(2) 0.26386(13)
C2 C 0.04054(12) 0.7698(2) 0.27282(15)
H1 H 0.0433 0.7041 0.2390
C3 C 0.01205(12) 0.7530(2) 0.33164(16)
H2 H -0.0051 0.6751 0.3376
C4 C 0.00798(11) 0.8473(3) 0.38209(14)
C5 C -0.02159(15) 0.8251(3) 0.44750(17)
H3 H -0.0206 0.9010 0.4774
H4 H 0.0057 0.7631 0.4859
H5 H -0.0691 0.7970 0.4216
C6 C 0.03216(13) 0.9606(3) 0.37125(16)
H6 H 0.0289 1.0266 0.4046
C7 C 0.06098(13) 0.9795(2) 0.31282(15)
H7 H 0.0778 1.0576 0.3064
C8 C 0.22987(11) 0.9499(2) 0.30327(14)
H8 H 0.2111 0.9660 0.3466
H9 H 0.2362 1.0280 0.2788
C9 C 0.29672(11) 0.8781(2) 0.33700(13)
H10 H 0.3246 0.9052 0.3942
C10 C 0.33793(11) 0.8903(2) 0.28175(15)
H11 H 0.3599 0.9714 0.2901
H12 H 0.3065 0.8845 0.2236
C11 C 0.39294(11) 0.7926(2) 0.29911(15)
H13 H 0.4260 0.8008 0.3564
H14 H 0.4182 0.8035 0.2618
C12 C 0.36072(11) 0.6665(2) 0.28676(14)
H15 H 0.3973 0.6044 0.2987
H16 H 0.3299 0.6571 0.2286
C13 C 0.31976(10) 0.64429(19) 0.34243(12)
H17 H 0.3529 0.6376 0.4005
C14 C 0.27024(10) 0.74818(18) 0.33786(12)
H18 H 0.2553 0.7407 0.3857
C15 C 0.20710(10) 0.74350(19) 0.25999(12)
C16 C 0.18168(11) 0.63969(19) 0.22167(13)
H19 H 0.1425 0.6400 0.1721
C17 C 0.21495(11) 0.52529(19) 0.25705(13)
C18 C 0.28106(11) 0.52541(19) 0.31917(12)
C19 C 0.31048(12) 0.4163(2) 0.35463(14)
H20 H 0.3545 0.4155 0.3973
C20 C 0.27546(13) 0.3093(2) 0.32767(15)
C21 C 0.21147(14) 0.3055(2) 0.26661(15)
H21 H 0.1883 0.2305 0.2488
C22 C 0.18188(12) 0.4147(2) 0.23189(14)
H22 H 0.1376 0.4139 0.1896
N1 N 0.18488(9) 0.86546(16) 0.23934(11)
O1 O 0.10550(8) 1.03215(14) 0.17594(10)
O2 O 0.07490(8) 0.82122(15) 0.12564(9)
F1 F 0.30523(9) 0.20353(13) 0.36397(10)
S1 S 0.10462(3) 0.90469(5) 0.19188(3)
C23 C 0.43482(11) 0.2153(2) 0.19940(14)
C24 C 0.43243(12) 0.3089(2) 0.25147(15)
H23 H 0.4125 0.3849 0.2296
C25 C 0.45938(13) 0.2903(3) 0.33528(16)
H24 H 0.4586 0.3549 0.3709
C26 C 0.48769(11) 0.1792(2) 0.36879(15)
C27 C 0.51369(15) 0.1586(3) 0.45999(17)
H25 H 0.5075 0.2329 0.4874
H26 H 0.5625 0.1376 0.4798
H27 H 0.4880 0.0919 0.4723
C28 C 0.49050(12) 0.0871(2) 0.31553(16)
H28 H 0.5107 0.0112 0.3374
C29 C 0.46428(11) 0.1042(2) 0.23120(15)
H29 H 0.4664 0.0406 0.1955
C30 C 0.26872(12) 0.2766(2) 0.08394(17)
H30 H 0.2654 0.3561 0.0562
H31 H 0.2821 0.2899 0.1438
C31 C 0.20153(11) 0.2057(2) 0.04846(15)
H32 H 0.1701 0.2295 0.0772
C32 C 0.16652(12) 0.2269(2) -0.04399(16)
H33 H 0.1428 0.3065 -0.0534
H34 H 0.2019 0.2303 -0.0689
C33 C 0.11497(12) 0.1283(2) -0.08657(15)
H35 H 0.0776 0.1279 -0.0648
H36 H 0.0945 0.1453 -0.1463
C34 C 0.14993(11) 0.0050(2) -0.07236(14)
H37 H 0.1874 0.0058 -0.0939
H38 H 0.1165 -0.0581 -0.1027
C35 C 0.17934(10) -0.02686(19) 0.01957(13)
H39 H 0.1402 -0.0363 0.0387
C36 C 0.22600(10) 0.07399(19) 0.07020(13)
H40 H 0.2328 0.0602 0.1292
C37 C 0.29549(10) 0.07119(19) 0.06331(12)
C38 C 0.32574(11) -0.03209(19) 0.05556(13)
H41 H 0.3703 -0.0313 0.0535
C39 C 0.28900(11) -0.14691(19) 0.05024(12)
C40 C 0.21819(11) -0.14625(19) 0.03414(12)
C41 C 0.18393(12) -0.2563(2) 0.02796(14)
H42 H 0.1362 -0.2574 0.0174
C42 C 0.21960(13) -0.3633(2) 0.03719(15)
C43 C 0.28869(13) -0.3679(2) 0.05304(14)
H43 H 0.3121 -0.4434 0.0592
C44 C 0.32306(12) -0.2579(2) 0.05969(13)
H44 H 0.3709 -0.2584 0.0710
N2 N 0.31762(9) 0.19396(16) 0.06604(12)
O3 O 0.39593(9) 0.36310(15) 0.07586(10)
O4 O 0.42978(8) 0.15373(15) 0.05441(10)
F2 F 0.18450(8) -0.46948(13) 0.03187(11)
S2 S 0.39778(3) 0.23567(5) 0.09241(4)
loop_
_geom_bond_atom_site_label_1
_geom_bond_atom_site_label_2
_geom_bond_site_symmetry_1
_geom_bond_site_symmetry_2
C1 C2 1_555 1_555
C2 H1 1_555 1_555
C3 C2 1_555 1_555
H2 C3 1_555 1_555
C4 C3 1_555 1_555
C5 C4 1_555 1_555
H3 C5 1_555 1_555
H4 C5 1_555 1_555
H5 C5 1_555 1_555
C6 C4 1_555 1_555
H6 C6 1_555 1_555
C7 C1 1_555 1_555
H7 C7 1_555 1_555
C8 H8 1_555 1_555
H9 C8 1_555 1_555
C9 C8 1_555 1_555
H10 C9 1_555 1_555
C10 C9 1_555 1_555
H11 C10 1_555 1_555
H12 C10 1_555 1_555
C11 C10 1_555 1_555
H13 C11 1_555 1_555
H14 C11 1_555 1_555
C12 C11 1_555 1_555
H15 C12 1_555 1_555
H16 C12 1_555 1_555
C13 C12 1_555 1_555
H17 C13 1_555 1_555
C14 C9 1_555 1_555
H18 C14 1_555 1_555
C15 C14 1_555 1_555
C16 C15 1_555 1_555
H19 C16 1_555 1_555
C17 C16 1_555 1_555
C18 C13 1_555 1_555
C19 C18 1_555 1_555
H20 C19 1_555 1_555
C20 C19 1_555 1_555
C21 C20 1_555 1_555
H21 C21 1_555 1_555
C22 C17 1_555 1_555
H22 C22 1_555 1_555
N1 C8 1_555 1_555
O1 S1 1_555 1_555
O2 S1 1_555 1_555
F1 C20 1_555 1_555
S1 C1 1_555 1_555
C23 C24 1_555 1_555
C24 H23 1_555 1_555
C25 C24 1_555 1_555
H24 C25 1_555 1_555
C26 C25 1_555 1_555
C27 C26 1_555 1_555
H25 C27 1_555 1_555
H26 C27 1_555 1_555
H27 C27 1_555 1_555
C28 C26 1_555 1_555
H28 C28 1_555 1_555
C29 C23 1_555 1_555
H29 C29 1_555 1_555
C30 H30 1_555 1_555
H31 C30 1_555 1_555
C31 C30 1_555 1_555
H32 C31 1_555 1_555
C32 C31 1_555 1_555
H33 C32 1_555 1_555
H34 C32 1_555 1_555
C33 C32 1_555 1_555
H35 C33 1_555 1_555
H36 C33 1_555 1_555
C34 C33 1_555 1_555
H37 C34 1_555 1_555
H38 C34 1_555 1_555
C35 C34 1_555 1_555
H39 C35 1_555 1_555
C36 C31 1_555 1_555
H40 C36 1_555 1_555
C37 C36 1_555 1_555
C38 C37 1_555 1_555
H41 C38 1_555 1_555
C39 C38 1_555 1_555
C40 C35 1_555 1_555
C41 C40 1_555 1_555
H42 C41 1_555 1_555
C42 C41 1_555 1_555
C43 C42 1_555 1_555
H43 C43 1_555 1_555
C44 C39 1_555 1_555
H44 C44 1_555 1_555
N2 C30 1_555 1_555
O3 S2 1_555 1_555
O4 S2 1_555 1_555
F2 C42 1_555 1_555
S2 C23 1_555 1_555
C6 C7 1_555 1_555
C13 C14 1_555 1_555
C15 N1 1_555 1_555
C17 C18 1_555 1_555
C21 C22 1_555 1_555
N1 S1 1_555 1_555
C28 C29 1_555 1_555
C35 C36 1_555 1_555
C37 N2 1_555 1_555
C39 C40 1_555 1_555
C43 C44 1_555 1_555
N2 S2 1_555 1_555

#END
