
#######################################################################
#
#                 Cambridge Crystallographic Data Centre
#                                CCDC 
#
#######################################################################
#
# If this CIF has been generated from an entry in the Cambridge 
# Structural Database, then it will include bibliographic, chemical, 
# crystal, experimental, refinement or atomic coordinate data resulting 
# from the CCDC's data processing and validation procedures.
#
#######################################################################

data_BAFXEO
_chemical_formula_moiety         'C22 H23 N1 O2 S1'
_chemical_name_systematic        
(3aR*,10bS*,10cS*)-5-((4-methylphenyl)sulfonyl)-1,2,3,3a,4,5,10b,10c-octahydrodibenzo[cd,f]indole
_symmetry_cell_setting           monoclinic
_symmetry_space_group_name_H-M   'P 21/c'
_symmetry_Int_Tables_number      14
_space_group_name_Hall           '-P 2ybc'
loop_
_symmetry_equiv_pos_site_id
_symmetry_equiv_pos_as_xyz
1 x,y,z
2 -x,1/2+y,1/2-z
3 -x,-y,-z
4 x,1/2-y,1/2+z
_cell_length_a                   10.034(3)
_cell_length_b                   9.082(3)
_cell_length_c                   20.170(7)
_cell_angle_alpha                90
_cell_angle_beta                 96.018(7)
_cell_angle_gamma                90
_cell_volume                     1827.94
_exptl_crystal_colour            colorless
_exptl_crystal_description       prism
_cell_formula_units_Z            4
loop_
_atom_site_label
_atom_site_type_symbol
_atom_site_fract_x
_atom_site_fract_y
_atom_site_fract_z
C1 C 0.8840(2) 0.4921(3) 0.11423(12)
C2 C 0.8876(2) 0.5597(3) 0.05312(13)
H1 H 0.8568 0.5087 0.0133
C3 C 0.9359(2) 0.7016(3) 0.05007(14)
H2 H 0.9399 0.7471 0.0079
C4 C 0.9787(2) 0.7784(3) 0.10770(15)
C5 C 1.0256(3) 0.9351(3) 0.10403(18)
H3 H 1.0671 0.9658 0.1489
H4 H 1.0860 0.9389 0.0674
H5 H 0.9620 1.0026 0.0926
C6 C 0.9752(3) 0.7088(3) 0.16845(15)
H6 H 1.0053 0.7602 0.2082
C7 C 0.9288(2) 0.5661(3) 0.17255(14)
H7 H 0.9276 0.5194 0.2146
C8 C 0.6009(2) 0.3703(3) 0.19053(12)
C9 C 0.6450(2) 0.3257(3) 0.25182(12)
H8 H 0.7273 0.2736 0.2597
C10 C 0.5657(2) 0.3577(3) 0.30696(12)
C11 C 0.6186(3) 0.3360(3) 0.37332(13)
H9 H 0.7076 0.3005 0.3828
C12 C 0.5423(3) 0.3659(3) 0.42538(14)
H10 H 0.5794 0.3513 0.4702
C13 C 0.4129(3) 0.4167(3) 0.41208(15)
H11 H 0.3606 0.4378 0.4475
C14 C 0.3599(3) 0.4366(3) 0.34667(14)
H12 H 0.2703 0.4707 0.3378
C15 C 0.4333(2) 0.4086(3) 0.29392(13)
C16 C 0.3693(2) 0.4180(3) 0.22275(12)
H13 H 0.3017 0.4992 0.2204
C17 C 0.2955(3) 0.2754(3) 0.20212(13)
H14 H 0.3571 0.1910 0.2112
H15 H 0.2195 0.2625 0.2292
C18 C 0.2428(3) 0.2760(3) 0.12853(13)
H16 H 0.1931 0.1836 0.1172
H17 H 0.1804 0.3596 0.1191
C19 C 0.3586(2) 0.2896(3) 0.08644(13)
H18 H 0.3241 0.2861 0.0387
H19 H 0.4204 0.2053 0.0958
C20 C 0.4350(2) 0.4330(3) 0.10096(12)
H20 H 0.3814 0.5182 0.0814
C21 C 0.4743(2) 0.4578(3) 0.17576(12)
H21 H 0.4972 0.5643 0.1825
C22 C 0.5717(2) 0.4293(3) 0.07478(13)
H22 H 0.5681 0.3757 0.0319
H23 H 0.6064 0.5299 0.0688
N1 N 0.65476(18) 0.3490(2) 0.12875(10)
O1 O 0.87122(16) 0.2417(2) 0.17596(9)
O2 O 0.81062(17) 0.2516(2) 0.05355(9)
S1 S 0.81153(6) 0.31726(8) 0.11800(3)
loop_
_geom_bond_atom_site_label_1
_geom_bond_atom_site_label_2
_geom_bond_site_symmetry_1
_geom_bond_site_symmetry_2
C1 C2 1_555 1_555
C2 H1 1_555 1_555
C3 C2 1_555 1_555
H2 C3 1_555 1_555
C4 C3 1_555 1_555
C5 C4 1_555 1_555
H3 C5 1_555 1_555
H4 C5 1_555 1_555
H5 C5 1_555 1_555
C6 C4 1_555 1_555
H6 C6 1_555 1_555
C7 C1 1_555 1_555
H7 C7 1_555 1_555
C8 C9 1_555 1_555
C9 H8 1_555 1_555
C10 C9 1_555 1_555
C11 C10 1_555 1_555
H9 C11 1_555 1_555
C12 C11 1_555 1_555
H10 C12 1_555 1_555
C13 C12 1_555 1_555
H11 C13 1_555 1_555
C14 C13 1_555 1_555
H12 C14 1_555 1_555
C15 C10 1_555 1_555
C16 C15 1_555 1_555
H13 C16 1_555 1_555
C17 C16 1_555 1_555
H14 C17 1_555 1_555
H15 C17 1_555 1_555
C18 C17 1_555 1_555
H16 C18 1_555 1_555
H17 C18 1_555 1_555
C19 C18 1_555 1_555
H18 C19 1_555 1_555
H19 C19 1_555 1_555
C20 C19 1_555 1_555
H20 C20 1_555 1_555
C21 C8 1_555 1_555
H21 C21 1_555 1_555
C22 C20 1_555 1_555
H22 C22 1_555 1_555
H23 C22 1_555 1_555
N1 C8 1_555 1_555
O1 S1 1_555 1_555
O2 S1 1_555 1_555
S1 C1 1_555 1_555
C6 C7 1_555 1_555
C14 C15 1_555 1_555
C16 C21 1_555 1_555
C20 C21 1_555 1_555
C22 N1 1_555 1_555
N1 S1 1_555 1_555

#END
