
#######################################################################
#
#                 Cambridge Crystallographic Data Centre
#                                CCDC 
#
#######################################################################
#
# If this CIF has been generated from an entry in the Cambridge 
# Structural Database, then it will include bibliographic, chemical, 
# crystal, experimental, refinement or atomic coordinate data resulting 
# from the CCDC's data processing and validation procedures.
#
#######################################################################

data_BAFXUE
_chemical_formula_moiety         'C28 H27 N1 O4 S1'
_chemical_name_systematic        
(3aR*,7S*,7aR*)-7-(biphenyl-4-ylcarbonyl)-2-((4-methylphenyl)sulfonyl)octahydro-1H-isoindol-1-one
_symmetry_cell_setting           triclinic
_symmetry_space_group_name_H-M   'P -1'
_symmetry_Int_Tables_number      2
_space_group_name_Hall           '-P 1'
loop_
_symmetry_equiv_pos_site_id
_symmetry_equiv_pos_as_xyz
1 x,y,z
2 -x,-y,-z
_cell_length_a                   10.7590(12)
_cell_length_b                   14.4390(15)
_cell_length_c                   15.4335(15)
_cell_angle_alpha                86.843(3)
_cell_angle_beta                 89.521(3)
_cell_angle_gamma                80.881(3)
_cell_volume                     2363.69
_exptl_crystal_colour            colorless
_exptl_crystal_description       prism
_cell_formula_units_Z            4
loop_
_atom_site_label
_atom_site_type_symbol
_atom_site_fract_x
_atom_site_fract_y
_atom_site_fract_z
C1 C -0.2208(3) 0.9291(2) 0.1009(2)
C2 C -0.2102(3) 0.9265(2) 0.0111(2)
H1 H -0.1360 0.9396 -0.0176
C3 C -0.3099(4) 0.9044(3) -0.0356(3)
H2 H -0.3039 0.9040 -0.0970
C4 C -0.4187(4) 0.8828(3) 0.0049(3)
C5 C -0.5253(4) 0.8596(3) -0.0479(3)
H3 H -0.5934 0.8459 -0.0091
H4 H -0.4954 0.8046 -0.0812
H5 H -0.5567 0.9132 -0.0878
C6 C -0.4267(3) 0.8855(3) 0.0941(3)
H6 H -0.5005 0.8715 0.1229
C7 C -0.3288(3) 0.9085(3) 0.1424(2)
H7 H -0.3356 0.9100 0.2037
C8 C 0.1355(3) 0.8659(2) 0.1175(2)
H8 H 0.1941 0.9004 0.1469
H9 H 0.1223 0.8917 0.0569
C9 C 0.1838(3) 0.7601(2) 0.1211(2)
H10 H 0.2779 0.7482 0.1204
C10 C 0.1344(3) 0.7265(2) 0.2093(2)
H11 H 0.1886 0.7456 0.2553
C11 C 0.0059(3) 0.7880(2) 0.2144(2)
C12 C 0.1320(3) 0.7136(3) 0.0460(2)
H12 H 0.0415 0.7391 0.0384
H13 H 0.1762 0.7294 -0.0080
C13 C 0.1472(3) 0.6075(3) 0.0602(2)
H14 H 0.2379 0.5811 0.0624
H15 H 0.1094 0.5810 0.0108
C14 C 0.0845(3) 0.5792(3) 0.1442(2)
H16 H 0.0982 0.5099 0.1522
H17 H -0.0073 0.6011 0.1398
C15 C 0.1359(3) 0.6203(2) 0.2229(2)
H18 H 0.2259 0.5904 0.2300
C16 C 0.0667(3) 0.5946(2) 0.3053(2)
C17 C 0.1121(3) 0.6158(2) 0.3921(2)
C18 C 0.0365(3) 0.6057(2) 0.4640(2)
H19 H -0.0440 0.5882 0.4561
C19 C 0.0743(3) 0.6203(2) 0.5468(2)
H20 H 0.0198 0.6128 0.5946
C20 C 0.1925(3) 0.6461(2) 0.5609(2)
C21 C 0.2677(3) 0.6562(2) 0.4886(2)
H21 H 0.3476 0.6748 0.4963
C22 C 0.2310(3) 0.6403(2) 0.4057(2)
H22 H 0.2863 0.6460 0.3581
C23 C 0.2345(3) 0.6623(2) 0.6501(2)
C24 C 0.1831(4) 0.6239(3) 0.7231(2)
H23 H 0.1212 0.5846 0.7165
C25 C 0.2195(4) 0.6411(3) 0.8064(3)
H24 H 0.1834 0.6134 0.8558
C26 C 0.3085(4) 0.6989(3) 0.8163(3)
H25 H 0.3325 0.7123 0.8728
C27 C 0.3622(4) 0.7367(3) 0.7448(3)
H26 H 0.4242 0.7758 0.7519
C28 C 0.3268(3) 0.7184(3) 0.6625(2)
H27 H 0.3658 0.7444 0.6134
N1 N 0.0141(2) 0.8700(2) 0.16515(18)
O1 O -0.1417(2) 0.98063(17) 0.24679(16)
O2 O -0.0450(2) 1.03319(16) 0.10983(17)
O3 O -0.0866(2) 0.77174(16) 0.25492(15)
O4 O -0.0261(2) 0.55551(18) 0.30080(16)
S1 S -0.09924(8) 0.96361(7) 0.16040(6)
C29 C 0.2806(3) 0.9280(2) 0.4073(2)
C30 C 0.2879(3) 0.9279(2) 0.4972(2)
H28 H 0.3614 0.9415 0.5243
C31 C 0.1866(4) 0.9076(3) 0.5466(3)
H29 H 0.1906 0.9087 0.6080
C32 C 0.0790(3) 0.8857(2) 0.5084(3)
C33 C -0.0295(4) 0.8633(3) 0.5645(3)
H30 H -0.0970 0.8493 0.5276
H31 H -0.0613 0.9175 0.5985
H32 H -0.0004 0.8088 0.6039
C34 C 0.0741(4) 0.8867(3) 0.4186(3)
H33 H 0.0011 0.8727 0.3912
C35 C 0.1736(3) 0.9076(2) 0.3685(3)
H34 H 0.1686 0.9079 0.3070
C36 C 0.6394(3) 0.8606(2) 0.3962(2)
H35 H 0.6270 0.8879 0.4537
H36 H 0.6981 0.8940 0.3615
C37 C 0.6872(3) 0.7548(2) 0.4050(2)
H37 H 0.7813 0.7426 0.4050
C38 C 0.6361(3) 0.7194(2) 0.3225(2)
H38 H 0.6907 0.7359 0.2731
C39 C 0.5084(3) 0.7809(2) 0.3104(2)
C40 C 0.6367(3) 0.7111(3) 0.4876(2)
H39 H 0.5464 0.7366 0.4939
H40 H 0.6818 0.7287 0.5384
C41 C 0.6524(3) 0.6042(3) 0.4872(2)
H41 H 0.7431 0.5779 0.4857
H42 H 0.6161 0.5791 0.5410
C42 C 0.5870(3) 0.5744(2) 0.4089(2)
H43 H 0.4955 0.5970 0.4129
H44 H 0.5997 0.5049 0.4094
C43 C 0.6364(3) 0.6126(2) 0.3237(2)
H45 H 0.7262 0.5824 0.3186
C44 C 0.5662(3) 0.5838(2) 0.2460(2)
C45 C 0.6099(3) 0.6038(2) 0.1561(2)
C46 C 0.7300(3) 0.6241(3) 0.1369(2)
H46 H 0.7874 0.6276 0.1825
C47 C 0.7658(3) 0.6390(3) 0.0517(2)
H47 H 0.8482 0.6524 0.0402
C48 C 0.6856(3) 0.6352(2) -0.0179(2)
C49 C 0.5656(3) 0.6137(2) 0.0030(2)
H48 H 0.5081 0.6097 -0.0424
C50 C 0.5294(3) 0.5984(2) 0.0874(2)
H49 H 0.4477 0.5838 0.0989
C51 C 0.7246(3) 0.6525(2) -0.1090(2)
C52 C 0.8218(4) 0.7049(3) -0.1281(2)
H50 H 0.8629 0.7290 -0.0821
C53 C 0.8585(4) 0.7217(3) -0.2121(3)
H51 H 0.9240 0.7576 -0.2239
C54 C 0.7998(4) 0.6862(3) -0.2795(3)
H52 H 0.8247 0.6979 -0.3378
C55 C 0.7052(4) 0.6340(3) -0.2618(3)
H53 H 0.6653 0.6093 -0.3080
C56 C 0.6680(3) 0.6174(3) -0.1771(2)
H54 H 0.6026 0.5812 -0.1657
N2 N 0.5172(2) 0.86417(19) 0.35022(18)
O5 O 0.3648(2) 0.97410(17) 0.25535(15)
O6 O 0.4597(2) 1.02858(16) 0.38598(17)
O7 O 0.4161(2) 0.76460(16) 0.27319(15)
O8 O 0.4746(2) 0.54441(18) 0.25797(16)
S2 S 0.40495(9) 0.95858(7) 0.34390(6)
loop_
_geom_bond_atom_site_label_1
_geom_bond_atom_site_label_2
_geom_bond_site_symmetry_1
_geom_bond_site_symmetry_2
C1 C2 1_555 1_555
C2 H1 1_555 1_555
C3 C2 1_555 1_555
H2 C3 1_555 1_555
C4 C3 1_555 1_555
C5 C4 1_555 1_555
H3 C5 1_555 1_555
H4 C5 1_555 1_555
H5 C5 1_555 1_555
C6 C4 1_555 1_555
H6 C6 1_555 1_555
C7 C1 1_555 1_555
H7 C7 1_555 1_555
C8 H8 1_555 1_555
H9 C8 1_555 1_555
C9 C8 1_555 1_555
H10 C9 1_555 1_555
C10 C9 1_555 1_555
H11 C10 1_555 1_555
C11 C10 1_555 1_555
C12 C9 1_555 1_555
H12 C12 1_555 1_555
H13 C12 1_555 1_555
C13 C12 1_555 1_555
H14 C13 1_555 1_555
H15 C13 1_555 1_555
C14 C13 1_555 1_555
H16 C14 1_555 1_555
H17 C14 1_555 1_555
C15 C10 1_555 1_555
H18 C15 1_555 1_555
C16 C15 1_555 1_555
C17 C16 1_555 1_555
C18 C17 1_555 1_555
H19 C18 1_555 1_555
C19 C18 1_555 1_555
H20 C19 1_555 1_555
C20 C19 1_555 1_555
C21 C20 1_555 1_555
H21 C21 1_555 1_555
C22 C17 1_555 1_555
H22 C22 1_555 1_555
C23 C20 1_555 1_555
C24 C23 1_555 1_555
H23 C24 1_555 1_555
C25 C24 1_555 1_555
H24 C25 1_555 1_555
C26 C25 1_555 1_555
H25 C26 1_555 1_555
C27 C26 1_555 1_555
H26 C27 1_555 1_555
C28 C23 1_555 1_555
H27 C28 1_555 1_555
N1 C8 1_555 1_555
O1 S1 1_555 1_555
O2 S1 1_555 1_555
O3 C11 1_555 1_555
O4 C16 1_555 1_555
S1 C1 1_555 1_555
C29 C30 1_555 1_555
C30 H28 1_555 1_555
C31 C30 1_555 1_555
H29 C31 1_555 1_555
C32 C31 1_555 1_555
C33 C32 1_555 1_555
H30 C33 1_555 1_555
H31 C33 1_555 1_555
H32 C33 1_555 1_555
C34 C32 1_555 1_555
H33 C34 1_555 1_555
C35 C29 1_555 1_555
H34 C35 1_555 1_555
C36 H35 1_555 1_555
H36 C36 1_555 1_555
C37 C36 1_555 1_555
H37 C37 1_555 1_555
C38 C37 1_555 1_555
H38 C38 1_555 1_555
C39 C38 1_555 1_555
C40 C37 1_555 1_555
H39 C40 1_555 1_555
H40 C40 1_555 1_555
C41 C40 1_555 1_555
H41 C41 1_555 1_555
H42 C41 1_555 1_555
C42 C41 1_555 1_555
H43 C42 1_555 1_555
H44 C42 1_555 1_555
C43 C38 1_555 1_555
H45 C43 1_555 1_555
C44 C43 1_555 1_555
C45 C44 1_555 1_555
C46 C45 1_555 1_555
H46 C46 1_555 1_555
C47 C46 1_555 1_555
H47 C47 1_555 1_555
C48 C47 1_555 1_555
C49 C48 1_555 1_555
H48 C49 1_555 1_555
C50 C45 1_555 1_555
H49 C50 1_555 1_555
C51 C48 1_555 1_555
C52 C51 1_555 1_555
H50 C52 1_555 1_555
C53 C52 1_555 1_555
H51 C53 1_555 1_555
C54 C53 1_555 1_555
H52 C54 1_555 1_555
C55 C54 1_555 1_555
H53 C55 1_555 1_555
C56 C51 1_555 1_555
H54 C56 1_555 1_555
N2 C36 1_555 1_555
O5 S2 1_555 1_555
O6 S2 1_555 1_555
O7 C39 1_555 1_555
O8 C44 1_555 1_555
S2 C29 1_555 1_555
C6 C7 1_555 1_555
C11 N1 1_555 1_555
C14 C15 1_555 1_555
C21 C22 1_555 1_555
C27 C28 1_555 1_555
N1 S1 1_555 1_555
C34 C35 1_555 1_555
C39 N2 1_555 1_555
C42 C43 1_555 1_555
C49 C50 1_555 1_555
C55 C56 1_555 1_555
N2 S2 1_555 1_555

#END
