
#######################################################################
#
#                 Cambridge Crystallographic Data Centre
#                                CCDC 
#
#######################################################################
#
# If this CIF has been generated from an entry in the Cambridge 
# Structural Database, then it will include bibliographic, chemical, 
# crystal, experimental, refinement or atomic coordinate data resulting 
# from the CCDC's data processing and validation procedures.
#
#######################################################################

data_BAFXIS
_chemical_formula_moiety         'C23 H25 N1 O3 S1'
_chemical_name_systematic        
(3aR*,10bS*,10cS*)-8-methoxy-5-((4-methylphenyl)sulfonyl)-1,2,3,3a,4,5,10b,10c-octahydrodibenzo[cd,f]indole
_symmetry_cell_setting           monoclinic
_symmetry_space_group_name_H-M   'P 21/n'
_symmetry_Int_Tables_number      14
_space_group_name_Hall           '-P 2yn'
loop_
_symmetry_equiv_pos_site_id
_symmetry_equiv_pos_as_xyz
1 x,y,z
2 1/2-x,1/2+y,1/2-z
3 -x,-y,-z
4 1/2+x,1/2-y,1/2+z
_cell_length_a                   18.318(6)
_cell_length_b                   5.547(2)
_cell_length_c                   20.496(7)
_cell_angle_alpha                90
_cell_angle_beta                 109.811(6)
_cell_angle_gamma                90
_cell_volume                     1959.34
_exptl_crystal_colour            colorless
_exptl_crystal_description       prism
_cell_formula_units_Z            4
loop_
_atom_site_label
_atom_site_type_symbol
_atom_site_fract_x
_atom_site_fract_y
_atom_site_fract_z
C1 C 0.15416(14) 0.4050(5) 1.10869(12)
C2 C 0.17401(16) 0.2790(6) 1.17102(13)
H1 H 0.2219 0.3095 1.2069
C3 C 0.12334(17) 0.1096(6) 1.18009(14)
H2 H 0.1375 0.0209 1.2222
C4 C 0.05257(17) 0.0651(6) 1.12965(15)
C5 C -0.00086(19) -0.1248(6) 1.14017(17)
H3 H -0.0480 -0.1317 1.0993
H4 H -0.0146 -0.0848 1.1811
H5 H 0.0252 -0.2817 1.1470
C6 C 0.03339(16) 0.1952(6) 1.06896(15)
H6 H -0.0156 0.1696 1.0341
C7 C 0.08365(15) 0.3622(5) 1.05747(14)
H7 H 0.0698 0.4468 1.0147
C8 C 0.23446(14) 0.4078(5) 0.97771(13)
C9 C 0.18526(15) 0.5318(5) 0.92592(13)
H8 H 0.1645 0.6806 0.9346
C10 C 0.16338(15) 0.4356(5) 0.85498(13)
C11 C 0.10040(15) 0.5359(5) 0.80235(13)
H9 H 0.0733 0.6695 0.8121
C12 C 0.07771(15) 0.4395(6) 0.73586(13)
C13 C -0.02991(18) 0.7094(6) 0.69424(16)
H10 H -0.0681 0.7400 0.6522
H11 H -0.0450 0.6455 0.7381
H12 H 0.0017 0.8762 0.7106
C14 C 0.11754(17) 0.2503(6) 0.72146(14)
H13 H 0.1018 0.1857 0.6759
C15 C 0.18068(17) 0.1519(6) 0.77289(14)
H14 H 0.2084 0.0221 0.7620
C16 C 0.20405(15) 0.2410(5) 0.84042(13)
C17 C 0.27631(15) 0.1484(6) 0.89571(13)
H15 H 0.2823 -0.0261 0.8864
C18 C 0.26808(15) 0.1699(5) 0.96769(13)
H16 H 0.2318 0.0405 0.9716
C19 C 0.34257(15) 0.1494(6) 1.03083(13)
H17 H 0.3559 -0.0241 1.0419
C20 C 0.41067(16) 0.2803(6) 1.02059(14)
H18 H 0.4587 0.2390 1.0592
H19 H 0.4025 0.4564 1.0220
C21 C 0.42093(17) 0.2153(7) 0.95225(15)
H20 H 0.4309 0.0402 0.9510
H21 H 0.4660 0.3030 0.9477
C22 C 0.34776(15) 0.2823(6) 0.89223(14)
H22 H 0.3554 0.2438 0.8478
H23 H 0.3389 0.4582 0.8932
C23 C 0.31778(15) 0.2645(5) 1.08776(13)
H24 H 0.2896 0.1478 1.1071
H25 H 0.3631 0.3276 1.1258
N1 N 0.26563(12) 0.4646(4) 1.05020(10)
O1 O 0.27543(11) 0.6760(4) 1.15795(9)
O2 O 0.17437(10) 0.7966(3) 1.04781(9)
O3 O 0.01559(11) 0.5203(4) 0.68135(9)
S1 S 0.21847(4) 0.61286(14) 1.09286(3)
loop_
_geom_bond_atom_site_label_1
_geom_bond_atom_site_label_2
_geom_bond_site_symmetry_1
_geom_bond_site_symmetry_2
C1 C2 1_555 1_555
C2 H1 1_555 1_555
C3 C2 1_555 1_555
H2 C3 1_555 1_555
C4 C3 1_555 1_555
C5 C4 1_555 1_555
H3 C5 1_555 1_555
H4 C5 1_555 1_555
H5 C5 1_555 1_555
C6 C4 1_555 1_555
H6 C6 1_555 1_555
C7 C1 1_555 1_555
H7 C7 1_555 1_555
C8 C9 1_555 1_555
C9 H8 1_555 1_555
C10 C9 1_555 1_555
C11 C10 1_555 1_555
H9 C11 1_555 1_555
C12 C11 1_555 1_555
C13 H10 1_555 1_555
H11 C13 1_555 1_555
H12 C13 1_555 1_555
C14 C12 1_555 1_555
H13 C14 1_555 1_555
C15 C14 1_555 1_555
H14 C15 1_555 1_555
C16 C10 1_555 1_555
C17 C16 1_555 1_555
H15 C17 1_555 1_555
C18 C8 1_555 1_555
H16 C18 1_555 1_555
C19 C18 1_555 1_555
H17 C19 1_555 1_555
C20 C19 1_555 1_555
H18 C20 1_555 1_555
H19 C20 1_555 1_555
C21 C20 1_555 1_555
H20 C21 1_555 1_555
H21 C21 1_555 1_555
C22 C17 1_555 1_555
H22 C22 1_555 1_555
H23 C22 1_555 1_555
C23 C19 1_555 1_555
H24 C23 1_555 1_555
H25 C23 1_555 1_555
N1 C8 1_555 1_555
O1 S1 1_555 1_555
O2 S1 1_555 1_555
O3 C12 1_555 1_555
S1 C1 1_555 1_555
C6 C7 1_555 1_555
C13 O3 1_555 1_555
C15 C16 1_555 1_555
C17 C18 1_555 1_555
C21 C22 1_555 1_555
C23 N1 1_555 1_555
N1 S1 1_555 1_555

#END
