
#######################################################################
#
#                 Cambridge Crystallographic Data Centre
#                                CCDC 
#
#######################################################################
#
# If this CIF has been generated from an entry in the Cambridge 
# Structural Database, then it will include bibliographic, chemical, 
# crystal, experimental, refinement or atomic coordinate data resulting 
# from the CCDC's data processing and validation procedures.
#
#######################################################################

data_BAFYOZ
_chemical_formula_moiety         'C23 H25 N1 O2 S1'
_chemical_name_systematic        
(2aR*,3aS*,6bS*)-6-(2-methylphenyl)-1-((4-methylphenyl)sulfonyl)-1,2,2a,3,4,5,5a,6b-octahydrocyclobuta[cd]isoindole
_symmetry_cell_setting           orthorhombic
_symmetry_space_group_name_H-M   'P 21 21 21'
_symmetry_Int_Tables_number      19
_space_group_name_Hall           'P 2ac 2ab'
loop_
_symmetry_equiv_pos_site_id
_symmetry_equiv_pos_as_xyz
1 x,y,z
2 1/2-x,-y,1/2+z
3 -x,1/2+y,1/2-z
4 1/2+x,1/2-y,-z
_cell_length_a                   8.6743(16)
_cell_length_b                   10.0778(17)
_cell_length_c                   22.329(3)
_cell_angle_alpha                90
_cell_angle_beta                 90
_cell_angle_gamma                90
_cell_volume                     1951.95
_exptl_crystal_colour            colorless
_exptl_crystal_description       prism
_cell_formula_units_Z            4
loop_
_atom_site_label
_atom_site_type_symbol
_atom_site_fract_x
_atom_site_fract_y
_atom_site_fract_z
C1 C 0.2178(4) 0.6398(4) 0.94945(17)
C2 C 0.2625(5) 0.7185(4) 0.90149(16)
H1 H 0.3113 0.6800 0.8676
C3 C 0.2353(5) 0.8537(4) 0.90348(17)
H2 H 0.2657 0.9072 0.8705
C4 C 0.1653(4) 0.9129(4) 0.95190(19)
C5 C 0.1369(5) 1.0612(4) 0.95326(18)
H3 H 0.0868 1.0852 0.9911
H4 H 0.0700 1.0860 0.9197
H5 H 0.2354 1.1082 0.9499
C6 C 0.1186(4) 0.8322(4) 0.99897(17)
H6 H 0.0682 0.8708 1.0325
C7 C 0.1442(4) 0.6962(4) 0.99794(16)
H7 H 0.1113 0.6424 1.0304
C8 C -0.0462(4) 0.4022(4) 0.93473(16)
H8 H -0.0532 0.4727 0.9655
H9 H -0.0709 0.3162 0.9539
C9 C -0.1623(4) 0.4308(4) 0.88264(16)
H10 H -0.2382 0.4989 0.8965
C10 C -0.2506(5) 0.3091(4) 0.86106(16)
H11 H -0.2685 0.2495 0.8956
H12 H -0.3527 0.3379 0.8460
C11 C -0.1702(5) 0.2313(4) 0.81220(17)
H13 H -0.2345 0.1542 0.8007
H14 H -0.0705 0.1973 0.8274
C12 C -0.1419(4) 0.3181(4) 0.75751(17)
H15 H -0.2420 0.3522 0.7428
H16 H -0.0962 0.2631 0.7254
C13 C -0.0354(4) 0.4351(4) 0.77010(17)
H17 H -0.0328 0.5032 0.7375
C14 C -0.0587(4) 0.4936(4) 0.83434(15)
H18 H -0.0585 0.5928 0.8353
C15 C 0.0934(4) 0.4345(4) 0.84701(16)
C16 C 0.1256(4) 0.3885(4) 0.79139(16)
C17 C 0.2427(5) 0.2989(4) 0.76683(16)
C18 C 0.2729(5) 0.2830(4) 0.70550(17)
C19 C 0.1929(5) 0.3649(4) 0.65857(16)
H19 H 0.1196 0.4253 0.6779
H20 H 0.1374 0.3062 0.6310
H21 H 0.2694 0.4165 0.6362
C20 C 0.3808(5) 0.1896(5) 0.6877(2)
H22 H 0.4019 0.1798 0.6462
C21 C 0.4588(5) 0.1102(5) 0.7279(2)
H23 H 0.5309 0.0462 0.7141
C22 C 0.4307(5) 0.1250(4) 0.7887(2)
H24 H 0.4834 0.0710 0.8169
C23 C 0.3253(4) 0.2191(4) 0.80793(19)
H25 H 0.3081 0.2304 0.8496
N1 N 0.1144(4) 0.3982(3) 0.90862(13)
O1 O 0.2394(3) 0.4165(2) 1.00740(10)
O2 O 0.3927(3) 0.4475(3) 0.91319(11)
S1 S 0.25363(14) 0.46775(10) 0.94732(5)
loop_
_geom_bond_atom_site_label_1
_geom_bond_atom_site_label_2
_geom_bond_site_symmetry_1
_geom_bond_site_symmetry_2
C1 C2 1_555 1_555
C2 H1 1_555 1_555
C3 C2 1_555 1_555
H2 C3 1_555 1_555
C4 C3 1_555 1_555
C5 C4 1_555 1_555
H3 C5 1_555 1_555
H4 C5 1_555 1_555
H5 C5 1_555 1_555
C6 C4 1_555 1_555
H6 C6 1_555 1_555
C7 C1 1_555 1_555
H7 C7 1_555 1_555
C8 H8 1_555 1_555
H9 C8 1_555 1_555
C9 C8 1_555 1_555
H10 C9 1_555 1_555
C10 C9 1_555 1_555
H11 C10 1_555 1_555
H12 C10 1_555 1_555
C11 C10 1_555 1_555
H13 C11 1_555 1_555
H14 C11 1_555 1_555
C12 C11 1_555 1_555
H15 C12 1_555 1_555
H16 C12 1_555 1_555
C13 C12 1_555 1_555
H17 C13 1_555 1_555
C14 C9 1_555 1_555
H18 C14 1_555 1_555
C15 C14 1_555 1_555
C16 C13 1_555 1_555
C17 C16 1_555 1_555
C18 C17 1_555 1_555
C19 C18 1_555 1_555
H19 C19 1_555 1_555
H20 C19 1_555 1_555
H21 C19 1_555 1_555
C20 C18 1_555 1_555
H22 C20 1_555 1_555
C21 C20 1_555 1_555
H23 C21 1_555 1_555
C22 C21 1_555 1_555
H24 C22 1_555 1_555
C23 C17 1_555 1_555
H25 C23 1_555 1_555
N1 C8 1_555 1_555
O1 S1 1_555 1_555
O2 S1 1_555 1_555
S1 C1 1_555 1_555
C6 C7 1_555 1_555
C13 C14 1_555 1_555
C15 C16 1_555 1_555
C15 N1 1_555 1_555
C22 C23 1_555 1_555
N1 S1 1_555 1_555

#END
