
#######################################################################
#
#                 Cambridge Crystallographic Data Centre
#                                CCDC 
#
#######################################################################
#
# If this CIF has been generated from an entry in the Cambridge 
# Structural Database, then it will include bibliographic, chemical, 
# crystal, experimental, refinement or atomic coordinate data resulting 
# from the CCDC's data processing and validation procedures.
#
#######################################################################

data_BAFZEQ
_chemical_formula_moiety         'C23 H25 N1 O2 S1'
_chemical_name_systematic        
(1S*,6R*,8R*)-2-(4-methylphenyl)-4-[(4-methylphenyl)sulfonyl]-4-azatricyclo[4.2.2.0^3,8^]dec-2-ene
_symmetry_cell_setting           orthorhombic
_symmetry_space_group_name_H-M   'P b c a'
_symmetry_Int_Tables_number      61
_space_group_name_Hall           '-P 2ac 2ab'
loop_
_symmetry_equiv_pos_site_id
_symmetry_equiv_pos_as_xyz
1 x,y,z
2 1/2-x,-y,1/2+z
3 -x,1/2+y,1/2-z
4 1/2+x,1/2-y,-z
5 -x,-y,-z
6 1/2+x,y,1/2-z
7 x,1/2-y,1/2+z
8 1/2-x,1/2+y,z
_cell_length_a                   12.3783(9)
_cell_length_b                   17.2914(13)
_cell_length_c                   18.2840(14)
_cell_angle_alpha                90
_cell_angle_beta                 90
_cell_angle_gamma                90
_cell_volume                     3913.47
_exptl_crystal_colour            colorless
_exptl_crystal_description       prism
_cell_formula_units_Z            8
loop_
_atom_site_label
_atom_site_type_symbol
_atom_site_fract_x
_atom_site_fract_y
_atom_site_fract_z
C1 C 0.9007(2) 0.34877(15) 0.05911(14)
C2 C 0.8066(2) 0.30576(15) 0.05582(15)
H1 H 0.8029 0.2565 0.0786
C3 C 0.7179(2) 0.33506(16) 0.01903(15)
H2 H 0.6533 0.3055 0.0168
C4 C 0.7218(2) 0.40693(15) -0.01460(15)
C5 C 0.6249(2) 0.43896(17) -0.05419(17)
H3 H 0.5658 0.4014 -0.0522
H4 H 0.6439 0.4491 -0.1053
H5 H 0.6021 0.4872 -0.0308
C6 C 0.8168(3) 0.44852(16) -0.01095(16)
H6 H 0.8211 0.4975 -0.0343
C7 C 0.9054(2) 0.42035(16) 0.02595(16)
H7 H 0.9697 0.4502 0.0286
C8 C 1.0080(2) 0.40987(15) 0.21880(15)
H8 H 0.9841 0.4456 0.1797
H9 H 1.0847 0.4214 0.2298
C9 C 0.9400(2) 0.42394(15) 0.28753(15)
H10 H 0.9410 0.4808 0.2976
C10 C 0.9816(2) 0.38232(16) 0.35723(15)
H11 H 1.0484 0.3538 0.3447
H12 H 1.0009 0.4220 0.3941
C11 C 0.9013(2) 0.32538(16) 0.39207(15)
H13 H 0.9377 0.2973 0.4323
H14 H 0.8402 0.3547 0.4134
C12 C 0.8573(2) 0.26673(16) 0.33667(15)
H15 H 0.8036 0.2286 0.3558
C13 C 0.8227(2) 0.31304(15) 0.26595(15)
H16 H 0.7574 0.2916 0.2409
C14 C 0.8227(2) 0.40100(15) 0.27235(16)
H17 H 0.7752 0.4179 0.3129
H18 H 0.7970 0.4249 0.2264
C15 C 0.9277(2) 0.28341(14) 0.23604(14)
C16 C 0.9493(2) 0.23354(15) 0.29065(15)
C17 C 1.0420(2) 0.18531(14) 0.30766(15)
C18 C 1.0658(2) 0.16427(15) 0.37969(16)
H19 H 1.0171 0.1777 0.4178
C19 C 1.1593(3) 0.12416(16) 0.39614(17)
H20 H 1.1742 0.1113 0.4456
C20 C 1.2317(2) 0.10224(15) 0.34232(17)
C21 C 1.3358(3) 0.06142(18) 0.36085(18)
H21 H 1.3761 0.0509 0.3158
H22 H 1.3196 0.0125 0.3857
H23 H 1.3793 0.0943 0.3931
C22 C 1.2060(2) 0.12063(15) 0.27062(16)
H24 H 1.2532 0.1049 0.2325
C23 C 1.1136(2) 0.16118(14) 0.25320(15)
H25 H 1.0984 0.1728 0.2035
N1 N 0.99889(16) 0.32778(12) 0.19163(12)
O1 O 1.01465(15) 0.23019(11) 0.09480(10)
O2 O 1.10625(14) 0.35762(12) 0.08240(11)
S1 S 1.01483(5) 0.31229(4) 0.10470(4)
loop_
_geom_bond_atom_site_label_1
_geom_bond_atom_site_label_2
_geom_bond_site_symmetry_1
_geom_bond_site_symmetry_2
C1 C2 1_555 1_555
C2 H1 1_555 1_555
C3 C2 1_555 1_555
H2 C3 1_555 1_555
C4 C3 1_555 1_555
C5 C4 1_555 1_555
H3 C5 1_555 1_555
H4 C5 1_555 1_555
H5 C5 1_555 1_555
C6 C4 1_555 1_555
H6 C6 1_555 1_555
C7 C1 1_555 1_555
H7 C7 1_555 1_555
C8 H8 1_555 1_555
H9 C8 1_555 1_555
C9 C8 1_555 1_555
H10 C9 1_555 1_555
C10 C9 1_555 1_555
H11 C10 1_555 1_555
H12 C10 1_555 1_555
C11 C10 1_555 1_555
H13 C11 1_555 1_555
H14 C11 1_555 1_555
C12 C11 1_555 1_555
H15 C12 1_555 1_555
C13 C12 1_555 1_555
H16 C13 1_555 1_555
C14 C9 1_555 1_555
H17 C14 1_555 1_555
H18 C14 1_555 1_555
C15 C13 1_555 1_555
C16 C12 1_555 1_555
C17 C16 1_555 1_555
C18 C17 1_555 1_555
H19 C18 1_555 1_555
C19 C18 1_555 1_555
H20 C19 1_555 1_555
C20 C19 1_555 1_555
C21 C20 1_555 1_555
H21 C21 1_555 1_555
H22 C21 1_555 1_555
H23 C21 1_555 1_555
C22 C20 1_555 1_555
H24 C22 1_555 1_555
C23 C17 1_555 1_555
H25 C23 1_555 1_555
N1 C8 1_555 1_555
O1 S1 1_555 1_555
O2 S1 1_555 1_555
S1 C1 1_555 1_555
C6 C7 1_555 1_555
C13 C14 1_555 1_555
C15 C16 1_555 1_555
C15 N1 1_555 1_555
C22 C23 1_555 1_555
N1 S1 1_555 1_555

#END
