
#######################################################################
#
#                 Cambridge Crystallographic Data Centre
#                                CCDC 
#
#######################################################################
#
# If this CIF has been generated from an entry in the Cambridge 
# Structural Database, then it will include bibliographic, chemical, 
# crystal, experimental, refinement or atomic coordinate data resulting 
# from the CCDC's data processing and validation procedures.
#
#######################################################################

data_BAFZUG
_chemical_formula_moiety         'C24 H25 N1 O4 S1'
_chemical_name_systematic        
'methyl 4-((1S*,6R*,8R*)-4-((4-methylphenyl)sulfonyl)-4-azatricyclo[4.2.2.0^3,8^]dec-2-en-2-yl)benzoate'
_symmetry_cell_setting           triclinic
_symmetry_space_group_name_H-M   'P -1'
_symmetry_Int_Tables_number      2
_space_group_name_Hall           '-P 1'
loop_
_symmetry_equiv_pos_site_id
_symmetry_equiv_pos_as_xyz
1 x,y,z
2 -x,-y,-z
_cell_length_a                   8.0991(3)
_cell_length_b                   11.0021(4)
_cell_length_c                   12.0817(4)
_cell_angle_alpha                95.876(2)
_cell_angle_beta                 96.881(2)
_cell_angle_gamma                97.458(2)
_cell_volume                     1052.14
_exptl_crystal_colour            colorless
_exptl_crystal_description       prism
_cell_formula_units_Z            2
loop_
_atom_site_label
_atom_site_type_symbol
_atom_site_fract_x
_atom_site_fract_y
_atom_site_fract_z
C1 C 0.5606(4) 0.8832(3) 0.8239(3)
C2 C 0.6431(5) 0.9933(3) 0.8815(3)
H1 H 0.6388 1.0668 0.8502
C3 C 0.7322(5) 0.9929(4) 0.9864(3)
H2 H 0.7873 1.0673 1.0251
C4 C 0.7421(5) 0.8866(4) 1.0354(3)
C5 C 0.8398(6) 0.8878(5) 1.1502(3)
H3 H 0.8874 0.9711 1.1794
H4 H 0.9283 0.8382 1.1444
H5 H 0.7659 0.8549 1.1997
C6 C 0.6581(5) 0.7785(4) 0.9771(3)
H6 H 0.6621 0.7052 1.0088
C7 C 0.5677(5) 0.7758(3) 0.8721(3)
H7 H 0.5117 0.7014 0.8340
C8 C 0.7394(4) 0.9329(3) 0.5938(3)
H8 H 0.7573 0.9940 0.6595
H9 H 0.7219 0.9757 0.5281
C9 C 0.8976(4) 0.8703(3) 0.5890(3)
H10 H 0.9948 0.9350 0.6098
C10 C 0.9066(4) 0.7800(3) 0.6767(3)
H11 H 1.0147 0.7505 0.6832
H12 H 0.8914 0.8198 0.7494
C11 C 0.7662(4) 0.6736(3) 0.6363(3)
H13 H 0.7387 0.6212 0.6944
C12 C 0.6175(3) 0.7204(3) 0.5777(3)
C13 C 0.6042(4) 0.6473(3) 0.4812(3)
C14 C 0.7681(4) 0.6004(3) 0.5187(3)
H14 H 0.7621 0.5106 0.5168
C15 C 0.9128(4) 0.6656(3) 0.4647(4)
H15 H 1.0189 0.6493 0.5023
H16 H 0.9030 0.6313 0.3866
C16 C 0.9136(4) 0.8055(3) 0.4711(3)
H17 H 0.8215 0.8215 0.4181
H18 H 1.0173 0.8423 0.4478
C17 C 0.5025(4) 0.6394(3) 0.3727(3)
C18 C 0.3616(4) 0.7003(3) 0.3589(3)
H19 H 0.3301 0.7446 0.4208
C19 C 0.2692(5) 0.6954(3) 0.2553(3)
H20 H 0.1758 0.7365 0.2485
C20 C 0.3105(6) 0.6318(4) 0.1619(3)
C21 C 0.4481(7) 0.5686(4) 0.1747(4)
H21 H 0.4771 0.5234 0.1124
C22 C 0.5425(5) 0.5719(3) 0.2783(3)
H22 H 0.6337 0.5285 0.2850
C23 C 0.1736(10) 0.6419(7) 0.0508(6)
C24 C 0.1176(11) 0.5769(8) -0.1372(7)
H23 H 0.1563 0.5248 -0.1944
H24 H 0.1263 0.6598 -0.1562
H25 H 0.0024 0.5471 -0.1315
N1 N 0.5833(3) 0.8436(2) 0.5987(2)
O1 O 0.4227(4) 1.0001(3) 0.6722(2)
O2 O 0.3225(3) 0.7766(3) 0.6703(2)
O3 O 0.0672(10) 0.6983(7) 0.0470(6)
O4 O 0.2209(7) 0.5749(5) -0.0292(5)
S1 S 0.45544(11) 0.87818(10) 0.68747(7)
C25? C 0.2599(11) 0.6089(8) 0.0474(7)
C26? C 0.0542(12) 0.6659(9) -0.0879(8)
H26? H -0.0280 0.7211 -0.0947
H27? H -0.0007 0.5821 -0.1049
H28? H 0.1335 0.6820 -0.1395
O5? O 0.2945(9) 0.5366(6) -0.0314(5)
O6? O 0.1432(12) 0.6849(8) 0.0281(7)
loop_
_geom_bond_atom_site_label_1
_geom_bond_atom_site_label_2
_geom_bond_site_symmetry_1
_geom_bond_site_symmetry_2
C1 C2 1_555 1_555
C2 H1 1_555 1_555
C3 C2 1_555 1_555
H2 C3 1_555 1_555
C4 C3 1_555 1_555
C5 C4 1_555 1_555
H3 C5 1_555 1_555
H4 C5 1_555 1_555
H5 C5 1_555 1_555
C6 C4 1_555 1_555
H6 C6 1_555 1_555
C7 C1 1_555 1_555
H7 C7 1_555 1_555
C8 H8 1_555 1_555
H9 C8 1_555 1_555
C9 C8 1_555 1_555
H10 C9 1_555 1_555
C10 C9 1_555 1_555
H11 C10 1_555 1_555
H12 C10 1_555 1_555
C11 C10 1_555 1_555
H13 C11 1_555 1_555
C12 C11 1_555 1_555
C13 C12 1_555 1_555
C14 C11 1_555 1_555
H14 C14 1_555 1_555
C15 C14 1_555 1_555
H15 C15 1_555 1_555
H16 C15 1_555 1_555
C16 C9 1_555 1_555
H17 C16 1_555 1_555
H18 C16 1_555 1_555
C17 C13 1_555 1_555
C18 C17 1_555 1_555
H19 C18 1_555 1_555
C19 C18 1_555 1_555
H20 C19 1_555 1_555
C20 C19 1_555 1_555
C21 C20 1_555 1_555
H21 C21 1_555 1_555
C22 C17 1_555 1_555
H22 C22 1_555 1_555
C23 C20 1_555 1_555
C24 H23 1_555 1_555
H24 C24 1_555 1_555
H25 C24 1_555 1_555
N1 C8 1_555 1_555
O1 S1 1_555 1_555
O2 S1 1_555 1_555
O3 C23 1_555 1_555
O4 C23 1_555 1_555
S1 C1 1_555 1_555
C6 C7 1_555 1_555
C12 N1 1_555 1_555
C13 C14 1_555 1_555
C15 C16 1_555 1_555
C21 C22 1_555 1_555
C24 O4 1_555 1_555
N1 S1 1_555 1_555

#END
