
#######################################################################
#
#                 Cambridge Crystallographic Data Centre
#                                CCDC 
#
#######################################################################
#
# If this CIF has been generated from an entry in the Cambridge 
# Structural Database, then it will include bibliographic, chemical, 
# crystal, experimental, refinement or atomic coordinate data resulting 
# from the CCDC's data processing and validation procedures.
#
#######################################################################

data_BAGCAQ
_chemical_formula_moiety         
'C50 H56 O16,C14 H12 N2 2+,2(F6 P1 1-),5(C2 H3 N1),0.5(H2 O1)'
_chemical_name_systematic        
"5,6-dihydropyrazino[1,2,3,4-lmn][1,10]phenanthroline-4,7-diium 7,7'-[2,5,8,11,14,20,23,26,29,32-decaoxatricyclo[31.3.1.1^15,19^]octatriaconta-1(37),15(38),16,18,33,35-hexaene-17,35-diylbis(methyleneoxy)]bis(4-methyl-2H-1-benzopyran-2-one) bis(hexafluorophosphate) acetonitrile solvate hemihydrate"
_symmetry_cell_setting           monoclinic
_symmetry_space_group_name_H-M   'P 21/c'
_symmetry_Int_Tables_number      14
_space_group_name_Hall           '-P 2ybc'
loop_
_symmetry_equiv_pos_site_id
_symmetry_equiv_pos_as_xyz
1 x,y,z
2 -x,1/2+y,1/2-z
3 -x,-y,-z
4 x,1/2-y,1/2+z
_cell_length_a                   26.2806(15)
_cell_length_b                   10.5229(5)
_cell_length_c                   28.8376(16)
_cell_angle_alpha                90
_cell_angle_beta                 104.925(5)
_cell_angle_gamma                90
_cell_volume                     7705.94
_exptl_crystal_colour            yellow
_exptl_crystal_description       plate
_cell_formula_units_Z            4
loop_
_atom_site_label
_atom_site_type_symbol
_atom_site_fract_x
_atom_site_fract_y
_atom_site_fract_z
O1 O 0.35124(9) 1.0858(2) 0.03963(8)
O2 O 0.43805(10) 0.9996(2) 0.10834(9)
O3 O 0.48715(11) 0.7967(3) 0.16507(10)
O4 O 0.47489(10) 0.5705(3) 0.11391(10)
O5 O 0.40034(10) 0.4289(2) 0.04934(9)
O6 O 0.21904(9) 0.3665(2) 0.00378(8)
O7 O 0.11949(10) 0.4179(2) 0.02000(9)
O8 O 0.05938(11) 0.6207(2) 0.04137(10)
O9 O 0.08926(10) 0.8642(2) 0.01627(11)
O10 O 0.17191(10) 1.0072(2) -0.00486(9)
O11 O 0.23060(11) 1.1499(3) -0.15523(9)
O12 O 0.25864(10) 1.0489(2) -0.30743(8)
O13 O 0.27260(12) 0.9924(3) -0.37649(10)
O14 O 0.34179(11) 0.3050(2) -0.13390(8)
O15 O 0.31062(10) 0.4516(2) -0.29445(8)
O16 O 0.29034(12) 0.5221(3) -0.36867(9)
C1 C 0.21616(14) 1.0261(3) -0.02127(13)
C2 C 0.21628(15) 1.0235(3) -0.06935(12)
H1 H 0.1848 1.0079 -0.0936
C3 C 0.26333(15) 1.0440(3) -0.08119(12)
C4 C 0.30973(15) 1.0647(3) -0.04658(12)
H2 H 0.3418 1.0777 -0.0554
C5 C 0.30872(14) 1.0660(3) 0.00176(12)
C6 C 0.26194(14) 1.0471(3) 0.01430(12)
H3 H 0.2612 1.0484 0.0471
C7 C 0.40260(14) 1.0927(4) 0.03194(13)
H4 H 0.4051 1.1660 0.0111
H5 H 0.4105 1.0141 0.0163
C8 C 0.44048(15) 1.1081(4) 0.08022(14)
H6 H 0.4767 1.1187 0.0765
H7 H 0.4313 1.1848 0.0962
C9 C 0.46754(17) 1.0141(4) 0.15680(14)
H8 H 0.4543 1.0879 0.1715
H9 H 0.5051 1.0290 0.1582
C10 C 0.46194(18) 0.8953(4) 0.18366(15)
H10 H 0.4785 0.9067 0.2183
H11 H 0.4243 0.8749 0.1794
C11 C 0.48580(19) 0.6778(4) 0.18752(15)
H12 H 0.4727 0.6626 0.2148
C12 C 0.50834(17) 0.5804(4) 0.16101(15)
H13 H 0.5442 0.6058 0.1596
H14 H 0.5107 0.4974 0.1776
C13 C 0.48930(15) 0.4718(4) 0.08694(15)
H15 H 0.4912 0.3905 0.1045
H16 H 0.5244 0.4895 0.0817
C14 C 0.44912(15) 0.4624(4) 0.03970(14)
H17 H 0.4458 0.5448 0.0226
H18 H 0.4597 0.3968 0.0194
C15 C 0.35705(14) 0.4169(3) 0.01164(12)
C16 C 0.30972(14) 0.3994(3) 0.02382(12)
H19 H 0.3090 0.3987 0.0566
C17 C 0.26367(14) 0.3831(3) -0.01176(12)
C18 C 0.26403(15) 0.3843(3) -0.06005(12)
H20 H 0.2324 0.3717 -0.0844
C19 C 0.31105(15) 0.4041(3) -0.07176(12)
C20 C 0.35792(15) 0.4208(3) -0.03643(12)
H21 H 0.3901 0.4345 -0.0450
C21 C 0.17087(14) 0.3398(3) -0.03120(13)
H22 H 0.1758 0.2664 -0.0511
H23 H 0.1603 0.4142 -0.0525
C22 C 0.12897(16) 0.3104(3) -0.00630(15)
H24 H 0.0961 0.2863 -0.0303
H25 H 0.1401 0.2377 0.0158
C23 C 0.07507(16) 0.3997(4) 0.03902(17)
H26 H 0.0792 0.3198 0.0578
H27 H 0.0427 0.3929 0.0125
C24 C 0.07048(18) 0.5090(4) 0.07042(16)
H28 H 0.0418 0.4933 0.0862
H29 H 0.1038 0.5200 0.0956
C25 C 0.05642(18) 0.7316(4) 0.06901(17)
H30 H 0.0900 0.7438 0.0938
H31 H 0.0278 0.7223 0.0853
C26 C 0.04595(16) 0.8431(4) 0.03607(18)
H32 H 0.0138 0.8276 0.0099
H33 H 0.0399 0.9196 0.0540
C27 C 0.08081(15) 0.9742(4) -0.01310(17)
H34 H 0.0808 1.0504 0.0071
H35 H 0.0460 0.9685 -0.0366
C28 C 0.12274(14) 0.9871(4) -0.03918(15)
H36 H 0.1244 0.9091 -0.0579
H37 H 0.1148 1.0598 -0.0617
C29 C 0.26341(17) 1.0453(4) -0.13348(13)
H38 H 0.2997 1.0568 -0.1368
H39 H 0.2493 0.9643 -0.1490
C30 C 0.22359(15) 1.1690(4) -0.20329(12)
C31 C 0.19223(16) 1.2737(4) -0.22197(14)
H40 H 0.1767 1.3236 -0.2018
C32 C 0.18391(16) 1.3041(4) -0.26965(13)
H41 H 0.1629 1.3759 -0.2820
C33 C 0.20579(15) 1.2316(4) -0.30037(13)
C34 C 0.23594(14) 1.1262(3) -0.28027(13)
C35 C 0.24518(15) 1.0937(4) -0.23239(12)
H42 H 0.2659 1.0214 -0.2199
C36 C 0.25195(16) 1.0686(4) -0.35560(14)
C37 C 0.22140(17) 1.1775(4) -0.37643(14)
H43 H 0.2163 1.1933 -0.4097
C38 C 0.19971(15) 1.2579(4) -0.35071(14)
C39 C 0.16979(19) 1.3743(5) -0.37283(16)
H44 H 0.1331 1.3673 -0.3713
H45 H 0.1711 1.3814 -0.4064
H46 H 0.1858 1.4499 -0.3551
C40 C 0.31190(16) 0.4112(3) -0.12367(12)
H47 H 0.2755 0.4081 -0.1445
H48 H 0.3283 0.4920 -0.1299
C41 C 0.34636(14) 0.2958(3) -0.17987(12)
C42 C 0.37268(15) 0.1881(3) -0.19003(12)
H49 H 0.3858 0.1268 -0.1657
C43 C 0.37956(14) 0.1708(3) -0.23501(12)
H50 H 0.3982 0.0983 -0.2414
C44 C 0.35951(13) 0.2587(3) -0.27201(12)
C45 C 0.33290(14) 0.3626(3) -0.26051(12)
C46 C 0.32642(14) 0.3840(3) -0.21518(12)
H51 H 0.3086 0.4576 -0.2085
C47 C 0.31270(15) 0.4406(4) -0.34137(13)
C48 C 0.34090(15) 0.3336(4) -0.35309(13)
H52 H 0.3434 0.3246 -0.3852
C49 C 0.36392(14) 0.2455(3) -0.32059(12)
C50 C 0.39389(18) 0.1349(4) -0.33329(14)
H53 H 0.4308 0.1403 -0.3150
H54 H 0.3918 0.1369 -0.3677
H55 H 0.3786 0.0553 -0.3254
N1 N 0.27537(12) 0.7391(3) 0.04419(11)
N2 N 0.17351(12) 0.6735(3) -0.01088(11)
C51 C 0.32443(16) 0.7559(4) 0.07122(16)
H56 H 0.3306 0.7663 0.1049
C52 C 0.36621(17) 0.7583(4) 0.05055(17)
H57 H 0.4011 0.7673 0.0702
C53 C 0.35764(16) 0.7478(4) 0.00191(17)
H58 H 0.3864 0.7524 -0.0123
C54 C 0.30594(16) 0.7299(3) -0.02717(15)
C55 C 0.26502(14) 0.7212(3) -0.00448(13)
C56 C 0.21290(14) 0.6960(3) -0.03238(13)
C57 C 0.20246(16) 0.6915(3) -0.08305(13)
C58 C 0.24483(19) 0.7067(4) -0.10466(15)
H59 H 0.2380 0.7054 -0.1387
C59 C 0.29441(19) 0.7230(4) -0.07795(15)
H60 H 0.3222 0.7301 -0.0933
C60 C 0.15027(18) 0.6680(4) -0.10901(15)
H61 H 0.1418 0.6642 -0.1431
C61 C 0.11179(18) 0.6508(4) -0.08601(16)
H62 H 0.0765 0.6376 -0.1040
C62 C 0.12404(15) 0.6523(3) -0.03624(15)
H63 H 0.0972 0.6382 -0.0202
C63 C 0.18769(15) 0.6586(3) 0.04190(13)
H64 H 0.2009 0.5714 0.0505
H65 H 0.1561 0.6716 0.0540
C64 C 0.22924(15) 0.7530(4) 0.06484(14)
H66 H 0.2149 0.8402 0.0591
H67 H 0.2403 0.7384 0.0999
P1 P 0.38715(5) 0.77173(11) -0.17477(5)
F1 F 0.4017(2) 0.8780(4) -0.13519(15)
F2 F 0.44816(13) 0.7513(4) -0.17215(15)
F3 F 0.3831(2) 0.8733(3) -0.21449(14)
F4 F 0.32738(14) 0.7862(5) -0.17584(13)
F5 F 0.39281(14) 0.6690(4) -0.13376(14)
F6 F 0.37252(15) 0.6680(3) -0.21512(14)
P2 P 0.05592(7) 0.3286(3) -0.16148(7)
F7 F 0.0502(2) 0.3962(5) -0.11521(17)
F8 F 0.0445(4) 0.4723(10) -0.1876(3)
F9 F -0.00232(18) 0.3145(7) -0.1799(2)
F10 F 0.0672(6) 0.2121(6) -0.1342(3)
F11 F 0.1123(2) 0.3869(7) -0.1487(2)
F12 F 0.0639(3) 0.2725(11) -0.2068(2)
N3 N 0.1745(2) 0.8050(8) -0.3413(2)
C65 C 0.2072(3) 0.7666(6) -0.3128(2)
C66 C 0.2504(5) 0.7224(10) -0.2774(3)
H68 H 0.2816 0.7209 -0.2900
H69 H 0.2432 0.6364 -0.2677
H70 H 0.2568 0.7790 -0.2495
N4 N -0.0208(4) 0.8290(11) -0.1095(3)
C67 C -0.0131(3) 0.8262(11) -0.1450(3)
C68 C 0.0073(10) 0.839(4) -0.1844(6)
H71 H 0.0064 0.7566 -0.2004
H72 H 0.0438 0.8689 -0.1739
H73 H -0.0138 0.9006 -0.2068
N5 N 0.1847(8) 0.6043(14) -0.2200(5)
C69 C 0.1329(11) 0.6096(16) -0.2463(8)
C70 C 0.0867(7) 0.6080(15) -0.2824(7)
H74 H 0.0568 0.5951 -0.2685
H75 H 0.0880 0.5386 -0.3048
H76 H 0.0826 0.6891 -0.2997
N6 N 0.52350(16) 1.1890(5) 0.00483(16)
C71 C 0.49469(16) 1.1688(4) -0.03102(16)
C72 C 0.45804(18) 1.1431(5) -0.07641(15)
H77 H 0.4481 1.0531 -0.0780
H78 H 0.4745 1.1630 -0.1024
H79 H 0.4265 1.1957 -0.0797
N7 N 0.1410(4) 0.8841(11) -0.1947(4)
C73 C 0.1229(4) 0.9420(11) -0.2266(4)
C74 C 0.1029(3) 1.0044(8) -0.2692(3)
H80 H 0.1080 0.9521 -0.2957
H81 H 0.1212 1.0857 -0.2688
H82 H 0.0652 1.0199 -0.2734
O17 O 0.3432(4) 0.6917(9) 0.1803(3)
H83 H 0.3485 0.6692 0.2094
H84 H 0.3192 0.6457 0.1628
loop_
_geom_bond_atom_site_label_1
_geom_bond_atom_site_label_2
_geom_bond_site_symmetry_1
_geom_bond_site_symmetry_2
O1 C5 1_555 1_555
O2 C8 1_555 1_555
O3 C10 1_555 1_555
O4 C12 1_555 1_555
O5 C14 1_555 1_555
O6 C17 1_555 1_555
O7 C22 1_555 1_555
O8 C24 1_555 1_555
O9 C26 1_555 1_555
O10 C1 1_555 1_555
O11 C29 1_555 1_555
O12 C34 1_555 1_555
O13 C36 1_555 1_555
O14 C40 1_555 1_555
O15 C45 1_555 1_555
O16 C47 1_555 1_555
C1 C2 1_555 1_555
C2 H1 1_555 1_555
C3 C2 1_555 1_555
C4 C3 1_555 1_555
H2 C4 1_555 1_555
C5 C4 1_555 1_555
C6 C1 1_555 1_555
H3 C6 1_555 1_555
C7 O1 1_555 1_555
H4 C7 1_555 1_555
H5 C7 1_555 1_555
C8 C7 1_555 1_555
H6 C8 1_555 1_555
H7 C8 1_555 1_555
C9 O2 1_555 1_555
H8 C9 1_555 1_555
H9 C9 1_555 1_555
C10 C9 1_555 1_555
H10 C10 1_555 1_555
H11 C10 1_555 1_555
C11 O3 1_555 1_555
H12 C11 1_555 1_555
C12 C11 1_555 1_555
H13 C12 1_555 1_555
H14 C12 1_555 1_555
C13 O4 1_555 1_555
H15 C13 1_555 1_555
H16 C13 1_555 1_555
C14 C13 1_555 1_555
H17 C14 1_555 1_555
H18 C14 1_555 1_555
C15 O5 1_555 1_555
C16 C15 1_555 1_555
H19 C16 1_555 1_555
C17 C16 1_555 1_555
C18 C17 1_555 1_555
H20 C18 1_555 1_555
C19 C18 1_555 1_555
C20 C15 1_555 1_555
H21 C20 1_555 1_555
C21 O6 1_555 1_555
H22 C21 1_555 1_555
H23 C21 1_555 1_555
C22 C21 1_555 1_555
H24 C22 1_555 1_555
H25 C22 1_555 1_555
C23 O7 1_555 1_555
H26 C23 1_555 1_555
H27 C23 1_555 1_555
C24 C23 1_555 1_555
H28 C24 1_555 1_555
H29 C24 1_555 1_555
C25 O8 1_555 1_555
H30 C25 1_555 1_555
H31 C25 1_555 1_555
C26 C25 1_555 1_555
H32 C26 1_555 1_555
H33 C26 1_555 1_555
C27 O9 1_555 1_555
H34 C27 1_555 1_555
H35 C27 1_555 1_555
C28 O10 1_555 1_555
H36 C28 1_555 1_555
H37 C28 1_555 1_555
C29 C3 1_555 1_555
H38 C29 1_555 1_555
H39 C29 1_555 1_555
C30 O11 1_555 1_555
C31 C30 1_555 1_555
H40 C31 1_555 1_555
C32 C31 1_555 1_555
H41 C32 1_555 1_555
C33 C32 1_555 1_555
C34 C33 1_555 1_555
C35 C30 1_555 1_555
H42 C35 1_555 1_555
C36 O12 1_555 1_555
C37 C36 1_555 1_555
H43 C37 1_555 1_555
C38 C33 1_555 1_555
C39 C38 1_555 1_555
H44 C39 1_555 1_555
H45 C39 1_555 1_555
H46 C39 1_555 1_555
C40 C19 1_555 1_555
H47 C40 1_555 1_555
H48 C40 1_555 1_555
C41 O14 1_555 1_555
C42 C41 1_555 1_555
H49 C42 1_555 1_555
C43 C42 1_555 1_555
H50 C43 1_555 1_555
C44 C43 1_555 1_555
C45 C44 1_555 1_555
C46 C41 1_555 1_555
H51 C46 1_555 1_555
C47 O15 1_555 1_555
C48 C47 1_555 1_555
H52 C48 1_555 1_555
C49 C44 1_555 1_555
C50 C49 1_555 1_555
H53 C50 1_555 1_555
H54 C50 1_555 1_555
H55 C50 1_555 1_555
N1 C51 1_555 1_555
N2 C56 1_555 1_555
C51 H56 1_555 1_555
C52 C51 1_555 1_555
H57 C52 1_555 1_555
C53 C52 1_555 1_555
H58 C53 1_555 1_555
C54 C53 1_555 1_555
C55 N1 1_555 1_555
C56 C55 1_555 1_555
C57 C56 1_555 1_555
C58 C57 1_555 1_555
H59 C58 1_555 1_555
C59 C54 1_555 1_555
H60 C59 1_555 1_555
C60 C57 1_555 1_555
H61 C60 1_555 1_555
C61 C60 1_555 1_555
H62 C61 1_555 1_555
C62 N2 1_555 1_555
H63 C62 1_555 1_555
C63 N2 1_555 1_555
H64 C63 1_555 1_555
H65 C63 1_555 1_555
C64 N1 1_555 1_555
H66 C64 1_555 1_555
H67 C64 1_555 1_555
P1 F1 1_555 1_555
F2 P1 1_555 1_555
F3 P1 1_555 1_555
F4 P1 1_555 1_555
F5 P1 1_555 1_555
F6 P1 1_555 1_555
P2 F7 1_555 1_555
F8 P2 1_555 1_555
F9 P2 1_555 1_555
F10 P2 1_555 1_555
F11 P2 1_555 1_555
F12 P2 1_555 1_555
N3 C65 1_555 1_555
C65 C66 1_555 1_555
C66 H68 1_555 1_555
H69 C66 1_555 1_555
H70 C66 1_555 1_555
N4 C67 1_555 1_555
C67 C68 1_555 1_555
C68 H71 1_555 1_555
H72 C68 1_555 1_555
H73 C68 1_555 1_555
N5 C69 1_555 1_555
C69 C70 1_555 1_555
C70 H74 1_555 1_555
H75 C70 1_555 1_555
H76 C70 1_555 1_555
N6 C71 1_555 1_555
C71 C72 1_555 1_555
C72 H77 1_555 1_555
H78 C72 1_555 1_555
H79 C72 1_555 1_555
N7 C73 1_555 1_555
C73 C74 1_555 1_555
C74 H80 1_555 1_555
H81 C74 1_555 1_555
H82 C74 1_555 1_555
O17 H83 1_555 1_555
H84 O17 1_555 1_555
C5 C6 1_555 1_555
C19 C20 1_555 1_555
C27 C28 1_555 1_555
C34 C35 1_555 1_555
C37 C38 1_555 1_555
C45 C46 1_555 1_555
C48 C49 1_555 1_555
C54 C55 1_555 1_555
C58 C59 1_555 1_555
C61 C62 1_555 1_555
C63 C64 1_555 1_555

#END
