
#######################################################################
#
#                 Cambridge Crystallographic Data Centre
#                                CCDC 
#
#######################################################################
#
# If this CIF has been generated from an entry in the Cambridge 
# Structural Database, then it will include bibliographic, chemical, 
# crystal, experimental, refinement or atomic coordinate data resulting 
# from the CCDC's data processing and validation procedures.
#
#######################################################################

data_BAGCEU
_chemical_formula_moiety         'C14 H19 N1 O2 S1'
_chemical_name_systematic        
'3-cyclohexyl-3,4-dihydro-2H-1,2-benzothiazine 1,1-dioxide'
_symmetry_cell_setting           orthorhombic
_symmetry_space_group_name_H-M   'P 21 21 21'
_symmetry_Int_Tables_number      19
_space_group_name_Hall           'P 2ac 2ab'
loop_
_symmetry_equiv_pos_site_id
_symmetry_equiv_pos_as_xyz
1 x,y,z
2 1/2-x,-y,1/2+z
3 -x,1/2+y,1/2-z
4 1/2+x,1/2-y,-z
_cell_length_a                   10.1064(10)
_cell_length_b                   12.4748(12)
_cell_length_c                   21.895(2)
_cell_angle_alpha                90
_cell_angle_beta                 90
_cell_angle_gamma                90
_cell_volume                     2760.42
_exptl_crystal_colour            colorless
_exptl_crystal_description       prismatic
_cell_formula_units_Z            8
loop_
_atom_site_label
_atom_site_type_symbol
_atom_site_fract_x
_atom_site_fract_y
_atom_site_fract_z
S1 S 0.81673(9) 0.74520(7) 0.89231(4)
N1 N 0.8508(3) 0.7583(3) 0.82093(14)
O1 O 0.7418(3) 0.6492(2) 0.89939(13)
O2 O 0.9359(3) 0.7555(2) 0.92624(11)
C1 C 0.7140(4) 0.8540(3) 0.90903(16)
C2 C 0.6294(4) 0.8468(3) 0.95834(16)
H1 H 0.6268 0.7843 0.9815
C3 C 0.5499(5) 0.9305(3) 0.97310(18)
H2 H 0.4925 0.9263 1.0062
C4 C 0.5561(5) 1.0221(4) 0.93802(19)
H3 H 0.5037 1.0806 0.9483
C5 C 0.6373(5) 1.0287(3) 0.88868(19)
H4 H 0.6378 1.0912 0.8655
C6 C 0.7192(4) 0.9448(3) 0.87214(17)
C7 C 0.7986(5) 0.9522(3) 0.81431(18)
H5 H 0.8443 1.0206 0.8144
H6 H 0.7372 0.9532 0.7803
C8 C 0.9006(4) 0.8651(3) 0.80201(17)
H7 H 0.9801 0.8813 0.8260
C9 C 0.9401(4) 0.8583(3) 0.73507(17)
H8 H 0.8610 0.8362 0.7125
C10 C 0.9840(5) 0.9646(4) 0.7083(2)
H9 H 1.0608 0.9902 0.7305
H10 H 0.9137 1.0168 0.7134
C11 C 1.0182(6) 0.9557(4) 0.6410(2)
H11 H 0.9394 0.9372 0.6180
H12 H 1.0499 1.0244 0.6263
C12 C 1.1224(6) 0.8721(5) 0.6306(3)
H13 H 1.2040 0.8940 0.6504
H14 H 1.1394 0.8653 0.5872
C13 C 1.0790(7) 0.7654(5) 0.6558(2)
H15 H 1.1495 0.7135 0.6504
H16 H 1.0023 0.7403 0.6333
C14 C 1.0445(5) 0.7740(4) 0.7233(2)
H17 H 1.0126 0.7052 0.7378
H18 H 1.1236 0.7918 0.7463
H19 H 0.788(3) 0.747(3) 0.8004(14)
S2 S 0.45904(9) 0.72359(8) 0.78279(4)
N2 N 0.4728(3) 0.6366(3) 0.83659(14)
O3 O 0.3741(3) 0.6806(2) 0.73719(11)
O4 O 0.5887(2) 0.7549(2) 0.76478(10)
C15 C 0.3775(4) 0.8327(3) 0.81639(16)
C16 C 0.3827(4) 0.9316(3) 0.78796(19)
H20 H 0.4332 0.9405 0.7528
C17 C 0.3139(5) 1.0162(4) 0.8114(2)
H21 H 0.3174 1.0828 0.7924
C18 C 0.2402(5) 1.0026(4) 0.8630(2)
H22 H 0.1940 1.0604 0.8793
C19 C 0.2336(4) 0.9045(3) 0.8909(2)
H23 H 0.1809 0.8963 0.9255
C20 C 0.3037(4) 0.8172(3) 0.86882(17)
C21 C 0.2994(4) 0.7123(3) 0.90364(18)
H24 H 0.3514 0.7206 0.9406
H25 H 0.2087 0.6993 0.9160
C22 C 0.3487(4) 0.6146(3) 0.87022(17)
H26 H 0.2817 0.5972 0.8394
C23 C 0.3632(4) 0.5150(3) 0.91082(17)
H27 H 0.2766 0.5031 0.9297
C24 C 0.4609(6) 0.5258(3) 0.96235(19)
H28 H 0.4387 0.5882 0.9867
H29 H 0.5488 0.5364 0.9457
C25 C 0.4607(7) 0.4269(4) 1.0029(2)
H30 H 0.3752 0.4200 1.0226
H31 H 0.5273 0.4348 1.0344
C26 C 0.4891(7) 0.3264(4) 0.9657(2)
H32 H 0.5784 0.3298 0.9496
H33 H 0.4829 0.2639 0.9919
C27 C 0.3930(7) 0.3156(4) 0.9140(2)
H34 H 0.3048 0.3041 0.9302
H35 H 0.4164 0.2538 0.8894
C28 C 0.3933(6) 0.4160(3) 0.8740(2)
H36 H 0.4792 0.4237 0.8548
H37 H 0.3276 0.4082 0.8419
H38 H 0.538(3) 0.644(3) 0.8578(14)
loop_
_geom_bond_atom_site_label_1
_geom_bond_atom_site_label_2
_geom_bond_site_symmetry_1
_geom_bond_site_symmetry_2
S1 N1 1_555 1_555
N1 C8 1_555 1_555
O1 S1 1_555 1_555
O2 S1 1_555 1_555
C1 S1 1_555 1_555
C2 C1 1_555 1_555
H1 C2 1_555 1_555
C3 C2 1_555 1_555
H2 C3 1_555 1_555
C4 C3 1_555 1_555
H3 C4 1_555 1_555
C5 C4 1_555 1_555
H4 C5 1_555 1_555
C6 C1 1_555 1_555
C7 C6 1_555 1_555
H5 C7 1_555 1_555
H6 C7 1_555 1_555
C8 C7 1_555 1_555
H7 C8 1_555 1_555
C9 C8 1_555 1_555
H8 C9 1_555 1_555
C10 C9 1_555 1_555
H9 C10 1_555 1_555
H10 C10 1_555 1_555
C11 C10 1_555 1_555
H11 C11 1_555 1_555
H12 C11 1_555 1_555
C12 C11 1_555 1_555
H13 C12 1_555 1_555
H14 C12 1_555 1_555
C13 C12 1_555 1_555
H15 C13 1_555 1_555
H16 C13 1_555 1_555
C14 C9 1_555 1_555
H17 C14 1_555 1_555
H18 C14 1_555 1_555
H19 N1 1_555 1_555
S2 N2 1_555 1_555
N2 C22 1_555 1_555
O3 S2 1_555 1_555
O4 S2 1_555 1_555
C15 S2 1_555 1_555
C16 C15 1_555 1_555
H20 C16 1_555 1_555
C17 C16 1_555 1_555
H21 C17 1_555 1_555
C18 C17 1_555 1_555
H22 C18 1_555 1_555
C19 C18 1_555 1_555
H23 C19 1_555 1_555
C20 C15 1_555 1_555
C21 C20 1_555 1_555
H24 C21 1_555 1_555
H25 C21 1_555 1_555
C22 C21 1_555 1_555
H26 C22 1_555 1_555
C23 C22 1_555 1_555
H27 C23 1_555 1_555
C24 C23 1_555 1_555
H28 C24 1_555 1_555
H29 C24 1_555 1_555
C25 C24 1_555 1_555
H30 C25 1_555 1_555
H31 C25 1_555 1_555
C26 C25 1_555 1_555
H32 C26 1_555 1_555
H33 C26 1_555 1_555
C27 C26 1_555 1_555
H34 C27 1_555 1_555
H35 C27 1_555 1_555
C28 C23 1_555 1_555
H36 C28 1_555 1_555
H37 C28 1_555 1_555
H38 N2 1_555 1_555
C5 C6 1_555 1_555
C13 C14 1_555 1_555
C19 C20 1_555 1_555
C27 C28 1_555 1_555

#END
