
#######################################################################
#
#                 Cambridge Crystallographic Data Centre
#                                CCDC 
#
#######################################################################
#
# If this CIF has been generated from an entry in the Cambridge 
# Structural Database, then it will include bibliographic, chemical, 
# crystal, experimental, refinement or atomic coordinate data resulting 
# from the CCDC's data processing and validation procedures.
#
#######################################################################

data_BAGRAE
_chemical_formula_moiety         'C37 H38 N2 O4'
_chemical_name_systematic        
1,1'-bis(diphenylmethyl)-3,3'-diethoxy-2-methyl-2,2'-biazetidine-4,4'-dione
_symmetry_cell_setting           monoclinic
_symmetry_space_group_name_H-M   'P 21/n'
_symmetry_Int_Tables_number      14
_space_group_name_Hall           '-P 2yn'
loop_
_symmetry_equiv_pos_site_id
_symmetry_equiv_pos_as_xyz
1 x,y,z
2 1/2-x,1/2+y,1/2-z
3 -x,-y,-z
4 1/2+x,1/2-y,1/2+z
_cell_length_a                   11.153(2)
_cell_length_b                   16.983(3)
_cell_length_c                   33.336(7)
_cell_angle_alpha                90
_cell_angle_beta                 95.10(3)
_cell_angle_gamma                90
_cell_volume                     6289.22
_exptl_crystal_colour            colorless
_exptl_crystal_description       block
_chemical_melting_point          '150.5-152.0 deg.C'
_cell_formula_units_Z            8
_exptl_crystal_recrystallization_method ethanol
loop_
_atom_site_label
_atom_site_type_symbol
_atom_site_fract_x
_atom_site_fract_y
_atom_site_fract_z
O1 O 0.7863(2) 0.92712(13) 0.31817(6)
O2 O 0.51326(19) 0.95450(12) 0.34279(6)
O3 O 0.33221(19) 0.81816(13) 0.35128(6)
O4 O 0.32570(18) 0.68460(13) 0.41932(7)
N1 N 0.7135(2) 0.82702(13) 0.35860(7)
N2 N 0.5164(2) 0.74285(13) 0.41783(6)
C1 C 0.8500(3) 0.72389(17) 0.33715(8)
C2 C 0.9349(3) 0.75227(19) 0.31309(9)
H1 H 0.9696 0.8028 0.3182
C3 C 0.9697(4) 0.7073(2) 0.28146(10)
H2 H 1.0278 0.7272 0.2649
C4 C 0.9206(4) 0.6344(2) 0.27396(10)
H3 H 0.9455 0.6036 0.2524
C5 C 0.8353(4) 0.6057(2) 0.29741(10)
H4 H 0.8008 0.5552 0.2920
C6 C 0.7998(3) 0.65026(18) 0.32886(9)
H5 H 0.7405 0.6304 0.3450
C7 C 0.8090(3) 0.77128(16) 0.37212(8)
H6 H 0.7712 0.7325 0.3897
C8 C 0.9185(3) 0.88858(18) 0.40704(9)
H7 H 0.8581 0.9232 0.3954
C9 C 1.0127(3) 0.91836(19) 0.43237(10)
H8 H 1.0169 0.9733 0.4378
C10 C 1.1007(3) 0.86901(19) 0.44987(9)
H9 H 1.1649 0.8896 0.4674
C11 C 1.0944(3) 0.78972(19) 0.44157(9)
H10 H 1.1544 0.7552 0.4535
C12 C 1.0013(3) 0.76004(18) 0.41600(9)
H11 H 0.9984 0.7053 0.4102
C13 C 0.9113(3) 0.80928(17) 0.39848(8)
C14 C 0.7075(3) 0.88909(17) 0.33224(8)
C15 C 0.5699(3) 0.88742(17) 0.32831(8)
H12 H 0.5360 0.8724 0.3006
C16 C 0.5131(3) 1.01848(18) 0.31443(9)
H13 H 0.4776 1.0008 0.2877
H14 H 0.5967 1.0361 0.3118
C17 C 0.4411(4) 1.0848(2) 0.32910(11)
H15 H 0.4787 1.1035 0.3550
H16 H 0.3592 1.0666 0.3324
H17 H 0.4381 1.1279 0.3095
C18 C 0.5816(3) 0.81558(16) 0.35729(8)
H18 H 0.5568 0.7659 0.3427
C19 C 0.5253(2) 0.82096(16) 0.39734(8)
C20 C 0.5786(3) 0.88341(17) 0.42606(8)
H19 H 0.5326 0.8857 0.4497
H20 H 0.5750 0.9347 0.4125
H21 H 0.6626 0.8702 0.4345
C21 C 0.3841(3) 0.81743(17) 0.39100(8)
H22 H 0.3459 0.8570 0.4081
C22 C 0.2393(3) 0.8753(3) 0.34346(11)
H23 H 0.2662 0.9270 0.3546
H24 H 0.1664 0.8592 0.3562
C23 C 0.2119(4) 0.8811(3) 0.29840(12)
H25 H 0.1470 0.9193 0.2922
H26 H 0.1867 0.8295 0.2876
H27 H 0.2841 0.8984 0.2861
C24 C 0.3945(3) 0.73650(18) 0.41133(9)
C25 C 0.6044(2) 0.69741(16) 0.44400(8)
H28 H 0.6781 0.7309 0.4486
C26 C 0.6428(2) 0.62147(16) 0.42394(8)
C27 C 0.5663(3) 0.58145(17) 0.39562(9)
H29 H 0.4883 0.6017 0.3878
C28 C 0.6042(3) 0.51187(18) 0.37878(9)
H30 H 0.5516 0.4846 0.3595
C29 C 0.7174(3) 0.48200(17) 0.38982(9)
H31 H 0.7429 0.4346 0.3780
C30 C 0.7937(3) 0.52123(18) 0.41809(9)
H32 H 0.8715 0.5007 0.4259
C31 C 0.7563(3) 0.59077(17) 0.43504(8)
H33 H 0.8089 0.6176 0.4544
C32 C 0.5585(2) 0.68310(16) 0.48513(8)
C33 C 0.5794(2) 0.73981(17) 0.51501(8)
H34 H 0.6225 0.7864 0.5097
C34 C 0.5378(3) 0.72868(18) 0.55241(8)
H35 H 0.5519 0.7678 0.5727
C35 C 0.4756(3) 0.66093(18) 0.56051(9)
H36 H 0.4477 0.6533 0.5863
C36 C 0.4544(3) 0.60466(18) 0.53109(9)
H37 H 0.4111 0.5582 0.5365
C37 C 0.4961(3) 0.61570(17) 0.49363(8)
H38 H 0.4817 0.5764 0.4735
O5 O 0.8722(2) 0.71006(13) 0.50872(6)
O6 O 0.88367(18) 0.54810(12) 0.55774(7)
O7 O 0.8483(2) 0.51410(14) 0.64621(8)
O8 O 1.0197(2) 0.57261(13) 0.72298(7)
N3 N 0.9097(2) 0.72852(13) 0.57870(6)
N4 N 1.0399(2) 0.65162(14) 0.66556(7)
C38 C 1.0722(3) 0.82969(17) 0.57939(8)
C39 C 1.1286(3) 0.89357(17) 0.59881(10)
H39 H 1.0865 0.9238 0.6170
C40 C 1.2452(3) 0.91411(19) 0.59211(11)
H40 H 1.2831 0.9575 0.6060
C41 C 1.3063(3) 0.8715(2) 0.56520(11)
H41 H 1.3860 0.8858 0.5603
C42 C 1.2509(3) 0.8080(2) 0.54545(10)
H42 H 1.2928 0.7785 0.5269
C43 C 1.1346(3) 0.78715(19) 0.55254(9)
H43 H 1.0973 0.7433 0.5389
C44 C 0.9434(2) 0.81051(16) 0.58752(8)
H44 H 0.9384 0.8181 0.6171
C45 C 0.8528(2) 0.86737(16) 0.56621(8)
C46 C 0.7589(3) 0.89622(18) 0.58667(9)
H45 H 0.7519 0.8803 0.6137
C47 C 0.6754(3) 0.94793(19) 0.56820(10)
H46 H 0.6117 0.9674 0.5825
C48 C 0.6846(3) 0.97108(19) 0.52906(10)
H47 H 0.6268 1.0061 0.5163
C49 C 0.7782(3) 0.94335(18) 0.50823(9)
H48 H 0.7852 0.9598 0.4813
C50 C 0.8613(3) 0.89161(18) 0.52680(8)
H49 H 0.9250 0.8724 0.5124
C51 C 0.8700(2) 0.69128(18) 0.54379(9)
C52 C 0.8288(3) 0.61965(17) 0.56669(9)
H50 H 0.7391 0.6151 0.5648
C53 C 0.8052(3) 0.49341(18) 0.53719(10)
H51 H 0.7636 0.5185 0.5130
H52 H 0.7435 0.4762 0.5549
C54 C 0.8752(3) 0.42376(19) 0.52497(11)
H53 H 0.9164 0.3991 0.5490
H54 H 0.9349 0.4408 0.5069
H55 H 0.8203 0.3856 0.5110
C55 C 0.8793(2) 0.66301(17) 0.60605(8)
C56 C 0.7883(3) 0.68679(19) 0.63501(9)
H56 H 0.7632 0.6401 0.6494
H57 H 0.7179 0.7105 0.6199
H58 H 0.8249 0.7251 0.6544
C57 C 0.9897(3) 0.62060(16) 0.62612(8)
H59 H 1.0534 0.6136 0.6072
C58 C 0.9655(3) 0.54279(18) 0.64891(9)
H60 H 1.0234 0.5007 0.6424
C59 C 0.8344(4) 0.4318(2) 0.64712(12)
H61 H 0.9128 0.4082 0.6569
H62 H 0.8146 0.4132 0.6192
C60 C 0.7423(9) 0.4013(6) 0.6721(3)
H63 H 0.7669 0.4118 0.7005
H64 H 0.7333 0.3444 0.6679
H65 H 0.6653 0.4274 0.6644
C61 C 1.0110(3) 0.58667(18) 0.68719(9)
C62 C 1.1199(3) 0.71968(16) 0.67374(8)
H66 H 1.1200 0.7483 0.6475
C63 C 1.2504(3) 0.69460(17) 0.68463(8)
C64 C 1.3389(3) 0.71892(18) 0.66086(9)
H67 H 1.3182 0.7515 0.6381
C65 C 1.4572(3) 0.6961(2) 0.66992(9)
H68 H 1.5173 0.7137 0.6535
C66 C 1.4886(3) 0.6480(2) 0.70264(10)
H69 H 1.5697 0.6315 0.7085
C67 C 1.4012(3) 0.6245(2) 0.72645(10)
H70 H 1.4222 0.5918 0.7491
C68 C 1.2831(3) 0.64763(18) 0.71807(9)
H71 H 1.2239 0.6315 0.7352
C69 C 1.0752(3) 0.77891(18) 0.70309(9)
C70 C 1.1231(3) 0.85406(19) 0.70325(11)
H72 H 1.1834 0.8660 0.6858
C71 C 1.0851(4) 0.9119(2) 0.72818(13)
H73 H 1.1179 0.9635 0.7274
C72 C 0.9997(4) 0.8947(3) 0.75409(14)
H74 H 0.9716 0.9346 0.7709
C73 C 0.9552(4) 0.8191(3) 0.75557(14)
H75 H 0.8994 0.8064 0.7745
C74 C 0.9910(3) 0.7613(2) 0.72954(11)
H76 H 0.9576 0.7099 0.7300
C75? C 0.781(2) 0.4279(15) 0.6879(5)
H77? H 0.7043 0.4567 0.6862
H78? H 0.7667 0.3728 0.6949
H79? H 0.8370 0.4518 0.7087
loop_
_geom_bond_atom_site_label_1
_geom_bond_atom_site_label_2
_geom_bond_site_symmetry_1
_geom_bond_site_symmetry_2
O1 C14 1_555 1_555
O2 C15 1_555 1_555
O3 C21 1_555 1_555
O4 C24 1_555 1_555
O5 C51 1_555 1_555
O6 C52 1_555 1_555
O7 C58 1_555 1_555
O8 C61 1_555 1_555
N1 C7 1_555 1_555
N2 C19 1_555 1_555
N3 C44 1_555 1_555
N4 C57 1_555 1_555
C1 C2 1_555 1_555
C2 H1 1_555 1_555
C3 C2 1_555 1_555
H2 C3 1_555 1_555
C4 C3 1_555 1_555
H3 C4 1_555 1_555
C5 C4 1_555 1_555
H4 C5 1_555 1_555
C6 C1 1_555 1_555
H5 C6 1_555 1_555
C7 C1 1_555 1_555
H6 C7 1_555 1_555
C8 H7 1_555 1_555
C9 C8 1_555 1_555
H8 C9 1_555 1_555
C10 C9 1_555 1_555
H9 C10 1_555 1_555
C11 C10 1_555 1_555
H10 C11 1_555 1_555
C12 C11 1_555 1_555
H11 C12 1_555 1_555
C13 C7 1_555 1_555
C14 N1 1_555 1_555
C15 C14 1_555 1_555
H12 C15 1_555 1_555
C16 O2 1_555 1_555
H13 C16 1_555 1_555
H14 C16 1_555 1_555
C17 C16 1_555 1_555
H15 C17 1_555 1_555
H16 C17 1_555 1_555
H17 C17 1_555 1_555
C18 N1 1_555 1_555
H18 C18 1_555 1_555
C19 C18 1_555 1_555
C20 C19 1_555 1_555
H19 C20 1_555 1_555
H20 C20 1_555 1_555
H21 C20 1_555 1_555
C21 C19 1_555 1_555
H22 C21 1_555 1_555
C22 O3 1_555 1_555
H23 C22 1_555 1_555
H24 C22 1_555 1_555
C23 C22 1_555 1_555
H25 C23 1_555 1_555
H26 C23 1_555 1_555
H27 C23 1_555 1_555
C24 N2 1_555 1_555
C25 N2 1_555 1_555
H28 C25 1_555 1_555
C26 C25 1_555 1_555
C27 C26 1_555 1_555
H29 C27 1_555 1_555
C28 C27 1_555 1_555
H30 C28 1_555 1_555
C29 C28 1_555 1_555
H31 C29 1_555 1_555
C30 C29 1_555 1_555
H32 C30 1_555 1_555
C31 C26 1_555 1_555
H33 C31 1_555 1_555
C32 C25 1_555 1_555
C33 C32 1_555 1_555
H34 C33 1_555 1_555
C34 C33 1_555 1_555
H35 C34 1_555 1_555
C35 C34 1_555 1_555
H36 C35 1_555 1_555
C36 C35 1_555 1_555
H37 C36 1_555 1_555
C37 C32 1_555 1_555
H38 C37 1_555 1_555
C38 C39 1_555 1_555
C39 H39 1_555 1_555
C40 C39 1_555 1_555
H40 C40 1_555 1_555
C41 C40 1_555 1_555
H41 C41 1_555 1_555
C42 C41 1_555 1_555
H42 C42 1_555 1_555
C43 C38 1_555 1_555
H43 C43 1_555 1_555
C44 C38 1_555 1_555
H44 C44 1_555 1_555
C45 C44 1_555 1_555
C46 C45 1_555 1_555
H45 C46 1_555 1_555
C47 C46 1_555 1_555
H46 C47 1_555 1_555
C48 C47 1_555 1_555
H47 C48 1_555 1_555
C49 C48 1_555 1_555
H48 C49 1_555 1_555
C50 C45 1_555 1_555
H49 C50 1_555 1_555
C51 N3 1_555 1_555
C52 C51 1_555 1_555
H50 C52 1_555 1_555
C53 O6 1_555 1_555
H51 C53 1_555 1_555
H52 C53 1_555 1_555
C54 C53 1_555 1_555
H53 C54 1_555 1_555
H54 C54 1_555 1_555
H55 C54 1_555 1_555
C55 N3 1_555 1_555
C56 C55 1_555 1_555
H56 C56 1_555 1_555
H57 C56 1_555 1_555
H58 C56 1_555 1_555
C57 C55 1_555 1_555
H59 C57 1_555 1_555
C58 C57 1_555 1_555
H60 C58 1_555 1_555
C59 O7 1_555 1_555
H61 C59 1_555 1_555
H62 C59 1_555 1_555
C60 C59 1_555 1_555
H63 C60 1_555 1_555
H64 C60 1_555 1_555
H65 C60 1_555 1_555
C61 N4 1_555 1_555
C62 N4 1_555 1_555
H66 C62 1_555 1_555
C63 C62 1_555 1_555
C64 C63 1_555 1_555
H67 C64 1_555 1_555
C65 C64 1_555 1_555
H68 C65 1_555 1_555
C66 C65 1_555 1_555
H69 C66 1_555 1_555
C67 C66 1_555 1_555
H70 C67 1_555 1_555
C68 C63 1_555 1_555
H71 C68 1_555 1_555
C69 C62 1_555 1_555
C70 C69 1_555 1_555
H72 C70 1_555 1_555
C71 C70 1_555 1_555
H73 C71 1_555 1_555
C72 C71 1_555 1_555
H74 C72 1_555 1_555
C73 C72 1_555 1_555
H75 C73 1_555 1_555
C74 C69 1_555 1_555
H76 C74 1_555 1_555
C5 C6 1_555 1_555
C8 C13 1_555 1_555
C12 C13 1_555 1_555
C15 C18 1_555 1_555
C21 C24 1_555 1_555
C30 C31 1_555 1_555
C36 C37 1_555 1_555
C42 C43 1_555 1_555
C49 C50 1_555 1_555
C52 C55 1_555 1_555
C58 C61 1_555 1_555
C67 C68 1_555 1_555
C73 C74 1_555 1_555

#END
