
#######################################################################
#
#                 Cambridge Crystallographic Data Centre
#                                CCDC 
#
#######################################################################
#
# If this CIF has been generated from an entry in the Cambridge 
# Structural Database, then it will include bibliographic, chemical, 
# crystal, experimental, refinement or atomic coordinate data resulting 
# from the CCDC's data processing and validation procedures.
#
#######################################################################

data_BAGTIO
_chemical_formula_moiety         'C85 H22'
_chemical_name_systematic        
1,9-methano-6,12,15,18-tetraphenyl-C60fullerene
_symmetry_cell_setting           triclinic
_symmetry_space_group_name_H-M   'P -1'
_symmetry_Int_Tables_number      2
_space_group_name_Hall           '-P 1'
loop_
_symmetry_equiv_pos_site_id
_symmetry_equiv_pos_as_xyz
1 x,y,z
2 -x,-y,-z
_cell_length_a                   10.1128(5)
_cell_length_b                   13.3038(6)
_cell_length_c                   18.5144(7)
_cell_angle_alpha                98.099(3)
_cell_angle_beta                 107.418(3)
_cell_angle_gamma                108.860(3)
_cell_volume                     2169.79
_exptl_crystal_colour            red
_exptl_crystal_description       prism
_cell_formula_units_Z            2
loop_
_atom_site_label
_atom_site_type_symbol
_atom_site_fract_x
_atom_site_fract_y
_atom_site_fract_z
C1 C 0.9619(3) 0.0869(2) 0.79984(16)
C2 C 0.8159(3) 0.0555(2) 0.73462(15)
C3 C 0.7334(3) 0.1014(2) 0.76155(16)
C4 C 0.8242(3) 0.1715(2) 0.84162(16)
C5 C 0.9626(3) 0.1677(2) 0.86407(15)
C6 C 1.1029(3) 0.2600(2) 0.92519(16)
C7 C 1.2221(3) 0.2940(2) 0.88713(16)
C8 C 1.2229(3) 0.2277(2) 0.82319(17)
C9 C 1.1058(3) 0.1164(2) 0.77862(16)
C10 C 1.0762(3) 0.1131(2) 0.69392(17)
C11 C 0.9355(3) 0.0695(2) 0.63592(17)
C12 C 0.7883(3) 0.0131(2) 0.64871(16)
C13 C 0.6901(3) 0.0681(2) 0.60229(16)
C14 C 0.6025(3) 0.1107(2) 0.62971(16)
C15 C 0.5909(3) 0.1095(2) 0.71084(16)
C16 C 0.5998(3) 0.2255(2) 0.73907(16)
C17 C 0.6856(3) 0.2924(2) 0.81397(16)
C18 C 0.7815(3) 0.2584(2) 0.87955(16)
C19 C 0.9250(3) 0.3639(2) 0.91508(15)
C20 C 1.0683(3) 0.3647(2) 0.93397(15)
C21 C 1.1831(3) 0.4538(2) 0.92654(16)
C22 C 1.2788(3) 0.4106(2) 0.89809(16)
C23 C 1.3432(3) 0.4599(2) 0.84740(17)
C24 C 1.3453(3) 0.3896(2) 0.78196(18)
C25 C 1.2839(3) 0.2772(3) 0.76935(17)
C26 C 1.1935(3) 0.2064(2) 0.69126(17)
C27 C 1.1703(3) 0.2527(3) 0.62725(17)
C28 C 1.0232(3) 0.2090(2) 0.56664(16)
C29 C 0.9093(3) 0.1209(2) 0.57257(17)
C30 C 0.7582(3) 0.1201(2) 0.55190(15)
C31 C 0.7299(3) 0.2084(2) 0.52721(16)
C32 C 0.6356(3) 0.2506(2) 0.55578(16)
C33 C 0.5770(3) 0.2033(2) 0.60740(17)
C34 C 0.5754(3) 0.2744(2) 0.67430(17)
C35 C 0.6288(3) 0.3879(2) 0.68569(18)
C36 C 0.7182(3) 0.4574(2) 0.76386(18)
C37 C 0.7476(3) 0.4092(2) 0.82596(17)
C38 C 0.8945(3) 0.4527(2) 0.88764(16)
C39 C 1.0083(3) 0.5428(2) 0.88383(17)
C40 C 1.1570(3) 0.5436(2) 0.90379(17)
C41 C 1.2226(3) 0.5929(2) 0.85105(18)
C42 C 1.3118(3) 0.5512(2) 0.82377(18)
C43 C 1.2974(3) 0.5378(2) 0.74144(19)
C44 C 1.3171(3) 0.4384(2) 0.71574(18)
C45 C 1.2321(3) 0.3712(3) 0.64014(18)
C46 C 1.1226(3) 0.4007(3) 0.58757(17)
C47 C 0.9927(3) 0.3003(3) 0.54175(17)
C48 C 0.8485(3) 0.3000(2) 0.52204(17)
C49 C 0.8276(3) 0.3997(2) 0.54797(17)
C50 C 0.6959(3) 0.3692(2) 0.56893(17)
C51 C 0.6931(3) 0.4363(2) 0.63257(18)
C52 C 0.8210(3) 0.5362(2) 0.67805(18)
C53 C 0.8381(3) 0.5507(2) 0.76024(19)
C54 C 0.9797(3) 0.5915(2) 0.81804(19)
C55 C 1.1109(3) 0.6213(2) 0.79801(19)
C56 C 1.0966(3) 0.6094(2) 0.7194(2)
C57 C 1.1911(3) 0.5671(2) 0.69092(19)
C58 C 1.1017(3) 0.4975(3) 0.61208(19)
C59 C 0.9522(4) 0.4967(2) 0.59198(18)
C60 C 0.9490(4) 0.5663(2) 0.65860(19)
C61 C 1.0574(3) 0.0188(2) 0.80907(18)
C62 C 1.1672(3) 0.2365(2) 1.00464(16)
C63 C 1.2600(3) 0.3236(2) 1.07172(17)
C64 C 1.3206(3) 0.3042(3) 1.14199(19)
C65 C 1.2933(3) 0.1964(3) 1.14878(19)
C66 C 1.2070(3) 0.1116(3) 1.0849(2)
C67 C 1.1385(3) 0.1310(2) 1.01216(18)
C68 C 0.7073(3) 0.2205(2) 0.93749(16)
C69 C 0.7739(3) 0.1752(2) 0.99453(18)
C70 C 0.7058(4) 0.1381(3) 1.0446(2)
C71 C 0.5702(3) 0.1437(2) 1.03968(19)
C72 C 0.5062(3) 0.1895(3) 0.98541(19)
C73 C 0.5750(3) 0.2286(3) 0.93420(18)
C74 C 0.4451(3) 0.0210(2) 0.70678(17)
C75 C 0.4396(3) -0.0339(3) 0.76466(19)
C76 C 0.3085(3) -0.1148(3) 0.7588(2)
C77 C 0.1774(3) -0.1404(2) 0.6939(2)
C78 C 0.1800(3) -0.0858(2) 0.63853(19)
C79 C 0.3137(3) -0.0044(2) 0.64378(17)
C80 C 0.7199(3) -0.1136(2) 0.62100(16)
C81 C 0.6079(4) -0.1725(3) 0.64455(18)
C82 C 0.5440(4) -0.2911(3) 0.62267(19)
C83 C 0.6007(4) -0.3413(3) 0.57554(19)
C84 C 0.7074(3) -0.2872(3) 0.5472(2)
C85 C 0.7651(3) -0.1712(3) 0.5711(2)
H1 H 1.0151 -0.0548 0.7717
H2 H 1.1189 0.0229 0.8631
H3 H 1.2811 0.3973 1.0682
H4 H 1.392(3) 0.365(2) 1.191(2)
H5 H 1.3355 0.1835 1.1981
H6 H 1.1916 0.0384 1.0884
H7 H 1.0721 0.0703 0.9682
H8 H 0.5290 0.2610 0.8968
H9 H 0.4134 0.1951 0.9821
H10 H 0.5221 0.1160 1.0737
H11 H 0.7530 0.1080 1.0834
H12 H 0.8673 0.1702 0.9986
H13 H 0.3142 0.0336 0.6040
H14 H 0.0901 -0.1025 0.5952
H15 H 0.0863 -0.1966 0.6891
H16 H 0.3069 -0.1530 0.7984
H17 H 0.5282 -0.0153 0.8093
H18 H 0.8378 -0.1308 0.5522
H19 H 0.7401 -0.3257 0.5136
H20 H 0.5629 -0.4195 0.5616
H21 H 0.4681 -0.3321 0.6394
H22 H 0.5719 -0.1337 0.6761
loop_
_geom_bond_atom_site_label_1
_geom_bond_atom_site_label_2
_geom_bond_site_symmetry_1
_geom_bond_site_symmetry_2
C1 C2 1_555 1_555
C2 C3 1_555 1_555
C3 C4 1_555 1_555
C4 C5 1_555 1_555
C5 C1 1_555 1_555
C6 C5 1_555 1_555
C7 C6 1_555 1_555
C8 C7 1_555 1_555
C9 C1 1_555 1_555
C10 C9 1_555 1_555
C11 C10 1_555 1_555
C12 C2 1_555 1_555
C13 C12 1_555 1_555
C14 C13 1_555 1_555
C15 C3 1_555 1_555
C16 C15 1_555 1_555
C17 C16 1_555 1_555
C18 C4 1_555 1_555
C19 C18 1_555 1_555
C20 C6 1_555 1_555
C21 C20 1_555 1_555
C22 C7 1_555 1_555
C23 C22 1_555 1_555
C24 C23 1_555 1_555
C25 C8 1_555 1_555
C26 C10 1_555 1_555
C27 C26 1_555 1_555
C28 C27 1_555 1_555
C29 C11 1_555 1_555
C30 C13 1_555 1_555
C31 C30 1_555 1_555
C32 C31 1_555 1_555
C33 C14 1_555 1_555
C34 C16 1_555 1_555
C35 C34 1_555 1_555
C36 C35 1_555 1_555
C37 C17 1_555 1_555
C38 C19 1_555 1_555
C39 C38 1_555 1_555
C40 C21 1_555 1_555
C41 C40 1_555 1_555
C42 C23 1_555 1_555
C43 C42 1_555 1_555
C44 C24 1_555 1_555
C45 C27 1_555 1_555
C46 C45 1_555 1_555
C47 C28 1_555 1_555
C48 C31 1_555 1_555
C49 C48 1_555 1_555
C50 C32 1_555 1_555
C51 C35 1_555 1_555
C52 C51 1_555 1_555
C53 C36 1_555 1_555
C54 C39 1_555 1_555
C55 C41 1_555 1_555
C56 C55 1_555 1_555
C57 C43 1_555 1_555
C58 C46 1_555 1_555
C59 C49 1_555 1_555
C60 C52 1_555 1_555
C61 C1 1_555 1_555
C62 C6 1_555 1_555
C63 C62 1_555 1_555
C64 C63 1_555 1_555
C65 C64 1_555 1_555
C66 C65 1_555 1_555
C67 C62 1_555 1_555
C68 C18 1_555 1_555
C69 C68 1_555 1_555
C70 C69 1_555 1_555
C71 C70 1_555 1_555
C72 C71 1_555 1_555
C73 C68 1_555 1_555
C74 C15 1_555 1_555
C75 C74 1_555 1_555
C76 C75 1_555 1_555
C77 C76 1_555 1_555
C78 C77 1_555 1_555
C79 C74 1_555 1_555
C80 C12 1_555 1_555
C81 C80 1_555 1_555
C82 C81 1_555 1_555
C83 C82 1_555 1_555
C84 C83 1_555 1_555
C85 C80 1_555 1_555
H1 C61 1_555 1_555
H2 C61 1_555 1_555
H3 C63 1_555 1_555
H4 C64 1_555 1_555
H5 C65 1_555 1_555
H6 C66 1_555 1_555
H7 C67 1_555 1_555
H8 C73 1_555 1_555
H9 C72 1_555 1_555
H10 C71 1_555 1_555
H11 C70 1_555 1_555
H12 C69 1_555 1_555
H13 C79 1_555 1_555
H14 C78 1_555 1_555
H15 C77 1_555 1_555
H16 C76 1_555 1_555
H17 C75 1_555 1_555
H18 C85 1_555 1_555
H19 C84 1_555 1_555
H20 C83 1_555 1_555
H21 C82 1_555 1_555
H22 C81 1_555 1_555
C8 C9 1_555 1_555
C9 C61 1_555 1_555
C11 C12 1_555 1_555
C14 C15 1_555 1_555
C17 C18 1_555 1_555
C19 C20 1_555 1_555
C21 C22 1_555 1_555
C24 C25 1_555 1_555
C25 C26 1_555 1_555
C28 C29 1_555 1_555
C29 C30 1_555 1_555
C32 C33 1_555 1_555
C33 C34 1_555 1_555
C36 C37 1_555 1_555
C37 C38 1_555 1_555
C39 C40 1_555 1_555
C41 C42 1_555 1_555
C43 C44 1_555 1_555
C44 C45 1_555 1_555
C46 C47 1_555 1_555
C47 C48 1_555 1_555
C49 C50 1_555 1_555
C50 C51 1_555 1_555
C52 C53 1_555 1_555
C53 C54 1_555 1_555
C54 C55 1_555 1_555
C56 C57 1_555 1_555
C56 C60 1_555 1_555
C57 C58 1_555 1_555
C58 C59 1_555 1_555
C59 C60 1_555 1_555
C66 C67 1_555 1_555
C72 C73 1_555 1_555
C78 C79 1_555 1_555
C84 C85 1_555 1_555

#END
