
#######################################################################
#
#                 Cambridge Crystallographic Data Centre
#                                CCDC 
#
#######################################################################
#
# If this CIF has been generated from an entry in the Cambridge 
# Structural Database, then it will include bibliographic, chemical, 
# crystal, experimental, refinement or atomic coordinate data resulting 
# from the CCDC's data processing and validation procedures.
#
#######################################################################

data_BAGTOT
_chemical_formula_moiety         'C8 H8 O2 Se1'
_chemical_name_systematic        1-(Vinylselenonyl)benzene
_symmetry_cell_setting           orthorhombic
_symmetry_space_group_name_H-M   'P b c n'
_symmetry_Int_Tables_number      60
_space_group_name_Hall           '-P 2n 2ab'
loop_
_symmetry_equiv_pos_site_id
_symmetry_equiv_pos_as_xyz
1 x,y,z
2 1/2-x,1/2-y,1/2+z
3 1/2+x,1/2-y,-z
4 -x,y,1/2-z
5 -x,-y,-z
6 1/2+x,1/2+y,1/2-z
7 1/2-x,1/2+y,z
8 x,-y,1/2+z
_cell_length_a                   9.865(8)
_cell_length_b                   10.491(4)
_cell_length_c                   15.775(4)
_cell_angle_alpha                90
_cell_angle_beta                 90
_cell_angle_gamma                90
_cell_volume                     1632.61
_exptl_crystal_colour            colorless
_exptl_crystal_description       block
_chemical_melting_point          '387-389 K'
_cell_formula_units_Z            8
_exptl_crystal_recrystallization_method deuterochloroform
loop_
_atom_site_label
_atom_site_type_symbol
_atom_site_fract_x
_atom_site_fract_y
_atom_site_fract_z
Se1 Se 0.23735(3) 0.17755(3) 0.058565(15)
O1 O 0.3782(2) 0.1432(2) 0.10573(13)
O2 O 0.1862(3) 0.32353(19) 0.06611(13)
C1 C 0.0985(3) 0.0694(3) 0.10167(18)
H1 H 0.1076 -0.0206 0.0991
C2 C 0.2560(3) 0.1376(3) -0.05895(16)
C3 C -0.0084(3) 0.1210(3) 0.1346(2)
H2 H -0.0165 0.2112 0.1368
H3 H -0.0788 0.0687 0.1564
C4 C 0.1742(3) 0.2035(3) -0.11711(18)
H4 H 0.1066 0.2618 -0.0988
C5 C 0.1963(3) 0.1796(3) -0.20258(19)
H5 H 0.1431 0.2225 -0.2439
C6 C 0.2946(3) 0.0942(3) -0.22819(18)
H6 H 0.3096 0.0804 -0.2870
C7 C 0.3717(3) 0.0283(3) -0.16913(18)
H7 H 0.4374 -0.0319 -0.1875
C8 C 0.3527(3) 0.0505(3) -0.08339(18)
H8 H 0.4054 0.0065 -0.0423
loop_
_geom_bond_atom_site_label_1
_geom_bond_atom_site_label_2
_geom_bond_site_symmetry_1
_geom_bond_site_symmetry_2
Se1 O1 1_555 1_555
O2 Se1 1_555 1_555
C1 Se1 1_555 1_555
H1 C1 1_555 1_555
C2 Se1 1_555 1_555
C3 C1 1_555 1_555
H2 C3 1_555 1_555
H3 C3 1_555 1_555
C4 C2 1_555 1_555
H4 C4 1_555 1_555
C5 C4 1_555 1_555
H5 C5 1_555 1_555
C6 C5 1_555 1_555
H6 C6 1_555 1_555
C7 C6 1_555 1_555
H7 C7 1_555 1_555
C8 C2 1_555 1_555
H8 C8 1_555 1_555
C7 C8 1_555 1_555

#END
