
#######################################################################
#
#                 Cambridge Crystallographic Data Centre
#                                CCDC 
#
#######################################################################
#
# If this CIF has been generated from an entry in the Cambridge 
# Structural Database, then it will include bibliographic, chemical, 
# crystal, experimental, refinement or atomic coordinate data resulting 
# from the CCDC's data processing and validation procedures.
#
#######################################################################

data_BAGWIQ
_chemical_formula_moiety         'C7 H6 Br1 N1 O1'
_chemical_name_systematic        'anti-4-bromobenzaldehyde oxime'
_symmetry_cell_setting           orthorhombic
_symmetry_space_group_name_H-M   'P 21 21 21'
_symmetry_Int_Tables_number      19
_space_group_name_Hall           'P 2ac 2ab'
loop_
_symmetry_equiv_pos_site_id
_symmetry_equiv_pos_as_xyz
1 x,y,z
2 1/2-x,-y,1/2+z
3 1/2+x,1/2-y,-z
4 -x,1/2+y,1/2-z
_cell_length_a                   6.608(2)
_cell_length_b                   23.111(10)
_cell_length_c                   4.687(4)
_cell_angle_alpha                90
_cell_angle_beta                 90
_cell_angle_gamma                90
_cell_volume                     715.787
_exptl_crystal_colour            tan
_exptl_crystal_description       plate
_cell_formula_units_Z            4
loop_
_atom_site_label
_atom_site_type_symbol
_atom_site_fract_x
_atom_site_fract_y
_atom_site_fract_z
Br1 Br -0.77084(7) 0.19824(2) 0.05718(12)
O1 O 0.0542(5) 0.01673(16) 0.1253(8)
H1 H 0.1460 -0.0019 0.0654
N1 N 0.1156(6) 0.03880(18) 0.3883(9)
C1 C -0.1903(6) 0.10297(19) 0.3731(9)
C2 C -0.2515(7) 0.15537(19) 0.4959(8)
H2 H -0.1738 0.1717 0.6463
C3 C -0.4224(7) 0.18366(19) 0.4026(11)
H3 H -0.4604 0.2198 0.4826
C4 C -0.5370(7) 0.1585(2) 0.1912(11)
C5 C -0.4868(7) 0.1064(2) 0.0708(12)
H4 H -0.5698 0.0896 -0.0725
C6 C -0.3116(7) 0.0784(2) 0.1628(11)
H5 H -0.2747 0.0423 0.0813
C7 C -0.0044(7) 0.0771(2) 0.4901(10)
H6 H 0.0331 0.0912 0.6729
loop_
_geom_bond_atom_site_label_1
_geom_bond_atom_site_label_2
_geom_bond_site_symmetry_1
_geom_bond_site_symmetry_2
Br1 C4 1_555 1_555
O1 H1 1_555 1_555
N1 O1 1_555 1_555
C1 C2 1_555 1_555
C2 H2 1_555 1_555
C3 C2 1_555 1_555
H3 C3 1_555 1_555
C4 C3 1_555 1_555
C5 C4 1_555 1_555
H4 C5 1_555 1_555
C6 C1 1_555 1_555
H5 C6 1_555 1_555
C7 N1 1_555 1_555
H6 C7 1_555 1_555
C1 C7 1_555 1_555
C5 C6 1_555 1_555

#END
