
#######################################################################
#
#                 Cambridge Crystallographic Data Centre
#                                CCDC 
#
#######################################################################
#
# If this CIF has been generated from an entry in the Cambridge 
# Structural Database, then it will include bibliographic, chemical, 
# crystal, experimental, refinement or atomic coordinate data resulting 
# from the CCDC's data processing and validation procedures.
#
#######################################################################

data_BAGWOW
_chemical_formula_moiety         'C7 H6 Br1 N1 O1'
_chemical_name_systematic        'syn-4-bromobenzaldehyde oxime'
_symmetry_cell_setting           monoclinic
_symmetry_space_group_name_H-M   'P 21/c'
_symmetry_Int_Tables_number      14
_space_group_name_Hall           '-P 2ybc'
loop_
_symmetry_equiv_pos_site_id
_symmetry_equiv_pos_as_xyz
1 x,y,z
2 -x,1/2+y,1/2-z
3 -x,-y,-z
4 x,1/2-y,1/2+z
_cell_length_a                   6.161(4)
_cell_length_b                   4.766(6)
_cell_length_c                   25.187(3)
_cell_angle_alpha                90
_cell_angle_beta                 94.00(3)
_cell_angle_gamma                90
_cell_volume                     737.773
_exptl_crystal_colour            colorless
_exptl_crystal_description       plate
_cell_formula_units_Z            4
loop_
_atom_site_label
_atom_site_type_symbol
_atom_site_fract_x
_atom_site_fract_y
_atom_site_fract_z
Br1 Br 0.09301(4) 0.16374(6) 0.201941(10)
O1 O 0.7490(3) -0.9805(5) 0.02672(8)
H1 H 0.6659 -1.0570 -0.0009
N1 N 0.5840(4) -0.8074(5) 0.04471(9)
C1 C 0.5140(4) -0.4592(6) 0.11003(11)
C2 C 0.5955(5) -0.3388(6) 0.15778(11)
H2 H 0.7380 -0.3855 0.1719
C3 C 0.4708(5) -0.1512(6) 0.18508(11)
H3 H 0.5262 -0.0693 0.2176
C4 C 0.2641(4) -0.0871(6) 0.16351(10)
C5 C 0.1801(5) -0.1988(6) 0.11558(11)
H4 H 0.0391 -0.1477 0.1011
C6 C 0.3068(5) -0.3871(6) 0.08921(11)
H5 H 0.2511 -0.4675 0.0565
C7 C 0.6537(5) -0.6587(6) 0.08406(11)
H6 H 0.8014 -0.6772 0.0971
loop_
_geom_bond_atom_site_label_1
_geom_bond_atom_site_label_2
_geom_bond_site_symmetry_1
_geom_bond_site_symmetry_2
Br1 C4 1_555 1_555
O1 H1 1_555 1_555
N1 O1 1_555 1_555
C1 C2 1_555 1_555
C2 H2 1_555 1_555
C3 C2 1_555 1_555
H3 C3 1_555 1_555
C4 C3 1_555 1_555
C5 C4 1_555 1_555
H4 C5 1_555 1_555
C6 C1 1_555 1_555
H5 C6 1_555 1_555
C7 N1 1_555 1_555
H6 C7 1_555 1_555
C1 C7 1_555 1_555
C5 C6 1_555 1_555

#END
