
#######################################################################
#
#                 Cambridge Crystallographic Data Centre
#                                CCDC 
#
#######################################################################
#
# If this CIF has been generated from an entry in the Cambridge 
# Structural Database, then it will include bibliographic, chemical, 
# crystal, experimental, refinement or atomic coordinate data resulting 
# from the CCDC's data processing and validation procedures.
#
#######################################################################

data_BAGWOW01
_chemical_formula_moiety         'C7 H6 Br1 N1 O1'
_chemical_name_systematic        1-(4-Bromophenyl)-N-hydroxymethanimine
_symmetry_cell_setting           monoclinic
_symmetry_space_group_name_H-M   'P 21/c'
_symmetry_Int_Tables_number      14
_space_group_name_Hall           '-P 2ybc'
loop_
_symmetry_equiv_pos_site_id
_symmetry_equiv_pos_as_xyz
1 x,y,z
2 -x,1/2+y,1/2-z
3 -x,-y,-z
4 x,1/2-y,1/2+z
_cell_length_a                   6.1832(7)
_cell_length_b                   4.7807(6)
_cell_length_c                   25.509(5)
_cell_angle_alpha                90
_cell_angle_beta                 94.353(15)
_cell_angle_gamma                90
_cell_volume                     751.871
_exptl_crystal_colour            colorless
_exptl_crystal_description       block
_cell_formula_units_Z            4
loop_
_atom_site_label
_atom_site_type_symbol
_atom_site_fract_x
_atom_site_fract_y
_atom_site_fract_z
Br1 Br 0.90674(5) 0.35709(6) 0.298589(12)
C1 C 0.7363(4) 0.6040(5) 0.33657(11)
O1 O 0.2529(4) 1.4813(5) 0.47287(10)
H1 H 0.3007 1.5680 0.4990
C2 C 0.4866(4) 0.9720(6) 0.38961(11)
C3 C 0.3487(5) 1.1665(6) 0.41558(13)
H2 H 0.2047 1.1857 0.4026
C4 C 0.5318(5) 0.6724(6) 0.31535(12)
H3 H 0.4779 0.5962 0.2835
N1 N 0.4166(4) 1.3104(5) 0.45501(10)
C5 C 0.6922(5) 0.8947(6) 0.41001(12)
H4 H 0.7469 0.9694 0.4420
C6 C 0.8165(4) 0.7112(6) 0.38414(12)
H5 H 0.9534 0.6596 0.3986
C7 C 0.4089(5) 0.8549(6) 0.34205(13)
H6 H 0.2704 0.9013 0.3280
loop_
_geom_bond_atom_site_label_1
_geom_bond_atom_site_label_2
_geom_bond_site_symmetry_1
_geom_bond_site_symmetry_2
Br1 C1 1_555 1_555
C1 C4 1_555 1_555
O1 H1 1_555 1_555
C2 C3 1_555 1_555
C3 H2 1_555 1_555
C4 H3 1_555 1_555
N1 O1 1_555 1_555
C5 C2 1_555 1_555
H4 C5 1_555 1_555
C6 C1 1_555 1_555
H5 C6 1_555 1_555
C7 C2 1_555 1_555
H6 C7 1_555 1_555
C3 N1 1_555 1_555
C4 C7 1_555 1_555
C5 C6 1_555 1_555

#END
