
#######################################################################
#
#                 Cambridge Crystallographic Data Centre
#                                CCDC 
#
#######################################################################
#
# If this CIF has been generated from an entry in the Cambridge 
# Structural Database, then it will include bibliographic, chemical, 
# crystal, experimental, refinement or atomic coordinate data resulting 
# from the CCDC's data processing and validation procedures.
#
#######################################################################

data_BAGWEM
_chemical_formula_moiety         'C55 H43 N1 O7,2(C1 H1 Cl3)'
_chemical_name_systematic        
'(1\a,2\b,3\a,4\b,5\a,12\a,13\b,14\a,15bet a,16\a,17\b,18\a, 25\a,26\b)-N-(2-methoxyethyl)-5,12,18,25-tetraphenyl-27,28,29,30-tetraoxadeca-cyclo-(14.10.1.1^3,14^.1^5,12^.1^18,25^.0^2,15^.0^4,13^.0^6,11^.0^17,26^.0^19,24^) triaconta-6,8,10,19,21,23-hexaen-2,15-carboximide chloroform solvate'
_symmetry_cell_setting           orthorhombic
_symmetry_space_group_name_H-M   'P 21 21 21'
_symmetry_Int_Tables_number      19
_space_group_name_Hall           'P 2ac 2ab'
loop_
_symmetry_equiv_pos_site_id
_symmetry_equiv_pos_as_xyz
1 x,y,z
2 1/2-x,-y,1/2+z
3 1/2+x,1/2-y,-z
4 -x,1/2+y,1/2-z
_cell_length_a                   18.675(9)
_cell_length_b                   23.928(8)
_cell_length_c                   11.356(8)
_cell_angle_alpha                90
_cell_angle_beta                 90
_cell_angle_gamma                90
_cell_volume                     5074.49
_exptl_crystal_colour            colorless
_exptl_crystal_description       block
_cell_formula_units_Z            4
loop_
_atom_site_label
_atom_site_type_symbol
_atom_site_fract_x
_atom_site_fract_y
_atom_site_fract_z
Cl1 Cl 0.46569(17) 0.29232(12) 0.5623(3)
Cl2 Cl 0.37790(18) 0.26239(14) 0.7618(3)
Cl3 Cl 0.3589(2) 0.36835(17) 0.6446(3)
C1 C 0.4206(6) 0.3183(5) 0.6879(11)
H1 H 0.4555 0.3355 0.7411
Cl4 Cl 0.2406(3) 0.47644(17) 0.5558(4)
Cl5 Cl 0.1749(3) 0.5144(2) 0.3438(4)
Cl6 Cl 0.1655(4) 0.4007(2) 0.4146(5)
C2 C 0.2163(8) 0.4576(6) 0.4107(13)
H2 H 0.2600 0.4489 0.3667
O1 O 0.4801(3) 0.3559(3) -0.0542(6)
O2 O 0.4708(5) 0.1922(3) 0.0599(9)
O3 O 0.5166(3) 0.2727(3) 0.3041(6)
O4 O 0.4253(3) 0.4462(3) 0.2835(5)
O5 O 0.3162(3) 0.3749(3) 0.2365(5)
O6 O 0.2166(3) 0.2941(3) 0.1797(6)
O7 O 0.5453(3) 0.5089(2) 0.3289(5)
N1 N 0.5057(4) 0.3049(3) 0.1130(7)
C3 C 0.4496(5) 0.4403(4) 0.1647(8)
H3 H 0.4307 0.4685 0.1102
C4 C 0.4259(4) 0.3791(4) 0.1366(8)
C5 C 0.4720(5) 0.3472(4) 0.0514(10)
C6 C 0.5549(5) 0.2651(4) 0.0594(9)
H4 H 0.5830 0.2474 0.1208
H5 H 0.5876 0.2850 0.0081
C7 C 0.5168(6) 0.2204(5) -0.0109(11)
H6 H 0.4907 0.2374 -0.0754
H7 H 0.5516 0.1947 -0.0439
C8 C 0.4335(7) 0.1482(5) -0.0044(14)
H8 H 0.4010 0.1294 0.0477
H9 H 0.4678 0.1220 -0.0346
H10 H 0.4072 0.1644 -0.0685
C9 C 0.3427(5) 0.3712(4) 0.1174(8)
H11 H 0.3213 0.3984 0.0632
C10 C 0.3268(5) 0.3091(4) 0.0853(8)
H12 H 0.3581 0.2950 0.0228
C11 C 0.1347(9) 0.4212(6) -0.1378(19)
H13 H 0.1097 0.4484 -0.1796
C12 C 0.1717(8) 0.3808(7) -0.1963(14)
H14 H 0.1735 0.3812 -0.2781
C13 C 0.2080(6) 0.3377(5) -0.1319(11)
H15 H 0.2326 0.3095 -0.1714
C14 C 0.2458(5) 0.2962(4) 0.0618(8)
C15 C 0.2059(5) 0.3386(4) -0.0123(10)
C16 C 0.1686(6) 0.3811(5) 0.0462(14)
H16 H 0.1667 0.3822 0.1280
C17 C 0.1345(7) 0.4217(6) -0.0216(17)
H17 H 0.1104 0.4504 0.0168
C18 C 0.2428(4) 0.2334(4) 0.0323(8)
C19 C 0.2339(5) 0.2028(4) -0.0678(10)
H18 H 0.2287 0.2208 -0.1399
C20 C 0.2327(5) 0.1451(5) -0.0626(10)
H19 H 0.2252 0.1242 -0.1306
C21 C 0.2427(6) 0.1184(4) 0.0446(10)
H20 H 0.2410 0.0796 0.0481
C22 C 0.2553(5) 0.1492(4) 0.1478(9)
H21 H 0.2632 0.1315 0.2196
C23 C 0.2554(5) 0.2061(4) 0.1384(9)
C24 C 0.2097(9) 0.2078(7) 0.5802(12)
H22 H 0.1970 0.1961 0.6555
C25 C 0.1633(8) 0.2398(6) 0.5174(11)
H23 H 0.1206 0.2515 0.5515
C26 C 0.1794(6) 0.2550(5) 0.4031(9)
H24 H 0.1471 0.2760 0.3591
C27 C 0.2638(5) 0.2529(4) 0.2297(9)
C28 C 0.2450(6) 0.2386(4) 0.3540(9)
C29 C 0.2925(7) 0.2075(5) 0.4199(10)
H25 H 0.3360 0.1968 0.3871
C30 C 0.2762(7) 0.1920(5) 0.5341(11)
H26 H 0.3086 0.1716 0.5791
C31 C 0.3399(4) 0.2794(4) 0.2060(8)
H27 H 0.3783 0.2515 0.2028
C32 C 0.3583(5) 0.3299(4) 0.2855(9)
H28 H 0.3492 0.3233 0.3694
C33 C 0.4888(5) 0.3034(4) 0.2338(8)
C34 C 0.4364(4) 0.3500(3) 0.2586(7)
C35 C 0.4620(5) 0.3991(4) 0.3325(8)
H29 H 0.4537 0.3942 0.4171
C36 C 0.5429(5) 0.4116(4) 0.3006(8)
H30 H 0.5722 0.3778 0.2946
C37 C 0.5848(6) 0.4004(5) 0.6856(10)
H31 H 0.6047 0.3703 0.7256
C38 C 0.5948(6) 0.4057(5) 0.5646(9)
H32 H 0.6194 0.3784 0.5229
C39 C 0.5787(5) 0.4584(4) 0.3766(9)
C40 C 0.5674(5) 0.4526(4) 0.5061(9)
C41 C 0.5293(6) 0.4921(4) 0.5702(9)
H33 H 0.5110 0.5234 0.5324
C42 C 0.5182(7) 0.4852(6) 0.6899(10)
H34 H 0.4921 0.5118 0.7315
C43 C 0.5449(7) 0.4403(6) 0.7468(10)
H35 H 0.5368 0.4359 0.8270
C44 C 0.6538(5) 0.4644(4) 0.3273(8)
C45 C 0.7205(6) 0.4493(4) 0.3673(9)
H36 H 0.7260 0.4308 0.4387
C46 C 0.7799(6) 0.4627(5) 0.2978(10)
H37 H 0.8255 0.4527 0.3229
C47 C 0.7716(6) 0.4903(5) 0.1932(10)
H38 H 0.8118 0.5001 0.1494
C48 C 0.7030(5) 0.5040(4) 0.1515(9)
H39 H 0.6971 0.5214 0.0788
C49 C 0.6451(5) 0.4914(4) 0.2203(8)
C50 C 0.5212(6) 0.5991(4) 0.1781(10)
H40 H 0.5163 0.6028 0.2593
C51 C 0.5056(7) 0.6435(5) 0.1062(11)
H41 H 0.4901 0.6769 0.1396
C52 C 0.5125(7) 0.6400(5) -0.0147(11)
H42 H 0.5014 0.6702 -0.0629
C53 C 0.5362(6) 0.5904(4) -0.0614(10)
H43 H 0.5429 0.5874 -0.1423
C54 C 0.5503(5) 0.5446(5) 0.0096(9)
H44 H 0.5642 0.5109 -0.0239
C55 C 0.5648(5) 0.5005(4) 0.2062(8)
C56 C 0.5438(5) 0.5493(4) 0.1315(8)
C57 C 0.5316(5) 0.4415(4) 0.1793(8)
H45 H 0.5563 0.4223 0.1148
loop_
_geom_bond_atom_site_label_1
_geom_bond_atom_site_label_2
_geom_bond_site_symmetry_1
_geom_bond_site_symmetry_2
Cl1 C1 1_555 1_555
Cl2 C1 1_555 1_555
Cl3 C1 1_555 1_555
C1 H1 1_555 1_555
Cl4 C2 1_555 1_555
Cl5 C2 1_555 1_555
Cl6 C2 1_555 1_555
C2 H2 1_555 1_555
O1 C5 1_555 1_555
O2 C7 1_555 1_555
O3 C33 1_555 1_555
O4 C3 1_555 1_555
O5 C9 1_555 1_555
O6 C14 1_555 1_555
O7 C39 1_555 1_555
N1 C5 1_555 1_555
C3 H3 1_555 1_555
C4 C3 1_555 1_555
C5 C4 1_555 1_555
C6 N1 1_555 1_555
H4 C6 1_555 1_555
H5 C6 1_555 1_555
C7 C6 1_555 1_555
H6 C7 1_555 1_555
H7 C7 1_555 1_555
C8 O2 1_555 1_555
H8 C8 1_555 1_555
H9 C8 1_555 1_555
H10 C8 1_555 1_555
C9 C4 1_555 1_555
H11 C9 1_555 1_555
C10 C9 1_555 1_555
H12 C10 1_555 1_555
C11 H13 1_555 1_555
C12 C11 1_555 1_555
H14 C12 1_555 1_555
C13 C12 1_555 1_555
H15 C13 1_555 1_555
C14 C10 1_555 1_555
C15 C13 1_555 1_555
C16 C15 1_555 1_555
H16 C16 1_555 1_555
C17 C11 1_555 1_555
H17 C17 1_555 1_555
C18 C14 1_555 1_555
C19 C18 1_555 1_555
H18 C19 1_555 1_555
C20 C19 1_555 1_555
H19 C20 1_555 1_555
C21 C20 1_555 1_555
H20 C21 1_555 1_555
C22 C21 1_555 1_555
H21 C22 1_555 1_555
C23 C18 1_555 1_555
C24 H22 1_555 1_555
C25 C24 1_555 1_555
H23 C25 1_555 1_555
C26 C25 1_555 1_555
H24 C26 1_555 1_555
C27 O6 1_555 1_555
C28 C26 1_555 1_555
C29 C28 1_555 1_555
H25 C29 1_555 1_555
C30 C24 1_555 1_555
H26 C30 1_555 1_555
C31 C10 1_555 1_555
H27 C31 1_555 1_555
C32 O5 1_555 1_555
H28 C32 1_555 1_555
C33 N1 1_555 1_555
C34 C4 1_555 1_555
C35 O4 1_555 1_555
H29 C35 1_555 1_555
C36 C35 1_555 1_555
H30 C36 1_555 1_555
C37 H31 1_555 1_555
C38 C37 1_555 1_555
H32 C38 1_555 1_555
C39 C36 1_555 1_555
C40 C38 1_555 1_555
C41 C40 1_555 1_555
H33 C41 1_555 1_555
C42 C41 1_555 1_555
H34 C42 1_555 1_555
C43 C37 1_555 1_555
H35 C43 1_555 1_555
C44 C39 1_555 1_555
C45 C44 1_555 1_555
H36 C45 1_555 1_555
C46 C45 1_555 1_555
H37 C46 1_555 1_555
C47 C46 1_555 1_555
H38 C47 1_555 1_555
C48 C47 1_555 1_555
H39 C48 1_555 1_555
C49 C44 1_555 1_555
C50 H40 1_555 1_555
C51 C50 1_555 1_555
H41 C51 1_555 1_555
C52 C51 1_555 1_555
H42 C52 1_555 1_555
C53 C52 1_555 1_555
H43 C53 1_555 1_555
C54 C53 1_555 1_555
H44 C54 1_555 1_555
C55 O7 1_555 1_555
C56 C50 1_555 1_555
C57 C3 1_555 1_555
H45 C57 1_555 1_555
C14 C15 1_555 1_555
C16 C17 1_555 1_555
C22 C23 1_555 1_555
C23 C27 1_555 1_555
C27 C28 1_555 1_555
C27 C31 1_555 1_555
C29 C30 1_555 1_555
C31 C32 1_555 1_555
C32 C34 1_555 1_555
C33 C34 1_555 1_555
C34 C35 1_555 1_555
C36 C57 1_555 1_555
C39 C40 1_555 1_555
C42 C43 1_555 1_555
C48 C49 1_555 1_555
C49 C55 1_555 1_555
C54 C56 1_555 1_555
C55 C56 1_555 1_555
C55 C57 1_555 1_555

#END
