
#######################################################################
#
#                 Cambridge Crystallographic Data Centre
#                                CCDC 
#
#######################################################################
#
# If this CIF has been generated from an entry in the Cambridge 
# Structural Database, then it will include bibliographic, chemical, 
# crystal, experimental, refinement or atomic coordinate data resulting 
# from the CCDC's data processing and validation procedures.
#
#######################################################################

data_BAGXAJ
_chemical_formula_moiety         'C29 H22 O4'
_chemical_name_systematic        
1-(2,4-bis(benzyloxy)-6-hydroxyphenyl)-3-phenyl-2-propyn-1-one
_symmetry_cell_setting           triclinic
_symmetry_space_group_name_H-M   'P -1'
_symmetry_Int_Tables_number      2
_space_group_name_Hall           '-P 1'
loop_
_symmetry_equiv_pos_site_id
_symmetry_equiv_pos_as_xyz
1 x,y,z
2 -x,-y,-z
_cell_length_a                   10.795(3)
_cell_length_b                   12.877(5)
_cell_length_c                   7.877(2)
_cell_angle_alpha                97.20(3)
_cell_angle_beta                 96.21(2)
_cell_angle_gamma                84.00(2)
_cell_volume                     1075.35
_exptl_crystal_colour            'pale tan'
_exptl_crystal_description       block
_chemical_melting_point          394-395K
_cell_formula_units_Z            2
_exptl_crystal_recrystallization_method dichloromethane/hexane
loop_
_atom_site_label
_atom_site_type_symbol
_atom_site_fract_x
_atom_site_fract_y
_atom_site_fract_z
O1 O -0.1478(2) 1.0283(2) 0.0125(3)
O2 O -0.0290(2) 1.16613(19) 0.1966(3)
H1 H -0.0417 1.1252 0.0835
O3 O -0.0459(2) 1.19722(18) 0.8009(3)
O4 O -0.2658(2) 0.94237(18) 0.4459(3)
C1 C -0.1929(3) 1.0056(3) 0.1420(4)
C2 C -0.2873(4) 0.9313(3) 0.1082(4)
C3 C -0.3619(4) 0.8693(3) 0.0622(5)
C4 C -0.4498(3) 0.7913(3) 0.0178(4)
C5 C -0.4106(4) 0.6917(3) -0.0579(5)
H2 H -0.3262 0.6757 -0.0834
C6 C -0.4938(4) 0.6162(3) -0.0961(5)
H3 H -0.4665 0.5477 -0.1458
C7 C -0.6171(4) 0.6401(3) -0.0621(6)
H4 H -0.6744 0.5879 -0.0898
C8 C -0.6578(4) 0.7386(3) 0.0114(5)
H5 H -0.7427 0.7547 0.0346
C9 C -0.5730(4) 0.8144(3) 0.0513(5)
H6 H -0.6003 0.8826 0.1021
C10 C -0.1543(3) 1.0532(3) 0.3130(4)
C11 C -0.0738(3) 1.1347(3) 0.3328(4)
C12 C -0.0367(3) 1.1859(3) 0.4934(4)
H7 H 0.0155 1.2419 0.5036
C13 C -0.0763(3) 1.1545(3) 0.6366(4)
C14 C -0.1541(3) 1.0727(3) 0.6244(4)
H8 H -0.1803 1.0520 0.7254
C15 C -0.1920(3) 1.0226(3) 0.4667(4)
C16 C 0.0460(3) 1.2724(3) 0.8314(5)
H9 H 0.1169 1.2461 0.7631
H10 H 0.0784 1.2777 0.9544
C17 C -0.0030(3) 1.3807(3) 0.7868(4)
C18 C -0.1284(4) 1.4102(3) 0.7462(5)
H11 H -0.1879 1.3603 0.7418
C19 C -0.1681(4) 1.5114(3) 0.7119(5)
H12 H -0.2545 1.5305 0.6831
C20 C -0.0835(4) 1.5850(3) 0.7190(5)
H13 H -0.1113 1.6550 0.6972
C21 C 0.0409(4) 1.5567(3) 0.7576(5)
H14 H 0.0998 1.6071 0.7615
C22 C 0.0820(4) 1.4551(3) 0.7913(5)
H15 H 0.1687 1.4361 0.8176
C23 C -0.3074(4) 0.9111(3) 0.5985(4)
H16 H -0.3560 0.9710 0.6599
H17 H -0.2346 0.8880 0.6769
C24 C -0.3881(3) 0.8221(3) 0.5425(4)
C25 C -0.3405(4) 0.7283(3) 0.4605(5)
H18 H -0.2558 0.7203 0.4350
C26 C -0.4137(4) 0.6453(3) 0.4141(5)
H19 H -0.3791 0.5810 0.3578
C27 C -0.5365(4) 0.6564(3) 0.4499(5)
H20 H -0.5872 0.5998 0.4179
C28 C -0.5860(4) 0.7500(3) 0.5324(5)
H21 H -0.6704 0.7574 0.5593
C29 C -0.5130(4) 0.8329(3) 0.5760(5)
H22 H -0.5484 0.8979 0.6292
loop_
_geom_bond_atom_site_label_1
_geom_bond_atom_site_label_2
_geom_bond_site_symmetry_1
_geom_bond_site_symmetry_2
O1 C1 1_555 1_555
O2 H1 1_555 1_555
O3 C13 1_555 1_555
O4 C15 1_555 1_555
C1 C2 1_555 1_555
C2 C3 1_555 1_555
C3 C4 1_555 1_555
C4 C5 1_555 1_555
C5 H2 1_555 1_555
C6 C5 1_555 1_555
H3 C6 1_555 1_555
C7 C6 1_555 1_555
H4 C7 1_555 1_555
C8 C7 1_555 1_555
H5 C8 1_555 1_555
C9 C4 1_555 1_555
H6 C9 1_555 1_555
C10 C1 1_555 1_555
C11 O2 1_555 1_555
C12 C11 1_555 1_555
H7 C12 1_555 1_555
C13 C12 1_555 1_555
C14 C13 1_555 1_555
H8 C14 1_555 1_555
C15 C10 1_555 1_555
C16 O3 1_555 1_555
H9 C16 1_555 1_555
H10 C16 1_555 1_555
C17 C16 1_555 1_555
C18 C17 1_555 1_555
H11 C18 1_555 1_555
C19 C18 1_555 1_555
H12 C19 1_555 1_555
C20 C19 1_555 1_555
H13 C20 1_555 1_555
C21 C20 1_555 1_555
H14 C21 1_555 1_555
C22 C17 1_555 1_555
H15 C22 1_555 1_555
C23 O4 1_555 1_555
H16 C23 1_555 1_555
H17 C23 1_555 1_555
C24 C23 1_555 1_555
C25 C24 1_555 1_555
H18 C25 1_555 1_555
C26 C25 1_555 1_555
H19 C26 1_555 1_555
C27 C26 1_555 1_555
H20 C27 1_555 1_555
C28 C27 1_555 1_555
H21 C28 1_555 1_555
C29 C24 1_555 1_555
H22 C29 1_555 1_555
C8 C9 1_555 1_555
C10 C11 1_555 1_555
C14 C15 1_555 1_555
C21 C22 1_555 1_555
C28 C29 1_555 1_555

#END
