
#######################################################################
#
#                 Cambridge Crystallographic Data Centre
#                                CCDC 
#
#######################################################################
#
# If this CIF has been generated from an entry in the Cambridge 
# Structural Database, then it will include bibliographic, chemical, 
# crystal, experimental, refinement or atomic coordinate data resulting 
# from the CCDC's data processing and validation procedures.
#
#######################################################################

data_BAGXIS
_chemical_formula_moiety         'C33 H23 N5 O4 S2,C3 H7 N1 O1,H2 O1'
_chemical_name_systematic        
'(5-(4-(4-(4-(Diphenylamino)phenyl)-6-hydroxy-1,3,5-triazin-2-yl)benzylidene)-4-oxo-2-thioxo-1,3-thiazolidin-3-yl)acetic acid N,N-dimethylformamide solvate monohydrate'
_symmetry_cell_setting           triclinic
_symmetry_space_group_name_H-M   'P -1'
_symmetry_Int_Tables_number      2
_space_group_name_Hall           '-P 1'
loop_
_symmetry_equiv_pos_site_id
_symmetry_equiv_pos_as_xyz
1 x,y,z
2 -x,-y,-z
_cell_length_a                   11.548(5)
_cell_length_b                   12.539(5)
_cell_length_c                   14.227(6)
_cell_angle_alpha                64.072(6)
_cell_angle_beta                 82.594(7)
_cell_angle_gamma                68.859(6)
_cell_volume                     1727
_exptl_crystal_colour            yellow
_exptl_crystal_description       block
_cell_formula_units_Z            2
loop_
_atom_site_label
_atom_site_type_symbol
_atom_site_fract_x
_atom_site_fract_y
_atom_site_fract_z
C1 C 0.9541(6) 0.2812(5) 0.4464(6)
C2 C 0.9179(7) 0.2971(7) 0.5361(7)
H1 H 0.9416 0.3512 0.5516
C3 C 0.8432(8) 0.2291(9) 0.6052(7)
H2 H 0.8166 0.2409 0.6656
C4 C 0.8101(9) 0.1492(9) 0.5861(9)
H3 H 0.7622 0.1042 0.6325
C5 C 0.8484(9) 0.1358(8) 0.4974(9)
H4 H 0.8249 0.0813 0.4824
C6 C 0.9204(7) 0.1989(6) 0.4282(6)
H5 H 0.9463 0.1852 0.3685
C7 C 1.1513(6) 0.2816(5) 0.3628(6)
C8 C 1.2158(6) 0.1738(6) 0.4435(6)
H6 H 1.1794 0.1478 0.5082
C9 C 1.3345(7) 0.1020(7) 0.4314(8)
H7 H 1.3752 0.0263 0.4871
C10 C 1.3936(7) 0.1398(8) 0.3392(8)
H8 H 1.4752 0.0936 0.3323
C11 C 1.3288(7) 0.2471(7) 0.2584(7)
H9 H 1.3660 0.2745 0.1944
C12 C 1.2077(7) 0.3170(6) 0.2695(6)
H10 H 1.1644 0.3891 0.2123
C13 C 0.9755(5) 0.4809(5) 0.3179(5)
C14 C 0.8453(5) 0.5350(5) 0.2967(5)
H11 H 0.7973 0.4832 0.3198
C15 C 0.7901(5) 0.6617(5) 0.2432(5)
H12 H 0.7040 0.6961 0.2353
C16 C 0.8603(4) 0.7410(4) 0.1999(4)
C17 C 0.9868(5) 0.6890(5) 0.2203(5)
H13 H 1.0351 0.7406 0.1940
C18 C 1.0422(5) 0.5620(5) 0.2790(5)
H14 H 1.1275 0.5297 0.2929
C19 C 0.7975(5) 0.8744(4) 0.1330(4)
C20 C 0.8097(5) 1.0704(5) 0.0054(5)
C21 C 0.6235(4) 1.0476(5) 0.0647(4)
C22 C 0.4875(4) 1.1048(5) 0.0615(5)
C23 C 0.4127(4) 1.0347(5) 0.1213(4)
H15 H 0.4498 0.9499 0.1654
C24 C 0.2852(4) 1.0885(5) 0.1165(5)
H16 H 0.2371 1.0399 0.1568
C25 C 0.2283(4) 1.2155(5) 0.0515(5)
C26 C 0.3032(5) 1.2860(5) -0.0091(5)
H17 H 0.2665 1.3707 -0.0537
C27 C 0.4297(4) 1.2315(5) -0.0032(5)
H18 H 0.4780 1.2800 -0.0432
C28 C 0.0930(5) 1.2824(5) 0.0402(5)
C29 C -0.0017(4) 1.2445(5) 0.0882(5)
C30 C -0.1630(5) 1.1515(6) 0.1934(5)
C31 C -0.1305(5) 1.3314(6) 0.0571(5)
C32 C -0.3466(4) 1.3380(5) 0.1008(5)
H21 H -0.3879 1.2770 0.1180
H22 H -0.3627 1.3938 0.0270
C33 C -0.4003(6) 1.4130(6) 0.1622(6)
N1 N 1.0293(4) 0.3507(4) 0.3759(4)
N2 N 0.8674(3) 0.9446(4) 0.0705(4)
N3 N 0.6740(4) 0.9241(4) 0.1317(4)
N4 N 0.6858(4) 1.1228(4) 0.0020(4)
N5 N -0.2140(4) 1.2718(4) 0.1196(4)
O1 O 0.8762(3) 1.1331(3) -0.0507(3)
H30 H 0.8398 1.2173 -0.0552
O2 O -0.1651(3) 1.4372(4) -0.0085(4)
O3 O -0.3427(4) 1.4251(4) 0.2179(4)
O4 O -0.5203(4) 1.4677(4) 0.1419(4)
H31 H -0.5509 1.5059 0.1784
S1 S -0.00032(12) 1.10087(13) 0.18861(13)
S2 S -0.23679(16) 1.06142(18) 0.27442(16)
C34 C 0.5663(15) 0.7870(12) 0.4053(11)
H23 H 0.6375 0.7903 0.3625
H24 H 0.5705 0.8132 0.4585
H25 H 0.4920 0.8424 0.3626
C35 C 0.601(3) 0.593(2) 0.5649(11)
H26 H 0.6737 0.5181 0.5881
H27 H 0.5287 0.5710 0.5930
H28 H 0.6082 0.6513 0.5886
C36 C 0.5404(18) 0.6110(16) 0.3994(13)
H29 H 0.5538 0.5257 0.4215
N6 N 0.5756(12) 0.6604(12) 0.4571(10)
O5 O 0.4704(7) 0.6994(8) 0.3138(8)
O6 O 0.3452(5) 0.6389(4) 0.2046(4)
H32 H 0.3842 0.6588 0.2375
H33 H 0.2913 0.6104 0.2438
H19? H 0.0820 1.3562 0.0518
H20? H 0.0742 1.3141 -0.0337
loop_
_geom_bond_atom_site_label_1
_geom_bond_atom_site_label_2
_geom_bond_site_symmetry_1
_geom_bond_site_symmetry_2
C1 C2 1_555 1_555
C2 H1 1_555 1_555
C3 C2 1_555 1_555
H2 C3 1_555 1_555
C4 C3 1_555 1_555
H3 C4 1_555 1_555
C5 C4 1_555 1_555
H4 C5 1_555 1_555
C6 C1 1_555 1_555
H5 C6 1_555 1_555
C7 C8 1_555 1_555
C8 H6 1_555 1_555
C9 C8 1_555 1_555
H7 C9 1_555 1_555
C10 C9 1_555 1_555
H8 C10 1_555 1_555
C11 C10 1_555 1_555
H9 C11 1_555 1_555
C12 C7 1_555 1_555
H10 C12 1_555 1_555
C13 C14 1_555 1_555
C14 H11 1_555 1_555
C15 C14 1_555 1_555
H12 C15 1_555 1_555
C16 C15 1_555 1_555
C17 C16 1_555 1_555
H13 C17 1_555 1_555
C18 C13 1_555 1_555
H14 C18 1_555 1_555
C19 C16 1_555 1_555
C20 N2 1_555 1_555
C21 C22 1_555 1_555
C22 C23 1_555 1_555
C23 H15 1_555 1_555
C24 C23 1_555 1_555
H16 C24 1_555 1_555
C25 C24 1_555 1_555
C26 C25 1_555 1_555
H17 C26 1_555 1_555
C27 C22 1_555 1_555
H18 C27 1_555 1_555
C28 C25 1_555 1_555
C29 C28 1_555 1_555
C30 N5 1_555 1_555
C31 C29 1_555 1_555
C32 H21 1_555 1_555
H22 C32 1_555 1_555
C33 C32 1_555 1_555
C34 H23 1_555 1_555
H24 C34 1_555 1_555
H25 C34 1_555 1_555
C35 H26 1_555 1_555
H27 C35 1_555 1_555
H28 C35 1_555 1_555
C36 H29 1_555 1_555
N1 C1 1_555 1_555
N2 C19 1_555 1_555
N3 C19 1_555 1_555
N4 C20 1_555 1_555
N5 C31 1_555 1_555
N6 C34 1_555 1_555
O1 C20 1_555 1_555
H30 O1 1_555 1_555
O2 C31 1_555 1_555
O3 C33 1_555 1_555
O4 C33 1_555 1_555
H31 O4 1_555 1_555
O5 C36 1_555 1_555
O6 H32 1_555 1_555
H33 O6 1_555 1_555
S1 C29 1_555 1_555
S2 C30 1_555 1_555
C5 C6 1_555 1_555
C7 N1 1_555 1_555
C11 C12 1_555 1_555
C13 N1 1_555 1_555
C17 C18 1_555 1_555
C21 N3 1_555 1_555
C21 N4 1_555 1_555
C26 C27 1_555 1_555
C30 S1 1_555 1_555
C32 N5 1_555 1_555
C35 N6 1_555 1_555
C36 N6 1_555 1_555

#END
