
#######################################################################
#
#                 Cambridge Crystallographic Data Centre
#                                CCDC 
#
#######################################################################
#
# If this CIF has been generated from an entry in the Cambridge 
# Structural Database, then it will include bibliographic, chemical, 
# crystal, experimental, refinement or atomic coordinate data resulting 
# from the CCDC's data processing and validation procedures.
#
#######################################################################

data_BAGXEO
_chemical_formula_moiety         'C30 H25 N5 O1'
_chemical_name_systematic        
4-(4-(Dimethylamino)-6-(4-(diphenylamino)phenyl)-1,3,5-triazin-2-yl)benzaldehyde
_symmetry_cell_setting           monoclinic
_symmetry_space_group_name_H-M   'C 2/c'
_symmetry_Int_Tables_number      15
_space_group_name_Hall           '-C 2yn'
loop_
_symmetry_equiv_pos_site_id
_symmetry_equiv_pos_as_xyz
1 x,y,z
2 -x,y,1/2-z
3 1/2+x,1/2+y,z
4 1/2-x,1/2+y,1/2-z
5 -x,-y,-z
6 x,-y,1/2+z
7 1/2-x,1/2-y,-z
8 1/2+x,1/2-y,1/2+z
_cell_length_a                   19.904(5)
_cell_length_b                   14.965(3)
_cell_length_c                   18.701(7)
_cell_angle_alpha                90
_cell_angle_beta                 117.688(3)
_cell_angle_gamma                90
_cell_volume                     4932.49
_exptl_crystal_colour            yellow
_exptl_crystal_description       block
_cell_formula_units_Z            8
loop_
_atom_site_label
_atom_site_type_symbol
_atom_site_fract_x
_atom_site_fract_y
_atom_site_fract_z
C1 C 0.0958(3) 0.2092(2) -0.3616(3)
H1 H 0.0544 0.2037 -0.4126
C2 C 0.1647(3) 0.2359(2) -0.3531(2)
H2 H 0.1696 0.2495 -0.3990
C3 C 0.22672(19) 0.24324(16) -0.2788(2)
H3 H 0.2735 0.2594 -0.2746
C4 C 0.21954(16) 0.22665(14) -0.21037(16)
C5 C 0.14983(16) 0.20003(15) -0.21856(16)
H4 H 0.1441 0.1884 -0.1728
C6 C 0.08882(19) 0.19060(18) -0.2939(2)
H5 H 0.0424 0.1714 -0.2988
C7 C 0.32625(15) 0.31922(15) -0.12154(14)
C8 C 0.28990(15) 0.39876(16) -0.15628(14)
H6 H 0.2372 0.4019 -0.1830
C9 C 0.33330(19) 0.47346(17) -0.15061(16)
H7 H 0.3095 0.5270 -0.1740
C10 C 0.41063(19) 0.46918(19) -0.11104(17)
H8 H 0.4392 0.5193 -0.1087
C11 C 0.44616(16) 0.39138(18) -0.07477(16)
H9 H 0.4988 0.3891 -0.0464
C12 C 0.40375(15) 0.31622(16) -0.08034(14)
H10 H 0.4280 0.2633 -0.0559
C13 C 0.30136(13) 0.17568(15) -0.07147(16)
C14 C 0.33369(13) 0.20120(15) 0.00899(16)
H11 H 0.3426 0.2613 0.0227
C15 C 0.35276(13) 0.13755(15) 0.06893(15)
H12 H 0.3745 0.1558 0.1226
C16 C 0.34035(14) 0.04721(15) 0.05114(17)
C17 C 0.30832(13) 0.02276(15) -0.02955(16)
H13 H 0.3003 -0.0375 -0.0430
C18 C 0.28797(13) 0.08497(15) -0.09051(15)
H14 H 0.2654 0.0666 -0.1442
C19 C 0.36257(14) -0.01953(17) 0.11624(17)
C20 C 0.41124(14) -0.05352(18) 0.24947(19)
C21 C 0.37933(14) -0.16364(16) 0.15697(18)
C22 C 0.44132(15) 0.06735(16) 0.34583(15)
H15 H 0.4364 0.1026 0.3008
H16 H 0.4890 0.0804 0.3920
H17 H 0.4006 0.0813 0.3579
C23 C 0.46522(14) -0.09079(16) 0.39216(15)
H18 H 0.4340 -0.0871 0.4187
H19 H 0.5168 -0.0771 0.4300
H20 H 0.4626 -0.1501 0.3715
C24 C 0.37548(13) -0.25998(16) 0.13623(16)
C25 C 0.34583(15) -0.28573(16) 0.05664(16)
H21 H 0.3262 -0.2428 0.0161
C26 C 0.34489(15) -0.37493(17) 0.03633(16)
H22 H 0.3236 -0.3916 -0.0177
C27 C 0.37512(14) -0.43887(16) 0.09547(18)
C28 C 0.40311(14) -0.41375(17) 0.17472(17)
H23 H 0.4224 -0.4568 0.2152
C29 C 0.40287(14) -0.32534(17) 0.19487(15)
H24 H 0.4215 -0.3095 0.2488
C30 C 0.37855(15) -0.53186(17) 0.07183(17)
H25 H 0.3510 -0.5465 0.0174
N1 N 0.28169(11) 0.24023(12) -0.13313(13)
N2 N 0.38931(11) 0.01075(12) 0.19167(14)
N3 N 0.40713(11) -0.14247(13) 0.23425(13)
N4 N 0.35520(11) -0.10610(13) 0.09448(12)
N5 N 0.43831(12) -0.02718(14) 0.32585(15)
O1 O 0.41461(11) -0.59056(11) 0.11801(12)
loop_
_geom_bond_atom_site_label_1
_geom_bond_atom_site_label_2
_geom_bond_site_symmetry_1
_geom_bond_site_symmetry_2
C1 H1 1_555 1_555
C2 C1 1_555 1_555
H2 C2 1_555 1_555
C3 C2 1_555 1_555
H3 C3 1_555 1_555
C4 C3 1_555 1_555
C5 C4 1_555 1_555
H4 C5 1_555 1_555
C6 C1 1_555 1_555
H5 C6 1_555 1_555
C7 C8 1_555 1_555
C8 H6 1_555 1_555
C9 C8 1_555 1_555
H7 C9 1_555 1_555
C10 C9 1_555 1_555
H8 C10 1_555 1_555
C11 C10 1_555 1_555
H9 C11 1_555 1_555
C12 C7 1_555 1_555
H10 C12 1_555 1_555
C13 C14 1_555 1_555
C14 H11 1_555 1_555
C15 C14 1_555 1_555
H12 C15 1_555 1_555
C16 C15 1_555 1_555
C17 C16 1_555 1_555
H13 C17 1_555 1_555
C18 C13 1_555 1_555
H14 C18 1_555 1_555
C19 C16 1_555 1_555
C20 N2 1_555 1_555
C21 C24 1_555 1_555
C22 H15 1_555 1_555
H16 C22 1_555 1_555
H17 C22 1_555 1_555
C23 H18 1_555 1_555
H19 C23 1_555 1_555
H20 C23 1_555 1_555
C24 C25 1_555 1_555
C25 H21 1_555 1_555
C26 C25 1_555 1_555
H22 C26 1_555 1_555
C27 C26 1_555 1_555
C28 C27 1_555 1_555
H23 C28 1_555 1_555
C29 C24 1_555 1_555
H24 C29 1_555 1_555
C30 C27 1_555 1_555
H25 C30 1_555 1_555
N1 C4 1_555 1_555
N2 C19 1_555 1_555
N3 C20 1_555 1_555
N4 C19 1_555 1_555
N5 C20 1_555 1_555
O1 C30 1_555 1_555
C5 C6 1_555 1_555
C7 N1 1_555 1_555
C11 C12 1_555 1_555
C13 N1 1_555 1_555
C17 C18 1_555 1_555
C21 N3 1_555 1_555
C21 N4 1_555 1_555
C22 N5 1_555 1_555
C23 N5 1_555 1_555
C28 C29 1_555 1_555

#END
