
#######################################################################
#
#                 Cambridge Crystallographic Data Centre
#                                CCDC 
#
#######################################################################
#
# If this CIF has been generated from an entry in the Cambridge 
# Structural Database, then it will include bibliographic, chemical, 
# crystal, experimental, refinement or atomic coordinate data resulting 
# from the CCDC's data processing and validation procedures.
#
#######################################################################

data_BAGXEN
_chemical_formula_moiety         'C21 H24 O7'
_chemical_name_systematic        
(E)-1,3-bis(2,4,6-trimethoxyphenyl)-2-propen-1-one
_symmetry_cell_setting           triclinic
_symmetry_space_group_name_H-M   'P -1'
_symmetry_Int_Tables_number      2
_space_group_name_Hall           '-P 1'
loop_
_symmetry_equiv_pos_site_id
_symmetry_equiv_pos_as_xyz
1 x,y,z
2 -x,-y,-z
_cell_length_a                   9.122(4)
_cell_length_b                   15.188(4)
_cell_length_c                   7.342(4)
_cell_angle_alpha                99.74(3)
_cell_angle_beta                 96.14(4)
_cell_angle_gamma                94.11(3)
_cell_volume                     992.593
_exptl_crystal_colour            colorless
_exptl_crystal_description       plate
_chemical_melting_point          424-425K
_cell_formula_units_Z            2
_exptl_crystal_recrystallization_method dichloromethane/hexane
loop_
_atom_site_label
_atom_site_type_symbol
_atom_site_fract_x
_atom_site_fract_y
_atom_site_fract_z
O1 O 0.6320(2) 0.20957(14) 0.4000(3)
O2 O 0.5627(2) 0.49536(13) 0.7288(3)
O3 O 0.1651(2) 0.66500(14) 0.9363(3)
O4 O 0.0722(2) 0.36425(14) 0.6208(3)
O5 O 0.3049(2) 0.20457(13) 0.1452(3)
O6 O 0.0726(2) -0.06391(14) 0.2849(3)
O7 O 0.4750(2) 0.11567(13) 0.6989(3)
C1 C 0.5124(3) 0.22864(19) 0.4530(4)
C2 C 0.4924(3) 0.31860(19) 0.5450(4)
H1 H 0.5757 0.3620 0.5733
C3 C 0.3611(3) 0.34273(19) 0.5916(4)
H2 H 0.2831 0.2958 0.5639
C4 C 0.3186(3) 0.42885(18) 0.6777(4)
C5 C 0.4184(3) 0.5052(2) 0.7499(4)
C6 C 0.3723(3) 0.58539(19) 0.8368(4)
H3 H 0.4416 0.6360 0.8833
C7 C 0.2225(3) 0.5897(2) 0.8540(4)
C8 C 0.1198(3) 0.5170(2) 0.7847(4)
H4 H 0.0179 0.5211 0.7977
C9 C 0.1673(3) 0.4387(2) 0.6968(4)
C10 C 0.3867(3) 0.15583(18) 0.4189(4)
C11 C 0.2864(3) 0.14161(19) 0.2577(4)
C12 C 0.1813(3) 0.06864(19) 0.2156(5)
H5 H 0.1127 0.0601 0.1059
C13 C 0.1782(3) 0.00733(19) 0.3391(4)
C14 C 0.2736(3) 0.0202(2) 0.5017(4)
H6 H 0.2695 -0.0210 0.5854
C15 C 0.3762(3) 0.09529(19) 0.5403(4)
C16 C 0.6723(3) 0.56636(19) 0.8168(4)
H7 H 0.7705 0.5500 0.7887
H8 H 0.6699 0.5762 0.9518
H9 H 0.6516 0.6215 0.7701
C17 C 0.2660(4) 0.7433(2) 1.0089(5)
H10 H 0.2109 0.7921 1.0639
H11 H 0.3159 0.7617 0.9079
H12 H 0.3399 0.7294 1.1045
C18 C -0.0834(3) 0.3720(2) 0.6218(5)
H13 H -0.1385 0.3145 0.5641
H14 H -0.1130 0.4186 0.5515
H15 H -0.1051 0.3882 0.7504
C19 C 0.1927(4) 0.2038(2) -0.0070(5)
H16 H 0.2193 0.2516 -0.0752
H17 H 0.0978 0.2136 0.0407
H18 H 0.1843 0.1457 -0.0908
C20 C 0.0694(4) -0.1302(2) 0.4025(5)
H19 H -0.0097 -0.1777 0.3503
H20 H 0.0508 -0.1021 0.5273
H21 H 0.1648 -0.1560 0.4105
C21 C 0.4756(4) 0.0550(2) 0.8282(4)
H22 H 0.5507 0.0778 0.9347
H23 H 0.4985 -0.0041 0.7669
H24 H 0.3780 0.0496 0.8716
loop_
_geom_bond_atom_site_label_1
_geom_bond_atom_site_label_2
_geom_bond_site_symmetry_1
_geom_bond_site_symmetry_2
O1 C1 1_555 1_555
O2 C5 1_555 1_555
O3 C7 1_555 1_555
O4 C9 1_555 1_555
O5 C11 1_555 1_555
O6 C13 1_555 1_555
O7 C15 1_555 1_555
C1 C2 1_555 1_555
C2 H1 1_555 1_555
C3 C2 1_555 1_555
H2 C3 1_555 1_555
C4 C3 1_555 1_555
C5 C4 1_555 1_555
C6 C5 1_555 1_555
H3 C6 1_555 1_555
C7 C6 1_555 1_555
C8 C7 1_555 1_555
H4 C8 1_555 1_555
C9 C4 1_555 1_555
C10 C1 1_555 1_555
C11 C10 1_555 1_555
C12 C11 1_555 1_555
H5 C12 1_555 1_555
C13 C12 1_555 1_555
C14 C13 1_555 1_555
H6 C14 1_555 1_555
C15 C10 1_555 1_555
C16 O2 1_555 1_555
H7 C16 1_555 1_555
H8 C16 1_555 1_555
H9 C16 1_555 1_555
C17 O3 1_555 1_555
H10 C17 1_555 1_555
H11 C17 1_555 1_555
H12 C17 1_555 1_555
C18 O4 1_555 1_555
H13 C18 1_555 1_555
H14 C18 1_555 1_555
H15 C18 1_555 1_555
C19 O5 1_555 1_555
H16 C19 1_555 1_555
H17 C19 1_555 1_555
H18 C19 1_555 1_555
C20 O6 1_555 1_555
H19 C20 1_555 1_555
H20 C20 1_555 1_555
H21 C20 1_555 1_555
C21 O7 1_555 1_555
H22 C21 1_555 1_555
H23 C21 1_555 1_555
H24 C21 1_555 1_555
C8 C9 1_555 1_555
C14 C15 1_555 1_555

#END
