
#######################################################################
#
#                 Cambridge Crystallographic Data Centre
#                                CCDC 
#
#######################################################################
#
# If this CIF has been generated from an entry in the Cambridge 
# Structural Database, then it will include bibliographic, chemical, 
# crystal, experimental, refinement or atomic coordinate data resulting 
# from the CCDC's data processing and validation procedures.
#
#######################################################################

data_BAHFIB
_chemical_formula_moiety         'C28 H27 N1 O7 S1'
_chemical_name_systematic        
'Dimethyl 3-((4-methylphenyl)sulfonyl)-2-phenyl-5-(2-phenylvinyl)-1,3-oxazolidine-4,4-dicarboxylate'
_symmetry_cell_setting           monoclinic
_symmetry_space_group_name_H-M   'P 21/n'
_symmetry_Int_Tables_number      14
_space_group_name_Hall           '-P 2yn'
loop_
_symmetry_equiv_pos_site_id
_symmetry_equiv_pos_as_xyz
1 x,y,z
2 1/2-x,1/2+y,1/2-z
3 -x,-y,-z
4 1/2+x,1/2-y,1/2+z
_cell_length_a                   20.4885(6)
_cell_length_b                   10.4564(3)
_cell_length_c                   26.0300(9)
_cell_angle_alpha                90
_cell_angle_beta                 108.376(4)
_cell_angle_gamma                90
_cell_volume                     5292.2
_exptl_crystal_colour            colorless
_exptl_crystal_description       block
_cell_formula_units_Z            8
loop_
_atom_site_label
_atom_site_type_symbol
_atom_site_fract_x
_atom_site_fract_y
_atom_site_fract_z
S1 S 1.65656(3) 0.84609(7) 0.13374(3)
O1 O 1.71674(9) 0.8307(2) 0.17894(8)
O2 O 1.63873(11) 0.9680(2) 0.10821(9)
O3 O 1.52691(17) 1.1152(3) 0.17579(15)
O4 O 1.61890(11) 1.0057(2) 0.21775(8)
O5 O 1.46449(19) 1.0229(3) 0.07512(12)
O6 O 1.47289(11) 0.8168(3) 0.06531(8)
O13 O 1.52155(9) 0.6978(2) 0.18854(8)
N1 N 1.58860(10) 0.8045(2) 0.15021(8)
C1 C 1.26538(16) 0.7125(4) 0.14037(13)
H1 H 1.2876 0.6392 0.1343
C2 C 1.19567(16) 0.7093(3) 0.12971(14)
H2 H 1.1714 0.6345 0.1171
C3 C 1.16219(16) 0.8146(4) 0.13753(15)
H3 H 1.1147 0.8129 0.1299
C4 C 1.1979(2) 0.9231(4) 0.15656(15)
H4 H 1.1748 0.9958 0.1620
C5 C 1.2680(2) 0.9258(4) 0.16787(15)
H5 H 1.2921 1.0004 0.1813
C6 C 1.30330(15) 0.8189(4) 0.15959(13)
C7 C 1.3761(3) 0.8608(6) 0.1787(2)
H6 H 1.3901 0.9324 0.2006
C10 C 1.49872(14) 0.8256(3) 0.18697(11)
H9 H 1.5217 0.8584 0.2235
C11 C 1.59078(13) 0.7006(3) 0.18945(10)
H10 H 1.6210 0.7241 0.2256
C12 C 1.61079(15) 0.5733(3) 0.17311(11)
C13 C 1.57024(17) 0.5152(3) 0.12636(14)
H11 H 1.5307 0.5556 0.1046
C14 C 1.5886(2) 0.3970(4) 0.11210(19)
H12 H 1.5610 0.3572 0.0808
C15 C 1.6466(3) 0.3377(4) 0.1431(2)
H13 H 1.6588 0.2585 0.1327
C16 C 1.6870(2) 0.3942(4) 0.1894(2)
H14 H 1.7269 0.3538 0.2104
C17 C 1.66856(18) 0.5114(3) 0.20489(14)
H15 H 1.6954 0.5487 0.2371
C18 C 1.66238(13) 0.7358(3) 0.08464(10)
C19 C 1.61439(15) 0.7366(3) 0.03390(12)
H16 H 1.5782 0.7946 0.0255
C20 C 1.62052(17) 0.6505(4) -0.00441(13)
H17 H 1.5875 0.6502 -0.0385
C21 C 1.67435(18) 0.5649(3) 0.00654(14)
C22 C 1.72225(19) 0.5674(4) 0.05707(15)
H18 H 1.7592 0.5110 0.0651
C23 C 1.71668(15) 0.6516(3) 0.09614(13)
H19 H 1.7496 0.6515 0.1302
C24 C 1.6808(2) 0.4723(4) -0.03600(17)
H20 H 1.6358 0.4456 -0.0579
H21 H 1.7068 0.3990 -0.0188
H22 H 1.7039 0.5133 -0.0584
C25 C 1.53533(13) 0.8977(3) 0.14984(11)
C26 C 1.56020(18) 1.0216(3) 0.18050(14)
C27 C 1.6413(2) 1.1068(4) 0.25720(16)
H23 H 1.6140 1.1818 0.2445
H24 H 1.6888 1.1258 0.2624
H25 H 1.6360 1.0798 0.2909
C28 C 1.48713(16) 0.9228(4) 0.09249(13)
C29 C 1.4259(2) 0.8282(5) 0.00982(14)
H26 H 1.4446 0.8874 -0.0100
H27 H 1.3820 0.8587 0.0107
H28 H 1.4203 0.7461 -0.0075
C58 C 1.4196(4) 0.7918(8) 0.1631(3)
H56 H 1.4045 0.7249 0.1387
S2 S 0.90859(3) 0.34426(6) 0.12879(3)
O7 O 0.89395(9) 0.33494(19) 0.17864(7)
O8 O 0.90647(9) 0.46594(16) 0.10358(8)
O9 O 1.04328(10) 0.51610(16) 0.19573(7)
O10 O 1.04196(11) 0.59027(18) 0.11481(9)
O11 O 1.01317(13) 0.2759(3) 0.04084(10)
O12 O 1.09801(10) 0.4133(2) 0.06543(8)
O14 O 1.07956(8) 0.16535(15) 0.17422(7)
N2 N 0.98573(9) 0.28778(18) 0.13742(8)
C30 C 1.31081(14) 0.2655(3) 0.14646(12)
H29 H 1.2775 0.2095 0.1259
C31 C 1.37551(16) 0.2649(3) 0.14062(14)
H30 H 1.3859 0.2069 0.1172
C32 C 1.42420(15) 0.3493(3) 0.16913(15)
H31 H 1.4675 0.3503 0.1647
C33 C 1.40917(15) 0.4322(3) 0.20416(14)
H32 H 1.4423 0.4902 0.2234
C34 C 1.34541(14) 0.4307(3) 0.21137(12)
H33 H 1.3364 0.4864 0.2362
C35 C 1.29452(12) 0.3477(2) 0.18226(11)
C36 C 1.22712(13) 0.3481(2) 0.19057(11)
H34 H 1.2232 0.3978 0.2191
C37 C 1.17157(12) 0.2865(2) 0.16240(11)
H35 H 1.1740 0.2364 0.1335
C38 C 1.10518(12) 0.2916(2) 0.17374(10)
H36 H 1.1126 0.3306 0.2094
C39 C 1.01106(12) 0.1757(2) 0.17407(10)
H37 H 1.0100 0.1957 0.2106
C40 C 0.97308(12) 0.0541(2) 0.15460(11)
C41 C 0.97827(17) -0.0058(3) 0.10902(13)
H38 H 1.0056 0.0295 0.0902
C42 C 0.9430(2) -0.1182(3) 0.09110(18)
H39 H 0.9476 -0.1594 0.0608
C43 C 0.9018(2) -0.1683(3) 0.1176(2)
H40 H 0.8778 -0.2434 0.1051
C44 C 0.89527(18) -0.1091(4) 0.1626(2)
H41 H 0.8665 -0.1435 0.1804
C45 C 0.93164(14) 0.0018(3) 0.18151(13)
H42 H 0.9280 0.0411 0.2125
C46 C 0.85270(11) 0.2389(2) 0.08313(10)
C47 C 0.85796(14) 0.2217(3) 0.03206(11)
H43 H 0.8896 0.2687 0.0209
C48 C 0.81598(16) 0.1343(3) -0.00199(12)
H44 H 0.8197 0.1224 -0.0364
C49 C 0.76878(15) 0.0640(3) 0.01315(13)
C50 C 0.76249(16) 0.0869(4) 0.06255(14)
H45 H 0.7291 0.0432 0.0728
C51 C 0.80403(13) 0.1730(3) 0.09808(12)
H46 H 0.7990 0.1862 0.1320
C52 C 0.7267(2) -0.0383(4) -0.02362(17)
H47 H 0.6994 -0.0827 -0.0054
H48 H 0.7569 -0.0978 -0.0329
H49 H 0.6971 0.0005 -0.0560
C53 C 1.04349(11) 0.3621(2) 0.13081(10)
C54 C 1.04264(12) 0.5037(3) 0.14501(11)
C55 C 1.0458(2) 0.6479(3) 0.21521(14)
H50 H 1.0100 0.6970 0.1903
H51 H 1.0897 0.6848 0.2179
H52 H 1.0393 0.6484 0.2502
C56 C 1.04769(13) 0.3455(2) 0.07293(11)
C57 C 1.1077(2) 0.4059(4) 0.01312(14)
H53 H 1.0639 0.4088 -0.0146
H54 H 1.1306 0.3273 0.0103
H55 H 1.1353 0.4768 0.0087
C8? C 1.3795(3) 0.7779(7) 0.1656(2)
H7? H 1.3903 0.6926 0.1623
C9? C 1.4265(3) 0.8645(7) 0.1752(3)
H8? H 1.4149 0.9506 0.1748
H57? H 1.5104 0.8634 0.2232
loop_
_geom_bond_atom_site_label_1
_geom_bond_atom_site_label_2
_geom_bond_site_symmetry_1
_geom_bond_site_symmetry_2
S1 O1 1_555 1_555
S2 O7 1_555 1_555
O2 S1 1_555 1_555
O3 C26 1_555 1_555
O4 C26 1_555 1_555
O5 C28 1_555 1_555
O6 C28 1_555 1_555
O8 S2 1_555 1_555
O9 C54 1_555 1_555
O10 C54 1_555 1_555
O11 C56 1_555 1_555
O12 C56 1_555 1_555
O13 C10 1_555 1_555
O14 C38 1_555 1_555
N1 S1 1_555 1_555
N2 S2 1_555 1_555
C1 H1 1_555 1_555
C2 C1 1_555 1_555
H2 C2 1_555 1_555
C3 C2 1_555 1_555
H3 C3 1_555 1_555
C4 C3 1_555 1_555
H4 C4 1_555 1_555
C5 C4 1_555 1_555
H5 C5 1_555 1_555
C6 C1 1_555 1_555
C7 C6 1_555 1_555
H6 C7 1_555 1_555
C10 H9 1_555 1_555
C11 O13 1_555 1_555
H10 C11 1_555 1_555
C12 C11 1_555 1_555
C13 C12 1_555 1_555
H11 C13 1_555 1_555
C14 C13 1_555 1_555
H12 C14 1_555 1_555
C15 C14 1_555 1_555
H13 C15 1_555 1_555
C16 C15 1_555 1_555
H14 C16 1_555 1_555
C17 C12 1_555 1_555
H15 C17 1_555 1_555
C18 S1 1_555 1_555
C19 C18 1_555 1_555
H16 C19 1_555 1_555
C20 C19 1_555 1_555
H17 C20 1_555 1_555
C21 C20 1_555 1_555
C22 C21 1_555 1_555
H18 C22 1_555 1_555
C23 C18 1_555 1_555
H19 C23 1_555 1_555
C24 C21 1_555 1_555
H20 C24 1_555 1_555
H21 C24 1_555 1_555
H22 C24 1_555 1_555
C25 N1 1_555 1_555
C26 C25 1_555 1_555
C27 O4 1_555 1_555
H23 C27 1_555 1_555
H24 C27 1_555 1_555
H25 C27 1_555 1_555
C28 C25 1_555 1_555
C29 O6 1_555 1_555
H26 C29 1_555 1_555
H27 C29 1_555 1_555
H28 C29 1_555 1_555
C30 H29 1_555 1_555
C31 C30 1_555 1_555
H30 C31 1_555 1_555
C32 C31 1_555 1_555
H31 C32 1_555 1_555
C33 C32 1_555 1_555
H32 C33 1_555 1_555
C34 C33 1_555 1_555
H33 C34 1_555 1_555
C35 C30 1_555 1_555
C36 C35 1_555 1_555
H34 C36 1_555 1_555
C37 C36 1_555 1_555
H35 C37 1_555 1_555
C38 C37 1_555 1_555
H36 C38 1_555 1_555
C39 O14 1_555 1_555
H37 C39 1_555 1_555
C40 C39 1_555 1_555
C41 C40 1_555 1_555
H38 C41 1_555 1_555
C42 C41 1_555 1_555
H39 C42 1_555 1_555
C43 C42 1_555 1_555
H40 C43 1_555 1_555
C44 C43 1_555 1_555
H41 C44 1_555 1_555
C45 C40 1_555 1_555
H42 C45 1_555 1_555
C46 S2 1_555 1_555
C47 C46 1_555 1_555
H43 C47 1_555 1_555
C48 C47 1_555 1_555
H44 C48 1_555 1_555
C49 C48 1_555 1_555
C50 C49 1_555 1_555
H45 C50 1_555 1_555
C51 C46 1_555 1_555
H46 C51 1_555 1_555
C52 C49 1_555 1_555
H47 C52 1_555 1_555
H48 C52 1_555 1_555
H49 C52 1_555 1_555
C53 N2 1_555 1_555
C54 C53 1_555 1_555
C55 O9 1_555 1_555
H50 C55 1_555 1_555
H51 C55 1_555 1_555
H52 C55 1_555 1_555
C56 C53 1_555 1_555
C57 O12 1_555 1_555
H53 C57 1_555 1_555
H54 C57 1_555 1_555
H55 C57 1_555 1_555
C58 C7 1_555 1_555
H56 C58 1_555 1_555
N1 C11 1_555 1_555
N2 C39 1_555 1_555
C5 C6 1_555 1_555
C10 C25 1_555 1_555
C10 C58 1_555 1_555
C16 C17 1_555 1_555
C22 C23 1_555 1_555
C34 C35 1_555 1_555
C38 C53 1_555 1_555
C44 C45 1_555 1_555
C50 C51 1_555 1_555

#END
