
#######################################################################
#
#                 Cambridge Crystallographic Data Centre
#                                CCDC 
#
#######################################################################
#
# If this CIF has been generated from an entry in the Cambridge 
# Structural Database, then it will include bibliographic, chemical, 
# crystal, experimental, refinement or atomic coordinate data resulting 
# from the CCDC's data processing and validation procedures.
#
#######################################################################

data_BAHHAU
_chemical_name_common            (R)-Roscovitine
_chemical_formula_moiety         'C19 H26 N6 O1'
_chemical_name_systematic        
(R)-2-(6-Benzylamino-9-isopropyl-9H-purin-2-ylamino)butan-1-ol
_chemical_properties_biological  'potent CDK-selective ATP antagonist'
_symmetry_cell_setting           orthorhombic
_symmetry_space_group_name_H-M   'P 21 21 21'
_symmetry_Int_Tables_number      19
_space_group_name_Hall           'P 2ac 2ab'
loop_
_symmetry_equiv_pos_site_id
_symmetry_equiv_pos_as_xyz
1 x,y,z
2 1/2+x,1/2-y,-z
3 -x,1/2+y,1/2-z
4 1/2-x,-y,1/2+z
_cell_length_a                   11.4105(3)
_cell_length_b                   15.4752(4)
_cell_length_c                   22.4839(7)
_cell_angle_alpha                90
_cell_angle_beta                 90
_cell_angle_gamma                90
_cell_volume                     3970.2
_exptl_crystal_colour            colorless
_exptl_crystal_description       needle
_chemical_melting_point          '106-108 deg.C'
_cell_formula_units_Z            8
_exptl_crystal_recrystallization_method 'ethyl acetate/diisopropyl ether'
loop_
_atom_site_label
_atom_site_type_symbol
_atom_site_fract_x
_atom_site_fract_y
_atom_site_fract_z
N1 N -0.00608(18) 0.53394(11) 0.02229(8)
C1 C -0.0378(2) 0.61786(14) 0.0335(1)
N2 N -0.01332(18) 0.64423(11) 0.08735(8)
C2 C 0.03793(18) 0.57202(13) 0.11371(9)
C3 C 0.08000(18) 0.55593(12) 0.17163(8)
N3 N 0.11714(15) 0.4756(1) 0.18483(7)
C4 C 0.11589(19) 0.41450(13) 0.14174(9)
N4 N 0.08107(16) 0.42315(11) 0.08491(7)
C5 C 0.04130(19) 0.50384(13) 0.07446(9)
C6 C -0.0268(2) 0.48295(14) -0.03169(9)
C7 C -0.0124(8) 0.5361(6) -0.0875(3)
C8 C -0.1450(4) 0.4408(3) -0.0286(2)
N5 N 0.08394(16) 0.61641(11) 0.21403(7)
C9 C 0.11538(18) 0.59766(13) 0.27541(8)
C10 C 0.23482(17) 0.62754(12) 0.29487(8)
C11 C 0.3334(2) 0.61867(16) 0.2599(1)
C12 C 0.4420(2) 0.64578(18) 0.28109(14)
C13 C 0.4525(2) 0.68093(19) 0.33678(13)
C14 C 0.3565(3) 0.68992(19) 0.37162(11)
C15 C 0.2478(2) 0.66330(15) 0.35091(9)
N6 N 0.15415(17) 0.33524(11) 0.15850(8)
C16 C 0.19372(18) 0.31657(13) 0.21853(9)
C17 C 0.31398(19) 0.35290(14) 0.23251(9)
C18 C 0.3318(3) 0.3651(2) 0.29859(12)
C19 C 0.1869(2) 0.21948(14) 0.2269(1)
O1 O 0.25561(13) 0.1777(1) 0.18272(8)
H1 H 0.224(2) 0.1277(15) 0.1752(13)
H2 H -0.0765 0.6557 0.0032
H3 H 0.0645 0.6774 0.2030
H4 H 0.3267 0.5930 0.2192
H5 H 0.5129 0.6395 0.2553
H6 H 0.5310 0.6997 0.3517
H7 H 0.3638 0.7157 0.4122
H8 H 0.1773 0.6701 0.3770
H9 H 0.1554 0.2877 0.1284
H10 H 0.0561 0.6261 0.3017
H11 H 0.1117 0.5336 0.2811
H12 H 0.3227 0.4100 0.2123
H13 H 0.3748 0.3120 0.2172
H14 H 0.2174 0.2038 0.2673
H15 H 0.1036 0.2001 0.2233
H16 H 0.0341 0.4365 -0.0337
H17 H 0.1415 0.3467 0.2477
H18 H -0.0270 0.4990 -0.1231
H19 H -0.0693 0.5851 -0.0871
H20 H 0.0695 0.5595 -0.0893
H21 H -0.1586 0.4063 -0.0657
H22 H -0.1488 0.4020 0.0067
H23 H -0.2077 0.4793 -0.0263
H24 H 0.4119 0.3890 0.3061
H25 H 0.2716 0.4061 0.3143
H26 H 0.3237 0.3081 0.3193
N7 N 0.18915(17) -0.08008(11) 0.23373(8)
C20 C 0.1531(2) -0.16387(15) 0.2424(1)
N8 N 0.07809(17) -0.1916(1) 0.20331(7)
C21 C 0.06255(19) -0.12086(12) 0.16567(8)
C22 C -0.01184(18) -0.10612(13) 0.11707(8)
N9 N -0.01215(15) -0.0277(1) 0.09129(7)
C23 C 0.06253(18) 0.03282(12) 0.11243(8)
N10 N 0.13724(15) 0.0259(1) 0.15808(7)
C24 C 0.13066(18) -0.05233(12) 0.18389(8)
C25 C 0.2712(3) -0.02990(16) 0.27013(13)
C26 C 0.2350(6) -0.0512(4) 0.3409(2)
C27 C 0.3891(11) -0.0506(11) 0.2603(5)
N11 N -0.08411(16) -0.16721(11) 0.09594(7)
C28 C -0.1682(2) -0.15042(15) 0.04882(11)
C29 C -0.1271(2) -0.17526(15) -0.0124(1)
C30 C -0.0112(3) -0.16888(16) -0.02835(11)
C31 C 0.0240(4) -0.1918(2) -0.08600(13)
C32 C -0.0609(6) -0.2206(3) -0.12595(14)
C33 C -0.1746(5) -0.2258(3) -0.10985(19)
C34 C -0.2083(3) -0.2035(2) -0.05372(14)
N12 N 0.06084(16) 0.1105(1) 0.08395(7)
C35 C -0.0100(2) 0.12982(13) 0.03197(9)
C36 C 0.0358(2) 0.08820(15) -0.0249(1)
C37 C -0.0568(4) 0.0830(2) -0.07344(12)
C38 C -0.0183(2) 0.22821(15) 0.0270(1)
O2 O 0.09551(15) 0.2640(1) 0.02480(7)
H27 H 0.0941(15) 0.3141(15) 0.0408(17)
H28 H 0.1823 -0.2004 0.2760
H29 H -0.0800 -0.2266 0.1132
H30 H 0.0480 -0.1478 0.0011
H31 H 0.1084 -0.1876 -0.0980
H32 H -0.0360 -0.2371 -0.1672
H33 H -0.2340 -0.2459 -0.1394
H34 H -0.2928 -0.2078 -0.0423
H35 H 0.1120 0.1577 0.0999
H36 H -0.2411 -0.1838 0.0577
H37 H -0.1862 -0.0873 0.0488
H38 H 0.1032 0.1232 -0.0400
H39 H 0.0630 0.0284 -0.0155
H40 H -0.0610 0.2516 0.0624
H41 H -0.0619 0.2439 -0.0101
H42 H 0.2641 0.0327 0.2595
H43 H -0.0897 0.1039 0.0372
H44 H 0.2880 -0.0190 0.3681
H45 H 0.2431 -0.1150 0.3481
H46 H 0.1519 -0.0336 0.3479
H47 H 0.4401 -0.0127 0.2870
H48 H 0.4047 -0.1118 0.2699
H49 H 0.4109 -0.0380 0.2181
H50 H -0.0226 0.0556 -0.1097
H51 H -0.0845 0.1428 -0.0835
H52 H -0.1248 0.0480 -0.0591
C39? C 0.059(2) 0.5197(15) -0.0760(9)
C40? C -0.1488(16) 0.4961(15) -0.056(1)
C41? C 0.2315(7) 0.0056(6) 0.3199(5)
C42? C 0.388(1) -0.080(1) 0.2757(6)
H53? H -0.0190 0.4197 -0.0235
H54? H -0.2069 0.4865 -0.0253
H55? H 0.0531 0.4875 -0.1143
H56? H 0.0453 0.5817 -0.0818
H57? H 0.1419 0.5108 -0.0597
H58? H -0.1582 0.4608 -0.0932
H59? H -0.1588 0.5591 -0.0668
H60? H 0.2848 0.0253 0.2480
H61? H 0.2968 0.0373 0.3407
H62? H 0.2025 -0.0414 0.3476
H63? H 0.1662 0.0461 0.3115
H64? H 0.4433 -0.0460 0.3002
H65? H 0.3719 -0.1371 0.2945
H66? H 0.4206 -0.0889 0.2348
loop_
_geom_bond_atom_site_label_1
_geom_bond_atom_site_label_2
_geom_bond_site_symmetry_1
_geom_bond_site_symmetry_2
N1 C1 1_555 1_555
C1 N2 1_555 1_555
N2 C2 1_555 1_555
C2 C3 1_555 1_555
C3 N3 1_555 1_555
N3 C4 1_555 1_555
C4 N4 1_555 1_555
N4 C5 1_555 1_555
C5 N1 1_555 1_555
C6 N1 1_555 1_555
C7 C6 1_555 1_555
C8 C6 1_555 1_555
N5 C3 1_555 1_555
C9 N5 1_555 1_555
C10 C9 1_555 1_555
C11 C10 1_555 1_555
C12 C11 1_555 1_555
C13 C12 1_555 1_555
C14 C13 1_555 1_555
C15 C10 1_555 1_555
N6 C4 1_555 1_555
C16 N6 1_555 1_555
C17 C16 1_555 1_555
C18 C17 1_555 1_555
C19 C16 1_555 1_555
O1 C19 1_555 1_555
H1 O1 1_555 1_555
H2 C1 1_555 1_555
H3 N5 1_555 1_555
H4 C11 1_555 1_555
H5 C12 1_555 1_555
H6 C13 1_555 1_555
H7 C14 1_555 1_555
H8 C15 1_555 1_555
H9 N6 1_555 1_555
H10 C9 1_555 1_555
H11 C9 1_555 1_555
H12 C17 1_555 1_555
H13 C17 1_555 1_555
H14 C19 1_555 1_555
H15 C19 1_555 1_555
H16 C6 1_555 1_555
H17 C16 1_555 1_555
H18 C7 1_555 1_555
H19 C7 1_555 1_555
H20 C7 1_555 1_555
H21 C8 1_555 1_555
H22 C8 1_555 1_555
H23 C8 1_555 1_555
H24 C18 1_555 1_555
H25 C18 1_555 1_555
H26 C18 1_555 1_555
N7 C20 1_555 1_555
C20 N8 1_555 1_555
N8 C21 1_555 1_555
C21 C22 1_555 1_555
C22 N9 1_555 1_555
N9 C23 1_555 1_555
C23 N10 1_555 1_555
N10 C24 1_555 1_555
C24 N7 1_555 1_555
C25 N7 1_555 1_555
C26 C25 1_555 1_555
C27 C25 1_555 1_555
N11 C22 1_555 1_555
C28 N11 1_555 1_555
C29 C28 1_555 1_555
C30 C29 1_555 1_555
C31 C30 1_555 1_555
C32 C31 1_555 1_555
C33 C32 1_555 1_555
C34 C29 1_555 1_555
N12 C23 1_555 1_555
C35 N12 1_555 1_555
C36 C35 1_555 1_555
C37 C36 1_555 1_555
C38 C35 1_555 1_555
O2 C38 1_555 1_555
H27 O2 1_555 1_555
H28 C20 1_555 1_555
H29 N11 1_555 1_555
H30 C30 1_555 1_555
H31 C31 1_555 1_555
H32 C32 1_555 1_555
H33 C33 1_555 1_555
H34 C34 1_555 1_555
H35 N12 1_555 1_555
H36 C28 1_555 1_555
H37 C28 1_555 1_555
H38 C36 1_555 1_555
H39 C36 1_555 1_555
H40 C38 1_555 1_555
H41 C38 1_555 1_555
H42 C25 1_555 1_555
H43 C35 1_555 1_555
H44 C26 1_555 1_555
H45 C26 1_555 1_555
H46 C26 1_555 1_555
H47 C27 1_555 1_555
H48 C27 1_555 1_555
H49 C27 1_555 1_555
H50 C37 1_555 1_555
H51 C37 1_555 1_555
H52 C37 1_555 1_555
C2 C5 1_555 1_555
C14 C15 1_555 1_555
C21 C24 1_555 1_555
C33 C34 1_555 1_555

#END
