
#######################################################################
#
#                 Cambridge Crystallographic Data Centre
#                                CCDC 
#
#######################################################################
#
# If this CIF has been generated from an entry in the Cambridge 
# Structural Database, then it will include bibliographic, chemical, 
# crystal, experimental, refinement or atomic coordinate data resulting 
# from the CCDC's data processing and validation procedures.
#
#######################################################################

data_BAHMUU
_chemical_formula_moiety         'C13 H12 N3 O1 1+,H2 O1,I1 1-'
_chemical_name_systematic        
'2-(1-Methyl-2-oxo-1,2-dihydropyridin-3-yl)-1H-benzimidazol-3-ium iodide monohydrate'
_symmetry_cell_setting           monoclinic
_symmetry_space_group_name_H-M   'P 21'
_symmetry_Int_Tables_number      4
_space_group_name_Hall           'P 2yb'
loop_
_symmetry_equiv_pos_site_id
_symmetry_equiv_pos_as_xyz
1 x,y,z
2 -x,1/2+y,-z
_cell_length_a                   10.058(2)
_cell_length_b                   5.7973(14)
_cell_length_c                   11.975(3)
_cell_angle_alpha                90
_cell_angle_beta                 92.075(4)
_cell_angle_gamma                90
_cell_volume                     697.795
_exptl_crystal_colour            'pale yellow'
_exptl_crystal_description       piece
_cell_formula_units_Z            2
loop_
_atom_site_label
_atom_site_type_symbol
_atom_site_fract_x
_atom_site_fract_y
_atom_site_fract_z
C1 C 1.1584(4) -0.5265(19) 0.6576(3)
H1 H 1.1967 -0.6573 0.6959
H2 H 1.2257 -0.4117 0.6477
H3 H 1.1223 -0.5740 0.5859
C2 C 0.9847(5) -0.2407(8) 0.6810(4)
C3 C 0.8854(5) -0.1452(9) 0.7510(4)
C4 C 0.8620(5) -0.2449(9) 0.8530(4)
H4 H 0.7969 -0.1830 0.8972
C5 C 0.9330(5) -0.4340(9) 0.8906(4)
H5 H 0.9156 -0.5020 0.9589
C6 C 1.0288(4) -0.5182(17) 0.8254(4)
H6 H 1.0805 -0.6411 0.8515
C7 C 0.8118(5) 0.0530(7) 0.7114(4)
C8 C 0.7405(5) 0.3491(8) 0.6061(4)
C9 C 0.6657(5) 0.3400(8) 0.7014(4)
C10 C 0.5666(5) 0.4979(14) 0.7192(4)
H7 H 0.5162 0.4925 0.7827
C11 C 0.5456(5) 0.6639(9) 0.6385(5)
H8 H 0.4805 0.7753 0.6484
C12 C 0.6187(5) 0.6692(9) 0.5432(5)
H9 H 0.6008 0.7829 0.4900
C13 C 0.7172(5) 0.5112(11) 0.5248(4)
H10 H 0.7658 0.5143 0.4601
N1 N 1.0516(4) -0.4293(7) 0.7239(3)
N2 N 0.8300(4) 0.1677(6) 0.6168(3)
H11 H 0.8889 0.1339 0.5691
N3 N 0.7119(4) 0.1551(7) 0.7635(3)
H12 H 0.6812 0.1116 0.8263
O1 O 1.0113(3) -0.1672(6) 0.5874(3)
I1 I 0.70802(3) 0.46927(11) 0.15348(3)
O2 O 0.6079(3) 0.0510(6) 0.9602(3)
H13 H 0.6182 0.1646 1.0046
H14 H 0.5254 0.0227 0.9502
loop_
_geom_bond_atom_site_label_1
_geom_bond_atom_site_label_2
_geom_bond_site_symmetry_1
_geom_bond_site_symmetry_2
C1 H1 1_555 1_555
H2 C1 1_555 1_555
H3 C1 1_555 1_555
C2 C3 1_555 1_555
C3 C4 1_555 1_555
C4 H4 1_555 1_555
C5 C4 1_555 1_555
H5 C5 1_555 1_555
C6 C5 1_555 1_555
H6 C6 1_555 1_555
C7 C3 1_555 1_555
C8 C9 1_555 1_555
C9 C10 1_555 1_555
C10 H7 1_555 1_555
C11 C10 1_555 1_555
H8 C11 1_555 1_555
C12 C11 1_555 1_555
H9 C12 1_555 1_555
C13 C8 1_555 1_555
H10 C13 1_555 1_555
N1 C1 1_555 1_555
N2 C7 1_555 1_555
H11 N2 1_555 1_555
N3 C7 1_555 1_555
H12 N3 1_555 1_555
O1 C2 1_555 1_555
O2 H13 1_555 1_555
H14 O2 1_555 1_555
C2 N1 1_555 1_555
C6 N1 1_555 1_555
C8 N2 1_555 1_555
C9 N3 1_555 1_555
C12 C13 1_555 1_555

#END
