
#######################################################################
#
#                 Cambridge Crystallographic Data Centre
#                                CCDC 
#
#######################################################################
#
# If this CIF has been generated from an entry in the Cambridge 
# Structural Database, then it will include bibliographic, chemical, 
# crystal, experimental, refinement or atomic coordinate data resulting 
# from the CCDC's data processing and validation procedures.
#
#######################################################################

data_BAHNUV
_chemical_formula_moiety         'C3 H18 Mg1 N12 O3 2+,2(Cl1 O4 1-)'
_chemical_name_systematic        
'tris(carbonohydrazide)-magnesium diperchlorate'
_symmetry_cell_setting           monoclinic
_symmetry_space_group_name_H-M   'P 21/n'
_symmetry_Int_Tables_number      14
_space_group_name_Hall           '-P 2yn'
loop_
_symmetry_equiv_pos_site_id
_symmetry_equiv_pos_as_xyz
1 x,y,z
2 1/2-x,1/2+y,1/2-z
3 -x,-y,-z
4 1/2+x,1/2-y,1/2+z
_cell_length_a                   10.034(2)
_cell_length_b                   8.5069(16)
_cell_length_c                   21.285(4)
_cell_angle_alpha                90
_cell_angle_beta                 100.901(3)
_cell_angle_gamma                90
_cell_volume                     1784.07
_exptl_crystal_colour            colorless
_exptl_crystal_description       chunk
_cell_formula_units_Z            4
loop_
_atom_site_label
_atom_site_type_symbol
_atom_site_fract_x
_atom_site_fract_y
_atom_site_fract_z
Mg1 Mg 0.39547(7) 0.64028(8) 0.61861(3)
O1 O 0.56016(14) 0.49573(17) 0.64351(7)
O2 O 0.51729(15) 0.82453(17) 0.60817(7)
O3 O 0.37060(15) 0.57183(17) 0.52671(7)
N1 N 0.42793(19) 0.6333(2) 0.72511(9)
N2 N 0.54376(18) 0.5394(2) 0.74710(8)
N3 N 0.69845(18) 0.3628(2) 0.72181(8)
N4 N 0.7343(2) 0.3300(2) 0.78753(9)
N5 N 0.25018(18) 0.8406(2) 0.59827(9)
N6 N 0.32371(19) 0.9659(2) 0.57741(9)
N7 N 0.5327(2) 1.0738(2) 0.57473(9)
N8 N 0.4665(2) 1.2164(2) 0.55394(10)
N9 N 0.22026(19) 0.4734(2) 0.60828(8)
N10 N 0.18509(19) 0.4360(2) 0.54243(9)
N11 N 0.25287(19) 0.4312(2) 0.44528(8)
N12 N 0.1417(3) 0.3334(4) 0.42221(12)
C1 C 0.59862(19) 0.4657(2) 0.70230(9)
C2 C 0.4599(2) 0.9516(2) 0.58798(9)
C3 C 0.2727(2) 0.4830(2) 0.50539(9)
H1 H 0.356(3) 0.590(3) 0.7376(13)
H2 H 0.442(3) 0.722(4) 0.7433(14)
H3 H 0.563(3) 0.513(4) 0.7840(15)
H4 H 0.743(3) 0.329(4) 0.6940(12)
H5 H 0.725(3) 0.229(4) 0.7937(14)
H6 H 0.815(3) 0.353(3) 0.7999(14)
H7 H 0.185(3) 0.822(3) 0.5676(14)
H8 H 0.216(3) 0.873(3) 0.6324(15)
H9 H 0.287(3) 1.0569(19) 0.5715(14)
H10 H 0.624(3) 1.067(4) 0.5824(15)
H11 H 0.496(3) 1.252(4) 0.5174(16)
H12 H 0.497(3) 1.287(4) 0.5832(15)
H13 H 0.238(3) 0.384(4) 0.6297(14)
H14 H 0.149(3) 0.519(3) 0.6216(13)
H15 H 0.119(2) 0.373(3) 0.5294(13)
H16 H 0.308(2) 0.461(3) 0.4219(11)
H17 H 0.175(4) 0.246(5) 0.4154(17)
H18 H 0.101(4) 0.368(4) 0.3877(19)
Cl1 Cl 0.41544(5) 1.10835(5) 0.74455(2)
O4 O 0.38328(18) 1.2190(2) 0.69322(8)
O5 O 0.31727(16) 0.98143(19) 0.73598(8)
O6 O 0.41155(18) 1.1863(2) 0.80429(8)
O7 O 0.54822(17) 1.0435(2) 0.74609(9)
Cl2 Cl -0.06304(5) 0.17631(7) 0.59548(3)
O8 O -0.0693(2) 0.2393(2) 0.53277(8)
O9 O 0.0729(3) 0.1237(4) 0.61865(13)
O10 O -0.0891(4) 0.2997(5) 0.6377(2)
O11 O -0.1572(3) 0.0529(3) 0.59617(16)
O12? O -0.035(3) 0.2993(19) 0.6419(8)
O13? O -0.1990(14) 0.179(2) 0.6057(9)
O14? O 0.000(2) 0.032(2) 0.6194(6)
loop_
_geom_bond_atom_site_label_1
_geom_bond_atom_site_label_2
_geom_bond_site_symmetry_1
_geom_bond_site_symmetry_2
Mg1 O1 1_555 1_555
O1 C1 1_555 1_555
O2 Mg1 1_555 1_555
O3 Mg1 1_555 1_555
N1 Mg1 1_555 1_555
N2 N1 1_555 1_555
N3 N4 1_555 1_555
N4 H5 1_555 1_555
N5 Mg1 1_555 1_555
N6 N5 1_555 1_555
N7 N8 1_555 1_555
N8 H11 1_555 1_555
N9 Mg1 1_555 1_555
N10 N9 1_555 1_555
N11 N12 1_555 1_555
N12 H17 1_555 1_555
C1 N2 1_555 1_555
C2 O2 1_555 1_555
C3 O3 1_555 1_555
Cl1 O4 1_555 1_555
O5 Cl1 1_555 1_555
O6 Cl1 1_555 1_555
O7 Cl1 1_555 1_555
Cl2 O8 1_555 1_555
O9 Cl2 1_555 1_555
O10 Cl2 1_555 1_555
O11 Cl2 1_555 1_555
H1 N1 1_555 1_555
H2 N1 1_555 1_555
H3 N2 1_555 1_555
H4 N3 1_555 1_555
H6 N4 1_555 1_555
H7 N5 1_555 1_555
H8 N5 1_555 1_555
H9 N6 1_555 1_555
H10 N7 1_555 1_555
H12 N8 1_555 1_555
H13 N9 1_555 1_555
H14 N9 1_555 1_555
H15 N10 1_555 1_555
H16 N11 1_555 1_555
H18 N12 1_555 1_555
N3 C1 1_555 1_555
N6 C2 1_555 1_555
N7 C2 1_555 1_555
N10 C3 1_555 1_555
N11 C3 1_555 1_555

#END
