
#######################################################################
#
#                 Cambridge Crystallographic Data Centre
#                                CCDC 
#
#######################################################################
#
# If this CIF has been generated from an entry in the Cambridge 
# Structural Database, then it will include bibliographic, chemical, 
# crystal, experimental, refinement or atomic coordinate data resulting 
# from the CCDC's data processing and validation procedures.
#
#######################################################################

data_BAHPEG
_chemical_formula_moiety         '2(C1 H7 N4 1+),C6 H1 N3 O8 2-,0.5(H2 O1)'
_chemical_name_systematic        'bis(Aminoguanidinium) styphnate hemihydrate'
_symmetry_cell_setting           monoclinic
_symmetry_space_group_name_H-M   'C 2/c'
_symmetry_Int_Tables_number      15
_space_group_name_Hall           '-C 2yn'
loop_
_symmetry_equiv_pos_site_id
_symmetry_equiv_pos_as_xyz
1 x,y,z
2 -x,y,1/2-z
3 1/2+x,1/2+y,z
4 1/2-x,1/2+y,1/2-z
5 -x,-y,-z
6 x,-y,1/2+z
7 1/2-x,1/2-y,-z
8 1/2+x,1/2-y,1/2+z
_cell_length_a                   17.895(2)
_cell_length_b                   10.651(2)
_cell_length_c                   18.929(3)
_cell_angle_alpha                90
_cell_angle_beta                 116.83(1)
_cell_angle_gamma                90
_cell_volume                     3219.47
_cell_formula_units_Z            8
loop_
_atom_site_label
_atom_site_type_symbol
_atom_site_fract_x
_atom_site_fract_y
_atom_site_fract_z
O1 O 0.2021(1) 0.1759(1) 0.5464(1)
O2 O 0.2089(1) 0.2909(1) 0.6722(1)
O3 O 0.2351(1) 0.4862(1) 0.6657(1)
O4 O 0.0991(1) 0.5835(1) 0.5469(1)
O5 O 0.0117(1) 0.6839(1) 0.4049(1)
O6 O -0.0431(1) 0.5560(1) 0.3079(1)
O7 O 0.0927(1) 0.1819(2) 0.3087(1)
O8 O 0.1212(1) 0.0586(1) 0.4068(1)
N1 N 0.2012(1) 0.3869(1) 0.6324(1)
N2 N 0.0069(1) 0.5777(1) 0.3777(1)
N3 N 0.1079(1) 0.1643(2) 0.3784(1)
C1 C 0.1572(1) 0.2667(2) 0.5108(1)
C2 C 0.1537(1) 0.3818(2) 0.5487(1)
C3 C 0.1056(1) 0.4915(2) 0.5099(1)
C4 C 0.0591(1) 0.4796(2) 0.4243(1)
C5 C 0.0621(1) 0.3716(2) 0.3856(1)
C6 C 0.1084(1) 0.2698(2) 0.4252(1)
O9 O 0.0000 0.9234(2) 0.2500
N4 N 0.4274(1) 0.5623(2) 0.8835(1)
N5 N 0.3840(1) 0.4577(1) 0.8390(1)
N6 N 0.3481(1) 0.2512(2) 0.8313(1)
N7 N 0.4436(1) 0.3320(2) 0.9491(1)
C7 C 0.3919(1) 0.3471(2) 0.8737(1)
N8 N 0.1738(2) 0.7884(2) 0.3876(1)
N9 N 0.1620(1) 0.6821(1) 0.3396(1)
N10 N 0.1949(1) 0.4778(2) 0.3276(1)
N11 N 0.2562(1) 0.5748(2) 0.4479(1)
C8 C 0.2045(1) 0.5781(2) 0.3723(1)
loop_
_geom_bond_atom_site_label_1
_geom_bond_atom_site_label_2
_geom_bond_site_symmetry_1
_geom_bond_site_symmetry_2
O1 C1 1_555 1_555
O2 N1 1_555 1_555
O3 N1 1_555 1_555
O4 C3 1_555 1_555
O5 N2 1_555 1_555
O6 N2 1_555 1_555
O7 N3 1_555 1_555
O8 N3 1_555 1_555
N1 C2 1_555 1_555
N2 C4 1_555 1_555
N3 C6 1_555 1_555
N4 N5 1_555 1_555
N5 C7 1_555 1_555
N6 C7 1_555 1_555
N7 C7 1_555 1_555
N8 N9 1_555 1_555
N9 C8 1_555 1_555
N10 C8 1_555 1_555
N11 C8 1_555 1_555
C1 C2 1_555 1_555
C2 C3 1_555 1_555
C3 C4 1_555 1_555
C4 C5 1_555 1_555
C5 C6 1_555 1_555
C6 C1 1_555 1_555

#END
