
#######################################################################
#
#                 Cambridge Crystallographic Data Centre
#                                CCDC 
#
#######################################################################
#
# If this CIF has been generated from an entry in the Cambridge 
# Structural Database, then it will include bibliographic, chemical, 
# crystal, experimental, refinement or atomic coordinate data resulting 
# from the CCDC's data processing and validation procedures.
#
#######################################################################

data_BAHQUX
_chemical_name_common            '7-Ethylsalicylidene aniline'
_chemical_formula_moiety         'C15 H15 N1 O1'
_chemical_name_systematic        2-(1-(Phenylimino)propyl)phenol
_symmetry_cell_setting           monoclinic
_symmetry_space_group_name_H-M   'C 2/c'
_symmetry_Int_Tables_number      15
_space_group_name_Hall           '-C 2yn'
loop_
_symmetry_equiv_pos_site_id
_symmetry_equiv_pos_as_xyz
1 x,y,z
2 -x,y,1/2-z
3 1/2+x,1/2+y,z
4 1/2-x,1/2+y,1/2-z
5 -x,-y,-z
6 x,-y,1/2+z
7 1/2-x,1/2-y,-z
8 1/2+x,1/2-y,1/2+z
_cell_length_a                   23.763(5)
_cell_length_b                   7.850(2)
_cell_length_c                   17.022(3)
_cell_angle_alpha                90
_cell_angle_beta                 129.97
_cell_angle_gamma                90
_cell_volume                     2433.47
_cell_formula_units_Z            8
_exptl_crystal_recrystallization_method methanol
loop_
_atom_site_label
_atom_site_type_symbol
_atom_site_fract_x
_atom_site_fract_y
_atom_site_fract_z
O1 O 0.07912(6) 0.22992(14) 0.23496(9)
N1 N 0.12117(6) 0.23702(14) 0.41359(8)
C1 C 0.08024(7) 0.40107(19) 0.23818(11)
C2 C 0.10119(7) 0.49058(17) 0.32509(10)
C3 C 0.10081(10) 0.6689(2) 0.32039(14)
C4 C 0.08183(11) 0.7531(3) 0.23550(16)
C5 C 0.06260(11) 0.6611(3) 0.15244(15)
C6 C 0.06106(9) 0.4880(2) 0.15314(13)
C7 C 0.12336(7) 0.40075(17) 0.41716(10)
C8 C 0.14943(10) 0.5010(2) 0.51027(13)
C9 C 0.22838(12) 0.5627(3) 0.57116(16)
C10 C 0.14034(7) 0.13470(17) 0.49624(10)
C11 C 0.21265(9) 0.1087(2) 0.58319(13)
C12 C 0.22888(10) 0.0033(2) 0.66019(13)
C13 C 0.17368(10) -0.0770(2) 0.65113(13)
C14 C 0.10213(10) -0.0537(2) 0.56427(13)
C15 C 0.08500(9) 0.0499(2) 0.48606(13)
H1 H 0.0936(11) 0.197(3) 0.3008(17)
H2 H 0.1144(10) 0.733(2) 0.3832(15)
H3 H 0.0830(11) 0.878(3) 0.2407(15)
H4 H 0.0498(11) 0.723(3) 0.0921(17)
H5 H 0.0477(11) 0.423(3) 0.0929(15)
H6 H 0.1141(9) 0.600(2) 0.4892(12)
H7 H 0.1447(9) 0.427(2) 0.5521(13)
H8 H 0.2320(11) 0.630(3) 0.5229(16)
H9 H 0.2471(13) 0.625(3) 0.6335(18)
H10 H 0.2633(12) 0.461(3) 0.5947(16)
H11 H 0.2518(10) 0.169(2) 0.5907(13)
H12 H 0.2809(10) -0.015(2) 0.7201(14)
H13 H 0.1880(10) -0.158(3) 0.7121(15)
H14 H 0.0596(9) -0.113(2) 0.5535(12)
H15 H 0.0367(10) 0.065(2) 0.4260(14)
loop_
_geom_bond_atom_site_label_1
_geom_bond_atom_site_label_2
_geom_bond_site_symmetry_1
_geom_bond_site_symmetry_2
O1 C1 1_555 1_555
N1 C7 1_555 1_555
C1 C2 1_555 1_555
C2 C3 1_555 1_555
C3 C4 1_555 1_555
C4 C5 1_555 1_555
C5 C6 1_555 1_555
C6 C1 1_555 1_555
C7 C2 1_555 1_555
C8 C7 1_555 1_555
C9 C8 1_555 1_555
C10 N1 1_555 1_555
C11 C10 1_555 1_555
C12 C11 1_555 1_555
C13 C12 1_555 1_555
C14 C13 1_555 1_555
C15 C10 1_555 1_555
H1 O1 1_555 1_555
H2 C3 1_555 1_555
H3 C4 1_555 1_555
H4 C5 1_555 1_555
H5 C6 1_555 1_555
H6 C8 1_555 1_555
H7 C8 1_555 1_555
H8 C9 1_555 1_555
H9 C9 1_555 1_555
H10 C9 1_555 1_555
H11 C11 1_555 1_555
H12 C12 1_555 1_555
H13 C13 1_555 1_555
H14 C14 1_555 1_555
H15 C15 1_555 1_555
C14 C15 1_555 1_555

#END
