
#######################################################################
#
#                 Cambridge Crystallographic Data Centre
#                                CCDC 
#
#######################################################################
#
# If this CIF has been generated from an entry in the Cambridge 
# Structural Database, then it will include bibliographic, chemical, 
# crystal, experimental, refinement or atomic coordinate data resulting 
# from the CCDC's data processing and validation procedures.
#
#######################################################################

data_BAHSUB
_chemical_formula_moiety         'C74 H42 F10 N4 S4,2(C7 H8),3(H2 O1)'
_chemical_name_systematic        
'2,9,19,26-tetrakis(p-tolyl)-14,31-bis(pentafluorophenyl)-4,7,21,24-tetrathia-35,36,39,40-tetraazanonacyclo[30.2.1.1^3,6^.1^5,8^.1^10,13^.1^15,18^.1^20,23^.1^22,25^.1^27,30^]dotetraconta-1,3(42),5,8(41),9,11,13(40),14,16,18,20(38),22,25(37),26,28,30(36),31,33-octadecaene toluene solvate trihydrate'
_symmetry_cell_setting           triclinic
_symmetry_space_group_name_H-M   'P -1'
_symmetry_Int_Tables_number      2
_space_group_name_Hall           '-P 1'
loop_
_symmetry_equiv_pos_site_id
_symmetry_equiv_pos_as_xyz
1 x,y,z
2 -x,-y,-z
_cell_length_a                   12.123(6)
_cell_length_b                   18.835(10)
_cell_length_c                   19.026(10)
_cell_angle_alpha                113.593(5)
_cell_angle_beta                 100.841(6)
_cell_angle_gamma                90.554(6)
_cell_volume                     3892.69
_exptl_crystal_colour            'bluish green'
_exptl_crystal_description       block
_chemical_melting_point          '230 K'
_cell_formula_units_Z            2
loop_
_atom_site_label
_atom_site_type_symbol
_atom_site_fract_x
_atom_site_fract_y
_atom_site_fract_z
S1 S 0.84941(15) 0.27715(9) 0.22257(10)
S2 S 0.54870(15) 0.17852(9) 0.13710(10)
S3 S 0.78222(17) 0.34796(10) 0.44732(10)
S4 S 0.53478(17) 0.19712(10) 0.36168(10)
F1 F 0.6430(3) 0.4938(2) 0.7704(2)
F2 F 0.6165(3) 0.5320(2) 0.9188(2)
F3 F 0.5816(3) 0.4192(2) 0.9690(2)
F4 F 0.5833(3) 0.2655(2) 0.8709(2)
F5 F 0.6076(3) 0.2262(2) 0.7225(2)
F6 F 0.6589(4) 0.0930(2) -0.2036(2)
F7 F 0.7271(4) 0.0548(2) -0.3396(2)
F8 F 0.9379(4) 0.1038(2) -0.3405(2)
F9 F 1.0802(4) 0.1971(2) -0.2013(3)
F10 F 1.0155(3) 0.2331(2) -0.0638(2)
N1 N 0.7753(4) 0.2794(3) 0.0736(3)
N2 N 0.7261(4) 0.1264(3) 0.0298(3)
H1 H 0.7184 0.1700 0.0666
N3 N 0.7588(4) 0.2885(3) 0.5634(3)
H2 H 0.7137 0.2929 0.5250
N4 N 0.5482(4) 0.3247(3) 0.5270(3)
C1 C 0.7373(6) 0.3043(3) 0.6346(4)
C2 C 0.8345(6) 0.2889(4) 0.6838(4)
H3 H 0.8411 0.2949 0.7354
C3 C 0.9132(6) 0.2640(4) 0.6389(4)
H4 H 0.9838 0.2497 0.6542
C4 C 0.8664(6) 0.2639(3) 0.5625(4)
C5 C 0.9170(6) 0.2489(3) 0.4990(4)
C6 C 0.8689(5) 0.2706(3) 0.4342(4)
C7 C 0.8939(5) 0.2402(3) 0.3587(4)
H5 H 0.9361 0.1981 0.3401
C8 C 0.8452(5) 0.2830(3) 0.3145(4)
C9 C 0.7857(5) 0.3432(4) 0.3553(4)
C10 C 0.7432(5) 0.3893(4) 0.3134(4)
H6 H 0.7009 0.4313 0.3318
C11 C 0.7752(5) 0.3615(3) 0.2401(4)
C12 C 0.7646(5) 0.3996(3) 0.1860(4)
C13 C 0.7794(5) 0.3604(3) 0.1089(4)
C14 C 0.8098(5) 0.3920(4) 0.0560(4)
H7 H 0.8174 0.4443 0.0652
C15 C 0.8250(5) 0.3315(4) -0.0088(4)
H8 H 0.8467 0.3340 -0.0521
C16 C 0.8005(5) 0.2604(3) 0.0025(4)
C17 C 0.7996(5) 0.1815(4) -0.0515(4)
C18 C 0.7655(5) 0.1190(3) -0.0355(4)
C19 C 0.7644(6) 0.0367(4) -0.0809(4)
H9 H 0.7869 0.0142 -0.1287
C20 C 0.7263(6) -0.0022(4) -0.0439(4)
H10 H 0.7178 -0.0561 -0.0614
C21 C 0.7002(5) 0.0535(3) 0.0282(4)
C22 C 0.6568(5) 0.0394(3) 0.0841(4)
C23 C 0.6136(5) 0.0986(3) 0.1475(4)
C24 C 0.6142(5) 0.0974(3) 0.2220(3)
H11 H 0.6438 0.0598 0.2384
C25 C 0.5614(5) 0.1637(3) 0.2681(4)
C26 C 0.5242(5) 0.2123(3) 0.2306(4)
C27 C 0.4715(5) 0.2789(3) 0.2767(4)
H12 H 0.4409 0.3159 0.2600
C28 C 0.4738(6) 0.2786(3) 0.3516(4)
C29 C 0.4239(5) 0.3358(3) 0.4127(4)
C30 C 0.4552(5) 0.3518(3) 0.4920(4)
C31 C 0.4505(6) 0.3902(3) 0.6211(4)
H13 H 0.4286 0.4105 0.6691
C32 C 0.5492(5) 0.3487(3) 0.6052(4)
C33 C 0.6367(5) 0.3356(3) 0.6575(4)
C34 C 0.6257(5) 0.3589(4) 0.7413(3)
C35 C 0.6290(5) 0.4353(4) 0.7937(4)
C36 C 0.6166(5) 0.4565(4) 0.8699(4)
C37 C 0.6006(5) 0.3993(4) 0.8957(4)
C38 C 0.5994(5) 0.3219(4) 0.8467(4)
C39 C 0.6117(5) 0.3031(4) 0.7705(4)
C40 C 0.8343(6) 0.1642(4) -0.1277(4)
C41 C 0.9403(6) 0.1897(4) -0.1316(4)
C42 C 0.9742(7) 0.1705(4) -0.2025(5)
C43 C 0.9019(8) 0.1240(4) -0.2720(4)
C44 C 0.7961(7) 0.0988(4) -0.2710(5)
C45 C 0.7646(6) 0.1193(4) -0.1998(4)
C46 C 1.0283(5) 0.2150(4) 0.4961(3)
C47 C 1.0503(6) 0.1522(4) 0.5177(4)
H14 H 0.9945 0.1308 0.5329
C48 C 1.1544(6) 0.1219(4) 0.5166(4)
H15 H 1.1664 0.0797 0.5298
C49 C 1.2409(6) 0.1533(4) 0.4960(4)
C50 C 1.2190(6) 0.2156(4) 0.4744(4)
H16 H 1.2753 0.2366 0.4593
C51 C 1.1158(6) 0.2465(4) 0.4748(3)
H17 H 1.1043 0.2884 0.4610
C52 C 1.3563(6) 0.1230(4) 0.4967(4)
H18 H 1.3566 0.0792 0.5106
H19 H 1.4122 0.1634 0.5345
H20 H 1.3733 0.1072 0.4456
C53 C 0.6494(6) -0.0419(3) 0.0779(4)
C54 C 0.7398(6) -0.0881(4) 0.0627(4)
H21 H 0.8087 -0.0658 0.0630
C55 C 0.7275(6) -0.1663(4) 0.0475(4)
H22 H 0.7885 -0.1956 0.0373
C56 C 0.6270(6) -0.2022(4) 0.0470(4)
C57 C 0.5377(6) -0.1562(4) 0.0654(4)
H23 H 0.4699 -0.1786 0.0667
C58 C 0.5492(6) -0.0773(4) 0.0816(3)
H24 H 0.4897 -0.0475 0.0951
C59 C 0.6133(7) -0.2892(4) 0.0263(5)
H25 H 0.6568 -0.3158 -0.0122
H26 H 0.5352 -0.3083 0.0054
H27 H 0.6393 -0.2983 0.0725
C60 C 0.3353(5) 0.3791(4) 0.3859(4)
C61 C 0.3490(6) 0.4590(4) 0.4096(4)
H28 H 0.4131 0.4871 0.4464
C62 C 0.2702(6) 0.4986(4) 0.3801(4)
H29 H 0.2840 0.5519 0.3954
C63 C 0.1714(6) 0.4592(4) 0.3282(4)
C64 C 0.1544(6) 0.3797(4) 0.3058(5)
H30 H 0.0882 0.3522 0.2712
C65 C 0.0859(7) 0.5020(5) 0.2933(5)
H31 H 0.0609 0.5431 0.3349
H32 H 0.0224 0.4661 0.2592
H33 H 0.1208 0.5236 0.2640
C66 C 0.7494(5) 0.4846(3) 0.2147(4)
C67 C 0.6814(5) 0.5132(4) 0.1652(4)
H34 H 0.6402 0.4783 0.1169
C68 C 0.6745(5) 0.5922(4) 0.1870(4)
H35 H 0.6307 0.6091 0.1521
C69 C 0.7313(6) 0.6470(3) 0.2596(4)
C70 C 0.7962(5) 0.6185(4) 0.3104(4)
H36 H 0.8336 0.6534 0.3600
C71 C 0.8054(5) 0.5392(4) 0.2880(4)
H37 H 0.8499 0.5223 0.3226
C72 C 0.7202(6) 0.7329(4) 0.2832(4)
H38 H 0.6908 0.7421 0.2374
H39 H 0.7929 0.7614 0.3084
H40 H 0.6698 0.7497 0.3189
C73 C 0.2352(6) 0.3403(4) 0.3344(5)
H41 H 0.2219 0.2869 0.3186
C74 C 0.3955(6) 0.3945(3) 0.5543(4)
H42 H 0.3312 0.4200 0.5490
C75 C 0.7973(7) -0.0160(5) 0.3226(5)
H43 H 0.8676 -0.0127 0.3107
C76 C 0.7148(8) -0.0729(5) 0.2699(5)
H44 H 0.7295 -0.1088 0.2230
C77 C 0.6104(7) -0.0762(4) 0.2876(4)
H45 H 0.5538 -0.1138 0.2517
C78 C 0.5883(6) -0.0241(4) 0.3585(4)
H46 H 0.5178 -0.0278 0.3701
C79 C 0.6718(6) 0.0341(4) 0.4127(4)
C80 C 0.7759(7) 0.0365(4) 0.3932(5)
H47 H 0.8329 0.0743 0.4283
C81 C 0.6504(7) 0.0896(4) 0.4917(4)
H48 H 0.7181 0.1002 0.5311
H49 H 0.5913 0.0662 0.5050
H50 H 0.6283 0.1373 0.4889
C82 C 0.0876(9) 0.0726(4) 0.2702(5)
H51 H 0.0884 0.0536 0.3084
C83 C -0.0127(7) 0.0948(4) 0.1604(5)
H52 H -0.0797 0.0887 0.1246
C84 C 0.0816(7) 0.1338(4) 0.1564(5)
C85 C 0.1805(7) 0.1395(4) 0.2097(5)
H53 H 0.2462 0.1640 0.2078
C86 C 0.1835(8) 0.1090(5) 0.2667(5)
H54 H 0.2507 0.1135 0.3018
C87 C 0.0741(9) 0.1661(5) 0.0949(6)
H55 H 0.0501 0.1246 0.0438
H56 H 0.1468 0.1897 0.0989
H57 H 0.0206 0.2043 0.1029
C88 C -0.0109(7) 0.0647(4) 0.2158(5)
H58 H -0.0761 0.0390 0.2167
O1 O -0.0759(10) 0.5221(7) 0.9609(7)
O4 O 0.0315(11) 0.4073(7) 0.8882(7)
O4A O -0.0315(11) 0.5927(7) 1.1118(7)
O1A O 0.0759(10) 0.4779(7) 1.0391(7)
O6 O 0.1410(11) 0.4581(7) 0.5114(8)
O6A O -0.1410(11) 0.5419(7) 0.4886(8)
O2? O -0.044(2) 0.4515(14) 0.8942(14)
O3? O -0.098(2) 0.5812(13) 1.0387(14)
O5? O 0.0227(19) 0.4724(11) 0.5048(13)
loop_
_geom_bond_atom_site_label_1
_geom_bond_atom_site_label_2
_geom_bond_site_symmetry_1
_geom_bond_site_symmetry_2
S1 C8 1_555 1_555
S2 C23 1_555 1_555
S3 C6 1_555 1_555
S4 C25 1_555 1_555
F1 C35 1_555 1_555
F2 C36 1_555 1_555
F3 C37 1_555 1_555
F4 C38 1_555 1_555
F5 C39 1_555 1_555
F6 C45 1_555 1_555
F7 C44 1_555 1_555
F8 C43 1_555 1_555
F9 C42 1_555 1_555
F10 C41 1_555 1_555
N1 C13 1_555 1_555
N2 H1 1_555 1_555
N3 H2 1_555 1_555
N4 C30 1_555 1_555
C1 N3 1_555 1_555
C2 C1 1_555 1_555
H3 C2 1_555 1_555
C3 C2 1_555 1_555
H4 C3 1_555 1_555
C4 N3 1_555 1_555
C5 C4 1_555 1_555
C6 C5 1_555 1_555
C7 C6 1_555 1_555
H5 C7 1_555 1_555
C8 C7 1_555 1_555
C9 S3 1_555 1_555
C10 C9 1_555 1_555
H6 C10 1_555 1_555
C11 S1 1_555 1_555
C12 C11 1_555 1_555
C13 C12 1_555 1_555
C14 C13 1_555 1_555
H7 C14 1_555 1_555
C15 C14 1_555 1_555
H8 C15 1_555 1_555
C16 N1 1_555 1_555
C17 C16 1_555 1_555
C18 N2 1_555 1_555
C19 C18 1_555 1_555
H9 C19 1_555 1_555
C20 C19 1_555 1_555
H10 C20 1_555 1_555
C21 N2 1_555 1_555
C22 C21 1_555 1_555
C23 C22 1_555 1_555
C24 C23 1_555 1_555
H11 C24 1_555 1_555
C25 C24 1_555 1_555
C26 S2 1_555 1_555
C27 C26 1_555 1_555
H12 C27 1_555 1_555
C28 S4 1_555 1_555
C29 C28 1_555 1_555
C30 C29 1_555 1_555
C31 H13 1_555 1_555
C32 N4 1_555 1_555
C33 C1 1_555 1_555
C34 C33 1_555 1_555
C35 C34 1_555 1_555
C36 C35 1_555 1_555
C37 C36 1_555 1_555
C38 C37 1_555 1_555
C39 C34 1_555 1_555
C40 C17 1_555 1_555
C41 C40 1_555 1_555
C42 C41 1_555 1_555
C43 C42 1_555 1_555
C44 C43 1_555 1_555
C45 C40 1_555 1_555
C46 C5 1_555 1_555
C47 C46 1_555 1_555
H14 C47 1_555 1_555
C48 C47 1_555 1_555
H15 C48 1_555 1_555
C49 C48 1_555 1_555
C50 C49 1_555 1_555
H16 C50 1_555 1_555
C51 C46 1_555 1_555
H17 C51 1_555 1_555
C52 C49 1_555 1_555
H18 C52 1_555 1_555
H19 C52 1_555 1_555
H20 C52 1_555 1_555
C53 C22 1_555 1_555
C54 C53 1_555 1_555
H21 C54 1_555 1_555
C55 C54 1_555 1_555
H22 C55 1_555 1_555
C56 C55 1_555 1_555
C57 C56 1_555 1_555
H23 C57 1_555 1_555
C58 C53 1_555 1_555
H24 C58 1_555 1_555
C59 C56 1_555 1_555
H25 C59 1_555 1_555
H26 C59 1_555 1_555
H27 C59 1_555 1_555
C60 C29 1_555 1_555
C61 C60 1_555 1_555
H28 C61 1_555 1_555
C62 C61 1_555 1_555
H29 C62 1_555 1_555
C63 C62 1_555 1_555
C64 C63 1_555 1_555
H30 C64 1_555 1_555
C65 C63 1_555 1_555
H31 C65 1_555 1_555
H32 C65 1_555 1_555
H33 C65 1_555 1_555
C66 C12 1_555 1_555
C67 C66 1_555 1_555
H34 C67 1_555 1_555
C68 C67 1_555 1_555
H35 C68 1_555 1_555
C69 C68 1_555 1_555
C70 C69 1_555 1_555
H36 C70 1_555 1_555
C71 C66 1_555 1_555
H37 C71 1_555 1_555
C72 C69 1_555 1_555
H38 C72 1_555 1_555
H39 C72 1_555 1_555
H40 C72 1_555 1_555
C73 C60 1_555 1_555
H41 C73 1_555 1_555
C74 C30 1_555 1_555
H42 C74 1_555 1_555
C75 H43 1_555 1_555
C76 C75 1_555 1_555
H44 C76 1_555 1_555
C77 C76 1_555 1_555
H45 C77 1_555 1_555
C78 C77 1_555 1_555
H46 C78 1_555 1_555
C79 C78 1_555 1_555
C80 C75 1_555 1_555
H47 C80 1_555 1_555
C81 C79 1_555 1_555
H48 C81 1_555 1_555
H49 C81 1_555 1_555
H50 C81 1_555 1_555
C82 H51 1_555 1_555
C83 H52 1_555 1_555
C84 C83 1_555 1_555
C85 C84 1_555 1_555
H53 C85 1_555 1_555
C86 C82 1_555 1_555
H54 C86 1_555 1_555
C87 C84 1_555 1_555
H55 C87 1_555 1_555
H56 C87 1_555 1_555
H57 C87 1_555 1_555
C88 C82 1_555 1_555
H58 C88 1_555 1_555
C3 C4 1_555 1_555
C8 C9 1_555 1_555
C10 C11 1_555 1_555
C15 C16 1_555 1_555
C17 C18 1_555 1_555
C20 C21 1_555 1_555
C25 C26 1_555 1_555
C27 C28 1_555 1_555
C31 C32 1_555 1_555
C31 C74 1_555 1_555
C32 C33 1_555 1_555
C38 C39 1_555 1_555
C44 C45 1_555 1_555
C50 C51 1_555 1_555
C57 C58 1_555 1_555
C64 C73 1_555 1_555
C70 C71 1_555 1_555
C79 C80 1_555 1_555
C83 C88 1_555 1_555
C85 C86 1_555 1_555

#END
