
#######################################################################
#
#                 Cambridge Crystallographic Data Centre
#                                CCDC 
#
#######################################################################
#
# If this CIF has been generated from an entry in the Cambridge 
# Structural Database, then it will include bibliographic, chemical, 
# crystal, experimental, refinement or atomic coordinate data resulting 
# from the CCDC's data processing and validation procedures.
#
#######################################################################

data_BAHZES
_chemical_formula_moiety         'C39 H33 N1 O4,C1 H4 O1'
_chemical_name_systematic        
'ethyl (R,E)-2-(6-benzyl-4-(2-naphthyl)-7-oxo-4,5,6,7-tetrahydropyrano[2,3-c]pyrrol-2(3H)-ylidene)-3-(2-naphthyl)propanoate methanol solvate'
_symmetry_cell_setting           monoclinic
_symmetry_space_group_name_H-M   'P 21'
_symmetry_Int_Tables_number      4
_space_group_name_Hall           'P 2yb'
loop_
_symmetry_equiv_pos_site_id
_symmetry_equiv_pos_as_xyz
1 x,y,z
2 -x,1/2+y,-z
_cell_length_a                   14.9261(2)
_cell_length_b                   12.33670(10)
_cell_length_c                   18.0148(2)
_cell_angle_alpha                90
_cell_angle_beta                 107.3690(10)
_cell_angle_gamma                90
_cell_volume                     3165.97
_cell_formula_units_Z            4
_exptl_crystal_recrystallization_method tetrahydrofuran/methanol
loop_
_atom_site_label
_atom_site_type_symbol
_atom_site_fract_x
_atom_site_fract_y
_atom_site_fract_z
O1 O -0.13976(13) 0.24697(14) 0.70066(10)
O2 O 0.12288(13) 0.76330(15) 0.76342(11)
O3 O 0.02759(13) 0.56219(14) 0.69617(10)
O4 O -0.08530(15) 0.25701(17) 0.59827(11)
N1 N 0.16812(15) 0.76811(17) 0.65098(13)
C1 C 0.31356(18) 0.2999(2) 0.40095(15)
H1 H 0.3777 0.2949 0.4260
C2 C 0.23146(18) 0.4534(2) 0.54680(14)
H2 H 0.2558 0.4831 0.5962
C3 C 0.29071(17) 0.4035(2) 0.51230(14)
H3 H 0.3547 0.4007 0.5381
C4 C -0.06548(17) 0.4096(2) 0.68534(14)
C5 C 0.07977(17) 0.6254(2) 0.66232(15)
C6 C 0.1799(2) 0.2591(2) 0.29118(14)
H4 H 0.1555 0.2267 0.2427
C7 C 0.13357(17) 0.46056(19) 0.50846(14)
C8 C 0.01133(19) 0.5489(2) 0.86266(16)
H5 H 0.0027 0.6140 0.8353
C9 C 0.14711(19) 1.0360(2) 0.64654(16)
H6 H 0.1308 1.0237 0.6918
C10 C 0.00007(18) 0.4615(2) 0.66166(14)
C11 C 0.09957(17) 0.60755(19) 0.59588(14)
C12 C 0.1186(2) 1.1304(2) 0.60476(18)
H7 H 0.0833 1.1812 0.6220
C13 C 0.03749(19) 0.3529(2) 0.94434(15)
C14 C 0.08857(18) 0.4459(2) 0.97888(15)
C15 C 0.15727(17) 0.36288(19) 0.39834(14)
C16 C 0.12120(18) 0.3123(2) 0.32472(14)
H8 H 0.0572 0.3152 0.2990
C17 C -0.10613(17) 0.4616(2) 0.74511(14)
H9 H -0.1202 0.5371 0.7315
H10 H -0.1645 0.4256 0.7433
C18 C 0.20013(17) 0.9592(2) 0.62147(15)
C19 C 0.0536(2) 0.2538(3) 0.98665(16)
H11 H 0.0197 0.1923 0.9651
C20 C -0.09634(17) 0.2987(2) 0.65585(14)
C21 C 0.09850(16) 0.4168(2) 0.43582(14)
H12 H 0.0346 0.4225 0.4103
C22 C 0.25519(17) 0.35603(19) 0.43745(14)
C23 C -0.02682(18) 0.3603(2) 0.86867(15)
H13 H -0.0612 0.2994 0.8465
C24 C 0.1549(2) 0.4368(3) 1.05400(16)
H14 H 0.1888 0.4976 1.0771
C25 C -0.03956(17) 0.4550(2) 0.82746(15)
C26 C 0.2770(2) 0.2531(2) 0.32965(15)
H15 H 0.3164 0.2171 0.3063
C27 C 0.06769(17) 0.5064(2) 0.55020(14)
H16 H 0.0064 0.5197 0.5121
C28 C 0.07267(19) 0.5444(2) 0.93611(16)
H17 H 0.1045 0.6068 0.9584
C29 C 0.12396(17) 0.7265(2) 0.70021(15)
C30 C 0.05565(18) 0.4216(2) 0.60975(15)
H18 H 0.0247 0.3582 0.5818
H19 H 0.1173 0.3993 0.6420
C31 C 0.23398(19) 0.8589(2) 0.66995(17)
H20 H 0.2931 0.8361 0.6629
H21 H 0.2458 0.8773 0.7244
C32 C 0.2220(2) 0.9773(2) 0.55256(18)
H22 H 0.2559 0.9257 0.5345
C33 C 0.15576(19) 0.7016(2) 0.58179(15)
H23 H 0.2158 0.6780 0.5770
H24 H 0.1220 0.7408 0.5351
C34 C 0.1933(2) 1.0722(3) 0.51066(19)
H25 H 0.2082 1.0842 0.4647
C35 C 0.1183(2) 0.2479(3) 1.05877(17)
H26 H 0.1284 0.1824 1.0856
C36 C -0.1605(2) 0.1338(2) 0.67994(17)
H27 H -0.1027 0.0935 0.6870
H28 H -0.1980 0.1277 0.6259
C37 C 0.1424(2) 1.1492(2) 0.53752(19)
H29 H 0.1244 1.2135 0.5102
C38 C 0.1696(2) 0.3405(3) 1.09259(16)
H30 H 0.2136 0.3358 1.1415
C39 C -0.2137(2) 0.0895(2) 0.73224(19)
H31 H -0.1778 0.1005 0.7856
H32 H -0.2245 0.0133 0.7226
H33 H -0.2728 0.1263 0.7219
O5 O 0.71927(13) 0.57634(16) 0.81224(10)
O6 O 0.58448(12) 0.74469(14) 0.82362(10)
O7 O 0.43244(14) 1.07125(16) 0.75456(11)
N2 N 0.71831(16) 0.53477(18) 0.93750(12)
C40 C 0.51724(19) 0.9573(2) 1.19335(15)
H34 H 0.4578 0.9295 1.1881
C41 C 0.52920(17) 0.84689(19) 1.08137(14)
H35 H 0.4690 0.8200 1.0743
C42 C 0.57997(17) 0.81138(19) 1.03373(13)
C43 C 0.65814(18) 0.9656(2) 1.15056(14)
C44 C 0.56684(17) 0.92380(19) 1.14106(14)
O8 O 0.3940(2) 0.9925(2) 0.85175(16)
C45 C 0.52111(17) 0.8168(2) 0.84003(14)
C46 C 0.53707(18) 0.7262(2) 0.97198(13)
H36 H 0.4994 0.6771 0.9934
C47 C 0.66933(19) 0.5697(2) 0.99220(14)
H37 H 0.7131 0.5958 1.0402
H38 H 0.6322 0.5113 1.0039
C48 C 0.47403(17) 0.7865(2) 0.64174(15)
H39 H 0.4836 0.7387 0.6833
C49 C 0.67026(19) 0.8543(2) 1.04317(15)
H40 H 0.7046 0.8313 1.0107
C50 C 0.62344(18) 0.6704(2) 0.88060(14)
C51 C 0.48590(18) 0.9662(2) 0.59529(16)
H41 H 0.5029 1.0386 0.6046
C52 C 0.55890(17) 0.9299(2) 0.73853(15)
H42 H 0.5729 1.0066 0.7385
H43 H 0.6181 0.8910 0.7540
C53 C 0.7407(2) 0.2864(2) 1.01745(17)
H44 H 0.7660 0.3191 1.0657
C54 C 0.6958(2) 1.0425(2) 1.21039(15)
H45 H 0.7549 1.0720 1.2163
C55 C 0.69216(18) 0.5906(2) 0.86927(14)
C56 C 0.50715(17) 0.9087(2) 0.79809(14)
C57 C 0.6461(2) 1.0737(2) 1.25930(15)
H46 H 0.6718 1.1241 1.2982
C58 C 0.41581(17) 0.8206(2) 0.50355(15)
C59 C 0.3671(3) 1.2330(3) 0.6896(2)
H47 H 0.4289 1.2617 0.6971
H48 H 0.3240 1.2914 0.6878
H49 H 0.3476 1.1933 0.6416
C60 C 0.47130(18) 0.7755(2) 0.89587(14)
H50 H 0.4263 0.7207 0.8697
H51 H 0.4365 0.8349 0.9093
C61 C 0.43874(19) 0.9923(2) 0.80651(16)
C62 C 0.44154(18) 0.9312(2) 0.51720(16)
C63 C 0.7094(2) 0.2880(3) 0.87942(17)
H52 H 0.7138 0.3215 0.8344
C64 C 0.4220(2) 1.0038(3) 0.45307(18)
H53 H 0.4370 1.0769 0.4615
C65 C 0.70782(19) 0.9297(2) 1.09979(16)
H54 H 0.7672 0.9578 1.1048
C66 C 0.3744(2) 0.7852(3) 0.42575(17)
H55 H 0.3583 0.7126 0.4159
C67 C 0.5562(2) 1.0302(2) 1.25137(15)
H56 H 0.5234 1.0510 1.2856
C68 C 0.3812(2) 0.9669(3) 0.37910(18)
H57 H 0.3687 1.0150 0.3375
C69 C 0.50383(17) 0.8957(2) 0.65654(15)
C70 C 0.78956(19) 0.4498(2) 0.95499(15)
H58 H 0.8322 0.4614 1.0068
H59 H 0.8256 0.4543 0.9184
C71 C 0.6975(2) 0.1862(2) 1.0130(2)
H60 H 0.6940 0.1523 1.0581
C72 C 0.74686(18) 0.3387(2) 0.95070(15)
C73 C 0.3681(2) 1.1590(2) 0.75561(18)
H61 H 0.3889 1.1978 0.8046
H62 H 0.3057 1.1307 0.7494
C74 C 0.3580(2) 0.8567(3) 0.36546(18)
H63 H 0.3311 0.8323 0.3148
C75 C 0.43158(18) 0.7495(2) 0.56785(16)
H64 H 0.4130 0.6774 0.5599
C76 C 0.6597(2) 0.1365(3) 0.9417(2)
H65 H 0.6305 0.0693 0.9386
C77 C 0.60808(18) 0.6593(2) 0.94921(14)
C78 C 0.6655(2) 0.1879(3) 0.8747(2)
H66 H 0.6400 0.1551 0.8265
O9 O 0.10110(17) 0.95567(19) 0.83471(14)
H67 H 0.1175 0.9012 0.8161
C79 C 0.0217(2) 0.9309(4) 0.8600(2)
H68 H -0.0330 0.9247 0.8156
H69 H 0.0124 0.9876 0.8934
H70 H 0.0322 0.8635 0.8879
O10 O 0.06282(18) 1.1647(2) 0.77701(17)
H71 H 0.0739 1.1044 0.7967
C80 C 0.1412(3) 1.2325(3) 0.8077(2)
H72 H 0.1870 1.2191 0.7811
H73 H 0.1681 1.2178 0.8621
H74 H 0.1217 1.3070 0.8007
loop_
_geom_bond_atom_site_label_1
_geom_bond_atom_site_label_2
_geom_bond_site_symmetry_1
_geom_bond_site_symmetry_2
O1 C20 1_555 1_555
O2 C29 1_555 1_555
O3 C5 1_555 1_555
O4 C20 1_555 1_555
N1 C29 1_555 1_555
C1 H1 1_555 1_555
C2 H2 1_555 1_555
C3 C2 1_555 1_555
H3 C3 1_555 1_555
C4 C10 1_555 1_555
C5 C11 1_555 1_555
C6 H4 1_555 1_555
C7 C2 1_555 1_555
C8 H5 1_555 1_555
C9 H6 1_555 1_555
C10 O3 1_555 1_555
C11 C27 1_555 1_555
C12 C9 1_555 1_555
H7 C12 1_555 1_555
C13 C14 1_555 1_555
C14 C24 1_555 1_555
C15 C16 1_555 1_555
C16 C6 1_555 1_555
H8 C16 1_555 1_555
C17 C4 1_555 1_555
H9 C17 1_555 1_555
H10 C17 1_555 1_555
C18 C9 1_555 1_555
C19 C13 1_555 1_555
H11 C19 1_555 1_555
C20 C4 1_555 1_555
C21 C7 1_555 1_555
H12 C21 1_555 1_555
C22 C1 1_555 1_555
C23 C13 1_555 1_555
H13 C23 1_555 1_555
C24 H14 1_555 1_555
C25 C8 1_555 1_555
C26 C1 1_555 1_555
H15 C26 1_555 1_555
C27 C7 1_555 1_555
H16 C27 1_555 1_555
C28 C8 1_555 1_555
H17 C28 1_555 1_555
C29 C5 1_555 1_555
C30 C10 1_555 1_555
H18 C30 1_555 1_555
H19 C30 1_555 1_555
C31 N1 1_555 1_555
H20 C31 1_555 1_555
H21 C31 1_555 1_555
C32 C18 1_555 1_555
H22 C32 1_555 1_555
C33 N1 1_555 1_555
H23 C33 1_555 1_555
H24 C33 1_555 1_555
C34 C32 1_555 1_555
H25 C34 1_555 1_555
C35 C19 1_555 1_555
H26 C35 1_555 1_555
C36 O1 1_555 1_555
H27 C36 1_555 1_555
H28 C36 1_555 1_555
C37 C12 1_555 1_555
H29 C37 1_555 1_555
C38 C24 1_555 1_555
H30 C38 1_555 1_555
C39 C36 1_555 1_555
H31 C39 1_555 1_555
H32 C39 1_555 1_555
H33 C39 1_555 1_555
O5 C55 1_555 1_555
O6 C45 1_555 1_555
O7 C61 1_555 1_555
N2 C47 1_555 1_555
C40 H34 1_555 1_555
C41 H35 1_555 1_555
C42 C41 1_555 1_555
C43 C44 1_555 1_555
C44 C40 1_555 1_555
O8 C61 1_555 1_555
C45 C56 1_555 1_555
C46 C42 1_555 1_555
H36 C46 1_555 1_555
C47 H37 1_555 1_555
H38 C47 1_555 1_555
C48 H39 1_555 1_555
C49 C42 1_555 1_555
H40 C49 1_555 1_555
C50 O6 1_555 1_555
C51 H41 1_555 1_555
C52 H42 1_555 1_555
H43 C52 1_555 1_555
C53 H44 1_555 1_555
C54 C43 1_555 1_555
H45 C54 1_555 1_555
C55 N2 1_555 1_555
C56 C52 1_555 1_555
C57 C54 1_555 1_555
H46 C57 1_555 1_555
C58 C62 1_555 1_555
C59 H47 1_555 1_555
H48 C59 1_555 1_555
H49 C59 1_555 1_555
C60 C45 1_555 1_555
H50 C60 1_555 1_555
H51 C60 1_555 1_555
C61 C56 1_555 1_555
C62 C51 1_555 1_555
C63 H52 1_555 1_555
C64 C62 1_555 1_555
H53 C64 1_555 1_555
C65 C43 1_555 1_555
H54 C65 1_555 1_555
C66 C58 1_555 1_555
H55 C66 1_555 1_555
C67 C40 1_555 1_555
H56 C67 1_555 1_555
C68 C64 1_555 1_555
H57 C68 1_555 1_555
C69 C48 1_555 1_555
C70 N2 1_555 1_555
H58 C70 1_555 1_555
H59 C70 1_555 1_555
C71 C53 1_555 1_555
H60 C71 1_555 1_555
C72 C53 1_555 1_555
C73 O7 1_555 1_555
H61 C73 1_555 1_555
H62 C73 1_555 1_555
C74 C66 1_555 1_555
H63 C74 1_555 1_555
C75 C48 1_555 1_555
H64 C75 1_555 1_555
C76 C71 1_555 1_555
H65 C76 1_555 1_555
C77 C46 1_555 1_555
C78 C63 1_555 1_555
H66 C78 1_555 1_555
O9 H67 1_555 1_555
C79 O9 1_555 1_555
H68 C79 1_555 1_555
H69 C79 1_555 1_555
H70 C79 1_555 1_555
O10 H71 1_555 1_555
C80 O10 1_555 1_555
H72 C80 1_555 1_555
H73 C80 1_555 1_555
H74 C80 1_555 1_555
C3 C22 1_555 1_555
C6 C26 1_555 1_555
C11 C33 1_555 1_555
C14 C28 1_555 1_555
C15 C21 1_555 1_555
C15 C22 1_555 1_555
C17 C25 1_555 1_555
C18 C31 1_555 1_555
C23 C25 1_555 1_555
C27 C30 1_555 1_555
C34 C37 1_555 1_555
C35 C38 1_555 1_555
C41 C44 1_555 1_555
C46 C60 1_555 1_555
C47 C77 1_555 1_555
C49 C65 1_555 1_555
C50 C55 1_555 1_555
C50 C77 1_555 1_555
C51 C69 1_555 1_555
C52 C69 1_555 1_555
C57 C67 1_555 1_555
C58 C75 1_555 1_555
C59 C73 1_555 1_555
C63 C72 1_555 1_555
C68 C74 1_555 1_555
C70 C72 1_555 1_555
C76 C78 1_555 1_555

#END
