
#######################################################################
#
#                 Cambridge Crystallographic Data Centre
#                                CCDC 
#
#######################################################################
#
# If this CIF has been generated from an entry in the Cambridge 
# Structural Database, then it will include bibliographic, chemical, 
# crystal, experimental, refinement or atomic coordinate data resulting 
# from the CCDC's data processing and validation procedures.
#
#######################################################################

data_BAJCUN
_chemical_formula_moiety         'C37 H52 N2 O6 Si1'
_chemical_name_systematic        
't-butyl 6-((t-butyl(dimethyl)silyl)oxy)-5-ethyl-2-(((4-methoxyphenyl)methoxy)methyl)-4-oxo-1,2,3,4,5,6-hexahydro-9H-azecino[5,4-b]indole-9-carboxylate'
_symmetry_cell_setting           monoclinic
_symmetry_space_group_name_H-M   'P 21'
_symmetry_Int_Tables_number      4
_space_group_name_Hall           'P 2yb'
loop_
_symmetry_equiv_pos_site_id
_symmetry_equiv_pos_as_xyz
1 x,y,z
2 -x,1/2+y,-z
_cell_length_a                   12.88956(5)
_cell_length_b                   18.75380(7)
_cell_length_c                   15.37317(5)
_cell_angle_alpha                90
_cell_angle_beta                 95.7738(3)
_cell_angle_gamma                90
_cell_volume                     3697.28
_exptl_crystal_colour            colorless
_exptl_crystal_description       block
_cell_formula_units_Z            4
loop_
_atom_site_label
_atom_site_type_symbol
_atom_site_fract_x
_atom_site_fract_y
_atom_site_fract_z
Si1 Si 0.74880(10) 0.66887(8) 0.77710(9)
O1 O 0.32353(16) 0.70072(11) 0.77487(13)
O2 O 0.20596(16) 0.61294(11) 0.79147(13)
O3 O 0.01106(19) 0.39325(14) 0.08192(18)
O4 O 0.54725(15) 0.73439(9) 0.43649(12)
O5 O 0.68574(15) 0.63273(11) 0.68661(12)
O6 O 0.32273(16) 0.63862(10) 0.23382(12)
N1 N 0.49105(17) 0.62058(11) 0.43834(13)
H1 H 0.5076 0.5775 0.4530
N2 N 0.25360(17) 0.63516(12) 0.65795(14)
C1 C 0.55822(19) 0.67273(13) 0.46404(15)
C2 C 0.2658(2) 0.65413(14) 0.74677(17)
C3 C 0.64722(19) 0.65177(14) 0.53272(16)
H2 H 0.6576 0.6001 0.5292
C4 C 0.2563(2) 0.52984(15) 0.16426(16)
C5 C 0.1662(2) 0.60393(14) 0.60943(18)
C6 C 0.2751(2) 0.65262(14) 0.51480(17)
C7 C 0.3912(2) 0.63297(14) 0.38664(15)
H3 H 0.3575 0.5864 0.3772
C8 C 0.31860(19) 0.66358(14) 0.59826(17)
C9 C 0.7062(6) 0.6236(5) 0.8754(4)
C10 C 0.61499(19) 0.66960(14) 0.62510(16)
H4 H 0.6211 0.7211 0.6354
C11 C 0.7492(2) 0.68855(16) 0.51603(18)
H5 H 0.7399 0.7398 0.5196
H6 H 0.8031 0.6749 0.5616
C12 C 0.3159(2) 0.68029(15) 0.43288(17)
H7 H 0.3510 0.7252 0.4472
H8 H 0.2564 0.6908 0.3911
C13 C 0.0157(2) 0.55502(17) 0.4833(2)
H9 H -0.0358 0.5383 0.4416
C14 C 0.1981(2) 0.62693(17) 0.88571(17)
C15 C 0.0054(2) 0.54468(17) 0.5717(2)
H10 H -0.0533 0.5211 0.5877
C16 C 0.1018(2) 0.58981(15) 0.45672(19)
H11 H 0.1087 0.5964 0.3976
C17 C 0.2654(2) 0.47627(17) 0.10280(18)
H12 H 0.3283 0.4703 0.0789
C18 C 0.1623(3) 0.53747(17) 0.1986(2)
H13 H 0.1548 0.5731 0.2396
C19 C 0.4049(2) 0.66395(15) 0.29586(16)
H14 H 0.4032 0.7156 0.2982
H15 H 0.4718 0.6495 0.2780
C20 C 0.0878(2) 0.43992(16) 0.1118(2)
C21 C 0.0777(2) 0.49268(19) 0.1732(2)
H16 H 0.0150 0.4984 0.1974
C22 C 0.7438(13) 0.7664(5) 0.7810(9)
H17 H 0.7536 0.7854 0.7244
H18 H 0.7979 0.7837 0.8232
H19 H 0.6772 0.7812 0.7974
C23 C -0.0881(3) 0.4026(2) 0.1131(3)
H20 H -0.1366 0.3690 0.0848
H21 H -0.1124 0.4502 0.1004
H22 H -0.0822 0.3949 0.1751
C24 C 0.7465(16) 0.5454(6) 0.8771(8)
H23 H 0.7151 0.5205 0.8266
H24 H 0.7283 0.5222 0.9291
H25 H 0.8209 0.5454 0.8766
C25 C 0.7568(7) 0.6587(6) 0.9590(4)
H26 H 0.8313 0.6550 0.9607
H27 H 0.7338 0.6350 1.0090
H28 H 0.7371 0.7080 0.9597
C26 C 0.8871(6) 0.6432(12) 0.7660(6)
H29 H 0.8949 0.5926 0.7734
H30 H 0.9324 0.6673 0.8099
H31 H 0.9049 0.6565 0.7091
C27 C 0.42467(19) 0.69139(14) 0.62289(16)
H32 H 0.4352 0.7398 0.6334
C28 C 0.1784(2) 0.61489(14) 0.52071(18)
C29 C 0.5905(11) 0.6271(18) 0.8728(9)
H33 H 0.5691 0.6760 0.8763
H34 H 0.5682 0.6010 0.9213
H35 H 0.5596 0.6066 0.8191
C30 C 0.3508(2) 0.57354(15) 0.19459(17)
H36 H 0.3959 0.5462 0.2366
H37 H 0.3894 0.5840 0.1451
C31 C 0.0802(2) 0.56850(16) 0.6368(2)
H38 H 0.0731 0.5611 0.6957
C32 C 0.5046(2) 0.64679(14) 0.62984(15)
H39 H 0.4914 0.5986 0.6381
C33 C 0.3034(2) 0.61581(18) 0.9375(2)
H40 H 0.3297 0.5695 0.9248
H41 H 0.2959 0.6192 0.9989
H42 H 0.3512 0.6517 0.9217
C34 C 0.1211(3) 0.5701(2) 0.9078(2)
H43 H 0.0544 0.5791 0.8760
H44 H 0.1143 0.5710 0.9694
H45 H 0.1458 0.5240 0.8919
C35 C 0.1561(2) 0.70183(18) 0.8966(2)
H46 H 0.2081 0.7361 0.8844
H47 H 0.1390 0.7080 0.9554
H48 H 0.0947 0.7087 0.8567
C36 C 0.7854(2) 0.6702(2) 0.4275(2)
H49 H 0.7351 0.6872 0.3819
H50 H 0.7924 0.6195 0.4226
H51 H 0.8516 0.6925 0.4222
C37 C 0.1828(2) 0.43183(17) 0.0766(2)
H52 H 0.1904 0.3964 0.0354
Si3 Si 0.45992(6) 0.34591(4) 0.85462(5)
O7 O 0.13772(15) 0.41040(12) 0.75044(13)
O8 O 0.87016(18) 0.55632(13) 0.27635(15)
O9 O 0.47990(15) 0.35385(10) 0.31591(12)
O10 O 0.52158(14) 0.36790(11) 0.76960(12)
O11 O 0.49695(15) 0.48556(10) 0.51677(12)
O12 O 0.01608(15) 0.32683(12) 0.70721(13)
N3 N 0.43794(15) 0.37259(11) 0.48949(13)
H68 H 0.4474 0.3286 0.5041
N4 N 0.11542(16) 0.37201(12) 0.60898(15)
C44 C 0.49445(18) 0.42193(13) 0.53638(16)
C45 C 0.36121(19) 0.38842(13) 0.41504(16)
H69 H 0.3260 0.3434 0.3986
C46 C 0.20276(18) 0.40832(14) 0.58181(17)
C47 C 0.09238(19) 0.37295(15) 0.69574(18)
C48 C 0.19798(18) 0.40837(14) 0.49329(17)
C49 C 0.6160(2) 0.41822(17) 0.24710(17)
C50 C 0.10422(19) 0.37045(14) 0.46079(18)
C51 C -0.0371(2) 0.30725(16) 0.5228(2)
H70 H -0.0701 0.2924 0.5708
C52 C 0.0615(2) 0.35364(15) 0.37605(18)
H71 H 0.0932 0.3689 0.3276
C53 C 0.05469(19) 0.34710(15) 0.53331(17)
C54 C 0.7028(2) 0.40571(18) 0.3072(2)
H72 H 0.7051 0.3649 0.3417
C55 C 0.55098(18) 0.39465(13) 0.62221(16)
H73 H 0.5611 0.3431 0.6169
C56 C -0.0772(2) 0.29056(16) 0.4381(2)
H74 H -0.1377 0.2633 0.4294
C57 C 0.27584(19) 0.44080(14) 0.43811(17)
H75 H 0.3089 0.4812 0.4692
H76 H 0.2390 0.4586 0.3843
C58 C 0.65784(19) 0.42953(15) 0.64242(18)
H77 H 0.6494 0.4809 0.6437
H78 H 0.6878 0.4144 0.6999
C59 C 0.5282(2) 0.36475(16) 0.23747(18)
H79 H 0.4759 0.3809 0.1920
H80 H 0.5551 0.3195 0.2189
C60 C 0.6147(2) 0.47942(17) 0.19697(19)
H81 H 0.5572 0.4886 0.1570
C61 C -0.0297(2) 0.31348(16) 0.3659(2)
H82 H -0.0592 0.3018 0.3100
C62 C 0.7852(3) 0.45322(19) 0.3161(2)
H83 H 0.8422 0.4445 0.3568
C63 C 0.6972(2) 0.52781(18) 0.2046(2)
H84 H 0.6947 0.5687 0.1703
C64 C 0.7326(2) 0.4103(2) 0.5751(2)
H85 H 0.7999 0.4305 0.5925
H86 H 0.7064 0.4290 0.5191
H87 H 0.7385 0.3594 0.5715
C65 C -0.0275(2) 0.32364(19) 0.7927(2)
C66 C -0.0727(3) 0.3954(2) 0.8138(2)
H88 H -0.0171 0.4289 0.8272
H89 H -0.1121 0.3907 0.8632
H90 H -0.1174 0.4121 0.7643
C67 C 0.5668(3) 0.3251(3) 0.9414(2)
C68 C 0.6441(5) 0.2738(4) 0.9053(3)
H91 H 0.6073 0.2330 0.8803
H92 H 0.6945 0.2586 0.9519
H93 H 0.6789 0.2975 0.8612
C69 C 0.5244(6) 0.2918(4) 1.0212(3)
H94 H 0.4665 0.3193 1.0370
H95 H 0.5782 0.2910 1.0691
H96 H 0.5019 0.2439 1.0076
C70 C 0.6244(5) 0.3946(5) 0.9677(4)
H97 H 0.6470 0.4168 0.9166
H98 H 0.6838 0.3842 1.0084
H99 H 0.5783 0.4262 0.9944
C71 C 0.29316(19) 0.43180(14) 0.64142(17)
H100 H 0.2958 0.4779 0.6640
C72 C 0.41583(19) 0.41206(14) 0.33660(16)
H101 H 0.3652 0.4231 0.2875
H102 H 0.4579 0.4541 0.3509
C73 C 0.47923(18) 0.40808(14) 0.69584(16)
H103 H 0.4803 0.4589 0.7108
C74 C 0.7829(2) 0.51404(17) 0.26417(19)
C75 C 0.37062(19) 0.38651(14) 0.66250(16)
H104 H 0.3565 0.3381 0.6561
C76 C 0.0550(3) 0.2985(2) 0.8638(2)
H105 H 0.0836 0.2539 0.8467
H106 H 0.0240 0.2922 0.9175
H107 H 0.1096 0.3334 0.8721
C77 C -0.1138(3) 0.2683(2) 0.7750(2)
H108 H -0.1643 0.2853 0.7295
H109 H -0.1471 0.2605 0.8273
H110 H -0.0843 0.2244 0.7570
C78 C 0.3735(4) 0.2666(2) 0.8289(3)
H111 H 0.3158 0.2802 0.7879
H112 H 0.3480 0.2495 0.8816
H113 H 0.4126 0.2296 0.8040
C79 C 0.3773(3) 0.4202(2) 0.8865(2)
H114 H 0.4177 0.4633 0.8913
H115 H 0.3521 0.4096 0.9417
H116 H 0.3192 0.4263 0.8428
C80 C 0.8703(3) 0.6207(2) 0.2276(2)
H117 H 0.9329 0.6470 0.2451
H118 H 0.8107 0.6489 0.2382
H119 H 0.8675 0.6097 0.1664
Si2? Si 0.70826(13) 0.62583(10) 0.79028(11)
C38? C 0.7728(6) 0.7107(4) 0.8344(5)
C39? C 0.5831(7) 0.6094(6) 0.8392(7)
H53? H 0.5394 0.6508 0.8312
H54? H 0.5977 0.5997 0.9005
H55? H 0.5480 0.5692 0.8109
C40? C 0.8127(10) 0.7017(5) 0.9311(6)
H56? H 0.7549 0.6930 0.9644
H57? H 0.8482 0.7443 0.9519
H58? H 0.8600 0.6621 0.9375
C41? C 0.6904(9) 0.7689(6) 0.8220(8)
H59? H 0.6716 0.7765 0.7607
H60? H 0.7177 0.8123 0.8483
H61? H 0.6299 0.7546 0.8492
C42? C 0.7970(6) 0.5481(4) 0.8151(6)
H62? H 0.7636 0.5054 0.7922
H63? H 0.8125 0.5436 0.8773
H64? H 0.8605 0.5554 0.7887
C43? C 0.8675(7) 0.7246(7) 0.7827(7)
H65? H 0.9167 0.6863 0.7929
H66? H 0.9002 0.7687 0.8017
H67? H 0.8446 0.7274 0.7214
loop_
_geom_bond_atom_site_label_1
_geom_bond_atom_site_label_2
_geom_bond_site_symmetry_1
_geom_bond_site_symmetry_2
Si1 O5 1_555 1_555
O1 C2 1_555 1_555
O2 C2 1_555 1_555
O3 C20 1_555 1_555
O4 C1 1_555 1_555
O5 C10 1_555 1_555
O6 C19 1_555 1_555
N1 H1 1_555 1_555
N2 C2 1_555 1_555
C1 N1 1_555 1_555
C3 C1 1_555 1_555
H2 C3 1_555 1_555
C4 C17 1_555 1_555
C5 N2 1_555 1_555
C6 C8 1_555 1_555
C7 N1 1_555 1_555
H3 C7 1_555 1_555
C8 N2 1_555 1_555
C9 Si1 1_555 1_555
C10 C3 1_555 1_555
H4 C10 1_555 1_555
C11 C3 1_555 1_555
H5 C11 1_555 1_555
H6 C11 1_555 1_555
C12 C6 1_555 1_555
H7 C12 1_555 1_555
H8 C12 1_555 1_555
C13 H9 1_555 1_555
C14 O2 1_555 1_555
C15 C13 1_555 1_555
H10 C15 1_555 1_555
C16 C13 1_555 1_555
H11 C16 1_555 1_555
C17 H12 1_555 1_555
C18 C4 1_555 1_555
H13 C18 1_555 1_555
C19 C7 1_555 1_555
H14 C19 1_555 1_555
H15 C19 1_555 1_555
C20 C21 1_555 1_555
C21 C18 1_555 1_555
H16 C21 1_555 1_555
C22 Si1 1_555 1_555
H17 C22 1_555 1_555
H18 C22 1_555 1_555
H19 C22 1_555 1_555
C23 O3 1_555 1_555
H20 C23 1_555 1_555
H21 C23 1_555 1_555
H22 C23 1_555 1_555
C24 C9 1_555 1_555
H23 C24 1_555 1_555
H24 C24 1_555 1_555
H25 C24 1_555 1_555
C25 C9 1_555 1_555
H26 C25 1_555 1_555
H27 C25 1_555 1_555
H28 C25 1_555 1_555
C26 Si1 1_555 1_555
H29 C26 1_555 1_555
H30 C26 1_555 1_555
H31 C26 1_555 1_555
C27 C8 1_555 1_555
H32 C27 1_555 1_555
C28 C5 1_555 1_555
C29 C9 1_555 1_555
H33 C29 1_555 1_555
H34 C29 1_555 1_555
H35 C29 1_555 1_555
C30 O6 1_555 1_555
H36 C30 1_555 1_555
H37 C30 1_555 1_555
C31 C5 1_555 1_555
H38 C31 1_555 1_555
C32 C10 1_555 1_555
H39 C32 1_555 1_555
C33 C14 1_555 1_555
H40 C33 1_555 1_555
H41 C33 1_555 1_555
H42 C33 1_555 1_555
C34 C14 1_555 1_555
H43 C34 1_555 1_555
H44 C34 1_555 1_555
H45 C34 1_555 1_555
C35 C14 1_555 1_555
H46 C35 1_555 1_555
H47 C35 1_555 1_555
H48 C35 1_555 1_555
C36 C11 1_555 1_555
H49 C36 1_555 1_555
H50 C36 1_555 1_555
H51 C36 1_555 1_555
C37 C17 1_555 1_555
H52 C37 1_555 1_555
Si3 O10 1_555 1_555
O7 C47 1_555 1_555
O8 C74 1_555 1_555
O9 C59 1_555 1_555
O10 C73 1_555 1_555
O11 C44 1_555 1_555
O12 C47 1_555 1_555
N3 H68 1_555 1_555
N4 C46 1_555 1_555
C44 N3 1_555 1_555
C45 N3 1_555 1_555
H69 C45 1_555 1_555
C46 C48 1_555 1_555
C47 N4 1_555 1_555
C48 C50 1_555 1_555
C49 C54 1_555 1_555
C50 C52 1_555 1_555
C51 H70 1_555 1_555
C52 H71 1_555 1_555
C53 N4 1_555 1_555
C54 H72 1_555 1_555
C55 C44 1_555 1_555
H73 C55 1_555 1_555
C56 C51 1_555 1_555
H74 C56 1_555 1_555
C57 C45 1_555 1_555
H75 C57 1_555 1_555
H76 C57 1_555 1_555
C58 C55 1_555 1_555
H77 C58 1_555 1_555
H78 C58 1_555 1_555
C59 C49 1_555 1_555
H79 C59 1_555 1_555
H80 C59 1_555 1_555
C60 C49 1_555 1_555
H81 C60 1_555 1_555
C61 C52 1_555 1_555
H82 C61 1_555 1_555
C62 C54 1_555 1_555
H83 C62 1_555 1_555
C63 C60 1_555 1_555
H84 C63 1_555 1_555
C64 C58 1_555 1_555
H85 C64 1_555 1_555
H86 C64 1_555 1_555
H87 C64 1_555 1_555
C65 O12 1_555 1_555
C66 C65 1_555 1_555
H88 C66 1_555 1_555
H89 C66 1_555 1_555
H90 C66 1_555 1_555
C67 Si3 1_555 1_555
C68 C67 1_555 1_555
H91 C68 1_555 1_555
H92 C68 1_555 1_555
H93 C68 1_555 1_555
C69 C67 1_555 1_555
H94 C69 1_555 1_555
H95 C69 1_555 1_555
H96 C69 1_555 1_555
C70 C67 1_555 1_555
H97 C70 1_555 1_555
H98 C70 1_555 1_555
H99 C70 1_555 1_555
C71 C46 1_555 1_555
H100 C71 1_555 1_555
C72 O9 1_555 1_555
H101 C72 1_555 1_555
H102 C72 1_555 1_555
C73 C55 1_555 1_555
H103 C73 1_555 1_555
C74 C62 1_555 1_555
C75 C71 1_555 1_555
H104 C75 1_555 1_555
C76 C65 1_555 1_555
H105 C76 1_555 1_555
H106 C76 1_555 1_555
H107 C76 1_555 1_555
C77 C65 1_555 1_555
H108 C77 1_555 1_555
H109 C77 1_555 1_555
H110 C77 1_555 1_555
C78 Si3 1_555 1_555
H111 C78 1_555 1_555
H112 C78 1_555 1_555
H113 C78 1_555 1_555
C79 Si3 1_555 1_555
H114 C79 1_555 1_555
H115 C79 1_555 1_555
H116 C79 1_555 1_555
C80 O8 1_555 1_555
H117 C80 1_555 1_555
H118 C80 1_555 1_555
H119 C80 1_555 1_555
C4 C30 1_555 1_555
C6 C28 1_555 1_555
C7 C12 1_555 1_555
C15 C31 1_555 1_555
C16 C28 1_555 1_555
C20 C37 1_555 1_555
C27 C32 1_555 1_555
C45 C72 1_555 1_555
C48 C57 1_555 1_555
C50 C53 1_555 1_555
C51 C53 1_555 1_555
C56 C61 1_555 1_555
C63 C74 1_555 1_555
C73 C75 1_555 1_555

#END
