
#######################################################################
#
#                 Cambridge Crystallographic Data Centre
#                                CCDC 
#
#######################################################################
#
# If this CIF has been generated from an entry in the Cambridge 
# Structural Database, then it will include bibliographic, chemical, 
# crystal, experimental, refinement or atomic coordinate data resulting 
# from the CCDC's data processing and validation procedures.
#
#######################################################################

data_BAJFIE
_chemical_formula_moiety         'C24 H46 O2'
_chemical_name_systematic        1,1'-Bi(cyclododecyl)-1,1'-diol
_symmetry_cell_setting           triclinic
_symmetry_space_group_name_H-M   'P -1'
_symmetry_Int_Tables_number      2
_space_group_name_Hall           '-P 1'
loop_
_symmetry_equiv_pos_site_id
_symmetry_equiv_pos_as_xyz
1 x,y,z
2 -x,-y,-z
_cell_length_a                   5.2862(4)
_cell_length_b                   7.7468(8)
_cell_length_c                   13.6129(9)
_cell_angle_alpha                81.952(7)
_cell_angle_beta                 81.606(6)
_cell_angle_gamma                77.327(8)
_cell_volume                     534.679
_cell_formula_units_Z            1
loop_
_atom_site_label
_atom_site_type_symbol
_atom_site_fract_x
_atom_site_fract_y
_atom_site_fract_z
O1 O 0.23717(17) 0.64082(12) 0.00317(7)
H1 H 0.3834 0.5712 -0.0026
C1 C 0.2020(2) 0.49757(17) -0.13636(9)
H2 H 0.2632 0.5975 -0.1798
H3 H 0.3596 0.4113 -0.1171
C2 C 0.0510(2) 0.57197(17) -0.04018(9)
C3 C -0.3366(3) 1.02009(17) -0.16830(10)
H4 H -0.4836 1.0339 -0.1139
H5 H -0.2936 1.1388 -0.1899
C4 C 0.0666(3) 0.40587(18) -0.20025(9)
H6 H -0.1203 0.4644 -0.1975
H7 H 0.0769 0.2799 -0.1720
C5 C -0.4241(3) 0.95469(17) -0.25633(10)
H8 H -0.4333 0.8276 -0.2391
H9 H -0.6023 1.0219 -0.2665
C6 C 0.1898(3) 0.41292(17) -0.30968(9)
H10 H 0.3819 0.3771 -0.3115
H11 H 0.1303 0.3254 -0.3427
C7 C -0.2452(3) 0.97454(18) -0.35423(10)
H12 H -0.0635 0.9573 -0.3388
H13 H -0.2945 1.0975 -0.3870
C8 C -0.1735(2) 0.72789(17) -0.06487(9)
H14 H -0.2734 0.7641 -0.0011
H15 H -0.2922 0.6840 -0.1009
C9 C -0.1620(3) 0.64782(18) -0.39021(10)
H16 H -0.2748 0.6185 -0.3281
H17 H -0.1861 0.5742 -0.4406
C10 C 0.1226(2) 0.59665(18) -0.36901(10)
H18 H 0.1584 0.6871 -0.3311
H19 H 0.2376 0.5979 -0.4333
C11 C -0.0996(3) 0.89468(17) -0.12746(10)
H20 H -0.0215 0.9588 -0.0856
H21 H 0.0333 0.8581 -0.1839
C12 C -0.2542(3) 0.84408(18) -0.42783(10)
H22 H -0.4359 0.8619 -0.4435
H23 H -0.1441 0.8729 -0.4907
O1A O -0.23717(17) 0.35918(12) -0.00317(7)
H1A H -0.3834 0.4288 0.0026
C1A C -0.2020(2) 0.50243(17) 0.13636(9)
H2A H -0.2632 0.4025 0.1798
H3A H -0.3596 0.5887 0.1171
C2A C -0.0510(2) 0.42803(17) 0.04018(9)
C3A C 0.3366(3) -0.02009(17) 0.16830(10)
H4A H 0.4836 -0.0339 0.1139
H5A H 0.2936 -0.1388 0.1899
C4A C -0.0666(3) 0.59413(18) 0.20025(9)
H6A H 0.1203 0.5356 0.1975
H7A H -0.0769 0.7201 0.1720
C5A C 0.4241(3) 0.04531(17) 0.25633(10)
H8A H 0.4333 0.1724 0.2391
H9A H 0.6023 -0.0219 0.2665
C6A C -0.1898(3) 0.58708(17) 0.30968(9)
H10A H -0.3819 0.6229 0.3115
H11A H -0.1303 0.6746 0.3427
C7A C 0.2452(3) 0.02546(18) 0.35423(10)
H12A H 0.0635 0.0427 0.3388
H13A H 0.2945 -0.0975 0.3870
C8A C 0.1735(2) 0.27211(17) 0.06487(9)
H14A H 0.2734 0.2359 0.0011
H15A H 0.2922 0.3160 0.1009
C9A C 0.1620(3) 0.35218(18) 0.39021(10)
H16A H 0.2748 0.3815 0.3281
H17A H 0.1861 0.4258 0.4406
C10A C -0.1226(2) 0.40335(18) 0.36901(10)
H18A H -0.1584 0.3129 0.3311
H19A H -0.2376 0.4021 0.4333
C11A C 0.0996(3) 0.10532(17) 0.12746(10)
H20A H 0.0215 0.0412 0.0856
H21A H -0.0333 0.1419 0.1839
C12A C 0.2542(3) 0.15592(18) 0.42783(10)
H22A H 0.4359 0.1381 0.4435
H23A H 0.1441 0.1271 0.4907
loop_
_geom_bond_atom_site_label_1
_geom_bond_atom_site_label_2
_geom_bond_site_symmetry_1
_geom_bond_site_symmetry_2
O1 H1 1_555 1_555
C1 H2 1_555 1_555
H3 C1 1_555 1_555
C2 O1 1_555 1_555
C3 H4 1_555 1_555
H5 C3 1_555 1_555
C4 C1 1_555 1_555
H6 C4 1_555 1_555
H7 C4 1_555 1_555
C5 C3 1_555 1_555
H8 C5 1_555 1_555
H9 C5 1_555 1_555
C6 C4 1_555 1_555
H10 C6 1_555 1_555
H11 C6 1_555 1_555
C7 C5 1_555 1_555
H12 C7 1_555 1_555
H13 C7 1_555 1_555
C8 C2 1_555 1_555
H14 C8 1_555 1_555
H15 C8 1_555 1_555
C9 H16 1_555 1_555
H17 C9 1_555 1_555
C10 C6 1_555 1_555
H18 C10 1_555 1_555
H19 C10 1_555 1_555
C11 C3 1_555 1_555
H20 C11 1_555 1_555
H21 C11 1_555 1_555
C12 C7 1_555 1_555
H22 C12 1_555 1_555
H23 C12 1_555 1_555
O1A H1A 1_555 1_555
C1A H2A 1_555 1_555
H3A C1A 1_555 1_555
C2A C2 1_555 1_555
C3A H4A 1_555 1_555
H5A C3A 1_555 1_555
C4A C1A 1_555 1_555
H6A C4A 1_555 1_555
H7A C4A 1_555 1_555
C5A C3A 1_555 1_555
H8A C5A 1_555 1_555
H9A C5A 1_555 1_555
C6A C4A 1_555 1_555
H10A C6A 1_555 1_555
H11A C6A 1_555 1_555
C7A C5A 1_555 1_555
H12A C7A 1_555 1_555
H13A C7A 1_555 1_555
C8A C2A 1_555 1_555
H14A C8A 1_555 1_555
H15A C8A 1_555 1_555
C9A H16A 1_555 1_555
H17A C9A 1_555 1_555
C10A C6A 1_555 1_555
H18A C10A 1_555 1_555
H19A C10A 1_555 1_555
C11A C3A 1_555 1_555
H20A C11A 1_555 1_555
H21A C11A 1_555 1_555
C12A C7A 1_555 1_555
H22A C12A 1_555 1_555
H23A C12A 1_555 1_555
C1 C2 1_555 1_555
C8 C11 1_555 1_555
C9 C10 1_555 1_555
C9 C12 1_555 1_555
O1A C2A 1_555 1_555
C1A C2A 1_555 1_555
C8A C11A 1_555 1_555
C9A C10A 1_555 1_555
C9A C12A 1_555 1_555

#END
