
#######################################################################
#
#                 Cambridge Crystallographic Data Centre
#                                CCDC 
#
#######################################################################
#
# If this CIF has been generated from an entry in the Cambridge 
# Structural Database, then it will include bibliographic, chemical, 
# crystal, experimental, refinement or atomic coordinate data resulting 
# from the CCDC's data processing and validation procedures.
#
#######################################################################

data_BAJGEB
_chemical_formula_moiety         'C18 H33 N1 O1'
_chemical_name_systematic        2-cyclohexyl-N-hydroxycyclododecanimine
_symmetry_cell_setting           triclinic
_symmetry_space_group_name_H-M   'P -1'
_symmetry_Int_Tables_number      2
_space_group_name_Hall           '-P 1'
loop_
_symmetry_equiv_pos_site_id
_symmetry_equiv_pos_as_xyz
1 x,y,z
2 -x,-y,-z
_cell_length_a                   6.1733(10)
_cell_length_b                   11.5835(18)
_cell_length_c                   12.4643(19)
_cell_angle_alpha                76.118(13)
_cell_angle_beta                 86.959(13)
_cell_angle_gamma                83.791(13)
_cell_volume                     859.854
_cell_formula_units_Z            2
loop_
_atom_site_label
_atom_site_type_symbol
_atom_site_fract_x
_atom_site_fract_y
_atom_site_fract_z
O1 O 0.83307(16) 0.89828(9) 0.04486(7)
H1 H 0.9255 0.9208 0.0779
C1 C 1.0819(2) 0.87866(12) -0.29181(11)
H2 H 1.2312 0.8948 -0.3126
H3 H 1.0804 0.8326 -0.2158
C2 C 0.6477(2) 1.20821(11) -0.24245(11)
H4 H 0.7794 1.2284 -0.2858
H5 H 0.6850 1.1842 -0.1651
C3 C 0.5570(2) 1.10462(11) -0.27628(11)
H6 H 0.4215 1.0896 -0.2329
C4 C 0.4790(2) 1.31780(12) -0.26084(12)
H7 H 0.3498 1.2985 -0.2150
H8 H 0.5386 1.3827 -0.2391
N1 N 0.84996(18) 0.95302(9) -0.06935(9)
C5 C 0.7090(2) 0.98579(11) -0.24993(11)
H9 H 0.6466 0.9308 -0.2857
C6 C 1.0066(2) 0.80375(12) -0.36515(11)
H10 H 1.0213 0.8467 -0.4418
H11 H 0.8532 0.7941 -0.3492
C7 C 1.1328(2) 0.67967(13) -0.35059(12)
H12 H 1.2875 0.6887 -0.3589
H13 H 1.0940 0.6439 -0.4089
C8 C 0.4173(2) 1.35733(12) -0.38169(12)
H14 H 0.5438 1.3839 -0.4267
H15 H 0.3054 1.4242 -0.3909
C9 C 0.4952(2) 1.14264(12) -0.39794(11)
H16 H 0.4305 1.0782 -0.4176
H17 H 0.6258 1.1576 -0.4438
C10 C 0.9421(2) 0.99793(11) -0.29841(11)
H18 H 0.9339 1.0411 -0.3753
H19 H 1.0143 1.0454 -0.2594
C11 C 0.7017(2) 0.92949(11) -0.12644(11)
C12 C 0.5377(2) 0.73259(11) -0.11028(12)
H20 H 0.4043 0.6953 -0.0870
H21 H 0.5518 0.7456 -0.1901
C13 C 1.0887(2) 0.59481(12) -0.23839(12)
H22 H 1.1132 0.6341 -0.1802
H23 H 1.1925 0.5243 -0.2299
C14 C 0.8572(2) 0.55546(13) -0.22349(12)
H24 H 0.7603 0.6164 -0.2700
H25 H 0.8571 0.4825 -0.2487
C15 C 0.7676(2) 0.53373(12) -0.10416(12)
H26 H 0.8687 0.4760 -0.0571
H27 H 0.6305 0.4989 -0.1001
C16 C 0.5182(2) 0.85455(12) -0.07972(11)
H28 H 0.3813 0.8987 -0.1063
H29 H 0.5144 0.8413 0.0002
C17 C 0.3335(2) 1.25572(12) -0.42087(12)
H30 H 0.3088 1.2812 -0.4996
H31 H 0.1952 1.2373 -0.3835
C18 C 0.7300(2) 0.64691(12) -0.05873(11)
H32 H 0.7046 0.6236 0.0206
H33 H 0.8608 0.6882 -0.0724
loop_
_geom_bond_atom_site_label_1
_geom_bond_atom_site_label_2
_geom_bond_site_symmetry_1
_geom_bond_site_symmetry_2
O1 H1 1_555 1_555
C1 H2 1_555 1_555
H3 C1 1_555 1_555
C2 H4 1_555 1_555
H5 C2 1_555 1_555
C3 C2 1_555 1_555
H6 C3 1_555 1_555
C4 C2 1_555 1_555
H7 C4 1_555 1_555
H8 C4 1_555 1_555
N1 O1 1_555 1_555
C5 C3 1_555 1_555
H9 C5 1_555 1_555
C6 C1 1_555 1_555
H10 C6 1_555 1_555
H11 C6 1_555 1_555
C7 C6 1_555 1_555
H12 C7 1_555 1_555
H13 C7 1_555 1_555
C8 C4 1_555 1_555
H14 C8 1_555 1_555
H15 C8 1_555 1_555
C9 C3 1_555 1_555
H16 C9 1_555 1_555
H17 C9 1_555 1_555
C10 C1 1_555 1_555
H18 C10 1_555 1_555
H19 C10 1_555 1_555
C11 N1 1_555 1_555
C12 H20 1_555 1_555
H21 C12 1_555 1_555
C13 C7 1_555 1_555
H22 C13 1_555 1_555
H23 C13 1_555 1_555
C14 C13 1_555 1_555
H24 C14 1_555 1_555
H25 C14 1_555 1_555
C15 C14 1_555 1_555
H26 C15 1_555 1_555
H27 C15 1_555 1_555
C16 C11 1_555 1_555
H28 C16 1_555 1_555
H29 C16 1_555 1_555
C17 C8 1_555 1_555
H30 C17 1_555 1_555
H31 C17 1_555 1_555
C18 C12 1_555 1_555
H32 C18 1_555 1_555
H33 C18 1_555 1_555
C5 C10 1_555 1_555
C5 C11 1_555 1_555
C9 C17 1_555 1_555
C12 C16 1_555 1_555
C15 C18 1_555 1_555

#END
