
#######################################################################
#
#                 Cambridge Crystallographic Data Centre
#                                CCDC 
#
#######################################################################
#
# If this CIF has been generated from an entry in the Cambridge 
# Structural Database, then it will include bibliographic, chemical, 
# crystal, experimental, refinement or atomic coordinate data resulting 
# from the CCDC's data processing and validation procedures.
#
#######################################################################

data_BAJKUS
_chemical_formula_moiety         'C16 H21 N1 O4 S1'
_chemical_name_systematic        
'(R~S~)-2-(((1S,2R,4R)-2-Hydroxy-7,7-dimethylbicyclo(2.2.1)heptyl)methanesulfinyl)nicotinic acid'
_symmetry_cell_setting           monoclinic
_symmetry_space_group_name_H-M   'P 21'
_symmetry_Int_Tables_number      4
_space_group_name_Hall           'P 2yb'
loop_
_symmetry_equiv_pos_site_id
_symmetry_equiv_pos_as_xyz
1 x,y,z
2 -x,1/2+y,-z
_cell_length_a                   7.235(2)
_cell_length_b                   12.931(4)
_cell_length_c                   8.858(2)
_cell_angle_alpha                90
_cell_angle_beta                 91.56(2)
_cell_angle_gamma                90
_cell_volume                     828.41
_exptl_crystal_colour            colorless
_exptl_crystal_description       prismatic
_chemical_melting_point          239-240deg.C
_cell_formula_units_Z            2
_exptl_crystal_recrystallization_method dichloromethane/hexane
loop_
_atom_site_label
_atom_site_type_symbol
_atom_site_fract_x
_atom_site_fract_y
_atom_site_fract_z
S1 S 0.7462(1) 0.123(1) 0.66848(9)
O1 O 0.5457(4) 0.104(1) 0.6280(3)
O2 O 1.2765(4) 0.244(1) 0.5177(4)
O3 O 1.1327(4) 0.163(1) 0.7027(3)
O4 O 0.3833(5) 0.077(1) 0.9378(5)
N1 N 0.6380(5) 0.305(1) 0.5688(4)
C1 C 0.7918(5) 0.252(1) 0.5947(4)
C2 C 0.9655(5) 0.284(1) 0.5547(4)
C3 C 0.9768(7) 0.377(1) 0.4744(6)
C4 C 0.8173(8) 0.434(1) 0.4472(6)
C5 C 0.7524(6) 0.155(1) 0.8680(4)
C6 C 0.6514(7) 0.396(1) 0.4971(6)
C7 C 1.1320(5) 0.224(1) 0.5997(5)
C8 C 0.8682(10) -0.027(1) 0.9391(6)
C9 C 0.859(1) -0.091(1) 1.0884(8)
C10 C 0.7127(10) -0.035(1) 1.1758(6)
C11 C 0.526(1) -0.053(1) 1.1000(8)
C12 C 0.5335(9) 0.008(1) 0.9503(6)
C13 C 0.7257(6) 0.060(1) 0.9647(4)
C14 C 0.614(1) 0.155(1) 1.2038(6)
C15 C 0.7493(8) 0.079(1) 1.1390(5)
C16 C 0.9448(9) 0.116(1) 1.1871(6)
H1 H 1.0920 0.4027 0.4388
H2 H 0.8219 0.5000 0.3949
H3 H 0.8688 0.1875 0.8937
H4 H 0.6567 0.2054 0.8873
H5 H 0.5428 0.4384 0.4803
H6 H 0.9882 0.0029 0.9266
H7 H 0.8338 -0.0655 0.8538
H8 H 0.8222 -0.1584 1.0681
H9 H 0.9740 -0.0887 1.1419
H10 H 0.7162 -0.0479 1.2810
H11 H 0.5082 -0.1231 1.0801
H12 H 0.4298 -0.0267 1.1606
H13 H 0.5308 -0.0360 0.8669
H14 H 0.6289 0.1574 1.3106
H15 H 0.6386 0.2238 1.1652
H16 H 0.4923 0.1366 1.1760
H17 H 0.9550 0.1195 1.2945
H18 H 1.0339 0.0731 1.1481
H19 H 0.9631 0.1864 1.1494
loop_
_geom_bond_atom_site_label_1
_geom_bond_atom_site_label_2
_geom_bond_site_symmetry_1
_geom_bond_site_symmetry_2
S1 O1 1_555 1_555
O2 C7 1_555 1_555
O3 C7 1_555 1_555
O4 C12 1_555 1_555
N1 C1 1_555 1_555
C1 S1 1_555 1_555
C2 C1 1_555 1_555
C3 C2 1_555 1_555
C4 C3 1_555 1_555
C5 S1 1_555 1_555
C6 N1 1_555 1_555
C7 C2 1_555 1_555
C8 C9 1_555 1_555
C9 C10 1_555 1_555
C10 C11 1_555 1_555
C11 C12 1_555 1_555
C12 C13 1_555 1_555
C13 C5 1_555 1_555
C14 C15 1_555 1_555
C15 C10 1_555 1_555
C16 C15 1_555 1_555
H1 C3 1_555 1_555
H2 C4 1_555 1_555
H3 C5 1_555 1_555
H4 C5 1_555 1_555
H5 C6 1_555 1_555
H6 C8 1_555 1_555
H7 C8 1_555 1_555
H8 C9 1_555 1_555
H9 C9 1_555 1_555
H10 C10 1_555 1_555
H11 C11 1_555 1_555
H12 C11 1_555 1_555
H13 C12 1_555 1_555
H14 C14 1_555 1_555
H15 C14 1_555 1_555
H16 C14 1_555 1_555
H17 C16 1_555 1_555
H18 C16 1_555 1_555
H19 C16 1_555 1_555
C4 C6 1_555 1_555
C8 C13 1_555 1_555
C13 C15 1_555 1_555

#END
