
#######################################################################
#
#                 Cambridge Crystallographic Data Centre
#                                CCDC 
#
#######################################################################
#
# If this CIF has been generated from an entry in the Cambridge 
# Structural Database, then it will include bibliographic, chemical, 
# crystal, experimental, refinement or atomic coordinate data resulting 
# from the CCDC's data processing and validation procedures.
#
#######################################################################

data_BAJMOQ
_chemical_name_common            
(2-((2-(Dimesitylboryl)phenyl)ethynyl)phenyl)(diphenyl)phosphine
_chemical_formula_moiety         'C44 H40 B1 P1'
_chemical_name_systematic        
(2-dimesitylborylphenyl)(2-diphenylphosphanylphenyl)acetylene
_symmetry_cell_setting           monoclinic
_symmetry_space_group_name_H-M   'P 21/c'
_symmetry_Int_Tables_number      14
_space_group_name_Hall           '-P 2ybc'
loop_
_symmetry_equiv_pos_site_id
_symmetry_equiv_pos_as_xyz
1 x,y,z
2 -x,1/2+y,1/2-z
3 -x,-y,-z
4 x,1/2-y,1/2+z
_cell_length_a                   17.177(3)
_cell_length_b                   12.4963(19)
_cell_length_c                   17.480(3)
_cell_angle_alpha                90
_cell_angle_beta                 114.0966(19)
_cell_angle_gamma                90
_cell_volume                     3425.1
_exptl_crystal_colour            yellow
_exptl_crystal_description       block
_cell_formula_units_Z            4
loop_
_atom_site_label
_atom_site_type_symbol
_atom_site_fract_x
_atom_site_fract_y
_atom_site_fract_z
C1 C 0.24823(12) 0.13781(16) 0.68719(12)
C2 C 0.17700(12) 0.15682(15) 0.63719(12)
C3 C 0.09301(11) 0.18328(15) 0.57712(12)
C4 C 0.05086(11) 0.27409(15) 0.58911(11)
C5 C -0.02980(12) 0.29925(16) 0.52869(12)
H1 H -0.0588 0.3606 0.5360
C6 C -0.06840(12) 0.23577(16) 0.45791(12)
H2 H -0.1236 0.2537 0.4173
C7 C -0.02673(13) 0.14667(16) 0.44642(12)
H3 H -0.0534 0.1033 0.3980
C8 C 0.05385(12) 0.12045(16) 0.50542(12)
H4 H 0.0825 0.0595 0.4971
C9 C 0.33281(12) 0.12702(16) 0.75118(12)
C10 C 0.40466(12) 0.11843(15) 0.73132(12)
C11 C 0.48507(12) 0.12174(17) 0.79851(12)
H5 H 0.5345 0.1184 0.7870
C12 C 0.49518(13) 0.1296(2) 0.88103(13)
H6 H 0.5507 0.1310 0.9250
C13 C 0.42405(14) 0.1355(2) 0.89907(14)
H7 H 0.4305 0.1400 0.9556
C14 C 0.34386(14) 0.1347(2) 0.83476(14)
H8 H 0.2952 0.1396 0.8474
P1 P 0.10699(3) 0.35394(4) 0.68430(3)
B1 B 0.39920(13) 0.10875(17) 0.63936(14)
C15 C 0.02373(12) 0.44777(15) 0.68209(11)
C16 C -0.02879(12) 0.41559(17) 0.72154(12)
H9 H -0.0225 0.3460 0.7452
C17 C -0.08989(13) 0.48460(18) 0.72632(13)
H10 H -0.1260 0.4615 0.7522
C18 C -0.09864(12) 0.58714(17) 0.69353(12)
H11 H -0.1395 0.6349 0.6983
C19 C -0.04743(12) 0.61934(16) 0.65391(12)
H12 H -0.0536 0.6892 0.6307
C20 C 0.01284(12) 0.55009(16) 0.64798(12)
H13 H 0.0473 0.5729 0.6202
C21 C 0.17311(11) 0.44024(15) 0.64983(12)
C22 C 0.16625(12) 0.44408(16) 0.56767(12)
H14 H 0.1265 0.3989 0.5265
C23 C 0.21656(12) 0.51288(16) 0.54512(12)
H15 H 0.2115 0.5142 0.4889
C24 C 0.27422(12) 0.57978(16) 0.60447(12)
H16 H 0.3081 0.6278 0.5889
C25 C 0.28231(12) 0.57641(17) 0.68694(13)
H17 H 0.3217 0.6223 0.7278
C26 C 0.23294(12) 0.50624(16) 0.70925(12)
H18 H 0.2399 0.5029 0.7660
C27 C 0.32621(11) 0.04417(15) 0.56865(11)
C28 C 0.27492(12) 0.09180(16) 0.49092(12)
C29 C 0.21144(12) 0.03321(16) 0.42913(12)
H19 H 0.1776 0.0673 0.3776
C30 C 0.19575(12) -0.07285(16) 0.44000(12)
C31 C 0.24533(12) -0.11996(15) 0.51662(12)
H20 H 0.2354 -0.1927 0.5257
C32 C 0.30922(11) -0.06368(15) 0.58069(11)
C33 C 0.47405(12) 0.16557(16) 0.62468(11)
C34 C 0.53574(12) 0.10724(16) 0.60774(11)
C35 C 0.60297(12) 0.16093(18) 0.59942(12)
H21 H 0.6435 0.1210 0.5872
C36 C 0.61233(12) 0.27085(18) 0.60846(12)
C37 C 0.55172(12) 0.32795(17) 0.62516(12)
H22 H 0.5568 0.4036 0.6307
C38 C 0.48373(12) 0.27730(16) 0.63402(12)
C39 C 0.28229(16) 0.20870(19) 0.47438(15)
H23 H 0.2463 0.2247 0.4156
H24 H 0.3418 0.2258 0.4862
H25 H 0.2635 0.2518 0.5106
C40 C 0.12701(14) -0.13484(18) 0.37136(13)
H26 H 0.0709 -0.1072 0.3638
H27 H 0.1310 -0.2107 0.3868
H28 H 0.1344 -0.1269 0.3189
C41 C 0.35930(14) -0.12328(17) 0.66080(13)
H29 H 0.3214 -0.1724 0.6730
H30 H 0.3840 -0.0721 0.7069
H31 H 0.4051 -0.1641 0.6546
C42 C 0.53399(13) -0.01354(17) 0.60480(13)
H32 H 0.5725 -0.0391 0.5801
H33 H 0.4759 -0.0380 0.5706
H34 H 0.5525 -0.0419 0.6618
C43 C 0.68745(14) 0.3278(2) 0.60301(15)
H35 H 0.6735 0.4036 0.5903
H36 H 0.7005 0.2955 0.5585
H37 H 0.7371 0.3214 0.6567
C44 C 0.42127(13) 0.34592(17) 0.65346(15)
H38 H 0.4471 0.3675 0.7125
H39 H 0.3692 0.3048 0.6426
H40 H 0.4071 0.4098 0.6178
loop_
_geom_bond_atom_site_label_1
_geom_bond_atom_site_label_2
_geom_bond_site_symmetry_1
_geom_bond_site_symmetry_2
C1 C2 1_555 1_555
C2 C3 1_555 1_555
C3 C4 1_555 1_555
C4 C5 1_555 1_555
C5 H1 1_555 1_555
C6 C5 1_555 1_555
H2 C6 1_555 1_555
C7 C6 1_555 1_555
H3 C7 1_555 1_555
C8 C3 1_555 1_555
H4 C8 1_555 1_555
C9 C1 1_555 1_555
C10 C9 1_555 1_555
C11 C10 1_555 1_555
H5 C11 1_555 1_555
C12 C11 1_555 1_555
H6 C12 1_555 1_555
C13 C12 1_555 1_555
H7 C13 1_555 1_555
C14 C9 1_555 1_555
H8 C14 1_555 1_555
P1 C4 1_555 1_555
B1 C10 1_555 1_555
C15 P1 1_555 1_555
C16 C15 1_555 1_555
H9 C16 1_555 1_555
C17 C16 1_555 1_555
H10 C17 1_555 1_555
C18 C17 1_555 1_555
H11 C18 1_555 1_555
C19 C18 1_555 1_555
H12 C19 1_555 1_555
C20 C15 1_555 1_555
H13 C20 1_555 1_555
C21 P1 1_555 1_555
C22 C21 1_555 1_555
H14 C22 1_555 1_555
C23 C22 1_555 1_555
H15 C23 1_555 1_555
C24 C23 1_555 1_555
H16 C24 1_555 1_555
C25 C24 1_555 1_555
H17 C25 1_555 1_555
C26 C21 1_555 1_555
H18 C26 1_555 1_555
C27 B1 1_555 1_555
C28 C27 1_555 1_555
C29 C28 1_555 1_555
H19 C29 1_555 1_555
C30 C29 1_555 1_555
C31 C30 1_555 1_555
H20 C31 1_555 1_555
C32 C27 1_555 1_555
C33 B1 1_555 1_555
C34 C33 1_555 1_555
C35 C34 1_555 1_555
H21 C35 1_555 1_555
C36 C35 1_555 1_555
C37 C36 1_555 1_555
H22 C37 1_555 1_555
C38 C33 1_555 1_555
C39 C28 1_555 1_555
H23 C39 1_555 1_555
H24 C39 1_555 1_555
H25 C39 1_555 1_555
C40 C30 1_555 1_555
H26 C40 1_555 1_555
H27 C40 1_555 1_555
H28 C40 1_555 1_555
C41 C32 1_555 1_555
H29 C41 1_555 1_555
H30 C41 1_555 1_555
H31 C41 1_555 1_555
C42 C34 1_555 1_555
H32 C42 1_555 1_555
H33 C42 1_555 1_555
H34 C42 1_555 1_555
C43 C36 1_555 1_555
H35 C43 1_555 1_555
H36 C43 1_555 1_555
H37 C43 1_555 1_555
C44 C38 1_555 1_555
H38 C44 1_555 1_555
H39 C44 1_555 1_555
H40 C44 1_555 1_555
C7 C8 1_555 1_555
C13 C14 1_555 1_555
C19 C20 1_555 1_555
C25 C26 1_555 1_555
C31 C32 1_555 1_555
C37 C38 1_555 1_555

#END
