
#######################################################################
#
#                 Cambridge Crystallographic Data Centre
#                                CCDC 
#
#######################################################################
#
# If this CIF has been generated from an entry in the Cambridge 
# Structural Database, then it will include bibliographic, chemical, 
# crystal, experimental, refinement or atomic coordinate data resulting 
# from the CCDC's data processing and validation procedures.
#
#######################################################################

data_BAJSAH
_chemical_formula_moiety         'C22 Br2 F36'
_chemical_name_systematic        
1,4-dibromo-2,5-difluoro-3,6-perfluorooctylbenzene
_symmetry_cell_setting           monoclinic
_symmetry_space_group_name_H-M   'P 21/c'
_symmetry_Int_Tables_number      14
_space_group_name_Hall           '-P 2ybc'
loop_
_symmetry_equiv_pos_site_id
_symmetry_equiv_pos_as_xyz
1 x,y,z
2 x,1/2-y,1/2+z
3 -x,-y,-z
4 -x,1/2+y,1/2-z
_cell_length_a                   22.089(8)
_cell_length_b                   5.863(2)
_cell_length_c                   11.966(5)
_cell_angle_alpha                90
_cell_angle_beta                 99.159(9)
_cell_angle_gamma                90
_cell_volume                     1529.93
_exptl_crystal_colour            colorless
_exptl_crystal_description       plate
_chemical_melting_point          131-132deg.C
_cell_formula_units_Z            2
loop_
_atom_site_label
_atom_site_type_symbol
_atom_site_fract_x
_atom_site_fract_y
_atom_site_fract_z
Br1 Br 0.47657(5) 0.44024(15) 0.83147(8)
F1 F 0.5902(3) 0.2432(9) 0.9305(5)
F2 F 0.3380(3) 0.0723(9) 1.0116(4)
F3 F 0.3631(3) 0.3575(8) 0.9166(4)
F4 F 0.3804(3) 0.0452(11) 0.7423(5)
F5 F 0.3416(3) -0.2121(8) 0.8383(5)
F6 F 0.2820(3) 0.2925(9) 0.7182(5)
F7 F 0.2430(3) 0.1048(11) 0.8445(5)
F8 F 0.2867(3) -0.1398(12) 0.6069(5)
F9 F 0.2269(3) -0.2602(9) 0.7201(6)
F10 F 0.2087(3) 0.1741(11) 0.5220(5)
F11 F 0.1554(3) 0.1335(12) 0.6585(5)
F12 F 0.1863(3) -0.3082(11) 0.4847(6)
F13 F 0.1163(4) -0.2621(13) 0.5876(6)
F14 F 0.1402(4) 0.0035(12) 0.3405(5)
F15 F 0.0765(4) 0.1181(13) 0.4508(6)
F16 F 0.0845(3) -0.4197(11) 0.3358(7)
F17 F 0.0178(4) -0.2803(17) 0.4248(7)
F18 F 0.0300(4) -0.1451(14) 0.2651(6)
C1 C 0.4861(5) 0.1865(14) 0.9295(7)
C2 C 0.5463(5) 0.1220(14) 0.9666(8)
C3 C 0.4367(4) 0.0667(13) 0.9652(7)
C4 C 0.3704(5) 0.1282(15) 0.9322(8)
C5 C 0.3421(5) 0.0101(14) 0.8163(8)
C6 C 0.2777(5) 0.0853(15) 0.7652(8)
C7 C 0.2457(5) -0.0753(15) 0.6697(8)
C8 C 0.1904(5) 0.0228(15) 0.5960(8)
C9 C 0.1492(5) -0.1573(17) 0.5206(8)
C10 C 0.1068(5) -0.0664(18) 0.4160(9)
C11 C 0.0584(6) -0.229(2) 0.3619(10)
C3B C 0.5633(4) -0.0667(13) 1.0348(7)
C1B C 0.5139(5) -0.1865(14) 1.0705(7)
Br1B Br 0.52343(5) -0.44024(15) 1.16853(8)
C2B C 0.4537(5) -0.1220(14) 1.0334(8)
F1B F 0.4098(3) -0.2432(9) 1.0695(5)
C4B C 0.6296(5) -0.1282(15) 1.0678(8)
F2B F 0.6620(3) -0.0723(9) 0.9884(4)
F3B F 0.6369(3) -0.3575(8) 1.0834(4)
C5B C 0.6579(5) -0.0101(14) 1.1837(8)
F4B F 0.6196(3) -0.0452(11) 1.2577(5)
F5B F 0.6584(3) 0.2121(8) 1.1617(5)
C6B C 0.7223(5) -0.0853(15) 1.2348(8)
F6B F 0.7180(3) -0.2925(9) 1.2818(5)
F7B F 0.7570(3) -0.1048(11) 1.1555(5)
C7B C 0.7543(5) 0.0753(15) 1.3303(8)
F8B F 0.7133(3) 0.1398(12) 1.3931(5)
F9B F 0.7731(3) 0.2602(9) 1.2799(6)
C8B C 0.8096(5) -0.0228(15) 1.4040(8)
F10B F 0.7913(3) -0.1741(11) 1.4780(5)
F11B F 0.8446(3) -0.1335(12) 1.3415(5)
C9B C 0.8508(5) 0.1573(17) 1.4794(8)
F12B F 0.8137(3) 0.3082(11) 1.5153(6)
F13B F 0.8837(4) 0.2621(13) 1.4124(6)
C10B C 0.8932(5) 0.0664(18) 1.5840(9)
F14B F 0.8598(4) -0.0035(12) 1.6595(5)
F15B F 0.9235(4) -0.1181(13) 1.5492(6)
C11B C 0.9416(6) 0.229(2) 1.6381(10)
F16B F 0.9155(3) 0.4197(11) 1.6642(7)
F17B F 0.9822(4) 0.2803(17) 1.5752(7)
F18B F 0.9700(4) 0.1451(14) 1.7349(6)
loop_
_geom_bond_atom_site_label_1
_geom_bond_atom_site_label_2
_geom_bond_site_symmetry_1
_geom_bond_site_symmetry_2
Br1 C1 1_555 1_555
F1 C2 1_555 1_555
F2 C4 1_555 1_555
F3 C4 1_555 1_555
F4 C5 1_555 1_555
F5 C5 1_555 1_555
F6 C6 1_555 1_555
F7 C6 1_555 1_555
F8 C7 1_555 1_555
F9 C7 1_555 1_555
F10 C8 1_555 1_555
F11 C8 1_555 1_555
F12 C9 1_555 1_555
F13 C9 1_555 1_555
F14 C10 1_555 1_555
F15 C10 1_555 1_555
F16 C11 1_555 1_555
F17 C11 1_555 1_555
F18 C11 1_555 1_555
C1 C2 1_555 1_555
C2 C3B 1_555 1_555
C3 C1 1_555 1_555
C4 C3 1_555 1_555
C5 C4 1_555 1_555
C6 C5 1_555 1_555
C7 C6 1_555 1_555
C8 C7 1_555 1_555
C9 C8 1_555 1_555
C10 C9 1_555 1_555
C11 C10 1_555 1_555
C3B C1B 1_555 1_555
C1B Br1B 1_555 1_555
C2B C3 1_555 1_555
F1B C2B 1_555 1_555
C4B C3B 1_555 1_555
F2B C4B 1_555 1_555
F3B C4B 1_555 1_555
C5B C4B 1_555 1_555
F4B C5B 1_555 1_555
F5B C5B 1_555 1_555
C6B C5B 1_555 1_555
F6B C6B 1_555 1_555
F7B C6B 1_555 1_555
C7B C6B 1_555 1_555
F8B C7B 1_555 1_555
F9B C7B 1_555 1_555
C8B C7B 1_555 1_555
F10B C8B 1_555 1_555
F11B C8B 1_555 1_555
C9B C8B 1_555 1_555
F12B C9B 1_555 1_555
F13B C9B 1_555 1_555
C10B C9B 1_555 1_555
F14B C10B 1_555 1_555
F15B C10B 1_555 1_555
C11B C10B 1_555 1_555
F16B C11B 1_555 1_555
F17B C11B 1_555 1_555
F18B C11B 1_555 1_555
C1B C2B 1_555 1_555

#END
