
#######################################################################
#
#                 Cambridge Crystallographic Data Centre
#                                CCDC 
#
#######################################################################
#
# If this CIF has been generated from an entry in the Cambridge 
# Structural Database, then it will include bibliographic, chemical, 
# crystal, experimental, refinement or atomic coordinate data resulting 
# from the CCDC's data processing and validation procedures.
#
#######################################################################

data_BAJTIR
_chemical_formula_moiety         'C4 H12 B1 N1'
_chemical_name_systematic        (4-aminobutan-2-yl)-dihydrido-boron
_symmetry_cell_setting           monoclinic
_symmetry_space_group_name_H-M   'P 21/c'
_symmetry_Int_Tables_number      14
_space_group_name_Hall           '-P 2ybc'
loop_
_symmetry_equiv_pos_site_id
_symmetry_equiv_pos_as_xyz
1 x,y,z
2 -x,1/2+y,1/2-z
3 -x,-y,-z
4 x,1/2-y,1/2+z
_cell_length_a                   9.919(3)
_cell_length_b                   7.278(2)
_cell_length_c                   9.294(3)
_cell_angle_alpha                90
_cell_angle_beta                 117.149(5)
_cell_angle_gamma                90
_cell_volume                     597.016
_exptl_crystal_colour            colorless
_exptl_crystal_description       needle
_cell_formula_units_Z            4
loop_
_atom_site_label
_atom_site_type_symbol
_atom_site_fract_x
_atom_site_fract_y
_atom_site_fract_z
N1 N 0.1079(3) 1.2248(3) 0.6635(3)
C1 C 0.2706(3) 1.2591(4) 0.7138(4)
B1 B 0.0996(3) 1.0336(4) 0.7453(4)
H1 H 0.0312 0.9450 0.6638
H2 H 0.0661 1.0517 0.8296
C2 C 0.3391(3) 1.0758(5) 0.7282(5)
H3 H 0.4511 1.0831 0.7855
H4 H 0.3077 1.0204 0.6203
C3 C 0.2793(4) 0.9659(6) 0.8246(5)
H5 H 0.3325 1.0061 0.9401
C4 C 0.3026(15) 0.7616(15) 0.8164(13)
H6 H 0.4113 0.7349 0.8647
H7 H 0.2540 0.7217 0.7032
H8 H 0.2577 0.6957 0.8759
H9 H 0.064(3) 1.215(3) 0.566(3)
H10 H 0.057(3) 1.318(4) 0.684(3)
H11 H 0.280(3) 1.341(5) 0.647(4)
H12 H 0.305(4) 1.322(5) 0.813(4)
B2? B 0.0996(3) 1.0336(4) 0.7453(4)
C5? C 0.3391(3) 1.0758(5) 0.7282(5)
C6? C 0.2277(8) 0.9142(11) 0.7258(10)
C7? C 0.302(4) 0.786(4) 0.866(3)
H13? H -0.0017 0.9762 0.6871
H14? H 0.1243 1.0500 0.8604
H15? H 0.4346 1.0694 0.8304
H16? H 0.3644 1.0576 0.6377
H17? H 0.1841 0.8463 0.6207
H18? H 0.3809 0.7159 0.8549
H19? H 0.2257 0.7010 0.8675
H20? H 0.3467 0.8564 0.9666
loop_
_geom_bond_atom_site_label_1
_geom_bond_atom_site_label_2
_geom_bond_site_symmetry_1
_geom_bond_site_symmetry_2
N1 C1 1_555 1_555
C1 C2 1_555 1_555
B1 N1 1_555 1_555
H1 B1 1_555 1_555
H2 B1 1_555 1_555
C2 H3 1_555 1_555
H4 C2 1_555 1_555
C3 B1 1_555 1_555
H5 C3 1_555 1_555
C4 C3 1_555 1_555
H6 C4 1_555 1_555
H7 C4 1_555 1_555
H8 C4 1_555 1_555
H9 N1 1_555 1_555
H10 N1 1_555 1_555
H11 C1 1_555 1_555
H12 C1 1_555 1_555
C2 C3 1_555 1_555

#END
