
#######################################################################
#
#                 Cambridge Crystallographic Data Centre
#                                CCDC 
#
#######################################################################
#
# If this CIF has been generated from an entry in the Cambridge 
# Structural Database, then it will include bibliographic, chemical, 
# crystal, experimental, refinement or atomic coordinate data resulting 
# from the CCDC's data processing and validation procedures.
#
#######################################################################

data_BAKJUV
_chemical_formula_moiety         'C16 H17 N1 O5'
_chemical_name_systematic        
4'-hydroxy-1-methoxy-9'H-spiro[indole-3,2'-[7]oxabicyclo[3.2.2]nonane]-2,9'(1H)-dione
_symmetry_cell_setting           triclinic
_symmetry_space_group_name_H-M   'P -1'
_symmetry_Int_Tables_number      2
_space_group_name_Hall           '-P 1'
loop_
_symmetry_equiv_pos_site_id
_symmetry_equiv_pos_as_xyz
1 x,y,z
2 -x,-y,-z
_cell_length_a                   7.685(2)
_cell_length_b                   9.787(3)
_cell_length_c                   11.692(3)
_cell_angle_alpha                65.890(5)
_cell_angle_beta                 72.218(6)
_cell_angle_gamma                71.709(6)
_cell_volume                     746.021
_exptl_crystal_colour            colorless
_exptl_crystal_description       prismatic
_cell_formula_units_Z            2
loop_
_atom_site_label
_atom_site_type_symbol
_atom_site_fract_x
_atom_site_fract_y
_atom_site_fract_z
N1 N -0.0947(2) 0.1513(2) 0.19919(19)
O1 O 0.4761(3) -0.45249(18) 0.34549(18)
O2 O 0.2647(2) -0.08690(17) 0.47409(14)
O3 O 0.6854(2) -0.1460(2) 0.13703(16)
H1 H 0.7845 -0.1373 0.1433
O4 O -0.0232(2) -0.09554(19) 0.20226(18)
O5 O -0.2705(2) 0.19538(19) 0.17205(16)
C1 C 0.4136(3) -0.3362(2) 0.3720(2)
C2 C 0.2092(3) -0.2819(3) 0.4182(2)
H2 H 0.1727 -0.3446 0.5068
H3 H 0.1389 -0.2947 0.3683
C3 C 0.1594(3) -0.1140(2) 0.4074(2)
H4 H 0.0274 -0.0912 0.4489
C4 C 0.4517(3) -0.1758(3) 0.4742(2)
H5 H 0.4538 -0.2626 0.5536
H6 H 0.5311 -0.1136 0.4706
C5 C 0.5308(3) -0.2340(2) 0.3622(2)
H7 H 0.6584 -0.2944 0.3682
C6 C 0.5378(3) -0.1015(2) 0.2316(2)
H8 H 0.5597 -0.0134 0.2408
C7 C 0.3610(3) -0.0510(2) 0.1792(2)
H9 H 0.3474 -0.1353 0.1615
H10 H 0.3761 0.0332 0.0986
C8 C 0.1799(3) 0.0001(2) 0.2676(2)
C9 C 0.0112(3) 0.0086(3) 0.2187(2)
C10 C -0.0195(3) 0.2482(2) 0.2236(2)
C11 C 0.1474(3) 0.1636(2) 0.2626(2)
C12 C 0.2502(3) 0.2360(3) 0.2888(2)
H11 H 0.3632 0.1826 0.3145
C13 C 0.1835(4) 0.3893(3) 0.2764(2)
H12 H 0.2530 0.4391 0.2931
C14 C 0.0160(4) 0.4684(3) 0.2398(2)
H13 H -0.0271 0.5708 0.2334
C15 C -0.0904(3) 0.3997(3) 0.2121(2)
H14 H -0.2039 0.4532 0.1870
C16 C -0.2627(5) 0.2610(4) 0.0373(3)
H15 H -0.2132 0.3517 0.0026
H16 H -0.3863 0.2871 0.0212
H17 H -0.1832 0.1882 -0.0025
loop_
_geom_bond_atom_site_label_1
_geom_bond_atom_site_label_2
_geom_bond_site_symmetry_1
_geom_bond_site_symmetry_2
N1 O5 1_555 1_555
O1 C1 1_555 1_555
O2 C3 1_555 1_555
O3 H1 1_555 1_555
O4 C9 1_555 1_555
O5 C16 1_555 1_555
C1 C2 1_555 1_555
C2 H2 1_555 1_555
H3 C2 1_555 1_555
C3 C2 1_555 1_555
H4 C3 1_555 1_555
C4 O2 1_555 1_555
H5 C4 1_555 1_555
H6 C4 1_555 1_555
C5 C1 1_555 1_555
H7 C5 1_555 1_555
C6 O3 1_555 1_555
H8 C6 1_555 1_555
C7 C6 1_555 1_555
H9 C7 1_555 1_555
H10 C7 1_555 1_555
C8 C3 1_555 1_555
C9 N1 1_555 1_555
C10 N1 1_555 1_555
C11 C8 1_555 1_555
C12 C11 1_555 1_555
H11 C12 1_555 1_555
C13 C12 1_555 1_555
H12 C13 1_555 1_555
C14 C13 1_555 1_555
H13 C14 1_555 1_555
C15 C10 1_555 1_555
H14 C15 1_555 1_555
C16 H15 1_555 1_555
H16 C16 1_555 1_555
H17 C16 1_555 1_555
C4 C5 1_555 1_555
C5 C6 1_555 1_555
C7 C8 1_555 1_555
C8 C9 1_555 1_555
C10 C11 1_555 1_555
C14 C15 1_555 1_555

#END
