
#######################################################################
#
#                 Cambridge Crystallographic Data Centre
#                                CCDC 
#
#######################################################################
#
# If this CIF has been generated from an entry in the Cambridge 
# Structural Database, then it will include bibliographic, chemical, 
# crystal, experimental, refinement or atomic coordinate data resulting 
# from the CCDC's data processing and validation procedures.
#
#######################################################################

data_BAKJIJ
_chemical_formula_moiety         'C20 H14 N2 O1'
_chemical_name_systematic        
2-(9H-fluoren-9-ylidenecarbonohydrazonoyl)phenol
_symmetry_cell_setting           monoclinic
_symmetry_space_group_name_H-M   'P 21/c'
_symmetry_Int_Tables_number      14
_space_group_name_Hall           '-P 2ybc'
loop_
_symmetry_equiv_pos_site_id
_symmetry_equiv_pos_as_xyz
1 x,y,z
2 -x,1/2+y,1/2-z
3 -x,-y,-z
4 x,1/2-y,1/2+z
_cell_length_a                   20.379(8)
_cell_length_b                   4.7351(9)
_cell_length_c                   31.360(9)
_cell_angle_alpha                90
_cell_angle_beta                 106.25(4)
_cell_angle_gamma                90
_cell_volume                     2905.24
_exptl_crystal_colour            yellow
_exptl_crystal_description       needle
_cell_formula_units_Z            8
loop_
_atom_site_label
_atom_site_type_symbol
_atom_site_fract_x
_atom_site_fract_y
_atom_site_fract_z
O1 O 0.18721(14) -0.0100(8) 0.64459(10)
H1 H 0.1795 0.1258 0.6598
N1 N 0.09696(16) 0.4829(8) 0.71404(11)
N2 N 0.11403(16) 0.2843(8) 0.68545(11)
C1 C 0.14672(19) 0.5520(9) 0.74818(13)
C2 C 0.2191(2) 0.4668(9) 0.76599(12)
C3 C 0.2588(2) 0.2635(9) 0.75270(12)
H2 H 0.2399 0.1504 0.7272
C4 C 0.3263(2) 0.2289(9) 0.77731(13)
H3 H 0.3535 0.0911 0.7683
C5 C 0.3548(2) 0.3894(10) 0.81456(13)
H4 H 0.4013 0.3621 0.8308
C6 C 0.3155(2) 0.5919(9) 0.82838(13)
H5 H 0.3349 0.7033 0.8540
C7 C 0.24846(19) 0.6286(8) 0.80456(12)
C8 C 0.19532(19) 0.8134(9) 0.81279(12)
C9 C 0.1984(2) 1.0059(9) 0.84692(12)
H6 H 0.2397 1.0392 0.8695
C10 C 0.1378(2) 1.1487(9) 0.84661(14)
H7 H 0.1386 1.2824 0.8693
C11 C 0.07686(19) 1.1006(9) 0.81423(12)
H8 H 0.0366 1.1980 0.8154
C12 C 0.07439(19) 0.9094(9) 0.77989(13)
H9 H 0.0330 0.8769 0.7573
C13 C 0.13400(18) 0.7680(9) 0.77959(12)
C14 C 0.0600(2) 0.1745(9) 0.65892(12)
H10 H 0.0164 0.2307 0.6612
C15 C 0.0641(2) -0.0341(9) 0.62550(13)
C16 C 0.1277(2) -0.1187(10) 0.62029(13)
C17 C 0.1304(2) -0.3290(10) 0.58871(13)
H11 H 0.1731 -0.3915 0.5855
C18 C 0.0700(2) -0.4411(10) 0.56281(14)
H12 H 0.0715 -0.5814 0.5414
C19 C 0.0065(2) -0.3541(10) 0.56709(13)
H13 H -0.0346 -0.4322 0.5486
C20 C 0.0044(2) -0.1522(10) 0.59876(13)
H14 H -0.0384 -0.0941 0.6022
O2 O 0.48014(14) 1.0139(7) 0.61240(9)
H15 H 0.4492 0.9082 0.5973
N3 N 0.30509(16) 0.5956(7) 0.56621(10)
N4 N 0.35730(16) 0.7862(8) 0.58653(11)
C21 C 0.30852(19) 0.4876(9) 0.52922(13)
C22 C 0.35606(19) 0.5311(9) 0.50061(12)
C23 C 0.40876(19) 0.7183(9) 0.50334(13)
H16 H 0.4222 0.8487 0.5272
C24 C 0.4421(2) 0.7106(10) 0.46979(13)
H17 H 0.4787 0.8378 0.4712
C25 C 0.4229(2) 0.5216(9) 0.43466(13)
H18 H 0.4467 0.5202 0.4126
C26 C 0.3692(2) 0.3341(10) 0.43150(13)
H19 H 0.3562 0.2036 0.4076
C27 C 0.3346(2) 0.3420(9) 0.46425(12)
C28 C 0.27479(19) 0.1807(9) 0.46781(13)
C29 C 0.2366(2) -0.0223(9) 0.44071(13)
H20 H 0.2483 -0.0854 0.4150
C30 C 0.1801(2) -0.1341(10) 0.45170(14)
H21 H 0.1523 -0.2706 0.4328
C31 C 0.1640(2) -0.0484(10) 0.48997(14)
H22 H 0.1258 -0.1294 0.4971
C32 C 0.2033(2) 0.1548(9) 0.51798(13)
H23 H 0.1925 0.2125 0.5442
C33 C 0.25868(19) 0.2709(9) 0.50643(13)
C34 C 0.3412(2) 0.9357(8) 0.61652(12)
H24 H 0.2972 0.9138 0.6209
C35 C 0.38850(19) 1.1359(9) 0.64372(12)
C36 C 0.4552(2) 1.1685(9) 0.64117(12)
C37 C 0.4992(2) 1.3609(9) 0.66872(13)
H25 H 0.5446 1.3831 0.6667
C38 C 0.4770(2) 1.5187(9) 0.69886(13)
H26 H 0.5073 1.6473 0.7179
C39 C 0.4102(2) 1.4911(9) 0.70169(13)
H27 H 0.3947 1.6024 0.7221
C40 C 0.3665(2) 1.2986(9) 0.67423(13)
H28 H 0.3211 1.2776 0.6763
loop_
_geom_bond_atom_site_label_1
_geom_bond_atom_site_label_2
_geom_bond_site_symmetry_1
_geom_bond_site_symmetry_2
O1 H1 1_555 1_555
N1 N2 1_555 1_555
N2 C14 1_555 1_555
C1 N1 1_555 1_555
C2 C1 1_555 1_555
C3 C2 1_555 1_555
H2 C3 1_555 1_555
C4 C3 1_555 1_555
H3 C4 1_555 1_555
C5 C4 1_555 1_555
H4 C5 1_555 1_555
C6 C5 1_555 1_555
H5 C6 1_555 1_555
C7 C2 1_555 1_555
C8 C7 1_555 1_555
C9 C8 1_555 1_555
H6 C9 1_555 1_555
C10 C9 1_555 1_555
H7 C10 1_555 1_555
C11 C10 1_555 1_555
H8 C11 1_555 1_555
C12 C11 1_555 1_555
H9 C12 1_555 1_555
C13 C1 1_555 1_555
C14 H10 1_555 1_555
C15 C14 1_555 1_555
C16 O1 1_555 1_555
C17 C16 1_555 1_555
H11 C17 1_555 1_555
C18 C17 1_555 1_555
H12 C18 1_555 1_555
C19 C18 1_555 1_555
H13 C19 1_555 1_555
C20 C15 1_555 1_555
H14 C20 1_555 1_555
O2 H15 1_555 1_555
N3 N4 1_555 1_555
N4 C34 1_555 1_555
C21 N3 1_555 1_555
C22 C21 1_555 1_555
C23 C22 1_555 1_555
H16 C23 1_555 1_555
C24 C23 1_555 1_555
H17 C24 1_555 1_555
C25 C24 1_555 1_555
H18 C25 1_555 1_555
C26 C25 1_555 1_555
H19 C26 1_555 1_555
C27 C22 1_555 1_555
C28 C27 1_555 1_555
C29 C28 1_555 1_555
H20 C29 1_555 1_555
C30 C29 1_555 1_555
H21 C30 1_555 1_555
C31 C30 1_555 1_555
H22 C31 1_555 1_555
C32 C31 1_555 1_555
H23 C32 1_555 1_555
C33 C21 1_555 1_555
C34 H24 1_555 1_555
C35 C34 1_555 1_555
C36 O2 1_555 1_555
C37 C36 1_555 1_555
H25 C37 1_555 1_555
C38 C37 1_555 1_555
H26 C38 1_555 1_555
C39 C38 1_555 1_555
H27 C39 1_555 1_555
C40 C35 1_555 1_555
H28 C40 1_555 1_555
C6 C7 1_555 1_555
C8 C13 1_555 1_555
C12 C13 1_555 1_555
C15 C16 1_555 1_555
C19 C20 1_555 1_555
C26 C27 1_555 1_555
C28 C33 1_555 1_555
C32 C33 1_555 1_555
C35 C36 1_555 1_555
C39 C40 1_555 1_555

#END
