
#######################################################################
#
#                 Cambridge Crystallographic Data Centre
#                                CCDC 
#
#######################################################################
#
# If this CIF has been generated from an entry in the Cambridge 
# Structural Database, then it will include bibliographic, chemical, 
# crystal, experimental, refinement or atomic coordinate data resulting 
# from the CCDC's data processing and validation procedures.
#
#######################################################################

data_BAKJAA
_chemical_formula_moiety         'C23 H20 N8,2(C2 H6 O1 S1)'
_chemical_name_systematic        
'4-(1-methyl-2-(pyridin-2-ylmethylene)hydrazino)-2-phenyl-6-(2-(pyridin-2-ylmethylene)hydrazino)pyrimidine dimethyl sulfoxide solvate'
_symmetry_cell_setting           orthorhombic
_symmetry_space_group_name_H-M   'P b c 21'
_symmetry_Int_Tables_number      29
_space_group_name_Hall           'P 2c -2b'
loop_
_symmetry_equiv_pos_site_id
_symmetry_equiv_pos_as_xyz
1 x,y,z
2 -x,-y,1/2+z
3 -x,1/2+y,z
4 x,1/2-y,1/2+z
_cell_length_a                   9.5705(2)
_cell_length_b                   18.6451(3)
_cell_length_c                   32.4579(7)
_cell_angle_alpha                90
_cell_angle_beta                 90
_cell_angle_gamma                90
_cell_volume                     5791.88
_exptl_crystal_colour            colorless
_exptl_crystal_description       prism
_cell_formula_units_Z            8
loop_
_atom_site_label
_atom_site_type_symbol
_atom_site_fract_x
_atom_site_fract_y
_atom_site_fract_z
C1 C 0.8844(7) 0.8176(3) 0.5998(3)
C2 C 0.7975(7) 0.7670(4) 0.6173(3)
H1 H 0.7432 0.7365 0.6012
C3 C 0.7952(7) 0.7640(4) 0.6590(3)
C4 C 0.9562(7) 0.8530(4) 0.6632(3)
C5 C 1.0439(8) 0.9018(4) 0.6890(3)
C6 C 1.1410(7) 0.9456(4) 0.6695(3)
H2 H 1.1535 0.9422 0.6412
C7 C 1.2210(9) 0.9953(4) 0.6925(4)
H3 H 1.2836 1.0259 0.6794
C8 C 1.2044(11) 0.9975(4) 0.7347(4)
H4 H 1.2610 1.0268 0.7508
C9 C 1.0968(12) 0.9531(6) 0.7537(3)
H5 H 1.0742 0.9582 0.7814
C10 C 1.0325(10) 0.9058(5) 0.7305(4)
H6 H 0.9749 0.8727 0.7435
C11 C 0.9908(9) 0.8744(5) 0.5375(3)
H7 H 0.9401 0.9085 0.5211
H8 H 1.0538 0.8480 0.5202
H9 H 1.0430 0.8993 0.5583
C12 C 0.8172(9) 0.7782(5) 0.4954(3)
H10 H 0.8742 0.8110 0.4819
C13 C 0.7335(9) 0.7277(5) 0.4719(3)
C14 C 0.6347(11) 0.6873(5) 0.4916(4)
H11 H 0.6185 0.6904 0.5198
C15 C 0.5602(9) 0.6409(5) 0.4660(5)
H12 H 0.4944 0.6103 0.4776
C16 C 0.5805(11) 0.6392(5) 0.4253(4)
H13 H 0.5280 0.6091 0.4086
C17 C 0.6809(13) 0.6831(6) 0.4091(4)
H14 H 0.6999 0.6808 0.3811
C18 C 0.5357(7) 0.6348(4) 0.6780(3)
H15 H 0.5455 0.6298 0.7064
C19 C 0.4252(8) 0.5926(4) 0.6547(3)
C20 C 0.3956(7) 0.6065(4) 0.6138(3)
H16 H 0.4442 0.6420 0.5997
C21 C 0.2979(8) 0.5691(4) 0.5950(3)
H17 H 0.2774 0.5779 0.5675
C22 C 0.2238(9) 0.5155(5) 0.6170(4)
H18 H 0.1507 0.4902 0.6050
C23 C 0.2662(10) 0.5024(5) 0.6576(4)
H19 H 0.2241 0.4651 0.6720
N1 N 0.9669(6) 0.8582(3) 0.6224(2)
N2 N 0.8733(7) 0.8088(4) 0.6827(2)
N3 N 0.8906(7) 0.8239(3) 0.5575(2)
N4 N 0.8121(7) 0.7771(4) 0.5350(3)
N5 N 0.7057(6) 0.7205(3) 0.6799(3)
H45 H 0.7054 0.7198 0.7064
N6 N 0.6150(7) 0.6772(4) 0.6577(2)
N7 N 0.7503(8) 0.7278(5) 0.4320(3)
N8 N 0.3644(6) 0.5412(3) 0.6767(3)
C24 C 0.3880(8) 0.6876(5) 1.0733(3)
C25 C 0.2939(7) 0.7362(4) 1.0562(3)
H20 H 0.2388 0.7664 1.0722
C26 C 0.2883(7) 0.7361(4) 1.0125(3)
C27 C 0.4594(7) 0.6496(4) 1.0095(3)
C28 C 0.5458(7) 0.6029(4) 0.9843(3)
C29 C 0.5298(11) 0.6006(5) 0.9408(4)
H21 H 0.4633 0.6282 0.9272
C30 C 0.6233(13) 0.5524(5) 0.9188(4)
H22 H 0.6234 0.5524 0.8902
C31 C 0.7060(11) 0.5099(7) 0.9383(5)
H23 H 0.7569 0.4759 0.9237
C32 C 0.7203(9) 0.5133(5) 0.9789(4)
H24 H 0.7888 0.4855 0.9915
C33 C 0.6397(9) 0.5554(4) 1.0026(4)
H25 H 0.6464 0.5530 1.0311
C34 C 0.4938(9) 0.6266(4) 1.1335(3)
H26 H 0.4403 0.5921 1.1487
H27 H 0.5572 0.6507 1.1517
H28 H 0.5458 0.6025 1.1123
C35 C 0.3177(7) 0.7185(4) 1.1772(3)
H29 H 0.3787 0.6881 1.1911
C36 C 0.2229(9) 0.7660(4) 1.2000(3)
C37 C 0.1285(6) 0.8109(4) 1.1803(3)
H30 H 0.1218 0.8095 1.1518
C38 C 0.0432(8) 0.8580(5) 1.2023(3)
H31 H -0.0224 0.8870 1.1892
C39 C 0.0617(11) 0.8593(5) 1.2448(4)
H32 H 0.0103 0.8907 1.2612
C40 C 0.1590(11) 0.8126(6) 1.2625(4)
H33 H 0.1640 0.8118 1.2911
C41 C 0.0316(8) 0.8672(4) 0.9952(3)
H34 H 0.0393 0.8735 0.9668
C42 C -0.0673(7) 0.9072(4) 1.0178(3)
C43 C -0.1025(8) 0.8909(5) 1.0581(3)
H35 H -0.0550 0.8553 1.0725
C44 C -0.2150(8) 0.9305(5) 1.0771(4)
H36 H -0.2443 0.9206 1.1038
C45 C -0.2738(9) 0.9808(5) 1.0551(4)
H37 H -0.3424 1.0092 1.0672
C46 C -0.2386(8) 0.9929(5) 1.0154(3)
H38 H -0.2895 1.0268 1.0006
N9 N 0.4701(6) 0.6437(3) 1.0496(3)
N10 N 0.3695(6) 0.6947(3) 0.9883(2)
N11 N 0.4025(7) 0.6773(4) 1.1153(3)
N12 N 0.3147(6) 0.7197(3) 1.1380(3)
N13 N 0.2033(7) 0.7835(3) 0.9916(2)
H46 H 0.2089 0.7884 0.9653
N14 N 0.1113(6) 0.8219(3) 1.0139(2)
N15 N 0.2471(10) 0.7680(4) 1.2416(3)
N16 N -0.1349(7) 0.9589(4) 0.9964(2)
C47 C 0.5203(11) 0.6841(11) 0.8229(6)
H39 H 0.4531 0.7082 0.8058
H40 H 0.5138 0.7022 0.8505
H41 H 0.5015 0.6335 0.8228
C48 C 0.7741(11) 0.6458(10) 0.8367(4)
H42 H 0.8720 0.6537 0.8322
H43 H 0.7521 0.5964 0.8314
H44 H 0.7514 0.6572 0.8648
S1 S 0.6801(4) 0.6989(3) 0.80466(14)
O2 O 0.6925(9) 0.6708(4) 0.7634(2)
S2 S 1.0940(13) 0.5588(5) 0.8796(2)
O1 O 1.095(4) 0.4826(7) 0.8923(9)
C49 C 1.065(3) 0.6037(13) 0.9269(5)
H47 H 1.1519 0.6235 0.9367
H48 H 1.0298 0.5703 0.9469
H49 H 0.9988 0.6416 0.9230
C50 C 1.206(2) 0.6090(11) 0.8490(7)
H50 H 1.1574 0.6502 0.8386
H51 H 1.2380 0.5802 0.8264
H52 H 1.2846 0.6243 0.8652
S3 S 0.5771(7) 0.9425(5) 0.7937(2)
O3 O 0.6393(13) 0.8955(6) 0.8256(4)
C51 C 0.701(2) 1.0053(7) 0.7780(5)
H53 H 0.7202 1.0379 0.8002
H54 H 0.6660 1.0315 0.7547
H55 H 0.7858 0.9810 0.7703
C52 C 0.5655(17) 0.8924(5) 0.7484(3)
H56 H 0.4995 0.8542 0.7521
H57 H 0.6555 0.8726 0.7420
H58 H 0.5353 0.9228 0.7263
O4 O 0.1884(7) 0.8305(3) 0.9096(2)
S4 S 0.1848(7) 0.7951(3) 0.86821(19)
C53 C 0.287(2) 0.8548(9) 0.8341(7)
H59 H 0.3846 0.8490 0.8397
H60 H 0.2602 0.9037 0.8390
H61 H 0.2683 0.8427 0.8059
C54 C 0.0144(15) 0.8170(12) 0.8508(5)
H62 H -0.0531 0.7893 0.8659
H63 H 0.0066 0.8064 0.8220
H64 H -0.0027 0.8672 0.8553
C55? C 1.078(3) 0.6229(14) 0.9172(6)
C56? C 1.0001(14) 0.5400(9) 0.8517(5)
C57? C 0.5663(19) 0.9194(9) 0.8271(5)
C58? C 0.5655(17) 0.8924(5) 0.7484(3)
C59? C 0.293(4) 0.8117(15) 0.8375(10)
C60? C 0.0144(15) 0.8170(12) 0.8508(5)
H65? H 1.1441 0.6571 0.9278
H66? H 1.0575 0.5880 0.9381
H67? H 0.9940 0.6471 0.9093
H68? H 0.9568 0.5088 0.8714
H69? H 1.0258 0.5130 0.8277
H70? H 0.9356 0.5772 0.8441
H71? H 0.6097 0.9374 0.8517
H72? H 0.5454 0.8694 0.8306
H73? H 0.4815 0.9453 0.8220
H74? H 0.6146 0.8968 0.7228
H75? H 0.4786 0.9179 0.7468
H76? H 0.5475 0.8426 0.7540
H77? H 0.3782 0.8277 0.8504
H78? H 0.2869 0.8319 0.8104
H79? H 0.2941 0.7603 0.8356
H80? H -0.0535 0.8350 0.8700
H81? H 0.0072 0.7657 0.8493
H82? H -0.0026 0.8373 0.8241
O5? O 1.2189(11) 0.5162(11) 0.8948(3)
O6? O 0.701(2) 1.0053(7) 0.7780(5)
S5? S 1.1512(14) 0.5791(8) 0.8737(5)
S6? S 0.6700(8) 0.9294(3) 0.7891(2)
S7? S 0.1591(11) 0.8375(6) 0.8651(3)
loop_
_geom_bond_atom_site_label_1
_geom_bond_atom_site_label_2
_geom_bond_site_symmetry_1
_geom_bond_site_symmetry_2
C1 C2 1_555 1_555
C2 H1 1_555 1_555
C3 C2 1_555 1_555
C4 C5 1_555 1_555
C5 C6 1_555 1_555
C6 H2 1_555 1_555
C7 C6 1_555 1_555
H3 C7 1_555 1_555
C8 C7 1_555 1_555
H4 C8 1_555 1_555
C9 C8 1_555 1_555
H5 C9 1_555 1_555
C10 C5 1_555 1_555
H6 C10 1_555 1_555
C11 H7 1_555 1_555
H8 C11 1_555 1_555
H9 C11 1_555 1_555
C12 H10 1_555 1_555
C13 C12 1_555 1_555
C14 C13 1_555 1_555
H11 C14 1_555 1_555
C15 C14 1_555 1_555
H12 C15 1_555 1_555
C16 C15 1_555 1_555
H13 C16 1_555 1_555
C17 C16 1_555 1_555
H14 C17 1_555 1_555
C18 H15 1_555 1_555
C19 C18 1_555 1_555
C20 C19 1_555 1_555
H16 C20 1_555 1_555
C21 C20 1_555 1_555
H17 C21 1_555 1_555
C22 C21 1_555 1_555
H18 C22 1_555 1_555
C23 C22 1_555 1_555
H19 C23 1_555 1_555
C24 C25 1_555 1_555
C25 H20 1_555 1_555
C26 C25 1_555 1_555
C27 C28 1_555 1_555
C28 C29 1_555 1_555
C29 H21 1_555 1_555
C30 C29 1_555 1_555
H22 C30 1_555 1_555
C31 C30 1_555 1_555
H23 C31 1_555 1_555
C32 C31 1_555 1_555
H24 C32 1_555 1_555
C33 C28 1_555 1_555
H25 C33 1_555 1_555
C34 H26 1_555 1_555
H27 C34 1_555 1_555
H28 C34 1_555 1_555
C35 H29 1_555 1_555
C36 C35 1_555 1_555
C37 C36 1_555 1_555
H30 C37 1_555 1_555
C38 C37 1_555 1_555
H31 C38 1_555 1_555
C39 C38 1_555 1_555
H32 C39 1_555 1_555
C40 C39 1_555 1_555
H33 C40 1_555 1_555
C41 H34 1_555 1_555
C42 C41 1_555 1_555
C43 C42 1_555 1_555
H35 C43 1_555 1_555
C44 C43 1_555 1_555
H36 C44 1_555 1_555
C45 C44 1_555 1_555
H37 C45 1_555 1_555
C46 C45 1_555 1_555
H38 C46 1_555 1_555
C47 H39 1_555 1_555
H40 C47 1_555 1_555
H41 C47 1_555 1_555
C48 H42 1_555 1_555
H43 C48 1_555 1_555
H44 C48 1_555 1_555
N1 C1 1_555 1_555
N2 C3 1_555 1_555
N3 C1 1_555 1_555
N4 C12 1_555 1_555
N5 C3 1_555 1_555
H45 N5 1_555 1_555
N6 C18 1_555 1_555
N7 C13 1_555 1_555
N8 C19 1_555 1_555
N9 C24 1_555 1_555
N10 C26 1_555 1_555
N11 C24 1_555 1_555
N12 C35 1_555 1_555
N13 C26 1_555 1_555
H46 N13 1_555 1_555
N14 C41 1_555 1_555
N15 C36 1_555 1_555
N16 C42 1_555 1_555
S1 C47 1_555 1_555
S2 O1 1_555 1_555
C49 S2 1_555 1_555
H47 C49 1_555 1_555
H48 C49 1_555 1_555
H49 C49 1_555 1_555
C50 S2 1_555 1_555
H50 C50 1_555 1_555
H51 C50 1_555 1_555
H52 C50 1_555 1_555
O2 S1 1_555 1_555
S3 O3 1_555 1_555
C51 S3 1_555 1_555
H53 C51 1_555 1_555
H54 C51 1_555 1_555
H55 C51 1_555 1_555
C52 S3 1_555 1_555
H56 C52 1_555 1_555
H57 C52 1_555 1_555
H58 C52 1_555 1_555
O4 S4 1_555 1_555
S4 C53 1_555 1_555
C53 H59 1_555 1_555
H60 C53 1_555 1_555
H61 C53 1_555 1_555
C54 S4 1_555 1_555
H62 C54 1_555 1_555
H63 C54 1_555 1_555
H64 C54 1_555 1_555
C4 N1 1_555 1_555
C4 N2 1_555 1_555
C9 C10 1_555 1_555
C11 N3 1_555 1_555
C17 N7 1_555 1_555
C23 N8 1_555 1_555
C27 N9 1_555 1_555
C27 N10 1_555 1_555
C32 C33 1_555 1_555
C34 N11 1_555 1_555
C40 N15 1_555 1_555
C46 N16 1_555 1_555
C48 S1 1_555 1_555
N3 N4 1_555 1_555
N5 N6 1_555 1_555
N11 N12 1_555 1_555
N13 N14 1_555 1_555

#END
