
#######################################################################
#
#                 Cambridge Crystallographic Data Centre
#                                CCDC 
#
#######################################################################
#
# If this CIF has been generated from an entry in the Cambridge 
# Structural Database, then it will include bibliographic, chemical, 
# crystal, experimental, refinement or atomic coordinate data resulting 
# from the CCDC's data processing and validation procedures.
#
#######################################################################

data_BAKKOQ
_chemical_formula_moiety         'C21 H15 Br1 O5'
_chemical_name_systematic        
3-benzoyl-6-bromo-4-(5-methyl-2-oxo-2,5-dihydrofuran-3-yl)chroman-2-one
_symmetry_cell_setting           monoclinic
_symmetry_space_group_name_H-M   'P 21/c'
_symmetry_Int_Tables_number      14
_space_group_name_Hall           '-P 2ybc'
loop_
_symmetry_equiv_pos_site_id
_symmetry_equiv_pos_as_xyz
1 x,y,z
2 -x,1/2+y,1/2-z
3 -x,-y,-z
4 x,1/2-y,1/2+z
_cell_length_a                   8.0753(9)
_cell_length_b                   24.060(3)
_cell_length_c                   9.5701(10)
_cell_angle_alpha                90
_cell_angle_beta                 96.738(5)
_cell_angle_gamma                90
_cell_volume                     1846.55
_exptl_crystal_colour            colorless
_exptl_crystal_description       prism
_cell_formula_units_Z            4
loop_
_atom_site_label
_atom_site_type_symbol
_atom_site_fract_x
_atom_site_fract_y
_atom_site_fract_z
C1 C 1.0277(9) 0.4384(3) -0.2497(7)
C2 C 0.9593(10) 0.4076(3) -0.3634(7)
H1 H 0.9750 0.4181 -0.4566
C3 C 0.8669(9) 0.3607(3) -0.3383(7)
H2 H 0.8181 0.3387 -0.4149
C4 C 0.8462(9) 0.3462(3) -0.2032(7)
C5 C 0.9105(9) 0.3771(2) -0.0882(7)
C6 C 1.0036(9) 0.4243(2) -0.1129(7)
H3 H 1.0503 0.4466 -0.0364
C7 C 0.8868(9) 0.3581(2) 0.0572(6)
H4 H 0.8826 0.3916 0.1183
C8 C 0.7162(9) 0.3276(3) 0.0507(7)
H5 H 0.7091 0.3088 0.1429
C9 C 0.6980(10) 0.2843(3) -0.0646(7)
C10 C 0.5713(10) 0.3690(3) 0.0238(7)
C11 C 0.5164(9) 0.4002(3) 0.1456(8)
C12 C 0.4127(10) 0.4460(3) 0.1142(9)
H6 H 0.3847 0.4577 0.0196
C13 C 0.3511(12) 0.4743(4) 0.2238(12)
H7 H 0.2818 0.5059 0.2034
C14 C 0.3882(12) 0.4576(4) 0.3597(10)
H8 H 0.3406 0.4762 0.4330
C15 C 0.4943(11) 0.4139(3) 0.3902(9)
H9 H 0.5242 0.4032 0.4854
C16 C 0.5576(11) 0.3857(3) 0.2851(8)
H10 H 0.6314 0.3554 0.3082
C17 C 1.0270(10) 0.3214(3) 0.1204(7)
C18 C 1.0485(12) 0.3081(3) 0.2705(8)
C19 C 1.273(2) 0.2689(5) 0.1743(12)
H11 H 1.3842 0.2873 0.1790
C20 C 1.286(2) 0.2073(5) 0.1420(15)
H12 H 1.3658 0.1898 0.2141
H13 H 1.3256 0.2026 0.0495
H14 H 1.1769 0.1897 0.1415
C21 C 1.1462(14) 0.2974(4) 0.0632(8)
H15 H 1.1547 0.2973 -0.0350
O1 O 0.7613(7) 0.29645(18) -0.1875(5)
O2 O 0.6302(8) 0.2407(2) -0.0570(6)
O3 O 0.5052(8) 0.3765(2) -0.0950(6)
O4 O 0.9668(8) 0.3230(3) 0.3603(5)
O5 O 1.1982(12) 0.2785(4) 0.3028(11)
Br1 Br 1.15652(12) 0.50234(3) -0.27958(9)
C22? C 1.188(3) 0.2437(10) 0.158(2)
H16? H 1.1283 0.2099 0.1170
C23? C 1.361(3) 0.2389(14) 0.164(3)
H17? H 1.3986 0.2062 0.2201
H18? H 1.4139 0.2723 0.2071
H19? H 1.3918 0.2347 0.0683
O6? O 1.132(3) 0.2600(9) 0.282(2)
loop_
_geom_bond_atom_site_label_1
_geom_bond_atom_site_label_2
_geom_bond_site_symmetry_1
_geom_bond_site_symmetry_2
C1 C2 1_555 1_555
C2 H1 1_555 1_555
C3 C2 1_555 1_555
H2 C3 1_555 1_555
C4 C3 1_555 1_555
C5 C4 1_555 1_555
C6 C1 1_555 1_555
H3 C6 1_555 1_555
C7 C5 1_555 1_555
H4 C7 1_555 1_555
C8 C7 1_555 1_555
H5 C8 1_555 1_555
C9 C8 1_555 1_555
C10 C8 1_555 1_555
C11 C10 1_555 1_555
C12 C11 1_555 1_555
H6 C12 1_555 1_555
C13 C12 1_555 1_555
H7 C13 1_555 1_555
C14 C13 1_555 1_555
H8 C14 1_555 1_555
C15 C14 1_555 1_555
H9 C15 1_555 1_555
C16 C11 1_555 1_555
H10 C16 1_555 1_555
C17 C7 1_555 1_555
C18 C17 1_555 1_555
C19 H11 1_555 1_555
C20 C19 1_555 1_555
H12 C20 1_555 1_555
H13 C20 1_555 1_555
H14 C20 1_555 1_555
C21 C17 1_555 1_555
H15 C21 1_555 1_555
O1 C4 1_555 1_555
O2 C9 1_555 1_555
O3 C10 1_555 1_555
O4 C18 1_555 1_555
O5 C18 1_555 1_555
Br1 C1 1_555 1_555
C5 C6 1_555 1_555
C9 O1 1_555 1_555
C15 C16 1_555 1_555
C19 C21 1_555 1_555
C19 O5 1_555 1_555

#END
