
#######################################################################
#
#                 Cambridge Crystallographic Data Centre
#                                CCDC 
#
#######################################################################
#
# If this CIF has been generated from an entry in the Cambridge 
# Structural Database, then it will include bibliographic, chemical, 
# crystal, experimental, refinement or atomic coordinate data resulting 
# from the CCDC's data processing and validation procedures.
#
#######################################################################

data_BAKLIL
_chemical_formula_moiety         'C25 H22 Br1 N1 O6'
_chemical_name_systematic        
't-butyl 3-(3-benzoyl-6-bromo-2-oxo-3,4-dihydro-2H-chromen-4-yl)-2-oxo-2,5-dihydro-1H-pyrrole-1-carboxylate'
_symmetry_cell_setting           monoclinic
_symmetry_space_group_name_H-M   'P 21/n'
_symmetry_Int_Tables_number      14
_space_group_name_Hall           '-P 2yn'
loop_
_symmetry_equiv_pos_site_id
_symmetry_equiv_pos_as_xyz
1 x,y,z
2 1/2-x,1/2+y,1/2-z
3 -x,-y,-z
4 1/2+x,1/2-y,1/2+z
_cell_length_a                   8.7160(8)
_cell_length_b                   9.5661(6)
_cell_length_c                   27.714(2)
_cell_angle_alpha                90
_cell_angle_beta                 93.510(4)
_cell_angle_gamma                90
_cell_volume                     2306.41
_exptl_crystal_colour            colorless
_exptl_crystal_description       prism
_cell_formula_units_Z            4
loop_
_atom_site_label
_atom_site_type_symbol
_atom_site_fract_x
_atom_site_fract_y
_atom_site_fract_z
C1 C 1.1646(8) 0.4863(7) 0.2375(2)
C2 C 1.2649(8) 0.4519(7) 0.2762(3)
H1 H 1.3502 0.3923 0.2718
C3 C 1.2398(8) 0.5049(7) 0.3208(3)
H2 H 1.3067 0.4817 0.3480
C4 C 1.1164(8) 0.5922(7) 0.3259(2)
C5 C 1.0161(8) 0.6310(7) 0.2872(2)
C6 C 1.0406(8) 0.5724(7) 0.2426(2)
H3 H 0.9716 0.5919 0.2156
C7 C 0.8874(8) 0.7329(7) 0.2963(2)
H4 H 0.9313 0.8294 0.2959
C8 C 0.8362(8) 0.7047(7) 0.3472(2)
H5 H 0.7886 0.6097 0.3479
C9 C 0.9729(9) 0.7105(8) 0.3851(3)
C10 C 0.7195(9) 0.8139(8) 0.3648(3)
C11 C 0.6109(8) 0.7691(8) 0.4015(2)
C12 C 0.5778(9) 0.6281(8) 0.4100(3)
H6 H 0.6262 0.5575 0.3923
C13 C 0.4759(10) 0.5912(10) 0.4438(3)
H7 H 0.4545 0.4952 0.4490
C14 C 0.4059(10) 0.6897(10) 0.4696(3)
H8 H 0.3355 0.6632 0.4928
C15 C 0.4373(10) 0.8295(11) 0.4619(3)
H9 H 0.3878 0.8979 0.4804
C16 C 0.5394(10) 0.8734(8) 0.4280(3)
H10 H 0.5597 0.9698 0.4231
C17 C 0.7564(8) 0.7269(7) 0.2585(2)
C18 C 0.6217(8) 0.6646(7) 0.2590(2)
H11 H 0.5866 0.6161 0.2861
C19 C 0.5310(8) 0.6787(7) 0.2121(2)
H12 H 0.5139 0.5869 0.1962
H13 H 0.4306 0.7242 0.2162
C20 C 0.7694(8) 0.7992(7) 0.2117(2)
C21 C 0.6065(9) 0.7994(7) 0.1355(3)
C22 C 0.4429(10) 0.7289(9) 0.0650(3)
C23 C 0.3013(18) 0.6318(14) 0.0607(5)
H14 H 0.2144 0.6777 0.0750
H15 H 0.3251 0.5441 0.0778
H16 H 0.2744 0.6120 0.0265
C24 C 0.4149(11) 0.8741(8) 0.0442(3)
H17 H 0.5114 0.9269 0.0461
H18 H 0.3388 0.9226 0.0628
H19 H 0.3763 0.8665 0.0104
C25 C 0.5741(12) 0.6537(9) 0.0424(3)
H20 H 0.6665 0.7123 0.0452
H21 H 0.5461 0.6353 0.0082
H22 H 0.5946 0.5650 0.0593
N1 N 0.6319(6) 0.7679(5) 0.18490(19)
O1 O 1.1049(6) 0.6497(5) 0.37201(17)
O2 O 0.9698(6) 0.7628(6) 0.42388(19)
O3 O 0.7230(6) 0.9334(5) 0.34901(18)
O4 O 0.8751(6) 0.8686(5) 0.19865(17)
O5 O 0.6875(7) 0.8730(5) 0.11368(19)
O6 O 0.4794(6) 0.7350(5) 0.11879(17)
Br1 Br 1.19777(9) 0.41096(9) 0.17576(3)
C26? C 0.2801 0.695(4) 0.0645
H23? H 0.2265 0.7678 0.0819
H24? H 0.2668 0.6047 0.0802
H25? H 0.2373 0.6907 0.0310
loop_
_geom_bond_atom_site_label_1
_geom_bond_atom_site_label_2
_geom_bond_site_symmetry_1
_geom_bond_site_symmetry_2
C1 C2 1_555 1_555
C2 H1 1_555 1_555
C3 C2 1_555 1_555
H2 C3 1_555 1_555
C4 C3 1_555 1_555
C5 C4 1_555 1_555
C6 C1 1_555 1_555
H3 C6 1_555 1_555
C7 C5 1_555 1_555
H4 C7 1_555 1_555
C8 C7 1_555 1_555
H5 C8 1_555 1_555
C9 C8 1_555 1_555
C10 C8 1_555 1_555
C11 C10 1_555 1_555
C12 C11 1_555 1_555
H6 C12 1_555 1_555
C13 C12 1_555 1_555
H7 C13 1_555 1_555
C14 C13 1_555 1_555
H8 C14 1_555 1_555
C15 C14 1_555 1_555
H9 C15 1_555 1_555
C16 C11 1_555 1_555
H10 C16 1_555 1_555
C17 C7 1_555 1_555
C18 C17 1_555 1_555
H11 C18 1_555 1_555
C19 C18 1_555 1_555
H12 C19 1_555 1_555
H13 C19 1_555 1_555
C20 C17 1_555 1_555
C21 N1 1_555 1_555
C22 C23 1_555 1_555
C23 H14 1_555 1_555
H15 C23 1_555 1_555
H16 C23 1_555 1_555
C24 C22 1_555 1_555
H17 C24 1_555 1_555
H18 C24 1_555 1_555
H19 C24 1_555 1_555
C25 C22 1_555 1_555
H20 C25 1_555 1_555
H21 C25 1_555 1_555
H22 C25 1_555 1_555
N1 C19 1_555 1_555
O1 C4 1_555 1_555
O2 C9 1_555 1_555
O3 C10 1_555 1_555
O4 C20 1_555 1_555
O5 C21 1_555 1_555
O6 C21 1_555 1_555
Br1 C1 1_555 1_555
C5 C6 1_555 1_555
C9 O1 1_555 1_555
C15 C16 1_555 1_555
C20 N1 1_555 1_555
C22 O6 1_555 1_555

#END
