
#######################################################################
#
#                 Cambridge Crystallographic Data Centre
#                                CCDC 
#
#######################################################################
#
# If this CIF has been generated from an entry in the Cambridge 
# Structural Database, then it will include bibliographic, chemical, 
# crystal, experimental, refinement or atomic coordinate data resulting 
# from the CCDC's data processing and validation procedures.
#
#######################################################################

data_BAKLUU
_chemical_name_common            
bis(3-O-Acetyl-5-deoxy-alpha-D-xylofuranose)-1,2':2,1'-dianhydride
_chemical_formula_moiety         'C14 H20 O8'
_chemical_name_systematic        
6,12-bis(Acetoxy)-5,11-dimethyl-2,4,8,10-tetraoxatricyclo(7.3.0.0^3,7^)dodecane
_symmetry_cell_setting           monoclinic
_symmetry_space_group_name_H-M   'P 21'
_symmetry_Int_Tables_number      4
_space_group_name_Hall           'P 2yb'
loop_
_symmetry_equiv_pos_site_id
_symmetry_equiv_pos_as_xyz
1 x,y,z
2 -x,1/2+y,-z
_cell_length_a                   12.543(6)
_cell_length_b                   11.117(6)
_cell_length_c                   11.293(6)
_cell_angle_alpha                90
_cell_angle_beta                 95.7(3)
_cell_angle_gamma                90
_cell_volume                     1566.92
_cell_formula_units_Z            4
loop_
_atom_site_label
_atom_site_type_symbol
_atom_site_fract_x
_atom_site_fract_y
_atom_site_fract_z
C1 C -0.07020 0.02530 0.57480
C2 C 0.04680 -0.01510 0.59610
C3 C 0.09310 0.05450 0.70490
C4 C 0.01550 0.15820 0.70610
C5 C 0.00800 0.22210 0.82450
C6 C 0.17090 -0.00620 0.89590
C7 C 0.16400 -0.09620 0.99230
O1 O -0.08660 0.09480 0.46720
O2 O 0.08840 -0.02070 0.80900
O3 O -0.08710 0.10380 0.66820
O4 O 0.23830 0.06820 0.89300
C8 C 0.06070 -0.01340 0.38810
C9 C -0.05690 0.02910 0.36720
C10 C -0.05460 0.12180 0.26720
C11 C 0.06230 0.15890 0.27960
C12 C 0.10630 0.21700 0.17400
C13 C -0.17470 0.05570 0.10150
C14 C -0.18050 -0.00220 -0.01710
O5 O 0.10760 0.02410 0.50330
O6 O -0.07340 0.06210 0.15290
O7 O 0.11720 0.04680 0.30580
O8 O -0.24800 0.09060 0.15230
H1 H -0.12700 -0.04700 0.57100
H2 H 0.05400 -0.09900 0.60900
H3 H 0.17500 0.08400 0.69800
H4 H 0.03500 0.21200 0.63900
H5 H -0.02500 0.18100 0.89400
H6 H 0.08800 0.24400 0.85700
H7 H -0.02500 0.29900 0.81200
H8 H 0.25200 -0.11500 1.02400
H9 H 0.13400 -0.05800 1.05200
H10 H 0.12800 -0.16300 0.96500
H11 H 0.06900 -0.10900 0.37600
H12 H -0.12300 -0.03500 0.34600
H13 H -0.10900 0.18900 0.27300
H14 H 0.08000 0.21300 0.36300
H15 H 0.09200 0.16200 0.09400
H16 H 0.19500 0.22700 0.19900
H17 H 0.07300 0.28900 0.16100
H18 H -0.10800 -0.01600 -0.04800
H19 H -0.22400 -0.07800 -0.01500
H20 H -0.22700 0.04800 -0.07800
C15 C 0.42150 0.25460 1.11250
C16 C 0.54110 0.29230 1.13070
C17 C 0.54400 0.38790 1.22900
C18 C 0.42820 0.42940 1.22000
C19 C 0.38900 0.49090 1.32560
C20 C 0.67470 0.31820 1.37980
C21 C 0.69130 0.26880 1.50300
O9 O 0.37450 0.29420 0.99760
O10 O 0.56860 0.33370 1.34500
O11 O 0.36850 0.31990 1.19600
O12 O 0.74280 0.34380 1.31830
C22 C 0.55010 0.28460 0.92250
C23 C 0.43120 0.24640 0.90500
C24 C 0.38580 0.31260 0.79350
C25 C 0.46480 0.41570 0.78910
C26 C 0.46990 0.47820 0.67080
C27 C 0.32070 0.24440 0.59900
C28 C 0.34370 0.16140 0.50100
O13 O 0.57100 0.35430 1.02880
O14 O 0.39610 0.23300 0.69340
O15 O 0.56660 0.35980 0.82760
O16 O 0.24630 0.31020 0.59750
H21 H 0.40900 0.16600 1.13000
H22 H 0.59500 0.21900 1.15900
H23 H 0.60600 0.45400 1.22100
H24 H 0.40900 0.48300 1.14100
H25 H 0.39200 0.43400 1.39700
H26 H 0.42800 0.55800 1.34300
H27 H 0.30600 0.51200 1.29700
H28 H 0.63900 0.26400 1.54900
H29 H 0.72400 0.19300 1.49400
H30 H 0.75500 0.30900 1.54500
H31 H 0.60600 0.21200 0.91700
H32 H 0.41600 0.16300 0.89500
H33 H 0.30700 0.34400 0.80300
H34 H 0.44500 0.46600 0.85300
H35 H 0.50600 0.41600 0.60800
H36 H 0.39200 0.50300 0.63600
H37 H 0.51700 0.55300 0.67800
H38 H 0.26600 0.13000 0.46000
H39 H 0.38200 0.20200 0.45000
H40 H 0.38200 0.09000 0.53700
loop_
_geom_bond_atom_site_label_1
_geom_bond_atom_site_label_2
_geom_bond_site_symmetry_1
_geom_bond_site_symmetry_2
C1 C2 1_555 1_555
C2 C3 1_555 1_555
C3 C4 1_555 1_555
C4 C5 1_555 1_555
C5 H5 1_555 1_555
C6 C7 1_555 1_555
C7 H8 1_555 1_555
O1 C1 1_555 1_555
O2 C3 1_555 1_555
O3 C1 1_555 1_555
O4 C6 1_555 1_555
C8 C9 1_555 1_555
C9 O1 1_555 1_555
C10 C9 1_555 1_555
C11 C10 1_555 1_555
C12 C11 1_555 1_555
C13 C14 1_555 1_555
C14 H18 1_555 1_555
O5 C2 1_555 1_555
O6 C10 1_555 1_555
O7 C8 1_555 1_555
O8 C13 1_555 1_555
C15 C16 1_555 1_555
C16 C17 1_555 1_555
C17 C18 1_555 1_555
C18 C19 1_555 1_555
C19 H25 1_555 1_555
C20 C21 1_555 1_555
C21 H28 1_555 1_555
O9 C15 1_555 1_555
O10 C17 1_555 1_555
O11 C15 1_555 1_555
O12 C20 1_555 1_555
C22 C23 1_555 1_555
C23 O9 1_555 1_555
C24 C23 1_555 1_555
C25 C24 1_555 1_555
C26 C25 1_555 1_555
C27 C28 1_555 1_555
C28 H38 1_555 1_555
O13 C16 1_555 1_555
O14 C24 1_555 1_555
O15 C22 1_555 1_555
O16 C27 1_555 1_555
H1 C1 1_555 1_555
H2 C2 1_555 1_555
H3 C3 1_555 1_555
H4 C4 1_555 1_555
H6 C5 1_555 1_555
H7 C5 1_555 1_555
H9 C7 1_555 1_555
H10 C7 1_555 1_555
H11 C8 1_555 1_555
H12 C9 1_555 1_555
H13 C10 1_555 1_555
H14 C11 1_555 1_555
H15 C12 1_555 1_555
H16 C12 1_555 1_555
H17 C12 1_555 1_555
H19 C14 1_555 1_555
H20 C14 1_555 1_555
H21 C15 1_555 1_555
H22 C16 1_555 1_555
H23 C17 1_555 1_555
H24 C18 1_555 1_555
H26 C19 1_555 1_555
H27 C19 1_555 1_555
H29 C21 1_555 1_555
H30 C21 1_555 1_555
H31 C22 1_555 1_555
H32 C23 1_555 1_555
H33 C24 1_555 1_555
H34 C25 1_555 1_555
H35 C26 1_555 1_555
H36 C26 1_555 1_555
H37 C26 1_555 1_555
H39 C28 1_555 1_555
H40 C28 1_555 1_555
C4 O3 1_555 1_555
C6 O2 1_555 1_555
C8 O5 1_555 1_555
C11 O7 1_555 1_555
C13 O6 1_555 1_555
C18 O11 1_555 1_555
C20 O10 1_555 1_555
C22 O13 1_555 1_555
C25 O15 1_555 1_555
C27 O14 1_555 1_555

#END
