
#######################################################################
#
#                 Cambridge Crystallographic Data Centre
#                                CCDC 
#
#######################################################################
#
# If this CIF has been generated from an entry in the Cambridge 
# Structural Database, then it will include bibliographic, chemical, 
# crystal, experimental, refinement or atomic coordinate data resulting 
# from the CCDC's data processing and validation procedures.
#
#######################################################################

data_BAKROW
_chemical_formula_moiety         'C47 H78 O18,5(H2 O1)'
_chemical_name_systematic        
"2-((2-((2',12-Dihydroxy-4a,4b,7,7,10a-pentamethyl-5'-(3-((3,4,5-trihydroxy-6-(hydroxymethyl)tetrahydro-2H-pyran-2-yl)oxy)butan-2-yl)-4,4',4a,4b,5,5',6,6a,7,8,9,10,10a,10b,11,12-hexadecahydro-3H-spiro[chrysene-2,3'-furan]-8-yl)oxy)-4,5-dihydroxytetrahydro-2H-pyran-3-yl)oxy)-6-methyltetrahydro-2H-pyran-3,4,5-triol pentahydrate"
_symmetry_cell_setting           monoclinic
_symmetry_space_group_name_H-M   'C 2'
_symmetry_Int_Tables_number      5
_space_group_name_Hall           'C 2y'
loop_
_symmetry_equiv_pos_site_id
_symmetry_equiv_pos_as_xyz
1 x,y,z
2 -x,y,-z
3 1/2+x,1/2+y,z
4 1/2-x,1/2+y,-z
_cell_length_a                   35.239
_cell_length_b                   6.589
_cell_length_c                   24.748
_cell_angle_alpha                90
_cell_angle_beta                 109.86
_cell_angle_gamma                90
_cell_volume                     5404.48
_exptl_crystal_colour            colorless
_exptl_crystal_description       needle
_cell_formula_units_Z            4
loop_
_atom_site_label
_atom_site_type_symbol
_atom_site_fract_x
_atom_site_fract_y
_atom_site_fract_z
C1 C 0.50863(14) 0.5225(10) 0.41402(19)
H1 H 0.5179 0.6508 0.4038
H2 H 0.5039 0.5417 0.4501
C2 C 0.46828(15) 0.4647(10) 0.36709(19)
H3 H 0.4578 0.3409 0.3779
H4 H 0.4486 0.5718 0.3631
C3 C 0.47555(14) 0.4338(9) 0.31022(19)
H5 H 0.4851 0.5631 0.2999
C4 C 0.50662(15) 0.2743(9) 0.31180(19)
C5 C 0.54592(14) 0.3224(8) 0.36305(17)
H6 H 0.5552 0.4518 0.3526
C6 C 0.58073(15) 0.1749(10) 0.3687(2)
H7 H 0.5812 0.1393 0.3309
H8 H 0.5770 0.0514 0.3877
C7 C 0.62062(15) 0.2769(9) 0.4040(2)
H9 H 0.6425 0.1824 0.4079
H10 H 0.6248 0.3938 0.3828
C8 C 0.62269(13) 0.3458(8) 0.46360(18)
C9 C 0.58313(12) 0.4600(8) 0.45991(17)
H11 H 0.5845 0.5887 0.4408
C10 C 0.54197(14) 0.3635(9) 0.42267(17)
C11 C 0.58533(14) 0.5210(9) 0.52150(18)
H12 H 0.5621 0.6042 0.5190
H13 H 0.5839 0.3992 0.5428
C12 C 0.62330(14) 0.6364(8) 0.55430(17)
H14 H 0.6205 0.7730 0.5378
C13 C 0.66142(13) 0.5480(7) 0.55018(18)
C14 C 0.65943(13) 0.4915(8) 0.48947(19)
C15 C 0.69919(14) 0.3882(10) 0.4914(2)
H15 H 0.6984 0.2464 0.5015
H16 H 0.7015 0.3939 0.4535
C16 C 0.73630(15) 0.4879(10) 0.5346(2)
H17 H 0.7605 0.4236 0.5323
H18 H 0.7371 0.6301 0.5249
C17 C 0.73579(15) 0.4699(8) 0.5956(2)
C18 C 0.69460(14) 0.5283(9) 0.59605(19)
H19 H 0.6921 0.5529 0.6317
C19 C 0.85604(15) 0.3130(10) 0.75199(19)
H20 H 0.8423 0.1837 0.7388
C20 C 0.83632(14) 0.4740(9) 0.7079(2)
H21 H 0.8446 0.4491 0.6745
C21 C 0.79084(15) 0.4601(9) 0.6876(2)
H22 H 0.7811 0.4920 0.7193
C22 C 0.76995(15) 0.5951(9) 0.6365(2)
H23 H 0.7888 0.6368 0.6177
H24 H 0.7593 0.7156 0.6488
C23 C 0.51647(18) 0.2956(12) 0.2560(2)
H25 H 0.4919 0.3128 0.2241
H26 H 0.5301 0.1757 0.2503
H27 H 0.5335 0.4116 0.2588
C24 C 0.49048(19) 0.0592(10) 0.3130(2)
H28 H 0.4783 0.0506 0.3422
H29 H 0.5123 -0.0361 0.3212
H30 H 0.4707 0.0283 0.2763
C25 C 0.53065(17) 0.1757(10) 0.4503(2)
H31 H 0.5385 0.1955 0.4910
H32 H 0.5443 0.0591 0.4425
H33 H 0.5020 0.1547 0.4346
C26 C 0.62791(16) 0.1576(8) 0.5026(2)
H34 H 0.6035 0.0796 0.4906
H35 H 0.6338 0.2004 0.5417
H36 H 0.6497 0.0759 0.4997
C27 C 0.65622(16) 0.6886(9) 0.4547(2)
H37 H 0.6328 0.7631 0.4545
H38 H 0.6540 0.6557 0.4159
H39 H 0.6799 0.7698 0.4719
C28 C 0.74718(17) 0.2547(11) 0.6181(3)
H40 H 0.7654 0.2430 0.5958
C29 C 0.90109(18) 0.2832(15) 0.7632(3)
H41 H 0.9158 0.3978 0.7839
H42 H 0.9056 0.2710 0.7272
H43 H 0.9102 0.1621 0.7854
C30 C 0.84963(17) 0.6863(10) 0.7287(2)
H44 H 0.8407 0.7185 0.7603
H45 H 0.8381 0.7809 0.6980
H46 H 0.8785 0.6944 0.7410
C31 C 0.41878(15) 0.5377(9) 0.22863(19)
H47 H 0.4388 0.6278 0.2217
C32 C 0.39188(15) 0.4500(9) 0.17238(19)
H48 H 0.3747 0.3451 0.1802
C33 C 0.36532(15) 0.6124(10) 0.13461(19)
H49 H 0.3823 0.7041 0.1215
C34 C 0.34409(16) 0.7347(11) 0.1678(2)
H50 H 0.3247 0.6477 0.1774
C35 C 0.37516(19) 0.8139(11) 0.2228(2)
H51 H 0.3942 0.9021 0.2136
H52 H 0.3619 0.8920 0.2444
C36 C 0.40130(16) 0.1959(9) 0.1070(2)
H53 H 0.3737 0.1721 0.1064
C37 C 0.39919(19) 0.2504(10) 0.0476(2)
H54 H 0.3899 0.3909 0.0395
C38 C 0.4402(2) 0.2292(13) 0.0403(2)
H55 H 0.4575 0.3386 0.0621
C39 C 0.46005(18) 0.0339(12) 0.0623(2)
H56 H 0.4438 -0.0775 0.0398
C40 C 0.46259(16) 0.0126(11) 0.1228(2)
H57 H 0.4785 0.1255 0.1450
C41 C 0.4819(2) -0.1865(11) 0.1498(3)
H58 H 0.4850 -0.1872 0.1899
H59 H 0.5079 -0.2000 0.1456
H60 H 0.4651 -0.2979 0.1310
C42 C 0.84750(18) 0.2155(10) 0.8398(2)
H61 H 0.8683 0.1144 0.8413
C43 C 0.8544(2) 0.2977(11) 0.8987(2)
H62 H 0.8351 0.4070 0.8964
C44 C 0.8490(2) 0.1292(11) 0.9385(2)
H63 H 0.8709 0.0312 0.9445
C45 C 0.80973(19) 0.0192(12) 0.9110(2)
H64 H 0.7876 0.1109 0.9101
C46 C 0.8040(2) -0.0449(12) 0.8501(2)
H65 H 0.8248 -0.1450 0.8511
C47 C 0.7629(3) -0.1386(18) 0.8195(3)
H66 H 0.7617 -0.1839 0.7817
H67 H 0.7595 -0.2566 0.8408
O1 O 0.62434(10) 0.6577(6) 0.61191(13)
H68 H 0.6017 0.6606 0.6150
O2 O 0.77859(11) 0.2556(6) 0.66676(15)
O3 O 0.73101(14) 0.0979(7) 0.5980(2)
O4 O 0.43830(9) 0.3837(6) 0.26553(13)
O5 O 0.41731(10) 0.3584(6) 0.14466(13)
O12 O 0.39595(11) 0.6473(7) 0.25621(13)
O13 O 0.32334(13) 0.9022(9) 0.13411(19)
H79 H 0.3065 0.8601 0.1044
O14 O 0.33652(10) 0.5178(7) 0.08523(14)
H80 H 0.3221 0.6051 0.0646
O15 O 0.42392(11) 0.0170(7) 0.12778(15)
O16 O 0.37052(15) 0.1168(8) 0.00777(17)
H81 H 0.3818 0.0538 -0.0110
O17 O 0.4345(2) 0.2591(11) -0.0198(2)
H82 H 0.4439 0.1620 -0.0317
O18 O 0.49926(15) 0.0301(11) 0.05714(19)
H83 H 0.5104 -0.0778 0.0696
O19 O 0.84924(12) 0.3708(7) 0.80393(14)
O20 O 0.80827(12) 0.1237(8) 0.81719(15)
O21 O 0.89404(14) 0.3758(9) 0.92097(15)
H84 H 0.8979 0.4230 0.9531
O22 O 0.85158(18) 0.2094(8) 0.99274(16)
H85 H 0.8311 0.1799 0.9998
O23 O 0.80860(13) -0.1495(8) 0.94544(17)
H86 H 0.7874 -0.2114 0.9308
O24 O 0.7323(2) -0.007(2) 0.8138(4)
H87 H 0.7350 0.0929 0.7957
O6 O 0.73968(19) 0.860(2) 0.9748(2)
H69 H 0.7465 0.7510 0.9558
H70 H 0.7467 0.9949 0.9744
O7 O 0.7182(3) 0.3758(18) 0.7625(5)
O8 O 0.63600(17) 0.3261(9) 0.6842(2)
H71 H 0.6254 0.3160 0.7094
H72 H 0.6371 0.2645 0.6558
O9 O 0.6742(2) -0.0286(9) 0.6627(3)
H73 H 0.6929 0.0061 0.6921
H74 H 0.6540 0.0426 0.6559
O10 O 0.9587(3) 0.1271(16) 0.9386(4)
H75 H 0.9537 0.0260 0.9182
H76 H 0.9781 0.1088 0.9679
O11 O 0.9308(5) 0.724(3) 0.8647(6)
H77 H 0.9428 0.8340 0.8652
H78 H 0.9158 0.7313 0.8855
H88? H 0.7573 -0.2327 0.8459
H89? H 0.7658 -0.3260 0.7684
H90? H 0.7433 -0.0298 0.8131
O25? O 0.7519(8) -0.225(4) 0.7671(8)
O26? O 0.7349(5) 0.376(4) 0.9098(6)
loop_
_geom_bond_atom_site_label_1
_geom_bond_atom_site_label_2
_geom_bond_site_symmetry_1
_geom_bond_site_symmetry_2
C1 H1 1_555 1_555
H2 C1 1_555 1_555
C2 C1 1_555 1_555
H3 C2 1_555 1_555
H4 C2 1_555 1_555
C3 C2 1_555 1_555
H5 C3 1_555 1_555
C4 C3 1_555 1_555
C5 C4 1_555 1_555
H6 C5 1_555 1_555
C6 C5 1_555 1_555
H7 C6 1_555 1_555
H8 C6 1_555 1_555
C7 C6 1_555 1_555
H9 C7 1_555 1_555
H10 C7 1_555 1_555
C8 C7 1_555 1_555
C9 C8 1_555 1_555
H11 C9 1_555 1_555
C10 C1 1_555 1_555
C11 C9 1_555 1_555
H12 C11 1_555 1_555
H13 C11 1_555 1_555
C12 C11 1_555 1_555
H14 C12 1_555 1_555
C13 C12 1_555 1_555
C14 C8 1_555 1_555
C15 C14 1_555 1_555
H15 C15 1_555 1_555
H16 C15 1_555 1_555
C16 C15 1_555 1_555
H17 C16 1_555 1_555
H18 C16 1_555 1_555
C17 C16 1_555 1_555
C18 C13 1_555 1_555
H19 C18 1_555 1_555
C19 H20 1_555 1_555
C20 C19 1_555 1_555
H21 C20 1_555 1_555
C21 C20 1_555 1_555
H22 C21 1_555 1_555
C22 C17 1_555 1_555
H23 C22 1_555 1_555
H24 C22 1_555 1_555
C23 C4 1_555 1_555
H25 C23 1_555 1_555
H26 C23 1_555 1_555
H27 C23 1_555 1_555
C24 C4 1_555 1_555
H28 C24 1_555 1_555
H29 C24 1_555 1_555
H30 C24 1_555 1_555
C25 C10 1_555 1_555
H31 C25 1_555 1_555
H32 C25 1_555 1_555
H33 C25 1_555 1_555
C26 C8 1_555 1_555
H34 C26 1_555 1_555
H35 C26 1_555 1_555
H36 C26 1_555 1_555
C27 C14 1_555 1_555
H37 C27 1_555 1_555
H38 C27 1_555 1_555
H39 C27 1_555 1_555
C28 C17 1_555 1_555
H40 C28 1_555 1_555
C29 C19 1_555 1_555
H41 C29 1_555 1_555
H42 C29 1_555 1_555
H43 C29 1_555 1_555
C30 C20 1_555 1_555
H44 C30 1_555 1_555
H45 C30 1_555 1_555
H46 C30 1_555 1_555
C31 H47 1_555 1_555
C32 C31 1_555 1_555
H48 C32 1_555 1_555
C33 C32 1_555 1_555
H49 C33 1_555 1_555
C34 C33 1_555 1_555
H50 C34 1_555 1_555
C35 C34 1_555 1_555
H51 C35 1_555 1_555
H52 C35 1_555 1_555
C36 H53 1_555 1_555
C37 C36 1_555 1_555
H54 C37 1_555 1_555
C38 C37 1_555 1_555
H55 C38 1_555 1_555
C39 C38 1_555 1_555
H56 C39 1_555 1_555
C40 C39 1_555 1_555
H57 C40 1_555 1_555
C41 C40 1_555 1_555
H58 C41 1_555 1_555
H59 C41 1_555 1_555
H60 C41 1_555 1_555
C42 H61 1_555 1_555
C43 C42 1_555 1_555
H62 C43 1_555 1_555
C44 C43 1_555 1_555
H63 C44 1_555 1_555
C45 C44 1_555 1_555
H64 C45 1_555 1_555
C46 C45 1_555 1_555
H65 C46 1_555 1_555
C47 C46 1_555 1_555
H66 C47 1_555 1_555
H67 C47 1_555 1_555
O1 C12 1_555 1_555
H68 O1 1_555 1_555
O2 C21 1_555 1_555
O3 C28 1_555 1_555
O4 C3 1_555 1_555
O5 C32 1_555 1_555
O6 H69 1_555 1_555
H70 O6 1_555 1_555
O8 H71 1_555 1_555
H72 O8 1_555 1_555
O9 H73 1_555 1_555
H74 O9 1_555 1_555
O10 H75 1_555 1_555
H76 O10 1_555 1_555
O11 H77 1_555 1_555
H78 O11 1_555 1_555
O12 C31 1_555 1_555
O13 C34 1_555 1_555
H79 O13 1_555 1_555
O14 C33 1_555 1_555
H80 O14 1_555 1_555
O15 C36 1_555 1_555
O16 C37 1_555 1_555
H81 O16 1_555 1_555
O17 C38 1_555 1_555
H82 O17 1_555 1_555
O18 C39 1_555 1_555
H83 O18 1_555 1_555
O19 C19 1_555 1_555
O20 C42 1_555 1_555
O21 C43 1_555 1_555
H84 O21 1_555 1_555
O22 C44 1_555 1_555
H85 O22 1_555 1_555
O23 C45 1_555 1_555
H86 O23 1_555 1_555
O24 C47 1_555 1_555
H87 O24 1_555 1_555
C5 C10 1_555 1_555
C9 C10 1_555 1_555
C13 C14 1_555 1_555
C17 C18 1_555 1_555
C21 C22 1_555 1_555
C28 O2 1_555 1_555
C31 O4 1_555 1_555
C35 O12 1_555 1_555
C36 O5 1_555 1_555
C40 O15 1_555 1_555
C42 O19 1_555 1_555
C46 O20 1_555 1_555

#END
