
#######################################################################
#
#                 Cambridge Crystallographic Data Centre
#                                CCDC 
#
#######################################################################
#
# If this CIF has been generated from an entry in the Cambridge 
# Structural Database, then it will include bibliographic, chemical, 
# crystal, experimental, refinement or atomic coordinate data resulting 
# from the CCDC's data processing and validation procedures.
#
#######################################################################

data_BAKVEP
_chemical_formula_moiety         'C22 H23 N1 O1'
_chemical_name_systematic        (S)-1-(\a-Piperidylbenzyl)-2-naphthol
_symmetry_cell_setting           orthorhombic
_symmetry_space_group_name_H-M   'P 21 21 21'
_symmetry_Int_Tables_number      19
_space_group_name_Hall           'P 2ac 2ab'
loop_
_symmetry_equiv_pos_site_id
_symmetry_equiv_pos_as_xyz
1 x,y,z
2 1/2-x,-y,1/2+z
3 -x,1/2+y,1/2-z
4 1/2+x,1/2-y,-z
_cell_length_a                   8.2880(10)
_cell_length_b                   10.860(2)
_cell_length_c                   19.172(4)
_cell_angle_alpha                90
_cell_angle_beta                 90
_cell_angle_gamma                90
_cell_volume                     1725.63
_exptl_crystal_colour            colorless
_exptl_crystal_description       prismatic
_chemical_melting_point          194-196deg.C
_cell_formula_units_Z            4
loop_
_atom_site_label
_atom_site_type_symbol
_atom_site_fract_x
_atom_site_fract_y
_atom_site_fract_z
C1 C 0.8188(3) 1.0153(2) 1.02461(12)
H1 H 0.7464 0.9508 1.0308
C2 C 0.8807(4) 1.0738(3) 1.08191(15)
H2 H 0.8498 1.0491 1.1264
C3 C 0.9904(5) 1.1708(3) 1.07376(18)
H3 H 1.0319 1.2103 1.1129
C4 C 1.0361(4) 1.2072(3) 1.00952(18)
H4 H 1.1085 1.2721 1.0050
C5 C 1.0268(3) 1.1832(2) 0.88157(17)
H5 H 1.0999 1.2475 0.8764
C6 C 0.9706(3) 1.1240(2) 0.82406(15)
H6 H 1.0064 1.1475 0.7801
C7 C 0.8589(3) 1.0275(2) 0.83059(13)
C8 C 0.8006(3) 0.9917(2) 0.89503(11)
C9 C 0.9763(3) 1.1487(2) 0.94890(15)
C10 C 0.8628(3) 1.0509(2) 0.95589(13)
C11 C 0.6752(3) 0.8901(2) 0.90263(10)
H7 H 0.6081 0.9099 0.9432
C12 C 0.7531(3) 0.7651(2) 0.91566(11)
C13 C 0.6983(4) 0.6908(2) 0.96908(13)
H8 H 0.6184 0.7196 0.9990
C14 C 0.7607(4) 0.5743(3) 0.97854(16)
H9 H 0.7216 0.5248 1.0143
C15 C 0.8796(4) 0.5311(3) 0.93558(16)
H10 H 0.9207 0.4522 0.9420
C16 C 0.9386(4) 0.6044(3) 0.88271(16)
H11 H 1.0198 0.5754 0.8536
C17 C 0.8763(3) 0.7215(2) 0.87314(13)
H12 H 0.9174 0.7715 0.8380
N1 N 0.5677(2) 0.88607(17) 0.84000(9)
C18 C 0.4599(3) 0.7782(2) 0.84054(13)
H13 H 0.3906 0.7818 0.8813
H14 H 0.5239 0.7036 0.8435
C19 C 0.3572(4) 0.7743(3) 0.77526(16)
H15 H 0.4264 0.7631 0.7350
H16 H 0.2846 0.7044 0.7778
C20 C 0.2597(4) 0.8907(3) 0.76610(18)
H17 H 0.1781 0.8957 0.8023
H18 H 0.2056 0.8892 0.7212
C21 C 0.3694(3) 1.0021(3) 0.77020(15)
H19 H 0.3049 1.0766 0.7691
H20 H 0.4408 1.0031 0.7301
C22 C 0.4688(3) 0.9991(2) 0.83676(14)
H21 H 0.5386 1.0707 0.8384
H22 H 0.3974 1.0022 0.8768
O1 O 0.8108(2) 0.97428(18) 0.76972(8)
H23 H 0.7362 0.9266 0.7775
loop_
_geom_bond_atom_site_label_1
_geom_bond_atom_site_label_2
_geom_bond_site_symmetry_1
_geom_bond_site_symmetry_2
C1 H1 1_555 1_555
C2 C1 1_555 1_555
H2 C2 1_555 1_555
C3 C2 1_555 1_555
H3 C3 1_555 1_555
C4 C3 1_555 1_555
H4 C4 1_555 1_555
C5 H5 1_555 1_555
C6 C5 1_555 1_555
H6 C6 1_555 1_555
C7 C6 1_555 1_555
C8 C7 1_555 1_555
C9 C4 1_555 1_555
C10 C1 1_555 1_555
C11 C8 1_555 1_555
H7 C11 1_555 1_555
C12 C11 1_555 1_555
C13 C12 1_555 1_555
H8 C13 1_555 1_555
C14 C13 1_555 1_555
H9 C14 1_555 1_555
C15 C14 1_555 1_555
H10 C15 1_555 1_555
C16 C15 1_555 1_555
H11 C16 1_555 1_555
C17 C12 1_555 1_555
H12 C17 1_555 1_555
N1 C11 1_555 1_555
C18 N1 1_555 1_555
H13 C18 1_555 1_555
H14 C18 1_555 1_555
C19 C18 1_555 1_555
H15 C19 1_555 1_555
H16 C19 1_555 1_555
C20 C19 1_555 1_555
H17 C20 1_555 1_555
H18 C20 1_555 1_555
C21 C20 1_555 1_555
H19 C21 1_555 1_555
H20 C21 1_555 1_555
C22 N1 1_555 1_555
H21 C22 1_555 1_555
H22 C22 1_555 1_555
O1 C7 1_555 1_555
H23 O1 1_555 1_555
C5 C9 1_555 1_555
C8 C10 1_555 1_555
C9 C10 1_555 1_555
C16 C17 1_555 1_555
C21 C22 1_555 1_555

#END
