
#######################################################################
#
#                 Cambridge Crystallographic Data Centre
#                                CCDC 
#
#######################################################################
#
# If this CIF has been generated from an entry in the Cambridge 
# Structural Database, then it will include bibliographic, chemical, 
# crystal, experimental, refinement or atomic coordinate data resulting 
# from the CCDC's data processing and validation procedures.
#
#######################################################################

data_BAKVUG
_chemical_formula_moiety         'C20 H32 Br1 N1 O5'
_chemical_name_systematic        
N-(4-Bromo-2-((2-isopropyl-5-methylcyclohexyl)oxy)-5-oxo-2,5-dihydrofuran-3-yl)leucine
_symmetry_cell_setting           orthorhombic
_symmetry_space_group_name_H-M   'P 21 21 21'
_symmetry_Int_Tables_number      19
_space_group_name_Hall           'P 2ac 2ab'
loop_
_symmetry_equiv_pos_site_id
_symmetry_equiv_pos_as_xyz
1 x,y,z
2 1/2-x,-y,1/2+z
3 -x,1/2+y,1/2-z
4 1/2+x,1/2-y,-z
_cell_length_a                   12.5249(16)
_cell_length_b                   19.005(3)
_cell_length_c                   19.719(3)
_cell_angle_alpha                90
_cell_angle_beta                 90
_cell_angle_gamma                90
_cell_volume                     4693.83
_exptl_crystal_colour            colorless
_exptl_crystal_description       block
_cell_formula_units_Z            8
loop_
_atom_site_label
_atom_site_type_symbol
_atom_site_fract_x
_atom_site_fract_y
_atom_site_fract_z
Br1 Br 0.69106(7) 0.25820(6) 0.17077(4)
C14 C 0.3774(8) 0.2184(6) 0.4107(4)
H22 H 0.4323 0.2367 0.4414
C15 C 0.2712(8) 0.2457(7) 0.4321(5)
H23 H 0.2193 0.2299 0.3982
C16 C 0.3844(9) 0.1392(6) 0.4089(5)
H24 H 0.4567 0.1254 0.3973
H25 H 0.3371 0.1214 0.3739
C17 C 0.3405(6) 0.3402(5) 0.2279(4)
H26 H 0.3383 0.3610 0.2734
C18 C 0.2631(7) 0.2801(5) 0.2264(4)
C20 C 0.2408(9) 0.2102(7) 0.4998(5)
H30 H 0.2889 0.2264 0.5351
H31 H 0.1690 0.2243 0.5123
C21 C 0.3019(8) 0.3963(5) 0.1769(5)
H32 H 0.3259 0.3828 0.1319
H33 H 0.2245 0.3961 0.1764
C25 C 0.2459(9) 0.1315(7) 0.4957(6)
H37 H 0.2270 0.1117 0.5394
H38 H 0.1943 0.1151 0.4626
C26 C 0.3544(10) 0.1065(7) 0.4761(6)
H39 H 0.4050 0.1235 0.5102
C27 C 0.6164(5) 0.2660(4) 0.2517(3)
C28 C 0.5160(6) 0.2919(5) 0.2588(3)
C29 C 0.4891(6) 0.2841(5) 0.3346(4)
H40 H 0.4740 0.3303 0.3545
C30 C 0.6567(6) 0.2433(5) 0.3150(3)
C33 C 0.2644(9) 0.3234(8) 0.4348(6)
H44 H 0.2895 0.3409 0.3908
C34 C 0.3322(10) 0.3597(7) 0.4893(6)
H45 H 0.3084 0.3452 0.5334
H46 H 0.3249 0.4098 0.4851
H47 H 0.4058 0.3469 0.4834
C35 C 0.1472(10) 0.3506(8) 0.4438(6)
H48 H 0.1264 0.3460 0.4905
H49 H 0.1000 0.3233 0.4160
H50 H 0.1434 0.3991 0.4306
C36 C 0.3651(11) 0.0252(7) 0.4723(6)
H51 H 0.3421 0.0048 0.5144
H52 H 0.4384 0.0129 0.4641
H53 H 0.3216 0.0076 0.4360
C38 C 0.3391(9) 0.4705(6) 0.1904(6)
H54 H 0.4166 0.4709 0.1972
C39 C 0.3102(10) 0.5162(7) 0.1282(6)
H55 H 0.3492 0.4999 0.0893
H56 H 0.3286 0.5644 0.1372
H57 H 0.2350 0.5128 0.1195
C40 C 0.2833(10) 0.4998(6) 0.2541(6)
H58 H 0.2076 0.4930 0.2502
H59 H 0.2983 0.5491 0.2583
H60 H 0.3091 0.4755 0.2936
N2 N 0.4503(4) 0.3189(3) 0.2142(3)
H62 H 0.4737 0.3246 0.1736
O2 O 0.1780(4) 0.2945(3) 0.2639(3)
H63 H 0.1272 0.2710 0.2507
O4 O 0.7428(4) 0.2172(4) 0.3308(3)
O5 O 0.5823(4) 0.2548(3) 0.3640(2)
O6 O 0.4017(3) 0.2411(3) 0.3403(2)
O10 O 0.2752(4) 0.2272(3) 0.1940(3)
Br2 Br 0.35936(7) 0.38743(7) 0.93140(5)
C1 C 0.5019(5) 0.3653(4) 0.9483(4)
C2 C 0.6831(5) 0.3367(5) 0.9466(3)
H1 H 0.7118 0.2921 0.9296
C3 C 0.5846(5) 0.3591(4) 0.9056(4)
C4 C 0.8848(6) 0.3490(5) 1.0276(4)
H2 H 0.8434 0.3073 1.0382
H3 H 0.8594 0.3870 1.0562
C5 C 0.8677(6) 0.3684(5) 0.9546(4)
H4 H 0.8853 0.3279 0.9259
C6 C 0.9341(6) 0.4309(5) 0.9328(5)
H5 H 0.9117 0.4701 0.9618
C7 C 0.7081(10) 0.5529(7) 0.7258(6)
H6 H 0.6680 0.5645 0.6858
H7 H 0.7664 0.5225 0.7138
H8 H 0.7356 0.5953 0.7458
C8 C 1.0671(6) 0.3992(5) 1.0237(4)
H9 H 1.0447 0.4389 1.0512
H10 H 1.1421 0.3907 1.0327
C9 C 1.0031(6) 0.3348(6) 1.0436(4)
H11 H 1.0274 0.2947 1.0165
C10 C 1.0151(7) 0.3169(6) 1.1188(4)
H12 H 1.0849 0.2977 1.1268
H13 H 0.9619 0.2830 1.1315
H14 H 1.0062 0.3588 1.1454
C11 C 0.9128(7) 0.4546(5) 0.8600(5)
H15 H 0.8353 0.4551 0.8532
C12 C 0.9616(8) 0.4041(6) 0.8067(5)
H16 H 1.0376 0.4019 0.8128
H17 H 0.9458 0.4210 0.7620
H18 H 0.9318 0.3579 0.8124
C13 C 0.9540(8) 0.5306(6) 0.8496(5)
H19 H 0.9247 0.5606 0.8841
H20 H 0.9324 0.5473 0.8058
H21 H 1.0305 0.5311 0.8526
C19 C 0.5515(10) 0.5623(7) 0.8052(6)
H27 H 0.5026 0.5753 0.7698
H28 H 0.5844 0.6039 0.8233
H29 H 0.5134 0.5384 0.8406
C22 C 0.5262(6) 0.4021(5) 0.7917(4)
H34 H 0.4723 0.4286 0.8172
C23 C 0.5838(8) 0.4516(6) 0.7441(5)
H35 H 0.5333 0.4679 0.7102
H36 H 0.6389 0.4253 0.7206
C24 C 0.4717(7) 0.3454(6) 0.7515(4)
C31 C 1.0527(6) 0.4169(5) 0.9504(4)
H41 H 1.0789 0.3782 0.9229
H42 H 1.0946 0.4583 0.9396
C32 C 0.6349(9) 0.5151(6) 0.7771(6)
H43 H 0.6792 0.4986 0.8148
C37 C 0.5347(6) 0.3449(5) 1.0147(4)
N1 N 0.6018(4) 0.3715(3) 0.8390(3)
H61 H 0.6634 0.3602 0.8231
O1 O 0.6399(4) 0.3282(3) 1.0143(2)
O3 O 0.7579(3) 0.3889(3) 0.9424(2)
O7 O 0.4820(4) 0.3396(4) 1.0661(3)
O8 O 0.3757(5) 0.3639(4) 0.7341(4)
H64 H 0.3435 0.3295 0.7195
O9 O 0.5080(5) 0.2897(4) 0.7367(3)
loop_
_geom_bond_atom_site_label_1
_geom_bond_atom_site_label_2
_geom_bond_site_symmetry_1
_geom_bond_site_symmetry_2
Br1 C27 1_555 1_555
Br2 C1 1_555 1_555
C1 C3 1_555 1_555
C2 H1 1_555 1_555
C3 C2 1_555 1_555
C4 H2 1_555 1_555
H3 C4 1_555 1_555
C5 C4 1_555 1_555
H4 C5 1_555 1_555
C6 C5 1_555 1_555
H5 C6 1_555 1_555
C7 H6 1_555 1_555
H7 C7 1_555 1_555
H8 C7 1_555 1_555
C8 H9 1_555 1_555
H10 C8 1_555 1_555
C9 C4 1_555 1_555
H11 C9 1_555 1_555
C10 C9 1_555 1_555
H12 C10 1_555 1_555
H13 C10 1_555 1_555
H14 C10 1_555 1_555
C11 C6 1_555 1_555
H15 C11 1_555 1_555
C12 C11 1_555 1_555
H16 C12 1_555 1_555
H17 C12 1_555 1_555
H18 C12 1_555 1_555
C13 C11 1_555 1_555
H19 C13 1_555 1_555
H20 C13 1_555 1_555
H21 C13 1_555 1_555
C14 H22 1_555 1_555
C15 C14 1_555 1_555
H23 C15 1_555 1_555
C16 C14 1_555 1_555
H24 C16 1_555 1_555
H25 C16 1_555 1_555
C17 H26 1_555 1_555
C18 C17 1_555 1_555
C19 H27 1_555 1_555
H28 C19 1_555 1_555
H29 C19 1_555 1_555
C20 C15 1_555 1_555
H30 C20 1_555 1_555
H31 C20 1_555 1_555
C21 C17 1_555 1_555
H32 C21 1_555 1_555
H33 C21 1_555 1_555
C22 H34 1_555 1_555
C23 C22 1_555 1_555
H35 C23 1_555 1_555
H36 C23 1_555 1_555
C24 C22 1_555 1_555
C25 C20 1_555 1_555
H37 C25 1_555 1_555
H38 C25 1_555 1_555
C26 C16 1_555 1_555
H39 C26 1_555 1_555
C27 C28 1_555 1_555
C28 C29 1_555 1_555
C29 H40 1_555 1_555
C30 C27 1_555 1_555
C31 C6 1_555 1_555
H41 C31 1_555 1_555
H42 C31 1_555 1_555
C32 C7 1_555 1_555
H43 C32 1_555 1_555
C33 C15 1_555 1_555
H44 C33 1_555 1_555
C34 C33 1_555 1_555
H45 C34 1_555 1_555
H46 C34 1_555 1_555
H47 C34 1_555 1_555
C35 C33 1_555 1_555
H48 C35 1_555 1_555
H49 C35 1_555 1_555
H50 C35 1_555 1_555
C36 C26 1_555 1_555
H51 C36 1_555 1_555
H52 C36 1_555 1_555
H53 C36 1_555 1_555
C37 C1 1_555 1_555
C38 C21 1_555 1_555
H54 C38 1_555 1_555
C39 C38 1_555 1_555
H55 C39 1_555 1_555
H56 C39 1_555 1_555
H57 C39 1_555 1_555
C40 C38 1_555 1_555
H58 C40 1_555 1_555
H59 C40 1_555 1_555
H60 C40 1_555 1_555
N1 C3 1_555 1_555
H61 N1 1_555 1_555
N2 C17 1_555 1_555
H62 N2 1_555 1_555
O1 C2 1_555 1_555
O2 C18 1_555 1_555
H63 O2 1_555 1_555
O3 C2 1_555 1_555
O4 C30 1_555 1_555
O5 C29 1_555 1_555
O6 C14 1_555 1_555
O7 C37 1_555 1_555
O8 C24 1_555 1_555
H64 O8 1_555 1_555
O9 C24 1_555 1_555
O10 C18 1_555 1_555
C5 O3 1_555 1_555
C8 C9 1_555 1_555
C8 C31 1_555 1_555
C19 C32 1_555 1_555
C22 N1 1_555 1_555
C23 C32 1_555 1_555
C25 C26 1_555 1_555
C28 N2 1_555 1_555
C29 O6 1_555 1_555
C30 O5 1_555 1_555
C37 O1 1_555 1_555

#END
