
#######################################################################
#
#                 Cambridge Crystallographic Data Centre
#                                CCDC 
#
#######################################################################
#
# If this CIF has been generated from an entry in the Cambridge 
# Structural Database, then it will include bibliographic, chemical, 
# crystal, experimental, refinement or atomic coordinate data resulting 
# from the CCDC's data processing and validation procedures.
#
#######################################################################

data_BAKVEQ
_chemical_formula_moiety         'C21 H30 O4'
_chemical_name_systematic        12,15-Dihydroxypregn-4-ene-3,20-dione
_symmetry_cell_setting           orthorhombic
_symmetry_space_group_name_H-M   'P 21 21 21'
_symmetry_Int_Tables_number      19
_space_group_name_Hall           'P 2ac 2ab'
loop_
_symmetry_equiv_pos_site_id
_symmetry_equiv_pos_as_xyz
1 x,y,z
2 1/2+x,1/2-y,-z
3 -x,1/2+y,1/2-z
4 1/2-x,-y,1/2+z
_cell_length_a                   8.0671(9)
_cell_length_b                   12.3970(15)
_cell_length_c                   18.532(3)
_cell_angle_alpha                90
_cell_angle_beta                 90
_cell_angle_gamma                90
_cell_volume                     1853.35
_exptl_crystal_colour            colorless
_exptl_crystal_description       prism
_cell_formula_units_Z            4
loop_
_atom_site_label
_atom_site_type_symbol
_atom_site_fract_x
_atom_site_fract_y
_atom_site_fract_z
O1 O 0.15459(17) -0.24126(9) 0.84052(7)
O2 O 0.58691(12) 0.39906(9) 0.89173(6)
O3 O -0.13096(13) 0.39877(9) 0.97715(5)
O4 O 0.51716(15) 0.60200(10) 0.93821(7)
C1 C 0.37326(19) 0.01178(11) 0.83132(8)
H1 H 0.4807 0.0383 0.8125
H2 H 0.3811 0.0099 0.8846
C2 C 0.3448(2) -0.10336(12) 0.80360(9)
H3 H 0.3514 -0.1038 0.7503
H4 H 0.4330 -0.1512 0.8224
C3 C 0.1790(2) -0.14554(12) 0.82673(8)
C4 C 0.0441(2) -0.06650(12) 0.82919(8)
H5 H -0.0650 -0.0919 0.8383
C5 C 0.06602(18) 0.04026(11) 0.81927(7)
C6 C -0.08070(17) 0.11436(11) 0.81662(7)
H6 H -0.1822 0.0731 0.8285
H7 H -0.0930 0.1429 0.7670
C7 C -0.06354(18) 0.20874(11) 0.86931(7)
H8 H -0.1581 0.2588 0.8630
H9 H -0.0662 0.1812 0.9195
C8 C 0.09828(16) 0.26919(10) 0.85651(7)
H10 H 0.0954 0.3027 0.8074
C9 C 0.24768(17) 0.19171(10) 0.86105(7)
H11 H 0.2463 0.1619 0.9112
C10 C 0.23655(18) 0.09196(11) 0.80967(7)
C11 C 0.41352(17) 0.25267(11) 0.85375(8)
H12 H 0.5057 0.2016 0.8624
H13 H 0.4242 0.2798 0.8037
C12 C 0.42997(17) 0.34775(11) 0.90610(7)
H14 H 0.4328 0.3185 0.9564
C13 C 0.28323(16) 0.42507(10) 0.90019(7)
C14 C 0.12565(16) 0.35770(10) 0.91282(6)
H15 H 0.1433 0.3194 0.9597
C15 C -0.01270(17) 0.43957(11) 0.92682(7)
H16 H -0.0687 0.4592 0.8805
C16 C 0.07790(17) 0.53923(11) 0.95867(8)
H17 H 0.0621 0.6030 0.9272
H18 H 0.0347 0.5563 1.0073
C17 C 0.26373(18) 0.50811(11) 0.96260(7)
H19 H 0.2784 0.4668 1.0085
C18 C 0.38125(19) 0.60306(12) 0.96668(8)
C19 C 0.3262(2) 0.69919(12) 1.01019(10)
H20 H 0.2642 0.7489 0.9791
H21 H 0.4236 0.7362 1.0299
H22 H 0.2550 0.6751 1.0499
C20 C 0.2551(2) 0.12409(11) 0.72934(7)
H23 H 0.1676 0.1754 0.7163
H24 H 0.2458 0.0596 0.6990
H25 H 0.3637 0.1577 0.7218
C21 C 0.28031(18) 0.48401(11) 0.82702(7)
H26 H 0.2808 0.4309 0.7878
H27 H 0.3783 0.5303 0.8229
H28 H 0.1800 0.5283 0.8237
H29 H -0.220(3) 0.3898(17) 0.9506(12)
H30 H 0.577(3) 0.464(2) 0.9096(13)
loop_
_geom_bond_atom_site_label_1
_geom_bond_atom_site_label_2
_geom_bond_site_symmetry_1
_geom_bond_site_symmetry_2
O1 C3 1_555 1_555
O2 C12 1_555 1_555
O3 C15 1_555 1_555
O4 C18 1_555 1_555
C1 H1 1_555 1_555
H2 C1 1_555 1_555
C2 C1 1_555 1_555
H3 C2 1_555 1_555
H4 C2 1_555 1_555
C3 C2 1_555 1_555
C4 C3 1_555 1_555
H5 C4 1_555 1_555
C5 C4 1_555 1_555
C6 C5 1_555 1_555
H6 C6 1_555 1_555
H7 C6 1_555 1_555
C7 C6 1_555 1_555
H8 C7 1_555 1_555
H9 C7 1_555 1_555
C8 C7 1_555 1_555
H10 C8 1_555 1_555
C9 C8 1_555 1_555
H11 C9 1_555 1_555
C10 C1 1_555 1_555
C11 C9 1_555 1_555
H12 C11 1_555 1_555
H13 C11 1_555 1_555
C12 C11 1_555 1_555
H14 C12 1_555 1_555
C13 C12 1_555 1_555
C14 C8 1_555 1_555
H15 C14 1_555 1_555
C15 C14 1_555 1_555
H16 C15 1_555 1_555
C16 C15 1_555 1_555
H17 C16 1_555 1_555
H18 C16 1_555 1_555
C17 C13 1_555 1_555
H19 C17 1_555 1_555
C18 C17 1_555 1_555
C19 C18 1_555 1_555
H20 C19 1_555 1_555
H21 C19 1_555 1_555
H22 C19 1_555 1_555
C20 C10 1_555 1_555
H23 C20 1_555 1_555
H24 C20 1_555 1_555
H25 C20 1_555 1_555
C21 C13 1_555 1_555
H26 C21 1_555 1_555
H27 C21 1_555 1_555
H28 C21 1_555 1_555
H29 O3 1_555 1_555
H30 O2 1_555 1_555
C5 C10 1_555 1_555
C9 C10 1_555 1_555
C13 C14 1_555 1_555
C16 C17 1_555 1_555

#END
