
#######################################################################
#
#                 Cambridge Crystallographic Data Centre
#                                CCDC 
#
#######################################################################
#
# If this CIF has been generated from an entry in the Cambridge 
# Structural Database, then it will include bibliographic, chemical, 
# crystal, experimental, refinement or atomic coordinate data resulting 
# from the CCDC's data processing and validation procedures.
#
#######################################################################

data_BAKWOB
_chemical_formula_moiety         'C17 H18 O6'
_chemical_name_systematic        
'Ethyl 3-(4-methoxyphenyl)-4-oxo-3,3a,4,6-tetrahydro-1H-furo[3,4-c]pyran-3a-carboxylate'
_symmetry_cell_setting           monoclinic
_symmetry_space_group_name_H-M   'P 21/n'
_symmetry_Int_Tables_number      14
_space_group_name_Hall           '-P 2yn'
loop_
_symmetry_equiv_pos_site_id
_symmetry_equiv_pos_as_xyz
1 x,y,z
2 1/2-x,1/2+y,1/2-z
3 -x,-y,-z
4 1/2+x,1/2-y,1/2+z
_cell_length_a                   10.124(4)
_cell_length_b                   11.754(4)
_cell_length_c                   13.792(5)
_cell_angle_alpha                90
_cell_angle_beta                 111.533(3)
_cell_angle_gamma                90
_cell_volume                     1526.67
_exptl_crystal_colour            colorless
_exptl_crystal_description       block
_cell_formula_units_Z            4
loop_
_atom_site_label
_atom_site_type_symbol
_atom_site_fract_x
_atom_site_fract_y
_atom_site_fract_z
C1 C -0.0628(3) 0.8288(3) 0.4469(3)
H1 H -0.1582 0.8284 0.4456
H2 H 0.0022 0.8423 0.5168
H3 H -0.0421 0.7567 0.4231
C2 C 0.0816(3) 0.9293(2) 0.37275(19)
C3 C 0.1029(3) 1.0308(2) 0.3304(2)
H4 H 0.0305 1.0846 0.3086
C4 C 0.2307(3) 1.05283(18) 0.32002(18)
H5 H 0.2442 1.1219 0.2920
C5 C 0.3396(2) 0.97345(17) 0.35086(16)
C6 C 0.3155(3) 0.8711(2) 0.39074(19)
H6 H 0.3869 0.8165 0.4107
C7 C 0.1880(3) 0.8482(2) 0.4016(2)
H7 H 0.1737 0.7786 0.4282
C8 C 0.4798(2) 0.99679(18) 0.34230(16)
H8 H 0.5548 0.9652 0.4038
C9 C 0.6093(3) 1.1400(2) 0.3026(2)
H9 H 0.7006 1.1447 0.3596
H10 H 0.5915 1.2112 0.2644
C10 C 0.6068(2) 1.04244(19) 0.23232(18)
C11 C 0.6832(3) 1.0189(2) 0.1756(2)
H11 H 0.7826 1.0264 0.2198
C12 C 0.6638(4) 0.9062(2) 0.1247(2)
H13 H 0.5837 0.9096 0.0590
H14 H 0.7477 0.8880 0.1095
C13 C 0.5715(2) 0.83816(18) 0.25347(17)
C14 C 0.5046(2) 0.95484(16) 0.24258(15)
C15 C 0.3642(2) 0.95674(16) 0.14802(15)
C16 C 0.1649(3) 0.8447(2) 0.0481(2)
H15 H 0.1502 0.7667 0.0233
H16 H 0.1605 0.8931 -0.0100
C17 C 0.0510(3) 0.8776(2) 0.0860(2)
H17 H -0.0396 0.8701 0.0303
H18 H 0.0646 0.9551 0.1095
H19 H 0.0542 0.8288 0.1426
O1 O -0.0486(2) 0.9156(2) 0.38109(18)
O2 O 0.49996(19) 1.11664(14) 0.34062(14)
O3 O 0.6397(2) 0.81610(14) 0.18861(15)
O4 O 0.5698(2) 0.76707(14) 0.31504(14)
O5 O 0.31733(18) 1.04070(14) 0.09840(14)
O6 O 0.30490(16) 0.85499(12) 0.13042(12)
H12? H 0.6632 1.0764 0.1216
loop_
_geom_bond_atom_site_label_1
_geom_bond_atom_site_label_2
_geom_bond_site_symmetry_1
_geom_bond_site_symmetry_2
C1 H1 1_555 1_555
H2 C1 1_555 1_555
H3 C1 1_555 1_555
C2 C3 1_555 1_555
C3 H4 1_555 1_555
C4 C3 1_555 1_555
H5 C4 1_555 1_555
C5 C4 1_555 1_555
C6 C5 1_555 1_555
H6 C6 1_555 1_555
C7 C2 1_555 1_555
H7 C7 1_555 1_555
C8 C5 1_555 1_555
H8 C8 1_555 1_555
C9 H9 1_555 1_555
H10 C9 1_555 1_555
C10 C9 1_555 1_555
C11 C10 1_555 1_555
H11 C11 1_555 1_555
C12 C11 1_555 1_555
H13 C12 1_555 1_555
H14 C12 1_555 1_555
C13 C14 1_555 1_555
C14 C8 1_555 1_555
C15 C14 1_555 1_555
C16 H15 1_555 1_555
H16 C16 1_555 1_555
C17 C16 1_555 1_555
H17 C17 1_555 1_555
H18 C17 1_555 1_555
H19 C17 1_555 1_555
O1 C1 1_555 1_555
O2 C8 1_555 1_555
O3 C12 1_555 1_555
O4 C13 1_555 1_555
O5 C15 1_555 1_555
O6 C15 1_555 1_555
C2 O1 1_555 1_555
C6 C7 1_555 1_555
C9 O2 1_555 1_555
C10 C14 1_555 1_555
C13 O3 1_555 1_555
C16 O6 1_555 1_555

#END
