
#######################################################################
#
#                 Cambridge Crystallographic Data Centre
#                                CCDC 
#
#######################################################################
#
# If this CIF has been generated from an entry in the Cambridge 
# Structural Database, then it will include bibliographic, chemical, 
# crystal, experimental, refinement or atomic coordinate data resulting 
# from the CCDC's data processing and validation procedures.
#
#######################################################################

data_BAKYES
_chemical_formula_moiety         'C4 H12 N2 2+,2(C7 H5 O3 1-)'
_chemical_name_systematic        'Piperazine-1,4-diium bis(salicylate)'
_symmetry_cell_setting           monoclinic
_symmetry_space_group_name_H-M   'P 21/n'
_symmetry_Int_Tables_number      14
_space_group_name_Hall           '-P 2yn'
loop_
_symmetry_equiv_pos_site_id
_symmetry_equiv_pos_as_xyz
1 x,y,z
2 1/2-x,1/2+y,1/2-z
3 -x,-y,-z
4 1/2+x,1/2-y,1/2+z
_cell_length_a                   6.2440(10)
_cell_length_b                   14.669(2)
_cell_length_c                   9.2800(10)
_cell_angle_alpha                90
_cell_angle_beta                 92.860(10)
_cell_angle_gamma                90
_cell_volume                     848.927
_exptl_crystal_colour            colorless
_exptl_crystal_description       prism
_chemical_melting_point          180.5deg.C
_cell_formula_units_Z            2
loop_
_atom_site_label
_atom_site_type_symbol
_atom_site_fract_x
_atom_site_fract_y
_atom_site_fract_z
O1 O 0.26560(18) 0.41693(9) 0.39963(12)
H1 H 0.3229 0.4357 0.4753
O2 O 0.30430(16) 0.44612(9) 0.66955(11)
O3 O 0.02250(17) 0.43328(8) 0.80497(11)
C1 C 0.0788(2) 0.37569(10) 0.42703(16)
C2 C -0.0329(3) 0.33205(12) 0.31358(17)
H2 H 0.0230 0.3315 0.2226
C3 C -0.2246(3) 0.28994(12) 0.33443(19)
H3 H -0.2980 0.2612 0.2575
C4 C -0.3102(3) 0.28984(12) 0.4695(2)
H4 H -0.4403 0.2612 0.4836
C5 C -0.2004(2) 0.33259(11) 0.58229(18)
H5 H -0.2578 0.3323 0.6729
C6 C -0.0053(2) 0.37634(10) 0.56458(15)
C7 C 0.1123(2) 0.42213(10) 0.68943(16)
N1 N 0.61451(19) 0.48023(9) 0.87389(13)
H6 H 0.7387 0.4740 0.8297
H7 H 0.5064 0.4681 0.8089
C8 C 0.5946(2) 0.57524(10) 0.92629(16)
H8 H 0.7168 0.5901 0.9905
H9 H 0.5931 0.6170 0.8452
C9 C 0.6088(2) 0.41429(11) 0.99504(16)
H10 H 0.7313 0.4244 1.0615
H11 H 0.6180 0.3527 0.9579
C9B C 0.3912(2) 0.58571(11) 1.00496(16)
N1B N 0.38549(19) 0.51977(9) 1.12611(13)
H6B H 0.2613 0.5260 1.1703
H7B H 0.4936 0.5319 1.1911
C8B C 0.4054(2) 0.42476(10) 1.07371(16)
H8B H 0.2832 0.4099 1.0095
H9B H 0.4069 0.3830 1.1548
H10B H 0.2687 0.5756 0.9385
H11B H 0.3820 0.6473 1.0421
loop_
_geom_bond_atom_site_label_1
_geom_bond_atom_site_label_2
_geom_bond_site_symmetry_1
_geom_bond_site_symmetry_2
O1 H1 1_555 1_555
O2 C7 1_555 1_555
O3 C7 1_555 1_555
C1 O1 1_555 1_555
C2 C1 1_555 1_555
H2 C2 1_555 1_555
C3 C2 1_555 1_555
H3 C3 1_555 1_555
C4 C3 1_555 1_555
H4 C4 1_555 1_555
C5 C4 1_555 1_555
H5 C5 1_555 1_555
C6 C1 1_555 1_555
C7 C6 1_555 1_555
N1 H6 1_555 1_555
H7 N1 1_555 1_555
C8 N1 1_555 1_555
H8 C8 1_555 1_555
H9 C8 1_555 1_555
C9 N1 1_555 1_555
H10 C9 1_555 1_555
H11 C9 1_555 1_555
C9B C8 1_555 1_555
N1B C9B 1_555 1_555
H6B N1B 1_555 1_555
H7B N1B 1_555 1_555
C8B C9 1_555 1_555
H8B C8B 1_555 1_555
H9B C8B 1_555 1_555
H10B C9B 1_555 1_555
H11B C9B 1_555 1_555
C5 C6 1_555 1_555
N1B C8B 1_555 1_555

#END
