
#######################################################################
#
#                 Cambridge Crystallographic Data Centre
#                                CCDC 
#
#######################################################################
#
# If this CIF has been generated from an entry in the Cambridge 
# Structural Database, then it will include bibliographic, chemical, 
# crystal, experimental, refinement or atomic coordinate data resulting 
# from the CCDC's data processing and validation procedures.
#
#######################################################################

data_BAKZUJ
_chemical_formula_moiety         'C8 H13 I1 O2'
_chemical_name_systematic        
(3\a,4\a,6\a)-4-Iodomethyl-3,6-dimethyltetrahydro-2H-pyran-2-one
_symmetry_cell_setting           monoclinic
_symmetry_space_group_name_H-M   'P 21/a'
_symmetry_Int_Tables_number      14
_space_group_name_Hall           '-P 2yab'
loop_
_symmetry_equiv_pos_site_id
_symmetry_equiv_pos_as_xyz
1 x,y,z
2 1/2+x,1/2-y,z
3 -x,-y,-z
4 1/2-x,1/2+y,-z
_cell_length_a                   6.154(1)
_cell_length_b                   21.446(5)
_cell_length_c                   7.486(2)
_cell_angle_alpha                90
_cell_angle_beta                 99.62(2)
_cell_angle_gamma                90
_cell_volume                     974.099
_exptl_crystal_colour            colorless
_exptl_crystal_description       prismatic
_chemical_melting_point          88-90deg.C
_cell_formula_units_Z            4
loop_
_atom_site_label
_atom_site_type_symbol
_atom_site_fract_x
_atom_site_fract_y
_atom_site_fract_z
I1 I 0.02510(7) 0.81667(2) 0.02006(6)
O1 O -0.6354(5) 0.9916(2) 0.2431(5)
O2 O -0.5573(4) 0.9092(1) 0.4139(4)
C1 C -0.4960(6) 0.9575(2) 0.3227(5)
C2 C -0.2501(6) 0.9669(2) 0.3333(5)
C3 C -0.1414(6) 0.9049(2) 0.2890(6)
C4 C -0.2289(9) 0.8503(2) 0.3884(7)
C5 C -0.3872(7) 0.8696(2) 0.5129(6)
C6 C -0.1978(7) 1.0230(2) 0.2253(6)
C7 C -0.1728(10) 0.8940(2) 0.0874(7)
C8 C -0.503(1) 0.8155(2) 0.5839(10)
H1 H -0.1891 0.9777 0.4734
H2 H 0.0218 0.9121 0.3377
H3 H -0.3071 0.8230 0.2967
H4 H -0.1095 0.8288 0.4543
H5 H -0.3074 0.8922 0.6113
H6 H -0.2411 1.0602 0.2807
H7 H -0.2773 1.0204 0.1053
H8 H -0.0448 1.0247 0.2225
H9 H -0.3247 0.8852 0.0438
H10 H -0.1324 0.9308 0.0297
H11 H -0.3992 0.7899 0.6581
H12 H -0.6089 0.8305 0.6521
H13 H -0.5764 0.7913 0.4845
loop_
_geom_bond_atom_site_label_1
_geom_bond_atom_site_label_2
_geom_bond_site_symmetry_1
_geom_bond_site_symmetry_2
I1 C7 1_555 1_555
O1 C1 1_555 1_555
O2 C1 1_555 1_555
C1 C2 1_555 1_555
C2 C3 1_555 1_555
C3 C4 1_555 1_555
C4 C5 1_555 1_555
C5 O2 1_555 1_555
C6 C2 1_555 1_555
C7 C3 1_555 1_555
C8 C5 1_555 1_555
H1 C2 1_555 1_555
H2 C3 1_555 1_555
H3 C4 1_555 1_555
H4 C4 1_555 1_555
H5 C5 1_555 1_555
H6 C6 1_555 1_555
H7 C6 1_555 1_555
H8 C6 1_555 1_555
H9 C7 1_555 1_555
H10 C7 1_555 1_555
H11 C8 1_555 1_555
H12 C8 1_555 1_555
H13 C8 1_555 1_555

#END
