
#######################################################################
#
#                 Cambridge Crystallographic Data Centre
#                                CCDC 
#
#######################################################################
#
# If this CIF has been generated from an entry in the Cambridge 
# Structural Database, then it will include bibliographic, chemical, 
# crystal, experimental, refinement or atomic coordinate data resulting 
# from the CCDC's data processing and validation procedures.
#
#######################################################################

data_BALHOM
_chemical_formula_moiety         '3(C28 H24 O4),C1 H2 Cl2'
_chemical_name_systematic        'Calix(4)arene dichloromethane solvate'
_symmetry_cell_setting           hexagonal
_symmetry_space_group_name_H-M   'P 63/m'
_symmetry_Int_Tables_number      176
_space_group_name_Hall           '-P 6c'
loop_
_symmetry_equiv_pos_site_id
_symmetry_equiv_pos_as_xyz
1 x,y,z
2 x-y,x,1/2+z
3 -y,x-y,z
4 -x,-y,1/2+z
5 -x+y,-x,z
6 y,-x+y,1/2+z
7 -x,-y,-z
8 -x+y,-x,1/2-z
9 y,-x+y,-z
10 x,y,1/2-z
11 x-y,x,-z
12 -y,x-y,1/2-z
_cell_length_a                   14.698(4)
_cell_length_b                   14.698(4)
_cell_length_c                   17.990(4)
_cell_angle_alpha                90
_cell_angle_beta                 90
_cell_angle_gamma                120
_cell_volume                     3365.72
_exptl_crystal_colour            colorless
_cell_formula_units_Z            2
loop_
_atom_site_label
_atom_site_type_symbol
_atom_site_fract_x
_atom_site_fract_y
_atom_site_fract_z
C1 C 0.4910(7) 0.7959(8) 0.7500
C2 C 0.4816(5) 0.8372(5) 0.6846(4)
C3 C 0.4643(5) 0.9222(5) 0.6820(4)
C4 C 0.4573(7) 0.9632(7) 0.7500
O1 O 0.4410(6) 1.0497(5) 0.7500
C5 C 0.4546(6) 0.9663(6) 0.6087(4)
C6 C 0.3428(6) 0.9065(5) 0.5760(4)
C7 C 0.3190(7) 0.8328(6) 0.5189(5)
C8 C 0.2189(8) 0.7787(7) 0.4915(5)
C9 C 0.1403(7) 0.7957(7) 0.5202(5)
C10 C 0.1611(5) 0.8671(5) 0.5764(5)
C11 C 0.2641(6) 0.9246(5) 0.6017(4)
O2 O 0.2887(4) 1.0017(4) 0.6540(3)
C12 C 0.0737(7) 0.8789(6) 0.6080(6)
C13 C 0.0332(5) 0.8236(6) 0.6812(6)
C14 C -0.0406(6) 0.7198(7) 0.6831(6)
C15 C -0.0788(9) 0.665(1) 0.7500
C16 C 0.0685(8) 0.8747(8) 0.7500
O3 O 0.1425(6) 0.9823(5) 0.7500
H1 H 0.5041 0.7388 0.7500
H2 H 0.4869 0.8071 0.6392
H3 H 0.5017 0.9627 0.5743
H4 H 0.4731 1.0375 0.6159
H5 H 0.3721 0.8206 0.4994
H6 H 0.2027 0.7293 0.4525
H7 H 0.0711 0.7571 0.5007
H8 H 0.0173 0.8509 0.5734
H9 H 0.0983 0.9516 0.6150
H10 H -0.0671 0.6831 0.6376
H11 H -0.1298 0.5927 0.7500
C3I C 0.4643(5) 0.9222(5) 0.8180(4)
C2I C 0.4816(5) 0.8372(5) 0.8154(4)
H2I H 0.4869 0.8071 0.8608
C5I C 0.4546(6) 0.9663(6) 0.8913(4)
C6I C 0.3428(6) 0.9065(5) 0.9240(4)
C7I C 0.3190(7) 0.8328(6) 0.9811(5)
C8I C 0.2189(8) 0.7787(7) 1.0085(5)
C9I C 0.1403(7) 0.7957(7) 0.9798(5)
C10I C 0.1611(5) 0.8671(5) 0.9236(5)
C11I C 0.2641(6) 0.9246(5) 0.8983(4)
O2I O 0.2887(4) 1.0017(4) 0.8460(3)
C12I C 0.0737(7) 0.8789(6) 0.8920(6)
C13I C 0.0332(5) 0.8236(6) 0.8188(6)
C14I C -0.0406(6) 0.7198(7) 0.8169(6)
H10I H -0.0671 0.6831 0.8624
H8I H 0.0173 0.8509 0.9266
H9I H 0.0983 0.9516 0.8850
H7I H 0.0711 0.7571 0.9993
H6I H 0.2027 0.7293 1.0475
H5I H 0.3721 0.8206 1.0006
H3I H 0.5017 0.9627 0.9257
H4I H 0.4731 1.0375 0.8841
Cl1? Cl 0.5802(9) 1.3180(9) 0.8282(7)
C17? C 0.598(1) 1.244(1) 0.7500
loop_
_geom_bond_atom_site_label_1
_geom_bond_atom_site_label_2
_geom_bond_site_symmetry_1
_geom_bond_site_symmetry_2
C1 C2 1_555 1_555
C2 C3 1_555 1_555
C3 C4 1_555 1_555
C4 O1 1_555 1_555
C5 C3 1_555 1_555
C6 C5 1_555 1_555
C7 C6 1_555 1_555
C8 C7 1_555 1_555
C9 C8 1_555 1_555
C10 C9 1_555 1_555
C11 C6 1_555 1_555
O2 C11 1_555 1_555
C12 C10 1_555 1_555
C13 C12 1_555 1_555
C14 C13 1_555 1_555
C15 C14 1_555 1_555
C16 C13 1_555 1_555
O3 C16 1_555 1_555
H1 C1 1_555 1_555
H2 C2 1_555 1_555
H3 C5 1_555 1_555
H4 C5 1_555 1_555
H5 C7 1_555 1_555
H6 C8 1_555 1_555
H7 C9 1_555 1_555
H8 C12 1_555 1_555
H9 C12 1_555 1_555
H10 C14 1_555 1_555
H11 C15 1_555 1_555
C3I C4 1_555 1_555
C2I C1 1_555 1_555
H2I C2I 1_555 1_555
C5I C3I 1_555 1_555
C6I C5I 1_555 1_555
C7I C6I 1_555 1_555
C8I C7I 1_555 1_555
C9I C8I 1_555 1_555
C10I C9I 1_555 1_555
C11I C6I 1_555 1_555
O2I C11I 1_555 1_555
C12I C10I 1_555 1_555
C13I C16 1_555 1_555
C14I C15 1_555 1_555
H10I C14I 1_555 1_555
H8I C12I 1_555 1_555
H9I C12I 1_555 1_555
H7I C9I 1_555 1_555
H6I C8I 1_555 1_555
H5I C7I 1_555 1_555
H3I C5I 1_555 1_555
H4I C5I 1_555 1_555
C10 C11 1_555 1_555
C3I C2I 1_555 1_555
C10I C11I 1_555 1_555
C12I C13I 1_555 1_555
C13I C14I 1_555 1_555

#END
