
#######################################################################
#
#                 Cambridge Crystallographic Data Centre
#                                CCDC 
#
#######################################################################
#
# If this CIF has been generated from an entry in the Cambridge 
# Structural Database, then it will include bibliographic, chemical, 
# crystal, experimental, refinement or atomic coordinate data resulting 
# from the CCDC's data processing and validation procedures.
#
#######################################################################

data_BALHIG
_chemical_formula_moiety         '3(C24 H16 O4 S4),2(H2 O1)'
_chemical_name_systematic        
'tris(25,26,27,28-Tetrahydroxy-2,8,14,20-tetrathiacalix(4)arene) dihydrate'
_symmetry_cell_setting           hexagonal
_symmetry_space_group_name_H-M   'P 63/m'
_symmetry_Int_Tables_number      176
_space_group_name_Hall           '-P 6c'
loop_
_symmetry_equiv_pos_site_id
_symmetry_equiv_pos_as_xyz
1 x,y,z
2 x-y,x,1/2+z
3 -y,x-y,z
4 -x,-y,1/2+z
5 -x+y,-x,z
6 y,-x+y,1/2+z
7 -x,-y,-z
8 -x+y,-x,1/2-z
9 y,-x+y,-z
10 x,y,1/2-z
11 x-y,x,-z
12 -y,x-y,1/2-z
_cell_length_a                   14.908(2)
_cell_length_b                   14.908(2)
_cell_length_c                   18.268(2)
_cell_angle_alpha                90
_cell_angle_beta                 90
_cell_angle_gamma                120
_cell_volume                     3516.09
_exptl_crystal_colour            colorless
_exptl_crystal_description       prism
_chemical_melting_point          '298-300 deg.C'
_cell_formula_units_Z            2
_exptl_crystal_recrystallization_method chloroform/hexane
loop_
_atom_site_label
_atom_site_type_symbol
_atom_site_fract_x
_atom_site_fract_y
_atom_site_fract_z
S1 S 0.1732(2) 0.1093(2) 0.4005(2)
C1 C 0.2981(7) 0.1366(7) 0.4305(6)
C2 C 0.3437(7) 0.0820(7) 0.4018(5)
O1 O 0.2950(5) 0.0101(5) 0.3483(4)
C3 C 0.4379(7) 0.0995(7) 0.4302(5)
C4 C 0.4856(8) 0.1718(8) 0.4854(6)
C5 C 0.4389(9) 0.2254(8) 0.5124(6)
C6 C 0.3462(8) 0.2073(8) 0.4848(7)
S2 S 0.4929(2) 0.0234(2) 0.4011(2)
C7 C 0.5533(6) 0.0815(6) 0.3163(5)
C8 C 0.5033(9) 0.0406(8) 0.2500
O2 O 0.4023(7) -0.0416(7) 0.2500
C9 C 0.6545(7) 0.1645(8) 0.3150(6)
C10 C 0.703(1) 0.206(1) 0.2500
C11 C 0.2024(6) 0.1782(7) 0.3172(7)
C12 C 0.187(1) 0.126(1) 0.2500
O3 O 0.1586(7) 0.0237(7) 0.2500
C13 C 0.2331(8) 0.2812(8) 0.3158(7)
C14 C 0.250(1) 0.332(1) 0.2500
H1 H 0.5502 0.1847 0.5047
H2 H 0.4716 0.2750 0.5503
H3 H 0.3150 0.2445 0.5038
H4 H 0.6901 0.1926 0.3597
H5 H 0.7711 0.2641 0.2500
H6 H 0.2430 0.3178 0.3603
H7 H 0.2733 0.4043 0.2500
C7I C 0.5533(6) 0.0815(6) 0.1837(5)
S2I S 0.4929(2) 0.0234(2) 0.0989(2)
C3I C 0.4379(7) 0.0995(7) 0.0698(5)
C2I C 0.3437(7) 0.0820(7) 0.0982(5)
C1I C 0.2981(7) 0.1366(7) 0.0695(6)
S1I S 0.1732(2) 0.1093(2) 0.0995(2)
C11I C 0.2024(6) 0.1782(7) 0.1828(7)
C13I C 0.2331(8) 0.2812(8) 0.1842(7)
H6I H 0.2430 0.3178 0.1397
C6I C 0.3462(8) 0.2073(8) 0.0152(7)
C5I C 0.4389(9) 0.2254(8) -0.0124(6)
C4I C 0.4856(8) 0.1718(8) 0.0146(6)
H1I H 0.5502 0.1847 -0.0047
H2I H 0.4716 0.2750 -0.0503
H3I H 0.3150 0.2445 -0.0038
O1I O 0.2950(5) 0.0101(5) 0.1517(4)
C9I C 0.6545(7) 0.1645(8) 0.1850(6)
H4I H 0.6901 0.1926 0.1403
O4 O 0.380(2) -0.266(2) 0.187(2)
loop_
_geom_bond_atom_site_label_1
_geom_bond_atom_site_label_2
_geom_bond_site_symmetry_1
_geom_bond_site_symmetry_2
S1 C1 1_555 1_555
C1 C2 1_555 1_555
C2 O1 1_555 1_555
C3 C2 1_555 1_555
C4 C3 1_555 1_555
C5 C4 1_555 1_555
C6 C1 1_555 1_555
S2 C3 1_555 1_555
C7 S2 1_555 1_555
C8 C7 1_555 1_555
O2 C8 1_555 1_555
C9 C7 1_555 1_555
C10 C9 1_555 1_555
C11 S1 1_555 1_555
C12 C11 1_555 1_555
O3 C12 1_555 1_555
C13 C11 1_555 1_555
C14 C13 1_555 1_555
H1 C4 1_555 1_555
H2 C5 1_555 1_555
H3 C6 1_555 1_555
H4 C9 1_555 1_555
H5 C10 1_555 1_555
H6 C13 1_555 1_555
H7 C14 1_555 1_555
C7I C8 1_555 1_555
S2I C7I 1_555 1_555
C3I S2I 1_555 1_555
C2I C3I 1_555 1_555
C1I C2I 1_555 1_555
S1I C1I 1_555 1_555
C11I C12 1_555 1_555
C13I C14 1_555 1_555
H6I C13I 1_555 1_555
C6I C1I 1_555 1_555
C5I C6I 1_555 1_555
C4I C3I 1_555 1_555
H1I C4I 1_555 1_555
H2I C5I 1_555 1_555
H3I C6I 1_555 1_555
O1I C2I 1_555 1_555
C9I C10 1_555 1_555
H4I C9I 1_555 1_555
C5 C6 1_555 1_555
C7I C9I 1_555 1_555
S1I C11I 1_555 1_555
C11I C13I 1_555 1_555
C5I C4I 1_555 1_555

#END
