
#######################################################################
#
#                 Cambridge Crystallographic Data Centre
#                                CCDC 
#
#######################################################################
#
# If this CIF has been generated from an entry in the Cambridge 
# Structural Database, then it will include bibliographic, chemical, 
# crystal, experimental, refinement or atomic coordinate data resulting 
# from the CCDC's data processing and validation procedures.
#
#######################################################################

data_BALHEC
_chemical_formula_moiety         'C40 H48 O4 S4,C1 H4 O1'
_chemical_name_systematic        
'5,11,17,23-Tetra-t-butyl-25,26,27,28-tetrahydroxy-2,8,14,20-tetrathiacalix(4)arene methanol clathrate'
_symmetry_cell_setting           tetragonal
_symmetry_space_group_name_H-M   'P 4/n m m'
_symmetry_Int_Tables_number      129
_space_group_name_Hall           '-P 4a 2a'
loop_
_symmetry_equiv_pos_site_id
_symmetry_equiv_pos_as_xyz
1 x,y,z
2 1/2-y,x,z
3 1/2+x,-y,-z
4 1/2-x,1/2-y,z
5 1/2+y,1/2+x,-z
6 y,1/2-x,z
7 -x,1/2+y,-z
8 -y,-x,-z
9 -x,-y,-z
10 1/2+y,-x,-z
11 1/2-x,y,z
12 1/2+x,1/2+y,-z
13 1/2-y,1/2-x,z
14 -y,1/2+x,-z
15 x,1/2-y,z
16 y,x,z
_cell_length_a                   15.847(2)
_cell_length_b                   15.847(2)
_cell_length_c                   8.357(1)
_cell_angle_alpha                90
_cell_angle_beta                 90
_cell_angle_gamma                90
_cell_volume                     2098.67
_exptl_crystal_colour            colorless
_exptl_crystal_description       prism
_cell_formula_units_Z            2
loop_
_atom_site_label
_atom_site_type_symbol
_atom_site_fract_x
_atom_site_fract_y
_atom_site_fract_z
C2 C 0.2500 0.4238(7) 0.695(1)
C3 C 0.3256(5) 0.4485(5) 0.6245(9)
C4 C 0.3243(6) 0.4923(5) 0.478(1)
C5 C 0.2500 0.5132(8) 0.402(1)
C6 C 0.2500 0.558(1) 0.243(2)
C7 C 0.176(1) 0.524(1) 0.124(2)
C8 C 0.310(1) 0.641(1) 0.263(2)
S1 S 0.4237 0.4237(1) 0.7166(4)
O2 O 0.2500 0.3770(6) 0.831(1)
H1 H 0.3763 0.5080 0.4300
C4J C 0.1757(6) 0.4923(5) 0.478(1)
C3J C 0.1744(5) 0.4485(5) 0.6245(9)
S1J S 0.0763 0.4237(1) 0.7166(4)
C3A C 0.0515(5) 0.3256(5) 0.6245(9)
C2A C 0.0762(7) 0.2500 0.695(1)
C3L C 0.0515(5) 0.1744(5) 0.6245(9)
C4L C 0.0077(5) 0.1757(6) 0.478(1)
C5L C -0.0132(8) 0.2500 0.402(1)
C4A C 0.0077(5) 0.3243(6) 0.478(1)
H1A H -0.0080 0.3763 0.4300
C6L C -0.058(1) 0.2500 0.243(2)
C7L C -0.024(1) 0.324(1) 0.124(2)
C7A C -0.024(1) 0.176(1) 0.124(2)
C8L C -0.141(1) 0.190(1) 0.263(2)
C8A C -0.141(1) 0.310(1) 0.263(2)
H1L H -0.0080 0.1237 0.4300
S1L S 0.0763(1) 0.0763 0.7166(4)
C3C C 0.1744(5) 0.0515(5) 0.6245(9)
C2C C 0.2500 0.0762(7) 0.695(1)
C3N C 0.3256(5) 0.0515(5) 0.6245(9)
C4N C 0.3243(6) 0.0077(5) 0.478(1)
C5N C 0.2500 -0.0132(8) 0.402(1)
C4C C 0.1757(6) 0.0077(5) 0.478(1)
H1C H 0.1237 -0.0080 0.4300
C6N C 0.2500 -0.058(1) 0.243(2)
C7N C 0.176(1) -0.024(1) 0.124(2)
C7C C 0.324(1) -0.024(1) 0.124(2)
C8N C 0.310(1) -0.141(1) 0.263(2)
C8C C 0.190(1) -0.141(1) 0.263(2)
H1N H 0.3763 -0.0080 0.4300
S1N S 0.4237 0.0763(1) 0.7166(4)
C3E C 0.4485(5) 0.1744(5) 0.6245(9)
C2E C 0.4238(7) 0.2500 0.695(1)
C3O C 0.4485(5) 0.3256(5) 0.6245(9)
C4O C 0.4923(5) 0.3243(6) 0.478(1)
C5O C 0.5132(8) 0.2500 0.402(1)
C4E C 0.4923(5) 0.1757(6) 0.478(1)
H1E H 0.5080 0.1237 0.4300
C6O C 0.558(1) 0.2500 0.243(2)
C7O C 0.524(1) 0.176(1) 0.124(2)
C7E C 0.524(1) 0.324(1) 0.124(2)
C8O C 0.641(1) 0.310(1) 0.263(2)
C8E C 0.641(1) 0.190(1) 0.263(2)
H1O H 0.5080 0.3763 0.4300
O2E O 0.3770(6) 0.2500 0.831(1)
O2C O 0.2500 0.1230(6) 0.831(1)
O2A O 0.1230(6) 0.2500 0.831(1)
H1J H 0.1237 0.5080 0.4300
C7J C 0.324(1) 0.524(1) 0.124(2)
C8J C 0.190(1) 0.641(1) 0.263(2)
O1 O 0.2500 0.2500 0.364(5)
C1 C 0.2500 0.2500 0.164(8)
loop_
_geom_bond_atom_site_label_1
_geom_bond_atom_site_label_2
_geom_bond_site_symmetry_1
_geom_bond_site_symmetry_2
O1 C1 1_555 1_555
C2 C3 1_555 1_555
C3 C4 1_555 1_555
C4 C5 1_555 1_555
C5 C6 1_555 1_555
C6 C7 1_555 1_555
C8 C6 1_555 1_555
S1 C3 1_555 1_555
O2 C2 1_555 1_555
H1 C4 1_555 1_555
C4J C5 1_555 1_555
C3J C2 1_555 1_555
S1J C3J 1_555 1_555
C3A S1J 1_555 1_555
C2A C3A 1_555 1_555
C3L C2A 1_555 1_555
C4L C3L 1_555 1_555
C5L C4L 1_555 1_555
C4A C3A 1_555 1_555
H1A C4A 1_555 1_555
C6L C5L 1_555 1_555
C7L C6L 1_555 1_555
C7A C6L 1_555 1_555
C8L C6L 1_555 1_555
C8A C6L 1_555 1_555
H1L C4L 1_555 1_555
S1L C3L 1_555 1_555
C3C S1L 1_555 1_555
C2C C3C 1_555 1_555
C3N C2C 1_555 1_555
C4N C3N 1_555 1_555
C5N C4N 1_555 1_555
C4C C3C 1_555 1_555
H1C C4C 1_555 1_555
C6N C5N 1_555 1_555
C7N C6N 1_555 1_555
C7C C6N 1_555 1_555
C8N C6N 1_555 1_555
C8C C6N 1_555 1_555
H1N C4N 1_555 1_555
S1N C3N 1_555 1_555
C3E S1N 1_555 1_555
C2E C3E 1_555 1_555
C3O S1 1_555 1_555
C4O C3O 1_555 1_555
C5O C4O 1_555 1_555
C4E C3E 1_555 1_555
H1E C4E 1_555 1_555
C6O C5O 1_555 1_555
C7O C6O 1_555 1_555
C7E C6O 1_555 1_555
C8O C6O 1_555 1_555
C8E C6O 1_555 1_555
H1O C4O 1_555 1_555
O2E C2E 1_555 1_555
O2C C2C 1_555 1_555
O2A C2A 1_555 1_555
H1J C4J 1_555 1_555
C7J C6 1_555 1_555
C8J C6 1_555 1_555
C4J C3J 1_555 1_555
C5L C4A 1_555 1_555
C5N C4C 1_555 1_555
C2E C3O 1_555 1_555
C5O C4E 1_555 1_555

#END
