
#######################################################################
#
#                 Cambridge Crystallographic Data Centre
#                                CCDC 
#
#######################################################################
#
# If this CIF has been generated from an entry in the Cambridge 
# Structural Database, then it will include bibliographic, chemical, 
# crystal, experimental, refinement or atomic coordinate data resulting 
# from the CCDC's data processing and validation procedures.
#
#######################################################################

data_BALHAX
_chemical_formula_moiety         'C40 H48 O4 S4,C1 H2 Cl2'
_chemical_name_systematic        
'5,11,17,23-Tetra-t-butyl-25,26,27,28-tetrahydroxy-2,8,14,20-tetrathiacalix(4)arene dichloromethane clathrate'
_symmetry_cell_setting           tetragonal
_symmetry_space_group_name_H-M   'P 4/n m m'
_symmetry_Int_Tables_number      129
_space_group_name_Hall           '-P 4a 2a'
loop_
_symmetry_equiv_pos_site_id
_symmetry_equiv_pos_as_xyz
1 x,y,z
2 1/2-y,x,z
3 1/2+x,-y,-z
4 1/2-x,1/2-y,z
5 1/2+y,1/2+x,-z
6 y,1/2-x,z
7 -x,1/2+y,-z
8 -y,-x,-z
9 -x,-y,-z
10 1/2+y,-x,-z
11 1/2-x,y,z
12 1/2+x,1/2+y,-z
13 1/2-y,1/2-x,z
14 -y,1/2+x,-z
15 x,1/2-y,z
16 y,x,z
_cell_length_a                   15.704(3)
_cell_length_b                   15.704(3)
_cell_length_c                   8.604(2)
_cell_angle_alpha                90
_cell_angle_beta                 90
_cell_angle_gamma                90
_cell_volume                     2121.88
_exptl_crystal_colour            colorless
_exptl_crystal_description       prism
_cell_formula_units_Z            2
_exptl_crystal_recrystallization_method methanol/dichloromethane
loop_
_atom_site_label
_atom_site_type_symbol
_atom_site_fract_x
_atom_site_fract_y
_atom_site_fract_z
S1 S 0.4252 0.4252(1) 0.2921(4)
C1 C 0.3265(5) 0.4501(5) 0.3835(9)
C2 C 0.2500 0.4260(7) 0.311(1)
C3 C 0.2500 0.5147(8) 0.602(2)
C4 C 0.3252(5) 0.4925(5) 0.525(1)
C5 C 0.2500 0.559(1) 0.764(2)
C6 C 0.314(1) 0.636(1) 0.754(2)
C7 C 0.176(1) 0.519(1) 0.863(1)
O1 O 0.2500 0.3798(5) 0.1808(8)
H1 H 0.3780 0.5073 0.5713
C1J C 0.1735(5) 0.4501(5) 0.3835(9)
S1J S 0.0748 0.4252(1) 0.2921(4)
C1A C 0.0499(5) 0.3265(5) 0.3835(9)
C2A C 0.0740(7) 0.2500 0.311(1)
C1L C 0.0499(5) 0.1735(5) 0.3835(9)
S1L S 0.0748(1) 0.0748 0.2921(4)
C1C C 0.1735(5) 0.0499(5) 0.3835(9)
C2C C 0.2500 0.0740(7) 0.311(1)
C1N C 0.3265(5) 0.0499(5) 0.3835(9)
S1N S 0.4252 0.0748(1) 0.2921(4)
C1E C 0.4501(5) 0.1735(5) 0.3835(9)
C2E C 0.4260(7) 0.2500 0.311(1)
C1O C 0.4501(5) 0.3265(5) 0.3835(9)
C4O C 0.4925(5) 0.3252(5) 0.525(1)
C3O C 0.5147(8) 0.2500 0.602(2)
C4E C 0.4925(5) 0.1748(5) 0.525(1)
H1E H 0.5073 0.1220 0.5713
C5O C 0.559(1) 0.2500 0.764(2)
C6O C 0.636(1) 0.314(1) 0.754(2)
C6E C 0.636(1) 0.186(1) 0.754(2)
C7O C 0.519(1) 0.176(1) 0.863(1)
C7E C 0.519(1) 0.324(1) 0.863(1)
H1O H 0.5073 0.3780 0.5713
O1E O 0.3798(5) 0.2500 0.1808(8)
C4N C 0.3252(5) 0.0075(5) 0.525(1)
C3N C 0.2500 -0.0147(8) 0.602(2)
C4C C 0.1748(5) 0.0075(5) 0.525(1)
H1C H 0.1220 -0.0073 0.5713
C5N C 0.2500 -0.059(1) 0.764(2)
C6N C 0.314(1) -0.136(1) 0.754(2)
C6C C 0.186(1) -0.136(1) 0.754(2)
C7N C 0.176(1) -0.019(1) 0.863(1)
C7C C 0.324(1) -0.019(1) 0.863(1)
H1N H 0.3780 -0.0073 0.5713
O1C O 0.2500 0.1202(5) 0.1808(8)
C4L C 0.0075(5) 0.1748(5) 0.525(1)
C3L C -0.0147(8) 0.2500 0.602(2)
C4A C 0.0075(5) 0.3252(5) 0.525(1)
H1A H -0.0073 0.3780 0.5713
C5L C -0.059(1) 0.2500 0.764(2)
C6L C -0.136(1) 0.186(1) 0.754(2)
C6A C -0.136(1) 0.314(1) 0.754(2)
C7L C -0.019(1) 0.324(1) 0.863(1)
C7A C -0.019(1) 0.176(1) 0.863(1)
H1L H -0.0073 0.1220 0.5713
O1A O 0.1202(5) 0.2500 0.1808(8)
C4J C 0.1748(5) 0.4925(5) 0.525(1)
C6J C 0.186(1) 0.636(1) 0.754(2)
C7J C 0.324(1) 0.519(1) 0.863(1)
H1J H 0.1220 0.5073 0.5713
Cl1 Cl 0.7500 0.7500 0.448(1)
Cl2 Cl 0.7500 0.7500 0.124(1)
C8 C 0.7500 0.800(3) 0.298(4)
C8A C 0.700(3) 0.7500 0.298(4)
C8C C 0.7500 0.700(3) 0.298(4)
C8E C 0.800(3) 0.7500 0.298(4)
loop_
_geom_bond_atom_site_label_1
_geom_bond_atom_site_label_2
_geom_bond_site_symmetry_1
_geom_bond_site_symmetry_2
S1 C1 1_555 1_555
C1 C2 1_555 1_555
C2 O1 1_555 1_555
C3 C4 1_555 1_555
C4 C1 1_555 1_555
C5 C3 1_555 1_555
C6 C5 1_555 1_555
C7 C5 1_555 1_555
H1 C4 1_555 1_555
Cl1 C8 1_555 1_555
Cl2 C8 1_555 1_555
C8 C8A 1_555 1_555
C1J C2 1_555 1_555
S1J C1J 1_555 1_555
C1A S1J 1_555 1_555
C2A C1A 1_555 1_555
C1L C2A 1_555 1_555
S1L C1L 1_555 1_555
C1C S1L 1_555 1_555
C2C C1C 1_555 1_555
C1N C2C 1_555 1_555
S1N C1N 1_555 1_555
C1E S1N 1_555 1_555
C2E C1E 1_555 1_555
C1O S1 1_555 1_555
C4O C1O 1_555 1_555
C3O C4O 1_555 1_555
C4E C1E 1_555 1_555
H1E C4E 1_555 1_555
C5O C3O 1_555 1_555
C6O C5O 1_555 1_555
C6E C5O 1_555 1_555
C7O C5O 1_555 1_555
C7E C5O 1_555 1_555
H1O C4O 1_555 1_555
O1E C2E 1_555 1_555
C4N C1N 1_555 1_555
C3N C4N 1_555 1_555
C4C C1C 1_555 1_555
H1C C4C 1_555 1_555
C5N C3N 1_555 1_555
C6N C5N 1_555 1_555
C6C C5N 1_555 1_555
C7N C5N 1_555 1_555
C7C C5N 1_555 1_555
H1N C4N 1_555 1_555
O1C C2C 1_555 1_555
C4L C1L 1_555 1_555
C3L C4L 1_555 1_555
C4A C1A 1_555 1_555
H1A C4A 1_555 1_555
C5L C3L 1_555 1_555
C6L C5L 1_555 1_555
C6A C5L 1_555 1_555
C7L C5L 1_555 1_555
C7A C5L 1_555 1_555
H1L C4L 1_555 1_555
O1A C2A 1_555 1_555
C4J C3 1_555 1_555
C6J C5 1_555 1_555
C7J C5 1_555 1_555
H1J C4J 1_555 1_555
C8A Cl1 1_555 1_555
C8C Cl1 1_555 1_555
C8E Cl1 1_555 1_555
Cl2 C8A 1_555 1_555
Cl2 C8C 1_555 1_555
Cl2 C8E 1_555 1_555
C8 C8C 1_555 1_555
C8 C8E 1_555 1_555
C1J C4J 1_555 1_555
C2E C1O 1_555 1_555
C3O C4E 1_555 1_555
C3N C4C 1_555 1_555
C3L C4A 1_555 1_555
C8A C8C 1_555 1_555
C8A C8E 1_555 1_555
C8C C8E 1_555 1_555

#END
