
#######################################################################
#
#                 Cambridge Crystallographic Data Centre
#                                CCDC 
#
#######################################################################
#
# If this CIF has been generated from an entry in the Cambridge 
# Structural Database, then it will include bibliographic, chemical, 
# crystal, experimental, refinement or atomic coordinate data resulting 
# from the CCDC's data processing and validation procedures.
#
#######################################################################

data_BALJUW
_chemical_formula_moiety         'C17 H14 N2 O1'
_chemical_name_systematic        
(5-methyl-3-phenyl-1H-pyrazol-1-yl)(phenyl)methanone
_symmetry_cell_setting           orthorhombic
_symmetry_space_group_name_H-M   'P 21 21 21'
_symmetry_Int_Tables_number      19
_space_group_name_Hall           'P 2ac 2ab'
loop_
_symmetry_equiv_pos_site_id
_symmetry_equiv_pos_as_xyz
1 x,y,z
2 1/2-x,-y,1/2+z
3 -x,1/2+y,1/2-z
4 1/2+x,1/2-y,-z
_cell_length_a                   4.103(3)
_cell_length_b                   13.412(10)
_cell_length_c                   24.899(19)
_cell_angle_alpha                90
_cell_angle_beta                 90
_cell_angle_gamma                90
_cell_volume                     1370.18
_exptl_crystal_colour            colorless
_exptl_crystal_description       block
_cell_formula_units_Z            4
loop_
_atom_site_label
_atom_site_type_symbol
_atom_site_fract_x
_atom_site_fract_y
_atom_site_fract_z
C1 C 0.1037(9) 1.1622(2) 0.13968(11)
H1 H 0.2104 1.1750 0.1719
C2 C 0.0021(9) 1.2404(2) 0.10873(12)
H2 H 0.0384 1.3055 0.1200
C3 C -0.1527(8) 1.2226(2) 0.06114(12)
H3 H -0.2230 1.2757 0.0401
C4 C -0.2045(9) 1.1264(2) 0.04439(12)
H4 H -0.3085 1.1143 0.0118
C5 C -0.1024(7) 1.0476(2) 0.07584(10)
H5 H -0.1377 0.9826 0.0643
C6 C 0.0511(7) 1.06445(18) 0.12410(9)
C7 C 0.1681(7) 0.9826(2) 0.15795(9)
C8 C 0.3467(7) 0.9880(2) 0.20650(10)
H6 H 0.4151 1.0460 0.2236
C9 C 0.3997(7) 0.8938(2) 0.22344(10)
C10 C 0.2279(8) 0.7294(2) 0.18463(11)
C11 C 0.1154(8) 0.67779(19) 0.13595(11)
C12 C 0.1901(8) 0.7071(2) 0.08416(10)
H7 H 0.3073 0.7656 0.0788
C13 C 0.0948(9) 0.6517(3) 0.04042(13)
H8 H 0.1531 0.6716 0.0060
C14 C -0.0873(10) 0.5665(3) 0.04792(17)
H9 H -0.1583 0.5299 0.0184
C15 C -0.1634(9) 0.5359(2) 0.09877(19)
H10 H -0.2858 0.4783 0.1037
C16 C -0.0602(9) 0.5898(2) 0.14295(14)
H11 H -0.1080 0.5673 0.1774
C17 C 0.5720(9) 0.8583(2) 0.27213(11)
H12 H 0.6638 0.9142 0.2909
H13 H 0.7431 0.8133 0.2619
H14 H 0.4209 0.8244 0.2952
N1 N 0.2558(6) 0.83363(15) 0.18480(8)
N2 N 0.1098(6) 0.88901(15) 0.14438(7)
O1 O 0.2993(7) 0.68367(14) 0.22521(8)
loop_
_geom_bond_atom_site_label_1
_geom_bond_atom_site_label_2
_geom_bond_site_symmetry_1
_geom_bond_site_symmetry_2
C1 H1 1_555 1_555
C2 C1 1_555 1_555
H2 C2 1_555 1_555
C3 C2 1_555 1_555
H3 C3 1_555 1_555
C4 C3 1_555 1_555
H4 C4 1_555 1_555
C5 C4 1_555 1_555
H5 C5 1_555 1_555
C6 C1 1_555 1_555
C7 C6 1_555 1_555
C8 C7 1_555 1_555
H6 C8 1_555 1_555
C9 C8 1_555 1_555
C10 C11 1_555 1_555
C11 C12 1_555 1_555
C12 H7 1_555 1_555
C13 C12 1_555 1_555
H8 C13 1_555 1_555
C14 C13 1_555 1_555
H9 C14 1_555 1_555
C15 C14 1_555 1_555
H10 C15 1_555 1_555
C16 C11 1_555 1_555
H11 C16 1_555 1_555
C17 C9 1_555 1_555
H12 C17 1_555 1_555
H13 C17 1_555 1_555
H14 C17 1_555 1_555
N1 C9 1_555 1_555
N2 C7 1_555 1_555
O1 C10 1_555 1_555
C5 C6 1_555 1_555
C10 N1 1_555 1_555
C15 C16 1_555 1_555
N1 N2 1_555 1_555

#END
