
#######################################################################
#
#                 Cambridge Crystallographic Data Centre
#                                CCDC 
#
#######################################################################
#
# If this CIF has been generated from an entry in the Cambridge 
# Structural Database, then it will include bibliographic, chemical, 
# crystal, experimental, refinement or atomic coordinate data resulting 
# from the CCDC's data processing and validation procedures.
#
#######################################################################

data_BALMOR
_chemical_formula_moiety         'C17 H23 N1 O4'
_chemical_name_systematic        
't-Butyl methyl (2S,3R)-3-phenylpyrrolidine-1,2-dicarboxylate'
_symmetry_cell_setting           orthorhombic
_symmetry_space_group_name_H-M   'P 21 21 21'
_symmetry_Int_Tables_number      19
_space_group_name_Hall           'P 2ac 2ab'
loop_
_symmetry_equiv_pos_site_id
_symmetry_equiv_pos_as_xyz
1 x,y,z
2 1/2-x,-y,1/2+z
3 1/2+x,1/2-y,-z
4 -x,1/2+y,1/2-z
_cell_length_a                   6.085(6)
_cell_length_b                   11.853(7)
_cell_length_c                   23.504(21)
_cell_angle_alpha                90
_cell_angle_beta                 90
_cell_angle_gamma                90
_cell_volume                     1695.24
_exptl_crystal_colour            colorless
_exptl_crystal_description       prism
_chemical_melting_point          90.4deg.C
_cell_formula_units_Z            4
_exptl_crystal_recrystallization_method dichloromethane/heptane
loop_
_atom_site_label
_atom_site_type_symbol
_atom_site_fract_x
_atom_site_fract_y
_atom_site_fract_z
N1 N 1.1985(3) 1.0372(2) 0.18127(8)
C1 C 1.1091(4) 1.1489(2) 0.17213(9)
H1 H 0.9596(4) 1.1534(2) 0.18743(9)
C2 C 1.2662(4) 1.2255(2) 0.20719(10)
H2 H 1.2099(4) 1.2280(2) 0.24623(10)
C3 C 1.4793(4) 1.1577(2) 0.20814(12)
H3 H 1.5617(4) 1.1683(2) 0.17323(12)
H4 H 1.5706(4) 1.1793(2) 0.24016(12)
C4 C 1.4022(4) 1.0370(2) 0.21388(11)
H5 H 1.5082(4) 0.9848(2) 0.19789(11)
H6 H 1.3758(4) 1.0174(2) 0.25337(11)
C5 C 1.1106(4) 1.1827(2) 0.11060(11)
O1 O 1.2450(3) 1.1561(2) 0.07637(7)
O2 O 0.9407(3) 1.25114(14) 0.10015(7)
C6 C 0.9373(6) 1.3041(3) 0.04526(12)
H7 H 0.8100(21) 1.3516(15) 0.0423(4)
H8 H 0.9321(35) 1.2473(3) 0.01619(13)
H9 H 1.0675(19) 1.3489(15) 0.0406(4)
C7 C 1.2796(4) 1.3455(2) 0.18604(10)
C8 C 1.1198(5) 1.4221(2) 0.20179(11)
H10 H 1.0078(5) 1.3996(2) 0.22617(11)
C9 C 1.1236(5) 1.5311(2) 0.18204(14)
H11 H 1.0149(5) 1.5814(2) 0.19347(14)
C10 C 1.2846(6) 1.5667(2) 0.14591(14)
H12 H 1.2853(6) 1.6404(2) 0.13232(14)
C11 C 1.4439(5) 1.4930(2) 0.13006(13)
H13 H 1.5550(5) 1.5167(2) 0.10565(13)
C12 C 1.4432(5) 1.3826(2) 0.14981(12)
H14 H 1.5537(5) 1.3333(2) 0.13857(12)
C13 C 1.1170(4) 0.9427(2) 0.15760(10)
O3 O 1.1950(3) 0.84941(15) 0.16397(8)
O4 O 0.9347(3) 0.96737(12) 0.12709(7)
C14 C 0.8490(4) 0.8882(2) 0.08428(11)
C15 C 0.7513(5) 0.7860(2) 0.11299(14)
H15 H 0.6899(24) 0.7367(7) 0.0848(2)
H16 H 0.6380(19) 0.8094(2) 0.1388(5)
H17 H 0.8640(8) 0.7468(8) 0.1336(6)
C16 C 0.6733(5) 0.9571(3) 0.05559(14)
H18 H 0.6033(20) 0.9125(5) 0.0267(5)
H19 H 0.7384(6) 1.0227(8) 0.0385(6)
H20 H 0.5661(16) 0.9800(13) 0.0832(2)
C17 C 1.0302(5) 0.8574(3) 0.04320(12)
H21 H 0.9703(7) 0.8138(13) 0.0125(4)
H22 H 1.1400(15) 0.8139(13) 0.0626(2)
H23 H 1.0956(20) 0.9250(3) 0.0284(6)
loop_
_geom_bond_atom_site_label_1
_geom_bond_atom_site_label_2
_geom_bond_site_symmetry_1
_geom_bond_site_symmetry_2
N1 C1 1_555 1_555
C1 H1 1_555 1_555
C2 C1 1_555 1_555
H2 C2 1_555 1_555
C3 C2 1_555 1_555
H3 C3 1_555 1_555
H4 C3 1_555 1_555
C4 N1 1_555 1_555
H5 C4 1_555 1_555
H6 C4 1_555 1_555
C5 C1 1_555 1_555
O1 C5 1_555 1_555
O2 C5 1_555 1_555
C6 O2 1_555 1_555
H7 C6 1_555 1_555
H8 C6 1_555 1_555
H9 C6 1_555 1_555
C7 C2 1_555 1_555
C8 C7 1_555 1_555
H10 C8 1_555 1_555
C9 C8 1_555 1_555
H11 C9 1_555 1_555
C10 C9 1_555 1_555
H12 C10 1_555 1_555
C11 C10 1_555 1_555
H13 C11 1_555 1_555
C12 C7 1_555 1_555
H14 C12 1_555 1_555
C13 N1 1_555 1_555
O3 C13 1_555 1_555
O4 C13 1_555 1_555
C14 O4 1_555 1_555
C15 C14 1_555 1_555
H15 C15 1_555 1_555
H16 C15 1_555 1_555
H17 C15 1_555 1_555
C16 C14 1_555 1_555
H18 C16 1_555 1_555
H19 C16 1_555 1_555
H20 C16 1_555 1_555
C17 C14 1_555 1_555
H21 C17 1_555 1_555
H22 C17 1_555 1_555
H23 C17 1_555 1_555
C3 C4 1_555 1_555
C11 C12 1_555 1_555

#END
