
#######################################################################
#
#                 Cambridge Crystallographic Data Centre
#                                CCDC 
#
#######################################################################
#
# If this CIF has been generated from an entry in the Cambridge 
# Structural Database, then it will include bibliographic, chemical, 
# crystal, experimental, refinement or atomic coordinate data resulting 
# from the CCDC's data processing and validation procedures.
#
#######################################################################

data_BALMUX
_chemical_formula_moiety         'C17 H20 N2 O5'
_chemical_name_systematic        'N-Phthaloyl-L-alanyl-L-valine methyl ester'
_symmetry_cell_setting           orthorhombic
_symmetry_space_group_name_H-M   'P 21 21 21'
_symmetry_Int_Tables_number      19
_space_group_name_Hall           'P 2ac 2ab'
loop_
_symmetry_equiv_pos_site_id
_symmetry_equiv_pos_as_xyz
1 x,y,z
2 1/2-x,-y,1/2+z
3 -x,1/2+y,1/2-z
4 1/2+x,1/2-y,-z
_cell_length_a                   9.109(2)
_cell_length_b                   10.553(2)
_cell_length_c                   18.244(4)
_cell_angle_alpha                90
_cell_angle_beta                 90
_cell_angle_gamma                90
_cell_volume                     1753.75
_exptl_crystal_colour            colorless
_chemical_melting_point          108-111deg.C
_cell_formula_units_Z            4
loop_
_atom_site_label
_atom_site_type_symbol
_atom_site_fract_x
_atom_site_fract_y
_atom_site_fract_z
N1 N 0.2130(3) 0.9290(3) 0.3961(2)
N2 N 0.0986(4) 0.6033(3) 0.4276(2)
H1 H 0.0651(47) 0.6036(41) 0.4618(23)
O1 O -0.0173(4) 0.9696(4) 0.3489(2)
O2 O 0.4651(3) 0.9156(3) 0.40645(15)
O3 O 0.2078(4) 0.7031(3) 0.3341(2)
O4 O -0.1069(3) 0.3633(3) 0.3383(2)
O5 O -0.1675(4) 0.4811(4) 0.4343(2)
C1 C 0.1130(5) 0.9887(3) 0.3491(2)
C2 C 0.1998(4) 1.0726(3) 0.3010(2)
C3 C 0.1588(6) 1.1573(4) 0.2470(2)
H2 H 0.0606(6) 1.1732(4) 0.2367(2)
C4 C 0.2706(8) 1.2176(5) 0.2088(3)
H3 H 0.2466(8) 1.2764(5) 0.1728(3)
C5 C 0.4175(7) 1.1922(5) 0.2230(3)
H4 H 0.4896(7) 1.2314(5) 0.1950(3)
C6 C 0.4575(5) 1.1107(5) 0.2776(3)
H5 H 0.5560(5) 1.0955(5) 0.2879(3)
C7 C 0.3476(4) 1.0511(3) 0.3174(2)
C8 C 0.3565(4) 0.9592(3) 0.3773(2)
C9 C 0.1793(5) 0.8234(3) 0.4445(2)
H6 H 0.2672(5) 0.8094(3) 0.4745(2)
C10 C 0.0569(6) 0.8519(4) 0.4970(3)
H7 H 0.0797(6) 0.9276(4) 0.5239(3)
H8 H 0.0453(6) 0.7824(4) 0.5304(3)
H9 H -0.0326(6) 0.8641(4) 0.4701(3)
C11 C 0.1613(4) 0.7041(3) 0.3962(2)
C12 C 0.0796(4) 0.4851(3) 0.3862(2)
H10 H 0.1016(4) 0.5034(3) 0.3347(2)
C13 C 0.1808(6) 0.3777(4) 0.4103(3)
H11 H 0.1550(6) 0.3025(4) 0.3816(3)
C14 C 0.1598(9) 0.3461(8) 0.4885(4)
H12 H 0.0586(9) 0.3258(8) 0.4972(4)
H13 H 0.1875(9) 0.4174(8) 0.5182(4)
H14 H 0.2199(9) 0.2745(8) 0.5010(4)
C15 C 0.3395(7) 0.4107(7) 0.3931(4)
H15 H 0.3487(7) 0.4306(7) 0.3420(4)
H16 H 0.4013(7) 0.3397(7) 0.4047(4)
H17 H 0.3688(7) 0.4826(7) 0.4219(4)
C16 C -0.0788(5) 0.4457(4) 0.3905(2)
C17 C -0.2547(6) 0.3142(6) 0.3333(3)
H18 H -0.2607(6) 0.2554(6) 0.2932(3)
H19 H -0.3219(6) 0.3829(6) 0.3251(3)
H20 H -0.2797(6) 0.2718(6) 0.3781(3)
loop_
_geom_bond_atom_site_label_1
_geom_bond_atom_site_label_2
_geom_bond_site_symmetry_1
_geom_bond_site_symmetry_2
N1 C1 1_555 1_555
N2 H1 1_555 1_555
O1 C1 1_555 1_555
O2 C8 1_555 1_555
O3 C11 1_555 1_555
O4 C16 1_555 1_555
O5 C16 1_555 1_555
C1 C2 1_555 1_555
C2 C3 1_555 1_555
C3 H2 1_555 1_555
C4 C3 1_555 1_555
H3 C4 1_555 1_555
C5 C4 1_555 1_555
H4 C5 1_555 1_555
C6 C5 1_555 1_555
H5 C6 1_555 1_555
C7 C2 1_555 1_555
C8 N1 1_555 1_555
C9 N1 1_555 1_555
H6 C9 1_555 1_555
C10 C9 1_555 1_555
H7 C10 1_555 1_555
H8 C10 1_555 1_555
H9 C10 1_555 1_555
C11 N2 1_555 1_555
C12 N2 1_555 1_555
H10 C12 1_555 1_555
C13 C12 1_555 1_555
H11 C13 1_555 1_555
C14 C13 1_555 1_555
H12 C14 1_555 1_555
H13 C14 1_555 1_555
H14 C14 1_555 1_555
C15 C13 1_555 1_555
H15 C15 1_555 1_555
H16 C15 1_555 1_555
H17 C15 1_555 1_555
C16 C12 1_555 1_555
C17 O4 1_555 1_555
H18 C17 1_555 1_555
H19 C17 1_555 1_555
H20 C17 1_555 1_555
C6 C7 1_555 1_555
C7 C8 1_555 1_555
C9 C11 1_555 1_555

#END
