
#######################################################################
#
#                 Cambridge Crystallographic Data Centre
#                                CCDC 
#
#######################################################################
#
# If this CIF has been generated from an entry in the Cambridge 
# Structural Database, then it will include bibliographic, chemical, 
# crystal, experimental, refinement or atomic coordinate data resulting 
# from the CCDC's data processing and validation procedures.
#
#######################################################################

data_BALNAE
_chemical_formula_moiety         'C17 H20 N2 O5'
_chemical_name_systematic        'N-Phthaloyl-L-alanyl-D-valine methyl ester'
_symmetry_cell_setting           orthorhombic
_symmetry_space_group_name_H-M   'P 21 21 21'
_symmetry_Int_Tables_number      19
_space_group_name_Hall           'P 2ac 2ab'
loop_
_symmetry_equiv_pos_site_id
_symmetry_equiv_pos_as_xyz
1 x,y,z
2 1/2-x,-y,1/2+z
3 -x,1/2+y,1/2-z
4 1/2+x,1/2-y,-z
_cell_length_a                   8.662(2)
_cell_length_b                   11.277(2)
_cell_length_c                   17.901(4)
_cell_angle_alpha                90
_cell_angle_beta                 90
_cell_angle_gamma                90
_cell_volume                     1748.59
_exptl_crystal_colour            colorless
_exptl_crystal_description       plates
_chemical_melting_point          136-138deg.C
_cell_formula_units_Z            4
loop_
_atom_site_label
_atom_site_type_symbol
_atom_site_fract_x
_atom_site_fract_y
_atom_site_fract_z
N1 N 0.8237(3) 0.9095(3) 0.3932(2)
N2 N 0.9050(4) 0.5975(3) 0.4307(2)
H1 H 0.9521(57) 0.6001(44) 0.4823(28)
O1 O 0.5616(3) 0.8825(3) 0.4085(2)
O2 O 1.0594(3) 0.9706(3) 0.3461(2)
O3 O 0.7939(4) 0.6935(2) 0.33402(15)
O4 O 1.0790(4) 0.3603(4) 0.3392(2)
O5 O 1.1457(5) 0.4380(3) 0.4473(3)
C1 C 0.6694(4) 0.9320(3) 0.3795(2)
C2 C 0.6655(5) 1.0287(3) 0.3221(2)
C3 C 0.5419(5) 1.0851(4) 0.2895(2)
H2 H 0.4407(5) 1.0657(4) 0.3019(2)
C4 C 0.5753(7) 1.1732(4) 0.2368(3)
H3 H 0.4948(7) 1.2121(4) 0.2127(3)
C5 C 0.7266(7) 1.2033(5) 0.2199(2)
H4 H 0.7452(7) 1.2641(5) 0.1860(2)
C6 C 0.8497(6) 1.1456(4) 0.2520(2)
H5 H 0.9510(6) 1.1646(4) 0.2396(2)
C7 C 0.8157(5) 1.0570(3) 0.3043(2)
C8 C 0.9199(4) 0.9785(3) 0.3475(2)
C9 C 0.8833(4) 0.8109(3) 0.4375(2)
H6 H 0.9955(4) 0.8211(3) 0.4405(2)
C10 C 0.8226(6) 0.8124(4) 0.5174(2)
H7 H 0.8450(6) 0.8877(4) 0.5398(2)
H8 H 0.8716(6) 0.7505(4) 0.5456(2)
H9 H 0.7130(6) 0.7998(4) 0.5170(2)
C11 C 0.8544(4) 0.6949(3) 0.3958(2)
C12 C 0.8949(6) 0.4806(4) 0.3971(3)
H10 H 0.8626(6) 0.4897(4) 0.3450(3)
C13 C 0.7789(8) 0.3988(6) 0.4366(8)
C15 C 0.7763(19) 0.2782(10) 0.4315(8)
H16 H 0.6936 0.2475 0.4614
H17 H 0.8729 0.2469 0.4497
H18 H 0.7624 0.2552 0.3805
C16 C 0.6189(13) 0.4436(15) 0.4044(20)
H19 H 0.6334 0.4628 0.3513
H20 H 0.5808 0.5068 0.4304
H21 H 0.5461 0.3763 0.4053
C18 C 1.0528(5) 0.4254(4) 0.3981(3)
C19 C 1.2256(8) 0.3004(7) 0.3353(4)
H25 H 1.2313(8) 0.2556(7) 0.2898(4)
H26 H 1.2358(8) 0.2477(7) 0.3772(4)
H27 H 1.3074(8) 0.3578(7) 0.3364(4)
H11? H 0.7908 0.4404 0.4853
H12? H 0.7957 0.4134 0.4886
C14? C 0.8084(21) 0.3634(13) 0.4993(9)
H13? H 0.7257 0.3137 0.5168
H14? H 0.8189 0.4303 0.5324
H15? H 0.9026 0.3192 0.4987
C17? C 0.6199(25) 0.4554(22) 0.4594(18)
H22? H 0.6320 0.5418 0.4596
H23? H 0.5862 0.4282 0.5050
H24? H 0.5448 0.4375 0.4199
loop_
_geom_bond_atom_site_label_1
_geom_bond_atom_site_label_2
_geom_bond_site_symmetry_1
_geom_bond_site_symmetry_2
N1 C1 1_555 1_555
N2 H1 1_555 1_555
O1 C1 1_555 1_555
O2 C8 1_555 1_555
O3 C11 1_555 1_555
O4 C18 1_555 1_555
O5 C18 1_555 1_555
C1 C2 1_555 1_555
C2 C3 1_555 1_555
C3 H2 1_555 1_555
C4 C3 1_555 1_555
H3 C4 1_555 1_555
C5 C4 1_555 1_555
H4 C5 1_555 1_555
C6 C5 1_555 1_555
H5 C6 1_555 1_555
C7 C2 1_555 1_555
C8 N1 1_555 1_555
C9 N1 1_555 1_555
H6 C9 1_555 1_555
C10 C9 1_555 1_555
H7 C10 1_555 1_555
H8 C10 1_555 1_555
H9 C10 1_555 1_555
C11 N2 1_555 1_555
C12 N2 1_555 1_555
H10 C12 1_555 1_555
C13 C12 1_555 1_555
C15 C13 1_555 1_555
H16 C15 1_555 1_555
H17 C15 1_555 1_555
H18 C15 1_555 1_555
C16 C13 1_555 1_555
H19 C16 1_555 1_555
H20 C16 1_555 1_555
H21 C16 1_555 1_555
C18 C12 1_555 1_555
C19 O4 1_555 1_555
H25 C19 1_555 1_555
H26 C19 1_555 1_555
H27 C19 1_555 1_555
C6 C7 1_555 1_555
C7 C8 1_555 1_555
C9 C11 1_555 1_555

#END
