
#######################################################################
#
#                 Cambridge Crystallographic Data Centre
#                                CCDC 
#
#######################################################################
#
# If this CIF has been generated from an entry in the Cambridge 
# Structural Database, then it will include bibliographic, chemical, 
# crystal, experimental, refinement or atomic coordinate data resulting 
# from the CCDC's data processing and validation procedures.
#
#######################################################################

data_BALPOW
_chemical_formula_moiety         'C17 H14 N2 O6 S2'
_chemical_name_systematic        
'6-((4-methylphenyl)sulfonyl)-2,3-dihydro[1,4]thiazino[3,2-f]indole-5,9(1H,6H)-dione 4,4-dioxide'
_symmetry_cell_setting           monoclinic
_symmetry_space_group_name_H-M   'P 21/c'
_symmetry_Int_Tables_number      14
_space_group_name_Hall           '-P 2ybc'
loop_
_symmetry_equiv_pos_site_id
_symmetry_equiv_pos_as_xyz
1 x,y,z
2 -x,1/2+y,1/2-z
3 -x,-y,-z
4 x,1/2-y,1/2+z
_cell_length_a                   11.6802(7)
_cell_length_b                   28.0975(14)
_cell_length_c                   10.3047(6)
_cell_angle_alpha                90
_cell_angle_beta                 91.539(5)
_cell_angle_gamma                90
_cell_volume                     3380.62
_exptl_crystal_colour            red
_exptl_crystal_description       block
_cell_formula_units_Z            8
loop_
_atom_site_label
_atom_site_type_symbol
_atom_site_fract_x
_atom_site_fract_y
_atom_site_fract_z
C1 C 0.5829(2) 0.13887(10) 0.1048(3)
C2 C 0.5316(2) 0.09390(10) 0.1504(3)
C3 C 0.6080(2) 0.05302(10) 0.1437(3)
C4 C 0.7099(3) 0.05372(10) 0.0768(3)
C5 C 0.7560(3) 0.10013(10) 0.0238(3)
C6 C 0.6871(2) 0.14227(10) 0.0471(3)
C7 C 0.7091(3) 0.19056(10) 0.0169(3)
H1 H 0.7737 0.2026 -0.0224
C8 C 0.6172(3) 0.21583(10) 0.0566(3)
H2 H 0.6079 0.2486 0.0485
C9 C 0.3116(2) 0.18321(10) 0.0635(3)
C10 C 0.2145(3) 0.16117(12) 0.1072(3)
H3 H 0.2053 0.1561 0.1955
C11 C 0.1304(3) 0.14652(12) 0.0175(3)
H4 H 0.0639 0.1321 0.0459
C12 C 0.1457(3) 0.15357(10) -0.1153(3)
C13 C 0.2439(3) 0.17595(11) -0.1558(3)
H5 H 0.2541 0.1806 -0.2441
C14 C 0.3275(3) 0.19162(11) -0.0681(3)
H6 H 0.3925 0.2073 -0.0962
C15 C 0.0556(3) 0.13668(12) -0.2128(3)
H7 H 0.0702 0.1041 -0.2351
H8 H 0.0580 0.1560 -0.2894
H9 H -0.0187 0.1392 -0.1757
C16 C 0.7425(3) -0.03177(11) 0.0801(3)
H10 H 0.8094 -0.0522 0.0782
H11 H 0.6873 -0.0432 0.0155
C17 C 0.6908(3) -0.03378(12) 0.2138(3)
H12 H 0.7456 -0.0216 0.2779
H13 H 0.6742 -0.0666 0.2357
N1 N 0.5391(2) 0.18476(8) 0.1115(2)
N2 N 0.7750(2) 0.01675(9) 0.0495(3)
O1 O 0.40259(18) 0.18387(8) 0.2997(2)
O2 O 0.42422(18) 0.25524(7) 0.1630(2)
O3 O 0.43330(17) 0.09103(8) 0.1888(2)
O4 O 0.8441(2) 0.10010(8) -0.0360(3)
O5 O 0.47563(19) -0.02323(8) 0.1418(2)
O6 O 0.53890(19) 0.00992(8) 0.3523(2)
S1 S 0.41509(6) 0.20458(2) 0.17511(6)
S2 S 0.56277(6) 0.00033(2) 0.21811(7)
H14 H 0.835(3) 0.0193(14) 0.012(4)
C18 C 1.0848(2) 0.13735(10) 0.4045(3)
C19 C 1.0293(2) 0.09316(10) 0.3562(3)
C20 C 1.1042(2) 0.05203(10) 0.3553(3)
C21 C 1.2168(2) 0.05316(10) 0.4011(3)
C22 C 1.2670(2) 0.09828(10) 0.4626(3)
C23 C 1.1940(2) 0.14006(10) 0.4562(3)
C24 C 1.2180(2) 0.18783(10) 0.4923(3)
H15 H 1.2858 0.1993 0.5299
C25 C 1.1230(2) 0.21343(10) 0.4614(3)
H16 H 1.1145 0.2460 0.4741
C26 C 0.8136(2) 0.18171(10) 0.4516(3)
C27 C 0.7208(3) 0.15560(12) 0.4053(3)
H17 H 0.7139 0.1478 0.3177
C28 C 0.6379(3) 0.14114(12) 0.4915(3)
H18 H 0.5751 0.1237 0.4611
C29 C 0.6481(3) 0.15255(10) 0.6230(3)
C30 C 0.7428(3) 0.17790(11) 0.6670(3)
H19 H 0.7515 0.1845 0.7551
C31 C 0.8254(3) 0.19373(10) 0.5824(3)
H20 H 0.8871 0.2119 0.6124
C32 C 0.5569(3) 0.13784(11) 0.7168(3)
H21 H 0.4830 0.1394 0.6740
H22 H 0.5587 0.1589 0.7901
H23 H 0.5713 0.1059 0.7458
C33 C 1.2662(3) -0.02814(12) 0.3378(4)
H24 H 1.3197 -0.0520 0.3705
H25 H 1.2750 -0.0254 0.2448
C34 C 1.1456(3) -0.04290(12) 0.3665(4)
H26 H 1.1361 -0.0441 0.4596
H27 H 1.1308 -0.0744 0.3314
O7 O 0.9361(2) -0.01106(11) 0.3522(3)
N3 N 1.0397(2) 0.18316(8) 0.4072(2)
N4 N 1.2904(2) 0.01754(9) 0.3999(3)
O8 O 0.89781(18) 0.18535(8) 0.2172(2)
O9 O 0.92421(18) 0.25459(7) 0.3630(2)
O10 O 0.92823(18) 0.09210(8) 0.3208(2)
O11 O 1.36200(18) 0.09714(7) 0.5126(2)
O12 O 1.0493(2) -0.00209(9) 0.1562(2)
S3 S 0.91377(6) 0.20412(2) 0.34443(7)
S4 S 1.04695(6) -0.00163(2) 0.29614(7)
H28 H 1.355(4) 0.0247(17) 0.429(5)
C35? C 1.1812(12) -0.0317(9) 0.292(2)
H29? H 1.1679 -0.0646 0.2674
H30? H 1.2275 -0.0172 0.2261
C36? C 1.247(2) -0.0306(4) 0.420(2)
H31? H 1.1979 -0.0330 0.4940
H32? H 1.3072 -0.0543 0.4254
O13? O 0.9695(18) -0.0281(8) 0.3760(18)
loop_
_geom_bond_atom_site_label_1
_geom_bond_atom_site_label_2
_geom_bond_site_symmetry_1
_geom_bond_site_symmetry_2
C1 C2 1_555 1_555
C2 C3 1_555 1_555
C3 C4 1_555 1_555
C4 C5 1_555 1_555
C5 C6 1_555 1_555
C6 C1 1_555 1_555
C7 C6 1_555 1_555
H1 C7 1_555 1_555
C8 C7 1_555 1_555
H2 C8 1_555 1_555
C9 C10 1_555 1_555
C10 H3 1_555 1_555
C11 C10 1_555 1_555
H4 C11 1_555 1_555
C12 C11 1_555 1_555
C13 C12 1_555 1_555
H5 C13 1_555 1_555
C14 C9 1_555 1_555
H6 C14 1_555 1_555
C15 C12 1_555 1_555
H7 C15 1_555 1_555
H8 C15 1_555 1_555
H9 C15 1_555 1_555
C16 H10 1_555 1_555
H11 C16 1_555 1_555
C17 C16 1_555 1_555
H12 C17 1_555 1_555
H13 C17 1_555 1_555
N1 C1 1_555 1_555
N2 C4 1_555 1_555
O1 S1 1_555 1_555
O2 S1 1_555 1_555
O3 C2 1_555 1_555
O4 C5 1_555 1_555
O5 S2 1_555 1_555
O6 S2 1_555 1_555
S1 C9 1_555 1_555
S2 C3 1_555 1_555
H14 N2 1_555 1_555
C18 C19 1_555 1_555
C19 C20 1_555 1_555
C20 C21 1_555 1_555
C21 C22 1_555 1_555
C22 C23 1_555 1_555
C23 C18 1_555 1_555
C24 C23 1_555 1_555
H15 C24 1_555 1_555
C25 C24 1_555 1_555
H16 C25 1_555 1_555
C26 C27 1_555 1_555
C27 H17 1_555 1_555
C28 C27 1_555 1_555
H18 C28 1_555 1_555
C29 C28 1_555 1_555
C30 C29 1_555 1_555
H19 C30 1_555 1_555
C31 C26 1_555 1_555
H20 C31 1_555 1_555
C32 C29 1_555 1_555
H21 C32 1_555 1_555
H22 C32 1_555 1_555
H23 C32 1_555 1_555
C33 H24 1_555 1_555
H25 C33 1_555 1_555
C34 C33 1_555 1_555
H26 C34 1_555 1_555
H27 C34 1_555 1_555
O7 S4 1_555 1_555
N3 C18 1_555 1_555
N4 C21 1_555 1_555
O8 S3 1_555 1_555
O9 S3 1_555 1_555
O10 C19 1_555 1_555
O11 C22 1_555 1_555
O12 S4 1_555 1_555
S3 C26 1_555 1_555
S4 C20 1_555 1_555
H28 N4 1_555 1_555
C8 N1 1_555 1_555
C13 C14 1_555 1_555
C16 N2 1_555 1_555
C17 S2 1_555 1_555
N1 S1 1_555 1_555
C25 N3 1_555 1_555
C30 C31 1_555 1_555
C33 N4 1_555 1_555
C34 S4 1_555 1_555
N3 S3 1_555 1_555

#END
