
#######################################################################
#
#                 Cambridge Crystallographic Data Centre
#                                CCDC 
#
#######################################################################
#
# If this CIF has been generated from an entry in the Cambridge 
# Structural Database, then it will include bibliographic, chemical, 
# crystal, experimental, refinement or atomic coordinate data resulting 
# from the CCDC's data processing and validation procedures.
#
#######################################################################

data_BALPUB
_chemical_name_common            'Ethyl 16-isothiocyanatobeyeran-18-oate'
_chemical_formula_moiety         'C23 H35 N1 O2 S1'
_chemical_name_systematic        'ethyl ent-16\b-isothiocyanobeyeran-19-oate'
_symmetry_cell_setting           monoclinic
_symmetry_space_group_name_H-M   'P 21'
_symmetry_Int_Tables_number      4
_space_group_name_Hall           'P 2yb'
loop_
_symmetry_equiv_pos_site_id
_symmetry_equiv_pos_as_xyz
1 x,y,z
2 -x,1/2+y,-z
_cell_length_a                   7.2618(7)
_cell_length_b                   12.1436(15)
_cell_length_c                   12.6476(19)
_cell_angle_alpha                90
_cell_angle_beta                 96.170(11)
_cell_angle_gamma                90
_cell_volume                     1108.86
_exptl_crystal_colour            colorless
_exptl_crystal_description       prismatic
_chemical_melting_point          '85-87 deg.C'
_cell_formula_units_Z            2
_exptl_crystal_recrystallization_method ethanol
loop_
_atom_site_label
_atom_site_type_symbol
_atom_site_fract_x
_atom_site_fract_y
_atom_site_fract_z
S1 S -0.01944(18) 0.92097(15) 0.89595(15)
C1 C 0.3867(3) 0.5757(2) 0.7204(2)
H1 H 0.4239 0.4982 0.7260
C2 C 0.3237(3) 0.5954(2) 0.5997(2)
C3 C 0.4965(3) 0.5849(2) 0.5384(2)
H2 H 0.5460 0.5117 0.5576
C4 C 0.1863(4) 0.5025(2) 0.5607(3)
H3 H 0.2384 0.4325 0.5856
H4 H 0.0722 0.5132 0.5928
O1 O 0.2418(3) 0.69106(19) 0.30243(19)
C5 C 0.7128(3) 0.6372(3) 0.6967(3)
H5 H 0.8094 0.6886 0.7227
H6 H 0.7661 0.5638 0.7005
O2 O 0.4880(4) 0.7764(2) 0.3812(2)
C6 C 0.3141(5) 0.4911(2) 0.3843(3)
H7 H 0.2778 0.4952 0.3083
H8 H 0.3728 0.4201 0.3989
C7 C 0.1408(4) 0.4966(3) 0.4415(3)
H9 H 0.0692 0.5610 0.4173
H10 H 0.0653 0.4321 0.4236
C8 C 0.4554(4) 0.5811(2) 0.4148(2)
C9 C 0.6215(4) 0.5917(3) 0.8784(3)
H11 H 0.6262 0.5120 0.8741
H12 H 0.7429 0.6190 0.9059
C10 C 0.2246(4) 0.7073(2) 0.5772(3)
H13 H 0.1295 0.7159 0.6238
H14 H 0.1700 0.7093 0.5047
H15 H 0.3128 0.7660 0.5892
C11 C 0.6498(3) 0.6637(2) 0.5819(2)
H16 H 0.7537 0.6576 0.5401
H17 H 0.6045 0.7389 0.5764
C12 C 0.2299(4) 0.5877(3) 0.7920(2)
H18 H 0.1762 0.6606 0.7822
H19 H 0.1338 0.5345 0.7701
C13 C 0.4748(5) 0.6287(3) 0.9481(3)
C14 C 0.5587(3) 0.6421(2) 0.7692(2)
C15 C 0.3992(4) 0.6936(3) 0.3666(3)
C16 C 0.5086(4) 0.7602(3) 0.8018(2)
H20 H 0.6104 0.8103 0.7942
H21 H 0.3997 0.7864 0.7579
C17 C 0.2940(5) 0.5708(3) 0.9092(3)
H22 H 0.3089 0.4925 0.9226
H23 H 0.1979 0.5971 0.9506
N1 N 0.3030(5) 0.8078(3) 0.9422(3)
C18 C 0.4705(5) 0.7524(3) 0.9194(3)
H24 H 0.5744 0.7877 0.9624
C19 C 0.1648(5) 0.8538(3) 0.9205(3)
C20 C 0.6355(5) 0.5515(3) 0.3647(3)
H25 H 0.7155 0.6146 0.3673
H26 H 0.6045 0.5296 0.2920
H27 H 0.6977 0.4920 0.4037
C21 C 0.5237(7) 0.6095(4) 1.0670(3)
H28 H 0.5223 0.5319 1.0816
H29 H 0.4347 0.6460 1.1057
H30 H 0.6450 0.6385 1.0886
C22 C 0.1785(7) 0.7937(3) 0.2525(4)
H31 H 0.2655 0.8185 0.2045
H32 H 0.1698 0.8500 0.3061
C23 C -0.0020(8) 0.7752(5) 0.1940(5)
H33 H -0.0365 0.8383 0.1506
H34 H -0.0921 0.7636 0.2432
H35 H 0.0032 0.7114 0.1495
loop_
_geom_bond_atom_site_label_1
_geom_bond_atom_site_label_2
_geom_bond_site_symmetry_1
_geom_bond_site_symmetry_2
S1 C19 1_555 1_555
C1 H1 1_555 1_555
C2 C1 1_555 1_555
C3 C2 1_555 1_555
H2 C3 1_555 1_555
C4 C2 1_555 1_555
H3 C4 1_555 1_555
H4 C4 1_555 1_555
O1 C15 1_555 1_555
C5 H5 1_555 1_555
H6 C5 1_555 1_555
O2 C15 1_555 1_555
C6 H7 1_555 1_555
H8 C6 1_555 1_555
C7 C4 1_555 1_555
H9 C7 1_555 1_555
H10 C7 1_555 1_555
C8 C3 1_555 1_555
C9 H11 1_555 1_555
H12 C9 1_555 1_555
C10 C2 1_555 1_555
H13 C10 1_555 1_555
H14 C10 1_555 1_555
H15 C10 1_555 1_555
C11 C3 1_555 1_555
H16 C11 1_555 1_555
H17 C11 1_555 1_555
C12 C1 1_555 1_555
H18 C12 1_555 1_555
H19 C12 1_555 1_555
C13 C9 1_555 1_555
C14 C1 1_555 1_555
C15 C8 1_555 1_555
C16 C14 1_555 1_555
H20 C16 1_555 1_555
H21 C16 1_555 1_555
C17 C12 1_555 1_555
H22 C17 1_555 1_555
H23 C17 1_555 1_555
N1 C18 1_555 1_555
C18 C13 1_555 1_555
H24 C18 1_555 1_555
C19 N1 1_555 1_555
C20 C8 1_555 1_555
H25 C20 1_555 1_555
H26 C20 1_555 1_555
H27 C20 1_555 1_555
C21 C13 1_555 1_555
H28 C21 1_555 1_555
H29 C21 1_555 1_555
H30 C21 1_555 1_555
C22 O1 1_555 1_555
H31 C22 1_555 1_555
H32 C22 1_555 1_555
C23 C22 1_555 1_555
H33 C23 1_555 1_555
H34 C23 1_555 1_555
H35 C23 1_555 1_555
C5 C11 1_555 1_555
C5 C14 1_555 1_555
C6 C7 1_555 1_555
C6 C8 1_555 1_555
C9 C14 1_555 1_555
C13 C17 1_555 1_555
C16 C18 1_555 1_555

#END
