
#######################################################################
#
#                 Cambridge Crystallographic Data Centre
#                                CCDC 
#
#######################################################################
#
# If this CIF has been generated from an entry in the Cambridge 
# Structural Database, then it will include bibliographic, chemical, 
# crystal, experimental, refinement or atomic coordinate data resulting 
# from the CCDC's data processing and validation procedures.
#
#######################################################################

data_BALQEM
_chemical_formula_moiety         'C16 H11 Cl2 N1 O3'
_chemical_name_systematic        
6-Chloro-1-(4-chlorobenzoyl)-2,3-dihydro-1H-pyrrolizine-5,7-dicarbaldehyde
_symmetry_cell_setting           monoclinic
_symmetry_space_group_name_H-M   'P 21/n'
_symmetry_Int_Tables_number      14
_space_group_name_Hall           '-P 2yn'
loop_
_symmetry_equiv_pos_site_id
_symmetry_equiv_pos_as_xyz
1 x,y,z
2 1/2-x,1/2+y,1/2-z
3 -x,-y,-z
4 1/2+x,1/2-y,1/2+z
_cell_length_a                   6.393(13)
_cell_length_b                   9.37(2)
_cell_length_c                   26.44(6)
_cell_angle_alpha                90
_cell_angle_beta                 92.38(2)
_cell_angle_gamma                90
_cell_volume                     1582.45
_exptl_crystal_colour            colorless
_exptl_crystal_description       block
_cell_formula_units_Z            4
loop_
_atom_site_label
_atom_site_type_symbol
_atom_site_fract_x
_atom_site_fract_y
_atom_site_fract_z
C1 C 0.9524(14) 0.0667(11) 0.1114(4)
C2 C 0.7730(15) 0.1362(11) 0.0965(3)
C3 C 0.6895(14) 0.2032(10) 0.1393(3)
C4 C 0.8249(14) 0.1644(9) 0.1799(3)
C5 C 0.8527(12) 0.1872(9) 0.2351(3)
H1 H 0.8458 0.2895 0.2426
C6 C 1.0832(12) 0.1310(10) 0.2461(3)
H2 H 1.1816 0.2099 0.2480
H3 H 1.0929 0.0787 0.2778
C7 C 1.1291(13) 0.0326(10) 0.2015(3)
H4 H 1.2722 0.0431 0.1912
H5 H 1.1032 -0.0667 0.2096
C8 C 0.6969(13) 0.1069(10) 0.2663(4)
C9 C 0.6891(13) 0.1306(9) 0.3215(3)
C10 C 0.8244(13) 0.2228(10) 0.3482(4)
H6 H 0.9166 0.2783 0.3303
C11 C 0.8265(15) 0.2349(11) 0.4005(4)
H7 H 0.9218 0.2939 0.4178
C12 C 0.6836(18) 0.1569(13) 0.4255(3)
C13 C 0.5404(15) 0.0680(12) 0.4016(4)
H8 H 0.4418 0.0191 0.4198
C14 C 0.5468(14) 0.0532(9) 0.3495(4)
H9 H 0.4547 -0.0095 0.3328
C15 C 1.0973(18) -0.0162(13) 0.0817(4)
H10 H 1.0673 -0.0237 0.0471
C16 C 0.5033(15) 0.2892(11) 0.1422(4)
H11 H 0.4290 0.3081 0.1120
Cl1 Cl 0.6651(4) 0.1461(4) 0.03613(10)
Cl2 Cl 0.6745(6) 0.1752(4) 0.49136(11)
N1 N 0.9799(11) 0.0847(8) 0.1624(3)
O1 O 0.5773(9) 0.0210(6) 0.2444(2)
O2 O 0.4343(10) 0.3394(7) 0.1805(3)
O3 O 1.2529(12) -0.0757(9) 0.0985(3)
loop_
_geom_bond_atom_site_label_1
_geom_bond_atom_site_label_2
_geom_bond_site_symmetry_1
_geom_bond_site_symmetry_2
C1 C2 1_555 1_555
C2 C3 1_555 1_555
C3 C4 1_555 1_555
C4 C5 1_555 1_555
C5 H1 1_555 1_555
C6 C5 1_555 1_555
H2 C6 1_555 1_555
H3 C6 1_555 1_555
C7 C6 1_555 1_555
H4 C7 1_555 1_555
H5 C7 1_555 1_555
C8 C5 1_555 1_555
C9 C8 1_555 1_555
C10 C9 1_555 1_555
H6 C10 1_555 1_555
C11 C10 1_555 1_555
H7 C11 1_555 1_555
C12 C11 1_555 1_555
C13 C12 1_555 1_555
H8 C13 1_555 1_555
C14 C9 1_555 1_555
H9 C14 1_555 1_555
C15 C1 1_555 1_555
H10 C15 1_555 1_555
C16 C3 1_555 1_555
H11 C16 1_555 1_555
Cl1 C2 1_555 1_555
Cl2 C12 1_555 1_555
N1 C1 1_555 1_555
O1 C8 1_555 1_555
O2 C16 1_555 1_555
O3 C15 1_555 1_555
C4 N1 1_555 1_555
C7 N1 1_555 1_555
C13 C14 1_555 1_555

#END
