
#######################################################################
#
#                 Cambridge Crystallographic Data Centre
#                                CCDC 
#
#######################################################################
#
# If this CIF has been generated from an entry in the Cambridge 
# Structural Database, then it will include bibliographic, chemical, 
# crystal, experimental, refinement or atomic coordinate data resulting 
# from the CCDC's data processing and validation procedures.
#
#######################################################################

data_BALQIP
_chemical_formula_moiety         'C11 H9 Br2 N1 O4'
_chemical_name_systematic        
'(Z)-Methyl 2-(dibromomethyl)-3-(p-nitrophenyl)-2-propenoate'
_symmetry_cell_setting           triclinic
_symmetry_space_group_name_H-M   'P -1'
_symmetry_Int_Tables_number      2
_space_group_name_Hall           '-P 1'
loop_
_symmetry_equiv_pos_site_id
_symmetry_equiv_pos_as_xyz
1 x,y,z
2 -x,-y,-z
_cell_length_a                   10.566(3)
_cell_length_b                   11.427(5)
_cell_length_c                   5.764(1)
_cell_angle_alpha                92.27(3)
_cell_angle_beta                 102.09(2)
_cell_angle_gamma                71.23(3)
_cell_volume                     644.016
_exptl_crystal_colour            colorless
_exptl_crystal_description       prismatic
_chemical_melting_point          130-131deg.C
_cell_formula_units_Z            2
loop_
_atom_site_label
_atom_site_type_symbol
_atom_site_fract_x
_atom_site_fract_y
_atom_site_fract_z
Br1 Br 0.39405(4) 0.08572(3) 0.18574(6)
Br2 Br 0.17875(4) 0.02665(4) 0.43892(8)
O1 O -0.0114(3) 0.4110(2) 0.2297(5)
O2 O 0.0793(2) 0.2420(2) 0.0396(4)
O3 O 0.8022(3) 0.2393(3) 1.2977(5)
O4 O 0.6729(3) 0.3795(3) 1.4831(5)
N1 N 0.6914(3) 0.3131(3) 1.3150(5)
C1 C 0.2865(3) 0.1350(3) 0.4306(5)
C2 C 0.2035(3) 0.2683(3) 0.4122(5)
C3 C 0.2337(3) 0.3517(3) 0.5636(5)
C4 C 0.0773(3) 0.3154(3) 0.2203(6)
C5 C 0.3534(3) 0.3376(3) 0.7556(5)
C6 C 0.3360(3) 0.4074(3) 0.9582(6)
C7 C 0.4460(3) 0.3991(3) 1.1427(6)
C8 C 0.5736(3) 0.3208(3) 1.1214(5)
C9 C 0.5951(3) 0.2522(3) 0.9248(6)
C10 C 0.4858(3) 0.2610(3) 0.7409(6)
C11 C -0.0367(4) 0.2802(4) -0.1582(7)
H1 H 0.3498 0.1229 0.5781
H2 H 0.1678 0.4316 0.5442
H3 H 0.2479 0.4607 0.9691
H4 H 0.4344 0.4462 1.2804
H5 H 0.6838 0.1995 0.9157
H6 H 0.4996 0.2148 0.6024
H7 H -0.0404 0.3567 -0.2252
H8 H -0.1187 0.2918 -0.1034
H9 H -0.0278 0.2194 -0.2751
loop_
_geom_bond_atom_site_label_1
_geom_bond_atom_site_label_2
_geom_bond_site_symmetry_1
_geom_bond_site_symmetry_2
Br1 C1 1_555 1_555
Br2 C1 1_555 1_555
O1 C4 1_555 1_555
O2 C4 1_555 1_555
O3 N1 1_555 1_555
O4 N1 1_555 1_555
N1 C8 1_555 1_555
C1 C2 1_555 1_555
C2 C3 1_555 1_555
C3 C5 1_555 1_555
C4 C2 1_555 1_555
C5 C6 1_555 1_555
C6 C7 1_555 1_555
C7 C8 1_555 1_555
C8 C9 1_555 1_555
C9 C10 1_555 1_555
C10 C5 1_555 1_555
C11 O2 1_555 1_555
H1 C1 1_555 1_555
H2 C3 1_555 1_555
H3 C6 1_555 1_555
H4 C7 1_555 1_555
H5 C9 1_555 1_555
H6 C10 1_555 1_555
H7 C11 1_555 1_555
H8 C11 1_555 1_555
H9 C11 1_555 1_555

#END
