
#######################################################################
#
#                 Cambridge Crystallographic Data Centre
#                                CCDC 
#
#######################################################################
#
# If this CIF has been generated from an entry in the Cambridge 
# Structural Database, then it will include bibliographic, chemical, 
# crystal, experimental, refinement or atomic coordinate data resulting 
# from the CCDC's data processing and validation procedures.
#
#######################################################################

data_BALSOW
_chemical_formula_moiety         'C10 H11 N1 O4'
_chemical_name_systematic        Acetonyl-1-carba-pen-2-em-3-carboxylate
_symmetry_cell_setting           monoclinic
_symmetry_space_group_name_H-M   'P 21'
_symmetry_Int_Tables_number      4
_space_group_name_Hall           'P 2yb'
loop_
_symmetry_equiv_pos_site_id
_symmetry_equiv_pos_as_xyz
1 x,y,z
2 -x,1/2+y,-z
_cell_length_a                   7.086(2)
_cell_length_b                   7.817(2)
_cell_length_c                   9.227(2)
_cell_angle_alpha                90
_cell_angle_beta                 93.10(1)
_cell_angle_gamma                90
_cell_volume                     510.347
_chemical_melting_point          86-7deg.C
_cell_formula_units_Z            2
loop_
_atom_site_label
_atom_site_type_symbol
_atom_site_fract_x
_atom_site_fract_y
_atom_site_fract_z
C1 C 0.12320 0.40110 0.39770
C2 C 0.23260 0.42320 0.26620
C3 C 0.39550 0.33110 0.27540
N1 N 0.40820 0.23450 0.40810
C4 C 0.22620 0.25620 0.48060
C5 C 0.34000 0.29670 0.62140
C6 C 0.51590 0.28530 0.53500
O1 O 0.68120 0.31240 0.55400
C7 C 0.54270 0.30760 0.17140
O2 O 0.67590 0.21800 0.19000
O3 O 0.50610 0.41020 0.05320
C8 C 0.63770 0.38760 -0.05830
C9 C 0.81730 0.48460 -0.02910
O4 O 0.84110 0.56830 0.07760
C10 C 0.95720 0.46380 -0.14120
H1 H -0.02100 0.37700 0.37800
H2 H 0.12900 0.49800 0.45500
H3 H 0.18900 0.49700 0.18300
H4 H 0.12300 0.15800 0.49500
H5 H 0.31400 0.21200 0.70900
H6 H 0.30600 0.41500 0.66200
H7 H 0.67200 0.25800 -0.06400
H8 H 0.57900 0.43800 -0.16200
H9 H 0.88700 0.43100 -0.24500
H10 H 1.01200 0.57000 -0.15800
H11 H 1.05500 0.36600 -0.09900
loop_
_geom_bond_atom_site_label_1
_geom_bond_atom_site_label_2
_geom_bond_site_symmetry_1
_geom_bond_site_symmetry_2
C1 C2 1_555 1_555
C2 C3 1_555 1_555
C3 N1 1_555 1_555
N1 C4 1_555 1_555
C4 C1 1_555 1_555
C5 C4 1_555 1_555
C6 N1 1_555 1_555
O1 C6 1_555 1_555
C7 C3 1_555 1_555
O2 C7 1_555 1_555
O3 C7 1_555 1_555
C8 O3 1_555 1_555
C9 C8 1_555 1_555
O4 C9 1_555 1_555
C10 C9 1_555 1_555
H1 C1 1_555 1_555
H2 C1 1_555 1_555
H3 C2 1_555 1_555
H4 C4 1_555 1_555
H5 C5 1_555 1_555
H6 C5 1_555 1_555
H7 C8 1_555 1_555
H8 C8 1_555 1_555
H9 C10 1_555 1_555
H10 C10 1_555 1_555
H11 C10 1_555 1_555
C5 C6 1_555 1_555

#END
