
#######################################################################
#
#                 Cambridge Crystallographic Data Centre
#                                CCDC 
#
#######################################################################
#
# If this CIF has been generated from an entry in the Cambridge 
# Structural Database, then it will include bibliographic, chemical, 
# crystal, experimental, refinement or atomic coordinate data resulting 
# from the CCDC's data processing and validation procedures.
#
#######################################################################

data_BALSUC
_chemical_formula_moiety         'C10 H11 N1 O4'
_chemical_name_systematic        Acetonyl-1-carba-pen-1-em-3-carboxylate
_symmetry_cell_setting           monoclinic
_symmetry_space_group_name_H-M   'P 21/c'
_symmetry_Int_Tables_number      14
_space_group_name_Hall           '-P 2ybc'
loop_
_symmetry_equiv_pos_site_id
_symmetry_equiv_pos_as_xyz
1 x,y,z
2 -x,1/2+y,1/2-z
3 -x,-y,-z
4 x,1/2-y,1/2+z
_cell_length_a                   9.545(2)
_cell_length_b                   15.968(3)
_cell_length_c                   6.654(2)
_cell_angle_alpha                90
_cell_angle_beta                 97.97(2)
_cell_angle_gamma                90
_cell_volume                     1004.37
_chemical_melting_point          68-9deg.C
_cell_formula_units_Z            4
loop_
_atom_site_label
_atom_site_type_symbol
_atom_site_fract_x
_atom_site_fract_y
_atom_site_fract_z
C1 C 0.45750 0.10020 0.47650
C2 C 0.38620 0.09670 0.63350
C3 C 0.22630 0.08840 0.56640
N1 N 0.21650 0.09730 0.34600
C4 C 0.36160 0.09310 0.27810
C5 C 0.32520 0.17510 0.15410
C6 C 0.19410 0.17730 0.26110
O1 O 0.10460 0.22890 0.28310
C7 C 0.17670 0.00340 0.62850
O2 O 0.15390 -0.05690 0.52340
O3 O 0.16530 0.00570 0.82770
C8 C 0.12900 -0.07090 0.92100
C9 C 0.25500 -0.12540 0.98530
O4 O 0.36930 -0.10880 0.93610
C10 C 0.22780 -0.19990 1.11160
H1 H 0.57000 0.09900 0.49500
H2 H 0.42400 0.09900 0.79300
H3 H 0.16500 0.13600 0.63300
H4 H 0.37100 0.03800 0.17700
H5 H 0.30100 0.16500 -0.00100
H6 H 0.38900 0.22700 0.18500
H7 H 0.08800 -0.05400 1.05400
H8 H 0.06900 -0.10800 0.81500
H9 H 0.21400 -0.17800 1.24900
H10 H 0.13900 -0.22500 1.04800
H11 H 0.33100 -0.23400 1.14700
loop_
_geom_bond_atom_site_label_1
_geom_bond_atom_site_label_2
_geom_bond_site_symmetry_1
_geom_bond_site_symmetry_2
C1 C2 1_555 1_555
C2 C3 1_555 1_555
C3 N1 1_555 1_555
N1 C4 1_555 1_555
C4 C1 1_555 1_555
C5 C4 1_555 1_555
C6 N1 1_555 1_555
O1 C6 1_555 1_555
C7 C3 1_555 1_555
O2 C7 1_555 1_555
O3 C7 1_555 1_555
C8 O3 1_555 1_555
C9 C8 1_555 1_555
O4 C9 1_555 1_555
C10 C9 1_555 1_555
H1 C1 1_555 1_555
H2 C2 1_555 1_555
H3 C3 1_555 1_555
H4 C4 1_555 1_555
H5 C5 1_555 1_555
H6 C5 1_555 1_555
H7 C8 1_555 1_555
H8 C8 1_555 1_555
H9 C10 1_555 1_555
H10 C10 1_555 1_555
H11 C10 1_555 1_555
C5 C6 1_555 1_555

#END
