
#######################################################################
#
#                 Cambridge Crystallographic Data Centre
#                                CCDC 
#
#######################################################################
#
# If this CIF has been generated from an entry in the Cambridge 
# Structural Database, then it will include bibliographic, chemical, 
# crystal, experimental, refinement or atomic coordinate data resulting 
# from the CCDC's data processing and validation procedures.
#
#######################################################################

data_BALVAO
_chemical_formula_moiety         'C5 H7 N7 O4'
_chemical_name_systematic        
"3-methyl-4-((2-(N'-nitrocarbamimidoyl)hydrazinylidene)methyl)-1,2,5-oxadiazole 2-oxide"
_symmetry_cell_setting           monoclinic
_symmetry_space_group_name_H-M   'P 21'
_symmetry_Int_Tables_number      4
_space_group_name_Hall           'P 2yb'
loop_
_symmetry_equiv_pos_site_id
_symmetry_equiv_pos_as_xyz
1 x,y,z
2 -x,1/2+y,-z
_cell_length_a                   6.5979(6)
_cell_length_b                   5.6829(6)
_cell_length_c                   12.3656(13)
_cell_angle_alpha                90
_cell_angle_beta                 96.806(4)
_cell_angle_gamma                90
_cell_volume                     460.383
_cell_formula_units_Z            2
loop_
_atom_site_label
_atom_site_type_symbol
_atom_site_fract_x
_atom_site_fract_y
_atom_site_fract_z
C1 C 1.0185(4) 0.1446(5) 0.2127(2)
C2 C 0.8529(4) 0.0926(5) 0.1315(2)
C3 C 1.0372(4) 0.3373(5) 0.2906(2)
H1 H 1.1573 0.3578 0.3402
C4 C 0.7471(4) 0.8089(5) 0.3641(2)
C5 C 0.6565(4) 0.2121(6) 0.0962(2)
H2 H 0.5865 0.1310 0.0324
H3 H 0.6826 0.3759 0.0771
H4 H 0.5704 0.2086 0.1555
N1 N 1.1659(3) -0.0123(5) 0.21337(19)
N2 N 0.9032(3) -0.1024(4) 0.08389(19)
N3 N 0.8855(3) 0.4786(4) 0.28972(18)
N4 N 0.9053(3) 0.6603(4) 0.36271(17)
H5 H 1.0181 0.6793 0.4074
N5 N 0.7879(3) 0.9802(4) 0.43908(18)
N6 N 0.5807(3) 0.7710(4) 0.29608(17)
H6 H 0.5751 0.6505 0.2511
H7 H 0.4754 0.8661 0.2957
N7 N 0.6547(3) 1.1619(4) 0.44024(18)
O1 O 1.1030(3) -0.1742(4) 0.13345(15)
O2 O 0.6935(3) 1.3004(4) 0.51812(16)
O3 O 0.5111(3) 1.1958(4) 0.36795(14)
O4 O 0.8196(3) -0.2292(4) 0.00967(16)
loop_
_geom_bond_atom_site_label_1
_geom_bond_atom_site_label_2
_geom_bond_site_symmetry_1
_geom_bond_site_symmetry_2
C1 C2 1_555 1_555
C2 C5 1_555 1_555
C3 C1 1_555 1_555
H1 C3 1_555 1_555
C4 N4 1_555 1_555
C5 H2 1_555 1_555
H3 C5 1_555 1_555
H4 C5 1_555 1_555
N1 C1 1_555 1_555
N2 C2 1_555 1_555
N3 C3 1_555 1_555
N4 N3 1_555 1_555
H5 N4 1_555 1_555
N5 C4 1_555 1_555
N6 C4 1_555 1_555
H6 N6 1_555 1_555
H7 N6 1_555 1_555
N7 N5 1_555 1_555
O1 N1 1_555 1_555
O2 N7 1_555 1_555
O3 N7 1_555 1_555
O4 N2 1_555 1_555
N2 O1 1_555 1_555

#END
