
#######################################################################
#
#                 Cambridge Crystallographic Data Centre
#                                CCDC 
#
#######################################################################
#
# If this CIF has been generated from an entry in the Cambridge 
# Structural Database, then it will include bibliographic, chemical, 
# crystal, experimental, refinement or atomic coordinate data resulting 
# from the CCDC's data processing and validation procedures.
#
#######################################################################

data_BALVOC
_chemical_formula_moiety         'C26 H16 N2 O1'
_chemical_name_systematic        
6-(quinolin-8-yl)benzo[i]phenanthridin-5(6H)-one
_symmetry_cell_setting           monoclinic
_symmetry_space_group_name_H-M   'P 21/c'
_symmetry_Int_Tables_number      14
_space_group_name_Hall           '-P 2ybc'
loop_
_symmetry_equiv_pos_site_id
_symmetry_equiv_pos_as_xyz
1 x,y,z
2 -x,1/2+y,1/2-z
3 -x,-y,-z
4 x,1/2-y,1/2+z
_cell_length_a                   12.1778(3)
_cell_length_b                   10.9479(3)
_cell_length_c                   13.7165(4)
_cell_angle_alpha                90
_cell_angle_beta                 97.1450(10)
_cell_angle_gamma                90
_cell_volume                     1814.5
_exptl_crystal_colour            colorless
_exptl_crystal_description       block
_cell_formula_units_Z            4
loop_
_atom_site_label
_atom_site_type_symbol
_atom_site_fract_x
_atom_site_fract_y
_atom_site_fract_z
N1 N 0.26818(12) 0.80357(13) 0.41697(11)
O1 O 0.12818(10) 0.53805(11) 0.41084(10)
C1 C 0.20639(13) 0.78497(15) 0.32795(12)
N2 N 0.27556(11) 0.57348(12) 0.33146(10)
C2 C 0.13652(13) 0.87680(15) 0.27962(13)
C3 C 0.19011(18) 1.00636(19) 0.41808(16)
H1 H 0.1857 1.0811 0.4526
C4 C 0.12927(16) 0.98897(17) 0.32902(15)
H2 H 0.0822 1.0520 0.3003
C5 C 0.21043(13) 0.67018(15) 0.28124(12)
C6 C 0.25980(17) 0.91145(18) 0.45806(14)
H3 H 0.3039 0.9263 0.5190
C7 C 0.15345(15) 0.64923(16) 0.19074(13)
H4 H 0.1576 0.5715 0.1606
C8 C 0.08812(16) 0.74281(17) 0.14162(13)
H5 H 0.0503 0.7285 0.0778
C9 C 0.07933(14) 0.85323(17) 0.18545(13)
H6 H 0.0343 0.9151 0.1524
C10 C 0.22373(13) 0.51005(14) 0.40088(12)
C11 C 0.28864(13) 0.41276(14) 0.45601(11)
C12 C 0.39767(13) 0.39191(14) 0.43856(12)
C13 C 0.44659(13) 0.46156(14) 0.36435(11)
C14 C 0.38349(13) 0.55267(14) 0.31119(12)
C15 C 0.42739(15) 0.62025(16) 0.23855(13)
H7 H 0.3840 0.6816 0.2032
C16 C 0.53326(16) 0.59782(17) 0.21835(14)
H8 H 0.5625 0.6431 0.1684
C17 C 0.59790(16) 0.50912(17) 0.27065(14)
H9 H 0.6713 0.4942 0.2569
C18 C 0.55484(14) 0.44309(16) 0.34238(13)
H10 H 0.5998 0.3832 0.3781
C19 C 0.46189(14) 0.30113(15) 0.49498(12)
H11 H 0.5364 0.2874 0.4839
C20 C 0.41835(15) 0.23471(15) 0.56367(13)
H12 H 0.4628 0.1747 0.5998
C21 C 0.30795(15) 0.25232(15) 0.58321(12)
C22 C 0.24049(14) 0.34205(14) 0.52952(11)
C23 C 0.13107(14) 0.35575(15) 0.55313(12)
H13 H 0.0837 0.4145 0.5186
C24 C 0.09181(16) 0.28618(16) 0.62472(13)
H14 H 0.0178 0.2970 0.6384
C25 C 0.15987(17) 0.19922(17) 0.67791(14)
H15 H 0.1327 0.1523 0.7280
C26 C 0.26533(16) 0.18306(16) 0.65670(13)
H16 H 0.3112 0.1238 0.6922
loop_
_geom_bond_atom_site_label_1
_geom_bond_atom_site_label_2
_geom_bond_site_symmetry_1
_geom_bond_site_symmetry_2
N1 C1 1_555 1_555
O1 C10 1_555 1_555
C1 C2 1_555 1_555
N2 C5 1_555 1_555
C2 C4 1_555 1_555
C3 H1 1_555 1_555
C4 C3 1_555 1_555
H2 C4 1_555 1_555
C5 C1 1_555 1_555
C6 N1 1_555 1_555
H3 C6 1_555 1_555
C7 C5 1_555 1_555
H4 C7 1_555 1_555
C8 C7 1_555 1_555
H5 C8 1_555 1_555
C9 C2 1_555 1_555
H6 C9 1_555 1_555
C10 N2 1_555 1_555
C11 C10 1_555 1_555
C12 C11 1_555 1_555
C13 C12 1_555 1_555
C14 N2 1_555 1_555
C15 C14 1_555 1_555
H7 C15 1_555 1_555
C16 C15 1_555 1_555
H8 C16 1_555 1_555
C17 C16 1_555 1_555
H9 C17 1_555 1_555
C18 C13 1_555 1_555
H10 C18 1_555 1_555
C19 C12 1_555 1_555
H11 C19 1_555 1_555
C20 C19 1_555 1_555
H12 C20 1_555 1_555
C21 C20 1_555 1_555
C22 C11 1_555 1_555
C23 C22 1_555 1_555
H13 C23 1_555 1_555
C24 C23 1_555 1_555
H14 C24 1_555 1_555
C25 C24 1_555 1_555
H15 C25 1_555 1_555
C26 C21 1_555 1_555
H16 C26 1_555 1_555
C3 C6 1_555 1_555
C8 C9 1_555 1_555
C13 C14 1_555 1_555
C17 C18 1_555 1_555
C21 C22 1_555 1_555
C25 C26 1_555 1_555

#END
