
#######################################################################
#
#                 Cambridge Crystallographic Data Centre
#                                CCDC 
#
#######################################################################
#
# If this CIF has been generated from an entry in the Cambridge 
# Structural Database, then it will include bibliographic, chemical, 
# crystal, experimental, refinement or atomic coordinate data resulting 
# from the CCDC's data processing and validation procedures.
#
#######################################################################

data_BALXET
_chemical_formula_moiety         'C24 H24 F1 N3 O3 S1'
_chemical_name_systematic        
1-(2,6-Diisopropylphenyl)-3-(1-(6-fluoro-1,3-benzothiazol-2-yl)ethyl)imidazolidine-2,4,5-trione
_symmetry_cell_setting           triclinic
_symmetry_space_group_name_H-M   'P -1'
_symmetry_Int_Tables_number      2
_space_group_name_Hall           '-P 1'
loop_
_symmetry_equiv_pos_site_id
_symmetry_equiv_pos_as_xyz
1 x,y,z
2 -x,-y,-z
_cell_length_a                   10.1760(7)
_cell_length_b                   10.7150(6)
_cell_length_c                   21.5609(18)
_cell_angle_alpha                99.229(6)
_cell_angle_beta                 100.256(8)
_cell_angle_gamma                91.188(6)
_cell_volume                     2280.46
_exptl_crystal_colour            colorless
_exptl_crystal_description       block
_cell_formula_units_Z            4
loop_
_atom_site_label
_atom_site_type_symbol
_atom_site_fract_x
_atom_site_fract_y
_atom_site_fract_z
S1 S 0.22069(12) 0.00541(12) 0.32898(6)
O1 O 0.0633(3) 0.4194(3) 0.20857(14)
O4 O 0.1983(3) 0.6630(3) 0.28091(15)
O5 O 0.2267(3) 0.3694(3) 0.41413(14)
C1 C 0.1873(4) 0.5657(4) 0.30115(19)
N2 N 0.1320(3) 0.3585(3) 0.30693(16)
N3 N 0.2349(3) 0.5427(3) 0.36189(16)
C4 C 0.1174(4) 0.4402(4) 0.2635(2)
C7 C 0.2255(4) 0.1534(4) 0.3046(2)
F2 F 0.7006(3) -0.1448(3) 0.37499(17)
C8 C 0.3171(4) 0.6316(4) 0.41275(19)
C9 C 0.2014(4) 0.4176(4) 0.3672(2)
C12 C 0.0979(4) 0.2231(4) 0.2909(2)
H2 H 0.0633 0.2032 0.2449
C14 C 0.4409(5) 0.1150(4) 0.3168(2)
C16 C 0.3920(4) 0.0052(4) 0.3343(2)
C19 C 0.2534(4) 0.7267(4) 0.4463(2)
N6 N 0.3452(4) 0.2018(4) 0.29861(18)
C20 C 0.4546(4) 0.6169(4) 0.4238(2)
C23 C 0.5310(5) 0.7059(4) 0.4717(2)
H6 H 0.6232 0.6999 0.4811
C24 C 0.5358(5) 0.5490(5) 0.3207(2)
H7 H 0.4526 0.5765 0.2999
H8 H 0.5627 0.4773 0.2939
H9 H 0.6031 0.6166 0.3282
C25 C 0.3352(5) 0.8150(5) 0.4922(2)
H10 H 0.2977 0.8829 0.5142
C26 C 0.5188(4) 0.5123(4) 0.3844(2)
H11 H 0.4578 0.4369 0.3748
C28 C 0.4764(5) -0.0868(4) 0.3541(2)
H13 H 0.4445 -0.1603 0.3655
C30 C -0.0106(5) 0.1848(5) 0.3251(3)
H15 H 0.0229 0.1987 0.3703
H16 H -0.0364 0.0967 0.3107
H17 H -0.0867 0.2347 0.3161
C33 C 0.4718(5) 0.8029(5) 0.5046(2)
H20 H 0.5249 0.8611 0.5362
C35 C 0.6597(5) 0.0467(5) 0.3385(2)
H21 H 0.7512 0.0595 0.3408
C38 C 0.1021(5) 0.7334(5) 0.4361(2)
H25 H 0.0660 0.6999 0.3911
C40 C 0.5757(5) 0.1346(5) 0.3188(2)
H27 H 0.6083 0.2070 0.3067
C41 C 0.6103(5) -0.0620(5) 0.3556(2)
C42 C 0.6528(5) 0.4761(5) 0.4195(3)
H28 H 0.7168 0.5463 0.4267
H29 H 0.6839 0.4049 0.3939
H30 H 0.6418 0.4539 0.4597
C47 C 0.0538(7) 0.8655(7) 0.4511(5)
H43 H 0.0572 0.8873 0.4964
H44 H -0.0365 0.8684 0.4291
H45 H 0.1103 0.9246 0.4375
C48 C 0.0477(7) 0.6507(8) 0.4755(4)
H46 H 0.0898 0.5712 0.4717
H47 H -0.0471 0.6364 0.4612
H48 H 0.0655 0.6915 0.5194
S2 S 0.73082(12) 0.97059(11) 0.17722(6)
O2 O 0.8761(3) 0.5577(3) 0.30024(14)
O3 O 0.7459(3) 0.3138(3) 0.22588(14)
N1 N 0.7260(3) 0.4320(3) 0.14386(15)
O6 O 0.7367(3) 0.6055(3) 0.09250(14)
C2 C 0.7580(4) 0.5579(4) 0.1396(2)
C3 C 0.7624(4) 0.4098(4) 0.20575(19)
N4 N 0.6051(4) 0.7733(4) 0.20660(18)
N5 N 0.8199(3) 0.6171(3) 0.20074(16)
C5 C 0.4404(4) 0.4681(4) 0.1145(2)
H1 H 0.5100 0.5221 0.1448
C6 C 0.6454(4) 0.3449(4) 0.09232(19)
F1 F 0.2507(3) 1.1185(3) 0.12709(18)
C10 C 0.5593(4) 0.9693(4) 0.1705(2)
C11 C 0.7255(4) 0.8224(4) 0.20143(19)
C13 C 0.6271(5) 0.1632(4) 0.0112(2)
H3 H 0.6650 0.0969 -0.0118
C15 C 0.8279(4) 0.5363(4) 0.24404(19)
C17 C 0.4319(4) 0.2720(4) 0.0307(2)
H4 H 0.3400 0.2796 0.0202
C18 C 0.5078(4) 0.3600(4) 0.07956(19)
C21 C 0.8528(4) 0.7541(4) 0.2167(2)
H5 H 0.8854 0.7746 0.2629
C22 C 0.7090(4) 0.2472(4) 0.0586(2)
C27 C 0.3751(5) 0.8401(5) 0.1853(2)
H12 H 0.3421 0.7678 0.1973
C29 C 0.4907(5) 0.1746(4) -0.0022(2)
H14 H 0.4378 0.1161 -0.0339
C31 C 0.4753(5) 1.0619(4) 0.1499(2)
H18 H 0.5075 1.1355 0.1387
C32 C 0.2905(5) 0.9280(5) 0.1647(3)
H19 H 0.1988 0.9157 0.1624
C34 C 0.3410(5) 1.0359(5) 0.1476(2)
C36 C 0.3429(6) 0.4198(5) 0.1523(3)
H22 H 0.2705 0.3715 0.1231
H23 H 0.3085 0.4901 0.1769
H24 H 0.3881 0.3670 0.1804
C37 C 0.5101(5) 0.8607(4) 0.1879(2)
C39 C 0.8599(5) 0.2389(5) 0.0718(2)
H26 H 0.8914 0.2656 0.1178
C43 C 0.9635(5) 0.7928(5) 0.1835(3)
H31 H 1.0398 0.7437 0.1937
H32 H 0.9882 0.8811 0.1979
H33 H 0.9325 0.7782 0.1381
C44 C 0.3703(6) 0.5477(5) 0.0680(2)
H34 H 0.4331 0.5777 0.0446
H35 H 0.3334 0.6186 0.0910
H36 H 0.2997 0.4971 0.0387
C45 C 0.9036(6) 0.1046(6) 0.0540(3)
H37 H 0.8964 0.0847 0.0084
H38 H 0.8470 0.0461 0.0678
H39 H 0.9946 0.0985 0.0743
C46 C 0.9248(6) 0.3280(7) 0.0379(4)
H40 H 0.9071 0.2963 -0.0072
H41 H 1.0196 0.3347 0.0533
H42 H 0.8889 0.4100 0.0457
loop_
_geom_bond_atom_site_label_1
_geom_bond_atom_site_label_2
_geom_bond_site_symmetry_1
_geom_bond_site_symmetry_2
S1 C7 1_555 1_555
S2 C10 1_555 1_555
O1 C4 1_555 1_555
O2 C15 1_555 1_555
O3 C3 1_555 1_555
O4 C1 1_555 1_555
O5 C9 1_555 1_555
C1 N3 1_555 1_555
N1 C2 1_555 1_555
O6 C2 1_555 1_555
C2 N5 1_555 1_555
N2 C4 1_555 1_555
C3 N1 1_555 1_555
N3 C8 1_555 1_555
N4 C11 1_555 1_555
C4 C1 1_555 1_555
N5 C15 1_555 1_555
C5 H1 1_555 1_555
C6 N1 1_555 1_555
F1 C34 1_555 1_555
C7 C12 1_555 1_555
F2 C41 1_555 1_555
C8 C19 1_555 1_555
C9 N2 1_555 1_555
C10 C31 1_555 1_555
C11 S2 1_555 1_555
C12 N2 1_555 1_555
H2 C12 1_555 1_555
C13 H3 1_555 1_555
C14 C16 1_555 1_555
C15 C3 1_555 1_555
C16 S1 1_555 1_555
C17 H4 1_555 1_555
C18 C5 1_555 1_555
C19 C25 1_555 1_555
N6 C7 1_555 1_555
C20 C8 1_555 1_555
C21 N5 1_555 1_555
H5 C21 1_555 1_555
C22 C6 1_555 1_555
C23 C20 1_555 1_555
H6 C23 1_555 1_555
C24 H7 1_555 1_555
H8 C24 1_555 1_555
H9 C24 1_555 1_555
C25 H10 1_555 1_555
C26 C20 1_555 1_555
H11 C26 1_555 1_555
C27 H12 1_555 1_555
C28 C16 1_555 1_555
H13 C28 1_555 1_555
C29 C13 1_555 1_555
H14 C29 1_555 1_555
C30 C12 1_555 1_555
H15 C30 1_555 1_555
H16 C30 1_555 1_555
H17 C30 1_555 1_555
C31 H18 1_555 1_555
C32 C27 1_555 1_555
H19 C32 1_555 1_555
C33 C23 1_555 1_555
H20 C33 1_555 1_555
C34 C31 1_555 1_555
C35 H21 1_555 1_555
C36 C5 1_555 1_555
H22 C36 1_555 1_555
H23 C36 1_555 1_555
H24 C36 1_555 1_555
C37 N4 1_555 1_555
C38 C19 1_555 1_555
H25 C38 1_555 1_555
C39 C22 1_555 1_555
H26 C39 1_555 1_555
C40 C14 1_555 1_555
H27 C40 1_555 1_555
C41 C28 1_555 1_555
C42 C26 1_555 1_555
H28 C42 1_555 1_555
H29 C42 1_555 1_555
H30 C42 1_555 1_555
C43 C21 1_555 1_555
H31 C43 1_555 1_555
H32 C43 1_555 1_555
H33 C43 1_555 1_555
C44 C5 1_555 1_555
H34 C44 1_555 1_555
H35 C44 1_555 1_555
H36 C44 1_555 1_555
C45 C39 1_555 1_555
H37 C45 1_555 1_555
H38 C45 1_555 1_555
H39 C45 1_555 1_555
C46 C39 1_555 1_555
H40 C46 1_555 1_555
H41 C46 1_555 1_555
H42 C46 1_555 1_555
C47 C38 1_555 1_555
H43 C47 1_555 1_555
H44 C47 1_555 1_555
H45 C47 1_555 1_555
C48 C38 1_555 1_555
H46 C48 1_555 1_555
H47 C48 1_555 1_555
H48 C48 1_555 1_555
N3 C9 1_555 1_555
C6 C18 1_555 1_555
C10 C37 1_555 1_555
C11 C21 1_555 1_555
C13 C22 1_555 1_555
C14 N6 1_555 1_555
C17 C18 1_555 1_555
C17 C29 1_555 1_555
C24 C26 1_555 1_555
C25 C33 1_555 1_555
C27 C37 1_555 1_555
C32 C34 1_555 1_555
C35 C40 1_555 1_555
C35 C41 1_555 1_555

#END
