
#######################################################################
#
#                 Cambridge Crystallographic Data Centre
#                                CCDC 
#
#######################################################################
#
# If this CIF has been generated from an entry in the Cambridge 
# Structural Database, then it will include bibliographic, chemical, 
# crystal, experimental, refinement or atomic coordinate data resulting 
# from the CCDC's data processing and validation procedures.
#
#######################################################################

data_BAMBOR10
_chemical_formula_moiety         'C8 H19 B2 1-,C16 H36 N1 1+'
_chemical_name_systematic        
'Tetra-n-butylammonium \m-hydro-1,2-dihydro-1,2.1,2-bis(tetramethylene) diborate'
_symmetry_cell_setting           monoclinic
_symmetry_space_group_name_H-M   'P 21/c'
_symmetry_Int_Tables_number      14
_space_group_name_Hall           '-P 2ybc'
loop_
_symmetry_equiv_pos_site_id
_symmetry_equiv_pos_as_xyz
1 x,y,z
2 -x,1/2+y,1/2-z
3 -x,-y,-z
4 x,1/2-y,1/2+z
_cell_length_a                   10.65(6)
_cell_length_b                   13.951(10)
_cell_length_c                   21.734(14)
_cell_angle_alpha                90
_cell_angle_beta                 118.48(3)
_cell_angle_gamma                90
_cell_volume                     2838.41
_cell_formula_units_Z            4
loop_
_atom_site_label
_atom_site_type_symbol
_atom_site_fract_x
_atom_site_fract_y
_atom_site_fract_z
B1 B 1.23090 -0.13420 0.28570
B2 B 1.39500 -0.25670 0.36700
C1 C 1.08510 -0.19320 0.25770
C7 C 1.08310 -0.29250 0.22800
C13 C 1.16430 -0.36830 0.28330
C19 C 1.32560 -0.35480 0.32670
C21 C 1.34750 -0.23220 0.42500
C22 C 1.37720 -0.12860 0.45180
C23 C 1.26000 -0.05800 0.40330
C24 C 1.26220 -0.04150 0.33390
H1 H 1.34520 -0.18680 0.32140
H2 H 1.38420 -0.40980 0.36230
H3 H 1.37780 -0.36730 0.28760
H4 H 1.22420 -0.24930 0.40610
H5 H 1.40610 -0.27910 0.46390
H6 H 1.48320 -0.10740 0.45640
H7 H 1.37220 -0.12360 0.49750
H8 H 1.27070 0.00040 0.42720
H9 H 1.15400 -0.08470 0.38850
H10 H 1.36540 -0.00510 0.34770
H11 H 1.17670 0.00830 0.30710
H12 H 1.26100 -0.11270 0.24320
H22 H 1.52060 -0.24670 0.38960
H32 H 1.05850 -0.19630 0.30040
H42 H 1.00370 -0.15220 0.22300
H52 H 1.13770 -0.29030 0.20000
H53 H 0.97530 -0.31550 0.19440
H54 H 1.12590 -0.36400 0.31890
H55 H 1.12940 -0.43570 0.25700
C2 C 0.59890 -0.28500 0.23390
C3 C 0.68060 -0.11350 0.24440
C4 C 0.65140 -0.09770 0.30650
C5 C 0.76340 -0.02840 0.35790
C6 C 0.74890 -0.01820 0.42350
C8 C 0.75660 -0.32020 0.28350
C9 C 0.42520 -0.16230 0.15360
C10 C 0.31770 -0.23400 0.10220
C11 C 0.15950 -0.19260 0.06120
C12 C 0.04630 -0.26460 0.01350
C14 C 0.74940 -0.40260 0.32730
C15 C 0.65610 -0.21290 0.14520
C16 C 0.65050 -0.12980 0.09960
C17 C 0.73170 -0.15330 0.05780
C18 C 0.72130 -0.07230 0.00970
C20 C 0.90380 -0.44340 0.37470
H13 H 0.54680 -0.33280 0.19870
H14 H 0.54540 -0.27180 0.25920
H15 H 0.80620 -0.34300 0.25830
H16 H 0.81670 -0.26850 0.31460
H17 H 0.68680 -0.45520 0.29690
H18 H 0.70690 -0.37790 0.35880
H19 H 0.90650 -0.48520 0.40760
H20 H 0.94260 -0.47480 0.34760
H21 H 0.97470 -0.38860 0.40420
H23 H 0.65470 -0.05440 0.21560
H24 H 0.79130 -0.12860 0.26630
H25 H 0.55000 -0.07650 0.29000
H26 H 0.66830 -0.15520 0.33010
H27 H 0.87960 -0.04490 0.38020
H28 H 0.76380 0.02820 0.33690
H29 H 0.76930 -0.08280 0.44920
H30 H 0.83630 0.01950 0.46360
H31 H 0.62530 0.02040 0.40310
H33 H 0.40300 -0.14740 0.19010
H34 H 0.42540 -0.10010 0.12930
H35 H 0.35270 -0.25990 0.06910
H36 H 0.31220 -0.28850 0.12760
H37 H 0.12610 -0.17100 0.08990
H38 H 0.16050 -0.13440 0.03030
H39 H 0.07770 -0.29700 -0.01930
H40 H -0.05610 -0.23740 -0.01470
H41 H 0.04110 -0.30790 0.04550
H43 H 0.59740 -0.26740 0.11590
H44 H 0.76150 -0.23360 0.17400
H45 H 0.54550 -0.11770 0.06310
H46 H 0.69930 -0.06940 0.13130
H47 H 0.82990 -0.15780 0.08830
H48 H 0.68520 -0.21030 0.03100
H49 H 0.60970 -0.06500 -0.02620
H50 H 0.75630 -0.01490 0.03430
H51 H 0.77350 -0.08090 -0.01240
N1 N 0.58960 -0.19320 0.19430
loop_
_geom_bond_atom_site_label_1
_geom_bond_atom_site_label_2
_geom_bond_site_symmetry_1
_geom_bond_site_symmetry_2
B1 C1 1_555 1_555
B2 C19 1_555 1_555
C1 C7 1_555 1_555
C2 C8 1_555 1_555
C3 C4 1_555 1_555
C4 C5 1_555 1_555
C5 C6 1_555 1_555
C6 H29 1_555 1_555
C7 C13 1_555 1_555
C8 C14 1_555 1_555
C9 C10 1_555 1_555
C10 C11 1_555 1_555
C11 C12 1_555 1_555
C12 H39 1_555 1_555
C13 C19 1_555 1_555
C14 C20 1_555 1_555
C15 C16 1_555 1_555
C16 C17 1_555 1_555
C17 C18 1_555 1_555
C18 H49 1_555 1_555
C19 H2 1_555 1_555
C20 H19 1_555 1_555
C21 B2 1_555 1_555
C22 C21 1_555 1_555
C23 C22 1_555 1_555
C24 B1 1_555 1_555
H1 B1 1_555 1_555
H3 C19 1_555 1_555
H4 C21 1_555 1_555
H5 C21 1_555 1_555
H6 C22 1_555 1_555
H7 C22 1_555 1_555
H8 C23 1_555 1_555
H9 C23 1_555 1_555
H10 C24 1_555 1_555
H11 C24 1_555 1_555
H12 B1 1_555 1_555
H13 C2 1_555 1_555
H14 C2 1_555 1_555
H15 C8 1_555 1_555
H16 C8 1_555 1_555
H17 C14 1_555 1_555
H18 C14 1_555 1_555
H20 C20 1_555 1_555
H21 C20 1_555 1_555
H22 B2 1_555 1_555
H23 C3 1_555 1_555
H24 C3 1_555 1_555
H25 C4 1_555 1_555
H26 C4 1_555 1_555
H27 C5 1_555 1_555
H28 C5 1_555 1_555
H30 C6 1_555 1_555
H31 C6 1_555 1_555
H32 C1 1_555 1_555
H33 C9 1_555 1_555
H34 C9 1_555 1_555
H35 C10 1_555 1_555
H36 C10 1_555 1_555
H37 C11 1_555 1_555
H38 C11 1_555 1_555
H40 C12 1_555 1_555
H41 C12 1_555 1_555
H42 C1 1_555 1_555
H43 C15 1_555 1_555
H44 C15 1_555 1_555
H45 C16 1_555 1_555
H46 C16 1_555 1_555
H47 C17 1_555 1_555
H48 C17 1_555 1_555
H50 C18 1_555 1_555
H51 C18 1_555 1_555
H52 C7 1_555 1_555
H53 C7 1_555 1_555
H54 C13 1_555 1_555
H55 C13 1_555 1_555
N1 C2 1_555 1_555
B2 H1 1_555 1_555
C3 N1 1_555 1_555
C9 N1 1_555 1_555
C15 N1 1_555 1_555
C23 C24 1_555 1_555

#END
