
#######################################################################
#
#                 Cambridge Crystallographic Data Centre
#                                CCDC 
#
#######################################################################
#
# If this CIF has been generated from an entry in the Cambridge 
# Structural Database, then it will include bibliographic, chemical, 
# crystal, experimental, refinement or atomic coordinate data resulting 
# from the CCDC's data processing and validation procedures.
#
#######################################################################

data_BAMCAV
_chemical_formula_moiety         'C42 H44 N4 O4'
_chemical_name_systematic        
2,9-Dibutyl-5,12-bis(piperidin-1-yl)isoquinolino[4',5',6':6,5,10]anthra[2,1,9-def]isoquinoline-1,3,8,10(2H,9H)-tetrone
_symmetry_cell_setting           triclinic
_symmetry_space_group_name_H-M   'P -1'
_symmetry_Int_Tables_number      2
_space_group_name_Hall           '-P 1'
loop_
_symmetry_equiv_pos_site_id
_symmetry_equiv_pos_as_xyz
1 x,y,z
2 -x,-y,-z
_cell_length_a                   13.157(2)
_cell_length_b                   17.697(3)
_cell_length_c                   19.290(3)
_cell_angle_alpha                63.115(2)
_cell_angle_beta                 70.684(3)
_cell_angle_gamma                89.475(3)
_cell_volume                     3727.54
_exptl_crystal_colour            red
_exptl_crystal_description       sheet
_cell_formula_units_Z            4
loop_
_atom_site_label
_atom_site_type_symbol
_atom_site_fract_x
_atom_site_fract_y
_atom_site_fract_z
O1 O 0.5040(3) 1.2312(2) 0.1300(2)
O2 O 0.4242(4) 1.0977(3) 0.4085(2)
O3 O 0.8925(4) 0.6691(3) 0.1155(3)
O4 O 0.9385(4) 0.6049(2) 0.3568(3)
N1 N 0.4653(4) 1.1654(3) 0.2691(2)
N2 N 0.9133(3) 0.6352(2) 0.2380(3)
N3 N 0.7632(2) 1.0716(2) 0.01489(18)
N4 N 0.8274(4) 0.8435(3) 0.4213(2)
C1 C 0.7089(3) 1.0604(3) 0.0951(2)
C2 C 0.6443(3) 1.1194(3) 0.1059(2)
H1 H 0.6375 1.1650 0.0593
C3 C 0.5900(3) 1.1127(3) 0.1831(2)
C4 C 0.5183(4) 1.1747(3) 0.1903(3)
C5 C 0.4763(5) 1.1022(3) 0.3413(3)
C6 C 0.5500(4) 1.0427(3) 0.3320(3)
C7 C 0.5658(4) 0.9799(3) 0.4007(3)
H2 H 0.5271 0.9737 0.4535
C8 C 0.6395(4) 0.9256(3) 0.3913(3)
H3 H 0.6520 0.8853 0.4381
C9 C 0.6951(3) 0.9289(3) 0.3155(2)
C10 C 0.7676(3) 0.8692(3) 0.3060(2)
C11 C 0.8148(4) 0.8200(3) 0.3654(3)
C12 C 0.8548(4) 0.7475(3) 0.3636(3)
H4 H 0.8798 0.7120 0.4053
C13 C 0.8584(3) 0.7269(3) 0.3022(3)
C14 C 0.9049(4) 0.6530(3) 0.3031(3)
C15 C 0.8822(4) 0.6874(3) 0.1713(4)
C16 C 0.8380(3) 0.7633(3) 0.1717(3)
C17 C 0.8066(4) 0.8175(3) 0.1067(3)
H5 H 0.8107 0.8042 0.0645
C18 C 0.7691(3) 0.8913(3) 0.1045(2)
H6 H 0.7497 0.9277 0.0598
C19 C 0.7594(3) 0.9129(2) 0.1667(2)
C20 C 0.7171(3) 0.9898(2) 0.1660(2)
C21 C 0.6055(3) 1.0487(3) 0.2530(2)
C22 C 0.6729(3) 0.9898(2) 0.2441(2)
C23 C 0.7845(3) 0.8552(3) 0.2369(2)
C24 C 0.8273(3) 0.7814(3) 0.2363(2)
C25 C 0.7274(3) 1.1307(3) -0.0515(2)
H7 H 0.7525 1.1895 -0.0671
H8 H 0.6483 1.1214 -0.0318
C26 C 0.7727(4) 1.1163(3) -0.1260(3)
H9 H 0.7434 1.0586 -0.1111
H10 H 0.7499 1.1565 -0.1703
C27 C 0.8950(4) 1.1277(3) -0.1573(3)
H11 H 0.9218 1.1138 -0.2027
H12 H 0.9251 1.1871 -0.1782
C28 C 0.9301(3) 1.0704(3) -0.0879(3)
H13 H 1.0092 1.0814 -0.1070
H14 H 0.9080 1.0111 -0.0725
C29 C 0.8826(3) 1.0830(3) -0.0130(2)
H15 H 0.9040 1.0420 0.0317
H16 H 0.9110 1.1404 -0.0264
C30 C 0.8641(8) 0.9329(4) 0.3965(5)
H17 H 0.8910 0.9647 0.3360
H18 H 0.8004 0.9558 0.4169
C31 C 0.9395(9) 0.9504(5) 0.4205(6)
H19 H 0.9333 1.0059 0.4185
H20 H 1.0103 0.9563 0.3796
C32 C 0.9390(7) 0.8876(5) 0.5056(5)
H21 H 1.0122 0.8926 0.5058
H22 H 0.8916 0.9022 0.5468
C33 C 0.9009(11) 0.7970(6) 0.5296(6)
H23 H 0.9647 0.7731 0.5115
H24 H 0.8700 0.7651 0.5901
C34 C 0.8281(7) 0.7822(4) 0.5010(4)
H25 H 0.7561 0.7733 0.5420
H26 H 0.8370 0.7282 0.5000
C35 C 0.3905(6) 1.2252(4) 0.2778(4)
H27 H 0.3268 1.1943 0.3285
H28 H 0.3661 1.2485 0.2309
C36 C 0.4423(9) 1.2962(6) 0.2808(6)
H29 H 0.3862 1.3298 0.2916
H30 H 0.4634 1.2709 0.3293
C37 C 0.5324(15) 1.3536(8) 0.2140(11)
H31 H 0.5859 1.3234 0.1935
H32 H 0.5664 1.3881 0.2302
C38 C 0.484(2) 1.4135(8) 0.1432(11)
H33 H 0.4950 1.3927 0.1036
H34 H 0.5212 1.4717 0.1149
H35 H 0.4073 1.4116 0.1693
C39 C 0.9554(6) 0.5581(4) 0.2398(4)
H36 H 0.9268 0.5401 0.2083
H37 H 0.9295 0.5123 0.2971
C40 C 1.0783(8) 0.5712(6) 0.2042(7)
H38 H 1.1020 0.6099 0.1446
H39 H 1.1056 0.6004 0.2282
C41 C 1.1278(13) 0.5008(10) 0.2149(11)
H40 H 1.2017 0.5184 0.1739
H41 H 1.0881 0.4619 0.2063
C42 C 1.131(2) 0.4546(14) 0.302(2)
H42 H 1.1808 0.4893 0.3077
H43 H 1.1551 0.4005 0.3121
H44 H 1.0593 0.4447 0.3429
O5 O 0.2194(3) 1.0643(2) 0.3100(2)
O6 O 0.4107(3) 1.0758(2) 0.0626(2)
O7 O 0.6631(3) 0.5341(2) 0.6053(2)
O8 O 0.7114(3) 0.4637(2) 0.3999(2)
N5 N 0.3127(3) 1.0705(2) 0.1860(2)
N6 N 0.6841(3) 0.4967(2) 0.5051(2)
N7 N 0.3019(3) 0.8113(2) 0.5308(2)
N8 N 0.5405(3) 0.6693(2) 0.20799(19)
C43 C 0.3364(4) 0.8463(3) 0.4431(3)
C44 C 0.2972(4) 0.9197(3) 0.3986(3)
H45 H 0.2504 0.9442 0.4276
C45 C 0.3253(4) 0.9566(3) 0.3138(3)
C46 C 0.2809(4) 1.0328(3) 0.2720(3)
C47 C 0.3830(4) 1.0375(3) 0.1383(3)
C48 C 0.4206(3) 0.9589(2) 0.1820(2)
C49 C 0.4836(3) 0.9196(3) 0.1394(3)
H46 H 0.5067 0.9462 0.0815
C50 C 0.5127(3) 0.8421(2) 0.1811(2)
H47 H 0.5514 0.8158 0.1507
C51 C 0.4869(3) 0.8009(2) 0.2675(2)
C52 C 0.5208(3) 0.7196(2) 0.3110(2)
C53 C 0.5552(3) 0.6619(2) 0.2792(2)
C54 C 0.6048(3) 0.5944(2) 0.3206(2)
H48 H 0.6276 0.5568 0.2993
C55 C 0.6209(3) 0.5819(2) 0.3915(2)
C56 C 0.6754(4) 0.5099(3) 0.4306(3)
C57 C 0.6490(4) 0.5478(3) 0.5421(3)
C58 C 0.5922(3) 0.6177(3) 0.5030(2)
C59 C 0.5519(4) 0.6677(3) 0.5387(3)
H49 H 0.5646 0.6604 0.5858
C60 C 0.4919(4) 0.7295(3) 0.5053(3)
H50 H 0.4621 0.7612 0.5323
C61 C 0.4750(3) 0.7456(2) 0.4333(2)
C62 C 0.4104(3) 0.8111(2) 0.3986(2)
C63 C 0.3920(3) 0.9187(2) 0.2694(3)
C64 C 0.4293(3) 0.8431(2) 0.3124(2)
C65 C 0.5236(3) 0.6998(2) 0.3907(2)
C66 C 0.5790(3) 0.6325(2) 0.4288(2)
C67 C 0.2574(5) 0.8656(3) 0.5664(3)
H51 H 0.1851 0.8731 0.5645
H52 H 0.3033 0.9218 0.5338
C68 C 0.2503(6) 0.8276(4) 0.6556(3)
H53 H 0.2189 0.8649 0.6786
H54 H 0.3231 0.8235 0.6574
C69 C 0.1803(6) 0.7388(4) 0.7081(3)
H55 H 0.1057 0.7430 0.7105
H56 H 0.1797 0.7134 0.7646
C70 C 0.2286(6) 0.6831(3) 0.6677(3)
H57 H 0.2998 0.6738 0.6714
H58 H 0.1818 0.6276 0.6977
C71 C 0.2396(5) 0.7253(3) 0.5781(3)
H59 H 0.2752 0.6906 0.5531
H60 H 0.1674 0.7277 0.5752
C72 C 0.4280(3) 0.6656(3) 0.2107(3)
H61 H 0.3899 0.6988 0.2365
H62 H 0.3907 0.6065 0.2448
C73 C 0.4241(5) 0.6999(3) 0.1250(3)
H63 H 0.4530 0.7609 0.0930
H64 H 0.3488 0.6923 0.1295
C74 C 0.4899(5) 0.6540(4) 0.0797(3)
H65 H 0.4547 0.5948 0.1066
H66 H 0.4937 0.6816 0.0224
C75 C 0.6036(6) 0.6567(4) 0.0813(3)
H67 H 0.6435 0.6238 0.0558
H68 H 0.6413 0.7157 0.0484
C76 C 0.6035(4) 0.6215(3) 0.1678(3)
H69 H 0.5713 0.5612 0.2000
H70 H 0.6780 0.6266 0.1657
C77 C 0.2685(5) 1.1461(3) 0.1445(3)
H71 H 0.3203 1.1816 0.0882
H72 H 0.2583 1.1793 0.1741
C78 C 0.1568(8) 1.1222(5) 0.1409(6)
H73 H 0.1715 1.1048 0.0980
H74 H 0.1148 1.0728 0.1938
C79 C 0.0900(10) 1.1886(8) 0.1243(7)
H75 H 0.1253 1.2349 0.0678
H76 H 0.0816 1.2119 0.1624
C80 C -0.0251(8) 1.1511(10) 0.1355(7)
H77 H -0.0238 1.0948 0.1403
H78 H -0.0430 1.1879 0.0879
H79 H -0.0789 1.1477 0.1851
C81 C 0.7264(4) 0.4183(3) 0.5510(3)
H80 H 0.6878 0.3959 0.6106
H81 H 0.7118 0.3747 0.5367
C82 C 0.8446(4) 0.4354(4) 0.5317(4)
H82 H 0.8574 0.4661 0.5597
H83 H 0.8816 0.4718 0.4720
C83 C 0.8921(5) 0.3529(4) 0.5591(4)
H84 H 0.8895 0.3290 0.5233
H85 H 0.9686 0.3687 0.5475
C84 C 0.8462(5) 0.2859(5) 0.6428(4)
H86 H 0.8492 0.3071 0.6800
H87 H 0.8868 0.2394 0.6497
H88 H 0.7715 0.2659 0.6552
loop_
_geom_bond_atom_site_label_1
_geom_bond_atom_site_label_2
_geom_bond_site_symmetry_1
_geom_bond_site_symmetry_2
O1 C4 1_555 1_555
O2 C5 1_555 1_555
O3 C15 1_555 1_555
O4 C14 1_555 1_555
O5 C46 1_555 1_555
O6 C47 1_555 1_555
O7 C57 1_555 1_555
O8 C56 1_555 1_555
N1 C4 1_555 1_555
N2 C14 1_555 1_555
N3 C1 1_555 1_555
N4 C11 1_555 1_555
N5 C46 1_555 1_555
N6 C56 1_555 1_555
N7 C43 1_555 1_555
N8 C53 1_555 1_555
C1 C2 1_555 1_555
C2 H1 1_555 1_555
C3 C2 1_555 1_555
C4 C3 1_555 1_555
C5 N1 1_555 1_555
C6 C5 1_555 1_555
C7 C6 1_555 1_555
H2 C7 1_555 1_555
C8 C7 1_555 1_555
H3 C8 1_555 1_555
C9 C8 1_555 1_555
C10 C9 1_555 1_555
C11 C10 1_555 1_555
C12 C11 1_555 1_555
H4 C12 1_555 1_555
C13 C12 1_555 1_555
C14 C13 1_555 1_555
C15 N2 1_555 1_555
C16 C15 1_555 1_555
C17 C16 1_555 1_555
H5 C17 1_555 1_555
C18 C17 1_555 1_555
H6 C18 1_555 1_555
C19 C18 1_555 1_555
C20 C1 1_555 1_555
C21 C3 1_555 1_555
C22 C9 1_555 1_555
C23 C10 1_555 1_555
C24 C13 1_555 1_555
C25 N3 1_555 1_555
H7 C25 1_555 1_555
H8 C25 1_555 1_555
C26 C25 1_555 1_555
H9 C26 1_555 1_555
H10 C26 1_555 1_555
C27 C26 1_555 1_555
H11 C27 1_555 1_555
H12 C27 1_555 1_555
C28 C27 1_555 1_555
H13 C28 1_555 1_555
H14 C28 1_555 1_555
C29 N3 1_555 1_555
H15 C29 1_555 1_555
H16 C29 1_555 1_555
C30 N4 1_555 1_555
H17 C30 1_555 1_555
H18 C30 1_555 1_555
C31 C30 1_555 1_555
H19 C31 1_555 1_555
H20 C31 1_555 1_555
C32 C31 1_555 1_555
H21 C32 1_555 1_555
H22 C32 1_555 1_555
C33 C32 1_555 1_555
H23 C33 1_555 1_555
H24 C33 1_555 1_555
C34 N4 1_555 1_555
H25 C34 1_555 1_555
H26 C34 1_555 1_555
C35 N1 1_555 1_555
H27 C35 1_555 1_555
H28 C35 1_555 1_555
C36 C35 1_555 1_555
H29 C36 1_555 1_555
H30 C36 1_555 1_555
C37 C36 1_555 1_555
H31 C37 1_555 1_555
H32 C37 1_555 1_555
C38 C37 1_555 1_555
H33 C38 1_555 1_555
H34 C38 1_555 1_555
H35 C38 1_555 1_555
C39 N2 1_555 1_555
H36 C39 1_555 1_555
H37 C39 1_555 1_555
C40 C39 1_555 1_555
H38 C40 1_555 1_555
H39 C40 1_555 1_555
C41 C40 1_555 1_555
H40 C41 1_555 1_555
H41 C41 1_555 1_555
C42 C41 1_555 1_555
H42 C42 1_555 1_555
H43 C42 1_555 1_555
H44 C42 1_555 1_555
C43 C44 1_555 1_555
C44 H45 1_555 1_555
C45 C44 1_555 1_555
C46 C45 1_555 1_555
C47 N5 1_555 1_555
C48 C47 1_555 1_555
C49 C48 1_555 1_555
H46 C49 1_555 1_555
C50 C49 1_555 1_555
H47 C50 1_555 1_555
C51 C50 1_555 1_555
C52 C51 1_555 1_555
C53 C52 1_555 1_555
C54 C53 1_555 1_555
H48 C54 1_555 1_555
C55 C54 1_555 1_555
C56 C55 1_555 1_555
C57 N6 1_555 1_555
C58 C57 1_555 1_555
C59 C58 1_555 1_555
H49 C59 1_555 1_555
C60 C59 1_555 1_555
H50 C60 1_555 1_555
C61 C60 1_555 1_555
C62 C43 1_555 1_555
C63 C45 1_555 1_555
C64 C51 1_555 1_555
C65 C52 1_555 1_555
C66 C55 1_555 1_555
C67 N7 1_555 1_555
H51 C67 1_555 1_555
H52 C67 1_555 1_555
C68 C67 1_555 1_555
H53 C68 1_555 1_555
H54 C68 1_555 1_555
C69 C68 1_555 1_555
H55 C69 1_555 1_555
H56 C69 1_555 1_555
C70 C69 1_555 1_555
H57 C70 1_555 1_555
H58 C70 1_555 1_555
C71 N7 1_555 1_555
H59 C71 1_555 1_555
H60 C71 1_555 1_555
C72 N8 1_555 1_555
H61 C72 1_555 1_555
H62 C72 1_555 1_555
C73 C72 1_555 1_555
H63 C73 1_555 1_555
H64 C73 1_555 1_555
C74 C73 1_555 1_555
H65 C74 1_555 1_555
H66 C74 1_555 1_555
C75 C74 1_555 1_555
H67 C75 1_555 1_555
H68 C75 1_555 1_555
C76 N8 1_555 1_555
H69 C76 1_555 1_555
H70 C76 1_555 1_555
C77 N5 1_555 1_555
H71 C77 1_555 1_555
H72 C77 1_555 1_555
C78 C77 1_555 1_555
H73 C78 1_555 1_555
H74 C78 1_555 1_555
C79 C78 1_555 1_555
H75 C79 1_555 1_555
H76 C79 1_555 1_555
C80 C79 1_555 1_555
H77 C80 1_555 1_555
H78 C80 1_555 1_555
H79 C80 1_555 1_555
C81 N6 1_555 1_555
H80 C81 1_555 1_555
H81 C81 1_555 1_555
C82 C81 1_555 1_555
H82 C82 1_555 1_555
H83 C82 1_555 1_555
C83 C82 1_555 1_555
H84 C83 1_555 1_555
H85 C83 1_555 1_555
C84 C83 1_555 1_555
H86 C84 1_555 1_555
H87 C84 1_555 1_555
H88 C84 1_555 1_555
C6 C21 1_555 1_555
C16 C24 1_555 1_555
C19 C20 1_555 1_555
C19 C23 1_555 1_555
C20 C22 1_555 1_555
C21 C22 1_555 1_555
C23 C24 1_555 1_555
C28 C29 1_555 1_555
C33 C34 1_555 1_555
C48 C63 1_555 1_555
C58 C66 1_555 1_555
C61 C62 1_555 1_555
C61 C65 1_555 1_555
C62 C64 1_555 1_555
C63 C64 1_555 1_555
C65 C66 1_555 1_555
C70 C71 1_555 1_555
C75 C76 1_555 1_555

#END
