
#######################################################################
#
#                 Cambridge Crystallographic Data Centre
#                                CCDC 
#
#######################################################################
#
# If this CIF has been generated from an entry in the Cambridge 
# Structural Database, then it will include bibliographic, chemical, 
# crystal, experimental, refinement or atomic coordinate data resulting 
# from the CCDC's data processing and validation procedures.
#
#######################################################################

data_BAMHOP
_chemical_formula_moiety         'C20 H21 N1 O3'
_chemical_name_systematic        
2-(3,3-dimethyl-1-phenylbutoxy)-1H-isoindole-1,3(2H)-dione
_symmetry_cell_setting           monoclinic
_symmetry_space_group_name_H-M   'P 21/c'
_symmetry_Int_Tables_number      14
_space_group_name_Hall           '-P 2ybc'
loop_
_symmetry_equiv_pos_site_id
_symmetry_equiv_pos_as_xyz
1 x,y,z
2 -x,1/2+y,1/2-z
3 -x,-y,-z
4 x,1/2-y,1/2+z
_cell_length_a                   14.649(3)
_cell_length_b                   9.1488(18)
_cell_length_c                   13.375(3)
_cell_angle_alpha                90
_cell_angle_beta                 102.24(3)
_cell_angle_gamma                90
_cell_volume                     1751.78
_exptl_crystal_colour            colorless
_exptl_crystal_description       plate
_cell_formula_units_Z            4
loop_
_atom_site_label
_atom_site_type_symbol
_atom_site_fract_x
_atom_site_fract_y
_atom_site_fract_z
O1 O 0.51778(9) 0.53152(14) 0.23415(9)
O2 O 0.69857(8) 0.15591(13) 0.39505(10)
O3 O 0.68129(8) 0.36656(13) 0.23427(8)
N1 N 0.62793(10) 0.35914(15) 0.30815(10)
C1 C 0.63636(11) 0.24507(17) 0.37935(12)
C2 C 0.55483(11) 0.26464(17) 0.42808(12)
C3 C 0.49984(11) 0.37772(17) 0.37833(12)
C4 C 0.54442(11) 0.43779(17) 0.29713(12)
C5 C 0.41802(12) 0.41806(19) 0.40612(13)
H1 H 0.3814 0.4940 0.3732
C6 C 0.39234(13) 0.3408(2) 0.48537(14)
H2 H 0.3372 0.3647 0.5054
C7 C 0.44774(13) 0.2283(2) 0.53514(14)
H3 H 0.4290 0.1785 0.5880
C8 C 0.53082(12) 0.18851(19) 0.50741(13)
H4 H 0.5683 0.1139 0.5410
C9 C 0.77725(11) 0.41423(18) 0.27816(13)
H5 H 0.8073 0.3419 0.3286
C10 C 0.78056(11) 0.56147(17) 0.32910(12)
C11 C 0.83939(12) 0.58171(19) 0.42427(13)
H6 H 0.8729 0.5028 0.4572
C12 C 0.84874(13) 0.7182(2) 0.47083(14)
H7 H 0.8886 0.7304 0.5344
C13 C 0.79879(13) 0.8357(2) 0.42268(14)
H8 H 0.8050 0.9273 0.4535
C14 C 0.73959(14) 0.81651(19) 0.32865(14)
H9 H 0.7055 0.8954 0.2965
C15 C 0.73041(13) 0.68073(18) 0.28149(13)
H10 H 0.6906 0.6693 0.2178
C16 C 0.82533(12) 0.41278(18) 0.18704(14)
H11 H 0.8681 0.4949 0.1942
H12 H 0.7781 0.4286 0.1252
C17 C 0.87977(12) 0.2737(2) 0.17252(14)
C18 C 0.91769(14) 0.2939(2) 0.07507(16)
H13 H 0.8665 0.3044 0.0174
H14 H 0.9543 0.2102 0.0652
H15 H 0.9561 0.3799 0.0815
C19 C 0.96223(16) 0.2543(3) 0.26293(18)
H16 H 0.9999 0.3410 0.2711
H17 H 0.9992 0.1723 0.2504
H18 H 0.9394 0.2372 0.3241
C20 C 0.81602(16) 0.1404(2) 0.16094(17)
H19 H 0.7924 0.1277 0.2221
H20 H 0.8507 0.0551 0.1497
H21 H 0.7648 0.1543 0.1037
loop_
_geom_bond_atom_site_label_1
_geom_bond_atom_site_label_2
_geom_bond_site_symmetry_1
_geom_bond_site_symmetry_2
O1 C4 1_555 1_555
O2 C1 1_555 1_555
O3 N1 1_555 1_555
N1 C1 1_555 1_555
C1 C2 1_555 1_555
C2 C3 1_555 1_555
C3 C4 1_555 1_555
C4 N1 1_555 1_555
C5 C3 1_555 1_555
H1 C5 1_555 1_555
C6 C5 1_555 1_555
H2 C6 1_555 1_555
C7 C6 1_555 1_555
H3 C7 1_555 1_555
C8 C2 1_555 1_555
H4 C8 1_555 1_555
C9 O3 1_555 1_555
H5 C9 1_555 1_555
C10 C9 1_555 1_555
C11 C10 1_555 1_555
H6 C11 1_555 1_555
C12 C11 1_555 1_555
H7 C12 1_555 1_555
C13 C12 1_555 1_555
H8 C13 1_555 1_555
C14 C13 1_555 1_555
H9 C14 1_555 1_555
C15 C10 1_555 1_555
H10 C15 1_555 1_555
C16 C9 1_555 1_555
H11 C16 1_555 1_555
H12 C16 1_555 1_555
C17 C16 1_555 1_555
C18 C17 1_555 1_555
H13 C18 1_555 1_555
H14 C18 1_555 1_555
H15 C18 1_555 1_555
C19 C17 1_555 1_555
H16 C19 1_555 1_555
H17 C19 1_555 1_555
H18 C19 1_555 1_555
C20 C17 1_555 1_555
H19 C20 1_555 1_555
H20 C20 1_555 1_555
H21 C20 1_555 1_555
C7 C8 1_555 1_555
C14 C15 1_555 1_555

#END
