
#######################################################################
#
#                 Cambridge Crystallographic Data Centre
#                                CCDC 
#
#######################################################################
#
# If this CIF has been generated from an entry in the Cambridge 
# Structural Database, then it will include bibliographic, chemical, 
# crystal, experimental, refinement or atomic coordinate data resulting 
# from the CCDC's data processing and validation procedures.
#
#######################################################################

data_BAMLAF
_chemical_formula_moiety         'C14 H17 N1 O3 S1'
_chemical_name_systematic        
'1-oxo-1-phenylpropan-2-yl thiomorpholine-4-carboxylate'
_symmetry_cell_setting           monoclinic
_symmetry_space_group_name_H-M   'P 21/n'
_symmetry_Int_Tables_number      14
_space_group_name_Hall           '-P 2yn'
loop_
_symmetry_equiv_pos_site_id
_symmetry_equiv_pos_as_xyz
1 x,y,z
2 1/2-x,1/2+y,1/2-z
3 -x,-y,-z
4 1/2+x,1/2-y,1/2+z
_cell_length_a                   10.04588(15)
_cell_length_b                   9.57981(12)
_cell_length_c                   15.0463(2)
_cell_angle_alpha                90
_cell_angle_beta                 109.0008(16)
_cell_angle_gamma                90
_cell_volume                     1369.12
_exptl_crystal_colour            colorless
_exptl_crystal_description       block
_cell_formula_units_Z            4
loop_
_atom_site_label
_atom_site_type_symbol
_atom_site_fract_x
_atom_site_fract_y
_atom_site_fract_z
S1 S 0.76271(4) 0.31736(4) 0.25584(2)
O1 O 0.65706(9) 0.21523(9) 0.55920(6)
O2 O 0.84187(10) 0.36314(10) 0.61222(6)
O3 O 0.54739(11) 0.40554(10) 0.64298(6)
N1 N 0.72609(11) 0.33739(11) 0.45504(7)
C1 C 0.74931(13) 0.31121(12) 0.54700(9)
C2 C 0.66793(13) 0.18891(12) 0.65488(8)
H1 H 0.7661 0.1697 0.6921
C3 C 0.61434(13) 0.31501(12) 0.69493(8)
C4 C 0.64409(12) 0.32303(13) 0.79874(8)
C5 C 0.80932(13) 0.44404(13) 0.42775(9)
H2 H 0.8777 0.4828 0.4837
H3 H 0.7479 0.5191 0.3952
C6 C 0.58094(13) 0.43086(14) 0.83295(9)
H4 H 0.5181 0.4907 0.7911
C7 C 0.73569(13) 0.23129(14) 0.86185(9)
H5 H 0.7766 0.1578 0.8397
C8 C 0.88525(13) 0.38350(14) 0.36432(9)
H6 H 0.9465 0.3084 0.3970
H7 H 0.9434 0.4552 0.3501
C9 C 0.57742(14) 0.06108(13) 0.65387(10)
H8 H 0.4801 0.0840 0.6236
H9 H 0.5911 0.0318 0.7172
H10 H 0.6039 -0.0131 0.6202
C10 C 0.61088(13) 0.27684(14) 0.37838(9)
H11 H 0.5462 0.3502 0.3469
H12 H 0.5597 0.2109 0.4040
C11 C 0.66479(15) 0.20272(14) 0.30752(9)
H13 H 0.5855 0.1641 0.2580
H14 H 0.7249 0.1258 0.3385
C12 C 0.70303(16) 0.35871(19) 0.99083(10)
H15 H 0.7230 0.3708 1.0552
C13 C 0.76533(15) 0.25038(17) 0.95799(10)
H16 H 0.8271 0.1902 1.0003
C14 C 0.61115(16) 0.44926(16) 0.92866(10)
H17 H 0.5699 0.5221 0.9512
loop_
_geom_bond_atom_site_label_1
_geom_bond_atom_site_label_2
_geom_bond_site_symmetry_1
_geom_bond_site_symmetry_2
S1 C8 1_555 1_555
O1 C1 1_555 1_555
O2 C1 1_555 1_555
O3 C3 1_555 1_555
N1 C1 1_555 1_555
C2 O1 1_555 1_555
H1 C2 1_555 1_555
C3 C2 1_555 1_555
C4 C3 1_555 1_555
C5 N1 1_555 1_555
H2 C5 1_555 1_555
H3 C5 1_555 1_555
C6 C4 1_555 1_555
H4 C6 1_555 1_555
C7 C4 1_555 1_555
H5 C7 1_555 1_555
C8 C5 1_555 1_555
H6 C8 1_555 1_555
H7 C8 1_555 1_555
C9 C2 1_555 1_555
H8 C9 1_555 1_555
H9 C9 1_555 1_555
H10 C9 1_555 1_555
C10 N1 1_555 1_555
H11 C10 1_555 1_555
H12 C10 1_555 1_555
C11 S1 1_555 1_555
H13 C11 1_555 1_555
H14 C11 1_555 1_555
C12 H15 1_555 1_555
C13 C7 1_555 1_555
H16 C13 1_555 1_555
C14 C6 1_555 1_555
H17 C14 1_555 1_555
C10 C11 1_555 1_555
C12 C13 1_555 1_555
C12 C14 1_555 1_555

#END
