
#######################################################################
#
#                 Cambridge Crystallographic Data Centre
#                                CCDC 
#
#######################################################################
#
# If this CIF has been generated from an entry in the Cambridge 
# Structural Database, then it will include bibliographic, chemical, 
# crystal, experimental, refinement or atomic coordinate data resulting 
# from the CCDC's data processing and validation procedures.
#
#######################################################################

data_BAMTIV
_chemical_formula_moiety         'C24 H24 P1 S1 1+,I1 1-'
_chemical_name_systematic        
'((E,E)-4-(ethylsulfanyl)buta-1,3-dien-1-yl)(triphenyl)phosphonium iodide'
_symmetry_cell_setting           monoclinic
_symmetry_space_group_name_H-M   'P 21/c'
_symmetry_Int_Tables_number      14
_space_group_name_Hall           '-P 2ybc'
loop_
_symmetry_equiv_pos_site_id
_symmetry_equiv_pos_as_xyz
1 x,y,z
2 -x,1/2+y,1/2-z
3 -x,-y,-z
4 x,1/2-y,1/2+z
_cell_length_a                   17.989(4)
_cell_length_b                   25.782(5)
_cell_length_c                   10.133(2)
_cell_angle_alpha                90
_cell_angle_beta                 91.28(3)
_cell_angle_gamma                90
_cell_volume                     4698.44
_exptl_crystal_colour            colorless
_exptl_crystal_description       prism
_cell_formula_units_Z            8
loop_
_atom_site_label
_atom_site_type_symbol
_atom_site_fract_x
_atom_site_fract_y
_atom_site_fract_z
I1 I 0.289257(18) 0.639565(16) 0.42847(4)
P1 P -0.00643(6) 0.59919(5) 0.75834(12)
C1 C -0.0144(3) 0.63826(18) 0.6171(5)
H1 H -0.0623 0.6473 0.5893
C2 C 0.0412(2) 0.65627(17) 0.5456(5)
H2 H 0.0894 0.6505 0.5770
C3 C 0.0318(3) 0.68382(18) 0.4240(5)
H3 H -0.0159 0.6926 0.3949
C4 C 0.0900(3) 0.69740(18) 0.3506(5)
H4 H 0.1375 0.6914 0.3854
S1 S 0.08263(8) 0.72510(6) 0.19655(14)
C5 C 0.1791(3) 0.7380(2) 0.1634(5)
H5 H 0.2071 0.7061 0.1756
H6 H 0.1831 0.7481 0.0717
C6 C 0.2132(4) 0.7785(3) 0.2468(7)
H7 H 0.1801 0.8076 0.2517
H8 H 0.2592 0.7895 0.2093
H9 H 0.2227 0.7650 0.3339
C7 C 0.0880(2) 0.59202(17) 0.8161(4)
C8 C 0.1094(3) 0.6086(2) 0.9403(5)
H10 H 0.0749 0.6242 0.9945
C9 C 0.1824(3) 0.6021(2) 0.9853(6)
H11 H 0.1960 0.6116 1.0710
C10 C 0.2338(3) 0.5820(2) 0.9040(6)
H12 H 0.2831 0.5792 0.9326
C11 C 0.2133(3) 0.5657(3) 0.7795(6)
H13 H 0.2487 0.5512 0.7251
C12 C 0.1409(3) 0.5705(2) 0.7344(5)
H14 H 0.1274 0.5595 0.6499
C13 C -0.0443(2) 0.53648(17) 0.7179(4)
C14 C -0.0106(3) 0.4914(2) 0.7600(6)
H15 H 0.0345 0.4924 0.8067
C15 C -0.0446(4) 0.4443(2) 0.7321(7)
H16 H -0.0224 0.4137 0.7616
C16 C -0.1098(3) 0.4421(2) 0.6625(6)
H17 H -0.1322 0.4102 0.6443
C17 C -0.1423(3) 0.4873(2) 0.6191(6)
H18 H -0.1870 0.4860 0.5710
C18 C -0.1097(3) 0.5342(2) 0.6458(5)
H19 H -0.1319 0.5646 0.6151
C19 C -0.0602(2) 0.62680(19) 0.8880(5)
C20 C -0.0694(4) 0.6793(2) 0.8953(7)
H20 H -0.0510 0.7006 0.8296
C21 C -0.1062(4) 0.7009(3) 1.0011(10)
H21 H -0.1134 0.7365 1.0064
C22 C -0.1320(4) 0.6683(4) 1.0983(8)
H22 H -0.1556 0.6826 1.1704
C23 C -0.1241(3) 0.6169(4) 1.0919(7)
H23 H -0.1423 0.5959 1.1583
C24 C -0.0885(3) 0.5952(3) 0.9852(5)
H24 H -0.0836 0.5594 0.9789
I2 I 0.212768(19) 0.342463(16) 0.52168(5)
P2 P 0.51662(6) 0.41222(4) 0.25137(10)
C25 C 0.5233(2) 0.37372(17) 0.3930(4)
H25 H 0.5709 0.3652 0.4235
C26 C 0.4663(2) 0.35536(16) 0.4618(4)
H26 H 0.4185 0.3664 0.4393
C27 C 0.4759(2) 0.31932(18) 0.5686(4)
H27 H 0.5236 0.3086 0.5929
C28 C 0.4190(3) 0.30117(17) 0.6330(4)
H28 H 0.3721 0.3148 0.6142
S2 S 0.42737(8) 0.25288(6) 0.75193(14)
C29 C 0.3366(3) 0.2562(2) 0.8237(6)
H29 H 0.2991 0.2598 0.7539
H30 H 0.3269 0.2242 0.8706
C30 C 0.3310(4) 0.3009(3) 0.9169(7)
H31 H 0.3743 0.3018 0.9739
H32 H 0.2874 0.2970 0.9690
H33 H 0.3276 0.3327 0.8676
C31 C 0.4233(2) 0.43372(18) 0.2185(4)
C32 C 0.4033(3) 0.4851(2) 0.2297(4)
H34 H 0.4390 0.5096 0.2547
C33 C 0.3313(3) 0.5007(2) 0.2043(5)
H35 H 0.3183 0.5355 0.2104
C34 C 0.2792(3) 0.4642(3) 0.1700(6)
H36 H 0.2305 0.4747 0.1521
C35 C 0.2967(3) 0.4128(2) 0.1612(5)
H37 H 0.2602 0.3884 0.1398
C36 C 0.3693(2) 0.3976(2) 0.1845(5)
H38 H 0.3821 0.3628 0.1773
C37 C 0.5752(2) 0.46819(16) 0.2722(4)
C38 C 0.5965(2) 0.49676(18) 0.1642(5)
H39 H 0.5820 0.4863 0.0796
C39 C 0.6394(3) 0.5408(2) 0.1810(5)
H40 H 0.6527 0.5604 0.1082
C40 C 0.6624(3) 0.5555(2) 0.3054(6)
H41 H 0.6910 0.5852 0.3168
C41 C 0.6433(3) 0.5267(2) 0.4122(5)
H42 H 0.6600 0.5364 0.4961
C42 C 0.5994(3) 0.48327(18) 0.3970(4)
H43 H 0.5860 0.4641 0.4705
C43 C 0.5482(2) 0.37501(16) 0.1137(4)
C44 C 0.5922(3) 0.3319(2) 0.1336(5)
H44 H 0.6039 0.3206 0.2188
C45 C 0.6187(3) 0.3055(3) 0.0263(7)
H45 H 0.6478 0.2760 0.0394
C46 C 0.6028(4) 0.3221(3) -0.0992(7)
H46 H 0.6222 0.3045 -0.1708
C47 C 0.5589(4) 0.3642(2) -0.1197(5)
H47 H 0.5479 0.3752 -0.2054
C48 C 0.5308(3) 0.3906(2) -0.0152(5)
H48 H 0.4999 0.4191 -0.0299
loop_
_geom_bond_atom_site_label_1
_geom_bond_atom_site_label_2
_geom_bond_site_symmetry_1
_geom_bond_site_symmetry_2
P1 C1 1_555 1_555
C1 H1 1_555 1_555
C2 C1 1_555 1_555
H2 C2 1_555 1_555
C3 C2 1_555 1_555
H3 C3 1_555 1_555
C4 C3 1_555 1_555
H4 C4 1_555 1_555
S1 C4 1_555 1_555
C5 S1 1_555 1_555
H5 C5 1_555 1_555
H6 C5 1_555 1_555
C6 C5 1_555 1_555
H7 C6 1_555 1_555
H8 C6 1_555 1_555
H9 C6 1_555 1_555
C7 P1 1_555 1_555
C8 C7 1_555 1_555
H10 C8 1_555 1_555
C9 C8 1_555 1_555
H11 C9 1_555 1_555
C10 C9 1_555 1_555
H12 C10 1_555 1_555
C11 C10 1_555 1_555
H13 C11 1_555 1_555
C12 C7 1_555 1_555
H14 C12 1_555 1_555
C13 P1 1_555 1_555
C14 C13 1_555 1_555
H15 C14 1_555 1_555
C15 C14 1_555 1_555
H16 C15 1_555 1_555
C16 C15 1_555 1_555
H17 C16 1_555 1_555
C17 C16 1_555 1_555
H18 C17 1_555 1_555
C18 C13 1_555 1_555
H19 C18 1_555 1_555
C19 P1 1_555 1_555
C20 C19 1_555 1_555
H20 C20 1_555 1_555
C21 C20 1_555 1_555
H21 C21 1_555 1_555
C22 C21 1_555 1_555
H22 C22 1_555 1_555
C23 C22 1_555 1_555
H23 C23 1_555 1_555
C24 C19 1_555 1_555
H24 C24 1_555 1_555
P2 C25 1_555 1_555
C25 H25 1_555 1_555
C26 C25 1_555 1_555
H26 C26 1_555 1_555
C27 C26 1_555 1_555
H27 C27 1_555 1_555
C28 C27 1_555 1_555
H28 C28 1_555 1_555
S2 C28 1_555 1_555
C29 S2 1_555 1_555
H29 C29 1_555 1_555
H30 C29 1_555 1_555
C30 C29 1_555 1_555
H31 C30 1_555 1_555
H32 C30 1_555 1_555
H33 C30 1_555 1_555
C31 P2 1_555 1_555
C32 C31 1_555 1_555
H34 C32 1_555 1_555
C33 C32 1_555 1_555
H35 C33 1_555 1_555
C34 C33 1_555 1_555
H36 C34 1_555 1_555
C35 C34 1_555 1_555
H37 C35 1_555 1_555
C36 C31 1_555 1_555
H38 C36 1_555 1_555
C37 P2 1_555 1_555
C38 C37 1_555 1_555
H39 C38 1_555 1_555
C39 C38 1_555 1_555
H40 C39 1_555 1_555
C40 C39 1_555 1_555
H41 C40 1_555 1_555
C41 C40 1_555 1_555
H42 C41 1_555 1_555
C42 C37 1_555 1_555
H43 C42 1_555 1_555
C43 P2 1_555 1_555
C44 C43 1_555 1_555
H44 C44 1_555 1_555
C45 C44 1_555 1_555
H45 C45 1_555 1_555
C46 C45 1_555 1_555
H46 C46 1_555 1_555
C47 C46 1_555 1_555
H47 C47 1_555 1_555
C48 C43 1_555 1_555
H48 C48 1_555 1_555
C11 C12 1_555 1_555
C17 C18 1_555 1_555
C23 C24 1_555 1_555
C35 C36 1_555 1_555
C41 C42 1_555 1_555
C47 C48 1_555 1_555

#END
