
#######################################################################
#
#                 Cambridge Crystallographic Data Centre
#                                CCDC 
#
#######################################################################
#
# If this CIF has been generated from an entry in the Cambridge 
# Structural Database, then it will include bibliographic, chemical, 
# crystal, experimental, refinement or atomic coordinate data resulting 
# from the CCDC's data processing and validation procedures.
#
#######################################################################

data_BAMYOD
_chemical_formula_moiety         'C30 H30 O2 P2,0.5(C4 H8 O2)'
_chemical_name_systematic        
'cis-2,17-Diphenyl-2,17-diphospha-6,13-dioxatricyclo(16.4.0.0^7,12^)docosa-7(12),8,10,1(18),19,21-hexaene ethyl acetate solvate'
_symmetry_cell_setting           monoclinic
_symmetry_space_group_name_H-M   'P 21/c'
_symmetry_Int_Tables_number      14
_space_group_name_Hall           '-P 2ybc'
loop_
_symmetry_equiv_pos_site_id
_symmetry_equiv_pos_as_xyz
1 x,y,z
2 -x,1/2+y,1/2-z
3 -x,-y,-z
4 x,1/2-y,1/2+z
_cell_length_a                   17.626(2)
_cell_length_b                   9.105(1)
_cell_length_c                   18.977(2)
_cell_angle_alpha                90
_cell_angle_beta                 107.42(1)
_cell_angle_gamma                90
_cell_volume                     2905.84
_exptl_crystal_colour            colorless
_chemical_melting_point          69-70deg.C
_cell_formula_units_Z            4
loop_
_atom_site_label
_atom_site_type_symbol
_atom_site_fract_x
_atom_site_fract_y
_atom_site_fract_z
P1 P 0.32158 0.35929 0.29437
P2 P 0.30532 0.61792 0.40958
O1 O 0.08580 0.49190 0.40810
O2 O 0.09430 0.25700 0.34150
C1 C 0.21360 0.33090 0.27380
C2 C 0.19310 0.17470 0.29210
C3 C 0.10620 0.15940 0.28690
C4 C 0.08670 0.63320 0.43520
C5 C 0.17100 0.68030 0.45680
C6 C 0.20520 0.69500 0.39200
C7 C 0.32450 0.66500 0.32180
C8 C 0.32620 0.55520 0.26970
C9 C 0.33750 0.59800 0.20380
C10 C 0.34830 0.74230 0.18780
C11 C 0.34750 0.85020 0.23880
C12 C 0.33470 0.81100 0.30410
C13 C 0.01920 0.29010 0.34170
C14 C 0.01200 0.41960 0.37680
C15 C -0.06010 0.46210 0.38380
C16 C -0.12580 0.37510 0.35510
C17 C -0.11990 0.24690 0.31880
C18 C -0.04700 0.20580 0.31210
C19 C 0.34410 0.26710 0.21640
C20 C 0.42430 0.24250 0.22510
C21 C 0.44730 0.17120 0.16980
C22 C 0.39000 0.12460 0.10590
C23 C 0.30980 0.14930 0.09720
C24 C 0.28680 0.22050 0.15250
C25 C 0.36810 0.75340 0.47250
C26 C 0.44650 0.71240 0.50710
C27 C 0.49720 0.80660 0.55760
C28 C 0.46930 0.94190 0.57350
C29 C 0.39090 0.98300 0.53890
C30 C 0.34030 0.88870 0.48840
loop_
_geom_bond_atom_site_label_1
_geom_bond_atom_site_label_2
_geom_bond_site_symmetry_1
_geom_bond_site_symmetry_2
P1 C1 1_555 1_555
P2 C6 1_555 1_555
O1 C4 1_555 1_555
O2 C3 1_555 1_555
C1 C2 1_555 1_555
C2 C3 1_555 1_555
C4 C5 1_555 1_555
C5 C6 1_555 1_555
C7 P2 1_555 1_555
C8 P1 1_555 1_555
C9 C8 1_555 1_555
C10 C9 1_555 1_555
C11 C10 1_555 1_555
C12 C7 1_555 1_555
C13 O2 1_555 1_555
C14 O1 1_555 1_555
C15 C14 1_555 1_555
C16 C15 1_555 1_555
C17 C16 1_555 1_555
C18 C13 1_555 1_555
C19 P1 1_555 1_555
C20 C19 1_555 1_555
C21 C20 1_555 1_555
C22 C21 1_555 1_555
C23 C22 1_555 1_555
C24 C19 1_555 1_555
C25 P2 1_555 1_555
C26 C25 1_555 1_555
C27 C26 1_555 1_555
C28 C27 1_555 1_555
C29 C28 1_555 1_555
C30 C25 1_555 1_555
C7 C8 1_555 1_555
C11 C12 1_555 1_555
C13 C14 1_555 1_555
C17 C18 1_555 1_555
C23 C24 1_555 1_555
C29 C30 1_555 1_555

#END
