
#######################################################################
#
#                 Cambridge Crystallographic Data Centre
#                                CCDC 
#
#######################################################################
#
# If this CIF has been generated from an entry in the Cambridge 
# Structural Database, then it will include bibliographic, chemical, 
# crystal, experimental, refinement or atomic coordinate data resulting 
# from the CCDC's data processing and validation procedures.
#
#######################################################################

data_BAMYUJ
_chemical_formula_moiety         'C15 H19 Cl1 O1'
_chemical_name_systematic        
trans-1,4-Dimethyl-4-chloro-1-benzoylcyclohexane
_symmetry_cell_setting           monoclinic
_symmetry_space_group_name_H-M   'P 21/c'
_symmetry_Int_Tables_number      14
_space_group_name_Hall           '-P 2ybc'
loop_
_symmetry_equiv_pos_site_id
_symmetry_equiv_pos_as_xyz
1 x,y,z
2 -x,1/2+y,1/2-z
3 -x,-y,-z
4 x,1/2-y,1/2+z
_cell_length_a                   6.042(2)
_cell_length_b                   19.751(9)
_cell_length_c                   11.699(4)
_cell_angle_alpha                90
_cell_angle_beta                 99.15(2)
_cell_angle_gamma                90
_cell_volume                     1378.34
_chemical_melting_point          65deg.C
_cell_formula_units_Z            4
loop_
_atom_site_label
_atom_site_type_symbol
_atom_site_fract_x
_atom_site_fract_y
_atom_site_fract_z
Cl1 Cl 0.82690 0.01925 0.34083
O1 O 0.50090 0.23683 0.57160
C1 C 0.83020 0.17470 0.54760
C2 C 0.96480 0.16750 0.44840
C3 C 0.81920 0.15710 0.33220
C4 C 0.65970 0.09740 0.32870
C5 C 0.53470 0.10010 0.43090
C6 C 0.68040 0.11150 0.54680
C7 C 0.50220 0.09280 0.21420
C8 C 0.98960 0.17890 0.66400
C9 C 0.68150 0.23810 0.53830
C10 C 0.74910 0.30340 0.48760
C11 C 0.58220 0.34040 0.42010
C12 C 0.62670 0.40280 0.37630
C13 C 0.84000 0.42950 0.40110
C14 C 1.00710 0.39390 0.46740
C15 C 0.96390 0.33060 0.50950
H1 H 1.06300 0.12900 0.46600
H2 H 1.06000 0.20600 0.44500
H3 H 0.91600 0.15200 0.27400
H4 H 0.72100 0.19700 0.31100
H5 H 0.45200 0.06000 0.43300
H6 H 0.42200 0.13800 0.41100
H7 H 0.58900 0.11700 0.60500
H8 H 0.78200 0.07200 0.56500
H9 H 0.39400 0.05800 0.22000
H10 H 0.58200 0.08700 0.15200
H11 H 0.41600 0.13500 0.20500
H12 H 1.09700 0.21800 0.67000
H13 H 1.07500 0.13500 0.68000
H14 H 0.90300 0.18300 0.72600
H15 H 0.43600 0.32000 0.40500
H16 H 0.51000 0.42600 0.32800
H17 H 0.87000 0.47500 0.37200
H18 H 1.15800 0.41100 0.48600
H19 H 1.08200 0.30700 0.55300
loop_
_geom_bond_atom_site_label_1
_geom_bond_atom_site_label_2
_geom_bond_site_symmetry_1
_geom_bond_site_symmetry_2
Cl1 C4 1_555 1_555
O1 C9 1_555 1_555
C1 C2 1_555 1_555
C2 C3 1_555 1_555
C3 C4 1_555 1_555
C4 C5 1_555 1_555
C5 C6 1_555 1_555
C6 C1 1_555 1_555
C7 C4 1_555 1_555
C8 C1 1_555 1_555
C9 C1 1_555 1_555
C10 C9 1_555 1_555
C11 C10 1_555 1_555
C12 C11 1_555 1_555
C13 C12 1_555 1_555
C14 C13 1_555 1_555
C15 C10 1_555 1_555
H1 C2 1_555 1_555
H2 C2 1_555 1_555
H3 C3 1_555 1_555
H4 C3 1_555 1_555
H5 C5 1_555 1_555
H6 C5 1_555 1_555
H7 C6 1_555 1_555
H8 C6 1_555 1_555
H9 C7 1_555 1_555
H10 C7 1_555 1_555
H11 C7 1_555 1_555
H12 C8 1_555 1_555
H13 C8 1_555 1_555
H14 C8 1_555 1_555
H15 C11 1_555 1_555
H16 C12 1_555 1_555
H17 C13 1_555 1_555
H18 C14 1_555 1_555
H19 C15 1_555 1_555
C14 C15 1_555 1_555

#END
