
#######################################################################
#
#                 Cambridge Crystallographic Data Centre
#                                CCDC 
#
#######################################################################
#
# If this CIF has been generated from an entry in the Cambridge 
# Structural Database, then it will include bibliographic, chemical, 
# crystal, experimental, refinement or atomic coordinate data resulting 
# from the CCDC's data processing and validation procedures.
#
#######################################################################

data_BAMZOG
_chemical_formula_moiety         
'C37 H45 N1 O14,C14 H16 N2 2+,2(F6 P1 1-),C3 H6 O1'
_chemical_name_systematic        
"4,7,10,13,16,22,25,28,31,34,38,46-Dodecaoxa-48-azapentacyclo[17.17.11.1^3,35^.1^17,21^.1^40,44^]pentaconta-1,3(49),17(50),18,20,35,40(48),41,43-nonaene-39,45-dione 4,4'-ethane-1,2-diylidenebis(1-methyl-1,4-dihydropyridinium) clathrate bis(hexafluorophosphate) acetone solvate"
_symmetry_cell_setting           monoclinic
_symmetry_space_group_name_H-M   'P 21/n'
_symmetry_Int_Tables_number      14
_space_group_name_Hall           '-P 2yn'
loop_
_symmetry_equiv_pos_site_id
_symmetry_equiv_pos_as_xyz
1 x,y,z
2 1/2-x,1/2+y,1/2-z
3 -x,-y,-z
4 1/2+x,1/2-y,1/2+z
_cell_length_a                   10.17908(16)
_cell_length_b                   15.1636(2)
_cell_length_c                   38.4029(7)
_cell_angle_alpha                90
_cell_angle_beta                 89.9136(15)
_cell_angle_gamma                90
_cell_volume                     5927.54
_exptl_crystal_colour            yellow
_exptl_crystal_description       block
_cell_formula_units_Z            4
loop_
_atom_site_label
_atom_site_type_symbol
_atom_site_fract_x
_atom_site_fract_y
_atom_site_fract_z
P1 P 1.29808(12) 0.65776(8) 0.23307(3)
F7 F 1.1603(3) 0.69639(19) 0.22059(9)
F8 F 1.2534(3) 0.56150(17) 0.22198(9)
F9 F 1.3439(3) 0.7540(2) 0.24538(8)
F10 F 1.4369(3) 0.6184(2) 0.24554(8)
F11 F 1.2375(3) 0.6415(2) 0.27087(8)
F12 F 1.3585(3) 0.6758(2) 0.19549(7)
P2 P 1.00386(11) 0.62036(8) 0.05223(3)
F1 F 0.9864(3) 0.6698(2) 0.01593(8)
F2 F 1.0718(4) 0.5400(3) 0.03101(11)
F3 F 1.1448(3) 0.6600(3) 0.05652(9)
F4 F 0.9341(4) 0.6947(3) 0.07203(11)
F5 F 0.8650(3) 0.5729(2) 0.04655(8)
F6 F 1.0222(3) 0.5645(3) 0.08640(10)
O1 O 0.1414(3) 0.8488(2) 0.31763(9)
O2 O 0.3317(2) 0.82129(17) 0.34517(7)
O3 O 0.8363(3) 1.0027(2) 0.35549(8)
O4 O 0.9887(3) 1.0416(2) 0.41880(8)
O5 O 1.1259(3) 0.8980(2) 0.44685(10)
O6 O 1.0875(3) 0.75408(19) 0.49110(8)
O7 O 0.8376(3) 0.66936(19) 0.50281(8)
O8 O 0.3282(2) 0.62947(17) 0.43934(6)
O9 O 0.1554(3) 0.5405(2) 0.44926(8)
O10 O 0.7807(3) 0.77222(17) 0.27760(8)
O11 O 0.8595(3) 0.59755(16) 0.26184(7)
O12 O 0.9235(2) 0.42889(17) 0.29053(7)
O13 O 0.8312(3) 0.37633(17) 0.35767(7)
O14 O 0.7558(3) 0.4391(2) 0.42285(7)
N1 N 0.2122(3) 0.69313(19) 0.38204(7)
C1 C 0.1607(3) 0.6211(2) 0.39665(9)
C2 C 0.0598(4) 0.5717(3) 0.38189(10)
H1 H 0.0275 0.5216 0.3930
C3 C 0.0090(3) 0.5989(3) 0.35044(11)
H2 H -0.0562 0.5662 0.3395
C4 C 0.3850(4) 0.6070(3) 0.47332(9)
H3 H 0.3412 0.5555 0.4828
H4 H 0.3729 0.6556 0.4894
C5 C 0.0559(4) 0.6750(3) 0.33546(10)
H5 H 0.0208 0.6960 0.3147
C6 C 0.1575(3) 0.7200(2) 0.35216(9)
C7 C 0.3851(4) 0.9032(3) 0.33113(12)
H6 H 0.3642 0.9518 0.3466
H7 H 0.3465 0.9153 0.3086
C8 C 0.5316(4) 0.8942(2) 0.32764(10)
C9 C 0.5829(4) 0.8324(2) 0.30466(10)
H8 H 0.5277 0.7942 0.2926
C10 C 0.7181(4) 0.8287(2) 0.29995(10)
C11 C 0.8016(4) 0.8857(3) 0.31763(10)
H9 H 0.8920 0.8828 0.3144
C12 C 0.7474(4) 0.9469(3) 0.34011(10)
C13 C 0.6126(4) 0.9515(3) 0.34573(10)
H10 H 0.5775 0.9921 0.3613
C14 C 0.7911(5) 1.0564(3) 0.38353(12)
H11 H 0.7463 1.0206 0.4008
H12 H 0.7304 1.1008 0.3750
C15 C 0.9097(5) 1.0996(3) 0.39925(12)
H13 H 0.9625 1.1250 0.3807
H14 H 0.8811 1.1475 0.4142
C16 C 1.0710(6) 0.9832(4) 0.39832(14)
H15 H 1.1064 1.0150 0.3785
H16 H 1.0187 0.9345 0.3896
C17 C 1.1783(5) 0.9492(4) 0.41954(14)
H17 H 1.2364 0.9134 0.4053
H18 H 1.2288 0.9978 0.4290
C18 C 1.2279(5) 0.8595(3) 0.46707(15)
H19 H 1.2939 0.9037 0.4724
H20 H 1.2698 0.8126 0.4540
C19 C 1.1731(5) 0.8244(3) 0.49916(14)
H21 H 1.2432 0.8037 0.5141
H22 H 1.1253 0.8703 0.5114
C20 C 1.0496(5) 0.7103(3) 0.52191(13)
H23 H 1.0022 0.7504 0.5371
H24 H 1.1264 0.6889 0.5342
C21 C 0.9638(5) 0.6352(3) 0.51184(14)
H25 H 1.0015 0.6041 0.4922
H26 H 0.9557 0.5941 0.5311
C22 C 0.7526(4) 0.6165(2) 0.48439(9)
C23 C 0.6194(4) 0.6361(2) 0.48765(9)
H27 H 0.5919 0.6811 0.5025
C24 C 0.5286(3) 0.5884(2) 0.46876(9)
C25 C 0.5695(4) 0.5206(2) 0.44667(9)
H28 H 0.5083 0.4879 0.4342
C26 C 0.7017(4) 0.5027(2) 0.44361(9)
C27 C 0.7946(4) 0.5503(3) 0.46259(10)
H29 H 0.8836 0.5374 0.4605
C28 C 0.2083(3) 0.8030(3) 0.33632(9)
C29 C 0.2145(4) 0.5916(2) 0.43127(10)
C30 C 0.6992(4) 0.7118(2) 0.25904(11)
H30 H 0.6409 0.7436 0.2435
H31 H 0.6461 0.6779 0.2752
C31 C 0.7867(4) 0.6518(3) 0.23862(10)
H32 H 0.7343 0.6152 0.2233
H33 H 0.8465 0.6864 0.2244
C32 C 0.9300(4) 0.5314(2) 0.24324(10)
H34 H 0.9879 0.5589 0.2263
H35 H 0.8690 0.4937 0.2308
C33 C 1.0091(3) 0.4775(2) 0.26840(10)
H36 H 1.0656 0.4373 0.2557
H37 H 1.0642 0.5160 0.2823
C34 C 0.9956(4) 0.3740(3) 0.31357(11)
H38 H 1.0498 0.4099 0.3287
H39 H 1.0528 0.3353 0.3003
C35 C 0.9027(5) 0.3204(3) 0.33489(12)
H40 H 0.8424 0.2892 0.3197
H41 H 0.9511 0.2771 0.3483
C36 C 0.7490(5) 0.3270(3) 0.38031(12)
H42 H 0.8023 0.2905 0.3955
H43 H 0.6923 0.2887 0.3668
C37 C 0.6672(4) 0.3892(3) 0.40173(11)
H44 H 0.6173 0.4282 0.3867
H45 H 0.6063 0.3565 0.4163
O15 O 1.1696(6) 0.9319(4) 0.11305(17)
C38 C 1.1367(8) 0.7929(6) 0.13948(18)
H46 H 1.1016 0.7447 0.1262
H47 H 1.0663 0.8237 0.1509
H48 H 1.1966 0.7707 0.1566
C39 C 1.2050(6) 0.8523(5) 0.11657(18)
C40 C 1.3130(7) 0.8192(6) 0.0951(2)
H49 H 1.3439 0.7642 0.1044
H50 H 1.3834 0.8613 0.0950
H51 H 1.2827 0.8103 0.0717
N2 N 0.4740(3) 0.4510(2) 0.28554(9)
N3 N 0.7577(3) 0.8538(2) 0.45273(9)
C41 C 0.4225(6) 0.3948(4) 0.25777(16)
H52 H 0.3953 0.4309 0.2385
H53 H 0.3487 0.3619 0.2664
H54 H 0.4898 0.3548 0.2502
C42 C 0.6023(4) 0.4587(3) 0.29095(11)
H55 H 0.6602 0.4255 0.2775
C43 C 0.6502(4) 0.5130(3) 0.31519(12)
H56 H 0.7406 0.5156 0.3185
C44 C 0.5698(5) 0.5654(3) 0.33543(11)
C45 C 0.4364(5) 0.5558(4) 0.32999(12)
H57 H 0.3771 0.5882 0.3433
C46 C 0.3913(4) 0.4987(4) 0.30502(14)
H58 H 0.3013 0.4929 0.3016
C47 C 0.6523(5) 0.7444(3) 0.40280(11)
C48 C 0.7860(5) 0.7444(3) 0.41021(12)
H59 H 0.8416 0.7069 0.3980
C49 C 0.8368(4) 0.7985(3) 0.43508(11)
H60 H 0.9263 0.7971 0.4399
C50 C 0.6292(5) 0.8565(3) 0.44552(12)
H61 H 0.5760 0.8960 0.4575
C51 C 0.5749(4) 0.8037(3) 0.42152(13)
H62 H 0.4850 0.8067 0.4173
C52 C 0.8148(5) 0.9081(3) 0.48077(13)
H63 H 0.8325 0.8716 0.5006
H64 H 0.7538 0.9536 0.4872
H65 H 0.8951 0.9344 0.4727
C53 C 0.5811(5) 0.6860(3) 0.37795(13)
H66 H 0.4912 0.6937 0.3750
C54 C 0.6392(5) 0.6261(4) 0.36076(14)
H67 H 0.7292 0.6190 0.3639
loop_
_geom_bond_atom_site_label_1
_geom_bond_atom_site_label_2
_geom_bond_site_symmetry_1
_geom_bond_site_symmetry_2
P1 F7 1_555 1_555
P2 F1 1_555 1_555
F2 P2 1_555 1_555
F3 P2 1_555 1_555
F4 P2 1_555 1_555
F5 P2 1_555 1_555
F6 P2 1_555 1_555
F8 P1 1_555 1_555
F9 P1 1_555 1_555
F10 P1 1_555 1_555
F11 P1 1_555 1_555
F12 P1 1_555 1_555
O1 C28 1_555 1_555
O2 C7 1_555 1_555
O3 C12 1_555 1_555
O4 C15 1_555 1_555
O5 C17 1_555 1_555
O6 C19 1_555 1_555
O7 C21 1_555 1_555
O8 C4 1_555 1_555
O9 C29 1_555 1_555
O10 C10 1_555 1_555
O11 C31 1_555 1_555
O12 C33 1_555 1_555
O13 C35 1_555 1_555
O14 C26 1_555 1_555
O15 C39 1_555 1_555
N1 C1 1_555 1_555
N2 C41 1_555 1_555
N3 C49 1_555 1_555
C1 C2 1_555 1_555
C2 H1 1_555 1_555
C3 C2 1_555 1_555
H2 C3 1_555 1_555
C4 H3 1_555 1_555
H4 C4 1_555 1_555
C5 C3 1_555 1_555
H5 C5 1_555 1_555
C6 N1 1_555 1_555
C7 H6 1_555 1_555
H7 C7 1_555 1_555
C8 C7 1_555 1_555
C9 C8 1_555 1_555
H8 C9 1_555 1_555
C10 C9 1_555 1_555
C11 C10 1_555 1_555
H9 C11 1_555 1_555
C12 C11 1_555 1_555
C13 C8 1_555 1_555
H10 C13 1_555 1_555
C14 O3 1_555 1_555
H11 C14 1_555 1_555
H12 C14 1_555 1_555
C15 C14 1_555 1_555
H13 C15 1_555 1_555
H14 C15 1_555 1_555
C16 O4 1_555 1_555
H15 C16 1_555 1_555
H16 C16 1_555 1_555
C17 C16 1_555 1_555
H17 C17 1_555 1_555
H18 C17 1_555 1_555
C18 O5 1_555 1_555
H19 C18 1_555 1_555
H20 C18 1_555 1_555
C19 C18 1_555 1_555
H21 C19 1_555 1_555
H22 C19 1_555 1_555
C20 O6 1_555 1_555
H23 C20 1_555 1_555
H24 C20 1_555 1_555
C21 C20 1_555 1_555
H25 C21 1_555 1_555
H26 C21 1_555 1_555
C22 O7 1_555 1_555
C23 C22 1_555 1_555
H27 C23 1_555 1_555
C24 C4 1_555 1_555
C25 C24 1_555 1_555
H28 C25 1_555 1_555
C26 C25 1_555 1_555
C27 C22 1_555 1_555
H29 C27 1_555 1_555
C28 O2 1_555 1_555
C29 O8 1_555 1_555
C30 O10 1_555 1_555
H30 C30 1_555 1_555
H31 C30 1_555 1_555
C31 C30 1_555 1_555
H32 C31 1_555 1_555
H33 C31 1_555 1_555
C32 O11 1_555 1_555
H34 C32 1_555 1_555
H35 C32 1_555 1_555
C33 C32 1_555 1_555
H36 C33 1_555 1_555
H37 C33 1_555 1_555
C34 O12 1_555 1_555
H38 C34 1_555 1_555
H39 C34 1_555 1_555
C35 C34 1_555 1_555
H40 C35 1_555 1_555
H41 C35 1_555 1_555
C36 O13 1_555 1_555
H42 C36 1_555 1_555
H43 C36 1_555 1_555
C37 O14 1_555 1_555
H44 C37 1_555 1_555
H45 C37 1_555 1_555
C38 H46 1_555 1_555
H47 C38 1_555 1_555
H48 C38 1_555 1_555
C39 C38 1_555 1_555
C40 C39 1_555 1_555
H49 C40 1_555 1_555
H50 C40 1_555 1_555
H51 C40 1_555 1_555
C41 H52 1_555 1_555
H53 C41 1_555 1_555
H54 C41 1_555 1_555
C42 N2 1_555 1_555
H55 C42 1_555 1_555
C43 C42 1_555 1_555
H56 C43 1_555 1_555
C44 C43 1_555 1_555
C45 C44 1_555 1_555
H57 C45 1_555 1_555
C46 N2 1_555 1_555
H58 C46 1_555 1_555
C47 C48 1_555 1_555
C48 H59 1_555 1_555
C49 C48 1_555 1_555
H60 C49 1_555 1_555
C50 N3 1_555 1_555
H61 C50 1_555 1_555
C51 C47 1_555 1_555
H62 C51 1_555 1_555
C52 N3 1_555 1_555
H63 C52 1_555 1_555
H64 C52 1_555 1_555
H65 C52 1_555 1_555
C53 C47 1_555 1_555
H66 C53 1_555 1_555
C54 C44 1_555 1_555
H67 C54 1_555 1_555
C1 C29 1_555 1_555
C5 C6 1_555 1_555
C6 C28 1_555 1_555
C12 C13 1_555 1_555
C23 C24 1_555 1_555
C26 C27 1_555 1_555
C36 C37 1_555 1_555
C45 C46 1_555 1_555
C50 C51 1_555 1_555
C53 C54 1_555 1_555

#END
