
#######################################################################
#
#                 Cambridge Crystallographic Data Centre
#                                CCDC 
#
#######################################################################
#
# If this CIF has been generated from an entry in the Cambridge 
# Structural Database, then it will include bibliographic, chemical, 
# crystal, experimental, refinement or atomic coordinate data resulting 
# from the CCDC's data processing and validation procedures.
#
#######################################################################

data_BAMZUM
_chemical_formula_moiety         'C27 H24 N2 O4 S1'
_chemical_name_systematic        
5-Ethyl-4-((4-nitrophenyl)imino)-5-phenyl-2-(1-phenylpropylidene)-1,3-oxathian-6-one
_symmetry_cell_setting           orthorhombic
_symmetry_space_group_name_H-M   'P 21 21 21'
_symmetry_Int_Tables_number      19
_space_group_name_Hall           'P 2ac 2ab'
loop_
_symmetry_equiv_pos_site_id
_symmetry_equiv_pos_as_xyz
1 x,y,z
2 1/2-x,-y,1/2+z
3 -x,1/2+y,1/2-z
4 1/2+x,1/2-y,-z
_cell_length_a                   7.6443(15)
_cell_length_b                   9.925(2)
_cell_length_c                   31.114(6)
_cell_angle_alpha                90
_cell_angle_beta                 90
_cell_angle_gamma                90
_cell_volume                     2360.61
_exptl_crystal_colour            colorless
_exptl_crystal_description       block
_cell_formula_units_Z            4
loop_
_atom_site_label
_atom_site_type_symbol
_atom_site_fract_x
_atom_site_fract_y
_atom_site_fract_z
S1 S 0.59973(8) 0.43692(5) 0.861607(18)
O1 O 0.88931(18) 0.56184(14) 0.83360(4)
O2 O 1.0908(2) 0.61146(16) 0.88089(5)
O3 O 0.1413(2) -0.04389(16) 0.94533(6)
O4 O -0.0582(2) 0.11007(19) 0.94697(7)
N1 N 0.6146(2) 0.47495(16) 0.94599(6)
N2 N 0.0952(3) 0.07393(19) 0.94692(6)
C1 C 0.7925(3) 0.5670(2) 0.71321(7)
H1 H 0.7488 0.4785 0.7089
C2 C 0.8845(3) 0.6294(2) 0.68056(8)
H2 H 0.9033 0.5839 0.6541
C3 C 0.9487(3) 0.7577(2) 0.68648(8)
H3 H 1.0100 0.8017 0.6639
C4 C 0.9239(3) 0.8219(2) 0.72520(8)
H4 H 0.9704 0.9096 0.7295
C5 C 0.8314(3) 0.7594(2) 0.75790(8)
H5 H 0.8148 0.8047 0.7845
C6 C 0.7626(3) 0.6312(2) 0.75215(7)
C7 C 0.6521(3) 0.5641(2) 0.78512(7)
C8 C 0.4673(3) 0.5304(2) 0.77172(8)
H6 H 0.4711 0.4719 0.7460
H7 H 0.4098 0.4791 0.7951
C9 C 0.3597(3) 0.6539(3) 0.76177(11)
H8 H 0.4155 0.7049 0.7385
H9 H 0.3517 0.7106 0.7875
H10 H 0.2420 0.6266 0.7528
C10 C 0.7134(3) 0.5356(2) 0.82401(7)
C11 C 0.7913(3) 0.8705(2) 0.87463(8)
H11 H 0.9154 0.8665 0.8755
C12 C 0.7097(3) 0.9867(2) 0.86060(9)
H12 H 0.7779 1.0623 0.8522
C13 C 0.5297(3) 0.9934(2) 0.85877(8)
H13 H 0.4736 1.0733 0.8492
C14 C 0.4320(3) 0.8834(2) 0.87096(8)
H14 H 0.3080 0.8872 0.8693
C15 C 0.5127(3) 0.7676(2) 0.88559(7)
H15 H 0.4440 0.6929 0.8945
C16 C 0.6941(3) 0.7603(2) 0.88734(7)
C17 C 0.9372(3) 0.60169(19) 0.87400(7)
C18 C 0.7907(3) 0.63712(19) 0.90578(7)
C19 C 0.6677(3) 0.51656(19) 0.90967(7)
C20 C 0.8747(3) 0.6724(2) 0.94968(7)
H16 H 0.9088 0.5875 0.9641
H17 H 0.9829 0.7246 0.9444
C21 C 0.7581(3) 0.7526(3) 0.97999(8)
H18 H 0.7392 0.8430 0.9682
H19 H 0.8148 0.7597 1.0082
H20 H 0.6454 0.7067 0.9831
C22 C 0.4856(3) 0.3723(2) 0.94682(7)
C23 C 0.3099(3) 0.4087(2) 0.94388(8)
H21 H 0.2784 0.5010 0.9416
C24 C 0.1817(3) 0.3112(2) 0.94427(8)
H22 H 0.0617 0.3350 0.9418
C25 C 0.2314(3) 0.1779(2) 0.94826(7)
C26 C 0.4036(3) 0.1396(2) 0.95248(7)
H23 H 0.4337 0.0473 0.9558
C27 C 0.5323(3) 0.2378(2) 0.95183(7)
H24 H 0.6519 0.2134 0.9548
loop_
_geom_bond_atom_site_label_1
_geom_bond_atom_site_label_2
_geom_bond_site_symmetry_1
_geom_bond_site_symmetry_2
S1 C10 1_555 1_555
O1 C10 1_555 1_555
O2 C17 1_555 1_555
O3 N2 1_555 1_555
O4 N2 1_555 1_555
N1 C19 1_555 1_555
N2 C25 1_555 1_555
C1 H1 1_555 1_555
C2 C1 1_555 1_555
H2 C2 1_555 1_555
C3 C2 1_555 1_555
H3 C3 1_555 1_555
C4 C3 1_555 1_555
H4 C4 1_555 1_555
C5 C4 1_555 1_555
H5 C5 1_555 1_555
C6 C1 1_555 1_555
C7 C6 1_555 1_555
C8 C7 1_555 1_555
H6 C8 1_555 1_555
H7 C8 1_555 1_555
C9 C8 1_555 1_555
H8 C9 1_555 1_555
H9 C9 1_555 1_555
H10 C9 1_555 1_555
C10 C7 1_555 1_555
C11 H11 1_555 1_555
C12 C11 1_555 1_555
H12 C12 1_555 1_555
C13 C12 1_555 1_555
H13 C13 1_555 1_555
C14 C13 1_555 1_555
H14 C14 1_555 1_555
C15 C14 1_555 1_555
H15 C15 1_555 1_555
C16 C11 1_555 1_555
C17 O1 1_555 1_555
C18 C16 1_555 1_555
C19 S1 1_555 1_555
C20 C18 1_555 1_555
H16 C20 1_555 1_555
H17 C20 1_555 1_555
C21 C20 1_555 1_555
H18 C21 1_555 1_555
H19 C21 1_555 1_555
H20 C21 1_555 1_555
C22 N1 1_555 1_555
C23 C22 1_555 1_555
H21 C23 1_555 1_555
C24 C23 1_555 1_555
H22 C24 1_555 1_555
C25 C24 1_555 1_555
C26 C25 1_555 1_555
H23 C26 1_555 1_555
C27 C22 1_555 1_555
H24 C27 1_555 1_555
C5 C6 1_555 1_555
C15 C16 1_555 1_555
C17 C18 1_555 1_555
C18 C19 1_555 1_555
C26 C27 1_555 1_555

#END
