
#######################################################################
#
#                 Cambridge Crystallographic Data Centre
#                                CCDC 
#
#######################################################################
#
# If this CIF has been generated from an entry in the Cambridge 
# Structural Database, then it will include bibliographic, chemical, 
# crystal, experimental, refinement or atomic coordinate data resulting 
# from the CCDC's data processing and validation procedures.
#
#######################################################################

data_BANBID
_chemical_formula_moiety         'C19 H21 N1 O2'
_chemical_name_systematic        
'Ethyl 4-methyl-2-phenyl-5,6,7,8-tetrahydroquinoline-3-carboxylate'
_symmetry_cell_setting           orthorhombic
_symmetry_space_group_name_H-M   'P b c a'
_symmetry_Int_Tables_number      61
_space_group_name_Hall           '-P 2ac 2ab'
loop_
_symmetry_equiv_pos_site_id
_symmetry_equiv_pos_as_xyz
1 x,y,z
2 1/2-x,-y,1/2+z
3 -x,1/2+y,1/2-z
4 1/2+x,1/2-y,-z
5 -x,-y,-z
6 1/2+x,y,1/2-z
7 x,1/2-y,1/2+z
8 1/2-x,1/2+y,z
_cell_length_a                   7.8890(16)
_cell_length_b                   17.297(4)
_cell_length_c                   22.433(5)
_cell_angle_alpha                90
_cell_angle_beta                 90
_cell_angle_gamma                90
_cell_volume                     3061.12
_exptl_crystal_colour            colorless
_exptl_crystal_description       block
_cell_formula_units_Z            8
loop_
_atom_site_label
_atom_site_type_symbol
_atom_site_fract_x
_atom_site_fract_y
_atom_site_fract_z
N1 N 0.24215(13) 0.38927(5) 0.32545(4)
O1 O 0.09196(11) 0.13445(5) 0.35679(4)
O2 O 0.37047(10) 0.15184(4) 0.37223(4)
C1 C 0.23609(14) 0.32091(7) 0.35388(5)
C2 C 0.22475(15) 0.25095(6) 0.32235(5)
C3 C 0.22235(16) 0.25223(6) 0.25998(6)
C4 C 0.23190(15) 0.32378(6) 0.23081(5)
C5 C 0.23340(17) 0.32791(7) 0.16334(6)
H1 H 0.1223 0.3134 0.1485
H2 H 0.3144 0.2905 0.1482
C6 C 0.27877(18) 0.40762(8) 0.13897(6)
H3 H 0.4001 0.4156 0.1422
H4 H 0.2482 0.4105 0.0971
C7 C 0.18634(17) 0.47063(7) 0.17325(5)
H5 H 0.0650 0.4619 0.1712
H6 H 0.2104 0.5206 0.1556
C8 C 0.24397(17) 0.46997(7) 0.23795(6)
H7 H 0.3588 0.4898 0.2401
H8 H 0.1718 0.5043 0.2608
C9 C 0.23905(15) 0.39062(7) 0.26564(5)
C10 C 0.24396(15) 0.32580(6) 0.42017(5)
C11 C 0.34152(16) 0.38363(7) 0.44683(6)
H9 H 0.3997 0.4188 0.4230
C12 C 0.35252(17) 0.38926(7) 0.50823(6)
H10 H 0.4180 0.4280 0.5254
C13 C 0.26616(16) 0.33724(7) 0.54419(6)
H11 H 0.2750 0.3405 0.5855
C14 C 0.16703(18) 0.28057(7) 0.51836(6)
H12 H 0.1080 0.2459 0.5423
C15 C 0.15523(16) 0.27519(7) 0.45700(6)
H13 H 0.0870 0.2372 0.4401
C16 C 0.21744(15) 0.17359(7) 0.35278(5)
C17 C 0.38167(17) 0.07529(7) 0.39993(6)
H14 H 0.4960 0.0555 0.3954
H15 H 0.3052 0.0401 0.3797
C18 C 0.33718(18) 0.07817(7) 0.46478(6)
H16 H 0.4096 0.1146 0.4846
H17 H 0.3523 0.0279 0.4821
H18 H 0.2212 0.0939 0.4692
C19 C 0.21416(19) 0.17883(7) 0.22415(6)
H19 H 0.3208 0.1705 0.2045
H20 H 0.1259 0.1830 0.1949
H21 H 0.1906 0.1361 0.2502
loop_
_geom_bond_atom_site_label_1
_geom_bond_atom_site_label_2
_geom_bond_site_symmetry_1
_geom_bond_site_symmetry_2
N1 C1 1_555 1_555
O1 C16 1_555 1_555
O2 C16 1_555 1_555
C1 C2 1_555 1_555
C2 C3 1_555 1_555
C3 C4 1_555 1_555
C4 C5 1_555 1_555
C5 H1 1_555 1_555
H2 C5 1_555 1_555
C6 C5 1_555 1_555
H3 C6 1_555 1_555
H4 C6 1_555 1_555
C7 C6 1_555 1_555
H5 C7 1_555 1_555
H6 C7 1_555 1_555
C8 C7 1_555 1_555
H7 C8 1_555 1_555
H8 C8 1_555 1_555
C9 N1 1_555 1_555
C10 C1 1_555 1_555
C11 C10 1_555 1_555
H9 C11 1_555 1_555
C12 C11 1_555 1_555
H10 C12 1_555 1_555
C13 C12 1_555 1_555
H11 C13 1_555 1_555
C14 C13 1_555 1_555
H12 C14 1_555 1_555
C15 C10 1_555 1_555
H13 C15 1_555 1_555
C16 C2 1_555 1_555
C17 O2 1_555 1_555
H14 C17 1_555 1_555
H15 C17 1_555 1_555
C18 C17 1_555 1_555
H16 C18 1_555 1_555
H17 C18 1_555 1_555
H18 C18 1_555 1_555
C19 C3 1_555 1_555
H19 C19 1_555 1_555
H20 C19 1_555 1_555
H21 C19 1_555 1_555
C4 C9 1_555 1_555
C8 C9 1_555 1_555
C14 C15 1_555 1_555

#END
