
#######################################################################
#
#                 Cambridge Crystallographic Data Centre
#                                CCDC 
#
#######################################################################
#
# If this CIF has been generated from an entry in the Cambridge 
# Structural Database, then it will include bibliographic, chemical, 
# crystal, experimental, refinement or atomic coordinate data resulting 
# from the CCDC's data processing and validation procedures.
#
#######################################################################

data_BANBAV
_chemical_formula_moiety         'C16 H12 N2 O3 S1'
_chemical_name_systematic        
3-Methyl-1-(4-nitrophenyl)-3-phenyl-4-thioxoazetidin-2-one
_symmetry_cell_setting           triclinic
_symmetry_space_group_name_H-M   'P 1'
_symmetry_Int_Tables_number      1
_space_group_name_Hall           'P 1'
loop_
_symmetry_equiv_pos_site_id
_symmetry_equiv_pos_as_xyz
1 x,y,z
_cell_length_a                   8.327(2)
_cell_length_b                   11.225(3)
_cell_length_c                   16.443(5)
_cell_angle_alpha                108.255(5)
_cell_angle_beta                 96.360(5)
_cell_angle_gamma                91.162(3)
_cell_volume                     1448.14
_exptl_crystal_colour            'pale yellow'
_exptl_crystal_description       plate
_cell_formula_units_Z            4
loop_
_atom_site_label
_atom_site_type_symbol
_atom_site_fract_x
_atom_site_fract_y
_atom_site_fract_z
S1 S 0.85961(10) 0.58055(7) 0.98196(5)
O1 O 0.9009(3) 1.0129(2) 0.98318(17)
O2 O 1.5631(3) 1.0520(2) 1.30208(14)
O3 O 1.5587(3) 0.8584(2) 1.30225(16)
N1 N 0.9727(3) 0.8267(2) 1.01728(16)
N2 N 1.5074(3) 0.9424(3) 1.27411(16)
C1 C 0.7498(4) 0.7960(3) 0.9359(2)
C2 C 0.8648(4) 0.7225(3) 0.97908(19)
C3 C 0.8789(4) 0.9051(3) 0.9785(2)
C4 C 0.7237(4) 0.7477(3) 0.8379(2)
C5 C 0.7815(4) 0.8140(3) 0.7879(2)
H1 H 0.8413 0.8920 0.8149
C6 C 0.7523(5) 0.7666(4) 0.6983(3)
H2 H 0.7914 0.8130 0.6644
C7 C 0.6684(5) 0.6543(4) 0.6589(2)
H3 H 0.6488 0.6227 0.5977
C8 C 0.6116(5) 0.5862(4) 0.7078(2)
H4 H 0.5544 0.5072 0.6802
C9 C 0.6381(4) 0.6330(3) 0.7967(2)
H5 H 0.5974 0.5864 0.8301
C10 C 0.5918(4) 0.8176(3) 0.9766(2)
H6 H 0.5285 0.8756 0.9541
H7 H 0.6166 0.8538 1.0394
H8 H 0.5293 0.7373 0.9624
C11 C 1.1109(3) 0.8526(3) 1.07969(18)
C12 C 1.1556(4) 0.7668(3) 1.1214(2)
H9 H 1.0959 0.6884 1.1067
C13 C 1.2874(4) 0.7955(3) 1.1847(2)
H10 H 1.3188 0.7377 1.2142
C14 C 1.3724(4) 0.9095(3) 1.20397(19)
C15 C 1.3320(4) 0.9950(3) 1.1617(2)
H11 H 1.3939 1.0723 1.1753
C16 C 1.1998(4) 0.9658(3) 1.0991(2)
H12 H 1.1696 1.0235 1.0692
S2 S 0.99111(11) 0.32909(8) 0.51882(6)
O4 O 0.9813(3) 0.76011(19) 0.51455(14)
O5 O 0.3046(3) 0.5059(2) 0.20102(14)
O6 O 0.3041(3) 0.3116(2) 0.19741(16)
N3 N 0.8947(3) 0.5425(2) 0.48309(15)
N4 N 0.3569(3) 0.4223(2) 0.22734(16)
C17 C 1.1172(4) 0.5849(3) 0.56385(18)
C18 C 0.9956(4) 0.4736(3) 0.52242(19)
C19 C 0.9956(4) 0.6557(3) 0.51972(19)
C20 C 1.1463(4) 0.6409(3) 0.6621(2)
C21 C 1.2190(4) 0.7605(3) 0.6979(2)
H13 H 1.2489 0.8062 0.6615
C22 C 1.2486(5) 0.8141(4) 0.7872(2)
H14 H 1.2979 0.8966 0.8115
C23 C 1.2074(4) 0.7491(4) 0.8402(2)
H15 H 1.2290 0.7858 0.9010
C24 C 1.1344(5) 0.6301(4) 0.8050(2)
H16 H 1.1052 0.5852 0.8420
C25 C 1.1027(4) 0.5747(3) 0.7156(2)
H17 H 1.0519 0.4926 0.6916
C26 C 1.2759(4) 0.5619(3) 0.5233(2)
H18 H 1.3294 0.4933 0.5383
H19 H 1.3472 0.6385 0.5452
H20 H 1.2523 0.5391 0.4604
C27 C 0.7544(3) 0.5118(3) 0.42170(18)
C28 C 0.7093(4) 0.3862(3) 0.3762(2)
H21 H 0.7687 0.3211 0.3884
C29 C 0.5768(4) 0.3576(3) 0.3132(2)
H22 H 0.5442 0.2726 0.2815
C30 C 0.4932(4) 0.4537(3) 0.29702(19)
C31 C 0.5349(4) 0.5783(3) 0.34250(19)
H23 H 0.4739 0.6430 0.3307
C32 C 0.6672(4) 0.6074(3) 0.40560(19)
H24 H 0.6980 0.6926 0.4377
S3 S 1.41916(11) 0.85494(8) 1.50702(6)
O7 O 1.5315(3) 1.28513(19) 1.51339(14)
O8 O 0.8327(3) 1.1180(3) 1.19577(19)
O9 O 0.8001(3) 0.9235(2) 1.18819(15)
N5 N 1.3886(3) 1.0825(2) 1.47885(15)
N6 N 0.8666(3) 1.0289(3) 1.22054(18)
C33 C 1.6102(4) 1.0909(3) 1.55766(18)
C34 C 1.4637(4) 0.9986(3) 1.51501(19)
C35 C 1.5156(4) 1.1790(3) 1.51618(19)
C36 C 1.6407(4) 1.1407(3) 1.6559(2)
C37 C 1.7209(4) 1.2571(3) 1.6939(2)
H25 H 1.7536 1.3042 1.6589
C38 C 1.7540(5) 1.3059(4) 1.7833(2)
H26 H 1.8073 1.3867 1.8093
C39 C 1.7101(4) 1.2379(4) 1.8338(2)
H27 H 1.7335 1.2710 1.8948
C40 C 1.6310(5) 1.1200(4) 1.7958(2)
H28 H 1.5999 1.0728 1.8310
C41 C 1.5973(4) 1.0709(3) 1.7069(2)
H29 H 1.5446 0.9898 1.6810
C42 C 1.7633(4) 1.0446(3) 1.5171(2)
H30 H 1.7995 0.9724 1.5342
H31 H 1.8487 1.1123 1.5370
H32 H 1.7400 1.0195 1.4541
C43 C 1.2505(3) 1.0728(3) 1.41848(18)
C44 C 1.1384(4) 0.9720(3) 1.3992(2)
H33 H 1.1483 0.9127 1.4297
C45 C 1.0107(4) 0.9595(3) 1.3341(2)
H34 H 0.9336 0.8902 1.3188
C46 C 0.9972(4) 1.0481(3) 1.29238(19)
C47 C 1.1033(4) 1.1514(3) 1.3138(2)
H35 H 1.0881 1.2134 1.2859
C48 C 1.2332(4) 1.1638(3) 1.3772(2)
H36 H 1.3096 1.2336 1.3923
S4 S 0.43057(10) 0.11771(7) 0.99243(5)
O10 O 0.3475(3) 0.5410(2) 0.98398(15)
O11 O 1.0387(3) 0.6676(2) 1.30713(18)
O12 O 1.0638(3) 0.4782(3) 1.31150(15)
N7 N 0.4777(3) 0.3716(2) 1.02066(15)
N8 N 1.0005(3) 0.5555(3) 1.28091(17)
C49 C 0.2535(4) 0.3078(3) 0.94204(19)
C50 C 0.3955(4) 0.2543(3) 0.98561(18)
C51 C 0.3571(4) 0.4329(3) 0.98080(19)
C52 C 0.2261(4) 0.2555(3) 0.84383(19)
C53 C 0.2836(4) 0.3175(3) 0.7918(2)
H37 H 0.3435 0.3959 0.8168
C54 C 0.2537(5) 0.2648(4) 0.7022(2)
H38 H 0.2926 0.3086 0.6667
C55 C 0.1700(4) 0.1523(4) 0.6650(2)
H39 H 0.1510 0.1174 0.6039
C56 C 0.1123(5) 0.0884(4) 0.7167(2)
H40 H 0.0540 0.0094 0.6910
C57 C 0.1395(5) 0.1397(3) 0.8058(2)
H41 H 0.0992 0.0960 0.8411
C58 C 0.1014(4) 0.3095(3) 0.9860(2)
H42 H 0.0199 0.3565 0.9632
H43 H 0.1279 0.3501 1.0483
H44 H 0.0584 0.2232 0.9747
C59 C 0.6151(3) 0.4176(3) 1.08208(18)
C60 C 0.7260(4) 0.3348(3) 1.0995(2)
H45 H 0.7141 0.2478 1.0677
C61 C 0.8544(4) 0.3819(3) 1.1644(2)
H46 H 0.9311 0.3272 1.1777
C62 C 0.8696(4) 0.5092(3) 1.20937(19)
C63 C 0.7639(4) 0.5921(3) 1.1897(2)
H47 H 0.7799 0.6797 1.2194
C64 C 0.6353(4) 0.5461(3) 1.12649(19)
H48 H 0.5602 0.6018 1.1131
loop_
_geom_bond_atom_site_label_1
_geom_bond_atom_site_label_2
_geom_bond_site_symmetry_1
_geom_bond_site_symmetry_2
S1 C2 1_555 1_555
O1 C3 1_555 1_555
O2 N2 1_555 1_555
O3 N2 1_555 1_555
N1 C2 1_555 1_555
N2 C14 1_555 1_555
C1 C2 1_555 1_555
C3 N1 1_555 1_555
C4 C1 1_555 1_555
C5 C4 1_555 1_555
H1 C5 1_555 1_555
C6 C5 1_555 1_555
H2 C6 1_555 1_555
C7 C6 1_555 1_555
H3 C7 1_555 1_555
C8 C7 1_555 1_555
H4 C8 1_555 1_555
C9 C4 1_555 1_555
H5 C9 1_555 1_555
C10 C1 1_555 1_555
H6 C10 1_555 1_555
H7 C10 1_555 1_555
H8 C10 1_555 1_555
C11 N1 1_555 1_555
C12 C11 1_555 1_555
H9 C12 1_555 1_555
C13 C12 1_555 1_555
H10 C13 1_555 1_555
C14 C13 1_555 1_555
C15 C14 1_555 1_555
H11 C15 1_555 1_555
C16 C11 1_555 1_555
H12 C16 1_555 1_555
S2 C18 1_555 1_555
O4 C19 1_555 1_555
O5 N4 1_555 1_555
O6 N4 1_555 1_555
N3 C18 1_555 1_555
N4 C30 1_555 1_555
C17 C18 1_555 1_555
C19 N3 1_555 1_555
C20 C17 1_555 1_555
C21 C20 1_555 1_555
H13 C21 1_555 1_555
C22 C21 1_555 1_555
H14 C22 1_555 1_555
C23 C22 1_555 1_555
H15 C23 1_555 1_555
C24 C23 1_555 1_555
H16 C24 1_555 1_555
C25 C20 1_555 1_555
H17 C25 1_555 1_555
C26 C17 1_555 1_555
H18 C26 1_555 1_555
H19 C26 1_555 1_555
H20 C26 1_555 1_555
C27 N3 1_555 1_555
C28 C27 1_555 1_555
H21 C28 1_555 1_555
C29 C28 1_555 1_555
H22 C29 1_555 1_555
C30 C29 1_555 1_555
C31 C30 1_555 1_555
H23 C31 1_555 1_555
C32 C27 1_555 1_555
H24 C32 1_555 1_555
S3 C34 1_555 1_555
O7 C35 1_555 1_555
O8 N6 1_555 1_555
O9 N6 1_555 1_555
N5 C34 1_555 1_555
N6 C46 1_555 1_555
C33 C34 1_555 1_555
C35 N5 1_555 1_555
C36 C33 1_555 1_555
C37 C36 1_555 1_555
H25 C37 1_555 1_555
C38 C37 1_555 1_555
H26 C38 1_555 1_555
C39 C38 1_555 1_555
H27 C39 1_555 1_555
C40 C39 1_555 1_555
H28 C40 1_555 1_555
C41 C36 1_555 1_555
H29 C41 1_555 1_555
C42 C33 1_555 1_555
H30 C42 1_555 1_555
H31 C42 1_555 1_555
H32 C42 1_555 1_555
C43 N5 1_555 1_555
C44 C43 1_555 1_555
H33 C44 1_555 1_555
C45 C44 1_555 1_555
H34 C45 1_555 1_555
C46 C45 1_555 1_555
C47 C46 1_555 1_555
H35 C47 1_555 1_555
C48 C43 1_555 1_555
H36 C48 1_555 1_555
S4 C50 1_555 1_555
O10 C51 1_555 1_555
O11 N8 1_555 1_555
O12 N8 1_555 1_555
N7 C50 1_555 1_555
N8 C62 1_555 1_555
C49 C50 1_555 1_555
C51 N7 1_555 1_555
C52 C49 1_555 1_555
C53 C52 1_555 1_555
H37 C53 1_555 1_555
C54 C53 1_555 1_555
H38 C54 1_555 1_555
C55 C54 1_555 1_555
H39 C55 1_555 1_555
C56 C55 1_555 1_555
H40 C56 1_555 1_555
C57 C52 1_555 1_555
H41 C57 1_555 1_555
C58 C49 1_555 1_555
H42 C58 1_555 1_555
H43 C58 1_555 1_555
H44 C58 1_555 1_555
C59 N7 1_555 1_555
C60 C59 1_555 1_555
H45 C60 1_555 1_555
C61 C60 1_555 1_555
H46 C61 1_555 1_555
C62 C61 1_555 1_555
C63 C62 1_555 1_555
H47 C63 1_555 1_555
C64 C59 1_555 1_555
H48 C64 1_555 1_555
C1 C3 1_555 1_555
C8 C9 1_555 1_555
C15 C16 1_555 1_555
C17 C19 1_555 1_555
C24 C25 1_555 1_555
C31 C32 1_555 1_555
C33 C35 1_555 1_555
C40 C41 1_555 1_555
C47 C48 1_555 1_555
C49 C51 1_555 1_555
C56 C57 1_555 1_555
C63 C64 1_555 1_555

#END
