
#######################################################################
#
#                 Cambridge Crystallographic Data Centre
#                                CCDC 
#
#######################################################################
#
# If this CIF has been generated from an entry in the Cambridge 
# Structural Database, then it will include bibliographic, chemical, 
# crystal, experimental, refinement or atomic coordinate data resulting 
# from the CCDC's data processing and validation procedures.
#
#######################################################################

data_BANDAX
_chemical_formula_moiety         'C22 H23 N1 O4 S1'
_chemical_name_systematic        
1-(3a-Methyl-5-((4-methylphenyl)sulfonyl)-2-phenyl-3a,4,5,6-tetrahydro-6aH-furo[2,3-c]pyrrol-6a-yl)ethanone
_symmetry_cell_setting           orthorhombic
_symmetry_space_group_name_H-M   'P c a 21'
_symmetry_Int_Tables_number      29
_space_group_name_Hall           'P 2c -2ac'
loop_
_symmetry_equiv_pos_site_id
_symmetry_equiv_pos_as_xyz
1 x,y,z
2 -x,-y,1/2+z
3 1/2+x,-y,z
4 1/2-x,y,1/2+z
_cell_length_a                   15.819(17)
_cell_length_b                   11.095(12)
_cell_length_c                   11.877(13)
_cell_angle_alpha                90
_cell_angle_beta                 90
_cell_angle_gamma                90
_cell_volume                     2084.55
_exptl_crystal_colour            colorless
_exptl_crystal_description       block
_cell_formula_units_Z            4
loop_
_atom_site_label
_atom_site_type_symbol
_atom_site_fract_x
_atom_site_fract_y
_atom_site_fract_z
C1 C 0.9100(5) 0.7875(7) 0.4656(8)
H1 H 0.8752 0.7487 0.5174
C2 C 0.9110(7) 0.9125(9) 0.4590(10)
H2 H 0.8764 0.9574 0.5063
C3 C 0.9628(6) 0.9706(7) 0.3829(10)
H3 H 0.9618 1.0542 0.3774
C4 C 1.0155(5) 0.9048(7) 0.3159(7)
H4 H 1.0519 0.9440 0.2665
C5 C 1.0152(4) 0.7796(6) 0.3208(6)
H5 H 1.0513 0.7355 0.2747
C6 C 0.9616(4) 0.7208(5) 0.3940(6)
C7 C 0.9578(4) 0.5868(5) 0.3971(5)
C8 C 0.9144(4) 0.5098(6) 0.4583(6)
H6 H 0.8775 0.5329 0.5153
C9 C 0.9306(4) 0.3814(5) 0.4270(6)
C10 C 0.9954(4) 0.4001(5) 0.3254(5)
C11 C 1.0824(4) 0.3435(6) 0.3450(6)
C12 C 1.1543(4) 0.4204(7) 0.3781(9)
H7 H 1.2035 0.3712 0.3892
H8 H 1.1409 0.4617 0.4469
H9 H 1.1652 0.4784 0.3199
C13 C 0.9615(5) 0.3054(7) 0.5272(6)
H10 H 1.0082 0.3452 0.5629
H11 H 0.9792 0.2275 0.5009
H12 H 0.9163 0.2959 0.5805
C14 C 0.8525(4) 0.3221(5) 0.3697(5)
H13 H 0.8547 0.2350 0.3757
H14 H 0.8002 0.3508 0.4028
C15 C 0.9506(4) 0.3492(6) 0.2220(6)
H15 H 0.9645 0.3951 0.1550
H16 H 0.9655 0.2653 0.2100
C16 C 0.7925(4) 0.1576(6) 0.1572(7)
C17 C 0.7458(4) 0.0909(7) 0.2344(7)
H17 H 0.7135 0.1303 0.2885
C18 C 0.7472(4) -0.0334(7) 0.2312(7)
H18 H 0.7133 -0.0764 0.2811
C19 C 0.7969(4) -0.0951(7) 0.1566(8)
C20 C 0.8439(5) -0.0291(8) 0.0783(7)
H19 H 0.8759 -0.0696 0.0246
C21 C 0.8434(5) 0.0953(8) 0.0796(6)
H20 H 0.8768 0.1379 0.0290
C22 C 0.8008(5) -0.2326(8) 0.1571(11)
H21 H 0.7571 -0.2641 0.1093
H22 H 0.7927 -0.2616 0.2325
H23 H 0.8549 -0.2585 0.1297
N1 N 0.8606(3) 0.3617(5) 0.2508(5)
O1 O 1.0062(3) 0.5303(3) 0.3141(4)
O2 O 1.0898(3) 0.2343(4) 0.3340(6)
O3 O 0.8178(4) 0.3597(6) 0.0527(5)
O4 O 0.7091(3) 0.3502(5) 0.2054(5)
S1 S 0.79001(12) 0.31485(18) 0.1600(2)
loop_
_geom_bond_atom_site_label_1
_geom_bond_atom_site_label_2
_geom_bond_site_symmetry_1
_geom_bond_site_symmetry_2
C1 H1 1_555 1_555
C2 C1 1_555 1_555
H2 C2 1_555 1_555
C3 C2 1_555 1_555
H3 C3 1_555 1_555
C4 C3 1_555 1_555
H4 C4 1_555 1_555
C5 C4 1_555 1_555
H5 C5 1_555 1_555
C6 C1 1_555 1_555
C7 C6 1_555 1_555
C8 C7 1_555 1_555
H6 C8 1_555 1_555
C9 C8 1_555 1_555
C10 C9 1_555 1_555
C11 C10 1_555 1_555
C12 C11 1_555 1_555
H7 C12 1_555 1_555
H8 C12 1_555 1_555
H9 C12 1_555 1_555
C13 C9 1_555 1_555
H10 C13 1_555 1_555
H11 C13 1_555 1_555
H12 C13 1_555 1_555
C14 C9 1_555 1_555
H13 C14 1_555 1_555
H14 C14 1_555 1_555
C15 C10 1_555 1_555
H15 C15 1_555 1_555
H16 C15 1_555 1_555
C16 C17 1_555 1_555
C17 H17 1_555 1_555
C18 C17 1_555 1_555
H18 C18 1_555 1_555
C19 C18 1_555 1_555
C20 C19 1_555 1_555
H19 C20 1_555 1_555
C21 C16 1_555 1_555
H20 C21 1_555 1_555
C22 C19 1_555 1_555
H21 C22 1_555 1_555
H22 C22 1_555 1_555
H23 C22 1_555 1_555
N1 C14 1_555 1_555
O1 C7 1_555 1_555
O2 C11 1_555 1_555
O3 S1 1_555 1_555
O4 S1 1_555 1_555
S1 C16 1_555 1_555
C5 C6 1_555 1_555
C10 O1 1_555 1_555
C15 N1 1_555 1_555
C20 C21 1_555 1_555
N1 S1 1_555 1_555

#END
