
#######################################################################
#
#                 Cambridge Crystallographic Data Centre
#                                CCDC 
#
#######################################################################
#
# If this CIF has been generated from an entry in the Cambridge 
# Structural Database, then it will include bibliographic, chemical, 
# crystal, experimental, refinement or atomic coordinate data resulting 
# from the CCDC's data processing and validation procedures.
#
#######################################################################

data_BANGUS
_chemical_formula_moiety         'C66 H76 N4 O4,C1 H1 Cl3,4(C1 H4 O1),3(H2 O1)'
_chemical_name_systematic        
"11'-t-Butyl-5',17',23',37',40',41',44',46'-octamethyldispiro(cyclohexane-1,2'-(7,15,25,35)-tetra-azaheptacyclo(34.2.2.2^3,6^.2^16,19^.2^21,24^.1^9,13^.1^28,32^) octatetraconta-1(38),3,5,9,11,13(45),16,18,21,23,28,30,32(48),36,39,41,43,46-octadecaene-20',1''-cyclohexane)-8',14',26',34'-tetraone chloroform methanol solvate trihydrate"
_symmetry_cell_setting           monoclinic
_symmetry_space_group_name_H-M   'P 21/n'
_symmetry_Int_Tables_number      14
_space_group_name_Hall           '-P 2yn'
loop_
_symmetry_equiv_pos_site_id
_symmetry_equiv_pos_as_xyz
1 x,y,z
2 1/2+x,1/2-y,1/2+z
3 -x,-y,-z
4 1/2-x,1/2+y,1/2-z
_cell_length_a                   17.3595(4)
_cell_length_b                   21.9631(8)
_cell_length_c                   18.2976(6)
_cell_angle_alpha                90
_cell_angle_beta                 92.694(2)
_cell_angle_gamma                90
_cell_volume                     6968.59
_exptl_crystal_colour            colorless
_exptl_crystal_description       plates
_chemical_melting_point          258-260deg.C
_cell_formula_units_Z            4
loop_
_atom_site_label
_atom_site_type_symbol
_atom_site_fract_x
_atom_site_fract_y
_atom_site_fract_z
C1 C 0.4289(2) 0.40118(18) 0.7884(2)
O1 O 0.4035(4) 0.35225(17) 0.8039(4)
N1 N 0.49067(17) 0.40492(15) 0.7518(2)
H1 H 0.5069 0.4417 0.7412
C2 C 0.5355(2) 0.35423(16) 0.7269(2)
C3 C 0.51355(19) 0.32642(16) 0.6610(2)
C4 C 0.55870(19) 0.27817(16) 0.6383(2)
H2 H 0.5438 0.2578 0.5941
C5 C 0.62470(18) 0.25838(15) 0.67763(18)
C6 C 0.64435(19) 0.28893(16) 0.7420(2)
H3 H 0.6895 0.2767 0.7695
C7 C 0.6009(2) 0.33672(17) 0.7682(2)
C8 C 0.67366(18) 0.20738(15) 0.64492(18)
C9 C 0.6217(2) 0.15420(16) 0.61832(19)
H4 H 0.5816 0.1699 0.5830
H5 H 0.6532 0.1243 0.5924
C10 C 0.5825(2) 0.12190(17) 0.6805(2)
H6 H 0.5504 0.1513 0.7065
H7 H 0.5485 0.0893 0.6603
C11 C 0.6423(2) 0.09484(19) 0.7334(2)
H8 H 0.6715 0.0630 0.7084
H9 H 0.6164 0.0756 0.7746
C12 C 0.6974(2) 0.14384(18) 0.7626(2)
H10 H 0.7388 0.1246 0.7936
H11 H 0.6691 0.1723 0.7936
C13 C 0.7337(2) 0.17981(17) 0.7009(2)
H12 H 0.7684 0.1525 0.6748
H13 H 0.7655 0.2131 0.7228
C14 C 0.71625(18) 0.23713(15) 0.58181(18)
C15 C 0.70104(18) 0.22205(15) 0.50872(18)
H14 H 0.6655 0.1902 0.4971
C16 C 0.73601(18) 0.25188(15) 0.45210(19)
C17 C 0.78868(18) 0.29846(15) 0.46991(19)
C18 C 0.80877(19) 0.31288(16) 0.54244(19)
C19 C 0.77072(19) 0.28228(16) 0.5967(2)
H15 H 0.7826 0.2928 0.6463
N2 N 0.82239(15) 0.33072(13) 0.41050(16)
H16 H 0.8564 0.3117 0.3846
C20 C 0.80406(19) 0.38857(16) 0.3929(2)
O2 O 0.76241(13) 0.42058(11) 0.42989(14)
C21 C 0.8362(2) 0.41131(16) 0.32197(19)
H17 H 0.8750 0.3817 0.3060
H18 H 0.7938 0.4125 0.2839
C22 C 0.87319(19) 0.47330(16) 0.32667(18)
C23 C 0.9510(2) 0.47847(17) 0.3468(2)
H19 H 0.9801 0.4430 0.3594
C24 C 0.9866(2) 0.53484(18) 0.3488(2)
H20 H 1.0400 0.5377 0.3620
C25 C 0.9451(2) 0.58685(17) 0.3319(2)
H21 H 0.9699 0.6254 0.3345
C26 C 0.86726(19) 0.58332(16) 0.31095(18)
C27 C 0.83225(19) 0.52615(16) 0.30844(18)
H22 H 0.7791 0.5232 0.2939
C28 C 0.8222(2) 0.64071(16) 0.2924(2)
H23 H 0.7844 0.6323 0.2515
H24 H 0.8580 0.6725 0.2762
C29 C 0.78001(19) 0.66403(17) 0.35774(19)
O3 O 0.74199(13) 0.62949(11) 0.39495(14)
N3 N 0.78516(16) 0.72386(13) 0.37253(16)
H25 H 0.8167 0.7465 0.3478
C30 C 0.74069(18) 0.75200(16) 0.42769(18)
C31 C 0.67580(18) 0.78619(15) 0.40593(19)
C32 C 0.63269(19) 0.81190(15) 0.45994(19)
H26 H 0.5891 0.8359 0.4454
C33 C 0.65019(18) 0.80429(15) 0.53391(18)
C34 C 0.71437(18) 0.76861(16) 0.55338(19)
H27 H 0.7268 0.7618 0.6038
C35 C 0.76122(19) 0.74246(17) 0.5015(2)
C36 C 0.60152(19) 0.83197(15) 0.59401(18)
C37 C 0.54237(19) 0.87812(16) 0.5618(2)
H28 H 0.5691 0.9067 0.5297
H29 H 0.5031 0.8560 0.5311
C38 C 0.5022(2) 0.91418(18) 0.6190(2)
H30 H 0.4742 0.8861 0.6507
H31 H 0.4640 0.9419 0.5947
C39 C 0.5604(2) 0.95119(18) 0.6656(2)
H32 H 0.5872 0.9804 0.6344
H33 H 0.5334 0.9746 0.7029
C40 C 0.6186(2) 0.90851(17) 0.7027(2)
H34 H 0.5923 0.8836 0.7391
H35 H 0.6588 0.9329 0.7293
C41 C 0.6567(2) 0.86651(16) 0.64957(19)
H36 H 0.6874 0.8360 0.6782
H37 H 0.6932 0.8908 0.6215
C42 C 0.55801(18) 0.77890(15) 0.62936(19)
C43 C 0.56538(19) 0.76449(16) 0.70292(19)
H38 H 0.5986 0.7885 0.7340
C44 C 0.52575(19) 0.71597(17) 0.7331(2)
C45 C 0.47772(19) 0.68079(16) 0.6866(2)
C46 C 0.46988(18) 0.69300(16) 0.6118(2)
C47 C 0.50994(18) 0.74268(16) 0.5850(2)
H39 H 0.5040 0.7521 0.5344
N4 N 0.44114(16) 0.62806(13) 0.71397(17)
H40 H 0.4533 0.5926 0.6952
C48 C 0.38917(18) 0.62827(16) 0.76663(19)
O4 O 0.36100(13) 0.67497(11) 0.79041(14)
C49 C 0.36850(18) 0.56656(16) 0.79574(18)
C50 C 0.30785(18) 0.56236(15) 0.84244(18)
H41 H 0.2807 0.5982 0.8546
C51 C 0.28589(18) 0.50655(15) 0.87198(18)
C52 C 0.32610(19) 0.45499(16) 0.85254(19)
H42 H 0.3112 0.4165 0.8708
C53 C 0.3881(2) 0.45845(16) 0.80661(19)
C54 C 0.4086(2) 0.51433(17) 0.7789(2)
H43 H 0.4508 0.5170 0.7478
C55 C 0.22000(19) 0.50473(16) 0.92498(19)
C56 C 0.14732(19) 0.53322(17) 0.8872(2)
H44 H 0.1050 0.5324 0.9207
H45 H 0.1326 0.5099 0.8430
H46 H 0.1582 0.5754 0.8737
C57 C 0.2448(2) 0.5420(2) 0.9934(2)
H47 H 0.2034 0.5415 1.0280
H48 H 0.2552 0.5841 0.9792
H49 H 0.2916 0.5242 1.0166
C58 C 0.2020(2) 0.43986(18) 0.9480(2)
H50 H 0.1599 0.4404 0.9818
H51 H 0.2480 0.4217 0.9722
H52 H 0.1865 0.4158 0.9046
C59 C 0.4459(2) 0.34760(18) 0.6141(2)
H53 H 0.3994 0.3464 0.6424
H54 H 0.4391 0.3209 0.5714
H55 H 0.4550 0.3894 0.5978
C60 C 0.6251(2) 0.3680(2) 0.8390(2)
H56 H 0.6476 0.4078 0.8284
H57 H 0.6635 0.3430 0.8661
H58 H 0.5800 0.3737 0.8685
C61 C 0.7171(2) 0.23471(17) 0.37325(19)
H59 H 0.7029 0.2714 0.3452
H60 H 0.6739 0.2060 0.3709
H61 H 0.7623 0.2157 0.3526
C62 C 0.8694(2) 0.3596(2) 0.5617(2)
H62 H 0.8781 0.3613 0.6150
H63 H 0.8523 0.3996 0.5436
H64 H 0.9176 0.3484 0.5392
C63 C 0.6529(2) 0.79300(17) 0.32607(19)
H65 H 0.6953 0.8119 0.3007
H66 H 0.6069 0.8188 0.3206
H67 H 0.6417 0.7528 0.3049
C64 C 0.8292(2) 0.7043(2) 0.5254(2)
H68 H 0.8156 0.6611 0.5206
H69 H 0.8440 0.7133 0.5766
H70 H 0.8725 0.7134 0.4947
C65 C 0.5374(2) 0.7031(2) 0.8136(2)
H71 H 0.5847 0.7231 0.8325
H72 H 0.5417 0.6591 0.8214
H73 H 0.4933 0.7188 0.8393
C66 C 0.4214(2) 0.65310(17) 0.5599(2)
H74 H 0.4499 0.6158 0.5495
H75 H 0.4099 0.6752 0.5141
H76 H 0.3731 0.6425 0.5824
O5 O 0.42973(14) 0.23318(12) 0.83154(15)
H77 H 0.4255 0.2704 0.8213
C67 C 0.5001(2) 0.2229(2) 0.8703(3)
H78 H 0.5025 0.1805 0.8870
H79 H 0.5042 0.2502 0.9128
H80 H 0.5427 0.2309 0.8384
O6 O 1.1400(2) 0.4551(2) 0.41322(17)
H81 H 1.1854 0.4418 0.4158
C68 C 1.1122(3) 0.4591(2) 0.4838(2)
H82 H 1.0788 0.4241 0.4927
H83 H 1.0825 0.4968 0.4882
H84 H 1.1557 0.4592 0.5200
O7 O 0.67009(16) 0.52112(13) 0.42089(18)
H85 H 0.696(2) 0.4889(14) 0.432(3)
H86 H 0.693(2) 0.5491(16) 0.398(2)
O8 O 0.4777(2) 0.51430(16) 0.6272(2)
H87 H 0.4300(13) 0.512(3) 0.609(3)
H88 H 0.513(2) 0.507(3) 0.595(2)
C69 C 0.4624(4) 0.3964(4) 1.0039(4)
H89 H 0.4618 0.4143 0.9536
Cl1 Cl 0.39261(8) 0.33999(8) 1.00775(8)
Cl2 Cl 0.55417(11) 0.36695(13) 1.02733(9)
Cl3 Cl 0.4393(2) 0.45416(12) 1.0690(2)
O9 O 0.7330(4) 0.4546(3) 0.5737(4)
C70 C 0.6804(3) 0.4242(3) 0.6169(3)
O11 O 0.6995(3) 0.5694(3) 0.5654(3)
C72 C 0.6497(6) 0.6207(5) 0.5674(6)
O13 O 0.5977(4) 0.5007(3) 0.7625(4)
O10? O 0.6290(8) 0.4708(7) 0.6202(8)
C71? C 0.6956(7) 0.4839(6) 0.6706(8)
O12? O 0.5912(3) 0.5531(3) 0.5426(3)
C73? C 0.6377(6) 0.6008(5) 0.5748(6)
O14? O 0.6526(9) 0.5424(8) 0.7911(9)
loop_
_geom_bond_atom_site_label_1
_geom_bond_atom_site_label_2
_geom_bond_site_symmetry_1
_geom_bond_site_symmetry_2
C1 O1 1_555 1_555
N1 C1 1_555 1_555
H1 N1 1_555 1_555
C2 N1 1_555 1_555
C3 C2 1_555 1_555
C4 C3 1_555 1_555
H2 C4 1_555 1_555
C5 C4 1_555 1_555
C6 C5 1_555 1_555
H3 C6 1_555 1_555
C7 C2 1_555 1_555
C8 C5 1_555 1_555
C9 C8 1_555 1_555
H4 C9 1_555 1_555
H5 C9 1_555 1_555
C10 C9 1_555 1_555
H6 C10 1_555 1_555
H7 C10 1_555 1_555
C11 C10 1_555 1_555
H8 C11 1_555 1_555
H9 C11 1_555 1_555
C12 C11 1_555 1_555
H10 C12 1_555 1_555
H11 C12 1_555 1_555
C13 C8 1_555 1_555
H12 C13 1_555 1_555
H13 C13 1_555 1_555
C14 C8 1_555 1_555
C15 C14 1_555 1_555
H14 C15 1_555 1_555
C16 C15 1_555 1_555
C17 C16 1_555 1_555
C18 C17 1_555 1_555
C19 C14 1_555 1_555
H15 C19 1_555 1_555
N2 C17 1_555 1_555
H16 N2 1_555 1_555
C20 N2 1_555 1_555
O2 C20 1_555 1_555
C21 C20 1_555 1_555
H17 C21 1_555 1_555
H18 C21 1_555 1_555
C22 C21 1_555 1_555
C23 C22 1_555 1_555
H19 C23 1_555 1_555
C24 C23 1_555 1_555
H20 C24 1_555 1_555
C25 C24 1_555 1_555
H21 C25 1_555 1_555
C26 C25 1_555 1_555
C27 C22 1_555 1_555
H22 C27 1_555 1_555
C28 C26 1_555 1_555
H23 C28 1_555 1_555
H24 C28 1_555 1_555
C29 C28 1_555 1_555
O3 C29 1_555 1_555
N3 C29 1_555 1_555
H25 N3 1_555 1_555
C30 N3 1_555 1_555
C31 C30 1_555 1_555
C32 C31 1_555 1_555
H26 C32 1_555 1_555
C33 C32 1_555 1_555
C34 C33 1_555 1_555
H27 C34 1_555 1_555
C35 C30 1_555 1_555
C36 C33 1_555 1_555
C37 C36 1_555 1_555
H28 C37 1_555 1_555
H29 C37 1_555 1_555
C38 C37 1_555 1_555
H30 C38 1_555 1_555
H31 C38 1_555 1_555
C39 C38 1_555 1_555
H32 C39 1_555 1_555
H33 C39 1_555 1_555
C40 C39 1_555 1_555
H34 C40 1_555 1_555
H35 C40 1_555 1_555
C41 C36 1_555 1_555
H36 C41 1_555 1_555
H37 C41 1_555 1_555
C42 C36 1_555 1_555
C43 C42 1_555 1_555
H38 C43 1_555 1_555
C44 C43 1_555 1_555
C45 C44 1_555 1_555
C46 C45 1_555 1_555
C47 C42 1_555 1_555
H39 C47 1_555 1_555
N4 C45 1_555 1_555
H40 N4 1_555 1_555
C48 N4 1_555 1_555
O4 C48 1_555 1_555
C49 C48 1_555 1_555
C50 C49 1_555 1_555
H41 C50 1_555 1_555
C51 C50 1_555 1_555
C52 C51 1_555 1_555
H42 C52 1_555 1_555
C53 C1 1_555 1_555
C54 C49 1_555 1_555
H43 C54 1_555 1_555
C55 C51 1_555 1_555
C56 C55 1_555 1_555
H44 C56 1_555 1_555
H45 C56 1_555 1_555
H46 C56 1_555 1_555
C57 C55 1_555 1_555
H47 C57 1_555 1_555
H48 C57 1_555 1_555
H49 C57 1_555 1_555
C58 C55 1_555 1_555
H50 C58 1_555 1_555
H51 C58 1_555 1_555
H52 C58 1_555 1_555
C59 C3 1_555 1_555
H53 C59 1_555 1_555
H54 C59 1_555 1_555
H55 C59 1_555 1_555
C60 C7 1_555 1_555
H56 C60 1_555 1_555
H57 C60 1_555 1_555
H58 C60 1_555 1_555
C61 C16 1_555 1_555
H59 C61 1_555 1_555
H60 C61 1_555 1_555
H61 C61 1_555 1_555
C62 C18 1_555 1_555
H62 C62 1_555 1_555
H63 C62 1_555 1_555
H64 C62 1_555 1_555
C63 C31 1_555 1_555
H65 C63 1_555 1_555
H66 C63 1_555 1_555
H67 C63 1_555 1_555
C64 C35 1_555 1_555
H68 C64 1_555 1_555
H69 C64 1_555 1_555
H70 C64 1_555 1_555
C65 C44 1_555 1_555
H71 C65 1_555 1_555
H72 C65 1_555 1_555
H73 C65 1_555 1_555
C66 C46 1_555 1_555
H74 C66 1_555 1_555
H75 C66 1_555 1_555
H76 C66 1_555 1_555
O5 H77 1_555 1_555
C67 O5 1_555 1_555
H78 C67 1_555 1_555
H79 C67 1_555 1_555
H80 C67 1_555 1_555
O6 H81 1_555 1_555
C68 O6 1_555 1_555
H82 C68 1_555 1_555
H83 C68 1_555 1_555
H84 C68 1_555 1_555
O7 H85 1_555 1_555
H86 O7 1_555 1_555
O8 H87 1_555 1_555
H88 O8 1_555 1_555
C69 H89 1_555 1_555
Cl1 C69 1_555 1_555
Cl2 C69 1_555 1_555
Cl3 C69 1_555 1_555
O9 C70 1_555 1_555
O11 C72 1_555 1_555
C6 C7 1_555 1_555
C12 C13 1_555 1_555
C18 C19 1_555 1_555
C26 C27 1_555 1_555
C34 C35 1_555 1_555
C40 C41 1_555 1_555
C46 C47 1_555 1_555
C52 C53 1_555 1_555
C53 C54 1_555 1_555

#END
