
#######################################################################
#
#                 Cambridge Crystallographic Data Centre
#                                CCDC 
#
#######################################################################
#
# If this CIF has been generated from an entry in the Cambridge 
# Structural Database, then it will include bibliographic, chemical, 
# crystal, experimental, refinement or atomic coordinate data resulting 
# from the CCDC's data processing and validation procedures.
#
#######################################################################

data_BANHAB
_chemical_formula_moiety         'C31 H28 Cl1 N7 O1'
_chemical_name_systematic        
28-(4-Chlorophenoxy)-2,8,14,20-tetramethyl-2,8,14,20,25,26,27-heptaazapentacyclo-[19.3.1.1^3,7^.1^9,13^.1^15,19^]octacosa-1(25),3(28),4,6,9(27),10,12,15(26),16,18,21,23-dodecaene
_symmetry_cell_setting           monoclinic
_symmetry_space_group_name_H-M   'P 21/c'
_symmetry_Int_Tables_number      14
_space_group_name_Hall           '-P 2ybc'
loop_
_symmetry_equiv_pos_site_id
_symmetry_equiv_pos_as_xyz
1 x,y,z
2 -x,1/2+y,1/2-z
3 -x,-y,-z
4 x,1/2-y,1/2+z
_cell_length_a                   15.473(2)
_cell_length_b                   18.679(3)
_cell_length_c                   18.972(3)
_cell_angle_alpha                90
_cell_angle_beta                 95.737(3)
_cell_angle_gamma                90
_cell_volume                     5455.83
_exptl_crystal_colour            colorless
_exptl_crystal_description       block
_cell_formula_units_Z            8
loop_
_atom_site_label
_atom_site_type_symbol
_atom_site_fract_x
_atom_site_fract_y
_atom_site_fract_z
Cl1 Cl 0.19498(11) 0.16981(10) 0.42897(9)
O1 O -0.0528(2) 0.2712(2) 0.1954(2)
N1 N -0.2104(3) 0.2139(3) 0.2252(3)
N2 N -0.1389(3) 0.1156(3) 0.2728(3)
N3 N -0.0602(3) 0.0156(3) 0.3080(3)
N4 N 0.0218(3) 0.0000(2) 0.2114(3)
N5 N 0.1108(3) -0.0092(3) 0.1179(3)
N6 N 0.0774(3) 0.1080(2) 0.0951(3)
N7 N 0.0300(3) 0.2246(3) 0.0771(3)
C1 C -0.0940(4) 0.2225(3) 0.1472(3)
C2 C -0.1756(4) 0.1964(4) 0.1607(3)
C3 C -0.2186(4) 0.1491(4) 0.1132(4)
H1 H -0.2739 0.1310 0.1217
C4 C -0.1811(4) 0.1282(4) 0.0536(4)
H2 H -0.2108 0.0957 0.0212
C5 C -0.1001(4) 0.1545(4) 0.0404(3)
H3 H -0.0752 0.1404 -0.0013
C6 C -0.0556(4) 0.2013(3) 0.0881(3)
C7 C 0.0068(3) 0.2447(3) 0.2487(3)
C8 C 0.0394(3) 0.1759(3) 0.2482(3)
H4 H 0.0224 0.1447 0.2098
C9 C 0.0968(3) 0.1526(3) 0.3037(3)
H5 H 0.1198 0.1054 0.3038
C10 C 0.1208(3) 0.1990(3) 0.3597(3)
C11 C 0.0889(4) 0.2680(3) 0.3601(3)
H6 H 0.1061 0.2992 0.3985
C12 C 0.0312(4) 0.2916(3) 0.3039(3)
H7 H 0.0089 0.3390 0.3033
C13 C -0.2494(5) 0.2855(4) 0.2300(4)
H8 H -0.2043 0.3200 0.2469
H9 H -0.2940 0.2840 0.2632
H10 H -0.2759 0.3002 0.1832
C14 C -0.1776(3) 0.1781(3) 0.2860(3)
C15 C -0.1825(4) 0.2042(4) 0.3538(4)
H11 H -0.2104 0.2484 0.3617
C16 C -0.1452(5) 0.1633(4) 0.4096(4)
H12 H -0.1476 0.1793 0.4569
C17 C -0.1045(4) 0.0994(4) 0.3971(3)
H13 H -0.0788 0.0711 0.4352
C18 C -0.1020(4) 0.0778(3) 0.3270(3)
C19 C 0.0032(5) -0.0181(4) 0.3600(4)
H14 H 0.0307 -0.0585 0.3380
H15 H -0.0262 -0.0354 0.4002
H16 H 0.0477 0.0169 0.3768
C20 C -0.0569(4) -0.0010(3) 0.2348(3)
C21 C -0.1316(4) -0.0177(3) 0.1913(4)
H17 H -0.1864 -0.0180 0.2098
C22 C -0.1257(5) -0.0336(4) 0.1221(4)
H18 H -0.1763 -0.0455 0.0918
C23 C -0.0449(4) -0.0325(3) 0.0961(4)
H19 H -0.0389 -0.0435 0.0479
C24 C 0.0264(4) -0.0148(3) 0.1426(3)
C25 C 0.1721(5) -0.0648(4) 0.1446(4)
H20 H 0.1904 -0.0562 0.1948
H21 H 0.2230 -0.0638 0.1177
H22 H 0.1440 -0.1118 0.1390
C26 C 0.1408(4) 0.0594(3) 0.1062(3)
C27 C 0.2282(4) 0.0760(4) 0.1051(3)
H23 H 0.2721 0.0406 0.1133
C28 C 0.2482(4) 0.1466(4) 0.0914(4)
H24 H 0.3072 0.1598 0.0898
C29 C 0.1845(4) 0.1980(4) 0.0799(4)
H25 H 0.1983 0.2463 0.0701
C30 C 0.0986(4) 0.1760(3) 0.0833(3)
C31 C 0.0464(5) 0.3015(4) 0.0741(5)
H26 H 0.0872 0.3155 0.1146
H27 H -0.0084 0.3275 0.0759
H28 H 0.0712 0.3131 0.0300
Cl2 Cl 0.64663(11) 0.34710(10) 0.44473(8)
O2 O 0.4418(2) 0.28599(19) 0.17430(19)
N8 N 0.4678(3) 0.3379(3) 0.0422(3)
N9 N 0.5456(3) 0.4313(2) 0.0961(2)
N10 N 0.6107(3) 0.5292(3) 0.1535(3)
N11 N 0.5154(3) 0.5471(2) 0.2395(3)
N12 N 0.4214(3) 0.5538(3) 0.3305(3)
N13 N 0.3592(3) 0.4456(2) 0.2959(2)
N14 N 0.3069(3) 0.3381(2) 0.2513(3)
C32 C 0.3849(4) 0.3384(3) 0.1457(3)
C33 C 0.3959(4) 0.3628(3) 0.0778(3)
C34 C 0.3364(4) 0.4109(3) 0.0455(3)
H29 H 0.3430 0.4277 -0.0010
C35 C 0.2680(4) 0.4347(3) 0.0801(3)
H30 H 0.2271 0.4672 0.0573
C36 C 0.2586(4) 0.4113(3) 0.1484(3)
H31 H 0.2119 0.4286 0.1725
C37 C 0.3170(4) 0.3629(3) 0.1814(3)
C38 C 0.4918(3) 0.3028(3) 0.2370(3)
C39 C 0.5188(3) 0.3720(3) 0.2530(3)
H32 H 0.5044 0.4097 0.2204
C40 C 0.5670(3) 0.3856(3) 0.3168(3)
H33 H 0.5851 0.4330 0.3289
C41 C 0.5883(3) 0.3299(3) 0.3627(3)
C42 C 0.5655(4) 0.2608(3) 0.3462(3)
H34 H 0.5834 0.2228 0.3776
C43 C 0.5157(4) 0.2472(3) 0.2829(3)
H35 H 0.4980 0.1996 0.2710
C44 C 0.4595(5) 0.2672(4) 0.0107(4)
H36 H 0.4908 0.2657 -0.0317
H37 H 0.3980 0.2565 -0.0023
H38 H 0.4841 0.2316 0.0450
C45 C 0.5476(4) 0.3692(3) 0.0599(3)
C46 C 0.6256(4) 0.3406(4) 0.0410(3)
H39 H 0.6274 0.2967 0.0160
C47 C 0.6999(5) 0.3796(4) 0.0606(4)
H40 H 0.7540 0.3612 0.0491
C48 C 0.6994(4) 0.4433(4) 0.0956(4)
H41 H 0.7510 0.4702 0.1069
C49 C 0.6196(4) 0.4666(3) 0.1140(3)
C50 C 0.6853(4) 0.5561(4) 0.1975(4)
H42 H 0.7110 0.5173 0.2275
H43 H 0.6671 0.5949 0.2275
H44 H 0.7283 0.5742 0.1674
C51 C 0.5269(4) 0.5485(3) 0.1708(3)
C52 C 0.4620(4) 0.5659(3) 0.1187(3)
H45 H 0.4736 0.5678 0.0705
C53 C 0.3804(4) 0.5803(3) 0.1371(3)
H46 H 0.3344 0.5917 0.1019
C54 C 0.3659(4) 0.5781(3) 0.2082(3)
H47 H 0.3100 0.5881 0.2226
C55 C 0.4353(4) 0.5608(3) 0.2580(3)
C56 C 0.4822(5) 0.5920(4) 0.3807(4)
H48 H 0.5329 0.5616 0.3939
H49 H 0.4538 0.6038 0.4231
H50 H 0.5009 0.6361 0.3588
C57 C 0.3891(3) 0.4884(3) 0.3500(3)
C58 C 0.3883(4) 0.4680(3) 0.4212(3)
H51 H 0.4089 0.4988 0.4591
C59 C 0.3560(4) 0.4006(4) 0.4332(3)
H52 H 0.3541 0.3850 0.4806
C60 C 0.3263(4) 0.3551(3) 0.3788(3)
H53 H 0.3041 0.3089 0.3878
C61 C 0.3305(3) 0.3803(3) 0.3099(3)
C62 C 0.2836(5) 0.2631(3) 0.2601(4)
H54 H 0.2300 0.2603 0.2835
H55 H 0.3306 0.2387 0.2891
H56 H 0.2745 0.2401 0.2135
loop_
_geom_bond_atom_site_label_1
_geom_bond_atom_site_label_2
_geom_bond_site_symmetry_1
_geom_bond_site_symmetry_2
Cl1 C10 1_555 1_555
Cl2 C41 1_555 1_555
O1 C1 1_555 1_555
O2 C32 1_555 1_555
N1 C2 1_555 1_555
N2 C14 1_555 1_555
N3 C18 1_555 1_555
N4 C20 1_555 1_555
N5 C24 1_555 1_555
N6 C26 1_555 1_555
N7 C6 1_555 1_555
N8 C33 1_555 1_555
N9 C45 1_555 1_555
N10 C49 1_555 1_555
N11 C51 1_555 1_555
N12 C55 1_555 1_555
N13 C57 1_555 1_555
N14 C37 1_555 1_555
C1 C2 1_555 1_555
C2 C3 1_555 1_555
C3 H1 1_555 1_555
C4 C3 1_555 1_555
H2 C4 1_555 1_555
C5 C4 1_555 1_555
H3 C5 1_555 1_555
C6 C1 1_555 1_555
C7 O1 1_555 1_555
C8 C7 1_555 1_555
H4 C8 1_555 1_555
C9 C8 1_555 1_555
H5 C9 1_555 1_555
C10 C9 1_555 1_555
C11 C10 1_555 1_555
H6 C11 1_555 1_555
C12 C7 1_555 1_555
H7 C12 1_555 1_555
C13 N1 1_555 1_555
H8 C13 1_555 1_555
H9 C13 1_555 1_555
H10 C13 1_555 1_555
C14 N1 1_555 1_555
C15 C14 1_555 1_555
H11 C15 1_555 1_555
C16 C15 1_555 1_555
H12 C16 1_555 1_555
C17 C16 1_555 1_555
H13 C17 1_555 1_555
C18 N2 1_555 1_555
C19 N3 1_555 1_555
H14 C19 1_555 1_555
H15 C19 1_555 1_555
H16 C19 1_555 1_555
C20 N3 1_555 1_555
C21 C20 1_555 1_555
H17 C21 1_555 1_555
C22 C21 1_555 1_555
H18 C22 1_555 1_555
C23 C22 1_555 1_555
H19 C23 1_555 1_555
C24 N4 1_555 1_555
C25 N5 1_555 1_555
H20 C25 1_555 1_555
H21 C25 1_555 1_555
H22 C25 1_555 1_555
C26 N5 1_555 1_555
C27 C26 1_555 1_555
H23 C27 1_555 1_555
C28 C27 1_555 1_555
H24 C28 1_555 1_555
C29 C28 1_555 1_555
H25 C29 1_555 1_555
C30 N6 1_555 1_555
C31 N7 1_555 1_555
H26 C31 1_555 1_555
H27 C31 1_555 1_555
H28 C31 1_555 1_555
C32 C33 1_555 1_555
C33 C34 1_555 1_555
C34 H29 1_555 1_555
C35 C34 1_555 1_555
H30 C35 1_555 1_555
C36 C35 1_555 1_555
H31 C36 1_555 1_555
C37 C32 1_555 1_555
C38 O2 1_555 1_555
C39 C38 1_555 1_555
H32 C39 1_555 1_555
C40 C39 1_555 1_555
H33 C40 1_555 1_555
C41 C40 1_555 1_555
C42 C41 1_555 1_555
H34 C42 1_555 1_555
C43 C38 1_555 1_555
H35 C43 1_555 1_555
C44 N8 1_555 1_555
H36 C44 1_555 1_555
H37 C44 1_555 1_555
H38 C44 1_555 1_555
C45 N8 1_555 1_555
C46 C45 1_555 1_555
H39 C46 1_555 1_555
C47 C46 1_555 1_555
H40 C47 1_555 1_555
C48 C47 1_555 1_555
H41 C48 1_555 1_555
C49 N9 1_555 1_555
C50 N10 1_555 1_555
H42 C50 1_555 1_555
H43 C50 1_555 1_555
H44 C50 1_555 1_555
C51 N10 1_555 1_555
C52 C51 1_555 1_555
H45 C52 1_555 1_555
C53 C52 1_555 1_555
H46 C53 1_555 1_555
C54 C53 1_555 1_555
H47 C54 1_555 1_555
C55 N11 1_555 1_555
C56 N12 1_555 1_555
H48 C56 1_555 1_555
H49 C56 1_555 1_555
H50 C56 1_555 1_555
C57 N12 1_555 1_555
C58 C57 1_555 1_555
H51 C58 1_555 1_555
C59 C58 1_555 1_555
H52 C59 1_555 1_555
C60 C59 1_555 1_555
H53 C60 1_555 1_555
C61 N13 1_555 1_555
C62 N14 1_555 1_555
H54 C62 1_555 1_555
H55 C62 1_555 1_555
H56 C62 1_555 1_555
N7 C30 1_555 1_555
N14 C61 1_555 1_555
C5 C6 1_555 1_555
C11 C12 1_555 1_555
C17 C18 1_555 1_555
C23 C24 1_555 1_555
C29 C30 1_555 1_555
C36 C37 1_555 1_555
C42 C43 1_555 1_555
C48 C49 1_555 1_555
C54 C55 1_555 1_555
C60 C61 1_555 1_555

#END
