
#######################################################################
#
#                 Cambridge Crystallographic Data Centre
#                                CCDC 
#
#######################################################################
#
# If this CIF has been generated from an entry in the Cambridge 
# Structural Database, then it will include bibliographic, chemical, 
# crystal, experimental, refinement or atomic coordinate data resulting 
# from the CCDC's data processing and validation procedures.
#
#######################################################################

data_BANPIR
_chemical_formula_moiety         'C29 H34 O11'
_chemical_name_systematic        
"2,2,2',9',13'-Pentamethyl-6',16'-bis(methylene)-6,11',15'-trioxodihydro-4H-spiro[pyran-3,5'-[10,14,17]trioxapentacyclo[7.6.1.1^7,12^.0^1,12^.0^2,7^]heptadecane]-3',8'-diyl diacetate"
_symmetry_cell_setting           monoclinic
_symmetry_space_group_name_H-M   'P 21'
_symmetry_Int_Tables_number      4
_space_group_name_Hall           'P 2yb'
loop_
_symmetry_equiv_pos_site_id
_symmetry_equiv_pos_as_xyz
1 x,y,z
2 -x,1/2+y,-z
_cell_length_a                   8.92780(10)
_cell_length_b                   12.42850(10)
_cell_length_c                   12.11670(10)
_cell_angle_alpha                90
_cell_angle_beta                 98.8310(10)
_cell_angle_gamma                90
_cell_volume                     1328.52
_exptl_crystal_colour            colorless
_exptl_crystal_description       block
_cell_formula_units_Z            2
loop_
_atom_site_label
_atom_site_type_symbol
_atom_site_fract_x
_atom_site_fract_y
_atom_site_fract_z
C1 C 0.5461(9) 0.4148(6) 0.2680(8)
H1 H 0.5437 0.3637 0.3304
H2 H 0.4777 0.4756 0.2779
C2 C 0.4913(4) 0.3585(4) 0.1574(5)
H3 H 0.4713 0.4133 0.0977
H4 H 0.3944 0.3215 0.1625
C3 C 0.6046(2) 0.27604(15) 0.12481(16)
C4 C 0.81901(18) 0.36497(13) 0.24369(13)
C5 C 0.71195(17) 0.45780(13) 0.27035(12)
C6 C 0.76848(18) 0.49357(13) 0.39172(13)
H5 H 0.7433 0.4370 0.4433
H6 H 0.8802 0.5008 0.4023
C7 C 0.70036(16) 0.59927(13) 0.42208(12)
H7 H 0.5874 0.5930 0.4105
C8 C 0.74659(17) 0.69243(13) 0.35121(12)
C9 C 0.67814(17) 0.66640(13) 0.22872(13)
C10 C 0.70060(16) 0.55233(12) 0.18668(13)
C11 C 0.72302(19) 0.75340(13) 0.14751(14)
H8 H 0.6636 0.7408 0.0717
C12 C 0.91846(18) 0.70804(15) 0.37586(13)
H9 H 0.9501 0.7151 0.4566
H10 H 0.9464 0.7733 0.3384
H11 H 0.9690 0.6457 0.3484
C13 C 0.6900(2) 0.53534(14) 0.07729(14)
H12 H 0.6687 0.5936 0.0266
H13 H 0.7036 0.4649 0.0500
C14 C 0.8490(2) 0.28178(15) 0.33773(16)
H14 H 0.7523 0.2575 0.3579
H15 H 0.9107 0.3144 0.4030
H16 H 0.9031 0.2201 0.3124
C15 C 0.97064(19) 0.40324(16) 0.21477(16)
H17 H 1.0298 0.3410 0.1967
H18 H 1.0267 0.4416 0.2788
H19 H 0.9528 0.4517 0.1503
C16 C 0.6752(2) 0.57814(14) 0.61391(13)
C17 C 0.7374(3) 0.61545(18) 0.72925(15)
H20 H 0.6623 0.6028 0.7789
H21 H 0.7603 0.6925 0.7277
H22 H 0.8303 0.5755 0.7567
C18 C 0.9237(2) 0.72372(15) 0.03941(14)
C19 C 1.0839(2) 0.68570(18) 0.05083(16)
H23 H 1.1165 0.6848 -0.0228
H24 H 1.0912 0.6129 0.0823
H25 H 1.1493 0.7344 0.1005
C20 C 0.8039(2) 0.97170(16) 0.35830(17)
H26 H 0.8166 0.9776 0.4374
H27 H 0.8461 1.0246 0.3156
C21 C 0.7276(2) 0.88982(14) 0.30777(14)
C22 C 0.6984(2) 0.87246(14) 0.18235(15)
C23 C 0.4353(2) 0.85532(14) 0.20625(14)
C24 C 0.39048(18) 0.76136(14) 0.38385(14)
H28 H 0.3161 0.8220 0.3728
C25 C 0.49754(18) 0.77341(13) 0.29596(13)
C26 C 0.65440(17) 0.80001(13) 0.36354(13)
C27 C 0.62354(17) 0.81831(13) 0.48158(13)
C28 C 0.7796(3) 0.95043(17) 0.11474(18)
H29 H 0.7568 0.9318 0.0353
H30 H 0.8892 0.9457 0.1394
H31 H 0.7452 1.0239 0.1259
C29 C 0.30161(18) 0.65816(15) 0.38361(16)
H32 H 0.3718 0.5973 0.3974
H33 H 0.2376 0.6491 0.3109
H34 H 0.2376 0.6610 0.4424
O1 O 0.75242(13) 0.30238(9) 0.14474(9)
O2 O 0.56635(15) 0.20212(11) 0.06231(12)
O3 O 0.75488(12) 0.62281(9) 0.53852(9)
O4 O 0.57187(14) 0.51693(10) 0.58886(10)
O5 O 0.88117(13) 0.73677(10) 0.14189(9)
O6 O 0.84001(16) 0.74051(12) -0.04659(10)
O7 O 0.53606(16) 0.89515(10) 0.14537(10)
O8 O 0.30332(15) 0.87808(11) 0.18408(11)
O9 O 0.48572(13) 0.77698(10) 0.49228(10)
O10 O 0.70473(13) 0.85812(10) 0.55871(10)
O11 O 0.51582(12) 0.67778(9) 0.23258(9)
C30? C 0.565(2) 0.4075(16) 0.2589(18)
H35? H 0.4944 0.4434 0.2971
C31? C 0.5124(6) 0.3206(7) 0.2048(8)
H36? H 0.4198 0.2882 0.2167
loop_
_geom_bond_atom_site_label_1
_geom_bond_atom_site_label_2
_geom_bond_site_symmetry_1
_geom_bond_site_symmetry_2
C1 H1 1_555 1_555
H2 C1 1_555 1_555
C2 C1 1_555 1_555
H3 C2 1_555 1_555
H4 C2 1_555 1_555
C3 C2 1_555 1_555
C4 C5 1_555 1_555
C5 C1 1_555 1_555
C6 C5 1_555 1_555
H5 C6 1_555 1_555
H6 C6 1_555 1_555
C7 C6 1_555 1_555
H7 C7 1_555 1_555
C8 C7 1_555 1_555
C9 C8 1_555 1_555
C10 C5 1_555 1_555
C11 C9 1_555 1_555
H8 C11 1_555 1_555
C12 C8 1_555 1_555
H9 C12 1_555 1_555
H10 C12 1_555 1_555
H11 C12 1_555 1_555
C13 C10 1_555 1_555
H12 C13 1_555 1_555
H13 C13 1_555 1_555
C14 C4 1_555 1_555
H14 C14 1_555 1_555
H15 C14 1_555 1_555
H16 C14 1_555 1_555
C15 C4 1_555 1_555
H17 C15 1_555 1_555
H18 C15 1_555 1_555
H19 C15 1_555 1_555
C16 C17 1_555 1_555
C17 H20 1_555 1_555
H21 C17 1_555 1_555
H22 C17 1_555 1_555
C18 C19 1_555 1_555
C19 H23 1_555 1_555
H24 C19 1_555 1_555
H25 C19 1_555 1_555
C20 H26 1_555 1_555
H27 C20 1_555 1_555
C21 C20 1_555 1_555
C22 C11 1_555 1_555
C23 C25 1_555 1_555
C24 H28 1_555 1_555
C25 C24 1_555 1_555
C26 C8 1_555 1_555
C27 C26 1_555 1_555
C28 C22 1_555 1_555
H29 C28 1_555 1_555
H30 C28 1_555 1_555
H31 C28 1_555 1_555
C29 C24 1_555 1_555
H32 C29 1_555 1_555
H33 C29 1_555 1_555
H34 C29 1_555 1_555
O1 C3 1_555 1_555
O2 C3 1_555 1_555
O3 C7 1_555 1_555
O4 C16 1_555 1_555
O5 C11 1_555 1_555
O6 C18 1_555 1_555
O7 C22 1_555 1_555
O8 C23 1_555 1_555
O9 C24 1_555 1_555
O10 C27 1_555 1_555
O11 C9 1_555 1_555
C4 O1 1_555 1_555
C9 C10 1_555 1_555
C16 O3 1_555 1_555
C18 O5 1_555 1_555
C21 C22 1_555 1_555
C21 C26 1_555 1_555
C23 O7 1_555 1_555
C25 C26 1_555 1_555
C25 O11 1_555 1_555
C27 O9 1_555 1_555

#END
