
#######################################################################
#
#                 Cambridge Crystallographic Data Centre
#                                CCDC 
#
#######################################################################
#
# If this CIF has been generated from an entry in the Cambridge 
# Structural Database, then it will include bibliographic, chemical, 
# crystal, experimental, refinement or atomic coordinate data resulting 
# from the CCDC's data processing and validation procedures.
#
#######################################################################

data_BANTUG
_chemical_formula_moiety         'C26 H36 N4 O4'
_chemical_name_systematic        
1,4-bis(2-Hydroxy-3-(N-(2-hydroxyethyl)imino)-5-methylbenzyl)piperazine
_symmetry_cell_setting           monoclinic
_symmetry_space_group_name_H-M   'P 21/c'
_symmetry_Int_Tables_number      14
_space_group_name_Hall           '-P 2ybc'
loop_
_symmetry_equiv_pos_site_id
_symmetry_equiv_pos_as_xyz
1 x,y,z
2 x,1/2-y,1/2+z
3 -x,-y,-z
4 -x,1/2+y,1/2-z
_cell_length_a                   9.7575(2)
_cell_length_b                   13.8091(3)
_cell_length_c                   18.42700(10)
_cell_angle_alpha                90
_cell_angle_beta                 99.9640(10)
_cell_angle_gamma                90
_cell_volume                     2445.45
_exptl_crystal_colour            colorless
_exptl_crystal_description       block
_cell_formula_units_Z            4
_exptl_crystal_recrystallization_method ether/chloroform
loop_
_atom_site_label
_atom_site_type_symbol
_atom_site_fract_x
_atom_site_fract_y
_atom_site_fract_z
C1 C 0.4111(2) 0.98193(12) 0.20338(9)
C2 C 0.47411(19) 1.06918(13) 0.22891(9)
C3 C 0.4148(2) 1.15519(13) 0.20150(10)
H1 H 0.4578 1.2131 0.2180
C4 C 0.2948(2) 1.15804(13) 0.15087(10)
C5 C 0.2332(2) 1.07062(13) 0.12736(10)
H2 H 0.1503 1.0713 0.0937
C6 C 0.2149(2) 0.89211(13) 0.12458(9)
H3 H 0.2494 0.8390 0.1571
H4 H 0.1167 0.9000 0.1261
C7 C 0.29000(19) 0.98249(13) 0.15191(9)
N1 N 0.23179(15) 0.86740(10) 0.04911(7)
C8 C 0.37406(18) 0.83825(13) 0.04687(9)
H5 H 0.3994 0.7846 0.0804
H6 H 0.4365 0.8917 0.0629
C9 C 0.38983(19) 0.80838(13) -0.02988(9)
H7 H 0.3689 0.8630 -0.0631
H8 H 0.4853 0.7889 -0.0301
N2 N 0.29675(15) 0.72850(10) -0.05533(7)
C10 C 0.15462(18) 0.75816(13) -0.05392(9)
H9 H 0.0919 0.7049 -0.0702
H10 H 0.1302 0.8119 -0.0876
C11 C 0.13814(19) 0.78819(13) 0.02254(10)
H11 H 0.0428 0.8083 0.0223
H12 H 0.1576 0.7334 0.0556
C12 C 0.3143(2) 0.69910(13) -0.12949(9)
H13 H 0.4126 0.6905 -0.1304
H14 H 0.2803 0.7504 -0.1639
C13 C 0.2392(2) 0.60762(13) -0.15399(9)
C14 C 0.2960(2) 0.52013(13) -0.12836(10)
H15 H 0.3803 0.5201 -0.0959
C15 C 0.2332(2) 0.43273(14) -0.14880(11)
C16 C 0.1113(2) 0.43423(14) -0.19768(11)
H16 H 0.0676 0.3759 -0.2125
C17 C 0.0504(2) 0.51948(14) -0.22591(9)
C18 C 0.1157(2) 0.60701(13) -0.20366(9)
O1 O 0.46652(15) 0.89689(9) 0.22920(7)
H17 H 0.5358 0.9069 0.2604
C19 C 0.2301(3) 1.25202(15) 0.12341(14)
H18 H 0.1471 1.2398 0.0883
H19 H 0.2945 1.2883 0.1003
H20 H 0.2070 1.2884 0.1640
C20 C 0.5973(2) 1.07195(14) 0.28494(10)
H21 H 0.6365 1.1319 0.2990
N3 N 0.65432(18) 0.99723(12) 0.31571(8)
C21 C 0.7698(2) 1.01125(16) 0.37546(11)
H22 H 0.8139 1.0730 0.3695
H23 H 0.8383 0.9606 0.3742
C22 C 0.7208(3) 1.00910(17) 0.44802(11)
H24 H 0.6801 0.9464 0.4548
H25 H 0.7994 1.0184 0.4875
O2 O 0.62244(17) 1.08137(12) 0.45128(8)
H26 H 0.6544 1.1216 0.4824
O3 O 0.05876(15) 0.69161(9) -0.22974(7)
H27 H -0.0120 0.6810 -0.2598
C23 C 0.2981(3) 0.33945(16) -0.11912(14)
H28 H 0.3821 0.3528 -0.0851
H29 H 0.3193 0.3007 -0.1590
H30 H 0.2343 0.3050 -0.0942
C24 C -0.0769(2) 0.51578(15) -0.27915(10)
H31 H -0.1155 0.4555 -0.2926
N4 N -0.13801(18) 0.58952(13) -0.30820(8)
C25 C -0.2608(2) 0.57383(16) -0.36346(11)
H32 H -0.3315 0.6211 -0.3574
H33 H -0.2981 0.5098 -0.3574
C26 C -0.2253(2) 0.58284(16) -0.43874(11)
H34 H -0.3081 0.5714 -0.4752
H35 H -0.1936 0.6482 -0.4456
O4 O -0.12288(15) 0.51790(12) -0.44964(8)
H36 H -0.1553 0.4786 -0.4813
loop_
_geom_bond_atom_site_label_1
_geom_bond_atom_site_label_2
_geom_bond_site_symmetry_1
_geom_bond_site_symmetry_2
C1 C2 1_555 1_555
C2 C3 1_555 1_555
C3 H1 1_555 1_555
C4 C3 1_555 1_555
C5 C4 1_555 1_555
H2 C5 1_555 1_555
C6 H3 1_555 1_555
H4 C6 1_555 1_555
C7 C1 1_555 1_555
N1 C6 1_555 1_555
C8 N1 1_555 1_555
H5 C8 1_555 1_555
H6 C8 1_555 1_555
C9 C8 1_555 1_555
H7 C9 1_555 1_555
H8 C9 1_555 1_555
N2 C9 1_555 1_555
C10 N2 1_555 1_555
H9 C10 1_555 1_555
H10 C10 1_555 1_555
C11 N1 1_555 1_555
H11 C11 1_555 1_555
H12 C11 1_555 1_555
C12 N2 1_555 1_555
H13 C12 1_555 1_555
H14 C12 1_555 1_555
C13 C12 1_555 1_555
C14 C13 1_555 1_555
H15 C14 1_555 1_555
C15 C14 1_555 1_555
C16 C15 1_555 1_555
H16 C16 1_555 1_555
C17 C16 1_555 1_555
C18 C13 1_555 1_555
O1 C1 1_555 1_555
H17 O1 1_555 1_555
C19 C4 1_555 1_555
H18 C19 1_555 1_555
H19 C19 1_555 1_555
H20 C19 1_555 1_555
C20 C2 1_555 1_555
H21 C20 1_555 1_555
N3 C20 1_555 1_555
C21 N3 1_555 1_555
H22 C21 1_555 1_555
H23 C21 1_555 1_555
C22 C21 1_555 1_555
H24 C22 1_555 1_555
H25 C22 1_555 1_555
O2 C22 1_555 1_555
H26 O2 1_555 1_555
O3 C18 1_555 1_555
H27 O3 1_555 1_555
C23 C15 1_555 1_555
H28 C23 1_555 1_555
H29 C23 1_555 1_555
H30 C23 1_555 1_555
C24 C17 1_555 1_555
H31 C24 1_555 1_555
N4 C24 1_555 1_555
C25 N4 1_555 1_555
H32 C25 1_555 1_555
H33 C25 1_555 1_555
C26 C25 1_555 1_555
H34 C26 1_555 1_555
H35 C26 1_555 1_555
O4 C26 1_555 1_555
H36 O4 1_555 1_555
C5 C7 1_555 1_555
C6 C7 1_555 1_555
C10 C11 1_555 1_555
C17 C18 1_555 1_555

#END
