
#######################################################################
#
#                 Cambridge Crystallographic Data Centre
#                                CCDC 
#
#######################################################################
#
# If this CIF has been generated from an entry in the Cambridge 
# Structural Database, then it will include bibliographic, chemical, 
# crystal, experimental, refinement or atomic coordinate data resulting 
# from the CCDC's data processing and validation procedures.
#
#######################################################################

data_BANWIX
_chemical_formula_moiety         'C16 H11 I1 N2 O1'
_chemical_name_systematic        N-(4-Iodophenyl)quinoline-2-carboxamide
_symmetry_cell_setting           monoclinic
_symmetry_space_group_name_H-M   'P 21/n'
_symmetry_Int_Tables_number      14
_space_group_name_Hall           '-P 2yn'
loop_
_symmetry_equiv_pos_site_id
_symmetry_equiv_pos_as_xyz
1 x,y,z
2 1/2-x,1/2+y,1/2-z
3 -x,-y,-z
4 1/2+x,1/2-y,1/2+z
_cell_length_a                   6.5389(10)
_cell_length_b                   17.036(3)
_cell_length_c                   12.702(2)
_cell_angle_alpha                90
_cell_angle_beta                 102.377(3)
_cell_angle_gamma                90
_cell_volume                     1382.07
_exptl_crystal_colour            yellow
_exptl_crystal_description       prism
_cell_formula_units_Z            4
_exptl_crystal_recrystallization_method 'saturated DMF-H2O'
loop_
_atom_site_label
_atom_site_type_symbol
_atom_site_fract_x
_atom_site_fract_y
_atom_site_fract_z
I1 I 0.73626(3) 0.085146(15) 0.107807(18)
O1 O 1.3784(3) -0.09556(13) 0.57661(18)
N1 N 1.8030(3) -0.18297(13) 0.49117(17)
N2 N 1.4644(4) -0.09772(13) 0.4118(2)
H1 H 1.5606 -0.1137 0.3802
C1 C 2.1005(4) -0.25189(18) 0.4569(2)
H2 H 2.0672 -0.2350 0.3856
C2 C 2.2703(5) -0.29842(19) 0.4910(3)
H3 H 2.3519 -0.3131 0.4426
C3 C 2.3244(5) -0.3245(2) 0.5969(3)
H4 H 2.4408 -0.3567 0.6185
C4 C 2.2069(5) -0.3031(2) 0.6701(3)
H5 H 2.2448 -0.3202 0.7411
C5 C 2.0284(4) -0.25515(16) 0.6368(2)
C6 C 1.8986(5) -0.23214(19) 0.7061(2)
H6 H 1.9291 -0.2483 0.7777
C7 C 1.7287(5) -0.18645(19) 0.6688(2)
H7 H 1.6419 -0.1709 0.7141
C8 C 1.6867(4) -0.16315(16) 0.5600(2)
C9 C 1.9747(4) -0.22898(15) 0.5286(2)
C10 C 1.4944(4) -0.11484(17) 0.5182(2)
C11 C 1.2966(4) -0.05721(17) 0.3460(2)
C12 C 1.1149(4) -0.03794(19) 0.3795(2)
H8 H 1.0991 -0.0521 0.4480
C13 C 0.9566(4) 0.00244(18) 0.3107(3)
H9 H 0.8348 0.0155 0.3334
C14 C 0.9787(4) 0.02331(17) 0.2092(2)
C15 C 1.1588(4) 0.00457(18) 0.1749(2)
H10 H 1.1734 0.0185 0.1061
C16 C 1.3173(4) -0.03514(18) 0.2436(3)
H11 H 1.4397 -0.0473 0.2210
loop_
_geom_bond_atom_site_label_1
_geom_bond_atom_site_label_2
_geom_bond_site_symmetry_1
_geom_bond_site_symmetry_2
I1 C14 1_555 1_555
O1 C10 1_555 1_555
N1 C8 1_555 1_555
N2 H1 1_555 1_555
C1 H2 1_555 1_555
C2 C1 1_555 1_555
H3 C2 1_555 1_555
C3 C2 1_555 1_555
H4 C3 1_555 1_555
C4 C3 1_555 1_555
H5 C4 1_555 1_555
C5 C4 1_555 1_555
C6 C5 1_555 1_555
H6 C6 1_555 1_555
C7 C6 1_555 1_555
H7 C7 1_555 1_555
C8 C7 1_555 1_555
C9 N1 1_555 1_555
C10 N2 1_555 1_555
C11 N2 1_555 1_555
C12 C11 1_555 1_555
H8 C12 1_555 1_555
C13 C12 1_555 1_555
H9 C13 1_555 1_555
C14 C13 1_555 1_555
C15 C14 1_555 1_555
H10 C15 1_555 1_555
C16 C11 1_555 1_555
H11 C16 1_555 1_555
C1 C9 1_555 1_555
C5 C9 1_555 1_555
C8 C10 1_555 1_555
C15 C16 1_555 1_555

#END
