
#######################################################################
#
#                 Cambridge Crystallographic Data Centre
#                                CCDC 
#
#######################################################################
#
# If this CIF has been generated from an entry in the Cambridge 
# Structural Database, then it will include bibliographic, chemical, 
# crystal, experimental, refinement or atomic coordinate data resulting 
# from the CCDC's data processing and validation procedures.
#
#######################################################################

data_BANYOH
_chemical_formula_moiety         'C18 H15 S1 1+,C2 F6 N1 O4 S2 1-'
_chemical_name_systematic        
'triphenylsulfonium bis((trifluoromethyl)sulfonyl)azanide'
_symmetry_cell_setting           monoclinic
_symmetry_space_group_name_H-M   'P 21/n'
_symmetry_Int_Tables_number      14
_space_group_name_Hall           '-P 2yn'
loop_
_symmetry_equiv_pos_site_id
_symmetry_equiv_pos_as_xyz
1 x,y,z
2 1/2-x,1/2+y,1/2-z
3 -x,-y,-z
4 1/2+x,1/2-y,1/2+z
_cell_length_a                   15.1600(9)
_cell_length_b                   10.0435(4)
_cell_length_c                   16.1525(9)
_cell_angle_alpha                90
_cell_angle_beta                 109.810(6)
_cell_angle_gamma                90
_cell_volume                     2313.83
_exptl_crystal_colour            colorless
_exptl_crystal_description       prism
_cell_formula_units_Z            4
loop_
_atom_site_label
_atom_site_type_symbol
_atom_site_fract_x
_atom_site_fract_y
_atom_site_fract_z
S1 S 0.50059(4) 0.58965(5) 0.78408(3)
S2 S 0.42771(4) 0.73101(5) 0.62599(4)
F1 F 0.34768(10) 0.47331(15) 0.78928(9)
O1 O 0.54439(11) 0.46229(15) 0.80317(11)
F2 F 0.35207(11) 0.68442(15) 0.81235(10)
O2 O 0.35011(12) 0.7077(2) 0.54770(11)
O3 O 0.55130(11) 0.70390(16) 0.82704(10)
F3 F 0.43639(11) 0.55253(15) 0.91271(8)
F4 F 0.51807(14) 0.8516(2) 0.53789(13)
N1 N 0.44861(13) 0.59952(17) 0.68200(11)
O4 O 0.42934(18) 0.84970(18) 0.67284(12)
F5 F 0.60638(13) 0.7514(3) 0.65405(14)
F6 F 0.53130(17) 0.6411(2) 0.53867(15)
C1 C 0.40335(16) 0.5744(2) 0.82638(14)
C2 C 0.5275(2) 0.7427(3) 0.5867(2)
S3 S 0.15571(3) 0.45159(5) 0.42385(3)
C3 C 0.03674(13) 0.41123(18) 0.41075(12)
C4 C -0.08056(16) 0.2974(2) 0.44994(16)
H1 H -0.0977 0.2358 0.4848
C5 C 0.22595(13) 0.32399(19) 0.49141(12)
C6 C 0.21211(15) 0.1894(2) 0.47134(13)
H2 H 0.1636 0.1607 0.4218
C7 C 0.11100(15) 0.3246(2) 0.26158(13)
H3 H 0.0685 0.2727 0.2775
C8 C 0.01349(15) 0.3198(2) 0.46325(14)
H4 H 0.0598 0.2740 0.5068
C9 C 0.16285(13) 0.4220(2) 0.31738(13)
C10 C 0.1868(2) 0.3824(3) 0.15873(18)
H5 H 0.1950 0.3687 0.1049
C11 C -0.14864(15) 0.3657(2) 0.38561(15)
H6 H -0.2116 0.3485 0.3761
C12 C 0.29738(14) 0.3693(2) 0.56409(14)
H7 H 0.3054 0.4599 0.5761
C13 C 0.12369(18) 0.3061(3) 0.18137(15)
H8 H 0.0891 0.2414 0.1427
C14 C 0.34443(17) 0.1435(2) 0.60052(15)
H9 H 0.3847 0.0821 0.6377
C15 C -0.12377(16) 0.4596(3) 0.33511(16)
H10 H -0.1702 0.5068 0.2925
C16 C -0.03042(15) 0.4841(2) 0.34742(14)
H11 H -0.0132 0.5479 0.3140
C17 C 0.27253(17) 0.0995(2) 0.52719(14)
H12 H 0.2648 0.0088 0.5154
C18 C 0.22610(17) 0.5013(3) 0.29507(18)
H13 H 0.2597 0.5676 0.3328
C19 C 0.2378(2) 0.4786(3) 0.2146(2)
H14 H 0.2807 0.5293 0.1985
C20 C 0.35689(16) 0.2772(2) 0.61891(15)
H15 H 0.4055 0.3058 0.6684
loop_
_geom_bond_atom_site_label_1
_geom_bond_atom_site_label_2
_geom_bond_site_symmetry_1
_geom_bond_site_symmetry_2
S1 O1 1_555 1_555
S2 O2 1_555 1_555
F1 C1 1_555 1_555
F2 C1 1_555 1_555
O3 S1 1_555 1_555
F3 C1 1_555 1_555
F4 C2 1_555 1_555
N1 S1 1_555 1_555
O4 S2 1_555 1_555
F5 C2 1_555 1_555
F6 C2 1_555 1_555
C1 S1 1_555 1_555
C2 S2 1_555 1_555
S3 C3 1_555 1_555
C3 C8 1_555 1_555
C4 H1 1_555 1_555
C5 S3 1_555 1_555
C6 C5 1_555 1_555
H2 C6 1_555 1_555
C7 H3 1_555 1_555
C8 C4 1_555 1_555
H4 C8 1_555 1_555
C9 S3 1_555 1_555
C10 H5 1_555 1_555
C11 C4 1_555 1_555
H6 C11 1_555 1_555
C12 C5 1_555 1_555
H7 C12 1_555 1_555
C13 C7 1_555 1_555
H8 C13 1_555 1_555
C14 H9 1_555 1_555
C15 C11 1_555 1_555
H10 C15 1_555 1_555
C16 C3 1_555 1_555
H11 C16 1_555 1_555
C17 C6 1_555 1_555
H12 C17 1_555 1_555
C18 C9 1_555 1_555
H13 C18 1_555 1_555
C19 C10 1_555 1_555
H14 C19 1_555 1_555
C20 C12 1_555 1_555
H15 C20 1_555 1_555
S2 N1 1_555 1_555
C7 C9 1_555 1_555
C10 C13 1_555 1_555
C14 C17 1_555 1_555
C14 C20 1_555 1_555
C15 C16 1_555 1_555
C18 C19 1_555 1_555

#END
