
#######################################################################
#
#                 Cambridge Crystallographic Data Centre
#                                CCDC 
#
#######################################################################
#
# If this CIF has been generated from an entry in the Cambridge 
# Structural Database, then it will include bibliographic, chemical, 
# crystal, experimental, refinement or atomic coordinate data resulting 
# from the CCDC's data processing and validation procedures.
#
#######################################################################

data_BANYIZ
_chemical_formula_moiety         'C15 H15 N3 O3'
_chemical_name_systematic        
N-(2'-Hydroxy-4'-N,N-dimethylaminobenzylidene)-4-nitroaniline
_symmetry_cell_setting           monoclinic
_symmetry_space_group_name_H-M   'P 21/c'
_symmetry_Int_Tables_number      14
_space_group_name_Hall           '-P 2ybc'
loop_
_symmetry_equiv_pos_site_id
_symmetry_equiv_pos_as_xyz
1 x,y,z
2 -x,1/2+y,1/2-z
3 -x,-y,-z
4 x,1/2-y,1/2+z
_cell_length_a                   16.83380(10)
_cell_length_b                   7.2306(2)
_cell_length_c                   11.5995(2)
_cell_angle_alpha                90
_cell_angle_beta                 109.568(2)
_cell_angle_gamma                90
_cell_volume                     1330.33
_exptl_crystal_colour            red
_exptl_crystal_description       block
_cell_formula_units_Z            4
_exptl_crystal_recrystallization_method benzene
loop_
_atom_site_label
_atom_site_type_symbol
_atom_site_fract_x
_atom_site_fract_y
_atom_site_fract_z
O1 O 0.08590(7) 0.2791(2) 0.00576(15)
O2 O 0.12670(8) 0.4386(2) 0.17300(15)
O3 O 0.57600(7) 0.18378(18) -0.02217(12)
H1 H 0.5294(16) 0.206(3) -0.005(2)
N1 N 0.47403(7) 0.31325(18) 0.08623(13)
N2 N 0.14067(8) 0.3594(2) 0.08785(16)
N3 N 0.86829(7) 0.33419(19) 0.14819(14)
C1 C 0.39215(8) 0.3351(2) 0.09144(15)
C2 C 0.32730(9) 0.2541(2) -0.00356(16)
H2 H 0.3408(11) 0.192(3) -0.0709(19)
C3 C 0.24431(9) 0.2641(2) -0.00741(17)
H3 H 0.2026(12) 0.207(3) -0.072(2)
C4 C 0.22717(8) 0.3560(2) 0.08657(16)
C5 C 0.28963(10) 0.4411(2) 0.18129(17)
H4 H 0.2761(13) 0.501(3) 0.249(2)
C6 C 0.37251(9) 0.4301(2) 0.18430(16)
H5 H 0.4138(12) 0.488(3) 0.251(2)
C7 C 0.53897(9) 0.3903(2) 0.16630(16)
H6 H 0.5360(12) 0.467(3) 0.2368(19)
C8 C 0.62224(8) 0.3696(2) 0.16089(15)
C9 C 0.63918(9) 0.2676(2) 0.06690(15)
C10 C 0.72079(9) 0.2515(2) 0.06484(16)
H7 H 0.7265(11) 0.186(3) -0.0067(19)
C11 C 0.78854(9) 0.3400(2) 0.15378(15)
C12 C 0.77186(9) 0.4391(2) 0.24892(16)
H8 H 0.8152(12) 0.499(3) 0.310(2)
C13 C 0.69078(9) 0.4520(2) 0.25033(16)
H9 H 0.6802(12) 0.519(3) 0.317(2)
C14 C 0.88753(11) 0.2209(3) 0.05779(19)
H10 H 0.9437(14) 0.241(3) 0.055(2)
H11 H 0.8837(13) 0.088(3) 0.074(2)
H12 H 0.8493(13) 0.244(3) -0.023(2)
C15 C 0.93831(10) 0.4194(3) 0.2437(2)
H13 H 0.9867(14) 0.416(3) 0.217(2)
H14 H 0.9281(14) 0.554(3) 0.256(2)
H15 H 0.9474(14) 0.361(3) 0.324(2)
loop_
_geom_bond_atom_site_label_1
_geom_bond_atom_site_label_2
_geom_bond_site_symmetry_1
_geom_bond_site_symmetry_2
O1 N2 1_555 1_555
O2 N2 1_555 1_555
O3 H1 1_555 1_555
N1 C1 1_555 1_555
N2 C4 1_555 1_555
N3 C11 1_555 1_555
C1 C2 1_555 1_555
C2 H2 1_555 1_555
C3 C2 1_555 1_555
H3 C3 1_555 1_555
C4 C3 1_555 1_555
C5 C4 1_555 1_555
H4 C5 1_555 1_555
C6 C1 1_555 1_555
H5 C6 1_555 1_555
C7 N1 1_555 1_555
H6 C7 1_555 1_555
C8 C7 1_555 1_555
C9 O3 1_555 1_555
C10 C9 1_555 1_555
H7 C10 1_555 1_555
C11 C10 1_555 1_555
C12 C11 1_555 1_555
H8 C12 1_555 1_555
C13 C8 1_555 1_555
H9 C13 1_555 1_555
C14 N3 1_555 1_555
H10 C14 1_555 1_555
H11 C14 1_555 1_555
H12 C14 1_555 1_555
C15 N3 1_555 1_555
H13 C15 1_555 1_555
H14 C15 1_555 1_555
H15 C15 1_555 1_555
C5 C6 1_555 1_555
C8 C9 1_555 1_555
C12 C13 1_555 1_555

#END
