
#######################################################################
#
#                 Cambridge Crystallographic Data Centre
#                                CCDC 
#
#######################################################################
#
# If this CIF has been generated from an entry in the Cambridge 
# Structural Database, then it will include bibliographic, chemical, 
# crystal, experimental, refinement or atomic coordinate data resulting 
# from the CCDC's data processing and validation procedures.
#
#######################################################################

data_BAPPAL
_chemical_compound_source        'roots of Neolitsea daibuensis'
_chemical_name_common            'daibulactones A'
_chemical_formula_moiety         'C17 H18 O5'
_chemical_name_systematic        
'3,8-Dimethyl-13-oxo-5,14-dioxatricyclo[10.2.1.0^2,6^]pentadeca-2(6),3,8,12(15)-tetraen-10-yl acetate'
_symmetry_cell_setting           monoclinic
_symmetry_space_group_name_H-M   'P 21'
_symmetry_Int_Tables_number      4
_space_group_name_Hall           'P 2yb'
loop_
_symmetry_equiv_pos_site_id
_symmetry_equiv_pos_as_xyz
1 x,y,z
2 -x,1/2+y,-z
_cell_length_a                   7.3433(3)
_cell_length_b                   11.4642(4)
_cell_length_c                   9.1189(3)
_cell_angle_alpha                90
_cell_angle_beta                 107.807(2)
_cell_angle_gamma                90
_cell_volume                     730.897
_exptl_crystal_colour            colorless
_exptl_crystal_description       prism
_cell_formula_units_Z            2
loop_
_atom_site_label
_atom_site_type_symbol
_atom_site_fract_x
_atom_site_fract_y
_atom_site_fract_z
O1 O 1.08227(15) 0.66018(10) 0.76055(12)
O2 O 0.74669(14) 0.33956(9) 0.76841(11)
O3 O 0.69763(16) 0.18492(10) 0.61004(13)
O4 O 0.44007(15) 0.38728(9) 0.10405(12)
O5 O 0.44326(16) 0.19170(10) 0.07992(13)
C1 C 0.8155(2) 0.50948(13) 0.41769(15)
C2 C 0.6424(2) 0.49397(13) 0.31727(16)
H1 H 0.5696 0.5597 0.2783
C3 C 0.5590(2) 0.37751(13) 0.26387(17)
H2 H 0.6602 0.3195 0.2741
C4 C 0.4273(2) 0.34195(14) 0.36212(16)
H3 H 0.3083 0.3853 0.3276
H4 H 0.3973 0.2595 0.3481
C5 C 0.5244(2) 0.36645(13) 0.52972(17)
C6 C 0.5345(2) 0.46699(13) 0.60400(17)
H5 H 0.4595 0.5320 0.5652
C7 C 0.6823(2) 0.46147(13) 0.75793(17)
H6 H 0.6217 0.4765 0.8381
C8 C 0.8512(2) 0.54093(13) 0.78189(16)
C9 C 0.9190(2) 0.60184(13) 0.68016(17)
C10 C 0.8654(2) 0.62144(13) 0.50847(17)
H7 H 0.9714 0.6586 0.4845
H8 H 0.7567 0.6739 0.4773
C11 C 0.9808(2) 0.56379(13) 0.93387(18)
C12 C 1.1154(2) 0.63517(14) 0.91393(18)
H9 H 1.2177 0.6640 0.9933
C13 C 0.9661(2) 0.51402(16) 1.08135(17)
H10 H 0.9872 0.4313 1.0828
H11 H 0.8410 0.5293 1.0894
H12 H 1.0607 0.5495 1.1666
C14 C 0.9704(2) 0.41855(13) 0.45989(17)
H13 H 0.9713 0.3815 0.5545
H14 H 1.0921 0.4549 0.4726
H15 H 0.9468 0.3612 0.3795
C15 C 0.6601(2) 0.28468(14) 0.63271(16)
C16 C 0.3897(2) 0.28603(15) 0.02586(17)
C17 C 0.2603(2) 0.30818(16) -0.13394(18)
H16 H 0.2982 0.2598 -0.2054
H17 H 0.2689 0.3887 -0.1600
H18 H 0.1308 0.2903 -0.1388
loop_
_geom_bond_atom_site_label_1
_geom_bond_atom_site_label_2
_geom_bond_site_symmetry_1
_geom_bond_site_symmetry_2
O1 C9 1_555 1_555
O2 C7 1_555 1_555
O3 C15 1_555 1_555
O4 C3 1_555 1_555
O5 C16 1_555 1_555
C1 C2 1_555 1_555
C2 H1 1_555 1_555
C3 C2 1_555 1_555
H2 C3 1_555 1_555
C4 C3 1_555 1_555
H3 C4 1_555 1_555
H4 C4 1_555 1_555
C5 C4 1_555 1_555
C6 C5 1_555 1_555
H5 C6 1_555 1_555
C7 C6 1_555 1_555
H6 C7 1_555 1_555
C8 C7 1_555 1_555
C9 C8 1_555 1_555
C10 C1 1_555 1_555
H7 C10 1_555 1_555
H8 C10 1_555 1_555
C11 C8 1_555 1_555
C12 O1 1_555 1_555
H9 C12 1_555 1_555
C13 C11 1_555 1_555
H10 C13 1_555 1_555
H11 C13 1_555 1_555
H12 C13 1_555 1_555
C14 C1 1_555 1_555
H13 C14 1_555 1_555
H14 C14 1_555 1_555
H15 C14 1_555 1_555
C15 O2 1_555 1_555
C16 O4 1_555 1_555
C17 C16 1_555 1_555
H16 C17 1_555 1_555
H17 C17 1_555 1_555
H18 C17 1_555 1_555
C5 C15 1_555 1_555
C9 C10 1_555 1_555
C11 C12 1_555 1_555

#END
