
#######################################################################
#
#                 Cambridge Crystallographic Data Centre
#                                CCDC 
#
#######################################################################
#
# If this CIF has been generated from an entry in the Cambridge 
# Structural Database, then it will include bibliographic, chemical, 
# crystal, experimental, refinement or atomic coordinate data resulting 
# from the CCDC's data processing and validation procedures.
#
#######################################################################

data_BAPPUF
_chemical_compound_source        'aerial parts of Physalis longifolia'
_chemical_name_common            'Withalongolide D'
_chemical_formula_moiety         'C27 H36 O4'
_chemical_name_systematic        
6-(1-(8a,10a-Dimethyl-8-oxo-1,2,3,3a,3b,4,8,8a,8b,9,10,10a-dodecahydrodicyclopenta[a,f]naphthalen-1-yl)ethyl)-3-(hydroxymethyl)-4-methyl-5,6-dihydro-2H-pyran-2-one
_symmetry_cell_setting           monoclinic
_symmetry_space_group_name_H-M   'P 21'
_symmetry_Int_Tables_number      4
_space_group_name_Hall           'P 2yb'
loop_
_symmetry_equiv_pos_site_id
_symmetry_equiv_pos_as_xyz
1 x,y,z
2 -x,1/2+y,-z
_cell_length_a                   10.873(5)
_cell_length_b                   9.233(4)
_cell_length_c                   12.271(6)
_cell_angle_alpha                90
_cell_angle_beta                 113.273(7)
_cell_angle_gamma                90
_cell_volume                     1131.66
_exptl_crystal_colour            colorless
_exptl_crystal_description       'rectangular parallelepiped'
_cell_formula_units_Z            2
loop_
_atom_site_label
_atom_site_type_symbol
_atom_site_fract_x
_atom_site_fract_y
_atom_site_fract_z
O1 O -0.19592(10) 0.27198(13) -0.00264(9)
O2 O 0.83680(11) 0.37359(13) 0.37277(10)
O3 O -0.40817(11) 0.26037(14) -0.12255(9)
O4 O -0.57477(12) 0.49277(18) -0.11373(12)
H1 H -0.558(3) 0.435(4) -0.167(3)
C1 C 0.84022(14) 0.31819(16) 0.46335(14)
C2 C 0.95291(16) 0.32199(18) 0.58101(15)
H2 H 1.035(2) 0.365(3) 0.5967(19)
C3 C 0.91479(14) 0.26380(18) 0.66260(13)
H3 H 0.964(2) 0.264(3) 0.742(2)
C4 C 0.77504(14) 0.21683(16) 0.61033(13)
C5 C 0.69347(14) 0.20321(16) 0.66661(12)
H4 H 0.7329(17) 0.213(2) 0.7529(17)
C6 C 0.54429(14) 0.19872(17) 0.60204(12)
H5 H 0.509(2) 0.289(3) 0.6222(19)
H6 H 0.511(2) 0.122(2) 0.6342(17)
C7 C 0.49525(14) 0.18839(16) 0.46679(12)
H7 H 0.5005(18) 0.086(2) 0.4481(15)
C8 C 0.58393(14) 0.27859(16) 0.41934(12)
H8 H 0.583(2) 0.377(2) 0.4472(17)
C9 C 0.72934(14) 0.22238(15) 0.47597(12)
C10 C 0.52586(14) 0.28349(18) 0.28302(12)
H9 H 0.533(2) 0.187(3) 0.2519(19)
H10 H 0.580(2) 0.346(3) 0.255(2)
C11 C 0.37747(14) 0.32763(17) 0.22699(13)
H11 H 0.3440(17) 0.3166(18) 0.1430(15)
H12 H 0.370(2) 0.429(3) 0.2471(19)
C12 C 0.29066(13) 0.23205(15) 0.27016(12)
C13 C 0.35109(14) 0.24110(15) 0.40695(12)
H13 H 0.3494(18) 0.345(2) 0.4260(16)
C14 C 0.24550(15) 0.17052(17) 0.44308(14)
H14 H 0.2498(19) 0.200(2) 0.5206(18)
H15 H 0.260(2) 0.060(3) 0.453(2)
C15 C 0.11099(14) 0.21101(18) 0.34149(13)
H16 H 0.059(2) 0.272(3) 0.3678(18)
H17 H 0.057(2) 0.126(2) 0.3008(17)
C16 C 0.14681(14) 0.28757(15) 0.24487(12)
H18 H 0.1563(19) 0.392(2) 0.2585(16)
C17 C 0.28490(15) 0.07571(17) 0.22445(14)
H19 H 0.229(2) 0.011(3) 0.2458(19)
H20 H 0.246(2) 0.078(2) 0.1394(17)
H21 H 0.372(2) 0.041(2) 0.2522(16)
C18 C 0.74856(17) 0.07242(17) 0.42821(15)
H22 H 0.830(2) 0.033(2) 0.4756(18)
H23 H 0.742(2) 0.086(2) 0.3507(18)
H24 H 0.682(2) 0.000(3) 0.4304(19)
C19 C 0.03840(14) 0.26794(17) 0.11908(12)
H25 H 0.0286(17) 0.1609(19) 0.0987(15)
C20 C 0.07005(15) 0.3484(2) 0.02397(13)
H26 H -0.007(2) 0.357(3) -0.0469(19)
H27 H 0.146(3) 0.292(3) 0.015(2)
H28 H 0.103(2) 0.444(3) 0.049(2)
C21 C -0.09880(13) 0.31233(16) 0.11580(12)
H29 H -0.1187(17) 0.259(2) 0.1742(15)
C22 C -0.11457(14) 0.47094(16) 0.13911(13)
H30 H -0.060(2) 0.494(3) 0.2217(19)
H31 H -0.0861(18) 0.532(2) 0.0866(16)
C23 C -0.25858(15) 0.50523(17) 0.11576(13)
C24 C -0.35673(15) 0.42444(18) 0.03735(13)
C25 C -0.32365(15) 0.31227(17) -0.03279(13)
C26 C -0.50493(16) 0.4414(2) 0.00494(16)
H32 H -0.5233(17) 0.516(2) 0.0565(14)
H33 H -0.541(2) 0.346(3) 0.0122(18)
C27 C -0.27871(16) 0.63236(18) 0.18281(16)
H34 H -0.243(2) 0.612(3) 0.266(2)
H35 H -0.366(2) 0.651(3) 0.163(2)
H36 H -0.233(3) 0.712(3) 0.160(2)
loop_
_geom_bond_atom_site_label_1
_geom_bond_atom_site_label_2
_geom_bond_site_symmetry_1
_geom_bond_site_symmetry_2
O1 C21 1_555 1_555
O2 C1 1_555 1_555
O3 C25 1_555 1_555
O4 H1 1_555 1_555
C1 C2 1_555 1_555
C2 H2 1_555 1_555
C3 C2 1_555 1_555
H3 C3 1_555 1_555
C4 C3 1_555 1_555
C5 C4 1_555 1_555
H4 C5 1_555 1_555
C6 C5 1_555 1_555
H5 C6 1_555 1_555
H6 C6 1_555 1_555
C7 C6 1_555 1_555
H7 C7 1_555 1_555
C8 C7 1_555 1_555
H8 C8 1_555 1_555
C9 C1 1_555 1_555
C10 C8 1_555 1_555
H9 C10 1_555 1_555
H10 C10 1_555 1_555
C11 C10 1_555 1_555
H11 C11 1_555 1_555
H12 C11 1_555 1_555
C12 C11 1_555 1_555
C13 C7 1_555 1_555
H13 C13 1_555 1_555
C14 C13 1_555 1_555
H14 C14 1_555 1_555
H15 C14 1_555 1_555
C15 C14 1_555 1_555
H16 C15 1_555 1_555
H17 C15 1_555 1_555
C16 C12 1_555 1_555
H18 C16 1_555 1_555
C17 C12 1_555 1_555
H19 C17 1_555 1_555
H20 C17 1_555 1_555
H21 C17 1_555 1_555
C18 C9 1_555 1_555
H22 C18 1_555 1_555
H23 C18 1_555 1_555
H24 C18 1_555 1_555
C19 C16 1_555 1_555
H25 C19 1_555 1_555
C20 C19 1_555 1_555
H26 C20 1_555 1_555
H27 C20 1_555 1_555
H28 C20 1_555 1_555
C21 C19 1_555 1_555
H29 C21 1_555 1_555
C22 C21 1_555 1_555
H30 C22 1_555 1_555
H31 C22 1_555 1_555
C23 C22 1_555 1_555
C24 C23 1_555 1_555
C25 O1 1_555 1_555
C26 O4 1_555 1_555
H32 C26 1_555 1_555
H33 C26 1_555 1_555
C27 C23 1_555 1_555
H34 C27 1_555 1_555
H35 C27 1_555 1_555
H36 C27 1_555 1_555
C4 C9 1_555 1_555
C8 C9 1_555 1_555
C12 C13 1_555 1_555
C15 C16 1_555 1_555
C24 C25 1_555 1_555
C24 C26 1_555 1_555

#END
