
#######################################################################
#
#                 Cambridge Crystallographic Data Centre
#                                CCDC 
#
#######################################################################
#
# If this CIF has been generated from an entry in the Cambridge 
# Structural Database, then it will include bibliographic, chemical, 
# crystal, experimental, refinement or atomic coordinate data resulting 
# from the CCDC's data processing and validation procedures.
#
#######################################################################

data_BAPQOY
_chemical_formula_moiety         'C24 H19 N1 S2'
_chemical_name_systematic        4,4'-bis(Phenylthio)diphenylamine
_symmetry_cell_setting           orthorhombic
_symmetry_space_group_name_H-M   'P b c a'
_symmetry_Int_Tables_number      61
_space_group_name_Hall           '-P 2ac 2ab'
loop_
_symmetry_equiv_pos_site_id
_symmetry_equiv_pos_as_xyz
1 x,y,z
2 1/2+x,y,1/2-z
3 x,1/2-y,1/2+z
4 1/2-x,1/2+y,z
5 -x,-y,-z
6 1/2-x,-y,1/2+z
7 -x,1/2+y,1/2-z
8 1/2+x,1/2-y,-z
_cell_length_a                   7.722(1)
_cell_length_b                   20.208(2)
_cell_length_c                   25.770(2)
_cell_angle_alpha                90
_cell_angle_beta                 90
_cell_angle_gamma                90
_cell_volume                     4021.31
_exptl_crystal_colour            colorless
_exptl_crystal_description       plate
_cell_formula_units_Z            8
loop_
_atom_site_label
_atom_site_type_symbol
_atom_site_fract_x
_atom_site_fract_y
_atom_site_fract_z
S1 S -0.93748(9) -0.04464(3) 0.09573(3)
S2 S 0.07541(9) 0.33183(3) 0.11426(3)
C1 C -0.4968(3) 0.0868(1) 0.03850(9)
C2 C -0.7719(3) 0.0106(1) 0.07562(9)
C3 C -1.0560(3) -0.0013(1) 0.14344(9)
C4 C -0.2535(3) 0.1677(1) 0.04260(8)
C5 C -0.0472(3) 0.2659(1) 0.08756(9)
C6 C 0.2246(3) 0.2923(1) 0.15648(8)
C7 C -0.4976(3) 0.0636(1) 0.0895(1)
C8 C -0.6327(3) 0.0258(1) 0.10748(9)
C9 C -0.7714(3) 0.0344(1) 0.0250(1)
C10 C -0.6357(3) 0.0722(1) 0.00694(9)
C11 C -1.1703(4) -0.0385(1) 0.1735(1)
C12 C -1.2700(4) -0.0074(2) 0.2109(1)
C13 C -1.2573(4) 0.0595(2) 0.2191(1)
C14 C -1.1462(4) 0.0960(2) 0.1897(1)
C15 C -1.0455(3) 0.0663(1) 0.1516(1)
C16 C -0.3107(3) 0.2029(1) 0.0856(1)
C17 C -0.2085(3) 0.2509(1) 0.10774(9)
C18 C 0.0102(3) 0.2310(1) 0.0444(1)
C19 C -0.0906(3) 0.1824(1) 0.02231(9)
C20 C 0.2613(3) 0.2255(1) 0.15591(9)
C21 C 0.3828(4) 0.2001(1) 0.1902(1)
C22 C 0.4653(4) 0.2407(2) 0.2250(1)
C23 C 0.4281(4) 0.3069(2) 0.2257(1)
C24 C 0.3079(4) 0.3333(1) 0.19179(9)
N1 N -0.3544(3) 0.1203(1) 0.01763(8)
H1 H -0.4048(3) 0.0747(1) 0.1122(1)
H2 H -0.6303(3) 0.0091(1) 0.14197(9)
H3 H -0.8657(3) 0.0243(1) 0.0026(1)
H4 H -0.6371(3) 0.0887(1) -0.02760(9)
H5 H -1.1798(4) -0.0849(1) 0.1681(1)
H6 H -1.3481(4) -0.0321(2) 0.2318(1)
H7 H -1.3243(4) 0.0798(2) 0.2456(1)
H8 H -1.1399(4) 0.1426(2) 0.1947(1)
H9 H -0.9687(3) 0.0917(1) 0.1308(1)
H10 H -0.4210(3) 0.1931(1) 0.1000(1)
H11 H -0.2490(3) 0.2747(1) 0.13716(9)
H12 H 0.1198(3) 0.2411(1) 0.0296(1)
H13 H -0.0492(3) 0.1581(1) -0.00672(9)
H14 H 0.2024(3) 0.1977(1) 0.13192(9)
H15 H 0.4075(4) 0.1540(1) 0.1898(1)
H16 H 0.5488(4) 0.2233(2) 0.2484(1)
H17 H 0.4856(4) 0.3347(2) 0.2500(1)
H18 H 0.2821(4) 0.3793(1) 0.19216(9)
H19 H -0.3233(3) 0.1094(1) -0.01701(8)
loop_
_geom_bond_atom_site_label_1
_geom_bond_atom_site_label_2
_geom_bond_site_symmetry_1
_geom_bond_site_symmetry_2
S1 C2 1_555 1_555
S2 C5 1_555 1_555
C1 C7 1_555 1_555
C2 C8 1_555 1_555
C3 S1 1_555 1_555
C4 C16 1_555 1_555
C5 C17 1_555 1_555
C6 S2 1_555 1_555
C7 C8 1_555 1_555
C8 H2 1_555 1_555
C9 C2 1_555 1_555
C10 C1 1_555 1_555
C11 C3 1_555 1_555
C12 C11 1_555 1_555
C13 C12 1_555 1_555
C14 C13 1_555 1_555
C15 C3 1_555 1_555
C16 C17 1_555 1_555
C17 H11 1_555 1_555
C18 C5 1_555 1_555
C19 C4 1_555 1_555
C20 C6 1_555 1_555
C21 C20 1_555 1_555
C22 C21 1_555 1_555
C23 C22 1_555 1_555
C24 C6 1_555 1_555
N1 C1 1_555 1_555
H1 C7 1_555 1_555
H3 C9 1_555 1_555
H4 C10 1_555 1_555
H5 C11 1_555 1_555
H6 C12 1_555 1_555
H7 C13 1_555 1_555
H8 C14 1_555 1_555
H9 C15 1_555 1_555
H10 C16 1_555 1_555
H12 C18 1_555 1_555
H13 C19 1_555 1_555
H14 C20 1_555 1_555
H15 C21 1_555 1_555
H16 C22 1_555 1_555
H17 C23 1_555 1_555
H18 C24 1_555 1_555
H19 N1 1_555 1_555
C4 N1 1_555 1_555
C9 C10 1_555 1_555
C14 C15 1_555 1_555
C18 C19 1_555 1_555
C23 C24 1_555 1_555

#END
