
#######################################################################
#
#                 Cambridge Crystallographic Data Centre
#                                CCDC 
#
#######################################################################
#
# If this CIF has been generated from an entry in the Cambridge 
# Structural Database, then it will include bibliographic, chemical, 
# crystal, experimental, refinement or atomic coordinate data resulting 
# from the CCDC's data processing and validation procedures.
#
#######################################################################

data_BAPSOC
_chemical_compound_source        'eaves of Dysoxylum lenticellatum'
_chemical_name_common            'dysolenticin I'
_chemical_formula_moiety         'C31 H46 O5'
_chemical_name_systematic        
'Methyl 3,23-dioxo-24,25-epoxylanost-7-en-21-oate'
_symmetry_cell_setting           orthorhombic
_symmetry_space_group_name_H-M   'P 21 21 21'
_symmetry_Int_Tables_number      19
_space_group_name_Hall           'P 2ac 2ab'
loop_
_symmetry_equiv_pos_site_id
_symmetry_equiv_pos_as_xyz
1 x,y,z
2 1/2-x,-y,1/2+z
3 -x,1/2+y,1/2-z
4 1/2+x,1/2-y,-z
_cell_length_a                   7.299(5)
_cell_length_b                   16.568(12)
_cell_length_c                   23.238(17)
_cell_angle_alpha                90
_cell_angle_beta                 90
_cell_angle_gamma                90
_cell_volume                     2810.17
_exptl_crystal_colour            colorless
_exptl_crystal_description       block
_cell_formula_units_Z            4
loop_
_atom_site_label
_atom_site_type_symbol
_atom_site_fract_x
_atom_site_fract_y
_atom_site_fract_z
C1 C 0.2173(5) 0.2960(2) 1.07039(15)
H1 H 0.0956 0.3190 1.0669
H2 H 0.2537 0.2767 1.0327
C2 C 0.2102(5) 0.2250(2) 1.11175(17)
H3 H 0.1609 0.2431 1.1483
H4 H 0.1281 0.1843 1.0964
C3 C 0.3918(6) 0.1887(3) 1.12136(18)
C4 C 0.5489(5) 0.2441(2) 1.13691(15)
C5 C 0.5400(4) 0.32175(18) 1.09957(13)
H5 H 0.5795 0.3044 1.0612
C6 C 0.6839(5) 0.3830(2) 1.11835(16)
H6 H 0.6689 0.3941 1.1591
H7 H 0.8049 0.3600 1.1128
C7 C 0.6709(5) 0.4601(2) 1.08567(15)
H8 H 0.7674 0.4964 1.0893
C8 C 0.5335(4) 0.48098(18) 1.05207(13)
C9 C 0.3765(4) 0.42375(19) 1.04025(13)
H9 H 0.4151 0.3918 1.0069
C10 C 0.3511(4) 0.36202(19) 1.08973(13)
C11 C 0.2022(5) 0.4676(2) 1.02099(15)
H10 H 0.1509 0.4958 1.0538
H11 H 0.1133 0.4277 1.0086
C12 C 0.2306(4) 0.5288(2) 0.97181(14)
H12 H 0.1515 0.5750 0.9785
H13 H 0.1926 0.5040 0.9359
C13 C 0.4293(4) 0.55902(18) 0.96517(12)
C14 C 0.5182(5) 0.56409(19) 1.02532(13)
C15 C 0.7010(6) 0.6069(2) 1.01210(15)
H14 H 0.7483 0.6340 1.0460
H15 H 0.7919 0.5689 0.9983
C16 C 0.6497(6) 0.6682(2) 0.96497(16)
H16 H 0.7370 0.6655 0.9335
H17 H 0.6509 0.7226 0.9805
C17 C 0.4539(5) 0.64631(19) 0.94312(13)
H18 H 0.3667 0.6804 0.9640
C18 C 0.5373(5) 0.50190(19) 0.92589(14)
H19 H 0.4684 0.4920 0.8914
H20 H 0.5586 0.4518 0.9455
H21 H 0.6526 0.5262 0.9161
C19 C 0.2778(5) 0.4042(2) 1.14372(14)
H22 H 0.3638 0.4445 1.1560
H23 H 0.2612 0.3652 1.1738
H24 H 0.1625 0.4293 1.1351
C20 C 0.4297(5) 0.66395(19) 0.87857(13)
H25 H 0.5072 0.6272 0.8563
C21 C 0.2331(6) 0.6520(2) 0.86156(15)
C22 C 0.4835(6) 0.7511(2) 0.86519(14)
H26 H 0.3960 0.7868 0.8836
H27 H 0.6025 0.7616 0.8822
C23 C 0.4922(6) 0.7716(2) 0.80307(16)
C24 C 0.5444(6) 0.8576(2) 0.78845(16)
H28 H 0.6560 0.8638 0.7654
C25 C 0.4075(6) 0.9204(2) 0.78088(14)
C26 C 0.2097(7) 0.9025(3) 0.78934(17)
H29 H 0.1967 0.8563 0.8140
H30 H 0.1538 0.8914 0.7528
H31 H 0.1507 0.9482 0.8067
C27 C 0.4492(8) 0.9914(3) 0.74325(19)
H32 H 0.3944 1.0390 0.7594
H33 H 0.4003 0.9822 0.7055
H34 H 0.5794 0.9986 0.7408
C28 C 0.7300(5) 0.1996(2) 1.12512(18)
H35 H 0.7286 0.1482 1.1442
H36 H 0.8304 0.2312 1.1393
H37 H 0.7440 0.1915 1.0844
C29 C 0.5350(6) 0.2583(2) 1.20251(15)
H38 H 0.4199 0.2835 1.2113
H39 H 0.6334 0.2927 1.2147
H40 H 0.5431 0.2075 1.2222
C30 C 0.4097(6) 0.6187(2) 1.06742(14)
H41 H 0.2829 0.6033 1.0671
H42 H 0.4209 0.6740 1.0556
H43 H 0.4582 0.6126 1.1056
C31 C 0.0201(7) 0.5623(3) 0.81952(19)
H44 H -0.0545 0.6099 0.8224
H45 H -0.0261 0.5216 0.8451
H46 H 0.0170 0.5425 0.7807
O1 O 0.4120(5) 0.11649(19) 1.11871(19)
O2 O 0.1107(5) 0.69789(19) 0.87111(14)
O3 O 0.2064(4) 0.58181(15) 0.83504(10)
O4 O 0.4698(5) 0.72381(16) 0.76463(11)
O5 O 0.5189(4) 0.91620(15) 0.83266(10)
loop_
_geom_bond_atom_site_label_1
_geom_bond_atom_site_label_2
_geom_bond_site_symmetry_1
_geom_bond_site_symmetry_2
C1 H1 1_555 1_555
H2 C1 1_555 1_555
C2 C1 1_555 1_555
H3 C2 1_555 1_555
H4 C2 1_555 1_555
C3 C2 1_555 1_555
C4 C3 1_555 1_555
C5 C4 1_555 1_555
H5 C5 1_555 1_555
C6 C5 1_555 1_555
H6 C6 1_555 1_555
H7 C6 1_555 1_555
C7 C6 1_555 1_555
H8 C7 1_555 1_555
C8 C7 1_555 1_555
C9 C8 1_555 1_555
H9 C9 1_555 1_555
C10 C1 1_555 1_555
C11 C9 1_555 1_555
H10 C11 1_555 1_555
H11 C11 1_555 1_555
C12 C11 1_555 1_555
H12 C12 1_555 1_555
H13 C12 1_555 1_555
C13 C12 1_555 1_555
C14 C8 1_555 1_555
C15 C14 1_555 1_555
H14 C15 1_555 1_555
H15 C15 1_555 1_555
C16 C15 1_555 1_555
H16 C16 1_555 1_555
H17 C16 1_555 1_555
C17 C13 1_555 1_555
H18 C17 1_555 1_555
C18 C13 1_555 1_555
H19 C18 1_555 1_555
H20 C18 1_555 1_555
H21 C18 1_555 1_555
C19 C10 1_555 1_555
H22 C19 1_555 1_555
H23 C19 1_555 1_555
H24 C19 1_555 1_555
C20 C17 1_555 1_555
H25 C20 1_555 1_555
C21 C20 1_555 1_555
C22 C20 1_555 1_555
H26 C22 1_555 1_555
H27 C22 1_555 1_555
C23 C22 1_555 1_555
C24 C23 1_555 1_555
H28 C24 1_555 1_555
C25 C24 1_555 1_555
C26 C25 1_555 1_555
H29 C26 1_555 1_555
H30 C26 1_555 1_555
H31 C26 1_555 1_555
C27 C25 1_555 1_555
H32 C27 1_555 1_555
H33 C27 1_555 1_555
H34 C27 1_555 1_555
C28 C4 1_555 1_555
H35 C28 1_555 1_555
H36 C28 1_555 1_555
H37 C28 1_555 1_555
C29 C4 1_555 1_555
H38 C29 1_555 1_555
H39 C29 1_555 1_555
H40 C29 1_555 1_555
C30 C14 1_555 1_555
H41 C30 1_555 1_555
H42 C30 1_555 1_555
H43 C30 1_555 1_555
C31 H44 1_555 1_555
H45 C31 1_555 1_555
H46 C31 1_555 1_555
O1 C3 1_555 1_555
O2 C21 1_555 1_555
O3 C21 1_555 1_555
O4 C23 1_555 1_555
O5 C24 1_555 1_555
C5 C10 1_555 1_555
C9 C10 1_555 1_555
C13 C14 1_555 1_555
C16 C17 1_555 1_555
C25 O5 1_555 1_555
C31 O3 1_555 1_555

#END
