
#######################################################################
#
#                 Cambridge Crystallographic Data Centre
#                                CCDC 
#
#######################################################################
#
# If this CIF has been generated from an entry in the Cambridge 
# Structural Database, then it will include bibliographic, chemical, 
# crystal, experimental, refinement or atomic coordinate data resulting 
# from the CCDC's data processing and validation procedures.
#
#######################################################################

data_BAPVUL
_chemical_formula_moiety         'C33 H25 N2 O2 1+,C1 F3 O3 S1 1-'
_chemical_name_systematic        
"1,12-Diphenyl-5a,8,12b,15a-tetrahydro-5H,7aH-indeno[1,2-d]indeno[1'',2'':4',5'][1,3]oxazolo[3',2':3,4]imidazo[5,1-b][1,3]oxazol-13-ium trifluoromethanesulfonate"
_symmetry_cell_setting           monoclinic
_symmetry_space_group_name_H-M   'P 21'
_symmetry_Int_Tables_number      4
_space_group_name_Hall           'P 2yb'
loop_
_symmetry_equiv_pos_site_id
_symmetry_equiv_pos_as_xyz
1 x,y,z
2 -x,1/2+y,-z
_cell_length_a                   8.31659(11)
_cell_length_b                   20.0565(2)
_cell_length_c                   17.4123(2)
_cell_angle_alpha                90
_cell_angle_beta                 95.0536(12)
_cell_angle_gamma                90
_cell_volume                     2893.11
_exptl_crystal_colour            colorless
_exptl_crystal_description       tablets
_cell_formula_units_Z            4
loop_
_atom_site_label
_atom_site_type_symbol
_atom_site_fract_x
_atom_site_fract_y
_atom_site_fract_z
C1 C 0.4859(3) 0.67659(13) 1.01252(14)
H1 H 0.4080 0.6776 1.0492
N1 N 0.5637(2) 0.62323(10) 0.98823(12)
C2 C 0.5846(3) 0.55199(14) 1.00729(16)
H2 H 0.4803 0.5287 1.0135
C3 C 0.7128(3) 0.53803(13) 1.07286(17)
C4 C 0.7253(3) 0.56300(14) 1.14775(16)
C5 C 0.8618(4) 0.54503(15) 1.19610(18)
H3 H 0.8745 0.5618 1.2473
C6 C 0.9788(4) 0.50327(17) 1.17087(19)
H4 H 1.0694 0.4912 1.2051
C7 C 0.9648(4) 0.47910(16) 1.0964(2)
H5 H 1.0458 0.4507 1.0792
C8 C 0.8324(3) 0.49638(14) 1.04712(18)
C9 C 0.7932(4) 0.47813(15) 0.96362(19)
H6 H 0.7502 0.4322 0.9586
H7 H 0.8901 0.4816 0.9347
C10 C 0.6663(3) 0.52862(15) 0.93458(17)
H8 H 0.5866 0.5096 0.8941
O1 O 0.7472(2) 0.58877(10) 0.90745(11)
C11 C 0.6669(3) 0.64104(14) 0.93377(15)
C12 C 0.6536(3) 0.70819(14) 0.92522(14)
O2 O 0.7146(2) 0.75893(10) 0.88698(11)
C13 C 0.6698(3) 0.82008(14) 0.92814(16)
H9 H 0.7572 0.8349 0.9676
C14 C 0.6218(4) 0.87401(15) 0.87065(17)
H10 H 0.6369 0.9187 0.8942
H11 H 0.6856 0.8711 0.8254
C15 C 0.4466(4) 0.86024(13) 0.84829(16)
C16 C 0.3506(4) 0.88214(15) 0.78469(17)
H12 H 0.3934 0.9114 0.7488
C17 C 0.1916(4) 0.86128(16) 0.77340(18)
H13 H 0.1257 0.8756 0.7291
C18 C 0.1280(4) 0.81930(15) 0.82689(17)
H14 H 0.0190 0.8049 0.8183
C19 C 0.2213(3) 0.79799(13) 0.89274(15)
C20 C 0.3821(3) 0.81806(12) 0.90211(14)
C21 C 0.5131(3) 0.80010(13) 0.96484(15)
H15 H 0.5006 0.8234 1.0147
N2 N 0.5412(2) 0.72802(11) 0.97417(12)
C22 C 0.6035(3) 0.60992(14) 1.17388(14)
C23 C 0.6408(4) 0.67698(15) 1.18583(16)
H16 H 0.7475 0.6920 1.1805
C24 C 0.5258(4) 0.72195(17) 1.20530(18)
H17 H 0.5529 0.7677 1.2124
C25 C 0.3710(4) 0.7002(2) 1.2145(2)
H18 H 0.2912 0.7310 1.2277
C26 C 0.3329(4) 0.6342(2) 1.2047(2)
H19 H 0.2269 0.6194 1.2121
C27 C 0.4471(4) 0.58890(17) 1.18402(18)
H20 H 0.4186 0.5433 1.1767
C28 C 0.1508(3) 0.75361(13) 0.95002(15)
C29 C 0.1305(3) 0.68558(15) 0.93489(17)
H21 H 0.1585 0.6677 0.8873
C30 C 0.0696(4) 0.64407(15) 0.98917(19)
H22 H 0.0588 0.5976 0.9793
C31 C 0.0249(4) 0.66997(18) 1.05702(19)
H23 H -0.0166 0.6414 1.0941
C32 C 0.0401(5) 0.73767(19) 1.0716(2)
H24 H 0.0060 0.7557 1.1179
C33 C 0.1051(4) 0.77896(16) 1.01871(17)
H25 H 0.1185 0.8251 1.0297
C34 C 0.4518(3) 0.68939(13) 0.48120(14)
H26 H 0.3736 0.6897 0.5178
N3 N 0.5232(3) 0.63649(11) 0.45309(12)
C35 C 0.5288(3) 0.56313(13) 0.46270(16)
H27 H 0.4201 0.5427 0.4666
C36 C 0.6548(4) 0.54027(13) 0.52630(17)
C37 C 0.6689(4) 0.55606(14) 0.60451(16)
C38 C 0.8044(4) 0.53090(17) 0.64832(19)
H28 H 0.8193 0.5414 0.7017
C39 C 0.9174(4) 0.49118(17) 0.6166(2)
H29 H 1.0076 0.4748 0.6483
C40 C 0.9002(4) 0.47522(15) 0.53931(19)
H30 H 0.9785 0.4484 0.5173
C41 C 0.7670(4) 0.49890(13) 0.49441(17)
C42 C 0.7235(4) 0.48770(15) 0.40928(18)
H31 H 0.8199 0.4910 0.3799
H32 H 0.6724 0.4435 0.3996
C43 C 0.6058(3) 0.54341(13) 0.38816(16)
H33 H 0.5229 0.5304 0.3457
O3 O 0.6990(2) 0.60283(10) 0.36806(11)
C44 C 0.6284(3) 0.65479(13) 0.39991(14)
C45 C 0.6252(3) 0.72236(13) 0.39728(14)
O4 O 0.6928(2) 0.77353(10) 0.36277(11)
C46 C 0.6431(4) 0.83447(14) 0.40152(16)
H34 H 0.7281 0.8510 0.4411
C47 C 0.5954(4) 0.88628(15) 0.34089(19)
H35 H 0.6088 0.9319 0.3623
H36 H 0.6607 0.8819 0.2963
C48 C 0.4201(4) 0.87116(13) 0.31801(17)
C49 C 0.3267(4) 0.88869(16) 0.25175(18)
H37 H 0.3715 0.9150 0.2136
C50 C 0.1688(4) 0.86806(17) 0.24089(19)
H38 H 0.1037 0.8807 0.1957
C51 C 0.1046(4) 0.82866(16) 0.29627(19)
H39 H -0.0046 0.8146 0.2881
C52 C 0.1955(4) 0.80940(15) 0.36301(18)
C53 C 0.3551(3) 0.83080(13) 0.37356(16)
C54 C 0.4856(3) 0.81460(13) 0.43709(16)
H40 H 0.4709 0.8382 0.4866
N4 N 0.5136(3) 0.74199(11) 0.44695(12)
C55 C 0.5488(4) 0.59702(15) 0.64161(16)
C56 C 0.5976(5) 0.64990(17) 0.69066(19)
H41 H 0.7090 0.6608 0.6991
C57 C 0.4851(6) 0.68661(19) 0.7271(2)
H42 H 0.5199 0.7226 0.7599
C58 C 0.3235(6) 0.6712(2) 0.7162(2)
H43 H 0.2472 0.6964 0.7415
C59 C 0.2725(5) 0.61921(18) 0.6685(2)
H44 H 0.1610 0.6084 0.6611
C60 C 0.3841(4) 0.58255(15) 0.63103(18)
H45 H 0.3478 0.5471 0.5977
C61 C 0.1261(5) 0.7611(2) 0.4156(3)
C62 C 0.0880(5) 0.6969(2) 0.3904(3)
H46 H 0.1017 0.6844 0.3387
C63 C 0.0297(5) 0.6507(3) 0.4407(4)
H47 H 0.0037 0.6068 0.4234
C64 C 0.0096(4) 0.6689(4) 0.5163(4)
H48 H -0.0302 0.6374 0.5507
C65 C 0.0477(6) 0.7332(4) 0.5415(3)
H49 H 0.0340 0.7456 0.5932
C66 C 0.1059(7) 0.7793(3) 0.4912(3)
H50 H 0.1320 0.8233 0.5085
S1 S 0.75936(9) 0.91914(4) 0.62048(4)
O5 O 0.7055(4) 0.95541(14) 0.68466(16)
O6 O 0.6730(3) 0.93319(11) 0.54774(14)
O7 O 0.9307(3) 0.91233(15) 0.61911(16)
C67 C 0.6959(4) 0.83433(17) 0.63964(16)
F1 F 0.7302(2) 0.79254(9) 0.58455(11)
F2 F 0.7651(3) 0.81110(12) 0.70571(11)
F3 F 0.5360(2) 0.83101(12) 0.64223(14)
S2 S 0.25953(12) 0.41480(8) 0.88862(9)
O8 O 0.4182(4) 0.41883(19) 0.9224(3)
O9 O 0.2334(6) 0.36480(18) 0.8294(2)
O10 O 0.1330(5) 0.4146(2) 0.9379(2)
C68 C 0.2329(9) 0.4930(3) 0.8361(3)
F4 F 0.0850(4) 0.5009(2) 0.8038(3)
F5 F 0.2646(5) 0.54521(14) 0.8821(2)
F6 F 0.3367(5) 0.49796(15) 0.78349(18)
C69? C 0.1347(17) 0.7698(6) 0.4317(6)
C70? C 0.0670(16) 0.7074(6) 0.4160(6)
C71? C 0.0082(12) 0.6703(5) 0.4748(8)
C72? C 0.0170(13) 0.6956(6) 0.5494(7)
C73? C 0.0847(16) 0.7580(6) 0.5651(5)
C74? C 0.1436(17) 0.7951(5) 0.5062(6)
C75? C 0.2091(14) 0.4993(5) 0.8340(6)
F7? F 0.0673(10) 0.5262(4) 0.8397(5)
F8? F 0.2149(9) 0.4778(3) 0.7630(3)
F9? F 0.3160(9) 0.5484(4) 0.8413(5)
H51? H 0.0610 0.6901 0.3650
H52? H -0.0381 0.6276 0.4641
H53? H -0.0232 0.6702 0.5896
H54? H 0.0908 0.7753 0.6161
H55? H 0.1898 0.8378 0.5170
O11? O 0.4112(11) 0.4114(5) 0.8866(5)
O12? O 0.2449(9) 0.4675(4) 0.9761(4)
O13? O 0.1318(10) 0.3852(4) 0.8846(5)
S3? S 0.2528(4) 0.4350(2) 0.9063(2)
loop_
_geom_bond_atom_site_label_1
_geom_bond_atom_site_label_2
_geom_bond_site_symmetry_1
_geom_bond_site_symmetry_2
C1 H1 1_555 1_555
N1 C1 1_555 1_555
C2 N1 1_555 1_555
H2 C2 1_555 1_555
C3 C2 1_555 1_555
C4 C3 1_555 1_555
C5 C4 1_555 1_555
H3 C5 1_555 1_555
C6 C5 1_555 1_555
H4 C6 1_555 1_555
C7 C6 1_555 1_555
H5 C7 1_555 1_555
C8 C3 1_555 1_555
C9 C8 1_555 1_555
H6 C9 1_555 1_555
H7 C9 1_555 1_555
C10 C2 1_555 1_555
H8 C10 1_555 1_555
O1 C10 1_555 1_555
C11 N1 1_555 1_555
C12 C11 1_555 1_555
O2 C12 1_555 1_555
C13 O2 1_555 1_555
H9 C13 1_555 1_555
C14 C13 1_555 1_555
H10 C14 1_555 1_555
H11 C14 1_555 1_555
C15 C14 1_555 1_555
C16 C15 1_555 1_555
H12 C16 1_555 1_555
C17 C16 1_555 1_555
H13 C17 1_555 1_555
C18 C17 1_555 1_555
H14 C18 1_555 1_555
C19 C18 1_555 1_555
C20 C15 1_555 1_555
C21 C13 1_555 1_555
H15 C21 1_555 1_555
N2 C1 1_555 1_555
C22 C4 1_555 1_555
C23 C22 1_555 1_555
H16 C23 1_555 1_555
C24 C23 1_555 1_555
H17 C24 1_555 1_555
C25 C24 1_555 1_555
H18 C25 1_555 1_555
C26 C25 1_555 1_555
H19 C26 1_555 1_555
C27 C22 1_555 1_555
H20 C27 1_555 1_555
C28 C19 1_555 1_555
C29 C28 1_555 1_555
H21 C29 1_555 1_555
C30 C29 1_555 1_555
H22 C30 1_555 1_555
C31 C30 1_555 1_555
H23 C31 1_555 1_555
C32 C31 1_555 1_555
H24 C32 1_555 1_555
C33 C28 1_555 1_555
H25 C33 1_555 1_555
C34 H26 1_555 1_555
N3 C34 1_555 1_555
C35 N3 1_555 1_555
H27 C35 1_555 1_555
C36 C35 1_555 1_555
C37 C36 1_555 1_555
C38 C37 1_555 1_555
H28 C38 1_555 1_555
C39 C38 1_555 1_555
H29 C39 1_555 1_555
C40 C39 1_555 1_555
H30 C40 1_555 1_555
C41 C36 1_555 1_555
C42 C41 1_555 1_555
H31 C42 1_555 1_555
H32 C42 1_555 1_555
C43 C35 1_555 1_555
H33 C43 1_555 1_555
O3 C43 1_555 1_555
C44 N3 1_555 1_555
C45 C44 1_555 1_555
O4 C45 1_555 1_555
C46 O4 1_555 1_555
H34 C46 1_555 1_555
C47 C46 1_555 1_555
H35 C47 1_555 1_555
H36 C47 1_555 1_555
C48 C47 1_555 1_555
C49 C48 1_555 1_555
H37 C49 1_555 1_555
C50 C49 1_555 1_555
H38 C50 1_555 1_555
C51 C50 1_555 1_555
H39 C51 1_555 1_555
C52 C51 1_555 1_555
C53 C48 1_555 1_555
C54 C46 1_555 1_555
H40 C54 1_555 1_555
N4 C34 1_555 1_555
C55 C37 1_555 1_555
C56 C55 1_555 1_555
H41 C56 1_555 1_555
C57 C56 1_555 1_555
H42 C57 1_555 1_555
C58 C57 1_555 1_555
H43 C58 1_555 1_555
C59 C58 1_555 1_555
H44 C59 1_555 1_555
C60 C55 1_555 1_555
H45 C60 1_555 1_555
C61 C52 1_555 1_555
C62 C61 1_555 1_555
H46 C62 1_555 1_555
C63 C62 1_555 1_555
H47 C63 1_555 1_555
C64 C63 1_555 1_555
H48 C64 1_555 1_555
C65 C64 1_555 1_555
H49 C65 1_555 1_555
C66 C61 1_555 1_555
H50 C66 1_555 1_555
S1 O5 1_555 1_555
O6 S1 1_555 1_555
O7 S1 1_555 1_555
C67 S1 1_555 1_555
F1 C67 1_555 1_555
F2 C67 1_555 1_555
F3 C67 1_555 1_555
S2 O8 1_555 1_555
O9 S2 1_555 1_555
O10 S2 1_555 1_555
C68 S2 1_555 1_555
F4 C68 1_555 1_555
F5 C68 1_555 1_555
F6 C68 1_555 1_555
C7 C8 1_555 1_555
C9 C10 1_555 1_555
O1 C11 1_555 1_555
C12 N2 1_555 1_555
C19 C20 1_555 1_555
C20 C21 1_555 1_555
C21 N2 1_555 1_555
C26 C27 1_555 1_555
C32 C33 1_555 1_555
C40 C41 1_555 1_555
C42 C43 1_555 1_555
O3 C44 1_555 1_555
C45 N4 1_555 1_555
C52 C53 1_555 1_555
C53 C54 1_555 1_555
C54 N4 1_555 1_555
C59 C60 1_555 1_555
C65 C66 1_555 1_555

#END
