
#######################################################################
#
#                 Cambridge Crystallographic Data Centre
#                                CCDC 
#
#######################################################################
#
# If this CIF has been generated from an entry in the Cambridge 
# Structural Database, then it will include bibliographic, chemical, 
# crystal, experimental, refinement or atomic coordinate data resulting 
# from the CCDC's data processing and validation procedures.
#
#######################################################################

data_BAPVIZ
_chemical_formula_moiety         'C21 H17 N2 O2 1+,C1 F3 O3 S1 1-'
_chemical_name_systematic        
"5a,8,12b,15a-Tetrahydro-5H,7aH-indeno[1,2-d]indeno[1'',2'':4',5'][1,3]oxazolo[3',2':3,4]imidazo[5,1-b][1,3]oxazol-13-ium trifluoromethanesulfonate"
_symmetry_cell_setting           orthorhombic
_symmetry_space_group_name_H-M   'P 21 21 21'
_symmetry_Int_Tables_number      19
_space_group_name_Hall           'P 2ac 2ab'
loop_
_symmetry_equiv_pos_site_id
_symmetry_equiv_pos_as_xyz
1 x,y,z
2 1/2-x,-y,1/2+z
3 -x,1/2+y,1/2-z
4 1/2+x,1/2-y,-z
_cell_length_a                   10.02411(5)
_cell_length_b                   10.34453(6)
_cell_length_c                   20.23764(11)
_cell_angle_alpha                90
_cell_angle_beta                 90
_cell_angle_gamma                90
_cell_volume                     2098.54
_exptl_crystal_colour            colorless
_exptl_crystal_description       blocks
_cell_formula_units_Z            4
loop_
_atom_site_label
_atom_site_type_symbol
_atom_site_fract_x
_atom_site_fract_y
_atom_site_fract_z
C1 C 0.50174(15) 0.38853(14) 0.54324(7)
H1 H 0.5124 0.3342 0.5058
N1 N 0.41141(12) 0.37758(11) 0.59144(6)
C2 C 0.30032(13) 0.29193(14) 0.60837(7)
H2 H 0.2324 0.2882 0.5722
C3 C 0.33932(14) 0.15945(14) 0.63137(7)
C4 C 0.40052(15) 0.06267(15) 0.59507(8)
H3 H 0.4286 0.0782 0.5509
C5 C 0.42008(17) -0.05690(17) 0.62410(10)
H4 H 0.4608 -0.1246 0.5996
C6 C 0.38043(18) -0.07844(16) 0.68897(10)
H5 H 0.3945 -0.1608 0.7085
C7 C 0.32067(19) 0.01888(17) 0.72540(9)
H6 H 0.2935 0.0038 0.7697
C8 C 0.30085(15) 0.13933(16) 0.69619(8)
C9 C 0.23690(19) 0.25840(17) 0.72551(8)
H7 H 0.2860 0.2872 0.7653
H8 H 0.1430 0.2410 0.7378
C10 C 0.24432(15) 0.36031(15) 0.67129(7)
H9 H 0.1541 0.3977 0.6624
O1 O 0.34034(12) 0.46309(11) 0.68843(6)
C11 C 0.42669(15) 0.47329(14) 0.63809(7)
C12 C 0.52893(15) 0.54800(13) 0.61671(8)
O2 O 0.59531(11) 0.65757(10) 0.63170(6)
C13 C 0.71305(15) 0.66296(16) 0.58777(9)
H10 H 0.7965 0.6389 0.6119
C14 C 0.72484(18) 0.79596(16) 0.55596(10)
H11 H 0.6783 0.8621 0.5828
H12 H 0.8196 0.8213 0.5511
C15 C 0.65936(15) 0.78097(16) 0.48936(9)
C16 C 0.62340(19) 0.87496(17) 0.44337(11)
H13 H 0.6339 0.9641 0.4533
C17 C 0.57212(18) 0.83642(19) 0.38294(11)
H14 H 0.5467 0.9002 0.3516
C18 C 0.55710(17) 0.70674(19) 0.36714(9)
H15 H 0.5240 0.6825 0.3249
C19 C 0.59047(15) 0.61243(16) 0.41299(8)
H16 H 0.5794 0.5234 0.4030
C20 C 0.64035(14) 0.65115(14) 0.47378(8)
C21 C 0.68322(14) 0.56684(14) 0.53043(8)
H17 H 0.7620 0.5117 0.5192
N2 N 0.57364(12) 0.49220(11) 0.55911(6)
S1 S 0.12784(4) 0.77844(4) 0.892962(18)
O3 O 0.13503(18) 0.90312(12) 0.86240(7)
O4 O -0.00415(11) 0.72462(13) 0.89762(6)
O5 O 0.20528(14) 0.76383(15) 0.95229(6)
C22 C 0.21105(18) 0.67345(17) 0.83384(9)
F1 F 0.21110(18) 0.55220(12) 0.85447(8)
F2 F 0.33555(12) 0.70966(17) 0.82415(7)
F3 F 0.15003(16) 0.67681(14) 0.77582(6)
loop_
_geom_bond_atom_site_label_1
_geom_bond_atom_site_label_2
_geom_bond_site_symmetry_1
_geom_bond_site_symmetry_2
C1 H1 1_555 1_555
N1 C1 1_555 1_555
C2 N1 1_555 1_555
H2 C2 1_555 1_555
C3 C2 1_555 1_555
C4 C3 1_555 1_555
H3 C4 1_555 1_555
C5 C4 1_555 1_555
H4 C5 1_555 1_555
C6 C5 1_555 1_555
H5 C6 1_555 1_555
C7 C6 1_555 1_555
H6 C7 1_555 1_555
C8 C3 1_555 1_555
C9 C8 1_555 1_555
H7 C9 1_555 1_555
H8 C9 1_555 1_555
C10 C2 1_555 1_555
H9 C10 1_555 1_555
O1 C10 1_555 1_555
C11 N1 1_555 1_555
C12 C11 1_555 1_555
O2 C12 1_555 1_555
C13 O2 1_555 1_555
H10 C13 1_555 1_555
C14 C13 1_555 1_555
H11 C14 1_555 1_555
H12 C14 1_555 1_555
C15 C14 1_555 1_555
C16 C15 1_555 1_555
H13 C16 1_555 1_555
C17 C16 1_555 1_555
H14 C17 1_555 1_555
C18 C17 1_555 1_555
H15 C18 1_555 1_555
C19 C18 1_555 1_555
H16 C19 1_555 1_555
C20 C15 1_555 1_555
C21 C13 1_555 1_555
H17 C21 1_555 1_555
N2 C1 1_555 1_555
S1 O3 1_555 1_555
O4 S1 1_555 1_555
O5 S1 1_555 1_555
C22 S1 1_555 1_555
F1 C22 1_555 1_555
F2 C22 1_555 1_555
F3 C22 1_555 1_555
C7 C8 1_555 1_555
C9 C10 1_555 1_555
O1 C11 1_555 1_555
C12 N2 1_555 1_555
C19 C20 1_555 1_555
C20 C21 1_555 1_555
C21 N2 1_555 1_555

#END
