
#######################################################################
#
#                 Cambridge Crystallographic Data Centre
#                                CCDC 
#
#######################################################################
#
# If this CIF has been generated from an entry in the Cambridge 
# Structural Database, then it will include bibliographic, chemical, 
# crystal, experimental, refinement or atomic coordinate data resulting 
# from the CCDC's data processing and validation procedures.
#
#######################################################################

data_BAPVOF
_chemical_formula_moiety         'C23 H21 N2 O2 1+,I1 1-,1.33(C7 H16)'
_chemical_name_systematic        
"1,12-Dimethyl-5a,8,12b,15a-tetrahydro-5H,7aH-indeno[1,2-d]indeno[1'',2'':4',5'][1,3]oxazolo[3',2':3,4]imidazo[5,1-b][1,3]oxazol-13-ium iodide n-heptane solvate"
_symmetry_cell_setting           hexagonal
_symmetry_space_group_name_H-M   'P 61'
_symmetry_Int_Tables_number      169
_space_group_name_Hall           'P 61'
loop_
_symmetry_equiv_pos_site_id
_symmetry_equiv_pos_as_xyz
1 x,y,z
2 -y,x-y,1/3+z
3 -x+y,-x,2/3+z
4 -x,-y,1/2+z
5 y,-x+y,5/6+z
6 x-y,x,1/6+z
_cell_length_a                   21.382(2)
_cell_length_b                   21.382(2)
_cell_length_c                   10.7536(10)
_cell_angle_alpha                90
_cell_angle_beta                 90
_cell_angle_gamma                120
_cell_volume                     4257.76
_exptl_crystal_colour            colorless
_exptl_crystal_description       needles
_cell_formula_units_Z            6
loop_
_atom_site_label
_atom_site_type_symbol
_atom_site_fract_x
_atom_site_fract_y
_atom_site_fract_z
I1 I 0.55689(12) 0.57309(7) 0.08552(19)
C1 C 0.4818(11) 0.3819(10) 0.2324(19)
H1 H 0.4887 0.4246 0.2719
N1 N 0.4995(9) 0.3347(8) 0.2766(11)
C2 C 0.5372(11) 0.3240(10) 0.3791(13)
H2 H 0.5186 0.3292 0.4614
C3 C 0.6167(13) 0.3640(12) 0.3751(13)
C4 C 0.6637(17) 0.4395(14) 0.3793(15)
C5 C 0.738(2) 0.4637(15) 0.380(2)
H3 H 0.7697 0.5140 0.3915
C6 C 0.7690(15) 0.4217(15) 0.3642(17)
H4 H 0.8199 0.4429 0.3583
C7 C 0.7259(12) 0.3500(18) 0.3578(17)
H5 H 0.7462 0.3195 0.3499
C8 C 0.6483(15) 0.3189(13) 0.3630(13)
C9 C 0.5858(12) 0.2416(10) 0.3721(16)
H6 H 0.5854 0.2214 0.4552
H7 H 0.5911 0.2111 0.3085
C10 C 0.5144(11) 0.2421(9) 0.3511(15)
H8 H 0.4737 0.2066 0.4043
O1 O 0.4996(8) 0.2318(7) 0.2248(10)
C11 C 0.4839(12) 0.2822(9) 0.1895(16)
C12 C 0.4558(10) 0.2973(7) 0.0904(16)
O2 O 0.4253(8) 0.2715(6) -0.0180(12)
C13 C 0.4147(14) 0.3245(12) -0.0820(19)
H9 H 0.4545 0.3511 -0.1434
C14 C 0.3455(14) 0.2915(14) -0.145(2)
H10 H 0.3284 0.2406 -0.1671
H11 H 0.3467 0.3189 -0.2197
C15 C 0.3003(15) 0.2979(10) -0.0409(14)
C16 C 0.2254(14) 0.2623(9) -0.034(2)
H12 H 0.1972 0.2272 -0.0951
C17 C 0.1917(9) 0.2781(12) 0.061(3)
H13 H 0.1405 0.2537 0.0658
C18 C 0.2329(13) 0.3295(14) 0.150(2)
H14 H 0.2099 0.3402 0.2156
C19 C 0.3079(13) 0.3651(10) 0.1437(15)
C20 C 0.3415(9) 0.3493(8) 0.0481(16)
C21 C 0.4194(12) 0.3737(11) 0.018(2)
H15 H 0.4475 0.4257 -0.0069
N2 N 0.4520(9) 0.3567(8) 0.1204(12)
C22 C 0.6362(15) 0.4954(10) 0.392(2)
H16 H 0.6767 0.5428 0.4149
H17 H 0.5987 0.4789 0.4556
H18 H 0.6163 0.4993 0.3117
C23 C 0.3590(16) 0.4291(16) 0.245(4)
H19 H 0.4045 0.4292 0.2569
H20 H 0.3336 0.4197 0.3244
H21 H 0.3692 0.4762 0.2128
loop_
_geom_bond_atom_site_label_1
_geom_bond_atom_site_label_2
_geom_bond_site_symmetry_1
_geom_bond_site_symmetry_2
C1 H1 1_555 1_555
N1 C1 1_555 1_555
C2 N1 1_555 1_555
H2 C2 1_555 1_555
C3 C2 1_555 1_555
C4 C3 1_555 1_555
C5 C4 1_555 1_555
H3 C5 1_555 1_555
C6 C5 1_555 1_555
H4 C6 1_555 1_555
C7 C6 1_555 1_555
H5 C7 1_555 1_555
C8 C3 1_555 1_555
C9 C8 1_555 1_555
H6 C9 1_555 1_555
H7 C9 1_555 1_555
C10 C2 1_555 1_555
H8 C10 1_555 1_555
O1 C10 1_555 1_555
C11 N1 1_555 1_555
C12 C11 1_555 1_555
O2 C12 1_555 1_555
C13 O2 1_555 1_555
H9 C13 1_555 1_555
C14 C13 1_555 1_555
H10 C14 1_555 1_555
H11 C14 1_555 1_555
C15 C14 1_555 1_555
C16 C15 1_555 1_555
H12 C16 1_555 1_555
C17 C16 1_555 1_555
H13 C17 1_555 1_555
C18 C17 1_555 1_555
H14 C18 1_555 1_555
C19 C18 1_555 1_555
C20 C15 1_555 1_555
C21 C13 1_555 1_555
H15 C21 1_555 1_555
N2 C1 1_555 1_555
C22 C4 1_555 1_555
H16 C22 1_555 1_555
H17 C22 1_555 1_555
H18 C22 1_555 1_555
C23 C19 1_555 1_555
H19 C23 1_555 1_555
H20 C23 1_555 1_555
H21 C23 1_555 1_555
C7 C8 1_555 1_555
C9 C10 1_555 1_555
O1 C11 1_555 1_555
C12 N2 1_555 1_555
C19 C20 1_555 1_555
C20 C21 1_555 1_555
C21 N2 1_555 1_555

#END
