
#######################################################################
#
#                 Cambridge Crystallographic Data Centre
#                                CCDC 
#
#######################################################################
#
# If this CIF has been generated from an entry in the Cambridge 
# Structural Database, then it will include bibliographic, chemical, 
# crystal, experimental, refinement or atomic coordinate data resulting 
# from the CCDC's data processing and validation procedures.
#
#######################################################################

data_BAPZUN
_chemical_name_common            SB-268907
_chemical_formula_moiety         'C26 H24 Br1 N1 O4'
_chemical_name_systematic        
'Ethyl 3-(((4-bromophenyl)amino)carboxy)-10,11-dihydro-5H-dibenzo(a,d)cyclohepten-10-yl acetate'
_chemical_properties_biological  
'orally active in vivo as a vitronectin receptor agonist'
_symmetry_cell_setting           monoclinic
_symmetry_space_group_name_H-M   'P 21'
_symmetry_Int_Tables_number      4
_space_group_name_Hall           'P 2yb'
loop_
_symmetry_equiv_pos_site_id
_symmetry_equiv_pos_as_xyz
1 x,y,z
2 -x,1/2+y,-z
_cell_length_a                   10.998(2)
_cell_length_b                   9.727(2)
_cell_length_c                   21.439(4)
_cell_angle_alpha                90
_cell_angle_beta                 96.71(3)
_cell_angle_gamma                90
_cell_volume                     2277.78
_exptl_crystal_colour            colorless
_exptl_crystal_description       blades
_cell_formula_units_Z            4
loop_
_atom_site_label
_atom_site_type_symbol
_atom_site_fract_x
_atom_site_fract_y
_atom_site_fract_z
Br1 Br -0.56071(7) -0.81405(9) -0.26385(4)
O1 O -1.0854(5) -0.6204(6) -0.5591(3)
O2 O -1.0097(5) -0.8298(6) -0.5277(2)
O3 O -1.5626(5) -0.6962(7) -0.8732(3)
O4 O -1.7429(5) -0.8012(7) -0.8982(2)
N1 N -0.9522(6) -0.6292(8) -0.4737(3)
H1 H -0.977(11) -0.539(16) -0.4731(55)
C1 C -1.3819(7) -0.7720(8) -0.6207(3)
H2 H -1.4524(7) -0.8075(8) -0.6057(3)
C2 C -1.2826(7) -0.7318(9) -0.5782(3)
H3 H -1.2856(7) -0.7398(9) -0.5347(3)
C3 C -1.1799(6) -0.6801(8) -0.6012(3)
C4 C -1.1723(7) -0.6692(8) -0.6653(3)
H4 H -1.0999(7) -0.6367(8) -0.6795(3)
C5 C -1.2709(7) -0.6850(9) -0.7786(3)
H5 H -1.1953(7) -0.6369(9) -0.7854(3)
H6 H -1.3396(7) -0.6250(9) -0.7937(3)
C6 C -1.1886(7) -0.8339(10) -0.8579(3)
H7 H -1.1273(7) -0.7669(10) -0.8590(3)
C7 C -1.1882(9) -0.9509(11) -0.8962(4)
H8 H -1.1277(9) -0.9613(11) -0.9234(4)
C8 C -1.2758(9) -1.0498(10) -0.8938(4)
H9 H -1.2743(9) -1.1296(10) -0.9184(4)
C9 C -1.3673(8) -1.0322(9) -0.8547(3)
H10 H -1.4267(8) -1.1011(9) -0.8532(3)
C10 C -1.4829(6) -0.9059(10) -0.7786(3)
H11 H -1.4792(6) -0.9913(10) -0.7533(3)
C11 C -1.4895(6) -0.7880(9) -0.7324(3)
H12 H -1.5084(6) -0.7038(9) -0.7567(3)
H13 H -1.5588(6) -0.8056(9) -0.7085(3)
C12 C -1.3776(6) -0.7600(8) -0.6856(3)
C13 C -1.2718(6) -0.7063(8) -0.7085(3)
C14 C -1.2797(6) -0.8159(9) -0.8181(3)
C15 C -1.3731(6) -0.9115(9) -0.8169(3)
C16 C -1.6063(7) -0.9115(10) -0.8221(3)
H14 H -1.6076(7) -0.9959(10) -0.8472(3)
H15 H -1.6730(7) -0.9179(10) -0.7957(3)
C17 C -1.6320(7) -0.7929(9) -0.8659(3)
C18 C -1.7839(9) -0.6889(10) -0.9401(4)
H16 H -1.7296(9) -0.6793(10) -0.9729(4)
H17 H -1.7829(9) -0.6024(10) -0.9166(4)
C19 C -1.9114(9) -0.7211(14) -0.9687(5)
H18 H -1.9411(9) -0.6474(14) -0.9970(5)
H19 H -1.9644(9) -0.7300(14) -0.9358(5)
H20 H -1.9113(9) -0.8066(14) -0.9920(5)
C20 C -1.0136(7) -0.7054(8) -0.5198(3)
C21 C -0.8610(7) -0.6780(8) -0.4258(3)
C22 C -0.8317(7) -0.5941(9) -0.3736(3)
H21 H -0.8725(7) -0.5097(9) -0.3709(3)
C23 C -0.7426(7) -0.6339(9) -0.3254(4)
H22 H -0.7233(7) -0.5768(9) -0.2903(4)
C24 C -0.6830(6) -0.7576(8) -0.3296(3)
C25 C -0.7114(6) -0.8434(9) -0.3814(3)
H23 H -0.6700(6) -0.9275(9) -0.3837(3)
C26 C -0.8004(6) -0.8056(9) -0.4295(3)
H24 H -0.8203(6) -0.8639(9) -0.4642(3)
Br2 Br -0.93837(7) -0.91439(10) -0.74695(4)
O5 O -0.4038(5) -1.0812(6) -0.4516(2)
O6 O -0.4879(5) -0.8744(6) -0.4835(2)
O7 O 0.1094(5) -1.0129(7) -0.0955(3)
O8 O 0.2902(5) -0.9072(8) -0.0987(2)
N2 N -0.5407(6) -1.0761(7) -0.5362(3)
H25 H -0.5260(90) -1.183(13) -0.5336(45)
C27 C -0.1241(7) -0.8983(9) -0.3867(3)
H26 H -0.0588(7) -0.8497(9) -0.4009(3)
C28 C -0.2151(6) -0.9495(9) -0.4306(3)
H27 H -0.2100(6) -0.9407(9) -0.4738(3)
C29 C -0.3141(6) -1.0143(9) -0.4085(3)
C30 C -0.3200(7) -1.0311(9) -0.3452(3)
H28 H -0.3882(7) -1.0753(9) -0.3316(3)
C31 C -0.2374(7) -1.0170(9) -0.2311(3)
H29 H -0.3209(7) -1.0500(9) -0.2288(3)
H30 H -0.1815(7) -1.0927(9) -0.2180(3)
C32 C -0.3029(7) -0.8544(9) -0.1500(3)
H31 H -0.3801(7) -0.8969(9) -0.1558(3)
C33 C -0.2832(8) -0.7475(11) -0.1069(4)
H32 H -0.3458(8) -0.7191(11) -0.0834(4)
C34 C -0.1695(8) -0.6833(10) -0.0990(4)
H33 H -0.1558(8) -0.6084(10) -0.0714(4)
C35 C -0.0754(7) -0.7304(9) -0.1322(4)
H34 H 0.0017(7) -0.6876(9) -0.1260(4)
C36 C 0.0054(6) -0.8963(9) -0.2109(3)
H35 H -0.0012(6) -0.9978(9) -0.2100(3)
C37 C -0.0157(6) -0.8532(9) -0.2806(3)
H36 H -0.0248(6) -0.7530(9) -0.2822(3)
H37 H 0.0584(6) -0.8757(9) -0.2998(3)
C38 C -0.1252(6) -0.9160(9) -0.3216(3)
C39 C -0.2244(6) -0.9828(8) -0.2999(3)
C40 C -0.2121(6) -0.9002(9) -0.1846(3)
C41 C -0.0943(6) -0.8405(8) -0.1746(3)
C42 C 0.1363(6) -0.8599(9) -0.1825(3)
H38 H 0.1934(6) -0.8838(9) -0.2126(3)
H39 H 0.1417(6) -0.7605(9) -0.1753(3)
C43 C 0.1740(7) -0.9337(9) -0.1215(3)
C44 C 0.3389(8) -0.9804(12) -0.0425(4)
H40 H 0.3412(8) -1.0793(12) -0.0511(4)
H41 H 0.2866(8) -0.9652(12) -0.0092(4)
C45 C 0.4657(8) -0.9283(16) -0.0222(4)
H42 H 0.4997(8) -0.9764(16) 0.0154(4)
H43 H 0.4625(8) -0.8305(16) -0.0136(4)
H44 H 0.5169(8) -0.9442(16) -0.0554(4)
C46 C -0.4790(7) -0.9979(8) -0.4904(3)
C47 C -0.6321(6) -1.0330(8) -0.5841(3)
C48 C -0.6594(7) -1.1187(9) -0.6362(3)
H45 H -0.6165(7) -1.2019(9) -0.6380(3)
C49 C -0.7475(7) -1.0848(9) -0.6850(3)
H46 H -0.7634(7) -1.1430(9) -0.7200(3)
C50 C -0.8133(7) -0.9613(9) -0.6814(3)
C51 C -0.7871(7) -0.8740(9) -0.6304(4)
H47 H -0.8307(7) -0.7912(9) -0.6286(4)
C52 C -0.6967(6) -0.9080(9) -0.5818(3)
H48 H -0.6788(6) -0.8481(9) -0.5475(3)
loop_
_geom_bond_atom_site_label_1
_geom_bond_atom_site_label_2
_geom_bond_site_symmetry_1
_geom_bond_site_symmetry_2
Br1 C24 1_555 1_555
O1 C3 1_555 1_555
O2 C20 1_555 1_555
O3 C17 1_555 1_555
O4 C17 1_555 1_555
N1 H1 1_555 1_555
C1 H2 1_555 1_555
C2 C1 1_555 1_555
H3 C2 1_555 1_555
C3 C2 1_555 1_555
C4 C3 1_555 1_555
H4 C4 1_555 1_555
C5 H5 1_555 1_555
H6 C5 1_555 1_555
C6 H7 1_555 1_555
C7 C6 1_555 1_555
H8 C7 1_555 1_555
C8 C7 1_555 1_555
H9 C8 1_555 1_555
C9 C8 1_555 1_555
H10 C9 1_555 1_555
C10 H11 1_555 1_555
C11 C10 1_555 1_555
H12 C11 1_555 1_555
H13 C11 1_555 1_555
C12 C1 1_555 1_555
C13 C4 1_555 1_555
C14 C5 1_555 1_555
C15 C9 1_555 1_555
C16 C10 1_555 1_555
H14 C16 1_555 1_555
H15 C16 1_555 1_555
C17 C16 1_555 1_555
C18 O4 1_555 1_555
H16 C18 1_555 1_555
H17 C18 1_555 1_555
C19 C18 1_555 1_555
H18 C19 1_555 1_555
H19 C19 1_555 1_555
H20 C19 1_555 1_555
C20 O1 1_555 1_555
C21 N1 1_555 1_555
C22 C21 1_555 1_555
H21 C22 1_555 1_555
C23 C22 1_555 1_555
H22 C23 1_555 1_555
C24 C23 1_555 1_555
C25 C24 1_555 1_555
H23 C25 1_555 1_555
C26 C21 1_555 1_555
H24 C26 1_555 1_555
Br2 C50 1_555 1_555
O5 C29 1_555 1_555
O6 C46 1_555 1_555
O7 C43 1_555 1_555
O8 C43 1_555 1_555
N2 H25 1_555 1_555
C27 H26 1_555 1_555
C28 C27 1_555 1_555
H27 C28 1_555 1_555
C29 C28 1_555 1_555
C30 C29 1_555 1_555
H28 C30 1_555 1_555
C31 H29 1_555 1_555
H30 C31 1_555 1_555
C32 H31 1_555 1_555
C33 C32 1_555 1_555
H32 C33 1_555 1_555
C34 C33 1_555 1_555
H33 C34 1_555 1_555
C35 C34 1_555 1_555
H34 C35 1_555 1_555
C36 H35 1_555 1_555
C37 C36 1_555 1_555
H36 C37 1_555 1_555
H37 C37 1_555 1_555
C38 C27 1_555 1_555
C39 C30 1_555 1_555
C40 C31 1_555 1_555
C41 C35 1_555 1_555
C42 C36 1_555 1_555
H38 C42 1_555 1_555
H39 C42 1_555 1_555
C43 C42 1_555 1_555
C44 O8 1_555 1_555
H40 C44 1_555 1_555
H41 C44 1_555 1_555
C45 C44 1_555 1_555
H42 C45 1_555 1_555
H43 C45 1_555 1_555
H44 C45 1_555 1_555
C46 O5 1_555 1_555
C47 N2 1_555 1_555
C48 C47 1_555 1_555
H45 C48 1_555 1_555
C49 C48 1_555 1_555
H46 C49 1_555 1_555
C50 C49 1_555 1_555
C51 C50 1_555 1_555
H47 C51 1_555 1_555
C52 C47 1_555 1_555
H48 C52 1_555 1_555
N1 C20 1_555 1_555
C5 C13 1_555 1_555
C6 C14 1_555 1_555
C10 C15 1_555 1_555
C11 C12 1_555 1_555
C12 C13 1_555 1_555
C14 C15 1_555 1_555
C25 C26 1_555 1_555
N2 C46 1_555 1_555
C31 C39 1_555 1_555
C32 C40 1_555 1_555
C36 C41 1_555 1_555
C37 C38 1_555 1_555
C38 C39 1_555 1_555
C40 C41 1_555 1_555
C51 C52 1_555 1_555

#END
