
#######################################################################
#
#                 Cambridge Crystallographic Data Centre
#                                CCDC 
#
#######################################################################
#
# If this CIF has been generated from an entry in the Cambridge 
# Structural Database, then it will include bibliographic, chemical, 
# crystal, experimental, refinement or atomic coordinate data resulting 
# from the CCDC's data processing and validation procedures.
#
#######################################################################

data_BAQCED
_chemical_formula_moiety         'C33 H26 N4 O2'
_chemical_name_systematic        
4-Benzyl-3-(4-isopropylphenyl)-1-(4-nitrophenyl)-4H-pyrrolo[1,2-a]benzimidazole-2-carbonitrile
_symmetry_cell_setting           triclinic
_symmetry_space_group_name_H-M   'P -1'
_symmetry_Int_Tables_number      2
_space_group_name_Hall           '-P 1'
loop_
_symmetry_equiv_pos_site_id
_symmetry_equiv_pos_as_xyz
1 x,y,z
2 -x,-y,-z
_cell_length_a                   8.9789(16)
_cell_length_b                   12.082(2)
_cell_length_c                   13.224(2)
_cell_angle_alpha                85.848(2)
_cell_angle_beta                 74.419(2)
_cell_angle_gamma                71.515(2)
_cell_volume                     1310.44
_cell_formula_units_Z            2
loop_
_atom_site_label
_atom_site_type_symbol
_atom_site_fract_x
_atom_site_fract_y
_atom_site_fract_z
C1 C 0.1533(3) 0.2163(2) 0.46240(18)
H1 H 0.1597 0.2472 0.5230
C2 C 0.0399(3) 0.1598(2) 0.46515(19)
H2 H -0.0336 0.1547 0.5287
C3 C 0.0333(3) 0.1104(2) 0.37540(19)
H3 H -0.0426 0.0714 0.3805
C4 C 0.1377(3) 0.1181(2) 0.27806(18)
H4 H 0.1348 0.0835 0.2183
C5 C 0.2466(3) 0.1793(2) 0.27361(17)
C6 C 0.2567(3) 0.2247(2) 0.36547(17)
C7 C 0.4460(3) 0.26648(19) 0.23185(16)
C8 C 0.5611(3) 0.2971(2) 0.15275(17)
C9 C 0.5419(3) 0.2566(2) 0.05857(16)
C10 C 0.4188(3) 0.20470(19) 0.08141(17)
C11 C 0.3469(3) 0.16265(19) 0.01100(17)
C12 C 0.1793(3) 0.1838(2) 0.03288(17)
H5 H 0.1117 0.2267 0.0927
C13 C 0.1119(3) 0.1420(2) -0.03298(18)
H6 H 0.0005 0.1536 -0.0167
C14 C 0.2149(3) 0.0824(2) -0.12392(19)
C15 C 0.3797(3) 0.0657(2) -0.15122(18)
H7 H 0.4453 0.0288 -0.2143
C16 C 0.4460(3) 0.1048(2) -0.08313(17)
H8 H 0.5575 0.0926 -0.1000
C17 C 0.6358(3) 0.2688(2) -0.04512(18)
C18 C 0.6723(3) 0.3618(2) 0.16028(17)
C19 C 0.6914(3) 0.4537(2) 0.09215(18)
H9 H 0.6348 0.4732 0.0406
C20 C 0.7935(3) 0.5160(2) 0.10058(18)
H10 H 0.8053 0.5757 0.0536
C21 C 0.8789(3) 0.4916(2) 0.17763(17)
C22 C 0.8586(3) 0.4003(2) 0.24566(17)
H11 H 0.9133 0.3822 0.2982
C23 C 0.7591(3) 0.3358(2) 0.23686(17)
H12 H 0.7502 0.2745 0.2825
C24 C 0.9850(3) 0.5643(2) 0.18700(18)
H13 H 1.0042 0.6067 0.1212
C25 C 0.8997(3) 0.6551(2) 0.2752(2)
H14 H 0.7973 0.7028 0.2643
H15 H 0.9665 0.7032 0.2755
H16 H 0.8815 0.6164 0.3413
C26 C 1.1507(3) 0.4891(2) 0.2000(2)
H17 H 1.1366 0.4485 0.2653
H18 H 1.2168 0.5379 0.1999
H19 H 1.2029 0.4335 0.1431
C27 C 0.3994(3) 0.3575(2) 0.40872(17)
H20 H 0.2929 0.4102 0.4419
H21 H 0.4632 0.4040 0.3667
C28 C 0.4806(3) 0.2979(2) 0.49357(16)
C29 C 0.4812(3) 0.3669(2) 0.57361(18)
H22 H 0.4303 0.4470 0.5746
C30 C 0.5573(3) 0.3166(3) 0.65163(19)
H23 H 0.5582 0.3633 0.7043
C31 C 0.6317(3) 0.1976(3) 0.65128(19)
H24 H 0.6835 0.1640 0.7032
C32 C 0.6288(3) 0.1285(2) 0.5733(2)
H25 H 0.6772 0.0481 0.5737
C33 C 0.5538(3) 0.1787(2) 0.49421(18)
H26 H 0.5531 0.1318 0.4417
N1 N 0.3803(2) 0.27711(17) 0.33930(14)
N2 N 0.3622(2) 0.20976(16) 0.19060(14)
N3 N 0.7124(3) 0.2782(2) -0.12820(16)
N4 N 0.1456(3) 0.0354(2) -0.19305(19)
O1 O 0.0039(3) 0.0360(2) -0.16061(18)
O2 O 0.2324(3) -0.0011(2) -0.28048(18)
loop_
_geom_bond_atom_site_label_1
_geom_bond_atom_site_label_2
_geom_bond_site_symmetry_1
_geom_bond_site_symmetry_2
C1 H1 1_555 1_555
C2 C1 1_555 1_555
H2 C2 1_555 1_555
C3 C2 1_555 1_555
H3 C3 1_555 1_555
C4 C3 1_555 1_555
H4 C4 1_555 1_555
C5 C4 1_555 1_555
C6 C1 1_555 1_555
C7 C8 1_555 1_555
C8 C9 1_555 1_555
C9 C10 1_555 1_555
C10 C11 1_555 1_555
C11 C12 1_555 1_555
C12 H5 1_555 1_555
C13 C12 1_555 1_555
H6 C13 1_555 1_555
C14 C13 1_555 1_555
C15 C14 1_555 1_555
H7 C15 1_555 1_555
C16 C11 1_555 1_555
H8 C16 1_555 1_555
C17 C9 1_555 1_555
C18 C8 1_555 1_555
C19 C18 1_555 1_555
H9 C19 1_555 1_555
C20 C19 1_555 1_555
H10 C20 1_555 1_555
C21 C20 1_555 1_555
C22 C21 1_555 1_555
H11 C22 1_555 1_555
C23 C18 1_555 1_555
H12 C23 1_555 1_555
C24 C21 1_555 1_555
H13 C24 1_555 1_555
C25 C24 1_555 1_555
H14 C25 1_555 1_555
H15 C25 1_555 1_555
H16 C25 1_555 1_555
C26 C24 1_555 1_555
H17 C26 1_555 1_555
H18 C26 1_555 1_555
H19 C26 1_555 1_555
C27 H20 1_555 1_555
H21 C27 1_555 1_555
C28 C27 1_555 1_555
C29 C28 1_555 1_555
H22 C29 1_555 1_555
C30 C29 1_555 1_555
H23 C30 1_555 1_555
C31 C30 1_555 1_555
H24 C31 1_555 1_555
C32 C31 1_555 1_555
H25 C32 1_555 1_555
C33 C28 1_555 1_555
H26 C33 1_555 1_555
N1 C6 1_555 1_555
N2 C5 1_555 1_555
N3 C17 1_555 1_555
N4 C14 1_555 1_555
O1 N4 1_555 1_555
O2 N4 1_555 1_555
C5 C6 1_555 1_555
C7 N1 1_555 1_555
C7 N2 1_555 1_555
C10 N2 1_555 1_555
C15 C16 1_555 1_555
C22 C23 1_555 1_555
C27 N1 1_555 1_555
C32 C33 1_555 1_555

#END
