
#######################################################################
#
#                 Cambridge Crystallographic Data Centre
#                                CCDC 
#
#######################################################################
#
# If this CIF has been generated from an entry in the Cambridge 
# Structural Database, then it will include bibliographic, chemical, 
# crystal, experimental, refinement or atomic coordinate data resulting 
# from the CCDC's data processing and validation procedures.
#
#######################################################################

data_BAQCON
_chemical_formula_moiety         'C33 H27 N3 O4'
_chemical_name_systematic        
'Ethyl 4-benzyl-3-(4-methylphenyl)-1-(4-nitrophenyl)-4H-pyrrolo[1,2-a]benzimidazole-2-carboxylate'
_symmetry_cell_setting           monoclinic
_symmetry_space_group_name_H-M   'P 21/c'
_symmetry_Int_Tables_number      14
_space_group_name_Hall           '-P 2ybc'
loop_
_symmetry_equiv_pos_site_id
_symmetry_equiv_pos_as_xyz
1 x,y,z
2 -x,1/2+y,1/2-z
3 -x,-y,-z
4 x,1/2-y,1/2+z
_cell_length_a                   9.1854(13)
_cell_length_b                   15.138(2)
_cell_length_c                   19.954(3)
_cell_angle_alpha                90
_cell_angle_beta                 101.715(2)
_cell_angle_gamma                90
_cell_volume                     2716.78
_cell_formula_units_Z            4
loop_
_atom_site_label
_atom_site_type_symbol
_atom_site_fract_x
_atom_site_fract_y
_atom_site_fract_z
N1 N 0.39881(18) 1.02992(11) 0.32677(8)
N2 N 0.25610(19) 1.11220(12) 0.24587(9)
C1 C 0.2582(2) 1.03735(13) 0.28592(10)
O1 O 0.33319(17) 0.77780(10) 0.39589(9)
C2 C 0.4854(2) 1.10365(13) 0.31579(10)
C3 C 0.4060(2) 0.95370(13) 0.36641(10)
C4 C 0.5443(2) 0.92725(13) 0.41296(10)
C5 C 0.2650(2) 0.91558(13) 0.34886(10)
C6 C 0.1696(2) 0.96826(14) 0.29812(11)
C7 C 0.1557(2) 1.10491(14) 0.12039(11)
C8 C 0.3953(2) 1.15168(14) 0.26255(11)
C9 C 0.6257(2) 1.13249(15) 0.34637(12)
H1 H 0.6830 1.1022 0.3830
C10 C 0.0161(2) 0.94961(15) 0.26155(11)
C11 C 0.1381(2) 1.14015(15) 0.18900(10)
H2 H 0.1363 1.2042 0.1871
H3 H 0.0432 1.1206 0.1978
C12 C 0.5444(3) 0.90100(14) 0.48001(11)
H4 H 0.4552 0.8983 0.4951
O2 O 0.09279(19) 0.81115(12) 0.37571(10)
C13 C 0.1230(3) 1.15801(17) 0.06318(12)
H5 H 0.0935 1.2162 0.0673
C14 C 0.2182(2) 0.83179(15) 0.37513(11)
C15 C 0.6779(3) 1.20850(16) 0.32021(13)
H6 H 0.7720 1.2297 0.3397
C16 C 0.4504(3) 1.22664(15) 0.23607(12)
H7 H 0.3936 1.2577 0.1998
C17 C -0.0968(2) 1.01096(16) 0.25980(11)
H8 H -0.0775 1.0628 0.2850
C18 C -0.2725(3) 0.9189(2) 0.18446(13)
C19 C -0.0198(3) 0.87131(16) 0.22561(12)
H9 H 0.0529 0.8283 0.2267
C20 C 0.8059(3) 0.88412(16) 0.50109(13)
C21 C 0.6784(2) 0.92780(14) 0.39081(12)
H10 H 0.6791 0.9420 0.3455
C22 C 0.5922(3) 1.25310(16) 0.26568(13)
H11 H 0.6318 1.3027 0.2484
C23 C -0.2379(3) 0.9961(2) 0.22102(13)
H12 H -0.3108 1.0391 0.2196
C24 C 0.8108(3) 0.90768(15) 0.43496(14)
H13 H 0.9006 0.9100 0.4204
C25 C 0.1990(3) 1.01885(16) 0.11229(13)
H14 H 0.2208 0.9819 0.1503
C26 C 0.6748(3) 0.87919(16) 0.52384(12)
H15 H 0.6744 0.8613 0.5684
C27 C -0.1624(3) 0.85623(19) 0.18806(13)
H16 H -0.1839 0.8029 0.1650
N3 N 0.9471(4) 0.86431(18) 0.54881(17)
C28 C 0.3034(3) 0.69369(17) 0.42486(18)
H17 H 0.2313 0.6605 0.3922
H18 H 0.2637 0.7028 0.4658
O3 O 0.9391(3) 0.83520(17) 0.60589(14)
C29 C 0.1778(3) 1.0405(2) -0.00767(14)
H19 H 0.1856 1.0192 -0.0505
C30 C 0.1340(3) 1.1254(2) -0.00049(13)
H20 H 0.1112 1.1618 -0.0387
C31 C 0.2103(3) 0.98673(19) 0.04891(15)
H21 H 0.2399 0.9287 0.0444
C32 C -0.4257(3) 0.9039(3) 0.14040(17)
H22 H -0.4343 0.9360 0.0983
H23 H -0.5000 0.9242 0.1644
H24 H -0.4396 0.8420 0.1307
C33 C 0.4443(3) 0.6455(2) 0.44152(19)
H25 H 0.4829 0.6372 0.4007
H26 H 0.4281 0.5889 0.4605
H27 H 0.5144 0.6786 0.4742
O4 O 1.0630(3) 0.8783(2) 0.52962(16)
loop_
_geom_bond_atom_site_label_1
_geom_bond_atom_site_label_2
_geom_bond_site_symmetry_1
_geom_bond_site_symmetry_2
N1 C1 1_555 1_555
N2 C1 1_555 1_555
C1 C6 1_555 1_555
O1 C14 1_555 1_555
C2 N1 1_555 1_555
C3 N1 1_555 1_555
C4 C3 1_555 1_555
C5 C3 1_555 1_555
C6 C5 1_555 1_555
C7 C11 1_555 1_555
C8 N2 1_555 1_555
C9 C2 1_555 1_555
H1 C9 1_555 1_555
C10 C6 1_555 1_555
C11 N2 1_555 1_555
H2 C11 1_555 1_555
H3 C11 1_555 1_555
C12 C4 1_555 1_555
H4 C12 1_555 1_555
O2 C14 1_555 1_555
C13 C7 1_555 1_555
H5 C13 1_555 1_555
C14 C5 1_555 1_555
C15 C9 1_555 1_555
H6 C15 1_555 1_555
C16 C8 1_555 1_555
H7 C16 1_555 1_555
C17 C10 1_555 1_555
H8 C17 1_555 1_555
C18 C23 1_555 1_555
C19 C10 1_555 1_555
H9 C19 1_555 1_555
C20 C24 1_555 1_555
C21 C4 1_555 1_555
H10 C21 1_555 1_555
C22 C15 1_555 1_555
H11 C22 1_555 1_555
C23 C17 1_555 1_555
H12 C23 1_555 1_555
C24 C21 1_555 1_555
H13 C24 1_555 1_555
C25 C7 1_555 1_555
H14 C25 1_555 1_555
C26 C12 1_555 1_555
H15 C26 1_555 1_555
C27 C18 1_555 1_555
H16 C27 1_555 1_555
N3 C20 1_555 1_555
C28 O1 1_555 1_555
H17 C28 1_555 1_555
H18 C28 1_555 1_555
O3 N3 1_555 1_555
C29 H19 1_555 1_555
C30 C13 1_555 1_555
H20 C30 1_555 1_555
C31 C25 1_555 1_555
H21 C31 1_555 1_555
C32 C18 1_555 1_555
H22 C32 1_555 1_555
H23 C32 1_555 1_555
H24 C32 1_555 1_555
C33 C28 1_555 1_555
H25 C33 1_555 1_555
H26 C33 1_555 1_555
H27 C33 1_555 1_555
O4 N3 1_555 1_555
C2 C8 1_555 1_555
C16 C22 1_555 1_555
C19 C27 1_555 1_555
C20 C26 1_555 1_555
C29 C30 1_555 1_555
C29 C31 1_555 1_555

#END
