
#######################################################################
#
#                 Cambridge Crystallographic Data Centre
#                                CCDC 
#
#######################################################################
#
# If this CIF has been generated from an entry in the Cambridge 
# Structural Database, then it will include bibliographic, chemical, 
# crystal, experimental, refinement or atomic coordinate data resulting 
# from the CCDC's data processing and validation procedures.
#
#######################################################################

data_BAQCUU
_chemical_formula_moiety         'C22 H14 Br2 O2'
_chemical_name_systematic        
5,8-bis(4-bromophenyl)-5,8-dihydronaphthalene-1,4-dione
_symmetry_cell_setting           triclinic
_symmetry_space_group_name_H-M   'P -1'
_symmetry_Int_Tables_number      2
_space_group_name_Hall           '-P 1'
loop_
_symmetry_equiv_pos_site_id
_symmetry_equiv_pos_as_xyz
1 x,y,z
2 -x,-y,-z
_cell_length_a                   7.5539(6)
_cell_length_b                   9.4012(8)
_cell_length_c                   13.3713(11)
_cell_angle_alpha                86.824(2)
_cell_angle_beta                 88.5220(10)
_cell_angle_gamma                85.809(2)
_cell_volume                     945.353
_exptl_crystal_colour            yellow
_exptl_crystal_description       block
_cell_formula_units_Z            2
loop_
_atom_site_label
_atom_site_type_symbol
_atom_site_fract_x
_atom_site_fract_y
_atom_site_fract_z
Br1 Br 0.72976(8) -0.14472(6) 0.61481(5)
Br2 Br -0.23290(8) 0.39513(8) 0.36201(3)
O1 O 0.4376(3) 0.3108(3) 0.94905(19)
O2 O -0.1596(4) 0.6055(3) 0.8591(2)
C1 C 0.3049(4) 0.3781(3) 0.9168(2)
C2 C 0.2953(5) 0.5360(4) 0.9071(3)
H1 H 0.3957 0.5839 0.9185
C3 C 0.1464(5) 0.6096(4) 0.8824(3)
H2 H 0.1431 0.7088 0.8766
C4 C -0.0156(4) 0.5367(3) 0.8637(2)
C5 C 0.0002(4) 0.3791(3) 0.85691(19)
C6 C -0.1618(4) 0.3105(4) 0.8237(2)
H3 H -0.2670 0.3577 0.8554
C7 C -0.1535(4) 0.1544(4) 0.8558(2)
H4 H -0.2570 0.1070 0.8541
C8 C -0.0083(4) 0.0816(4) 0.8860(2)
H5 H -0.0144 -0.0156 0.9013
C9 C 0.1687(4) 0.1439(3) 0.8981(2)
H6 H 0.2066 0.1181 0.9666
C10 C 0.1500(4) 0.3039(3) 0.88687(18)
C11 C 0.3089(4) 0.0760(3) 0.8274(2)
C12 C 0.3421(5) 0.1355(4) 0.7320(2)
H7 H 0.2798 0.2201 0.7105
C13 C 0.4672(5) 0.0700(4) 0.6683(3)
H8 H 0.4897 0.1106 0.6047
C14 C 0.5571(5) -0.0555(4) 0.7006(3)
C15 C 0.5287(5) -0.1165(4) 0.7953(3)
H9 H 0.5920 -0.2008 0.8165
C16 C 0.4047(4) -0.0502(3) 0.8582(3)
H10 H 0.3849 -0.0905 0.9223
C17 C -0.1796(4) 0.3312(4) 0.7093(2)
C18 C -0.2717(6) 0.4505(4) 0.6671(3)
H11 H -0.3251 0.5182 0.7085
C19 C -0.2865(7) 0.4715(5) 0.5641(3)
H12 H -0.3473 0.5533 0.5365
C20 C -0.2102(5) 0.3701(5) 0.5035(3)
C21 C -0.1221(5) 0.2485(5) 0.5429(3)
H13 H -0.0736 0.1790 0.5013
C22 C -0.1060(5) 0.2305(4) 0.6470(3)
H14 H -0.0445 0.1489 0.6744
loop_
_geom_bond_atom_site_label_1
_geom_bond_atom_site_label_2
_geom_bond_site_symmetry_1
_geom_bond_site_symmetry_2
Br1 C14 1_555 1_555
Br2 C20 1_555 1_555
O1 C1 1_555 1_555
O2 C4 1_555 1_555
C1 C2 1_555 1_555
C2 H1 1_555 1_555
C3 C2 1_555 1_555
H2 C3 1_555 1_555
C4 C3 1_555 1_555
C5 C4 1_555 1_555
C6 C5 1_555 1_555
H3 C6 1_555 1_555
C7 C6 1_555 1_555
H4 C7 1_555 1_555
C8 C7 1_555 1_555
H5 C8 1_555 1_555
C9 C8 1_555 1_555
H6 C9 1_555 1_555
C10 C1 1_555 1_555
C11 C9 1_555 1_555
C12 C11 1_555 1_555
H7 C12 1_555 1_555
C13 C12 1_555 1_555
H8 C13 1_555 1_555
C14 C13 1_555 1_555
C15 C14 1_555 1_555
H9 C15 1_555 1_555
C16 C11 1_555 1_555
H10 C16 1_555 1_555
C17 C6 1_555 1_555
C18 C17 1_555 1_555
H11 C18 1_555 1_555
C19 C18 1_555 1_555
H12 C19 1_555 1_555
C20 C19 1_555 1_555
C21 C20 1_555 1_555
H13 C21 1_555 1_555
C22 C17 1_555 1_555
H14 C22 1_555 1_555
C5 C10 1_555 1_555
C9 C10 1_555 1_555
C15 C16 1_555 1_555
C21 C22 1_555 1_555

#END
