
#######################################################################
#
#                 Cambridge Crystallographic Data Centre
#                                CCDC 
#
#######################################################################
#
# If this CIF has been generated from an entry in the Cambridge 
# Structural Database, then it will include bibliographic, chemical, 
# crystal, experimental, refinement or atomic coordinate data resulting 
# from the CCDC's data processing and validation procedures.
#
#######################################################################

data_BAQDAB
_chemical_formula_moiety         'C40 H30 Br4 O2'
_chemical_name_systematic        
1,4,5,8-tetrakis(4-bromophenyl)-9,10-dimethoxy-1,4,5,8-tetrahydroanthracene
_symmetry_cell_setting           triclinic
_symmetry_space_group_name_H-M   'P -1'
_symmetry_Int_Tables_number      2
_space_group_name_Hall           '-P 1'
loop_
_symmetry_equiv_pos_site_id
_symmetry_equiv_pos_as_xyz
1 x,y,z
2 -x,-y,-z
_cell_length_a                   9.5245(5)
_cell_length_b                   9.7842(5)
_cell_length_c                   10.2374(5)
_cell_angle_alpha                113.5216(14)
_cell_angle_beta                 102.0238(15)
_cell_angle_gamma                94.4772(16)
_cell_volume                     841.623
_exptl_crystal_colour            colorless
_exptl_crystal_description       parallelepiped
_cell_formula_units_Z            1
loop_
_atom_site_label
_atom_site_type_symbol
_atom_site_fract_x
_atom_site_fract_y
_atom_site_fract_z
Br1 Br 0.12933(8) 0.26568(7) 0.67303(6)
Br2 Br 0.46823(6) 0.99057(6) 0.80293(5)
O1 O -0.1532(3) 0.2356(3) -0.0264(3)
C1 C -0.0773(4) 0.3700(3) -0.0120(3)
C2 C 0.0735(4) 0.4021(4) 0.0460(3)
C3 C 0.1504(4) 0.2850(4) 0.0792(3)
H1 H 0.1034 0.1856 -0.0007
C4 C 0.3076(4) 0.3074(5) 0.0785(4)
H2 H 0.3555 0.2252 0.0622
C5 C 0.3813(5) 0.4366(5) 0.0995(4)
H3 H 0.4781 0.441 0.0953
C6 C 0.3166(4) 0.5772(4) 0.1301(4)
H4 H 0.3588 0.6329 0.0821
C7 C 0.1525(4) 0.5361(4) 0.0614(3)
C8 C 0.1386(4) 0.2792(4) 0.2241(4)
C9 C 0.1181(5) 0.1427(4) 0.2334(4)
H5 H 0.1085 0.0531 0.1499
C10 C 0.1115(5) 0.1366(5) 0.3648(5)
H6 H 0.0957 0.0437 0.3693
C11 C 0.1285(5) 0.2694(5) 0.4886(4)
C12 C 0.1487(5) 0.4058(4) 0.4824(4)
H7 H 0.1605 0.4951 0.5668
C13 C 0.1515(4) 0.4109(4) 0.3497(4)
H8 H 0.1621 0.5039 0.345
C14 C 0.3563(4) 0.6814(4) 0.2972(4)
C15 C 0.4587(5) 0.6541(6) 0.3965(5)
H9 H 0.5064 0.5727 0.3617
C16 C 0.4921(5) 0.7447(6) 0.5469(5)
H10 H 0.5606 0.7237 0.6123
C17 C 0.4239(4) 0.8644(5) 0.5974(4)
C18 C 0.3238(6) 0.8946(6) 0.5026(5)
H11 H 0.277 0.9767 0.5379
C19 C 0.2913(6) 0.8026(5) 0.3523(5)
H12 H 0.223 0.8248 0.2877
C20 C -0.2147(5) 0.2499(5) 0.0939(5)
H13 H -0.141 0.3027 0.1854
H14 H -0.2512 0.151 0.0838
H15 H -0.2932 0.3057 0.0929
Br1A Br -0.12933(8) 0.73432(7) -0.67303(6)
Br2A Br -0.46823(6) 0.00943(6) -0.80293(5)
O1A O 0.1532(3) 0.7644(3) 0.0264(3)
C1A C 0.0773(4) 0.6300(3) 0.0120(3)
C2A C -0.0735(4) 0.5979(4) -0.0460(3)
C3A C -0.1504(4) 0.7150(4) -0.0792(3)
H1A H -0.1034 0.8144 0.0007
C4A C -0.3076(4) 0.6926(5) -0.0785(4)
H2A H -0.3555 0.7748 -0.0622
C5A C -0.3813(5) 0.5634(5) -0.0995(4)
H3A H -0.4781 0.559 -0.0953
C6A C -0.3166(4) 0.4228(4) -0.1301(4)
H4A H -0.3588 0.3671 -0.0821
C7A C -0.1525(4) 0.4639(4) -0.0614(3)
C8A C -0.1386(4) 0.7208(4) -0.2241(4)
C9A C -0.1181(5) 0.8573(4) -0.2334(4)
H5A H -0.1085 0.9469 -0.1499
C10A C -0.1115(5) 0.8634(5) -0.3648(5)
H6A H -0.0957 0.9563 -0.3693
C11A C -0.1285(5) 0.7306(5) -0.4886(4)
C12A C -0.1487(5) 0.5942(4) -0.4824(4)
H7A H -0.1605 0.5049 -0.5668
C13A C -0.1515(4) 0.5891(4) -0.3497(4)
H8A H -0.1621 0.4961 -0.345
C14A C -0.3563(4) 0.3186(4) -0.2972(4)
C15A C -0.4587(5) 0.3459(6) -0.3965(5)
H9A H -0.5064 0.4273 -0.3617
C16A C -0.4921(5) 0.2553(6) -0.5469(5)
H10A H -0.5606 0.2763 -0.6123
C17A C -0.4239(4) 0.1356(5) -0.5974(4)
C18A C -0.3238(6) 0.1054(6) -0.5026(5)
H11A H -0.277 0.0233 -0.5379
C19A C -0.2913(6) 0.1974(5) -0.3523(5)
H12A H -0.223 0.1752 -0.2877
C20A C 0.2147(5) 0.7501(5) -0.0939(5)
H13A H 0.141 0.6973 -0.1854
H14A H 0.2512 0.849 -0.0838
H15A H 0.2932 0.6943 -0.0929
loop_
_geom_bond_atom_site_label_1
_geom_bond_atom_site_label_2
_geom_bond_site_symmetry_1
_geom_bond_site_symmetry_2
Br1 C11 1_555 1_555
Br2 C17 1_555 1_555
O1 C1 1_555 1_555
C1 C2 1_555 1_555
C2 C3 1_555 1_555
C3 H1 1_555 1_555
C4 C3 1_555 1_555
H2 C4 1_555 1_555
C5 C4 1_555 1_555
H3 C5 1_555 1_555
C6 C5 1_555 1_555
H4 C6 1_555 1_555
C7 C2 1_555 1_555
C8 C3 1_555 1_555
C9 C8 1_555 1_555
H5 C9 1_555 1_555
C10 C9 1_555 1_555
H6 C10 1_555 1_555
C11 C10 1_555 1_555
C12 C11 1_555 1_555
H7 C12 1_555 1_555
C13 C8 1_555 1_555
H8 C13 1_555 1_555
C14 C6 1_555 1_555
C15 C14 1_555 1_555
H9 C15 1_555 1_555
C16 C15 1_555 1_555
H10 C16 1_555 1_555
C17 C16 1_555 1_555
C18 C17 1_555 1_555
H11 C18 1_555 1_555
C19 C14 1_555 1_555
H12 C19 1_555 1_555
C20 O1 1_555 1_555
H13 C20 1_555 1_555
H14 C20 1_555 1_555
H15 C20 1_555 1_555
Br1A C11A 1_555 1_555
Br2A C17A 1_555 1_555
O1A C1A 1_555 1_555
C1A C7 1_555 1_555
C2A C1A 1_555 1_555
C3A C2A 1_555 1_555
H1A C3A 1_555 1_555
C4A C3A 1_555 1_555
H2A C4A 1_555 1_555
C5A C4A 1_555 1_555
H3A C5A 1_555 1_555
C6A C5A 1_555 1_555
H4A C6A 1_555 1_555
C7A C1 1_555 1_555
C8A C3A 1_555 1_555
C9A C8A 1_555 1_555
H5A C9A 1_555 1_555
C10A C9A 1_555 1_555
H6A C10A 1_555 1_555
C11A C10A 1_555 1_555
C12A C11A 1_555 1_555
H7A C12A 1_555 1_555
C13A C8A 1_555 1_555
H8A C13A 1_555 1_555
C14A C6A 1_555 1_555
C15A C14A 1_555 1_555
H9A C15A 1_555 1_555
C16A C15A 1_555 1_555
H10A C16A 1_555 1_555
C17A C16A 1_555 1_555
C18A C17A 1_555 1_555
H11A C18A 1_555 1_555
C19A C14A 1_555 1_555
H12A C19A 1_555 1_555
C20A O1A 1_555 1_555
H13A C20A 1_555 1_555
H14A C20A 1_555 1_555
H15A C20A 1_555 1_555
C6 C7 1_555 1_555
C12 C13 1_555 1_555
C18 C19 1_555 1_555
C2A C7A 1_555 1_555
C6A C7A 1_555 1_555
C12A C13A 1_555 1_555
C18A C19A 1_555 1_555

#END
