
#######################################################################
#
#                 Cambridge Crystallographic Data Centre
#                                CCDC 
#
#######################################################################
#
# If this CIF has been generated from an entry in the Cambridge 
# Structural Database, then it will include bibliographic, chemical, 
# crystal, experimental, refinement or atomic coordinate data resulting 
# from the CCDC's data processing and validation procedures.
#
#######################################################################

data_BAQDIJ
_chemical_formula_moiety         'C80 H60 O4,2(C1 H2 Cl2)'
_chemical_name_systematic        
"1,1':4,4':5,5':8,8'-tetrakis(biphenyl-4,4'-diyl)bis(9,10-dimethoxy-1,4,5,8-tetrahydroanthracene) dichloromethane solvate"
_symmetry_cell_setting           triclinic
_symmetry_space_group_name_H-M   'P -1'
_symmetry_Int_Tables_number      2
_space_group_name_Hall           '-P 1'
loop_
_symmetry_equiv_pos_site_id
_symmetry_equiv_pos_as_xyz
1 x,y,z
2 -x,-y,-z
_cell_length_a                   8.4681(6)
_cell_length_b                   13.0884(9)
_cell_length_c                   14.0333(9)
_cell_angle_alpha                84.5629(19)
_cell_angle_beta                 78.6719(19)
_cell_angle_gamma                77.9988(18)
_cell_volume                     1489.37
_exptl_crystal_colour            colorless
_exptl_crystal_description       parallelepiped
_cell_formula_units_Z            1
loop_
_atom_site_label
_atom_site_type_symbol
_atom_site_fract_x
_atom_site_fract_y
_atom_site_fract_z
O1 O 0.2452(3) 1.3668(2) 0.25085(19)
O2 O -0.2614(3) 1.2307(2) 0.13887(18)
C1 C 0.1177(4) 1.3259(3) 0.2292(2)
C2 C 0.1547(4) 1.2415(3) 0.1690(2)
C3 C 0.3304(4) 1.1816(3) 0.1411(3)
H1 H 0.4072 1.2315 0.1347
C4 C 0.3496(5) 1.1347(3) 0.0438(3)
H2 H 0.452 1.129 0.0004
C5 C 0.2286(5) 1.1017(3) 0.0174(3)
H3 H 0.2465 1.072 -0.0439
C6 C 0.0619(4) 1.1099(3) 0.0825(3)
H4 H -0.0234 1.1166 0.0409
C7 C 0.0260(4) 1.2065(3) 0.1412(2)
C8 C -0.1346(4) 1.2578(3) 0.1742(2)
C9 C -0.1713(4) 1.3304(3) 0.2465(3)
C10 C -0.3472(4) 1.3652(3) 0.3008(3)
H5 H -0.4251 1.3662 0.2555
C11 C -0.3677(6) 1.4731(3) 0.3347(3)
H6 H -0.4709 1.5192 0.3371
C12 C -0.2458(6) 1.5059(3) 0.3615(3)
H7 H -0.2643 1.5747 0.3833
C13 C -0.0788(5) 1.4371(3) 0.3583(3)
H8 H 0.0054 1.4826 0.3468
C14 C -0.0430(4) 1.3648(3) 0.2743(2)
C15 C 0.2761(5) 1.4549(3) 0.1859(3)
H9 H 0.3122 1.4323 0.1192
H10 H 0.3619 1.4845 0.2048
H11 H 0.1752 1.5082 0.1894
C16 C -0.2879(5) 1.2913(4) 0.0506(3)
H12 H -0.3253 1.3653 0.0645
H13 H -0.3715 1.2672 0.0238
H14 H -0.1851 1.2827 0.0031
C17 C 0.3697(5) 1.0969(3) 0.2214(3)
C18 C 0.4188(4) 0.9394(3) 0.3705(3)
C19 C 0.0535(4) 1.0119(3) 0.1528(3)
C20 C 0.0442(4) 0.8410(3) 0.2922(3)
C21 C 0.3832(5) 0.7135(3) 0.6125(3)
C22 C 0.4225(4) 0.8593(3) 0.4514(3)
C23 C 0.0656(4) 0.6291(3) 0.5457(3)
C24 C 0.0468(4) 0.7614(3) 0.3739(3)
C25 C 0.5001(10) 1.0187(6) 0.2178(5)
H15 H 0.5815 1.0169 0.1605
C26 C 0.5282(10) 0.9408(6) 0.2885(5)
H16 H 0.6251 0.8883 0.279
C27 C 0.2702(8) 1.0146(6) 0.3858(5)
H17 H 0.1895 1.0115 0.443
C28 C 0.2493(8) 1.0923(6) 0.3131(4)
H18 H 0.1531 1.1453 0.3223
C29 C 0.1878(13) 0.9275(8) 0.1473(7)
H19 H 0.281 0.9265 0.0969
C30 C 0.1803(12) 0.8458(7) 0.2178(6)
H20 H 0.2726 0.79 0.2155
C31 C -0.0967(9) 0.9222(6) 0.2811(5)
H21 H -0.1972 0.9197 0.3246
C32 C -0.0930(8) 1.0037(6) 0.2102(5)
H22 H -0.1902 1.0525 0.2021
C33 C 0.2640(8) 0.8104(5) 0.6014(5)
H23 H 0.1711 0.8259 0.6518
C34 C 0.2794(9) 0.8815(6) 0.5207(5)
H24 H 0.1967 0.9416 0.5135
C35 C 0.5385(8) 0.7734(5) 0.4599(5)
H25 H 0.6336 0.7592 0.4108
C36 C 0.5175(9) 0.7063(6) 0.5408(5)
H26 H 0.6056 0.6494 0.5471
C37 C 0.2057(11) 0.6175(6) 0.4675(5)
H27 H 0.3028 0.5675 0.4732
C38 C 0.1939(10) 0.6822(5) 0.3834(5)
H28 H 0.2841 0.6747 0.3305
C39 C -0.0851(9) 0.7508(6) 0.4481(5)
H29 H -0.1892 0.7918 0.4411
C40 C -0.0778(8) 0.6862(6) 0.5309(5)
H30 H -0.1747 0.6823 0.5774
O1A O -0.2452(3) 0.6332(2) 0.74915(19)
O2A O 0.2614(3) 0.7693(2) 0.86113(18)
C1A C -0.1177(4) 0.6741(3) 0.7708(2)
C2A C -0.1547(4) 0.7585(3) 0.8310(2)
C3A C -0.3304(4) 0.8184(3) 0.8589(3)
H1A H -0.4072 0.7685 0.8653
C4A C -0.3496(5) 0.8653(3) 0.9562(3)
H2A H -0.452 0.871 0.9996
C5A C -0.2286(5) 0.8983(3) 0.9826(3)
H3A H -0.2465 0.928 1.0439
C6A C -0.0619(4) 0.8901(3) 0.9175(3)
H4A H 0.0234 0.8834 0.9591
C7A C -0.0260(4) 0.7935(3) 0.8588(2)
C8A C 0.1346(4) 0.7422(3) 0.8258(2)
C9A C 0.1713(4) 0.6696(3) 0.7535(3)
C10A C 0.3472(4) 0.6348(3) 0.6992(3)
H5A H 0.4251 0.6338 0.7445
C11A C 0.3677(6) 0.5269(3) 0.6653(3)
H6A H 0.4709 0.4808 0.6629
C12A C 0.2458(6) 0.4941(3) 0.6385(3)
H7A H 0.2643 0.4253 0.6167
C13A C 0.0788(5) 0.5629(3) 0.6417(3)
H8A H -0.0054 0.5174 0.6532
C14A C 0.0430(4) 0.6352(3) 0.7257(2)
C15A C -0.2761(5) 0.5451(3) 0.8141(3)
H9A H -0.3122 0.5677 0.8808
H10A H -0.3619 0.5155 0.7952
H11A H -0.1752 0.4918 0.8106
C16A C 0.2879(5) 0.7087(4) 0.9494(3)
H12A H 0.3253 0.6347 0.9355
H13A H 0.3715 0.7328 0.9762
H14A H 0.1851 0.7173 0.9969
C17A C -0.3697(5) 0.9031(3) 0.7786(3)
C18A C -0.4188(4) 1.0606(3) 0.6295(3)
C19A C -0.0535(4) 0.9881(3) 0.8472(3)
C20A C -0.0442(4) 1.1590(3) 0.7078(3)
C21A C -0.3832(5) 1.2865(3) 0.3875(3)
C22A C -0.4225(4) 1.1407(3) 0.5486(3)
C23A C -0.0656(4) 1.3709(3) 0.4543(3)
C24A C -0.0468(4) 1.2386(3) 0.6261(3)
C25A C -0.5001(10) 0.9813(6) 0.7822(5)
H15A H -0.5815 0.9831 0.8395
C26A C -0.5282(10) 1.0592(6) 0.7115(5)
H16A H -0.6251 1.1117 0.721
C27A C -0.2702(8) 0.9854(6) 0.6142(5)
H17A H -0.1895 0.9885 0.557
C28A C -0.2493(8) 0.9077(6) 0.6869(4)
H18A H -0.1531 0.8547 0.6777
C29A C -0.1878(13) 1.0725(8) 0.8527(7)
H19A H -0.281 1.0735 0.9031
C30A C -0.1803(12) 1.1542(7) 0.7822(6)
H20A H -0.2726 1.21 0.7845
C31A C 0.0967(9) 1.0778(6) 0.7189(5)
H21A H 0.1972 1.0803 0.6754
C32A C 0.0930(8) 0.9963(6) 0.7898(5)
H22A H 0.1902 0.9475 0.7979
C33A C -0.2640(8) 1.1896(5) 0.3986(5)
H23A H -0.1711 1.1741 0.3482
C34A C -0.2794(9) 1.1185(6) 0.4793(5)
H24A H -0.1967 1.0584 0.4865
C35A C -0.5385(8) 1.2266(5) 0.5401(5)
H25A H -0.6336 1.2408 0.5892
C36A C -0.5175(9) 1.2937(6) 0.4592(5)
H26A H -0.6056 1.3506 0.4529
C37A C -0.2057(11) 1.3825(6) 0.5325(5)
H27A H -0.3028 1.4325 0.5268
C38A C -0.1939(10) 1.3178(5) 0.6166(5)
H28A H -0.2841 1.3253 0.6695
C39A C 0.0851(9) 1.2492(6) 0.5519(5)
H29A H 0.1892 1.2082 0.5589
C40A C 0.0778(8) 1.3138(6) 0.4691(5)
H30A H 0.1747 1.3177 0.4226
C41? C 0.4343(9) 0.9929(6) 0.1933(6)
H31? H 0.4587 0.9761 0.127
C42? C 0.4605(10) 0.9161(6) 0.2688(6)
H32? H 0.5074 0.8462 0.2523
C43? C 0.3914(9) 1.0490(5) 0.3817(5)
H33? H 0.387 1.0706 0.4451
C44? C 0.3708(9) 1.1262(5) 0.3096(5)
H34? H 0.3577 1.1979 0.322
C45? C 0.1278(12) 0.9129(8) 0.1331(7)
H35? H 0.1851 0.9007 0.0686
C46? C 0.1275(11) 0.8272(7) 0.1998(6)
H36? H 0.1849 0.7597 0.1808
C47? C -0.0277(11) 0.9394(6) 0.3224(6)
H37? H -0.077 0.9501 0.3886
C48? C -0.0263(11) 1.0235(6) 0.2531(5)
H38? H -0.0803 1.0914 0.2729
C49? C 0.3808(9) 0.8110(5) 0.6295(5)
H39? H 0.3676 0.8319 0.6941
C50? C 0.3978(9) 0.8813(6) 0.5519(5)
H40? H 0.3928 0.9517 0.5658
C51? C 0.4527(9) 0.7473(6) 0.4390(5)
H41? H 0.486 0.7233 0.375
C52? C 0.4349(9) 0.6731(6) 0.5176(5)
H42? H 0.456 0.6002 0.5084
C53? C 0.1191(10) 0.5969(6) 0.4544(5)
H43? H 0.1651 0.5247 0.4477
C54? C 0.1130(10) 0.6599(5) 0.3699(6)
H44? H 0.1563 0.6306 0.3086
C55? C -0.0191(9) 0.8062(6) 0.4654(5)
H45? H -0.0669 0.8785 0.4696
C56? C -0.0104(10) 0.7393(5) 0.5488(5)
H46? H -0.0564 0.7672 0.6105
loop_
_geom_bond_atom_site_label_1
_geom_bond_atom_site_label_2
_geom_bond_site_symmetry_1
_geom_bond_site_symmetry_2
O1 C1 1_555 1_555
O2 C8 1_555 1_555
C1 C2 1_555 1_555
C2 C3 1_555 1_555
C3 H1 1_555 1_555
C4 C3 1_555 1_555
H2 C4 1_555 1_555
C5 C4 1_555 1_555
H3 C5 1_555 1_555
C6 C5 1_555 1_555
H4 C6 1_555 1_555
C7 C2 1_555 1_555
C8 C7 1_555 1_555
C9 C8 1_555 1_555
C10 C9 1_555 1_555
H5 C10 1_555 1_555
C11 C10 1_555 1_555
H6 C11 1_555 1_555
C12 C11 1_555 1_555
H7 C12 1_555 1_555
C13 C12 1_555 1_555
H8 C13 1_555 1_555
C14 C1 1_555 1_555
C15 O1 1_555 1_555
H9 C15 1_555 1_555
H10 C15 1_555 1_555
H11 C15 1_555 1_555
C16 O2 1_555 1_555
H12 C16 1_555 1_555
H13 C16 1_555 1_555
H14 C16 1_555 1_555
C17 C3 1_555 1_555
C18 C22 1_555 1_555
C19 C6 1_555 1_555
C20 C24 1_555 1_555
C21 C33 1_555 1_555
C22 C34 1_555 1_555
C23 C37 1_555 1_555
C24 C38 1_555 1_555
C25 C17 1_555 1_555
H15 C25 1_555 1_555
C26 C18 1_555 1_555
H16 C26 1_555 1_555
C27 C18 1_555 1_555
H17 C27 1_555 1_555
C28 C17 1_555 1_555
H18 C28 1_555 1_555
C29 C19 1_555 1_555
H19 C29 1_555 1_555
C30 C20 1_555 1_555
H20 C30 1_555 1_555
C31 C20 1_555 1_555
H21 C31 1_555 1_555
C32 C19 1_555 1_555
H22 C32 1_555 1_555
C33 H23 1_555 1_555
C34 C33 1_555 1_555
H24 C34 1_555 1_555
C35 C22 1_555 1_555
H25 C35 1_555 1_555
C36 C21 1_555 1_555
H26 C36 1_555 1_555
C37 H27 1_555 1_555
C38 C37 1_555 1_555
H28 C38 1_555 1_555
C39 C24 1_555 1_555
H29 C39 1_555 1_555
C40 C23 1_555 1_555
H30 C40 1_555 1_555
O1A C1A 1_555 1_555
O2A C8A 1_555 1_555
C1A C2A 1_555 1_555
C2A C3A 1_555 1_555
C3A H1A 1_555 1_555
C4A C3A 1_555 1_555
H2A C4A 1_555 1_555
C5A C4A 1_555 1_555
H3A C5A 1_555 1_555
C6A C5A 1_555 1_555
H4A C6A 1_555 1_555
C7A C2A 1_555 1_555
C8A C7A 1_555 1_555
C9A C8A 1_555 1_555
C10A C21 1_555 1_555
H5A C10A 1_555 1_555
C11A C10A 1_555 1_555
H6A C11A 1_555 1_555
C12A C11A 1_555 1_555
H7A C12A 1_555 1_555
C13A C23 1_555 1_555
H8A C13A 1_555 1_555
C14A C1A 1_555 1_555
C15A O1A 1_555 1_555
H9A C15A 1_555 1_555
H10A C15A 1_555 1_555
H11A C15A 1_555 1_555
C16A O2A 1_555 1_555
H12A C16A 1_555 1_555
H13A C16A 1_555 1_555
H14A C16A 1_555 1_555
C17A C3A 1_555 1_555
C18A C22A 1_555 1_555
C19A C6A 1_555 1_555
C20A C24A 1_555 1_555
C21A C10 1_555 1_555
C22A C34A 1_555 1_555
C23A C13 1_555 1_555
C24A C38A 1_555 1_555
C25A C17A 1_555 1_555
H15A C25A 1_555 1_555
C26A C18A 1_555 1_555
H16A C26A 1_555 1_555
C27A C18A 1_555 1_555
H17A C27A 1_555 1_555
C28A C17A 1_555 1_555
H18A C28A 1_555 1_555
C29A C19A 1_555 1_555
H19A C29A 1_555 1_555
C30A C20A 1_555 1_555
H20A C30A 1_555 1_555
C31A C20A 1_555 1_555
H21A C31A 1_555 1_555
C32A C19A 1_555 1_555
H22A C32A 1_555 1_555
C33A C21A 1_555 1_555
H23A C33A 1_555 1_555
C34A C33A 1_555 1_555
H24A C34A 1_555 1_555
C35A C22A 1_555 1_555
H25A C35A 1_555 1_555
C36A C21A 1_555 1_555
H26A C36A 1_555 1_555
C37A C23A 1_555 1_555
H27A C37A 1_555 1_555
C38A C37A 1_555 1_555
H28A C38A 1_555 1_555
C39A C24A 1_555 1_555
H29A C39A 1_555 1_555
C40A C23A 1_555 1_555
H30A C40A 1_555 1_555
C6 C7 1_555 1_555
C9 C14 1_555 1_555
C13 C14 1_555 1_555
C25 C26 1_555 1_555
C27 C28 1_555 1_555
C29 C30 1_555 1_555
C31 C32 1_555 1_555
C35 C36 1_555 1_555
C39 C40 1_555 1_555
C6A C7A 1_555 1_555
C9A C10A 1_555 1_555
C9A C14A 1_555 1_555
C12A C13A 1_555 1_555
C13A C14A 1_555 1_555
C25A C26A 1_555 1_555
C27A C28A 1_555 1_555
C29A C30A 1_555 1_555
C31A C32A 1_555 1_555
C35A C36A 1_555 1_555
C39A C40A 1_555 1_555

#END
