
#######################################################################
#
#                 Cambridge Crystallographic Data Centre
#                                CCDC 
#
#######################################################################
#
# If this CIF has been generated from an entry in the Cambridge 
# Structural Database, then it will include bibliographic, chemical, 
# crystal, experimental, refinement or atomic coordinate data resulting 
# from the CCDC's data processing and validation procedures.
#
#######################################################################

data_BAQJIN
_chemical_formula_moiety         'C13 H17 F6 N1 O3'
_chemical_name_systematic        
'7-Methyl-5-((trifluoroacetyl)amino)oct-1-en-3-yl trifluoroacetate'
_symmetry_cell_setting           orthorhombic
_symmetry_space_group_name_H-M   'P 21 21 21'
_symmetry_Int_Tables_number      19
_space_group_name_Hall           'P 2ac 2ab'
loop_
_symmetry_equiv_pos_site_id
_symmetry_equiv_pos_as_xyz
1 x,y,z
2 1/2-x,-y,1/2+z
3 -x,1/2+y,1/2-z
4 1/2+x,1/2-y,-z
_cell_length_a                   10.111(2)
_cell_length_b                   10.227(2)
_cell_length_c                   17.082(4)
_cell_angle_alpha                90
_cell_angle_beta                 90
_cell_angle_gamma                90
_cell_volume                     1766.37
_exptl_crystal_colour            colorless
_exptl_crystal_description       chunk
_cell_formula_units_Z            4
loop_
_atom_site_label
_atom_site_type_symbol
_atom_site_fract_x
_atom_site_fract_y
_atom_site_fract_z
O1 O 0.4141(3) 0.2534(3) 0.20935(19)
O2 O 0.3689(5) 0.0493(5) 0.1733(3)
O3 O 0.3304(2) 0.2261(3) 0.0008(2)
N1 N 0.5441(3) 0.2837(3) 0.01709(19)
H1 H 0.6248 0.2648 0.0035
F1 F 0.4473(5) -0.0121(3) -0.0312(4)
F2 F 0.6182(3) 0.0869(3) -0.07234(19)
F3 F 0.4373(3) 0.1048(5) -0.1325(2)
F4 F 0.1128(6) 0.1245(12) 0.2008(6)
F5 F 0.1676(5) 0.3032(6) 0.2392(4)
F6 F 0.2055(6) 0.1536(6) 0.3097(3)
C1 C 0.6994(8) 0.1070(7) 0.2705(5)
H2 H 0.7015 0.0435 0.2308
H3 H 0.7463 0.0933 0.3174
C2 C 0.6312(6) 0.2149(6) 0.2607(3)
H4 H 0.6299 0.2777 0.3008
C3 C 0.5556(4) 0.2403(5) 0.1873(3)
H5 H 0.5672 0.1669 0.1502
C4 C 0.5911(4) 0.3689(4) 0.1480(2)
H6 H 0.6868 0.3705 0.1392
H7 H 0.5699 0.4403 0.1841
C5 C 0.5218(4) 0.3951(4) 0.0703(2)
H8 H 0.4257 0.4042 0.0799
C6 C 0.5735(4) 0.5209(4) 0.0338(3)
H9 H 0.6677 0.5095 0.0221
H10 H 0.5660 0.5912 0.0726
C7 C 0.5035(5) 0.5643(5) -0.0407(3)
H11 H 0.4991 0.4882 -0.0765
C8 C 0.3648(6) 0.6092(10) -0.0254(5)
H12 H 0.3239 0.6355 -0.0743
H13 H 0.3664 0.6830 0.0104
H14 H 0.3144 0.5384 -0.0023
C9 C 0.5822(6) 0.6713(5) -0.0813(4)
H15 H 0.5367 0.6980 -0.1286
H16 H 0.6694 0.6385 -0.0946
H17 H 0.5909 0.7458 -0.0465
C10 C 0.3372(6) 0.1530(6) 0.2004(3)
C11 C 0.2007(6) 0.1788(8) 0.2359(4)
C12 C 0.4477(3) 0.2123(4) -0.0105(2)
C13 C 0.4904(4) 0.0953(5) -0.0613(3)
loop_
_geom_bond_atom_site_label_1
_geom_bond_atom_site_label_2
_geom_bond_site_symmetry_1
_geom_bond_site_symmetry_2
O1 C3 1_555 1_555
O2 C10 1_555 1_555
O3 C12 1_555 1_555
N1 H1 1_555 1_555
F1 C13 1_555 1_555
F2 C13 1_555 1_555
F3 C13 1_555 1_555
F4 C11 1_555 1_555
F5 C11 1_555 1_555
F6 C11 1_555 1_555
C1 H2 1_555 1_555
H3 C1 1_555 1_555
C2 C1 1_555 1_555
H4 C2 1_555 1_555
C3 C2 1_555 1_555
H5 C3 1_555 1_555
C4 C3 1_555 1_555
H6 C4 1_555 1_555
H7 C4 1_555 1_555
C5 N1 1_555 1_555
H8 C5 1_555 1_555
C6 C5 1_555 1_555
H9 C6 1_555 1_555
H10 C6 1_555 1_555
C7 C6 1_555 1_555
H11 C7 1_555 1_555
C8 C7 1_555 1_555
H12 C8 1_555 1_555
H13 C8 1_555 1_555
H14 C8 1_555 1_555
C9 C7 1_555 1_555
H15 C9 1_555 1_555
H16 C9 1_555 1_555
H17 C9 1_555 1_555
C10 O1 1_555 1_555
C11 C10 1_555 1_555
C12 N1 1_555 1_555
C13 C12 1_555 1_555
C4 C5 1_555 1_555

#END
