
#######################################################################
#
#                 Cambridge Crystallographic Data Centre
#                                CCDC 
#
#######################################################################
#
# If this CIF has been generated from an entry in the Cambridge 
# Structural Database, then it will include bibliographic, chemical, 
# crystal, experimental, refinement or atomic coordinate data resulting 
# from the CCDC's data processing and validation procedures.
#
#######################################################################

data_BAQLUD
_chemical_formula_moiety         'C7 H4 N2 O6'
_chemical_name_systematic        '2,4-dinitrobenzoic acid'
_symmetry_cell_setting           monoclinic
_symmetry_space_group_name_H-M   'P 21/c'
_symmetry_Int_Tables_number      14
_space_group_name_Hall           '-P 2ybc'
loop_
_symmetry_equiv_pos_site_id
_symmetry_equiv_pos_as_xyz
1 x,y,z
2 -x,1/2+y,1/2-z
3 -x,-y,-z
4 x,1/2-y,1/2+z
_cell_length_a                   6.2030(5)
_cell_length_b                   14.3679(13)
_cell_length_c                   9.4720(9)
_cell_angle_alpha                90
_cell_angle_beta                 97.092(10)
_cell_angle_gamma                90
_cell_volume                     837.725
_exptl_crystal_description       plate
_cell_formula_units_Z            4
loop_
_atom_site_label
_atom_site_type_symbol
_atom_site_fract_x
_atom_site_fract_y
_atom_site_fract_z
O1 O 0.5562(3) 0.60605(13) 1.0994(2)
H1 H 0.6107 0.5576 1.0750
O2 O 0.2763(3) 0.56088(13) 0.9449(2)
C1 C 0.2548(3) 0.70422(15) 1.0642(2)
C2 C 0.3213(3) 0.79415(15) 1.0388(2)
C3 C 0.0456(4) 0.85658(17) 1.1581(2)
C4 C 0.2203(4) 0.87133(16) 1.0847(2)
H2 H 0.2679 0.9311 1.0669
N1 N 0.4991(3) 0.80983(17) 0.9528(2)
C5 C 0.3677(4) 0.61677(16) 1.0280(3)
C6 C 0.0761(4) 0.69348(18) 1.1370(3)
H3 H 0.0261 0.6340 1.1536
C7 C -0.0290(4) 0.76965(19) 1.1852(3)
H4 H -0.1479 0.7620 1.2350
N2 N -0.0670(4) 0.93826(17) 1.2064(2)
O3 O -0.0057(4) 1.01405(15) 1.1735(3)
O4 O 0.5455(4) 0.74562(17) 0.8789(2)
O5 O 0.5878(4) 0.88395(17) 0.9585(3)
O6 O -0.2140(4) 0.9256(2) 1.2767(3)
loop_
_geom_bond_atom_site_label_1
_geom_bond_atom_site_label_2
_geom_bond_site_symmetry_1
_geom_bond_site_symmetry_2
O1 H1 1_555 1_555
O2 C5 1_555 1_555
C1 C2 1_555 1_555
C2 C4 1_555 1_555
C3 C4 1_555 1_555
C4 H2 1_555 1_555
N1 C2 1_555 1_555
C5 O1 1_555 1_555
C6 C1 1_555 1_555
H3 C6 1_555 1_555
C7 C3 1_555 1_555
H4 C7 1_555 1_555
N2 C3 1_555 1_555
O3 N2 1_555 1_555
O4 N1 1_555 1_555
O5 N1 1_555 1_555
O6 N2 1_555 1_555
C1 C5 1_555 1_555
C6 C7 1_555 1_555

#END
