
#######################################################################
#
#                 Cambridge Crystallographic Data Centre
#                                CCDC 
#
#######################################################################
#
# If this CIF has been generated from an entry in the Cambridge 
# Structural Database, then it will include bibliographic, chemical, 
# crystal, experimental, refinement or atomic coordinate data resulting 
# from the CCDC's data processing and validation procedures.
#
#######################################################################

data_BAQRAP
_chemical_formula_moiety         'C20 H21 N1 O3 S1'
_chemical_name_systematic        
4'-methyl-1'-((4-methylphenyl)sulfonyl)spiro[indene-1,3'-pyrrolidin]-3(2H)-one
_symmetry_cell_setting           triclinic
_symmetry_space_group_name_H-M   'P -1'
_symmetry_Int_Tables_number      2
_space_group_name_Hall           '-P 1'
loop_
_symmetry_equiv_pos_site_id
_symmetry_equiv_pos_as_xyz
1 x,y,z
2 -x,-y,-z
_cell_length_a                   7.6063(2)
_cell_length_b                   11.4001(2)
_cell_length_c                   11.9918(3)
_cell_angle_alpha                115.525(2)
_cell_angle_beta                 107.817(2)
_cell_angle_gamma                93.098(2)
_cell_volume                     872.181
_exptl_crystal_colour            colorless
_exptl_crystal_description       Prism
_cell_formula_units_Z            2
_exptl_crystal_recrystallization_method dichloromethane/hexane
loop_
_atom_site_label
_atom_site_type_symbol
_atom_site_fract_x
_atom_site_fract_y
_atom_site_fract_z
C1 C 0.33380(19) 0.40822(12) 0.30978(13)
H1 H 0.4469 0.4727 0.3851
H2 H 0.2295 0.4554 0.2986
C2 C 0.27677(18) 0.29442(13) 0.33494(13)
C3 C 0.25824(18) 0.16835(12) 0.21704(12)
C4 C 0.19970(18) 0.03786(13) 0.19076(14)
H3 H 0.1652 0.0201 0.2526
C5 C 0.19338(19) -0.06495(13) 0.07192(14)
H4 H 0.1534 -0.1547 0.0513
C6 C 0.24562(19) -0.03714(13) -0.01775(14)
H5 H 0.2404 -0.1087 -0.0989
C7 C 0.30505(18) 0.09304(13) 0.00920(13)
H6 H 0.3410 0.1109 -0.0521
C8 C 0.31057(17) 0.19638(12) 0.12821(12)
C9 C 0.37754(18) 0.34414(12) 0.18111(12)
C10 C 0.59004(18) 0.38066(12) 0.20429(12)
H7 H 0.6095 0.3207 0.1210
C11 C 0.61252(18) 0.52095(12) 0.21910(13)
H8 H 0.6343 0.5884 0.3112
H9 H 0.7184 0.5414 0.1941
C12 C 0.28633(18) 0.39588(12) 0.08302(12)
H10 H 0.2631 0.3287 -0.0094
H11 H 0.1652 0.4194 0.0896
C13 C 0.7311(2) 0.36895(14) 0.31856(14)
H12 H 0.8580 0.3802 0.3155
H13 H 0.6952 0.2810 0.3106
H14 H 0.7311 0.4381 0.4031
C14 C 0.29824(19) 0.72631(12) 0.27219(12)
C15 C 0.1089(2) 0.70455(14) 0.25674(14)
H15 H 0.0152 0.6478 0.1718
C16 C 0.0578(2) 0.76653(14) 0.36666(15)
H16 H -0.0718 0.7528 0.3560
C17 C 0.1938(2) 0.84868(13) 0.49253(14)
C18 C 0.3825(2) 0.86656(13) 0.50593(13)
H17 H 0.4768 0.9207 0.5914
C19 C 0.43635(19) 0.80695(13) 0.39705(13)
H18 H 0.5660 0.8210 0.4076
C20 C 0.1362(2) 0.91870(15) 0.61071(15)
H19 H 0.2494 0.9623 0.6919
H20 H 0.0548 0.8536 0.6165
H21 H 0.0671 0.9857 0.6004
N1 N 0.42865(15) 0.51543(10) 0.12540(10)
O1 O 0.24933(15) 0.30624(10) 0.43374(10)
O2 O 0.20068(14) 0.61280(9) 0.01683(9)
O3 O 0.53294(14) 0.73900(9) 0.15888(10)
S1 S 0.36643(4) 0.65087(3) 0.13322(3)
loop_
_geom_bond_atom_site_label_1
_geom_bond_atom_site_label_2
_geom_bond_site_symmetry_1
_geom_bond_site_symmetry_2
C1 H1 1_555 1_555
H2 C1 1_555 1_555
C2 C1 1_555 1_555
C3 C2 1_555 1_555
C4 C3 1_555 1_555
H3 C4 1_555 1_555
C5 C4 1_555 1_555
H4 C5 1_555 1_555
C6 C5 1_555 1_555
H5 C6 1_555 1_555
C7 C6 1_555 1_555
H6 C7 1_555 1_555
C8 C3 1_555 1_555
C9 C1 1_555 1_555
C10 C9 1_555 1_555
H7 C10 1_555 1_555
C11 C10 1_555 1_555
H8 C11 1_555 1_555
H9 C11 1_555 1_555
C12 C9 1_555 1_555
H10 C12 1_555 1_555
H11 C12 1_555 1_555
C13 C10 1_555 1_555
H12 C13 1_555 1_555
H13 C13 1_555 1_555
H14 C13 1_555 1_555
C14 C15 1_555 1_555
C15 H15 1_555 1_555
C16 C15 1_555 1_555
H16 C16 1_555 1_555
C17 C16 1_555 1_555
C18 C17 1_555 1_555
H17 C18 1_555 1_555
C19 C14 1_555 1_555
H18 C19 1_555 1_555
C20 C17 1_555 1_555
H19 C20 1_555 1_555
H20 C20 1_555 1_555
H21 C20 1_555 1_555
N1 C11 1_555 1_555
O1 C2 1_555 1_555
O2 S1 1_555 1_555
O3 S1 1_555 1_555
S1 C14 1_555 1_555
C7 C8 1_555 1_555
C8 C9 1_555 1_555
C12 N1 1_555 1_555
C18 C19 1_555 1_555
N1 S1 1_555 1_555

#END
