
#######################################################################
#
#                 Cambridge Crystallographic Data Centre
#                                CCDC 
#
#######################################################################
#
# If this CIF has been generated from an entry in the Cambridge 
# Structural Database, then it will include bibliographic, chemical, 
# crystal, experimental, refinement or atomic coordinate data resulting 
# from the CCDC's data processing and validation procedures.
#
#######################################################################

data_BAQVOF
_chemical_formula_moiety         'C22 H28 O7'
_chemical_name_systematic        
9-Acetoxy-11-(3-methylbut-2-enyl)-4,4,13,13-tetramethyl-3,5,12-trioxa-6,10-dioxotetracyclo(7.4.1.0^2,7^.0^2,11^)tetradec-7-ene
_symmetry_cell_setting           monoclinic
_symmetry_space_group_name_H-M   'P 21/c'
_symmetry_Int_Tables_number      14
_space_group_name_Hall           '-P 2ybc'
loop_
_symmetry_equiv_pos_site_id
_symmetry_equiv_pos_as_xyz
1 x,y,z
2 x,1/2-y,1/2+z
3 -x,-y,-z
4 -x,1/2+y,1/2-z
_cell_length_a                   15.5351(9)
_cell_length_b                   13.6848(8)
_cell_length_c                   19.2532(11)
_cell_angle_alpha                90
_cell_angle_beta                 95.0490(10)
_cell_angle_gamma                90
_cell_volume                     4077.25
_exptl_crystal_colour            colorless
_exptl_crystal_description       plate
_cell_formula_units_Z            8
loop_
_atom_site_label
_atom_site_type_symbol
_atom_site_fract_x
_atom_site_fract_y
_atom_site_fract_z
O1 O -0.17582(10) -0.01367(12) -0.14324(8)
O2 O -0.29359(9) -0.14873(10) -0.11865(7)
O3 O -0.40924(11) -0.24245(12) -0.15045(9)
O4 O -0.27913(9) 0.15592(10) -0.20111(7)
O5 O -0.36404(9) 0.09832(10) -0.33700(7)
O6 O -0.37904(10) -0.03019(11) -0.41789(7)
O7 O -0.33483(13) -0.17954(12) -0.38973(8)
C1 C -0.31667(13) -0.08374(15) -0.17528(10)
C2 C -0.40052(14) -0.02586(16) -0.16710(11)
H1 H -0.4506 -0.0688 -0.1769
H2 H -0.4006 -0.0025 -0.1190
C3 C -0.40765(14) 0.06154(15) -0.21721(11)
H3 H -0.4683 0.0705 -0.2365
C4 C -0.34887(13) 0.03836(15) -0.27708(10)
C5 C -0.34429(13) -0.06767(15) -0.29697(11)
C6 C -0.32498(13) -0.12994(16) -0.24555(11)
H4 H -0.3172 -0.1972 -0.2527
C7 C -0.24208(14) -0.01085(15) -0.18010(11)
C8 C -0.26200(13) 0.06766(14) -0.23721(10)
C9 C -0.35232(15) -0.09862(17) -0.37070(11)
C10 C -0.41935(15) 0.05823(16) -0.39218(11)
C11 C -0.42114(19) 0.13118(18) -0.45044(12)
H5 H -0.3625 0.1453 -0.4610
H6 H -0.4485 0.1909 -0.4365
H7 H -0.4535 0.1045 -0.4915
C12 C -0.50782(15) 0.03158(19) -0.37249(13)
H8 H -0.5027 -0.0156 -0.3347
H9 H -0.5412 0.0034 -0.4125
H10 H -0.5367 0.0897 -0.3575
C13 C -0.37016(14) 0.15932(15) -0.18751(11)
C14 C -0.41126(17) 0.24696(17) -0.22556(14)
H11 H -0.3860 0.3065 -0.2055
H12 H -0.4730 0.2469 -0.2210
H13 H -0.4011 0.2435 -0.2745
C15 C -0.37308(17) 0.17367(19) -0.10940(12)
H14 H -0.3483 0.2367 -0.0959
H15 H -0.3402 0.1223 -0.0846
H16 H -0.4326 0.1712 -0.0979
C16 C -0.34526(16) -0.22751(16) -0.11182(12)
C17 C -0.31263(17) -0.29018(17) -0.05288(12)
H17 H -0.3491 -0.2824 -0.0148
H18 H -0.2539 -0.2714 -0.0373
H19 H -0.3135 -0.3579 -0.0677
C18 C -0.18596(14) 0.08581(15) -0.28035(11)
H20 H -0.2017 0.1377 -0.3142
H21 H -0.1368 0.1091 -0.2494
C19 C -0.15825(13) -0.00235(16) -0.31882(11)
H22 H -0.1430 -0.0574 -0.2912
C20 C -0.15249(14) -0.01293(16) -0.38655(11)
C21 C -0.12572(17) -0.10833(18) -0.41616(13)
H23 H -0.1140 -0.1552 -0.3787
H24 H -0.0740 -0.0988 -0.4401
H25 H -0.1718 -0.1328 -0.4488
C22 C -0.17237(19) 0.0653(2) -0.43993(13)
H26 H -0.1892 0.1245 -0.4170
H27 H -0.2193 0.0439 -0.4730
H28 H -0.1215 0.0780 -0.4643
O8 O 0.29516(10) 0.51369(12) 0.14019(8)
O9 O 0.17462(9) 0.65169(10) 0.11617(7)
O10 O 0.07013(11) 0.75148(12) 0.14835(9)
O11 O 0.20166(9) 0.34814(10) 0.20090(7)
O12 O 0.15374(9) 0.41079(10) 0.33896(7)
O13 O 0.16739(10) 0.54061(11) 0.41859(7)
O14 O 0.21024(12) 0.68695(12) 0.38776(8)
C23 C 0.16456(13) 0.58893(15) 0.17444(10)
C24 C 0.07725(14) 0.53437(16) 0.16948(11)
H29 H 0.0313 0.5794 0.1805
H30 H 0.0636 0.5106 0.1218
C25 C 0.08096(13) 0.44790(15) 0.22031(10)
H31 H 0.0254 0.4414 0.2414
C26 C 0.15570(13) 0.46945(15) 0.27804(10)
C27 C 0.16924(13) 0.57539(15) 0.29659(10)
C28 C 0.17655(13) 0.63654(15) 0.24408(11)
H32 H 0.1882 0.7035 0.2502
C29 C 0.23826(14) 0.51350(15) 0.17823(11)
C30 C 0.23098(13) 0.43578(14) 0.23609(10)
C31 C 0.18374(15) 0.60713(17) 0.37022(11)
C32 C 0.11611(14) 0.45497(16) 0.39539(11)
C33 C 0.12678(17) 0.38339(18) 0.45463(12)
H33 H 0.1872 0.3654 0.4631
H34 H 0.0926 0.3255 0.4428
H35 H 0.1075 0.4131 0.4963
C34 C 0.02377(15) 0.48662(18) 0.37897(13)
H36 H 0.0204 0.5325 0.3404
H37 H 0.0031 0.5177 0.4196
H38 H -0.0117 0.4300 0.3663
C35 C 0.10752(14) 0.34861(16) 0.18997(11)
C36 C 0.07404(18) 0.26263(18) 0.22947(13)
H39 H 0.0919 0.2021 0.2088
H40 H 0.0115 0.2652 0.2270
H41 H 0.0974 0.2656 0.2778
C37 C 0.08376(17) 0.33428(19) 0.11243(12)
H42 H 0.1030 0.2703 0.0985
H43 H 0.1116 0.3843 0.0865
H44 H 0.0216 0.3391 0.1027
C38 C 0.12274(15) 0.73205(16) 0.10870(12)
C39 C 0.13980(18) 0.78933(18) 0.04598(12)
H45 H 0.0901 0.7855 0.0119
H46 H 0.1901 0.7629 0.0260
H47 H 0.1504 0.8570 0.0590
C40 C 0.31659(13) 0.41380(15) 0.27706(11)
H48 H 0.3081 0.3605 0.3097
H49 H 0.3575 0.3909 0.2447
C41 C 0.35569(13) 0.49884(16) 0.31710(11)
H50 H 0.3662 0.5548 0.2908
C42 C 0.37745(14) 0.50517(17) 0.38512(12)
C43 C 0.41199(17) 0.59859(19) 0.41710(13)
H51 H 0.4155 0.6474 0.3809
H52 H 0.4691 0.5873 0.4403
H53 H 0.3737 0.6216 0.4508
C44 C 0.36812(18) 0.4241(2) 0.43590(13)
H54 H 0.3455 0.3666 0.4112
H55 H 0.3287 0.4440 0.4696
H56 H 0.4241 0.4092 0.4599
loop_
_geom_bond_atom_site_label_1
_geom_bond_atom_site_label_2
_geom_bond_site_symmetry_1
_geom_bond_site_symmetry_2
O1 C7 1_555 1_555
O2 C1 1_555 1_555
O3 C16 1_555 1_555
O4 C8 1_555 1_555
O5 C4 1_555 1_555
O6 C9 1_555 1_555
O7 C9 1_555 1_555
C1 C2 1_555 1_555
C2 H1 1_555 1_555
H2 C2 1_555 1_555
C3 C2 1_555 1_555
H3 C3 1_555 1_555
C4 C3 1_555 1_555
C5 C4 1_555 1_555
C6 C1 1_555 1_555
H4 C6 1_555 1_555
C7 C1 1_555 1_555
C8 C4 1_555 1_555
C9 C5 1_555 1_555
C10 O5 1_555 1_555
C11 C10 1_555 1_555
H5 C11 1_555 1_555
H6 C11 1_555 1_555
H7 C11 1_555 1_555
C12 C10 1_555 1_555
H8 C12 1_555 1_555
H9 C12 1_555 1_555
H10 C12 1_555 1_555
C13 O4 1_555 1_555
C14 C13 1_555 1_555
H11 C14 1_555 1_555
H12 C14 1_555 1_555
H13 C14 1_555 1_555
C15 C13 1_555 1_555
H14 C15 1_555 1_555
H15 C15 1_555 1_555
H16 C15 1_555 1_555
C16 O2 1_555 1_555
C17 C16 1_555 1_555
H17 C17 1_555 1_555
H18 C17 1_555 1_555
H19 C17 1_555 1_555
C18 C8 1_555 1_555
H20 C18 1_555 1_555
H21 C18 1_555 1_555
C19 C18 1_555 1_555
H22 C19 1_555 1_555
C20 C19 1_555 1_555
C21 C20 1_555 1_555
H23 C21 1_555 1_555
H24 C21 1_555 1_555
H25 C21 1_555 1_555
C22 C20 1_555 1_555
H26 C22 1_555 1_555
H27 C22 1_555 1_555
H28 C22 1_555 1_555
O8 C29 1_555 1_555
O9 C23 1_555 1_555
O10 C38 1_555 1_555
O11 C30 1_555 1_555
O12 C26 1_555 1_555
O13 C31 1_555 1_555
O14 C31 1_555 1_555
C23 C24 1_555 1_555
C24 H29 1_555 1_555
H30 C24 1_555 1_555
C25 C24 1_555 1_555
H31 C25 1_555 1_555
C26 C25 1_555 1_555
C27 C26 1_555 1_555
C28 C23 1_555 1_555
H32 C28 1_555 1_555
C29 C23 1_555 1_555
C30 C26 1_555 1_555
C31 C27 1_555 1_555
C32 O12 1_555 1_555
C33 C32 1_555 1_555
H33 C33 1_555 1_555
H34 C33 1_555 1_555
H35 C33 1_555 1_555
C34 C32 1_555 1_555
H36 C34 1_555 1_555
H37 C34 1_555 1_555
H38 C34 1_555 1_555
C35 O11 1_555 1_555
C36 C35 1_555 1_555
H39 C36 1_555 1_555
H40 C36 1_555 1_555
H41 C36 1_555 1_555
C37 C35 1_555 1_555
H42 C37 1_555 1_555
H43 C37 1_555 1_555
H44 C37 1_555 1_555
C38 O9 1_555 1_555
C39 C38 1_555 1_555
H45 C39 1_555 1_555
H46 C39 1_555 1_555
H47 C39 1_555 1_555
C40 C30 1_555 1_555
H48 C40 1_555 1_555
H49 C40 1_555 1_555
C41 C40 1_555 1_555
H50 C41 1_555 1_555
C42 C41 1_555 1_555
C43 C42 1_555 1_555
H51 C43 1_555 1_555
H52 C43 1_555 1_555
H53 C43 1_555 1_555
C44 C42 1_555 1_555
H54 C44 1_555 1_555
H55 C44 1_555 1_555
H56 C44 1_555 1_555
O6 C10 1_555 1_555
C3 C13 1_555 1_555
C5 C6 1_555 1_555
C7 C8 1_555 1_555
O13 C32 1_555 1_555
C25 C35 1_555 1_555
C27 C28 1_555 1_555
C29 C30 1_555 1_555

#END
