
#######################################################################
#
#                 Cambridge Crystallographic Data Centre
#                                CCDC 
#
#######################################################################
#
# If this CIF has been generated from an entry in the Cambridge 
# Structural Database, then it will include bibliographic, chemical, 
# crystal, experimental, refinement or atomic coordinate data resulting 
# from the CCDC's data processing and validation procedures.
#
#######################################################################

data_BAQXOJ
_chemical_formula_moiety         'C14 H12 Cl1 N1 O3'
_chemical_name_systematic        '2-chlorophenyl (4-methoxyphenyl)carbamate'
_symmetry_cell_setting           triclinic
_symmetry_space_group_name_H-M   'P -1'
_symmetry_Int_Tables_number      2
_space_group_name_Hall           '-P 1'
loop_
_symmetry_equiv_pos_site_id
_symmetry_equiv_pos_as_xyz
1 x,y,z
2 -x,-y,-z
_cell_length_a                   9.5682(10)
_cell_length_b                   9.6574(10)
_cell_length_c                   14.7650(15)
_cell_angle_alpha                88.829(2)
_cell_angle_beta                 86.829(2)
_cell_angle_gamma                76.122(2)
_cell_volume                     1322.45
_cell_formula_units_Z            4
loop_
_atom_site_label
_atom_site_type_symbol
_atom_site_fract_x
_atom_site_fract_y
_atom_site_fract_z
Cl1 Cl 0.14470(19) 0.21648(19) 0.24907(12)
O1 O 0.4753(4) 0.2983(4) 0.2238(3)
O2 O 0.4344(4) 0.0990(4) 0.1630(3)
N1 N 0.5664(5) 0.0755(5) 0.2822(3)
C1 C 0.3376(6) 0.1788(6) 0.1051(4)
O3 O 0.8827(5) 0.1961(5) 0.5631(3)
C2 C 0.4930(6) 0.1693(6) 0.2256(4)
C3 C 0.7156(6) 0.2194(6) 0.3474(4)
C4 C 0.8051(6) 0.1600(6) 0.4955(4)
C5 C 0.7399(6) 0.0450(6) 0.5027(4)
C6 C 0.6470(6) 0.1080(6) 0.3536(4)
C7 C 0.1955(6) 0.2351(6) 0.1352(4)
C8 C 0.7943(6) 0.2441(6) 0.4194(4)
C9 C 0.6621(6) 0.0195(6) 0.4295(4)
C10 C 0.3780(7) 0.1896(6) 0.0162(4)
C11 C 0.2754(7) 0.2579(7) -0.0447(4)
C12 C 0.0928(7) 0.3041(7) 0.0753(4)
C13 C 0.1356(7) 0.3147(7) -0.0155(4)
C14 C 0.9033(8) 0.1048(8) 0.6426(5)
Cl2 Cl 0.1701(2) 0.4321(2) -0.25476(13)
O4 O 0.4646(4) 0.4222(4) -0.3349(3)
O5 O 0.5065(5) 0.2030(5) -0.2682(3)
O6 O 0.8080(5) 0.1837(5) 0.1192(3)
C15 C 0.3697(6) 0.3833(6) -0.3959(4)
N2 N 0.5889(5) 0.3896(5) -0.2128(3)
C16 C 0.7072(6) 0.1797(6) -0.1190(4)
C17 C 0.7600(6) 0.2236(6) 0.0337(4)
C18 C 0.2267(6) 0.3907(6) -0.3661(4)
C19 C 0.7615(6) 0.1299(6) -0.0361(4)
C20 C 0.4168(6) 0.3575(6) -0.4838(4)
C21 C 0.6501(6) 0.3281(6) -0.1317(4)
C22 C 0.5201(6) 0.3247(6) -0.2702(4)
C23 C 0.1306(7) 0.3670(7) -0.4270(4)
C24 C 0.6548(6) 0.4216(6) -0.0620(4)
C25 C 0.3190(7) 0.3378(7) -0.5461(4)
C26 C 0.7078(7) 0.3698(6) 0.0206(4)
C27 C 0.1761(7) 0.3413(7) -0.5181(5)
C28 C 0.8655(8) 0.0343(8) 0.1365(5)
loop_
_geom_bond_atom_site_label_1
_geom_bond_atom_site_label_2
_geom_bond_site_symmetry_1
_geom_bond_site_symmetry_2
Cl1 C7 1_555 1_555
O1 C2 1_555 1_555
O2 C1 1_555 1_555
N1 C2 1_555 1_555
C1 C7 1_555 1_555
O3 C4 1_555 1_555
C2 O2 1_555 1_555
C3 C6 1_555 1_555
C4 C5 1_555 1_555
C5 C9 1_555 1_555
C6 N1 1_555 1_555
C7 C12 1_555 1_555
C8 C3 1_555 1_555
C9 C6 1_555 1_555
C10 C1 1_555 1_555
C11 C10 1_555 1_555
C12 C13 1_555 1_555
C13 C11 1_555 1_555
C14 O3 1_555 1_555
Cl2 C18 1_555 1_555
O4 C15 1_555 1_555
O5 C22 1_555 1_555
O6 C17 1_555 1_555
C15 C18 1_555 1_555
N2 C21 1_555 1_555
C16 C19 1_555 1_555
C17 C19 1_555 1_555
C18 C23 1_555 1_555
C20 C15 1_555 1_555
C21 C16 1_555 1_555
C22 O4 1_555 1_555
C23 C27 1_555 1_555
C24 C21 1_555 1_555
C25 C20 1_555 1_555
C26 C17 1_555 1_555
C27 C25 1_555 1_555
C28 O6 1_555 1_555
C4 C8 1_555 1_555
N2 C22 1_555 1_555
C24 C26 1_555 1_555

#END
