
#######################################################################
#
#                 Cambridge Crystallographic Data Centre
#                                CCDC 
#
#######################################################################
#
# If this CIF has been generated from an entry in the Cambridge 
# Structural Database, then it will include bibliographic, chemical, 
# crystal, experimental, refinement or atomic coordinate data resulting 
# from the CCDC's data processing and validation procedures.
#
#######################################################################

data_BAQXEZ
_chemical_formula_moiety         'C16 H23 Br1 N2 O2'
_chemical_name_systematic        
4-bromo-N-(((2,2,6,6-tetramethylpiperidin-1-yl)oxy)carbonyl)aniline
_symmetry_cell_setting           monoclinic
_symmetry_space_group_name_H-M   'P 21/c'
_symmetry_Int_Tables_number      14
_space_group_name_Hall           '-P 2ybc'
loop_
_symmetry_equiv_pos_site_id
_symmetry_equiv_pos_as_xyz
1 x,y,z
2 -x,1/2+y,1/2-z
3 -x,-y,-z
4 x,1/2-y,1/2+z
_cell_length_a                   7.6713(19)
_cell_length_b                   20.094(5)
_cell_length_c                   10.598(3)
_cell_angle_alpha                90
_cell_angle_beta                 94.855(4)
_cell_angle_gamma                90
_cell_volume                     1627.79
_cell_formula_units_Z            4
loop_
_atom_site_label
_atom_site_type_symbol
_atom_site_fract_x
_atom_site_fract_y
_atom_site_fract_z
Br1 Br 0.31594(7) 0.45644(3) 0.56936(6)
O1 O -0.2212(4) 0.79444(16) 0.3264(3)
C1 C 0.2121(6) 0.5401(2) 0.5291(5)
N1 N -0.0428(5) 0.7214(2) 0.4471(4)
O2 O -0.0609(5) 0.72427(18) 0.2264(3)
N2 N -0.2750(5) 0.8159(2) 0.4486(4)
C2 C 0.0559(7) 0.6365(3) 0.5936(5)
C3 C 0.1284(6) 0.6248(2) 0.3755(5)
C4 C -0.1026(6) 0.7436(2) 0.3296(5)
C5 C -0.2282(7) 0.8879(2) 0.4593(5)
C6 C 0.0499(6) 0.6606(2) 0.4698(4)
C7 C -0.0248(8) 0.8915(3) 0.4763(6)
C8 C 0.2092(6) 0.5641(3) 0.4070(5)
C9 C 0.1370(7) 0.5758(3) 0.6240(5)
C10 C -0.4612(7) 0.7946(3) 0.4537(5)
C11 C -0.5189(7) 0.8240(3) 0.5796(5)
C12 C -0.4615(7) 0.7184(3) 0.4631(6)
C13 C -0.2960(8) 0.9134(3) 0.5818(5)
C14 C -0.2939(9) 0.9311(3) 0.3465(6)
C15 C -0.5875(7) 0.8159(3) 0.3388(6)
C16 C -0.4912(8) 0.8983(3) 0.5896(6)
loop_
_geom_bond_atom_site_label_1
_geom_bond_atom_site_label_2
_geom_bond_site_symmetry_1
_geom_bond_site_symmetry_2
Br1 C1 1_555 1_555
O1 N2 1_555 1_555
C1 C8 1_555 1_555
N1 C4 1_555 1_555
O2 C4 1_555 1_555
N2 C5 1_555 1_555
C2 C6 1_555 1_555
C3 C6 1_555 1_555
C4 O1 1_555 1_555
C5 C7 1_555 1_555
C6 N1 1_555 1_555
C8 C3 1_555 1_555
C9 C1 1_555 1_555
C10 N2 1_555 1_555
C11 C10 1_555 1_555
C12 C10 1_555 1_555
C13 C5 1_555 1_555
C14 C5 1_555 1_555
C15 C10 1_555 1_555
C16 C11 1_555 1_555
C2 C9 1_555 1_555
C13 C16 1_555 1_555

#END
