
#######################################################################
#
#                 Cambridge Crystallographic Data Centre
#                                CCDC 
#
#######################################################################
#
# If this CIF has been generated from an entry in the Cambridge 
# Structural Database, then it will include bibliographic, chemical, 
# crystal, experimental, refinement or atomic coordinate data resulting 
# from the CCDC's data processing and validation procedures.
#
#######################################################################

data_BARGEJ
_chemical_formula_moiety         'C17 H15 N3 S2'
_chemical_name_systematic        2,6-bis((pyridin-2-ylsulfanyl)methyl)pyridine
_symmetry_cell_setting           monoclinic
_symmetry_space_group_name_H-M   'P 21/n'
_symmetry_Int_Tables_number      14
_space_group_name_Hall           '-P 2yn'
loop_
_symmetry_equiv_pos_site_id
_symmetry_equiv_pos_as_xyz
1 x,y,z
2 1/2-x,1/2+y,1/2-z
3 -x,-y,-z
4 1/2+x,1/2-y,1/2+z
_cell_length_a                   10.5537(5)
_cell_length_b                   9.2526(4)
_cell_length_c                   16.3350(8)
_cell_angle_alpha                90
_cell_angle_beta                 107.345(3)
_cell_angle_gamma                90
_cell_volume                     1522.57
_exptl_crystal_colour            colorless
_exptl_crystal_description       block
_cell_formula_units_Z            4
loop_
_atom_site_label
_atom_site_type_symbol
_atom_site_fract_x
_atom_site_fract_y
_atom_site_fract_z
S1 S 0.12925(7) -0.22969(7) 0.45182(4)
S2 S 0.12625(7) 0.07542(7) 0.14752(4)
N1 N -0.0730(2) -0.3343(2) 0.50173(12)
N2 N 0.00095(19) -0.18449(19) 0.23021(11)
N3 N -0.0743(2) 0.2589(2) 0.07792(13)
C1 C 0.1303(3) 0.3669(3) 0.15996(15)
H1 H 0.2203 0.3547 0.1932
C2 C 0.0749(3) 0.5016(3) 0.14479(16)
H2 H 0.1260 0.5847 0.1678
C3 C -0.0558(3) 0.5157(3) 0.09569(16)
H3 H -0.0966 0.6081 0.0845
C4 C -0.1250(3) 0.3928(3) 0.06351(16)
H4 H -0.2144 0.4029 0.0288
C5 C 0.0513(2) 0.2481(2) 0.12546(14)
C6 C -0.0097(2) -0.0482(2) 0.10301(14)
H5 H -0.0769 0.0002 0.0554
H6 H 0.0240 -0.1332 0.0790
C7 C -0.0745(2) -0.0988(2) 0.16799(13)
C8 C -0.2020(2) -0.0589(2) 0.16380(14)
H7 H -0.2525 0.0015 0.1189
C9 C -0.2547(3) -0.1086(3) 0.22634(15)
H8 H -0.3420 -0.0819 0.2253
C10 C -0.1795(2) -0.1973(2) 0.29031(15)
H9 H -0.2142 -0.2330 0.3337
C11 C -0.0521(2) -0.2335(2) 0.29001(14)
C12 C 0.0349(2) -0.3290(3) 0.35772(14)
H10 H 0.0971 -0.3813 0.3334
H11 H -0.0210 -0.4017 0.3750
C13 C 0.0233(2) -0.2370(2) 0.51758(14)
C14 C -0.1442(3) -0.3418(3) 0.55711(15)
H12 H -0.2130 -0.4118 0.5470
C15 C -0.1231(3) -0.2538(3) 0.62794(15)
H13 H -0.1752 -0.2636 0.6661
C16 C -0.0248(3) -0.1515(3) 0.64181(16)
H14 H -0.0089 -0.0877 0.6894
C17 C 0.0502(3) -0.1421(3) 0.58645(16)
H15 H 0.1190 -0.0724 0.5950
loop_
_geom_bond_atom_site_label_1
_geom_bond_atom_site_label_2
_geom_bond_site_symmetry_1
_geom_bond_site_symmetry_2
S1 C12 1_555 1_555
S2 C5 1_555 1_555
N1 C13 1_555 1_555
N2 C7 1_555 1_555
N3 C4 1_555 1_555
C1 H1 1_555 1_555
C2 C1 1_555 1_555
H2 C2 1_555 1_555
C3 C2 1_555 1_555
H3 C3 1_555 1_555
C4 C3 1_555 1_555
H4 C4 1_555 1_555
C5 N3 1_555 1_555
C6 S2 1_555 1_555
H5 C6 1_555 1_555
H6 C6 1_555 1_555
C7 C6 1_555 1_555
C8 C7 1_555 1_555
H7 C8 1_555 1_555
C9 C8 1_555 1_555
H8 C9 1_555 1_555
C10 C9 1_555 1_555
H9 C10 1_555 1_555
C11 N2 1_555 1_555
C12 C11 1_555 1_555
H10 C12 1_555 1_555
H11 C12 1_555 1_555
C13 S1 1_555 1_555
C14 N1 1_555 1_555
H12 C14 1_555 1_555
C15 C14 1_555 1_555
H13 C15 1_555 1_555
C16 C15 1_555 1_555
H14 C16 1_555 1_555
C17 C13 1_555 1_555
H15 C17 1_555 1_555
C1 C5 1_555 1_555
C10 C11 1_555 1_555
C16 C17 1_555 1_555

#END
