
#######################################################################
#
#                 Cambridge Crystallographic Data Centre
#                                CCDC 
#
#######################################################################
#
# If this CIF has been generated from an entry in the Cambridge 
# Structural Database, then it will include bibliographic, chemical, 
# crystal, experimental, refinement or atomic coordinate data resulting 
# from the CCDC's data processing and validation procedures.
#
#######################################################################

data_BARJUZ10
_chemical_formula_moiety         'C24 H40 O4,C8 H8 O1,C32 H48 O5'
_chemical_name_systematic        
'Deoxycholic acid acetophenone 5\b-(\a-hydroxy-\a-methylbenzyl)-deoxycholic acid clathrate'
_symmetry_cell_setting           orthorhombic
_symmetry_space_group_name_H-M   'P 21 21 21'
_symmetry_Int_Tables_number      19
_space_group_name_Hall           'P 2ac 2ab'
loop_
_symmetry_equiv_pos_site_id
_symmetry_equiv_pos_as_xyz
1 x,y,z
2 1/2+x,1/2-y,-z
3 -x,1/2+y,1/2-z
4 1/2-x,-y,1/2+z
_cell_length_a                   25.173(5)
_cell_length_b                   13.685(3)
_cell_length_c                   7.178(4)
_cell_angle_alpha                90
_cell_angle_beta                 90
_cell_angle_gamma                90
_cell_volume                     2472.77
_cell_formula_units_Z            2
_exptl_crystal_preparation       'irradiated product'
loop_
_atom_site_label
_atom_site_type_symbol
_atom_site_fract_x
_atom_site_fract_y
_atom_site_fract_z
C9 C 0.2261 -0.0427 -0.5299
C10 C 0.2775 0.0121 -1.0861
C11 C 0.2604 -0.0055 -0.8893
C12 C 0.2197 -0.0772 -0.8579
C13 C 0.2028 -0.0904 -0.6782
C14 C 0.2665 0.0238 -0.5607
C15 C 0.2837 0.0424 -0.7410
H9 H 0.1732 -0.1393 -0.6598
H10 H 0.2147 -0.0542 -0.3960
H11 H 0.2831 0.0579 -0.4526
H12 H 0.3135 0.0915 -0.7602
C16 C 0.3240 0.0778 -1.1216
H13 H 0.3184 0.1441 -1.0720
O2 O 0.2550 -0.0292 -1.2132
O3 O 0.2529 -0.0433 0.9699
C17 C 0.2725 0.0160 1.0753
C18 C 0.2603 0.0118 1.2782
C19 C 0.2278 -0.0629 1.3427
C20 C 0.2156 -0.0692 1.5300
C21 C 0.2356 -0.0014 1.6539
C22 C 0.2680 0.0732 1.5909
C23 C 0.2804 0.0799 1.4030
H14 H 0.2139 -0.1107 1.2522
H15 H 0.1919 -0.1244 1.5721
H16 H 0.2275 -0.0036 1.7923
H17 H 0.2822 0.1218 1.6815
H18 H 0.3042 0.1353 1.3599
C24 C 0.3108 0.0915 1.0062
H19 H 0.2992 0.1585 1.0355
H20 H 0.3471 0.0790 1.0643
C25 C 0.1261(1) 0.2085(2) 0.3549(2)
C26 C 0.0702(1) 0.1792(2) 0.2988(5)
C27 C 0.0724(1) 0.1087(2) 0.1363(5)
C28 C 0.1023(1) 0.1526(2) -0.0269(5)
C29 C 0.1586(1) 0.1860(2) 0.0275(5)
C30 C 0.1875(2) 0.2322(3) -0.1412(9)
C31 C 0.1659(3) 0.3326(4) -0.1930(7)
C32 C 0.1642(3) 0.4028(3) -0.0276(9)
C33 C 0.1333(2) 0.3556(3) 0.1353(7)
C34 C 0.1582(1) 0.2572(2) 0.1968(5)
C35 C 0.1234(2) 0.4287(3) 0.2931(8)
C36 C 0.0978(2) 0.5246(3) 0.2294(9)
C37 C 0.1311(3) 0.5733(3) 0.0760(11)
C38 C 0.1376(3) 0.4981(3) -0.0829(10)
C39 C 0.1623(3) 0.5570(4) -0.2409(12)
C40 C 0.1354(4) 0.6580(4) -0.2245(14)
C41 C 0.1051(3) 0.6586(4) -0.0353(13)
C42 C 0.1846(4) 0.6061(4) 0.1587(15)
C43 C 0.2149(1) 0.2719(2) 0.2728(5)
C44 C 0.1057(2) 0.7631(4) 0.0512(8)
C45 C 0.0774(3) 0.7680(5) 0.2392(9)
C46 C 0.0829(2) 0.8398(4) -0.0834(9)
C47 C 0.0254(2) 0.8250(4) -0.1428(9)
C48 C 0.0085(2) 0.9041(4) -0.2768(8)
O4 O 0.0188(1) 0.0851(2) 0.0861(5)
O5 O 0.0450(2) 0.5041(4) 0.1626(7)
O6 O 0.0097(2) 0.9906(3) -0.2423(7)
O7 O -0.0090(1) 0.8722(3) -0.4354(6)
H21 H 0.1226 0.2484 0.4701
H22 H 0.0473 0.2334 0.2558
H23 H 0.0486 0.1458 0.3924
H24 H 0.0927 0.0430 0.1647
H25 H 0.1060 0.1029 -0.1210
H26 H 0.0824 0.2055 -0.0828
H27 H 0.1780 0.1245 0.0691
H28 H 0.1837 0.1881 -0.2447
H29 H 0.1882 0.3604 -0.2973
H30 H 0.1303 0.3270 -0.2460
H31 H 0.2013 0.4146 0.0215
H32 H 0.0968 0.3404 0.0779
H33 H 0.1013 0.4043 0.3815
H34 H 0.1583 0.4448 0.3464
H35 H 0.0953 0.5652 0.3273
H36 H 0.1025 0.4832 -0.1273
H37 H 0.2038 0.5598 -0.2320
H38 H 0.1550 0.5200 -0.3631
H39 H 0.1626 0.7046 -0.2202
H40 H 0.1090 0.6660 -0.3379
H41 H 0.0685 0.6385 -0.0592
H42 H 0.2062 0.6432 0.0748
H43 H 0.2076 0.5487 0.1937
H44 H 0.1798 0.6429 0.2633
H45 H 0.2396 0.3037 0.1824
H46 H 0.2298 0.2059 0.3035
H47 H 0.2159 0.3087 0.3931
H48 H 0.0215 0.0572 -0.0314
H49 H 0.0236 0.5245 0.2375
H50 H 0.1407 0.7855 0.0619
H51 H 0.0973 0.7467 0.3215
H52 H 0.0466 0.7321 0.2303
H53 H 0.0766 0.8181 0.2905
H54 H 0.1090 0.8335 -0.1979
H55 H 0.0025 0.8405 -0.0287
H56 H 0.0200 0.7535 -0.2020
H57 H -0.0196 0.9220 -0.5195
H58 H 0.1500 0.1584 0.4251
H59 H 0.2352 0.2570 -0.0990
C1 C 0.2215 -0.0440 0.5392
C2 C 0.2648 0.0255 -0.0194
C3 C 0.2507 0.0024 0.1772
C4 C 0.2048 -0.0513 0.2111
C5 C 0.1905 -0.0742 0.3916
C6 C 0.2672 0.0093 0.5069
C7 C 0.2819 0.0326 0.3258
H1 H 0.1832 -0.0722 0.1039
H2 H 0.1569 -0.1133 0.4111
H3 H 0.2122 -0.0594 0.6737
H4 H 0.2894 0.0308 0.6144
H5 H 0.3156 0.0719 0.3054
C8 C 0.3163 0.0765 -0.0587
H6 H 0.3188 0.1402 0.0046
H7 H 0.3201 0.0885 -0.1940
H8 H 0.3469 0.0330 -0.0168
O1 O 0.2357 0.0002 -0.1451
H60? H 0.1405 0.1463 0.3904
H61? H 0.2275 0.2402 -0.1044
H62? H 0.0844 0.8060 -0.0466
C49? C 0.1309 0.2146 0.3662
C50? C 0.0777 0.1768 0.2993
C51? C 0.0854 0.1037 0.1444
C52? C 0.1182 0.1489 -0.0127
C53? C 0.1739 0.1863 0.0431
C54? C 0.1974 0.2398 -0.1283
C55? C 0.1685 0.3324 -0.1872
C56? C 0.1664 0.4053 -0.0261
C57? C 0.1393 0.3581 0.1432
C58? C 0.1669 0.2607 0.2136
C59? C 0.1322 0.4341 0.3004
C60? C 0.1056 0.5299 0.2407
C61? C 0.1350 0.5766 0.0749
C62? C 0.1371 0.4983 -0.0809
C63? C 0.1576 0.5548 -0.2496
C64? C 0.1315 0.6568 -0.2293
C65? C 0.1073 0.6625 -0.0297
C66? C 0.1907 0.6081 0.1381
C67? C 0.2197 0.2863 0.3106
O8? O 0.0344 0.0755 0.0737
O9? O 0.0512 0.5092 0.1987
C68? C 0.1057(2) 0.7631(4) 0.0512(8)
C69? C 0.0774(3) 0.7680(5) 0.2392(9)
C70? C 0.0829(2) 0.8398(4) -0.0834(9)
C71? C 0.0254(2) 0.8250(4) -0.1428(9)
C72? C 0.0085(2) 0.9041(4) -0.2768(8)
O10? O 0.0097(2) 0.9906(3) -0.2423(7)
O11? O -0.0090(1) 0.8722(3) -0.4354(6)
C73? C 0.2113(5) 0.0943(11) 0.0763(20)
O12? O 0.2657(6) 0.1209(16) 0.0456(27)
C74? C 0.1960(11) 0.0204(21) -0.0769(25)
C75? C 0.2079(9) 0.0395(17) 0.2656(22)
C76? C 0.1699(9) -0.0315(17) 0.3046(22)
C77? C 0.1671(9) -0.0723(17) 0.4809(22)
C78? C 0.2018(9) -0.0430(17) 0.6191(22)
C79? C 0.2397(9) 0.027(11) 0.5816(22)
C80? C 0.2428(9) 0.0688(17) 0.4047(22)
H63? H 0.1231 0.2651 0.4646
H64? H 0.0555 0.2321 0.2533
H65? H 0.0590 0.1439 0.4058
H66? H 0.1045 0.1446 0.1928
H67? H 0.0978 0.2066 -0.0619
H68? H 0.1230 0.1004 -0.1124
H69? H 0.1962 0.1940 -0.2361
H70? H 0.1321 0.3186 -0.2272
H71? H 0.1888 0.3642 -0.2929
H72? H 0.2046 0.4227 0.0102
H73? H 0.1025 0.3427 0.1012
H74? H 0.1676 0.4501 0.3578
H75? H 0.1094 0.4027 0.4037
H76? H 0.1047 0.5781 0.3475
H77? H 0.0992 0.4790 -0.1088
H78? H 0.1471 0.5231 -0.3686
H79? H 0.1976 0.5597 -0.2447
H80? H 0.1579 0.7054 -0.2365
H81? H 0.1010 0.6633 -0.3285
H82? H 0.0735 0.6372 -0.0570
H83? H 0.2104 0.6504 0.0849
H84? H 0.2128 0.5565 0.2055
H85? H 0.1831 0.6495 0.2718
H86? H 0.2489 0.3134 0.2004
H87? H 0.2402 0.2157 0.3226
H88? H 0.2241 0.3181 0.4096
H89? H 0.0361 0.0537 -0.0218
H90? H 0.0291 0.5221 0.2390
H91? H 0.1407(25) 0.7855(44) 0.0619(91)
H92? H 0.0973(26) 0.7467(45) 0.322(10)
H93? H 0.0466(27) 0.7321(45) 0.2303(93)
H94? H 0.0766(26) 0.8181(51) 0.2905(98)
H95? H 0.1090(24) 0.8335(43) -0.1979(94)
H96? H 0.0844(23) 0.9060(44) -0.0466(89)
H97? H 0.0025(24) 0.8405(45) -0.0287(95)
H98? H 0.0200(23) 0.7535(42) -0.2020(93)
H99? H -0.0196(24) 0.9220(46) -0.5195(90)
H100? H 0.1643(11) -0.0146(21) -0.1533(25)
H101? H 0.1930(11) 0.0987(21) -0.0935(25)
H102? H 0.1928(11) 0.0020(21) 0.0690(25)
H103? H 0.1454(9) -0.0515(17) 0.2041(22)
H104? H 0.1390(9) -0.1236(17) 0.5044(22)
H105? H 0.2009(9) -0.0713(17) 0.7502(22)
H106? H 0.2646(9) 0.0482(17) 0.6824(22)
H107? H 0.2710(9) 0.1204(17) 0.3804(22)
H108? H 0.2036 -0.1056 -0.9656
H109? H 0.3301 0.0946 -1.2293
H110? H 0.3567 0.1486 -1.0344
H111? H 0.3145 0.8368 0.8690
O13? O 0.2386 -0.0232 1.0162
C81? C 0.2653 0.0084 1.1437
C82? C 0.2445 0.0046 1.3379
C83? C 0.1954 -0.0387 1.3687
C84? C 0.1746 -0.0435 1.5469
C85? C 0.2030 -0.0055 1.6952
C86? C 0.2519 0.0376 1.6659
C87? C 0.2727 0.0428 1.4871
H112? H 0.1758 -0.0654 1.2610
H113? H 0.1390 -0.0755 1.5643
H114? H 0.1892 -0.0077 1.8280
H115? H 0.2718 0.0648 1.7839
H116? H 0.3088 0.0748 1.4689
C88? C 0.3200 0.0478 1.1105
H117? H 0.3238 0.1155 1.1549
H118? H 0.3282 0.0474 0.9755
H119? H 0.3468 0.0043 1.1764
loop_
_geom_bond_atom_site_label_1
_geom_bond_atom_site_label_2
_geom_bond_site_symmetry_1
_geom_bond_site_symmetry_2
C1 C5 1_555 1_555
C2 C3 1_555 1_555
C3 C4 1_555 1_555
C4 C5 1_555 1_555
C5 H2 1_555 1_555
C6 C1 1_555 1_555
C7 C3 1_555 1_555
H1 C4 1_555 1_555
H3 C1 1_555 1_555
H4 C6 1_555 1_555
H5 C7 1_555 1_555
C8 C2 1_555 1_555
H6 C8 1_555 1_555
H7 C8 1_555 1_555
H8 C8 1_555 1_555
O1 C2 1_555 1_555
C9 C13 1_555 1_555
C10 C11 1_555 1_555
C11 C12 1_555 1_555
C12 C13 1_555 1_555
C13 H9 1_555 1_555
C14 C9 1_555 1_555
C15 C11 1_555 1_555
H10 C9 1_555 1_555
H11 C14 1_555 1_555
H12 C15 1_555 1_555
C16 C10 1_555 1_555
H13 C16 1_555 1_555
O2 C10 1_555 1_555
O3 C17 1_555 1_555
C17 C18 1_555 1_555
C18 C19 1_555 1_555
C19 C20 1_555 1_555
C20 C21 1_555 1_555
C21 C22 1_555 1_555
C22 C23 1_555 1_555
C23 C18 1_555 1_555
H14 C19 1_555 1_555
H15 C20 1_555 1_555
H16 C21 1_555 1_555
H17 C22 1_555 1_555
H18 C23 1_555 1_555
C24 C17 1_555 1_555
H19 C24 1_555 1_555
H20 C24 1_555 1_555
C25 C26 1_555 1_555
C26 C27 1_555 1_555
C27 C28 1_555 1_555
C28 C29 1_555 1_555
C29 C30 1_555 1_555
C30 C31 1_555 1_555
C31 C32 1_555 1_555
C32 C33 1_555 1_555
C33 C34 1_555 1_555
C34 C25 1_555 1_555
C35 C33 1_555 1_555
C36 C35 1_555 1_555
C37 C36 1_555 1_555
C38 C32 1_555 1_555
C39 C38 1_555 1_555
C40 C39 1_555 1_555
C41 C37 1_555 1_555
C42 C37 1_555 1_555
C43 C34 1_555 1_555
C44 C41 1_555 1_555
C45 C44 1_555 1_555
C46 C44 1_555 1_555
C47 C46 1_555 1_555
C48 C47 1_555 1_555
O4 C27 1_555 1_555
O5 C36 1_555 1_555
O6 C48 1_555 1_555
O7 C48 1_555 1_555
H21 C25 1_555 1_555
H22 C26 1_555 1_555
H23 C26 1_555 1_555
H24 C27 1_555 1_555
H25 C28 1_555 1_555
H26 C28 1_555 1_555
H27 C29 1_555 1_555
H28 C30 1_555 1_555
H29 C31 1_555 1_555
H30 C31 1_555 1_555
H31 C32 1_555 1_555
H32 C33 1_555 1_555
H33 C35 1_555 1_555
H34 C35 1_555 1_555
H35 C36 1_555 1_555
H36 C38 1_555 1_555
H37 C39 1_555 1_555
H38 C39 1_555 1_555
H39 C40 1_555 1_555
H40 C40 1_555 1_555
H41 C41 1_555 1_555
H42 C42 1_555 1_555
H43 C42 1_555 1_555
H44 C42 1_555 1_555
H45 C43 1_555 1_555
H46 C43 1_555 1_555
H47 C43 1_555 1_555
H48 O4 1_555 1_555
H49 O5 1_555 1_555
H50 C44 1_555 1_555
H51 C45 1_555 1_555
H52 C45 1_555 1_555
H53 C45 1_555 1_555
H54 C46 1_555 1_555
H55 C47 1_555 1_555
H56 C47 1_555 1_555
H57 O7 1_555 1_555
H58 C25 1_555 1_555
H59 C30 1_555 1_555
C6 C7 1_555 1_555
C14 C15 1_555 1_555
C29 C34 1_555 1_555
C37 C38 1_555 1_555
C40 C41 1_555 1_555

#END
