
#######################################################################
#
#                 Cambridge Crystallographic Data Centre
#                                CCDC 
#
#######################################################################
#
# If this CIF has been generated from an entry in the Cambridge 
# Structural Database, then it will include bibliographic, chemical, 
# crystal, experimental, refinement or atomic coordinate data resulting 
# from the CCDC's data processing and validation procedures.
#
#######################################################################

data_BARJOT11
_chemical_name_common            'DrugBank: DB03619'
_chemical_formula_moiety         'C24 H40 O4,0.4(C8 H8 O1)'
_chemical_name_systematic        'Deoxycholic acid acetophenone'
_symmetry_cell_setting           orthorhombic
_symmetry_space_group_name_H-M   'P 21 21 21'
_symmetry_Int_Tables_number      19
_space_group_name_Hall           'P 2ac 2ab'
loop_
_symmetry_equiv_pos_site_id
_symmetry_equiv_pos_as_xyz
1 x,y,z
2 1/2+x,1/2-y,-z
3 -x,1/2+y,1/2-z
4 1/2-x,-y,1/2+z
_cell_length_a                   25.598(6)
_cell_length_b                   13.709(3)
_cell_length_c                   7.247(2)
_cell_angle_alpha                90
_cell_angle_beta                 90
_cell_angle_gamma                90
_cell_volume                     2543.14
_chemical_melting_point          177-178deg.C
_cell_formula_units_Z            4
loop_
_atom_site_label
_atom_site_type_symbol
_atom_site_fract_x
_atom_site_fract_y
_atom_site_fract_z
C1 C 0.1226(2) 0.2182(4) 0.3553(8)
H1 H 0.1191(15) 0.2590(31) 0.4649(62)
H2 H 0.1409(22) 0.1699(43) 0.4012(89)
C2 C 0.0680(2) 0.1871(4) 0.2593(9)
H3 H 0.0458(15) 0.2387(30) 0.2731(62)
H4 H 0.0532(18) 0.1590(34) 0.3935(68)
C3 C 0.0716(2) 0.1162(4) 0.1384(8)
H5 H 0.0920(18) 0.0470(37) 0.1956(80)
C4 C 0.1021(2) 0.1600(4) -0.0228(8)
H6 H 0.1036(17) 0.1130(32) -0.1182(68)
H7 H 0.0838(20) 0.2058(39) -0.0677(81)
C5 C 0.1567(2) 0.1944(3) 0.0322(8)
H8 H 0.1781(19) 0.1285(38) 0.1029(82)
C6 C 0.1859(2) 0.2381(4) -0.1324(9)
H9 H 0.1851(16) 0.1879(31) -0.2220(63)
H10 H 0.2313(20) 0.2449(38) -0.0993(79)
C7 C 0.1661(2) 0.3384(4) -0.1885(8)
H11 H 0.1893(21) 0.3760(39) -0.3265(83)
H12 H 0.1365(17) 0.3308(34) -0.2330(69)
C8 C 0.1635(2) 0.4101(3) -0.0247(8)
H13 H 0.2012(17) 0.4200(32) 0.0230(65)
C9 C 0.1322(2) 0.3649(3) 0.1363(7)
H14 H 0.0942(14) 0.3506(27) 0.0857(61)
C10 C 0.1550(2) 0.2657(3) 0.2008(7)
C11 C 0.1233(2) 0.4394(4) 0.2913(8)
H15 H 0.1050(15) 0.4124(29) 0.3925(61)
H16 H 0.1512(16) 0.4525(31) 0.3465(63)
C12 C 0.0995(2) 0.5357(3) 0.2260(7)
H17 H 0.0934(17) 0.5809(33) 0.3312(69)
C13 C 0.1320(2) 0.5815(3) 0.0710(7)
C14 C 0.1376(2) 0.5054(3) -0.0835(7)
H18 H 0.1064(17) 0.4915(32) -0.1281(64)
C15 C 0.1617(3) 0.5613(4) -0.2455(9)
H19 H 0.1995(18) 0.5656(35) -0.2318(76)
H20 H 0.1528(21) 0.5266(40) -0.3665(80)
C16 C 0.1363(3) 0.6632(4) -0.2300(9)
H21 H 0.1658(22) 0.7058(41) -0.2494(90)
H22 H 0.1086(21) 0.6717(40) -0.3446(81)
C17 C 0.1069(2) 0.6670(3) -0.0424(7)
H23 H 0.0678(14) 0.6455(26) -0.0645(56)
C18 C 0.1849(2) 0.6135(4) 0.1531(9)
H24 H 0.2038(17) 0.6474(35) 0.0891(71)
H25 H 0.2075(16) 0.5581(32) 0.2036(66)
H26 H 0.1819(16) 0.6518(32) 0.2697(67)
C19 C 0.2107(2) 0.2793(4) 0.2799(10)
H27 H 0.2342(17) 0.3051(32) 0.2016(64)
H28 H 0.2246(17) 0.2248(32) 0.3200(65)
H29 H 0.2084(15) 0.3172(30) 0.4047(63)
C20 C 0.1069(2) 0.7707(3) 0.0398(7)
H30 H 0.1435(14) 0.7851(25) 0.0596(54)
C21 C 0.0793(2) 0.7774(4) 0.2268(9)
H31 H 0.1044(18) 0.7504(34) 0.3434(70)
H32 H 0.0447(19) 0.7508(37) 0.2330(79)
H33 H 0.0722(18) 0.8452(36) 0.2629(73)
C22 C 0.0849(2) 0.8463(4) -0.0986(8)
H34 H 0.1036(16) 0.8505(33) -0.2207(69)
H35 H 0.0873(17) 0.9129(33) -0.0573(68)
C23 C 0.0268(2) 0.8308(4) -0.1552(10)
H36 H 0.0019(21) 0.8289(40) -0.0515(81)
H37 H 0.0242(21) 0.7638(43) -0.2273(92)
C24 C 0.0110(2) 0.9121(4) -0.2822(8)
O1 O 0.0193(2) 0.0913(3) 0.0879(7)
O2 O 0.0468(2) 0.5169(3) 0.1611(6)
O3 O 0.0114(2) 0.9973(3) -0.2446(6)
O4 O -0.0074(1) 0.8823(3) -0.4389(6)
H38 H 0.0185(17) 0.0667(28) 0.0277(54)
H39 H 0.0313(18) 0.5317(41) 0.2102(74)
H40 H -0.0145(23) 0.9348(41) -0.5010(84)
C25? C 0.2647(6) -0.0040(14) 0.0858(18)
C26? C 0.2485(6) -0.0067(14) 0.2854(18)
C27? C 0.2021(6) -0.0561(14) 0.3325(18)
C28? C 0.1859(6) -0.0601(14) 0.5162(18)
C29? C 0.2154(6) -0.0153(4) 0.6537(18)
C30? C 0.2615(6) 0.0340(14) 0.6080(18)
C31? C 0.2781(6) 0.0383(14) 0.4237(18)
H41? H 0.1815(6) -0.0877(14) 0.2324(18)
H42? H 0.1520(6) -0.0966(14) 0.5455(18)
H43? H 0.2047(6) -0.0167(14) 0.7900(18)
H44? H 0.2826(6) 0.0662(14) 0.7083(18)
H45? H 0.3121(6) 0.0749(14) 0.3935(18)
C32? C 0.3166(6) 0.0422(14) 0.0350(18)
H46? H 0.3185(6) 0.1112(14) 0.0738(18)
H47? H 0.3218(6) 0.0401(14) -0.1019(18)
H48? H 0.3466(6) 0.0040(14) 0.0958(18)
O5? O 0.2374(6) -0.0429(14) -0.0320(18)
loop_
_geom_bond_atom_site_label_1
_geom_bond_atom_site_label_2
_geom_bond_site_symmetry_1
_geom_bond_site_symmetry_2
C1 H1 1_555 1_555
H2 C1 1_555 1_555
C2 C1 1_555 1_555
H3 C2 1_555 1_555
H4 C2 1_555 1_555
C3 C2 1_555 1_555
H5 C3 1_555 1_555
C4 C3 1_555 1_555
H6 C4 1_555 1_555
H7 C4 1_555 1_555
C5 C4 1_555 1_555
H8 C5 1_555 1_555
C6 C5 1_555 1_555
H9 C6 1_555 1_555
H10 C6 1_555 1_555
C7 C6 1_555 1_555
H11 C7 1_555 1_555
H12 C7 1_555 1_555
C8 C7 1_555 1_555
H13 C8 1_555 1_555
C9 C8 1_555 1_555
H14 C9 1_555 1_555
C10 C1 1_555 1_555
C11 C9 1_555 1_555
H15 C11 1_555 1_555
H16 C11 1_555 1_555
C12 C11 1_555 1_555
H17 C12 1_555 1_555
C13 C12 1_555 1_555
C14 C8 1_555 1_555
H18 C14 1_555 1_555
C15 C14 1_555 1_555
H19 C15 1_555 1_555
H20 C15 1_555 1_555
C16 C15 1_555 1_555
H21 C16 1_555 1_555
H22 C16 1_555 1_555
C17 C13 1_555 1_555
H23 C17 1_555 1_555
C18 C13 1_555 1_555
H24 C18 1_555 1_555
H25 C18 1_555 1_555
H26 C18 1_555 1_555
C19 C10 1_555 1_555
H27 C19 1_555 1_555
H28 C19 1_555 1_555
H29 C19 1_555 1_555
C20 C17 1_555 1_555
H30 C20 1_555 1_555
C21 C20 1_555 1_555
H31 C21 1_555 1_555
H32 C21 1_555 1_555
H33 C21 1_555 1_555
C22 C20 1_555 1_555
H34 C22 1_555 1_555
H35 C22 1_555 1_555
C23 C22 1_555 1_555
H36 C23 1_555 1_555
H37 C23 1_555 1_555
C24 C23 1_555 1_555
O1 C3 1_555 1_555
O2 C12 1_555 1_555
O3 C24 1_555 1_555
O4 C24 1_555 1_555
H38 O1 1_555 1_555
H39 O2 1_555 1_555
H40 O4 1_555 1_555
C5 C10 1_555 1_555
C9 C10 1_555 1_555
C13 C14 1_555 1_555
C16 C17 1_555 1_555

#END
