
#######################################################################
#
#                 Cambridge Crystallographic Data Centre
#                                CCDC 
#
#######################################################################
#
# If this CIF has been generated from an entry in the Cambridge 
# Structural Database, then it will include bibliographic, chemical, 
# crystal, experimental, refinement or atomic coordinate data resulting 
# from the CCDC's data processing and validation procedures.
#
#######################################################################

data_BARTUS10
_chemical_formula_moiety         'C31 H33 Br1 O9,C6 H6'
_chemical_name_systematic        
'Barbatusin p-bromobenzoyl ester benzene solvate'
_symmetry_cell_setting           monoclinic
_symmetry_space_group_name_H-M   'P 21'
_symmetry_Int_Tables_number      4
_space_group_name_Hall           'P 2yb'
loop_
_symmetry_equiv_pos_site_id
_symmetry_equiv_pos_as_xyz
1 x,y,z
2 -x,1/2+y,-z
_cell_length_a                   10.135(3)
_cell_length_b                   24.184(6)
_cell_length_c                   7.707(2)
_cell_angle_alpha                90
_cell_angle_beta                 109.77
_cell_angle_gamma                90
_cell_volume                     1777.68
_chemical_melting_point          173deg.C
_cell_formula_units_Z            2
loop_
_atom_site_label
_atom_site_type_symbol
_atom_site_fract_x
_atom_site_fract_y
_atom_site_fract_z
Br1 Br -0.07502 -0.25000 -0.06306
C1 C 0.45950 -0.59340 -0.30930
C2 C 0.42650 -0.63530 -0.18000
C3 C 0.26940 -0.64730 -0.22240
C4 C 0.16210 -0.60300 -0.30710
C5 C 0.21140 -0.56030 -0.42990
C6 C 0.09570 -0.53580 -0.58870
C7 C 0.14670 -0.48540 -0.67380
C8 C 0.29370 -0.49560 -0.67970
C9 C 0.37110 -0.53900 -0.60600
C10 C 0.33440 -0.58590 -0.49240
C11 C 0.51250 -0.54620 -0.63790
C12 C 0.58180 -0.49150 -0.65740
C13 C 0.48170 -0.45750 -0.80460
C14 C 0.33220 -0.45770 -0.80860
O1 O 0.23770 -0.69320 -0.18090
C15 C 0.02230 -0.63040 -0.39820
C16 C 0.15300 -0.56690 -0.14050
O2 O 0.03190 -0.57570 -0.73380
C17 C -0.10480 -0.56740 -0.84170
O3 O -0.16610 -0.52470 -0.83270
C18 C -0.15950 -0.61460 -0.97340
O4 O 0.15510 -0.43850 -0.55240
C19 C 0.06710 -0.39630 -0.62240
O5 O 0.00510 -0.39130 -0.78520
C20 C 0.04760 -0.35750 -0.48350
C21 C -0.03070 -0.31130 -0.53880
C22 C -0.06860 -0.27750 -0.41790
C23 C -0.01580 -0.29200 -0.22900
C24 C 0.06670 -0.33620 -0.17000
C25 C 0.10100 -0.37030 -0.29470
C26 C 0.30060 -0.63840 -0.60380
O6 O 0.55580 -0.59030 -0.66540
O7 O 0.61520 -0.46040 -0.48550
C27 C 0.74100 -0.46830 -0.35860
O8 O 0.82000 -0.50230 -0.37640
C28 C 0.77450 -0.42750 -0.20500
C29 C 0.49840 -0.45650 -0.99540
C30 C 0.52570 -0.40580 -0.88190
C31 C 0.67240 -0.38270 -0.79850
O9 O 0.24520 -0.42880 -0.91280
H1 H 0.50800 -0.63000 -0.36500
H2 H 0.51100 -0.55700 -0.25400
H3 H 0.49200 -0.62200 -0.02300
H4 H 0.46500 -0.67700 -0.20300
H5 H 0.24900 -0.52800 -0.34700
H6 H 0.02600 -0.52000 -0.55500
H7 H 0.06500 -0.46400 -0.79400
H8 H 0.65000 -0.49800 -0.67700
H9 H 0.01400 -0.66200 -0.50200
H10 H -0.02300 -0.61700 -0.44900
H11 H 0.12000 -0.60700 -0.06200
H12 H 0.09400 -0.52600 -0.15600
H13 H 0.23000 -0.54400 -0.06700
H14 H -0.09600 -0.66200 -0.94900
H15 H -0.23900 -0.64000 -0.92800
H16 H -0.18000 -0.59000 -1.00900
H17 H 0.08800 -0.34700 -0.04200
H18 H 0.13900 -0.40300 -0.26300
H19 H 0.26900 -0.66800 -0.57200
H20 H 0.22400 -0.65000 -0.71800
H21 H 0.85400 -0.42900 -0.12800
H22 H 0.70600 -0.38700 -0.23700
H23 H 0.74700 -0.45700 -0.16100
H24 H 0.56600 -0.48700 -1.00800
H25 H 0.40300 -0.46500 -1.12000
H26 H 0.44500 -0.36700 -0.94300
H27 H 0.68200 -0.36700 -0.67400
H28 H 0.70900 -0.42100 -0.76300
C32 C -0.32600 0.27500 0.44700
C33 C -0.42000 0.25600 0.28300
C34 C -0.49300 0.21100 0.31000
C35 C -0.45600 0.18800 0.48100
C36 C -0.35000 0.20600 0.62400
C37 C -0.29700 0.25300 0.61200
loop_
_geom_bond_atom_site_label_1
_geom_bond_atom_site_label_2
_geom_bond_site_symmetry_1
_geom_bond_site_symmetry_2
Br1 C23 1_555 1_555
C1 C2 1_555 1_555
C2 C3 1_555 1_555
C3 C4 1_555 1_555
C4 C5 1_555 1_555
C5 C6 1_555 1_555
C6 C7 1_555 1_555
C7 C8 1_555 1_555
C8 C9 1_555 1_555
C9 C10 1_555 1_555
C10 C1 1_555 1_555
C11 C9 1_555 1_555
C12 C11 1_555 1_555
C13 C12 1_555 1_555
C14 C8 1_555 1_555
O1 C3 1_555 1_555
C15 C4 1_555 1_555
C16 C4 1_555 1_555
O2 C6 1_555 1_555
C17 O2 1_555 1_555
O3 C17 1_555 1_555
C18 C17 1_555 1_555
O4 C7 1_555 1_555
C19 O4 1_555 1_555
O5 C19 1_555 1_555
C20 C19 1_555 1_555
C21 C20 1_555 1_555
C22 C21 1_555 1_555
C23 C22 1_555 1_555
C24 C23 1_555 1_555
C25 C20 1_555 1_555
C26 C10 1_555 1_555
O6 C11 1_555 1_555
O7 C12 1_555 1_555
C27 O7 1_555 1_555
O8 C27 1_555 1_555
C28 C27 1_555 1_555
C29 C13 1_555 1_555
C30 C13 1_555 1_555
C31 C30 1_555 1_555
O9 C14 1_555 1_555
C32 C33 1_555 1_555
C33 C34 1_555 1_555
C34 C35 1_555 1_555
C35 C36 1_555 1_555
C36 C37 1_555 1_555
C37 C32 1_555 1_555
H1 C1 1_555 1_555
H2 C1 1_555 1_555
H3 C2 1_555 1_555
H4 C2 1_555 1_555
H5 C5 1_555 1_555
H6 C6 1_555 1_555
H7 C7 1_555 1_555
H8 C12 1_555 1_555
H9 C15 1_555 1_555
H10 C15 1_555 1_555
H11 C16 1_555 1_555
H12 C16 1_555 1_555
H13 C16 1_555 1_555
H14 C18 1_555 1_555
H15 C18 1_555 1_555
H16 C18 1_555 1_555
H17 C24 1_555 1_555
H18 C25 1_555 1_555
H19 C26 1_555 1_555
H20 C26 1_555 1_555
H21 C28 1_555 1_555
H22 C28 1_555 1_555
H23 C28 1_555 1_555
H24 C29 1_555 1_555
H25 C29 1_555 1_555
H26 C30 1_555 1_555
H27 C31 1_555 1_555
H28 C31 1_555 1_555
C5 C10 1_555 1_555
C13 C14 1_555 1_555
C24 C25 1_555 1_555
C29 C30 1_555 1_555

#END
