
#######################################################################
#
#                 Cambridge Crystallographic Data Centre
#                                CCDC 
#
#######################################################################
#
# If this CIF has been generated from an entry in the Cambridge 
# Structural Database, then it will include bibliographic, chemical, 
# crystal, experimental, refinement or atomic coordinate data resulting 
# from the CCDC's data processing and validation procedures.
#
#######################################################################

data_BARWEZ
_chemical_formula_moiety         'C22 H18 O6'
_chemical_name_systematic        
'methyl 1-(4-acetoxybenzylidene)-7-hydroxy-3a,8b-dihydro-1H-benzo[b]cyclopenta[d]furan-8-carboxylate'
_symmetry_cell_setting           monoclinic
_symmetry_space_group_name_H-M   'P 21'
_symmetry_Int_Tables_number      4
_space_group_name_Hall           'P 2yb'
loop_
_symmetry_equiv_pos_site_id
_symmetry_equiv_pos_as_xyz
1 x,y,z
2 -x,1/2+y,-z
_cell_length_a                   7.67071(16)
_cell_length_b                   13.2339(2)
_cell_length_c                   9.6030(2)
_cell_angle_alpha                90
_cell_angle_beta                 112.936(3)
_cell_angle_gamma                90
_cell_volume                     897.764
_exptl_crystal_colour            'light colorless'
_exptl_crystal_description       plate
_cell_formula_units_Z            2
loop_
_atom_site_label
_atom_site_type_symbol
_atom_site_fract_x
_atom_site_fract_y
_atom_site_fract_z
O1 O 0.3775(3) 0.37667(14) 0.6771(2)
O2 O 0.5461(3) 0.41788(17) 0.9177(2)
O3 O 1.1041(3) 0.42185(16) 0.9037(2)
O4 O -0.0287(3) 0.66840(17) 0.4474(2)
O5 O 0.4915(3) 0.58998(18) 1.0180(2)
H1 H 0.5385 0.5322 1.0213
O6 O 0.9588(3) 0.29463(18) 0.9706(3)
C1 C 0.3416(4) 0.5413(2) 0.7552(3)
C2 C 0.2129(4) 0.5687(2) 0.6090(3)
C3 C 0.2742(4) 0.5414(2) 0.3613(3)
C4 C 1.0975(4) 0.3413(2) 0.9913(3)
C5 C 0.4336(3) 0.4410(2) 0.7917(3)
C6 C 0.6189(4) 0.4987(2) 0.5283(3)
C7 C 0.3695(4) 0.6103(2) 0.8740(3)
C8 C 0.8730(4) 0.3813(2) 0.6560(3)
H2 H 0.9361 0.3194 0.6567
C9 C 0.4575(4) 0.5303(2) 0.3887(3)
H3 H 0.4904 0.5449 0.3052
C10 C 0.1408(4) 0.5796(2) 0.2149(3)
H4 H 0.1731 0.5911 0.1303
C11 C 0.9380(4) 0.4451(2) 0.7796(3)
C12 C 0.1074(4) 0.6560(2) 0.5907(3)
C13 C 0.1556(4) 0.5198(2) 0.4556(3)
H5 H 0.1355 0.4455 0.4618
C14 C -0.0300(4) 0.5964(2) 0.2144(3)
H6 H -0.1357 0.6194 0.1292
C15 C 0.4601(4) 0.2765(2) 0.7102(4)
H7 H 0.4177 0.2364 0.6171
H8 H 0.4199 0.2434 0.7842
H9 H 0.5984 0.2819 0.7519
C16 C 0.7145(4) 0.4090(2) 0.5312(3)
H10 H 0.6700 0.3657 0.4455
C17 C -0.0339(4) 0.5743(2) 0.3656(3)
H11 H -0.1453 0.5316 0.3569
C18 C 0.6906(4) 0.5627(2) 0.6536(3)
H12 H 0.6296 0.6253 0.6526
C19 C 1.2884(4) 0.3224(2) 1.1132(4)
H13 H 1.3572 0.2732 1.0775
H14 H 1.2733 0.2958 1.2031
H15 H 1.3597 0.3859 1.1387
C20 C 0.1350(4) 0.7236(2) 0.7077(4)
H16 H 0.0635 0.7843 0.6912
C21 C 0.8501(4) 0.5360(2) 0.7798(3)
H17 H 0.8978 0.5796 0.8649
C22 C 0.2695(4) 0.7002(2) 0.8488(4)
H18 H 0.2937 0.7465 0.9299
loop_
_geom_bond_atom_site_label_1
_geom_bond_atom_site_label_2
_geom_bond_site_symmetry_1
_geom_bond_site_symmetry_2
O1 C5 1_555 1_555
O2 C5 1_555 1_555
O3 C4 1_555 1_555
O4 C12 1_555 1_555
O5 H1 1_555 1_555
O6 C4 1_555 1_555
C1 C2 1_555 1_555
C2 C12 1_555 1_555
C3 C9 1_555 1_555
C4 C19 1_555 1_555
C5 C1 1_555 1_555
C6 C9 1_555 1_555
C7 O5 1_555 1_555
C8 H2 1_555 1_555
C9 H3 1_555 1_555
C10 C3 1_555 1_555
H4 C10 1_555 1_555
C11 O3 1_555 1_555
C12 C20 1_555 1_555
C13 C2 1_555 1_555
H5 C13 1_555 1_555
C14 C10 1_555 1_555
H6 C14 1_555 1_555
C15 O1 1_555 1_555
H7 C15 1_555 1_555
H8 C15 1_555 1_555
H9 C15 1_555 1_555
C16 C6 1_555 1_555
H10 C16 1_555 1_555
C17 O4 1_555 1_555
H11 C17 1_555 1_555
C18 C6 1_555 1_555
H12 C18 1_555 1_555
C19 H13 1_555 1_555
H14 C19 1_555 1_555
H15 C19 1_555 1_555
C20 H16 1_555 1_555
C21 C11 1_555 1_555
H17 C21 1_555 1_555
C22 C7 1_555 1_555
H18 C22 1_555 1_555
C1 C7 1_555 1_555
C3 C13 1_555 1_555
C8 C11 1_555 1_555
C8 C16 1_555 1_555
C13 C17 1_555 1_555
C14 C17 1_555 1_555
C18 C21 1_555 1_555
C20 C22 1_555 1_555

#END
