
#######################################################################
#
#                 Cambridge Crystallographic Data Centre
#                                CCDC 
#
#######################################################################
#
# If this CIF has been generated from an entry in the Cambridge 
# Structural Database, then it will include bibliographic, chemical, 
# crystal, experimental, refinement or atomic coordinate data resulting 
# from the CCDC's data processing and validation procedures.
#
#######################################################################

data_BARZAX
_chemical_name_common            
'tetramethylazacalix[4]pyrazine methanol solvate'
_chemical_formula_moiety         'C20 H20 N12,0.5(C1 H4 O1)'
_chemical_name_systematic        
'2,4,6,8-tetramethyl-2,4,6,8-tetraza-1,3,5,7(2,6)-tetrapyrazinacyclooctaphane methanol solvate'
_symmetry_cell_setting           triclinic
_symmetry_space_group_name_H-M   'P -1'
_symmetry_Int_Tables_number      2
_space_group_name_Hall           '-P 1'
loop_
_symmetry_equiv_pos_site_id
_symmetry_equiv_pos_as_xyz
1 x,y,z
2 -x,-y,-z
_cell_length_a                   10.115(2)
_cell_length_b                   10.646(2)
_cell_length_c                   20.672(4)
_cell_angle_alpha                75.51(3)
_cell_angle_beta                 88.28(3)
_cell_angle_gamma                76.32(3)
_cell_volume                     2093.1
_exptl_crystal_colour            'light yellow'
_exptl_crystal_description       block
_cell_formula_units_Z            4
loop_
_atom_site_label
_atom_site_type_symbol
_atom_site_fract_x
_atom_site_fract_y
_atom_site_fract_z
O1 O -0.53253(19) 1.24953(19) 0.17646(10)
H1 H -0.4719 1.1885 0.1669
C41 C -0.6514(3) 1.2011(3) 0.18054(16)
H42 H -0.6367 1.1151 0.2139
H43 H -0.6730 1.1892 0.1369
H44 H -0.7272 1.2651 0.1937
N1 N -0.5860(2) 0.2528(2) 0.52510(11)
N2 N -0.37154(19) 0.31767(19) 0.44798(10)
N3 N -0.4406(2) 0.2404(2) 0.36275(10)
N4 N -0.2356(2) 0.1992(2) 0.30658(10)
N5 N -0.2641(2) 0.4740(2) 0.25533(12)
N6 N -0.0282(2) 0.1542(2) 0.25283(10)
N7 N 0.2696(2) -0.0667(2) 0.35091(11)
N8 N 0.04869(19) 0.13984(19) 0.35932(9)
N9 N 0.1122(2) 0.12581(19) 0.46802(9)
N10 N -0.0329(2) 0.4851(2) 0.41251(11)
N11 N -0.08270(19) 0.25968(19) 0.50317(10)
N12 N -0.2896(2) 0.3892(2) 0.53148(10)
C1 C -0.5677(2) 0.2264(3) 0.46544(13)
H2 H -0.6276 0.1834 0.4495
C2 C -0.4599(2) 0.2618(2) 0.42571(12)
C3 C -0.3879(2) 0.3389(2) 0.50910(12)
C4 C -0.4989(2) 0.3090(2) 0.54731(12)
H3 H -0.5116 0.3294 0.5896
C5 C -0.5010(3) 0.1427(3) 0.34367(15)
H4 H -0.5697 0.1192 0.3759
H5 H -0.4299 0.0623 0.3434
H6 H -0.5439 0.1809 0.2990
C6 C -0.3384(2) 0.2883(2) 0.32216(12)
C7 C -0.1440(2) 0.2485(2) 0.26599(11)
C8 C -0.1595(3) 0.3835(3) 0.23970(13)
H7 H -0.0943 0.4137 0.2096
C9 C -0.3511(3) 0.4253(3) 0.29731(13)
H8 H -0.4250 0.4856 0.3111
C10 C 0.0060(3) 0.1562(3) 0.18364(12)
H9 H 0.0875 0.0854 0.1826
H10 H 0.0236 0.2430 0.1611
H11 H -0.0701 0.1413 0.1606
C11 C 0.0691(2) 0.0951(2) 0.30411(12)
C12 C 0.1804(2) -0.0095(2) 0.30011(12)
H12 H 0.1922 -0.0401 0.2604
C13 C 0.2493(2) -0.0231(2) 0.40631(12)
H13 H 0.3116 -0.0629 0.4433
C14 C 0.1379(2) 0.0799(2) 0.41065(11)
C15 C 0.1605(3) 0.0382(3) 0.53380(12)
H14 H 0.2217 -0.0444 0.5282
H15 H 0.0825 0.0170 0.5599
H16 H 0.2095 0.0835 0.5573
C16 C 0.0223(2) 0.2516(2) 0.46352(11)
C17 C 0.0463(2) 0.3648(2) 0.41775(12)
H17 H 0.1219 0.3547 0.3896
C18 C -0.1415(2) 0.4931(2) 0.45158(12)
H18 H -0.2019 0.5775 0.4491
C19 C -0.1667(2) 0.3804(2) 0.49536(11)
C20 C -0.2894(3) 0.4062(3) 0.59893(12)
H19 H -0.3808 0.4101 0.6168
H20 H -0.2631 0.4894 0.5983
H21 H -0.2244 0.3307 0.6273
N13 N -0.3211(2) 1.0414(2) 0.14922(11)
N14 N -0.0923(2) 0.8421(2) 0.14453(10)
N15 N -0.1276(2) 0.8692(2) 0.03205(10)
N16 N 0.0793(2) 0.7392(2) 0.00599(10)
N17 N 0.0163(2) 0.5086(2) 0.08686(11)
N18 N 0.2963(2) 0.6126(2) -0.01188(10)
N19 N 0.5883(2) 0.7306(2) 0.02701(12)
N20 N 0.3563(2) 0.6604(2) 0.08414(10)
N21 N 0.4057(2) 0.7064(2) 0.18283(12)
N22 N 0.1804(2) 0.4844(2) 0.25020(11)
N23 N 0.1820(2) 0.7551(2) 0.22063(10)
N24 N -0.0437(2) 0.8082(2) 0.25600(11)
C21 C -0.2844(3) 1.0107(2) 0.09166(13)
H22 H -0.3365 1.0582 0.0519
C22 C -0.1692(2) 0.9086(2) 0.08955(12)
C23 C -0.1287(2) 0.8752(2) 0.20183(12)
C24 C -0.2460(3) 0.9749(2) 0.20463(13)
H23 H -0.2720 0.9951 0.2461
C25 C -0.1710(3) 0.9573(3) -0.03356(14)
H24 H -0.2335 1.0397 -0.0284
H25 H -0.2174 0.9127 -0.0587
H26 H -0.0912 0.9791 -0.0578
C26 C -0.0358(2) 0.7435(2) 0.03841(12)
C27 C 0.1648(2) 0.6188(2) 0.01620(12)
C28 C 0.1344(2) 0.5045(2) 0.05524(13)
H27 H 0.1982 0.4213 0.0599
C29 C -0.0669(2) 0.6281(2) 0.07866(13)
H28 H -0.1509 0.6358 0.1009
C30 C 0.3089(3) 0.6144(3) -0.08235(12)
H29 H 0.4038 0.6098 -0.0949
H30 H 0.2506 0.6970 -0.1092
H31 H 0.2807 0.5375 -0.0904
C31 C 0.3872(2) 0.6542(2) 0.02145(12)
C32 C 0.5056(3) 0.6889(3) -0.00738(14)
H32 H 0.5266 0.6824 -0.0517
C33 C 0.5567(3) 0.7385(3) 0.08900(15)
H33 H 0.6137 0.7699 0.1138
C34 C 0.4405(2) 0.7011(2) 0.11829(13)
C35 C 0.4656(3) 0.7847(3) 0.21718(16)
H34 H 0.5457 0.8066 0.1934
H35 H 0.4928 0.7328 0.2630
H36 H 0.3986 0.8673 0.2182
C36 C 0.2879(2) 0.6636(3) 0.20909(12)
C37 C 0.2869(3) 0.5287(3) 0.22333(13)
H37 H 0.3645 0.4669 0.2136
C38 C 0.0731(3) 0.5775(3) 0.26116(12)
H38 H -0.0057 0.5505 0.2800
C39 C 0.0737(2) 0.7108(3) 0.24602(12)
C40 C -0.0836(3) 0.8153(3) 0.32341(13)
H39 H -0.1655 0.8872 0.3213
H40 H -0.0095 0.8331 0.3466
H41 H -0.1026 0.7301 0.3478
loop_
_geom_bond_atom_site_label_1
_geom_bond_atom_site_label_2
_geom_bond_site_symmetry_1
_geom_bond_site_symmetry_2
O1 H1 1_555 1_555
N1 C1 1_555 1_555
N2 C2 1_555 1_555
N3 C2 1_555 1_555
N4 C6 1_555 1_555
N5 C8 1_555 1_555
N6 C7 1_555 1_555
N7 C12 1_555 1_555
N8 C11 1_555 1_555
N9 C14 1_555 1_555
N10 C17 1_555 1_555
N11 C16 1_555 1_555
N12 C3 1_555 1_555
N13 C21 1_555 1_555
N14 C22 1_555 1_555
N15 C22 1_555 1_555
N16 C26 1_555 1_555
N17 C28 1_555 1_555
N18 C27 1_555 1_555
N19 C32 1_555 1_555
N20 C31 1_555 1_555
N21 C34 1_555 1_555
N22 C37 1_555 1_555
N23 C36 1_555 1_555
N24 C23 1_555 1_555
C1 H2 1_555 1_555
C2 C1 1_555 1_555
C3 N2 1_555 1_555
C4 N1 1_555 1_555
H3 C4 1_555 1_555
C5 N3 1_555 1_555
H4 C5 1_555 1_555
H5 C5 1_555 1_555
H6 C5 1_555 1_555
C6 N3 1_555 1_555
C7 N4 1_555 1_555
C8 C7 1_555 1_555
H7 C8 1_555 1_555
C9 N5 1_555 1_555
H8 C9 1_555 1_555
C10 N6 1_555 1_555
H9 C10 1_555 1_555
H10 C10 1_555 1_555
H11 C10 1_555 1_555
C11 N6 1_555 1_555
C12 C11 1_555 1_555
H12 C12 1_555 1_555
C13 N7 1_555 1_555
H13 C13 1_555 1_555
C14 N8 1_555 1_555
C15 N9 1_555 1_555
H14 C15 1_555 1_555
H15 C15 1_555 1_555
H16 C15 1_555 1_555
C16 N9 1_555 1_555
C17 C16 1_555 1_555
H17 C17 1_555 1_555
C18 N10 1_555 1_555
H18 C18 1_555 1_555
C19 N11 1_555 1_555
C20 N12 1_555 1_555
H19 C20 1_555 1_555
H20 C20 1_555 1_555
H21 C20 1_555 1_555
C21 H22 1_555 1_555
C22 C21 1_555 1_555
C23 N14 1_555 1_555
C24 N13 1_555 1_555
H23 C24 1_555 1_555
C25 N15 1_555 1_555
H24 C25 1_555 1_555
H25 C25 1_555 1_555
H26 C25 1_555 1_555
C26 N15 1_555 1_555
C27 N16 1_555 1_555
C28 C27 1_555 1_555
H27 C28 1_555 1_555
C29 N17 1_555 1_555
H28 C29 1_555 1_555
C30 N18 1_555 1_555
H29 C30 1_555 1_555
H30 C30 1_555 1_555
H31 C30 1_555 1_555
C31 N18 1_555 1_555
C32 C31 1_555 1_555
H32 C32 1_555 1_555
C33 N19 1_555 1_555
H33 C33 1_555 1_555
C34 N20 1_555 1_555
C35 N21 1_555 1_555
H34 C35 1_555 1_555
H35 C35 1_555 1_555
H36 C35 1_555 1_555
C36 N21 1_555 1_555
C37 C36 1_555 1_555
H37 C37 1_555 1_555
C38 N22 1_555 1_555
H38 C38 1_555 1_555
C39 N23 1_555 1_555
C40 N24 1_555 1_555
H39 C40 1_555 1_555
H40 C40 1_555 1_555
H41 C40 1_555 1_555
C41 O1 1_555 1_555
H42 C41 1_555 1_555
H43 C41 1_555 1_555
H44 C41 1_555 1_555
N12 C19 1_555 1_555
N24 C39 1_555 1_555
C3 C4 1_555 1_555
C6 C9 1_555 1_555
C13 C14 1_555 1_555
C18 C19 1_555 1_555
C23 C24 1_555 1_555
C26 C29 1_555 1_555
C33 C34 1_555 1_555
C38 C39 1_555 1_555

#END
