
#######################################################################
#
#                 Cambridge Crystallographic Data Centre
#                                CCDC 
#
#######################################################################
#
# If this CIF has been generated from an entry in the Cambridge 
# Structural Database, then it will include bibliographic, chemical, 
# crystal, experimental, refinement or atomic coordinate data resulting 
# from the CCDC's data processing and validation procedures.
#
#######################################################################

data_BASDUU
_chemical_formula_moiety         'C20 H24 O3,H2 O1'
_chemical_name_systematic        
'6a,6a\a,11b\a-1,2,4,5,6,6a,7,11b-Octahydro-6-hydroxy-9-methoxy-6,11b-dimethyl-3H-benz(de)anthracen-3-one monohydrate'
_symmetry_cell_setting           monoclinic
_symmetry_space_group_name_H-M   'P 21/c'
_symmetry_Int_Tables_number      14
_space_group_name_Hall           '-P 2ybc'
loop_
_symmetry_equiv_pos_site_id
_symmetry_equiv_pos_as_xyz
1 x,y,z
2 -x,1/2+y,1/2-z
3 -x,-y,-z
4 x,1/2-y,1/2+z
_cell_length_a                   14.881(4)
_cell_length_b                   9.333(1)
_cell_length_c                   14.634(4)
_cell_angle_alpha                90
_cell_angle_beta                 120.46(2)
_cell_angle_gamma                90
_cell_volume                     1751.92
_cell_formula_units_Z            4
loop_
_atom_site_label
_atom_site_type_symbol
_atom_site_fract_x
_atom_site_fract_y
_atom_site_fract_z
C1 C 0.27440 0.55100 0.58030
C2 C 0.16770 0.12780 0.27110
C3 C -0.31050 0.07790 0.27240
O1 O -0.22190 0.15670 0.34660
O2 O 0.47260 -0.07150 0.58340
O3 O 0.35890 0.45550 0.49060
C4 C 0.19750 -0.08020 0.39430
H1 H 0.14550 -0.13860 0.32300
H2 H 0.18580 -0.11490 0.45790
C5 C 0.31040 -0.11240 0.42470
H3 H 0.32060 -0.08680 0.35850
H4 H 0.32610 -0.22480 0.44350
C6 C 0.38530 -0.02530 0.51890
C7 C 0.35320 0.11890 0.53270
C8 C 0.25620 0.16730 0.46580
C9 C 0.22170 0.31430 0.47930
H5 H 0.18670 0.37350 0.40570
C10 C 0.14090 0.28860 0.51390
H6 H 0.11090 0.39050 0.52050
H7 H 0.17780 0.23400 0.58850
C11 C 0.05210 0.19840 0.43220
C12 C 0.06560 0.10670 0.36470
C13 C 0.17210 0.08080 0.37450
C14 C -0.02220 0.03450 0.28710
H8 H -0.01400 -0.03490 0.23270
C15 C -0.12010 0.04840 0.27700
H9 H -0.18670 -0.00800 0.21540
C16 C -0.13040 0.13610 0.34750
C17 C -0.04510 0.21120 0.42340
H10 H -0.05410 0.28120 0.47700
C18 C 0.43520 0.20520 0.62440
H11 H 0.47310 0.13670 0.69320
H12 H 0.49170 0.24220 0.60420
C19 C 0.39080 0.33430 0.65110
H13 H 0.35290 0.29840 0.69340
H14 H 0.45380 0.40610 0.70080
C20 C 0.31180 0.41460 0.55200
H15 H 0.21800 0.60490 0.50840
H16 H 0.34000 0.62110 0.62600
H17 H 0.10820 0.06730 0.20530
H18 H 0.24240 0.10840 0.27770
H19 H 0.14950 0.24660 0.25790
H20 H -0.37620 0.10530 0.28120
H21 H -0.29460 -0.03540 0.28650
H22 H -0.32820 0.10370 0.19310
H23 H 0.41840 0.52800 0.53450
O4 O 0.47390 0.35870 0.40000
H24 H 0.48410 0.25690 0.40460
H25 H 0.43760 0.36020 0.43950
loop_
_geom_bond_atom_site_label_1
_geom_bond_atom_site_label_2
_geom_bond_site_symmetry_1
_geom_bond_site_symmetry_2
C1 C20 1_555 1_555
C2 C13 1_555 1_555
C3 O1 1_555 1_555
O1 C16 1_555 1_555
O2 C6 1_555 1_555
O3 C20 1_555 1_555
C4 H1 1_555 1_555
H2 C4 1_555 1_555
C5 C4 1_555 1_555
H3 C5 1_555 1_555
H4 C5 1_555 1_555
C6 C5 1_555 1_555
C7 C6 1_555 1_555
C8 C7 1_555 1_555
C9 C8 1_555 1_555
H5 C9 1_555 1_555
C10 C9 1_555 1_555
H6 C10 1_555 1_555
H7 C10 1_555 1_555
C11 C10 1_555 1_555
C12 C11 1_555 1_555
C13 C4 1_555 1_555
C14 C12 1_555 1_555
H8 C14 1_555 1_555
C15 C14 1_555 1_555
H9 C15 1_555 1_555
C16 C15 1_555 1_555
C17 C11 1_555 1_555
H10 C17 1_555 1_555
C18 C7 1_555 1_555
H11 C18 1_555 1_555
H12 C18 1_555 1_555
C19 C18 1_555 1_555
H13 C19 1_555 1_555
H14 C19 1_555 1_555
C20 C9 1_555 1_555
H15 C1 1_555 1_555
H16 C1 1_555 1_555
H17 C2 1_555 1_555
H18 C2 1_555 1_555
H19 C2 1_555 1_555
H20 C3 1_555 1_555
H21 C3 1_555 1_555
H22 C3 1_555 1_555
H23 O3 1_555 1_555
O4 H24 1_555 1_555
H25 O4 1_555 1_555
C8 C13 1_555 1_555
C12 C13 1_555 1_555
C16 C17 1_555 1_555
C19 C20 1_555 1_555

#END
