
#######################################################################
#
#                 Cambridge Crystallographic Data Centre
#                                CCDC 
#
#######################################################################
#
# If this CIF has been generated from an entry in the Cambridge 
# Structural Database, then it will include bibliographic, chemical, 
# crystal, experimental, refinement or atomic coordinate data resulting 
# from the CCDC's data processing and validation procedures.
#
#######################################################################

data_BASDOO
_chemical_formula_moiety         'C12 H16 O3'
_chemical_name_systematic        7-(2-Oxocyclohexylidene)-2-oxepanone
_symmetry_cell_setting           monoclinic
_symmetry_space_group_name_H-M   'P 21/n'
_symmetry_Int_Tables_number      14
_space_group_name_Hall           '-P 2yn'
loop_
_symmetry_equiv_pos_site_id
_symmetry_equiv_pos_as_xyz
1 x,y,z
2 1/2-x,1/2+y,1/2-z
3 -x,-y,-z
4 1/2+x,1/2-y,1/2+z
_cell_length_a                   6.717(1)
_cell_length_b                   14.963(2)
_cell_length_c                   10.923(2)
_cell_angle_alpha                90
_cell_angle_beta                 95.46(1)
_cell_angle_gamma                90
_cell_volume                     1092.85
_chemical_melting_point          112deg.C
_cell_formula_units_Z            4
loop_
_atom_site_label
_atom_site_type_symbol
_atom_site_fract_x
_atom_site_fract_y
_atom_site_fract_z
C1 C 0.86180 0.02220 0.16780
C2 C 0.90130 -0.00530 0.30220
C3 C 0.71240 -0.03640 0.35210
C4 C 0.54790 0.03330 0.33860
C5 C 0.51980 0.07310 0.21290
C6 C 0.70620 0.09460 0.15490
C7 C 0.72880 0.17300 0.10120
C8 C 0.89510 0.20290 0.03060
C9 C 0.84510 0.18940 -0.10660
C10 C 0.66150 0.23950 -0.15970
C11 C 0.47010 0.21650 -0.10130
C12 C 0.45270 0.26170 0.01800
O1 O 0.33090 0.31810 0.03540
O2 O 0.58330 0.23920 0.11390
O3 O 0.35580 0.08590 0.15920
H1 H 0.81490 -0.02850 0.11960
H2 H 0.98350 0.04400 0.13910
H3 H 0.95390 0.04490 0.34950
H4 H 0.99730 -0.05310 0.30860
H5 H 0.66560 -0.08930 0.30870
H6 H 0.74170 -0.05000 0.43780
H7 H 0.58220 0.08050 0.39630
H8 H 0.42450 0.00620 0.35670
H9 H 0.91920 0.26530 0.04650
H10 H 1.01330 0.16940 0.05720
H11 H 0.82310 0.12680 -0.12150
H12 H 0.95730 0.20900 -0.14780
H13 H 0.68630 0.30230 -0.14880
H14 H 0.64060 0.22620 -0.24590
H15 H 0.46840 0.15310 -0.08760
H16 H 0.35740 0.23300 -0.15740
loop_
_geom_bond_atom_site_label_1
_geom_bond_atom_site_label_2
_geom_bond_site_symmetry_1
_geom_bond_site_symmetry_2
C1 C2 1_555 1_555
C2 C3 1_555 1_555
C3 C4 1_555 1_555
C4 C5 1_555 1_555
C5 C6 1_555 1_555
C6 C1 1_555 1_555
C7 C6 1_555 1_555
C8 C7 1_555 1_555
C9 C8 1_555 1_555
C10 C9 1_555 1_555
C11 C10 1_555 1_555
C12 C11 1_555 1_555
O1 C12 1_555 1_555
O2 C7 1_555 1_555
O3 C5 1_555 1_555
H1 C1 1_555 1_555
H2 C1 1_555 1_555
H3 C2 1_555 1_555
H4 C2 1_555 1_555
H5 C3 1_555 1_555
H6 C3 1_555 1_555
H7 C4 1_555 1_555
H8 C4 1_555 1_555
H9 C8 1_555 1_555
H10 C8 1_555 1_555
H11 C9 1_555 1_555
H12 C9 1_555 1_555
H13 C10 1_555 1_555
H14 C10 1_555 1_555
H15 C11 1_555 1_555
H16 C11 1_555 1_555
C12 O2 1_555 1_555

#END
