
#######################################################################
#
#                 Cambridge Crystallographic Data Centre
#                                CCDC 
#
#######################################################################
#
# If this CIF has been generated from an entry in the Cambridge 
# Structural Database, then it will include bibliographic, chemical, 
# crystal, experimental, refinement or atomic coordinate data resulting 
# from the CCDC's data processing and validation procedures.
#
#######################################################################

data_BASVOI
_chemical_formula_moiety         'C42 H63 N5 Si2'
_chemical_name_systematic        
1,1:2,2-bis(N,N'-Di-t-butylbenzamidinato)-1-(2,6-di-isopropylphenylimido)disilane
_symmetry_cell_setting           monoclinic
_symmetry_space_group_name_H-M   'P 21/c'
_symmetry_Int_Tables_number      14
_space_group_name_Hall           '-P 2ybc'
loop_
_symmetry_equiv_pos_site_id
_symmetry_equiv_pos_as_xyz
1 x,y,z
2 -x,1/2+y,1/2-z
3 -x,-y,-z
4 x,1/2-y,1/2+z
_cell_length_a                   22.2880(15)
_cell_length_b                   12.1140(7)
_cell_length_c                   15.8683(10)
_cell_angle_alpha                90
_cell_angle_beta                 102.715(2)
_cell_angle_gamma                90
_cell_volume                     4179.32
_exptl_crystal_colour            yellow
_exptl_crystal_description       block
_cell_formula_units_Z            4
loop_
_atom_site_label
_atom_site_type_symbol
_atom_site_fract_x
_atom_site_fract_y
_atom_site_fract_z
Si1 Si 0.27309(3) 0.54882(4) 0.32861(4)
Si2 Si 0.16615(3) 0.55043(5) 0.32234(4)
C1 C 0.33565(9) 0.40666(15) 0.39590(13)
C2 C 0.37430(9) 0.31346(16) 0.43853(12)
C3 C 0.34703(10) 0.22232(16) 0.46834(13)
H1 H 0.3037 0.2202 0.4628
C4 C 0.38319(10) 0.13481(17) 0.50606(13)
H2 H 0.3645 0.0724 0.5260
C5 C 0.44601(10) 0.13761(17) 0.51486(13)
H3 H 0.4705 0.0773 0.5408
C6 C 0.47347(10) 0.22803(17) 0.48599(14)
H4 H 0.5169 0.2302 0.4925
C7 C 0.43762(10) 0.31570(17) 0.44746(14)
H5 H 0.4565 0.3775 0.4271
C8 C 0.31063(10) 0.34027(16) 0.23881(13)
C9 C 0.37488(10) 0.30199(18) 0.23272(14)
H6 H 0.4017 0.3663 0.2340
H7 H 0.3723 0.2615 0.1786
H8 H 0.3918 0.2536 0.2817
C10 C 0.26967(11) 0.24190(17) 0.24807(15)
H9 H 0.2890 0.1986 0.2990
H10 H 0.2643 0.1954 0.1964
H11 H 0.2295 0.2686 0.2547
C11 C 0.28055(11) 0.40440(18) 0.15780(13)
H12 H 0.2393 0.4279 0.1622
H13 H 0.2776 0.3571 0.1070
H14 H 0.3055 0.4695 0.1522
C12 C 0.33718(10) 0.54085(16) 0.52162(13)
C13 C 0.34000(12) 0.45453(19) 0.59214(14)
H15 H 0.3000 0.4177 0.5846
H16 H 0.3500 0.4905 0.6488
H17 H 0.3717 0.3999 0.5884
C14 C 0.29112(11) 0.63039(19) 0.53125(15)
H18 H 0.2898 0.6864 0.4863
H19 H 0.3037 0.6648 0.5883
H20 H 0.2502 0.5975 0.5253
C15 C 0.40026(11) 0.59273(19) 0.52792(15)
H21 H 0.4298 0.5354 0.5210
H22 H 0.4138 0.6280 0.5845
H23 H 0.3978 0.6482 0.4823
C16 C 0.33316(9) 0.75109(15) 0.30178(12)
C17 C 0.39321(9) 0.73992(16) 0.28574(13)
C18 C 0.41558(10) 0.62896(16) 0.26016(14)
H24 H 0.3847 0.5722 0.2682
C19 C 0.41854(13) 0.6275(2) 0.16503(15)
H25 H 0.3782 0.6474 0.1295
H26 H 0.4299 0.5534 0.1492
H27 H 0.4494 0.6808 0.1553
C20 C 0.47744(11) 0.59466(19) 0.31597(16)
H28 H 0.5092 0.6471 0.3078
H29 H 0.4880 0.5206 0.2992
H30 H 0.4749 0.5943 0.3768
C21 C 0.43160(10) 0.83192(16) 0.29249(14)
H31 H 0.4715 0.8239 0.2812
C22 C 0.41306(10) 0.93468(16) 0.31523(14)
H32 H 0.4401 0.9962 0.3204
C23 C 0.35471(10) 0.94628(16) 0.33026(13)
H33 H 0.3418 1.0168 0.3457
C24 C 0.31425(10) 0.85789(16) 0.32347(13)
C25 C 0.24921(11) 0.87496(17) 0.33637(16)
H34 H 0.2314 0.8003 0.3424
C26 C 0.24693(13) 0.9402(2) 0.41790(18)
H35 H 0.2740 0.9054 0.4679
H36 H 0.2047 0.9410 0.4263
H37 H 0.2606 1.0161 0.4119
C27 C 0.20925(11) 0.9294(2) 0.25720(18)
H38 H 0.2240 1.0047 0.2514
H39 H 0.1665 0.9320 0.2636
H40 H 0.2115 0.8867 0.2055
C28 C 0.10900(10) 0.41262(17) 0.23831(14)
C29 C 0.06038(11) 0.33605(18) 0.19139(15)
C30 C 0.07696(13) 0.2376(2) 0.15791(16)
H41 H 0.1191 0.2206 0.1619
C31 C 0.03163(14) 0.1643(2) 0.11853(18)
H42 H 0.0428 0.0967 0.0958
C32 C -0.02959(14) 0.1890(2) 0.11217(17)
H43 H -0.0604 0.1384 0.0850
C33 C -0.04632(12) 0.2867(2) 0.14512(17)
H44 H -0.0885 0.3035 0.1406
C34 C -0.00121(11) 0.3605(2) 0.18495(16)
H45 H -0.0126 0.4278 0.2078
C35 C 0.12684(11) 0.33084(18) 0.39044(15)
C36 C 0.06260(12) 0.3507(2) 0.40588(17)
H46 H 0.0579 0.4289 0.4189
H47 H 0.0567 0.3057 0.4547
H48 H 0.0318 0.3303 0.3540
C37 C 0.13433(17) 0.2090(2) 0.3698(2)
H49 H 0.1026 0.1879 0.3192
H50 H 0.1301 0.1638 0.4194
H51 H 0.1751 0.1971 0.3577
C38 C 0.17395(12) 0.3618(2) 0.47146(16)
H52 H 0.2154 0.3549 0.4606
H53 H 0.1699 0.3122 0.5187
H54 H 0.1670 0.4381 0.4875
C39 C 0.10919(10) 0.56481(17) 0.12646(14)
C40 C 0.15797(12) 0.65230(19) 0.12417(16)
H55 H 0.1621 0.7004 0.1748
H56 H 0.1457 0.6965 0.0714
H57 H 0.1974 0.6163 0.1248
C41 C 0.10543(12) 0.48633(19) 0.05045(14)
H58 H 0.1444 0.4464 0.0568
H59 H 0.0975 0.5286 -0.0035
H60 H 0.0719 0.4335 0.0491
C42 C 0.04757(12) 0.6218(2) 0.12140(17)
H61 H 0.0155 0.5661 0.1200
H62 H 0.0374 0.6668 0.0689
H63 H 0.0501 0.6692 0.1721
N1 N 0.31331(8) 0.41862(13) 0.31109(11)
N2 N 0.31573(8) 0.49412(13) 0.43377(10)
N3 N 0.29271(8) 0.66458(13) 0.29552(11)
N4 N 0.13890(8) 0.40437(15) 0.32152(11)
N5 N 0.12881(8) 0.50728(14) 0.21018(11)
loop_
_geom_bond_atom_site_label_1
_geom_bond_atom_site_label_2
_geom_bond_site_symmetry_1
_geom_bond_site_symmetry_2
Si1 Si2 1_555 1_555
Si2 N4 1_555 1_555
C1 C2 1_555 1_555
C2 C3 1_555 1_555
C3 H1 1_555 1_555
C4 C3 1_555 1_555
H2 C4 1_555 1_555
C5 C4 1_555 1_555
H3 C5 1_555 1_555
C6 C5 1_555 1_555
H4 C6 1_555 1_555
C7 C2 1_555 1_555
H5 C7 1_555 1_555
C8 C9 1_555 1_555
C9 H6 1_555 1_555
H7 C9 1_555 1_555
H8 C9 1_555 1_555
C10 C8 1_555 1_555
H9 C10 1_555 1_555
H10 C10 1_555 1_555
H11 C10 1_555 1_555
C11 C8 1_555 1_555
H12 C11 1_555 1_555
H13 C11 1_555 1_555
H14 C11 1_555 1_555
C12 C13 1_555 1_555
C13 H15 1_555 1_555
H16 C13 1_555 1_555
H17 C13 1_555 1_555
C14 C12 1_555 1_555
H18 C14 1_555 1_555
H19 C14 1_555 1_555
H20 C14 1_555 1_555
C15 C12 1_555 1_555
H21 C15 1_555 1_555
H22 C15 1_555 1_555
H23 C15 1_555 1_555
C16 C17 1_555 1_555
C17 C18 1_555 1_555
C18 H24 1_555 1_555
C19 C18 1_555 1_555
H25 C19 1_555 1_555
H26 C19 1_555 1_555
H27 C19 1_555 1_555
C20 C18 1_555 1_555
H28 C20 1_555 1_555
H29 C20 1_555 1_555
H30 C20 1_555 1_555
C21 C17 1_555 1_555
H31 C21 1_555 1_555
C22 C21 1_555 1_555
H32 C22 1_555 1_555
C23 C22 1_555 1_555
H33 C23 1_555 1_555
C24 C16 1_555 1_555
C25 C24 1_555 1_555
H34 C25 1_555 1_555
C26 C25 1_555 1_555
H35 C26 1_555 1_555
H36 C26 1_555 1_555
H37 C26 1_555 1_555
C27 C25 1_555 1_555
H38 C27 1_555 1_555
H39 C27 1_555 1_555
H40 C27 1_555 1_555
C28 C29 1_555 1_555
C29 C30 1_555 1_555
C30 H41 1_555 1_555
C31 C30 1_555 1_555
H42 C31 1_555 1_555
C32 C31 1_555 1_555
H43 C32 1_555 1_555
C33 C32 1_555 1_555
H44 C33 1_555 1_555
C34 C29 1_555 1_555
H45 C34 1_555 1_555
C35 C36 1_555 1_555
C36 H46 1_555 1_555
H47 C36 1_555 1_555
H48 C36 1_555 1_555
C37 C35 1_555 1_555
H49 C37 1_555 1_555
H50 C37 1_555 1_555
H51 C37 1_555 1_555
C38 C35 1_555 1_555
H52 C38 1_555 1_555
H53 C38 1_555 1_555
H54 C38 1_555 1_555
C39 C40 1_555 1_555
C40 H55 1_555 1_555
H56 C40 1_555 1_555
H57 C40 1_555 1_555
C41 C39 1_555 1_555
H58 C41 1_555 1_555
H59 C41 1_555 1_555
H60 C41 1_555 1_555
C42 C39 1_555 1_555
H61 C42 1_555 1_555
H62 C42 1_555 1_555
H63 C42 1_555 1_555
N1 Si1 1_555 1_555
N2 Si1 1_555 1_555
N3 Si1 1_555 1_555
N4 C28 1_555 1_555
N5 Si2 1_555 1_555
C1 N1 1_555 1_555
C1 N2 1_555 1_555
C6 C7 1_555 1_555
C8 N1 1_555 1_555
C12 N2 1_555 1_555
C16 N3 1_555 1_555
C23 C24 1_555 1_555
C28 N5 1_555 1_555
C33 C34 1_555 1_555
C35 N4 1_555 1_555
C39 N5 1_555 1_555

#END
