
#######################################################################
#
#                 Cambridge Crystallographic Data Centre
#                                CCDC 
#
#######################################################################
#
# If this CIF has been generated from an entry in the Cambridge 
# Structural Database, then it will include bibliographic, chemical, 
# crystal, experimental, refinement or atomic coordinate data resulting 
# from the CCDC's data processing and validation procedures.
#
#######################################################################

data_BASVUO
_chemical_formula_moiety         'C56 H80 N6 Si2'
_chemical_name_systematic        
bis(\m~2~-((2,6-Di-isopropylphenyl)imino)methylidene)-bis(N,N'-di-t-butylbenzamidinato)-di-silicon
_symmetry_cell_setting           triclinic
_symmetry_space_group_name_H-M   'P -1'
_symmetry_Int_Tables_number      2
_space_group_name_Hall           '-P 1'
loop_
_symmetry_equiv_pos_site_id
_symmetry_equiv_pos_as_xyz
1 x,y,z
2 -x,-y,-z
_cell_length_a                   11.0000(8)
_cell_length_b                   12.8566(10)
_cell_length_c                   20.603(2)
_cell_angle_alpha                107.790(3)
_cell_angle_beta                 99.185(4)
_cell_angle_gamma                96.016(3)
_cell_volume                     2702.03
_exptl_crystal_colour            yellow
_exptl_crystal_description       block
_chemical_melting_point          '291.2 deg.C'
_cell_formula_units_Z            2
loop_
_atom_site_label
_atom_site_type_symbol
_atom_site_fract_x
_atom_site_fract_y
_atom_site_fract_z
C1 C -0.0943(4) 0.4444(4) 0.0135(2)
C2 C -0.1864(4) 0.3151(4) 0.0585(2)
C3 C -0.1376(4) 0.3541(4) 0.1313(2)
C4 C -0.1109(5) 0.4776(4) 0.1705(2)
H1 H -0.0572 0.5131 0.1458
C5 C -0.2328(5) 0.5258(4) 0.1682(3)
H2 H -0.2871 0.4933 0.1928
H3 H -0.2750 0.5085 0.1197
H4 H -0.2139 0.6063 0.1908
C6 C -0.0421(5) 0.5084(4) 0.2452(2)
H5 H -0.0971 0.4839 0.2725
H6 H -0.0166 0.5890 0.2647
H7 H 0.0321 0.4724 0.2467
C7 C -0.1279(4) 0.2776(4) 0.1655(2)
H8 H -0.0911 0.3024 0.2137
C8 C -0.1695(4) 0.1669(4) 0.1321(3)
H9 H -0.1586 0.1158 0.1567
C9 C -0.2279(4) 0.1296(4) 0.0622(2)
H10 H -0.2622 0.0536 0.0399
C10 C -0.2362(4) 0.2022(4) 0.0252(2)
C11 C -0.3040(4) 0.1629(4) -0.0502(2)
H11 H -0.2671 0.2134 -0.0730
C12 C -0.4393(4) 0.1764(5) -0.0525(3)
H12 H -0.4785 0.1278 -0.0305
H13 H -0.4830 0.1566 -0.1010
H14 H -0.4443 0.2535 -0.0274
C13 C -0.2938(5) 0.0453(4) -0.0923(2)
H15 H -0.2057 0.0367 -0.0880
H16 H -0.3311 0.0306 -0.1414
H17 H -0.3381 -0.0072 -0.0748
C14 C 0.2760(4) 0.5739(4) 0.1662(2)
C15 C 0.3218(5) 0.5541(4) 0.2353(2)
H18 H 0.2501 0.5274 0.2519
H19 H 0.3672 0.6237 0.2699
H20 H 0.3775 0.4987 0.2280
C16 C 0.3865(4) 0.6050(4) 0.1355(3)
H21 H 0.4374 0.5459 0.1283
H22 H 0.4375 0.6742 0.1677
H23 H 0.3556 0.6150 0.0909
C17 C 0.2000(5) 0.6687(4) 0.1801(2)
H24 H 0.1700 0.6820 0.1364
H25 H 0.2527 0.7359 0.2134
H26 H 0.1285 0.6488 0.1993
C18 C 0.2208(4) 0.3740(4) 0.0864(2)
C19 C 0.3091(4) 0.3212(4) 0.1228(2)
C20 C 0.2666(5) 0.2784(4) 0.1712(2)
H27 H 0.1839 0.2814 0.1788
C21 C 0.3483(5) 0.2314(4) 0.2078(2)
H28 H 0.3212 0.2006 0.2406
C22 C 0.4685(5) 0.2289(4) 0.1972(3)
H29 H 0.5233 0.1966 0.2230
C23 C 0.5103(5) 0.2717(4) 0.1508(3)
H30 H 0.5940 0.2707 0.1447
C24 C 0.4297(4) 0.3168(4) 0.1123(2)
H31 H 0.4573 0.3449 0.0786
C25 C 0.1288(4) 0.2147(4) -0.0267(2)
C26 C 0.0822(4) 0.1323(4) 0.0068(2)
H32 H 0.1478 0.1320 0.0450
H33 H 0.0604 0.0581 -0.0280
H34 H 0.0082 0.1536 0.0251
C27 C 0.2493(4) 0.1880(4) -0.0513(3)
H35 H 0.3121 0.1876 -0.0119
H36 H 0.2804 0.2441 -0.0705
H37 H 0.2327 0.1149 -0.0873
C28 C 0.0293(4) 0.2110(4) -0.0886(2)
H38 H 0.0133 0.1368 -0.1234
H39 H 0.0587 0.2656 -0.1094
H40 H -0.0479 0.2282 -0.0728
N1 N -0.1966(3) 0.3876(3) 0.01997(18)
N2 N 0.1911(3) 0.4762(3) 0.11302(17)
N3 N 0.1492(3) 0.3305(3) 0.02254(17)
Si1 Si 0.07607(12) 0.45541(10) 0.03238(6)
C1A C 0.0943(4) 0.5556(4) -0.0135(2)
C2A C 0.1864(4) 0.6849(4) -0.0585(2)
C3A C 0.1376(4) 0.6459(4) -0.1313(2)
C4A C 0.1109(5) 0.5224(4) -0.1705(2)
H1A H 0.0572 0.4869 -0.1458
C5A C 0.2328(5) 0.4742(4) -0.1682(3)
H2A H 0.2871 0.5067 -0.1928
H3A H 0.2750 0.4915 -0.1197
H4A H 0.2139 0.3937 -0.1908
C6A C 0.0421(5) 0.4916(4) -0.2452(2)
H5A H 0.0971 0.5161 -0.2725
H6A H 0.0166 0.4110 -0.2647
H7A H -0.0321 0.5276 -0.2467
C7A C 0.1279(4) 0.7224(4) -0.1655(2)
H8A H 0.0911 0.6976 -0.2137
C8A C 0.1695(4) 0.8331(4) -0.1321(3)
H9A H 0.1586 0.8842 -0.1567
C9A C 0.2279(4) 0.8704(4) -0.0622(2)
H10A H 0.2622 0.9464 -0.0399
C10A C 0.2362(4) 0.7978(4) -0.0252(2)
C11A C 0.3040(4) 0.8371(4) 0.0502(2)
H11A H 0.2671 0.7866 0.0730
C12A C 0.4393(4) 0.8236(5) 0.0525(3)
H12A H 0.4785 0.8722 0.0305
H13A H 0.4830 0.8434 0.1010
H14A H 0.4443 0.7465 0.0274
C13A C 0.2938(5) 0.9547(4) 0.0923(2)
H15A H 0.2057 0.9633 0.0880
H16A H 0.3311 0.9694 0.1414
H17A H 0.3381 1.0072 0.0748
C14A C -0.2760(4) 0.4261(4) -0.1662(2)
C15A C -0.3218(5) 0.4459(4) -0.2353(2)
H18A H -0.2501 0.4726 -0.2519
H19A H -0.3672 0.3763 -0.2699
H20A H -0.3775 0.5013 -0.2280
C16A C -0.3865(4) 0.3950(4) -0.1355(3)
H21A H -0.4374 0.4541 -0.1283
H22A H -0.4375 0.3258 -0.1677
H23A H -0.3556 0.3850 -0.0909
C17A C -0.2000(5) 0.3313(4) -0.1801(2)
H24A H -0.1700 0.3180 -0.1364
H25A H -0.2527 0.2641 -0.2134
H26A H -0.1285 0.3512 -0.1993
C18A C -0.2208(4) 0.6260(4) -0.0864(2)
C19A C -0.3091(4) 0.6788(4) -0.1228(2)
C20A C -0.2666(5) 0.7216(4) -0.1712(2)
H27A H -0.1839 0.7186 -0.1788
C21A C -0.3483(5) 0.7686(4) -0.2078(2)
H28A H -0.3212 0.7994 -0.2406
C22A C -0.4685(5) 0.7711(4) -0.1972(3)
H29A H -0.5233 0.8034 -0.2230
C23A C -0.5103(5) 0.7283(4) -0.1508(3)
H30A H -0.5940 0.7293 -0.1447
C24A C -0.4297(4) 0.6832(4) -0.1123(2)
H31A H -0.4573 0.6551 -0.0786
C25A C -0.1288(4) 0.7853(4) 0.0267(2)
C26A C -0.0822(4) 0.8677(4) -0.0068(2)
H32A H -0.1478 0.8680 -0.0450
H33A H -0.0604 0.9419 0.0280
H34A H -0.0082 0.8464 -0.0251
C27A C -0.2493(4) 0.8120(4) 0.0513(3)
H35A H -0.3121 0.8124 0.0119
H36A H -0.2804 0.7559 0.0705
H37A H -0.2327 0.8851 0.0873
C28A C -0.0293(4) 0.7890(4) 0.0886(2)
H38A H -0.0133 0.8632 0.1234
H39A H -0.0587 0.7344 0.1094
H40A H 0.0479 0.7718 0.0728
N1A N 0.1966(3) 0.6124(3) -0.01997(18)
N2A N -0.1911(3) 0.5238(3) -0.11302(17)
N3A N -0.1492(3) 0.6695(3) -0.02254(17)
Si1A Si -0.07607(12) 0.54459(10) -0.03238(6)
C29 C -0.0995(4) 0.0312(4) 0.4731(2)
C30 C -0.2066(4) 0.1309(4) 0.4105(2)
C31 C -0.2556(4) 0.0960(4) 0.3378(2)
C32 C -0.3137(5) -0.0232(5) 0.3001(2)
H41 H -0.2721 -0.0695 0.3252
C33 C -0.2979(5) -0.0657(5) 0.2238(2)
H42 H -0.3481 -0.0293 0.1964
H43 H -0.3257 -0.1460 0.2047
H44 H -0.2098 -0.0488 0.2219
C34 C -0.4514(5) -0.0386(5) 0.3031(3)
H45 H -0.4605 -0.0120 0.3517
H46 H -0.4873 -0.1173 0.2823
H47 H -0.4951 0.0036 0.2772
C35 C -0.2525(5) 0.1760(5) 0.3040(3)
H48 H -0.2834 0.1530 0.2552
C36 C -0.2070(5) 0.2847(5) 0.3385(3)
H49 H -0.2032 0.3364 0.3141
C37 C -0.1662(5) 0.3187(5) 0.4099(3)
H50 H -0.1367 0.3951 0.4344
C38 C -0.1669(4) 0.2447(4) 0.4474(2)
C39 C -0.1394(5) 0.2849(4) 0.5267(2)
H51 H -0.0810 0.2387 0.5423
C40 C -0.0762(6) 0.4055(4) 0.5588(3)
H52 H -0.1344 0.4535 0.5481
H53 H -0.0019 0.4164 0.5394
H54 H -0.0517 0.4240 0.6093
C41 C -0.2586(5) 0.2668(4) 0.5535(3)
H55 H -0.3178 0.3115 0.5393
H56 H -0.2388 0.2888 0.6044
H57 H -0.2960 0.1883 0.5340
C42 C 0.1130(4) 0.0173(4) 0.3277(2)
C43 C 0.2348(4) -0.0167(4) 0.3069(2)
H58 H 0.2962 0.0497 0.3162
H59 H 0.2183 -0.0597 0.2572
H60 H 0.2678 -0.0619 0.3341
C44 C 0.0590(5) 0.0900(4) 0.2872(2)
H61 H -0.0167 0.1127 0.3028
H62 H 0.0385 0.0479 0.2373
H63 H 0.1208 0.1559 0.2957
C45 C 0.0187(4) -0.0875(4) 0.3132(2)
H64 H 0.0540 -0.1336 0.3390
H65 H 0.0001 -0.1290 0.2633
H66 H -0.0582 -0.0669 0.3281
C46 C 0.2038(4) 0.1712(4) 0.4423(2)
C47 C 0.2980(13) 0.2385(16) 0.4211(12)
C48 C 0.4187(13) 0.2120(14) 0.4182(10)
H67 H 0.4426 0.1500 0.4299
C49 C 0.5013(12) 0.2784(14) 0.3979(7)
H68 H 0.5822 0.2611 0.3938
C50 C 0.4652(15) 0.3716(12) 0.3833(6)
H69 H 0.5242 0.4185 0.3715
C51 C 0.3418(16) 0.3990(10) 0.3856(7)
H70 H 0.3171 0.4601 0.3731
C52 C 0.2606(13) 0.3318(12) 0.4071(8)
H71 H 0.1800 0.3491 0.4122
C53 C 0.2589(5) 0.2666(4) 0.5733(2)
C54 C 0.2902(6) 0.3866(4) 0.5763(3)
H72 H 0.3309 0.4324 0.6239
H73 H 0.2133 0.4133 0.5624
H74 H 0.3466 0.3912 0.5446
C55 C 0.3762(5) 0.2163(5) 0.5860(3)
H75 H 0.3527 0.1375 0.5792
H76 H 0.4224 0.2543 0.6338
H77 H 0.4289 0.2248 0.5533
C56 C 0.1841(5) 0.2655(4) 0.6297(2)
H78 H 0.1585 0.1888 0.6273
H79 H 0.1098 0.2997 0.6222
H80 H 0.2359 0.3071 0.6755
N4 N -0.2080(3) 0.0513(3) 0.44430(18)
N5 N 0.1344(3) 0.0740(3) 0.40384(18)
N6 N 0.1772(3) 0.1953(3) 0.50620(18)
Si2 Si 0.06829(12) 0.06352(11) 0.47868(6)
C29A C 0.0995(4) -0.0312(4) 0.5269(2)
C30A C 0.2066(4) -0.1309(4) 0.5895(2)
C31A C 0.2556(4) -0.0960(4) 0.6622(2)
C32A C 0.3137(5) 0.0232(5) 0.6999(2)
H41A H 0.2721 0.0695 0.6748
C33A C 0.2979(5) 0.0657(5) 0.7762(2)
H42A H 0.3481 0.0293 0.8036
H43A H 0.3257 0.1460 0.7953
H44A H 0.2098 0.0488 0.7781
C34A C 0.4514(5) 0.0386(5) 0.6969(3)
H45A H 0.4605 0.0120 0.6483
H46A H 0.4873 0.1173 0.7177
H47A H 0.4951 -0.0036 0.7228
C35A C 0.2525(5) -0.1760(5) 0.6960(3)
H48A H 0.2834 -0.1530 0.7448
C36A C 0.2070(5) -0.2847(5) 0.6615(3)
H49A H 0.2032 -0.3364 0.6859
C37A C 0.1662(5) -0.3187(5) 0.5901(3)
H50A H 0.1367 -0.3951 0.5656
C38A C 0.1669(4) -0.2447(4) 0.5526(2)
C39A C 0.1394(5) -0.2849(4) 0.4733(2)
H51A H 0.0810 -0.2387 0.4577
C40A C 0.0762(6) -0.4055(4) 0.4412(3)
H52A H 0.1344 -0.4535 0.4519
H53A H 0.0019 -0.4164 0.4606
H54A H 0.0517 -0.4240 0.3907
C41A C 0.2586(5) -0.2668(4) 0.4465(3)
H55A H 0.3178 -0.3115 0.4607
H56A H 0.2388 -0.2888 0.3956
H57A H 0.2960 -0.1883 0.4660
C42A C -0.1130(4) -0.0173(4) 0.6723(2)
C43A C -0.2348(4) 0.0167(4) 0.6931(2)
H58A H -0.2962 -0.0497 0.6838
H59A H -0.2183 0.0597 0.7428
H60A H -0.2678 0.0619 0.6659
C44A C -0.0590(5) -0.0900(4) 0.7128(2)
H61A H 0.0167 -0.1127 0.6972
H62A H -0.0385 -0.0479 0.7627
H63A H -0.1208 -0.1559 0.7043
C45A C -0.0187(4) 0.0875(4) 0.6868(2)
H64A H -0.0540 0.1336 0.6610
H65A H -0.0001 0.1290 0.7367
H66A H 0.0582 0.0669 0.6719
C46A C -0.2038(4) -0.1712(4) 0.5577(2)
C47A C -0.2980(13) -0.2385(16) 0.5789(12)
C48A C -0.4187(13) -0.2120(14) 0.5818(10)
H67A H -0.4426 -0.1500 0.5701
C49A C -0.5013(12) -0.2784(14) 0.6021(7)
H68A H -0.5822 -0.2611 0.6062
C50A C -0.4652(15) -0.3716(12) 0.6167(6)
H69A H -0.5242 -0.4185 0.6285
C51A C -0.3418(16) -0.3990(10) 0.6144(7)
H70A H -0.3171 -0.4601 0.6269
C52A C -0.2606(13) -0.3318(12) 0.5929(8)
H71A H -0.1800 -0.3491 0.5878
C53A C -0.2589(5) -0.2666(4) 0.4267(2)
C54A C -0.2902(6) -0.3866(4) 0.4237(3)
H72A H -0.3309 -0.4324 0.3761
H73A H -0.2133 -0.4133 0.4376
H74A H -0.3466 -0.3912 0.4554
C55A C -0.3762(5) -0.2163(5) 0.4140(3)
H75A H -0.3527 -0.1375 0.4208
H76A H -0.4224 -0.2543 0.3662
H77A H -0.4289 -0.2248 0.4467
C56A C -0.1841(5) -0.2655(4) 0.3703(2)
H78A H -0.1585 -0.1888 0.3727
H79A H -0.1098 -0.2997 0.3778
H80A H -0.2359 -0.3071 0.3245
N4A N 0.2080(3) -0.0513(3) 0.55570(18)
N5A N -0.1344(3) -0.0740(3) 0.59616(18)
N6A N -0.1772(3) -0.1953(3) 0.49380(18)
Si2A Si -0.06829(12) -0.06352(11) 0.52132(6)
C57? C 0.276(2) 0.253(3) 0.417(2)
C58? C 0.403(2) 0.243(2) 0.4135(17)
C59? C 0.478(2) 0.320(2) 0.3950(13)
C60? C 0.422(3) 0.404(2) 0.3789(12)
C61? C 0.291(3) 0.415(2) 0.3786(14)
C62? C 0.221(2) 0.335(2) 0.3958(16)
H81? H 0.4374 0.1835 0.4240
H82? H 0.5627 0.3145 0.3934
H83? H 0.4728 0.4577 0.3675
H84? H 0.2567 0.4736 0.3674
H85? H 0.1340 0.3356 0.3935
loop_
_geom_bond_atom_site_label_1
_geom_bond_atom_site_label_2
_geom_bond_site_symmetry_1
_geom_bond_site_symmetry_2
C1 N1 1_555 1_555
C2 C3 1_555 1_555
C3 C4 1_555 1_555
C4 H1 1_555 1_555
C5 C4 1_555 1_555
H2 C5 1_555 1_555
H3 C5 1_555 1_555
H4 C5 1_555 1_555
C6 C4 1_555 1_555
H5 C6 1_555 1_555
H6 C6 1_555 1_555
H7 C6 1_555 1_555
C7 C3 1_555 1_555
H8 C7 1_555 1_555
C8 C7 1_555 1_555
H9 C8 1_555 1_555
C9 C8 1_555 1_555
H10 C9 1_555 1_555
C10 C2 1_555 1_555
C11 C10 1_555 1_555
H11 C11 1_555 1_555
C12 C11 1_555 1_555
H12 C12 1_555 1_555
H13 C12 1_555 1_555
H14 C12 1_555 1_555
C13 C11 1_555 1_555
H15 C13 1_555 1_555
H16 C13 1_555 1_555
H17 C13 1_555 1_555
C14 C15 1_555 1_555
C15 H18 1_555 1_555
H19 C15 1_555 1_555
H20 C15 1_555 1_555
C16 C14 1_555 1_555
H21 C16 1_555 1_555
H22 C16 1_555 1_555
H23 C16 1_555 1_555
C17 C14 1_555 1_555
H24 C17 1_555 1_555
H25 C17 1_555 1_555
H26 C17 1_555 1_555
C18 C19 1_555 1_555
C19 C20 1_555 1_555
C20 H27 1_555 1_555
C21 C20 1_555 1_555
H28 C21 1_555 1_555
C22 C21 1_555 1_555
H29 C22 1_555 1_555
C23 C22 1_555 1_555
H30 C23 1_555 1_555
C24 C19 1_555 1_555
H31 C24 1_555 1_555
C25 C26 1_555 1_555
C26 H32 1_555 1_555
H33 C26 1_555 1_555
H34 C26 1_555 1_555
C27 C25 1_555 1_555
H35 C27 1_555 1_555
H36 C27 1_555 1_555
H37 C27 1_555 1_555
C28 C25 1_555 1_555
H38 C28 1_555 1_555
H39 C28 1_555 1_555
H40 C28 1_555 1_555
C29 N4 1_555 1_555
C30 C31 1_555 1_555
C31 C32 1_555 1_555
C32 H41 1_555 1_555
C33 C32 1_555 1_555
H42 C33 1_555 1_555
H43 C33 1_555 1_555
H44 C33 1_555 1_555
C34 C32 1_555 1_555
H45 C34 1_555 1_555
H46 C34 1_555 1_555
H47 C34 1_555 1_555
C35 C31 1_555 1_555
H48 C35 1_555 1_555
C36 C35 1_555 1_555
H49 C36 1_555 1_555
C37 C36 1_555 1_555
H50 C37 1_555 1_555
C38 C30 1_555 1_555
C39 C38 1_555 1_555
H51 C39 1_555 1_555
C40 C39 1_555 1_555
H52 C40 1_555 1_555
H53 C40 1_555 1_555
H54 C40 1_555 1_555
C41 C39 1_555 1_555
H55 C41 1_555 1_555
H56 C41 1_555 1_555
H57 C41 1_555 1_555
C42 C43 1_555 1_555
C43 H58 1_555 1_555
H59 C43 1_555 1_555
H60 C43 1_555 1_555
C44 C42 1_555 1_555
H61 C44 1_555 1_555
H62 C44 1_555 1_555
H63 C44 1_555 1_555
C45 C42 1_555 1_555
H64 C45 1_555 1_555
H65 C45 1_555 1_555
H66 C45 1_555 1_555
C46 C47 1_555 1_555
C47 C48 1_555 1_555
C48 H67 1_555 1_555
C49 C48 1_555 1_555
H68 C49 1_555 1_555
C50 C49 1_555 1_555
H69 C50 1_555 1_555
C51 C50 1_555 1_555
H70 C51 1_555 1_555
C52 C47 1_555 1_555
H71 C52 1_555 1_555
C53 C54 1_555 1_555
C54 H72 1_555 1_555
H73 C54 1_555 1_555
H74 C54 1_555 1_555
C55 C53 1_555 1_555
H75 C55 1_555 1_555
H76 C55 1_555 1_555
H77 C55 1_555 1_555
C56 C53 1_555 1_555
H78 C56 1_555 1_555
H79 C56 1_555 1_555
H80 C56 1_555 1_555
N1 C2 1_555 1_555
N2 C14 1_555 1_555
N3 C18 1_555 1_555
N4 C30 1_555 1_555
N5 C42 1_555 1_555
N6 C46 1_555 1_555
Si1 C1 1_555 1_555
Si2 C29 1_555 1_555
C1A Si1 1_555 1_555
C2A C3A 1_555 1_555
C3A C4A 1_555 1_555
C4A H1A 1_555 1_555
C5A C4A 1_555 1_555
H2A C5A 1_555 1_555
H3A C5A 1_555 1_555
H4A C5A 1_555 1_555
C6A C4A 1_555 1_555
H5A C6A 1_555 1_555
H6A C6A 1_555 1_555
H7A C6A 1_555 1_555
C7A C3A 1_555 1_555
H8A C7A 1_555 1_555
C8A C7A 1_555 1_555
H9A C8A 1_555 1_555
C9A C8A 1_555 1_555
H10A C9A 1_555 1_555
C10A C2A 1_555 1_555
C11A C10A 1_555 1_555
H11A C11A 1_555 1_555
C12A C11A 1_555 1_555
H12A C12A 1_555 1_555
H13A C12A 1_555 1_555
H14A C12A 1_555 1_555
C13A C11A 1_555 1_555
H15A C13A 1_555 1_555
H16A C13A 1_555 1_555
H17A C13A 1_555 1_555
C14A C15A 1_555 1_555
C15A H18A 1_555 1_555
H19A C15A 1_555 1_555
H20A C15A 1_555 1_555
C16A C14A 1_555 1_555
H21A C16A 1_555 1_555
H22A C16A 1_555 1_555
H23A C16A 1_555 1_555
C17A C14A 1_555 1_555
H24A C17A 1_555 1_555
H25A C17A 1_555 1_555
H26A C17A 1_555 1_555
C18A C19A 1_555 1_555
C19A C20A 1_555 1_555
C20A H27A 1_555 1_555
C21A C20A 1_555 1_555
H28A C21A 1_555 1_555
C22A C21A 1_555 1_555
H29A C22A 1_555 1_555
C23A C22A 1_555 1_555
H30A C23A 1_555 1_555
C24A C19A 1_555 1_555
H31A C24A 1_555 1_555
C25A C26A 1_555 1_555
C26A H32A 1_555 1_555
H33A C26A 1_555 1_555
H34A C26A 1_555 1_555
C27A C25A 1_555 1_555
H35A C27A 1_555 1_555
H36A C27A 1_555 1_555
H37A C27A 1_555 1_555
C28A C25A 1_555 1_555
H38A C28A 1_555 1_555
H39A C28A 1_555 1_555
H40A C28A 1_555 1_555
C29A Si2 1_555 1_555
C30A C31A 1_555 1_555
C31A C32A 1_555 1_555
C32A H41A 1_555 1_555
C33A C32A 1_555 1_555
H42A C33A 1_555 1_555
H43A C33A 1_555 1_555
H44A C33A 1_555 1_555
C34A C32A 1_555 1_555
H45A C34A 1_555 1_555
H46A C34A 1_555 1_555
H47A C34A 1_555 1_555
C35A C31A 1_555 1_555
H48A C35A 1_555 1_555
C36A C35A 1_555 1_555
H49A C36A 1_555 1_555
C37A C36A 1_555 1_555
H50A C37A 1_555 1_555
C38A C30A 1_555 1_555
C39A C38A 1_555 1_555
H51A C39A 1_555 1_555
C40A C39A 1_555 1_555
H52A C40A 1_555 1_555
H53A C40A 1_555 1_555
H54A C40A 1_555 1_555
C41A C39A 1_555 1_555
H55A C41A 1_555 1_555
H56A C41A 1_555 1_555
H57A C41A 1_555 1_555
C42A C43A 1_555 1_555
C43A H58A 1_555 1_555
H59A C43A 1_555 1_555
H60A C43A 1_555 1_555
C44A C42A 1_555 1_555
H61A C44A 1_555 1_555
H62A C44A 1_555 1_555
H63A C44A 1_555 1_555
C45A C42A 1_555 1_555
H64A C45A 1_555 1_555
H65A C45A 1_555 1_555
H66A C45A 1_555 1_555
C46A C47A 1_555 1_555
C47A C48A 1_555 1_555
C48A H67A 1_555 1_555
C49A C48A 1_555 1_555
H68A C49A 1_555 1_555
C50A C49A 1_555 1_555
H69A C50A 1_555 1_555
C51A C50A 1_555 1_555
H70A C51A 1_555 1_555
C52A C47A 1_555 1_555
H71A C52A 1_555 1_555
C53A C54A 1_555 1_555
C54A H72A 1_555 1_555
H73A C54A 1_555 1_555
H74A C54A 1_555 1_555
C55A C53A 1_555 1_555
H75A C55A 1_555 1_555
H76A C55A 1_555 1_555
H77A C55A 1_555 1_555
C56A C53A 1_555 1_555
H78A C56A 1_555 1_555
H79A C56A 1_555 1_555
H80A C56A 1_555 1_555
N1A C1A 1_555 1_555
N2A C14A 1_555 1_555
N3A C18A 1_555 1_555
N4A C29A 1_555 1_555
N5A C42A 1_555 1_555
N6A C46A 1_555 1_555
Si1A C1 1_555 1_555
Si2A C29 1_555 1_555
C9 C10 1_555 1_555
C18 N2 1_555 1_555
C23 C24 1_555 1_555
C25 N3 1_555 1_555
C37 C38 1_555 1_555
C46 N5 1_555 1_555
C51 C52 1_555 1_555
C53 N6 1_555 1_555
N2 Si1 1_555 1_555
N3 Si1 1_555 1_555
N5 Si2 1_555 1_555
N6 Si2 1_555 1_555
C1A Si1A 1_555 1_555
C2A N1A 1_555 1_555
C9A C10A 1_555 1_555
C18A N2A 1_555 1_555
C23A C24A 1_555 1_555
C25A N3A 1_555 1_555
C29A Si2A 1_555 1_555
C30A N4A 1_555 1_555
C37A C38A 1_555 1_555
C46A N5A 1_555 1_555
C51A C52A 1_555 1_555
C53A N6A 1_555 1_555
N2A Si1A 1_555 1_555
N3A Si1A 1_555 1_555
N5A Si2A 1_555 1_555
N6A Si2A 1_555 1_555

#END
