
#######################################################################
#
#                 Cambridge Crystallographic Data Centre
#                                CCDC 
#
#######################################################################
#
# If this CIF has been generated from an entry in the Cambridge 
# Structural Database, then it will include bibliographic, chemical, 
# crystal, experimental, refinement or atomic coordinate data resulting 
# from the CCDC's data processing and validation procedures.
#
#######################################################################

data_BASWOJ
_chemical_formula_moiety         'C30 H18 O4'
_chemical_name_systematic        
3,3'-(1,2-Diphenylethane-1,2-diylidene)bis(2-benzofuran-1(3H)-one)
_symmetry_cell_setting           monoclinic
_symmetry_space_group_name_H-M   'P 21/n'
_symmetry_Int_Tables_number      14
_space_group_name_Hall           '-P 2yn'
loop_
_symmetry_equiv_pos_site_id
_symmetry_equiv_pos_as_xyz
1 x,y,z
2 1/2-x,1/2+y,1/2-z
3 -x,-y,-z
4 1/2+x,1/2-y,1/2+z
_cell_length_a                   9.0216(9)
_cell_length_b                   13.918(2)
_cell_length_c                   18.000(3)
_cell_angle_alpha                90
_cell_angle_beta                 100.269(9)
_cell_angle_gamma                90
_cell_volume                     2223.92
_exptl_crystal_colour            colorless
_exptl_crystal_description       prismatic
_chemical_melting_point          '531-533 K'
_cell_formula_units_Z            4
_exptl_crystal_recrystallization_method 'ethyl acetate/hexane'
loop_
_atom_site_label
_atom_site_type_symbol
_atom_site_fract_x
_atom_site_fract_y
_atom_site_fract_z
O1 O 0.85816(16) 0.34172(9) 0.45188(7)
O2 O 0.81151(13) 0.47237(8) 0.37735(6)
O3 O 0.15831(14) 0.64186(9) 0.06843(7)
O4 O 0.35486(13) 0.66746(8) 0.16316(6)
C1 C 0.7670(2) 0.39853(12) 0.42028(9)
C2 C 0.6041(2) 0.40822(11) 0.41688(9)
C3 C 0.5090(2) 0.35474(12) 0.45407(9)
H1 H 0.5461 0.3025 0.4860
C4 C 0.3584(2) 0.38064(13) 0.44279(10)
H2 H 0.2906 0.3459 0.4674
C5 C 0.3053(2) 0.45751(13) 0.39544(10)
H3 H 0.2018 0.4743 0.3890
C6 C 0.3998(2) 0.51011(12) 0.35744(10)
H4 H 0.3621 0.5616 0.3249
C7 C 0.5521(2) 0.48460(11) 0.36876(9)
C8 C 0.68470(19) 0.52659(11) 0.34401(9)
C9 C 0.70489(18) 0.60357(11) 0.30123(9)
C10 C 0.57213(18) 0.65636(11) 0.25883(9)
C11 C 0.48575(18) 0.61783(11) 0.19717(9)
C12 C 0.49420(19) 0.52941(11) 0.15328(9)
C13 C 0.6023(2) 0.45672(12) 0.15676(10)
H5 H 0.6902 0.4566 0.1947
C14 C 0.5762(2) 0.38471(12) 0.10262(10)
H6 H 0.6488 0.3351 0.1036
C15 C 0.4462(2) 0.38271(12) 0.04645(10)
H7 H 0.4315 0.3315 0.0110
C16 C 0.3397(2) 0.45483(12) 0.04239(10)
H8 H 0.2519 0.4547 0.0044
C17 C 0.36634(19) 0.52772(12) 0.09624(9)
C18 C 0.27731(19) 0.61413(12) 0.10344(9)
C19 C 0.85632(18) 0.64353(11) 0.29648(9)
C20 C 0.88246(19) 0.68321(12) 0.22837(10)
H9 H 0.8042 0.6831 0.1854
C21 C 1.0215(2) 0.72259(14) 0.22320(10)
H10 H 1.0389 0.7476 0.1764
C22 C 1.1357(2) 0.72561(13) 0.28631(11)
H11 H 1.2304 0.7534 0.2828
C23 C 1.11066(19) 0.68776(13) 0.35449(10)
H12 H 1.1884 0.6900 0.3977
C24 C 0.97287(19) 0.64677(11) 0.35983(9)
H13 H 0.9570 0.6207 0.4066
C25 C 0.54267(18) 0.75407(11) 0.28712(9)
C26 C 0.54402(19) 0.76770(12) 0.36431(9)
H14 H 0.5659 0.7150 0.3980
C27 C 0.5138(2) 0.85719(13) 0.39228(10)
H15 H 0.5128 0.8652 0.4446
C28 C 0.4852(2) 0.93507(13) 0.34348(10)
H16 H 0.4651 0.9965 0.3624
C29 C 0.48594(19) 0.92296(12) 0.26687(10)
H17 H 0.4678 0.9765 0.2338
C30 C 0.51301(18) 0.83309(11) 0.23833(9)
H18 H 0.5114 0.8252 0.1858
loop_
_geom_bond_atom_site_label_1
_geom_bond_atom_site_label_2
_geom_bond_site_symmetry_1
_geom_bond_site_symmetry_2
O1 C1 1_555 1_555
O2 C1 1_555 1_555
O3 C18 1_555 1_555
O4 C11 1_555 1_555
C1 C2 1_555 1_555
C2 C3 1_555 1_555
C3 H1 1_555 1_555
C4 C3 1_555 1_555
H2 C4 1_555 1_555
C5 C4 1_555 1_555
H3 C5 1_555 1_555
C6 C5 1_555 1_555
H4 C6 1_555 1_555
C7 C2 1_555 1_555
C8 O2 1_555 1_555
C9 C8 1_555 1_555
C10 C9 1_555 1_555
C11 C10 1_555 1_555
C12 C11 1_555 1_555
C13 C12 1_555 1_555
H5 C13 1_555 1_555
C14 C13 1_555 1_555
H6 C14 1_555 1_555
C15 C14 1_555 1_555
H7 C15 1_555 1_555
C16 C15 1_555 1_555
H8 C16 1_555 1_555
C17 C12 1_555 1_555
C18 O4 1_555 1_555
C19 C9 1_555 1_555
C20 C19 1_555 1_555
H9 C20 1_555 1_555
C21 C20 1_555 1_555
H10 C21 1_555 1_555
C22 C21 1_555 1_555
H11 C22 1_555 1_555
C23 C22 1_555 1_555
H12 C23 1_555 1_555
C24 C19 1_555 1_555
H13 C24 1_555 1_555
C25 C10 1_555 1_555
C26 C25 1_555 1_555
H14 C26 1_555 1_555
C27 C26 1_555 1_555
H15 C27 1_555 1_555
C28 C27 1_555 1_555
H16 C28 1_555 1_555
C29 C28 1_555 1_555
H17 C29 1_555 1_555
C30 C25 1_555 1_555
H18 C30 1_555 1_555
C6 C7 1_555 1_555
C7 C8 1_555 1_555
C16 C17 1_555 1_555
C17 C18 1_555 1_555
C23 C24 1_555 1_555
C29 C30 1_555 1_555

#END
