
#######################################################################
#
#                 Cambridge Crystallographic Data Centre
#                                CCDC 
#
#######################################################################
#
# If this CIF has been generated from an entry in the Cambridge 
# Structural Database, then it will include bibliographic, chemical, 
# crystal, experimental, refinement or atomic coordinate data resulting 
# from the CCDC's data processing and validation procedures.
#
#######################################################################

data_BASXUQ
_chemical_formula_moiety         'C27 H21 N1 O5'
_chemical_name_systematic        
2-n-Butyl-7-(4-methoxyphenyl)-1H-naphtho[2,3-f]isoindole-1,3,5,10(2H)-tetrone
_symmetry_cell_setting           orthorhombic
_symmetry_space_group_name_H-M   'P n a 21'
_symmetry_Int_Tables_number      33
_space_group_name_Hall           'P 2c -2n'
loop_
_symmetry_equiv_pos_site_id
_symmetry_equiv_pos_as_xyz
1 x,y,z
2 -x,-y,1/2+z
3 1/2+x,1/2-y,z
4 1/2-x,1/2+y,1/2+z
_cell_length_a                   7.5540(15)
_cell_length_b                   44.053(9)
_cell_length_c                   6.0780(12)
_cell_angle_alpha                90
_cell_angle_beta                 90
_cell_angle_gamma                90
_cell_volume                     2022.61
_cell_formula_units_Z            4
loop_
_atom_site_label
_atom_site_type_symbol
_atom_site_fract_x
_atom_site_fract_y
_atom_site_fract_z
O1 O 0.0377(3) 0.41035(4) 0.9678(3)
O2 O 0.3180(2) 0.18641(4) 0.4018(3)
O3 O -0.0054(2) 0.21455(4) 1.1648(3)
O4 O 0.1956(3) 0.06696(4) 0.6284(4)
O5 O -0.0910(3) 0.09128(4) 1.2718(3)
N1 N 0.0430(3) 0.07145(5) 0.9596(4)
C1 C -0.0296(4) 0.41883(6) 1.1799(4)
H1 H -0.1312 0.4066 1.2144
H2 H -0.0629 0.4399 1.1781
H3 H 0.0602 0.4157 1.2892
C2 C 0.0733(3) 0.38026(5) 0.9339(4)
C3 C 0.1418(3) 0.37277(5) 0.7271(4)
H4 H 0.1662 0.3880 0.6258
C4 C 0.0436(3) 0.35733(5) 1.0874(4)
H5 H 0.0015 0.3621 1.2270
C5 C 0.0775(3) 0.32720(5) 1.0303(4)
H6 H 0.0573 0.3120 1.1338
C6 C 0.1732(3) 0.34280(5) 0.6729(4)
H7 H 0.2170 0.3382 0.5339
C7 C 0.1406(3) 0.31914(5) 0.8229(4)
C8 C 0.1682(3) 0.28672(5) 0.7627(3)
C9 C 0.2490(3) 0.27853(5) 0.5622(4)
H8 H 0.2876 0.2937 0.4675
C10 C 0.1131(3) 0.26304(5) 0.9022(4)
H9 H 0.0600 0.2677 1.0361
C11 C 0.1367(3) 0.23258(5) 0.8426(4)
C12 C 0.2725(3) 0.24833(5) 0.5023(4)
H10 H 0.3257 0.2436 0.3686
C13 C 0.2167(3) 0.22524(5) 0.6412(4)
C14 C 0.2431(3) 0.19316(5) 0.5732(4)
C15 C 0.0697(3) 0.20843(5) 0.9915(4)
C16 C 0.0922(3) 0.17610(5) 0.9223(4)
C17 C 0.1736(3) 0.16882(5) 0.7220(4)
C18 C 0.1930(3) 0.13845(5) 0.6555(4)
H11 H 0.2475 0.1335 0.5231
C19 C 0.0268(3) 0.15322(5) 1.0622(4)
H12 H -0.0268 0.1579 1.1957
C20 C 0.0454(3) 0.12359(5) 0.9928(4)
C21 C 0.1283(3) 0.11628(5) 0.7937(4)
C22 C -0.0121(3) 0.09468(5) 1.0997(4)
C23 C 0.1309(3) 0.08235(6) 0.7724(4)
C24 C 0.0158(3) 0.03926(6) 1.0059(5)
H13 H 0.0307 0.0358 1.1624
H14 H 0.1051 0.0275 0.9290
C25 C -0.1670(4) 0.02826(6) 0.9363(5)
H15 H -0.2556 0.0388 1.0231
H16 H -0.1766 0.0068 0.9686
C26 C -0.2067(4) 0.03328(6) 0.6927(5)
H17 H -0.2029 0.0549 0.6616
H18 H -0.1152 0.0236 0.6056
C27 C -0.3861(4) 0.02086(7) 0.6234(6)
H19 H -0.3911 -0.0005 0.6544
H20 H -0.4025 0.0241 0.4685
H21 H -0.4778 0.0311 0.7034
loop_
_geom_bond_atom_site_label_1
_geom_bond_atom_site_label_2
_geom_bond_site_symmetry_1
_geom_bond_site_symmetry_2
O1 C1 1_555 1_555
O2 C14 1_555 1_555
O3 C15 1_555 1_555
O4 C23 1_555 1_555
O5 C22 1_555 1_555
N1 C22 1_555 1_555
C1 H1 1_555 1_555
H2 C1 1_555 1_555
H3 C1 1_555 1_555
C2 O1 1_555 1_555
C3 C2 1_555 1_555
H4 C3 1_555 1_555
C4 C2 1_555 1_555
H5 C4 1_555 1_555
C5 C4 1_555 1_555
H6 C5 1_555 1_555
C6 C3 1_555 1_555
H7 C6 1_555 1_555
C7 C5 1_555 1_555
C8 C7 1_555 1_555
C9 C8 1_555 1_555
H8 C9 1_555 1_555
C10 C8 1_555 1_555
H9 C10 1_555 1_555
C11 C10 1_555 1_555
C12 C9 1_555 1_555
H10 C12 1_555 1_555
C13 C11 1_555 1_555
C14 C13 1_555 1_555
C15 C11 1_555 1_555
C16 C15 1_555 1_555
C17 C14 1_555 1_555
C18 C17 1_555 1_555
H11 C18 1_555 1_555
C19 C16 1_555 1_555
H12 C19 1_555 1_555
C20 C19 1_555 1_555
C21 C18 1_555 1_555
C22 C20 1_555 1_555
C23 N1 1_555 1_555
C24 N1 1_555 1_555
H13 C24 1_555 1_555
H14 C24 1_555 1_555
C25 C24 1_555 1_555
H15 C25 1_555 1_555
H16 C25 1_555 1_555
C26 C25 1_555 1_555
H17 C26 1_555 1_555
H18 C26 1_555 1_555
C27 C26 1_555 1_555
H19 C27 1_555 1_555
H20 C27 1_555 1_555
H21 C27 1_555 1_555
C6 C7 1_555 1_555
C12 C13 1_555 1_555
C16 C17 1_555 1_555
C20 C21 1_555 1_555
C21 C23 1_555 1_555

#END
