
#######################################################################
#
#                 Cambridge Crystallographic Data Centre
#                                CCDC 
#
#######################################################################
#
# If this CIF has been generated from an entry in the Cambridge 
# Structural Database, then it will include bibliographic, chemical, 
# crystal, experimental, refinement or atomic coordinate data resulting 
# from the CCDC's data processing and validation procedures.
#
#######################################################################

data_BASYIF
_chemical_name_common            
'6-Bromo-1,3-benzothiazol-2(3H)-iminium (hydrogen L-tartarate) dihydrate'
_chemical_formula_moiety         'C7 H6 Br1 N2 S1 1+,C4 H5 O6 1-,2(H2 O1)'
_chemical_name_systematic        
'6-Bromo-1,3-benzothiazol-2(3H)-iminium 3-carboxy-2,3-dihydroxypropanoate dihydrate'
_symmetry_cell_setting           monoclinic
_symmetry_space_group_name_H-M   'C 2'
_symmetry_Int_Tables_number      5
_space_group_name_Hall           'C 2y'
loop_
_symmetry_equiv_pos_site_id
_symmetry_equiv_pos_as_xyz
1 x,y,z
2 -x,y,-z
3 1/2+x,1/2+y,z
4 1/2-x,1/2+y,-z
_cell_length_a                   22.777(2)
_cell_length_b                   9.6721(8)
_cell_length_c                   7.1880(6)
_cell_angle_alpha                90
_cell_angle_beta                 97.767(1)
_cell_angle_gamma                90
_cell_volume                     1569
_exptl_crystal_colour            colorless
_exptl_crystal_description       block
_cell_formula_units_Z            4
loop_
_atom_site_label
_atom_site_type_symbol
_atom_site_fract_x
_atom_site_fract_y
_atom_site_fract_z
Br1 Br 0.34295(3) 0.70075(8) 0.73504(10)
N1 N 0.5884(2) 0.4682(6) 0.7432(9)
H1 H 0.5991 0.3833 0.7378
N2 N 0.6831(2) 0.5575(5) 0.7463(7)
H2 H 0.6982 0.4764 0.7405
H3 H 0.7054 0.6294 0.7505
S1 S 0.59198(6) 0.73103(14) 0.7609(2)
C1 C 0.6264(3) 0.5713(6) 0.7490(9)
C2 C 0.5294(3) 0.5061(7) 0.7465(10)
C3 C 0.5230(2) 0.6491(6) 0.7517(8)
C4 C 0.4679(2) 0.7094(9) 0.7519(7)
H11 H 0.4636 0.8048 0.7576
C5 C 0.4196(3) 0.6219(7) 0.7433(10)
C6 C 0.4255(3) 0.4793(8) 0.7364(12)
H12 H 0.3922 0.4231 0.7318
C7 C 0.4810(4) 0.4206(8) 0.7363(13)
H13 H 0.4854 0.3252 0.7294
O1 O 0.68441(17) 0.0411(4) 0.8655(5)
O2 O 0.6818(2) 0.2699(4) 0.8687(6)
O3 O 0.68066(16) 0.0532(4) 0.2141(5)
H4 H 0.6783 0.0591 0.0996
O4 O 0.58339(18) 0.0899(5) 0.1575(6)
O5 O 0.69190(19) 0.2961(4) 0.5146(6)
H5 H 0.7119 0.2985 0.4280
O6 O 0.57937(15) 0.1618(5) 0.5166(5)
H6 H 0.5628 0.1161 0.5903
C8 C 0.6842(3) 0.1582(6) 0.7885(8)
C9 C 0.6864(2) 0.1574(6) 0.5732(7)
H14 H 0.7210 0.1046 0.5468
C10 C 0.6307(2) 0.0895(6) 0.4752(7)
H15 H 0.6290 -0.0045 0.5250
C11 C 0.6294(3) 0.0787(6) 0.2653(8)
O7 O 0.75235(18) 0.3113(4) 0.2116(6)
H7 H 0.7730 0.3823 0.1946
H8 H 0.7299 0.2943 0.1099
O8 O 0.53268(17) 0.0268(5) 0.7832(6)
H9 H 0.5518 0.0432 0.8909
H10 H 0.4963 0.0435 0.7877
loop_
_geom_bond_atom_site_label_1
_geom_bond_atom_site_label_2
_geom_bond_site_symmetry_1
_geom_bond_site_symmetry_2
Br1 C5 1_555 1_555
N1 H1 1_555 1_555
N2 H2 1_555 1_555
H3 N2 1_555 1_555
O1 C8 1_555 1_555
O2 C8 1_555 1_555
O3 H4 1_555 1_555
O4 C11 1_555 1_555
O5 H5 1_555 1_555
O6 H6 1_555 1_555
O7 H7 1_555 1_555
H8 O7 1_555 1_555
O8 H9 1_555 1_555
H10 O8 1_555 1_555
S1 C1 1_555 1_555
C1 N1 1_555 1_555
C2 N1 1_555 1_555
C3 S1 1_555 1_555
C4 C3 1_555 1_555
H11 C4 1_555 1_555
C5 C4 1_555 1_555
C6 C5 1_555 1_555
H12 C6 1_555 1_555
C7 C2 1_555 1_555
H13 C7 1_555 1_555
C8 C9 1_555 1_555
C9 O5 1_555 1_555
H14 C9 1_555 1_555
C10 O6 1_555 1_555
H15 C10 1_555 1_555
C11 O3 1_555 1_555
N2 C1 1_555 1_555
C2 C3 1_555 1_555
C6 C7 1_555 1_555
C9 C10 1_555 1_555
C10 C11 1_555 1_555

#END
