
#######################################################################
#
#                 Cambridge Crystallographic Data Centre
#                                CCDC 
#
#######################################################################
#
# If this CIF has been generated from an entry in the Cambridge 
# Structural Database, then it will include bibliographic, chemical, 
# crystal, experimental, refinement or atomic coordinate data resulting 
# from the CCDC's data processing and validation procedures.
#
#######################################################################

data_BASYUR
_chemical_formula_moiety         '2(C7 H5 Br1 N2 S1),C8 H6 O4'
_chemical_name_systematic        
'bis(6-Bromo-1,3-benzothiazol-2-amine) terephthalic acid'
_symmetry_cell_setting           monoclinic
_symmetry_space_group_name_H-M   'P 21/c'
_symmetry_Int_Tables_number      14
_space_group_name_Hall           '-P 2ybc'
loop_
_symmetry_equiv_pos_site_id
_symmetry_equiv_pos_as_xyz
1 x,y,z
2 -x,1/2+y,1/2-z
3 -x,-y,-z
4 x,1/2-y,1/2+z
_cell_length_a                   13.9610(13)
_cell_length_b                   3.9045(3)
_cell_length_c                   22.9854(16)
_cell_angle_alpha                90
_cell_angle_beta                 109.717(4)
_cell_angle_gamma                90
_cell_volume                     1179.49
_exptl_crystal_colour            colorless
_exptl_crystal_description       block
_cell_formula_units_Z            2
loop_
_atom_site_label
_atom_site_type_symbol
_atom_site_fract_x
_atom_site_fract_y
_atom_site_fract_z
Br1 Br 0.66250(6) 1.0615(3) 0.45904(4)
N1 N 0.2502(4) 0.7141(18) 0.2749(3)
N2 N 0.1033(5) 0.4617(19) 0.2820(3)
H1 H 0.0722 0.4817 0.2429
H2 H 0.0728 0.3703 0.3050
S1 S 0.26340(16) 0.5348(5) 0.38635(9)
C1 C 0.1982(6) 0.571(2) 0.3069(3)
C2 C 0.3468(5) 0.798(2) 0.3134(3)
C3 C 0.3690(5) 0.7236(19) 0.3764(3)
C4 C 0.4626(5) 0.794(2) 0.4200(3)
H3 H 0.4765 0.7386 0.4614
C5 C 0.5347(6) 0.949(2) 0.4001(4)
C6 C 0.5147(6) 1.031(2) 0.3384(4)
H4 H 0.5651 1.1337 0.3264
C7 C 0.4220(6) 0.962(2) 0.2950(4)
H5 H 0.4087 1.0215 0.2539
O1 O 0.1751(4) 0.8718(17) 0.1558(3)
H6 H 0.1919 0.8098 0.1919
O2 O 0.0246(4) 0.6648(17) 0.1535(2)
C8 C 0.0791(6) 0.807(2) 0.1281(3)
C9 C 0.0395(6) 0.907(2) 0.0620(3)
C10 C 0.1002(6) 1.066(2) 0.0346(3)
H7 H 0.1677 1.1137 0.0577
C11 C -0.0620(6) 0.840(2) 0.0280(3)
H8 H -0.1040 0.7351 0.0466
O1B O -0.1751(4) 1.1282(17) -0.1558(3)
H6B H -0.1919 1.1902 -0.1919
O2B O -0.0246(4) 1.3352(17) -0.1535(2)
C8B C -0.0791(6) 1.193(2) -0.1281(3)
C9B C -0.0395(6) 1.093(2) -0.0620(3)
C10B C -0.1002(6) 0.934(2) -0.0346(3)
H7B H -0.1677 0.8863 -0.0577
C11B C 0.0620(6) 1.160(2) -0.0280(3)
H8B H 0.1040 1.2649 -0.0466
loop_
_geom_bond_atom_site_label_1
_geom_bond_atom_site_label_2
_geom_bond_site_symmetry_1
_geom_bond_site_symmetry_2
Br1 C5 1_555 1_555
N1 C1 1_555 1_555
N2 H1 1_555 1_555
H2 N2 1_555 1_555
S1 C1 1_555 1_555
C1 N2 1_555 1_555
C2 N1 1_555 1_555
C3 S1 1_555 1_555
C4 C3 1_555 1_555
H3 C4 1_555 1_555
C5 C4 1_555 1_555
C6 C5 1_555 1_555
H4 C6 1_555 1_555
C7 C2 1_555 1_555
H5 C7 1_555 1_555
O1 H6 1_555 1_555
O2 C8 1_555 1_555
C8 O1 1_555 1_555
C9 C8 1_555 1_555
C10 C9 1_555 1_555
H7 C10 1_555 1_555
C11 C9 1_555 1_555
H8 C11 1_555 1_555
O1B H6B 1_555 1_555
O2B C8B 1_555 1_555
C8B O1B 1_555 1_555
C9B C8B 1_555 1_555
C10B C11 1_555 1_555
H7B C10B 1_555 1_555
C11B C10 1_555 1_555
H8B C11B 1_555 1_555
C2 C3 1_555 1_555
C6 C7 1_555 1_555
C9B C10B 1_555 1_555
C9B C11B 1_555 1_555

#END
