
#######################################################################
#
#                 Cambridge Crystallographic Data Centre
#                                CCDC 
#
#######################################################################
#
# If this CIF has been generated from an entry in the Cambridge 
# Structural Database, then it will include bibliographic, chemical, 
# crystal, experimental, refinement or atomic coordinate data resulting 
# from the CCDC's data processing and validation procedures.
#
#######################################################################

data_BASZOL
_chemical_formula_moiety         'C14 H18 Cl1 N1 O1'
_chemical_name_systematic        
(+-)-(R,R)-7-Chloro-2-(\a-hydroxybenzyl)heptanenitrile
_symmetry_cell_setting           orthorhombic
_symmetry_space_group_name_H-M   'P c a 21'
_symmetry_Int_Tables_number      29
_space_group_name_Hall           'P 2c -2ac'
loop_
_symmetry_equiv_pos_site_id
_symmetry_equiv_pos_as_xyz
1 x,y,z
2 -x,-y,1/2+z
3 1/2-x,y,1/2+z
4 1/2+x,-y,z
_cell_length_a                   9.708(2)
_cell_length_b                   11.068(2)
_cell_length_c                   12.764(1)
_cell_angle_alpha                90
_cell_angle_beta                 90
_cell_angle_gamma                90
_cell_volume                     1371.47
_exptl_crystal_colour            colorless
_exptl_crystal_description       plate
_cell_formula_units_Z            4
loop_
_atom_site_label
_atom_site_type_symbol
_atom_site_fract_x
_atom_site_fract_y
_atom_site_fract_z
Cl1 Cl 0.0155(1) -0.0081(1) -0.2028(8)
O1 O -0.4731(3) -0.4248(2) -0.7240(8)
N1 N -0.1291(3) -0.3515(3) -0.7183(8)
C1 C -0.4498(3) -0.4027(3) -0.6156(8)
C2 C -0.3491(3) -0.2972(3) -0.6115(8)
C3 C -0.3070(3) -0.2572(3) -0.5004(8)
C4 C -0.2161(3) -0.1457(3) -0.5016(8)
C5 C -0.1808(3) -0.1001(3) -0.3927(8)
C6 C -0.0978(4) 0.0165(3) -0.3970(8)
C7 C -0.0815(4) 0.0797(3) -0.2940(9)
C8 C -0.5824(3) -0.3733(3) -0.5569(8)
C9 C -0.6837(3) -0.3012(3) -0.6015(8)
C10 C -0.8012(4) -0.2737(3) -0.5459(9)
C11 C -0.8202(3) -0.3183(3) -0.4462(8)
C12 C -0.7220(4) -0.3905(3) -0.4017(8)
C13 C -0.6048(3) -0.4187(3) -0.4572(8)
C14 C -0.2250(3) -0.3282(3) -0.6730(8)
H1 H -0.4089 -0.4721 -0.5851
H2 H -0.3946 -0.2282 -0.6456
H3 H -0.2562 -0.3227 -0.4695
H4 H -0.3862 -0.2421 -0.4596
H5 H -0.2630 -0.0823 -0.5396
H6 H -0.1323 -0.1629 -0.5396
H7 H -0.1273 -0.1603 -0.3574
H8 H -0.2621 -0.0851 -0.3549
H9 H -0.1399 0.0686 -0.4474
H10 H -0.0065 -0.0038 -0.4245
H11 H -0.0352 0.1547 -0.3066
H12 H -0.1704 0.0950 -0.2677
H13 H -0.6687 -0.2690 -0.6716
H14 H -0.8710 -0.2246 -0.5798
H15 H -0.9035 -0.2960 -0.4083
H16 H -0.7344 -0.4244 -0.3343
H17 H -0.5344 -0.4715 -0.4288
H18 H -0.5022 -0.5051 -0.7264
loop_
_geom_bond_atom_site_label_1
_geom_bond_atom_site_label_2
_geom_bond_site_symmetry_1
_geom_bond_site_symmetry_2
Cl1 C7 1_555 1_555
O1 C1 1_555 1_555
N1 C14 1_555 1_555
C1 C2 1_555 1_555
C2 C3 1_555 1_555
C3 C4 1_555 1_555
C4 C5 1_555 1_555
C5 C6 1_555 1_555
C6 C7 1_555 1_555
C7 H11 1_555 1_555
C8 C1 1_555 1_555
C9 C8 1_555 1_555
C10 C9 1_555 1_555
C11 C10 1_555 1_555
C12 C11 1_555 1_555
C13 C8 1_555 1_555
C14 C2 1_555 1_555
H1 C1 1_555 1_555
H2 C2 1_555 1_555
H3 C3 1_555 1_555
H4 C3 1_555 1_555
H5 C4 1_555 1_555
H6 C4 1_555 1_555
H7 C5 1_555 1_555
H8 C5 1_555 1_555
H9 C6 1_555 1_555
H10 C6 1_555 1_555
H12 C7 1_555 1_555
H13 C9 1_555 1_555
H14 C10 1_555 1_555
H15 C11 1_555 1_555
H16 C12 1_555 1_555
H17 C13 1_555 1_555
H18 O1 1_555 1_555
C12 C13 1_555 1_555

#END
