
#######################################################################
#
#                 Cambridge Crystallographic Data Centre
#                                CCDC 
#
#######################################################################
#
# If this CIF has been generated from an entry in the Cambridge 
# Structural Database, then it will include bibliographic, chemical, 
# crystal, experimental, refinement or atomic coordinate data resulting 
# from the CCDC's data processing and validation procedures.
#
#######################################################################

data_BASZEB
_chemical_formula_moiety         'C10 H17 N1 O1'
_chemical_name_systematic        
cis-2-Hydroxy-2,3,3-trimethylcyclohexane-1-carbonitrile
_symmetry_cell_setting           orthorhombic
_symmetry_space_group_name_H-M   'P 21 21 21'
_symmetry_Int_Tables_number      19
_space_group_name_Hall           'P 2ac 2ab'
loop_
_symmetry_equiv_pos_site_id
_symmetry_equiv_pos_as_xyz
1 x,y,z
2 1/2-x,-y,1/2+z
3 1/2+x,1/2-y,-z
4 -x,1/2+y,1/2-z
_cell_length_a                   10.513(5)
_cell_length_b                   11.889(7)
_cell_length_c                   7.965(6)
_cell_angle_alpha                90
_cell_angle_beta                 90
_cell_angle_gamma                90
_cell_volume                     995.538
_exptl_crystal_colour            colorless
_exptl_crystal_description       plate
_cell_formula_units_Z            4
loop_
_atom_site_label
_atom_site_type_symbol
_atom_site_fract_x
_atom_site_fract_y
_atom_site_fract_z
O1 O 0.7064(2) 0.1474(2) 0.4524(3)
N1 N 0.9074(4) 0.0527(3) 0.7785(5)
C1 C 0.9076(3) 0.2078(3) 0.5487(5)
C2 C 0.8340(3) 0.1672(3) 0.3932(5)
C3 C 0.8323(4) 0.2596(3) 0.2559(5)
C4 C 0.7884(4) 0.3710(3) 0.3337(5)
C5 C 0.8624(4) 0.4078(3) 0.4855(5)
C6 C 0.8581(4) 0.3186(3) 0.6202(5)
C7 C 0.9079(4) 0.1205(3) 0.6786(5)
C8 C 0.8904(4) 0.0562(3) 0.3310(6)
C9 C 0.9642(4) 0.2745(4) 0.1752(5)
C10 C 0.7398(5) 0.2280(4) 0.1156(5)
H1 H 0.9934 0.2198 0.5160
H2 H 0.7017 0.3630 0.3670
H3 H 0.7948 0.4281 0.2514
H4 H 0.8276 0.4757 0.5281
H5 H 0.9487 0.4204 0.4536
H6 H 0.7731 0.3095 0.6570
H7 H 0.9100 0.3414 0.7119
H8 H 0.6615 0.0827 0.4041
H9 H 0.8398 0.0278 0.2431
H10 H 0.8911 0.0041 0.4223
H11 H 0.9744 0.0690 0.2940
H12 H 0.7667 0.1600 0.0641
H13 H 0.6569 0.2181 0.1612
H14 H 0.7379 0.2864 0.0343
H15 H 0.9900 0.2061 0.1239
H16 H 1.0246 0.2946 0.2595
H17 H 0.9607 0.3323 0.0932
loop_
_geom_bond_atom_site_label_1
_geom_bond_atom_site_label_2
_geom_bond_site_symmetry_1
_geom_bond_site_symmetry_2
O1 C2 1_555 1_555
N1 C7 1_555 1_555
C1 C2 1_555 1_555
C2 C3 1_555 1_555
C3 C4 1_555 1_555
C4 C5 1_555 1_555
C5 C6 1_555 1_555
C6 C1 1_555 1_555
C7 C1 1_555 1_555
C8 C2 1_555 1_555
C9 C3 1_555 1_555
C10 C3 1_555 1_555
H1 C1 1_555 1_555
H2 C4 1_555 1_555
H3 C4 1_555 1_555
H4 C5 1_555 1_555
H5 C5 1_555 1_555
H6 C6 1_555 1_555
H7 C6 1_555 1_555
H8 O1 1_555 1_555
H9 C8 1_555 1_555
H10 C8 1_555 1_555
H11 C8 1_555 1_555
H12 C10 1_555 1_555
H13 C10 1_555 1_555
H14 C10 1_555 1_555
H15 C9 1_555 1_555
H16 C9 1_555 1_555
H17 C9 1_555 1_555

#END
