
#######################################################################
#
#                 Cambridge Crystallographic Data Centre
#                                CCDC 
#
#######################################################################
#
# If this CIF has been generated from an entry in the Cambridge 
# Structural Database, then it will include bibliographic, chemical, 
# crystal, experimental, refinement or atomic coordinate data resulting 
# from the CCDC's data processing and validation procedures.
#
#######################################################################

data_BASZOM
_chemical_formula_moiety         'C22 H34 Br4 O2'
_chemical_name_systematic        
1,2,4,5-tetrakis(Bromomethyl)-3,6-bis(hexyloxy)benzene
_symmetry_cell_setting           monoclinic
_symmetry_space_group_name_H-M   'P 21/c'
_symmetry_Int_Tables_number      14
_space_group_name_Hall           '-P 2ybc'
loop_
_symmetry_equiv_pos_site_id
_symmetry_equiv_pos_as_xyz
1 x,y,z
2 -x,1/2+y,1/2-z
3 -x,-y,-z
4 x,1/2-y,1/2+z
_cell_length_a                   11.9079(17)
_cell_length_b                   5.0428(7)
_cell_length_c                   20.687(3)
_cell_angle_alpha                90
_cell_angle_beta                 102.470(2)
_cell_angle_gamma                90
_cell_volume                     1212.93
_exptl_crystal_colour            colorless
_exptl_crystal_description       needle
_chemical_melting_point          '364 K'
_cell_formula_units_Z            2
_exptl_crystal_recrystallization_method dioxane
loop_
_atom_site_label
_atom_site_type_symbol
_atom_site_fract_x
_atom_site_fract_y
_atom_site_fract_z
C1 C 0.9402(2) 0.2989(5) 0.46154(12)
C2 C 1.0436(2) 0.3895(5) 0.44823(12)
C3 C 1.1040(2) 0.5930(5) 0.48705(12)
C4 C 1.2143(2) 0.6988(5) 0.47413(12)
Br1 Br 1.34464(2) 0.46464(6) 0.511893(13)
H1 H 1.2125 0.7084 0.4271
H2 H 1.2328 0.8734 0.4935
C5 C 1.0891(2) 0.2662(5) 0.39336(12)
Br2 Br 1.05505(2) 0.49176(6) 0.313145(13)
H3 H 1.1714 0.2397 0.4039
H4 H 1.0517 0.0991 0.3805
O1 O 0.88517(16) 0.0879(4) 0.42623(9)
C6 C 0.8016(2) 0.1566(5) 0.36701(12)
C7 C 0.7651(2) -0.0983(5) 0.32979(12)
C8 C 0.6818(2) -0.0491(5) 0.26446(12)
C9 C 0.6516(2) -0.3026(5) 0.22445(12)
C10 C 0.5743(2) -0.2548(5) 0.15680(12)
C11 C 0.5440(3) -0.5079(6) 0.11658(15)
H5 H 0.5003 -0.4654 0.0729
H6 H 0.6143 -0.5944 0.1116
H7 H 0.5014 -0.6284 0.1380
H8 H 0.6074 -0.1299 0.1304
H9 H 0.5006 -0.1833 0.1627
H10 H 0.7238 -0.3823 0.2186
H11 H 0.6141 -0.4279 0.2502
H12 H 0.7149 0.0716 0.2379
H13 H 0.6109 0.0254 0.2721
H14 H 0.8353 -0.1848 0.3221
H15 H 0.7304 -0.2156 0.3559
H16 H 0.8355 0.2816 0.3399
H17 H 0.7361 0.2420 0.3792
C1B C 1.0598(2) 0.7011(5) 0.53846(12)
C2B C 0.9564(2) 0.6105(5) 0.55177(12)
C3B C 0.8960(2) 0.4070(5) 0.51295(12)
C4B C 0.7857(2) 0.3012(5) 0.52587(12)
Br1B Br 0.65536(2) 0.53536(6) 0.488107(13)
H1B H 0.7875 0.2916 0.5729
H2B H 0.7672 0.1266 0.5065
C5B C 0.9109(2) 0.7338(5) 0.60664(12)
Br2B Br 0.94495(2) 0.50824(6) 0.686855(13)
H3B H 0.8286 0.7603 0.5961
H4B H 0.9483 0.9009 0.6195
O1B O 1.11483(16) 0.9121(4) 0.57377(9)
C6B C 1.1984(2) 0.8434(5) 0.63299(12)
C7B C 1.2349(2) 1.0983(5) 0.67021(12)
C8B C 1.3182(2) 1.0491(5) 0.73554(12)
C9B C 1.3484(2) 1.3026(5) 0.77555(12)
C10B C 1.4257(2) 1.2548(5) 0.84320(12)
C11B C 1.4560(3) 1.5079(6) 0.88342(15)
H5B H 1.4997 1.4654 0.9271
H6B H 1.3857 1.5944 0.8884
H7B H 1.4986 1.6284 0.8620
H8B H 1.3926 1.1299 0.8696
H9B H 1.4994 1.1833 0.8373
H10B H 1.2762 1.3823 0.7814
H11B H 1.3859 1.4279 0.7498
H12B H 1.2851 0.9284 0.7621
H13B H 1.3891 0.9746 0.7279
H14B H 1.1647 1.1848 0.6779
H15B H 1.2696 1.2156 0.6441
H16B H 1.1645 0.7184 0.6601
H17B H 1.2639 0.7580 0.6208
loop_
_geom_bond_atom_site_label_1
_geom_bond_atom_site_label_2
_geom_bond_site_symmetry_1
_geom_bond_site_symmetry_2
C1 C2 1_555 1_555
C2 C3 1_555 1_555
C3 C4 1_555 1_555
C4 Br1 1_555 1_555
H1 C4 1_555 1_555
H2 C4 1_555 1_555
C5 C2 1_555 1_555
Br2 C5 1_555 1_555
H3 C5 1_555 1_555
H4 C5 1_555 1_555
O1 C1 1_555 1_555
C6 O1 1_555 1_555
C7 C6 1_555 1_555
C8 C7 1_555 1_555
C9 C8 1_555 1_555
C10 C9 1_555 1_555
C11 C10 1_555 1_555
H5 C11 1_555 1_555
H6 C11 1_555 1_555
H7 C11 1_555 1_555
H8 C10 1_555 1_555
H9 C10 1_555 1_555
H10 C9 1_555 1_555
H11 C9 1_555 1_555
H12 C8 1_555 1_555
H13 C8 1_555 1_555
H14 C7 1_555 1_555
H15 C7 1_555 1_555
H16 C6 1_555 1_555
H17 C6 1_555 1_555
C1B C3 1_555 1_555
C2B C1B 1_555 1_555
C3B C1 1_555 1_555
C4B C3B 1_555 1_555
Br1B C4B 1_555 1_555
H1B C4B 1_555 1_555
H2B C4B 1_555 1_555
C5B C2B 1_555 1_555
Br2B C5B 1_555 1_555
H3B C5B 1_555 1_555
H4B C5B 1_555 1_555
O1B C1B 1_555 1_555
C6B O1B 1_555 1_555
C7B C6B 1_555 1_555
C8B C7B 1_555 1_555
C9B C8B 1_555 1_555
C10B C9B 1_555 1_555
C11B C10B 1_555 1_555
H5B C11B 1_555 1_555
H6B C11B 1_555 1_555
H7B C11B 1_555 1_555
H8B C10B 1_555 1_555
H9B C10B 1_555 1_555
H10B C9B 1_555 1_555
H11B C9B 1_555 1_555
H12B C8B 1_555 1_555
H13B C8B 1_555 1_555
H14B C7B 1_555 1_555
H15B C7B 1_555 1_555
H16B C6B 1_555 1_555
H17B C6B 1_555 1_555
C2B C3B 1_555 1_555

#END
