
#######################################################################
#
#                 Cambridge Crystallographic Data Centre
#                                CCDC 
#
#######################################################################
#
# If this CIF has been generated from an entry in the Cambridge 
# Structural Database, then it will include bibliographic, chemical, 
# crystal, experimental, refinement or atomic coordinate data resulting 
# from the CCDC's data processing and validation procedures.
#
#######################################################################

data_BATDUX
_chemical_name_common            '2-Methylquinoline hemikis(fumaric acid)'
_chemical_formula_moiety         'C10 H9 N1,0.5(C4 H4 O4)'
_chemical_name_systematic        
'2-Methylquinoline hemikis(but-2-enedioic acid)'
_symmetry_cell_setting           monoclinic
_symmetry_space_group_name_H-M   'P 21/n'
_symmetry_Int_Tables_number      14
_space_group_name_Hall           '-P 2yn'
loop_
_symmetry_equiv_pos_site_id
_symmetry_equiv_pos_as_xyz
1 x,y,z
2 1/2-x,1/2+y,1/2-z
3 -x,-y,-z
4 1/2+x,1/2-y,1/2+z
_cell_length_a                   7.4968(5)
_cell_length_b                   11.5092(9)
_cell_length_c                   12.6389(10)
_cell_angle_alpha                90
_cell_angle_beta                 105.789(1)
_cell_angle_gamma                90
_cell_volume                     1049.37
_exptl_crystal_colour            colorless
_exptl_crystal_description       block
_chemical_melting_point          '188-189 deg.C'
_cell_formula_units_Z            4
loop_
_atom_site_label
_atom_site_type_symbol
_atom_site_fract_x
_atom_site_fract_y
_atom_site_fract_z
N1 N 0.2084(2) 0.41630(14) 0.51628(14)
C3 C 0.2795(4) 0.3635(2) 0.7084(2)
H3 H 0.1594 0.3280 0.6943
H4 H 0.3079 0.4025 0.7781
H5 H 0.3710 0.3048 0.7098
C4 C 0.2795(3) 0.45011(19) 0.61901(19)
C5 C 0.3530(3) 0.5629(2) 0.64421(19)
H6 H 0.4009 0.5853 0.7171
C6 C 0.3537(3) 0.63859(19) 0.5618(2)
H7 H 0.4017 0.7130 0.5783
C7 C 0.2814(3) 0.60422(17) 0.45094(18)
C8 C 0.2083(3) 0.49125(16) 0.43073(17)
C9 C 0.1345(3) 0.45318(18) 0.32157(18)
H8 H 0.0847 0.3789 0.3079
C10 C 0.1357(3) 0.5257(2) 0.23511(19)
H9 H 0.0879 0.5001 0.1632
C11 C 0.2090(3) 0.6378(2) 0.2556(2)
H10 H 0.2093 0.6864 0.1968
C12 C 0.2797(3) 0.67677(18) 0.3602(2)
H11 H 0.3273 0.7517 0.3722
O1 O 0.0586(2) 1.21073(12) 0.48357(12)
H1 H 0.1153 1.2720 0.4858
O2 O 0.3451(3) 1.13509(13) 0.52739(15)
C1 C 0.1767(4) 1.12423(17) 0.50632(17)
C2 C 0.0883(3) 1.00864(18) 0.50390(16)
H2 H 0.1633 0.9435 0.5082
O1B O -0.0586(2) 0.78927(12) 0.51643(12)
H1B H -0.1153 0.7280 0.5142
O2B O -0.3451(3) 0.86491(13) 0.47261(15)
C1B C -0.1767(4) 0.87577(17) 0.49368(17)
C2B C -0.0883(3) 0.99136(18) 0.49610(16)
H2B H -0.1633 1.0565 0.4918
loop_
_geom_bond_atom_site_label_1
_geom_bond_atom_site_label_2
_geom_bond_site_symmetry_1
_geom_bond_site_symmetry_2
N1 C4 1_555 1_555
O1 H1 1_555 1_555
O2 C1 1_555 1_555
C1 O1 1_555 1_555
C2 C1 1_555 1_555
H2 C2 1_555 1_555
C3 H3 1_555 1_555
H4 C3 1_555 1_555
H5 C3 1_555 1_555
C4 C3 1_555 1_555
C5 C4 1_555 1_555
H6 C5 1_555 1_555
C6 C5 1_555 1_555
H7 C6 1_555 1_555
C7 C6 1_555 1_555
C8 N1 1_555 1_555
C9 C8 1_555 1_555
H8 C9 1_555 1_555
C10 C9 1_555 1_555
H9 C10 1_555 1_555
C11 C10 1_555 1_555
H10 C11 1_555 1_555
C12 C7 1_555 1_555
H11 C12 1_555 1_555
O1B H1B 1_555 1_555
O2B C1B 1_555 1_555
C1B O1B 1_555 1_555
C2B C2 1_555 1_555
H2B C2B 1_555 1_555
C7 C8 1_555 1_555
C11 C12 1_555 1_555
C1B C2B 1_555 1_555

#END
