
#######################################################################
#
#                 Cambridge Crystallographic Data Centre
#                                CCDC 
#
#######################################################################
#
# If this CIF has been generated from an entry in the Cambridge 
# Structural Database, then it will include bibliographic, chemical, 
# crystal, experimental, refinement or atomic coordinate data resulting 
# from the CCDC's data processing and validation procedures.
#
#######################################################################

data_BATFIN
_chemical_formula_moiety         'C10 H10 N1 1+,C6 H7 O7 1-'
_chemical_name_systematic        '2-Methylquinolinium dihydrogen citrate'
_symmetry_cell_setting           monoclinic
_symmetry_space_group_name_H-M   'P 21/n'
_symmetry_Int_Tables_number      14
_space_group_name_Hall           '-P 2yn'
loop_
_symmetry_equiv_pos_site_id
_symmetry_equiv_pos_as_xyz
1 x,y,z
2 1/2-x,1/2+y,1/2-z
3 -x,-y,-z
4 1/2+x,1/2-y,1/2+z
_cell_length_a                   7.5348(8)
_cell_length_b                   12.8294(15)
_cell_length_c                   16.9060(17)
_cell_angle_alpha                90
_cell_angle_beta                 94.097(1)
_cell_angle_gamma                90
_cell_volume                     1630.08
_exptl_crystal_colour            colorless
_exptl_crystal_description       block
_chemical_melting_point          '122-123 deg.C'
_cell_formula_units_Z            4
loop_
_atom_site_label
_atom_site_type_symbol
_atom_site_fract_x
_atom_site_fract_y
_atom_site_fract_z
N1 N 0.3268(3) 0.33723(19) 0.43934(15)
H1 H 0.3404 0.2884 0.4741
C1 C 0.3478(4) 0.3126(2) 0.36371(19)
C2 C 0.3254(4) 0.3918(3) 0.3068(2)
H5 H 0.3375 0.3766 0.2537
C3 C 0.2864(4) 0.4904(3) 0.3288(2)
H6 H 0.2742 0.5424 0.2904
C4 C 0.2639(4) 0.5159(3) 0.4089(2)
C5 C 0.2852(4) 0.4348(2) 0.46548(19)
C6 C 0.2665(4) 0.4547(3) 0.5459(2)
H7 H 0.2810 0.4015 0.5832
C7 C 0.2263(5) 0.5544(3) 0.5689(2)
H8 H 0.2146 0.5681 0.6223
C8 C 0.2024(4) 0.6361(3) 0.5134(3)
H9 H 0.1726 0.7025 0.5301
C9 C 0.2233(4) 0.6172(3) 0.4352(2)
H10 H 0.2107 0.6715 0.3988
C10 C 0.3954(4) 0.2040(3) 0.3431(2)
H11 H 0.5225 0.1974 0.3447
H12 H 0.3453 0.1879 0.2907
H13 H 0.3491 0.1567 0.3804
O1 O 1.0113(3) 0.21413(19) 0.19820(15)
O2 O 0.8523(3) 0.2312(2) 0.30322(15)
H2 H 0.9034 0.1770 0.3168
O3 O 0.4306(2) 0.41399(16) 0.09173(13)
O4 O 0.4752(3) 0.57118(18) 0.14127(17)
O5 O 1.1060(2) 0.43407(16) 0.12712(12)
H3 H 1.2050 0.4313 0.1100
O6 O 1.0328(2) 0.32529(17) 0.02554(12)
O7 O 0.7084(2) 0.29368(15) 0.07406(12)
H4 H 0.7681 0.2675 0.0405
C11 C 0.9011(4) 0.2599(3) 0.23306(18)
C12 C 0.8118(4) 0.3589(2) 0.20384(17)
H14 H 0.8728 0.4175 0.2299
H15 H 0.6904 0.3589 0.2195
C13 C 0.8079(3) 0.3753(2) 0.11421(16)
C14 C 0.7247(3) 0.4820(2) 0.09169(18)
H16 H 0.7924 0.5362 0.1201
H17 H 0.7335 0.4937 0.0354
C15 C 0.5299(3) 0.4908(2) 0.11025(17)
C16 C 0.9959(3) 0.3734(2) 0.08425(17)
loop_
_geom_bond_atom_site_label_1
_geom_bond_atom_site_label_2
_geom_bond_site_symmetry_1
_geom_bond_site_symmetry_2
N1 H1 1_555 1_555
O1 C11 1_555 1_555
O2 H2 1_555 1_555
O3 C15 1_555 1_555
O4 C15 1_555 1_555
O5 H3 1_555 1_555
O6 C16 1_555 1_555
O7 H4 1_555 1_555
C1 N1 1_555 1_555
C2 C1 1_555 1_555
H5 C2 1_555 1_555
C3 C2 1_555 1_555
H6 C3 1_555 1_555
C4 C3 1_555 1_555
C5 N1 1_555 1_555
C6 C5 1_555 1_555
H7 C6 1_555 1_555
C7 C6 1_555 1_555
H8 C7 1_555 1_555
C8 C7 1_555 1_555
H9 C8 1_555 1_555
C9 C4 1_555 1_555
H10 C9 1_555 1_555
C10 C1 1_555 1_555
H11 C10 1_555 1_555
H12 C10 1_555 1_555
H13 C10 1_555 1_555
C11 O2 1_555 1_555
C12 C11 1_555 1_555
H14 C12 1_555 1_555
H15 C12 1_555 1_555
C13 O7 1_555 1_555
C14 C13 1_555 1_555
H16 C14 1_555 1_555
H17 C14 1_555 1_555
C15 C14 1_555 1_555
C16 O5 1_555 1_555
C4 C5 1_555 1_555
C8 C9 1_555 1_555
C12 C13 1_555 1_555
C13 C16 1_555 1_555

#END
