
#######################################################################
#
#                 Cambridge Crystallographic Data Centre
#                                CCDC 
#
#######################################################################
#
# If this CIF has been generated from an entry in the Cambridge 
# Structural Database, then it will include bibliographic, chemical, 
# crystal, experimental, refinement or atomic coordinate data resulting 
# from the CCDC's data processing and validation procedures.
#
#######################################################################

data_BATGIN
_chemical_name_common            1-(beta-Glucopyranosyl)-5-nitroimidazole
_chemical_formula_moiety         'C9 H13 N3 O7'
_chemical_name_systematic        
1-(3,4,5-Trihydoxy-6-hydroxymethyl-tetrahydropyran-2-yl)-5-nitroimidazole
_symmetry_cell_setting           orthorhombic
_symmetry_space_group_name_H-M   'P 21 21 21'
_symmetry_Int_Tables_number      19
_space_group_name_Hall           'P 2ac 2ab'
loop_
_symmetry_equiv_pos_site_id
_symmetry_equiv_pos_as_xyz
1 x,y,z
2 1/2-x,-y,1/2+z
3 -x,1/2+y,1/2-z
4 1/2+x,1/2-y,-z
_cell_length_a                   6.4250(8)
_cell_length_b                   7.4450(13)
_cell_length_c                   23.1560(14)
_cell_angle_alpha                90
_cell_angle_beta                 90
_cell_angle_gamma                90
_cell_volume                     1107.65
_cell_formula_units_Z            4
loop_
_atom_site_label
_atom_site_type_symbol
_atom_site_fract_x
_atom_site_fract_y
_atom_site_fract_z
O1 O 0.4333(3) 0.1944(2) 0.63644(7)
O2 O 0.7193(3) 0.4907(2) 0.64272(7)
O3 O 0.7045(3) 0.6046(2) 0.72929(8)
O4 O 0.1964(3) 0.5064(2) 0.59787(7)
H1 H 0.1914(43) 0.5223(9) 0.63288(11)
O5 O 0.2370(3) 0.0416(2) 0.49811(7)
H2 H 0.1757(36) -0.0501(14) 0.4883(4)
O6 O 0.4823(3) -0.2677(2) 0.53945(7)
H3 H 0.3990(33) -0.3165(11) 0.5612(7)
O7 O 0.8327(3) -0.1388(2) 0.61251(8)
H4 H 0.8329(3) -0.2474(6) 0.6066(11)
N1 N 0.7192(3) 0.1444(2) 0.69260(8)
N2 N 0.8036(4) 0.0859(3) 0.78402(9)
N3 N 0.7196(3) 0.4766(3) 0.69535(9)
C1 C 0.3467(4) 0.2107(3) 0.57932(10)
H5 H 0.4460(4) 0.2737(3) 0.55440(10)
C2 C 0.6340(4) 0.1198(3) 0.63443(11)
H6 H 0.7188(4) 0.1874(3) 0.60678(11)
C3 C 0.6241(4) -0.0762(3) 0.61564(11)
H7 H 0.5466(4) -0.1464(3) 0.64426(11)
C4 C 0.5131(4) -0.0845(3) 0.55730(11)
H8 H 0.6067(4) -0.0294(3) 0.52896(11)
C5 C 0.3093(4) 0.0221(3) 0.55547(10)
H9 H 0.2035(4) -0.0390(3) 0.57877(10)
C6 C 0.7432(4) 0.3057(3) 0.72151(10)
C7 C 0.7952(4) 0.2678(3) 0.77670(11)
H10 H 0.8213(4) 0.3526(3) 0.80531(11)
C8 C 0.7537(4) 0.0174(3) 0.73320(10)
H11 H 0.7435(4) -0.1053(3) 0.72613(10)
C9 C 0.1521(4) 0.3223(3) 0.58518(11)
H12 H 0.0735(4) 0.3156(3) 0.54949(11)
H13 H 0.0664(4) 0.2728(3) 0.61576(11)
loop_
_geom_bond_atom_site_label_1
_geom_bond_atom_site_label_2
_geom_bond_site_symmetry_1
_geom_bond_site_symmetry_2
O1 C1 1_555 1_555
O2 N3 1_555 1_555
O3 N3 1_555 1_555
O4 H1 1_555 1_555
O5 H2 1_555 1_555
O6 H3 1_555 1_555
O7 H4 1_555 1_555
N1 C2 1_555 1_555
N2 C7 1_555 1_555
N3 C6 1_555 1_555
C1 H5 1_555 1_555
C2 O1 1_555 1_555
H6 C2 1_555 1_555
C3 O7 1_555 1_555
H7 C3 1_555 1_555
C4 O6 1_555 1_555
H8 C4 1_555 1_555
C5 O5 1_555 1_555
H9 C5 1_555 1_555
C6 N1 1_555 1_555
C7 C6 1_555 1_555
H10 C7 1_555 1_555
C8 N1 1_555 1_555
H11 C8 1_555 1_555
C9 O4 1_555 1_555
H12 C9 1_555 1_555
H13 C9 1_555 1_555
N2 C8 1_555 1_555
C1 C5 1_555 1_555
C1 C9 1_555 1_555
C2 C3 1_555 1_555
C3 C4 1_555 1_555
C4 C5 1_555 1_555

#END
