
#######################################################################
#
#                 Cambridge Crystallographic Data Centre
#                                CCDC 
#
#######################################################################
#
# If this CIF has been generated from an entry in the Cambridge 
# Structural Database, then it will include bibliographic, chemical, 
# crystal, experimental, refinement or atomic coordinate data resulting 
# from the CCDC's data processing and validation procedures.
#
#######################################################################

data_BATMIT
_chemical_formula_moiety         'C21 H25 N3 O6'
_chemical_name_systematic        
"Dimethyl 1'-benzyl-1-methyl-2,5-dioxohexahydrospiro[pyrrolidine-3,5'-pyrrolo[1,2-a]imidazole]-6',7'-dicarboxylate"
_symmetry_cell_setting           triclinic
_symmetry_space_group_name_H-M   'P -1'
_symmetry_Int_Tables_number      2
_space_group_name_Hall           '-P 1'
loop_
_symmetry_equiv_pos_site_id
_symmetry_equiv_pos_as_xyz
1 x,y,z
2 -x,-y,-z
_cell_length_a                   11.331(2)
_cell_length_b                   13.023(3)
_cell_length_c                   15.005(3)
_cell_angle_alpha                100.18(3)
_cell_angle_beta                 108.98(3)
_cell_angle_gamma                90.44(3)
_cell_volume                     2055.79
_exptl_crystal_colour            colorless
_exptl_crystal_description       block
_cell_formula_units_Z            4
loop_
_atom_site_label
_atom_site_type_symbol
_atom_site_fract_x
_atom_site_fract_y
_atom_site_fract_z
C1 C -0.4815(9) 1.2466(7) -0.7205(6)
C2 C -0.6062(9) 1.2031(8) -0.7615(7)
H1 H -0.6402 1.1629 -0.7274
C3 C -0.6784(10) 1.2187(8) -0.8509(7)
H2 H -0.7620 1.1887 -0.8780
C4 C -0.6320(12) 1.2769(9) -0.9017(8)
H3 H -0.6835 1.2878 -0.9629
C5 C -0.5085(11) 1.3198(8) -0.8625(8)
H4 H -0.4746 1.3584 -0.8977
C6 C -0.4349(10) 1.3057(7) -0.7711(6)
H5 H -0.3520 1.3371 -0.7435
C7 C -0.4017(8) 1.2314(7) -0.6225(6)
H6 H -0.4312 1.1653 -0.6101
H7 H -0.3143 1.2247 -0.6215
C8 C -0.5275(8) 1.3258(6) -0.5356(6)
H8 H -0.5712 1.2559 -0.5483
H9 H -0.5796 1.3683 -0.5801
C9 C -0.4997(7) 1.3793(6) -0.4322(6)
H10 H -0.4766 1.4549 -0.4224
H11 H -0.5712 1.3695 -0.4095
C10 C -0.3187(7) 1.3066(6) -0.4516(6)
H12 H -0.2880 1.2347 -0.4557
C11 C -0.2031(8) 1.3894(6) -0.4089(6)
H13 H -0.1238 1.3527 -0.3927
C12 C -0.2017(8) 1.4603(7) -0.4783(6)
C13 C -0.1428(9) 1.4786(7) -0.6112(7)
H14 H -0.2262 1.4988 -0.6455
H15 H -0.1077 1.4391 -0.6574
H16 H -0.0881 1.5416 -0.5761
C14 C -0.2196(8) 1.4494(7) -0.3167(6)
H17 H -0.2667 1.5119 -0.3333
C15 C -0.0959(9) 1.4891(6) -0.2386(6)
C16 C -0.0024(12) 1.5852(11) -0.0843(9)
H18 H 0.0600 1.5331 -0.0725
H19 H -0.0223 1.6100 -0.0256
H20 H 0.0310 1.6443 -0.1032
C17 C -0.3061(7) 1.3759(6) -0.2909(6)
C18 C -0.3728(8) 1.4229(7) -0.2220(6)
H21 H -0.3443 1.4975 -0.1961
H22 H -0.4644 1.4177 -0.2553
C19 C -0.3412(8) 1.3617(7) -0.1426(6)
C20 C -0.2336(8) 1.2921(7) -0.2426(6)
C21 C -0.2048(9) 1.2149(7) -0.0974(7)
H23 H -0.2160 1.2366 -0.0349
H24 H -0.1154 1.2121 -0.0885
H25 H -0.2474 1.1456 -0.1277
N1 N -0.4039(6) 1.3174(5) -0.5454(5)
N2 N -0.3901(6) 1.3208(5) -0.3842(5)
N3 N -0.2581(6) 1.2902(5) -0.1587(5)
O1 O -0.2323(5) 1.5478(5) -0.4728(4)
O2 O -0.1525(5) 1.4138(4) -0.5438(4)
O3 O 0.0051(6) 1.4792(5) -0.2446(4)
O4 O -0.1147(6) 1.5382(6) -0.1602(5)
O5 O -0.3785(6) 1.3711(5) -0.0747(5)
O6 O -0.1636(5) 1.2348(5) -0.2715(4)
C22 C 0.0147(8) 1.1529(7) 0.2691(6)
C23 C -0.1060(9) 1.1846(8) 0.2287(7)
H26 H -0.1345 1.2433 0.2613
C24 C -0.1834(10) 1.1296(9) 0.1411(7)
H27 H -0.2666 1.1493 0.1157
C25 C -0.1441(10) 1.0497(9) 0.0914(7)
H28 H -0.1981 1.0136 0.0309
C26 C -0.0246(11) 1.0204(8) 0.1292(7)
H29 H 0.0058 0.9649 0.0943
C27 C 0.0514(9) 1.0726(8) 0.2186(7)
H30 H 0.1330 1.0501 0.2449
C28 C 0.0994(8) 1.2117(7) 0.3656(6)
H31 H 0.1864 1.2157 0.3651
H32 H 0.0735 1.2840 0.3765
C29 C -0.0293(8) 1.1583(7) 0.4550(6)
H33 H -0.0835 1.0977 0.4112
H34 H -0.0703 1.2234 0.4416
C30 C -0.0030(7) 1.1495(6) 0.5569(6)
H35 H -0.0742 1.1702 0.5792
H36 H 0.0170 1.0778 0.5672
C31 C 0.1797(7) 1.2124(6) 0.5384(6)
H37 H 0.2101 1.2828 0.5333
C32 C 0.2961(7) 1.1486(6) 0.5849(6)
H38 H 0.3755 1.1932 0.6021
C33 C 0.3006(8) 1.0497(7) 0.5181(6)
C34 C 0.3554(9) 0.9738(7) 0.3846(6)
H39 H 0.4072 0.9245 0.4199
H40 H 0.3931 0.9938 0.3394
H41 H 0.2713 0.9407 0.3493
C35 C 0.2778(7) 1.1260(6) 0.6758(5)
H42 H 0.2315 1.0558 0.6592
C36 C 0.3980(9) 1.1229(6) 0.7574(6)
C37 C 0.4854(9) 1.1072(10) 0.9202(7)
H43 H 0.5327 1.0487 0.9031
H44 H 0.4580 1.0953 0.9734
H45 H 0.5388 1.1723 0.9398
C38 C 0.1884(8) 1.2095(6) 0.6990(6)
C39 C 0.1190(8) 1.1892(7) 0.7647(6)
H46 H 0.0277 1.1820 0.7301
H47 H 0.1441 1.1237 0.7885
C40 C 0.1511(8) 1.2799(7) 0.8466(6)
C41 C 0.2640(8) 1.3142(7) 0.7520(6)
C42 C 0.2926(9) 1.4464(7) 0.8995(6)
H48 H 0.3837 1.4487 0.9160
H49 H 0.2708 1.4517 0.9582
H50 H 0.2603 1.5050 0.8679
N4 N 0.0948(6) 1.1601(5) 0.4450(5)
N5 N 0.1072(6) 1.2248(5) 0.6048(5)
N6 N 0.2371(7) 1.3478(5) 0.8348(5)
O7 O 0.2644(5) 0.9628(4) 0.5224(4)
O8 O 0.3475(5) 1.0657(4) 0.4513(4)
O9 O 0.5006(6) 1.1300(5) 0.7526(4)
O10 O 0.3770(6) 1.1148(6) 0.8379(4)
O11 O 0.1114(6) 1.2964(5) 0.9131(5)
O12 O 0.3364(6) 1.3608(4) 0.7251(4)
loop_
_geom_bond_atom_site_label_1
_geom_bond_atom_site_label_2
_geom_bond_site_symmetry_1
_geom_bond_site_symmetry_2
C1 C2 1_555 1_555
C2 H1 1_555 1_555
C3 C2 1_555 1_555
H2 C3 1_555 1_555
C4 C3 1_555 1_555
H3 C4 1_555 1_555
C5 C4 1_555 1_555
H4 C5 1_555 1_555
C6 C1 1_555 1_555
H5 C6 1_555 1_555
C7 C1 1_555 1_555
H6 C7 1_555 1_555
H7 C7 1_555 1_555
C8 H8 1_555 1_555
H9 C8 1_555 1_555
C9 C8 1_555 1_555
H10 C9 1_555 1_555
H11 C9 1_555 1_555
C10 H12 1_555 1_555
C11 C10 1_555 1_555
H13 C11 1_555 1_555
C12 C11 1_555 1_555
C13 H14 1_555 1_555
H15 C13 1_555 1_555
H16 C13 1_555 1_555
C14 C11 1_555 1_555
H17 C14 1_555 1_555
C15 C14 1_555 1_555
C16 H18 1_555 1_555
H19 C16 1_555 1_555
H20 C16 1_555 1_555
C17 C14 1_555 1_555
C18 C17 1_555 1_555
H21 C18 1_555 1_555
H22 C18 1_555 1_555
C19 C18 1_555 1_555
C20 C17 1_555 1_555
C21 H23 1_555 1_555
H24 C21 1_555 1_555
H25 C21 1_555 1_555
N1 C7 1_555 1_555
N2 C9 1_555 1_555
N3 C19 1_555 1_555
O1 C12 1_555 1_555
O2 C12 1_555 1_555
O3 C15 1_555 1_555
O4 C15 1_555 1_555
O5 C19 1_555 1_555
O6 C20 1_555 1_555
C22 C23 1_555 1_555
C23 H26 1_555 1_555
C24 C23 1_555 1_555
H27 C24 1_555 1_555
C25 C24 1_555 1_555
H28 C25 1_555 1_555
C26 C25 1_555 1_555
H29 C26 1_555 1_555
C27 C22 1_555 1_555
H30 C27 1_555 1_555
C28 C22 1_555 1_555
H31 C28 1_555 1_555
H32 C28 1_555 1_555
C29 H33 1_555 1_555
H34 C29 1_555 1_555
C30 C29 1_555 1_555
H35 C30 1_555 1_555
H36 C30 1_555 1_555
C31 H37 1_555 1_555
C32 C31 1_555 1_555
H38 C32 1_555 1_555
C33 C32 1_555 1_555
C34 H39 1_555 1_555
H40 C34 1_555 1_555
H41 C34 1_555 1_555
C35 C32 1_555 1_555
H42 C35 1_555 1_555
C36 C35 1_555 1_555
C37 H43 1_555 1_555
H44 C37 1_555 1_555
H45 C37 1_555 1_555
C38 C35 1_555 1_555
C39 C38 1_555 1_555
H46 C39 1_555 1_555
H47 C39 1_555 1_555
C40 C39 1_555 1_555
C41 C38 1_555 1_555
C42 H48 1_555 1_555
H49 C42 1_555 1_555
H50 C42 1_555 1_555
N4 C28 1_555 1_555
N5 C30 1_555 1_555
N6 C40 1_555 1_555
O7 C33 1_555 1_555
O8 C33 1_555 1_555
O9 C36 1_555 1_555
O10 C36 1_555 1_555
O11 C40 1_555 1_555
O12 C41 1_555 1_555
C5 C6 1_555 1_555
C8 N1 1_555 1_555
C10 N1 1_555 1_555
C10 N2 1_555 1_555
C13 O2 1_555 1_555
C16 O4 1_555 1_555
C17 N2 1_555 1_555
C20 N3 1_555 1_555
C21 N3 1_555 1_555
C26 C27 1_555 1_555
C29 N4 1_555 1_555
C31 N4 1_555 1_555
C31 N5 1_555 1_555
C34 O8 1_555 1_555
C37 O10 1_555 1_555
C38 N5 1_555 1_555
C41 N6 1_555 1_555
C42 N6 1_555 1_555

#END
