
#######################################################################
#
#                 Cambridge Crystallographic Data Centre
#                                CCDC 
#
#######################################################################
#
# If this CIF has been generated from an entry in the Cambridge 
# Structural Database, then it will include bibliographic, chemical, 
# crystal, experimental, refinement or atomic coordinate data resulting 
# from the CCDC's data processing and validation procedures.
#
#######################################################################

data_BATRUJ01
_chemical_name_common            'Sceptrin trihydrate'
_chemical_formula_moiety         'C22 H26 Br2 N10 O2 2+,3(H2 O1),2(Cl1 1-)'
_chemical_name_systematic        
"4,4'-(3,4-bis((((4-bromo-1H-pyrrol-2-yl)carbonyl)amino)methyl)cyclobutane-1,2-diyl)bis(1,3-dihydro-2H-imidazol-2-iminium) dichloride trihydrate"
_symmetry_cell_setting           monoclinic
_symmetry_space_group_name_H-M   'C 2'
_symmetry_Int_Tables_number      5
_space_group_name_Hall           'C 2y'
loop_
_symmetry_equiv_pos_site_id
_symmetry_equiv_pos_as_xyz
1 x,y,z
2 -x,y,-z
3 1/2+x,1/2+y,z
4 1/2-x,1/2+y,-z
_cell_length_a                   19.5358(6)
_cell_length_b                   13.3321(4)
_cell_length_c                   13.6346(4)
_cell_angle_alpha                90
_cell_angle_beta                 122.6485(8)
_cell_angle_gamma                90
_cell_volume                     2990.08
_exptl_crystal_colour            colorless
_exptl_crystal_description       Block
_cell_formula_units_Z            4
loop_
_atom_site_label
_atom_site_type_symbol
_atom_site_fract_x
_atom_site_fract_y
_atom_site_fract_z
Br1 Br 0.43235(3) 1.00712(3) 0.08231(4)
O1 O 0.60519(18) 0.5814(2) 0.2383(3)
N1 N 0.3010(2) 0.1259(3) -0.2087(3)
H1 H 0.275(3) 0.082(3) -0.267(3)
N2 N 0.3289(2) 0.2110(3) -0.0560(3)
H2 H 0.327(3) 0.235(4) 0.003(3)
N3 N 0.4709(2) 0.5665(3) 0.0942(3)
H3 H 0.426(2) 0.594(4) 0.034(3)
N4 N 0.2072(2) 0.1146(3) -0.1474(3)
H4 H 0.185(3) 0.058(3) -0.188(5)
H5 H 0.199(4) 0.112(5) -0.088(4)
N5 N 0.5990(2) 0.7870(3) 0.1913(3)
H6 H 0.6490(17) 0.760(4) 0.224(5)
C1 C 0.3744(3) 0.1748(3) -0.1686(4)
H7 H 0.4061 0.1713 -0.2023
C2 C 0.3924(2) 0.2277(3) -0.0738(4)
C3 C 0.4644(2) 0.2879(3) 0.0096(3)
H8 H 0.4843 0.2669 0.0913
C4 C 0.4602(2) 0.4052(3) 0.0001(3)
H9 H 0.4125 0.4283 -0.0762
C5 C 0.4649(3) 0.4582(3) 0.1020(4)
H10 H 0.4159 0.4421 0.1031
H11 H 0.5130 0.4337 0.1757
C6 C 0.2755(3) 0.1472(3) -0.1381(4)
C7 C 0.5389(3) 0.6194(3) 0.1629(4)
C8 C 0.5301(3) 0.7285(3) 0.1484(4)
C9 C 0.4642(3) 0.7905(3) 0.1046(4)
H12 H 0.4090 0.7706 0.0688
C10 C 0.4939(3) 0.8891(3) 0.1229(4)
C11 C 0.5772(3) 0.8856(3) 0.1747(4)
H13 H 0.6126 0.9415 0.1948
Br1A Br 0.56765(3) 1.00712(3) -0.08231(4)
O1A O 0.39481(18) 0.5814(2) -0.2383(3)
N1A N 0.6990(2) 0.1259(3) 0.2087(3)
H1A H 0.725(3) 0.082(3) 0.267(3)
N2A N 0.6711(2) 0.2110(3) 0.0560(3)
H2A H 0.673(3) 0.235(4) -0.003(3)
N3A N 0.5291(2) 0.5665(3) -0.0942(3)
H3A H 0.574(2) 0.594(4) -0.034(3)
N4A N 0.7928(2) 0.1146(3) 0.1474(3)
H4A H 0.815(3) 0.058(3) 0.188(5)
H5A H 0.801(4) 0.112(5) 0.088(4)
N5A N 0.4010(2) 0.7870(3) -0.1913(3)
H6A H 0.3510(17) 0.760(4) -0.224(5)
C1A C 0.6256(3) 0.1748(3) 0.1686(4)
H7A H 0.5939 0.1713 0.2023
C2A C 0.6076(2) 0.2277(3) 0.0738(4)
C3A C 0.5356(2) 0.2879(3) -0.0096(3)
H8A H 0.5157 0.2669 -0.0913
C4A C 0.5398(2) 0.4052(3) -0.0001(3)
H9A H 0.5875 0.4283 0.0762
C5A C 0.5351(3) 0.4582(3) -0.1020(4)
H10A H 0.5841 0.4421 -0.1031
H11A H 0.4870 0.4337 -0.1757
C6A C 0.7245(3) 0.1472(3) 0.1381(4)
C7A C 0.4611(3) 0.6194(3) -0.1629(4)
C8A C 0.4699(3) 0.7285(3) -0.1484(4)
C9A C 0.5358(3) 0.7905(3) -0.1046(4)
H12A H 0.5910 0.7706 -0.0688
C10A C 0.5061(3) 0.8891(3) -0.1229(4)
C11A C 0.4228(3) 0.8856(3) -0.1747(4)
H13A H 0.3874 0.9415 -0.1948
Br2 Br 0.38566(3) 0.06154(3) 0.58092(4)
O2 O 0.62412(17) 0.4366(2) 0.7334(2)
N6 N 0.7019(2) 0.9266(3) 0.7393(3)
H14 H 0.735(3) 0.967(4) 0.799(4)
N7 N 0.6589(2) 0.8248(3) 0.5944(3)
H15 H 0.651(3) 0.789(4) 0.534(3)
N8 N 0.49183(19) 0.4835(3) 0.6182(3)
H16 H 0.4394(12) 0.468(4) 0.568(3)
N9 N 0.7828(2) 0.9129(3) 0.6572(4)
H17 H 0.804(3) 0.971(2) 0.693(4)
H18 H 0.773(4) 0.914(4) 0.585(2)
N10 N 0.5776(2) 0.2350(3) 0.6641(4)
H19 H 0.6272(17) 0.251(5) 0.681(5)
C12 C 0.6297(3) 0.8848(3) 0.7178(4)
H20 H 0.6046 0.8987 0.7596
C13 C 0.6018(3) 0.8212(3) 0.6273(4)
C14 C 0.5268(2) 0.7595(3) 0.5680(3)
H21 H 0.4922 0.7783 0.5987
C15 C 0.5323(2) 0.6424(3) 0.5662(3)
H22 H 0.5866 0.6192 0.5843
C16 C 0.5071(2) 0.5903(3) 0.6414(3)
H23 H 0.5506 0.5997 0.7243
H24 H 0.4573 0.6227 0.6282
C17 C 0.7178(3) 0.8903(3) 0.6631(4)
C18 C 0.5506(2) 0.4144(3) 0.6693(3)
C19 C 0.5246(3) 0.3094(3) 0.6486(3)
C20 C 0.4517(3) 0.2653(3) 0.6182(4)
H25 H 0.4034 0.2984 0.6014
C21 C 0.4638(3) 0.1613(3) 0.6175(4)
C22 C 0.5410(3) 0.1448(3) 0.6435(4)
H26 H 0.5646 0.0816 0.6466
Br2A Br 0.61434(3) 0.06154(3) 0.41908(4)
O2A O 0.37588(17) 0.4366(2) 0.2666(2)
N6A N 0.2981(2) 0.9266(3) 0.2607(3)
H14A H 0.265(3) 0.967(4) 0.201(4)
N7A N 0.3411(2) 0.8248(3) 0.4056(3)
H15A H 0.349(3) 0.789(4) 0.466(3)
N8A N 0.50817(19) 0.4835(3) 0.3818(3)
H16A H 0.5606(12) 0.468(4) 0.432(3)
N9A N 0.2172(2) 0.9129(3) 0.3428(4)
H17A H 0.196(3) 0.971(2) 0.307(4)
H18A H 0.227(4) 0.914(4) 0.415(2)
N10A N 0.4224(2) 0.2350(3) 0.3359(4)
H19A H 0.3728(17) 0.251(5) 0.319(5)
C12A C 0.3703(3) 0.8848(3) 0.2822(4)
H20A H 0.3954 0.8987 0.2404
C13A C 0.3982(3) 0.8212(3) 0.3727(4)
C14A C 0.4732(2) 0.7595(3) 0.4320(3)
H21A H 0.5078 0.7783 0.4013
C15A C 0.4677(2) 0.6424(3) 0.4338(3)
H22A H 0.4134 0.6192 0.4157
C16A C 0.4929(2) 0.5903(3) 0.3586(3)
H23A H 0.4494 0.5997 0.2757
H24A H 0.5427 0.6227 0.3718
C17A C 0.2822(3) 0.8903(3) 0.3369(4)
C18A C 0.4494(2) 0.4144(3) 0.3307(3)
C19A C 0.4754(3) 0.3094(3) 0.3514(3)
C20A C 0.5483(3) 0.2653(3) 0.3818(4)
H25A H 0.5966 0.2984 0.3986
C21A C 0.5362(3) 0.1613(3) 0.3825(4)
C22A C 0.4590(3) 0.1448(3) 0.3565(4)
H26A H 0.4354 0.0816 0.3534
Cl1 Cl 0.78608(7) 0.10810(9) 0.90411(10)
Cl2 Cl 0.29200(5) 0.48138(7) 0.43235(8)
O3 O 0.2811(2) 0.3118(3) 0.0718(3)
H27 H 0.254(3) 0.360(3) 0.023(4)
H28 H 0.247(3) 0.272(3) 0.076(5)
O4 O 0.7242(2) 0.2661(3) 0.6663(3)
H29 H 0.727(4) 0.3258(18) 0.639(5)
H30 H 0.726(4) 0.222(3) 0.619(4)
O5 O 0.3088(2) 0.6956(3) 0.5436(3)
H31 H 0.302(4) 0.638(3) 0.503(4)
H32 H 0.291(4) 0.672(4) 0.589(4)
loop_
_geom_bond_atom_site_label_1
_geom_bond_atom_site_label_2
_geom_bond_site_symmetry_1
_geom_bond_site_symmetry_2
Br1 C10 1_555 1_555
O1 C7 1_555 1_555
N1 H1 1_555 1_555
N2 H2 1_555 1_555
N3 H3 1_555 1_555
N4 H4 1_555 1_555
H5 N4 1_555 1_555
N5 H6 1_555 1_555
C1 N1 1_555 1_555
H7 C1 1_555 1_555
C2 N2 1_555 1_555
C3 C2 1_555 1_555
H8 C3 1_555 1_555
C4 C3 1_555 1_555
H9 C4 1_555 1_555
C5 N3 1_555 1_555
H10 C5 1_555 1_555
H11 C5 1_555 1_555
C6 N1 1_555 1_555
C7 N3 1_555 1_555
C8 N5 1_555 1_555
C9 C8 1_555 1_555
H12 C9 1_555 1_555
C10 C9 1_555 1_555
C11 N5 1_555 1_555
H13 C11 1_555 1_555
Br2 C21 1_555 1_555
O2 C18 1_555 1_555
N6 H14 1_555 1_555
N7 H15 1_555 1_555
N8 H16 1_555 1_555
N9 H17 1_555 1_555
H18 N9 1_555 1_555
N10 H19 1_555 1_555
C12 N6 1_555 1_555
H20 C12 1_555 1_555
C13 N7 1_555 1_555
C14 C13 1_555 1_555
H21 C14 1_555 1_555
C15 C14 1_555 1_555
H22 C15 1_555 1_555
C16 N8 1_555 1_555
H23 C16 1_555 1_555
H24 C16 1_555 1_555
C17 N6 1_555 1_555
C18 N8 1_555 1_555
C19 N10 1_555 1_555
C20 C19 1_555 1_555
H25 C20 1_555 1_555
C21 C20 1_555 1_555
C22 N10 1_555 1_555
H26 C22 1_555 1_555
O3 H27 1_555 1_555
H28 O3 1_555 1_555
O4 H29 1_555 1_555
H30 O4 1_555 1_555
O5 H31 1_555 1_555
H32 O5 1_555 1_555
Br1A C10A 1_555 1_555
O1A C7A 1_555 1_555
N1A H1A 1_555 1_555
N2A H2A 1_555 1_555
N3A H3A 1_555 1_555
N4A H4A 1_555 1_555
H5A N4A 1_555 1_555
N5A H6A 1_555 1_555
C1A N1A 1_555 1_555
H7A C1A 1_555 1_555
C2A N2A 1_555 1_555
C3A C3 1_555 1_555
H8A C3A 1_555 1_555
C4A C4 1_555 1_555
H9A C4A 1_555 1_555
C5A N3A 1_555 1_555
H10A C5A 1_555 1_555
H11A C5A 1_555 1_555
C6A N1A 1_555 1_555
C7A N3A 1_555 1_555
C8A N5A 1_555 1_555
C9A C8A 1_555 1_555
H12A C9A 1_555 1_555
C10A C9A 1_555 1_555
C11A N5A 1_555 1_555
H13A C11A 1_555 1_555
Br2A C21A 1_555 1_555
O2A C18A 1_555 1_555
N6A H14A 1_555 1_555
N7A H15A 1_555 1_555
N8A H16A 1_555 1_555
N9A H17A 1_555 1_555
H18A N9A 1_555 1_555
N10A H19A 1_555 1_555
C12A N6A 1_555 1_555
H20A C12A 1_555 1_555
C13A N7A 1_555 1_555
C14A C14 1_555 1_555
H21A C14A 1_555 1_555
C15A C15 1_555 1_555
H22A C15A 1_555 1_555
C16A N8A 1_555 1_555
H23A C16A 1_555 1_555
H24A C16A 1_555 1_555
C17A N6A 1_555 1_555
C18A N8A 1_555 1_555
C19A N10A 1_555 1_555
C20A C19A 1_555 1_555
H25A C20A 1_555 1_555
C21A C20A 1_555 1_555
C22A N10A 1_555 1_555
H26A C22A 1_555 1_555
N2 C6 1_555 1_555
N4 C6 1_555 1_555
C1 C2 1_555 1_555
C4 C5 1_555 1_555
C7 C8 1_555 1_555
C10 C11 1_555 1_555
N7 C17 1_555 1_555
N9 C17 1_555 1_555
C12 C13 1_555 1_555
C15 C16 1_555 1_555
C18 C19 1_555 1_555
C21 C22 1_555 1_555
N2A C6A 1_555 1_555
N4A C6A 1_555 1_555
C1A C2A 1_555 1_555
C2A C3A 1_555 1_555
C3A C4A 1_555 1_555
C4A C5A 1_555 1_555
C7A C8A 1_555 1_555
C10A C11A 1_555 1_555
N7A C17A 1_555 1_555
N9A C17A 1_555 1_555
C12A C13A 1_555 1_555
C13A C14A 1_555 1_555
C14A C15A 1_555 1_555
C15A C16A 1_555 1_555
C18A C19A 1_555 1_555
C21A C22A 1_555 1_555

#END
