
#######################################################################
#
#                 Cambridge Crystallographic Data Centre
#                                CCDC 
#
#######################################################################
#
# If this CIF has been generated from an entry in the Cambridge 
# Structural Database, then it will include bibliographic, chemical, 
# crystal, experimental, refinement or atomic coordinate data resulting 
# from the CCDC's data processing and validation procedures.
#
#######################################################################

data_BATTOH
_chemical_formula_moiety         'C28 H29 F3 N2 O2'
_chemical_name_systematic        
9-(Benzyloxy)-6'-methoxy-9-(trifluoromethyl)cinchonan
_symmetry_cell_setting           monoclinic
_symmetry_space_group_name_H-M   'P 21'
_symmetry_Int_Tables_number      4
_space_group_name_Hall           'P 2yb'
loop_
_symmetry_equiv_pos_site_id
_symmetry_equiv_pos_as_xyz
1 x,y,z
2 -x,1/2+y,-z
_cell_length_a                   11.1759(15)
_cell_length_b                   12.3706(17)
_cell_length_c                   17.622(2)
_cell_angle_alpha                90
_cell_angle_beta                 99.385(2)
_cell_angle_gamma                90
_cell_volume                     2403.68
_exptl_crystal_colour            colorless
_exptl_crystal_description       prism
_cell_formula_units_Z            4
loop_
_atom_site_label
_atom_site_type_symbol
_atom_site_fract_x
_atom_site_fract_y
_atom_site_fract_z
F1 F 0.22120(17) 0.32711(14) 0.85958(11)
F2 F 0.10032(16) 0.45479(14) 0.81201(10)
F3 F 0.09083(16) 0.39208(15) 0.92453(11)
O1 O 0.28968(18) 0.47722(16) 0.99489(11)
O2 O 0.69152(18) 0.60184(19) 1.09593(13)
N1 N 0.2778(2) 0.7070(2) 0.93654(14)
C1 C 0.3560(3) 0.4957(3) 0.79569(18)
H1 H 0.2766 0.4826 0.7686
C2 C 0.4537(3) 0.5002(3) 0.75524(19)
H2 H 0.4366 0.4910 0.7010
N2 N 0.5667(3) 0.5161(2) 0.78638(15)
C3 C 0.5874(3) 0.5332(3) 0.86442(18)
C4 C 0.7096(3) 0.5530(3) 0.8979(2)
H3 H 0.7711 0.5512 0.8666
C5 C 0.7401(3) 0.5744(3) 0.9743(2)
H4 H 0.8223 0.5872 0.9961
C6 C 0.6488(3) 0.5774(2) 1.02092(19)
C7 C 0.5305(3) 0.5574(2) 0.99087(18)
H5 H 0.4707 0.5598 1.0235
C8 C 0.4951(3) 0.5330(2) 0.91132(17)
C9 C 0.3734(3) 0.5100(2) 0.87449(17)
C10 C 0.2622(3) 0.5042(3) 0.91598(16)
C11 C 0.3398(3) 0.3722(3) 1.01647(18)
H6 H 0.4083 0.3567 0.9889
H7 H 0.2773 0.3157 1.0029
C12 C 0.3830(3) 0.3728(2) 1.10201(17)
C13 C 0.3228(3) 0.4330(3) 1.15074(19)
H8 H 0.2526 0.4733 1.1302
C14 C 0.3652(3) 0.4342(3) 1.22963(19)
H9 H 0.3250 0.4767 1.2627
C15 C 0.4649(3) 0.3740(3) 1.25970(19)
H10 H 0.4938 0.3751 1.3135
C16 C 0.5233(3) 0.3118(3) 1.21190(19)
H11 H 0.5912 0.2689 1.2330
C17 C 0.4829(3) 0.3118(3) 1.13306(18)
H12 H 0.5241 0.2698 1.1003
C18 C 0.1963(3) 0.6154(3) 0.91037(18)
H13 H 0.1677 0.6279 0.8543
C19 C 0.2857(3) 0.7240(3) 1.02071(18)
H14 H 0.3513 0.7763 1.0385
H15 H 0.3069 0.6548 1.0477
C20 C 0.1648(3) 0.7669(3) 1.04212(17)
H16 H 0.1707 0.8474 1.0464
C21 C 0.0664(3) 0.7395(3) 0.97330(18)
H17 H -0.0161 0.7511 0.9868
C22 C 0.0814(3) 0.6217(3) 0.94888(18)
H18 H 0.0093 0.5985 0.9122
H19 H 0.0902 0.5736 0.9944
C23 C 0.0868(3) 0.8151(3) 0.90719(18)
H20 H 0.0682 0.8907 0.9195
H21 H 0.0334 0.7940 0.8590
C24 C 0.2215(3) 0.8044(3) 0.89775(19)
H22 H 0.2273 0.8010 0.8423
H23 H 0.2665 0.8692 0.9196
C25 C 0.1430(3) 0.7235(3) 1.11797(19)
H24 H 0.1091 0.6531 1.1183
C26 C 0.1665(4) 0.7736(3) 1.1831(2)
H25 H 0.2004 0.8441 1.1854
H26 H 0.1497 0.7399 1.2287
C27 C 0.6059(3) 0.6170(3) 1.14688(19)
H27 H 0.5628 0.5490 1.1519
H28 H 0.5475 0.6730 1.1262
H29 H 0.6485 0.6394 1.1975
C28 C 0.1689(3) 0.4193(3) 0.87730(18)
F4 F 0.70218(18) 0.29140(15) 0.53666(11)
F5 F 0.70865(18) 0.36022(16) 0.64970(11)
F6 F 0.87276(17) 0.33541(15) 0.60317(12)
O3 O 0.83784(18) 0.49153(17) 0.50291(11)
O4 O 0.7238(2) 0.7833(2) 0.32491(13)
N3 N 0.7840(2) 0.6758(2) 0.58945(14)
C29 C 0.5211(3) 0.4522(3) 0.52821(19)
H30 H 0.5339 0.4039 0.5707
C30 C 0.4038(3) 0.4681(3) 0.4890(2)
H31 H 0.3394 0.4306 0.5067
N4 N 0.3768(2) 0.5319(3) 0.42880(17)
C31 C 0.4708(3) 0.5887(3) 0.40711(19)
C32 C 0.4411(3) 0.6591(3) 0.3439(2)
H32 H 0.3593 0.6633 0.3188
C33 C 0.5256(3) 0.7206(3) 0.3181(2)
H33 H 0.5034 0.7672 0.2753
C34 C 0.6476(3) 0.7152(3) 0.35521(19)
C35 C 0.6809(3) 0.6479(3) 0.41650(17)
H34 H 0.7631 0.6459 0.4411
C36 C 0.5939(3) 0.5807(3) 0.44394(17)
C37 C 0.6187(3) 0.5050(3) 0.50688(18)
C38 C 0.7471(3) 0.4826(3) 0.55052(17)
C39 C 0.8243(3) 0.4205(3) 0.43699(18)
H35 H 0.7374 0.4136 0.4147
H36 H 0.8557 0.3478 0.4529
C40 C 0.8930(3) 0.4663(2) 0.37850(18)
C41 C 0.8382(3) 0.4755(3) 0.30226(19)
H37 H 0.7549 0.4576 0.2880
C42 C 0.9039(3) 0.5108(3) 0.24658(19)
H38 H 0.8656 0.5166 0.1945
C43 C 1.0250(3) 0.5374(3) 0.2670(2)
H39 H 1.0705 0.5601 0.2288
C44 C 1.0797(3) 0.5309(3) 0.3429(2)
H40 H 1.1623 0.5510 0.3573
C45 C 1.0140(3) 0.4948(3) 0.39823(18)
H41 H 1.0524 0.4897 0.4503
C46 C 0.7767(3) 0.5647(3) 0.61812(17)
H42 H 0.7044 0.5639 0.6449
C47 C 0.9100(3) 0.7042(3) 0.58151(18)
H43 H 0.9102 0.7747 0.5550
H44 H 0.9420 0.6491 0.5493
C48 C 0.9942(3) 0.7109(3) 0.66056(18)
H45 H 0.9993 0.7886 0.6762
C49 C 0.9276(3) 0.6507(3) 0.71731(18)
H46 H 0.9829 0.6399 0.7674
C50 C 0.8865(3) 0.5411(3) 0.68138(17)
H47 H 0.8628 0.4919 0.7207
H48 H 0.9527 0.5068 0.6589
C51 C 0.8179(3) 0.7183(3) 0.72934(19)
H49 H 0.8447 0.7847 0.7586
H50 H 0.7652 0.6765 0.7586
C52 C 0.7476(3) 0.7481(3) 0.64846(18)
H51 H 0.6593 0.7411 0.6484
H52 H 0.7648 0.8240 0.6363
C53 C 1.1208(3) 0.6712(3) 0.6623(2)
H53 H 1.1716 0.6761 0.7109
C54 C 1.1725(4) 0.6308(3) 0.6073(2)
H54 H 1.1275 0.6233 0.5569
H55 H 1.2550 0.6089 0.6176
C55 C 0.8490(3) 0.7812(3) 0.3579(2)
H56 H 0.8806 0.7077 0.3549
H57 H 0.8584 0.8038 0.4118
H58 H 0.8941 0.8308 0.3296
C56 C 0.7569(3) 0.3667(3) 0.5846(2)
loop_
_geom_bond_atom_site_label_1
_geom_bond_atom_site_label_2
_geom_bond_site_symmetry_1
_geom_bond_site_symmetry_2
F1 C28 1_555 1_555
F2 C28 1_555 1_555
F3 C28 1_555 1_555
O1 C10 1_555 1_555
O2 C6 1_555 1_555
N1 C18 1_555 1_555
C1 H1 1_555 1_555
C2 C1 1_555 1_555
H2 C2 1_555 1_555
N2 C2 1_555 1_555
C3 N2 1_555 1_555
C4 C3 1_555 1_555
H3 C4 1_555 1_555
C5 C4 1_555 1_555
H4 C5 1_555 1_555
C6 C5 1_555 1_555
C7 C6 1_555 1_555
H5 C7 1_555 1_555
C8 C3 1_555 1_555
C9 C1 1_555 1_555
C10 C9 1_555 1_555
C11 O1 1_555 1_555
H6 C11 1_555 1_555
H7 C11 1_555 1_555
C12 C11 1_555 1_555
C13 C12 1_555 1_555
H8 C13 1_555 1_555
C14 C13 1_555 1_555
H9 C14 1_555 1_555
C15 C14 1_555 1_555
H10 C15 1_555 1_555
C16 C15 1_555 1_555
H11 C16 1_555 1_555
C17 C12 1_555 1_555
H12 C17 1_555 1_555
C18 C10 1_555 1_555
H13 C18 1_555 1_555
C19 N1 1_555 1_555
H14 C19 1_555 1_555
H15 C19 1_555 1_555
C20 C19 1_555 1_555
H16 C20 1_555 1_555
C21 C20 1_555 1_555
H17 C21 1_555 1_555
C22 C18 1_555 1_555
H18 C22 1_555 1_555
H19 C22 1_555 1_555
C23 C21 1_555 1_555
H20 C23 1_555 1_555
H21 C23 1_555 1_555
C24 N1 1_555 1_555
H22 C24 1_555 1_555
H23 C24 1_555 1_555
C25 C20 1_555 1_555
H24 C25 1_555 1_555
C26 C25 1_555 1_555
H25 C26 1_555 1_555
H26 C26 1_555 1_555
C27 O2 1_555 1_555
H27 C27 1_555 1_555
H28 C27 1_555 1_555
H29 C27 1_555 1_555
C28 C10 1_555 1_555
F4 C56 1_555 1_555
F5 C56 1_555 1_555
F6 C56 1_555 1_555
O3 C38 1_555 1_555
O4 C34 1_555 1_555
N3 C46 1_555 1_555
C29 H30 1_555 1_555
C30 C29 1_555 1_555
H31 C30 1_555 1_555
N4 C30 1_555 1_555
C31 N4 1_555 1_555
C32 C31 1_555 1_555
H32 C32 1_555 1_555
C33 C32 1_555 1_555
H33 C33 1_555 1_555
C34 C33 1_555 1_555
C35 C34 1_555 1_555
H34 C35 1_555 1_555
C36 C31 1_555 1_555
C37 C29 1_555 1_555
C38 C37 1_555 1_555
C39 O3 1_555 1_555
H35 C39 1_555 1_555
H36 C39 1_555 1_555
C40 C39 1_555 1_555
C41 C40 1_555 1_555
H37 C41 1_555 1_555
C42 C41 1_555 1_555
H38 C42 1_555 1_555
C43 C42 1_555 1_555
H39 C43 1_555 1_555
C44 C43 1_555 1_555
H40 C44 1_555 1_555
C45 C40 1_555 1_555
H41 C45 1_555 1_555
C46 C38 1_555 1_555
H42 C46 1_555 1_555
C47 N3 1_555 1_555
H43 C47 1_555 1_555
H44 C47 1_555 1_555
C48 C47 1_555 1_555
H45 C48 1_555 1_555
C49 C48 1_555 1_555
H46 C49 1_555 1_555
C50 C46 1_555 1_555
H47 C50 1_555 1_555
H48 C50 1_555 1_555
C51 C49 1_555 1_555
H49 C51 1_555 1_555
H50 C51 1_555 1_555
C52 N3 1_555 1_555
H51 C52 1_555 1_555
H52 C52 1_555 1_555
C53 C48 1_555 1_555
H53 C53 1_555 1_555
C54 C53 1_555 1_555
H54 C54 1_555 1_555
H55 C54 1_555 1_555
C55 O4 1_555 1_555
H56 C55 1_555 1_555
H57 C55 1_555 1_555
H58 C55 1_555 1_555
C56 C38 1_555 1_555
C7 C8 1_555 1_555
C8 C9 1_555 1_555
C16 C17 1_555 1_555
C21 C22 1_555 1_555
C23 C24 1_555 1_555
C35 C36 1_555 1_555
C36 C37 1_555 1_555
C44 C45 1_555 1_555
C49 C50 1_555 1_555
C51 C52 1_555 1_555

#END
