
#######################################################################
#
#                 Cambridge Crystallographic Data Centre
#                                CCDC 
#
#######################################################################
#
# If this CIF has been generated from an entry in the Cambridge 
# Structural Database, then it will include bibliographic, chemical, 
# crystal, experimental, refinement or atomic coordinate data resulting 
# from the CCDC's data processing and validation procedures.
#
#######################################################################

data_BATVIB
_chemical_formula_moiety         'C32 H42 O5'
_chemical_name_systematic        
2-(3,3,5',5',6,6-Hexamethyl-1,8-dioxo-1,2,3,4,5,6,7,8-octahydroxanthen-9-spirocyclohex-2'-en-3'-yl)-3-hydroxy-5,5-dimethylcyclohex-2-enone
_symmetry_cell_setting           tetragonal
_symmetry_space_group_name_H-M   'I 41/a'
_symmetry_Int_Tables_number      88
_space_group_name_Hall           '-I 4ad'
loop_
_symmetry_equiv_pos_site_id
_symmetry_equiv_pos_as_xyz
1 x,y,z
2 1/2+x,1/2+y,1/2+z
3 3/4-y,1/4+x,1/4+z
4 1/4-y,3/4+x,3/4+z
5 1/2-x,-y,1/2+z
6 -x,1/2-y,z
7 3/4+y,3/4-x,3/4+z
8 1/4+y,1/4-x,1/4+z
9 -x,-y,-z
10 1/2-x,1/2-y,1/2-z
11 1/4+y,3/4-x,3/4-z
12 3/4+y,1/4-x,1/4-z
13 1/2+x,y,1/2-z
14 x,1/2+y,-z
15 1/4-y,1/4+x,1/4-z
16 3/4-y,3/4+x,3/4-z
_cell_length_a                   31.580(12)
_cell_length_b                   31.580(12)
_cell_length_c                   11.782(3)
_cell_angle_alpha                90
_cell_angle_beta                 90
_cell_angle_gamma                90
_cell_volume                     11750.1
_cell_formula_units_Z            16
loop_
_atom_site_label
_atom_site_type_symbol
_atom_site_fract_x
_atom_site_fract_y
_atom_site_fract_z
O1 O 0.06240 0.10850 0.51580
C2 C 0.07350 0.07010 0.56410
C3 C 0.11890 0.06150 0.54190
C4 C 0.13660 0.02800 0.62240
C5 C 0.10470 -0.00860 0.62540
C6 C 0.05990 0.00480 0.65320
C7 C 0.04500 0.04680 0.61980
C8 C 0.00040 0.06470 0.64530
C9 C -0.01010 0.09390 0.54460
C10 C -0.05370 0.10360 0.50970
C11 C -0.05940 0.12720 0.39950
C12 C -0.02960 0.16430 0.38970
C13 C 0.01580 0.14810 0.40210
C14 C 0.02020 0.11500 0.49170
C15 C -0.03240 0.03030 0.66070
C16 C -0.05580 0.02470 0.75320
C17 C -0.05290 0.05320 0.85550
C18 C -0.01440 0.07950 0.86290
C19 C 0.00170 0.09440 0.75210
C20 C -0.08770 -0.01000 0.76100
C21 C -0.07520 -0.05080 0.76600
C22 C -0.10440 -0.08840 0.78300
C23 C -0.14640 -0.07560 0.84030
C24 C -0.16370 -0.03630 0.78090
C25 C -0.13250 0.00030 0.77500
C26 C 0.14280 0.04710 0.74100
C27 C 0.17910 0.01180 0.57970
O28 O 0.03700 -0.02180 0.69800
O29 O -0.08440 0.09300 0.56440
C30 C -0.03370 0.18630 0.27240
C31 C -0.03880 0.19630 0.48410
C32 C -0.01540 0.11210 0.95190
C33 C 0.02160 0.04750 0.90920
O34 O -0.03450 -0.06340 0.75660
C35 C -0.13980 -0.06600 0.96660
C36 C -0.17810 -0.11190 0.82900
O37 O -0.14470 0.03650 0.78070
loop_
_geom_bond_atom_site_label_1
_geom_bond_atom_site_label_2
_geom_bond_site_symmetry_1
_geom_bond_site_symmetry_2
O1 C2 1_555 1_555
C2 C3 1_555 1_555
C3 C4 1_555 1_555
C4 C5 1_555 1_555
C5 C6 1_555 1_555
C6 C7 1_555 1_555
C7 C2 1_555 1_555
C8 C7 1_555 1_555
C9 C8 1_555 1_555
C10 C9 1_555 1_555
C11 C10 1_555 1_555
C12 C11 1_555 1_555
C13 C12 1_555 1_555
C14 O1 1_555 1_555
C15 C8 1_555 1_555
C16 C15 1_555 1_555
C17 C16 1_555 1_555
C18 C17 1_555 1_555
C19 C8 1_555 1_555
C20 C16 1_555 1_555
C21 C20 1_555 1_555
C22 C21 1_555 1_555
C23 C22 1_555 1_555
C24 C23 1_555 1_555
C25 C20 1_555 1_555
C26 C4 1_555 1_555
C27 C4 1_555 1_555
O28 C6 1_555 1_555
O29 C10 1_555 1_555
C30 C12 1_555 1_555
C31 C12 1_555 1_555
C32 C18 1_555 1_555
C33 C18 1_555 1_555
O34 C21 1_555 1_555
C35 C23 1_555 1_555
C36 C23 1_555 1_555
O37 C25 1_555 1_555
C9 C14 1_555 1_555
C13 C14 1_555 1_555
C18 C19 1_555 1_555
C24 C25 1_555 1_555

#END
