
#######################################################################
#
#                 Cambridge Crystallographic Data Centre
#                                CCDC 
#
#######################################################################
#
# If this CIF has been generated from an entry in the Cambridge 
# Structural Database, then it will include bibliographic, chemical, 
# crystal, experimental, refinement or atomic coordinate data resulting 
# from the CCDC's data processing and validation procedures.
#
#######################################################################

data_BATYIH01
_chemical_formula_moiety         'C7 H9 N1,C7 H5 N1 O4'
_chemical_name_systematic        '4-nitrobenzoic acid 3-ethylpyridine'
_symmetry_cell_setting           triclinic
_symmetry_space_group_name_H-M   'P -1'
_symmetry_Int_Tables_number      2
_space_group_name_Hall           '-P 1'
loop_
_symmetry_equiv_pos_site_id
_symmetry_equiv_pos_as_xyz
1 x,y,z
2 -x,-y,-z
_cell_length_a                   6.7302(16)
_cell_length_b                   7.1859(17)
_cell_length_c                   14.298(3)
_cell_angle_alpha                88.158(6)
_cell_angle_beta                 88.340(6)
_cell_angle_gamma                78.636(5)
_cell_volume                     677.4
_exptl_crystal_colour            colorless
_exptl_crystal_description       block
_cell_formula_units_Z            2
loop_
_atom_site_label
_atom_site_type_symbol
_atom_site_fract_x
_atom_site_fract_y
_atom_site_fract_z
C1 C 0.2264(4) 0.7625(4) 0.26211(19)
C2 C 0.3039(4) 0.7736(4) 0.17196(18)
C3 C 0.5118(4) 0.7161(4) 0.1609(2)
C4 C 0.6294(5) 0.6531(4) 0.2368(2)
C5 C 0.5378(4) 0.6447(4) 0.3235(2)
C6 C 0.1675(6) 0.8436(5) 0.0915(2)
C7 C 0.1000(5) 0.6857(5) 0.0433(2)
H1 H 0.0135 0.7372 -0.0073
H2 H 0.0268 0.6189 0.0872
H3 H 0.2163 0.5997 0.0192
N1 N 0.3398(3) 0.6987(3) 0.33668(14)
H4 H 0.091(4) 0.794(3) 0.2804(18)
H5 H 0.561(4) 0.722(4) 0.100(2)
H6 H 0.767(5) 0.618(4) 0.227(2)
H7 H 0.614(4) 0.595(4) 0.374(2)
H8 H 0.238(5) 0.916(4) 0.050(2)
H9 H 0.043(6) 0.925(5) 0.114(3)
C8 C 0.6338(4) 0.8179(4) 0.58116(19)
C9 C 0.5153(4) 0.8304(4) 0.66133(19)
C10 C 0.6113(4) 0.7895(3) 0.74529(17)
C11 C 0.8184(4) 0.7388(4) 0.75120(18)
C12 C 0.9337(4) 0.7283(4) 0.67035(18)
C13 C 0.8427(3) 0.7682(3) 0.58431(16)
C14 C 0.9641(4) 0.7627(3) 0.49399(18)
N2 N 0.4855(4) 0.8009(3) 0.83174(18)
O1 O 1.1568(3) 0.6901(3) 0.50124(13)
O2 O 0.8841(3) 0.8237(3) 0.42161(13)
O3 O 0.5720(4) 0.7746(4) 0.90595(16)
O4 O 0.3028(3) 0.8370(4) 0.82532(16)
H10 H 1.222(6) 0.689(5) 0.430(3)
H11 H 0.569(5) 0.852(4) 0.523(2)
H12 H 0.384(4) 0.863(4) 0.6554(19)
H13 H 0.888(5) 0.710(4) 0.808(2)
H14 H 1.072(5) 0.709(4) 0.673(2)
loop_
_geom_bond_atom_site_label_1
_geom_bond_atom_site_label_2
_geom_bond_site_symmetry_1
_geom_bond_site_symmetry_2
C1 C2 1_555 1_555
C2 C3 1_555 1_555
C3 C4 1_555 1_555
C4 C5 1_555 1_555
C5 N1 1_555 1_555
C6 C2 1_555 1_555
C7 C6 1_555 1_555
H1 C7 1_555 1_555
H2 C7 1_555 1_555
H3 C7 1_555 1_555
N1 C1 1_555 1_555
H4 C1 1_555 1_555
H5 C3 1_555 1_555
H6 C4 1_555 1_555
H7 C5 1_555 1_555
H8 C6 1_555 1_555
H9 C6 1_555 1_555
C8 C9 1_555 1_555
C9 C10 1_555 1_555
C10 C11 1_555 1_555
C11 C12 1_555 1_555
C12 C13 1_555 1_555
C13 C8 1_555 1_555
C14 C13 1_555 1_555
N2 C10 1_555 1_555
O1 C14 1_555 1_555
O2 C14 1_555 1_555
O3 N2 1_555 1_555
O4 N2 1_555 1_555
H10 O1 1_555 1_555
H11 C8 1_555 1_555
H12 C9 1_555 1_555
H13 C11 1_555 1_555
H14 C12 1_555 1_555

#END
