
#######################################################################
#
#                 Cambridge Crystallographic Data Centre
#                                CCDC 
#
#######################################################################
#
# If this CIF has been generated from an entry in the Cambridge 
# Structural Database, then it will include bibliographic, chemical, 
# crystal, experimental, refinement or atomic coordinate data resulting 
# from the CCDC's data processing and validation procedures.
#
#######################################################################

data_BATYIH
_chemical_formula_moiety         'C7 H9 N1,C7 H5 N1 O4'
_chemical_name_systematic        '4-nitrobenzoic acid 3-ethylpyridine'
_symmetry_cell_setting           triclinic
_symmetry_space_group_name_H-M   'P -1'
_symmetry_Int_Tables_number      2
_space_group_name_Hall           '-P 1'
loop_
_symmetry_equiv_pos_site_id
_symmetry_equiv_pos_as_xyz
1 x,y,z
2 -x,-y,-z
_cell_length_a                   6.631(5)
_cell_length_b                   7.032(6)
_cell_length_c                   14.216(12)
_cell_angle_alpha                87.967(17)
_cell_angle_beta                 88.58(3)
_cell_angle_gamma                80.207(18)
_cell_volume                     652.692
_exptl_crystal_colour            colorless
_exptl_crystal_description       block
_cell_formula_units_Z            2
loop_
_atom_site_label
_atom_site_type_symbol
_atom_site_fract_x
_atom_site_fract_y
_atom_site_fract_z
C1 C 0.26950(18) 0.23170(17) 0.23632(9)
C2 C 0.19022(19) 0.21745(17) 0.32802(9)
C3 C -0.0210(2) 0.27531(19) 0.34036(9)
C4 C -0.14047(19) 0.34181(19) 0.26370(9)
C5 C -0.04746(18) 0.35406(18) 0.17500(9)
C6 C 0.3292(2) 0.14700(19) 0.40875(9)
C7 C 0.4014(2) 0.3124(2) 0.45763(9)
N1 N 0.15482(16) 0.29868(15) 0.16176(7)
H1 H 0.414(2) 0.194(2) 0.2198(11)
H2 H -0.078(2) 0.271(2) 0.4033(12)
H3 H -0.290(3) 0.382(3) 0.2710(14)
H4 H -0.125(2) 0.400(2) 0.1210(11)
H5 H 0.257(3) 0.074(2) 0.4564(13)
H6 H 0.446(3) 0.058(3) 0.3831(12)
H7 H 0.489(3) 0.265(3) 0.5084(14)
H8 H 0.286(3) 0.401(3) 0.4846(13)
H9 H 0.475(3) 0.386(3) 0.4126(13)
C8 C 0.56470(18) 0.27960(18) 0.82746(9)
C9 C 0.68389(18) 0.27143(17) 0.74498(9)
C10 C 0.89479(18) 0.21779(17) 0.75283(8)
C11 C 0.99063(18) 0.17221(18) 0.83820(9)
C12 C 0.86858(18) 0.18269(18) 0.91965(9)
C13 C 0.65621(17) 0.23511(16) 0.91416(8)
C14 C 0.53258(18) 0.23554(17) 1.00490(8)
N2 N 1.02244(16) 0.20765(16) 0.66561(8)
O1 O 0.33936(13) 0.31896(13) 0.99750(6)
O2 O 0.60992(13) 0.16336(15) 1.07743(6)
O3 O 0.93613(16) 0.23586(16) 0.58977(7)
O4 O 1.20966(14) 0.17185(16) 0.67351(7)
H10 H 0.274(4) 0.315(3) 1.0660(18)
H11 H 0.416(3) 0.318(2) 0.8213(12)
H12 H 0.623(3) 0.304(2) 0.6842(13)
H13 H 1.135(3) 0.131(2) 0.8413(12)
H14 H 0.930(2) 0.155(2) 0.9806(12)
loop_
_geom_bond_atom_site_label_1
_geom_bond_atom_site_label_2
_geom_bond_site_symmetry_1
_geom_bond_site_symmetry_2
C1 C2 1_555 1_555
C2 C3 1_555 1_555
C3 C4 1_555 1_555
C4 C5 1_555 1_555
C5 N1 1_555 1_555
C6 C2 1_555 1_555
C7 C6 1_555 1_555
N1 C1 1_555 1_555
H1 C1 1_555 1_555
H2 C3 1_555 1_555
H3 C4 1_555 1_555
H4 C5 1_555 1_555
H5 C6 1_555 1_555
H6 C6 1_555 1_555
H7 C7 1_555 1_555
H8 C7 1_555 1_555
H9 C7 1_555 1_555
C8 C9 1_555 1_555
C9 C10 1_555 1_555
C10 C11 1_555 1_555
C11 C12 1_555 1_555
C12 C13 1_555 1_555
C13 C8 1_555 1_555
C14 C13 1_555 1_555
N2 C10 1_555 1_555
O1 C14 1_555 1_555
O2 C14 1_555 1_555
O3 N2 1_555 1_555
O4 N2 1_555 1_555
H10 O1 1_555 1_555
H11 C8 1_555 1_555
H12 C9 1_555 1_555
H13 C11 1_555 1_555
H14 C12 1_555 1_555

#END
