
#######################################################################
#
#                 Cambridge Crystallographic Data Centre
#                                CCDC 
#
#######################################################################
#
# If this CIF has been generated from an entry in the Cambridge 
# Structural Database, then it will include bibliographic, chemical, 
# crystal, experimental, refinement or atomic coordinate data resulting 
# from the CCDC's data processing and validation procedures.
#
#######################################################################

data_BAVCUZ
_chemical_formula_moiety         'C27 H19 N3 O1'
_chemical_name_systematic        
1,9'-dimethyl-2-oxo-3'-phenyl-1,2-dihydrospiro[indole-3,1'-pyrrolo[1,2-a]indole]-2'-carbonitrile
_symmetry_cell_setting           triclinic
_symmetry_space_group_name_H-M   'P -1'
_symmetry_Int_Tables_number      2
_space_group_name_Hall           '-P 1'
loop_
_symmetry_equiv_pos_site_id
_symmetry_equiv_pos_as_xyz
1 x,y,z
2 -x,-y,-z
_cell_length_a                   9.7804(12)
_cell_length_b                   9.7968(12)
_cell_length_c                   12.3136(15)
_cell_angle_alpha                111.233(2)
_cell_angle_beta                 92.038(2)
_cell_angle_gamma                109.359(2)
_cell_volume                     1021.2
_exptl_crystal_colour            colorless
_exptl_crystal_description       block
_chemical_melting_point          '485.3-486.5 K'
_cell_formula_units_Z            2
_exptl_crystal_recrystallization_method Sublimation
loop_
_atom_site_label
_atom_site_type_symbol
_atom_site_fract_x
_atom_site_fract_y
_atom_site_fract_z
O1 O 0.90515(9) 0.44390(9) 0.58050(7)
N1 N 0.75534(9) 0.52689(10) 0.49074(7)
N2 N 1.08782(9) 0.82593(9) 0.83917(7)
N3 N 0.59669(10) 0.48371(11) 0.80608(8)
C1 C 0.57666(12) 0.81549(14) 0.51220(10)
H1 H 0.5068 0.8346 0.4700
C2 C 0.60731(11) 0.67892(13) 0.45823(9)
H2 H 0.5615 0.6062 0.3797
C3 C 0.70746(11) 0.65427(11) 0.52432(8)
C4 C 0.77613(10) 0.76082(11) 0.63963(8)
C5 C 0.87766(10) 0.69950(11) 0.68662(8)
C6 C 0.84889(10) 0.67177(11) 0.79946(8)
C7 C 0.97374(10) 0.74402(10) 0.88344(8)
C8 C 0.99357(10) 0.72998(10) 0.99723(8)
C9 C 1.11935(10) 0.70818(11) 1.03424(8)
H3 H 1.1958 0.7105 0.9886
C10 C 1.13202(11) 0.68321(11) 1.13769(9)
H4 H 1.2176 0.6692 1.1627
C11 C 1.02032(12) 0.67861(12) 1.20496(9)
H5 H 1.0293 0.6610 1.2754
C12 C 0.64607(12) 0.92400(13) 0.62625(10)
H6 H 0.6238 1.0162 0.6606
C13 C 0.74865(12) 0.89780(12) 0.69067(9)
H7 H 0.7983 0.9727 0.7678
C14 C 0.70968(13) 0.39853(13) 0.37405(9)
H8 H 0.7485 0.3181 0.3738
H9 H 0.7479 0.4393 0.3149
H10 H 0.6019 0.3517 0.3549
C15 C 0.85198(11) 0.53970(11) 0.58092(8)
C16 C 1.03638(10) 0.80930(11) 0.72507(8)
C17 C 1.22435(10) 0.95110(11) 0.88314(8)
C18 C 1.25891(10) 1.00280(11) 0.79001(8)
C19 C 1.13735(11) 0.91166(11) 0.69064(8)
C20 C 1.12577(12) 0.93057(12) 0.57583(9)
H11 H 1.1965 0.8951 0.5302
H12 H 1.1475 1.0418 0.5915
H13 H 1.0258 0.8672 0.5306
C21 C 1.38733(11) 1.13388(11) 0.81030(9)
H14 H 1.4138 1.1690 0.7488
C22 C 1.47520(11) 1.21159(12) 0.92175(9)
H15 H 1.5610 1.3023 0.9369
C23 C 1.43917(11) 1.15818(12) 1.01231(9)
H16 H 1.5017 1.2130 1.0875
C24 C 1.31404(10) 1.02695(11) 0.99445(9)
H17 H 1.2905 0.9904 1.0557
C25 C 0.71149(11) 0.56847(11) 0.80589(8)
C26 C 0.89522(12) 0.69996(12) 1.16827(9)
H18 H 0.8189 0.6971 1.2140
C27 C 0.88146(11) 0.72548(11) 1.06483(8)
H19 H 0.7959 0.7398 1.0402
loop_
_geom_bond_atom_site_label_1
_geom_bond_atom_site_label_2
_geom_bond_site_symmetry_1
_geom_bond_site_symmetry_2
O1 C15 1_555 1_555
N1 C3 1_555 1_555
N2 C7 1_555 1_555
N3 C25 1_555 1_555
C1 H1 1_555 1_555
C2 C1 1_555 1_555
H2 C2 1_555 1_555
C3 C2 1_555 1_555
C4 C3 1_555 1_555
C5 C4 1_555 1_555
C6 C5 1_555 1_555
C7 C6 1_555 1_555
C8 C7 1_555 1_555
C9 C8 1_555 1_555
H3 C9 1_555 1_555
C10 C9 1_555 1_555
H4 C10 1_555 1_555
C11 C10 1_555 1_555
H5 C11 1_555 1_555
C12 C1 1_555 1_555
H6 C12 1_555 1_555
C13 C4 1_555 1_555
H7 C13 1_555 1_555
C14 N1 1_555 1_555
H8 C14 1_555 1_555
H9 C14 1_555 1_555
H10 C14 1_555 1_555
C15 N1 1_555 1_555
C16 N2 1_555 1_555
C17 N2 1_555 1_555
C18 C17 1_555 1_555
C19 C16 1_555 1_555
C20 C19 1_555 1_555
H11 C20 1_555 1_555
H12 C20 1_555 1_555
H13 C20 1_555 1_555
C21 C18 1_555 1_555
H14 C21 1_555 1_555
C22 C21 1_555 1_555
H15 C22 1_555 1_555
C23 C22 1_555 1_555
H16 C23 1_555 1_555
C24 C17 1_555 1_555
H17 C24 1_555 1_555
C25 C6 1_555 1_555
C26 C11 1_555 1_555
H18 C26 1_555 1_555
C27 C8 1_555 1_555
H19 C27 1_555 1_555
C5 C15 1_555 1_555
C5 C16 1_555 1_555
C12 C13 1_555 1_555
C18 C19 1_555 1_555
C23 C24 1_555 1_555
C26 C27 1_555 1_555

#END
