
#######################################################################
#
#                 Cambridge Crystallographic Data Centre
#                                CCDC 
#
#######################################################################
#
# If this CIF has been generated from an entry in the Cambridge 
# Structural Database, then it will include bibliographic, chemical, 
# crystal, experimental, refinement or atomic coordinate data resulting 
# from the CCDC's data processing and validation procedures.
#
#######################################################################

data_BAVFAI
_chemical_formula_moiety         'C23 H20 N2 O4'
_chemical_name_systematic        
(E)-1-benzylidene-7,9-dimethyl-4-phenyl-7,9-diazaspiro[4.5]decane-2,6,8,10-tetrone
_symmetry_cell_setting           triclinic
_symmetry_space_group_name_H-M   'P -1'
_symmetry_Int_Tables_number      2
_space_group_name_Hall           '-P 1'
loop_
_symmetry_equiv_pos_site_id
_symmetry_equiv_pos_as_xyz
1 x,y,z
2 -x,-y,-z
_cell_length_a                   8.5462(17)
_cell_length_b                   9.7412(19)
_cell_length_c                   12.085(2)
_cell_angle_alpha                90.29(3)
_cell_angle_beta                 104.04(3)
_cell_angle_gamma                94.61(3)
_cell_volume                     972.553
_exptl_crystal_colour            colorless
_exptl_crystal_description       block
_chemical_melting_point          '187-188 deg.C'
_cell_formula_units_Z            2
loop_
_atom_site_label
_atom_site_type_symbol
_atom_site_fract_x
_atom_site_fract_y
_atom_site_fract_z
O1 O 0.50889(17) 0.07466(15) 0.36195(12)
O2 O 0.5770(2) -0.1442(2) 0.04856(14)
O3 O 0.15445(16) -0.30056(14) 0.19128(11)
O4 O 0.10186(17) -0.18283(16) 0.51236(12)
N1 N 0.54889(19) -0.03762(18) 0.20866(14)
N2 N 0.36785(19) -0.22619(17) 0.12095(13)
C1 C 0.5035(2) -0.1373(2) 0.12182(17)
C2 C 0.2787(2) -0.22633(18) 0.20200(15)
C3 C 0.3495(2) -0.13870(19) 0.30856(15)
C4 C 0.4716(2) -0.02216(19) 0.29514(15)
C5 C 0.6884(3) 0.0598(3) 0.2062(2)
H1 H 0.7708 0.0113 0.1853
H2 H 0.7306 0.1025 0.2803
H3 H 0.6550 0.1292 0.1513
C6 C 0.3210(3) -0.3322(2) 0.02888(18)
H4 H 0.2306 -0.3048 -0.0284
H5 H 0.2913 -0.4183 0.0596
H6 H 0.4106 -0.3424 -0.0046
C7 C 0.4452(2) -0.2384(2) 0.40363(15)
H7 H 0.5213 -0.1790 0.4614
C8 C 0.3137(2) -0.3001(2) 0.45923(17)
H8 H 0.2586 -0.3828 0.4178
H9 H 0.3601 -0.3232 0.5377
C9 C 0.1986(2) -0.1902(2) 0.45406(16)
C10 C 0.2194(2) -0.09247(19) 0.36311(15)
C11 C 0.1325(2) 0.0165(2) 0.34251(16)
H10 H 0.0660 0.0290 0.3916
C12 C 0.1266(2) 0.1197(2) 0.25359(17)
C13 C 0.0952(2) 0.2537(2) 0.27648(19)
H11 H 0.0791 0.2767 0.3474
C14 C 0.0879(3) 0.3529(2) 0.1939(2)
H12 H 0.0697 0.4428 0.2104
C15 C 0.1074(3) 0.3189(3) 0.0871(2)
H13 H 0.1028 0.3860 0.0322
C16 C 0.1338(3) 0.1860(3) 0.0617(2)
H14 H 0.1448 0.1628 -0.0106
C17 C 0.1439(3) 0.0868(2) 0.14483(19)
H15 H 0.1625 -0.0028 0.1278
C18 C 0.5435(2) -0.3374(2) 0.35800(16)
C19 C 0.7048(3) -0.2994(3) 0.3606(2)
H16 H 0.7537 -0.2163 0.3955
C20 C 0.7935(3) -0.3849(3) 0.3115(2)
H17 H 0.9010 -0.3584 0.3130
C21 C 0.7223(3) -0.5088(3) 0.2607(2)
H18 H 0.7815 -0.5655 0.2274
C22 C 0.5646(3) -0.5486(2) 0.25902(19)
H19 H 0.5169 -0.6325 0.2251
C23 C 0.4756(3) -0.4637(2) 0.30794(17)
H20 H 0.3688 -0.4920 0.3072
loop_
_geom_bond_atom_site_label_1
_geom_bond_atom_site_label_2
_geom_bond_site_symmetry_1
_geom_bond_site_symmetry_2
O1 C4 1_555 1_555
O2 C1 1_555 1_555
O3 C2 1_555 1_555
O4 C9 1_555 1_555
N1 C1 1_555 1_555
N2 C1 1_555 1_555
C2 N2 1_555 1_555
C3 C2 1_555 1_555
C4 N1 1_555 1_555
C5 N1 1_555 1_555
H1 C5 1_555 1_555
H2 C5 1_555 1_555
H3 C5 1_555 1_555
C6 N2 1_555 1_555
H4 C6 1_555 1_555
H5 C6 1_555 1_555
H6 C6 1_555 1_555
C7 C3 1_555 1_555
H7 C7 1_555 1_555
C8 C7 1_555 1_555
H8 C8 1_555 1_555
H9 C8 1_555 1_555
C9 C8 1_555 1_555
C10 C3 1_555 1_555
C11 C10 1_555 1_555
H10 C11 1_555 1_555
C12 C11 1_555 1_555
C13 C12 1_555 1_555
H11 C13 1_555 1_555
C14 C13 1_555 1_555
H12 C14 1_555 1_555
C15 C14 1_555 1_555
H13 C15 1_555 1_555
C16 C15 1_555 1_555
H14 C16 1_555 1_555
C17 C12 1_555 1_555
H15 C17 1_555 1_555
C18 C7 1_555 1_555
C19 C18 1_555 1_555
H16 C19 1_555 1_555
C20 C19 1_555 1_555
H17 C20 1_555 1_555
C21 C20 1_555 1_555
H18 C21 1_555 1_555
C22 C21 1_555 1_555
H19 C22 1_555 1_555
C23 C18 1_555 1_555
H20 C23 1_555 1_555
C3 C4 1_555 1_555
C9 C10 1_555 1_555
C16 C17 1_555 1_555
C22 C23 1_555 1_555

#END
