
#######################################################################
#
#                 Cambridge Crystallographic Data Centre
#                                CCDC 
#
#######################################################################
#
# If this CIF has been generated from an entry in the Cambridge 
# Structural Database, then it will include bibliographic, chemical, 
# crystal, experimental, refinement or atomic coordinate data resulting 
# from the CCDC's data processing and validation procedures.
#
#######################################################################

data_BAVJAM
_chemical_formula_moiety         'C23 H23 N1 O5 S2'
_chemical_name_systematic        
2-methyl-3-(2-methylphenyl)-4,5-bis(phenylsulfonyl)-1,2-oxazolidine
_symmetry_cell_setting           triclinic
_symmetry_space_group_name_H-M   'P -1'
_symmetry_Int_Tables_number      2
_space_group_name_Hall           '-P 1'
loop_
_symmetry_equiv_pos_site_id
_symmetry_equiv_pos_as_xyz
1 x,y,z
2 -x,-y,-z
_cell_length_a                   10.184(2)
_cell_length_b                   10.710(2)
_cell_length_c                   11.083(2)
_cell_angle_alpha                104.70(3)
_cell_angle_beta                 103.61(3)
_cell_angle_gamma                102.46(3)
_cell_volume                     1086.55
_exptl_crystal_colour            colorless
_exptl_crystal_description       block
_cell_formula_units_Z            2
loop_
_atom_site_label
_atom_site_type_symbol
_atom_site_fract_x
_atom_site_fract_y
_atom_site_fract_z
S1 S 0.34738(4) 0.39340(3) 0.78193(3)
S2 S 0.19617(4) 0.09145(3) 0.92666(3)
O1 O 0.20782(12) 0.39655(12) 0.78675(11)
O2 O 0.46475(13) 0.51390(11) 0.84782(11)
O3 O 0.31151(12) 0.10028(12) 1.03576(10)
O4 O 0.08782(12) -0.03492(11) 0.85843(11)
O5 O 0.51198(10) 0.23805(10) 0.83095(10)
N1 N 0.45310(13) 0.11351(12) 0.71605(12)
C1 C 0.47008(18) 0.35834(17) 0.58777(17)
H1 H 0.5554 0.4034 0.6538
C2 C 0.4670(2) 0.3123(2) 0.4584(2)
H2 H 0.5508 0.3256 0.4371
C3 C 0.3406(3) 0.2472(2) 0.36150(18)
H3 H 0.3396 0.2159 0.2749
C4 C 0.2150(2) 0.2275(2) 0.39080(18)
H4 H 0.1299 0.1850 0.3239
C5 C 0.21531(18) 0.27124(17) 0.52051(16)
H5 H 0.1312 0.2571 0.5414
C6 C 0.34351(16) 0.33615(14) 0.61741(14)
C7 C 0.39065(15) 0.26769(14) 0.85620(14)
H6 H 0.4108 0.3050 0.9512
C8 C 0.27202(14) 0.13308(14) 0.80537(13)
H7 H 0.1978 0.1316 0.7300
C9 C 0.35186(15) 0.03053(14) 0.76103(14)
H8 H 0.4032 0.0110 0.8373
C10 C 0.57294(17) 0.06261(17) 0.70611(18)
H9 H 0.6426 0.1279 0.6910
H10 H 0.5417 -0.0204 0.6346
H11 H 0.6135 0.0468 0.7862
C11 C 0.11510(15) 0.21537(15) 0.98103(14)
C12 C -0.02986(16) 0.18847(16) 0.92791(15)
H12 H -0.0822 0.1095 0.8595
C13 C -0.09516(17) 0.28111(18) 0.97841(17)
H13 H -0.1920 0.2647 0.9433
C14 C -0.01676(19) 0.39805(18) 1.08092(17)
H14 H -0.0613 0.4592 1.1155
C15 C 0.12788(19) 0.42423(17) 1.13215(17)
H15 H 0.1801 0.5036 1.2001
C16 C 0.19525(17) 0.33308(16) 1.08287(15)
H16 H 0.2923 0.3503 1.1173
C17 C 0.26584(15) -0.10029(14) 0.65362(15)
C18 C 0.20697(17) -0.09789(18) 0.52792(16)
H17 H 0.2180 -0.0158 0.5117
C19 C 0.13145(19) -0.2178(2) 0.42586(18)
H18 H 0.0927 -0.2159 0.3418
C20 C 0.1147(2) -0.33878(19) 0.4506(2)
H19 H 0.0644 -0.4190 0.3831
C21 C 0.17230(19) -0.34154(17) 0.5753(2)
H20 H 0.1591 -0.4242 0.5905
C22 C 0.25010(17) -0.22328(16) 0.67977(18)
C23 C 0.3139(2) -0.23194(18) 0.8128(2)
H21 H 0.4151 -0.1998 0.8367
H22 H 0.2859 -0.3241 0.8110
H23 H 0.2817 -0.1774 0.8759
H24? H 0.4072 0.1301 0.6358
loop_
_geom_bond_atom_site_label_1
_geom_bond_atom_site_label_2
_geom_bond_site_symmetry_1
_geom_bond_site_symmetry_2
S1 O1 1_555 1_555
S2 O3 1_555 1_555
O2 S1 1_555 1_555
O4 S2 1_555 1_555
O5 N1 1_555 1_555
N1 C9 1_555 1_555
C1 H1 1_555 1_555
C2 C1 1_555 1_555
H2 C2 1_555 1_555
C3 C2 1_555 1_555
H3 C3 1_555 1_555
C4 C3 1_555 1_555
H4 C4 1_555 1_555
C5 C4 1_555 1_555
H5 C5 1_555 1_555
C6 S1 1_555 1_555
C7 S1 1_555 1_555
H6 C7 1_555 1_555
C8 S2 1_555 1_555
H7 C8 1_555 1_555
C9 C8 1_555 1_555
H8 C9 1_555 1_555
C10 N1 1_555 1_555
H9 C10 1_555 1_555
H10 C10 1_555 1_555
H11 C10 1_555 1_555
C11 S2 1_555 1_555
C12 C11 1_555 1_555
H12 C12 1_555 1_555
C13 C12 1_555 1_555
H13 C13 1_555 1_555
C14 C13 1_555 1_555
H14 C14 1_555 1_555
C15 C14 1_555 1_555
H15 C15 1_555 1_555
C16 C11 1_555 1_555
H16 C16 1_555 1_555
C17 C9 1_555 1_555
C18 C17 1_555 1_555
H17 C18 1_555 1_555
C19 C18 1_555 1_555
H18 C19 1_555 1_555
C20 C19 1_555 1_555
H19 C20 1_555 1_555
C21 C20 1_555 1_555
H20 C21 1_555 1_555
C22 C17 1_555 1_555
C23 C22 1_555 1_555
H21 C23 1_555 1_555
H22 C23 1_555 1_555
H23 C23 1_555 1_555
O5 C7 1_555 1_555
C1 C6 1_555 1_555
C5 C6 1_555 1_555
C7 C8 1_555 1_555
C15 C16 1_555 1_555
C21 C22 1_555 1_555

#END
