
#######################################################################
#
#                 Cambridge Crystallographic Data Centre
#                                CCDC 
#
#######################################################################
#
# If this CIF has been generated from an entry in the Cambridge 
# Structural Database, then it will include bibliographic, chemical, 
# crystal, experimental, refinement or atomic coordinate data resulting 
# from the CCDC's data processing and validation procedures.
#
#######################################################################

data_BAVKAN
_chemical_formula_moiety         'C15 H14 F7 N1 O1'
_chemical_name_systematic        
1-{3-methyl-3-[2,3,3,3-tetrafluoro-2-(trifluoromethyl)propyl]-2,3-dihydro-1H-indol-1-yl}ethan-1-one
_symmetry_cell_setting           triclinic
_symmetry_space_group_name_H-M   'P -1'
_symmetry_Int_Tables_number      2
_space_group_name_Hall           '-P 1'
loop_
_symmetry_equiv_pos_site_id
_symmetry_equiv_pos_as_xyz
1 x,y,z
2 -x,-y,-z
_cell_length_a                   7.461(6)
_cell_length_b                   9.376(8)
_cell_length_c                   22.355(19)
_cell_angle_alpha                90.099(12)
_cell_angle_beta                 92.785(15)
_cell_angle_gamma                89.88(2)
_cell_volume                     1561.98
_exptl_crystal_colour            white
_exptl_crystal_description       Prism
_cell_formula_units_Z            4
loop_
_atom_site_label
_atom_site_type_symbol
_atom_site_fract_x
_atom_site_fract_y
_atom_site_fract_z
F1 F 0.73716(17) 0.21668(13) 0.78915(6)
O1 O 0.7135(2) -0.17421(18) 1.02043(9)
N1 N 0.7670(2) 0.01867(16) 0.96318(8)
F2 F 0.4789(3) 0.0355(2) 0.81177(10)
F3 F 0.5678(4) 0.4130(2) 0.72364(8)
F4 F 0.4217(3) 0.1567(3) 0.73160(9)
F5 F 0.6842(5) 0.5060(2) 0.80284(11)
C1 C 0.7825(3) 0.2460(2) 0.91325(10)
C2 C 0.7560(3) 0.2596(2) 0.98020(10)
C3 C 0.6017(3) 0.2834(2) 0.88136(10)
H1 H 0.5718 0.3805 0.8922
H2 H 0.5112 0.2220 0.8974
F6 F 0.4019(4) 0.4704(3) 0.79440(10)
C4 C 0.9379(3) 0.3401(2) 0.89435(12)
H3 H 0.9082 0.4386 0.9004
H4 H 0.9581 0.3240 0.8528
H5 H 1.0446 0.3166 0.9180
F7 F 0.2842(3) 0.1978(4) 0.81079(12)
C5 C 0.7436(3) 0.1252(2) 1.00693(10)
C6 C 0.7531(3) -0.1255(2) 0.97178(12)
C7 C 0.5850(3) 0.2718(2) 0.81227(10)
C8 C 0.7133(3) 0.1126(3) 1.06760(11)
H6 H 0.7028 0.0234 1.0852
C9 C 0.8297(3) 0.0854(2) 0.90794(11)
H7 H 0.7691 0.0438 0.8727
H8 H 0.9581 0.0724 0.9052
C10 C 0.6993(3) 0.2355(3) 1.10099(12)
H9 H 0.6797 0.2293 1.1417
C11 C 0.7413(3) 0.3810(2) 1.01439(12)
H10 H 0.7495 0.4707 0.9971
C12 C 0.7897(3) -0.2188(2) 0.91999(14)
H11 H 0.9138 -0.2112 0.9110
H12 H 0.7160 -0.1895 0.8858
H13 H 0.7628 -0.3159 0.9297
C13 C 0.7140(3) 0.3674(3) 1.07475(13)
H14 H 0.7054 0.4491 1.0981
C14 C 0.5618(6) 0.4180(4) 0.78259(13)
C15 C 0.4368(4) 0.1653(4) 0.79105(14)
F8 F 0.76287(17) 0.71683(14) 0.71113(6)
O2 O 0.7865(2) 0.32581(18) 0.47948(9)
N2 N 0.7324(2) 0.51869(16) 0.53684(8)
F9 F 1.0207(3) 0.5347(2) 0.68858(10)
F10 F 0.9328(4) 0.9131(2) 0.77652(8)
F11 F 1.0781(3) 0.6561(3) 0.76867(9)
F12 F 0.8153(5) 1.0067(2) 0.69702(11)
C16 C 0.7179(3) 0.7457(2) 0.58677(10)
C17 C 0.7428(3) 0.7592(2) 0.51982(10)
C18 C 0.7562(2) 0.6257(2) 0.49305(10)
C19 C 0.8986(3) 0.7836(2) 0.61864(10)
H15 H 0.9275 0.8808 0.6080
H16 H 0.9896 0.7225 0.6025
F13 F 1.0972(4) 0.9706(3) 0.70536(11)
F14 F 1.2164(3) 0.6983(4) 0.68943(12)
C20 C 0.7458(3) 0.3743(2) 0.52811(12)
C21 C 0.6703(3) 0.5860(2) 0.59183(10)
H17 H 0.7305 0.5442 0.6270
H18 H 0.5418 0.5738 0.5945
C22 C 0.5616(3) 0.8401(2) 0.60564(12)
H19 H 0.5909 0.9385 0.5996
H20 H 0.5413 0.8243 0.6472
H21 H 0.4551 0.8164 0.5819
C23 C 0.9155(3) 0.7720(2) 0.68779(10)
C24 C 0.7862(3) 0.6120(3) 0.43238(11)
H22 H 0.7964 0.5225 0.4148
C25 C 0.7578(3) 0.8813(2) 0.48559(12)
H23 H 0.7494 0.9709 0.5031
C26 C 0.8005(3) 0.7349(3) 0.39894(12)
H24 H 0.8205 0.7281 0.3583
C27 C 0.7102(3) 0.2812(2) 0.57993(13)
H25 H 0.5870 0.2912 0.5898
H26 H 0.7868 0.3085 0.6137
H27 H 0.7337 0.1837 0.5697
C28 C 0.7853(3) 0.8684(3) 0.42508(12)
H28 H 0.7937 0.9498 0.4017
C29 C 0.9387(6) 0.9186(4) 0.71742(13)
C30 C 1.0628(4) 0.6661(4) 0.70892(15)
loop_
_geom_bond_atom_site_label_1
_geom_bond_atom_site_label_2
_geom_bond_site_symmetry_1
_geom_bond_site_symmetry_2
F1 C7 1_555 1_555
O1 C6 1_555 1_555
N1 C5 1_555 1_555
F2 C15 1_555 1_555
F3 C14 1_555 1_555
F4 C15 1_555 1_555
F5 C14 1_555 1_555
C1 C2 1_555 1_555
C2 C5 1_555 1_555
C3 C1 1_555 1_555
H1 C3 1_555 1_555
H2 C3 1_555 1_555
F6 C14 1_555 1_555
C4 C1 1_555 1_555
H3 C4 1_555 1_555
H4 C4 1_555 1_555
H5 C4 1_555 1_555
F7 C15 1_555 1_555
C5 C8 1_555 1_555
C6 N1 1_555 1_555
C7 C3 1_555 1_555
C8 H6 1_555 1_555
C9 N1 1_555 1_555
H7 C9 1_555 1_555
H8 C9 1_555 1_555
C10 C8 1_555 1_555
H9 C10 1_555 1_555
C11 C2 1_555 1_555
H10 C11 1_555 1_555
C12 C6 1_555 1_555
H11 C12 1_555 1_555
H12 C12 1_555 1_555
H13 C12 1_555 1_555
C13 C10 1_555 1_555
H14 C13 1_555 1_555
C14 C7 1_555 1_555
C15 C7 1_555 1_555
F8 C23 1_555 1_555
O2 C20 1_555 1_555
N2 C18 1_555 1_555
F9 C30 1_555 1_555
F10 C29 1_555 1_555
F11 C30 1_555 1_555
F12 C29 1_555 1_555
C16 C17 1_555 1_555
C17 C18 1_555 1_555
C18 C24 1_555 1_555
C19 C16 1_555 1_555
H15 C19 1_555 1_555
H16 C19 1_555 1_555
F13 C29 1_555 1_555
F14 C30 1_555 1_555
C20 N2 1_555 1_555
C21 N2 1_555 1_555
H17 C21 1_555 1_555
H18 C21 1_555 1_555
C22 C16 1_555 1_555
H19 C22 1_555 1_555
H20 C22 1_555 1_555
H21 C22 1_555 1_555
C23 C19 1_555 1_555
C24 H22 1_555 1_555
C25 C17 1_555 1_555
H23 C25 1_555 1_555
C26 C24 1_555 1_555
H24 C26 1_555 1_555
C27 C20 1_555 1_555
H25 C27 1_555 1_555
H26 C27 1_555 1_555
H27 C27 1_555 1_555
C28 C25 1_555 1_555
H28 C28 1_555 1_555
C29 C23 1_555 1_555
C30 C23 1_555 1_555
C1 C9 1_555 1_555
C11 C13 1_555 1_555
C16 C21 1_555 1_555
C26 C28 1_555 1_555

#END
