
#######################################################################
#
#                 Cambridge Crystallographic Data Centre
#                                CCDC 
#
#######################################################################
#
# If this CIF has been generated from an entry in the Cambridge 
# Structural Database, then it will include bibliographic, chemical, 
# crystal, experimental, refinement or atomic coordinate data resulting 
# from the CCDC's data processing and validation procedures.
#
#######################################################################

data_BAVNIY
_chemical_formula_moiety         'C17 H13 Cl1 N4 O1'
_chemical_name_systematic        
1-(4-chlorophenyl)-3-methyl-5-oxo-4-(phenylamino)-4,5-dihydro-1H-pyrazole-4-carbonitrile
_symmetry_cell_setting           rhombohedral
_symmetry_space_group_name_H-M   'R 3'
_symmetry_Int_Tables_number      146
_space_group_name_Hall           'R 3'
loop_
_symmetry_equiv_pos_site_id
_symmetry_equiv_pos_as_xyz
1 x,y,z
2 -y,x-y,z
3 -x+y,-x,z
4 2/3+x,1/3+y,1/3+z
5 2/3-y,1/3+x-y,1/3+z
6 2/3-x+y,1/3-x,1/3+z
7 1/3+x,2/3+y,2/3+z
8 1/3-y,2/3+x-y,2/3+z
9 1/3-x+y,2/3-x,2/3+z
_cell_length_a                   19.5452(2)
_cell_length_b                   19.5452(2)
_cell_length_c                   10.90990(10)
_cell_angle_alpha                90
_cell_angle_beta                 90
_cell_angle_gamma                120
_cell_volume                     3609.37
_exptl_crystal_colour            colorless
_exptl_crystal_description       Block
_cell_formula_units_Z            9
loop_
_atom_site_label
_atom_site_type_symbol
_atom_site_fract_x
_atom_site_fract_y
_atom_site_fract_z
Cl1 Cl 0.48094(3) 0.48650(2) 0.61148(5)
O1 O 0.84117(6) 0.83184(7) 0.62320(11)
N1 N 0.72015(7) 0.82638(7) 0.63926(12)
N2 N 0.69182(9) 0.88076(9) 0.63310(14)
N3 N 0.88691(9) 0.99413(8) 0.53547(13)
N4 N 0.89479(12) 1.01071(10) 0.84307(15)
C1 C 0.80032(8) 0.86197(8) 0.63047(13)
C2 C 0.66337(8) 0.74437(8) 0.63520(12)
C3 C 0.86589(9) 0.98628(9) 0.41129(14)
C4 C 0.83014(10) 0.95235(9) 0.63010(14)
C5 C 0.68677(9) 0.68802(10) 0.64548(16)
H1 H 0.739707 0.703485 0.657042
C6 C 0.75119(11) 0.95065(10) 0.62660(17)
C7 C 0.63005(10) 0.60831(10) 0.63826(16)
H2 H 0.644926 0.570053 0.643920
C8 C 0.86743(11) 0.98487(10) 0.75015(16)
C9 C 0.55153(9) 0.58625(9) 0.62265(14)
C10 C 0.79766(9) 0.92209(9) 0.36399(15)
H3 H 0.761508 0.883249 0.416302
C11 C 0.83680(12) 0.97344(13) 0.15908(17)
H4 H 0.827008 0.969490 0.075217
C12 C 0.52807(10) 0.64215(11) 0.61401(16)
H5 H 0.474944 0.626414 0.604210
C13 C 0.90472(12) 1.03668(12) 0.20640(18)
H6 H 0.940991 1.075011 0.153579
C14 C 0.58416(9) 0.72169(9) 0.62005(15)
H7 H 0.568954 0.759679 0.614003
C15 C 0.91939(10) 1.04370(10) 0.33083(17)
H8 H 0.965075 1.086820 0.361208
C16 C 0.78384(11) 0.91634(11) 0.23800(15)
H9 H 0.738313 0.873444 0.206759
C17 C 0.74380(16) 1.02250(13) 0.6182(3)
H10 H 0.766300 1.049238 0.542353
H11 H 0.771326 1.057073 0.685517
H12 H 0.689009 1.007656 0.621347
H13 H 0.9269(15) 1.0410(15) 0.555(2)
loop_
_geom_bond_atom_site_label_1
_geom_bond_atom_site_label_2
_geom_bond_site_symmetry_1
_geom_bond_site_symmetry_2
Cl1 C9 1_555 1_555
O1 C1 1_555 1_555
N1 N2 1_555 1_555
N2 C6 1_555 1_555
N3 C3 1_555 1_555
N4 C8 1_555 1_555
C1 N1 1_555 1_555
C2 N1 1_555 1_555
C3 C10 1_555 1_555
C4 N3 1_555 1_555
C5 C2 1_555 1_555
H1 C5 1_555 1_555
C6 C4 1_555 1_555
C7 C5 1_555 1_555
H2 C7 1_555 1_555
C8 C4 1_555 1_555
C9 C7 1_555 1_555
C10 H3 1_555 1_555
C11 H4 1_555 1_555
C12 C9 1_555 1_555
H5 C12 1_555 1_555
C13 C11 1_555 1_555
H6 C13 1_555 1_555
C14 C2 1_555 1_555
H7 C14 1_555 1_555
C15 C3 1_555 1_555
H8 C15 1_555 1_555
C16 C10 1_555 1_555
H9 C16 1_555 1_555
C17 C6 1_555 1_555
H10 C17 1_555 1_555
H11 C17 1_555 1_555
H12 C17 1_555 1_555
H13 N3 1_555 1_555
C1 C4 1_555 1_555
C11 C16 1_555 1_555
C12 C14 1_555 1_555
C13 C15 1_555 1_555

#END
