
#######################################################################
#
#                 Cambridge Crystallographic Data Centre
#                                CCDC 
#
#######################################################################
#
# If this CIF has been generated from an entry in the Cambridge 
# Structural Database, then it will include bibliographic, chemical, 
# crystal, experimental, refinement or atomic coordinate data resulting 
# from the CCDC's data processing and validation procedures.
#
#######################################################################

data_BAVXAA
_chemical_formula_moiety         'C30 H22 Br1 N3 O5 S1'
_chemical_name_systematic        
"ethyl 2-(1-(4-bromophenyl)-2,2-dicyanovinyl)-1'-((4-methylphenyl)sulfonyl)-2'-oxo-1',2'-dihydrospiro[cyclopropane-1,3'-indole]-2-carboxylate"
_symmetry_cell_setting           monoclinic
_symmetry_space_group_name_H-M   'P 21/n'
_symmetry_Int_Tables_number      14
_space_group_name_Hall           '-P 2yn'
loop_
_symmetry_equiv_pos_site_id
_symmetry_equiv_pos_as_xyz
1 x,y,z
2 1/2-x,1/2+y,1/2-z
3 -x,-y,-z
4 1/2+x,1/2-y,1/2+z
_cell_length_a                   8.2464(5)
_cell_length_b                   16.2806(10)
_cell_length_c                   21.1267(11)
_cell_angle_alpha                90
_cell_angle_beta                 97.119(6)
_cell_angle_gamma                90
_cell_volume                     2814.53
_exptl_crystal_colour            'light yellow'
_exptl_crystal_description       needle
_cell_formula_units_Z            4
loop_
_atom_site_label
_atom_site_type_symbol
_atom_site_fract_x
_atom_site_fract_y
_atom_site_fract_z
Br1 Br 0.2827(2) -0.09610(8) 0.48642(6)
S1 S -0.1136(2) 0.46155(12) 0.63960(9)
O1 O 0.0066(6) 0.2904(4) 0.6101(2)
O2 O 0.0893(9) 0.1172(5) 0.8247(3)
O3 O 0.3208(7) 0.1794(4) 0.8097(2)
O4 O 0.0133(6) 0.4647(4) 0.5994(3)
O5 O -0.1338(6) 0.5283(3) 0.6814(3)
N1 N -0.0746(7) 0.3790(4) 0.6868(3)
N2 N 0.3314(10) 0.3715(5) 0.7529(4)
N3 N 0.6157(9) 0.2349(5) 0.6281(4)
C1 C -0.1210(9) 0.3677(5) 0.7489(4)
C2 C -0.1891(14) 0.4239(7) 0.7868(4)
H1 H -0.2049 0.4783 0.7741
C3 C -0.2332(17) 0.3971(8) 0.8442(5)
H2 H -0.2771 0.4342 0.8709
C4 C -0.2134(17) 0.3164(8) 0.8627(5)
H3 H -0.2459 0.2996 0.9013
C5 C -0.1454(13) 0.2595(7) 0.8246(4)
H4 H -0.1313 0.2051 0.8374
C6 C -0.0991(9) 0.2859(5) 0.7672(4)
C7 C -0.0318(8) 0.2414(5) 0.7153(3)
C8 C -0.0280(8) 0.3031(5) 0.6625(3)
C9 C -0.0553(9) 0.1534(5) 0.6980(4)
H5 H -0.0763 0.1400 0.6530
H6 H -0.1144 0.1196 0.7253
C10 C 0.1139(9) 0.1784(4) 0.7233(3)
C11 C 0.1723(10) 0.1550(5) 0.7921(4)
C12 C 0.3880(12) 0.1676(6) 0.8765(4)
H7 H 0.3359 0.1208 0.8939
H8 H 0.5042 0.1565 0.8793
C13 C 0.3609(14) 0.2407(7) 0.9133(5)
H9 H 0.4112 0.2871 0.8955
H10 H 0.4080 0.2329 0.9567
H11 H 0.2457 0.2503 0.9118
C14 C 0.2458(8) 0.1820(4) 0.6802(3)
C15 C 0.2527(9) 0.1145(4) 0.6339(3)
C16 C 0.2619(14) 0.0346(5) 0.6529(4)
H12 H 0.2606 0.0220 0.6957
C17 C 0.2730(15) -0.0282(6) 0.6095(5)
H13 H 0.2830 -0.0823 0.6236
C18 C 0.2693(13) -0.0113(6) 0.5465(4)
C19 C 0.259(2) 0.0675(8) 0.5278(5)
H14 H 0.2565 0.0799 0.4847
C20 C 0.2524(18) 0.1304(6) 0.5711(4)
H15 H 0.2476 0.1845 0.5569
C21 C 0.3549(8) 0.2428(4) 0.6842(3)
C22 C 0.3433(9) 0.3139(5) 0.7235(4)
C23 C 0.4982(10) 0.2396(5) 0.6514(4)
C24 C -0.3005(8) 0.4371(4) 0.5951(3)
C25 C -0.3009(9) 0.4015(5) 0.5364(4)
H16 H -0.2036 0.3912 0.5198
C26 C -0.4496(10) 0.3811(6) 0.5023(4)
H17 H -0.4521 0.3582 0.4618
C27 C -0.5953(9) 0.3944(5) 0.5274(3)
C28 C -0.5880(8) 0.4315(5) 0.5862(4)
H18 H -0.6850 0.4425 0.6029
C29 C -0.4440(7) 0.4528(5) 0.6208(3)
H19 H -0.4419 0.4773 0.6606
C30 C -0.7575(11) 0.3702(6) 0.4909(4)
H20 H -0.7887 0.3170 0.5047
H21 H -0.7477 0.3686 0.4461
H22 H -0.8391 0.4098 0.4986
loop_
_geom_bond_atom_site_label_1
_geom_bond_atom_site_label_2
_geom_bond_site_symmetry_1
_geom_bond_site_symmetry_2
Br1 C18 1_555 1_555
S1 O4 1_555 1_555
O1 C8 1_555 1_555
O2 C11 1_555 1_555
O3 C11 1_555 1_555
O5 S1 1_555 1_555
N1 S1 1_555 1_555
N2 C22 1_555 1_555
N3 C23 1_555 1_555
C1 N1 1_555 1_555
C2 C1 1_555 1_555
H1 C2 1_555 1_555
C3 C2 1_555 1_555
H2 C3 1_555 1_555
C4 C3 1_555 1_555
H3 C4 1_555 1_555
C5 C4 1_555 1_555
H4 C5 1_555 1_555
C6 C1 1_555 1_555
C7 C6 1_555 1_555
C8 N1 1_555 1_555
C9 C7 1_555 1_555
H5 C9 1_555 1_555
H6 C9 1_555 1_555
C10 C7 1_555 1_555
C11 C10 1_555 1_555
C12 O3 1_555 1_555
H7 C12 1_555 1_555
H8 C12 1_555 1_555
C13 C12 1_555 1_555
H9 C13 1_555 1_555
H10 C13 1_555 1_555
H11 C13 1_555 1_555
C14 C10 1_555 1_555
C15 C14 1_555 1_555
C16 C15 1_555 1_555
H12 C16 1_555 1_555
C17 C16 1_555 1_555
H13 C17 1_555 1_555
C18 C17 1_555 1_555
C19 C18 1_555 1_555
H14 C19 1_555 1_555
C20 C15 1_555 1_555
H15 C20 1_555 1_555
C21 C14 1_555 1_555
C22 C21 1_555 1_555
C23 C21 1_555 1_555
C24 S1 1_555 1_555
C25 C24 1_555 1_555
H16 C25 1_555 1_555
C26 C25 1_555 1_555
H17 C26 1_555 1_555
C27 C26 1_555 1_555
C28 C27 1_555 1_555
H18 C28 1_555 1_555
C29 C24 1_555 1_555
H19 C29 1_555 1_555
C30 C27 1_555 1_555
H20 C30 1_555 1_555
H21 C30 1_555 1_555
H22 C30 1_555 1_555
C5 C6 1_555 1_555
C7 C8 1_555 1_555
C9 C10 1_555 1_555
C19 C20 1_555 1_555
C28 C29 1_555 1_555

#END
