
#######################################################################
#
#                 Cambridge Crystallographic Data Centre
#                                CCDC 
#
#######################################################################
#
# If this CIF has been generated from an entry in the Cambridge 
# Structural Database, then it will include bibliographic, chemical, 
# crystal, experimental, refinement or atomic coordinate data resulting 
# from the CCDC's data processing and validation procedures.
#
#######################################################################

data_BAWHUF
_chemical_formula_moiety         'C10 H10 O4'
_chemical_name_systematic        4-[hydroxy(phenyl)methyl]-1,3-dioxolan-2-one
_symmetry_cell_setting           orthorhombic
_symmetry_space_group_name_H-M   'P 21 21 21'
_symmetry_Int_Tables_number      19
_space_group_name_Hall           'P 2ac 2ab'
loop_
_symmetry_equiv_pos_site_id
_symmetry_equiv_pos_as_xyz
1 x,y,z
2 1/2+x,1/2-y,-z
3 -x,1/2+y,1/2-z
4 1/2-x,-y,1/2+z
_cell_length_a                   8.6487(2)
_cell_length_b                   9.6280(2)
_cell_length_c                   10.6343(2)
_cell_angle_alpha                90
_cell_angle_beta                 90
_cell_angle_gamma                90
_cell_volume                     885.515
_exptl_crystal_colour            colorless
_exptl_crystal_description       prism
_cell_formula_units_Z            4
loop_
_atom_site_label
_atom_site_type_symbol
_atom_site_fract_x
_atom_site_fract_y
_atom_site_fract_z
C1 C 0.83477(18) 0.58016(17) 0.68327(16)
C2 C 0.93611(18) 0.70389(16) 0.84499(14)
H1 H 1.0303 0.7639 0.8497
C3 C 0.98035(18) 0.55059(17) 0.85826(15)
H2 H 1.0919 0.5363 0.8419
H3 H 0.9550 0.5151 0.9432
C4 C 0.81346(19) 0.75437(16) 0.93834(15)
H4 H 0.8574 0.7492 1.0252
C5 C 0.76612(19) 0.90304(17) 0.91206(15)
C6 C 0.6450(2) 0.93392(18) 0.83074(16)
H5 H 0.5894 0.8609 0.7912
C7 C 0.6049(2) 1.0717(2) 0.80709(17)
H6 H 0.5218 1.0924 0.7517
C8 C 0.6863(2) 1.17869(19) 0.86441(19)
H7 H 0.6590 1.2726 0.8483
C9 C 0.8073(2) 1.14835(19) 0.94512(18)
H8 H 0.8633 1.2214 0.9842
C10 C 0.8465(2) 1.01095(18) 0.96891(16)
H9 H 0.9293 0.9906 1.0247
O1 O 0.87009(13) 0.70837(11) 0.71918(10)
O2 O 0.88625(14) 0.48370(11) 0.76259(12)
O3 O 0.76432(16) 0.55392(14) 0.58815(12)
O4 O 0.68076(14) 0.66710(13) 0.93211(12)
H10 H 0.698(3) 0.594(3) 0.983(3)
loop_
_geom_bond_atom_site_label_1
_geom_bond_atom_site_label_2
_geom_bond_site_symmetry_1
_geom_bond_site_symmetry_2
C1 O1 1_555 1_555
C2 H1 1_555 1_555
C3 C2 1_555 1_555
H2 C3 1_555 1_555
H3 C3 1_555 1_555
C4 C2 1_555 1_555
H4 C4 1_555 1_555
C5 C4 1_555 1_555
C6 C5 1_555 1_555
H5 C6 1_555 1_555
C7 C6 1_555 1_555
H6 C7 1_555 1_555
C8 C7 1_555 1_555
H7 C8 1_555 1_555
C9 C8 1_555 1_555
H8 C9 1_555 1_555
C10 C5 1_555 1_555
H9 C10 1_555 1_555
O1 C2 1_555 1_555
O2 C1 1_555 1_555
O3 C1 1_555 1_555
O4 C4 1_555 1_555
H10 O4 1_555 1_555
C3 O2 1_555 1_555
C9 C10 1_555 1_555

#END
