
#######################################################################
#
#                 Cambridge Crystallographic Data Centre
#                                CCDC 
#
#######################################################################
#
# If this CIF has been generated from an entry in the Cambridge 
# Structural Database, then it will include bibliographic, chemical, 
# crystal, experimental, refinement or atomic coordinate data resulting 
# from the CCDC's data processing and validation procedures.
#
#######################################################################

data_BAWMAQ
_chemical_formula_moiety         'C26 H25 N3 O6 S2'
_chemical_name_systematic        
5,10-bis((4-methylphenyl)sulfonyl)-8-nitro-1,2,4a,5,10,10a-hexahydrophenazine
_symmetry_cell_setting           monoclinic
_symmetry_space_group_name_H-M   'P 21/n'
_symmetry_Int_Tables_number      14
_space_group_name_Hall           '-P 2yn'
loop_
_symmetry_equiv_pos_site_id
_symmetry_equiv_pos_as_xyz
1 x,y,z
2 1/2-x,1/2+y,1/2-z
3 -x,-y,-z
4 1/2+x,1/2-y,1/2+z
_cell_length_a                   11.9761(10)
_cell_length_b                   12.0471(8)
_cell_length_c                   17.4180(13)
_cell_angle_alpha                90
_cell_angle_beta                 98.702(7)
_cell_angle_gamma                90
_cell_volume                     2484.09
_exptl_crystal_colour            'pale yellow'
_cell_formula_units_Z            4
_exptl_crystal_recrystallization_method 'n-hexane/ ethyl acetate'
loop_
_atom_site_label
_atom_site_type_symbol
_atom_site_fract_x
_atom_site_fract_y
_atom_site_fract_z
S1 S 0.04573(5) 0.41134(4) 0.25050(3)
S2 S 0.00829(5) 0.75631(4) 0.09146(3)
O1 O 0.09055(15) 0.39898(13) 0.33045(9)
O2 O -0.00267(14) 0.31872(12) 0.20607(9)
O3 O -0.02489(15) 0.69217(12) 0.02323(8)
O4 O 0.12411(13) 0.77444(12) 0.12141(8)
O5 O 0.03538(16) 0.63743(15) 0.52138(9)
O6 O 0.11652(15) 0.79632(15) 0.51264(9)
N1 N -0.05762(15) 0.50537(13) 0.24485(9)
N2 N -0.04685(15) 0.69125(13) 0.16010(9)
N3 N 0.06561(17) 0.71397(18) 0.48376(10)
C1 C 0.14845(19) 0.45611(19) 0.12439(12)
H1 H 0.0914 0.4118 0.0953
C2 C 0.2305(2) 0.50679(19) 0.08837(13)
H2 H 0.2285 0.4976 0.0340
C3 C 0.31567(19) 0.57068(18) 0.12971(13)
C4 C 0.3152(2) 0.58563(18) 0.20878(13)
H3 H 0.3716 0.6306 0.2378
C5 C 0.23431(19) 0.53632(18) 0.24576(13)
H4 H 0.2354 0.5468 0.2999
C6 C 0.15097(19) 0.47108(17) 0.20342(12)
C7 C 0.4075(2) 0.6210(2) 0.09054(15)
H5 H 0.4125 0.7008 0.1016
H6 H 0.3898 0.6095 0.0343
H7 H 0.4798 0.5856 0.1102
C8 C -0.13573(19) 0.51070(17) 0.16898(11)
H8 H -0.1000 0.4710 0.1285
C9 C -0.24698(19) 0.45411(18) 0.17708(12)
H9 H -0.2972 0.4557 0.1264
H10 H -0.2325 0.3755 0.1919
C10 C -0.3054(2) 0.51114(19) 0.23804(13)
H11 H -0.3833 0.4821 0.2350
H12 H -0.2643 0.4940 0.2904
C11 C -0.30942(19) 0.63408(19) 0.22643(12)
H13 H -0.3611 0.6760 0.2510
C12 C -0.24467(19) 0.68706(18) 0.18371(11)
H14 H -0.2543 0.7650 0.1776
C13 C -0.15642(18) 0.63149(16) 0.14409(11)
H15 H -0.1826 0.6330 0.0868
C14 C -0.00732(18) 0.70119(16) 0.24026(11)
C15 C 0.03837(19) 0.79699(17) 0.27671(12)
H16 H 0.0519 0.8602 0.2469
C16 C 0.06386(19) 0.79946(18) 0.35658(12)
H17 H 0.0970 0.8637 0.3823
C17 C 0.04088(18) 0.70826(18) 0.39846(11)
C18 C -0.00354(18) 0.61116(17) 0.36427(11)
H18 H -0.0194 0.5493 0.3947
C19 C -0.02403(17) 0.60741(16) 0.28411(11)
C20 C -0.05890(19) 0.88592(17) 0.07724(11)
C21 C -0.0023(2) 0.98056(17) 0.10666(11)
H19 H 0.0725 0.9758 0.1339
C22 C -0.0563(2) 1.08242(18) 0.09586(12)
H20 H -0.0175 1.1476 0.1157
C23 C -0.1654(2) 1.09118(19) 0.05673(13)
C24 C -0.2187(2) 0.9959(2) 0.02604(15)
H21 H -0.2928 1.0010 -0.0023
C25 C -0.1669(2) 0.8935(2) 0.03562(14)
H22 H -0.2048 0.8289 0.0140
C26 C -0.2250(3) 1.2011(2) 0.04728(16)
H23 H -0.2768 1.2075 0.0855
H24 H -0.2678 1.2065 -0.0052
H25 H -0.1692 1.2612 0.0553
loop_
_geom_bond_atom_site_label_1
_geom_bond_atom_site_label_2
_geom_bond_site_symmetry_1
_geom_bond_site_symmetry_2
S1 O1 1_555 1_555
S2 O3 1_555 1_555
O2 S1 1_555 1_555
O4 S2 1_555 1_555
O5 N3 1_555 1_555
O6 N3 1_555 1_555
N1 S1 1_555 1_555
N2 S2 1_555 1_555
N3 C17 1_555 1_555
C1 H1 1_555 1_555
C2 C1 1_555 1_555
H2 C2 1_555 1_555
C3 C2 1_555 1_555
C4 C3 1_555 1_555
H3 C4 1_555 1_555
C5 C4 1_555 1_555
H4 C5 1_555 1_555
C6 S1 1_555 1_555
C7 C3 1_555 1_555
H5 C7 1_555 1_555
H6 C7 1_555 1_555
H7 C7 1_555 1_555
C8 N1 1_555 1_555
H8 C8 1_555 1_555
C9 C8 1_555 1_555
H9 C9 1_555 1_555
H10 C9 1_555 1_555
C10 C9 1_555 1_555
H11 C10 1_555 1_555
H12 C10 1_555 1_555
C11 C10 1_555 1_555
H13 C11 1_555 1_555
C12 C11 1_555 1_555
H14 C12 1_555 1_555
C13 N2 1_555 1_555
H15 C13 1_555 1_555
C14 N2 1_555 1_555
C15 C14 1_555 1_555
H16 C15 1_555 1_555
C16 C15 1_555 1_555
H17 C16 1_555 1_555
C17 C16 1_555 1_555
C18 C17 1_555 1_555
H18 C18 1_555 1_555
C19 N1 1_555 1_555
C20 S2 1_555 1_555
C21 C20 1_555 1_555
H19 C21 1_555 1_555
C22 C21 1_555 1_555
H20 C22 1_555 1_555
C23 C22 1_555 1_555
C24 C23 1_555 1_555
H21 C24 1_555 1_555
C25 C20 1_555 1_555
H22 C25 1_555 1_555
C26 C23 1_555 1_555
H23 C26 1_555 1_555
H24 C26 1_555 1_555
H25 C26 1_555 1_555
C1 C6 1_555 1_555
C5 C6 1_555 1_555
C8 C13 1_555 1_555
C12 C13 1_555 1_555
C14 C19 1_555 1_555
C18 C19 1_555 1_555
C24 C25 1_555 1_555

#END
