
#######################################################################
#
#                 Cambridge Crystallographic Data Centre
#                                CCDC 
#
#######################################################################
#
# If this CIF has been generated from an entry in the Cambridge 
# Structural Database, then it will include bibliographic, chemical, 
# crystal, experimental, refinement or atomic coordinate data resulting 
# from the CCDC's data processing and validation procedures.
#
#######################################################################

data_BAWMEU
_chemical_formula_moiety         'C26 H26 N2 O4 S2'
_chemical_name_systematic        
5,10-bis((4-methylphenyl)sulfonyl)-1,2,4a,5,10,10a-hexahydrophenazine
_symmetry_cell_setting           monoclinic
_symmetry_space_group_name_H-M   'P 21/n'
_symmetry_Int_Tables_number      14
_space_group_name_Hall           '-P 2yn'
loop_
_symmetry_equiv_pos_site_id
_symmetry_equiv_pos_as_xyz
1 x,y,z
2 1/2-x,1/2+y,1/2-z
3 -x,-y,-z
4 1/2+x,1/2-y,1/2+z
_cell_length_a                   12.7471(7)
_cell_length_b                   12.3553(6)
_cell_length_c                   15.5929(11)
_cell_angle_alpha                90
_cell_angle_beta                 101.189(6)
_cell_angle_gamma                90
_cell_volume                     2409.11
_exptl_crystal_colour            colorless
_exptl_crystal_description       block
_cell_formula_units_Z            4
_exptl_crystal_recrystallization_method n-hexane/dichloromethane
loop_
_atom_site_label
_atom_site_type_symbol
_atom_site_fract_x
_atom_site_fract_y
_atom_site_fract_z
S1 S 0.48772(5) 0.26072(5) 0.39676(4)
S2 S 0.46471(6) -0.08486(5) 0.22221(5)
O1 O 0.51284(16) 0.20044(15) 0.47614(12)
O2 O 0.37958(13) 0.28145(15) 0.35571(13)
O3 O 0.51031(16) -0.17626(14) 0.27195(14)
O4 O 0.42562(18) -0.09544(15) 0.13030(14)
N1 N 0.54231(16) 0.19303(16) 0.32615(13)
N2 N 0.56008(16) 0.00910(16) 0.23554(13)
C1 C 0.51244(19) 0.20116(19) 0.23364(16)
C2 C 0.4736(2) 0.2929(2) 0.18777(18)
H1 H 0.4598 0.3550 0.2174
C3 C 0.4555(3) 0.2920(3) 0.0976(2)
H2 H 0.4269 0.3530 0.0667
C4 C 0.4789(2) 0.2020(3) 0.05266(19)
H3 H 0.4686 0.2033 -0.0080
C5 C 0.5176(2) 0.1102(2) 0.09805(18)
H4 H 0.5349 0.0496 0.0681
C6 C 0.53077(19) 0.10804(19) 0.18803(16)
C7 C 0.6260(2) 0.0154(2) 0.32654(17)
H5 H 0.5870 -0.0207 0.3667
C8 C 0.7321(2) -0.0424(2) 0.3302(2)
H6 H 0.7695 -0.0462 0.3905
H7 H 0.7182 -0.1160 0.3093
C9 C 0.8017(3) 0.0109(3) 0.2778(3)
H8 H 0.7755 -0.0052 0.2165
H9 H 0.8733 -0.0187 0.2940
C10 C 0.8068(3) 0.1304(3) 0.2899(2)
H10 H 0.8636 0.1678 0.2742
C11 C 0.7351(2) 0.1854(2) 0.32151(19)
H11 H 0.7408 0.2605 0.3236
C12 C 0.64413(19) 0.1335(2) 0.35452(17)
H12 H 0.6614 0.1353 0.4185
C13 C 0.55475(19) 0.38538(19) 0.41455(15)
C14 C 0.5039(2) 0.4791(2) 0.38081(17)
H13 H 0.4345 0.4762 0.3486
C15 C 0.5563(2) 0.5765(2) 0.39499(18)
H14 H 0.5213 0.6394 0.3725
C16 C 0.6603(2) 0.5832(2) 0.44203(17)
C17 C 0.7098(2) 0.4891(2) 0.47631(17)
H15 H 0.7793 0.4923 0.5083
C18 C 0.6584(2) 0.3906(2) 0.46411(17)
H16 H 0.6924 0.3282 0.4887
C19 C 0.7175(2) 0.6903(2) 0.4555(2)
H17 H 0.7698 0.6940 0.4188
H18 H 0.7525 0.6970 0.5156
H19 H 0.6668 0.7480 0.4407
C20 C 0.3620(2) -0.0318(2) 0.27048(19)
C21 C 0.2935(2) 0.0460(2) 0.22658(19)
H20 H 0.2994 0.0676 0.1706
C22 C 0.2169(2) 0.0908(2) 0.2665(2)
H21 H 0.1717 0.1436 0.2371
C23 C 0.2049(2) 0.0598(2) 0.3491(2)
C24 C 0.2745(2) -0.0174(3) 0.3915(2)
H22 H 0.2684 -0.0391 0.4475
C25 C 0.3528(2) -0.0633(3) 0.3534(2)
H23 H 0.3988 -0.1150 0.3834
C26 C 0.1187(3) 0.1081(3) 0.3912(3)
H24 H 0.1123 0.1840 0.3782
H25 H 0.1370 0.0981 0.4534
H26 H 0.0518 0.0729 0.3689
loop_
_geom_bond_atom_site_label_1
_geom_bond_atom_site_label_2
_geom_bond_site_symmetry_1
_geom_bond_site_symmetry_2
S1 O1 1_555 1_555
S2 O3 1_555 1_555
O2 S1 1_555 1_555
O4 S2 1_555 1_555
N1 S1 1_555 1_555
N2 S2 1_555 1_555
C1 N1 1_555 1_555
C2 C1 1_555 1_555
H1 C2 1_555 1_555
C3 C2 1_555 1_555
H2 C3 1_555 1_555
C4 C3 1_555 1_555
H3 C4 1_555 1_555
C5 C4 1_555 1_555
H4 C5 1_555 1_555
C6 N2 1_555 1_555
C7 N2 1_555 1_555
H5 C7 1_555 1_555
C8 C7 1_555 1_555
H6 C8 1_555 1_555
H7 C8 1_555 1_555
C9 C8 1_555 1_555
H8 C9 1_555 1_555
H9 C9 1_555 1_555
C10 C9 1_555 1_555
H10 C10 1_555 1_555
C11 C10 1_555 1_555
H11 C11 1_555 1_555
C12 N1 1_555 1_555
H12 C12 1_555 1_555
C13 S1 1_555 1_555
C14 C13 1_555 1_555
H13 C14 1_555 1_555
C15 C14 1_555 1_555
H14 C15 1_555 1_555
C16 C15 1_555 1_555
C17 C16 1_555 1_555
H15 C17 1_555 1_555
C18 C13 1_555 1_555
H16 C18 1_555 1_555
C19 C16 1_555 1_555
H17 C19 1_555 1_555
H18 C19 1_555 1_555
H19 C19 1_555 1_555
C20 S2 1_555 1_555
C21 C20 1_555 1_555
H20 C21 1_555 1_555
C22 C21 1_555 1_555
H21 C22 1_555 1_555
C23 C22 1_555 1_555
C24 C23 1_555 1_555
H22 C24 1_555 1_555
C25 C20 1_555 1_555
H23 C25 1_555 1_555
C26 C23 1_555 1_555
H24 C26 1_555 1_555
H25 C26 1_555 1_555
H26 C26 1_555 1_555
C1 C6 1_555 1_555
C5 C6 1_555 1_555
C7 C12 1_555 1_555
C11 C12 1_555 1_555
C17 C18 1_555 1_555
C24 C25 1_555 1_555

#END
