
#######################################################################
#
#                 Cambridge Crystallographic Data Centre
#                                CCDC 
#
#######################################################################
#
# If this CIF has been generated from an entry in the Cambridge 
# Structural Database, then it will include bibliographic, chemical, 
# crystal, experimental, refinement or atomic coordinate data resulting 
# from the CCDC's data processing and validation procedures.
#
#######################################################################

data_BAWNIW07
_chemical_name_common            Chlorothalonil
_chemical_formula_moiety         'C8 Cl4 N2'
_chemical_name_systematic        2,4,5,6-Tetrachloroisophthalonitrile
_chemical_properties_biological  'antifungal activity'
_symmetry_cell_setting           monoclinic
_symmetry_space_group_name_H-M   'P 21'
_symmetry_Int_Tables_number      4
_space_group_name_Hall           'P 2yb'
loop_
_symmetry_equiv_pos_site_id
_symmetry_equiv_pos_as_xyz
1 x,y,z
2 -x,1/2+y,-z
_cell_length_a                   8.1615(18)
_cell_length_b                   9.4191(19)
_cell_length_c                   6.4728(14)
_cell_angle_alpha                90
_cell_angle_beta                 93.7307(64)
_cell_angle_gamma                90
_cell_volume                     496.535
_cell_formula_units_Z            2
loop_
_atom_site_label
_atom_site_type_symbol
_atom_site_fract_x
_atom_site_fract_y
_atom_site_fract_z
C1 C 0.1889(15) 0.3953(69) 0.1290(46)
C2 C 0.2780(40) 0.3931(14) -0.0517(25)
C3 C 0.3226(17) 0.5230(15) -0.1452(32)
C4 C 0.2779(52) 0.6531(90) -0.0576(48)
C5 C 0.1881(60) 0.6546(28) 0.1234(48)
C6 C 0.1448(52) 0.5268(11) 0.2175(65)
C7 C 0.4156(65) 0.5215(24) -0.3313(43)
C8 C 0.1430(21) 0.2615(19) 0.2249(67)
Cl1 Cl 0.0351(66) 0.5298(60) 0.4340(36)
Cl2 Cl 0.1355(18) 0.8143(11) 0.2307(55)
Cl3 Cl 0.3322(68) 0.8114(21) -0.1694(53)
Cl4 Cl 0.3326(52) 0.2348(15) -0.1564(16)
N1 N 0.4893(14) 0.5220(12) -0.4780(44)
N2 N 0.1050(67) 0.1557(20) 0.3002(61)
loop_
_geom_bond_atom_site_label_1
_geom_bond_atom_site_label_2
_geom_bond_site_symmetry_1
_geom_bond_site_symmetry_2
C1 C2 1_555 1_555
C2 C3 1_555 1_555
C3 C4 1_555 1_555
C4 C5 1_555 1_555
C5 C6 1_555 1_555
C6 C1 1_555 1_555
C7 C3 1_555 1_555
C8 C1 1_555 1_555
Cl1 C6 1_555 1_555
Cl2 C5 1_555 1_555
Cl3 C4 1_555 1_555
Cl4 C2 1_555 1_555
N1 C7 1_555 1_555
N2 C8 1_555 1_555

#END
