
#######################################################################
#
#                 Cambridge Crystallographic Data Centre
#                                CCDC 
#
#######################################################################
#
# If this CIF has been generated from an entry in the Cambridge 
# Structural Database, then it will include bibliographic, chemical, 
# crystal, experimental, refinement or atomic coordinate data resulting 
# from the CCDC's data processing and validation procedures.
#
#######################################################################

data_BAWQUO
_chemical_formula_moiety         'C24 H25 N1 O4'
_chemical_name_systematic        
'1-benzyl-4,4-dimethyl-2-oxo-6-phenyl-3-oxa-1-azaspiro[4.4]non-7-en-7-yl acetate'
_symmetry_cell_setting           monoclinic
_symmetry_space_group_name_H-M   'C 2/c'
_symmetry_Int_Tables_number      15
_space_group_name_Hall           '-C 2yn'
loop_
_symmetry_equiv_pos_site_id
_symmetry_equiv_pos_as_xyz
1 x,y,z
2 -x,y,1/2-z
3 1/2+x,1/2+y,z
4 1/2-x,1/2+y,1/2-z
5 -x,-y,-z
6 x,-y,1/2+z
7 1/2-x,1/2-y,-z
8 1/2+x,1/2-y,1/2+z
_cell_length_a                   25.91(2)
_cell_length_b                   11.234(9)
_cell_length_c                   17.776(14)
_cell_angle_alpha                90
_cell_angle_beta                 126.130(7)
_cell_angle_gamma                90
_cell_volume                     4179.03
_exptl_crystal_colour            colorless
_exptl_crystal_description       block
_chemical_melting_point          '396 K'
_cell_formula_units_Z            8
_exptl_crystal_recrystallization_method n-hexane/dichloromethane
loop_
_atom_site_label
_atom_site_type_symbol
_atom_site_fract_x
_atom_site_fract_y
_atom_site_fract_z
O1 O 0.13263(10) 0.52604(18) 0.38413(12)
O2 O 0.10450(8) 0.69055(16) 0.29674(11)
O3 O 0.23578(8) 0.56036(14) 0.14000(11)
O4 O 0.22705(12) 0.7411(2) 0.08548(18)
N1 N 0.12150(8) 0.52658(16) 0.24654(11)
C1 C 0.09133(13) 0.2269(2) 0.14470(18)
H1 H 0.1288 0.2208 0.1491
C2 C 0.04450(18) 0.1450(3) 0.0946(2)
H2 H 0.0501 0.0835 0.0651
C3 C -0.01037(18) 0.1522(3) 0.0874(2)
H3 H -0.0418 0.0945 0.0544
C4 C -0.01985(15) 0.2449(3) 0.1288(2)
H4 H -0.0580 0.2512 0.1227
C5 C 0.02810(13) 0.3284(3) 0.17967(19)
H5 H 0.0220 0.3913 0.2077
C6 C 0.08443(11) 0.3193(2) 0.18922(15)
C7 C 0.13904(11) 0.4032(2) 0.24870(16)
H6 H 0.1634 0.3754 0.3126
H7 H 0.1669 0.3999 0.2291
C8 C 0.12117(11) 0.5748(3) 0.31593(17)
C9 C 0.07879(11) 0.7121(2) 0.19945(17)
C10 C 0.11424(10) 0.61718(18) 0.18222(14)
C11 C 0.07616(11) 0.5710(2) 0.08177(15)
H8 H 0.0499 0.5035 0.0733
H9 H 0.0489 0.6329 0.0380
C12 C 0.12534(13) 0.5354(2) 0.06867(16)
H10 H 0.1177 0.4887 0.0199
C13 C 0.18052(12) 0.5784(2) 0.13463(15)
C14 C 0.18060(10) 0.65385(19) 0.20450(13)
H11 H 0.1772 0.7371 0.1856
C15 C 0.23832(10) 0.6443(2) 0.30467(14)
C16 C 0.27354(11) 0.5414(2) 0.34033(16)
H12 H 0.2628 0.4765 0.3011
C17 C 0.32439(12) 0.5323(3) 0.43294(19)
H13 H 0.3470 0.4612 0.4557
C18 C 0.34172(15) 0.6263(4) 0.4911(2)
H14 H 0.3758 0.6197 0.5537
C19 C 0.30875(15) 0.7306(3) 0.4571(2)
H15 H 0.3207 0.7957 0.4964
C20 C 0.25761(12) 0.7397(2) 0.36435(17)
H16 H 0.2358 0.8116 0.3418
C21 C 0.00750(12) 0.6882(3) 0.1422(2)
H17 H 0.0004 0.6060 0.1482
H18 H -0.0117 0.7061 0.0780
H19 H -0.0113 0.7375 0.1643
C22 C 0.09132(15) 0.8405(2) 0.1904(2)
H20 H 0.0661 0.8911 0.2005
H21 H 0.0801 0.8541 0.1291
H22 H 0.1358 0.8580 0.2358
C23 C 0.25340(14) 0.6475(3) 0.10847(19)
C24 C 0.30745(17) 0.6116(3) 0.1067(2)
H23 H 0.3158 0.6730 0.0777
H24 H 0.2970 0.5390 0.0720
H25 H 0.3447 0.5994 0.1692
loop_
_geom_bond_atom_site_label_1
_geom_bond_atom_site_label_2
_geom_bond_site_symmetry_1
_geom_bond_site_symmetry_2
O1 C8 1_555 1_555
O2 C8 1_555 1_555
O3 C13 1_555 1_555
O4 C23 1_555 1_555
N1 C7 1_555 1_555
C1 H1 1_555 1_555
C2 C1 1_555 1_555
H2 C2 1_555 1_555
C3 C2 1_555 1_555
H3 C3 1_555 1_555
C4 C3 1_555 1_555
H4 C4 1_555 1_555
C5 C4 1_555 1_555
H5 C5 1_555 1_555
C6 C1 1_555 1_555
C7 C6 1_555 1_555
H6 C7 1_555 1_555
H7 C7 1_555 1_555
C8 N1 1_555 1_555
C9 O2 1_555 1_555
C10 N1 1_555 1_555
C11 C10 1_555 1_555
H8 C11 1_555 1_555
H9 C11 1_555 1_555
C12 C11 1_555 1_555
H10 C12 1_555 1_555
C13 C12 1_555 1_555
C14 C10 1_555 1_555
H11 C14 1_555 1_555
C15 C14 1_555 1_555
C16 C15 1_555 1_555
H12 C16 1_555 1_555
C17 C16 1_555 1_555
H13 C17 1_555 1_555
C18 C17 1_555 1_555
H14 C18 1_555 1_555
C19 C18 1_555 1_555
H15 C19 1_555 1_555
C20 C15 1_555 1_555
H16 C20 1_555 1_555
C21 C9 1_555 1_555
H17 C21 1_555 1_555
H18 C21 1_555 1_555
H19 C21 1_555 1_555
C22 C9 1_555 1_555
H20 C22 1_555 1_555
H21 C22 1_555 1_555
H22 C22 1_555 1_555
C23 O3 1_555 1_555
C24 C23 1_555 1_555
H23 C24 1_555 1_555
H24 C24 1_555 1_555
H25 C24 1_555 1_555
C5 C6 1_555 1_555
C9 C10 1_555 1_555
C13 C14 1_555 1_555
C19 C20 1_555 1_555

#END
