
#######################################################################
#
#                 Cambridge Crystallographic Data Centre
#                                CCDC 
#
#######################################################################
#
# If this CIF has been generated from an entry in the Cambridge 
# Structural Database, then it will include bibliographic, chemical, 
# crystal, experimental, refinement or atomic coordinate data resulting 
# from the CCDC's data processing and validation procedures.
#
#######################################################################

data_BAWREZ
_chemical_formula_moiety         'C24 H23 N1 O6'
_chemical_name_systematic        
'6-(1,3-benzodioxol-5-yl)-1-(4-methoxyphenyl)-2-oxo-1-azaspiro[4.4]non-7-en-7-yl acetate'
_symmetry_cell_setting           monoclinic
_symmetry_space_group_name_H-M   'P 21/c'
_symmetry_Int_Tables_number      14
_space_group_name_Hall           '-P 2ybc'
loop_
_symmetry_equiv_pos_site_id
_symmetry_equiv_pos_as_xyz
1 x,y,z
2 -x,1/2+y,1/2-z
3 -x,-y,-z
4 x,1/2-y,1/2+z
_cell_length_a                   9.6711(6)
_cell_length_b                   19.4443(14)
_cell_length_c                   11.2024(7)
_cell_angle_alpha                90
_cell_angle_beta                 95.091(6)
_cell_angle_gamma                90
_cell_volume                     2098.28
_exptl_crystal_colour            colorless
_exptl_crystal_description       block
_chemical_melting_point          '398 K'
_cell_formula_units_Z            4
_exptl_crystal_recrystallization_method n-hexane/dichloromethane
loop_
_atom_site_label
_atom_site_type_symbol
_atom_site_fract_x
_atom_site_fract_y
_atom_site_fract_z
O1 O 0.9657(3) 0.53591(18) 0.3604(3)
O2 O 0.3703(3) 0.42938(19) 0.8630(3)
O3 O 0.3499(3) 0.54958(19) 0.8677(3)
O4 O 0.8569(3) 0.65647(18) 0.9067(3)
O5 O 1.0460(4) 0.5935(3) 0.9026(3)
O6 O 1.3970(3) 0.75113(19) 0.5622(3)
N1 N 0.8974(3) 0.6072(2) 0.5073(3)
C1 C 0.7755(4) 0.6160(3) 0.5800(3)
C2 C 0.7421(5) 0.6930(3) 0.5951(4)
H1 H 0.7906 0.7208 0.5403
H2 H 0.6432 0.7013 0.5800
C3 C 0.7906(4) 0.7096(3) 0.7216(4)
H3 H 0.7939 0.7537 0.7539
C4 C 0.8278(4) 0.6543(3) 0.7809(4)
C5 C 0.8091(4) 0.5879(2) 0.7119(3)
H4 H 0.8970 0.5625 0.7173
C6 C 0.6634(4) 0.5778(3) 0.5016(4)
H5 H 0.6190 0.6080 0.4407
H6 H 0.5933 0.5593 0.5494
C7 C 0.7421(5) 0.5201(3) 0.4447(4)
H7 H 0.7524 0.4802 0.4968
H8 H 0.6960 0.5064 0.3679
C8 C 0.8807(5) 0.5534(3) 0.4300(4)
C9 C 0.6961(4) 0.5431(2) 0.7562(3)
C10 C 0.7078(5) 0.4721(3) 0.7560(4)
H9 H 0.7884 0.4523 0.7321
C11 C 0.6023(5) 0.4293(3) 0.7907(4)
H10 H 0.6098 0.3816 0.7879
C12 C 0.4883(5) 0.4606(3) 0.8286(4)
C13 C 0.2822(5) 0.4860(3) 0.8936(4)
H11 H 0.1928 0.4830 0.8471
H12 H 0.2670 0.4839 0.9779
C14 C 0.4754(4) 0.5304(3) 0.8301(4)
C15 C 0.5761(4) 0.5730(3) 0.7952(3)
H13 H 0.5656 0.6206 0.7972
C16 C 0.9689(6) 0.6250(3) 0.9578(5)
C17 C 0.9872(6) 0.6374(3) 1.0894(4)
H14 H 1.0271 0.6821 1.1046
H15 H 1.0478 0.6030 1.1267
H16 H 0.8986 0.6351 1.1216
C18 C 1.0229(4) 0.6458(2) 0.5229(4)
C19 C 1.0576(4) 0.6875(3) 0.4310(4)
H17 H 0.9968 0.6919 0.3623
C20 C 1.1819(5) 0.7228(3) 0.4396(4)
H18 H 1.2052 0.7502 0.3763
C21 C 1.2719(5) 0.7176(3) 0.5422(4)
C22 C 1.2382(4) 0.6746(3) 0.6327(4)
H19 H 1.2993 0.6698 0.7012
C23 C 1.1158(4) 0.6385(3) 0.6232(4)
H20 H 1.0951 0.6091 0.6846
C24 C 1.4384(5) 0.7950(3) 0.4703(5)
H21 H 1.4538 0.7681 0.4008
H22 H 1.5226 0.8184 0.4982
H23 H 1.3667 0.8282 0.4497
loop_
_geom_bond_atom_site_label_1
_geom_bond_atom_site_label_2
_geom_bond_site_symmetry_1
_geom_bond_site_symmetry_2
O1 C8 1_555 1_555
O2 C12 1_555 1_555
O3 C13 1_555 1_555
O4 C4 1_555 1_555
O5 C16 1_555 1_555
O6 C21 1_555 1_555
N1 C1 1_555 1_555
C1 C2 1_555 1_555
C2 H1 1_555 1_555
H2 C2 1_555 1_555
C3 C2 1_555 1_555
H3 C3 1_555 1_555
C4 C3 1_555 1_555
C5 C1 1_555 1_555
H4 C5 1_555 1_555
C6 C1 1_555 1_555
H5 C6 1_555 1_555
H6 C6 1_555 1_555
C7 C6 1_555 1_555
H7 C7 1_555 1_555
H8 C7 1_555 1_555
C8 N1 1_555 1_555
C9 C5 1_555 1_555
C10 C9 1_555 1_555
H9 C10 1_555 1_555
C11 C10 1_555 1_555
H10 C11 1_555 1_555
C12 C11 1_555 1_555
C13 O2 1_555 1_555
H11 C13 1_555 1_555
H12 C13 1_555 1_555
C14 O3 1_555 1_555
C15 C9 1_555 1_555
H13 C15 1_555 1_555
C16 O4 1_555 1_555
C17 C16 1_555 1_555
H14 C17 1_555 1_555
H15 C17 1_555 1_555
H16 C17 1_555 1_555
C18 N1 1_555 1_555
C19 C18 1_555 1_555
H17 C19 1_555 1_555
C20 C19 1_555 1_555
H18 C20 1_555 1_555
C21 C20 1_555 1_555
C22 C21 1_555 1_555
H19 C22 1_555 1_555
C23 C18 1_555 1_555
H20 C23 1_555 1_555
C24 O6 1_555 1_555
H21 C24 1_555 1_555
H22 C24 1_555 1_555
H23 C24 1_555 1_555
C4 C5 1_555 1_555
C7 C8 1_555 1_555
C12 C14 1_555 1_555
C14 C15 1_555 1_555
C22 C23 1_555 1_555

#END
