
#######################################################################
#
#                 Cambridge Crystallographic Data Centre
#                                CCDC 
#
#######################################################################
#
# If this CIF has been generated from an entry in the Cambridge 
# Structural Database, then it will include bibliographic, chemical, 
# crystal, experimental, refinement or atomic coordinate data resulting 
# from the CCDC's data processing and validation procedures.
#
#######################################################################

data_BAWRAV
_chemical_formula_moiety         'C24 H25 N1 O5'
_chemical_name_systematic        
'6-(4-methoxyphenyl)-4,4-dimethyl-2-oxo-1-phenyl-3-oxa-1-azaspiro[4.4]non-7-en-7-yl acetate'
_symmetry_cell_setting           triclinic
_symmetry_space_group_name_H-M   'P -1'
_symmetry_Int_Tables_number      2
_space_group_name_Hall           '-P 1'
loop_
_symmetry_equiv_pos_site_id
_symmetry_equiv_pos_as_xyz
1 x,y,z
2 -x,-y,-z
_cell_length_a                   7.5258(4)
_cell_length_b                   11.7781(5)
_cell_length_c                   12.4974(6)
_cell_angle_alpha                80.639(4)
_cell_angle_beta                 77.851(4)
_cell_angle_gamma                78.666(4)
_cell_volume                     1053.3
_exptl_crystal_colour            colorless
_exptl_crystal_description       block
_chemical_melting_point          '439 K'
_cell_formula_units_Z            2
_exptl_crystal_recrystallization_method n-hexane/dichloromethane
loop_
_atom_site_label
_atom_site_type_symbol
_atom_site_fract_x
_atom_site_fract_y
_atom_site_fract_z
O1 O 0.37083(19) 0.00048(10) 0.80929(10)
O2 O 0.2108(2) 0.06131(13) 0.96789(11)
O3 O 0.75356(15) 0.41482(10) 0.69463(11)
O4 O 1.0601(2) 0.37278(17) 0.65415(19)
O5 O 0.79656(19) 0.27693(12) 0.20819(10)
N1 N 0.40267(18) 0.17248(11) 0.84454(10)
C1 C 0.7387(2) 0.10402(15) 0.79111(14)
H1 H 0.7183 0.0653 0.8662
H2 H 0.8214 0.0506 0.7441
C2 C 0.8146(2) 0.21382(17) 0.78494(14)
H3 H 0.9083 0.2209 0.8202
C3 C 0.7294(2) 0.29854(14) 0.72234(13)
C4 C 0.5842(2) 0.26436(12) 0.67372(12)
H4 H 0.4710 0.3218 0.6868
C5 C 0.5546(2) 0.14734(13) 0.74967(12)
C6 C 0.4745(2) 0.05420(14) 0.70728(13)
C7 C 0.3178(3) 0.07810(15) 0.88288(14)
C8 C 0.2748(3) 0.36852(16) 0.88969(15)
H5 H 0.2213 0.3835 0.8271
C9 C 0.2480(3) 0.45363(19) 0.95870(19)
H6 H 0.1780 0.5263 0.9420
C10 C 0.3254(4) 0.4304(2) 1.05207(19)
H7 H 0.3076 0.4874 1.0986
C11 C 0.4281(3) 0.3240(2) 1.07609(18)
H8 H 0.4786 0.3084 1.1398
C12 C 0.4583(3) 0.23928(19) 1.00776(15)
H9 H 0.5303 0.1673 1.0244
C13 C 0.3809(2) 0.26175(14) 0.91407(12)
C14 C 0.9246(2) 0.44288(17) 0.66291(15)
C15 C 0.9175(3) 0.5705(2) 0.6410(2)
H10 H 0.8429 0.6027 0.5862
H11 H 1.0400 0.5875 0.6147
H12 H 0.8649 0.6045 0.7079
C16 C 0.3347(3) 0.10666(18) 0.63371(16)
H13 H 0.2686 0.0477 0.6254
H14 H 0.3973 0.1364 0.5626
H15 H 0.2496 0.1691 0.6665
C17 C 0.6114(3) -0.04624(17) 0.66050(18)
H16 H 0.6859 -0.0841 0.7139
H17 H 0.6889 -0.0170 0.5946
H18 H 0.5460 -0.1012 0.6433
C18 C 0.64699(19) 0.26208(12) 0.54981(12)
C19 C 0.5488(2) 0.33893(13) 0.47739(13)
H19 H 0.4442 0.3893 0.5058
C20 C 0.6024(2) 0.34228(14) 0.36459(13)
H20 H 0.5354 0.3954 0.3181
C21 C 0.7559(2) 0.26662(13) 0.32036(12)
C22 C 0.8573(2) 0.19005(13) 0.39035(13)
H21 H 0.9601 0.1385 0.3617
C23 C 0.8045(2) 0.19076(13) 0.50378(13)
H22 H 0.8770 0.1419 0.5501
C24 C 0.9434(3) 0.1973(2) 0.15506(16)
H23 H 0.9467 0.2111 0.0769
H24 H 0.9241 0.1187 0.1822
H25 H 1.0582 0.2083 0.1703
loop_
_geom_bond_atom_site_label_1
_geom_bond_atom_site_label_2
_geom_bond_site_symmetry_1
_geom_bond_site_symmetry_2
O1 C6 1_555 1_555
O2 C7 1_555 1_555
O3 C3 1_555 1_555
O4 C14 1_555 1_555
O5 C21 1_555 1_555
N1 C5 1_555 1_555
C1 H1 1_555 1_555
H2 C1 1_555 1_555
C2 C1 1_555 1_555
H3 C2 1_555 1_555
C3 C2 1_555 1_555
C4 C3 1_555 1_555
H4 C4 1_555 1_555
C5 C1 1_555 1_555
C6 C5 1_555 1_555
C7 O1 1_555 1_555
C8 H5 1_555 1_555
C9 C8 1_555 1_555
H6 C9 1_555 1_555
C10 C9 1_555 1_555
H7 C10 1_555 1_555
C11 C10 1_555 1_555
H8 C11 1_555 1_555
C12 C11 1_555 1_555
H9 C12 1_555 1_555
C13 N1 1_555 1_555
C14 O3 1_555 1_555
C15 C14 1_555 1_555
H10 C15 1_555 1_555
H11 C15 1_555 1_555
H12 C15 1_555 1_555
C16 C6 1_555 1_555
H13 C16 1_555 1_555
H14 C16 1_555 1_555
H15 C16 1_555 1_555
C17 C6 1_555 1_555
H16 C17 1_555 1_555
H17 C17 1_555 1_555
H18 C17 1_555 1_555
C18 C4 1_555 1_555
C19 C18 1_555 1_555
H19 C19 1_555 1_555
C20 C19 1_555 1_555
H20 C20 1_555 1_555
C21 C20 1_555 1_555
C22 C21 1_555 1_555
H21 C22 1_555 1_555
C23 C18 1_555 1_555
H22 C23 1_555 1_555
C24 O5 1_555 1_555
H23 C24 1_555 1_555
H24 C24 1_555 1_555
H25 C24 1_555 1_555
N1 C7 1_555 1_555
C4 C5 1_555 1_555
C8 C13 1_555 1_555
C12 C13 1_555 1_555
C22 C23 1_555 1_555

#END
