
#######################################################################
#
#                 Cambridge Crystallographic Data Centre
#                                CCDC 
#
#######################################################################
#
# If this CIF has been generated from an entry in the Cambridge 
# Structural Database, then it will include bibliographic, chemical, 
# crystal, experimental, refinement or atomic coordinate data resulting 
# from the CCDC's data processing and validation procedures.
#
#######################################################################

data_BAWROJ
_chemical_formula_moiety         'C19 H21 N1 O5'
_chemical_name_systematic        
'8-oxo-1,2,3,5,6,8,9,14b-octahydro-4H-cyclopenta[a][1,3]dioxolo[4,5-h]pyrrolo[2,1-b][3]benzazepin-1-yl acetate'
_symmetry_cell_setting           monoclinic
_symmetry_space_group_name_H-M   'P 21/c'
_symmetry_Int_Tables_number      14
_space_group_name_Hall           '-P 2ybc'
loop_
_symmetry_equiv_pos_site_id
_symmetry_equiv_pos_as_xyz
1 x,y,z
2 -x,1/2+y,1/2-z
3 -x,-y,-z
4 x,1/2-y,1/2+z
_cell_length_a                   8.4092(11)
_cell_length_b                   18.977(2)
_cell_length_c                   21.008(3)
_cell_angle_alpha                90
_cell_angle_beta                 92.133(12)
_cell_angle_gamma                90
_cell_volume                     3350.16
_exptl_crystal_colour            'light yellow'
_exptl_crystal_description       block
_chemical_melting_point          '425 K'
_cell_formula_units_Z            8
_exptl_crystal_recrystallization_method 2-propanol
loop_
_atom_site_label
_atom_site_type_symbol
_atom_site_fract_x
_atom_site_fract_y
_atom_site_fract_z
O1 O 0.7366(6) 0.8136(3) 0.4684(2)
O2 O 0.5326(7) 0.6729(3) 0.1956(3)
O3 O 0.4179(7) 0.7683(2) 0.1434(3)
O4 O 0.2671(5) 0.98702(19) 0.26967(17)
O5 O 0.0133(6) 1.0218(3) 0.2605(2)
N1 N 0.6164(6) 0.9045(3) 0.4174(2)
C1 C 0.6216(8) 0.8358(5) 0.4341(3)
C2 C 0.4981(9) 0.7841(4) 0.4108(3)
H1 H 0.3976 0.7959 0.4293
H2 H 0.5285 0.7375 0.4257
C3 C 0.4743(8) 0.7821(3) 0.3386(3)
C4 C 0.5230(8) 0.7249(3) 0.3027(5)
H3 H 0.5741 0.6870 0.3226
C5 C 0.4961(9) 0.7244(3) 0.2386(5)
C6 C 0.4294(9) 0.7812(3) 0.2089(4)
C7 C 0.3812(7) 0.8403(3) 0.2398(3)
H4 H 0.3359 0.8783 0.2178
C8 C 0.4033(7) 0.8409(3) 0.3068(3)
C9 C 0.3581(7) 0.9005(3) 0.3495(3)
H5 H 0.3121 0.8766 0.3859
C10 C 0.4942(7) 0.9436(3) 0.3798(3)
C11 C 0.5977(8) 0.9846(3) 0.3342(3)
H6 H 0.6275 0.9554 0.2987
H7 H 0.5427 1.0261 0.3179
C12 C 0.7429(9) 1.0047(4) 0.3757(4)
H8 H 0.7264 1.0499 0.3961
H9 H 0.8365 1.0079 0.3503
C13 C 0.7630(8) 0.9465(4) 0.4255(3)
H10 H 0.8562 0.9181 0.4177
H11 H 0.7730 0.9662 0.4681
C14 C 0.2446(8) 1.0097(4) 0.3830(3)
H12 H 0.1532 1.0065 0.4097
H13 H 0.2480 1.0567 0.3650
C15 C 0.3980(8) 0.9942(4) 0.4219(3)
H14 H 0.3744 0.9719 0.4621
H15 H 0.4570 1.0372 0.4306
C16 C 0.2334(8) 0.9545(3) 0.3301(3)
H16 H 0.1275 0.9329 0.3281
C17 C 0.4795(11) 0.6990(4) 0.1357(5)
H17 H 0.3973 0.6684 0.1175
H18 H 0.5671 0.7000 0.1070
C18 C 0.1464(9) 1.0202(3) 0.2398(3)
C19 C 0.1925(8) 1.0555(3) 0.1809(3)
H19 H 0.3057 1.0621 0.1819
H20 H 0.1405 1.1005 0.1775
H21 H 0.1613 1.0269 0.1449
O6 O -0.2004(6) 0.1873(2) 0.4793(2)
O7 O -0.0517(6) 0.2162(2) 0.1747(2)
O8 O 0.0707(6) 0.3254(2) 0.17436(18)
O9 O 0.2474(4) 0.44281(18) 0.38266(16)
O10 O 0.4982(6) 0.4823(3) 0.3897(3)
N2 N -0.0773(6) 0.2919(2) 0.4742(2)
C20 C -0.0946(7) 0.2233(3) 0.4578(3)
C21 C 0.0190(7) 0.1907(3) 0.4106(2)
H22 H 0.1241 0.1880 0.4311
H23 H -0.0156 0.1429 0.4016
C22 C 0.0326(7) 0.2290(3) 0.3483(3)
C23 C -0.0270(7) 0.1997(3) 0.2911(3)
H24 H -0.0806 0.1568 0.2910
C24 C -0.0056(8) 0.2343(3) 0.2367(3)
C25 C 0.0666(7) 0.3009(3) 0.2357(3)
C26 C 0.1252(7) 0.3314(3) 0.2904(3)
H25 H 0.1758 0.3749 0.2894
C27 C 0.1077(7) 0.2958(3) 0.3478(2)
C28 C 0.1670(7) 0.3232(3) 0.4110(2)
H26 H 0.2155 0.2818 0.4318
C29 C 0.0416(7) 0.3465(3) 0.4570(2)
C30 C -0.0715(7) 0.4056(3) 0.4346(3)
H27 H -0.0176 0.4508 0.4359
H28 H -0.1119 0.3969 0.3915
C31 C -0.2061(8) 0.4042(3) 0.4812(3)
H29 H -0.3060 0.4184 0.4604
H30 H -0.1831 0.4352 0.5171
C32 C -0.2121(8) 0.3270(3) 0.5025(3)
H31 H -0.2037 0.3238 0.5486
H32 H -0.3113 0.3053 0.4878
C33 C 0.3048(7) 0.3949(3) 0.4892(2)
H33 H 0.3203 0.4449 0.4968
H34 H 0.3928 0.3694 0.5095
C34 C 0.2952(7) 0.3798(3) 0.4185(2)
H35 H 0.3973 0.3620 0.4042
C35 C 0.0011(10) 0.2710(4) 0.1356(3)
H36 H -0.0879 0.2898 0.1103
H37 H 0.0790 0.2530 0.1068
C36 C 0.3609(8) 0.4905(4) 0.3710(3)
C37 C 0.3014(9) 0.5528(3) 0.3354(3)
H38 H 0.2007 0.5419 0.3147
H39 H 0.3763 0.5656 0.3040
H40 H 0.2886 0.5913 0.3644
C38 C 0.1461(8) 0.3704(3) 0.5155(3)
H41 H 0.0952 0.4087 0.5375
H42 H 0.1631 0.3316 0.5450
loop_
_geom_bond_atom_site_label_1
_geom_bond_atom_site_label_2
_geom_bond_site_symmetry_1
_geom_bond_site_symmetry_2
O1 C1 1_555 1_555
O2 C5 1_555 1_555
O3 C6 1_555 1_555
O4 C16 1_555 1_555
O5 C18 1_555 1_555
N1 C1 1_555 1_555
C1 C2 1_555 1_555
C2 H1 1_555 1_555
H2 C2 1_555 1_555
C3 C2 1_555 1_555
C4 C3 1_555 1_555
H3 C4 1_555 1_555
C5 C4 1_555 1_555
C6 C5 1_555 1_555
C7 C6 1_555 1_555
H4 C7 1_555 1_555
C8 C3 1_555 1_555
C9 C8 1_555 1_555
H5 C9 1_555 1_555
C10 N1 1_555 1_555
C11 C10 1_555 1_555
H6 C11 1_555 1_555
H7 C11 1_555 1_555
C12 C11 1_555 1_555
H8 C12 1_555 1_555
H9 C12 1_555 1_555
C13 N1 1_555 1_555
H10 C13 1_555 1_555
H11 C13 1_555 1_555
C14 H12 1_555 1_555
H13 C14 1_555 1_555
C15 C10 1_555 1_555
H14 C15 1_555 1_555
H15 C15 1_555 1_555
C16 C9 1_555 1_555
H16 C16 1_555 1_555
C17 O2 1_555 1_555
H17 C17 1_555 1_555
H18 C17 1_555 1_555
C18 O4 1_555 1_555
C19 C18 1_555 1_555
H19 C19 1_555 1_555
H20 C19 1_555 1_555
H21 C19 1_555 1_555
O6 C20 1_555 1_555
O7 C24 1_555 1_555
O8 C25 1_555 1_555
O9 C34 1_555 1_555
O10 C36 1_555 1_555
N2 C20 1_555 1_555
C20 C21 1_555 1_555
C21 H22 1_555 1_555
H23 C21 1_555 1_555
C22 C21 1_555 1_555
C23 C22 1_555 1_555
H24 C23 1_555 1_555
C24 C23 1_555 1_555
C25 C24 1_555 1_555
C26 C25 1_555 1_555
H25 C26 1_555 1_555
C27 C22 1_555 1_555
C28 C27 1_555 1_555
H26 C28 1_555 1_555
C29 N2 1_555 1_555
C30 C29 1_555 1_555
H27 C30 1_555 1_555
H28 C30 1_555 1_555
C31 C30 1_555 1_555
H29 C31 1_555 1_555
H30 C31 1_555 1_555
C32 N2 1_555 1_555
H31 C32 1_555 1_555
H32 C32 1_555 1_555
C33 H33 1_555 1_555
H34 C33 1_555 1_555
C34 C28 1_555 1_555
H35 C34 1_555 1_555
C35 O7 1_555 1_555
H36 C35 1_555 1_555
H37 C35 1_555 1_555
C36 O9 1_555 1_555
C37 C36 1_555 1_555
H38 C37 1_555 1_555
H39 C37 1_555 1_555
H40 C37 1_555 1_555
C38 C29 1_555 1_555
H41 C38 1_555 1_555
H42 C38 1_555 1_555
O3 C17 1_555 1_555
C7 C8 1_555 1_555
C9 C10 1_555 1_555
C12 C13 1_555 1_555
C14 C15 1_555 1_555
C14 C16 1_555 1_555
O8 C35 1_555 1_555
C26 C27 1_555 1_555
C28 C29 1_555 1_555
C31 C32 1_555 1_555
C33 C34 1_555 1_555
C33 C38 1_555 1_555

#END
