
#######################################################################
#
#                 Cambridge Crystallographic Data Centre
#                                CCDC 
#
#######################################################################
#
# If this CIF has been generated from an entry in the Cambridge 
# Structural Database, then it will include bibliographic, chemical, 
# crystal, experimental, refinement or atomic coordinate data resulting 
# from the CCDC's data processing and validation procedures.
#
#######################################################################

data_BAWSUP
_chemical_formula_moiety         'C18 H17 N3 O1'
_chemical_name_systematic        
6-(bis(6-methylpyridin-2-yl)methyl)pyridin-2(1H)-one
_symmetry_cell_setting           monoclinic
_symmetry_space_group_name_H-M   'P 21/m'
_symmetry_Int_Tables_number      11
_space_group_name_Hall           '-P 2yb'
loop_
_symmetry_equiv_pos_site_id
_symmetry_equiv_pos_as_xyz
1 x,y,z
2 -x,1/2+y,-z
3 -x,-y,-z
4 x,1/2-y,z
_cell_length_a                   7.3863(3)
_cell_length_b                   13.6515(6)
_cell_length_c                   7.9701(3)
_cell_angle_alpha                90
_cell_angle_beta                 105.323(2)
_cell_angle_gamma                90
_cell_volume                     775.089
_exptl_crystal_colour            colorless
_exptl_crystal_description       plate
_cell_formula_units_Z            2
loop_
_atom_site_label
_atom_site_type_symbol
_atom_site_fract_x
_atom_site_fract_y
_atom_site_fract_z
O1 O 0.8732(3) 0.2500 0.2664(3)
N1 N 0.5942(3) 0.2500 0.3356(2)
H1 H 0.652(4) 0.2500 0.441(4)
N2 N 0.54464(18) 0.13927(11) 0.63102(16)
C1 C 0.3152(3) 0.2500 0.4476(3)
H2 H 0.1761 0.2500 0.3964
C2 C 0.4049(3) 0.2500 0.2970(3)
C3 C 0.7009(4) 0.2500 0.2157(3)
C4 C 0.5906(4) 0.2500 0.0383(3)
H3 H 0.6520 0.2500 -0.0525
C5 C 0.4023(4) 0.2500 -0.0022(3)
H4 H 0.3336 0.2500 -0.1212
C6 C 0.3027(3) 0.2500 0.1282(3)
H5 H 0.1693 0.2500 0.0982
C7 C 0.3632(2) 0.15788(13) 0.55914(18)
C8 C 0.5904(2) 0.06050(14) 0.73503(19)
C9 C 0.4538(3) -0.00133(15) 0.7666(2)
H6 H 0.4891 -0.0567 0.8402
C10 C 0.2682(3) 0.01774(15) 0.6914(2)
H7 H 0.1737 -0.0243 0.7117
C11 C 0.2201(2) 0.09898(15) 0.5857(2)
H8 H 0.0922 0.1141 0.5324
C12 C 0.7948(3) 0.04463(16) 0.8175(3)
H9 H 0.8677 0.0684 0.7394
H10 H 0.8187 -0.0254 0.8395
H11 H 0.8320 0.0805 0.9278
N2C N 0.54464(18) 0.36073(11) 0.63102(16)
C7C C 0.3632(2) 0.34212(13) 0.55914(18)
C8C C 0.5904(2) 0.43950(14) 0.73503(19)
C9C C 0.4538(3) 0.50133(15) 0.7666(2)
H6C H 0.4891 0.5567 0.8402
C10C C 0.2682(3) 0.48226(15) 0.6914(2)
H7C H 0.1737 0.5243 0.7117
C11C C 0.2201(2) 0.40102(15) 0.5857(2)
H8C H 0.0922 0.3859 0.5324
C12C C 0.7948(3) 0.45537(16) 0.8175(3)
H9C H 0.8677 0.4316 0.7394
H10C H 0.8187 0.5254 0.8395
H11C H 0.8320 0.4195 0.9278
loop_
_geom_bond_atom_site_label_1
_geom_bond_atom_site_label_2
_geom_bond_site_symmetry_1
_geom_bond_site_symmetry_2
O1 C3 1_555 1_555
N1 H1 1_555 1_555
N2 C7 1_555 1_555
C1 H2 1_555 1_555
C2 N1 1_555 1_555
C3 N1 1_555 1_555
C4 C3 1_555 1_555
H3 C4 1_555 1_555
C5 C4 1_555 1_555
H4 C5 1_555 1_555
C6 C2 1_555 1_555
H5 C6 1_555 1_555
C7 C1 1_555 1_555
C8 N2 1_555 1_555
C9 C8 1_555 1_555
H6 C9 1_555 1_555
C10 C9 1_555 1_555
H7 C10 1_555 1_555
C11 C7 1_555 1_555
H8 C11 1_555 1_555
C12 C8 1_555 1_555
H9 C12 1_555 1_555
H10 C12 1_555 1_555
H11 C12 1_555 1_555
N2C C7C 1_555 1_555
C7C C1 1_555 1_555
C8C N2C 1_555 1_555
C9C C8C 1_555 1_555
H6C C9C 1_555 1_555
C10C C9C 1_555 1_555
H7C C10C 1_555 1_555
C11C C7C 1_555 1_555
H8C C11C 1_555 1_555
C12C C8C 1_555 1_555
H9C C12C 1_555 1_555
H10C C12C 1_555 1_555
H11C C12C 1_555 1_555
C1 C2 1_555 1_555
C5 C6 1_555 1_555
C10 C11 1_555 1_555
C10C C11C 1_555 1_555

#END
