
#######################################################################
#
#                 Cambridge Crystallographic Data Centre
#                                CCDC 
#
#######################################################################
#
# If this CIF has been generated from an entry in the Cambridge 
# Structural Database, then it will include bibliographic, chemical, 
# crystal, experimental, refinement or atomic coordinate data resulting 
# from the CCDC's data processing and validation procedures.
#
#######################################################################

data_BAWTUR
_chemical_name_common            
(3,5-bis(4-fluorophenyl)pyridin-2-yl)(4-fluorophenyl)methanone
_chemical_formula_moiety         'C24 H14 F3 N1 O1'
_chemical_name_systematic        
2-(4-fluorobenzoyl)-3,5-bis(4-fluorophenyl)pyridine
_symmetry_cell_setting           monoclinic
_symmetry_space_group_name_H-M   'P 21/c'
_symmetry_Int_Tables_number      14
_space_group_name_Hall           '-P 2ybc'
loop_
_symmetry_equiv_pos_site_id
_symmetry_equiv_pos_as_xyz
1 x,y,z
2 -x,1/2+y,1/2-z
3 -x,-y,-z
4 x,1/2-y,1/2+z
_cell_length_a                   10.4652(12)
_cell_length_b                   10.8048(11)
_cell_length_c                   17.209(2)
_cell_angle_alpha                90
_cell_angle_beta                 105.635(3)
_cell_angle_gamma                90
_cell_volume                     1873.9
_exptl_crystal_colour            colorless
_exptl_crystal_description       Block
_cell_formula_units_Z            4
loop_
_atom_site_label
_atom_site_type_symbol
_atom_site_fract_x
_atom_site_fract_y
_atom_site_fract_z
C1 C -0.0962(3) 0.8799(3) 0.41861(19)
C2 C -0.0674(3) 0.7945(3) 0.47854(18)
H1 H -0.1345 0.7551 0.4952
C3 C 0.0635(3) 0.7676(2) 0.51391(17)
H2 H 0.0848 0.7097 0.5554
C4 C 0.1647(3) 0.8245(2) 0.48956(16)
C5 C 0.1294(3) 0.9103(2) 0.42764(17)
H3 H 0.1952 0.9497 0.4098
C6 C -0.0023(3) 0.9381(3) 0.39208(18)
H4 H -0.0256 0.9960 0.3506
C7 C 0.4047(3) 0.8827(2) 0.54019(18)
H5 H 0.3810 0.9624 0.5213
C8 C 0.3048(3) 0.7945(2) 0.52900(16)
C9 C 0.3441(3) 0.6769(2) 0.55888(15)
H6 H 0.2806 0.6148 0.5524
C10 C 0.4751(2) 0.6496(2) 0.59810(15)
C11 C 0.5663(2) 0.7464(2) 0.60383(16)
C12 C 0.7138(3) 0.7271(2) 0.63323(18)
C13 C 0.7935(2) 0.7992(2) 0.70171(17)
C14 C 0.7376(3) 0.8813(3) 0.7447(2)
H7 H 0.6463 0.8938 0.7290
C15 C 0.8130(4) 0.9442(3) 0.8094(2)
H8 H 0.7739 0.9997 0.8374
C16 C 0.9443(4) 0.9249(3) 0.8324(2)
C17 C 1.0071(3) 0.8473(3) 0.7926(2)
H9 H 1.0988 0.8376 0.8091
C18 C 0.9297(3) 0.7826(3) 0.7264(2)
H10 H 0.9699 0.7279 0.6986
C19 C 0.5141(2) 0.5247(2) 0.63184(16)
C20 C 0.5982(3) 0.5084(2) 0.70796(17)
H11 H 0.6312 0.5777 0.7389
C21 C 0.6350(3) 0.3923(3) 0.73952(19)
H12 H 0.6923 0.3823 0.7908
C22 C 0.5844(3) 0.2930(2) 0.6928(2)
C23 C 0.4987(3) 0.3029(2) 0.6183(2)
H13 H 0.4648 0.2325 0.5887
C24 C 0.4625(3) 0.4201(2) 0.58719(17)
H14 H 0.4036 0.4288 0.5363
F1 F 1.0203(2) 0.9844(2) 0.89843(14)
F2 F -0.22618(18) 0.90795(18) 0.38425(12)
F3 F 0.6212(2) 0.17761(15) 0.72287(13)
N1 N 0.5322(2) 0.86073(18) 0.57612(14)
O1 O 0.7642(2) 0.6519(2) 0.59777(14)
loop_
_geom_bond_atom_site_label_1
_geom_bond_atom_site_label_2
_geom_bond_site_symmetry_1
_geom_bond_site_symmetry_2
C1 C2 1_555 1_555
C2 H1 1_555 1_555
C3 C2 1_555 1_555
H2 C3 1_555 1_555
C4 C3 1_555 1_555
C5 C4 1_555 1_555
H3 C5 1_555 1_555
C6 C1 1_555 1_555
H4 C6 1_555 1_555
C7 H5 1_555 1_555
C8 C4 1_555 1_555
C9 C8 1_555 1_555
H6 C9 1_555 1_555
C10 C9 1_555 1_555
C11 C10 1_555 1_555
C12 C11 1_555 1_555
C13 C12 1_555 1_555
C14 C13 1_555 1_555
H7 C14 1_555 1_555
C15 C14 1_555 1_555
H8 C15 1_555 1_555
C16 C15 1_555 1_555
C17 C16 1_555 1_555
H9 C17 1_555 1_555
C18 C13 1_555 1_555
H10 C18 1_555 1_555
C19 C10 1_555 1_555
C20 C19 1_555 1_555
H11 C20 1_555 1_555
C21 C20 1_555 1_555
H12 C21 1_555 1_555
C22 C21 1_555 1_555
C23 C22 1_555 1_555
H13 C23 1_555 1_555
C24 C19 1_555 1_555
H14 C24 1_555 1_555
F1 C16 1_555 1_555
F2 C1 1_555 1_555
F3 C22 1_555 1_555
N1 C7 1_555 1_555
O1 C12 1_555 1_555
C5 C6 1_555 1_555
C7 C8 1_555 1_555
C11 N1 1_555 1_555
C17 C18 1_555 1_555
C23 C24 1_555 1_555

#END
