
#######################################################################
#
#                 Cambridge Crystallographic Data Centre
#                                CCDC 
#
#######################################################################
#
# If this CIF has been generated from an entry in the Cambridge 
# Structural Database, then it will include bibliographic, chemical, 
# crystal, experimental, refinement or atomic coordinate data resulting 
# from the CCDC's data processing and validation procedures.
#
#######################################################################

data_BAWTOL
_chemical_formula_moiety         'C15 H11 Cl1 O1'
_chemical_name_systematic        3-(2-chlorophenyl)-2-phenylprop-2-enal
_symmetry_cell_setting           orthorhombic
_symmetry_space_group_name_H-M   'P 21 21 21'
_symmetry_Int_Tables_number      19
_space_group_name_Hall           'P 2ac 2ab'
loop_
_symmetry_equiv_pos_site_id
_symmetry_equiv_pos_as_xyz
1 x,y,z
2 1/2-x,-y,1/2+z
3 -x,1/2+y,1/2-z
4 1/2+x,1/2-y,-z
_cell_length_a                   5.8858(4)
_cell_length_b                   13.5670(10)
_cell_length_c                   15.5282(11)
_cell_angle_alpha                90
_cell_angle_beta                 90
_cell_angle_gamma                90
_cell_volume                     1239.97
_exptl_crystal_colour            colorless
_exptl_crystal_description       Block
_cell_formula_units_Z            4
loop_
_atom_site_label
_atom_site_type_symbol
_atom_site_fract_x
_atom_site_fract_y
_atom_site_fract_z
C1 C -0.1239(5) 0.7315(2) 0.11372(16)
C2 C -0.2815(5) 0.7993(3) 0.08572(18)
H1 H -0.4069 0.7789 0.0540
C3 C -0.2524(5) 0.8976(3) 0.1050(2)
H2 H -0.3580 0.9438 0.0863
C4 C -0.0664(5) 0.9271(2) 0.15206(17)
H3 H -0.0452 0.9936 0.1644
C5 C 0.0880(5) 0.8588(2) 0.18092(16)
H4 H 0.2118 0.8799 0.2132
C6 C 0.0641(5) 0.75865(18) 0.16307(14)
C7 C 0.2288(5) 0.68488(19) 0.19165(16)
H5 H 0.2398 0.6293 0.1569
C8 C 0.3663(5) 0.68534(17) 0.26037(16)
C9 C 0.3729(5) 0.76020(17) 0.33019(14)
C10 C 0.1914(5) 0.7682(2) 0.38718(16)
H6 H 0.0632 0.7291 0.3796
C11 C 0.2006(6) 0.8335(2) 0.45460(18)
H7 H 0.0796 0.8376 0.4930
C12 C 0.3851(7) 0.8922(2) 0.46559(19)
H8 H 0.3898 0.9364 0.5113
C13 C 0.5647(6) 0.8864(2) 0.4094(2)
H9 H 0.6897 0.9275 0.4167
C14 C 0.5215(6) 0.6006(2) 0.2697(2)
H10 H 0.5116 0.5508 0.2287
C15 C 0.5607(5) 0.8195(2) 0.34169(18)
H11 H 0.6838 0.8147 0.3044
Cl1 Cl -0.16830(16) 0.60900(7) 0.08583(5)
O1 O 0.6590(6) 0.5909(2) 0.32569(18)
loop_
_geom_bond_atom_site_label_1
_geom_bond_atom_site_label_2
_geom_bond_site_symmetry_1
_geom_bond_site_symmetry_2
C1 C2 1_555 1_555
C2 H1 1_555 1_555
C3 C2 1_555 1_555
H2 C3 1_555 1_555
C4 C3 1_555 1_555
H3 C4 1_555 1_555
C5 C4 1_555 1_555
H4 C5 1_555 1_555
C6 C1 1_555 1_555
C7 C6 1_555 1_555
H5 C7 1_555 1_555
C8 C7 1_555 1_555
C9 C8 1_555 1_555
C10 C9 1_555 1_555
H6 C10 1_555 1_555
C11 C10 1_555 1_555
H7 C11 1_555 1_555
C12 C11 1_555 1_555
H8 C12 1_555 1_555
C13 C12 1_555 1_555
H9 C13 1_555 1_555
C14 C8 1_555 1_555
H10 C14 1_555 1_555
C15 C9 1_555 1_555
H11 C15 1_555 1_555
Cl1 C1 1_555 1_555
O1 C14 1_555 1_555
C5 C6 1_555 1_555
C13 C15 1_555 1_555

#END
