
#######################################################################
#
#                 Cambridge Crystallographic Data Centre
#                                CCDC 
#
#######################################################################
#
# If this CIF has been generated from an entry in the Cambridge 
# Structural Database, then it will include bibliographic, chemical, 
# crystal, experimental, refinement or atomic coordinate data resulting 
# from the CCDC's data processing and validation procedures.
#
#######################################################################

data_BAWVIH
_chemical_compound_source        'leaves of Xylopia vielana'
_chemical_name_common            'Vielanin A'
_chemical_formula_moiety         'C32 H42 O5'
_chemical_name_systematic        
'5,7,12,14-tetramethyl-3,6,10-trioxo-2-(propan-2-yl)-9-(propan-2-ylidene)-1,2,3,4,5,6,8,9,10,11,12,13-dodecahydro-5bH-5a,13-methanocyclohepta[5,6]benzo[1,2-c]azulen-15-yl acetate'
_symmetry_cell_setting           orthorhombic
_symmetry_space_group_name_H-M   'P 21 21 21'
_symmetry_Int_Tables_number      19
_space_group_name_Hall           'P 2ac 2ab'
loop_
_symmetry_equiv_pos_site_id
_symmetry_equiv_pos_as_xyz
1 x,y,z
2 1/2-x,-y,1/2+z
3 -x,1/2+y,1/2-z
4 1/2+x,1/2-y,-z
_cell_length_a                   9.30510(10)
_cell_length_b                   12.89670(10)
_cell_length_c                   23.17200(10)
_cell_angle_alpha                90
_cell_angle_beta                 90
_cell_angle_gamma                90
_cell_volume                     2780.76
_exptl_crystal_description       block
_chemical_melting_point          '212-214 deg.C'
_cell_formula_units_Z            4
_exptl_crystal_recrystallization_method dichloromethane/methanol
loop_
_atom_site_label
_atom_site_type_symbol
_atom_site_fract_x
_atom_site_fract_y
_atom_site_fract_z
O1 O 1.15043(16) 0.74998(11) 0.41152(6)
O2 O 1.03921(14) 0.75371(11) 0.32599(6)
O3 O 0.58800(16) 0.48876(13) 0.26105(6)
O4 O 0.6539(2) 0.47507(16) 0.57313(7)
C1 C 0.61891(19) 0.52643(15) 0.30752(8)
C2 C 0.73972(19) 0.73033(14) 0.29540(7)
O5 O 0.8365(3) 0.83214(18) 0.14286(11)
C3 C 1.1426(2) 0.78250(15) 0.36301(8)
C4 C 0.51697(19) 0.56240(15) 0.35141(7)
C5 C 0.75092(19) 0.58901(14) 0.39161(7)
C6 C 0.58790(19) 0.59533(13) 0.39826(7)
C7 C 0.7355(2) 0.76820(14) 0.34903(7)
C8 C 0.76938(18) 0.54716(14) 0.32885(7)
H1 H 0.8280 0.4840 0.3282
C9 C 0.84453(19) 0.63811(14) 0.29503(7)
C10 C 0.94666(19) 0.67004(15) 0.34405(7)
H2 H 1.0025 0.6107 0.3581
C11 C 0.6645(2) 0.72066(17) 0.18704(8)
H3 H 0.6653 0.6447 0.1886
C12 C 0.5192(2) 0.63241(15) 0.45339(8)
H4 H 0.4231 0.6577 0.4452
H5 H 0.5747 0.6895 0.4691
C13 C 0.3602(2) 0.56045(19) 0.33795(9)
H6 H 0.3455 0.5807 0.2985
H7 H 0.3106 0.6078 0.3630
H8 H 0.3236 0.4916 0.3437
C14 C 0.9091(2) 0.60492(17) 0.23670(8)
H9 H 0.8375 0.5613 0.2174
C15 C 0.8229(2) 0.52251(16) 0.43944(8)
H10 H 0.9268 0.5307 0.4344
C16 C 0.82729(19) 0.69920(14) 0.38658(7)
H11 H 0.8594 0.7298 0.4231
C17 C 0.5109(2) 0.54542(16) 0.49776(8)
C18 C 0.6477(3) 0.85571(17) 0.37145(9)
H12 H 0.6072 0.8936 0.3397
H13 H 0.7074 0.9010 0.3939
H14 H 0.5717 0.8290 0.3952
C19 C 0.6489(2) 0.52214(18) 0.52750(8)
C20 C 0.8147(3) 0.75601(18) 0.17175(9)
C21 C 0.9400(2) 0.69626(19) 0.19660(9)
H15 H 0.9998 0.7450 0.2176
H16 H 0.9967 0.6704 0.1646
C22 C 0.7886(2) 0.55982(18) 0.50135(8)
H17 H 0.8666 0.5383 0.5264
H18 H 0.7872 0.6350 0.5012
C23 C 0.6365(2) 0.76074(19) 0.24842(8)
H19 H 0.6338 0.8359 0.2468
H20 H 0.5414 0.7377 0.2599
C24 C 0.3896(2) 0.49058(19) 0.50835(8)
C25 C 1.0452(2) 0.5395(2) 0.24367(10)
H21 H 1.1229 0.5829 0.2563
H22 H 1.0696 0.5083 0.2073
H23 H 1.0286 0.4861 0.2718
C26 C 0.7920(3) 0.40645(17) 0.43400(10)
H24 H 0.6900 0.3954 0.4331
H25 H 0.8325 0.3706 0.4664
H26 H 0.8341 0.3806 0.3990
C27 C 0.2462(3) 0.5132(3) 0.48073(11)
H27 H 0.2433 0.5843 0.4685
H28 H 0.1708 0.5008 0.5082
H29 H 0.2331 0.4687 0.4479
C28 C 1.2453(3) 0.8546(2) 0.33478(12)
H30 H 1.2662 0.9111 0.3604
H31 H 1.2036 0.8810 0.2999
H32 H 1.3326 0.8183 0.3258
C29 C 0.5458(3) 0.7531(2) 0.14465(9)
H33 H 0.5456 0.8290 0.1421
C30 C 0.3838(3) 0.3974(2) 0.54737(12)
H34 H 0.4748 0.3624 0.5467
H35 H 0.3100 0.3510 0.5342
H36 H 0.3626 0.4193 0.5861
C31 C 0.3985(3) 0.7184(3) 0.16565(14)
H37 H 0.4022 0.6463 0.1760
H38 H 0.3292 0.7282 0.1355
H39 H 0.3713 0.7586 0.1987
C32 C 0.5765(5) 0.7099(4) 0.08484(12)
H40 H 0.6686 0.7340 0.0719
H41 H 0.5035 0.7328 0.0585
H42 H 0.5768 0.6355 0.0864
loop_
_geom_bond_atom_site_label_1
_geom_bond_atom_site_label_2
_geom_bond_site_symmetry_1
_geom_bond_site_symmetry_2
O1 C3 1_555 1_555
O2 C3 1_555 1_555
O3 C1 1_555 1_555
O4 C19 1_555 1_555
C1 C4 1_555 1_555
C2 C7 1_555 1_555
O5 C20 1_555 1_555
C3 C28 1_555 1_555
C4 C6 1_555 1_555
C5 C6 1_555 1_555
C6 C12 1_555 1_555
C7 C16 1_555 1_555
C8 C1 1_555 1_555
H1 C8 1_555 1_555
C9 C2 1_555 1_555
C10 O2 1_555 1_555
H2 C10 1_555 1_555
C11 H3 1_555 1_555
C12 H4 1_555 1_555
H5 C12 1_555 1_555
C13 C4 1_555 1_555
H6 C13 1_555 1_555
H7 C13 1_555 1_555
H8 C13 1_555 1_555
C14 C9 1_555 1_555
H9 C14 1_555 1_555
C15 C5 1_555 1_555
H10 C15 1_555 1_555
C16 C5 1_555 1_555
H11 C16 1_555 1_555
C17 C12 1_555 1_555
C18 C7 1_555 1_555
H12 C18 1_555 1_555
H13 C18 1_555 1_555
H14 C18 1_555 1_555
C19 C17 1_555 1_555
C20 C11 1_555 1_555
C21 C14 1_555 1_555
H15 C21 1_555 1_555
H16 C21 1_555 1_555
C22 C15 1_555 1_555
H17 C22 1_555 1_555
H18 C22 1_555 1_555
C23 C2 1_555 1_555
H19 C23 1_555 1_555
H20 C23 1_555 1_555
C24 C17 1_555 1_555
C25 C14 1_555 1_555
H21 C25 1_555 1_555
H22 C25 1_555 1_555
H23 C25 1_555 1_555
C26 C15 1_555 1_555
H24 C26 1_555 1_555
H25 C26 1_555 1_555
H26 C26 1_555 1_555
C27 C24 1_555 1_555
H27 C27 1_555 1_555
H28 C27 1_555 1_555
H29 C27 1_555 1_555
C28 H30 1_555 1_555
H31 C28 1_555 1_555
H32 C28 1_555 1_555
C29 C11 1_555 1_555
H33 C29 1_555 1_555
C30 C24 1_555 1_555
H34 C30 1_555 1_555
H35 C30 1_555 1_555
H36 C30 1_555 1_555
C31 C29 1_555 1_555
H37 C31 1_555 1_555
H38 C31 1_555 1_555
H39 C31 1_555 1_555
C32 C29 1_555 1_555
H40 C32 1_555 1_555
H41 C32 1_555 1_555
H42 C32 1_555 1_555
C5 C8 1_555 1_555
C8 C9 1_555 1_555
C9 C10 1_555 1_555
C10 C16 1_555 1_555
C11 C23 1_555 1_555
C19 C22 1_555 1_555
C20 C21 1_555 1_555

#END
