
#######################################################################
#
#                 Cambridge Crystallographic Data Centre
#                                CCDC 
#
#######################################################################
#
# If this CIF has been generated from an entry in the Cambridge 
# Structural Database, then it will include bibliographic, chemical, 
# crystal, experimental, refinement or atomic coordinate data resulting 
# from the CCDC's data processing and validation procedures.
#
#######################################################################

data_BAWXUV
_chemical_formula_moiety         'C25 H24 O2'
_chemical_name_systematic        
2a',8b'-dimethyl-2a',2b',3',4',8b',9',10',10a'-octahydro-2'H,3H-spiro[1-benzofuran-2,1'-cyclobuta[a]phenanthren]-3-one
_symmetry_cell_setting           triclinic
_symmetry_space_group_name_H-M   'P -1'
_symmetry_Int_Tables_number      2
_space_group_name_Hall           '-P 1'
loop_
_symmetry_equiv_pos_site_id
_symmetry_equiv_pos_as_xyz
1 x,y,z
2 -x,-y,-z
_cell_length_a                   7.611(2)
_cell_length_b                   11.490(3)
_cell_length_c                   11.506(3)
_cell_angle_alpha                105.352(9)
_cell_angle_beta                 94.190(9)
_cell_angle_gamma                109.278(8)
_cell_volume                     901.548
_exptl_crystal_colour            colorless
_exptl_crystal_description       prism
_chemical_melting_point          '174-177 deg.C'
_cell_formula_units_Z            2
loop_
_atom_site_label
_atom_site_type_symbol
_atom_site_fract_x
_atom_site_fract_y
_atom_site_fract_z
C1 C 0.4179(2) 0.15005(16) 0.23518(16)
C2 C 0.4292(2) 0.01498(17) 0.18803(16)
C3 C 0.5473(2) 0.00413(16) 0.28737(16)
C4 C 0.6084(3) -0.09480(17) 0.29970(17)
H1 H 0.575039 -0.173335 0.234637
C5 C 0.7185(3) -0.07534(18) 0.40905(17)
H2 H 0.761629 -0.141275 0.419493
C6 C 0.7673(2) 0.04068(17) 0.50467(17)
H3 H 0.843287 0.051837 0.578970
C7 C 0.7079(2) 0.13946(17) 0.49388(16)
H4 H 0.741720 0.218266 0.558670
C8 C 0.5963(2) 0.11767(16) 0.38364(16)
C9 C 0.4805(2) 0.24308(17) 0.15636(17)
H5 H 0.535606 0.208729 0.085778
H6 H 0.564031 0.332279 0.204710
C10 C 0.2688(2) 0.22813(16) 0.12091(16)
C11 C 0.2108(2) 0.34786(16) 0.13703(16)
C12 C 0.3522(2) 0.45625(17) 0.10263(17)
H7 H 0.388252 0.419976 0.023981
H8 H 0.467733 0.498356 0.166189
C13 C 0.2669(3) 0.55671(17) 0.09063(17)
H9 H 0.371286 0.640452 0.103986
H10 H 0.198133 0.529438 0.005780
C14 C 0.1329(2) 0.57778(16) 0.17790(16)
C15 C 0.0624(3) 0.67533(17) 0.17813(17)
H11 H 0.107329 0.729509 0.128739
C16 C -0.0710(3) 0.69562(18) 0.24806(17)
H12 H -0.118009 0.762240 0.246240
C17 C -0.1351(2) 0.61739(17) 0.32080(17)
H13 H -0.227721 0.629631 0.368749
C18 C -0.0647(2) 0.52151(17) 0.32390(17)
H14 H -0.108160 0.469476 0.375332
C19 C 0.0696(2) 0.49954(16) 0.25267(16)
C20 C 0.1571(2) 0.39906(16) 0.26269(15)
C21 C 0.0173(2) 0.28038(17) 0.29055(17)
H15 H -0.029236 0.309425 0.367077
H16 H -0.092678 0.233969 0.222978
C22 C 0.1211(2) 0.19157(17) 0.30393(17)
H17 H 0.108795 0.153876 0.368521
C23 C 0.2296(2) 0.16798(16) 0.22297(16)
C24 C 0.1865(3) 0.13591(17) -0.00931(16)
H18 H 0.223819 0.060334 -0.020564
H19 H 0.234659 0.180820 -0.068406
H20 H 0.048236 0.107547 -0.022303
C25 C 0.3278(2) 0.46983(18) 0.36836(17)
H21 H 0.409359 0.549588 0.355105
H22 H 0.399711 0.413547 0.371099
H23 H 0.282976 0.491367 0.446066
O1 O 0.52306(17) 0.20411(11) 0.35964(11)
O2 O 0.35209(18) -0.06394(12) 0.08848(11)
H24 H 0.092(3) 0.3163(17) 0.0749(17)
loop_
_geom_bond_atom_site_label_1
_geom_bond_atom_site_label_2
_geom_bond_site_symmetry_1
_geom_bond_site_symmetry_2
C1 C2 1_555 1_555
C2 C3 1_555 1_555
C3 C4 1_555 1_555
C4 H1 1_555 1_555
C5 C4 1_555 1_555
H2 C5 1_555 1_555
C6 C5 1_555 1_555
H3 C6 1_555 1_555
C7 C6 1_555 1_555
H4 C7 1_555 1_555
C8 C3 1_555 1_555
C9 C1 1_555 1_555
H5 C9 1_555 1_555
H6 C9 1_555 1_555
C10 C9 1_555 1_555
C11 C10 1_555 1_555
C12 C11 1_555 1_555
H7 C12 1_555 1_555
H8 C12 1_555 1_555
C13 C12 1_555 1_555
H9 C13 1_555 1_555
H10 C13 1_555 1_555
C14 C13 1_555 1_555
C15 C14 1_555 1_555
H11 C15 1_555 1_555
C16 C15 1_555 1_555
H12 C16 1_555 1_555
C17 C16 1_555 1_555
H13 C17 1_555 1_555
C18 C17 1_555 1_555
H14 C18 1_555 1_555
C19 C14 1_555 1_555
C20 C11 1_555 1_555
C21 C20 1_555 1_555
H15 C21 1_555 1_555
H16 C21 1_555 1_555
C22 C21 1_555 1_555
H17 C22 1_555 1_555
C23 C1 1_555 1_555
C24 C10 1_555 1_555
H18 C24 1_555 1_555
H19 C24 1_555 1_555
H20 C24 1_555 1_555
C25 C20 1_555 1_555
H21 C25 1_555 1_555
H22 C25 1_555 1_555
H23 C25 1_555 1_555
O1 C1 1_555 1_555
O2 C2 1_555 1_555
H24 C11 1_555 1_555
C7 C8 1_555 1_555
C8 O1 1_555 1_555
C10 C23 1_555 1_555
C18 C19 1_555 1_555
C19 C20 1_555 1_555
C22 C23 1_555 1_555

#END
