
#######################################################################
#
#                 Cambridge Crystallographic Data Centre
#                                CCDC 
#
#######################################################################
#
# If this CIF has been generated from an entry in the Cambridge 
# Structural Database, then it will include bibliographic, chemical, 
# crystal, experimental, refinement or atomic coordinate data resulting 
# from the CCDC's data processing and validation procedures.
#
#######################################################################

data_BAXHIU
_chemical_formula_moiety         'C24 H26 N2 O7 S2'
_chemical_name_systematic        
'diethyl (2S*,5S*)-2-(4-cyanophenyl)-5-hydroxy-3-((4-methylphenyl)sulfonyl)-1,3-thiazinane-4,4-dicarboxylate'
_symmetry_cell_setting           triclinic
_symmetry_space_group_name_H-M   'P -1'
_symmetry_Int_Tables_number      2
_space_group_name_Hall           '-P 1'
loop_
_symmetry_equiv_pos_site_id
_symmetry_equiv_pos_as_xyz
1 x,y,z
2 -x,-y,-z
_cell_length_a                   7.9869(9)
_cell_length_b                   9.5322(12)
_cell_length_c                   16.242(2)
_cell_angle_alpha                79.589(4)
_cell_angle_beta                 83.633(4)
_cell_angle_gamma                86.893(4)
_cell_volume                     1207.95
_exptl_crystal_colour            colorless
_exptl_crystal_description       rectangular
_chemical_melting_point          '136 deg.C'
_cell_formula_units_Z            2
loop_
_atom_site_label
_atom_site_type_symbol
_atom_site_fract_x
_atom_site_fract_y
_atom_site_fract_z
S1 S 0.20699(5) 0.23401(4) 0.33471(2)
S2 S 0.21995(6) 0.41841(5) 0.08744(3)
O1 O 0.16004(16) 0.31025(13) 0.40232(7)
O2 O 0.18394(15) 0.61876(12) 0.37400(7)
O3 O -0.05526(14) 0.45663(12) 0.26939(8)
O4 O 0.02203(14) 0.67909(12) 0.21222(7)
O5 O 0.08808(15) 0.14764(13) 0.30928(9)
O6 O 0.44454(15) 0.52435(14) 0.34839(8)
O7 O 0.36247(17) 0.74021(13) 0.18679(9)
H1 H 0.3831 0.7458 0.2344
N1 N 0.27920(15) 0.35541(13) 0.25284(7)
C1 C 0.3871(2) 0.12496(16) 0.35569(10)
C2 C 0.49312(18) 0.25429(15) 0.15196(9)
C3 C 0.24115(18) 0.50855(15) 0.25239(9)
C4 C 0.8153(2) 0.13854(17) 0.12024(11)
C5 C 0.6852(2) 0.10483(19) 0.07748(11)
H2 H 0.7059 0.0440 0.0384
C6 C 0.7857(2) 0.23127(18) 0.17755(11)
H3 H 0.8733 0.2546 0.2053
C7 C 0.4087(2) -0.00342(17) 0.32654(11)
H4 H 0.3261 -0.0345 0.2986
C8 C 0.6800(2) -0.04026(18) 0.38108(11)
C9 C 0.3578(2) 0.59506(17) 0.17928(10)
H5 H 0.4723 0.5549 0.1852
C10 C 0.05121(19) 0.54236(15) 0.24652(9)
C11 C 0.6244(2) 0.28876(17) 0.19305(10)
H6 H 0.6041 0.3510 0.2313
C12 C 0.5087(2) 0.17139(19) 0.39816(12)
H7 H 0.4926 0.2570 0.4183
C13 C 0.31027(18) 0.30114(16) 0.17269(9)
H8 H 0.2467 0.2136 0.1817
C14 C -0.1536(2) 0.7198(2) 0.19930(12)
H9 H -0.1747 0.8194 0.2038
H10 H -0.2276 0.6630 0.2426
C15 C 0.5256(2) 0.16264(18) 0.09368(10)
H11 H 0.4384 0.1403 0.0654
N2 N 1.1106(2) 0.0175(2) 0.10059(14)
C16 C 0.30206(19) 0.54949(16) 0.33200(10)
C17 C 0.2309(3) 0.6618(2) 0.45050(11)
H12 H 0.1526 0.7366 0.4656
H13 H 0.3426 0.7006 0.4390
C18 C 0.8405(3) -0.1273(2) 0.39478(14)
H14 H 0.9107 -0.0794 0.4244
H15 H 0.8143 -0.2194 0.4273
H16 H 0.8990 -0.1387 0.3414
C19 C 0.6541(3) 0.0886(2) 0.41003(12)
H17 H 0.7366 0.1197 0.4380
C20 C 0.5557(2) -0.08474(18) 0.33974(12)
H18 H 0.5710 -0.1711 0.3204
C21 C 0.2303(3) 0.5405(2) 0.52301(12)
H19 H 0.2616 0.5736 0.5714
H20 H 0.1194 0.5029 0.5354
H21 H 0.3093 0.4669 0.5088
C22 C 0.9811(2) 0.0723(2) 0.10797(13)
C23 C 0.3199(3) 0.5818(2) 0.09117(11)
H22 H 0.4246 0.5870 0.0544
H23 H 0.2473 0.6619 0.0699
C24 C -0.1906(3) 0.6972(3) 0.11477(14)
H24 H -0.3062 0.7244 0.1072
H25 H -0.1183 0.7544 0.0720
H26 H -0.1711 0.5984 0.1106
loop_
_geom_bond_atom_site_label_1
_geom_bond_atom_site_label_2
_geom_bond_site_symmetry_1
_geom_bond_site_symmetry_2
S1 O1 1_555 1_555
S2 C13 1_555 1_555
O2 C16 1_555 1_555
O3 C10 1_555 1_555
O4 C10 1_555 1_555
O5 S1 1_555 1_555
O6 C16 1_555 1_555
O7 H1 1_555 1_555
N1 S1 1_555 1_555
C1 S1 1_555 1_555
C2 C11 1_555 1_555
C3 N1 1_555 1_555
C4 C5 1_555 1_555
C5 H2 1_555 1_555
C6 C4 1_555 1_555
H3 C6 1_555 1_555
C7 C1 1_555 1_555
H4 C7 1_555 1_555
C8 C18 1_555 1_555
C9 O7 1_555 1_555
H5 C9 1_555 1_555
C10 C3 1_555 1_555
C11 C6 1_555 1_555
H6 C11 1_555 1_555
C12 C1 1_555 1_555
H7 C12 1_555 1_555
C13 N1 1_555 1_555
H8 C13 1_555 1_555
C14 O4 1_555 1_555
H9 C14 1_555 1_555
H10 C14 1_555 1_555
C15 C2 1_555 1_555
H11 C15 1_555 1_555
N2 C22 1_555 1_555
C16 C3 1_555 1_555
C17 O2 1_555 1_555
H12 C17 1_555 1_555
H13 C17 1_555 1_555
C18 H14 1_555 1_555
H15 C18 1_555 1_555
H16 C18 1_555 1_555
C19 C8 1_555 1_555
H17 C19 1_555 1_555
C20 C7 1_555 1_555
H18 C20 1_555 1_555
C21 C17 1_555 1_555
H19 C21 1_555 1_555
H20 C21 1_555 1_555
H21 C21 1_555 1_555
C22 C4 1_555 1_555
C23 S2 1_555 1_555
H22 C23 1_555 1_555
H23 C23 1_555 1_555
C24 C14 1_555 1_555
H24 C24 1_555 1_555
H25 C24 1_555 1_555
H26 C24 1_555 1_555
C2 C13 1_555 1_555
C3 C9 1_555 1_555
C5 C15 1_555 1_555
C8 C20 1_555 1_555
C9 C23 1_555 1_555
C12 C19 1_555 1_555

#END
