
#######################################################################
#
#                 Cambridge Crystallographic Data Centre
#                                CCDC 
#
#######################################################################
#
# If this CIF has been generated from an entry in the Cambridge 
# Structural Database, then it will include bibliographic, chemical, 
# crystal, experimental, refinement or atomic coordinate data resulting 
# from the CCDC's data processing and validation procedures.
#
#######################################################################

data_BAXNAP
_chemical_formula_moiety         'C8 H16 O6,H2 O1'
_chemical_name_systematic        
'Methyl 7-deoxy-D-glycero-\b-D-galacto-heptopyranoside monohydrate'
_symmetry_cell_setting           monoclinic
_symmetry_space_group_name_H-M   'C 2'
_symmetry_Int_Tables_number      5
_space_group_name_Hall           'C 2y'
loop_
_symmetry_equiv_pos_site_id
_symmetry_equiv_pos_as_xyz
1 x,y,z
2 1/2+x,1/2+y,z
3 -x,y,-z
4 1/2-x,1/2+y,-z
_cell_length_a                   15.63(1)
_cell_length_b                   4.711(4)
_cell_length_c                   16.24(3)
_cell_angle_alpha                90
_cell_angle_beta                 109.09(12)
_cell_angle_gamma                90
_cell_volume                     1130.04
_cell_formula_units_Z            4
loop_
_atom_site_label
_atom_site_type_symbol
_atom_site_fract_x
_atom_site_fract_y
_atom_site_fract_z
C1 C 0.73370 0.87130 0.29550
C2 C 0.73370 0.81660 0.20400
C3 C 0.65450 0.96940 0.14020
C4 C 0.56570 0.87520 0.15260
C5 C 0.57310 0.91700 0.24760
C6 C 0.49420 0.80040 0.27150
C7 C 0.50000 0.86070 0.36370
C8 C 0.82490 0.79380 0.44130
O1 O 0.80400 0.71920 0.35350
O2 O 0.81640 0.91180 0.19310
O3 O 0.65330 0.94140 0.05290
O4 O 0.55210 0.58260 0.12810
O5 O 0.65160 0.77360 0.30500
O6 O 0.41270 0.91730 0.21140
H1 H 0.73900 1.07300 0.31000
H2 H 0.72300 0.61200 0.19300
H3 H 0.66800 1.15900 0.15500
H4 H 0.51700 0.97900 0.11400
H5 H 0.57800 1.10500 0.25800
H6 H 0.49400 0.59000 0.26300
H7 H 0.56000 0.80400 0.40800
H8 H 0.44500 0.81000 0.37400
H9 H 0.50400 1.07600 0.37400
H10 H 0.88700 0.76100 0.47500
H11 H 0.76300 0.77700 0.45600
H12 H 0.82000 0.96400 0.44800
H13 H 0.85300 0.81100 0.21400
H14 H 0.64500 0.79600 0.03600
H15 H 0.49600 0.56400 0.09800
H16 H 0.37400 0.82400 0.19800
O7 O 0.36840 0.44020 0.03620
H17 H 0.33700 0.43500 0.07300
H18 H 0.35900 0.28800 0.00700
loop_
_geom_bond_atom_site_label_1
_geom_bond_atom_site_label_2
_geom_bond_site_symmetry_1
_geom_bond_site_symmetry_2
C1 C2 1_555 1_555
C2 C3 1_555 1_555
C3 C4 1_555 1_555
C4 C5 1_555 1_555
C5 C6 1_555 1_555
C6 C7 1_555 1_555
C7 H7 1_555 1_555
C8 O1 1_555 1_555
O1 C1 1_555 1_555
O2 C2 1_555 1_555
O3 C3 1_555 1_555
O4 C4 1_555 1_555
O5 C1 1_555 1_555
O6 C6 1_555 1_555
O7 H17 1_555 1_555
H1 C1 1_555 1_555
H2 C2 1_555 1_555
H3 C3 1_555 1_555
H4 C4 1_555 1_555
H5 C5 1_555 1_555
H6 C6 1_555 1_555
H8 C7 1_555 1_555
H9 C7 1_555 1_555
H10 C8 1_555 1_555
H11 C8 1_555 1_555
H12 C8 1_555 1_555
H13 O2 1_555 1_555
H14 O3 1_555 1_555
H15 O4 1_555 1_555
H16 O6 1_555 1_555
H18 O7 1_555 1_555
C5 O5 1_555 1_555

#END
