
#######################################################################
#
#                 Cambridge Crystallographic Data Centre
#                                CCDC 
#
#######################################################################
#
# If this CIF has been generated from an entry in the Cambridge 
# Structural Database, then it will include bibliographic, chemical, 
# crystal, experimental, refinement or atomic coordinate data resulting 
# from the CCDC's data processing and validation procedures.
#
#######################################################################

data_BAXPUM
_chemical_formula_moiety         'C16 H21 O1 P1'
_chemical_name_systematic        
(1R,2R,3aR,4R,6aR)-3a,6a-Dimethyl-2-phenylhexahydro-1,4-methanocyclopenta(c)phosphol-1(2H)-ol
_symmetry_cell_setting           orthorhombic
_symmetry_space_group_name_H-M   'P 21 21 21'
_symmetry_Int_Tables_number      19
_space_group_name_Hall           'P 2ac 2ab'
loop_
_symmetry_equiv_pos_site_id
_symmetry_equiv_pos_as_xyz
1 x,y,z
2 1/2-x,-y,1/2+z
3 -x,1/2+y,1/2-z
4 1/2+x,1/2-y,-z
_cell_length_a                   6.7590(10)
_cell_length_b                   9.998(2)
_cell_length_c                   21.043(4)
_cell_angle_alpha                90
_cell_angle_beta                 90
_cell_angle_gamma                90
_cell_volume                     1422.01
_exptl_crystal_colour            colorless
_exptl_crystal_description       prism
_cell_formula_units_Z            4
_exptl_crystal_recrystallization_method methanol
loop_
_atom_site_label
_atom_site_type_symbol
_atom_site_fract_x
_atom_site_fract_y
_atom_site_fract_z
C1 C 0.5611(5) 0.1967(3) 0.1910(2)
H1 H 0.5235(5) 0.1090(3) 0.1754(2)
H2 H 0.4443(5) 0.2407(3) 0.2077(2)
C2 C 0.6538(6) 0.2810(3) 0.1370(2)
C3 C 0.8806(6) 0.2785(3) 0.1430(2)
C4 C 0.8841(5) 0.3228(3) 0.2139(2)
C5 C 0.7497(6) 0.4472(3) 0.21323(15)
H3 H 0.6591(6) 0.4468(3) 0.24900(15)
H4 H 0.8271(6) 0.5289(3) 0.21425(15)
C6 C 0.6378(7) 0.4332(4) 0.1500(2)
H5 H 0.5125(53) 0.4740(30) 0.1480(15)
C7 C 0.7753(7) 0.4921(3) 0.0993(2)
H6 H 0.7127(7) 0.4928(3) 0.0579(2)
H7 H 0.8160(7) 0.5822(3) 0.1103(2)
C8 C 0.9494(6) 0.3955(4) 0.1011(2)
H8 H 1.0652(6) 0.4382(4) 0.1192(2)
H9 H 0.9816(6) 0.3646(4) 0.0586(2)
C9 C 0.6571(6) 0.2571(3) 0.3263(2)
C10 C 0.4643(6) 0.2895(3) 0.3391(2)
H10 H 0.3689(6) 0.2769(3) 0.3078(2)
C11 C 0.4078(7) 0.3408(4) 0.3977(2)
H11 H 0.2759(7) 0.3621(4) 0.4054(2)
C12 C 0.5476(8) 0.3602(4) 0.4445(2)
H12 H 0.5106(8) 0.3941(4) 0.4839(2)
C13 C 0.7411(9) 0.3290(4) 0.4326(2)
H13 H 0.8364(9) 0.3430(4) 0.4638(2)
C14 C 0.7954(6) 0.2770(4) 0.3746(2)
H14 H 0.9271(6) 0.2547(4) 0.3674(2)
C15 C 0.5694(6) 0.2383(4) 0.0725(2)
H15 H 0.4276(6) 0.2433(4) 0.0737(2)
H16 H 0.6091(6) 0.1481(4) 0.0634(2)
H17 H 0.6186(6) 0.2967(4) 0.0399(2)
C16 C 0.9865(5) 0.1480(3) 0.1288(2)
H18 H 0.9371(5) 0.0793(3) 0.1564(2)
H19 H 1.1259(5) 0.1592(3) 0.1357(2)
H20 H 0.9634(5) 0.1231(3) 0.0854(2)
O1 O 1.0751(4) 0.3433(2) 0.24083(13)
H21 H 1.1084(27) 0.4214(11) 0.2357(18)
P1 P 0.7531(2) 0.18143(8) 0.25356(4)
loop_
_geom_bond_atom_site_label_1
_geom_bond_atom_site_label_2
_geom_bond_site_symmetry_1
_geom_bond_site_symmetry_2
C1 H1 1_555 1_555
H2 C1 1_555 1_555
C2 C1 1_555 1_555
C3 C2 1_555 1_555
C4 C3 1_555 1_555
C5 C4 1_555 1_555
H3 C5 1_555 1_555
H4 C5 1_555 1_555
C6 C2 1_555 1_555
H5 C6 1_555 1_555
C7 C6 1_555 1_555
H6 C7 1_555 1_555
H7 C7 1_555 1_555
C8 C3 1_555 1_555
H8 C8 1_555 1_555
H9 C8 1_555 1_555
C9 C10 1_555 1_555
C10 H10 1_555 1_555
C11 C10 1_555 1_555
H11 C11 1_555 1_555
C12 C11 1_555 1_555
H12 C12 1_555 1_555
C13 C12 1_555 1_555
H13 C13 1_555 1_555
C14 C9 1_555 1_555
H14 C14 1_555 1_555
C15 C2 1_555 1_555
H15 C15 1_555 1_555
H16 C15 1_555 1_555
H17 C15 1_555 1_555
C16 C3 1_555 1_555
H18 C16 1_555 1_555
H19 C16 1_555 1_555
H20 C16 1_555 1_555
O1 C4 1_555 1_555
H21 O1 1_555 1_555
P1 C1 1_555 1_555
C4 P1 1_555 1_555
C5 C6 1_555 1_555
C7 C8 1_555 1_555
C9 P1 1_555 1_555
C13 C14 1_555 1_555

#END
