
#######################################################################
#
#                 Cambridge Crystallographic Data Centre
#                                CCDC 
#
#######################################################################
#
# If this CIF has been generated from an entry in the Cambridge 
# Structural Database, then it will include bibliographic, chemical, 
# crystal, experimental, refinement or atomic coordinate data resulting 
# from the CCDC's data processing and validation procedures.
#
#######################################################################

data_BAXROK
_chemical_formula_moiety         'C14 H14 O3'
_chemical_name_systematic        
4-methoxy-12-methylene-10-oxatricyclo[7.3.1.0^2,7^]trideca-2,4,6-trien-11-one
_symmetry_cell_setting           triclinic
_symmetry_space_group_name_H-M   'P 1'
_symmetry_Int_Tables_number      1
_space_group_name_Hall           'P 1'
loop_
_symmetry_equiv_pos_site_id
_symmetry_equiv_pos_as_xyz
1 x,y,z
_cell_length_a                   6.2274(10)
_cell_length_b                   6.3472(10)
_cell_length_c                   8.0648(12)
_cell_angle_alpha                103.123(3)
_cell_angle_beta                 104.039(2)
_cell_angle_gamma                106.797(3)
_cell_volume                     280.496
_cell_formula_units_Z            1
loop_
_atom_site_label
_atom_site_type_symbol
_atom_site_fract_x
_atom_site_fract_y
_atom_site_fract_z
O1 O 0.3381(3) 0.8421(3) 0.6288(2)
O2 O 1.3899(3) 1.0769(3) 1.2461(2)
O3 O 1.2470(2) 0.6962(3) 1.1529(2)
C1 C 0.7057(4) 0.4944(4) 0.6440(3)
H1 H 0.7553 0.4040 0.5608
C2 C 0.5594(4) 0.6061(4) 0.5821(3)
H2 H 0.5093 0.5922 0.4578
C3 C 0.4851(4) 0.7392(4) 0.7018(3)
C4 C 0.5595(3) 0.7592(4) 0.8836(3)
H3 H 0.5106 0.8516 0.9661
C5 C 0.7064(3) 0.6433(3) 0.9452(3)
C6 C 0.7854(3) 0.6732(4) 1.1455(3)
H4 H 0.6517 0.6765 1.1929
C7 C 0.8687(4) 0.4808(4) 1.1849(3)
H5 H 0.9376 0.5154 1.3166
H6 H 0.7333 0.3304 1.1359
C8 C 1.0552(4) 0.4689(4) 1.0953(3)
H7 H 1.1247 0.3553 1.1303
C9 C 0.9466(4) 0.3889(4) 0.8919(3)
H8 H 1.0758 0.4171 0.8389
H9 H 0.8558 0.2195 0.8484
C10 C 0.7837(3) 0.5104(3) 0.8264(3)
C11 C 1.2234(3) 0.9009(4) 1.2157(3)
C12 C 0.9946(3) 0.8981(4) 1.2434(3)
C13 C 0.9877(4) 1.0841(4) 1.3528(3)
H10 H 1.1281 1.2184 1.4132
H11 H 0.8424 1.0834 1.3709
C14 C 0.2594(4) 0.9790(5) 0.7476(3)
H12 H 0.1718 0.8826 0.8063
H13 H 0.1551 1.0417 0.6791
H14 H 0.3970 1.1073 0.8394
loop_
_geom_bond_atom_site_label_1
_geom_bond_atom_site_label_2
_geom_bond_site_symmetry_1
_geom_bond_site_symmetry_2
O1 C3 1_555 1_555
O2 C11 1_555 1_555
O3 C8 1_555 1_555
C1 H1 1_555 1_555
C2 C1 1_555 1_555
H2 C2 1_555 1_555
C3 C2 1_555 1_555
C4 C3 1_555 1_555
H3 C4 1_555 1_555
C5 C4 1_555 1_555
C6 C5 1_555 1_555
H4 C6 1_555 1_555
C7 C6 1_555 1_555
H5 C7 1_555 1_555
H6 C7 1_555 1_555
C8 C7 1_555 1_555
H7 C8 1_555 1_555
C9 C8 1_555 1_555
H8 C9 1_555 1_555
H9 C9 1_555 1_555
C10 C1 1_555 1_555
C11 O3 1_555 1_555
C12 C6 1_555 1_555
C13 C12 1_555 1_555
H10 C13 1_555 1_555
H11 C13 1_555 1_555
C14 O1 1_555 1_555
H12 C14 1_555 1_555
H13 C14 1_555 1_555
H14 C14 1_555 1_555
C5 C10 1_555 1_555
C9 C10 1_555 1_555
C11 C12 1_555 1_555

#END
