
#######################################################################
#
#                 Cambridge Crystallographic Data Centre
#                                CCDC 
#
#######################################################################
#
# If this CIF has been generated from an entry in the Cambridge 
# Structural Database, then it will include bibliographic, chemical, 
# crystal, experimental, refinement or atomic coordinate data resulting 
# from the CCDC's data processing and validation procedures.
#
#######################################################################

data_BAXSOL
_chemical_formula_moiety         'C9 H8 Cl1 N4 1+,H1 O4 S1 1-,H2 O1'
_chemical_name_systematic        
'4-{[(4-chlorophenyl)methylidene]amino}-4H-1,2,4-triazol-1-ium hydrogen sulfate monohydrate'
_symmetry_cell_setting           triclinic
_symmetry_space_group_name_H-M   'P -1'
_symmetry_Int_Tables_number      2
_space_group_name_Hall           '-P 1'
loop_
_symmetry_equiv_pos_site_id
_symmetry_equiv_pos_as_xyz
1 x,y,z
2 -x,-y,-z
_cell_length_a                   6.9000(14)
_cell_length_b                   9.831(2)
_cell_length_c                   10.739(2)
_cell_angle_alpha                96.01(3)
_cell_angle_beta                 106.05(3)
_cell_angle_gamma                102.06(3)
_cell_volume                     674.314
_cell_formula_units_Z            2
loop_
_atom_site_label
_atom_site_type_symbol
_atom_site_fract_x
_atom_site_fract_y
_atom_site_fract_z
Cl1 Cl 0.9537(3) 1.26781(19) 1.51597(13)
N1 N 0.5840(7) 0.7529(4) 0.5853(4)
C1 C 0.6272(8) 0.7579(5) 0.7115(5)
H1 H 0.6303 0.6819 0.7562
C2 C 0.6470(9) 0.9690(5) 0.6633(4)
H2 H 0.6685 1.0667 0.6734
N2 N 0.5946(7) 0.8842(4) 0.5515(4)
C3 C 0.7436(8) 1.0608(5) 0.9436(4)
H3 H 0.7296 1.1247 0.8857
N3 N 0.6660(6) 0.8928(3) 0.7642(3)
N4 N 0.7169(6) 0.9315(4) 0.9006(3)
C4 C 0.7968(7) 1.1096(4) 1.0858(4)
C5 C 0.8355(9) 1.2520(5) 1.1317(5)
H4 H 0.8293 1.3148 1.0725
C6 C 0.8834(9) 1.3027(6) 1.2645(5)
H5 H 0.9099 1.3987 1.2956
C7 C 0.8905(8) 1.2080(6) 1.3486(5)
C8 C 0.8494(9) 1.0651(6) 1.3068(5)
H6 H 0.8537 1.0029 1.3665
C9 C 0.8012(8) 1.0156(5) 1.1727(5)
H7 H 0.7719 0.9192 1.1418
S1 S 0.3709(2) 0.60567(11) 0.23876(10)
O1 O 0.5483(6) 0.7115(3) 0.2137(4)
O2 O 0.2974(6) 0.4876(3) 0.1333(3)
O3 O 0.2238(6) 0.6882(4) 0.2423(3)
O4 O 0.4508(6) 0.5603(3) 0.3625(3)
H8 H 0.5783 0.5927 0.4071
O5 O 0.8015(6) 0.6065(5) 0.1287(4)
H9 H 0.7995 0.6095 0.2077
H10 H 0.8780 0.6847 0.1245
loop_
_geom_bond_atom_site_label_1
_geom_bond_atom_site_label_2
_geom_bond_site_symmetry_1
_geom_bond_site_symmetry_2
Cl1 C7 1_555 1_555
N1 C1 1_555 1_555
C1 H1 1_555 1_555
C2 H2 1_555 1_555
N2 N1 1_555 1_555
C3 H3 1_555 1_555
N3 C1 1_555 1_555
N4 C3 1_555 1_555
C4 C3 1_555 1_555
C5 C4 1_555 1_555
H4 C5 1_555 1_555
C6 C5 1_555 1_555
H5 C6 1_555 1_555
C7 C6 1_555 1_555
C8 C7 1_555 1_555
H6 C8 1_555 1_555
C9 C4 1_555 1_555
H7 C9 1_555 1_555
S1 O1 1_555 1_555
O2 S1 1_555 1_555
O3 S1 1_555 1_555
O4 S1 1_555 1_555
H8 O4 1_555 1_555
O5 H9 1_555 1_555
H10 O5 1_555 1_555
C2 N2 1_555 1_555
C2 N3 1_555 1_555
N3 N4 1_555 1_555
C8 C9 1_555 1_555

#END
