
#######################################################################
#
#                 Cambridge Crystallographic Data Centre
#                                CCDC 
#
#######################################################################
#
# If this CIF has been generated from an entry in the Cambridge 
# Structural Database, then it will include bibliographic, chemical, 
# crystal, experimental, refinement or atomic coordinate data resulting 
# from the CCDC's data processing and validation procedures.
#
#######################################################################

data_BAXSEB
_chemical_formula_moiety         'C10 H11 N4 O2 1+,N1 O3 1-'
_chemical_name_systematic        
'4-((3-hydroxy-4-methoxybenzylidene)amino)-4H-1,2,4-triazol-1-ium nitrate'
_symmetry_cell_setting           monoclinic
_symmetry_space_group_name_H-M   'P 21/c'
_symmetry_Int_Tables_number      14
_space_group_name_Hall           '-P 2ybc'
loop_
_symmetry_equiv_pos_site_id
_symmetry_equiv_pos_as_xyz
1 x,y,z
2 -x,1/2+y,1/2-z
3 -x,-y,-z
4 x,1/2-y,1/2+z
_cell_length_a                   8.8062(18)
_cell_length_b                   17.518(4)
_cell_length_c                   8.1176(16)
_cell_angle_alpha                90
_cell_angle_beta                 103.15(3)
_cell_angle_gamma                90
_cell_volume                     1219.44
_exptl_crystal_colour            orange
_exptl_crystal_description       prism
_cell_formula_units_Z            4
loop_
_atom_site_label
_atom_site_type_symbol
_atom_site_fract_x
_atom_site_fract_y
_atom_site_fract_z
N1 N 0.2996(3) 0.11529(14) 1.0365(3)
O1 O 0.0747(3) 0.53130(11) 0.8009(3)
N2 N 0.2343(3) 0.18475(14) 0.9691(3)
N3 N 0.3208(3) -0.00426(16) 1.0627(4)
C1 C 0.0603(4) 0.39862(17) 0.7879(4)
O2 O -0.0604(3) 0.41020(12) 0.6527(3)
H1 H -0.0972 0.3689 0.6160
C2 C 0.1102(4) 0.32772(18) 0.8447(4)
H2 H 0.0599 0.2847 0.7914
C3 C 0.1335(4) 0.46425(17) 0.8702(4)
C4 C 0.3095(4) 0.38421(18) 1.0649(4)
H3 H 0.3927 0.3792 1.1580
C5 C 0.2954(4) 0.24432(18) 1.0437(4)
H4 H 0.3780 0.2401 1.1378
C6 C 0.2372(4) 0.31944(17) 0.9834(4)
C7 C 0.4284(4) 0.09772(18) 1.1616(4)
H5 H 0.4951 0.1335 1.2250
N4 N 0.4437(3) 0.02464(15) 1.1790(4)
C8 C 0.2353(4) 0.04965(18) 0.9777(4)
H6 H 0.1461 0.0432 0.8921
C9 C 0.1475(5) 0.60058(18) 0.8740(5)
H7 H 0.0953 0.6436 0.8127
H8 H 0.2551 0.6007 0.8679
H9 H 0.1407 0.6038 0.9901
C10 C 0.2574(4) 0.45633(18) 1.0072(4)
H10 H 0.3065 0.4995 1.0613
H11 H 0.318(4) -0.060(2) 1.057(4)
O3 O 0.6204(3) 0.15616(14) 0.9216(4)
N5 N 0.6885(4) 0.21805(16) 0.9368(4)
O4 O 0.6198(4) 0.27642(16) 0.8843(5)
O5 O 0.8303(4) 0.22062(15) 1.0042(4)
loop_
_geom_bond_atom_site_label_1
_geom_bond_atom_site_label_2
_geom_bond_site_symmetry_1
_geom_bond_site_symmetry_2
N1 N2 1_555 1_555
O1 C3 1_555 1_555
N2 C5 1_555 1_555
N3 N4 1_555 1_555
C1 O2 1_555 1_555
O2 H1 1_555 1_555
C2 C1 1_555 1_555
H2 C2 1_555 1_555
C3 C1 1_555 1_555
C4 H3 1_555 1_555
C5 H4 1_555 1_555
C6 C2 1_555 1_555
C7 N1 1_555 1_555
H5 C7 1_555 1_555
N4 C7 1_555 1_555
C8 N1 1_555 1_555
H6 C8 1_555 1_555
C9 O1 1_555 1_555
H7 C9 1_555 1_555
H8 C9 1_555 1_555
H9 C9 1_555 1_555
C10 C3 1_555 1_555
H10 C10 1_555 1_555
H11 N3 1_555 1_555
O3 N5 1_555 1_555
N5 O4 1_555 1_555
O5 N5 1_555 1_555
N3 C8 1_555 1_555
C4 C6 1_555 1_555
C4 C10 1_555 1_555
C5 C6 1_555 1_555

#END
