
#######################################################################
#
#                 Cambridge Crystallographic Data Centre
#                                CCDC 
#
#######################################################################
#
# If this CIF has been generated from an entry in the Cambridge 
# Structural Database, then it will include bibliographic, chemical, 
# crystal, experimental, refinement or atomic coordinate data resulting 
# from the CCDC's data processing and validation procedures.
#
#######################################################################

data_BAXSIF
_chemical_formula_moiety         'C10 H11 N4 O2 1+,C10 H10 N4 O2,Cl1 O4 1-'
_chemical_name_systematic        
'4-((3-hydroxy-4-methoxybenzylidene)amino)-4H-1,2,4-triazol-1-ium perchlorate 2-methoxy-5-((4H-1,2,4-triazol-4-ylimino)methyl)phenol'
_symmetry_cell_setting           triclinic
_symmetry_space_group_name_H-M   'P -1'
_symmetry_Int_Tables_number      2
_space_group_name_Hall           '-P 1'
loop_
_symmetry_equiv_pos_site_id
_symmetry_equiv_pos_as_xyz
1 x,y,z
2 -x,-y,-z
_cell_length_a                   8.0110(16)
_cell_length_b                   11.071(2)
_cell_length_c                   13.968(3)
_cell_angle_alpha                100.75(3)
_cell_angle_beta                 91.99(3)
_cell_angle_gamma                108.46(3)
_cell_volume                     1148.59
_exptl_crystal_colour            colorless
_exptl_crystal_description       block
_cell_formula_units_Z            2
loop_
_atom_site_label
_atom_site_type_symbol
_atom_site_fract_x
_atom_site_fract_y
_atom_site_fract_z
Cl1 Cl 0.36226(11) 0.97527(7) 0.78284(6)
O1 O 0.1779(3) 0.9083(3) 0.7668(2)
O2 O 0.4499(3) 0.8989(3) 0.72303(18)
O3 O 0.4216(4) 0.9920(3) 0.88362(18)
O4 O 0.4043(4) 1.0997(3) 0.7576(2)
O5 O -0.1486(3) 0.6599(2) 0.54836(16)
H1 H -0.2050 0.5829 0.5266
O6 O -0.1424(3) 0.5004(2) 0.38253(17)
N1 N 0.6113(3) 1.4100(2) 0.54439(19)
N2 N 0.5322(4) 1.4203(2) 0.63009(19)
N3 N 0.4160(3) 1.2225(2) 0.55140(17)
N4 N 0.2999(3) 1.0941(2) 0.53523(19)
C1 C 0.5385(4) 1.2902(3) 0.4983(2)
H2 H 0.5659 1.2552 0.4374
C2 C 0.4167(4) 1.3076(3) 0.6330(2)
H3 H 0.3465 1.2896 0.6836
C3 C 0.3032(4) 1.0185(3) 0.4560(2)
H4 H 0.3799 1.0489 0.4108
C4 C 0.1868(4) 0.8835(3) 0.4355(2)
C5 C 0.0742(4) 0.8338(3) 0.5034(2)
H5 H 0.0731 0.8875 0.5629
C6 C -0.0348(4) 0.7064(3) 0.4828(2)
C7 C -0.0305(4) 0.6246(3) 0.3937(2)
C8 C 0.0797(5) 0.6742(3) 0.3263(2)
H6 H 0.0808 0.6209 0.2665
C9 C 0.1882(4) 0.8029(3) 0.3472(2)
H7 H 0.2626 0.8354 0.3017
C10 C -0.1315(5) 0.4071(3) 0.2996(3)
H8 H -0.2170 0.3239 0.3004
H9 H -0.1554 0.4343 0.2407
H10 H -0.0150 0.4003 0.3019
O7 O -0.3077(3) 0.5932(2) 0.16112(15)
H11 H -0.3734 0.5139 0.1478
O8 O -0.3156(3) 0.4358(2) -0.00814(16)
N5 N 0.4575(4) 1.3402(2) 0.1592(2)
N6 N 0.3748(4) 1.3504(2) 0.24351(19)
H12 H 0.3974 1.4198 0.2883
N7 N 0.2586(3) 1.1532(2) 0.16346(18)
N8 N 0.1458(3) 1.0245(2) 0.14877(19)
C11 C 0.3850(4) 1.2208(3) 0.1130(2)
H13 H 0.4153 1.1858 0.0529
C12 C 0.2566(4) 1.2384(3) 0.2448(2)
H14 H 0.1831 1.2206 0.2941
C13 C 0.1380(4) 0.9525(3) 0.0653(2)
H15 H 0.2077 0.9849 0.0180
C14 C 0.0180(4) 0.8181(3) 0.0447(2)
C15 C -0.0942(4) 0.7685(3) 0.1133(2)
H16 H -0.0956 0.8224 0.1726
C16 C -0.2012(4) 0.6414(3) 0.0932(2)
C17 C -0.2014(4) 0.5597(3) 0.0029(2)
C18 C -0.0914(4) 0.6087(3) -0.0644(2)
H17 H -0.0912 0.5551 -0.1242
C19 C 0.0191(4) 0.7372(3) -0.0436(2)
H18 H 0.0940 0.7692 -0.0891
C20 C -0.3250(5) 0.3467(3) -0.0982(2)
H19 H -0.4096 0.2635 -0.0966
H20 H -0.3607 0.3792 -0.1517
H21 H -0.2109 0.3375 -0.1066
loop_
_geom_bond_atom_site_label_1
_geom_bond_atom_site_label_2
_geom_bond_site_symmetry_1
_geom_bond_site_symmetry_2
Cl1 O1 1_555 1_555
O2 Cl1 1_555 1_555
O3 Cl1 1_555 1_555
O4 Cl1 1_555 1_555
O5 H1 1_555 1_555
O6 C7 1_555 1_555
N1 N2 1_555 1_555
N2 C2 1_555 1_555
N3 N4 1_555 1_555
N4 C3 1_555 1_555
C1 N1 1_555 1_555
H2 C1 1_555 1_555
C2 N3 1_555 1_555
H3 C2 1_555 1_555
C3 H4 1_555 1_555
C4 C3 1_555 1_555
C5 C4 1_555 1_555
H5 C5 1_555 1_555
C6 O5 1_555 1_555
C7 C6 1_555 1_555
C8 C7 1_555 1_555
H6 C8 1_555 1_555
C9 C4 1_555 1_555
H7 C9 1_555 1_555
C10 O6 1_555 1_555
H8 C10 1_555 1_555
H9 C10 1_555 1_555
H10 C10 1_555 1_555
O7 H11 1_555 1_555
O8 C17 1_555 1_555
N5 N6 1_555 1_555
N6 H12 1_555 1_555
N7 N8 1_555 1_555
N8 C13 1_555 1_555
C11 N5 1_555 1_555
H13 C11 1_555 1_555
C12 N6 1_555 1_555
H14 C12 1_555 1_555
C13 H15 1_555 1_555
C14 C13 1_555 1_555
C15 C14 1_555 1_555
H16 C15 1_555 1_555
C16 O7 1_555 1_555
C17 C16 1_555 1_555
C18 C17 1_555 1_555
H17 C18 1_555 1_555
C19 C14 1_555 1_555
H18 C19 1_555 1_555
C20 O8 1_555 1_555
H19 C20 1_555 1_555
H20 C20 1_555 1_555
H21 C20 1_555 1_555
N3 C1 1_555 1_555
C5 C6 1_555 1_555
C8 C9 1_555 1_555
N7 C11 1_555 1_555
N7 C12 1_555 1_555
C15 C16 1_555 1_555
C18 C19 1_555 1_555

#END
