
#######################################################################
#
#                 Cambridge Crystallographic Data Centre
#                                CCDC 
#
#######################################################################
#
# If this CIF has been generated from an entry in the Cambridge 
# Structural Database, then it will include bibliographic, chemical, 
# crystal, experimental, refinement or atomic coordinate data resulting 
# from the CCDC's data processing and validation procedures.
#
#######################################################################

data_BAXSUR
_chemical_formula_moiety         'C10 H11 N4 1+,H1 O4 S1 1-,H2 O1'
_chemical_name_systematic        
'4-{[(4-methylphenyl)methylidene]amino}-4H-1,2,4-triazol-1-ium hydrogen sulfate monohydrate'
_symmetry_cell_setting           triclinic
_symmetry_space_group_name_H-M   'P -1'
_symmetry_Int_Tables_number      2
_space_group_name_Hall           '-P 1'
loop_
_symmetry_equiv_pos_site_id
_symmetry_equiv_pos_as_xyz
1 x,y,z
2 -x,-y,-z
_cell_length_a                   6.8670(14)
_cell_length_b                   9.843(2)
_cell_length_c                   10.687(2)
_cell_angle_alpha                96.32(3)
_cell_angle_beta                 105.85(3)
_cell_angle_gamma                99.25(3)
_cell_volume                     676.775
_cell_formula_units_Z            2
loop_
_atom_site_label
_atom_site_type_symbol
_atom_site_fract_x
_atom_site_fract_y
_atom_site_fract_z
S1 S 0.62753(16) 0.88874(10) 0.75696(9)
O1 O 0.6933(5) 1.0020(3) 0.8666(3)
O2 O 0.7809(5) 0.8051(3) 0.7539(3)
O3 O 0.4474(5) 0.7840(3) 0.7760(3)
O4 O 0.5517(5) 0.9391(3) 0.6340(3)
N1 N 0.4394(6) 0.7538(3) 0.4049(3)
H1 H 0.4702 0.8306 0.4594
C1 C 0.3878(6) 0.7469(4) 0.2789(4)
H2 H 0.3781 0.8213 0.2324
N2 N 0.4398(6) 0.6257(4) 0.4421(3)
C2 C 0.3848(7) 0.5407(4) 0.3311(4)
H3 H 0.3705 0.4443 0.3234
C3 C 0.2584(6) 0.4414(4) 0.0500(4)
H4 H 0.2734 0.3803 0.1108
N3 N 0.3508(5) 0.6116(3) 0.2276(3)
N4 N 0.2907(6) 0.5700(3) 0.0898(3)
C4 C 0.1979(6) 0.3866(4) -0.0903(4)
C5 C 0.1585(7) 0.2436(4) -0.1317(4)
H5 H 0.1715 0.1837 -0.0698
C6 C 0.1004(8) 0.1898(5) -0.2641(5)
H6 H 0.0746 0.0937 -0.2902
C7 C 0.0799(7) 0.2752(5) -0.3580(4)
C8 C 0.1199(7) 0.4182(5) -0.3155(4)
H7 H 0.1077 0.4776 -0.3778
C9 C 0.1767(7) 0.4745(5) -0.1845(4)
H8 H 0.2010 0.5706 -0.1589
C10 C 0.0120(9) 0.2162(6) -0.5034(5)
H9 H -0.0090 0.1163 -0.5145
H10 H 0.1168 0.2514 -0.5420
H11 H -0.1147 0.2434 -0.5459
O5 O 0.1984(5) 0.8837(4) 0.8712(3)
H12 H 0.1220 0.8063 0.8702
H13 H 0.1700 0.9597 0.9003
loop_
_geom_bond_atom_site_label_1
_geom_bond_atom_site_label_2
_geom_bond_site_symmetry_1
_geom_bond_site_symmetry_2
S1 O1 1_555 1_555
O2 S1 1_555 1_555
O3 S1 1_555 1_555
O4 S1 1_555 1_555
N1 H1 1_555 1_555
C1 N1 1_555 1_555
H2 C1 1_555 1_555
N2 N1 1_555 1_555
C2 N2 1_555 1_555
H3 C2 1_555 1_555
C3 H4 1_555 1_555
N3 C1 1_555 1_555
N4 C3 1_555 1_555
C4 C3 1_555 1_555
C5 C4 1_555 1_555
H5 C5 1_555 1_555
C6 C5 1_555 1_555
H6 C6 1_555 1_555
C7 C6 1_555 1_555
C8 C7 1_555 1_555
H7 C8 1_555 1_555
C9 C4 1_555 1_555
H8 C9 1_555 1_555
C10 C7 1_555 1_555
H9 C10 1_555 1_555
H10 C10 1_555 1_555
H11 C10 1_555 1_555
O5 H12 1_555 1_555
H13 O5 1_555 1_555
C2 N3 1_555 1_555
N3 N4 1_555 1_555
C8 C9 1_555 1_555

#END
