
#######################################################################
#
#                 Cambridge Crystallographic Data Centre
#                                CCDC 
#
#######################################################################
#
# If this CIF has been generated from an entry in the Cambridge 
# Structural Database, then it will include bibliographic, chemical, 
# crystal, experimental, refinement or atomic coordinate data resulting 
# from the CCDC's data processing and validation procedures.
#
#######################################################################

data_BAXTUQ
_chemical_formula_moiety         'C14 H15 Cl1 O4'
_chemical_name_systematic        
'(+)-(3R,3aR,6R,7S,7aS,8S)-6-Chloro-2,3,3a,6,7,7a-hexahydro-8-methyl-2-oxo-3,6-methano-1-benzofuran-7-yl crotonate'
_symmetry_cell_setting           monoclinic
_symmetry_space_group_name_H-M   'P 21'
_symmetry_Int_Tables_number      4
_space_group_name_Hall           'P 2yb'
loop_
_symmetry_equiv_pos_site_id
_symmetry_equiv_pos_as_xyz
1 x,y,z
2 -x,1/2+y,-z
_cell_length_a                   8.7451(2)
_cell_length_b                   7.72190(10)
_cell_length_c                   10.5382(2)
_cell_angle_alpha                90
_cell_angle_beta                 107.0087(9)
_cell_angle_gamma                90
_cell_volume                     680.505
_exptl_crystal_colour            colorless
_exptl_crystal_description       prism
_chemical_melting_point          '104 deg.C'
_cell_formula_units_Z            2
loop_
_atom_site_label
_atom_site_type_symbol
_atom_site_fract_x
_atom_site_fract_y
_atom_site_fract_z
Cl1 Cl 0.37201(5) 0.01868(8) 0.54930(4)
O1 O 0.40163(13) -0.19737(15) 0.79181(11)
O2 O 0.66284(15) -0.19246(16) 0.98369(12)
O3 O 0.85157(19) -0.35404(19) 0.93591(17)
O4 O 0.14773(17) -0.1143(2) 0.7607(2)
C1 C 0.52595(18) 0.0371(2) 0.70507(14)
C2 C 0.45927(18) -0.02339(19) 0.81765(16)
C3 C 0.59778(19) -0.0208(2) 0.94952(15)
C4 C 0.7796(2) -0.2194(2) 0.92379(18)
C5 C 0.79413(19) -0.0602(2) 0.84630(17)
C6 C 0.7389(2) 0.0809(2) 0.92714(16)
C7 C 0.6859(2) 0.2437(2) 0.85030(19)
C8 C 0.5766(2) 0.2225(2) 0.73448(18)
C9 C 0.67205(19) -0.0748(2) 0.70405(16)
C10 C 0.7462(2) -0.0239(3) 0.59576(18)
C11 C 0.24215(19) -0.2251(2) 0.75883(17)
C12 C 0.2091(2) -0.4094(2) 0.72291(16)
C13 C 0.0646(2) -0.4750(3) 0.6950(2)
C14 C 0.0255(3) -0.6592(3) 0.6621(3)
H1 H 0.37035(18) 0.05465(19) 0.82356(16)
H2 H 0.55314(19) 0.0294(2) 1.01867(15)
H3 H 0.90166(19) -0.0374(2) 0.83440(17)
H4 H 0.8218(2) 0.1225(2) 1.00853(16)
H5 H 0.7298(2) 0.3599(2) 0.88429(19)
H6 H 0.5324(2) 0.3192(2) 0.67135(18)
H7 H 0.63589(19) -0.1970(2) 0.68268(16)
H8 H 0.8390(2) -0.1019(3) 0.60030(18)
H9 H 0.7844(2) 0.0986(3) 0.61047(18)
H10 H 0.6658(2) -0.0343(3) 0.50643(18)
H11 H 0.2992(2) -0.4873(2) 0.71962(16)
H12 H -0.0246(2) -0.3938(3) 0.6947(2)
H13 H 0.1263(3) -0.7231(3) 0.6663(3)
H14 H -0.0238(3) -0.7093(3) 0.7284(3)
H15 H -0.0510(3) -0.6703(3) 0.5710(3)
loop_
_geom_bond_atom_site_label_1
_geom_bond_atom_site_label_2
_geom_bond_site_symmetry_1
_geom_bond_site_symmetry_2
Cl1 C1 1_555 1_555
O1 C2 1_555 1_555
O2 C3 1_555 1_555
O3 C4 1_555 1_555
O4 C11 1_555 1_555
C1 C2 1_555 1_555
C2 C3 1_555 1_555
C3 C6 1_555 1_555
C4 O2 1_555 1_555
C5 C4 1_555 1_555
C6 C5 1_555 1_555
C7 C6 1_555 1_555
C8 C1 1_555 1_555
C9 C1 1_555 1_555
C10 C9 1_555 1_555
C11 O1 1_555 1_555
C12 C11 1_555 1_555
C13 C12 1_555 1_555
C14 C13 1_555 1_555
H1 C2 1_555 1_555
H2 C3 1_555 1_555
H3 C5 1_555 1_555
H4 C6 1_555 1_555
H5 C7 1_555 1_555
H6 C8 1_555 1_555
H7 C9 1_555 1_555
H8 C10 1_555 1_555
H9 C10 1_555 1_555
H10 C10 1_555 1_555
H11 C12 1_555 1_555
H12 C13 1_555 1_555
H13 C14 1_555 1_555
H14 C14 1_555 1_555
H15 C14 1_555 1_555
C5 C9 1_555 1_555
C7 C8 1_555 1_555

#END
