
#######################################################################
#
#                 Cambridge Crystallographic Data Centre
#                                CCDC 
#
#######################################################################
#
# If this CIF has been generated from an entry in the Cambridge 
# Structural Database, then it will include bibliographic, chemical, 
# crystal, experimental, refinement or atomic coordinate data resulting 
# from the CCDC's data processing and validation procedures.
#
#######################################################################

data_BAXTAY
_chemical_formula_moiety         '2(C10 H11 N4 O2 1+),O4 S1 2-,H2 O1'
_chemical_name_systematic        
'bis(4-{[(3-hydroxy-4-methoxyphenyl)methylidene]amino}-4H-1,2,4-triazol-1-ium) sulfate monohydrate'
_symmetry_cell_setting           orthorhombic
_symmetry_space_group_name_H-M   'P b c n'
_symmetry_Int_Tables_number      60
_space_group_name_Hall           '-P 2n 2ab'
loop_
_symmetry_equiv_pos_site_id
_symmetry_equiv_pos_as_xyz
1 x,y,z
2 1/2-x,1/2-y,1/2+z
3 -x,y,1/2-z
4 1/2+x,1/2-y,-z
5 -x,-y,-z
6 1/2+x,1/2+y,1/2-z
7 x,-y,1/2+z
8 1/2-x,1/2+y,z
_cell_length_a                   7.0119(14)
_cell_length_b                   20.686(4)
_cell_length_c                   16.829(3)
_cell_angle_alpha                90
_cell_angle_beta                 90
_cell_angle_gamma                90
_cell_volume                     2441.02
_cell_formula_units_Z            4
loop_
_atom_site_label
_atom_site_type_symbol
_atom_site_fract_x
_atom_site_fract_y
_atom_site_fract_z
N1 N 0.1707(5) 0.83859(16) 0.90961(19)
N2 N 0.2041(5) 0.87919(16) 0.84350(19)
O1 O 0.2688(5) 0.98779(14) 0.49277(16)
C1 C 0.3042(6) 0.8536(2) 0.6361(2)
H1 H 0.3282 0.8094 0.6381
O2 O 0.2050(6) 1.05041(14) 0.62269(18)
H2 H 0.1950 1.0670 0.6667
C2 C 0.2733(6) 0.9513(2) 0.5598(2)
C3 C 0.2642(6) 0.88675(19) 0.7052(2)
C4 C 0.2471(6) 0.8507(2) 0.7794(2)
H3 H 0.2679 0.8063 0.7795
C5 C 0.2321(6) 0.9540(2) 0.7024(2)
H4 H 0.2075 0.9767 0.7489
C6 C 0.1650(7) 0.8612(2) 0.9834(2)
H5 H 0.1951 0.9030 0.9994
C7 C 0.2974(8) 0.9551(2) 0.4181(3)
H6 H 0.4155 0.9316 0.4197
H7 H 0.3017 0.9863 0.3760
H8 H 0.1941 0.9256 0.4090
C8 C 0.3091(6) 0.8857(2) 0.5632(2)
H9 H 0.3366 0.8629 0.5170
N3 N 0.0720(6) 0.75956(17) 0.9868(2)
C9 C 0.2369(6) 0.98586(19) 0.6310(2)
C10 C 0.1112(7) 0.7753(2) 0.9137(3)
H10 H 0.1005 0.7477 0.8703
N4 N 0.1096(6) 0.81418(17) 1.0290(2)
H11 H 0.0980 0.8172 1.0797
S1 S 0.0000 0.16332(7) 0.7500
O3 O 0.0003(6) 0.20292(15) 0.82063(18)
O4 O 0.1689(6) 0.12018(18) 0.7508(2)
O3B O -0.0003(6) 0.20292(15) 0.67937(18)
O4B O -0.1689(6) 0.12018(18) 0.7492(2)
O5 O 1.0000 0.7026(3) 0.7500
H12 H 0.91(2) 0.676(6) 0.747(9)
H12B H 1.09(2) 0.676(6) 0.753(9)
loop_
_geom_bond_atom_site_label_1
_geom_bond_atom_site_label_2
_geom_bond_site_symmetry_1
_geom_bond_site_symmetry_2
N1 N2 1_555 1_555
N2 C4 1_555 1_555
O1 C2 1_555 1_555
C1 H1 1_555 1_555
O2 H2 1_555 1_555
C2 C8 1_555 1_555
C3 C1 1_555 1_555
C4 C3 1_555 1_555
H3 C4 1_555 1_555
C5 C3 1_555 1_555
H4 C5 1_555 1_555
C6 N1 1_555 1_555
H5 C6 1_555 1_555
C7 O1 1_555 1_555
H6 C7 1_555 1_555
H7 C7 1_555 1_555
H8 C7 1_555 1_555
C8 C1 1_555 1_555
H9 C8 1_555 1_555
N3 C10 1_555 1_555
C9 O2 1_555 1_555
C10 N1 1_555 1_555
H10 C10 1_555 1_555
N4 C6 1_555 1_555
H11 N4 1_555 1_555
S1 O3 1_555 1_555
O4 S1 1_555 1_555
O5 H12 1_555 1_555
O3B S1 1_555 1_555
O4B S1 1_555 1_555
H12B O5 1_555 1_555
C2 C9 1_555 1_555
C5 C9 1_555 1_555
N3 N4 1_555 1_555

#END
