
#######################################################################
#
#                 Cambridge Crystallographic Data Centre
#                                CCDC 
#
#######################################################################
#
# If this CIF has been generated from an entry in the Cambridge 
# Structural Database, then it will include bibliographic, chemical, 
# crystal, experimental, refinement or atomic coordinate data resulting 
# from the CCDC's data processing and validation procedures.
#
#######################################################################

data_BAYBUA
_chemical_name_common            
1-Phenyl-4,5,6,7-tetrahydro-1H-benzo[d][1,2,3]triazole
_chemical_formula_moiety         'C12 H13 N3'
_chemical_name_systematic        1-Phenyl-4,5,6,7-tetrahydro-1H-benzotriazole
_symmetry_cell_setting           orthorhombic
_symmetry_space_group_name_H-M   'P c a 21'
_symmetry_Int_Tables_number      29
_space_group_name_Hall           'P 2c -2ac'
loop_
_symmetry_equiv_pos_site_id
_symmetry_equiv_pos_as_xyz
1 x,y,z
2 -x,-y,1/2+z
3 1/2+x,-y,z
4 1/2-x,y,1/2+z
_cell_length_a                   8.7281(11)
_cell_length_b                   20.741(3)
_cell_length_c                   11.3820(14)
_cell_angle_alpha                90
_cell_angle_beta                 90
_cell_angle_gamma                90
_cell_volume                     2060.48
_exptl_crystal_colour            colorless
_exptl_crystal_description       block
_cell_formula_units_Z            8
loop_
_atom_site_label
_atom_site_type_symbol
_atom_site_fract_x
_atom_site_fract_y
_atom_site_fract_z
N1 N 0.6072(2) 0.15345(8) 0.66745(16)
N2 N 0.6941(2) 0.14226(9) 0.57030(17)
N3 N 0.7434(2) 0.19861(9) 0.53341(18)
C1 C 0.6018(2) 0.21741(9) 0.69246(19)
C2 C 0.6888(2) 0.24544(10) 0.6067(2)
C3 C 0.7119(2) 0.31679(10) 0.5952(2)
H1 H 0.6529 0.3334 0.5273
H2 H 0.8217 0.3264 0.5820
C4 C 0.6565(3) 0.34947(11) 0.7096(2)
H3 H 0.7348 0.3433 0.7715
H4 H 0.6458 0.3964 0.6958
C5 C 0.5041(3) 0.32280(11) 0.7528(2)
H5 H 0.4266 0.3271 0.6898
H6 H 0.4689 0.3484 0.8211
C6 C 0.5173(2) 0.25163(10) 0.7884(2)
H7 H 0.5737 0.2476 0.8635
H8 H 0.4141 0.2326 0.7987
C7 C 0.5329(2) 0.10120(9) 0.7263(2)
C8 C 0.4570(3) 0.05459(10) 0.6606(2)
H9 H 0.4560 0.0570 0.5772
C9 C 0.3830(3) 0.00471(10) 0.7175(2)
H10 H 0.3317 -0.0275 0.6731
C10 C 0.3833(3) 0.00139(11) 0.8385(2)
H11 H 0.3313 -0.0328 0.8773
C11 C 0.4596(3) 0.04817(10) 0.9038(2)
H12 H 0.4593 0.0459 0.9872
C12 C 0.5363(3) 0.09816(10) 0.8480(2)
H13 H 0.5901 0.1297 0.8923
N4 N 0.40792(19) 0.34433(8) 0.20365(16)
N5 N 0.3584(2) 0.35514(8) 0.09255(16)
N6 N 0.3298(2) 0.29882(8) 0.04510(16)
C13 C 0.4109(2) 0.27995(9) 0.22727(19)
C14 C 0.3606(2) 0.25207(10) 0.12634(18)
C15 C 0.3465(3) 0.18073(10) 0.1082(2)
H14 H 0.4257 0.1658 0.0523
H15 H 0.2446 0.1704 0.0749
C16 C 0.3670(4) 0.14625(13) 0.2284(3)
H16 H 0.2700 0.1492 0.2731
H17 H 0.3885 0.1000 0.2143
C17 C 0.4966(3) 0.17488(13) 0.3024(3)
H18 H 0.5938 0.1724 0.2577
H19 H 0.5089 0.1491 0.3750
C18 C 0.4641(3) 0.24575(10) 0.33531(19)
H20 H 0.3843 0.2479 0.3970
H21 H 0.5584 0.2663 0.3659
C19 C 0.4512(2) 0.39757(9) 0.2764(2)
C20 C 0.5391(2) 0.44690(10) 0.2272(2)
H22 H 0.5680 0.4455 0.1468
C21 C 0.5834(3) 0.49797(10) 0.2980(2)
H23 H 0.6434 0.5318 0.2658
C22 C 0.5410(3) 0.50017(11) 0.4156(2)
H24 H 0.5725 0.5351 0.4639
C23 C 0.4518(3) 0.45063(10) 0.4619(2)
H25 H 0.4216 0.4520 0.5420
C24 C 0.4066(3) 0.39926(10) 0.3921(2)
H26 H 0.3455 0.3656 0.4239
C25? C 0.4363(12) 0.1462(5) 0.2017(8)
C26? C 0.4041(13) 0.1735(4) 0.3211(9)
H27? H 0.3861 0.1690 0.0296
H28? H 0.2374 0.1679 0.1124
H29? H 0.4094 0.0999 0.2008
H30? H 0.5471 0.1501 0.1845
H31? H 0.4537 0.1460 0.3811
H32? H 0.2922 0.1725 0.3354
H33? H 0.4294 0.2697 0.4057
H34? H 0.5775 0.2449 0.3362
loop_
_geom_bond_atom_site_label_1
_geom_bond_atom_site_label_2
_geom_bond_site_symmetry_1
_geom_bond_site_symmetry_2
N1 N2 1_555 1_555
N2 N3 1_555 1_555
N3 C2 1_555 1_555
N4 N5 1_555 1_555
N5 N6 1_555 1_555
N6 C14 1_555 1_555
C1 N1 1_555 1_555
C2 C1 1_555 1_555
C3 C2 1_555 1_555
H1 C3 1_555 1_555
H2 C3 1_555 1_555
C4 C3 1_555 1_555
H3 C4 1_555 1_555
H4 C4 1_555 1_555
C5 C4 1_555 1_555
H5 C5 1_555 1_555
H6 C5 1_555 1_555
C6 C1 1_555 1_555
H7 C6 1_555 1_555
H8 C6 1_555 1_555
C7 N1 1_555 1_555
C8 C7 1_555 1_555
H9 C8 1_555 1_555
C9 C8 1_555 1_555
H10 C9 1_555 1_555
C10 C9 1_555 1_555
H11 C10 1_555 1_555
C11 C10 1_555 1_555
H12 C11 1_555 1_555
C12 C7 1_555 1_555
H13 C12 1_555 1_555
C13 N4 1_555 1_555
C14 C13 1_555 1_555
C15 C14 1_555 1_555
H14 C15 1_555 1_555
H15 C15 1_555 1_555
C16 C15 1_555 1_555
H16 C16 1_555 1_555
H17 C16 1_555 1_555
C17 C16 1_555 1_555
H18 C17 1_555 1_555
H19 C17 1_555 1_555
C18 C13 1_555 1_555
H20 C18 1_555 1_555
H21 C18 1_555 1_555
C19 N4 1_555 1_555
C20 C19 1_555 1_555
H22 C20 1_555 1_555
C21 C20 1_555 1_555
H23 C21 1_555 1_555
C22 C21 1_555 1_555
H24 C22 1_555 1_555
C23 C22 1_555 1_555
H25 C23 1_555 1_555
C24 C19 1_555 1_555
H26 C24 1_555 1_555
C5 C6 1_555 1_555
C11 C12 1_555 1_555
C17 C18 1_555 1_555
C23 C24 1_555 1_555

#END
