
#######################################################################
#
#                 Cambridge Crystallographic Data Centre
#                                CCDC 
#
#######################################################################
#
# If this CIF has been generated from an entry in the Cambridge 
# Structural Database, then it will include bibliographic, chemical, 
# crystal, experimental, refinement or atomic coordinate data resulting 
# from the CCDC's data processing and validation procedures.
#
#######################################################################

data_BAYCEL
_chemical_name_common            
'Ethyl 1-phenyl-4,5,6,7-tetrahydro-1H-benzo[d][1,2,3]triazole-5-carboxylate'
_chemical_formula_moiety         'C15 H17 N3 O2'
_chemical_name_systematic        
'Ethyl 1-phenyl-4,5,6,7-tetrahydro-1H-benzotriazole-5-carboxylate'
_symmetry_cell_setting           orthorhombic
_symmetry_space_group_name_H-M   'P c a 21'
_symmetry_Int_Tables_number      29
_space_group_name_Hall           'P 2c -2ac'
loop_
_symmetry_equiv_pos_site_id
_symmetry_equiv_pos_as_xyz
1 x,y,z
2 -x,-y,1/2+z
3 1/2+x,-y,z
4 1/2-x,y,1/2+z
_cell_length_a                   27.956(6)
_cell_length_b                   6.3916(15)
_cell_length_c                   7.5813(18)
_cell_angle_alpha                90
_cell_angle_beta                 90
_cell_angle_gamma                90
_cell_volume                     1354.65
_exptl_crystal_colour            yellow
_exptl_crystal_description       plate
_cell_formula_units_Z            4
loop_
_atom_site_label
_atom_site_type_symbol
_atom_site_fract_x
_atom_site_fract_y
_atom_site_fract_z
O1 O 0.24453(7) 0.9300(3) 0.4286(3)
O2 O 0.25811(6) 0.6288(3) 0.2871(3)
N1 N 0.39194(7) 1.3606(3) 0.1687(3)
N2 N 0.43842(8) 1.3595(3) 0.1804(3)
N3 N 0.45126(7) 1.1747(3) 0.2541(3)
C1 C 0.27052(9) 0.8200(4) 0.3415(4)
C2 C 0.32059(8) 0.8785(4) 0.2823(4)
H1 H 0.3283 0.8011 0.1712
C3 C 0.32307(8) 1.1135(4) 0.2463(3)
H2 H 0.3065 1.1462 0.1341
H3 H 0.3070 1.1911 0.3424
C4 C 0.37457(8) 1.1784(4) 0.2349(3)
C5 C 0.41191(8) 1.0572(3) 0.2898(3)
C6 C 0.40807(8) 0.8452(4) 0.3708(4)
H4 H 0.4296 0.8350 0.4741
H5 H 0.4176 0.7370 0.2842
C7 C 0.35609(9) 0.8104(4) 0.4284(4)
H6 H 0.3497 0.8917 0.5370
H7 H 0.3512 0.6605 0.4557
C8 C 0.50064(8) 1.1283(4) 0.2861(3)
C9 C 0.53041(9) 1.2856(4) 0.3475(3)
H8 H 0.5181 1.4221 0.3678
C10 C 0.57780(9) 1.2425(4) 0.3788(3)
H9 H 0.5984 1.3498 0.4207
C11 C 0.59587(9) 1.0425(4) 0.3493(3)
H10 H 0.6287 1.0131 0.3705
C12 C 0.56566(9) 0.8869(4) 0.2890(4)
H11 H 0.5778 0.7497 0.2711
C13 C 0.51803(9) 0.9287(4) 0.2544(3)
H12 H 0.4976 0.8225 0.2096
C14 C 0.20992(8) 0.5632(4) 0.3327(4)
H13 H 0.1868 0.6763 0.3058
H14 H 0.2079 0.5308 0.4602
C15 C 0.19854(10) 0.3715(4) 0.2254(4)
H15 H 0.2206 0.2585 0.2575
H16 H 0.2021 0.4037 0.0997
H17 H 0.1656 0.3275 0.2491
loop_
_geom_bond_atom_site_label_1
_geom_bond_atom_site_label_2
_geom_bond_site_symmetry_1
_geom_bond_site_symmetry_2
O1 C1 1_555 1_555
O2 C1 1_555 1_555
N1 N2 1_555 1_555
N2 N3 1_555 1_555
N3 C5 1_555 1_555
C1 C2 1_555 1_555
C2 H1 1_555 1_555
C3 C2 1_555 1_555
H2 C3 1_555 1_555
H3 C3 1_555 1_555
C4 N1 1_555 1_555
C5 C4 1_555 1_555
C6 C5 1_555 1_555
H4 C6 1_555 1_555
H5 C6 1_555 1_555
C7 C2 1_555 1_555
H6 C7 1_555 1_555
H7 C7 1_555 1_555
C8 N3 1_555 1_555
C9 C8 1_555 1_555
H8 C9 1_555 1_555
C10 C9 1_555 1_555
H9 C10 1_555 1_555
C11 C10 1_555 1_555
H10 C11 1_555 1_555
C12 C11 1_555 1_555
H11 C12 1_555 1_555
C13 C8 1_555 1_555
H12 C13 1_555 1_555
C14 O2 1_555 1_555
H13 C14 1_555 1_555
H14 C14 1_555 1_555
C15 C14 1_555 1_555
H15 C15 1_555 1_555
H16 C15 1_555 1_555
H17 C15 1_555 1_555
C3 C4 1_555 1_555
C6 C7 1_555 1_555
C12 C13 1_555 1_555

#END
