
#######################################################################
#
#                 Cambridge Crystallographic Data Centre
#                                CCDC 
#
#######################################################################
#
# If this CIF has been generated from an entry in the Cambridge 
# Structural Database, then it will include bibliographic, chemical, 
# crystal, experimental, refinement or atomic coordinate data resulting 
# from the CCDC's data processing and validation procedures.
#
#######################################################################

data_BAYCIP
_chemical_formula_moiety         'C26 H25 N1 O1'
_chemical_name_systematic        
(E)-N-Benzyl-3-(2-((E)-4-phenylbut-3-en-2-yl)phenyl)acrylamide
_symmetry_cell_setting           triclinic
_symmetry_space_group_name_H-M   'P -1'
_symmetry_Int_Tables_number      2
_space_group_name_Hall           '-P 1'
loop_
_symmetry_equiv_pos_site_id
_symmetry_equiv_pos_as_xyz
1 x,y,z
2 -x,-y,-z
_cell_length_a                   8.460(2)
_cell_length_b                   12.648
_cell_length_c                   19.339
_cell_angle_alpha                80.57
_cell_angle_beta                 80.56
_cell_angle_gamma                89.89
_cell_volume                     2013.04
_exptl_crystal_colour            colorless
_exptl_crystal_description       tabular
_chemical_melting_point          '117-119 deg.C'
_cell_formula_units_Z            4
loop_
_atom_site_label
_atom_site_type_symbol
_atom_site_fract_x
_atom_site_fract_y
_atom_site_fract_z
O1 O 0.7630(5) 0.1979(3) 0.3283(2)
N1 N 0.9905(6) 0.2992(4) 0.2887(3)
H1 H 1.0745 0.3274 0.3011
C1 C 1.3176(9) 0.1575(6) 0.0823(4)
H2 H 1.3920 0.1209 0.0529
C2 C 1.2817(9) 0.2617(6) 0.0606(4)
H3 H 1.3349 0.2981 0.0160
C3 C 1.1698(8) 0.3163(6) 0.1019(3)
H4 H 1.1449 0.3881 0.0847
C4 C 1.0948(7) 0.2655(5) 0.1680(3)
C5 C 0.9711(8) 0.3229(6) 0.2142(3)
H5 H 0.9829 0.4012 0.1975
H6 H 0.8621 0.3000 0.2095
C6 C 0.8881(6) 0.2371(4) 0.3394(3)
C7 C 0.9409(7) 0.2186(5) 0.4097(3)
H7 H 1.0354 0.2546 0.4152
C8 C 0.8604(7) 0.1533(5) 0.4657(3)
H8 H 0.7600 0.1244 0.4609
C9 C 0.9166(7) 0.1226(5) 0.5349(3)
C10 C 0.8126(7) 0.0807(4) 0.5977(3)
C11 C 0.6304(7) 0.0663(4) 0.6014(3)
H9 H 0.5957 0.1244 0.5657
C12 C 0.5450(7) 0.0815(5) 0.6745(3)
H10 H 0.5650 0.1472 0.6897
C13 C 0.4448(7) 0.0110(5) 0.7191(3)
H11 H 0.4209 -0.0531 0.7028
C14 C 0.3658(7) 0.0230(5) 0.7927(3)
C15 C 0.2557(8) -0.0546(5) 0.8299(3)
H12 H 0.2314 -0.1134 0.8083
C16 C 0.1784(8) -0.0483(6) 0.8995(4)
H13 H 0.1049 -0.1033 0.9250
C17 C 0.2111(8) 0.0392(6) 0.9301(4)
H14 H 0.1571 0.0458 0.9763
C18 C 1.0806(7) 0.1322(4) 0.5358(3)
H15 H 1.1503 0.1619 0.4934
C19 C 1.1435(7) 0.0993(5) 0.5972(4)
H16 H 1.2553 0.1072 0.5970
C20 C 1.0432(7) 0.0550(5) 0.6588(3)
H17 H 1.0858 0.0300 0.7008
C21 C 0.8782(7) 0.0470(5) 0.6589(3)
H18 H 0.8093 0.0179 0.7017
C22 C 0.3208(10) 0.1158(6) 0.8939(4)
H19 H 0.3436 0.1755 0.9151
C23 C 0.4002(8) 0.1071(5) 0.8258(3)
H20 H 0.4790 0.1598 0.8018
C24 C 0.5911(7) -0.0402(5) 0.5810(3)
H21 H 0.6366 -0.0984 0.6111
H22 H 0.6367 -0.0405 0.5311
H23 H 0.4745 -0.0507 0.5877
C25 C 1.1327(7) 0.1602(5) 0.1900(4)
H24 H 1.0815 0.1239 0.2350
C26 C 1.2423(9) 0.1065(6) 0.1486(4)
H25 H 1.2665 0.0344 0.1654
O2 O 0.7400(5) 0.6144(3) 0.6691(2)
N2 N 0.5120(6) 0.6957(4) 0.7104(3)
H26 H 0.4280 0.7309 0.6985
C27 C 0.1816(9) 0.4572(6) 0.9171(4)
H27 H 0.1015 0.4090 0.9456
C28 C 0.2274(10) 0.5488(7) 0.9412(4)
H28 H 0.1825 0.5615 0.9874
C29 C 0.3379(8) 0.6211(6) 0.8979(4)
H29 H 0.3653 0.6845 0.9141
C30 C 0.4097(7) 0.6030(5) 0.8312(3)
C31 C 0.5332(8) 0.6822(6) 0.7845(3)
H30 H 0.5230 0.7524 0.8010
H31 H 0.6422 0.6561 0.7888
C32 C 0.6115(6) 0.6583(4) 0.6591(3)
C33 C 0.5570(7) 0.6741(4) 0.5894(3)
H32 H 0.4608 0.7113 0.5843
C34 C 0.6390(7) 0.6375(5) 0.5336(3)
H33 H 0.7405 0.6076 0.5384
C35 C 0.5835(7) 0.6403(4) 0.4649(3)
C36 C 0.6849(7) 0.6288(4) 0.4018(3)
C37 C 0.8675(7) 0.6164(5) 0.3974(3)
H34 H 0.9024 0.6567 0.4329
C38 C 0.9529(7) 0.6677(5) 0.3242(3)
H35 H 0.9330 0.7411 0.3089
C39 C 1.0530(7) 0.6192(5) 0.2798(3)
H36 H 1.0757 0.5465 0.2956
C40 C 1.1325(7) 0.6686(5) 0.2074(3)
C41 C 1.2485(8) 0.6129(5) 0.1698(3)
H37 H 1.2763 0.5439 0.1913
C42 C 1.3258(8) 0.6546(6) 0.1015(4)
H38 H 1.4045 0.6144 0.0769
C43 C 1.2860(9) 0.7564(7) 0.0697(4)
H39 H 1.3374 0.7859 0.0231
C44 C 0.2542(9) 0.4374(6) 0.8512(4)
H40 H 0.2267 0.3741 0.8349
C45 C 0.3682(7) 0.5105(5) 0.8086(4)
H41 H 0.4177 0.4963 0.7634
C46 C 0.9089(7) 0.5007(5) 0.4173(3)
H42 H 0.8568 0.4567 0.3898
H43 H 0.8715 0.4768 0.4681
H44 H 1.0254 0.4935 0.4067
C47 C 1.1719(10) 0.8139(6) 0.1061(4)
H45 H 1.1471 0.8838 0.0849
C48 C 1.0922(8) 0.7705(5) 0.1741(4)
H46 H 1.0108 0.8098 0.1979
C49 C 0.6217(7) 0.6264(5) 0.3393(3)
H47 H 0.6913 0.6212 0.2962
C50 C 0.4540(7) 0.6317(5) 0.3406(3)
H48 H 0.4104 0.6256 0.2991
C51 C 0.3540(7) 0.6459(4) 0.4022(3)
H49 H 0.2421 0.6528 0.4024
C52 C 0.4155(7) 0.6501(4) 0.4633(3)
H50 H 0.3450 0.6598 0.5053
loop_
_geom_bond_atom_site_label_1
_geom_bond_atom_site_label_2
_geom_bond_site_symmetry_1
_geom_bond_site_symmetry_2
O1 C6 1_555 1_555
N1 H1 1_555 1_555
C1 H2 1_555 1_555
C2 C1 1_555 1_555
H3 C2 1_555 1_555
C3 C2 1_555 1_555
H4 C3 1_555 1_555
C4 C3 1_555 1_555
C5 N1 1_555 1_555
H5 C5 1_555 1_555
H6 C5 1_555 1_555
C6 N1 1_555 1_555
C7 C6 1_555 1_555
H7 C7 1_555 1_555
C8 C7 1_555 1_555
H8 C8 1_555 1_555
C9 C8 1_555 1_555
C10 C9 1_555 1_555
C11 C10 1_555 1_555
H9 C11 1_555 1_555
C12 C11 1_555 1_555
H10 C12 1_555 1_555
C13 C12 1_555 1_555
H11 C13 1_555 1_555
C14 C13 1_555 1_555
C15 C14 1_555 1_555
H12 C15 1_555 1_555
C16 C15 1_555 1_555
H13 C16 1_555 1_555
C17 C16 1_555 1_555
H14 C17 1_555 1_555
C18 C9 1_555 1_555
H15 C18 1_555 1_555
C19 C18 1_555 1_555
H16 C19 1_555 1_555
C20 C19 1_555 1_555
H17 C20 1_555 1_555
C21 C10 1_555 1_555
H18 C21 1_555 1_555
C22 C17 1_555 1_555
H19 C22 1_555 1_555
C23 C14 1_555 1_555
H20 C23 1_555 1_555
C24 C11 1_555 1_555
H21 C24 1_555 1_555
H22 C24 1_555 1_555
H23 C24 1_555 1_555
C25 C4 1_555 1_555
H24 C25 1_555 1_555
C26 C1 1_555 1_555
H25 C26 1_555 1_555
O2 C32 1_555 1_555
N2 H26 1_555 1_555
C27 H27 1_555 1_555
C28 C27 1_555 1_555
H28 C28 1_555 1_555
C29 C28 1_555 1_555
H29 C29 1_555 1_555
C30 C29 1_555 1_555
C31 N2 1_555 1_555
H30 C31 1_555 1_555
H31 C31 1_555 1_555
C32 N2 1_555 1_555
C33 C32 1_555 1_555
H32 C33 1_555 1_555
C34 C33 1_555 1_555
H33 C34 1_555 1_555
C35 C34 1_555 1_555
C36 C35 1_555 1_555
C37 C36 1_555 1_555
H34 C37 1_555 1_555
C38 C37 1_555 1_555
H35 C38 1_555 1_555
C39 C38 1_555 1_555
H36 C39 1_555 1_555
C40 C39 1_555 1_555
C41 C40 1_555 1_555
H37 C41 1_555 1_555
C42 C41 1_555 1_555
H38 C42 1_555 1_555
C43 C42 1_555 1_555
H39 C43 1_555 1_555
C44 C27 1_555 1_555
H40 C44 1_555 1_555
C45 C30 1_555 1_555
H41 C45 1_555 1_555
C46 C37 1_555 1_555
H42 C46 1_555 1_555
H43 C46 1_555 1_555
H44 C46 1_555 1_555
C47 C43 1_555 1_555
H45 C47 1_555 1_555
C48 C40 1_555 1_555
H46 C48 1_555 1_555
C49 C36 1_555 1_555
H47 C49 1_555 1_555
C50 C49 1_555 1_555
H48 C50 1_555 1_555
C51 C50 1_555 1_555
H49 C51 1_555 1_555
C52 C35 1_555 1_555
H50 C52 1_555 1_555
C4 C5 1_555 1_555
C20 C21 1_555 1_555
C22 C23 1_555 1_555
C25 C26 1_555 1_555
C30 C31 1_555 1_555
C44 C45 1_555 1_555
C47 C48 1_555 1_555
C51 C52 1_555 1_555

#END
