
#######################################################################
#
#                 Cambridge Crystallographic Data Centre
#                                CCDC 
#
#######################################################################
#
# If this CIF has been generated from an entry in the Cambridge 
# Structural Database, then it will include bibliographic, chemical, 
# crystal, experimental, refinement or atomic coordinate data resulting 
# from the CCDC's data processing and validation procedures.
#
#######################################################################

data_BAYHOB
_chemical_formula_moiety         'C12 H7 N1 O2'
_chemical_name_systematic        1H-benzo[e]isoindole-1,3(2H)-dione
_symmetry_cell_setting           monoclinic
_symmetry_space_group_name_H-M   'P 21/c'
_symmetry_Int_Tables_number      14
_space_group_name_Hall           '-P 2ybc'
loop_
_symmetry_equiv_pos_site_id
_symmetry_equiv_pos_as_xyz
1 x,y,z
2 -x,1/2+y,1/2-z
3 -x,-y,-z
4 x,1/2-y,1/2+z
_cell_length_a                   3.8800(12)
_cell_length_b                   11.779(4)
_cell_length_c                   19.292(6)
_cell_angle_alpha                90
_cell_angle_beta                 90.211(8)
_cell_angle_gamma                90
_cell_volume                     881.687
_exptl_crystal_colour            yellow
_exptl_crystal_description       block
_cell_formula_units_Z            4
loop_
_atom_site_label
_atom_site_type_symbol
_atom_site_fract_x
_atom_site_fract_y
_atom_site_fract_z
N1 N 0.5913(5) 0.84474(16) 0.00063(10)
O1 O 0.8507(5) 0.69641(15) -0.05683(8)
O2 O 0.3257(5) 0.95288(13) 0.08408(9)
C1 C 0.7028(6) 0.73368(18) -0.00716(11)
C2 C 0.4404(6) 0.86273(18) 0.06408(11)
C3 C 0.4489(5) 0.75183(16) 0.10089(10)
C4 C 0.3371(5) 0.72240(16) 0.16772(10)
C5 C 0.1725(5) 0.79678(18) 0.21443(11)
H1 H 0.1262 0.8712 0.2012
C6 C 0.0816(6) 0.7606(2) 0.27840(12)
H2 H -0.0275 0.8104 0.3086
C7 C 0.1494(6) 0.6494(2) 0.29967(12)
H3 H 0.0876 0.6261 0.3440
C8 C 0.3043(5) 0.5756(2) 0.25610(11)
H4 H 0.3478 0.5018 0.2709
C9 C 0.4011(5) 0.60852(16) 0.18869(11)
C10 C 0.5595(5) 0.53181(18) 0.14186(12)
H5 H 0.5947 0.4572 0.1559
C11 C 0.6612(5) 0.56300(17) 0.07763(11)
H6 H 0.7650 0.5113 0.0478
C12 C 0.6054(5) 0.67513(17) 0.05759(10)
H7 H 0.631(7) 0.906(2) -0.0318(15)
loop_
_geom_bond_atom_site_label_1
_geom_bond_atom_site_label_2
_geom_bond_site_symmetry_1
_geom_bond_site_symmetry_2
N1 C1 1_555 1_555
O1 C1 1_555 1_555
O2 C2 1_555 1_555
C1 C12 1_555 1_555
C2 N1 1_555 1_555
C3 C2 1_555 1_555
C4 C3 1_555 1_555
C5 C4 1_555 1_555
H1 C5 1_555 1_555
C6 C5 1_555 1_555
H2 C6 1_555 1_555
C7 C6 1_555 1_555
H3 C7 1_555 1_555
C8 C7 1_555 1_555
H4 C8 1_555 1_555
C9 C4 1_555 1_555
C10 C9 1_555 1_555
H5 C10 1_555 1_555
C11 C10 1_555 1_555
H6 C11 1_555 1_555
C12 C3 1_555 1_555
H7 N1 1_555 1_555
C8 C9 1_555 1_555
C11 C12 1_555 1_555

#END
