
#######################################################################
#
#                 Cambridge Crystallographic Data Centre
#                                CCDC 
#
#######################################################################
#
# If this CIF has been generated from an entry in the Cambridge 
# Structural Database, then it will include bibliographic, chemical, 
# crystal, experimental, refinement or atomic coordinate data resulting 
# from the CCDC's data processing and validation procedures.
#
#######################################################################

data_BAYJIX
_chemical_formula_moiety         'C25 H21 Br1 F3 N1 O4,C3 H8 O1'
_chemical_name_systematic        
't-butyl (2-((1S,2R)-8-bromo-3-oxo-1-(trifluoromethyl)-2,3-dihydro-1H-benzo[f]chromen-2-yl)phenyl)carbamate isopropanol solvate'
_symmetry_cell_setting           monoclinic
_symmetry_space_group_name_H-M   'P 21'
_symmetry_Int_Tables_number      4
_space_group_name_Hall           'P 2yb'
loop_
_symmetry_equiv_pos_site_id
_symmetry_equiv_pos_as_xyz
1 x,y,z
2 -x,1/2+y,-z
_cell_length_a                   9.508(2)
_cell_length_b                   13.369(3)
_cell_length_c                   10.907(3)
_cell_angle_alpha                90
_cell_angle_beta                 91.261(5)
_cell_angle_gamma                90
_cell_volume                     1386.08
_exptl_crystal_colour            colorless
_exptl_crystal_description       Plate
_cell_formula_units_Z            2
loop_
_atom_site_label
_atom_site_type_symbol
_atom_site_fract_x
_atom_site_fract_y
_atom_site_fract_z
Br1 Br 0.18610(3) 0.04590(3) 0.76547(3)
F1 F -0.03325(17) 0.65051(17) 0.61696(18)
F2 F -0.01246(19) 0.50582(16) 0.53329(17)
F3 F 0.09593(17) 0.63192(16) 0.45844(15)
O1 O 0.0986(2) 0.65459(16) 0.87009(18)
O2 O 0.1630(3) 0.80318(18) 0.8086(2)
O3 O 0.4467(2) 0.80688(15) 0.50052(18)
O4 O 0.3848(2) 0.70466(14) 0.34095(16)
N1 N 0.4675(2) 0.63753(16) 0.51223(18)
H1 H 0.4652 0.5828 0.4707
C1 C 0.1855(2) 0.56681(18) 0.6458(2)
H2 H 0.2549 0.5304 0.5979
C2 C 0.2528(2) 0.6665(2) 0.6901(2)
H3 H 0.2527 0.7125 0.6201
C3 C 0.1701(3) 0.7154(2) 0.7911(3)
C4 C 0.1059(2) 0.5507(3) 0.8595(2)
C5 C 0.1470(3) 0.5031(2) 0.7545(2)
C6 C 0.1536(3) 0.3968(2) 0.7535(2)
C7 C 0.1978(3) 0.3402(2) 0.6504(2)
H4 H 0.2211 0.3733 0.5786
C8 C 0.2065(3) 0.2386(2) 0.6553(3)
H5 H 0.2366 0.2033 0.5872
C9 C 0.1705(3) 0.1869(2) 0.7617(2)
C10 C 0.1244(3) 0.2374(2) 0.8632(2)
H6 H 0.0999 0.2022 0.9331
C11 C 0.1145(3) 0.3428(2) 0.8610(2)
C12 C 0.0659(3) 0.3966(2) 0.9637(2)
H7 H 0.0354 0.3618 1.0319
C13 C 0.0631(3) 0.4982(3) 0.9644(2)
H8 H 0.0332 0.5327 1.0331
C14 C 0.0583(3) 0.5884(2) 0.5634(3)
C15 C 0.4052(2) 0.6488(2) 0.7296(2)
C16 C 0.4475(3) 0.6433(2) 0.8530(2)
H9 H 0.3817 0.6534 0.9137
C17 C 0.5861(3) 0.6229(3) 0.8862(3)
H10 H 0.6132 0.6206 0.9686
C18 C 0.6844(3) 0.6061(3) 0.7965(3)
H11 H 0.7771 0.5913 0.8185
C19 C 0.6437(3) 0.6115(2) 0.6739(2)
H12 H 0.7097 0.6001 0.6138
C20 C 0.5060(2) 0.63353(18) 0.6398(2)
C21 C 0.4345(2) 0.7242(2) 0.4548(2)
C22 C 0.3365(3) 0.7859(2) 0.2586(3)
C23 C 0.2210(3) 0.8469(2) 0.3170(3)
H13 H 0.1512 0.8027 0.3488
H14 H 0.1783 0.8900 0.2565
H15 H 0.2606 0.8865 0.3825
C24 C 0.4602(3) 0.8490(3) 0.2210(3)
H16 H 0.4978 0.8839 0.2914
H17 H 0.4299 0.8965 0.1600
H18 H 0.5315 0.8066 0.1880
C25 C 0.2751(4) 0.7265(3) 0.1510(3)
H19 H 0.3453 0.6818 0.1207
H20 H 0.2457 0.7716 0.0870
H21 H 0.1957 0.6886 0.1776
O5 O 0.6218(2) 0.95481(16) 0.58633(19)
H22 H 0.5713 0.9058 0.5750
C26 C 0.5869(5) 0.9294(5) 0.8040(4)
H23 H 0.5180 0.9819 0.8026
H24 H 0.6348 0.9286 0.8824
H25 H 0.5410 0.8663 0.7904
C27 C 0.8071(4) 0.8707(4) 0.6998(4)
H26 H 0.7680 0.8071 0.6764
H27 H 0.8525 0.8651 0.7790
H28 H 0.8745 0.8912 0.6406
C28 C 0.6912(4) 0.9472(3) 0.7052(3)
H29 H 0.7357 1.0120 0.7221
loop_
_geom_bond_atom_site_label_1
_geom_bond_atom_site_label_2
_geom_bond_site_symmetry_1
_geom_bond_site_symmetry_2
Br1 C9 1_555 1_555
F1 C14 1_555 1_555
F2 C14 1_555 1_555
F3 C14 1_555 1_555
O1 C3 1_555 1_555
O2 C3 1_555 1_555
O3 C21 1_555 1_555
O4 C21 1_555 1_555
N1 H1 1_555 1_555
C1 H2 1_555 1_555
C2 C1 1_555 1_555
H3 C2 1_555 1_555
C3 C2 1_555 1_555
C4 O1 1_555 1_555
C5 C1 1_555 1_555
C6 C5 1_555 1_555
C7 C6 1_555 1_555
H4 C7 1_555 1_555
C8 C7 1_555 1_555
H5 C8 1_555 1_555
C9 C8 1_555 1_555
C10 C9 1_555 1_555
H6 C10 1_555 1_555
C11 C6 1_555 1_555
C12 C11 1_555 1_555
H7 C12 1_555 1_555
C13 C4 1_555 1_555
H8 C13 1_555 1_555
C14 C1 1_555 1_555
C15 C2 1_555 1_555
C16 C15 1_555 1_555
H9 C16 1_555 1_555
C17 C16 1_555 1_555
H10 C17 1_555 1_555
C18 C17 1_555 1_555
H11 C18 1_555 1_555
C19 C18 1_555 1_555
H12 C19 1_555 1_555
C20 N1 1_555 1_555
C21 N1 1_555 1_555
C22 O4 1_555 1_555
C23 C22 1_555 1_555
H13 C23 1_555 1_555
H14 C23 1_555 1_555
H15 C23 1_555 1_555
C24 C22 1_555 1_555
H16 C24 1_555 1_555
H17 C24 1_555 1_555
H18 C24 1_555 1_555
C25 C22 1_555 1_555
H19 C25 1_555 1_555
H20 C25 1_555 1_555
H21 C25 1_555 1_555
O5 H22 1_555 1_555
C26 H23 1_555 1_555
H24 C26 1_555 1_555
H25 C26 1_555 1_555
C27 H26 1_555 1_555
H27 C27 1_555 1_555
H28 C27 1_555 1_555
C28 O5 1_555 1_555
H29 C28 1_555 1_555
C4 C5 1_555 1_555
C10 C11 1_555 1_555
C12 C13 1_555 1_555
C15 C20 1_555 1_555
C19 C20 1_555 1_555
C26 C28 1_555 1_555
C27 C28 1_555 1_555

#END
