
#######################################################################
#
#                 Cambridge Crystallographic Data Centre
#                                CCDC 
#
#######################################################################
#
# If this CIF has been generated from an entry in the Cambridge 
# Structural Database, then it will include bibliographic, chemical, 
# crystal, experimental, refinement or atomic coordinate data resulting 
# from the CCDC's data processing and validation procedures.
#
#######################################################################

data_BAYLAP
_chemical_formula_moiety         'C17 H22 N2 O6'
_chemical_name_systematic        
'(Z)-6-Methyl-6-nitro-2-(((phenylmethoxy)carbonyl)amino)-2-heptenoic acid methyl ester'
_symmetry_cell_setting           monoclinic
_symmetry_space_group_name_H-M   'P 21/n'
_symmetry_Int_Tables_number      14
_space_group_name_Hall           '-P 2yn'
loop_
_symmetry_equiv_pos_site_id
_symmetry_equiv_pos_as_xyz
1 x,y,z
2 1/2-x,1/2+y,1/2-z
3 -x,-y,-z
4 1/2+x,1/2-y,1/2+z
_cell_length_a                   16.539(2)
_cell_length_b                   6.287(1)
_cell_length_c                   17.498(2)
_cell_angle_alpha                90
_cell_angle_beta                 100.69(1)
_cell_angle_gamma                90
_cell_volume                     1787.88
_exptl_crystal_colour            colorless
_exptl_crystal_description       rods
_cell_formula_units_Z            4
loop_
_atom_site_label
_atom_site_type_symbol
_atom_site_fract_x
_atom_site_fract_y
_atom_site_fract_z
O1 O 1.1637(3) 0.1868(6) 0.2567(2)
O2 O 1.1238(2) -0.1101(5) 0.2074(2)
O3 O 0.7388(1) 0.5726(4) 0.0427(2)
O4 O 0.7331(1) 0.2160(4) 0.0595(2)
O5 O 0.9005(1) 0.9315(3) 0.1409(2)
O6 O 0.8176(1) 0.7279(3) 0.1969(1)
N1 N 1.1470(2) 0.0696(6) 0.2018(2)
N2 N 0.8466(1) 0.3839(4) 0.1092(2)
C1 C 0.9014(2) 0.5573(4) 0.1237(2)
C2 C 0.9807(2) 0.5386(5) 0.1201(2)
C3 C 1.0212(2) 0.3374(5) 0.1016(2)
C4 C 1.1140(2) 0.3597(5) 0.1085(2)
C5 C 1.1608(2) 0.1521(5) 0.1234(2)
C6 C 1.2533(2) 0.1876(6) 0.1316(2)
C7 C 1.1306(2) -0.0160(6) 0.0627(2)
C8 C 0.7694(2) 0.4075(6) 0.0678(2)
C9 C 0.6492(2) 0.2040(8) 0.0150(2)
C10 C 0.5912(2) 0.1574(6) 0.0690(2)
C11 C 0.5865(2) -0.0428(7) 0.0989(3)
C12 C 0.5319(3) -0.0845(8) 0.1492(3)
C13 C 0.4823(2) 0.0729(9) 0.1674(3)
C14 C 0.4865(3) 0.2701(9) 0.1384(3)
C15 C 0.5408(2) 0.3151(7) 0.0883(2)
C16 C 0.8730(2) 0.7582(5) 0.1524(2)
C17 C 0.7890(2) 0.9152(5) 0.2328(2)
H1 H 0.8652 0.2390 0.1297
H2 H 1.0097 0.2149 0.1414
H3 H 0.9948 0.2905 0.0427
H4 H 1.1260 0.4283 0.0540
H5 H 1.1366 0.4695 0.1551
H6 H 1.2684 0.2445 0.0776
H7 H 1.2745 0.3013 0.1772
H8 H 1.2860 0.0374 0.1467
H9 H 1.1394 0.0403 0.0058
H10 H 1.1645 -0.1610 0.0764
H11 H 1.0656 -0.0453 0.0601
H12 H 0.6314 0.3570 -0.0152
H13 H 0.6432 0.0821 -0.0300
H14 H 0.6241 -0.1694 0.0818
H15 H 0.5302 -0.2487 0.1736
H16 H 0.4414 0.0278 0.2061
H17 H 0.4466 0.3922 0.1539
H18 H 0.5450 0.4743 0.0633
H19 H 0.7436 0.8698 0.2673
H20 H 0.8398 0.9931 0.2693
H21 H 0.7602 1.0256 0.1878
H22 H 1.0192 0.6823 0.1326
loop_
_geom_bond_atom_site_label_1
_geom_bond_atom_site_label_2
_geom_bond_site_symmetry_1
_geom_bond_site_symmetry_2
O1 N1 1_555 1_555
O2 N1 1_555 1_555
O3 C8 1_555 1_555
O4 C8 1_555 1_555
O5 C16 1_555 1_555
O6 C16 1_555 1_555
N1 C5 1_555 1_555
N2 C1 1_555 1_555
C1 C2 1_555 1_555
C2 C3 1_555 1_555
C3 C4 1_555 1_555
C4 C5 1_555 1_555
C5 C6 1_555 1_555
C6 H6 1_555 1_555
C7 C5 1_555 1_555
C8 N2 1_555 1_555
C9 O4 1_555 1_555
C10 C9 1_555 1_555
C11 C10 1_555 1_555
C12 C11 1_555 1_555
C13 C12 1_555 1_555
C14 C13 1_555 1_555
C15 C10 1_555 1_555
C16 C1 1_555 1_555
C17 O6 1_555 1_555
H1 N2 1_555 1_555
H2 C3 1_555 1_555
H3 C3 1_555 1_555
H4 C4 1_555 1_555
H5 C4 1_555 1_555
H7 C6 1_555 1_555
H8 C6 1_555 1_555
H9 C7 1_555 1_555
H10 C7 1_555 1_555
H11 C7 1_555 1_555
H12 C9 1_555 1_555
H13 C9 1_555 1_555
H14 C11 1_555 1_555
H15 C12 1_555 1_555
H16 C13 1_555 1_555
H17 C14 1_555 1_555
H18 C15 1_555 1_555
H19 C17 1_555 1_555
H20 C17 1_555 1_555
H21 C17 1_555 1_555
H22 C2 1_555 1_555
C14 C15 1_555 1_555

#END
