
#######################################################################
#
#                 Cambridge Crystallographic Data Centre
#                                CCDC 
#
#######################################################################
#
# If this CIF has been generated from an entry in the Cambridge 
# Structural Database, then it will include bibliographic, chemical, 
# crystal, experimental, refinement or atomic coordinate data resulting 
# from the CCDC's data processing and validation procedures.
#
#######################################################################

data_BAYYUY
_chemical_formula_moiety         'C33 H41 N1 O3 S1 Si1'
_chemical_name_systematic        
5-((t-butyl(diphenyl)silyl)oxy)-6-methyl-1-((4-methylphenyl)sulfonyl)-3-(prop-1-en-2-yl)-2,3,4,7-tetrahydro-1H-azepine
_symmetry_cell_setting           monoclinic
_symmetry_space_group_name_H-M   'P 21'
_symmetry_Int_Tables_number      4
_space_group_name_Hall           'P 2yb'
loop_
_symmetry_equiv_pos_site_id
_symmetry_equiv_pos_as_xyz
1 x,y,z
2 -x,1/2+y,-z
_cell_length_a                   9.9015(5)
_cell_length_b                   17.7328(9)
_cell_length_c                   18.3615(9)
_cell_angle_alpha                90
_cell_angle_beta                 103.762(2)
_cell_angle_gamma                90
_cell_volume                     3131.38
_exptl_crystal_colour            colorless
_exptl_crystal_description       block
_cell_formula_units_Z            4
loop_
_atom_site_label
_atom_site_type_symbol
_atom_site_fract_x
_atom_site_fract_y
_atom_site_fract_z
Si1 Si 0.84867(8) 0.78093(5) 0.90656(4)
S1 S 0.42198(8) 0.99445(5) 0.65374(4)
O1 O 0.3303(3) 0.94523(15) 0.60402(13)
O2 O 0.4179(2) 1.07366(14) 0.63932(13)
O3 O 0.7332(2) 0.79669(13) 0.82679(12)
N1 N 0.5786(3) 0.96677(16) 0.65601(14)
C1 C 0.8647(3) 0.8672(2) 0.96688(17)
C2 C 0.9827(4) 0.8847(2) 1.0238(2)
H1 H 1.0607 0.8518 1.0326
C3 C 0.9878(5) 0.9491(3) 1.0676(3)
H2 H 1.0684 0.9594 1.1061
C4 C 0.8781(4) 0.9976(2) 1.0555(2)
H3 H 0.8828 1.0420 1.0850
C5 C 0.7611(4) 0.9824(2) 1.0007(2)
H4 H 0.6842 1.0160 0.9924
C6 C 0.7548(4) 0.9174(2) 0.95701(19)
H5 H 0.6727 0.9074 0.9194
C7 C 0.3895(3) 0.98306(19) 0.74412(17)
C8 C 0.3277(4) 0.9184(2) 0.7611(2)
H6 H 0.3017 0.8796 0.7248
C9 C 0.3038(4) 0.9103(2) 0.8322(2)
H7 H 0.2605 0.8657 0.8441
C10 C 0.3413(4) 0.9654(2) 0.8860(2)
C11 C 0.4034(3) 1.0297(2) 0.86729(18)
H8 H 0.4298 1.0684 0.9036
C12 C 0.4283(3) 1.0392(2) 0.79685(18)
H9 H 0.4715 1.0838 0.7850
C13 C 0.3104(5) 0.9572(3) 0.9624(2)
H10 H 0.2662 0.9083 0.9656
H11 H 0.2477 0.9977 0.9698
H12 H 0.3973 0.9603 1.0012
C14 C 0.7685(3) 0.69976(19) 0.94745(18)
C15 C 0.6311(4) 0.7253(3) 0.9643(2)
H13 H 0.5895 0.6831 0.9857
H14 H 0.5671 0.7419 0.9178
H15 H 0.6488 0.7671 1.0002
C16 C 0.7420(5) 0.6349(2) 0.8905(2)
H16 H 0.7001 0.5923 0.9112
H17 H 0.8303 0.6190 0.8801
H18 H 0.6787 0.6519 0.8440
C17 C 0.8674(4) 0.6724(2) 1.01993(19)
H19 H 0.8245 0.6303 1.0408
H20 H 0.8862 0.7138 1.0563
H21 H 0.9549 0.6555 1.0091
C18 C 0.6065(4) 0.8874(2) 0.64076(18)
H22 H 0.6934 0.8853 0.6231
H23 H 0.5302 0.8692 0.5993
C19 C 0.6205(4) 0.8334(2) 0.70634(19)
C20 C 0.7249(3) 0.84384(18) 0.76654(17)
C21 C 0.8328(3) 0.90506(18) 0.77429(17)
H24 H 0.8796 0.9007 0.7324
H25 H 0.9040 0.8973 0.8216
C22 C 0.7728(3) 0.98517(17) 0.77431(16)
H26 H 0.7033 0.9844 0.8059
C23 C 0.6974(3) 1.0123(2) 0.69467(17)
H27 H 0.6648 1.0646 0.6986
H28 H 0.7659 1.0137 0.6632
C24 C 0.8816(3) 1.0438(2) 0.8066(2)
C25 C 1.0100(4) 1.0409(2) 0.7986(3)
H29 H 1.0737 1.0800 0.8184
H30 H 1.0391 0.9997 0.7729
C26 C 0.8307(4) 1.1067(2) 0.8461(2)
H31 H 0.9074 1.1416 0.8659
H32 H 0.7951 1.0865 0.8876
H33 H 0.7561 1.1334 0.8110
C27 C 1.0170(3) 0.75113(18) 0.88564(18)
C28 C 1.0238(4) 0.7357(2) 0.8120(2)
H34 H 0.9436 0.7438 0.7726
C29 C 1.1429(4) 0.7093(2) 0.7949(2)
H35 H 1.1442 0.6993 0.7442
C30 C 1.2614(4) 0.6972(2) 0.8517(2)
H36 H 1.3442 0.6793 0.8400
C31 C 1.2580(4) 0.7113(2) 0.9252(2)
H37 H 1.3386 0.7031 0.9643
C32 C 1.1376(3) 0.7371(2) 0.9415(2)
H38 H 1.1363 0.7458 0.9924
C33 C 0.5212(4) 0.7698(2) 0.6987(2)
H39 H 0.5418 0.7399 0.7448
H40 H 0.5298 0.7380 0.6564
H41 H 0.4262 0.7896 0.6897
S2 S 0.43962(8) 0.78351(5) 0.15160(4)
Si2 Si 0.83660(8) 0.98390(5) 0.41640(5)
O4 O 0.7175(2) 0.96471(13) 0.33914(12)
O5 O 0.4376(3) 0.70443(15) 0.13706(13)
O6 O 0.3436(3) 0.83207(16) 0.10251(14)
N2 N 0.5941(3) 0.81192(18) 0.15162(15)
C34 C 0.9998(3) 1.01651(19) 0.39091(17)
C35 C 1.1209(3) 1.0348(2) 0.4447(2)
H42 H 1.1242 1.0263 0.4962
C36 C 1.2364(4) 1.0649(2) 0.4248(3)
H43 H 1.3173 1.0776 0.4622
C37 C 1.2323(4) 1.0764(2) 0.3499(3)
H44 H 1.3111 1.0964 0.3355
C38 C 1.1147(4) 1.0589(2) 0.2964(2)
H45 H 1.1125 1.0675 0.2451
C39 C 1.0007(4) 1.0295(2) 0.3155(2)
H46 H 0.9206 1.0175 0.2772
C40 C 0.8638(3) 0.89982(19) 0.48052(17)
C41 C 0.7555(4) 0.8480(2) 0.47566(19)
H47 H 0.6690 0.8570 0.4412
C42 C 0.7712(4) 0.7838(2) 0.5199(2)
H48 H 0.6969 0.7488 0.5147
C43 C 0.8959(4) 0.7707(2) 0.5717(2)
H49 H 0.9072 0.7273 0.6029
C44 C 1.0017(5) 0.8209(2) 0.5774(3)
H50 H 1.0873 0.8122 0.6127
C45 C 0.9866(4) 0.8849(2) 0.5322(2)
H51 H 1.0623 0.9189 0.5371
C46 C 0.4108(3) 0.79513(19) 0.24227(17)
C47 C 0.3528(4) 0.8616(2) 0.2608(2)
H52 H 0.3315 0.9014 0.2253
C48 C 0.3261(4) 0.8698(2) 0.3310(2)
H53 H 0.2847 0.9150 0.3431
C49 C 0.3590(4) 0.8128(2) 0.38390(19)
C50 C 0.4201(4) 0.7484(2) 0.36592(19)
H54 H 0.4443 0.7095 0.4022
C51 C 0.4475(3) 0.73868(19) 0.29540(18)
H55 H 0.4908 0.6939 0.2840
C52 C 0.3219(5) 0.8208(3) 0.4587(2)
H56 H 0.2787 0.8701 0.4614
H57 H 0.4064 0.8166 0.4991
H58 H 0.2566 0.7808 0.4640
C53 C 0.7567(4) 1.0647(2) 0.45773(19)
C54 C 0.7289(5) 1.1310(2) 0.4025(2)
H59 H 0.6866 1.1726 0.4243
H60 H 0.6655 1.1148 0.3556
H61 H 0.8168 1.1479 0.3922
C55 C 0.6196(4) 1.0386(3) 0.4753(2)
H62 H 0.5781 1.0806 0.4971
H63 H 0.6382 0.9967 0.5111
H64 H 0.5551 1.0219 0.4290
C56 C 0.8546(4) 1.0909(2) 0.5308(2)
H65 H 0.8113 1.1325 0.5521
H66 H 0.9423 1.1081 0.5207
H67 H 0.8728 1.0489 0.5665
C57 C 0.6226(5) 0.8906(3) 0.1416(2)
H68 H 0.5442 0.9116 0.1031
H69 H 0.7067 0.8938 0.1215
C58 C 0.6446(4) 0.9402(2) 0.2103(2)
C59 C 0.7135(4) 0.9178(2) 0.27789(18)
C60 C 0.7826(4) 0.8429(2) 0.29865(18)
H70 H 0.7171 0.8103 0.3174
H71 H 0.8645 0.8511 0.3408
C61 C 0.8308(4) 0.7997(3) 0.2375(2)
H72 H 0.8783 0.8356 0.2098
C62 C 0.7132(4) 0.7615(3) 0.1819(2)
H73 H 0.7491 0.7417 0.1397
H74 H 0.6802 0.7180 0.2067
C63 C 0.5790(6) 1.0168(3) 0.1983(3)
H75 H 0.5972 1.0440 0.2461
H76 H 0.4784 1.0115 0.1786
H77 H 0.6185 1.0451 0.1624
C64 C 0.9350(5) 0.7389(4) 0.2739(3)
C65 C 0.8909(8) 0.6821(5) 0.3241(4)
H78 H 0.9672 0.6467 0.3428
H79 H 0.8096 0.6545 0.2958
H80 H 0.8671 0.7081 0.3665
C66 C 1.0595(5) 0.7398(5) 0.2586(5)
H81 H 1.1268 0.7029 0.2800
H82 H 1.0812 0.7773 0.2263
loop_
_geom_bond_atom_site_label_1
_geom_bond_atom_site_label_2
_geom_bond_site_symmetry_1
_geom_bond_site_symmetry_2
Si1 O3 1_555 1_555
S1 O1 1_555 1_555
O2 S1 1_555 1_555
O3 C20 1_555 1_555
N1 S1 1_555 1_555
C1 Si1 1_555 1_555
C2 C1 1_555 1_555
H1 C2 1_555 1_555
C3 C2 1_555 1_555
H2 C3 1_555 1_555
C4 C3 1_555 1_555
H3 C4 1_555 1_555
C5 C4 1_555 1_555
H4 C5 1_555 1_555
C6 C1 1_555 1_555
H5 C6 1_555 1_555
C7 S1 1_555 1_555
C8 C7 1_555 1_555
H6 C8 1_555 1_555
C9 C8 1_555 1_555
H7 C9 1_555 1_555
C10 C9 1_555 1_555
C11 C10 1_555 1_555
H8 C11 1_555 1_555
C12 C7 1_555 1_555
H9 C12 1_555 1_555
C13 C10 1_555 1_555
H10 C13 1_555 1_555
H11 C13 1_555 1_555
H12 C13 1_555 1_555
C14 Si1 1_555 1_555
C15 C14 1_555 1_555
H13 C15 1_555 1_555
H14 C15 1_555 1_555
H15 C15 1_555 1_555
C16 C14 1_555 1_555
H16 C16 1_555 1_555
H17 C16 1_555 1_555
H18 C16 1_555 1_555
C17 C14 1_555 1_555
H19 C17 1_555 1_555
H20 C17 1_555 1_555
H21 C17 1_555 1_555
C18 N1 1_555 1_555
H22 C18 1_555 1_555
H23 C18 1_555 1_555
C19 C18 1_555 1_555
C20 C19 1_555 1_555
C21 C20 1_555 1_555
H24 C21 1_555 1_555
H25 C21 1_555 1_555
C22 C21 1_555 1_555
H26 C22 1_555 1_555
C23 N1 1_555 1_555
H27 C23 1_555 1_555
H28 C23 1_555 1_555
C24 C22 1_555 1_555
C25 C24 1_555 1_555
H29 C25 1_555 1_555
H30 C25 1_555 1_555
C26 C24 1_555 1_555
H31 C26 1_555 1_555
H32 C26 1_555 1_555
H33 C26 1_555 1_555
C27 Si1 1_555 1_555
C28 C27 1_555 1_555
H34 C28 1_555 1_555
C29 C28 1_555 1_555
H35 C29 1_555 1_555
C30 C29 1_555 1_555
H36 C30 1_555 1_555
C31 C30 1_555 1_555
H37 C31 1_555 1_555
C32 C27 1_555 1_555
H38 C32 1_555 1_555
C33 C19 1_555 1_555
H39 C33 1_555 1_555
H40 C33 1_555 1_555
H41 C33 1_555 1_555
S2 O5 1_555 1_555
Si2 O4 1_555 1_555
O4 C59 1_555 1_555
O6 S2 1_555 1_555
N2 S2 1_555 1_555
C34 Si2 1_555 1_555
C35 C34 1_555 1_555
H42 C35 1_555 1_555
C36 C35 1_555 1_555
H43 C36 1_555 1_555
C37 C36 1_555 1_555
H44 C37 1_555 1_555
C38 C37 1_555 1_555
H45 C38 1_555 1_555
C39 C34 1_555 1_555
H46 C39 1_555 1_555
C40 Si2 1_555 1_555
C41 C40 1_555 1_555
H47 C41 1_555 1_555
C42 C41 1_555 1_555
H48 C42 1_555 1_555
C43 C42 1_555 1_555
H49 C43 1_555 1_555
C44 C43 1_555 1_555
H50 C44 1_555 1_555
C45 C40 1_555 1_555
H51 C45 1_555 1_555
C46 S2 1_555 1_555
C47 C46 1_555 1_555
H52 C47 1_555 1_555
C48 C47 1_555 1_555
H53 C48 1_555 1_555
C49 C48 1_555 1_555
C50 C49 1_555 1_555
H54 C50 1_555 1_555
C51 C46 1_555 1_555
H55 C51 1_555 1_555
C52 C49 1_555 1_555
H56 C52 1_555 1_555
H57 C52 1_555 1_555
H58 C52 1_555 1_555
C53 Si2 1_555 1_555
C54 C53 1_555 1_555
H59 C54 1_555 1_555
H60 C54 1_555 1_555
H61 C54 1_555 1_555
C55 C53 1_555 1_555
H62 C55 1_555 1_555
H63 C55 1_555 1_555
H64 C55 1_555 1_555
C56 C53 1_555 1_555
H65 C56 1_555 1_555
H66 C56 1_555 1_555
H67 C56 1_555 1_555
C57 N2 1_555 1_555
H68 C57 1_555 1_555
H69 C57 1_555 1_555
C58 C57 1_555 1_555
C59 C58 1_555 1_555
C60 C59 1_555 1_555
H70 C60 1_555 1_555
H71 C60 1_555 1_555
C61 C60 1_555 1_555
H72 C61 1_555 1_555
C62 N2 1_555 1_555
H73 C62 1_555 1_555
H74 C62 1_555 1_555
C63 C58 1_555 1_555
H75 C63 1_555 1_555
H76 C63 1_555 1_555
H77 C63 1_555 1_555
C64 C61 1_555 1_555
C65 C64 1_555 1_555
H78 C65 1_555 1_555
H79 C65 1_555 1_555
H80 C65 1_555 1_555
C66 C64 1_555 1_555
H81 C66 1_555 1_555
H82 C66 1_555 1_555
C5 C6 1_555 1_555
C11 C12 1_555 1_555
C22 C23 1_555 1_555
C31 C32 1_555 1_555
C38 C39 1_555 1_555
C44 C45 1_555 1_555
C50 C51 1_555 1_555
C61 C62 1_555 1_555

#END
