
#######################################################################
#
#                 Cambridge Crystallographic Data Centre
#                                CCDC 
#
#######################################################################
#
# If this CIF has been generated from an entry in the Cambridge 
# Structural Database, then it will include bibliographic, chemical, 
# crystal, experimental, refinement or atomic coordinate data resulting 
# from the CCDC's data processing and validation procedures.
#
#######################################################################

data_BAZDAH
_chemical_formula_moiety         'C16 H10,C12 H4 Cl4 O2'
_chemical_name_systematic        "Pyrene 3,3',5,5'-tetrachloro-diphenoxinone"
_symmetry_cell_setting           monoclinic
_symmetry_space_group_name_H-M   'P 21/c'
_symmetry_Int_Tables_number      14
_space_group_name_Hall           '-P 2ybc'
loop_
_symmetry_equiv_pos_site_id
_symmetry_equiv_pos_as_xyz
1 x,y,z
2 -x,1/2+y,1/2-z
3 -x,-y,-z
4 x,1/2-y,1/2+z
_cell_length_a                   9.900(4)
_cell_length_b                   7.833(4)
_cell_length_c                   14.929(6)
_cell_angle_alpha                90
_cell_angle_beta                 106.72(2)
_cell_angle_gamma                90
_cell_volume                     1108.75
_cell_formula_units_Z            2
loop_
_atom_site_label
_atom_site_type_symbol
_atom_site_fract_x
_atom_site_fract_y
_atom_site_fract_z
Cl1 Cl 0.59540 0.06720 0.26164
Cl2 Cl 0.64812 -0.26375 0.58909
O1 O 0.50400 -0.13220 0.40090
C1 C 0.69960 -0.00330 0.36850
C2 C 0.62940 -0.09930 0.42610
C3 C 0.72390 -0.15120 0.51690
C4 C 0.86240 -0.11610 0.54360
C5 C 0.92830 -0.02020 0.48540
C6 C 0.83810 0.03220 0.39580
H1 H 0.91200 -0.15200 0.60100
H2 H 0.87400 0.09400 0.35200
C5B C 1.07170 0.02020 0.51460
C4B C 1.13760 0.11610 0.45640
C6B C 1.16190 -0.03220 0.60420
C3B C 1.27610 0.15120 0.48310
H1B H 1.08800 0.15200 0.39900
C1B C 1.30040 0.00330 0.63150
H2B H 1.12600 -0.09400 0.64800
Cl2B Cl 1.35188 0.26375 0.41091
C2B C 1.37060 0.09930 0.57390
Cl1B Cl 1.40460 -0.06720 0.73836
O1B O 1.49600 0.13220 0.59910
C7 C 0.97590 0.45390 0.53330
C8 C 1.07000 0.40860 0.62090
C9 C 1.01870 0.31280 0.68290
C10 C 0.87790 0.26690 0.66010
C11 C 0.78640 0.31150 0.57580
C12 C 0.83140 0.40390 0.51070
C13 C 0.74010 0.45130 0.42080
C14 C 1.21410 0.46120 0.64120
H3 H 1.08000 0.28600 0.73700
H4 H 0.85000 0.20200 0.70500
H5 H 0.69100 0.27700 0.56100
H6 H 0.64800 0.42000 0.40700
H7 H 1.27800 0.43000 0.70600
C7B C 1.02410 0.54610 0.46670
C14B C 0.78590 0.53880 0.35880
C13B C 1.25990 0.54870 0.57920
C8B C 0.93000 0.59140 0.37910
C12B C 1.16860 0.59610 0.48930
H7B H 0.72200 0.57000 0.29400
H6B H 1.35200 0.58000 0.59300
C9B C 0.98130 0.68720 0.31710
C11B C 1.21360 0.68850 0.42420
C10B C 1.12210 0.73310 0.33990
H3B H 0.92000 0.71400 0.26300
H5B H 1.30900 0.72300 0.43900
H4B H 1.15000 0.79800 0.29500
loop_
_geom_bond_atom_site_label_1
_geom_bond_atom_site_label_2
_geom_bond_site_symmetry_1
_geom_bond_site_symmetry_2
Cl1 C1 1_555 1_555
Cl2 C3 1_555 1_555
O1 C2 1_555 1_555
C1 C2 1_555 1_555
C2 C3 1_555 1_555
C3 C4 1_555 1_555
C4 C5 1_555 1_555
C5 C6 1_555 1_555
C6 C1 1_555 1_555
C7 C8 1_555 1_555
C8 C9 1_555 1_555
C9 C10 1_555 1_555
C10 C11 1_555 1_555
C11 C12 1_555 1_555
C12 C7 1_555 1_555
C13 C12 1_555 1_555
C14 C8 1_555 1_555
H1 C4 1_555 1_555
H2 C6 1_555 1_555
H3 C9 1_555 1_555
H4 C10 1_555 1_555
H5 C11 1_555 1_555
H6 C13 1_555 1_555
H7 C14 1_555 1_555
C5B C5 1_555 1_555
C4B C5B 1_555 1_555
C6B C5B 1_555 1_555
C3B C4B 1_555 1_555
H1B C4B 1_555 1_555
C1B C6B 1_555 1_555
H2B C6B 1_555 1_555
Cl2B C3B 1_555 1_555
C2B C3B 1_555 1_555
Cl1B C1B 1_555 1_555
O1B C2B 1_555 1_555
C7B C7 1_555 1_555
C14B C13 1_555 1_555
C13B C14 1_555 1_555
C8B C7B 1_555 1_555
C12B C7B 1_555 1_555
H7B C14B 1_555 1_555
H6B C13B 1_555 1_555
C9B C8B 1_555 1_555
C11B C12B 1_555 1_555
C10B C9B 1_555 1_555
H3B C9B 1_555 1_555
H5B C11B 1_555 1_555
H4B C10B 1_555 1_555
C1B C2B 1_555 1_555
C14B C8B 1_555 1_555
C13B C12B 1_555 1_555
C11B C10B 1_555 1_555

#END
