
#######################################################################
#
#                 Cambridge Crystallographic Data Centre
#                                CCDC 
#
#######################################################################
#
# If this CIF has been generated from an entry in the Cambridge 
# Structural Database, then it will include bibliographic, chemical, 
# crystal, experimental, refinement or atomic coordinate data resulting 
# from the CCDC's data processing and validation procedures.
#
#######################################################################

data_BAZFUG
_chemical_formula_moiety         'C11 H12 O1 S1'
_chemical_name_systematic        
2,6-dimethyl-2,3-dihydro-4H-1-benzothiopyran-4-one
_symmetry_cell_setting           orthorhombic
_symmetry_space_group_name_H-M   'P 21 21 21'
_symmetry_Int_Tables_number      19
_space_group_name_Hall           'P 2ac 2ab'
loop_
_symmetry_equiv_pos_site_id
_symmetry_equiv_pos_as_xyz
1 x,y,z
2 1/2-x,-y,1/2+z
3 -x,1/2+y,1/2-z
4 1/2+x,1/2-y,-z
_cell_length_a                   7.9966(4)
_cell_length_b                   10.5907(6)
_cell_length_c                   11.7348(6)
_cell_angle_alpha                90
_cell_angle_beta                 90
_cell_angle_gamma                90
_cell_volume                     993.815
_exptl_crystal_colour            colorless
_exptl_crystal_description       block
_cell_formula_units_Z            4
loop_
_atom_site_label
_atom_site_type_symbol
_atom_site_fract_x
_atom_site_fract_y
_atom_site_fract_z
S1 S 0.41830(5) 0.12314(3) 0.61983(3)
O1 O 0.34459(19) 0.49954(11) 0.46733(11)
C1 C 0.39916(17) 0.16058(13) 0.47557(11)
C2 C 0.37348(16) 0.28155(13) 0.43307(11)
C3 C 0.35468(17) 0.29820(14) 0.31561(13)
H1 H 0.3324 0.3788 0.2881
C4 C 0.36767(17) 0.20055(16) 0.23903(12)
C5 C 0.39783(19) 0.08060(15) 0.28285(13)
H2 H 0.4077 0.0127 0.2330
C6 C 0.4134(2) 0.06008(13) 0.39823(12)
H3 H 0.4335 -0.0211 0.4252
C7 C 0.3706(2) 0.39548(13) 0.50691(14)
C8 C 0.4082(2) 0.38017(14) 0.63133(12)
H4 H 0.3680 0.4540 0.6718
H5 H 0.5284 0.3760 0.6415
C9 C 0.32946(18) 0.26284(15) 0.68360(12)
H6 H 0.2090 0.2641 0.6684
C10 C 0.3571(3) 0.2558(2) 0.81178(15)
H7 H 0.3107 0.3295 0.8473
H8 H 0.4748 0.2516 0.8274
H9 H 0.3032 0.1818 0.8415
C11 C 0.3495(3) 0.2202(2) 0.11153(13)
H10 H 0.3296 0.3080 0.0962
H11 H 0.2572 0.1711 0.0838
H12 H 0.4503 0.1940 0.0739
loop_
_geom_bond_atom_site_label_1
_geom_bond_atom_site_label_2
_geom_bond_site_symmetry_1
_geom_bond_site_symmetry_2
S1 C1 1_555 1_555
O1 C7 1_555 1_555
C1 C2 1_555 1_555
C2 C3 1_555 1_555
C3 H1 1_555 1_555
C4 C3 1_555 1_555
C5 C4 1_555 1_555
H2 C5 1_555 1_555
C6 C1 1_555 1_555
H3 C6 1_555 1_555
C7 C2 1_555 1_555
C8 C7 1_555 1_555
H4 C8 1_555 1_555
H5 C8 1_555 1_555
C9 S1 1_555 1_555
H6 C9 1_555 1_555
C10 C9 1_555 1_555
H7 C10 1_555 1_555
H8 C10 1_555 1_555
H9 C10 1_555 1_555
C11 C4 1_555 1_555
H10 C11 1_555 1_555
H11 C11 1_555 1_555
H12 C11 1_555 1_555
C5 C6 1_555 1_555
C8 C9 1_555 1_555

#END
