
#######################################################################
#
#                 Cambridge Crystallographic Data Centre
#                                CCDC 
#
#######################################################################
#
# If this CIF has been generated from an entry in the Cambridge 
# Structural Database, then it will include bibliographic, chemical, 
# crystal, experimental, refinement or atomic coordinate data resulting 
# from the CCDC's data processing and validation procedures.
#
#######################################################################

data_BAZQAU
_chemical_compound_source        
'New Zealand deep-water sponge Lamellomorpha strongylata'
_chemical_formula_moiety         'C71 H127 N13 O16,18(H2 O1)'
_chemical_name_systematic        'Theonellapeptolide IIIe octadecahydrate'
_chemical_properties_biological  'cyctotoxic activity'
_symmetry_cell_setting           orthorhombic
_symmetry_space_group_name_H-M   'P 21 21 21'
_symmetry_Int_Tables_number      19
_space_group_name_Hall           'P 2ac 2ab'
loop_
_symmetry_equiv_pos_site_id
_symmetry_equiv_pos_as_xyz
1 x,y,z
2 1/2-x,-y,1/2+z
3 1/2+x,1/2-y,-z
4 -x,1/2+y,1/2-z
_cell_length_a                   12.507(3)
_cell_length_b                   19.573(4)
_cell_length_c                   41.416(8)
_cell_angle_alpha                90
_cell_angle_beta                 90
_cell_angle_gamma                90
_cell_volume                     10138.6
_exptl_crystal_colour            colorless
_exptl_crystal_description       'irregular chunk'
_chemical_melting_point          184-186deg.C
_cell_formula_units_Z            4
_exptl_crystal_recrystallization_method acetone/water
loop_
_atom_site_label
_atom_site_type_symbol
_atom_site_fract_x
_atom_site_fract_y
_atom_site_fract_z
O1 O 0.1685(6) 0.1091(3) 0.1629(2)
C1 C 0.2380(10) 0.0760(5) 0.1508(2)
C2 C 0.3037(7) 0.0217(4) 0.1684(2)
C3 C 0.2506(8) 0.0007(5) 0.1999(2)
C4 C 0.3110(10) -0.0535(7) 0.2201(3)
C5 C 0.4170(10) -0.0270(10) 0.2327(4)
C6 C 0.2400(10) -0.0800(10) 0.2455(3)
N1 N 0.3206(6) -0.0376(3) 0.1465(2)
C7 C 0.4346(8) -0.0548(6) 0.1394(3)
H1 H 0.4390(10) -0.0770(40) 0.1190(10)
H2 H 0.4620(20) -0.0850(30) 0.1560(10)
H3 H 0.4760(10) -0.0137(7) 0.1390(20)
O2 O 0.1470(5) -0.0395(3) 0.1345(1)
C8 C 0.2367(7) -0.0642(4) 0.1312(2)
C9 C 0.2532(6) -0.1285(4) 0.1116(2)
C10 C 0.2454(8) -0.1914(5) 0.1347(2)
C11 C 0.2800(10) -0.2585(5) 0.1195(2)
C12 C 0.4010(10) -0.2648(6) 0.1165(3)
C13 C 0.2340(10) -0.3201(5) 0.1391(3)
N2 N 0.1719(5) -0.1353(3) 0.0864(2)
O3 O 0.2691(5) -0.0884(3) 0.0463(1)
C14 C 0.1854(7) -0.1174(4) 0.0561(2)
C15 C 0.0939(6) -0.1304(4) 0.0331(2)
C16 C 0.0229(7) -0.0687(4) 0.0287(2)
N3 N 0.0315(6) -0.1915(4) 0.0428(2)
O4 O 0.1699(5) -0.2610(3) 0.0374(1)
C17 C 0.0754(8) -0.2508(5) 0.0440(2)
C18 C 0.0098(7) -0.3117(4) 0.0579(2)
C19 C 0.0520(10) -0.3806(5) 0.0445(3)
N4 N -0.1064(6) -0.3039(4) 0.0529(2)
C20 C -0.1424(8) -0.3127(5) 0.0193(2)
H4 H -0.1900(40) -0.2760(20) 0.0136(5)
H5 H -0.1790(50) -0.3560(20) 0.0172(4)
H6 H -0.0820(10) -0.3120(30) 0.0051(3)
O5 O -0.2769(6) -0.3093(3) 0.0701(2)
C21 C -0.1803(8) -0.3029(4) 0.0762(2)
C22 C -0.1473(8) -0.2929(4) 0.1121(2)
C23 C -0.1830(10) -0.3531(5) 0.1333(3)
C24 C -0.1340(10) -0.4188(5) 0.1196(3)
C25 C -0.1400(20) -0.3400(7) 0.1691(3)
C26 C -0.1800(20) -0.3940(10) 0.1927(4)
N5 N -0.1921(6) -0.2258(4) 0.1219(2)
C27 C -0.3070(10) -0.2191(7) 0.1273(4)
H7 H -0.3260(20) -0.1716(7) 0.1280(30)
H8 H -0.3260(20) -0.2410(50) 0.1470(20)
H9 H -0.3450(10) -0.2400(60) 0.1100(20)
O6 O -0.0271(5) -0.1793(3) 0.1167(1)
C28 C -0.1230(10) -0.1716(5) 0.1234(2)
C29 C -0.1650(10) -0.1042(5) 0.1364(2)
C30 C -0.1680(10) -0.1076(6) 0.1738(3)
C31 C -0.0540(10) -0.1108(8) 0.1889(3)
C32 C -0.2380(20) -0.0437(7) 0.1862(4)
C33 C -0.2930(20) -0.0460(10) 0.2090(10)
N6 N -0.0975(6) -0.0494(4) 0.1249(2)
O7 O -0.2366(6) 0.0142(4) 0.1063(2)
C34 C -0.1400(10) 0.0066(5) 0.1098(2)
C35 C -0.0611(8) 0.0563(5) 0.0958(2)
C36 C -0.0930(10) 0.1318(5) 0.0999(3)
N7 N -0.0574(8) 0.1612(6) 0.1304(3)
O8 O -0.1820(10) 0.1267(7) 0.1600(2)
C37 C -0.1020(10) 0.1615(6) 0.1570(3)
C38 C -0.0531(8) 0.2009(5) 0.1851(2)
C39 C -0.1040(10) 0.1839(6) 0.2171(3)
C40 C -0.0620(20) 0.1077(6) 0.2269(3)
C41 C -0.0740(10) 0.2341(6) 0.2445(3)
C42 C -0.1310(20) 0.2219(8) 0.2755(3)
N8 N -0.0544(6) 0.2743(4) 0.1765(2)
C43 C -0.1610(10) 0.3056(8) 0.1728(3)
H10 H -0.1570(20) 0.3540(10) 0.1770(20)
H11 H -0.2110(20) 0.2840(30) 0.1870(20)
H12 H -0.1860(40) 0.2990(40) 0.1510(7)
O9 O 0.1229(6) 0.2800(3) 0.1737(2)
C44 C 0.0360(10) 0.3083(5) 0.1705(2)
C45 C 0.0360(10) 0.3830(5) 0.1604(2)
C46 C 0.0720(20) 0.4280(6) 0.1893(3)
C47 C 0.0920(20) 0.5048(6) 0.1767(3)
C48 C 0.0240(20) 0.4240(8) 0.2155(4)
N9 N 0.1130(6) 0.3932(4) 0.1345(2)
O10 O -0.0074(6) 0.4178(4) 0.0962(2)
C49 C 0.0866(8) 0.4111(5) 0.1053(2)
C50 C 0.1770(8) 0.4243(5) 0.0821(3)
C51 C 0.1980(10) 0.3671(5) 0.0577(3)
N10 N 0.2593(6) 0.3110(4) 0.0717(2)
C52 C 0.3758(8) 0.3204(6) 0.0707(3)
H13 H 0.4060(10) 0.3100(40) 0.0914(6)
H14 H 0.3919(8) 0.3670(10) 0.0650(20)
H15 H 0.4060(10) 0.2910(30) 0.0550(10)
O11 O 0.1094(6) 0.2526(3) 0.0861(2)
C53 C 0.2080(10) 0.2572(5) 0.0851(2)
C54 C 0.2776(8) 0.2039(4) 0.1022(2)
C55 C 0.2229(8) 0.1332(4) 0.1004(2)
C56 C 0.2260(10) 0.1018(6) 0.0664(3)
N11 N 0.2933(6) 0.2282(3) 0.1351(2)
O12 O 0.2799(5) 0.0869(3) 0.1215(2)
O13 O 0.4741(6) 0.2156(4) 0.1370(2)
C57 C 0.3850(10) 0.2354(5) 0.1492(2)
C58 C 0.3833(7) 0.2698(4) 0.1823(2)
C59 C 0.4050(8) 0.2189(5) 0.2093(2)
C60 C 0.3900(10) 0.2475(6) 0.2429(2)
C61 C 0.4430(10) 0.2010(10) 0.2686(3)
C62 C 0.2720(10) 0.2568(8) 0.2508(3)
N12 N 0.4599(5) 0.3284(4) 0.1819(2)
C63 C 0.5714(7) 0.3149(5) 0.1892(2)
H16 H 0.6130(10) 0.3560(10) 0.1860(10)
H17 H 0.5980(20) 0.2800(20) 0.1750(10)
H18 H 0.5780(10) 0.3000(30) 0.2113(5)
O14 O 0.3337(6) 0.3897(3) 0.1559(2)
C64 C 0.4245(8) 0.3865(5) 0.1677(2)
C65 C 0.5000(7) 0.4474(4) 0.1636(2)
C66 C 0.4429(8) 0.5148(5) 0.1638(2)
C67 C 0.5180(10) 0.5743(5) 0.1569(3)
C68 C 0.3890(10) 0.5251(6) 0.1972(3)
N13 N 0.5597(7) 0.4349(4) 0.1341(2)
O15 O 0.7260(5) 0.4436(3) 0.1567(2)
C69 C 0.6680(10) 0.4357(5) 0.1323(2)
C70 C 0.7149(8) 0.4227(5) 0.0996(2)
O16 O 0.6533(6) 0.3779(4) 0.0797(2)
C71 C 0.6670(10) 0.3060(6) 0.0885(3)
H19 H 0.3741(6) 0.0414(4) 0.1736(2)
H20 H 0.1800(7) -0.0175(4) 0.1948(2)
H21 H 0.2402(7) 0.0410(4) 0.2130(2)
H22 H 0.3275(9) -0.0916(6) 0.2056(2)
H23 H 0.4516(48) -0.0621(22) 0.2447(26)
H24 H 0.4039(1) 0.0119(40) 0.2463(25)
H25 H 0.4607(41) -0.0134(62) 0.2147(4)
H26 H 0.1772(47) -0.0997(55) 0.2359(3)
H27 H 0.2195(76) -0.0437(14) 0.2598(17)
H28 H 0.2769(36) -0.1148(44) 0.2577(19)
H29 H 0.3239(5) -0.1277(3) 0.1014(2)
H30 H 0.2903(7) -0.1827(4) 0.1533(2)
H31 H 0.1725(7) -0.1956(4) 0.1420(2)
H32 H 0.2495(7) -0.2609(4) 0.0975(2)
H33 H 0.4295(12) -0.2230(20) 0.1072(21)
H34 H 0.4196(10) -0.3023(30) 0.1029(19)
H35 H 0.4319(11) -0.2708(48) 0.1375(4)
H36 H 0.1581(15) -0.3140(24) 0.1418(18)
H37 H 0.2672(52) -0.3206(27) 0.1601(8)
H38 H 0.2482(63) -0.3617(6) 0.1281(11)
H39 H 0.1105(4) -0.1523(3) 0.0918(1)
H40 H 0.1249(5) -0.1408(3) 0.0117(2)
H41 H -0.0289(28) -0.0767(11) 0.0123(9)
H42 H 0.0664(9) -0.0299(7) 0.0230(13)
H43 H -0.0127(34) -0.0590(17) 0.0489(4)
H44 H -0.0356(4) -0.1869(3) 0.0478(1)
H45 H 0.0223(6) -0.3127(4) 0.0812(2)
H46 H 0.0043(38) -0.4170(7) 0.0511(17)
H47 H 0.1219(27) -0.3894(20) 0.0523(16)
H48 H 0.0525(61) -0.3789(15) 0.0212(3)
H49 H -0.0697(7) -0.2895(4) 0.1129(2)
H50 H -0.2606(9) -0.3576(5) 0.1332(2)
H51 H -0.1542(51) -0.4238(21) 0.0973(6)
H52 H -0.1573(49) -0.4573(6) 0.1317(12)
H53 H -0.0566(10) -0.4157(17) 0.1208(17)
H54 H -0.0634(18) -0.3392(7) 0.1690(3)
H55 H -0.1660(18) -0.2956(7) 0.1762(3)
H56 H -0.1458(92) -0.3887(48) 0.2134(11)
H57 H -0.163(11) -0.4396(10) 0.1847(18)
H58 H -0.2562(24) -0.3914(49) 0.1956(28)
H59 H -0.2373(8) -0.0972(4) 0.1285(2)
H60 H -0.2056(11) -0.1491(5) 0.1798(3)
H61 H -0.0600(14) -0.1082(55) 0.2120(3)
H62 H -0.0122(30) -0.0729(30) 0.1813(20)
H63 H -0.0204(34) -0.1527(24) 0.1829(21)
H64 H -0.2339(16) -0.0035(6) 0.1742(3)
H65 H -0.275(32) -0.008(18) 0.2227(68)
H66 H -0.281(35) -0.087(14) 0.2203(80)
H67 H -0.3657(28) -0.042(30) 0.2023(13)
H68 H -0.0296(5) -0.0518(3) 0.1275(2)
H69 H -0.0533(7) 0.0467(4) 0.0728(2)
H70 H 0.0082(7) 0.0488(4) 0.1058(2)
H71 H -0.0620(8) 0.1585(4) 0.0825(2)
H72 H -0.1697(8) 0.1361(4) 0.0986(2)
H73 H 0.0039(7) 0.1810(5) 0.1299(3)
H74 H 0.0226(8) 0.1872(4) 0.1862(2)
H75 H -0.1808(10) 0.1828(5) 0.2148(2)
H76 H -0.0477(95) 0.0824(22) 0.2072(3)
H77 H -0.1167(41) 0.0848(23) 0.2388(25)
H78 H 0.0018(55) 0.1110(6) 0.2393(25)
H79 H 0.0034(10) 0.2298(5) 0.2488(2)
H80 H -0.0867(10) 0.2799(5) 0.2374(2)
H81 H -0.1014(69) 0.2503(49) 0.2921(8)
H82 H -0.1252(85) 0.1748(17) 0.2817(16)
H83 H -0.2055(26) 0.2333(61) 0.2727(9)
H84 H -0.0347(8) 0.3963(4) 0.1530(2)
H85 H 0.1434(19) 0.4118(5) 0.1945(3)
H86 H 0.112(13) 0.5328(20) 0.1948(7)
H87 H 0.0298(41) 0.5216(30) 0.1667(34)
H88 H 0.1507(84) 0.5035(13) 0.1615(29)
H89 H 0.057(10) 0.3896(77) 0.2288(20)
H90 H -0.0495(44) 0.412(11) 0.2119(4)
H91 H 0.027(15) 0.4671(32) 0.2267(24)
H92 H 0.1801(6) 0.3869(3) 0.1387(2)
H93 H 0.2429(7) 0.4314(4) 0.0943(2)
H94 H 0.1632(7) 0.4663(4) 0.0703(2)
H95 H 0.1285(8) 0.3497(5) 0.0504(2)
H96 H 0.3477(7) 0.2009(4) 0.0913(2)
H97 H 0.1482(7) 0.1378(4) 0.1076(2)
H98 H 0.1938(59) 0.0571(17) 0.0675(5)
H99 H 0.2979(11) 0.0984(37) 0.0595(8)
H100 H 0.1855(53) 0.1300(22) 0.0521(5)
H101 H 0.2367(5) 0.2384(3) 0.1458(2)
H102 H 0.3117(6) 0.2879(4) 0.1858(2)
H103 H 0.3588(8) 0.1798(4) 0.2068(2)
H104 H 0.4786(8) 0.2029(4) 0.2076(2)
H105 H 0.4239(9) 0.2927(5) 0.2439(2)
H106 H 0.5195(12) 0.2031(44) 0.2661(18)
H107 H 0.4195(69) 0.1547(12) 0.2655(17)
H108 H 0.4239(72) 0.2161(35) 0.2898(3)
H109 H 0.2392(22) 0.2857(44) 0.2348(14)
H110 H 0.2647(11) 0.2779(48) 0.2717(11)
H111 H 0.5516(6) 0.4468(4) 0.1817(2)
H112 H 0.3874(7) 0.5142(4) 0.1471(2)
H113 H 0.5332(49) 0.5755(24) 0.1342(4)
H114 H 0.5827(26) 0.5681(21) 0.1688(15)
H115 H 0.4842(26) 0.6162(6) 0.1633(17)
H116 H 0.3399(45) 0.5635(24) 0.1961(6)
H117 H 0.4414(10) 0.5340(38) 0.2133(4)
H118 H 0.3487(49) 0.4849(15) 0.2028(9)
H119 H 0.5244(5) 0.4270(3) 0.1166(2)
H120 H 0.7238(7) 0.4652(4) 0.0884(2)
H121 H 0.7855(7) 0.4021(4) 0.1023(2)
H122 H 0.6251(54) 0.2782(6) 0.0747(13)
H123 H 0.6442(64) 0.3001(10) 0.1106(7)
H124 H 0.7411(15) 0.2942(13) 0.0868(20)
O17 O 0.2596(5) -0.0025(3) -0.0085(2)
O18 O -0.4710(6) -0.2647(4) 0.0374(2)
O19 O -0.0612(6) 0.4349(4) 0.0331(2)
O20 O 0.2964(6) 0.5198(4) 0.0248(2)
O21 O 0.6108(6) 0.3975(4) 0.0144(2)
O22 O 0.3417(6) -0.3416(4) 0.0248(2)
O23 O -0.1979(6) -0.1534(4) 0.0466(2)
O24 O -0.0962(7) 0.0792(4) 0.0109(2)
O25 O 0.4790(10) -0.1336(6) 0.0585(3)
O26 O 0.7890(10) 0.1940(10) 0.0260(4)
O27 O 0.6230(20) 0.2600(10) -0.0013(5)
O28 O 0.6050(20) 0.1290(10) 0.0945(5)
O29 O 0.9380(20) 0.3120(10) -0.0059(5)
O30 O -0.3538(8) -0.0501(5) 0.0574(2)
O31 O -0.4160(10) 0.1024(7) 0.1719(3)
O32? O -0.3712(6) -0.4359(4) 0.0566(2)
O33? O 0.4452(7) 0.4941(4) 0.0772(2)
O34? O 1.1017(8) 0.4768(5) -0.0051(2)
O35? O -0.3600(20) -0.1010(10) 0.0922(5)
O36? O -0.530(10) 0.0930(60) 0.0890(30)
O37? O 0.6560(30) 0.1430(20) 0.0370(10)
H125? H 0.4387(10) -0.0794(33) 0.1194(9)
H126? H 0.4618(18) -0.0841(30) 0.1565(9)
H127? H 0.4766(13) -0.0144(6) 0.1384(17)
H128? H -0.1922(39) -0.2768(19) 0.0138(5)
H129? H -0.1776(45) -0.3560(15) 0.0170(4)
H130? H -0.0825(10) -0.3106(32) 0.0049(2)
H131? H -0.3249(17) -0.1711(7) 0.1291(30)
H132? H -0.3269(18) -0.2420(52) 0.1468(16)
H133? H -0.3454(8) -0.2382(56) 0.1094(14)
H134? H -0.1573(16) 0.3532(11) 0.1770(21)
H135? H -0.2105(19) 0.2843(33) 0.1876(16)
H136? H -0.1866(32) 0.2980(41) 0.1510(7)
H137? H 0.2345(8) 0.3853(5) 0.0391(2)
H138? H 0.4045(9) 0.3103(36) 0.0917(5)
H139? H 0.3922(7) 0.3660(11) 0.0648(17)
H140? H 0.4054(9) 0.2889(26) 0.0552(13)
H141? H 0.2371(20) 0.2133(9) 0.2509(24)
H142? H 0.6127(9) 0.3553(9) 0.1857(13)
H143? H 0.5974(14) 0.2790(20) 0.1753(9)
H144? H 0.5784(8) 0.3005(27) 0.2113(4)
loop_
_geom_bond_atom_site_label_1
_geom_bond_atom_site_label_2
_geom_bond_site_symmetry_1
_geom_bond_site_symmetry_2
O1 C1 1_555 1_555
C1 C2 1_555 1_555
C2 C3 1_555 1_555
C3 C4 1_555 1_555
C4 C5 1_555 1_555
C5 H23 1_555 1_555
C6 C4 1_555 1_555
N1 C2 1_555 1_555
C7 N1 1_555 1_555
H1 C7 1_555 1_555
H2 C7 1_555 1_555
H3 C7 1_555 1_555
O2 C8 1_555 1_555
C8 N1 1_555 1_555
C9 C8 1_555 1_555
C10 C9 1_555 1_555
C11 C10 1_555 1_555
C12 C11 1_555 1_555
C13 C11 1_555 1_555
N2 C9 1_555 1_555
O3 C14 1_555 1_555
C14 N2 1_555 1_555
C15 C14 1_555 1_555
C16 C15 1_555 1_555
N3 C15 1_555 1_555
O4 C17 1_555 1_555
C17 N3 1_555 1_555
C18 C17 1_555 1_555
C19 C18 1_555 1_555
N4 C18 1_555 1_555
C20 N4 1_555 1_555
H4 C20 1_555 1_555
H5 C20 1_555 1_555
H6 C20 1_555 1_555
O5 C21 1_555 1_555
C21 N4 1_555 1_555
C22 C21 1_555 1_555
C23 C22 1_555 1_555
C24 C23 1_555 1_555
C25 C23 1_555 1_555
C26 C25 1_555 1_555
N5 C22 1_555 1_555
C27 N5 1_555 1_555
H7 C27 1_555 1_555
H8 C27 1_555 1_555
H9 C27 1_555 1_555
O6 C28 1_555 1_555
C28 N5 1_555 1_555
C29 C28 1_555 1_555
C30 C29 1_555 1_555
C31 C30 1_555 1_555
C32 C30 1_555 1_555
C33 C32 1_555 1_555
N6 C29 1_555 1_555
O7 C34 1_555 1_555
C34 N6 1_555 1_555
C35 C34 1_555 1_555
C36 C35 1_555 1_555
N7 C36 1_555 1_555
O8 C37 1_555 1_555
C37 N7 1_555 1_555
C38 C37 1_555 1_555
C39 C38 1_555 1_555
C40 C39 1_555 1_555
C41 C39 1_555 1_555
C42 C41 1_555 1_555
N8 C38 1_555 1_555
C43 N8 1_555 1_555
H10 C43 1_555 1_555
H11 C43 1_555 1_555
H12 C43 1_555 1_555
O9 C44 1_555 1_555
C44 N8 1_555 1_555
C45 C44 1_555 1_555
C46 C45 1_555 1_555
C47 C46 1_555 1_555
C48 C46 1_555 1_555
N9 C45 1_555 1_555
O10 C49 1_555 1_555
C49 N9 1_555 1_555
C50 C49 1_555 1_555
C51 C50 1_555 1_555
N10 C51 1_555 1_555
C52 N10 1_555 1_555
H13 C52 1_555 1_555
H14 C52 1_555 1_555
H15 C52 1_555 1_555
O11 C53 1_555 1_555
C53 N10 1_555 1_555
C54 C53 1_555 1_555
C55 C54 1_555 1_555
C56 C55 1_555 1_555
N11 C54 1_555 1_555
O12 C1 1_555 1_555
O13 C57 1_555 1_555
C57 N11 1_555 1_555
C58 C57 1_555 1_555
C59 C58 1_555 1_555
C60 C59 1_555 1_555
C61 C60 1_555 1_555
C62 C60 1_555 1_555
N12 C58 1_555 1_555
C63 N12 1_555 1_555
H16 C63 1_555 1_555
H17 C63 1_555 1_555
H18 C63 1_555 1_555
O14 C64 1_555 1_555
C64 N12 1_555 1_555
C65 C64 1_555 1_555
C66 C65 1_555 1_555
C67 C66 1_555 1_555
C68 C66 1_555 1_555
N13 C65 1_555 1_555
O15 C69 1_555 1_555
C69 N13 1_555 1_555
C70 C69 1_555 1_555
O16 C70 1_555 1_555
C71 O16 1_555 1_555
H19 C2 1_555 1_555
H20 C3 1_555 1_555
H21 C3 1_555 1_555
H22 C4 1_555 1_555
H24 C5 1_555 1_555
H25 C5 1_555 1_555
H26 C6 1_555 1_555
H27 C6 1_555 1_555
H28 C6 1_555 1_555
H29 C9 1_555 1_555
H30 C10 1_555 1_555
H31 C10 1_555 1_555
H32 C11 1_555 1_555
H33 C12 1_555 1_555
H34 C12 1_555 1_555
H35 C12 1_555 1_555
H36 C13 1_555 1_555
H37 C13 1_555 1_555
H38 C13 1_555 1_555
H39 N2 1_555 1_555
H40 C15 1_555 1_555
H41 C16 1_555 1_555
H42 C16 1_555 1_555
H43 C16 1_555 1_555
H44 N3 1_555 1_555
H45 C18 1_555 1_555
H46 C19 1_555 1_555
H47 C19 1_555 1_555
H48 C19 1_555 1_555
H49 C22 1_555 1_555
H50 C23 1_555 1_555
H51 C24 1_555 1_555
H52 C24 1_555 1_555
H53 C24 1_555 1_555
H54 C25 1_555 1_555
H55 C25 1_555 1_555
H56 C26 1_555 1_555
H57 C26 1_555 1_555
H58 C26 1_555 1_555
H59 C29 1_555 1_555
H60 C30 1_555 1_555
H61 C31 1_555 1_555
H62 C31 1_555 1_555
H63 C31 1_555 1_555
H64 C32 1_555 1_555
H65 C33 1_555 1_555
H66 C33 1_555 1_555
H67 C33 1_555 1_555
H68 N6 1_555 1_555
H69 C35 1_555 1_555
H70 C35 1_555 1_555
H71 C36 1_555 1_555
H72 C36 1_555 1_555
H73 N7 1_555 1_555
H74 C38 1_555 1_555
H75 C39 1_555 1_555
H76 C40 1_555 1_555
H77 C40 1_555 1_555
H78 C40 1_555 1_555
H79 C41 1_555 1_555
H80 C41 1_555 1_555
H81 C42 1_555 1_555
H82 C42 1_555 1_555
H83 C42 1_555 1_555
H84 C45 1_555 1_555
H85 C46 1_555 1_555
H86 C47 1_555 1_555
H87 C47 1_555 1_555
H88 C47 1_555 1_555
H89 C48 1_555 1_555
H90 C48 1_555 1_555
H91 C48 1_555 1_555
H92 N9 1_555 1_555
H93 C50 1_555 1_555
H94 C50 1_555 1_555
H95 C51 1_555 1_555
H96 C54 1_555 1_555
H97 C55 1_555 1_555
H98 C56 1_555 1_555
H99 C56 1_555 1_555
H100 C56 1_555 1_555
H101 N11 1_555 1_555
H102 C58 1_555 1_555
H103 C59 1_555 1_555
H104 C59 1_555 1_555
H105 C60 1_555 1_555
H106 C61 1_555 1_555
H107 C61 1_555 1_555
H108 C61 1_555 1_555
H109 C62 1_555 1_555
H110 C62 1_555 1_555
H111 C65 1_555 1_555
H112 C66 1_555 1_555
H113 C67 1_555 1_555
H114 C67 1_555 1_555
H115 C67 1_555 1_555
H116 C68 1_555 1_555
H117 C68 1_555 1_555
H118 C68 1_555 1_555
H119 N13 1_555 1_555
H120 C70 1_555 1_555
H121 C70 1_555 1_555
H122 C71 1_555 1_555
H123 C71 1_555 1_555
H124 C71 1_555 1_555
C55 O12 1_555 1_555

#END
