
#######################################################################
#
#                 Cambridge Crystallographic Data Centre
#                                CCDC 
#
#######################################################################
#
# If this CIF has been generated from an entry in the Cambridge 
# Structural Database, then it will include bibliographic, chemical, 
# crystal, experimental, refinement or atomic coordinate data resulting 
# from the CCDC's data processing and validation procedures.
#
#######################################################################

data_BAZWUW
_chemical_formula_moiety         'C18 H18 Br1 N1 O3 S1'
_chemical_name_systematic        
4-(2-(4-Bromophenyl)vinyl)-2-((4-methylphenyl)sulfonyl)-1,2-oxazolidine
_symmetry_cell_setting           monoclinic
_symmetry_space_group_name_H-M   'P 21/n'
_symmetry_Int_Tables_number      14
_space_group_name_Hall           '-P 2yn'
loop_
_symmetry_equiv_pos_site_id
_symmetry_equiv_pos_as_xyz
1 x,y,z
2 1/2-x,1/2+y,1/2-z
3 -x,-y,-z
4 1/2+x,1/2-y,1/2+z
_cell_length_a                   11.4860(17)
_cell_length_b                   7.4766(11)
_cell_length_c                   20.639(3)
_cell_angle_alpha                90
_cell_angle_beta                 95.970(3)
_cell_angle_gamma                90
_cell_volume                     1762.79
_exptl_crystal_colour            colorless
_exptl_crystal_description       prismatic
_chemical_melting_point          '164-166 deg.C'
_cell_formula_units_Z            4
loop_
_atom_site_label
_atom_site_type_symbol
_atom_site_fract_x
_atom_site_fract_y
_atom_site_fract_z
Br1 Br 0.9569(3) 0.7676(6) 0.44278(14)
S1 S 0.91020(11) 0.88921(19) -0.10071(6)
O1 O 0.8923(4) 1.0789(5) -0.09662(17)
O2 O 1.0163(3) 0.8163(6) -0.07023(16)
O3 O 0.8000(3) 0.6117(5) -0.07474(16)
N1 N 0.7890(3) 0.8028(6) -0.07334(17)
C1 C 0.7771(5) 0.8532(7) -0.0048(2)
H1 H 0.7055 0.9201 -0.0020
H2 H 0.8429 0.9262 0.0126
C2 C 0.7744(10) 0.6717(15) 0.0341(4)
H3 H 0.6936 0.6297 0.0340
C3 C 0.8438(18) 0.544(3) -0.0070(10)
H4 H 0.9277 0.5596 0.0024
H5 H 0.8234 0.4199 -0.0010
C4 C 0.8288(5) 0.6931(7) 0.1018(2)
H6 H 0.9047 0.7377 0.1070
C5 C 0.7827(6) 0.6568(10) 0.1539(3)
H7 H 0.7086 0.6056 0.1471
C6 C 0.8268(17) 0.682(2) 0.2237(9)
C7 C 0.9381(13) 0.7530(17) 0.2407(6)
H8 H 0.9869 0.7816 0.2090
C8 C 0.975(2) 0.780(4) 0.3077(14)
H9 H 1.0460 0.8358 0.3204
C9 C 0.797(2) 0.661(4) 0.3386(9)
H10 H 0.7486 0.6346 0.3708
C10 C 0.7604(15) 0.634(2) 0.2725(9)
H11 H 0.6877 0.5817 0.2611
C11 C 0.9058(5) 0.7255(7) 0.3531(2)
C12 C 0.8965(4) 0.8260(6) -0.1829(2)
C13 C 0.8046(4) 0.8947(6) -0.2250(2)
H12 H 0.7459 0.9619 -0.2090
C14 C 0.8023(4) 0.8615(6) -0.2903(2)
H13 H 0.7401 0.9045 -0.3185
C15 C 0.8900(4) 0.7659(6) -0.3154(2)
C16 C 0.9773(4) 0.6948(7) -0.2724(2)
H14 H 1.0355 0.6259 -0.2882
C17 C 0.9802(4) 0.7239(7) -0.2061(2)
H15 H 1.0393 0.6735 -0.1776
C18 C 0.8915(6) 0.7395(8) -0.3875(2)
H16 H 0.8127 0.7264 -0.4076
H17 H 0.9355 0.6339 -0.3952
H18 H 0.9272 0.8414 -0.4058
Br2? Br 0.9077(9) 0.7233(8) 0.4451(2)
C19? C 0.805(4) 0.656(6) 0.3192(14)
C20? C 0.798(2) 0.649(3) 0.2507(12)
C21? C 0.843(2) 0.704(2) 0.0311(8)
C22? C 0.812(3) 0.574(4) -0.0144(17)
C23? C 0.9017(12) 0.7084(19) 0.1491(6)
C24? C 0.890(3) 0.705(3) 0.2205(11)
C25? C 0.992(2) 0.768(3) 0.2581(13)
C26? C 1.002(4) 0.770(7) 0.321(2)
H19? H 0.7435 0.6143 0.3412
H20? H 0.7305 0.6067 0.2267
H21? H 0.6965 0.8534 0.0037
H22? H 0.8133 0.9667 0.0058
H23? H 0.9263 0.7277 0.0282
H24? H 0.8698 0.4797 -0.0080
H25? H 0.7382 0.5239 -0.0040
H26? H 0.7567 0.6857 0.1211
H27? H 0.9779 0.7248 0.1388
H28? H 1.0548 0.8083 0.2367
H29? H 1.0720 0.8016 0.3446
loop_
_geom_bond_atom_site_label_1
_geom_bond_atom_site_label_2
_geom_bond_site_symmetry_1
_geom_bond_site_symmetry_2
Br1 C11 1_555 1_555
S1 O1 1_555 1_555
O2 S1 1_555 1_555
O3 N1 1_555 1_555
N1 S1 1_555 1_555
C1 N1 1_555 1_555
H1 C1 1_555 1_555
H2 C1 1_555 1_555
C2 C1 1_555 1_555
H3 C2 1_555 1_555
C3 O3 1_555 1_555
H4 C3 1_555 1_555
H5 C3 1_555 1_555
C4 C2 1_555 1_555
H6 C4 1_555 1_555
C5 C4 1_555 1_555
H7 C5 1_555 1_555
C6 C5 1_555 1_555
C7 C6 1_555 1_555
H8 C7 1_555 1_555
C8 C7 1_555 1_555
H9 C8 1_555 1_555
C9 H10 1_555 1_555
C10 C6 1_555 1_555
H11 C10 1_555 1_555
C11 C8 1_555 1_555
C12 S1 1_555 1_555
C13 C12 1_555 1_555
H12 C13 1_555 1_555
C14 C13 1_555 1_555
H13 C14 1_555 1_555
C15 C14 1_555 1_555
C16 C15 1_555 1_555
H14 C16 1_555 1_555
C17 C12 1_555 1_555
H15 C17 1_555 1_555
C18 C15 1_555 1_555
H16 C18 1_555 1_555
H17 C18 1_555 1_555
H18 C18 1_555 1_555
C2 C3 1_555 1_555
C9 C10 1_555 1_555
C9 C11 1_555 1_555
C16 C17 1_555 1_555

#END
