
#######################################################################
#
#                 Cambridge Crystallographic Data Centre
#                                CCDC 
#
#######################################################################
#
# If this CIF has been generated from an entry in the Cambridge 
# Structural Database, then it will include bibliographic, chemical, 
# crystal, experimental, refinement or atomic coordinate data resulting 
# from the CCDC's data processing and validation procedures.
#
#######################################################################

data_BAZYAE
_chemical_formula_moiety         'C21 H26 O3 S1'
_chemical_name_systematic        
4-(Hydroxymethyl)-5-(2-methyl-5-(prop-1-en-2-yl)cyclopent-1-en-1-yl)-3-((phenylsulfanyl)methyl)dihydrofuran-2(3H)-one
_symmetry_cell_setting           monoclinic
_symmetry_space_group_name_H-M   'P 21/n'
_symmetry_Int_Tables_number      14
_space_group_name_Hall           '-P 2yn'
loop_
_symmetry_equiv_pos_site_id
_symmetry_equiv_pos_as_xyz
1 x,y,z
2 1/2-x,1/2+y,1/2-z
3 -x,-y,-z
4 1/2+x,1/2-y,1/2+z
_cell_length_a                   9.1436(18)
_cell_length_b                   19.925(4)
_cell_length_c                   10.386(2)
_cell_angle_alpha                90
_cell_angle_beta                 100.85(3)
_cell_angle_gamma                90
_cell_volume                     1858.36
_cell_formula_units_Z            4
loop_
_atom_site_label
_atom_site_type_symbol
_atom_site_fract_x
_atom_site_fract_y
_atom_site_fract_z
S1 S 0.21295(5) 0.216827(18) 0.50349(4)
O1 O 0.31741(11) 0.30830(5) 0.16470(9)
O2 O 0.27283(13) 0.19977(5) 0.19421(10)
O3 O 0.67824(11) 0.35864(5) 0.45233(10)
H1 H 0.7256 0.3364 0.5124
C1 C 0.34468(16) 0.42884(7) 0.19889(13)
C2 C 0.17925(16) 0.44501(7) 0.17087(13)
H2 H 0.1274 0.4130 0.1063
C3 C 0.17758(18) 0.51562(7) 0.10646(15)
H3 H 0.1512 0.5120 0.0118
H4 H 0.1059 0.5446 0.1369
C4 C 0.33518(19) 0.54383(7) 0.14740(16)
H5 H 0.3665 0.5669 0.0750
H6 H 0.3409 0.5746 0.2205
C5 C 0.42885(17) 0.48239(7) 0.18652(14)
C6 C 0.59507(19) 0.48714(8) 0.21066(18)
H7 H 0.6373 0.4437 0.2337
H8 H 0.6282 0.5180 0.2810
H9 H 0.6263 0.5028 0.1327
C7 C 0.10537(16) 0.44532(7) 0.29016(14)
C8 C 0.17916(18) 0.48419(8) 0.40702(14)
H10 H 0.1220 0.4802 0.4753
H11 H 0.1855 0.5306 0.3836
H12 H 0.2775 0.4668 0.4375
C9 C -0.02447(17) 0.41430(8) 0.28607(16)
H13 H -0.0719 0.4165 0.3577
H14 H -0.0676 0.3904 0.2116
C10 C 0.40712(16) 0.36144(6) 0.24082(13)
H15 H 0.5083 0.3590 0.2225
C11 C 0.41275(16) 0.33932(6) 0.38334(13)
H16 H 0.3164 0.3484 0.4082
C12 C 0.43097(16) 0.26361(7) 0.36722(13)
H17 H 0.5338 0.2560 0.3561
C13 C 0.33270(16) 0.25148(7) 0.23599(13)
C14 C 0.53531(16) 0.37347(7) 0.47982(14)
H18 H 0.5197 0.4216 0.4758
H19 H 0.5308 0.3587 0.5680
C15 C 0.40181(18) 0.21564(7) 0.47351(14)
H20 H 0.4692 0.2266 0.5545
H21 H 0.4249 0.1704 0.4492
C16 C 0.22034(17) 0.27728(7) 0.62991(14)
C17 C 0.32252(19) 0.27289(8) 0.74716(15)
H22 H 0.3945 0.2393 0.7587
C18 C 0.3169(2) 0.31837(9) 0.84637(17)
H23 H 0.3863 0.3157 0.9241
C19 C 0.2097(2) 0.36752(8) 0.83123(17)
H24 H 0.2053 0.3975 0.8990
C20 C 0.1085(2) 0.37218(8) 0.71496(18)
H25 H 0.0362 0.4056 0.7042
C21 C 0.11394(19) 0.32742(8) 0.61431(16)
H26 H 0.0459 0.3310 0.5359
loop_
_geom_bond_atom_site_label_1
_geom_bond_atom_site_label_2
_geom_bond_site_symmetry_1
_geom_bond_site_symmetry_2
S1 C15 1_555 1_555
O1 C10 1_555 1_555
O2 C13 1_555 1_555
O3 H1 1_555 1_555
C1 C2 1_555 1_555
C2 H2 1_555 1_555
C3 C2 1_555 1_555
H3 C3 1_555 1_555
H4 C3 1_555 1_555
C4 C3 1_555 1_555
H5 C4 1_555 1_555
H6 C4 1_555 1_555
C5 C1 1_555 1_555
C6 C5 1_555 1_555
H7 C6 1_555 1_555
H8 C6 1_555 1_555
H9 C6 1_555 1_555
C7 C2 1_555 1_555
C8 C7 1_555 1_555
H10 C8 1_555 1_555
H11 C8 1_555 1_555
H12 C8 1_555 1_555
C9 C7 1_555 1_555
H13 C9 1_555 1_555
H14 C9 1_555 1_555
C10 C1 1_555 1_555
H15 C10 1_555 1_555
C11 C10 1_555 1_555
H16 C11 1_555 1_555
C12 C11 1_555 1_555
H17 C12 1_555 1_555
C13 O1 1_555 1_555
C14 O3 1_555 1_555
H18 C14 1_555 1_555
H19 C14 1_555 1_555
C15 C12 1_555 1_555
H20 C15 1_555 1_555
H21 C15 1_555 1_555
C16 S1 1_555 1_555
C17 C16 1_555 1_555
H22 C17 1_555 1_555
C18 C17 1_555 1_555
H23 C18 1_555 1_555
C19 C18 1_555 1_555
H24 C19 1_555 1_555
C20 C19 1_555 1_555
H25 C20 1_555 1_555
C21 C16 1_555 1_555
H26 C21 1_555 1_555
C4 C5 1_555 1_555
C11 C14 1_555 1_555
C12 C13 1_555 1_555
C20 C21 1_555 1_555

#END
