
#######################################################################
#
#                 Cambridge Crystallographic Data Centre
#                                CCDC 
#
#######################################################################
#
# If this CIF has been generated from an entry in the Cambridge 
# Structural Database, then it will include bibliographic, chemical, 
# crystal, experimental, refinement or atomic coordinate data resulting 
# from the CCDC's data processing and validation procedures.
#
#######################################################################

data_BAZYAC
_chemical_name_common            'Naphthalene tetroxide imine'
_chemical_formula_moiety         'C10 H9 N1 O4'
_chemical_name_systematic        
2,3;4,5;7,8;9,10-Tetraepoxy-11-azatricyclo(4.4.1.0^1,6^)undecane
_symmetry_cell_setting           orthorhombic
_symmetry_space_group_name_H-M   'P b c a'
_symmetry_Int_Tables_number      61
_space_group_name_Hall           '-P 2ac 2ab'
loop_
_symmetry_equiv_pos_site_id
_symmetry_equiv_pos_as_xyz
1 x,y,z
2 1/2-x,1/2+y,z
3 x,1/2-y,1/2+z
4 1/2-x,-y,1/2+z
5 -x,-y,-z
6 1/2+x,1/2-y,-z
7 -x,1/2+y,1/2-z
8 1/2+x,y,1/2-z
_cell_length_a                   15.481(3)
_cell_length_b                   8.522(2)
_cell_length_c                   12.977(2)
_cell_angle_alpha                90
_cell_angle_beta                 90
_cell_angle_gamma                90
_cell_volume                     1712.04
_cell_formula_units_Z            8
loop_
_atom_site_label
_atom_site_type_symbol
_atom_site_fract_x
_atom_site_fract_y
_atom_site_fract_z
O1 O 0.42670 0.34900 0.52160
O2 O 0.45490 0.40250 0.30650
O3 O 0.24700 0.28460 0.25170
O4 O 0.21700 0.23540 0.46150
N1 N 0.40030 -0.00510 0.36440
C1 C 0.42630 0.18150 0.50450
C2 C 0.50160 0.27460 0.47110
C3 C 0.51670 0.30300 0.36050
C4 C 0.45820 0.23650 0.28310
C5 C 0.30570 0.15230 0.24420
C6 C 0.21840 0.12990 0.28180
C7 C 0.20260 0.10360 0.39400
C8 C 0.27400 0.10200 0.46420
C9 C 0.36380 0.12310 0.42790
C10 C 0.37990 0.14860 0.31640
H1 H 0.43000 0.11800 0.56700
H2 H 0.55300 0.27400 0.51500
H3 H 0.57300 0.32300 0.33300
H4 H 0.47900 0.20300 0.21400
H5 H 0.31800 0.12500 0.17700
H6 H 0.17700 0.08700 0.23400
H7 H 0.15400 0.04600 0.40900
H8 H 0.27000 0.04700 0.52600
loop_
_geom_bond_atom_site_label_1
_geom_bond_atom_site_label_2
_geom_bond_site_symmetry_1
_geom_bond_site_symmetry_2
O1 C1 1_555 1_555
O2 C3 1_555 1_555
O3 C5 1_555 1_555
O4 C7 1_555 1_555
N1 C9 1_555 1_555
C1 C2 1_555 1_555
C2 O1 1_555 1_555
C3 C2 1_555 1_555
C4 O2 1_555 1_555
C5 C6 1_555 1_555
C6 O3 1_555 1_555
C7 C6 1_555 1_555
C8 O4 1_555 1_555
C9 C1 1_555 1_555
C10 N1 1_555 1_555
H1 C1 1_555 1_555
H2 C2 1_555 1_555
H3 C3 1_555 1_555
H4 C4 1_555 1_555
H5 C5 1_555 1_555
H6 C6 1_555 1_555
H7 C7 1_555 1_555
H8 C8 1_555 1_555
C3 C4 1_555 1_555
C4 C10 1_555 1_555
C5 C10 1_555 1_555
C7 C8 1_555 1_555
C8 C9 1_555 1_555
C9 C10 1_555 1_555

#END
