
#######################################################################
#
#                 Cambridge Crystallographic Data Centre
#                                CCDC 
#
#######################################################################
#
# If this CIF has been generated from an entry in the Cambridge 
# Structural Database, then it will include bibliographic, chemical, 
# crystal, experimental, refinement or atomic coordinate data resulting 
# from the CCDC's data processing and validation procedures.
#
#######################################################################

data_BAZYAC01
_chemical_name_common            'Naphthalene tetroxide imine'
_chemical_formula_moiety         'C10 H9 N1 O4'
_chemical_name_systematic        
2,3;4,5;7,8;9,10-Tetraepoxy-11-azatricyclo(4.4.1.0^1,6^)undecane
_symmetry_cell_setting           monoclinic
_symmetry_space_group_name_H-M   'P 21/c'
_symmetry_Int_Tables_number      14
_space_group_name_Hall           '-P 2ybc'
loop_
_symmetry_equiv_pos_site_id
_symmetry_equiv_pos_as_xyz
1 x,y,z
2 -x,1/2+y,1/2-z
3 -x,-y,-z
4 x,1/2-y,1/2+z
_cell_length_a                   8.072(1)
_cell_length_b                   9.432(1)
_cell_length_c                   12.347(3)
_cell_angle_alpha                90
_cell_angle_beta                 115.10(1)
_cell_angle_gamma                90
_cell_volume                     851.271
_cell_formula_units_Z            4
loop_
_atom_site_label
_atom_site_type_symbol
_atom_site_fract_x
_atom_site_fract_y
_atom_site_fract_z
O1 O -0.29410 0.34680 0.36450
O2 O -0.40830 0.32380 0.11270
O3 O 0.02700 0.21520 0.14710
O4 O 0.14330 0.25780 0.39240
N1 N -0.22940 -0.01180 0.27180
C1 C -0.27170 0.19520 0.37900
C2 C -0.44700 0.25650 0.29780
C3 C -0.50900 0.24510 0.16530
C4 C -0.39740 0.17080 0.11670
C5 C -0.08100 0.09240 0.14740
C6 C 0.11490 0.09650 0.22470
C7 C 0.18070 0.12060 0.35650
C8 C 0.04870 0.13490 0.40800
C9 C -0.15190 0.12590 0.33040
C10 C -0.21690 0.10960 0.19860
H1 H -0.13700 -0.07400 0.28200
H2 H -0.25500 0.15900 0.45800
H3 H -0.55300 0.26000 0.33100
H4 H -0.64100 0.24400 0.11800
H5 H -0.45200 0.12400 0.03400
H6 H -0.12600 0.03800 0.07800
H7 H 0.19400 0.04400 0.20500
H8 H 0.29500 0.08400 0.40700
H9 H 0.08400 0.10900 0.49300
loop_
_geom_bond_atom_site_label_1
_geom_bond_atom_site_label_2
_geom_bond_site_symmetry_1
_geom_bond_site_symmetry_2
O1 C1 1_555 1_555
O2 C3 1_555 1_555
O3 C5 1_555 1_555
O4 C7 1_555 1_555
N1 C9 1_555 1_555
C1 C2 1_555 1_555
C2 O1 1_555 1_555
C3 C2 1_555 1_555
C4 O2 1_555 1_555
C5 C6 1_555 1_555
C6 O3 1_555 1_555
C7 C6 1_555 1_555
C8 O4 1_555 1_555
C9 C1 1_555 1_555
C10 N1 1_555 1_555
H1 N1 1_555 1_555
H2 C1 1_555 1_555
H3 C2 1_555 1_555
H4 C3 1_555 1_555
H5 C4 1_555 1_555
H6 C5 1_555 1_555
H7 C6 1_555 1_555
H8 C7 1_555 1_555
H9 C8 1_555 1_555
C3 C4 1_555 1_555
C4 C10 1_555 1_555
C5 C10 1_555 1_555
C7 C8 1_555 1_555
C8 C9 1_555 1_555
C9 C10 1_555 1_555

#END
