
#######################################################################
#
#                 Cambridge Crystallographic Data Centre
#                                CCDC 
#
#######################################################################
#
# If this CIF has been generated from an entry in the Cambridge 
# Structural Database, then it will include bibliographic, chemical, 
# crystal, experimental, refinement or atomic coordinate data resulting 
# from the CCDC's data processing and validation procedures.
#
#######################################################################

data_BAZZUZ
_chemical_formula_moiety         'C15 H15 N1 O3'
_chemical_name_systematic        
N-(1'-Oxo-1'H-dispiro[cyclopropane-1,3'-isochromene-4',1''-cyclopropan]-8'-yl)acetamide
_symmetry_cell_setting           monoclinic
_symmetry_space_group_name_H-M   'P 21'
_symmetry_Int_Tables_number      4
_space_group_name_Hall           'P 2yb'
loop_
_symmetry_equiv_pos_site_id
_symmetry_equiv_pos_as_xyz
1 x,y,z
2 -x,1/2+y,-z
_cell_length_a                   5.1915(1)
_cell_length_b                   12.1482(3)
_cell_length_c                   20.3530(4)
_cell_angle_alpha                90
_cell_angle_beta                 91.797(1)
_cell_angle_gamma                90
_cell_volume                     1282.98
_exptl_crystal_colour            colorless
_exptl_crystal_description       block
_chemical_melting_point          '110-112 deg.C'
_cell_formula_units_Z            4
loop_
_atom_site_label
_atom_site_type_symbol
_atom_site_fract_x
_atom_site_fract_y
_atom_site_fract_z
O1 O 0.7466(2) 0.58428(13) 0.04591(6)
O2 O 0.9211(2) 0.62076(13) -0.04730(7)
O3 O 0.4818(3) 0.57102(18) -0.26065(8)
N1 N 0.6739(3) 0.57230(17) -0.15904(8)
C1 C 0.5454(3) 0.50559(17) -0.05259(9)
C2 C 0.7473(3) 0.57367(17) -0.01957(9)
C3 C 0.5214(3) 0.54982(19) 0.08003(9)
C4 C 0.4351(3) 0.43956(18) 0.05834(9)
C5 C 0.3912(3) 0.43669(16) -0.01453(9)
C6 C 0.2058(4) 0.36994(18) -0.04502(11)
H1 H 0.1051 0.3235 -0.0201
C7 C 0.1723(4) 0.37324(19) -0.11270(11)
H2 H 0.0464 0.3291 -0.1328
C8 C 0.3196(4) 0.43989(19) -0.15121(10)
H3 H 0.2916 0.4409 -0.1966
C9 C 0.5114(3) 0.50607(17) -0.12201(9)
C10 C 0.6553(4) 0.59999(19) -0.22357(10)
C11 C 0.8738(5) 0.6704(2) -0.24564(12)
H4 H 0.8225 0.7085 -0.2852
H5 H 1.0204 0.6248 -0.2538
H6 H 0.9184 0.7230 -0.2120
C12 C 0.3427(4) 0.6411(2) 0.09642(10)
H7 H 0.1606 0.6242 0.0985
H8 H 0.3817 0.7142 0.0803
C13 C 0.5224(4) 0.5922(2) 0.14842(10)
H9 H 0.6689 0.6360 0.1635
H10 H 0.4478 0.5461 0.1818
C14 C 0.5544(5) 0.3401(2) 0.09310(12)
H11 H 0.5883 0.2753 0.0669
H12 H 0.6781 0.3535 0.1289
C15 C 0.2795(4) 0.3702(2) 0.10340(11)
H13 H 0.2370 0.4013 0.1456
H14 H 0.1473 0.3233 0.0836
H29 H 0.805(4) 0.601(2) -0.1350(12)
O4 O 0.6797(3) 0.77619(15) 0.47839(7)
O5 O 0.5232(3) 0.63811(15) 0.42190(7)
O6 O 1.0079(3) 0.45980(17) 0.25010(10)
N2 N 0.7710(3) 0.56327(17) 0.31890(8)
C16 C 0.8637(4) 0.73819(19) 0.37254(9)
C17 C 0.6788(4) 0.71270(19) 0.42418(9)
C18 C 0.8820(4) 0.8558(2) 0.48921(11)
C19 C 0.9375(4) 0.91690(19) 0.42827(11)
C20 C 0.9933(4) 0.83960(19) 0.37357(10)
C21 C 1.1657(5) 0.8638(2) 0.32491(12)
H15 H 1.2532 0.9306 0.3256
C22 C 1.2070(5) 0.7895(3) 0.27595(12)
H16 H 1.3229 0.8069 0.2436
C23 C 1.0816(4) 0.6896(2) 0.27320(10)
H17 H 1.1131 0.6403 0.2394
C24 C 0.9077(4) 0.66286(18) 0.32131(9)
C25 C 0.8243(4) 0.4699(2) 0.28528(10)
C26 C 0.6352(5) 0.3786(2) 0.29425(12)
H18 H 0.6448 0.3279 0.2583
H19 H 0.4643 0.4086 0.2955
H20 H 0.6752 0.3409 0.3347
C27 C 1.0862(5) 0.8236(3) 0.53824(11)
H21 H 1.2586 0.8521 0.5326
H22 H 1.0789 0.7501 0.5567
C28 C 0.8780(5) 0.9040(3) 0.55575(12)
H23 H 0.7459 0.8789 0.5849
H24 H 0.9255 0.9809 0.5607
C29 C 0.7890(5) 1.0232(2) 0.41439(16)
H25 H 0.7406 1.0398 0.3691
H26 H 0.6664 1.0470 0.4464
C30 C 1.0687(5) 1.0267(2) 0.43380(15)
H27 H 1.1151 1.0533 0.4775
H28 H 1.1892 1.0461 0.4002
H30 H 0.636(5) 0.562(2) 0.3471(13)
loop_
_geom_bond_atom_site_label_1
_geom_bond_atom_site_label_2
_geom_bond_site_symmetry_1
_geom_bond_site_symmetry_2
O1 C2 1_555 1_555
O2 C2 1_555 1_555
O3 C10 1_555 1_555
N1 C9 1_555 1_555
C1 C2 1_555 1_555
C3 O1 1_555 1_555
C4 C3 1_555 1_555
C5 C1 1_555 1_555
C6 C5 1_555 1_555
H1 C6 1_555 1_555
C7 C6 1_555 1_555
H2 C7 1_555 1_555
C8 C7 1_555 1_555
H3 C8 1_555 1_555
C9 C1 1_555 1_555
C10 N1 1_555 1_555
C11 C10 1_555 1_555
H4 C11 1_555 1_555
H5 C11 1_555 1_555
H6 C11 1_555 1_555
C12 C3 1_555 1_555
H7 C12 1_555 1_555
H8 C12 1_555 1_555
C13 C3 1_555 1_555
H9 C13 1_555 1_555
H10 C13 1_555 1_555
C14 C4 1_555 1_555
H11 C14 1_555 1_555
H12 C14 1_555 1_555
C15 C4 1_555 1_555
H13 C15 1_555 1_555
H14 C15 1_555 1_555
O4 C17 1_555 1_555
O5 C17 1_555 1_555
O6 C25 1_555 1_555
N2 C24 1_555 1_555
C16 C17 1_555 1_555
C18 O4 1_555 1_555
C19 C18 1_555 1_555
C20 C16 1_555 1_555
C21 C20 1_555 1_555
H15 C21 1_555 1_555
C22 C21 1_555 1_555
H16 C22 1_555 1_555
C23 C22 1_555 1_555
H17 C23 1_555 1_555
C24 C16 1_555 1_555
C25 N2 1_555 1_555
C26 C25 1_555 1_555
H18 C26 1_555 1_555
H19 C26 1_555 1_555
H20 C26 1_555 1_555
C27 C18 1_555 1_555
H21 C27 1_555 1_555
H22 C27 1_555 1_555
C28 C18 1_555 1_555
H23 C28 1_555 1_555
H24 C28 1_555 1_555
C29 C19 1_555 1_555
H25 C29 1_555 1_555
H26 C29 1_555 1_555
C30 C19 1_555 1_555
H27 C30 1_555 1_555
H28 C30 1_555 1_555
H29 N1 1_555 1_555
H30 N2 1_555 1_555
C4 C5 1_555 1_555
C8 C9 1_555 1_555
C12 C13 1_555 1_555
C14 C15 1_555 1_555
C19 C20 1_555 1_555
C23 C24 1_555 1_555
C27 C28 1_555 1_555
C29 C30 1_555 1_555

#END
