
#######################################################################
#
#                 Cambridge Crystallographic Data Centre
#                                CCDC 
#
#######################################################################
#
# If this CIF has been generated from an entry in the Cambridge 
# Structural Database, then it will include bibliographic, chemical, 
# crystal, experimental, refinement or atomic coordinate data resulting 
# from the CCDC's data processing and validation procedures.
#
#######################################################################

data_BCONBZ10
_chemical_formula_moiety         'C15 H16 N2 O6'
_chemical_name_systematic        
'trans-Bicyclo(4.2.0)octyl 1,3,5-dinitrobenzoate'
_symmetry_cell_setting           monoclinic
_symmetry_space_group_name_H-M   'P 21/c'
_symmetry_Int_Tables_number      14
_space_group_name_Hall           '-P 2ybc'
loop_
_symmetry_equiv_pos_site_id
_symmetry_equiv_pos_as_xyz
1 x,y,z
2 -x,1/2+y,1/2-z
3 -x,-y,-z
4 x,1/2-y,1/2+z
_cell_length_a                   9.606(1)
_cell_length_b                   6.276(1)
_cell_length_c                   25.276(1)
_cell_angle_alpha                90
_cell_angle_beta                 92.02(1)
_cell_angle_gamma                90
_cell_volume                     1522.87
_cell_formula_units_Z            4
loop_
_atom_site_label
_atom_site_type_symbol
_atom_site_fract_x
_atom_site_fract_y
_atom_site_fract_z
C1 C 0.29600 -0.11540 0.09340
C2 C -0.01600 0.02760 0.16960
C3 C -0.10100 -0.06060 0.20690
C4 C -0.22190 0.04160 0.21910
C5 C -0.26160 0.23170 0.19640
C6 C -0.17300 0.31770 0.16020
C7 C -0.05120 0.21940 0.14650
C8 C 0.25330 -0.31630 0.06600
C9 C 0.15680 -0.25480 0.01910
C10 C 0.21150 -0.07820 -0.01670
C11 C 0.26140 0.12220 0.01290
C12 C 0.36020 0.04700 0.05620
C13 C 0.43120 0.15580 0.10460
C14 C 0.41730 -0.06000 0.13350
C15 C 0.11070 -0.09650 0.15440
H1 H 0.21110 -0.41760 0.09050
H2 H 0.33890 -0.37300 0.05440
H3 H 0.06370 -0.21070 0.02980
H4 H 0.12820 -0.37670 -0.00440
H5 H 0.13550 -0.04370 -0.04460
H6 H 0.28470 -0.13950 -0.03630
H7 H 0.18520 0.20330 0.02750
H8 H 0.31370 0.22600 -0.01020
H9 H 0.43380 -0.04160 0.03820
H10 H 0.36900 0.27110 0.12130
H11 H 0.52910 0.22070 0.10290
H12 H 0.49330 -0.15220 0.12830
H13 H 0.40250 -0.06790 0.17230
H14 H -0.08560 -0.19930 0.22070
H15 H -0.33390 0.30280 0.20840
H16 H 0.01080 0.28290 0.12320
N1 N -0.31380 -0.06040 0.25790
N2 N -0.21120 0.52040 0.13420
O1 O 0.17030 -0.00850 0.11340
O2 O 0.14690 -0.25560 0.17730
O3 O -0.27230 -0.22370 0.27880
O4 O -0.42460 0.02580 0.26590
O5 O -0.31650 0.60730 0.14730
O6 O -0.13420 0.59400 0.10170
loop_
_geom_bond_atom_site_label_1
_geom_bond_atom_site_label_2
_geom_bond_site_symmetry_1
_geom_bond_site_symmetry_2
C1 C8 1_555 1_555
C2 C3 1_555 1_555
C3 C4 1_555 1_555
C4 C5 1_555 1_555
C5 C6 1_555 1_555
C6 C7 1_555 1_555
C7 C2 1_555 1_555
C8 C9 1_555 1_555
C9 C10 1_555 1_555
C10 C11 1_555 1_555
C11 C12 1_555 1_555
C12 C1 1_555 1_555
C13 C12 1_555 1_555
C14 C1 1_555 1_555
C15 C2 1_555 1_555
H1 C8 1_555 1_555
H2 C8 1_555 1_555
H3 C9 1_555 1_555
H4 C9 1_555 1_555
H5 C10 1_555 1_555
H6 C10 1_555 1_555
H7 C11 1_555 1_555
H8 C11 1_555 1_555
H9 C12 1_555 1_555
H10 C13 1_555 1_555
H11 C13 1_555 1_555
H12 C14 1_555 1_555
H13 C14 1_555 1_555
H14 C3 1_555 1_555
H15 C5 1_555 1_555
H16 C7 1_555 1_555
N1 C4 1_555 1_555
N2 C6 1_555 1_555
O1 C1 1_555 1_555
O2 C15 1_555 1_555
O3 N1 1_555 1_555
O4 N1 1_555 1_555
O5 N2 1_555 1_555
O6 N2 1_555 1_555
C13 C14 1_555 1_555
C15 O1 1_555 1_555

#END
