
#######################################################################
#
#                 Cambridge Crystallographic Data Centre
#                                CCDC 
#
#######################################################################
#
# If this CIF has been generated from an entry in the Cambridge 
# Structural Database, then it will include bibliographic, chemical, 
# crystal, experimental, refinement or atomic coordinate data resulting 
# from the CCDC's data processing and validation procedures.
#
#######################################################################

data_BDORLA10
_chemical_formula_moiety         'C10 H10 N2 O7'
_chemical_name_systematic        7,2'-Anhydro-\b-D-arabinosyl-orotidine
_symmetry_cell_setting           triclinic
_symmetry_space_group_name_H-M   'P 1'
_symmetry_Int_Tables_number      1
_space_group_name_Hall           'P 1'
loop_
_symmetry_equiv_pos_site_id
_symmetry_equiv_pos_as_xyz
1 x,y,z
_cell_length_a                   8.653(2)
_cell_length_b                   5.927(1)
_cell_length_c                   5.564(1)
_cell_angle_alpha                77.44(2)
_cell_angle_beta                 105.52(3)
_cell_angle_gamma                89.39(2)
_cell_volume                     267.652
_cell_formula_units_Z            1
loop_
_atom_site_label
_atom_site_type_symbol
_atom_site_fract_x
_atom_site_fract_y
_atom_site_fract_z
N1 N 0.22310 0.15780 0.26360
C1 C 0.11600 0.16310 0.02530
O1 O 0.12020 0.30400 -0.16630
N2 N 0.00880 -0.00580 0.02660
C2 C -0.00070 -0.17620 0.23200
O2 O -0.10260 -0.31550 0.20570
C3 C 0.11820 -0.17390 0.47110
C4 C 0.22480 -0.01300 0.47720
C5 C 0.35780 -0.02170 0.71730
O3 O 0.37390 -0.18040 0.90200
C6 C 0.34000 0.32730 0.27170
O4 O 0.47100 0.24800 0.19580
C7 C 0.41750 0.36070 0.53830
O5 O 0.46250 0.13890 0.72000
C8 C 0.57180 0.46880 0.50800
O6 O 0.54430 0.71580 0.44120
C9 C 0.60930 0.37450 0.28740
C10 C 0.75750 0.21160 0.36050
O7 O 0.76920 0.03070 0.57780
H1 H -0.06400 0.01600 -0.11700
H2 H 0.11600 -0.30700 0.60700
H3 H 0.28100 0.47700 0.15900
H4 H 0.34100 0.44700 0.60000
H5 H 0.66900 0.42800 0.67600
H6 H 0.50700 0.77800 0.28100
H7 H 0.61900 0.51200 0.13400
H8 H 0.85500 0.30400 0.39700
H9 H 0.75500 0.15900 0.19500
H10 H 0.70200 -0.07000 0.55000
loop_
_geom_bond_atom_site_label_1
_geom_bond_atom_site_label_2
_geom_bond_site_symmetry_1
_geom_bond_site_symmetry_2
N1 C1 1_555 1_555
C1 O1 1_555 1_555
N2 C1 1_555 1_555
C2 N2 1_555 1_555
O2 C2 1_555 1_555
C3 C2 1_555 1_555
C4 N1 1_555 1_555
C5 C4 1_555 1_555
O3 C5 1_555 1_555
C6 N1 1_555 1_555
O4 C6 1_555 1_555
C7 C6 1_555 1_555
O5 C5 1_555 1_555
C8 C7 1_555 1_555
O6 C8 1_555 1_555
C9 O4 1_555 1_555
C10 C9 1_555 1_555
O7 C10 1_555 1_555
H1 N2 1_555 1_555
H2 C3 1_555 1_555
H3 C6 1_555 1_555
H4 C7 1_555 1_555
H5 C8 1_555 1_555
H6 O6 1_555 1_555
H7 C9 1_555 1_555
H8 C10 1_555 1_555
H9 C10 1_555 1_555
H10 O7 1_555 1_555
C3 C4 1_555 1_555
C7 O5 1_555 1_555
C8 C9 1_555 1_555

#END
