
#######################################################################
#
#                 Cambridge Crystallographic Data Centre
#                                CCDC 
#
#######################################################################
#
# If this CIF has been generated from an entry in the Cambridge 
# Structural Database, then it will include bibliographic, chemical, 
# crystal, experimental, refinement or atomic coordinate data resulting 
# from the CCDC's data processing and validation procedures.
#
#######################################################################

data_BEBMEB
_chemical_formula_moiety         'C13 H8 I2 N2 O3'
_chemical_name_systematic        N-(2-Iodo-4-nitrophenyl)-4-iodobenzamide
_symmetry_cell_setting           monoclinic
_symmetry_space_group_name_H-M   'P 21/c'
_symmetry_Int_Tables_number      14
_space_group_name_Hall           '-P 2ybc'
loop_
_symmetry_equiv_pos_site_id
_symmetry_equiv_pos_as_xyz
1 x,y,z
2 x,1/2-y,1/2+z
3 -x,-y,-z
4 -x,1/2+y,1/2-z
_cell_length_a                   15.6188(5)
_cell_length_b                   4.72530(10)
_cell_length_c                   19.7669(7)
_cell_angle_alpha                90
_cell_angle_beta                 104.0822(12)
_cell_angle_gamma                90
_cell_volume                     1415.02
_exptl_crystal_colour            colorless
_exptl_crystal_description       needle
_chemical_melting_point          512-513K
_cell_formula_units_Z            4
_exptl_crystal_recrystallization_method ethanol/acetone
loop_
_atom_site_label
_atom_site_type_symbol
_atom_site_fract_x
_atom_site_fract_y
_atom_site_fract_z
C1 C 0.4434(3) 0.5630(9) 0.0826(2)
C2 C 0.5253(3) 0.6883(9) 0.0844(2)
C3 C 0.6003(3) 0.6032(9) 0.1336(2)
C4 C 0.5936(3) 0.3927(9) 0.1814(2)
C5 C 0.5128(3) 0.2681(9) 0.1811(2)
C6 C 0.4380(3) 0.3539(9) 0.1314(2)
I1 I 0.70731(2) 0.25316(7) 0.254279(15)
C7 C 0.3641(3) 0.6640(9) 0.0289(2)
O1 O 0.3595(2) 0.9044(6) 0.00465(16)
N1 N 0.2990(2) 0.4671(8) 0.00990(18)
C8 C 0.2153(3) 0.5039(9) -0.0358(2)
C9 C 0.1441(3) 0.3480(9) -0.0245(2)
C10 C 0.0618(3) 0.3607(9) -0.0718(2)
C11 C 0.0514(3) 0.5397(10) -0.1286(2)
C12 C 0.1205(3) 0.7044(9) -0.1400(2)
C13 C 0.2023(3) 0.6833(9) -0.0938(2)
I2 I 0.15670(2) 0.10085(6) 0.065587(14)
N2 N -0.0351(3) 0.5466(8) -0.17893(19)
O2 O -0.0889(2) 0.3638(7) -0.17319(18)
O3 O -0.0490(2) 0.7302(7) -0.22304(17)
H1 H 0.5295 0.8322 0.0518
H2 H 0.6558 0.6878 0.1348
H3 H 0.5088 0.1266 0.2144
H4 H 0.3825 0.2695 0.1307
H5 H 0.3106 0.2976 0.0283
H6 H 0.0139 0.2491 -0.0651
H7 H 0.1115 0.8291 -0.1788
H8 H 0.2503 0.7918 -0.1015
loop_
_geom_bond_atom_site_label_1
_geom_bond_atom_site_label_2
_geom_bond_site_symmetry_1
_geom_bond_site_symmetry_2
C1 C2 1_555 1_555
C2 C3 1_555 1_555
C3 C4 1_555 1_555
C4 C5 1_555 1_555
C5 C6 1_555 1_555
C6 C1 1_555 1_555
I1 C4 1_555 1_555
C7 C1 1_555 1_555
O1 C7 1_555 1_555
N1 C7 1_555 1_555
C8 N1 1_555 1_555
C9 C8 1_555 1_555
C10 C9 1_555 1_555
C11 C10 1_555 1_555
C12 C11 1_555 1_555
C13 C8 1_555 1_555
I2 C9 1_555 1_555
N2 C11 1_555 1_555
O2 N2 1_555 1_555
O3 N2 1_555 1_555
H1 C2 1_555 1_555
H2 C3 1_555 1_555
H3 C5 1_555 1_555
H4 C6 1_555 1_555
H5 N1 1_555 1_555
H6 C10 1_555 1_555
H7 C12 1_555 1_555
H8 C13 1_555 1_555
C12 C13 1_555 1_555

#END
