
#######################################################################
#
#                 Cambridge Crystallographic Data Centre
#                                CCDC 
#
#######################################################################
#
# If this CIF has been generated from an entry in the Cambridge 
# Structural Database, then it will include bibliographic, chemical, 
# crystal, experimental, refinement or atomic coordinate data resulting 
# from the CCDC's data processing and validation procedures.
#
#######################################################################

data_BEBROP
_chemical_formula_moiety         'C13 H20 O2 S1'
_chemical_name_systematic        
2,2,6,6-Tetramethyl-9-methylene-7-oxa-1-thiaspiro(4.5)decan-8-one
_symmetry_cell_setting           monoclinic
_symmetry_space_group_name_H-M   'P 21/c'
_symmetry_Int_Tables_number      14
_space_group_name_Hall           '-P 2ybc'
loop_
_symmetry_equiv_pos_site_id
_symmetry_equiv_pos_as_xyz
1 x,y,z
2 -x,1/2+y,1/2-z
3 -x,-y,-z
4 x,1/2-y,1/2+z
_cell_length_a                   6.189(3)
_cell_length_b                   11.244(4)
_cell_length_c                   18.960(9)
_cell_angle_alpha                90
_cell_angle_beta                 92.39(4)
_cell_angle_gamma                90
_cell_volume                     1318.26
_chemical_melting_point          110deg.C
_cell_formula_units_Z            4
loop_
_atom_site_label
_atom_site_type_symbol
_atom_site_fract_x
_atom_site_fract_y
_atom_site_fract_z
S1 S 0.27305 -0.09380 0.27728
C1 C 0.25543 -0.08380 0.37349
C2 C 0.14036 0.03130 0.39285
C3 C 0.22080 0.14846 0.36465
C4 C 0.24002 0.15033 0.28445
C5 C 0.36923 0.05218 0.24952
O1 O 0.43576 0.17342 0.39828
C6 C 0.44634 0.28107 0.42854
C7 C 0.23096 0.33929 0.42192
C8 C 0.07631 0.25301 0.38763
C9 C 0.47528 -0.09880 0.41288
C10 C 0.11311 -0.19048 0.39208
C11 C 0.61351 0.06660 0.26201
C12 C 0.31361 0.05577 0.17001
O2 O 0.61108 0.31862 0.45626
C13 C 0.19741 0.44891 0.44328
H1 H -0.00510 0.02460 0.37310
H2 H 0.14680 0.03760 0.44550
H3 H 0.30150 0.23480 0.27420
H4 H 0.09050 0.15150 0.26250
H5 H -0.00560 0.29200 0.34920
H6 H -0.04620 0.23210 0.42210
H7 H 0.56370 -0.03280 0.40470
H8 H 0.55320 -0.17500 0.39870
H9 H 0.46610 -0.10280 0.46120
H10 H -0.01960 -0.18200 0.36310
H11 H 0.08930 -0.19390 0.44560
H12 H 0.17020 -0.26470 0.37850
H13 H 0.66000 0.06580 0.31750
H14 H 0.69100 -0.00030 0.23960
H15 H 0.64810 0.15210 0.24370
H16 H 0.38320 -0.01050 0.14490
H17 H 0.35890 0.13640 0.14930
H18 H 0.16160 0.05200 0.15980
H19 H 0.04900 0.48310 0.43860
H20 H 0.30900 0.49450 0.46360
loop_
_geom_bond_atom_site_label_1
_geom_bond_atom_site_label_2
_geom_bond_site_symmetry_1
_geom_bond_site_symmetry_2
S1 C1 1_555 1_555
C1 C2 1_555 1_555
C2 C3 1_555 1_555
C3 C4 1_555 1_555
C4 C5 1_555 1_555
C5 S1 1_555 1_555
O1 C3 1_555 1_555
C6 O1 1_555 1_555
C7 C6 1_555 1_555
C8 C3 1_555 1_555
C9 C1 1_555 1_555
C10 C1 1_555 1_555
C11 C5 1_555 1_555
C12 C5 1_555 1_555
O2 C6 1_555 1_555
C13 C7 1_555 1_555
H1 C2 1_555 1_555
H2 C2 1_555 1_555
H3 C4 1_555 1_555
H4 C4 1_555 1_555
H5 C8 1_555 1_555
H6 C8 1_555 1_555
H7 C9 1_555 1_555
H8 C9 1_555 1_555
H9 C9 1_555 1_555
H10 C10 1_555 1_555
H11 C10 1_555 1_555
H12 C10 1_555 1_555
H13 C11 1_555 1_555
H14 C11 1_555 1_555
H15 C11 1_555 1_555
H16 C12 1_555 1_555
H17 C12 1_555 1_555
H18 C12 1_555 1_555
H19 C13 1_555 1_555
H20 C13 1_555 1_555
C7 C8 1_555 1_555

#END
