
#######################################################################
#
#                 Cambridge Crystallographic Data Centre
#                                CCDC 
#
#######################################################################
#
# If this CIF has been generated from an entry in the Cambridge 
# Structural Database, then it will include bibliographic, chemical, 
# crystal, experimental, refinement or atomic coordinate data resulting 
# from the CCDC's data processing and validation procedures.
#
#######################################################################

data_BECCAQ
_chemical_formula_moiety         'C46 H54 Li2 N4 O2'
_chemical_name_systematic        
bis(\m-{3-({[2,6-di-isopropylphenyl]imino}methyl)-1-[methoxymethyl]-1H-indol-2-yl})-di-lithium
_symmetry_cell_setting           orthorhombic
_symmetry_space_group_name_H-M   'P c a 21'
_symmetry_Int_Tables_number      29
_space_group_name_Hall           'P 2c -2ac'
loop_
_symmetry_equiv_pos_site_id
_symmetry_equiv_pos_as_xyz
1 x,y,z
2 -x,-y,1/2+z
3 1/2+x,-y,z
4 1/2-x,y,1/2+z
_cell_length_a                   18.993(2)
_cell_length_b                   12.5282(14)
_cell_length_c                   18.014(2)
_cell_angle_alpha                90
_cell_angle_beta                 90
_cell_angle_gamma                90
_cell_volume                     4286.4
_exptl_crystal_colour            colorless
_exptl_crystal_description       block
_cell_formula_units_Z            4
loop_
_atom_site_label
_atom_site_type_symbol
_atom_site_fract_x
_atom_site_fract_y
_atom_site_fract_z
C1 C 0.9630(5) -0.1368(7) 0.2848(6)
H1 H 0.9304 -0.1518 0.3241
H2 H 1.0096 -0.1297 0.3049
H3 H 0.9623 -0.1943 0.2495
C2 C 0.8845(3) -0.0551(5) 0.2078(4)
H4 H 0.8499 -0.0990 0.2328
H5 H 0.8959 -0.0882 0.1606
C3 C 0.8984(3) 0.1365(4) 0.1741(3)
C4 C 0.8510(3) 0.2209(4) 0.1688(3)
C5 C 0.7804(3) 0.1849(4) 0.1893(3)
C6 C 0.7154(3) 0.2344(5) 0.1952(3)
H6 H 0.7103 0.3066 0.1843
C7 C 0.6584(3) 0.1746(5) 0.2176(4)
H7 H 0.6148 0.2073 0.2228
C8 C 0.6646(3) 0.0683(5) 0.2325(3)
H8 H 0.6249 0.0303 0.2469
C9 C 0.7275(3) 0.0160(5) 0.2269(3)
H9 H 0.7316 -0.0567 0.2364
C10 C 0.7854(3) 0.0779(4) 0.2061(3)
C11 C 0.8675(3) 0.3263(4) 0.1457(3)
H10 H 0.8335 0.3791 0.1512
C12 C 0.9345(3) 0.4596(5) 0.0917(3)
C13 C 0.8928(3) 0.4984(5) 0.0338(3)
C14 C 0.9021(3) 0.6040(5) 0.0126(4)
H11 H 0.8746 0.6316 -0.0256
C15 C 0.9505(3) 0.6684(5) 0.0462(4)
H12 H 0.9546 0.7395 0.0322
C16 C 0.9926(3) 0.6283(5) 0.1001(4)
H13 H 1.0271 0.6718 0.1208
C17 C 0.9858(3) 0.5242(4) 0.1254(3)
C18 C 0.8403(3) 0.4292(5) -0.0083(3)
H14 H 0.8432 0.3566 0.0117
C19 C 0.8583(4) 0.4245(6) -0.0922(4)
H15 H 0.8536 0.4943 -0.1135
H16 H 0.8267 0.3761 -0.1167
H17 H 0.9058 0.3999 -0.0984
C20 C 0.7645(3) 0.4686(6) 0.0015(4)
H18 H 0.7516 0.4642 0.0529
H19 H 0.7334 0.4249 -0.0274
H20 H 0.7611 0.5413 -0.0149
C21 C 1.0304(3) 0.4817(5) 0.1879(4)
H21 H 1.0327 0.4041 0.1817
C22 C 1.1048(3) 0.5216(5) 0.1896(5)
H22 H 1.1251 0.5156 0.1410
H23 H 1.1317 0.4796 0.2241
H24 H 1.1053 0.5949 0.2050
C23 C 0.9946(4) 0.5025(7) 0.2615(5)
H25 H 1.0187 0.4642 0.3000
H26 H 0.9465 0.4790 0.2590
H27 H 0.9958 0.5776 0.2721
C24 C 1.0676(5) 0.2981(10) -0.0127(6)
H28 H 1.0980 0.3588 -0.0065
H29 H 1.0204 0.3220 -0.0219
H30 H 1.0837 0.2561 -0.0540
C25 C 1.1326(4) 0.2008(6) 0.0699(4)
H31 H 1.1709 0.2349 0.0432
H32 H 1.1345 0.1248 0.0598
C26 C 1.0879(3) 0.1885(4) 0.1968(3)
C27 C 1.1160(3) 0.2182(4) 0.2671(3)
C28 C 1.1843(3) 0.2671(4) 0.2579(3)
C29 C 1.2352(3) 0.3085(5) 0.3059(4)
H33 H 1.2275 0.3090 0.3569
C30 C 1.2967(3) 0.3488(5) 0.2769(4)
H34 H 1.3304 0.3783 0.3082
C31 C 1.3085(3) 0.3453(5) 0.2015(4)
H35 H 1.3508 0.3720 0.1833
C32 C 1.2608(3) 0.3041(5) 0.1519(4)
H36 H 1.2697 0.3024 0.1012
C33 C 1.1987(3) 0.2654(4) 0.1816(3)
C34 C 1.0826(3) 0.1941(4) 0.3369(3)
H37 H 1.1023 0.2218 0.3800
C35 C 1.0041(3) 0.1098(5) 0.4153(3)
C36 C 0.9378(3) 0.1430(5) 0.4364(3)
C37 C 0.9141(4) 0.1197(6) 0.5090(4)
H38 H 0.8710 0.1461 0.5252
C38 C 0.9533(4) 0.0599(5) 0.5543(4)
H39 H 0.9364 0.0429 0.6013
C39 C 1.0182(3) 0.0233(5) 0.5325(3)
H40 H 1.0448 -0.0181 0.5649
C40 C 1.0449(3) 0.0473(5) 0.4621(3)
C41 C 0.8925(3) 0.2120(6) 0.3856(4)
H41 H 0.9072 0.1980 0.3344
C42 C 0.9058(4) 0.3285(7) 0.4012(5)
H42 H 0.8767 0.3713 0.3694
H43 H 0.9544 0.3447 0.3920
H44 H 0.8947 0.3437 0.4521
C43 C 0.8147(3) 0.1889(6) 0.3908(4)
H45 H 0.7979 0.2083 0.4393
H46 H 0.8067 0.1142 0.3827
H47 H 0.7900 0.2295 0.3539
C44 C 1.1166(3) 0.0002(5) 0.4410(3)
H48 H 1.1244 0.0165 0.3885
C45 C 1.1189(4) -0.1191(5) 0.4490(4)
H49 H 1.1598 -0.1464 0.4242
H50 H 1.0774 -0.1495 0.4272
H51 H 1.1209 -0.1375 0.5006
C46 C 1.1758(4) 0.0520(6) 0.4840(4)
H52 H 1.1762 0.0248 0.5338
H53 H 1.1689 0.1279 0.4851
H54 H 1.2199 0.0361 0.4604
Li1 Li 0.9909(5) 0.2207(7) 0.1256(6)
Li2 Li 0.9945(5) 0.0934(7) 0.2387(5)
N1 N 0.8569(2) 0.0504(3) 0.1958(2)
N2 N 0.9276(2) 0.3524(3) 0.1172(2)
N3 N 1.1405(3) 0.2192(4) 0.1481(3)
N4 N 1.0280(2) 0.1374(3) 0.3427(2)
O1 O 0.9446(2) -0.0461(3) 0.2510(3)
O2 O 1.0688(2) 0.2417(4) 0.0458(2)
loop_
_geom_bond_atom_site_label_1
_geom_bond_atom_site_label_2
_geom_bond_site_symmetry_1
_geom_bond_site_symmetry_2
C1 H1 1_555 1_555
H2 C1 1_555 1_555
H3 C1 1_555 1_555
C2 H4 1_555 1_555
H5 C2 1_555 1_555
C3 C4 1_555 1_555
C4 C5 1_555 1_555
C5 C6 1_555 1_555
C6 H6 1_555 1_555
C7 C6 1_555 1_555
H7 C7 1_555 1_555
C8 C7 1_555 1_555
H8 C8 1_555 1_555
C9 C8 1_555 1_555
H9 C9 1_555 1_555
C10 C5 1_555 1_555
C11 C4 1_555 1_555
H10 C11 1_555 1_555
C12 C13 1_555 1_555
C13 C14 1_555 1_555
C14 H11 1_555 1_555
C15 C14 1_555 1_555
H12 C15 1_555 1_555
C16 C15 1_555 1_555
H13 C16 1_555 1_555
C17 C12 1_555 1_555
C18 C13 1_555 1_555
H14 C18 1_555 1_555
C19 C18 1_555 1_555
H15 C19 1_555 1_555
H16 C19 1_555 1_555
H17 C19 1_555 1_555
C20 C18 1_555 1_555
H18 C20 1_555 1_555
H19 C20 1_555 1_555
H20 C20 1_555 1_555
C21 C17 1_555 1_555
H21 C21 1_555 1_555
C22 C21 1_555 1_555
H22 C22 1_555 1_555
H23 C22 1_555 1_555
H24 C22 1_555 1_555
C23 C21 1_555 1_555
H25 C23 1_555 1_555
H26 C23 1_555 1_555
H27 C23 1_555 1_555
C24 H28 1_555 1_555
H29 C24 1_555 1_555
H30 C24 1_555 1_555
C25 H31 1_555 1_555
H32 C25 1_555 1_555
C26 C27 1_555 1_555
C27 C28 1_555 1_555
C28 C29 1_555 1_555
C29 H33 1_555 1_555
C30 C29 1_555 1_555
H34 C30 1_555 1_555
C31 C30 1_555 1_555
H35 C31 1_555 1_555
C32 C31 1_555 1_555
H36 C32 1_555 1_555
C33 C28 1_555 1_555
C34 C27 1_555 1_555
H37 C34 1_555 1_555
C35 C36 1_555 1_555
C36 C37 1_555 1_555
C37 H38 1_555 1_555
C38 C37 1_555 1_555
H39 C38 1_555 1_555
C39 C38 1_555 1_555
H40 C39 1_555 1_555
C40 C35 1_555 1_555
C41 C36 1_555 1_555
H41 C41 1_555 1_555
C42 C41 1_555 1_555
H42 C42 1_555 1_555
H43 C42 1_555 1_555
H44 C42 1_555 1_555
C43 C41 1_555 1_555
H45 C43 1_555 1_555
H46 C43 1_555 1_555
H47 C43 1_555 1_555
C44 C40 1_555 1_555
H48 C44 1_555 1_555
C45 C44 1_555 1_555
H49 C45 1_555 1_555
H50 C45 1_555 1_555
H51 C45 1_555 1_555
C46 C44 1_555 1_555
H52 C46 1_555 1_555
H53 C46 1_555 1_555
H54 C46 1_555 1_555
Li1 C3 1_555 1_555
Li2 C3 1_555 1_555
N1 C2 1_555 1_555
N2 C11 1_555 1_555
N3 C25 1_555 1_555
N4 C34 1_555 1_555
O1 C1 1_555 1_555
O2 C24 1_555 1_555
C2 O1 1_555 1_555
C3 N1 1_555 1_555
C9 C10 1_555 1_555
C10 N1 1_555 1_555
C12 N2 1_555 1_555
C16 C17 1_555 1_555
C25 O2 1_555 1_555
C26 Li1 1_555 1_555
C26 Li2 1_555 1_555
C26 N3 1_555 1_555
C32 C33 1_555 1_555
C33 N3 1_555 1_555
C35 N4 1_555 1_555
C39 C40 1_555 1_555
Li1 N2 1_555 1_555
Li1 O2 1_555 1_555
Li2 N4 1_555 1_555
Li2 O1 1_555 1_555

#END
