
#######################################################################
#
#                 Cambridge Crystallographic Data Centre
#                                CCDC 
#
#######################################################################
#
# If this CIF has been generated from an entry in the Cambridge 
# Structural Database, then it will include bibliographic, chemical, 
# crystal, experimental, refinement or atomic coordinate data resulting 
# from the CCDC's data processing and validation procedures.
#
#######################################################################

data_BECCIW
_chemical_formula_moiety         'C17 H12 F2 N4 O1 S1'
_chemical_name_systematic        
3-Phenoxymethyl-6-(2,4-difluorophenyl)-7H-1,2,4-triazolo(3,4-b)(1,3,4)thiadiazine
_symmetry_cell_setting           monoclinic
_symmetry_space_group_name_H-M   'P 21/c'
_symmetry_Int_Tables_number      14
_space_group_name_Hall           '-P 2ybc'
loop_
_symmetry_equiv_pos_site_id
_symmetry_equiv_pos_as_xyz
1 x,y,z
2 -x,1/2+y,1/2-z
3 -x,-y,-z
4 x,1/2-y,1/2+z
_cell_length_a                   13.39(3)
_cell_length_b                   14.683(4)
_cell_length_c                   8.606(2)
_cell_angle_alpha                90
_cell_angle_beta                 108.49(2)
_cell_angle_gamma                90
_cell_volume                     1604.64
_chemical_melting_point          '125-127 deg.C'
_cell_formula_units_Z            4
loop_
_atom_site_label
_atom_site_type_symbol
_atom_site_fract_x
_atom_site_fract_y
_atom_site_fract_z
S1 S 0.5216(1) 0.5536(1) 0.2074(1)
F1 F 0.0489(1) 0.8039(1) 0.3707(3)
F2 F 0.1498(1) 0.5020(1) 0.3570(2)
O1 O 0.3179(1) 0.2172(1) 0.3125(2)
N1 N 0.5311(1) 0.3029(1) 0.3522(2)
N2 N 0.5733(1) 0.3743(1) 0.2854(2)
N3 N 0.4274(1) 0.4208(1) 0.3246(2)
N4 N 0.3520(1) 0.4777(1) 0.3540(2)
C1 C 0.2159(2) 0.1607(1) 0.4820(2)
C2 C 0.1468(2) 0.0952(2) 0.5028(3)
C3 C 0.1111(2) 0.0269(2) 0.3908(3)
C4 C 0.1433(2) 0.0242(1) 0.2540(3)
C5 C 0.2119(2) 0.0885(1) 0.2306(2)
C6 C 0.2486(1) 0.1565(1) 0.3448(2)
C7 C 0.3737(2) 0.2776(1) 0.4397(2)
C8 C 0.4453(1) 0.3320(1) 0.3757(2)
C9 C 0.5101(1) 0.4435(1) 0.2713(2)
C10 C 0.3807(1) 0.5705(1) 0.1334(2)
C11 C 0.3319(1) 0.5507(1) 0.2657(2)
C12 C 0.2565(1) 0.6159(1) 0.2947(2)
C13 C 0.2700(2) 0.7091(1) 0.2777(3)
C14 C 0.2021(2) 0.7727(1) 0.3040(3)
C15 C 0.1180(2) 0.7429(2) 0.3468(3)
C16 C 0.0994(2) 0.6527(2) 0.3648(3)
C17 C 0.1697(2) 0.5911(1) 0.3402(2)
loop_
_geom_bond_atom_site_label_1
_geom_bond_atom_site_label_2
_geom_bond_site_symmetry_1
_geom_bond_site_symmetry_2
S1 C9 1_555 1_555
F1 C15 1_555 1_555
F2 C17 1_555 1_555
O1 C6 1_555 1_555
N1 N2 1_555 1_555
N2 C9 1_555 1_555
N3 N4 1_555 1_555
N4 C11 1_555 1_555
C1 C2 1_555 1_555
C2 C3 1_555 1_555
C3 C4 1_555 1_555
C4 C5 1_555 1_555
C5 C6 1_555 1_555
C6 C1 1_555 1_555
C7 O1 1_555 1_555
C8 N1 1_555 1_555
C9 N3 1_555 1_555
C10 S1 1_555 1_555
C11 C10 1_555 1_555
C12 C11 1_555 1_555
C13 C12 1_555 1_555
C14 C13 1_555 1_555
C15 C14 1_555 1_555
C16 C15 1_555 1_555
C17 C12 1_555 1_555
N3 C8 1_555 1_555
C7 C8 1_555 1_555
C16 C17 1_555 1_555

#END
