
#######################################################################
#
#                 Cambridge Crystallographic Data Centre
#                                CCDC 
#
#######################################################################
#
# If this CIF has been generated from an entry in the Cambridge 
# Structural Database, then it will include bibliographic, chemical, 
# crystal, experimental, refinement or atomic coordinate data resulting 
# from the CCDC's data processing and validation procedures.
#
#######################################################################

data_BECDAR
_chemical_formula_moiety         'C44 H53 Li1 N4 O1'
_chemical_name_systematic        
"[N-({1,1'-dibenzyl-3-[(t-butylimino)methyl][1',2'-dihydro-1H,3'H-[2,2'-biindole]]-3'-ylidene}methyl)-2-methylpropan-2-amine]-(diethyl ether)-lithium"
_symmetry_cell_setting           monoclinic
_symmetry_space_group_name_H-M   'P 21/c'
_symmetry_Int_Tables_number      14
_space_group_name_Hall           '-P 2ybc'
loop_
_symmetry_equiv_pos_site_id
_symmetry_equiv_pos_as_xyz
1 x,y,z
2 -x,1/2+y,1/2-z
3 -x,-y,-z
4 x,1/2-y,1/2+z
_cell_length_a                   11.643(4)
_cell_length_b                   16.448(5)
_cell_length_c                   20.943(6)
_cell_angle_alpha                90
_cell_angle_beta                 103.469(4)
_cell_angle_gamma                90
_cell_volume                     3900.36
_exptl_crystal_colour            red
_exptl_crystal_description       block
_cell_formula_units_Z            4
loop_
_atom_site_label
_atom_site_type_symbol
_atom_site_fract_x
_atom_site_fract_y
_atom_site_fract_z
Li1 Li 0.3058(4) 0.7047(3) 0.9627(2)
N1 N 0.04397(18) 0.79183(13) 1.00743(10)
N2 N 0.2959(2) 0.78618(14) 0.88689(11)
N3 N 0.3933(2) 0.71801(14) 1.05373(12)
N4 N 0.1863(2) 0.94687(13) 1.02875(11)
C1 C 0.1103(2) 0.79311(16) 0.91469(13)
C2 C -0.0443(2) 0.75807(16) 0.95880(14)
C3 C 0.1375(2) 0.81349(15) 0.98090(13)
C4 C 0.2368(2) 0.86794(15) 1.01637(12)
H1 H 0.2905 0.8771 0.9874
C5 C 0.3102(2) 0.84356(16) 1.08352(13)
C6 C 0.3096(2) 0.91218(17) 1.12696(13)
C7 C 0.3806(2) 0.77634(16) 1.09590(14)
H2 H 0.4250 0.7705 1.1387
C8 C -0.0062(2) 0.75957(17) 0.89950(14)
C9 C 0.0302(2) 0.72797(17) 1.11310(13)
C10 C 0.2363(2) 0.97399(16) 1.09223(13)
C11 C 0.0321(3) 0.80549(16) 1.07485(13)
H3 H -0.0404 0.8353 1.0734
H4 H 0.0974 0.8389 1.0977
C12 C 0.2212(3) 1.04757(18) 1.12101(16)
H5 H 0.1725 1.0875 1.0975
C13 C 0.1275(2) 0.99732(17) 0.97501(14)
H6 H 0.0935 1.0434 0.9929
H7 H 0.0626 0.9664 0.9485
C14 C 0.2024(2) 1.02948(16) 0.93024(14)
C15 C 0.1890(3) 0.80782(17) 0.87024(13)
H8 H 0.1602 0.8330 0.8299
C16 C 0.3839(3) 0.80937(19) 0.84920(15)
C17 C -0.0540(3) 0.7181(2) 1.14977(16)
H9 H -0.1110 0.7580 1.1489
C18 C -0.0825(3) 0.7293(2) 0.84266(16)
H10 H -0.0600 0.7294 0.8029
C19 C 0.1128(3) 0.5987(2) 1.15188(19)
H11 H 0.1678 0.5578 1.1517
C20 C 0.3520(3) 1.0022(2) 1.22008(17)
H12 H 0.3913 1.0124 1.2633
C21 C 0.3677(3) 0.9276(2) 1.19183(15)
H13 H 0.4166 0.8884 1.2161
C22 C 0.1134(3) 0.66839(19) 1.11514(15)
H14 H 0.1711 0.6750 1.0914
C23 C 0.2805(3) 1.0606(2) 1.18593(18)
H15 H 0.2711 1.1097 1.2062
C24 C -0.1532(2) 0.7271(2) 0.96283(16)
H16 H -0.1766 0.7260 1.0024
C25 C 0.3173(3) 1.0534(2) 0.95482(18)
H17 H 0.3517 1.0481 0.9994
C26 C -0.0533(4) 0.6489(3) 1.18784(17)
H18 H -0.1095 0.6426 1.2126
C27 C 0.4820(3) 0.65403(19) 1.07845(16)
C28 C -0.2254(3) 0.6981(2) 0.9055(2)
H19 H -0.2990 0.6769 0.9065
C29 C 0.1530(3) 1.0380(2) 0.86436(16)
H20 H 0.0756 1.0213 0.8474
C30 C 0.3821(4) 1.0859(2) 0.9123(2)
H21 H 0.4603 1.1014 0.9286
C31 C -0.1907(3) 0.6996(2) 0.84633(18)
H22 H -0.2419 0.6801 0.8085
C32 C 0.3308(5) 1.0948(2) 0.8470(2)
H23 H 0.3738 1.1170 0.8191
C33 C 0.4770(4) 0.8588(3) 0.8976(2)
H24 H 0.4438 0.9099 0.9061
H25 H 0.5439 0.8682 0.8791
H26 H 0.5017 0.8291 0.9380
C34 C 0.2175(4) 1.0712(2) 0.82288(19)
H27 H 0.1829 1.0773 0.7784
C35 C 0.4419(4) 0.7320(3) 0.8332(2)
H28 H 0.4646 0.6992 0.8720
H29 H 0.5106 0.7455 0.8174
H30 H 0.3872 0.7023 0.8000
C36 C 0.4264(4) 0.5864(2) 1.1104(2)
H31 H 0.4112 0.6057 1.1509
H32 H 0.4793 0.5409 1.1191
H33 H 0.3535 0.5700 1.0815
C37 C 0.3359(4) 0.8580(4) 0.7881(2)
H34 H 0.2827 0.8249 0.7567
H35 H 0.3999 0.8756 0.7696
H36 H 0.2945 0.9047 0.7988
C38 C 0.5129(5) 0.6156(3) 1.0183(2)
H37 H 0.4418 0.5987 0.9880
H38 H 0.5630 0.5694 1.0316
H39 H 0.5534 0.6547 0.9975
C39 C 0.0296(4) 0.5904(3) 1.18892(18)
H40 H 0.0303 0.5444 1.2148
C40 C 0.5910(4) 0.6821(3) 1.1269(4)
H41 H 0.6300 0.7230 1.1071
H42 H 0.6433 0.6368 1.1399
H43 H 0.5694 0.7043 1.1649
O1 O 0.2213(2) 0.60333(13) 0.92156(12)
C41 C 0.2319(3) 0.5666(2) 0.86010(19)
H44 H 0.2203 0.5084 0.8625
H45 H 0.3114 0.5756 0.8546
C42 C 0.1274(3) 0.5696(2) 0.94685(19)
H46 H 0.0564 0.5673 0.9118
H47 H 0.1117 0.6053 0.9807
C43 C 0.1461(4) 0.5993(2) 0.8015(2)
H48 H 0.0671 0.5889 0.8058
H49 H 0.1583 0.5731 0.7627
H50 H 0.1575 0.6568 0.7984
C44 C 0.1540(3) 0.4859(2) 0.9752(2)
H51 H 0.1573 0.4483 0.9406
H52 H 0.0931 0.4695 0.9964
H53 H 0.2287 0.4864 1.0066
loop_
_geom_bond_atom_site_label_1
_geom_bond_atom_site_label_2
_geom_bond_site_symmetry_1
_geom_bond_site_symmetry_2
Li1 N2 1_555 1_555
N1 C2 1_555 1_555
N2 C15 1_555 1_555
N3 Li1 1_555 1_555
N4 C4 1_555 1_555
C1 C3 1_555 1_555
C2 C8 1_555 1_555
C3 N1 1_555 1_555
C4 C3 1_555 1_555
H1 C4 1_555 1_555
C5 C4 1_555 1_555
C6 C5 1_555 1_555
C7 N3 1_555 1_555
H2 C7 1_555 1_555
C8 C1 1_555 1_555
C9 C11 1_555 1_555
C10 N4 1_555 1_555
C11 N1 1_555 1_555
H3 C11 1_555 1_555
H4 C11 1_555 1_555
C12 C10 1_555 1_555
H5 C12 1_555 1_555
C13 N4 1_555 1_555
H6 C13 1_555 1_555
H7 C13 1_555 1_555
C14 C13 1_555 1_555
C15 C1 1_555 1_555
H8 C15 1_555 1_555
C16 N2 1_555 1_555
C17 C9 1_555 1_555
H9 C17 1_555 1_555
C18 C8 1_555 1_555
H10 C18 1_555 1_555
C19 H11 1_555 1_555
C20 H12 1_555 1_555
C21 C6 1_555 1_555
H13 C21 1_555 1_555
C22 C9 1_555 1_555
H14 C22 1_555 1_555
C23 C12 1_555 1_555
H15 C23 1_555 1_555
C24 C2 1_555 1_555
H16 C24 1_555 1_555
C25 C14 1_555 1_555
H17 C25 1_555 1_555
C26 C17 1_555 1_555
H18 C26 1_555 1_555
C27 N3 1_555 1_555
C28 C24 1_555 1_555
H19 C28 1_555 1_555
C29 C14 1_555 1_555
H20 C29 1_555 1_555
C30 C25 1_555 1_555
H21 C30 1_555 1_555
C31 C18 1_555 1_555
H22 C31 1_555 1_555
C32 C30 1_555 1_555
H23 C32 1_555 1_555
C33 C16 1_555 1_555
H24 C33 1_555 1_555
H25 C33 1_555 1_555
H26 C33 1_555 1_555
C34 C29 1_555 1_555
H27 C34 1_555 1_555
C35 C16 1_555 1_555
H28 C35 1_555 1_555
H29 C35 1_555 1_555
H30 C35 1_555 1_555
C36 C27 1_555 1_555
H31 C36 1_555 1_555
H32 C36 1_555 1_555
H33 C36 1_555 1_555
C37 C16 1_555 1_555
H34 C37 1_555 1_555
H35 C37 1_555 1_555
H36 C37 1_555 1_555
C38 C27 1_555 1_555
H37 C38 1_555 1_555
H38 C38 1_555 1_555
H39 C38 1_555 1_555
C39 C19 1_555 1_555
H40 C39 1_555 1_555
C40 C27 1_555 1_555
H41 C40 1_555 1_555
H42 C40 1_555 1_555
H43 C40 1_555 1_555
O1 Li1 1_555 1_555
C41 O1 1_555 1_555
H44 C41 1_555 1_555
H45 C41 1_555 1_555
C42 O1 1_555 1_555
H46 C42 1_555 1_555
H47 C42 1_555 1_555
C43 C41 1_555 1_555
H48 C43 1_555 1_555
H49 C43 1_555 1_555
H50 C43 1_555 1_555
C44 C42 1_555 1_555
H51 C44 1_555 1_555
H52 C44 1_555 1_555
H53 C44 1_555 1_555
C5 C7 1_555 1_555
C6 C10 1_555 1_555
C19 C22 1_555 1_555
C20 C21 1_555 1_555
C20 C23 1_555 1_555
C26 C39 1_555 1_555
C28 C31 1_555 1_555
C32 C34 1_555 1_555

#END
