
#######################################################################
#
#                 Cambridge Crystallographic Data Centre
#                                CCDC 
#
#######################################################################
#
# If this CIF has been generated from an entry in the Cambridge 
# Structural Database, then it will include bibliographic, chemical, 
# crystal, experimental, refinement or atomic coordinate data resulting 
# from the CCDC's data processing and validation procedures.
#
#######################################################################

data_BECFUM
_chemical_formula_moiety         'C10 F8 N2 Se1'
_chemical_name_systematic        4,4'-Selanylbis(tetrafluoropyridine)
_symmetry_cell_setting           monoclinic
_symmetry_space_group_name_H-M   'P 21/c'
_symmetry_Int_Tables_number      14
_space_group_name_Hall           '-P 2ybc'
loop_
_symmetry_equiv_pos_site_id
_symmetry_equiv_pos_as_xyz
1 x,y,z
2 -x,1/2+y,1/2-z
3 -x,-y,-z
4 x,1/2-y,1/2+z
_cell_length_a                   20.746(2)
_cell_length_b                   7.3201(5)
_cell_length_c                   15.5711(17)
_cell_angle_alpha                90
_cell_angle_beta                 107.125(8)
_cell_angle_gamma                90
_cell_volume                     2259.83
_exptl_crystal_colour            colorless
_exptl_crystal_description       column
_cell_formula_units_Z            8
loop_
_atom_site_label
_atom_site_type_symbol
_atom_site_fract_x
_atom_site_fract_y
_atom_site_fract_z
Se1 Se 0.046714(16) -0.75743(5) 0.25556(2)
F1 F 0.15308(9) -0.5344(3) 0.40679(13)
F2 F 0.15624(10) -0.4926(3) 0.57981(13)
F3 F -0.03657(10) -0.8083(3) 0.53958(13)
F4 F -0.04875(9) -0.8699(3) 0.36547(12)
F5 F 0.11268(11) -1.1298(3) 0.32980(16)
F6 F 0.24067(14) -1.2407(3) 0.3506(2)
F7 F 0.29601(11) -0.7068(4) 0.24720(19)
F8 F 0.17194(11) -0.5683(3) 0.22284(16)
N1 N 0.06064(13) -0.6536(4) 0.55948(17)
N2 N 0.26719(15) -0.9736(5) 0.2985(2)
C1 C 0.05361(15) -0.7129(4) 0.3792(2)
C2 C 0.10505(15) -0.6112(4) 0.4363(2)
C3 C 0.10646(15) -0.5881(4) 0.5245(2)
C4 C 0.01044(16) -0.7448(4) 0.5043(2)
C5 C 0.00461(15) -0.7775(4) 0.4159(2)
C6 C 0.13737(16) -0.8438(5) 0.2763(2)
C7 C 0.15648(17) -1.0161(5) 0.3083(2)
C8 C 0.22153(18) -1.0738(5) 0.3182(3)
C9 C 0.24912(17) -0.8091(6) 0.2674(2)
C10 C 0.18553(17) -0.7374(5) 0.2550(2)
Se2 Se 0.430833(15) -0.28436(4) 0.130030(18)
F9 F 0.27922(10) -0.2091(3) 0.11006(16)
F10 F 0.17274(10) -0.4339(4) 0.04145(17)
F11 F 0.30680(12) -0.8927(3) 0.00536(17)
F12 F 0.41978(9) -0.6943(2) 0.07540(12)
F13 F 0.43559(9) -0.5636(2) 0.28420(11)
F14 F 0.42877(11) -0.4925(3) 0.45129(12)
F15 F 0.41435(10) 0.1142(2) 0.40010(12)
F16 F 0.41645(9) 0.0715(2) 0.22903(11)
N3 N 0.24100(14) -0.6611(4) 0.0241(2)
N4 N 0.42120(13) -0.1886(3) 0.42500(16)
C11 C 0.35381(15) -0.4411(4) 0.09245(18)
C12 C 0.28916(16) -0.3787(4) 0.0849(2)
C13 C 0.23534(16) -0.4935(5) 0.0504(2)
C14 C 0.30200(18) -0.7211(5) 0.0328(2)
C15 C 0.35956(15) -0.6197(4) 0.06680(18)
C16 C 0.42520(14) -0.2483(4) 0.24977(19)
C17 C 0.42882(15) -0.3910(4) 0.30911(19)
C18 C 0.42596(15) -0.3545(4) 0.39465(19)
C19 C 0.41912(15) -0.0535(4) 0.36920(19)
C20 C 0.42017(14) -0.0747(4) 0.28159(18)
loop_
_geom_bond_atom_site_label_1
_geom_bond_atom_site_label_2
_geom_bond_site_symmetry_1
_geom_bond_site_symmetry_2
Se1 C1 1_555 1_555
F1 C2 1_555 1_555
F2 C3 1_555 1_555
F3 C4 1_555 1_555
F4 C5 1_555 1_555
F5 C7 1_555 1_555
F6 C8 1_555 1_555
F7 C9 1_555 1_555
F8 C10 1_555 1_555
N1 C3 1_555 1_555
N2 C8 1_555 1_555
C1 C2 1_555 1_555
C2 C3 1_555 1_555
C4 N1 1_555 1_555
C5 C1 1_555 1_555
C6 Se1 1_555 1_555
C7 C6 1_555 1_555
C8 C7 1_555 1_555
C9 N2 1_555 1_555
C10 C6 1_555 1_555
Se2 C11 1_555 1_555
F9 C12 1_555 1_555
F10 C13 1_555 1_555
F11 C14 1_555 1_555
F12 C15 1_555 1_555
F13 C17 1_555 1_555
F14 C18 1_555 1_555
F15 C19 1_555 1_555
F16 C20 1_555 1_555
N3 C13 1_555 1_555
N4 C18 1_555 1_555
C11 C12 1_555 1_555
C12 C13 1_555 1_555
C14 N3 1_555 1_555
C15 C11 1_555 1_555
C16 Se2 1_555 1_555
C17 C16 1_555 1_555
C18 C17 1_555 1_555
C19 N4 1_555 1_555
C20 C16 1_555 1_555
C4 C5 1_555 1_555
C9 C10 1_555 1_555
C14 C15 1_555 1_555
C19 C20 1_555 1_555

#END
