
#######################################################################
#
#                 Cambridge Crystallographic Data Centre
#                                CCDC 
#
#######################################################################
#
# If this CIF has been generated from an entry in the Cambridge 
# Structural Database, then it will include bibliographic, chemical, 
# crystal, experimental, refinement or atomic coordinate data resulting 
# from the CCDC's data processing and validation procedures.
#
#######################################################################

data_BECGAT
_chemical_formula_moiety         'C10 F8 N2 Te1'
_chemical_name_systematic        4,4'-Tellanylbis(tetrafluoropyridine)
_symmetry_cell_setting           monoclinic
_symmetry_space_group_name_H-M   'P 21/c'
_symmetry_Int_Tables_number      14
_space_group_name_Hall           '-P 2ybc'
loop_
_symmetry_equiv_pos_site_id
_symmetry_equiv_pos_as_xyz
1 x,y,z
2 -x,1/2+y,1/2-z
3 -x,-y,-z
4 x,1/2-y,1/2+z
_cell_length_a                   25.487(3)
_cell_length_b                   5.9088(4)
_cell_length_c                   16.024(2)
_cell_angle_alpha                90
_cell_angle_beta                 104.562(10)
_cell_angle_gamma                90
_cell_volume                     2335.66
_exptl_crystal_colour            colorless
_exptl_crystal_description       column
_cell_formula_units_Z            8
loop_
_atom_site_label
_atom_site_type_symbol
_atom_site_fract_x
_atom_site_fract_y
_atom_site_fract_z
Te1 Te 0.065849(12) 0.21213(6) -0.424455(19)
C1 C 0.07603(19) 0.2740(8) -0.2903(3)
C2 C 0.10281(19) 0.1262(8) -0.2280(3)
F1 F 0.12282(12) -0.0706(5) -0.24916(18)
C3 C 0.1086(2) 0.1783(8) -0.1422(3)
F2 F 0.13518(13) 0.0340(5) -0.08167(18)
N1 N 0.08966(16) 0.3616(7) -0.1143(3)
C4 C 0.06400(19) 0.5033(8) -0.1741(3)
F3 F 0.04541(12) 0.6945(5) -0.14574(19)
C5 C 0.05612(19) 0.4694(8) -0.2608(3)
F4 F 0.02869(12) 0.6242(5) -0.31716(18)
C6 C 0.14943(19) 0.1451(8) -0.4042(3)
C7 C 0.1889(2) 0.2931(9) -0.3629(3)
F5 F 0.17644(12) 0.4901(5) -0.32967(19)
C8 C 0.2428(2) 0.2395(9) -0.3543(3)
F6 F 0.28102(13) 0.3838(6) -0.3120(2)
N2 N 0.25978(19) 0.0516(8) -0.3824(3)
C9 C 0.2221(2) -0.0915(9) -0.4217(3)
F7 F 0.23910(15) -0.2851(6) -0.4489(2)
C10 C 0.1671(2) -0.0542(8) -0.4338(3)
F8 F 0.13197(14) -0.2116(5) -0.4726(2)
Te2 Te 0.429925(12) 0.29782(6) -0.034868(19)
C11 C 0.34607(18) 0.2363(8) -0.0863(3)
C12 C 0.30659(19) 0.3872(8) -0.0774(3)
F9 F 0.31974(12) 0.5822(5) -0.03451(19)
C13 C 0.2528(2) 0.3384(9) -0.1137(3)
F10 F 0.21443(12) 0.4848(6) -0.1054(2)
N3 N 0.23601(17) 0.1514(7) -0.1564(3)
C14 C 0.2732(2) 0.0058(9) -0.1646(3)
F11 F 0.25617(14) -0.1849(5) -0.2082(2)
C15 C 0.3281(2) 0.0390(8) -0.1322(3)
F12 F 0.36319(12) -0.1186(5) -0.1433(2)
C16 C 0.42099(19) 0.2912(8) 0.0935(3)
C17 C 0.3975(2) 0.1069(8) 0.1246(3)
F13 F 0.37499(12) -0.0633(5) 0.07291(19)
C18 C 0.39837(19) 0.0972(9) 0.2116(3)
F14 F 0.37731(12) -0.0823(5) 0.2414(2)
N4 N 0.41955(17) 0.2555(7) 0.2677(3)
C19 C 0.44113(19) 0.4287(9) 0.2384(3)
F15 F 0.46422(12) 0.5870(5) 0.29629(18)
C20 C 0.44281(19) 0.4543(8) 0.1533(3)
F16 F 0.46696(12) 0.6392(5) 0.13062(18)
loop_
_geom_bond_atom_site_label_1
_geom_bond_atom_site_label_2
_geom_bond_site_symmetry_1
_geom_bond_site_symmetry_2
Te1 C1 1_555 1_555
C1 C2 1_555 1_555
C2 F1 1_555 1_555
C3 C2 1_555 1_555
F2 C3 1_555 1_555
N1 C3 1_555 1_555
C4 N1 1_555 1_555
F3 C4 1_555 1_555
C5 C1 1_555 1_555
F4 C5 1_555 1_555
C6 Te1 1_555 1_555
C7 C6 1_555 1_555
F5 C7 1_555 1_555
C8 C7 1_555 1_555
F6 C8 1_555 1_555
N2 C8 1_555 1_555
C9 N2 1_555 1_555
F7 C9 1_555 1_555
C10 C6 1_555 1_555
F8 C10 1_555 1_555
Te2 C11 1_555 1_555
C11 C12 1_555 1_555
C12 F9 1_555 1_555
C13 C12 1_555 1_555
F10 C13 1_555 1_555
N3 C13 1_555 1_555
C14 N3 1_555 1_555
F11 C14 1_555 1_555
C15 C11 1_555 1_555
F12 C15 1_555 1_555
C16 Te2 1_555 1_555
C17 C16 1_555 1_555
F13 C17 1_555 1_555
C18 C17 1_555 1_555
F14 C18 1_555 1_555
N4 C18 1_555 1_555
C19 N4 1_555 1_555
F15 C19 1_555 1_555
C20 C16 1_555 1_555
F16 C20 1_555 1_555
C4 C5 1_555 1_555
C9 C10 1_555 1_555
C14 C15 1_555 1_555
C19 C20 1_555 1_555

#END
