
#######################################################################
#
#                 Cambridge Crystallographic Data Centre
#                                CCDC 
#
#######################################################################
#
# If this CIF has been generated from an entry in the Cambridge 
# Structural Database, then it will include bibliographic, chemical, 
# crystal, experimental, refinement or atomic coordinate data resulting 
# from the CCDC's data processing and validation procedures.
#
#######################################################################

data_BECKOJ
_chemical_formula_moiety         'C24 H35 N1 O8'
_chemical_name_systematic        
'4-Amino-4-deoxymethylene-anhydrolycoctonam-acetoxy-lactam acid'
_symmetry_cell_setting           orthorhombic
_symmetry_space_group_name_H-M   'P 21 21 21'
_symmetry_Int_Tables_number      19
_space_group_name_Hall           'P 2ac 2ab'
loop_
_symmetry_equiv_pos_site_id
_symmetry_equiv_pos_as_xyz
1 x,y,z
2 1/2+x,1/2-y,-z
3 -x,1/2+y,1/2-z
4 1/2-x,-y,1/2+z
_cell_length_a                   12.480(1)
_cell_length_b                   21.025(2)
_cell_length_c                   9.512(1)
_cell_angle_alpha                90
_cell_angle_beta                 90
_cell_angle_gamma                90
_cell_volume                     2495.87
_exptl_crystal_colour            colorless
_chemical_melting_point          471K
_cell_formula_units_Z            4
loop_
_atom_site_label
_atom_site_type_symbol
_atom_site_fract_x
_atom_site_fract_y
_atom_site_fract_z
O1 O 0.37590 0.22810 1.42550
O2 O 0.66210 0.04400 1.32990
O3 O 0.73620 -0.03120 1.20590
O4 O 0.33300 -0.00740 1.33320
O5 O 0.42760 0.04690 0.94830
O6 O 0.28620 0.10570 0.89740
O7 O 0.57980 0.20940 0.83480
O8 O 0.40960 0.32370 0.93930
N1 N 0.31020 0.08970 1.23020
C1 C 0.44990 0.17810 1.44180
C2 C 0.41730 0.12730 1.54880
C3 C 0.48220 0.07120 1.50460
C4 C 0.47530 0.07130 1.34320
C5 C 0.55890 0.02830 1.27330
C6 C 0.37960 0.09610 0.95850
C7 C 0.41690 0.15240 1.04420
C8 C 0.54190 0.15180 1.06040
C9 C 0.56310 0.16930 1.21480
C10 C 0.46860 0.14320 1.29980
C11 C 0.57550 0.24330 1.21350
C12 C 0.55230 0.26380 1.06110
C13 C 0.59620 0.20660 0.98170
C14 C 0.37770 0.21470 0.97670
C15 C 0.43260 0.27370 1.03670
C16 C 0.37210 0.14700 1.19940
C17 C 0.36500 0.04580 1.30130
C18 C 0.37230 0.27190 1.53920
C19 C 0.74460 0.01140 1.28870
C20 C 0.84600 0.03190 1.35420
C21 C 0.19410 0.08530 1.20480
C22 C 0.13210 0.11340 1.32140
C23 C 0.65290 0.17770 0.75720
C24 C 0.41910 0.38480 1.00250
H1 H 0.27300 0.07400 0.86500
H2 H 0.52000 0.19500 1.47600
H3 H 0.34000 0.11800 1.53200
H4 H 0.43300 0.14200 1.64500
H5 H 0.46000 0.02300 1.53500
H6 H 0.56100 0.07500 1.53500
H7 H 0.53800 -0.01500 1.28600
H8 H 0.55500 0.02900 1.16500
H9 H 0.57200 0.10900 1.03400
H10 H 0.63700 0.14800 1.24900
H11 H 0.52300 0.26500 1.27600
H12 H 0.63600 0.25900 1.24300
H13 H 0.58500 0.29900 1.03400
H14 H 0.67100 0.20700 1.00200
H15 H 0.30100 0.21600 0.99600
H16 H 0.39000 0.21400 0.87600
H17 H 0.40000 0.28300 1.13200
H18 H 0.32700 0.18300 1.22500
H19 H 0.33400 0.30700 1.51500
H20 H 0.33800 0.25100 1.62200
H21 H 0.44700 0.28500 1.56400
H22 H 0.83700 0.04800 1.45700
H23 H 0.89900 -0.00700 1.35500
H24 H 0.87900 0.06900 1.29300
H25 H 0.17800 0.10600 1.12400
H26 H 0.17900 0.04400 1.19400
H27 H 0.05900 0.10800 1.30500
H28 H 0.14900 0.16000 1.32900
H29 H 0.15100 0.09200 1.41100
H30 H 0.50000 0.39500 1.02000
H31 H 0.37800 0.38400 1.09900
H32 H 0.38500 0.41900 0.93600
loop_
_geom_bond_atom_site_label_1
_geom_bond_atom_site_label_2
_geom_bond_site_symmetry_1
_geom_bond_site_symmetry_2
O1 C1 1_555 1_555
O2 C5 1_555 1_555
O3 C19 1_555 1_555
O4 C17 1_555 1_555
O5 C6 1_555 1_555
O6 C6 1_555 1_555
O7 C13 1_555 1_555
O8 C15 1_555 1_555
N1 C16 1_555 1_555
C1 C2 1_555 1_555
C2 C3 1_555 1_555
C3 C4 1_555 1_555
C4 C5 1_555 1_555
C5 H7 1_555 1_555
C6 C7 1_555 1_555
C7 C8 1_555 1_555
C8 C9 1_555 1_555
C9 C10 1_555 1_555
C10 C1 1_555 1_555
C11 C9 1_555 1_555
C12 C11 1_555 1_555
C13 C8 1_555 1_555
C14 C7 1_555 1_555
C15 C12 1_555 1_555
C16 C7 1_555 1_555
C17 N1 1_555 1_555
C18 O1 1_555 1_555
C19 O2 1_555 1_555
C20 C19 1_555 1_555
C21 N1 1_555 1_555
C22 C21 1_555 1_555
C23 O7 1_555 1_555
C24 O8 1_555 1_555
H1 O6 1_555 1_555
H2 C1 1_555 1_555
H3 C2 1_555 1_555
H4 C2 1_555 1_555
H5 C3 1_555 1_555
H6 C3 1_555 1_555
H8 C5 1_555 1_555
H9 C8 1_555 1_555
H10 C9 1_555 1_555
H11 C11 1_555 1_555
H12 C11 1_555 1_555
H13 C12 1_555 1_555
H14 C13 1_555 1_555
H15 C14 1_555 1_555
H16 C14 1_555 1_555
H17 C15 1_555 1_555
H18 C16 1_555 1_555
H19 C18 1_555 1_555
H20 C18 1_555 1_555
H21 C18 1_555 1_555
H22 C20 1_555 1_555
H23 C20 1_555 1_555
H24 C20 1_555 1_555
H25 C21 1_555 1_555
H26 C21 1_555 1_555
H27 C22 1_555 1_555
H28 C22 1_555 1_555
H29 C22 1_555 1_555
H30 C24 1_555 1_555
H31 C24 1_555 1_555
H32 C24 1_555 1_555
C4 C10 1_555 1_555
C4 C17 1_555 1_555
C10 C16 1_555 1_555
C12 C13 1_555 1_555
C14 C15 1_555 1_555

#END
