
#######################################################################
#
#                 Cambridge Crystallographic Data Centre
#                                CCDC 
#
#######################################################################
#
# If this CIF has been generated from an entry in the Cambridge 
# Structural Database, then it will include bibliographic, chemical, 
# crystal, experimental, refinement or atomic coordinate data resulting 
# from the CCDC's data processing and validation procedures.
#
#######################################################################

data_BECLIG
_chemical_formula_moiety         'C15 H19 N1 O2 Se1'
_chemical_name_systematic        
(7R,8R,8aS)-7-(hydroxymethyl)-8-(phenylselanyl)hexahydroindolizin-5(1H)-one
_symmetry_cell_setting           monoclinic
_symmetry_space_group_name_H-M   'P 21'
_symmetry_Int_Tables_number      4
_space_group_name_Hall           'P 2yb'
loop_
_symmetry_equiv_pos_site_id
_symmetry_equiv_pos_as_xyz
1 x,y,z
2 -x,1/2+y,-z
_cell_length_a                   5.3245(9)
_cell_length_b                   9.328(2)
_cell_length_c                   14.201(3)
_cell_angle_alpha                90
_cell_angle_beta                 94.220(10)
_cell_angle_gamma                90
_cell_volume                     703.408
_exptl_crystal_colour            colorless
_exptl_crystal_description       plate
_cell_formula_units_Z            2
loop_
_atom_site_label
_atom_site_type_symbol
_atom_site_fract_x
_atom_site_fract_y
_atom_site_fract_z
Se1 Se -0.15082(2) 0.33916(3) 0.299122(9)
C1 C 0.0653(3) 0.3493(3) 0.11629(10)
H1 H -0.1084 0.3343 0.0862
O1 O 0.4545(3) 0.07170(19) 0.00332(13)
N1 N 0.2027(3) 0.05191(17) 0.12216(11)
C2 C 0.0316(3) 0.10956(19) 0.19073(12)
H2 H -0.1459 0.1004 0.1631
C3 C 0.3080(3) 0.1279(2) 0.05644(12)
C4 C 0.0875(3) 0.26658(18) 0.20990(11)
H3 H 0.2632 0.2762 0.2393
C5 C 0.2535(4) 0.2857(2) 0.05059(13)
H4 H 0.1908 0.3075 -0.0152
H5 H 0.4152 0.3372 0.0628
C6 C 0.0672(3) 0.3188(2) 0.41238(11)
C7 C 0.1008(4) -0.1386(2) 0.22072(14)
H6 H 0.1831 -0.2116 0.2632
H7 H -0.0648 -0.1755 0.1952
O2 O 0.3501(3) 0.54291(15) 0.17202(10)
H8 H 0.446(6) 0.562(3) 0.129(2)
C8 C 0.1094(4) 0.5107(2) 0.12697(14)
H9 H 0.0943 0.5559 0.0637
H10 H -0.0226 0.5521 0.1644
C9 C 0.0724(4) 0.0040(2) 0.27235(13)
H11 H -0.0739 0.0023 0.3115
H12 H 0.2262 0.0276 0.3128
C10 C 0.2664(4) -0.0993(2) 0.14139(14)
H13 H 0.4472 -0.1103 0.1619
H14 H 0.2263 -0.1595 0.0849
C11 C 0.0046(4) 0.2231(2) 0.48170(13)
H15 H -0.1418 0.1652 0.4722
C12 C 0.2823(3) 0.4040(2) 0.42591(13)
H16 H 0.3248 0.4694 0.3783
C13 C 0.4336(4) 0.3925(2) 0.50912(15)
H17 H 0.5801 0.4503 0.5187
C14 C 0.3715(4) 0.2969(2) 0.57843(15)
H18 H 0.4762 0.2893 0.6353
C15 C 0.1578(5) 0.2125(2) 0.56522(14)
H19 H 0.1158 0.1474 0.6131
loop_
_geom_bond_atom_site_label_1
_geom_bond_atom_site_label_2
_geom_bond_site_symmetry_1
_geom_bond_site_symmetry_2
Se1 C4 1_555 1_555
C1 H1 1_555 1_555
O1 C3 1_555 1_555
N1 C2 1_555 1_555
C2 H2 1_555 1_555
C3 N1 1_555 1_555
C4 C1 1_555 1_555
H3 C4 1_555 1_555
C5 C1 1_555 1_555
H4 C5 1_555 1_555
H5 C5 1_555 1_555
C6 Se1 1_555 1_555
C7 H6 1_555 1_555
H7 C7 1_555 1_555
O2 H8 1_555 1_555
C8 C1 1_555 1_555
H9 C8 1_555 1_555
H10 C8 1_555 1_555
C9 C2 1_555 1_555
H11 C9 1_555 1_555
H12 C9 1_555 1_555
C10 N1 1_555 1_555
H13 C10 1_555 1_555
H14 C10 1_555 1_555
C11 C6 1_555 1_555
H15 C11 1_555 1_555
C12 C6 1_555 1_555
H16 C12 1_555 1_555
C13 C12 1_555 1_555
H17 C13 1_555 1_555
C14 C13 1_555 1_555
H18 C14 1_555 1_555
C15 C11 1_555 1_555
H19 C15 1_555 1_555
C2 C4 1_555 1_555
C3 C5 1_555 1_555
C7 C9 1_555 1_555
C7 C10 1_555 1_555
O2 C8 1_555 1_555
C14 C15 1_555 1_555

#END
