
#######################################################################
#
#                 Cambridge Crystallographic Data Centre
#                                CCDC 
#
#######################################################################
#
# If this CIF has been generated from an entry in the Cambridge 
# Structural Database, then it will include bibliographic, chemical, 
# crystal, experimental, refinement or atomic coordinate data resulting 
# from the CCDC's data processing and validation procedures.
#
#######################################################################

data_BECPIL01
_chemical_formula_moiety         'C25 H16 O1,C10 H2 N4'
_chemical_name_systematic        
'1-phenyl-3-(pyren-1-yl)prop-2-en-1-one benzene-1,2,4,5-tetracarbonitrile'
_symmetry_cell_setting           triclinic
_symmetry_space_group_name_H-M   'P -1'
_symmetry_Int_Tables_number      2
_space_group_name_Hall           '-P 1'
loop_
_symmetry_equiv_pos_site_id
_symmetry_equiv_pos_as_xyz
1 x,y,z
2 -x,-y,-z
_cell_length_a                   9.945(2)
_cell_length_b                   10.712(2)
_cell_length_c                   13.518(3)
_cell_angle_alpha                68.19(3)
_cell_angle_beta                 81.65(3)
_cell_angle_gamma                75.20(3)
_cell_volume                     1290.61
_exptl_crystal_colour            red
_exptl_crystal_description       Block
_cell_formula_units_Z            2
loop_
_atom_site_label
_atom_site_type_symbol
_atom_site_fract_x
_atom_site_fract_y
_atom_site_fract_z
O1 O 0.3289(2) 0.2491(3) -0.09762(19)
C1 C -0.0039(4) 0.2411(3) 0.1787(2)
H1 H -0.0060 0.3350 0.1510
C2 C -0.1232(4) 0.1972(4) 0.2184(2)
H2 H -0.2055 0.2622 0.2188
C3 C -0.1270(4) 0.0566(4) 0.2593(2)
C4 C -0.0007(4) -0.0448(3) 0.2646(2)
C5 C 0.1274(4) -0.0004(3) 0.2229(2)
C6 C 0.1268(3) 0.1435(3) 0.1787(2)
C7 C -0.2507(4) 0.0084(4) 0.2978(3)
H3 H -0.3349 0.0716 0.2967
C8 C -0.2496(5) -0.1293(5) 0.3367(3)
H4 H -0.3329 -0.1582 0.3600
C9 C -0.1277(5) -0.2248(4) 0.3417(3)
H5 H -0.1291 -0.3180 0.3700
C10 C -0.0005(4) -0.1852(4) 0.3049(3)
C11 C 0.1288(4) -0.2833(4) 0.3090(3)
H6 H 0.1305 -0.3771 0.3390
C12 C 0.2478(4) -0.2406(4) 0.2699(3)
H7 H 0.3303 -0.3065 0.2727
C13 C 0.2529(4) -0.1002(3) 0.2248(3)
C14 C 0.3740(4) -0.0548(4) 0.1791(3)
H8 H 0.4576 -0.1183 0.1787
C15 C 0.3702(4) 0.0858(4) 0.1339(3)
H9 H 0.4523 0.1141 0.1033
C16 C 0.2508(4) 0.1842(4) 0.1325(3)
C17 C 0.2538(3) 0.3306(4) 0.0897(3)
H10 H 0.2187 0.3785 0.1362
C18 C 0.2996(4) 0.4053(4) -0.0066(3)
H11 H 0.3062 0.4941 -0.0158
C19 C 0.3402(3) 0.3616(4) -0.0984(3)
C20 C 0.3909(3) 0.4610(4) -0.1983(3)
C21 C 0.4701(4) 0.5472(4) -0.1987(3)
H12 H 0.4923 0.5472 -0.1342
C22 C 0.5185(4) 0.6349(4) -0.2931(4)
H13 H 0.5760 0.6905 -0.2923
C23 C 0.4808(6) 0.6392(6) -0.3883(4)
H14 H 0.5090 0.7004 -0.4526
C24 C 0.4009(5) 0.5517(5) -0.3868(4)
H15 H 0.3767 0.5532 -0.4512
C25 C 0.3558(4) 0.4622(4) -0.2936(4)
H16 H 0.3022 0.4030 -0.2945
N1 N 0.0944(5) 0.3660(4) 0.3744(3)
N2 N 0.3910(4) 0.0237(5) 0.4064(3)
C26 C 0.1026(4) -0.1182(4) 0.5124(3)
H17 H 0.1717 -0.1980 0.5211
C27 C 0.1369(4) 0.0103(4) 0.4674(3)
C28 C 0.0348(4) 0.1271(4) 0.4558(3)
C29 C 0.0699(5) 0.2601(4) 0.4090(3)
C30 C 0.2802(5) 0.0183(5) 0.4340(3)
N1A N -0.0944(5) -0.3660(4) 0.6256(3)
N2A N -0.3910(4) -0.0237(5) 0.5936(3)
C26A C -0.1026(4) 0.1182(4) 0.4876(3)
H17A H -0.1717 0.1980 0.4789
C27A C -0.1369(4) -0.0103(4) 0.5326(3)
C28A C -0.0348(4) -0.1271(4) 0.5442(3)
C29A C -0.0699(5) -0.2601(4) 0.5910(3)
C30A C -0.2802(5) -0.0183(5) 0.5660(3)
N3 N 0.3523(3) -0.2738(3) 0.9991(3)
N4 N -0.0021(3) 0.3984(3) 0.8825(2)
C31 C 0.1246(3) -0.0954(3) 1.0010(2)
C32 C 0.1228(3) 0.0446(3) 0.9608(2)
H18 H 0.2056 0.0740 0.9351
C33 C -0.0001(3) 0.1404(3) 0.9586(2)
C34 C 0.2519(4) -0.1952(4) 1.0013(3)
C35 C -0.0004(3) 0.2838(4) 0.9168(3)
N3A N -0.3523(3) 0.2738(3) 1.0009(3)
N4A N 0.0021(3) -0.3984(3) 1.1175(2)
C31A C -0.1246(3) 0.0954(3) 0.9990(2)
C32A C -0.1228(3) -0.0446(3) 1.0392(2)
H18A H -0.2056 -0.0740 1.0649
C33A C 0.0001(3) -0.1404(3) 1.0414(2)
C34A C -0.2519(4) 0.1952(4) 0.9987(3)
C35A C 0.0004(3) -0.2838(4) 1.0832(3)
loop_
_geom_bond_atom_site_label_1
_geom_bond_atom_site_label_2
_geom_bond_site_symmetry_1
_geom_bond_site_symmetry_2
O1 C19 1_555 1_555
C1 H1 1_555 1_555
C2 C1 1_555 1_555
H2 C2 1_555 1_555
C3 C2 1_555 1_555
C4 C3 1_555 1_555
C5 C4 1_555 1_555
C6 C1 1_555 1_555
C7 C3 1_555 1_555
H3 C7 1_555 1_555
C8 C7 1_555 1_555
H4 C8 1_555 1_555
C9 C8 1_555 1_555
H5 C9 1_555 1_555
C10 C4 1_555 1_555
C11 C10 1_555 1_555
H6 C11 1_555 1_555
C12 C11 1_555 1_555
H7 C12 1_555 1_555
C13 C5 1_555 1_555
C14 C13 1_555 1_555
H8 C14 1_555 1_555
C15 C14 1_555 1_555
H9 C15 1_555 1_555
C16 C6 1_555 1_555
C17 C16 1_555 1_555
H10 C17 1_555 1_555
C18 C17 1_555 1_555
H11 C18 1_555 1_555
C19 C18 1_555 1_555
C20 C19 1_555 1_555
C21 C20 1_555 1_555
H12 C21 1_555 1_555
C22 C21 1_555 1_555
H13 C22 1_555 1_555
C23 C22 1_555 1_555
H14 C23 1_555 1_555
C24 C23 1_555 1_555
H15 C24 1_555 1_555
C25 C20 1_555 1_555
H16 C25 1_555 1_555
N1 C29 1_555 1_555
N2 C30 1_555 1_555
C26 H17 1_555 1_555
C27 C26 1_555 1_555
C28 C27 1_555 1_555
C29 C28 1_555 1_555
C30 C27 1_555 1_555
N3 C34 1_555 1_555
N4 C35 1_555 1_555
C31 C32 1_555 1_555
C32 H18 1_555 1_555
C33 C32 1_555 1_555
C34 C31 1_555 1_555
C35 C33 1_555 1_555
N1A C29A 1_555 1_555
N2A C30A 1_555 1_555
C26A C28 1_555 1_555
H17A C26A 1_555 1_555
C27A C26A 1_555 1_555
C28A C26 1_555 1_555
C29A C28A 1_555 1_555
C30A C27A 1_555 1_555
N3A C34A 1_555 1_555
N4A C35A 1_555 1_555
C31A C33 1_555 1_555
C32A C31A 1_555 1_555
H18A C32A 1_555 1_555
C33A C31 1_555 1_555
C34A C31A 1_555 1_555
C35A C33A 1_555 1_555
C5 C6 1_555 1_555
C9 C10 1_555 1_555
C12 C13 1_555 1_555
C15 C16 1_555 1_555
C24 C25 1_555 1_555
C27A C28A 1_555 1_555
C32A C33A 1_555 1_555

#END
