
#######################################################################
#
#                 Cambridge Crystallographic Data Centre
#                                CCDC 
#
#######################################################################
#
# If this CIF has been generated from an entry in the Cambridge 
# Structural Database, then it will include bibliographic, chemical, 
# crystal, experimental, refinement or atomic coordinate data resulting 
# from the CCDC's data processing and validation procedures.
#
#######################################################################

data_BECYOA
_chemical_formula_moiety         'C26 H34 O7,0.5(C1 H4 O1)'
_chemical_name_systematic        
'methyl 16-hydroxy-4,4,8,16-tetramethyl-12-methylene-3,6,15,17-tetraoxoandrostane-14-carboxylate methanol solvate'
_symmetry_cell_setting           orthorhombic
_symmetry_space_group_name_H-M   'P 21 21 2'
_symmetry_Int_Tables_number      18
_space_group_name_Hall           'P 2 2ab'
loop_
_symmetry_equiv_pos_site_id
_symmetry_equiv_pos_as_xyz
1 x,y,z
2 -x,-y,z
3 1/2-x,1/2+y,-z
4 1/2+x,1/2-y,-z
_cell_length_a                   15.9430(10)
_cell_length_b                   18.9803(12)
_cell_length_c                   8.1055(5)
_cell_angle_alpha                90
_cell_angle_beta                 90
_cell_angle_gamma                90
_cell_volume                     2452.75
_cell_formula_units_Z            4
loop_
_atom_site_label
_atom_site_type_symbol
_atom_site_fract_x
_atom_site_fract_y
_atom_site_fract_z
O1 O 0.3360(2) 0.2788(2) 0.2991(5)
O2 O 0.5998(2) 0.3275(2) -0.0819(4)
O3 O 0.59398(19) 0.53673(16) 0.3284(4)
O4 O 0.6668(2) 0.62822(16) 0.5776(4)
H1 H 0.6820 0.6468 0.4913
O5 O 0.8228(2) 0.56538(17) 0.6722(4)
O6 O 0.7826(2) 0.58997(19) 0.2734(4)
O7 O 0.7975(2) 0.5110(2) 0.0700(4)
C1 C 0.5329(3) 0.2872(3) 0.4817(6)
H2 H 0.5650 0.2648 0.5687
H3 H 0.5108 0.3311 0.5250
C2 C 0.4594(3) 0.2390(3) 0.4334(6)
H4 H 0.4808 0.1927 0.4055
H5 H 0.4219 0.2339 0.5269
C3 C 0.4111(3) 0.2680(3) 0.2889(7)
C4 C 0.4611(3) 0.2841(3) 0.1322(6)
C5 C 0.5366(3) 0.3303(2) 0.1899(5)
H6 H 0.5108 0.3737 0.2316
C6 C 0.5946(3) 0.3546(3) 0.0533(6)
C7 C 0.6467(3) 0.4186(2) 0.0979(5)
H7 H 0.6098 0.4583 0.1179
H8 H 0.6829 0.4306 0.0058
C8 C 0.7013(3) 0.4054(3) 0.2536(5)
C9 C 0.6486(3) 0.3681(2) 0.3903(5)
H9 H 0.6095 0.4039 0.4312
C10 C 0.5923(3) 0.3037(2) 0.3346(6)
C11 C 0.7056(3) 0.3500(2) 0.5369(5)
H10 H 0.6699 0.3383 0.6300
H11 H 0.7368 0.3078 0.5088
C12 C 0.7677(3) 0.4051(3) 0.5933(5)
C13 C 0.7919(3) 0.4680(3) 0.4832(5)
C14 C 0.7307(3) 0.4764(2) 0.3311(5)
C15 C 0.6584(3) 0.5243(2) 0.3998(5)
C16 C 0.6813(3) 0.5546(3) 0.5688(6)
C17 C 0.7730(3) 0.5343(3) 0.5881(6)
C18 C 0.4823(3) 0.2128(3) 0.0497(6)
H12 H 0.4312 0.1887 0.0218
H13 H 0.5144 0.1844 0.1247
H14 H 0.5143 0.2210 -0.0487
C19 C 0.4067(3) 0.3277(3) 0.0140(6)
H15 H 0.3555 0.3029 -0.0082
H16 H 0.4366 0.3351 -0.0875
H17 H 0.3941 0.3724 0.0636
C20 C 0.6430(3) 0.2374(2) 0.2897(6)
H18 H 0.6909 0.2338 0.3611
H19 H 0.6614 0.2406 0.1772
H20 H 0.6084 0.1964 0.3030
C21 C 0.7777(3) 0.3606(2) 0.1984(6)
H21 H 0.7587 0.3221 0.1312
H22 H 0.8061 0.3425 0.2939
H23 H 0.8156 0.3895 0.1359
C22 C 0.8037(3) 0.3982(3) 0.7389(5)
H24 H 0.7908 0.3598 0.8055
H25 H 0.8420 0.4318 0.7750
C23 C 0.8863(3) 0.4665(3) 0.4421(5)
H26 H 0.9181 0.4624 0.5423
H27 H 0.9016 0.5092 0.3863
H28 H 0.8981 0.4269 0.3722
C24 C 0.7741(3) 0.5256(3) 0.2048(6)
C25 C 0.8283(3) 0.6414(3) 0.1733(7)
H29 H 0.8869 0.6298 0.1726
H30 H 0.8209 0.6876 0.2191
H31 H 0.8072 0.6406 0.0624
C26 C 0.6262(3) 0.5217(3) 0.7035(5)
H32 H 0.6449 0.5375 0.8098
H33 H 0.6301 0.4713 0.6978
H34 H 0.5689 0.5358 0.6871
O8? O 0.9795(7) 0.5458(6) 0.8295(13)
H35? H 0.9294 0.5421 0.8079
H36? H 0.9560 0.4660 0.9751
H37? H 1.0062 0.5268 1.0609
H38? H 1.0517 0.4762 0.9369
C27? C 1.0000 0.5000 0.9612(17)
loop_
_geom_bond_atom_site_label_1
_geom_bond_atom_site_label_2
_geom_bond_site_symmetry_1
_geom_bond_site_symmetry_2
O1 C3 1_555 1_555
O2 C6 1_555 1_555
O3 C15 1_555 1_555
O4 H1 1_555 1_555
O5 C17 1_555 1_555
O6 C24 1_555 1_555
O7 C24 1_555 1_555
C1 H2 1_555 1_555
H3 C1 1_555 1_555
C2 C1 1_555 1_555
H4 C2 1_555 1_555
H5 C2 1_555 1_555
C3 C2 1_555 1_555
C4 C3 1_555 1_555
C5 C4 1_555 1_555
H6 C5 1_555 1_555
C6 C5 1_555 1_555
C7 C6 1_555 1_555
H7 C7 1_555 1_555
H8 C7 1_555 1_555
C8 C7 1_555 1_555
C9 C8 1_555 1_555
H9 C9 1_555 1_555
C10 C1 1_555 1_555
C11 C9 1_555 1_555
H10 C11 1_555 1_555
H11 C11 1_555 1_555
C12 C11 1_555 1_555
C13 C12 1_555 1_555
C14 C8 1_555 1_555
C15 C14 1_555 1_555
C16 O4 1_555 1_555
C17 C13 1_555 1_555
C18 C4 1_555 1_555
H12 C18 1_555 1_555
H13 C18 1_555 1_555
H14 C18 1_555 1_555
C19 C4 1_555 1_555
H15 C19 1_555 1_555
H16 C19 1_555 1_555
H17 C19 1_555 1_555
C20 C10 1_555 1_555
H18 C20 1_555 1_555
H19 C20 1_555 1_555
H20 C20 1_555 1_555
C21 C8 1_555 1_555
H21 C21 1_555 1_555
H22 C21 1_555 1_555
H23 C21 1_555 1_555
C22 C12 1_555 1_555
H24 C22 1_555 1_555
H25 C22 1_555 1_555
C23 C13 1_555 1_555
H26 C23 1_555 1_555
H27 C23 1_555 1_555
H28 C23 1_555 1_555
C24 C14 1_555 1_555
C25 O6 1_555 1_555
H29 C25 1_555 1_555
H30 C25 1_555 1_555
H31 C25 1_555 1_555
C26 C16 1_555 1_555
H32 C26 1_555 1_555
H33 C26 1_555 1_555
H34 C26 1_555 1_555
C5 C10 1_555 1_555
C9 C10 1_555 1_555
C13 C14 1_555 1_555
C15 C16 1_555 1_555
C16 C17 1_555 1_555

#END
