
#######################################################################
#
#                 Cambridge Crystallographic Data Centre
#                                CCDC 
#
#######################################################################
#
# If this CIF has been generated from an entry in the Cambridge 
# Structural Database, then it will include bibliographic, chemical, 
# crystal, experimental, refinement or atomic coordinate data resulting 
# from the CCDC's data processing and validation procedures.
#
#######################################################################

data_BECZUG
_chemical_formula_moiety         'C33 H40 O4'
_chemical_name_systematic        
2-(2-Hydroxyethyl)-5-methyl-4-(5-(trityloxy)pentan-2-yl)cyclohex-4-ene-1,3-diol
_symmetry_cell_setting           monoclinic
_symmetry_space_group_name_H-M   'P 21'
_symmetry_Int_Tables_number      4
_space_group_name_Hall           'P 2yb'
loop_
_symmetry_equiv_pos_site_id
_symmetry_equiv_pos_as_xyz
1 x,y,z
2 -x,1/2+y,-z
_cell_length_a                   16.713(3)
_cell_length_b                   7.506(1)
_cell_length_c                   22.361(3)
_cell_angle_alpha                90
_cell_angle_beta                 96.29(1)
_cell_angle_gamma                90
_cell_volume                     2788.25
_exptl_crystal_colour            colorless
_exptl_crystal_description       plate
_cell_formula_units_Z            4
loop_
_atom_site_label
_atom_site_type_symbol
_atom_site_fract_x
_atom_site_fract_y
_atom_site_fract_z
C1 C 0.92840(11) 0.7938(3) 0.48004(8)
H1 H 0.9682 0.6988 0.4936
C2 C 0.84718(11) 0.7051(3) 0.46269(8)
H2 H 0.8303 0.6443 0.4991
C3 C 0.86065(12) 0.5626(3) 0.41567(9)
H3 H 0.8073 0.5104 0.4003
C4 C 0.89912(12) 0.6377(3) 0.36272(9)
C5 C 0.94425(12) 0.7851(3) 0.36833(9)
C6 C 0.95776(12) 0.8884(3) 0.42648(9)
H4 H 0.9298 1.0045 0.4210
H5 H 1.0161 0.9127 0.4355
C7 C 0.87286(13) 0.5515(3) 0.30219(9)
H6 H 0.9137 0.5830 0.2744
C8 C 0.79319(14) 0.6428(3) 0.27821(9)
H7 H 0.7542 0.6239 0.3079
H8 H 0.8032 0.7726 0.2763
C9 C 0.75400(15) 0.5831(3) 0.21726(10)
H9 H 0.7943 0.5861 0.1880
H10 H 0.7353 0.4586 0.2201
C10 C 0.68337(15) 0.7003(3) 0.19478(10)
H11 H 0.6520 0.6450 0.1595
H12 H 0.6474 0.7171 0.2267
C11 C 0.86742(15) 0.3486(3) 0.30429(11)
H13 H 0.9190 0.2997 0.3220
H14 H 0.8549 0.3022 0.2634
H15 H 0.8249 0.3136 0.3288
C12 C 0.98128(15) 0.8731(3) 0.31720(10)
H16 H 0.9515 0.8379 0.2788
H17 H 1.0376 0.8357 0.3180
H18 H 0.9788 1.0029 0.3216
C13 C 0.78068(11) 0.8368(3) 0.43908(9)
H19 H 0.7806 0.9369 0.4679
H20 H 0.7940 0.8862 0.4003
C14 C 0.69664(12) 0.7582(3) 0.42966(9)
H21 H 0.6586 0.8478 0.4105
H22 H 0.6962 0.6538 0.4026
O1 O 0.67196(9) 0.7052(2) 0.48598(7)
H23 H 0.6402 0.6184 0.4808
O2 O 0.92334(8) 0.9150(2) 0.52961(6)
H24 H 0.9699 0.9375 0.5460
O3 O 0.91159(8) 0.42154(19) 0.44176(6)
H25 H 0.8869 0.3634 0.4661
O4 O 0.71568(9) 0.8686(2) 0.17841(7)
C15 C 0.66008(13) 1.0103(3) 0.16072(10)
C16 C 0.70768(14) 1.1392(3) 0.12471(10)
C17 C 0.79102(15) 1.1445(4) 0.13408(12)
H26 H 0.8190 1.0635 0.1615
C18 C 0.83371(17) 1.2661(4) 0.10397(13)
H27 H 0.8909 1.2668 0.1104
C19 C 0.79423(19) 1.3865(4) 0.06475(12)
H28 H 0.8239 1.4713 0.0446
C20 C 0.71188(19) 1.3832(4) 0.05505(12)
H29 H 0.6844 1.4654 0.0278
C21 C 0.66836(16) 1.2609(3) 0.08470(10)
H30 H 0.6113 1.2601 0.0777
C22 C 0.58675(14) 0.9324(3) 0.12226(10)
C23 C 0.59951(16) 0.8525(4) 0.06802(11)
H31 H 0.6512 0.8597 0.0542
C24 C 0.53819(19) 0.7626(4) 0.03387(12)
H32 H 0.5479 0.7076 -0.0029
C25 C 0.4627(2) 0.7533(5) 0.05365(14)
H33 H 0.4204 0.6914 0.0305
C26 C 0.44887(18) 0.8340(5) 0.10687(14)
H34 H 0.3967 0.8297 0.1200
C27 C 0.51086(15) 0.9216(4) 0.14144(12)
H35 H 0.5011 0.9746 0.1785
C28 C 0.63846(14) 1.1138(3) 0.21627(11)
C29 C 0.58541(16) 1.2572(4) 0.20908(13)
H36 H 0.5594 1.2846 0.1703
C30 C 0.57016(19) 1.3605(4) 0.25797(17)
H37 H 0.5345 1.4590 0.2522
C31 C 0.60646(19) 1.3212(4) 0.31500(15)
H38 H 0.5953 1.3910 0.3486
C32 C 0.65871(18) 1.1802(4) 0.32249(12)
H39 H 0.6838 1.1517 0.3615
C33 C 0.67521(16) 1.0787(4) 0.27326(11)
H40 H 0.7126 0.9832 0.2791
C34 C 0.42637(11) 0.7871(3) 0.47635(8)
H41 H 0.4649 0.6913 0.4916
C35 C 0.34470(11) 0.7011(3) 0.45987(8)
H42 H 0.3265 0.6485 0.4972
C36 C 0.35885(12) 0.5487(3) 0.41666(9)
H43 H 0.3059 0.4922 0.4026
C37 C 0.39846(12) 0.6082(3) 0.36222(9)
C38 C 0.44566(11) 0.7529(3) 0.36567(9)
C39 C 0.45723(12) 0.8691(3) 0.42123(9)
H44 H 0.4292 0.9839 0.4123
H45 H 0.5153 0.8951 0.4306
C40 C 0.37740(13) 0.4963(3) 0.30582(9)
H46 H 0.4186 0.5229 0.2779
C41 C 0.29529(14) 0.5502(3) 0.27354(10)
H47 H 0.2779 0.4599 0.2425
H48 H 0.2551 0.5519 0.3030
C42 C 0.29721(13) 0.7308(3) 0.24406(10)
H49 H 0.3396 0.7305 0.2164
H50 H 0.3121 0.8213 0.2755
C43 C 0.21820(14) 0.7843(3) 0.20904(10)
H51 H 0.2011 0.6948 0.1777
H52 H 0.1755 0.7962 0.2362
C44 C 0.38053(15) 0.2953(3) 0.31800(11)
H53 H 0.4331 0.2640 0.3392
H54 H 0.3725 0.2307 0.2797
H55 H 0.3380 0.2628 0.3429
C45 C 0.49034(14) 0.8231(3) 0.31520(10)
H56 H 0.4709 0.7625 0.2776
H57 H 0.5481 0.8008 0.3247
H58 H 0.4810 0.9515 0.3107
C46 C 0.27940(12) 0.8314(3) 0.43266(9)
H59 H 0.2795 0.9368 0.4592
H60 H 0.2941 0.8726 0.3932
C47 C 0.19441(12) 0.7560(3) 0.42360(9)
H61 H 0.1580 0.8431 0.4013
H62 H 0.1939 0.6454 0.3995
O5 O 0.16653(9) 0.7185(2) 0.48035(7)
H63 H 0.1365 0.6286 0.4771
O6 O 0.42310(8) 0.9157(2) 0.52388(6)
H64 H 0.4700 0.9373 0.5398
O7 O 0.41115(8) 0.4157(2) 0.44663(6)
H65 H 0.3854 0.3554 0.4698
O8 O 0.23384(9) 0.9517(2) 0.18238(7)
C48 C 0.16716(13) 1.0626(3) 0.16112(9)
C49 C 0.20277(14) 1.1912(3) 0.11759(10)
C50 C 0.28096(16) 1.2514(4) 0.13039(12)
H66 H 0.3136 1.2051 0.1643
C51 C 0.3124(2) 1.3788(4) 0.09436(15)
H67 H 0.3661 1.4194 0.1039
C52 C 0.2662(2) 1.4458(5) 0.04509(15)
H68 H 0.2874 1.5347 0.0210
C53 C 0.1894(2) 1.3845(4) 0.03065(13)
H69 H 0.1581 1.4275 -0.0044
C54 C 0.15717(17) 1.2594(4) 0.06712(11)
H70 H 0.1033 1.2201 0.0574
C55 C 0.09864(13) 0.9489(3) 0.13027(10)
C56 C 0.11277(16) 0.8522(4) 0.07957(12)
H71 H 0.1629 0.8639 0.0636
C57 C 0.05477(19) 0.7392(5) 0.05220(14)
H72 H 0.0649 0.6749 0.0172
C58 C -0.0174(2) 0.7193(5) 0.07532(16)
H73 H -0.0571 0.6406 0.0566
C59 C -0.03213(18) 0.8137(5) 0.12552(16)
H74 H -0.0821 0.7996 0.1416
C60 C 0.02526(15) 0.9296(4) 0.15308(12)
H75 H 0.0143 0.9955 0.1875
C61 C 0.14071(14) 1.1761(3) 0.21288(10)
C62 C 0.08883(16) 1.3202(4) 0.19999(12)
H76 H 0.0701 1.3461 0.1593
C63 C 0.06420(17) 1.4256(5) 0.24493(14)
H77 H 0.0301 1.5249 0.2350
C64 C 0.08896(18) 1.3874(5) 0.30419(14)
H78 H 0.0703 1.4571 0.3353
C65 C 0.14073(18) 1.2483(4) 0.31811(12)
H79 H 0.1585 1.2228 0.3590
C66 C 0.16774(16) 1.1433(4) 0.27265(11)
H80 H 0.2048 1.0492 0.2828
loop_
_geom_bond_atom_site_label_1
_geom_bond_atom_site_label_2
_geom_bond_site_symmetry_1
_geom_bond_site_symmetry_2
C1 H1 1_555 1_555
C2 C1 1_555 1_555
H2 C2 1_555 1_555
C3 C2 1_555 1_555
H3 C3 1_555 1_555
C4 C3 1_555 1_555
C5 C4 1_555 1_555
C6 C1 1_555 1_555
H4 C6 1_555 1_555
H5 C6 1_555 1_555
C7 C4 1_555 1_555
H6 C7 1_555 1_555
C8 C7 1_555 1_555
H7 C8 1_555 1_555
H8 C8 1_555 1_555
C9 C8 1_555 1_555
H9 C9 1_555 1_555
H10 C9 1_555 1_555
C10 C9 1_555 1_555
H11 C10 1_555 1_555
H12 C10 1_555 1_555
C11 C7 1_555 1_555
H13 C11 1_555 1_555
H14 C11 1_555 1_555
H15 C11 1_555 1_555
C12 C5 1_555 1_555
H16 C12 1_555 1_555
H17 C12 1_555 1_555
H18 C12 1_555 1_555
C13 C2 1_555 1_555
H19 C13 1_555 1_555
H20 C13 1_555 1_555
C14 C13 1_555 1_555
H21 C14 1_555 1_555
H22 C14 1_555 1_555
O1 C14 1_555 1_555
H23 O1 1_555 1_555
O2 C1 1_555 1_555
H24 O2 1_555 1_555
O3 C3 1_555 1_555
H25 O3 1_555 1_555
O4 C10 1_555 1_555
C15 O4 1_555 1_555
C16 C15 1_555 1_555
C17 C16 1_555 1_555
H26 C17 1_555 1_555
C18 C17 1_555 1_555
H27 C18 1_555 1_555
C19 C18 1_555 1_555
H28 C19 1_555 1_555
C20 C19 1_555 1_555
H29 C20 1_555 1_555
C21 C16 1_555 1_555
H30 C21 1_555 1_555
C22 C15 1_555 1_555
C23 C22 1_555 1_555
H31 C23 1_555 1_555
C24 C23 1_555 1_555
H32 C24 1_555 1_555
C25 C24 1_555 1_555
H33 C25 1_555 1_555
C26 C25 1_555 1_555
H34 C26 1_555 1_555
C27 C22 1_555 1_555
H35 C27 1_555 1_555
C28 C15 1_555 1_555
C29 C28 1_555 1_555
H36 C29 1_555 1_555
C30 C29 1_555 1_555
H37 C30 1_555 1_555
C31 C30 1_555 1_555
H38 C31 1_555 1_555
C32 C31 1_555 1_555
H39 C32 1_555 1_555
C33 C28 1_555 1_555
H40 C33 1_555 1_555
C34 H41 1_555 1_555
C35 C34 1_555 1_555
H42 C35 1_555 1_555
C36 C35 1_555 1_555
H43 C36 1_555 1_555
C37 C36 1_555 1_555
C38 C37 1_555 1_555
C39 C34 1_555 1_555
H44 C39 1_555 1_555
H45 C39 1_555 1_555
C40 C37 1_555 1_555
H46 C40 1_555 1_555
C41 C40 1_555 1_555
H47 C41 1_555 1_555
H48 C41 1_555 1_555
C42 C41 1_555 1_555
H49 C42 1_555 1_555
H50 C42 1_555 1_555
C43 C42 1_555 1_555
H51 C43 1_555 1_555
H52 C43 1_555 1_555
C44 C40 1_555 1_555
H53 C44 1_555 1_555
H54 C44 1_555 1_555
H55 C44 1_555 1_555
C45 C38 1_555 1_555
H56 C45 1_555 1_555
H57 C45 1_555 1_555
H58 C45 1_555 1_555
C46 C35 1_555 1_555
H59 C46 1_555 1_555
H60 C46 1_555 1_555
C47 C46 1_555 1_555
H61 C47 1_555 1_555
H62 C47 1_555 1_555
O5 C47 1_555 1_555
H63 O5 1_555 1_555
O6 C34 1_555 1_555
H64 O6 1_555 1_555
O7 C36 1_555 1_555
H65 O7 1_555 1_555
O8 C43 1_555 1_555
C48 O8 1_555 1_555
C49 C48 1_555 1_555
C50 C49 1_555 1_555
H66 C50 1_555 1_555
C51 C50 1_555 1_555
H67 C51 1_555 1_555
C52 C51 1_555 1_555
H68 C52 1_555 1_555
C53 C52 1_555 1_555
H69 C53 1_555 1_555
C54 C49 1_555 1_555
H70 C54 1_555 1_555
C55 C48 1_555 1_555
C56 C55 1_555 1_555
H71 C56 1_555 1_555
C57 C56 1_555 1_555
H72 C57 1_555 1_555
C58 C57 1_555 1_555
H73 C58 1_555 1_555
C59 C58 1_555 1_555
H74 C59 1_555 1_555
C60 C55 1_555 1_555
H75 C60 1_555 1_555
C61 C48 1_555 1_555
C62 C61 1_555 1_555
H76 C62 1_555 1_555
C63 C62 1_555 1_555
H77 C63 1_555 1_555
C64 C63 1_555 1_555
H78 C64 1_555 1_555
C65 C64 1_555 1_555
H79 C65 1_555 1_555
C66 C61 1_555 1_555
H80 C66 1_555 1_555
C5 C6 1_555 1_555
C20 C21 1_555 1_555
C26 C27 1_555 1_555
C32 C33 1_555 1_555
C38 C39 1_555 1_555
C53 C54 1_555 1_555
C59 C60 1_555 1_555
C65 C66 1_555 1_555

#END
