
#######################################################################
#
#                 Cambridge Crystallographic Data Centre
#                                CCDC 
#
#######################################################################
#
# If this CIF has been generated from an entry in the Cambridge 
# Structural Database, then it will include bibliographic, chemical, 
# crystal, experimental, refinement or atomic coordinate data resulting 
# from the CCDC's data processing and validation procedures.
#
#######################################################################

data_BEDDOF
_chemical_formula_moiety         'C21 H26 N2 O1'
_chemical_name_systematic        
3-t-Butyl-N-phenyl-1-(1-phenylethyl)aziridine-2-carboxamide
_symmetry_cell_setting           orthorhombic
_symmetry_space_group_name_H-M   'P 21 21 21'
_symmetry_Int_Tables_number      19
_space_group_name_Hall           'P 2ac 2ab'
loop_
_symmetry_equiv_pos_site_id
_symmetry_equiv_pos_as_xyz
1 x,y,z
2 1/2+x,1/2-y,-z
3 -x,1/2+y,1/2-z
4 1/2-x,-y,1/2+z
_cell_length_a                   9.48670(10)
_cell_length_b                   23.1947(4)
_cell_length_c                   27.5989(6)
_cell_angle_alpha                90
_cell_angle_beta                 90
_cell_angle_gamma                90
_cell_volume                     6072.89
_exptl_crystal_colour            colorless
_exptl_crystal_description       chunk
_cell_formula_units_Z            12
loop_
_atom_site_label
_atom_site_type_symbol
_atom_site_fract_x
_atom_site_fract_y
_atom_site_fract_z
O1 O 0.1383(3) 0.99172(13) 0.91735(10)
N1 N 0.3117(4) 0.88603(15) 0.87005(12)
N2 N 0.2355(4) 1.02997(14) 0.84977(11)
H1 H 0.2636 1.0216 0.8202
C1 C 0.1626(5) 0.87530(19) 0.87790(14)
H2 H 0.1306 0.8813 0.9120
C2 C 0.2039(5) 0.92889(18) 0.85231(15)
H3 H 0.1871 0.9289 0.8165
C3 C 0.1880(5) 0.9856(2) 0.87651(14)
C4 C 0.0961(5) 0.8229(2) 0.85282(16)
C5 C 0.1348(6) 0.76896(19) 0.88199(16)
H4 H 0.2368 0.7626 0.8803
H5 H 0.0856 0.7355 0.8685
H6 H 0.1067 0.7743 0.9159
C6 C -0.0638(5) 0.8317(2) 0.85344(19)
H7 H -0.0958 0.8367 0.8869
H8 H -0.1100 0.7979 0.8392
H9 H -0.0879 0.8661 0.8346
C7 C 0.1494(6) 0.8152(2) 0.80102(15)
H10 H 0.1176 0.8477 0.7811
H11 H 0.1122 0.7792 0.7876
H12 H 0.2527 0.8139 0.8011
C8 C 0.3922(5) 0.90186(19) 0.91364(17)
H13 H 0.3315 0.9245 0.9363
C9 C 0.5212(5) 0.9383(2) 0.89778(19)
H14 H 0.5786 0.9160 0.8749
H15 H 0.5780 0.9481 0.9263
H16 H 0.4887 0.9738 0.8821
C10 C 0.4344(5) 0.8449(2) 0.93683(17)
C11 C 0.3812(5) 0.8301(2) 0.98207(18)
H17 H 0.3233 0.8566 0.9992
C12 C 0.4125(6) 0.7761(3) 1.00266(19)
H18 H 0.3761 0.7661 1.0336
C13 C 0.4954(5) 0.7381(2) 0.9779(2)
H19 H 0.5164 0.7015 0.9916
C14 C 0.5494(6) 0.7526(2) 0.93277(19)
H20 H 0.6083 0.7264 0.9158
C15 C 0.5164(5) 0.8056(2) 0.91286(17)
H21 H 0.5518 0.8151 0.8817
C16 C 0.2457(5) 1.08848(19) 0.86364(15)
C17 C 0.3584(6) 1.1189(2) 0.84684(17)
H22 H 0.4273 1.1006 0.8272
C18 C 0.3724(7) 1.1773(3) 0.8587(2)
H23 H 0.4510 1.1985 0.8469
C19 C 0.2747(8) 1.2042(2) 0.8870(2)
H24 H 0.2839 1.2439 0.8949
C20 C 0.1612(7) 1.1723(2) 0.9040(2)
H25 H 0.0934 1.1902 0.9244
C21 C 0.1451(6) 1.1147(2) 0.89182(17)
H26 H 0.0654 1.0936 0.9028
O2 O 0.0745(4) 0.02718(13) 0.08986(10)
N3 N 0.2205(4) 0.12705(16) 0.03561(13)
N4 N 0.0394(4) -0.00965(15) 0.01499(12)
H27 H 0.0652 -0.0064 -0.0155
C22 C 0.3276(5) 0.0879(2) 0.05335(15)
H28 H 0.3202 0.0788 0.0887
C23 C 0.2085(5) 0.06490(19) 0.02317(14)
H29 H 0.2335 0.0548 -0.0110
C24 C 0.1036(5) 0.0268(2) 0.04634(15)
C25 C 0.4762(5) 0.0928(2) 0.03482(19)
C26 C 0.5459(6) 0.1432(3) 0.06243(19)
H30 H 0.4952 0.1791 0.0553
H31 H 0.6444 0.1470 0.0521
H32 H 0.5425 0.1356 0.0973
C27 C 0.4849(5) 0.1042(2) -0.01918(17)
H33 H 0.4568 0.0695 -0.0370
H34 H 0.5819 0.1145 -0.0278
H35 H 0.4217 0.1361 -0.0277
C28 C 0.5515(6) 0.0364(3) 0.0465(2)
H36 H 0.5439 0.0286 0.0813
H37 H 0.6511 0.0396 0.0375
H38 H 0.5078 0.0049 0.0283
C29 C 0.1188(5) 0.1517(2) 0.07109(17)
H39 H 0.0994 0.1227 0.0971
C30 C -0.0175(5) 0.1648(2) 0.04357(19)
H40 H 0.0028 0.1910 0.0167
H41 H -0.0855 0.1828 0.0656
H42 H -0.0572 0.1288 0.0309
C31 C 0.1845(5) 0.2050(2) 0.09329(17)
C32 C 0.2252(6) 0.2516(2) 0.06523(19)
H43 H 0.2140 0.2505 0.0310
C33 C 0.2830(7) 0.3001(2) 0.0876(2)
H44 H 0.3111 0.3322 0.0685
C34 C 0.2995(7) 0.3020(3) 0.1367(2)
H45 H 0.3377 0.3356 0.1513
C35 C 0.2624(7) 0.2567(3) 0.1647(2)
H46 H 0.2770 0.2577 0.1987
C36 C 0.2015(6) 0.2080(2) 0.14249(18)
H47 H 0.1718 0.1766 0.1621
C37 C -0.0645(5) -0.0527(2) 0.02465(16)
C38 C -0.1065(6) -0.0687(2) 0.07057(18)
H48 H -0.0650 -0.0513 0.0983
C39 C -0.2108(6) -0.1108(2) 0.0760(2)
H49 H -0.2405 -0.1218 0.1075
C40 C -0.2698(6) -0.1360(2) 0.0367(2)
H50 H -0.3401 -0.1648 0.0407
C41 C -0.2283(6) -0.1199(2) -0.0088(2)
H51 H -0.2702 -0.1374 -0.0364
C42 C -0.1251(5) -0.0781(2) -0.01482(18)
H52 H -0.0965 -0.0672 -0.0465
O3 O 0.3568(3) -0.01384(12) 0.76216(9)
N5 N 0.1263(4) 0.03335(15) 0.69112(12)
N6 N 0.4482(4) -0.04619(14) 0.69112(11)
H53 H 0.4470 -0.0403 0.6596
C43 C 0.2111(5) 0.07945(18) 0.71221(15)
H54 H 0.2174 0.0787 0.7484
C44 C 0.2827(4) 0.02972(18) 0.68708(15)
H55 H 0.3230 0.0382 0.6544
C45 C 0.3644(5) -0.01133(19) 0.71745(14)
C46 C 0.1993(5) 0.13905(19) 0.69034(17)
C47 C 0.0815(6) 0.1705(2) 0.71807(18)
H56 H -0.0082 0.1504 0.7129
H57 H 0.0739 0.2102 0.7062
H58 H 0.1039 0.1709 0.7527
C48 C 0.1651(5) 0.1380(2) 0.63613(16)
H59 H 0.2425 0.1195 0.6185
H60 H 0.1529 0.1775 0.6244
H61 H 0.0779 0.1162 0.6308
C49 C 0.3385(5) 0.1706(2) 0.69885(19)
H62 H 0.3594 0.1714 0.7336
H63 H 0.3310 0.2102 0.6867
H64 H 0.4144 0.1506 0.6817
C50 C 0.0507(5) -0.0055(2) 0.72496(15)
H65 H 0.1061 -0.0093 0.7556
C51 C 0.0364(5) -0.06494(19) 0.70088(16)
H66 H -0.0096 -0.0607 0.6693
H67 H -0.0204 -0.0902 0.7216
H68 H 0.1302 -0.0818 0.6964
C52 C -0.0899(5) 0.0218(2) 0.73599(16)
C53 C -0.1773(5) 0.0408(2) 0.69907(18)
H69 H -0.1483 0.0359 0.6664
C54 C -0.3045(6) 0.0666(2) 0.7085(2)
H70 H -0.3620 0.0797 0.6825
C55 C -0.3480(6) 0.0733(3) 0.7550(2)
H71 H -0.4353 0.0917 0.7618
C56 C -0.2653(7) 0.0534(3) 0.7925(2)
H72 H -0.2974 0.0567 0.8250
C57 C -0.1352(6) 0.0284(3) 0.78284(18)
H73 H -0.0773 0.0159 0.8089
C58 C 0.5385(5) -0.09129(18) 0.70724(15)
C59 C 0.5264(6) -0.1167(2) 0.75120(17)
H74 H 0.4592 -0.1033 0.7741
C60 C 0.6148(6) -0.1632(2) 0.76220(18)
H75 H 0.6074 -0.1813 0.7930
C61 C 0.7112(6) -0.1831(2) 0.72965(18)
H76 H 0.7691 -0.2152 0.7375
C62 C 0.7240(5) -0.15652(19) 0.68550(17)
H77 H 0.7919 -0.1699 0.6628
C63 C 0.6386(5) -0.11041(19) 0.67389(16)
H78 H 0.6480 -0.0918 0.6434
loop_
_geom_bond_atom_site_label_1
_geom_bond_atom_site_label_2
_geom_bond_site_symmetry_1
_geom_bond_site_symmetry_2
O1 C3 1_555 1_555
N1 C1 1_555 1_555
N2 H1 1_555 1_555
C1 H2 1_555 1_555
C2 N1 1_555 1_555
H3 C2 1_555 1_555
C3 N2 1_555 1_555
C4 C1 1_555 1_555
C5 C4 1_555 1_555
H4 C5 1_555 1_555
H5 C5 1_555 1_555
H6 C5 1_555 1_555
C6 C4 1_555 1_555
H7 C6 1_555 1_555
H8 C6 1_555 1_555
H9 C6 1_555 1_555
C7 C4 1_555 1_555
H10 C7 1_555 1_555
H11 C7 1_555 1_555
H12 C7 1_555 1_555
C8 N1 1_555 1_555
H13 C8 1_555 1_555
C9 C8 1_555 1_555
H14 C9 1_555 1_555
H15 C9 1_555 1_555
H16 C9 1_555 1_555
C10 C8 1_555 1_555
C11 C10 1_555 1_555
H17 C11 1_555 1_555
C12 C11 1_555 1_555
H18 C12 1_555 1_555
C13 C12 1_555 1_555
H19 C13 1_555 1_555
C14 C13 1_555 1_555
H20 C14 1_555 1_555
C15 C10 1_555 1_555
H21 C15 1_555 1_555
C16 N2 1_555 1_555
C17 C16 1_555 1_555
H22 C17 1_555 1_555
C18 C17 1_555 1_555
H23 C18 1_555 1_555
C19 C18 1_555 1_555
H24 C19 1_555 1_555
C20 C19 1_555 1_555
H25 C20 1_555 1_555
C21 C16 1_555 1_555
H26 C21 1_555 1_555
O2 C24 1_555 1_555
N3 C22 1_555 1_555
N4 H27 1_555 1_555
C22 H28 1_555 1_555
C23 N3 1_555 1_555
H29 C23 1_555 1_555
C24 N4 1_555 1_555
C25 C22 1_555 1_555
C26 C25 1_555 1_555
H30 C26 1_555 1_555
H31 C26 1_555 1_555
H32 C26 1_555 1_555
C27 C25 1_555 1_555
H33 C27 1_555 1_555
H34 C27 1_555 1_555
H35 C27 1_555 1_555
C28 C25 1_555 1_555
H36 C28 1_555 1_555
H37 C28 1_555 1_555
H38 C28 1_555 1_555
C29 N3 1_555 1_555
H39 C29 1_555 1_555
C30 C29 1_555 1_555
H40 C30 1_555 1_555
H41 C30 1_555 1_555
H42 C30 1_555 1_555
C31 C29 1_555 1_555
C32 C31 1_555 1_555
H43 C32 1_555 1_555
C33 C32 1_555 1_555
H44 C33 1_555 1_555
C34 C33 1_555 1_555
H45 C34 1_555 1_555
C35 C34 1_555 1_555
H46 C35 1_555 1_555
C36 C31 1_555 1_555
H47 C36 1_555 1_555
C37 N4 1_555 1_555
C38 C37 1_555 1_555
H48 C38 1_555 1_555
C39 C38 1_555 1_555
H49 C39 1_555 1_555
C40 C39 1_555 1_555
H50 C40 1_555 1_555
C41 C40 1_555 1_555
H51 C41 1_555 1_555
C42 C37 1_555 1_555
H52 C42 1_555 1_555
O3 C45 1_555 1_555
N5 C43 1_555 1_555
N6 H53 1_555 1_555
C43 H54 1_555 1_555
C44 N5 1_555 1_555
H55 C44 1_555 1_555
C45 N6 1_555 1_555
C46 C43 1_555 1_555
C47 C46 1_555 1_555
H56 C47 1_555 1_555
H57 C47 1_555 1_555
H58 C47 1_555 1_555
C48 C46 1_555 1_555
H59 C48 1_555 1_555
H60 C48 1_555 1_555
H61 C48 1_555 1_555
C49 C46 1_555 1_555
H62 C49 1_555 1_555
H63 C49 1_555 1_555
H64 C49 1_555 1_555
C50 N5 1_555 1_555
H65 C50 1_555 1_555
C51 C50 1_555 1_555
H66 C51 1_555 1_555
H67 C51 1_555 1_555
H68 C51 1_555 1_555
C52 C50 1_555 1_555
C53 C52 1_555 1_555
H69 C53 1_555 1_555
C54 C53 1_555 1_555
H70 C54 1_555 1_555
C55 C54 1_555 1_555
H71 C55 1_555 1_555
C56 C55 1_555 1_555
H72 C56 1_555 1_555
C57 C52 1_555 1_555
H73 C57 1_555 1_555
C58 N6 1_555 1_555
C59 C58 1_555 1_555
H74 C59 1_555 1_555
C60 C59 1_555 1_555
H75 C60 1_555 1_555
C61 C60 1_555 1_555
H76 C61 1_555 1_555
C62 C61 1_555 1_555
H77 C62 1_555 1_555
C63 C58 1_555 1_555
H78 C63 1_555 1_555
C1 C2 1_555 1_555
C2 C3 1_555 1_555
C14 C15 1_555 1_555
C20 C21 1_555 1_555
C22 C23 1_555 1_555
C23 C24 1_555 1_555
C35 C36 1_555 1_555
C41 C42 1_555 1_555
C43 C44 1_555 1_555
C44 C45 1_555 1_555
C56 C57 1_555 1_555
C62 C63 1_555 1_555

#END
