
#######################################################################
#
#                 Cambridge Crystallographic Data Centre
#                                CCDC 
#
#######################################################################
#
# If this CIF has been generated from an entry in the Cambridge 
# Structural Database, then it will include bibliographic, chemical, 
# crystal, experimental, refinement or atomic coordinate data resulting 
# from the CCDC's data processing and validation procedures.
#
#######################################################################

data_BEDFAT
_chemical_formula_moiety         'C15 H16 Br1 N1 O1'
_chemical_name_systematic        
(S)-(6-Bromo-9-methyl-2,3,4,9-tetrahydro-1H-carbazol-1-yl)acetaldehyde
_symmetry_cell_setting           orthorhombic
_symmetry_space_group_name_H-M   'P 21 21 21'
_symmetry_Int_Tables_number      19
_space_group_name_Hall           'P 2ac 2ab'
loop_
_symmetry_equiv_pos_site_id
_symmetry_equiv_pos_as_xyz
1 x,y,z
2 1/2-x,-y,1/2+z
3 -x,1/2+y,1/2-z
4 1/2+x,1/2-y,-z
_cell_length_a                   7.6768(3)
_cell_length_b                   11.3848(4)
_cell_length_c                   15.7074(6)
_cell_angle_alpha                90
_cell_angle_beta                 90
_cell_angle_gamma                90
_cell_volume                     1372.81
_exptl_crystal_description       needle
_cell_formula_units_Z            4
loop_
_atom_site_label
_atom_site_type_symbol
_atom_site_fract_x
_atom_site_fract_y
_atom_site_fract_z
Br1 Br 0.18730(13) -0.10060(7) 0.73737(7)
C1 C 0.2344(7) 0.2041(5) 0.9314(3)
C2 C 0.2093(9) 0.0911(6) 0.9610(4)
H1 H 0.2007 0.0753 1.0190
C3 C 0.1974(9) 0.0026(6) 0.9014(6)
H2 H 0.1810 -0.0744 0.9196
C4 C 0.2094(9) 0.0256(6) 0.8153(5)
C5 C 0.2353(8) 0.1373(6) 0.7851(4)
H3 H 0.2437 0.1509 0.7269
C6 C 0.2491(7) 0.2312(5) 0.8434(4)
C7 C 0.2724(7) 0.3516(5) 0.8369(3)
C8 C 0.2742(7) 0.3974(5) 0.9166(3)
N1 N 0.2461(7) 0.3067(4) 0.9749(3)
C9 C 0.2432(10) 0.3206(7) 1.0688(4)
H4 H 0.1703 0.2611 1.0934
H5 H 0.1982 0.3968 1.0830
H6 H 0.3594 0.3129 1.0907
C10 C 0.2913(9) 0.5236(5) 0.9406(4)
H7 H 0.3738 0.5298 0.9880
C11 C 0.3682(10) 0.5886(6) 0.8629(4)
H8 H 0.3575 0.6726 0.8718
H9 H 0.4912 0.5702 0.8584
C12 C 0.2796(12) 0.5563(6) 0.7815(4)
H10 H 0.3272 0.6039 0.7359
H11 H 0.1566 0.5746 0.7863
C13 C 0.2993(9) 0.4275(6) 0.7582(4)
H12 H 0.4146 0.4138 0.7350
H13 H 0.2143 0.4067 0.7150
C14 C 0.1168(9) 0.5756(7) 0.9688(5)
H14 H 0.0503 0.5974 0.9187
H15 H 0.0514 0.5160 0.9991
C15 C 0.1360(16) 0.6796(9) 1.0240(7)
H16 H 0.0321 0.7128 1.0426
O1 O 0.2599(12) 0.7256(6) 1.0474(4)
loop_
_geom_bond_atom_site_label_1
_geom_bond_atom_site_label_2
_geom_bond_site_symmetry_1
_geom_bond_site_symmetry_2
Br1 C4 1_555 1_555
C1 C2 1_555 1_555
C2 H1 1_555 1_555
C3 C2 1_555 1_555
H2 C3 1_555 1_555
C4 C3 1_555 1_555
C5 C4 1_555 1_555
H3 C5 1_555 1_555
C6 C1 1_555 1_555
C7 C6 1_555 1_555
C8 C7 1_555 1_555
N1 C1 1_555 1_555
C9 N1 1_555 1_555
H4 C9 1_555 1_555
H5 C9 1_555 1_555
H6 C9 1_555 1_555
C10 C8 1_555 1_555
H7 C10 1_555 1_555
C11 C10 1_555 1_555
H8 C11 1_555 1_555
H9 C11 1_555 1_555
C12 C11 1_555 1_555
H10 C12 1_555 1_555
H11 C12 1_555 1_555
C13 C7 1_555 1_555
H12 C13 1_555 1_555
H13 C13 1_555 1_555
C14 C10 1_555 1_555
H14 C14 1_555 1_555
H15 C14 1_555 1_555
C15 C14 1_555 1_555
H16 C15 1_555 1_555
O1 C15 1_555 1_555
C5 C6 1_555 1_555
C8 N1 1_555 1_555
C12 C13 1_555 1_555

#END
