
#######################################################################
#
#                 Cambridge Crystallographic Data Centre
#                                CCDC 
#
#######################################################################
#
# If this CIF has been generated from an entry in the Cambridge 
# Structural Database, then it will include bibliographic, chemical, 
# crystal, experimental, refinement or atomic coordinate data resulting 
# from the CCDC's data processing and validation procedures.
#
#######################################################################

data_BEDHEA01
_chemical_formula_moiety         'C32 H20 F5 N1 S2'
_chemical_name_systematic        
4-[(5-{[4-(pentafluoro-\l^6^-sulfanyl)phenyl]ethynyl}thiophen-2-yl)ethynyl]-N,N-diphenylaniline
_symmetry_cell_setting           triclinic
_symmetry_space_group_name_H-M   'P -1'
_symmetry_Int_Tables_number      2
_space_group_name_Hall           '-P 1'
loop_
_symmetry_equiv_pos_site_id
_symmetry_equiv_pos_as_xyz
1 x,y,z
2 -x,-y,-z
_cell_length_a                   9.7623(16)
_cell_length_b                   12.653(2)
_cell_length_c                   13.845(2)
_cell_angle_alpha                69.164(2)
_cell_angle_beta                 78.669(2)
_cell_angle_gamma                84.175(2)
_cell_volume                     1566.24
_exptl_crystal_colour            yellow
_exptl_crystal_description       plate
_cell_formula_units_Z            2
loop_
_atom_site_label
_atom_site_type_symbol
_atom_site_fract_x
_atom_site_fract_y
_atom_site_fract_z
S1 S 0.82020(10) -0.23752(7) 0.10859(7)
S2 S 0.43044(10) 0.46319(8) 0.19705(8)
F1 F 0.8954(2) -0.35042(15) 0.09870(16)
F2 F 0.9439(2) -0.17249(16) 0.02242(15)
F3 F 0.9078(2) -0.24977(18) 0.19520(16)
F4 F 0.7042(3) -0.31132(17) 0.1917(2)
F5 F 0.7418(2) -0.23282(16) 0.01807(17)
N1 N 0.1365(3) 1.1136(2) 0.35364(19)
C1 C 0.7349(3) -0.1084(2) 0.1183(2)
C2 C 0.5939(4) -0.0932(3) 0.1207(3)
H1 H 0.540535 -0.151650 0.120186
C3 C 0.5297(4) 0.0089(3) 0.1238(3)
H2 H 0.431548 0.019425 0.126109
C4 C 0.6048(3) 0.0947(3) 0.1235(2)
C5 C 0.7461(4) 0.0772(3) 0.1225(3)
H3 H 0.799504 0.135294 0.123616
C6 C 0.8113(3) -0.0242(3) 0.1199(3)
H4 H 0.909182 -0.035452 0.119128
C7 C 0.5349(3) 0.2009(3) 0.1240(3)
C8 C 0.4754(4) 0.2867(3) 0.1223(3)
C9 C 0.4040(3) 0.3921(3) 0.1176(3)
C10 C 0.3113(4) 0.4509(3) 0.0542(3)
H5 H 0.282634 0.425011 0.004962
C11 C 0.2621(4) 0.5533(3) 0.0685(3)
H6 H 0.197141 0.603921 0.030209
C12 C 0.3178(3) 0.5719(3) 0.1432(3)
C13 C 0.2913(3) 0.6665(3) 0.1779(3)
C14 C 0.2666(3) 0.7443(3) 0.2091(3)
C15 C 0.2353(3) 0.8375(3) 0.2461(3)
C16 C 0.1736(3) 0.9367(3) 0.1871(2)
H7 H 0.152208 0.942367 0.121356
C17 C 0.1425(3) 1.0276(3) 0.2216(2)
H8 H 0.101402 1.094891 0.178781
C18 C 0.1703(3) 1.0222(2) 0.3175(2)
C19 C 0.2318(3) 0.9222(3) 0.3775(2)
H9 H 0.251895 0.916124 0.443712
C20 C 0.2639(3) 0.8320(3) 0.3425(2)
H10 H 0.306315 0.765004 0.384679
C21 C 0.2081(3) 1.1301(2) 0.4266(2)
C22 C 0.1321(4) 1.1568(3) 0.5116(3)
H11 H 0.032976 1.163845 0.520279
C23 C 0.2005(5) 1.1732(3) 0.5830(3)
H12 H 0.148081 1.192069 0.640514
C24 C 0.3429(6) 1.1625(3) 0.5720(3)
H13 H 0.389387 1.172236 0.622277
C25 C 0.4173(4) 1.1378(3) 0.4884(4)
H14 H 0.516373 1.130892 0.480139
C26 C 0.3505(4) 1.1224(3) 0.4148(3)
H15 H 0.404032 1.106585 0.356022
C27 C 0.0264(3) 1.1918(3) 0.3180(2)
C28 C -0.1038(3) 1.1580(3) 0.3218(2)
H16 H -0.122498 1.079632 0.348209
C29 C -0.2087(4) 1.2368(4) 0.2877(3)
H17 H -0.298975 1.212765 0.290499
C30 C -0.1817(5) 1.3498(4) 0.2497(4)
H18 H -0.252621 1.404185 0.224465
C31 C -0.0537(5) 1.3843(3) 0.2480(4)
H19 H -0.036389 1.462866 0.223388
C32 C 0.0510(4) 1.3065(3) 0.2818(3)
H20 H 0.140226 1.331353 0.280258
loop_
_geom_bond_atom_site_label_1
_geom_bond_atom_site_label_2
_geom_bond_site_symmetry_1
_geom_bond_site_symmetry_2
S1 F1 1_555 1_555
S2 C9 1_555 1_555
F2 S1 1_555 1_555
F3 S1 1_555 1_555
F4 S1 1_555 1_555
F5 S1 1_555 1_555
N1 C18 1_555 1_555
C1 S1 1_555 1_555
C2 C1 1_555 1_555
H1 C2 1_555 1_555
C3 C2 1_555 1_555
H2 C3 1_555 1_555
C4 C3 1_555 1_555
C5 C4 1_555 1_555
H3 C5 1_555 1_555
C6 C1 1_555 1_555
H4 C6 1_555 1_555
C7 C4 1_555 1_555
C8 C7 1_555 1_555
C9 C8 1_555 1_555
C10 C9 1_555 1_555
H5 C10 1_555 1_555
C11 C10 1_555 1_555
H6 C11 1_555 1_555
C12 S2 1_555 1_555
C13 C12 1_555 1_555
C14 C13 1_555 1_555
C15 C14 1_555 1_555
C16 C15 1_555 1_555
H7 C16 1_555 1_555
C17 C16 1_555 1_555
H8 C17 1_555 1_555
C18 C17 1_555 1_555
C19 C18 1_555 1_555
H9 C19 1_555 1_555
C20 C15 1_555 1_555
H10 C20 1_555 1_555
C21 N1 1_555 1_555
C22 C21 1_555 1_555
H11 C22 1_555 1_555
C23 C22 1_555 1_555
H12 C23 1_555 1_555
C24 C23 1_555 1_555
H13 C24 1_555 1_555
C25 C24 1_555 1_555
H14 C25 1_555 1_555
C26 C21 1_555 1_555
H15 C26 1_555 1_555
C27 N1 1_555 1_555
C28 C27 1_555 1_555
H16 C28 1_555 1_555
C29 C28 1_555 1_555
H17 C29 1_555 1_555
C30 C29 1_555 1_555
H18 C30 1_555 1_555
C31 C30 1_555 1_555
H19 C31 1_555 1_555
C32 C27 1_555 1_555
H20 C32 1_555 1_555
C5 C6 1_555 1_555
C11 C12 1_555 1_555
C19 C20 1_555 1_555
C25 C26 1_555 1_555
C31 C32 1_555 1_555

#END
