
#######################################################################
#
#                 Cambridge Crystallographic Data Centre
#                                CCDC 
#
#######################################################################
#
# If this CIF has been generated from an entry in the Cambridge 
# Structural Database, then it will include bibliographic, chemical, 
# crystal, experimental, refinement or atomic coordinate data resulting 
# from the CCDC's data processing and validation procedures.
#
#######################################################################

data_BEDLED
_chemical_formula_moiety         'C24 H27 O12 P1,C1 H2 Cl2'
_chemical_name_systematic        
'Hexamethyl 2,3-dimethyl-5\l^5^-phosphaspiro[4.6]undeca-1,3,5,7,9-pentaene-6,7,8,9,10,11-hexacarboxylate dichloromethane solvate'
_symmetry_cell_setting           monoclinic
_symmetry_space_group_name_H-M   'P 21'
_symmetry_Int_Tables_number      4
_space_group_name_Hall           'P 2yb'
loop_
_symmetry_equiv_pos_site_id
_symmetry_equiv_pos_as_xyz
1 x,y,z
2 -x,1/2+y,-z
_cell_length_a                   7.8783(16)
_cell_length_b                   19.149(4)
_cell_length_c                   10.221(2)
_cell_angle_alpha                90
_cell_angle_beta                 107.87(3)
_cell_angle_gamma                90
_cell_volume                     1467.56
_cell_formula_units_Z            2
loop_
_atom_site_label
_atom_site_type_symbol
_atom_site_fract_x
_atom_site_fract_y
_atom_site_fract_z
P1 P 1.0482(3) 0.20563(13) 0.9320(2)
O1 O 0.6375(11) 0.2377(5) 0.5370(7)
O2 O 0.5457(13) 0.3742(5) 0.6483(9)
C1 C 0.6288(13) 0.3376(6) 1.0720(11)
C2 C 0.5641(13) 0.2379(6) 0.6374(9)
O3 O 0.5118(10) 0.2997(5) 1.0788(9)
O4 O 1.1634(11) 0.3431(5) 1.2683(9)
O5 O 1.0698(12) 0.3277(5) 0.7612(9)
C3 C 0.9369(13) 0.3101(6) 1.0632(10)
O6 O 0.6616(11) 0.4003(5) 1.1291(9)
O7 O 0.9116(11) 0.3013(6) 1.2881(7)
C4 C 0.7613(11) 0.3190(5) 0.9968(10)
O8 O 0.9296(12) 0.0824(5) 0.8055(11)
C5 C 1.0689(13) 0.2955(5) 0.9900(9)
H1 H 1.1870 0.2999 1.0582
C6 C 1.2629(15) 0.1222(6) 1.0892(12)
O9 O 1.0545(13) 0.4112(4) 0.9173(9)
C7 C 1.1131(15) 0.1513(6) 1.0841(12)
H2 H 1.0503 0.1455 1.1470
C8 C 0.7071(12) 0.2498(6) 0.7771(10)
C9 C 1.0188(12) 0.3204(6) 1.2223(10)
C10 C 0.8346(13) 0.1937(6) 0.8181(11)
C11 C 0.6816(12) 0.3074(6) 0.8510(10)
O10 O 0.6541(12) 0.1046(5) 0.6759(13)
C12 C 0.7879(14) 0.1258(5) 0.7564(12)
C13 C 1.2359(13) 0.1825(6) 0.8764(11)
H3 H 1.2564 0.1960 0.7952
C14 C 1.0666(13) 0.3459(6) 0.8714(12)
O11 O 0.4761(13) 0.4029(5) 0.8347(10)
C15 C 1.3441(14) 0.1404(6) 0.9782(11)
C16 C 0.5573(13) 0.3662(6) 0.7810(10)
C17 C 1.357(2) 0.0685(8) 1.1894(19)
H4 H 1.2963 0.0618 1.2566
H5 H 1.4772 0.0837 1.2343
H6 H 1.3594 0.0254 1.1422
C18 C 0.4185(19) 0.4216(9) 0.5688(15)
H7 H 0.3036 0.3995 0.5390
H8 H 0.4521 0.4356 0.4900
H9 H 0.4131 0.4619 0.6232
C19 C 0.9790(18) 0.3176(9) 1.4385(10)
H10 H 1.0842 0.2906 1.4807
H11 H 0.8888 0.3063 1.4804
H12 H 1.0071 0.3664 1.4509
C20 C 0.533(2) 0.4236(10) 1.195(2)
H13 H 0.4172 0.4262 1.1287
H14 H 0.5671 0.4688 1.2353
H15 H 0.5307 0.3910 1.2663
C21 C 1.055(3) 0.4647(9) 0.807(2)
H16 H 1.1184 0.4462 0.7480
H17 H 1.1116 0.5068 0.8494
H18 H 0.9341 0.4749 0.7530
C22 C 0.9112(19) 0.0084(7) 0.769(2)
H19 H 0.8504 -0.0153 0.8240
H20 H 1.0273 -0.0118 0.7843
H21 H 0.8438 0.0037 0.6733
C23 C 1.523(2) 0.1172(10) 0.987(3)
H22 H 1.5784 0.1509 0.9433
H23 H 1.5170 0.0729 0.9414
H24 H 1.5931 0.1124 1.0816
O12 O 0.4087(10) 0.2322(5) 0.6234(9)
C24 C 0.504(2) 0.2283(10) 0.3951(14)
H25 H 0.4833 0.1794 0.3759
H26 H 0.5497 0.2490 0.3274
H27 H 0.3933 0.2505 0.3922
C25 C 0.2056(16) 0.0475(11) 0.5377(12)
H28 H 0.3032 0.0373 0.5079
Cl1 Cl 0.0705(13) 0.1266(6) 0.5100(11)
Cl2 Cl 0.1156(13) 0.0004(7) 0.6251(11)
loop_
_geom_bond_atom_site_label_1
_geom_bond_atom_site_label_2
_geom_bond_site_symmetry_1
_geom_bond_site_symmetry_2
P1 C5 1_555 1_555
O1 C2 1_555 1_555
O2 C16 1_555 1_555
C1 O3 1_555 1_555
C2 C8 1_555 1_555
O4 C9 1_555 1_555
O5 C14 1_555 1_555
C3 C4 1_555 1_555
O6 C1 1_555 1_555
O7 C9 1_555 1_555
C4 C1 1_555 1_555
O8 C12 1_555 1_555
C5 C3 1_555 1_555
H1 C5 1_555 1_555
C6 C7 1_555 1_555
O9 C14 1_555 1_555
C7 P1 1_555 1_555
H2 C7 1_555 1_555
C8 C10 1_555 1_555
C9 C3 1_555 1_555
C10 P1 1_555 1_555
C11 C4 1_555 1_555
O10 C12 1_555 1_555
C12 C10 1_555 1_555
C13 P1 1_555 1_555
H3 C13 1_555 1_555
C14 C5 1_555 1_555
O11 C16 1_555 1_555
C15 C6 1_555 1_555
C16 C11 1_555 1_555
C17 C6 1_555 1_555
H4 C17 1_555 1_555
H5 C17 1_555 1_555
H6 C17 1_555 1_555
C18 O2 1_555 1_555
H7 C18 1_555 1_555
H8 C18 1_555 1_555
H9 C18 1_555 1_555
C19 O7 1_555 1_555
H10 C19 1_555 1_555
H11 C19 1_555 1_555
H12 C19 1_555 1_555
C20 O6 1_555 1_555
H13 C20 1_555 1_555
H14 C20 1_555 1_555
H15 C20 1_555 1_555
C21 O9 1_555 1_555
H16 C21 1_555 1_555
H17 C21 1_555 1_555
H18 C21 1_555 1_555
C22 O8 1_555 1_555
H19 C22 1_555 1_555
H20 C22 1_555 1_555
H21 C22 1_555 1_555
C23 C15 1_555 1_555
H22 C23 1_555 1_555
H23 C23 1_555 1_555
H24 C23 1_555 1_555
O12 C2 1_555 1_555
C24 O1 1_555 1_555
H25 C24 1_555 1_555
H26 C24 1_555 1_555
H27 C24 1_555 1_555
C25 H28 1_555 1_555
Cl1 C25 1_555 1_555
Cl2 C25 1_555 1_555
C8 C11 1_555 1_555
C13 C15 1_555 1_555

#END
