
#######################################################################
#
#                 Cambridge Crystallographic Data Centre
#                                CCDC 
#
#######################################################################
#
# If this CIF has been generated from an entry in the Cambridge 
# Structural Database, then it will include bibliographic, chemical, 
# crystal, experimental, refinement or atomic coordinate data resulting 
# from the CCDC's data processing and validation procedures.
#
#######################################################################

data_BEDRIO01
_chemical_formula_moiety         'C25 H17 N1 O2'
_chemical_name_systematic        3-(diphenylamino)-9H-xanthen-9-one
_symmetry_cell_setting           triclinic
_symmetry_space_group_name_H-M   'P 1'
_symmetry_Int_Tables_number      1
_space_group_name_Hall           'P 1'
loop_
_symmetry_equiv_pos_site_id
_symmetry_equiv_pos_as_xyz
1 x,y,z
_cell_length_a                   10.9980(11)
_cell_length_b                   11.3680(11)
_cell_length_c                   29.933(3)
_cell_angle_alpha                90.270(2)
_cell_angle_beta                 100.160(2)
_cell_angle_gamma                90.180(2)
_cell_volume                     3683.63
_exptl_crystal_colour            colorless
_exptl_crystal_description       Block
_cell_formula_units_Z            8
loop_
_atom_site_label
_atom_site_type_symbol
_atom_site_fract_x
_atom_site_fract_y
_atom_site_fract_z
C1 C 1.0386(6) -0.1959(6) 0.8845(2)
C2 C 1.1172(6) -0.1561(6) 0.8526(2)
C3 C 1.1808(7) -0.2354(7) 0.8293(3)
H1 H 1.1721 -0.3158 0.8335
C4 C 1.2554(7) -0.1966(7) 0.8004(3)
H2 H 1.2964 -0.2502 0.7848
C5 C 1.2700(7) -0.0760(8) 0.7944(3)
H3 H 1.3236 -0.0492 0.7758
C6 C 1.2058(6) 0.0025(7) 0.8156(2)
H4 H 1.2135 0.0828 0.8109
C7 C 1.1294(6) -0.0375(6) 0.8442(2)
C8 C 0.9988(6) 0.0156(6) 0.8962(2)
C9 C 0.9450(6) 0.1068(6) 0.9162(2)
H5 H 0.9541 0.1838 0.9069
C10 C 0.8772(6) 0.0835(6) 0.9501(2)
C11 C 0.8584(7) -0.0338(7) 0.9628(2)
H6 H 0.8118 -0.0512 0.9850
C12 C 0.9117(7) -0.1213(7) 0.9410(3)
H7 H 0.8994 -0.1988 0.9491
C13 C 0.9832(6) -0.1015(6) 0.9074(2)
C14 C 0.8109(3) 0.2895(2) 0.95082(9)
C15 C 0.8968(3) 0.3778(3) 0.96519(12)
H8 H 0.9623 0.3637 0.9888
C16 C 0.8849(4) 0.4871(3) 0.94431(13)
H9 H 0.9424 0.5462 0.9539
C17 C 0.7870(4) 0.5081(3) 0.90905(13)
H10 H 0.7791 0.5813 0.8951
C18 C 0.7011(3) 0.4198(3) 0.89468(12)
H11 H 0.6357 0.4339 0.8711
C19 C 0.7131(3) 0.3105(3) 0.91556(9)
H12 H 0.6556 0.2514 0.9059
C20 C 0.7729(3) 0.1530(2) 1.01092(10)
C21 C 0.8514(4) 0.1427(3) 1.05250(11)
H13 H 0.9365 0.1473 1.0540
C22 C 0.8028(5) 0.1253(4) 1.09181(10)
H14 H 0.8554 0.1184 1.1196
C23 C 0.6757(5) 0.1183(4) 1.08954(13)
H15 H 0.6432 0.1068 1.1158
C24 C 0.5971(4) 0.1287(4) 1.04796(16)
H16 H 0.5121 0.1240 1.0464
C25 C 0.6457(3) 0.1460(3) 1.00865(13)
H17 H 0.5931 0.1529 0.9808
N1 N 0.8228(6) 0.1744(6) 0.9711(2)
O1 O 1.0216(5) -0.3008(5) 0.89213(19)
O2 O 1.0695(4) 0.0477(4) 0.86472(16)
C26 C 0.5421(7) 0.9776(6) 0.8854(3)
C27 C 0.6184(6) 0.9372(6) 0.8527(2)
C28 C 0.6831(7) 1.0166(7) 0.8302(3)
H18 H 0.6760 1.0967 0.8356
C29 C 0.7565(7) 0.9804(7) 0.8005(3)
H19 H 0.7975 1.0347 0.7853
C30 C 0.7687(6) 0.8586(7) 0.7935(3)
H20 H 0.8208 0.8328 0.7742
C31 C 0.7059(6) 0.7774(7) 0.8144(2)
H21 H 0.7130 0.6974 0.8088
C32 C 0.6312(6) 0.8171(5) 0.8441(2)
C33 C 0.4987(6) 0.7657(6) 0.8959(2)
C34 C 0.4438(6) 0.6747(6) 0.9149(2)
H22 H 0.4525 0.5981 0.9049
C35 C 0.3761(6) 0.6954(6) 0.9486(2)
C36 C 0.3631(7) 0.8128(6) 0.9626(3)
H23 H 0.3186 0.8289 0.9856
C37 C 0.4158(7) 0.9037(6) 0.9424(3)
H24 H 0.4055 0.9807 0.9517
C38 C 0.4856(6) 0.8821(6) 0.9077(2)
C39 C 0.3084(4) 0.4914(3) 0.94874(15)
C40 C 0.3978(4) 0.4054(4) 0.96044(16)
H25 H 0.4673 0.4214 0.9822
C41 C 0.3833(4) 0.2955(4) 0.93956(18)
H26 H 0.4431 0.2380 0.9474
C42 C 0.2794(5) 0.2717(3) 0.90699(16)
H27 H 0.2697 0.1981 0.8930
C43 C 0.1900(4) 0.3576(4) 0.89530(15)
H28 H 0.1205 0.3417 0.8735
C44 C 0.2046(4) 0.4675(3) 0.91617(16)
H29 H 0.1448 0.5251 0.9083
C45 C 0.2703(4) 0.6236(4) 1.00918(12)
C46 C 0.1468(4) 0.6528(5) 1.00702(16)
H30 H 0.0969 0.6664 0.9791
C47 C 0.0979(4) 0.6619(6) 1.0467(2)
H31 H 0.0153 0.6815 1.0452
C48 C 0.1725(6) 0.6417(5) 1.08845(17)
H32 H 0.1397 0.6478 1.1150
C49 C 0.2960(6) 0.6124(5) 1.09060(12)
H33 H 0.3459 0.5989 1.1186
C50 C 0.3449(4) 0.6034(4) 1.05097(15)
H34 H 0.4275 0.5838 1.0524
N2 N 0.3218(6) 0.6057(5) 0.9697(2)
O3 O 0.5254(5) 1.0819(5) 0.89291(19)
O4 O 0.5681(4) 0.7321(4) 0.86375(16)
C51 C 0.1345(7) 0.4747(6) 0.7196(2)
C52 C 0.0576(6) 0.4363(6) 0.7519(2)
C53 C -0.0082(7) 0.5152(7) 0.7743(2)
H35 H -0.0015 0.5953 0.7689
C54 C -0.0824(7) 0.4789(8) 0.8040(3)
H36 H -0.1232 0.5338 0.8191
C55 C -0.0962(7) 0.3578(8) 0.8113(3)
H37 H -0.1476 0.3324 0.8309
C56 C -0.0332(6) 0.2757(6) 0.7893(2)
H38 H -0.0413 0.1956 0.7944
C57 C 0.0419(6) 0.3153(6) 0.7596(2)
C58 C 0.1728(6) 0.2624(5) 0.7078(2)
C59 C 0.2238(6) 0.1691(6) 0.6875(2)
H39 H 0.2111 0.0921 0.6960
C60 C 0.2943(7) 0.1921(6) 0.6540(2)
C61 C 0.3080(7) 0.3138(7) 0.6427(3)
H40 H 0.3532 0.3313 0.6201
C62 C 0.2597(7) 0.4027(6) 0.6627(3)
H41 H 0.2732 0.4798 0.6544
C63 C 0.1880(6) 0.3802(6) 0.6965(2)
C64 C 0.3635(3) -0.0105(2) 0.65413(10)
C65 C 0.2837(3) -0.1024(3) 0.63815(12)
H42 H 0.2209 -0.0909 0.6134
C66 C 0.2979(4) -0.2115(3) 0.65918(14)
H43 H 0.2445 -0.2730 0.6485
C67 C 0.3918(4) -0.2287(3) 0.69619(13)
H44 H 0.4013 -0.3016 0.7103
C68 C 0.4716(3) -0.1368(4) 0.71217(11)
H45 H 0.5344 -0.1482 0.7369
C69 C 0.4575(3) -0.0277(3) 0.69114(10)
H46 H 0.5109 0.0338 0.7018
C70 C 0.3963(3) 0.1233(3) 0.59244(12)
C71 C 0.5240(3) 0.1235(4) 0.59582(14)
H47 H 0.5745 0.1147 0.6240
C72 C 0.5763(4) 0.1368(5) 0.55711(18)
H48 H 0.6617 0.1370 0.5594
C73 C 0.5008(5) 0.1499(5) 0.51501(16)
H49 H 0.5358 0.1537 0.4889
C74 C 0.3675(6) 0.1577(7) 0.5115(3)
H50 H 0.3163 0.1763 0.4843
C75 C 0.3209(4) 0.1363(4) 0.55034(13)
H51 H 0.2358 0.1304 0.5484
N3 N 0.3448(6) 0.1049(6) 0.6335(2)
O5 O 0.1526(5) 0.5798(4) 0.71265(19)
O6 O 0.1028(4) 0.2315(4) 0.73974(16)
C78 C 0.6329(6) 0.3042(6) 0.7210(2)
C79 C 0.5541(6) 0.3395(6) 0.7534(2)
C80 C 0.4919(7) 0.2624(6) 0.7766(3)
H55 H 0.5007 0.1821 0.7723
C81 C 0.4166(7) 0.3006(8) 0.8062(3)
H56 H 0.3758 0.2463 0.8215
C82 C 0.4024(7) 0.4186(7) 0.8128(3)
H57 H 0.3507 0.4439 0.8324
C83 C 0.4637(6) 0.5008(7) 0.7910(3)
H58 H 0.4546 0.5810 0.7956
C84 C 0.5396(6) 0.4591(6) 0.7617(2)
C85 C 0.6701(6) 0.5137(6) 0.7100(2)
C86 C 0.7231(6) 0.6081(6) 0.6902(2)
H59 H 0.7122 0.6851 0.6994
C87 C 0.7933(6) 0.5839(6) 0.6563(2)
C88 C 0.8088(7) 0.4666(7) 0.6442(3)
H60 H 0.8552 0.4494 0.6219
C89 C 0.7570(7) 0.3772(6) 0.6646(3)
H61 H 0.7688 0.3003 0.6556
C90 C 0.6866(6) 0.3972(6) 0.6985(2)
C91 C 0.8601(3) 0.7884(2) 0.65759(10)
C92 C 0.7717(3) 0.8754(3) 0.64621(12)
H62 H 0.7014 0.8600 0.6247
C93 C 0.7884(4) 0.9853(3) 0.66692(13)
H63 H 0.7292 1.0435 0.6593
C94 C 0.8935(4) 1.0083(3) 0.69903(12)
H64 H 0.9047 1.0819 0.7129
C95 C 0.9819(3) 0.9213(3) 0.71042(11)
H65 H 1.0523 0.9367 0.7319
C96 C 0.9652(3) 0.8113(3) 0.68970(9)
H66 H 1.0244 0.7531 0.6973
C97 C 0.8952(3) 0.6564(2) 0.59568(11)
C98 C 1.0214(3) 0.6365(3) 0.60001(13)
H67 H 1.0697 0.6293 0.6287
C99 C 1.0754(4) 0.6273(4) 0.56151(16)
H68 H 1.1598 0.6140 0.5644
C100 C 1.0032(5) 0.6381(4) 0.51868(14)
H69 H 1.0393 0.6320 0.4929
C101 C 0.8770(5) 0.6580(4) 0.51434(11)
H70 H 0.8287 0.6652 0.4857
C102 C 0.8230(4) 0.6672(3) 0.55284(11)
H71 H 0.7386 0.6805 0.5499
N4 N 0.8434(6) 0.6747(5) 0.6363(2)
O7 O 0.6493(5) 0.1986(4) 0.71379(19)
O8 O 0.5997(4) 0.5468(4) 0.74189(16)
C103 C 0.7008(6) 0.2120(6) 0.3840(2)
C104 C 0.6418(6) 0.1249(6) 0.3517(2)
C105 C 0.7101(6) 0.0398(6) 0.3323(2)
H72 H 0.7958 0.0400 0.3398
C106 C 0.6521(7) -0.0427(6) 0.3026(2)
H73 H 0.6988 -0.0976 0.2899
C107 C 0.5265(7) -0.0453(6) 0.2914(3)
H74 H 0.4890 -0.1023 0.2711
C108 C 0.4541(7) 0.0336(6) 0.3091(2)
H75 H 0.3686 0.0319 0.3007
C109 C 0.5128(6) 0.1170(5) 0.3402(2)
C110 C 0.4885(6) 0.2712(5) 0.3915(2)
C111 C 0.4067(6) 0.3379(7) 0.4116(2)
H76 H 0.3221 0.3290 0.4018
C112 C 0.4499(6) 0.4168(6) 0.4457(2)
C113 C 0.5788(6) 0.4325(6) 0.4592(2)
H77 H 0.6095 0.4865 0.4819
C114 C 0.6578(6) 0.3681(6) 0.4386(3)
H78 H 0.7424 0.3804 0.4471
C115 C 0.6155(6) 0.2837(6) 0.4048(2)
C116 C 0.2391(2) 0.4863(2) 0.44692(9)
C117 C 0.2001(3) 0.5645(3) 0.41178(9)
H79 H 0.2572 0.6131 0.4013
C118 C 0.0759(3) 0.5700(3) 0.39224(11)
H80 H 0.0498 0.6223 0.3687
C119 C -0.0094(2) 0.4974(3) 0.40784(11)
H81 H -0.0925 0.5012 0.3948
C120 C 0.0296(3) 0.4193(3) 0.44299(12)
H82 H -0.0275 0.3707 0.4534
C121 C 0.1538(3) 0.4137(2) 0.46253(11)
H83 H 0.1799 0.3614 0.4860
C122 C 0.4083(2) 0.5414(3) 0.50861(10)
C123 C 0.3940(3) 0.6628(2) 0.50948(12)
H84 H 0.3607 0.7025 0.4831
C124 C 0.4296(4) 0.7249(3) 0.54981(15)
H85 H 0.4200 0.8061 0.5504
C125 C 0.4794(4) 0.6655(4) 0.58928(13)
H86 H 0.5031 0.7071 0.6163
C126 C 0.4936(3) 0.5441(4) 0.58842(11)
H87 H 0.5270 0.5045 0.6148
C127 C 0.4581(3) 0.4821(3) 0.54808(11)
H88 H 0.4677 0.4009 0.5475
N5 N 0.3678(5) 0.4793(5) 0.46700(19)
O9 O 0.8154(4) 0.2259(5) 0.39375(19)
O10 O 0.4367(4) 0.1933(4) 0.35846(15)
C128 C 0.5429(6) 0.7091(6) 0.3856(2)
C129 C 0.5712(6) 0.6228(6) 0.3525(2)
C130 C 0.4829(7) 0.5392(6) 0.3331(2)
H89 H 0.4048 0.5390 0.3410
C131 C 0.5111(7) 0.4585(7) 0.3030(3)
H90 H 0.4524 0.4030 0.2905
C132 C 0.6279(7) 0.4583(7) 0.2907(3)
H91 H 0.6460 0.4037 0.2696
C133 C 0.7158(7) 0.5381(6) 0.3094(2)
H92 H 0.7936 0.5376 0.3013
C134 C 0.6880(6) 0.6197(6) 0.3406(2)
C135 C 0.7627(6) 0.7728(6) 0.3930(2)
C136 C 0.8628(7) 0.8373(7) 0.4115(3)
H93 H 0.9367 0.8291 0.4008
C137 C 0.8548(6) 0.9163(6) 0.4467(2)
C138 C 0.7406(7) 0.9301(7) 0.4617(3)
H94 H 0.7328 0.9832 0.4848
C139 C 0.6405(6) 0.8627(7) 0.4412(3)
H95 H 0.5653 0.8711 0.4511
C140 C 0.6485(6) 0.7840(6) 0.4069(2)
C141 C 1.0642(2) 0.9874(2) 0.44659(9)
C142 C 1.1631(3) 0.9135(2) 0.46193(11)
H96 H 1.1585 0.8605 0.4852
C143 C 1.2689(3) 0.9188(3) 0.44255(12)
H97 H 1.3351 0.8694 0.4528
C144 C 1.2758(3) 0.9980(3) 0.40783(11)
H98 H 1.3466 1.0015 0.3949
C145 C 1.1769(3) 1.0718(3) 0.39249(10)
H99 H 1.1815 1.1248 0.3693
C146 C 1.0711(3) 1.0665(3) 0.41187(8)
H100 H 1.0049 1.1159 0.4016
C147 C 0.9565(2) 1.0482(3) 0.50826(10)
C148 C 0.9393(3) 1.1692(3) 0.50624(12)
H101 H 0.9241 1.2068 0.4783
C149 C 0.9448(4) 1.2342(3) 0.54601(15)
H102 H 0.9333 1.3152 0.5447
C150 C 0.9675(4) 1.1781(4) 0.58780(13)
H103 H 0.9712 1.2216 0.6144
C151 C 0.9847(4) 1.0570(4) 0.58982(10)
H104 H 0.9999 1.0195 0.6178
C152 C 0.9792(4) 0.9921(3) 0.55005(11)
H105 H 0.9907 0.9111 0.5514
N6 N 0.9547(6) 0.9824(5) 0.4671(2)
O11 O 0.4378(5) 0.7217(5) 0.3950(2)
O12 O 0.7796(4) 0.6970(4) 0.35860(16)
C153 C -0.0361(6) 0.5543(6) 0.2184(2)
C154 C 0.0226(6) 0.6447(6) 0.2512(2)
C155 C -0.0442(7) 0.7260(6) 0.2709(2)
H106 H -0.1300 0.7237 0.2637
C156 C 0.0122(7) 0.8118(6) 0.3012(2)
H107 H -0.0338 0.8680 0.3135
C157 C 0.1419(7) 0.8090(6) 0.3123(3)
H108 H 0.1819 0.8632 0.3333
C158 C 0.2107(7) 0.7299(6) 0.2936(2)
H109 H 0.2964 0.7318 0.3010
C159 C 0.1518(6) 0.6463(6) 0.2632(2)
C160 C 0.1756(6) 0.4956(5) 0.2104(2)
C161 C 0.2599(7) 0.4314(6) 0.1912(3)
H110 H 0.3442 0.4412 0.2015
C162 C 0.2168(6) 0.3505(6) 0.1557(2)
C163 C 0.0850(7) 0.3372(6) 0.1416(3)
H111 H 0.0536 0.2840 0.1188
C164 C 0.0059(7) 0.4041(6) 0.1624(3)
H112 H -0.0788 0.3948 0.1527
C165 C 0.0469(6) 0.4854(6) 0.1973(2)
C166 C 0.4264(5) 0.2797(6) 0.1563(2)
C167 C 0.5094(6) 0.3518(6) 0.1408(3)
H113 H 0.4834 0.4041 0.1173
C168 C 0.6323(7) 0.3459(6) 0.1606(3)
H114 H 0.6895 0.3945 0.1503
C169 C 0.6705(6) 0.2702(6) 0.1948(2)
H115 H 0.7536 0.2675 0.2079
C170 C 0.5887(6) 0.1983(6) 0.2100(2)
H116 H 0.6159 0.1458 0.2333
C171 C 0.4635(6) 0.2025(6) 0.1908(2)
H117 H 0.4066 0.1538 0.2013
C172 C 0.2553(5) 0.2179(4) 0.09624(13)
C173 C 0.2488(6) 0.0964(4) 0.10026(15)
H118 H 0.2689 0.0615 0.1286
C174 C 0.2121(7) 0.0269(3) 0.0619(2)
H119 H 0.2077 -0.0544 0.0646
C175 C 0.1820(6) 0.0790(5) 0.01946(16)
H120 H 0.1574 0.0326 -0.0062
C176 C 0.1885(5) 0.2005(5) 0.01544(13)
H121 H 0.1683 0.2354 -0.0129
C177 C 0.2251(5) 0.2700(4) 0.05382(17)
H122 H 0.2295 0.3513 0.0511
N7 N 0.2967(5) 0.2873(5) 0.1356(2)
O13 O -0.1496(4) 0.5430(5) 0.20962(18)
O14 O 0.2260(4) 0.5709(4) 0.24477(15)
C178 C 1.1220(6) 1.0559(6) 0.2197(2)
C179 C 1.0939(6) 1.1448(6) 0.2517(2)
C180 C 1.1823(6) 1.2279(6) 0.2715(2)
H123 H 1.2614 1.2258 0.2646
C181 C 1.1533(7) 1.3124(6) 0.3010(2)
H124 H 1.2122 1.3678 0.3134
C182 C 1.0369(8) 1.3149(6) 0.3121(3)
H125 H 1.0178 1.3719 0.3321
C183 C 0.9480(7) 1.2326(6) 0.2936(2)
H126 H 0.8700 1.2332 0.3015
C184 C 0.9770(6) 1.1511(5) 0.2638(2)
C185 C 0.9015(6) 0.9969(5) 0.2122(2)
C186 C 0.7976(6) 0.9318(6) 0.1920(3)
H127 H 0.7225 0.9418 0.2018
C187 C 0.8069(7) 0.8524(6) 0.1574(2)
C188 C 0.9232(7) 0.8408(6) 0.1434(3)
H128 H 0.9310 0.7893 0.1199
C189 C 1.0237(7) 0.9040(7) 0.1640(3)
H129 H 1.0992 0.8930 0.1547
C190 C 1.0154(6) 0.9857(6) 0.1991(2)
C191 C 0.5977(2) 0.7824(2) 0.15674(9)
C192 C 0.5919(3) 0.7027(3) 0.19138(8)
H130 H 0.6589 0.6543 0.2017
C193 C 0.4861(4) 0.6954(3) 0.21065(10)
H131 H 0.4822 0.6420 0.2338
C194 C 0.3859(3) 0.7677(3) 0.19528(11)
H132 H 0.3151 0.7628 0.2082
C195 C 0.3917(3) 0.8475(3) 0.16064(12)
H133 H 0.3247 0.8959 0.1504
C196 C 0.4975(3) 0.8548(2) 0.14137(11)
H134 H 0.5013 0.9081 0.1182
C197 C 0.7079(2) 0.7232(3) 0.09656(9)
C198 C 0.6843(3) 0.7776(3) 0.05445(10)
H135 H 0.6731 0.8587 0.0526
C199 C 0.6773(4) 0.7110(4) 0.01502(9)
H136 H 0.6615 0.7474 -0.0132
C200 C 0.6940(4) 0.5899(4) 0.01771(12)
H137 H 0.6893 0.5453 -0.0087
C201 C 0.7177(4) 0.5355(3) 0.05982(14)
H138 H 0.7288 0.4545 0.0616
C202 C 0.7246(3) 0.6022(3) 0.09925(11)
H139 H 0.7405 0.5657 0.1274
N8 N 0.7061(5) 0.7896(5) 0.13684(19)
O15 O 1.2255(4) 1.0426(5) 0.21092(19)
O16 O 0.8825(4) 1.0738(4) 0.24551(15)
C76? C 0.4955(3) 0.0561(4) 0.58635(13)
H52? H 0.5290 -0.0015 0.6068
C77? C 0.5430(5) 0.0816(5) 0.54603(16)
H53? H 0.6146 0.0420 0.5426
H54? H 0.5473 0.1900 0.4968
loop_
_geom_bond_atom_site_label_1
_geom_bond_atom_site_label_2
_geom_bond_site_symmetry_1
_geom_bond_site_symmetry_2
C1 C2 1_555 1_555
C2 C3 1_555 1_555
C3 H1 1_555 1_555
C4 C3 1_555 1_555
H2 C4 1_555 1_555
C5 C4 1_555 1_555
H3 C5 1_555 1_555
C6 C5 1_555 1_555
H4 C6 1_555 1_555
C7 C2 1_555 1_555
C8 C9 1_555 1_555
C9 H5 1_555 1_555
C10 C9 1_555 1_555
C11 C10 1_555 1_555
H6 C11 1_555 1_555
C12 C11 1_555 1_555
H7 C12 1_555 1_555
C13 C1 1_555 1_555
C14 C15 1_555 1_555
C15 H8 1_555 1_555
C16 C15 1_555 1_555
H9 C16 1_555 1_555
C17 C16 1_555 1_555
H10 C17 1_555 1_555
C18 C17 1_555 1_555
H11 C18 1_555 1_555
C19 C14 1_555 1_555
H12 C19 1_555 1_555
C20 C21 1_555 1_555
C21 H13 1_555 1_555
C22 C21 1_555 1_555
H14 C22 1_555 1_555
C23 C22 1_555 1_555
H15 C23 1_555 1_555
C24 C23 1_555 1_555
H16 C24 1_555 1_555
C25 C20 1_555 1_555
H17 C25 1_555 1_555
N1 C10 1_555 1_555
O1 C1 1_555 1_555
O2 C7 1_555 1_555
C26 C27 1_555 1_555
C27 C28 1_555 1_555
C28 H18 1_555 1_555
C29 C28 1_555 1_555
H19 C29 1_555 1_555
C30 C29 1_555 1_555
H20 C30 1_555 1_555
C31 C30 1_555 1_555
H21 C31 1_555 1_555
C32 C27 1_555 1_555
C33 C34 1_555 1_555
C34 H22 1_555 1_555
C35 C34 1_555 1_555
C36 C35 1_555 1_555
H23 C36 1_555 1_555
C37 C36 1_555 1_555
H24 C37 1_555 1_555
C38 C26 1_555 1_555
C39 C40 1_555 1_555
C40 H25 1_555 1_555
C41 C40 1_555 1_555
H26 C41 1_555 1_555
C42 C41 1_555 1_555
H27 C42 1_555 1_555
C43 C42 1_555 1_555
H28 C43 1_555 1_555
C44 C39 1_555 1_555
H29 C44 1_555 1_555
C45 C46 1_555 1_555
C46 H30 1_555 1_555
C47 C46 1_555 1_555
H31 C47 1_555 1_555
C48 C47 1_555 1_555
H32 C48 1_555 1_555
C49 C48 1_555 1_555
H33 C49 1_555 1_555
C50 C45 1_555 1_555
H34 C50 1_555 1_555
N2 C35 1_555 1_555
O3 C26 1_555 1_555
O4 C32 1_555 1_555
C51 C52 1_555 1_555
C52 C53 1_555 1_555
C53 H35 1_555 1_555
C54 C53 1_555 1_555
H36 C54 1_555 1_555
C55 C54 1_555 1_555
H37 C55 1_555 1_555
C56 C55 1_555 1_555
H38 C56 1_555 1_555
C57 C52 1_555 1_555
C58 C59 1_555 1_555
C59 H39 1_555 1_555
C60 C59 1_555 1_555
C61 C60 1_555 1_555
H40 C61 1_555 1_555
C62 C61 1_555 1_555
H41 C62 1_555 1_555
C63 C51 1_555 1_555
C64 C65 1_555 1_555
C65 H42 1_555 1_555
C66 C65 1_555 1_555
H43 C66 1_555 1_555
C67 C66 1_555 1_555
H44 C67 1_555 1_555
C68 C67 1_555 1_555
H45 C68 1_555 1_555
C69 C64 1_555 1_555
H46 C69 1_555 1_555
C70 C71 1_555 1_555
C71 H47 1_555 1_555
C72 C71 1_555 1_555
H48 C72 1_555 1_555
C73 C72 1_555 1_555
H49 C73 1_555 1_555
C74 C73 1_555 1_555
H50 C74 1_555 1_555
C75 C70 1_555 1_555
H51 C75 1_555 1_555
N3 C60 1_555 1_555
O5 C51 1_555 1_555
O6 C57 1_555 1_555
C78 C79 1_555 1_555
C79 C80 1_555 1_555
C80 H55 1_555 1_555
C81 C80 1_555 1_555
H56 C81 1_555 1_555
C82 C81 1_555 1_555
H57 C82 1_555 1_555
C83 C82 1_555 1_555
H58 C83 1_555 1_555
C84 C79 1_555 1_555
C85 C86 1_555 1_555
C86 H59 1_555 1_555
C87 C86 1_555 1_555
C88 C87 1_555 1_555
H60 C88 1_555 1_555
C89 C88 1_555 1_555
H61 C89 1_555 1_555
C90 C78 1_555 1_555
C91 C92 1_555 1_555
C92 H62 1_555 1_555
C93 C92 1_555 1_555
H63 C93 1_555 1_555
C94 C93 1_555 1_555
H64 C94 1_555 1_555
C95 C94 1_555 1_555
H65 C95 1_555 1_555
C96 C91 1_555 1_555
H66 C96 1_555 1_555
C97 C98 1_555 1_555
C98 H67 1_555 1_555
C99 C98 1_555 1_555
H68 C99 1_555 1_555
C100 C99 1_555 1_555
H69 C100 1_555 1_555
C101 C100 1_555 1_555
H70 C101 1_555 1_555
C102 C97 1_555 1_555
H71 C102 1_555 1_555
N4 C87 1_555 1_555
O7 C78 1_555 1_555
O8 C84 1_555 1_555
C103 C104 1_555 1_555
C104 C105 1_555 1_555
C105 H72 1_555 1_555
C106 C105 1_555 1_555
H73 C106 1_555 1_555
C107 C106 1_555 1_555
H74 C107 1_555 1_555
C108 C107 1_555 1_555
H75 C108 1_555 1_555
C109 C104 1_555 1_555
C110 C111 1_555 1_555
C111 H76 1_555 1_555
C112 C111 1_555 1_555
C113 C112 1_555 1_555
H77 C113 1_555 1_555
C114 C113 1_555 1_555
H78 C114 1_555 1_555
C115 C103 1_555 1_555
C116 C117 1_555 1_555
C117 H79 1_555 1_555
C118 C117 1_555 1_555
H80 C118 1_555 1_555
C119 C118 1_555 1_555
H81 C119 1_555 1_555
C120 C119 1_555 1_555
H82 C120 1_555 1_555
C121 C116 1_555 1_555
H83 C121 1_555 1_555
C122 C123 1_555 1_555
C123 H84 1_555 1_555
C124 C123 1_555 1_555
H85 C124 1_555 1_555
C125 C124 1_555 1_555
H86 C125 1_555 1_555
C126 C125 1_555 1_555
H87 C126 1_555 1_555
C127 C122 1_555 1_555
H88 C127 1_555 1_555
N5 C112 1_555 1_555
O9 C103 1_555 1_555
O10 C109 1_555 1_555
C128 C129 1_555 1_555
C129 C130 1_555 1_555
C130 H89 1_555 1_555
C131 C130 1_555 1_555
H90 C131 1_555 1_555
C132 C131 1_555 1_555
H91 C132 1_555 1_555
C133 C132 1_555 1_555
H92 C133 1_555 1_555
C134 C129 1_555 1_555
C135 C136 1_555 1_555
C136 H93 1_555 1_555
C137 C136 1_555 1_555
C138 C137 1_555 1_555
H94 C138 1_555 1_555
C139 C138 1_555 1_555
H95 C139 1_555 1_555
C140 C128 1_555 1_555
C141 C142 1_555 1_555
C142 H96 1_555 1_555
C143 C142 1_555 1_555
H97 C143 1_555 1_555
C144 C143 1_555 1_555
H98 C144 1_555 1_555
C145 C144 1_555 1_555
H99 C145 1_555 1_555
C146 C141 1_555 1_555
H100 C146 1_555 1_555
C147 C148 1_555 1_555
C148 H101 1_555 1_555
C149 C148 1_555 1_555
H102 C149 1_555 1_555
C150 C149 1_555 1_555
H103 C150 1_555 1_555
C151 C150 1_555 1_555
H104 C151 1_555 1_555
C152 C147 1_555 1_555
H105 C152 1_555 1_555
N6 C137 1_555 1_555
O11 C128 1_555 1_555
O12 C134 1_555 1_555
C153 C154 1_555 1_555
C154 C155 1_555 1_555
C155 H106 1_555 1_555
C156 C155 1_555 1_555
H107 C156 1_555 1_555
C157 C156 1_555 1_555
H108 C157 1_555 1_555
C158 C157 1_555 1_555
H109 C158 1_555 1_555
C159 C154 1_555 1_555
C160 C161 1_555 1_555
C161 H110 1_555 1_555
C162 C161 1_555 1_555
C163 C162 1_555 1_555
H111 C163 1_555 1_555
C164 C163 1_555 1_555
H112 C164 1_555 1_555
C165 C153 1_555 1_555
C166 C167 1_555 1_555
C167 H113 1_555 1_555
C168 C167 1_555 1_555
H114 C168 1_555 1_555
C169 C168 1_555 1_555
H115 C169 1_555 1_555
C170 C169 1_555 1_555
H116 C170 1_555 1_555
C171 C166 1_555 1_555
H117 C171 1_555 1_555
C172 C173 1_555 1_555
C173 H118 1_555 1_555
C174 C173 1_555 1_555
H119 C174 1_555 1_555
C175 C174 1_555 1_555
H120 C175 1_555 1_555
C176 C175 1_555 1_555
H121 C176 1_555 1_555
C177 C172 1_555 1_555
H122 C177 1_555 1_555
N7 C162 1_555 1_555
O13 C153 1_555 1_555
O14 C159 1_555 1_555
C178 C179 1_555 1_555
C179 C180 1_555 1_555
C180 H123 1_555 1_555
C181 C180 1_555 1_555
H124 C181 1_555 1_555
C182 C181 1_555 1_555
H125 C182 1_555 1_555
C183 C182 1_555 1_555
H126 C183 1_555 1_555
C184 C179 1_555 1_555
C185 C186 1_555 1_555
C186 H127 1_555 1_555
C187 C186 1_555 1_555
C188 C187 1_555 1_555
H128 C188 1_555 1_555
C189 C188 1_555 1_555
H129 C189 1_555 1_555
C190 C178 1_555 1_555
C191 C192 1_555 1_555
C192 H130 1_555 1_555
C193 C192 1_555 1_555
H131 C193 1_555 1_555
C194 C193 1_555 1_555
H132 C194 1_555 1_555
C195 C194 1_555 1_555
H133 C195 1_555 1_555
C196 C191 1_555 1_555
H134 C196 1_555 1_555
C197 C198 1_555 1_555
C198 H135 1_555 1_555
C199 C198 1_555 1_555
H136 C199 1_555 1_555
C200 C199 1_555 1_555
H137 C200 1_555 1_555
C201 C200 1_555 1_555
H138 C201 1_555 1_555
C202 C197 1_555 1_555
H139 C202 1_555 1_555
N8 C187 1_555 1_555
O15 C178 1_555 1_555
O16 C184 1_555 1_555
C6 C7 1_555 1_555
C8 C13 1_555 1_555
C8 O2 1_555 1_555
C12 C13 1_555 1_555
C14 N1 1_555 1_555
C18 C19 1_555 1_555
C20 N1 1_555 1_555
C24 C25 1_555 1_555
C31 C32 1_555 1_555
C33 C38 1_555 1_555
C33 O4 1_555 1_555
C37 C38 1_555 1_555
C39 N2 1_555 1_555
C43 C44 1_555 1_555
C45 N2 1_555 1_555
C49 C50 1_555 1_555
C56 C57 1_555 1_555
C58 C63 1_555 1_555
C58 O6 1_555 1_555
C62 C63 1_555 1_555
C64 N3 1_555 1_555
C68 C69 1_555 1_555
C70 N3 1_555 1_555
C74 C75 1_555 1_555
C83 C84 1_555 1_555
C85 C90 1_555 1_555
C85 O8 1_555 1_555
C89 C90 1_555 1_555
C91 N4 1_555 1_555
C95 C96 1_555 1_555
C97 N4 1_555 1_555
C101 C102 1_555 1_555
C108 C109 1_555 1_555
C110 C115 1_555 1_555
C110 O10 1_555 1_555
C114 C115 1_555 1_555
C116 N5 1_555 1_555
C120 C121 1_555 1_555
C122 N5 1_555 1_555
C126 C127 1_555 1_555
C133 C134 1_555 1_555
C135 C140 1_555 1_555
C135 O12 1_555 1_555
C139 C140 1_555 1_555
C141 N6 1_555 1_555
C145 C146 1_555 1_555
C147 N6 1_555 1_555
C151 C152 1_555 1_555
C158 C159 1_555 1_555
C160 C165 1_555 1_555
C160 O14 1_555 1_555
C164 C165 1_555 1_555
C166 N7 1_555 1_555
C170 C171 1_555 1_555
C172 N7 1_555 1_555
C176 C177 1_555 1_555
C183 C184 1_555 1_555
C185 C190 1_555 1_555
C185 O16 1_555 1_555
C189 C190 1_555 1_555
C191 N8 1_555 1_555
C195 C196 1_555 1_555
C197 N8 1_555 1_555
C201 C202 1_555 1_555

#END
