
#######################################################################
#
#                 Cambridge Crystallographic Data Centre
#                                CCDC 
#
#######################################################################
#
# If this CIF has been generated from an entry in the Cambridge 
# Structural Database, then it will include bibliographic, chemical, 
# crystal, experimental, refinement or atomic coordinate data resulting 
# from the CCDC's data processing and validation procedures.
#
#######################################################################

data_BEDTUC
_chemical_formula_moiety         'C28 H30 F2 N2 S2'
_chemical_name_systematic        
9,10-difluoro-2,5-dihexylbisthieno[3,2-a:2',3'-c]phenazine
_symmetry_cell_setting           monoclinic
_symmetry_space_group_name_H-M   'P 21'
_symmetry_Int_Tables_number      4
_space_group_name_Hall           'P 2yb'
loop_
_symmetry_equiv_pos_site_id
_symmetry_equiv_pos_as_xyz
1 x,y,z
2 -x,1/2+y,-z
_cell_length_a                   4.8835(11)
_cell_length_b                   32.292(6)
_cell_length_c                   15.798(3)
_cell_angle_alpha                90
_cell_angle_beta                 95.699(4)
_cell_angle_gamma                90
_cell_volume                     2479
_exptl_crystal_colour            yellow
_exptl_crystal_description       needle
_cell_formula_units_Z            4
loop_
_atom_site_label
_atom_site_type_symbol
_atom_site_fract_x
_atom_site_fract_y
_atom_site_fract_z
S1 S 1.2968(6) 0.02943(9) 0.68164(17)
S2 S 0.8247(6) -0.05129(9) 0.62694(18)
F1 F 0.1172(15) 0.1172(2) 0.1453(4)
N1 N 0.483(2) 0.0362(3) 0.3801(6)
C1 C 0.696(2) 0.1015(4) 0.3510(8)
F2 F 0.5082(15) 0.1731(2) 0.1767(4)
N2 N 0.882(2) 0.0994(3) 0.4193(6)
C2 C 1.053(2) 0.0269(4) 0.5933(7)
C3 C 0.877(2) 0.0653(4) 0.4675(7)
C4 C 0.509(3) 0.1405(4) 0.2299(8)
C5 C 0.697(3) 0.1370(3) 0.2982(7)
H1 H 0.8272 0.1577 0.3105
C6 C 0.673(3) -0.0039(4) 0.5009(7)
C7 C 1.066(2) 0.0619(4) 0.5436(7)
C8 C 0.495(2) 0.0706(4) 0.3319(7)
C9 C 1.408(2) 0.0779(4) 0.6497(7)
C10 C 1.637(2) 0.0989(3) 0.7034(7)
H2 H 1.7997 0.0817 0.7055
H3 H 1.5853 0.1014 0.7609
C11 C 0.292(3) 0.0759(4) 0.2602(7)
H4 H 0.1554 0.0561 0.2473
C12 C 0.418(2) -0.1079(4) 0.5646(7)
H5 H 0.2633 -0.1106 0.5213
H6 H 0.3438 -0.1080 0.6194
C13 C 0.866(2) -0.0058(3) 0.5727(6)
C14 C 0.597(2) -0.1456(3) 0.5600(7)
H7 H 0.7442 -0.1446 0.6060
H8 H 0.6807 -0.1452 0.5068
C15 C 0.305(3) 0.1103(4) 0.2124(7)
C16 C 0.674(2) 0.0328(4) 0.4484(7)
C17 C 0.546(2) -0.0671(4) 0.5537(7)
C18 C 1.707(2) 0.1418(4) 0.6718(7)
H9 H 1.7690 0.1393 0.6155
H10 H 1.5432 0.1588 0.6672
C19 C 0.438(2) -0.1858(4) 0.5660(8)
H11 H 0.3765 -0.1877 0.6224
H12 H 0.2754 -0.1847 0.5254
C20 C 2.028(2) 0.2056(4) 0.6997(8)
H13 H 2.1881 0.2141 0.7367
H14 H 2.0831 0.2026 0.6428
C21 C 1.268(2) 0.0901(4) 0.5754(7)
H15 H 1.3036 0.1148 0.5482
C22 C 0.598(3) -0.2244(4) 0.5495(7)
H16 H 0.7649 -0.2248 0.5885
H17 H 0.6533 -0.2229 0.4922
C23 C 1.929(2) 0.1628(4) 0.7301(7)
H18 H 2.0870 0.1445 0.7378
H19 H 1.8613 0.1665 0.7853
C24 C 0.503(2) -0.0372(3) 0.4916(7)
H20 H 0.3673 -0.0397 0.4464
C25 C 1.813(3) 0.2390(4) 0.6989(8)
H21 H 1.7502 0.2412 0.7551
H22 H 1.6567 0.2315 0.6592
C26 C 1.927(3) 0.2810(4) 0.6733(9)
H23 H 2.0831 0.2883 0.7121
H24 H 1.7870 0.3018 0.6749
H25 H 1.9818 0.2791 0.6167
C27 C 0.605(3) -0.3033(4) 0.5436(9)
H26 H 0.6699 -0.3017 0.4883
H27 H 0.4899 -0.3272 0.5466
H28 H 0.7593 -0.3053 0.5861
C28 C 0.442(3) -0.2649(4) 0.5590(8)
H29 H 0.3854 -0.2662 0.6161
H30 H 0.2773 -0.2647 0.5194
S3 S 0.2224(6) 0.08596(9) 0.90958(18)
S4 S -0.2342(6) 0.00359(10) 0.85562(18)
F3 F 0.9794(14) -0.0837(2) 1.3842(4)
N3 N 0.593(2) -0.0018(3) 1.1538(6)
C29 C 0.009(2) 0.0066(4) 0.9431(6)
N4 N 0.206(2) -0.0667(3) 1.1122(6)
C30 C 0.199(2) 0.0389(4) 0.9637(7)
C31 C 0.790(3) -0.0774(4) 1.3180(8)
C32 C 0.401(3) -0.0687(3) 1.1793(7)
C33 C 0.212(3) -0.0320(4) 1.0654(7)
C34 C 0.405(3) 0.0006(4) 1.0865(7)
C35 C 0.590(3) -0.0373(4) 1.2013(8)
F4 F 0.6159(16) -0.1427(2) 1.3472(4)
C36 C -0.341(2) -0.0451(4) 0.8861(8)
C37 C 0.014(3) -0.0280(4) 0.9921(8)
C38 C 0.600(3) -0.1082(4) 1.2976(7)
C39 C -0.568(2) -0.0684(4) 0.8343(7)
H31 H -0.7360 -0.0523 0.8328
H32 H -0.5201 -0.0708 0.7763
C40 C 0.393(2) 0.0362(4) 1.0334(7)
C41 C 0.402(3) -0.1052(4) 1.2316(8)
H33 H 0.2719 -0.1260 1.2204
C42 C 0.789(2) -0.0415(4) 1.2724(8)
H34 H 0.9147 -0.0205 1.2875
C43 C 0.492(2) 0.1029(4) 0.9826(7)
C44 C -0.195(2) -0.0579(4) 0.9606(7)
H35 H -0.2256 -0.0828 0.9877
C45 C 0.404(2) 0.1792(3) 0.9616(8)
H36 H 0.2810 0.1738 0.9107
H37 H 0.2945 0.1791 1.0096
C46 C 0.615(2) 0.1444(3) 0.9732(8)
H38 H 0.7212 0.1440 0.9245
H39 H 0.7408 0.1502 1.0233
C47 C -0.621(2) -0.1110(4) 0.8676(7)
H40 H -0.6859 -0.1086 0.9235
H41 H -0.4502 -0.1265 0.8737
C48 C 0.567(2) 0.0741(3) 1.0418(7)
H42 H 0.7122 0.0776 1.0838
C49 C 0.530(2) 0.2220(3) 0.9542(8)
H43 H 0.6491 0.2214 0.9086
H44 H 0.6438 0.2280 1.0066
C50 C 0.321(3) 0.2572(4) 0.9369(8)
H45 H 0.2032 0.2508 0.8855
H46 H 0.2062 0.2584 0.9835
C51 C -0.888(3) -0.1783(4) 0.8388(8)
H47 H -0.7140 -0.1926 0.8501
H48 H -0.9719 -0.1767 0.8919
C52 C -0.833(3) -0.1349(4) 0.8095(8)
H49 H -1.0050 -0.1196 0.8048
H50 H -0.7706 -0.1364 0.7532
C53 C -1.072(3) -0.2032(4) 0.7764(8)
H51 H -0.9949 -0.2029 0.7221
H52 H -1.2502 -0.1898 0.7683
C54 C -1.113(4) -0.2476(5) 0.8018(10)
H53 H -0.9402 -0.2592 0.8244
H54 H -1.1854 -0.2632 0.7529
H55 H -1.2405 -0.2487 0.8443
C55 C 0.231(3) 0.3334(4) 0.9145(9)
H56 H 0.1293 0.3307 0.8596
H57 H 0.3234 0.3597 0.9182
H58 H 0.1075 0.3317 0.9579
C56 C 0.446(3) 0.2984(4) 0.9269(9)
H59 H 0.5521 0.2978 0.8783
H60 H 0.5710 0.3043 0.9770
loop_
_geom_bond_atom_site_label_1
_geom_bond_atom_site_label_2
_geom_bond_site_symmetry_1
_geom_bond_site_symmetry_2
S1 C2 1_555 1_555
S2 C13 1_555 1_555
F1 C15 1_555 1_555
N1 C8 1_555 1_555
C1 N2 1_555 1_555
F2 C4 1_555 1_555
N2 C3 1_555 1_555
C2 C7 1_555 1_555
C3 C7 1_555 1_555
C4 C5 1_555 1_555
C5 C1 1_555 1_555
H1 C5 1_555 1_555
C6 C13 1_555 1_555
C7 C21 1_555 1_555
C8 C1 1_555 1_555
C9 S1 1_555 1_555
C10 C9 1_555 1_555
H2 C10 1_555 1_555
H3 C10 1_555 1_555
C11 C8 1_555 1_555
H4 C11 1_555 1_555
C12 H5 1_555 1_555
H6 C12 1_555 1_555
C13 C2 1_555 1_555
C14 C12 1_555 1_555
H7 C14 1_555 1_555
H8 C14 1_555 1_555
C15 C4 1_555 1_555
C16 N1 1_555 1_555
C17 S2 1_555 1_555
C18 C10 1_555 1_555
H9 C18 1_555 1_555
H10 C18 1_555 1_555
C19 C14 1_555 1_555
H11 C19 1_555 1_555
H12 C19 1_555 1_555
C20 H13 1_555 1_555
H14 C20 1_555 1_555
C21 C9 1_555 1_555
H15 C21 1_555 1_555
C22 C19 1_555 1_555
H16 C22 1_555 1_555
H17 C22 1_555 1_555
C23 C18 1_555 1_555
H18 C23 1_555 1_555
H19 C23 1_555 1_555
C24 C6 1_555 1_555
H20 C24 1_555 1_555
C25 C20 1_555 1_555
H21 C25 1_555 1_555
H22 C25 1_555 1_555
C26 C25 1_555 1_555
H23 C26 1_555 1_555
H24 C26 1_555 1_555
H25 C26 1_555 1_555
C27 H26 1_555 1_555
H27 C27 1_555 1_555
H28 C27 1_555 1_555
C28 C22 1_555 1_555
H29 C28 1_555 1_555
H30 C28 1_555 1_555
S3 C30 1_555 1_555
S4 C29 1_555 1_555
F3 C31 1_555 1_555
N3 C34 1_555 1_555
C29 C30 1_555 1_555
N4 C32 1_555 1_555
C30 C40 1_555 1_555
C31 C38 1_555 1_555
C32 C35 1_555 1_555
C33 N4 1_555 1_555
C34 C33 1_555 1_555
C35 N3 1_555 1_555
F4 C38 1_555 1_555
C36 S4 1_555 1_555
C37 C29 1_555 1_555
C38 C41 1_555 1_555
C39 C36 1_555 1_555
H31 C39 1_555 1_555
H32 C39 1_555 1_555
C40 C34 1_555 1_555
C41 C32 1_555 1_555
H33 C41 1_555 1_555
C42 C31 1_555 1_555
H34 C42 1_555 1_555
C43 S3 1_555 1_555
C44 C36 1_555 1_555
H35 C44 1_555 1_555
C45 H36 1_555 1_555
H37 C45 1_555 1_555
C46 C43 1_555 1_555
H38 C46 1_555 1_555
H39 C46 1_555 1_555
C47 C39 1_555 1_555
H40 C47 1_555 1_555
H41 C47 1_555 1_555
C48 C40 1_555 1_555
H42 C48 1_555 1_555
C49 C45 1_555 1_555
H43 C49 1_555 1_555
H44 C49 1_555 1_555
C50 C49 1_555 1_555
H45 C50 1_555 1_555
H46 C50 1_555 1_555
C51 H47 1_555 1_555
H48 C51 1_555 1_555
C52 C47 1_555 1_555
H49 C52 1_555 1_555
H50 C52 1_555 1_555
C53 C51 1_555 1_555
H51 C53 1_555 1_555
H52 C53 1_555 1_555
C54 C53 1_555 1_555
H53 C54 1_555 1_555
H54 C54 1_555 1_555
H55 C54 1_555 1_555
C55 H56 1_555 1_555
H57 C55 1_555 1_555
H58 C55 1_555 1_555
C56 C50 1_555 1_555
H59 C56 1_555 1_555
H60 C56 1_555 1_555
C3 C16 1_555 1_555
C6 C16 1_555 1_555
C11 C15 1_555 1_555
C12 C17 1_555 1_555
C17 C24 1_555 1_555
C20 C23 1_555 1_555
C27 C28 1_555 1_555
C33 C37 1_555 1_555
C35 C42 1_555 1_555
C37 C44 1_555 1_555
C43 C48 1_555 1_555
C45 C46 1_555 1_555
C51 C52 1_555 1_555
C55 C56 1_555 1_555

#END
