
#######################################################################
#
#                 Cambridge Crystallographic Data Centre
#                                CCDC 
#
#######################################################################
#
# If this CIF has been generated from an entry in the Cambridge 
# Structural Database, then it will include bibliographic, chemical, 
# crystal, experimental, refinement or atomic coordinate data resulting 
# from the CCDC's data processing and validation procedures.
#
#######################################################################

data_BEDTIP
_chemical_formula_moiety         'C30 H52 O5'
_chemical_name_systematic        20,24-Epoxydammarane-3,6,12,25-tetrol
_symmetry_cell_setting           orthorhombic
_symmetry_space_group_name_H-M   'P 21 21 21'
_symmetry_Int_Tables_number      19
_space_group_name_Hall           'P 2ac 2ab'
loop_
_symmetry_equiv_pos_site_id
_symmetry_equiv_pos_as_xyz
1 x,y,z
2 1/2-x,-y,1/2+z
3 -x,1/2+y,1/2-z
4 1/2+x,1/2-y,-z
_cell_length_a                   12.9341(18)
_cell_length_b                   13.7677(19)
_cell_length_c                   16.074(2)
_cell_angle_alpha                90
_cell_angle_beta                 90
_cell_angle_gamma                90
_cell_volume                     2862.34
_exptl_crystal_colour            colorless
_exptl_crystal_description       block
_cell_formula_units_Z            4
loop_
_atom_site_label
_atom_site_type_symbol
_atom_site_fract_x
_atom_site_fract_y
_atom_site_fract_z
C1 C 0.13486(17) 0.22555(17) 0.70293(14)
H1 H 0.1859 0.2717 0.6830
H2 H 0.1716 0.1678 0.7209
C2 C 0.06438(17) 0.19848(17) 0.63119(14)
H3 H 0.0140 0.1505 0.6509
C3 C 0.00559(17) 0.28870(16) 0.59996(13)
H4 H 0.0592 0.3384 0.5934
C4 C -0.04608(17) 0.28160(19) 0.51187(14)
C5 C 0.0371(2) 0.2705(2) 0.44383(15)
H5 H 0.0068 0.2827 0.3903
H6 H 0.0644 0.2057 0.4452
H7 H 0.0918 0.3161 0.4536
C6 C -0.1225(2) 0.19780(19) 0.50257(17)
H8 H -0.1844 0.2122 0.5331
H9 H -0.0920 0.1393 0.5239
H10 H -0.1391 0.1892 0.4448
C7 C -0.09928(19) 0.37983(19) 0.49256(14)
H11 H -0.0439 0.4279 0.4867
C8 C -0.1698(2) 0.4167(2) 0.56024(14)
H12 H -0.2280 0.3729 0.5663
H13 H -0.1963 0.4801 0.5448
C9 C -0.11270(19) 0.42426(18) 0.64244(15)
H14 H -0.1604 0.4475 0.6845
H15 H -0.0581 0.4721 0.6369
C10 C -0.06491(16) 0.32819(16) 0.67238(13)
C11 C -0.15435(17) 0.25969(19) 0.69663(16)
H16 H -0.1299 0.1938 0.6973
H17 H -0.2093 0.2658 0.6568
H18 H -0.1795 0.2768 0.7509
C12 C 0.00689(17) 0.35249(16) 0.74756(14)
H19 H 0.0540 0.4022 0.7260
C13 C 0.07988(16) 0.26951(15) 0.77795(13)
C14 C 0.02116(19) 0.18717(18) 0.82178(15)
H20 H -0.0146 0.1487 0.7811
H21 H -0.0279 0.2143 0.8601
H22 H 0.0693 0.1470 0.8515
C15 C -0.04597(17) 0.40160(18) 0.82257(14)
H23 H -0.0872 0.4556 0.8025
H24 H -0.0926 0.3553 0.8482
C16 C 0.02845(18) 0.43893(17) 0.88841(14)
H25 H 0.0687 0.4924 0.8644
C17 C 0.10262(17) 0.36000(17) 0.91572(14)
H26 H 0.0606 0.3077 0.9395
C18 C 0.15907(17) 0.31681(17) 0.83935(14)
C19 C 0.22621(19) 0.3948(2) 0.79573(17)
H27 H 0.2555 0.4373 0.8367
H28 H 0.1840 0.4317 0.7581
H29 H 0.2808 0.3636 0.7653
C20 C 0.2355(2) 0.2485(2) 0.88292(16)
H30 H 0.2899 0.2280 0.8453
H31 H 0.2007 0.1916 0.9048
C21 C 0.2788(2) 0.3120(2) 0.95330(18)
H32 H 0.3383 0.3486 0.9341
H33 H 0.2997 0.2720 1.0001
C22 C 0.18961(17) 0.38202(19) 0.97917(15)
H34 H 0.2133 0.4487 0.9696
C23 C 0.1655(2) 0.37156(19) 1.07141(15)
C24 C 0.2519(2) 0.4175(3) 1.12227(18)
H35 H 0.2523 0.4864 1.1133
H36 H 0.3171 0.3907 1.1053
H37 H 0.2409 0.4043 1.1802
C25 C 0.1411(3) 0.2682(2) 1.09948(18)
H38 H 0.1095 0.2312 1.0548
H39 H 0.2033 0.2350 1.1177
C26 C 0.0672(3) 0.2815(2) 1.17033(19)
H40 H 0.1037 0.2945 1.2219
H41 H 0.0238 0.2247 1.1775
C27 C 0.0038(2) 0.3693(2) 1.14315(15)
H42 H -0.0531 0.3457 1.1083
O1 O -0.15296(13) 0.37793(16) 0.41497(10)
H43 H -0.2141 0.3654 0.4231
O2 O -0.03303(13) 0.47664(13) 0.95469(9)
H44 H -0.0017 0.4707 0.9988
O3 O 0.12944(12) 0.15342(11) 0.57003(10)
H45 H 0.1076 0.0988 0.5597
O4 O 0.07186(12) 0.42579(12) 1.09103(9)
C28 C -0.0421(2) 0.4321(2) 1.21077(16)
C29 C -0.1043(3) 0.5112(3) 1.1728(2)
H46 H -0.1453 0.4853 1.1282
H47 H -0.0589 0.5604 1.1514
H48 H -0.1489 0.5391 1.2141
C30 C 0.0350(2) 0.4740(2) 1.27105(19)
H49 H -0.0010 0.5044 1.3163
H50 H 0.0770 0.5213 1.2431
H51 H 0.0782 0.4230 1.2922
O5 O -0.1019(3) 0.3555(4) 1.25370(17)
H52 H -0.1168 0.3739 1.3007
C31? C -0.0421(2) 0.4321(2) 1.21077(16)
C32? C -0.1043(3) 0.5112(3) 1.1728(2)
C33? C 0.0350(2) 0.4740(2) 1.27105(19)
H53? H -0.1334 0.5510 1.2159
H54? H -0.1590 0.4835 1.1401
H55? H -0.0607 0.5502 1.1378
H56? H 0.0092 0.5343 1.2927
H57? H 0.0994 0.4853 1.2429
H58? H 0.0457 0.4292 1.3160
H59? H -0.1816 0.3928 1.2131
O6? O -0.1430(7) 0.4177(11) 1.2474(6)
loop_
_geom_bond_atom_site_label_1
_geom_bond_atom_site_label_2
_geom_bond_site_symmetry_1
_geom_bond_site_symmetry_2
C1 H1 1_555 1_555
H2 C1 1_555 1_555
C2 C1 1_555 1_555
H3 C2 1_555 1_555
C3 C2 1_555 1_555
H4 C3 1_555 1_555
C4 C3 1_555 1_555
C5 C4 1_555 1_555
H5 C5 1_555 1_555
H6 C5 1_555 1_555
H7 C5 1_555 1_555
C6 C4 1_555 1_555
H8 C6 1_555 1_555
H9 C6 1_555 1_555
H10 C6 1_555 1_555
C7 C4 1_555 1_555
H11 C7 1_555 1_555
C8 C7 1_555 1_555
H12 C8 1_555 1_555
H13 C8 1_555 1_555
C9 C8 1_555 1_555
H14 C9 1_555 1_555
H15 C9 1_555 1_555
C10 C3 1_555 1_555
C11 C10 1_555 1_555
H16 C11 1_555 1_555
H17 C11 1_555 1_555
H18 C11 1_555 1_555
C12 C10 1_555 1_555
H19 C12 1_555 1_555
C13 C1 1_555 1_555
C14 C13 1_555 1_555
H20 C14 1_555 1_555
H21 C14 1_555 1_555
H22 C14 1_555 1_555
C15 C12 1_555 1_555
H23 C15 1_555 1_555
H24 C15 1_555 1_555
C16 C15 1_555 1_555
H25 C16 1_555 1_555
C17 C16 1_555 1_555
H26 C17 1_555 1_555
C18 C13 1_555 1_555
C19 C18 1_555 1_555
H27 C19 1_555 1_555
H28 C19 1_555 1_555
H29 C19 1_555 1_555
C20 C18 1_555 1_555
H30 C20 1_555 1_555
H31 C20 1_555 1_555
C21 C20 1_555 1_555
H32 C21 1_555 1_555
H33 C21 1_555 1_555
C22 C17 1_555 1_555
H34 C22 1_555 1_555
C23 C22 1_555 1_555
C24 C23 1_555 1_555
H35 C24 1_555 1_555
H36 C24 1_555 1_555
H37 C24 1_555 1_555
C25 C23 1_555 1_555
H38 C25 1_555 1_555
H39 C25 1_555 1_555
C26 C25 1_555 1_555
H40 C26 1_555 1_555
H41 C26 1_555 1_555
C27 C26 1_555 1_555
H42 C27 1_555 1_555
O1 C7 1_555 1_555
H43 O1 1_555 1_555
O2 C16 1_555 1_555
H44 O2 1_555 1_555
O3 C2 1_555 1_555
H45 O3 1_555 1_555
O4 C23 1_555 1_555
C28 C27 1_555 1_555
C29 C28 1_555 1_555
H46 C29 1_555 1_555
H47 C29 1_555 1_555
H48 C29 1_555 1_555
C30 C28 1_555 1_555
H49 C30 1_555 1_555
H50 C30 1_555 1_555
H51 C30 1_555 1_555
O5 C28 1_555 1_555
H52 O5 1_555 1_555
C9 C10 1_555 1_555
C12 C13 1_555 1_555
C17 C18 1_555 1_555
C21 C22 1_555 1_555
C27 O4 1_555 1_555

#END
