
#######################################################################
#
#                 Cambridge Crystallographic Data Centre
#                                CCDC 
#
#######################################################################
#
# If this CIF has been generated from an entry in the Cambridge 
# Structural Database, then it will include bibliographic, chemical, 
# crystal, experimental, refinement or atomic coordinate data resulting 
# from the CCDC's data processing and validation procedures.
#
#######################################################################

data_BEDVAJ
_chemical_formula_moiety         'C20 H30 Br1 N1 O3'
_chemical_name_systematic        
'2-Isopropyl-5-methylcyclohexyl 2-bromo-4-(2,5-dimethyl-2,5-dihydro-1H-pyrrol-1-yl)-4-oxobut-2-enoate'
_symmetry_cell_setting           monoclinic
_symmetry_space_group_name_H-M   'P 21'
_symmetry_Int_Tables_number      4
_space_group_name_Hall           'P 2yb'
loop_
_symmetry_equiv_pos_site_id
_symmetry_equiv_pos_as_xyz
1 x,y,z
2 -x,1/2+y,-z
_cell_length_a                   6.3347(13)
_cell_length_b                   19.023(4)
_cell_length_c                   8.7903(18)
_cell_angle_alpha                90
_cell_angle_beta                 94.715(3)
_cell_angle_gamma                90
_cell_volume                     1055.69
_cell_formula_units_Z            2
loop_
_atom_site_label
_atom_site_type_symbol
_atom_site_fract_x
_atom_site_fract_y
_atom_site_fract_z
Br1 Br 0.4000(3) 0.30448(14) 0.57729(17)
N1 N 0.276(2) 0.5668(7) 0.4217(15)
C1 C 0.330(3) 0.6337(10) 0.3547(19)
H1 H 0.4523 0.6539 0.4152
C2 C 0.136(3) 0.6759(9) 0.3810(18)
C3 C 0.076(3) 0.5708(10) 0.4878(18)
H4 H -0.0189 0.5345 0.4419
C4 C -0.003(3) 0.6382(10) 0.442(2)
C5 C 0.372(5) 0.6348(16) 0.187(3)
H7 H 0.4885 0.6040 0.1712
H8 H 0.4073 0.6818 0.1584
H9 H 0.2482 0.6194 0.1267
C6 C 0.417(2) 0.5143(8) 0.4242(16)
O1 O 0.5996(19) 0.5211(7) 0.3805(14)
C7 C 0.354(2) 0.4470(8) 0.4857(15)
H10 H 0.2215 0.4425 0.5239
C8 C 0.480(2) 0.3936(7) 0.4874(14)
C9 C 0.693(3) 0.3887(9) 0.4349(17)
O2 O 0.6834(17) 0.3698(6) 0.2854(12)
O3 O 0.8594(18) 0.3957(6) 0.5121(12)
C10 C 0.823(3) 0.3843(11) 0.043(2)
H11 H 0.7170 0.3506 0.0008
C11 C 1.022(4) 0.3736(12) -0.040(2)
H12 H 0.9896 0.3830 -0.1474
H13 H 1.1286 0.4073 -0.0012
C12 C 0.720(3) 0.4611(11) 0.029(2)
H14 H 0.6176 0.4654 0.1055
C13 C 1.112(3) 0.3014(19) -0.021(2)
H15 H 1.2369 0.2978 -0.0771
H16 H 1.0084 0.2677 -0.0642
C14 C 0.878(3) 0.3647(9) 0.2116(16)
H17 H 0.9826 0.3978 0.2585
C15 C 0.963(3) 0.2917(10) 0.2246(18)
H18 H 0.8586 0.2593 0.1782
H19 H 0.9885 0.2794 0.3316
C16 C 1.170(3) 0.2835(10) 0.147(2)
H20 H 1.2747 0.3173 0.1908
C17 C 0.599(6) 0.473(2) -0.133(5)
H21 H 0.5286 0.5174 -0.1356
H22 H 0.4966 0.4360 -0.1533
H23 H 0.6986 0.4719 -0.2102
C18 C 0.885(3) 0.5173(14) 0.058(2)
H24 H 0.9423 0.5300 -0.0357
H25 H 0.9971 0.4999 0.1289
H26 H 0.8222 0.5578 0.1011
C19 C 1.262(5) 0.2077(17) 0.163(3)
H27 H 1.1579 0.1746 0.1221
H28 H 1.2993 0.1975 0.2685
H29 H 1.3861 0.2043 0.1072
C20 C 0.097(4) 0.5612(13) 0.662(2)
H30 H 0.2205 0.5858 0.7051
H31 H 0.1105 0.5121 0.6865
H32 H -0.0264 0.5798 0.7043
H2? H 0.1749 0.7154 0.4471
H3? H 0.0745 0.6944 0.2843
H5? H -0.1256 0.6324 0.3697
H6? H -0.0486 0.6626 0.5306
loop_
_geom_bond_atom_site_label_1
_geom_bond_atom_site_label_2
_geom_bond_site_symmetry_1
_geom_bond_site_symmetry_2
Br1 C8 1_555 1_555
N1 C1 1_555 1_555
C1 H1 1_555 1_555
C2 C1 1_555 1_555
C3 N1 1_555 1_555
H4 C3 1_555 1_555
C4 C2 1_555 1_555
C5 C1 1_555 1_555
H7 C5 1_555 1_555
H8 C5 1_555 1_555
H9 C5 1_555 1_555
C6 N1 1_555 1_555
O1 C6 1_555 1_555
C7 C6 1_555 1_555
H10 C7 1_555 1_555
C8 C7 1_555 1_555
C9 C8 1_555 1_555
O2 C9 1_555 1_555
O3 C9 1_555 1_555
C10 H11 1_555 1_555
C11 C10 1_555 1_555
H12 C11 1_555 1_555
H13 C11 1_555 1_555
C12 C10 1_555 1_555
H14 C12 1_555 1_555
C13 C11 1_555 1_555
H15 C13 1_555 1_555
H16 C13 1_555 1_555
C14 O2 1_555 1_555
H17 C14 1_555 1_555
C15 C14 1_555 1_555
H18 C15 1_555 1_555
H19 C15 1_555 1_555
C16 C13 1_555 1_555
H20 C16 1_555 1_555
C17 C12 1_555 1_555
H21 C17 1_555 1_555
H22 C17 1_555 1_555
H23 C17 1_555 1_555
C18 C12 1_555 1_555
H24 C18 1_555 1_555
H25 C18 1_555 1_555
H26 C18 1_555 1_555
C19 C16 1_555 1_555
H27 C19 1_555 1_555
H28 C19 1_555 1_555
H29 C19 1_555 1_555
C20 C3 1_555 1_555
H30 C20 1_555 1_555
H31 C20 1_555 1_555
H32 C20 1_555 1_555
C3 C4 1_555 1_555
C10 C14 1_555 1_555
C15 C16 1_555 1_555

#END
