
#######################################################################
#
#                 Cambridge Crystallographic Data Centre
#                                CCDC 
#
#######################################################################
#
# If this CIF has been generated from an entry in the Cambridge 
# Structural Database, then it will include bibliographic, chemical, 
# crystal, experimental, refinement or atomic coordinate data resulting 
# from the CCDC's data processing and validation procedures.
#
#######################################################################

data_BEDVAK01
_chemical_formula_moiety         'C28 H30 Br2 N2 S2'
_chemical_name_systematic        
9,10-dibromo-2,5-dihexylbisthieno[3,2-a:2',3'-c]phenazine
_symmetry_cell_setting           triclinic
_symmetry_space_group_name_H-M   'P -1'
_symmetry_Int_Tables_number      2
_space_group_name_Hall           '-P 1'
loop_
_symmetry_equiv_pos_site_id
_symmetry_equiv_pos_as_xyz
1 x,y,z
2 -x,-y,-z
_cell_length_a                   5.0700(10)
_cell_length_b                   23.060(5)
_cell_length_c                   26.070(5)
_cell_angle_alpha                78.15(3)
_cell_angle_beta                 88.19(3)
_cell_angle_gamma                87.26(3)
_cell_volume                     2978.85
_exptl_crystal_colour            'green yellow'
_exptl_crystal_description       needle-like
_cell_formula_units_Z            4
loop_
_atom_site_label
_atom_site_type_symbol
_atom_site_fract_x
_atom_site_fract_y
_atom_site_fract_z
Br1 Br -0.0301(3) 0.92677(5) 0.94076(4)
Br2 Br -0.3295(2) 0.81057(5) 0.90620(5)
C1 C 0.2726(12) 0.9260(3) 0.7875(2)
C2 C 0.2235(13) 0.9388(2) 0.8368(2)
H1 H 0.3090 0.9695 0.8467
C3 C 0.0466(14) 0.9057(3) 0.87147(19)
C4 C -0.0812(12) 0.8599(3) 0.8567(2)
C5 C -0.0321(13) 0.8471(2) 0.8074(2)
H2 H -0.1176 0.8165 0.7975
C6 C 0.1448(14) 0.8802(3) 0.77277(19)
C7 C 0.3696(13) 0.9022(3) 0.6855(2)
C8 C 0.5117(14) 0.9452(3) 0.70134(19)
C9 C 0.6859(14) 0.9787(3) 0.6664(3)
C10 C 0.7181(13) 0.9691(3) 0.6156(2)
C11 C 0.5761(15) 0.9261(3) 0.59975(19)
C12 C 0.4018(15) 0.8926(3) 0.6347(3)
C13 C 0.258(3) 0.8491(5) 0.6075(5)
H3 H 0.1355 0.8230 0.6249
C14 C 0.331(3) 0.8528(6) 0.5536(5)
C15 C 0.231(4) 0.8213(7) 0.5137(6)
H4 H 0.0399 0.8272 0.5129
H5 H 0.2994 0.8403 0.4795
C16 C 0.293(4) 0.7583(7) 0.5206(7)
H6 H 0.2258 0.7395 0.5550
H7 H 0.4837 0.7526 0.5212
C17 C 0.191(4) 0.7241(8) 0.4805(7)
H8 H 0.0226 0.7422 0.4680
H9 H 0.3137 0.7290 0.4507
C18 C 0.159(4) 0.6625(9) 0.4994(8)
H10 H 0.0483 0.6567 0.5309
H11 H 0.3300 0.6429 0.5084
C19 C 0.028(5) 0.6337(8) 0.4565(8)
H12 H -0.1574 0.6453 0.4527
H13 H 0.1185 0.6443 0.4227
C20 C 0.067(5) 0.5699(10) 0.4792(10)
H14 H 0.1397 0.5649 0.5134
H15 H 0.1857 0.5519 0.4570
H16 H -0.1001 0.5514 0.4818
C21 C 0.863(2) 1.0280(5) 0.6754(4)
H17 H 0.8700 1.0401 0.7072
C22 C 1.014(2) 1.0528(5) 0.6307(4)
C23 C 1.205(2) 1.1048(5) 0.6236(5)
H18 H 1.1442 1.1357 0.5948
H19 H 1.3785 1.0906 0.6138
C24 C 1.231(3) 1.1321(6) 0.6717(5)
H20 H 1.3148 1.1029 0.6993
H21 H 1.0562 1.1420 0.6844
C25 C 1.395(3) 1.1886(6) 0.6605(5)
H22 H 1.3147 1.2168 0.6318
H23 H 1.5709 1.1781 0.6490
C26 C 1.418(3) 1.2195(7) 0.7075(6)
H24 H 1.2414 1.2274 0.7206
H25 H 1.5091 1.1922 0.7353
C27 C 1.565(4) 1.2786(7) 0.6951(7)
H26 H 1.7349 1.2721 0.6785
H27 H 1.4631 1.3080 0.6708
C28 C 1.609(4) 1.3023(8) 0.7463(7)
H28 H 1.4406 1.3124 0.7609
H29 H 1.7124 1.3368 0.7380
H30 H 1.6993 1.2721 0.7713
N1 N 0.4676(16) 0.9604(4) 0.7529(3)
N2 N 0.1860(18) 0.8666(4) 0.7204(4)
S1 S 0.9528(6) 1.01877(15) 0.57646(11)
S2 S 0.5692(8) 0.90890(17) 0.53429(12)
Br3 Br 1.2222(3) 0.91396(6) 0.18086(5)
Br4 Br 1.6217(2) 0.94305(5) 0.06981(4)
C29 C 1.0634(12) 0.8139(3) 0.1364(2)
H31 H 0.9545 0.8060 0.1662
C30 C 1.2278(14) 0.8617(3) 0.1288(2)
C31 C 1.3906(12) 0.8735(2) 0.0843(2)
C32 C 1.3891(12) 0.8377(3) 0.0475(2)
H32 H 1.4981 0.8456 0.0177
C33 C 1.2248(13) 0.7900(2) 0.0551(2)
C34 C 1.0619(12) 0.7781(2) 0.0996(2)
C35 C 0.8828(13) 0.6937(3) 0.0682(2)
C36 C 1.0463(12) 0.7059(2) 0.0238(2)
C37 C 1.0457(12) 0.6703(3) -0.0132(2)
C38 C 0.8816(13) 0.6226(3) -0.0059(2)
C39 C 0.7181(12) 0.6104(2) 0.0384(2)
C40 C 0.7187(12) 0.6460(3) 0.0755(2)
C41 C 0.5136(19) 0.6237(4) 0.1202(4)
H33 H 0.4785 0.6431 0.1478
C42 C 0.388(2) 0.5734(5) 0.1157(4)
C43 C 0.184(2) 0.5357(5) 0.1520(4)
H34 H 0.0251 0.5350 0.1323
H35 H 0.2551 0.4953 0.1616
C44 C 0.106(2) 0.5577(5) 0.2022(4)
H36 H 0.0170 0.5964 0.1930
H37 H 0.2653 0.5621 0.2206
C45 C -0.079(3) 0.5143(6) 0.2397(5)
H38 H -0.2368 0.5101 0.2210
H39 H 0.0111 0.4756 0.2484
C46 C -0.162(3) 0.5343(7) 0.2917(5)
H40 H -0.2588 0.5723 0.2837
H41 H -0.0060 0.5390 0.3107
C47 C -0.345(3) 0.4860(7) 0.3276(6)
H42 H -0.4945 0.4795 0.3075
H43 H -0.2440 0.4487 0.3369
C48 C -0.445(4) 0.5047(10) 0.3771(7)
H44 H -0.2981 0.5119 0.3969
H45 H -0.5468 0.4738 0.3977
H46 H -0.5543 0.5403 0.3681
C49 C 1.205(2) 0.6741(5) -0.0646(4)
H47 H 1.3236 0.7038 -0.0765
C50 C 1.162(2) 0.6300(5) -0.0923(4)
C51 C 1.285(2) 0.6189(5) -0.1447(4)
H48 H 1.1471 0.6067 -0.1648
H49 H 1.4155 0.5864 -0.1372
C52 C 1.418(3) 0.6739(6) -0.1792(5)
H50 H 1.5607 0.6854 -0.1599
H51 H 1.2895 0.7069 -0.1862
C53 C 1.531(3) 0.6609(6) -0.2327(5)
H52 H 1.6665 0.6294 -0.2255
H53 H 1.3904 0.6470 -0.2508
C54 C 1.646(4) 0.7138(7) -0.2677(6)
H54 H 1.8107 0.7212 -0.2527
H55 H 1.5269 0.7477 -0.2665
C55 C 1.705(4) 0.7123(8) -0.3285(7)
H56 H 1.5406 0.7234 -0.3466
H57 H 1.8252 0.7437 -0.3418
C56 C 1.810(4) 0.6612(8) -0.3452(8)
H58 H 1.9840 0.6514 -0.3316
H59 H 1.8197 0.6688 -0.3828
H60 H 1.6981 0.6287 -0.3326
N3 N 0.8795(15) 0.7287(3) 0.1082(3)
N4 N 1.2251(16) 0.7545(4) 0.0152(3)
S3 S 0.4958(6) 0.54844(12) 0.05628(11)
S4 S 0.9233(6) 0.58008(12) -0.05850(11)
loop_
_geom_bond_atom_site_label_1
_geom_bond_atom_site_label_2
_geom_bond_site_symmetry_1
_geom_bond_site_symmetry_2
Br1 C3 1_555 1_555
Br2 C4 1_555 1_555
C1 C2 1_555 1_555
C2 H1 1_555 1_555
C3 C2 1_555 1_555
C4 C3 1_555 1_555
C5 C4 1_555 1_555
H2 C5 1_555 1_555
C6 C1 1_555 1_555
C7 C8 1_555 1_555
C8 C9 1_555 1_555
C9 C10 1_555 1_555
C10 C11 1_555 1_555
C11 C12 1_555 1_555
C12 C7 1_555 1_555
C13 C12 1_555 1_555
H3 C13 1_555 1_555
C14 C13 1_555 1_555
C15 C14 1_555 1_555
H4 C15 1_555 1_555
H5 C15 1_555 1_555
C16 C15 1_555 1_555
H6 C16 1_555 1_555
H7 C16 1_555 1_555
C17 C16 1_555 1_555
H8 C17 1_555 1_555
H9 C17 1_555 1_555
C18 C17 1_555 1_555
H10 C18 1_555 1_555
H11 C18 1_555 1_555
C19 C18 1_555 1_555
H12 C19 1_555 1_555
H13 C19 1_555 1_555
C20 C19 1_555 1_555
H14 C20 1_555 1_555
H15 C20 1_555 1_555
H16 C20 1_555 1_555
C21 C9 1_555 1_555
H17 C21 1_555 1_555
C22 C21 1_555 1_555
C23 C22 1_555 1_555
H18 C23 1_555 1_555
H19 C23 1_555 1_555
C24 C23 1_555 1_555
H20 C24 1_555 1_555
H21 C24 1_555 1_555
C25 C24 1_555 1_555
H22 C25 1_555 1_555
H23 C25 1_555 1_555
C26 C25 1_555 1_555
H24 C26 1_555 1_555
H25 C26 1_555 1_555
C27 C26 1_555 1_555
H26 C27 1_555 1_555
H27 C27 1_555 1_555
C28 C27 1_555 1_555
H28 C28 1_555 1_555
H29 C28 1_555 1_555
H30 C28 1_555 1_555
N1 C1 1_555 1_555
N2 C6 1_555 1_555
S1 C10 1_555 1_555
S2 C11 1_555 1_555
Br3 C30 1_555 1_555
Br4 C31 1_555 1_555
C29 H31 1_555 1_555
C30 C29 1_555 1_555
C31 C30 1_555 1_555
C32 C31 1_555 1_555
H32 C32 1_555 1_555
C33 C32 1_555 1_555
C34 C29 1_555 1_555
C35 C36 1_555 1_555
C36 C37 1_555 1_555
C37 C38 1_555 1_555
C38 C39 1_555 1_555
C39 C40 1_555 1_555
C40 C35 1_555 1_555
C41 C40 1_555 1_555
H33 C41 1_555 1_555
C42 C41 1_555 1_555
C43 C42 1_555 1_555
H34 C43 1_555 1_555
H35 C43 1_555 1_555
C44 C43 1_555 1_555
H36 C44 1_555 1_555
H37 C44 1_555 1_555
C45 C44 1_555 1_555
H38 C45 1_555 1_555
H39 C45 1_555 1_555
C46 C45 1_555 1_555
H40 C46 1_555 1_555
H41 C46 1_555 1_555
C47 C46 1_555 1_555
H42 C47 1_555 1_555
H43 C47 1_555 1_555
C48 C47 1_555 1_555
H44 C48 1_555 1_555
H45 C48 1_555 1_555
H46 C48 1_555 1_555
C49 C37 1_555 1_555
H47 C49 1_555 1_555
C50 C49 1_555 1_555
C51 C50 1_555 1_555
H48 C51 1_555 1_555
H49 C51 1_555 1_555
C52 C51 1_555 1_555
H50 C52 1_555 1_555
H51 C52 1_555 1_555
C53 C52 1_555 1_555
H52 C53 1_555 1_555
H53 C53 1_555 1_555
C54 C53 1_555 1_555
H54 C54 1_555 1_555
H55 C54 1_555 1_555
C55 C54 1_555 1_555
H56 C55 1_555 1_555
H57 C55 1_555 1_555
C56 C55 1_555 1_555
H58 C56 1_555 1_555
H59 C56 1_555 1_555
H60 C56 1_555 1_555
N3 C34 1_555 1_555
N4 C33 1_555 1_555
S3 C39 1_555 1_555
S4 C38 1_555 1_555
C5 C6 1_555 1_555
C7 N2 1_555 1_555
C8 N1 1_555 1_555
C14 S2 1_555 1_555
C22 S1 1_555 1_555
C33 C34 1_555 1_555
C35 N3 1_555 1_555
C36 N4 1_555 1_555
C42 S3 1_555 1_555
C50 S4 1_555 1_555

#END
