
#######################################################################
#
#                 Cambridge Crystallographic Data Centre
#                                CCDC 
#
#######################################################################
#
# If this CIF has been generated from an entry in the Cambridge 
# Structural Database, then it will include bibliographic, chemical, 
# crystal, experimental, refinement or atomic coordinate data resulting 
# from the CCDC's data processing and validation procedures.
#
#######################################################################

data_BEDXAM
_chemical_formula_moiety         'C25 H26 N2 O4 S2'
_chemical_name_systematic        
1,5-bis((4-methylphenyl)sulfonyl)-2,3,3a,4,5,9b-hexahydro-1H-pyrrolo[3,2-c]quinoline
_symmetry_cell_setting           triclinic
_symmetry_space_group_name_H-M   'P -1'
_symmetry_Int_Tables_number      2
_space_group_name_Hall           '-P 1'
loop_
_symmetry_equiv_pos_site_id
_symmetry_equiv_pos_as_xyz
1 x,y,z
2 -x,-y,-z
_cell_length_a                   9.9014(6)
_cell_length_b                   15.0687(8)
_cell_length_c                   17.1344(12)
_cell_angle_alpha                69.348(6)
_cell_angle_beta                 73.529(5)
_cell_angle_gamma                77.046(5)
_cell_volume                     2271.96
_exptl_crystal_colour            colorless
_exptl_crystal_description       block
_chemical_melting_point          '436-437 K'
_cell_formula_units_Z            4
loop_
_atom_site_label
_atom_site_type_symbol
_atom_site_fract_x
_atom_site_fract_y
_atom_site_fract_z
S1 S 0.54603(6) 1.00870(4) 0.30171(4)
S2 S 0.40936(6) 0.75080(4) 0.07421(4)
O1 O 0.50647(18) 0.79613(11) -0.00152(11)
O2 O 0.26045(17) 0.77688(11) 0.08007(12)
O3 O 0.47909(17) 1.10488(11) 0.29468(11)
O4 O 0.55661(18) 0.94157(12) 0.38312(10)
N1 N 0.45412(18) 0.96450(12) 0.26181(12)
N2 N 0.44785(18) 0.77098(13) 0.15285(13)
C1 C 0.4508(2) 0.62625(14) 0.09208(14)
C2 C 0.3449(2) 0.57293(15) 0.10601(15)
H1 H 0.2512(2) 0.60188(15) 0.10741(15)
C3 C 0.3529(2) 0.76442(15) 0.23382(15)
C4 C 0.5035(2) 0.86487(14) 0.25994(14)
H2 H 0.5656(2) 0.83189(14) 0.30007(14)
C5 C 0.7187(2) 1.01342(15) 0.23542(15)
C6 C 0.3753(2) 0.81277(14) 0.28435(14)
C7 C 0.3807(2) 0.47511(16) 0.11794(15)
H3 H 0.3101(2) 0.43888(16) 0.12639(15)
C8 C 0.5185(2) 0.43082(15) 0.11749(15)
C9 C 0.5881(2) 0.87530(15) 0.16833(14)
H4 H 0.6856(2) 0.88328(15) 0.16441(14)
C10 C 0.9848(2) 1.01823(16) 0.12411(16)
C11 C 0.7405(2) 1.08701(15) 0.15957(16)
H5 H 0.6661(2) 1.13515(15) 0.14547(16)
C12 C 0.4224(2) 1.02015(16) 0.17742(15)
H6 H 0.3229(2) 1.02263(16) 0.17924(15)
H7 H 0.4432(2) 1.08509(16) 0.16063(15)
C13 C 0.5169(2) 0.96888(15) 0.11409(15)
H8 H 0.5879(2) 1.00786(15) 0.07361(15)
H9 H 0.4603(2) 0.95569(15) 0.08264(15)
C14 C 0.8726(2) 1.08925(16) 0.10461(16)
H10 H 0.8866(2) 1.13927(16) 0.05359(16)
C15 C 0.2785(2) 0.81133(16) 0.36114(15)
H11 H 0.2914(2) 0.84468(16) 0.39436(15)
C16 C 0.1634(3) 0.76162(17) 0.38949(16)
H12 H 0.0986(3) 0.76264(17) 0.44058(16)
C17 C 0.5933(2) 0.78694(16) 0.14395(16)
H13 H 0.6414(2) 0.73166(16) 0.18077(16)
H14 H 0.6461(2) 0.79548(16) 0.08530(16)
C18 C 0.5905(2) 0.58357(16) 0.08968(16)
H15 H 0.6617(2) 0.62013(16) 0.07914(16)
C19 C 0.2388(2) 0.71152(16) 0.26443(16)
H16 H 0.2258(2) 0.67670(16) 0.23247(16)
C20 C 0.6227(2) 0.48639(16) 0.10308(17)
H17 H 0.7163(2) 0.45740(16) 0.10247(17)
C21 C 0.9608(2) 0.94488(18) 0.20023(17)
H18 H 1.0350(2) 0.89662(18) 0.21435(17)
C22 C 0.8284(2) 0.94161(17) 0.25611(16)
H19 H 0.8137(2) 0.89147(17) 0.30700(16)
C23 C 0.1458(2) 0.71064(17) 0.34137(17)
H20 H 0.0704(2) 0.67524(17) 0.36101(17)
C24 C 0.5560(3) 0.32438(16) 0.13260(18)
H21 H 0.5483(19) 0.29205(18) 0.1927(2)
H22 H 0.4918(12) 0.3027(3) 0.1127(11)
H23 H 0.6516(7) 0.3106(2) 0.1020(9)
C25 C 1.1289(2) 1.02290(19) 0.06376(18)
H24 H 1.1181(3) 1.0400(13) 0.0061(2)
H25 H 1.1741(8) 1.0702(9) 0.0687(8)
H26 H 1.1862(7) 0.9615(4) 0.0780(7)
S3 S 0.02517(6) 0.25197(4) 0.19249(4)
O5 O -0.08348(19) 0.30646(12) 0.14788(11)
O6 O -0.26188(17) 0.67741(11) 0.34531(12)
O7 O 0.1522(2) 0.20675(12) 0.14970(12)
N3 N 0.07420(18) 0.32720(13) 0.22581(12)
N4 N -0.05936(18) 0.54974(12) 0.32976(12)
C26 C -0.0513(2) 0.57177(15) 0.24053(14)
C27 C -0.0318(2) 0.49776(15) 0.20578(14)
C28 C -0.0398(2) 0.39459(14) 0.26218(13)
H27 H -0.1320(2) 0.37836(14) 0.26505(13)
C29 C -0.0253(2) 0.37359(15) 0.35427(14)
H28 H -0.1171(2) 0.36075(15) 0.39379(14)
C30 C -0.3292(2) 0.50559(16) 0.40253(15)
C31 C -0.1744(2) 0.02821(16) 0.43048(15)
C32 C 0.0226(2) 0.45663(15) 0.36577(15)
H29 H 0.1225(2) 0.45875(15) 0.33822(15)
H30 H 0.0125(2) 0.44553(15) 0.42633(15)
C33 C -0.0527(2) 0.16429(15) 0.28303(14)
C34 C -0.0533(2) 0.66688(16) 0.18836(16)
H31 H -0.0644(2) 0.71557(16) 0.21210(16)
C35 C -0.3537(2) 0.42868(16) 0.47555(15)
H32 H -0.3156(2) 0.42085(16) 0.52169(15)
C36 C -0.0136(2) 0.52185(17) 0.11773(15)
H33 H 0.0019(2) 0.47349(17) 0.09299(15)
C37 C 0.0821(2) 0.28262(16) 0.37103(15)
H34 H 0.1379(2) 0.28262(16) 0.40933(15)
H35 H 0.0347(2) 0.22594(16) 0.39570(15)
C38 C -0.2546(2) 0.11258(17) 0.39360(16)
H36 H -0.3506(2) 0.12388(17) 0.41874(16)
C39 C 0.0301(2) 0.08047(16) 0.31927(16)
H37 H 0.1262(2) 0.06926(16) 0.29441(16)
C40 C -0.0313(3) 0.01387(16) 0.39243(16)
H38 H 0.0248(3) -0.04199(16) 0.41679(16)
C41 C -0.1959(2) 0.18036(16) 0.32056(16)
H39 H -0.2520(2) 0.23644(16) 0.29661(16)
C42 C -0.3873(2) 0.51776(19) 0.33418(16)
H40 H -0.3718(2) 0.56998(19) 0.28505(16)
C43 C -0.0388(2) 0.68820(17) 0.10205(17)
H41 H -0.0429(2) 0.75172(17) 0.06750(17)
C44 C -0.0182(2) 0.61628(18) 0.06600(16)
H42 H -0.0075(2) 0.63109(18) 0.00729(16)
C45 C 0.1747(2) 0.28660(16) 0.28303(15)
H43 H 0.2201(2) 0.22313(16) 0.28087(15)
H44 H 0.2475(2) 0.32735(16) 0.26746(15)
C46 C -0.4352(2) 0.36348(17) 0.47952(17)
H45 H -0.4521(2) 0.31183(17) 0.52900(17)
C47 C -0.4924(2) 0.37295(19) 0.41199(19)
C48 C -0.4686(3) 0.4512(2) 0.34010(19)
H46 H -0.5082(3) 0.4594(2) 0.29446(19)
C49 C -0.2416(3) -0.0465(2) 0.50763(18)
H47 H -0.3414(5) -0.0251(6) 0.5237(8)
H48 H -0.2287(18) -0.1051(4) 0.4945(4)
H49 H -0.1978(14) -0.0571(10) 0.5541(4)
C50 C -0.5824(3) 0.3013(2) 0.4180(2)
H50 H -0.5731(19) 0.2463(8) 0.4671(8)
H51 H -0.6801(4) 0.3300(6) 0.4235(15)
H52 H -0.5513(16) 0.2820(13) 0.3672(7)
S4 S -0.21053(6) 0.58245(4) 0.39153(4)
O8 O -0.18012(18) 0.56348(13) 0.47269(12)
loop_
_geom_bond_atom_site_label_1
_geom_bond_atom_site_label_2
_geom_bond_site_symmetry_1
_geom_bond_site_symmetry_2
S1 O3 1_555 1_555
S2 O1 1_555 1_555
O2 S2 1_555 1_555
O4 S1 1_555 1_555
N1 S1 1_555 1_555
N2 S2 1_555 1_555
C1 S2 1_555 1_555
C2 C1 1_555 1_555
H1 C2 1_555 1_555
C3 N2 1_555 1_555
C4 N1 1_555 1_555
H2 C4 1_555 1_555
C5 S1 1_555 1_555
C6 C3 1_555 1_555
C7 C2 1_555 1_555
H3 C7 1_555 1_555
C8 C7 1_555 1_555
C9 C4 1_555 1_555
H4 C9 1_555 1_555
C10 C14 1_555 1_555
C11 C5 1_555 1_555
H5 C11 1_555 1_555
C12 N1 1_555 1_555
H6 C12 1_555 1_555
H7 C12 1_555 1_555
C13 C9 1_555 1_555
H8 C13 1_555 1_555
H9 C13 1_555 1_555
C14 C11 1_555 1_555
H10 C14 1_555 1_555
C15 C6 1_555 1_555
H11 C15 1_555 1_555
C16 C15 1_555 1_555
H12 C16 1_555 1_555
C17 N2 1_555 1_555
H13 C17 1_555 1_555
H14 C17 1_555 1_555
C18 C1 1_555 1_555
H15 C18 1_555 1_555
C19 C3 1_555 1_555
H16 C19 1_555 1_555
C20 C8 1_555 1_555
H17 C20 1_555 1_555
C21 C10 1_555 1_555
H18 C21 1_555 1_555
C22 C5 1_555 1_555
H19 C22 1_555 1_555
C23 C16 1_555 1_555
H20 C23 1_555 1_555
C24 C8 1_555 1_555
H21 C24 1_555 1_555
H22 C24 1_555 1_555
H23 C24 1_555 1_555
C25 C10 1_555 1_555
H24 C25 1_555 1_555
H25 C25 1_555 1_555
H26 C25 1_555 1_555
S3 O5 1_555 1_555
O6 S4 1_555 1_555
O7 S3 1_555 1_555
N3 S3 1_555 1_555
N4 C26 1_555 1_555
C26 C27 1_555 1_555
C27 C28 1_555 1_555
C28 N3 1_555 1_555
H27 C28 1_555 1_555
C29 C28 1_555 1_555
H28 C29 1_555 1_555
C30 C35 1_555 1_555
C31 C38 1_555 1_555
C32 N4 1_555 1_555
H29 C32 1_555 1_555
H30 C32 1_555 1_555
C33 S3 1_555 1_555
C34 C26 1_555 1_555
H31 C34 1_555 1_555
C35 H32 1_555 1_555
C36 C27 1_555 1_555
H33 C36 1_555 1_555
C37 C29 1_555 1_555
H34 C37 1_555 1_555
H35 C37 1_555 1_555
C38 H36 1_555 1_555
C39 C33 1_555 1_555
H37 C39 1_555 1_555
C40 C31 1_555 1_555
H38 C40 1_555 1_555
C41 C33 1_555 1_555
H39 C41 1_555 1_555
C42 C30 1_555 1_555
H40 C42 1_555 1_555
C43 C34 1_555 1_555
H41 C43 1_555 1_555
C44 C36 1_555 1_555
H42 C44 1_555 1_555
C45 N3 1_555 1_555
H43 C45 1_555 1_555
H44 C45 1_555 1_555
C46 C35 1_555 1_555
H45 C46 1_555 1_555
C47 C46 1_555 1_555
C48 C42 1_555 1_555
H46 C48 1_555 1_555
C49 C31 1_555 1_555
H47 C49 1_555 1_555
H48 C49 1_555 1_555
H49 C49 1_555 1_555
C50 C47 1_555 1_555
H50 C50 1_555 1_555
H51 C50 1_555 1_555
H52 C50 1_555 1_555
S4 N4 1_555 1_555
O8 S4 1_555 1_555
C4 C6 1_555 1_555
C9 C17 1_555 1_555
C12 C13 1_555 1_555
C18 C20 1_555 1_555
C19 C23 1_555 1_555
C21 C22 1_555 1_555
C29 C32 1_555 1_555
C30 S4 1_555 1_555
C37 C45 1_555 1_555
C38 C41 1_555 1_555
C39 C40 1_555 1_555
C43 C44 1_555 1_555
C47 C48 1_555 1_555

#END
