
#######################################################################
#
#                 Cambridge Crystallographic Data Centre
#                                CCDC 
#
#######################################################################
#
# If this CIF has been generated from an entry in the Cambridge 
# Structural Database, then it will include bibliographic, chemical, 
# crystal, experimental, refinement or atomic coordinate data resulting 
# from the CCDC's data processing and validation procedures.
#
#######################################################################

data_BEDXUF
_chemical_formula_moiety         'C24 H18 Br1 N1 O3'
_chemical_name_systematic        
(16-(4-Bromophenyl)-15-nitrotetracyclo[6.6.2.0^2,7^.0^9,14^]hexadeca-2,4,6,9,11,13-hexaen-1-yl)acetaldehyde
_symmetry_cell_setting           orthorhombic
_symmetry_space_group_name_H-M   'P 21 21 21'
_symmetry_Int_Tables_number      19
_space_group_name_Hall           'P 2ac 2ab'
loop_
_symmetry_equiv_pos_site_id
_symmetry_equiv_pos_as_xyz
1 x,y,z
2 1/2-x,-y,1/2+z
3 1/2+x,1/2-y,-z
4 -x,1/2+y,1/2-z
_cell_length_a                   9.6791(7)
_cell_length_b                   12.9723(10)
_cell_length_c                   15.3276(16)
_cell_angle_alpha                90
_cell_angle_beta                 90
_cell_angle_gamma                90
_cell_volume                     1924.54
_exptl_crystal_colour            colorless
_exptl_crystal_description       block
_cell_formula_units_Z            4
loop_
_atom_site_label
_atom_site_type_symbol
_atom_site_fract_x
_atom_site_fract_y
_atom_site_fract_z
Br1 Br 0.49076(2) 0.943497(16) 0.585411(13)
C1 C 0.5198(2) 0.77654(16) 0.35510(13)
H1 H 0.4605 0.7587 0.3080
C2 C 0.5173(2) 0.56212(16) 0.24510(12)
C3 C 0.7417(2) 0.77125(16) 0.42383(14)
H2 H 0.8355 0.7498 0.4238
O1 O 0.81413(17) 0.84066(13) 0.10184(10)
C4 C 0.7165(2) 0.67781(17) 0.28220(13)
H3 H 0.8185 0.6748 0.2919
C5 C 0.2653(2) 0.5573(2) 0.16044(16)
H4 H 0.1792 0.5542 0.1309
C6 C 0.7438(2) 0.5521(2) 0.12979(14)
N1 N 0.8269(2) 0.77174(15) 0.15612(12)
C7 C 0.5057(3) 0.60286(14) 0.16114(12)
C8 C 0.6934(2) 0.72490(17) 0.19108(13)
H5 H 0.6222 0.7805 0.1957
O2 O 0.93900(16) 0.73757(15) 0.18002(11)
C9 C 0.2761(2) 0.51924(18) 0.24419(17)
H6 H 0.1969 0.4921 0.2727
C10 C 0.5573(2) 0.86202(16) 0.49139(14)
C11 C 0.8350(2) 0.42455(17) 0.22899(14)
H7 H 0.8393 0.3951 0.2857
C12 C 0.6298(2) 0.68646(17) 0.03112(14)
H8 H 0.7241 0.6990 0.0085
H9 H 0.5869 0.6334 -0.0065
C13 C 0.7515(2) 0.50869(18) 0.21322(15)
C14 C 0.8238(2) 0.51200(17) 0.06257(14)
H10 H 0.8210 0.5423 0.0062
C15 C 0.6564(2) 0.74263(16) 0.35484(13)
C16 C 0.9132(2) 0.38293(19) 0.16115(16)
H11 H 0.9699 0.3244 0.1715
C17 C 0.6426(2) 0.64235(17) 0.12287(14)
C18 C 0.3796(2) 0.60039(17) 0.11886(16)
H12 H 0.3709 0.6279 0.0617
C19 C 0.46913(19) 0.83607(15) 0.42329(14)
H13 H 0.3758 0.8587 0.4234
C20 C 0.6629(2) 0.56363(18) 0.28018(13)
H14 H 0.6691 0.5302 0.3388
C21 C 0.4038(2) 0.52057(17) 0.28734(15)
H15 H 0.4123 0.4934 0.3446
O3 O 0.47550(15) 0.82370(11) 0.07598(10)
C22 C 0.5478(2) 0.78498(18) 0.02151(15)
H16 H 0.5541 0.8196 -0.0330
C23 C 0.9086(2) 0.42659(17) 0.07869(16)
H17 H 0.9631 0.3985 0.0330
C24 C 0.6926(2) 0.83056(17) 0.49271(14)
H18 H 0.7516 0.8489 0.5398
loop_
_geom_bond_atom_site_label_1
_geom_bond_atom_site_label_2
_geom_bond_site_symmetry_1
_geom_bond_site_symmetry_2
Br1 C10 1_555 1_555
C1 H1 1_555 1_555
C2 C7 1_555 1_555
C3 H2 1_555 1_555
O1 N1 1_555 1_555
C4 H3 1_555 1_555
C5 H4 1_555 1_555
C6 C13 1_555 1_555
N1 C8 1_555 1_555
C7 C17 1_555 1_555
C8 C4 1_555 1_555
H5 C8 1_555 1_555
O2 N1 1_555 1_555
C9 C5 1_555 1_555
H6 C9 1_555 1_555
C10 C19 1_555 1_555
C11 H7 1_555 1_555
C12 H8 1_555 1_555
H9 C12 1_555 1_555
C13 C11 1_555 1_555
C14 C6 1_555 1_555
H10 C14 1_555 1_555
C15 C1 1_555 1_555
C16 C11 1_555 1_555
H11 C16 1_555 1_555
C17 C6 1_555 1_555
C18 C5 1_555 1_555
H12 C18 1_555 1_555
C19 C1 1_555 1_555
H13 C19 1_555 1_555
C20 C2 1_555 1_555
H14 C20 1_555 1_555
C21 C2 1_555 1_555
H15 C21 1_555 1_555
O3 C22 1_555 1_555
C22 C12 1_555 1_555
H16 C22 1_555 1_555
C23 C14 1_555 1_555
H17 C23 1_555 1_555
C24 C3 1_555 1_555
H18 C24 1_555 1_555
C3 C15 1_555 1_555
C4 C15 1_555 1_555
C4 C20 1_555 1_555
C7 C18 1_555 1_555
C8 C17 1_555 1_555
C9 C21 1_555 1_555
C10 C24 1_555 1_555
C12 C17 1_555 1_555
C13 C20 1_555 1_555
C16 C23 1_555 1_555

#END
