
#######################################################################
#
#                 Cambridge Crystallographic Data Centre
#                                CCDC 
#
#######################################################################
#
# If this CIF has been generated from an entry in the Cambridge 
# Structural Database, then it will include bibliographic, chemical, 
# crystal, experimental, refinement or atomic coordinate data resulting 
# from the CCDC's data processing and validation procedures.
#
#######################################################################

data_BEDZIT02
_chemical_formula_moiety         'C22 H17 N1 O2'
_chemical_name_systematic        
(Z)-1,4-diphenyl-2-phenylamino-2-butene-1,4-dione
_symmetry_cell_setting           monoclinic
_symmetry_space_group_name_H-M   'P 21/n'
_symmetry_Int_Tables_number      14
_space_group_name_Hall           '-P 2yn'
loop_
_symmetry_equiv_pos_site_id
_symmetry_equiv_pos_as_xyz
1 x,y,z
2 1/2+x,1/2-y,1/2+z
3 -x,-y,-z
4 1/2-x,1/2+y,1/2-z
_cell_length_a                   5.9697(18)
_cell_length_b                   13.603(4)
_cell_length_c                   21.260(6)
_cell_angle_alpha                90
_cell_angle_beta                 94.077(7)
_cell_angle_gamma                90
_cell_volume                     1722.07
_exptl_crystal_colour            'bright yellow'
_exptl_crystal_description       prism
_chemical_melting_point          '126-127 deg.C'
_cell_formula_units_Z            4
_exptl_crystal_recrystallization_method ethanol
loop_
_atom_site_label
_atom_site_type_symbol
_atom_site_fract_x
_atom_site_fract_y
_atom_site_fract_z
O1 O 0.44105(17) 0.14836(7) 0.12354(4)
O2 O 0.08269(15) 0.36893(8) 0.26844(4)
N1 N 0.22163(19) 0.17665(8) 0.22651(5)
H1 H 0.2279 0.1434 0.1923
C1 C 0.3438(2) 0.25955(10) 0.23118(6)
C2 C 0.4999(2) 0.28436(11) 0.19002(6)
H2 H 0.5801 0.3424 0.1970
C3 C 0.5467(2) 0.22536(11) 0.13636(6)
C4 C 0.2741(2) 0.33723(10) 0.27687(6)
C5 C 0.0841(2) 0.13846(10) 0.27197(6)
C6 C -0.1163(2) 0.09355(11) 0.25256(7)
H3 H -0.1606 0.0894 0.2098
C7 C -0.2517(3) 0.05470(11) 0.29667(8)
H4 H -0.3864 0.0242 0.2835
C8 C -0.1868(3) 0.06120(12) 0.36002(8)
H5 H -0.2785 0.0361 0.3897
C9 C 0.0128(3) 0.10470(12) 0.37902(7)
H6 H 0.0568 0.1086 0.4218
C10 C 0.1494(3) 0.14278(11) 0.33571(7)
H7 H 0.2858 0.1715 0.3492
C11 C 0.7211(2) 0.25746(10) 0.09429(6)
C12 C 0.8954(2) 0.31923(11) 0.11386(7)
H8 H 0.9036 0.3439 0.1548
C13 C 1.0586(3) 0.34524(13) 0.07381(7)
H9 H 1.1751 0.3871 0.0876
C14 C 1.0466(3) 0.30840(13) 0.01307(7)
H10 H 1.1551 0.3254 -0.0143
C15 C 0.8740(3) 0.24668(13) -0.00665(7)
H11 H 0.8661 0.2217 -0.0475
C16 C 0.7133(3) 0.22151(12) 0.03322(6)
H12 H 0.5972 0.1797 0.0191
C17 C 0.4323(2) 0.37536(10) 0.32745(6)
C18 C 0.3642(2) 0.45336(10) 0.36353(6)
H13 H 0.2218 0.4802 0.3554
C19 C 0.5062(3) 0.49129(12) 0.41129(7)
H14 H 0.4605 0.5441 0.4351
C20 C 0.7161(3) 0.45091(12) 0.42377(7)
H15 H 0.8124 0.4767 0.4559
C21 C 0.7837(2) 0.37311(13) 0.38920(7)
H16 H 0.9253 0.3459 0.3982
C22 C 0.6426(2) 0.33441(11) 0.34083(6)
H17 H 0.6890 0.2813 0.3175
loop_
_geom_bond_atom_site_label_1
_geom_bond_atom_site_label_2
_geom_bond_site_symmetry_1
_geom_bond_site_symmetry_2
O1 C3 1_555 1_555
O2 C4 1_555 1_555
N1 H1 1_555 1_555
C1 N1 1_555 1_555
C2 C1 1_555 1_555
H2 C2 1_555 1_555
C3 C2 1_555 1_555
C4 C1 1_555 1_555
C5 N1 1_555 1_555
C6 C5 1_555 1_555
H3 C6 1_555 1_555
C7 C6 1_555 1_555
H4 C7 1_555 1_555
C8 C7 1_555 1_555
H5 C8 1_555 1_555
C9 C8 1_555 1_555
H6 C9 1_555 1_555
C10 C5 1_555 1_555
H7 C10 1_555 1_555
C11 C3 1_555 1_555
C12 C11 1_555 1_555
H8 C12 1_555 1_555
C13 C12 1_555 1_555
H9 C13 1_555 1_555
C14 C13 1_555 1_555
H10 C14 1_555 1_555
C15 C14 1_555 1_555
H11 C15 1_555 1_555
C16 C11 1_555 1_555
H12 C16 1_555 1_555
C17 C4 1_555 1_555
C18 C17 1_555 1_555
H13 C18 1_555 1_555
C19 C18 1_555 1_555
H14 C19 1_555 1_555
C20 C19 1_555 1_555
H15 C20 1_555 1_555
C21 C20 1_555 1_555
H16 C21 1_555 1_555
C22 C17 1_555 1_555
H17 C22 1_555 1_555
C9 C10 1_555 1_555
C15 C16 1_555 1_555
C21 C22 1_555 1_555

#END
