
#######################################################################
#
#                 Cambridge Crystallographic Data Centre
#                                CCDC 
#
#######################################################################
#
# If this CIF has been generated from an entry in the Cambridge 
# Structural Database, then it will include bibliographic, chemical, 
# crystal, experimental, refinement or atomic coordinate data resulting 
# from the CCDC's data processing and validation procedures.
#
#######################################################################

data_BEDZES
_chemical_formula_moiety         'C22 H26 O4'
_chemical_name_systematic        
17-hydroxy-16-methyl-9,11-epoxypregna-1,4,6-triene-3,20-dione
_symmetry_cell_setting           orthorhombic
_symmetry_space_group_name_H-M   'P 21 21 21'
_symmetry_Int_Tables_number      19
_space_group_name_Hall           'P 2ac 2ab'
loop_
_symmetry_equiv_pos_site_id
_symmetry_equiv_pos_as_xyz
1 x,y,z
2 1/2-x,-y,1/2+z
3 -x,1/2+y,1/2-z
4 1/2+x,1/2-y,-z
_cell_length_a                   8.26215(13)
_cell_length_b                   12.27870(19)
_cell_length_c                   18.4797(3)
_cell_angle_alpha                90
_cell_angle_beta                 90
_cell_angle_gamma                90
_cell_volume                     1874.74
_exptl_crystal_colour            colorless
_cell_formula_units_Z            4
_exptl_crystal_recrystallization_method methanol
loop_
_atom_site_label
_atom_site_type_symbol
_atom_site_fract_x
_atom_site_fract_y
_atom_site_fract_z
O1 O 0.8531(3) 0.5247(2) 0.65119(15)
H1 H 0.8229 0.4640 0.6638
O2 O 0.3504(4) 0.6226(2) 0.50292(18)
O3 O 0.3113(6) 0.1962(3) 0.3199(2)
O4 O 0.7872(6) 0.7851(3) 0.7173(2)
C1 C 0.5031(5) 0.5666(3) 0.4936(2)
H2 H 0.5330 0.5500 0.4435
C2 C 0.5930(4) 0.6127(3) 0.6212(2)
C3 C 0.2443(5) 0.4438(3) 0.4701(2)
C4 C 0.7401(5) 0.6035(3) 0.6750(2)
C5 C 0.3569(4) 0.5089(3) 0.52143(19)
C6 C 0.5075(4) 0.5050(3) 0.63984(19)
H3 H 0.5821 0.4481 0.6234
C7 C 0.2893(5) 0.4621(3) 0.3926(2)
H4 H 0.3042 0.5334 0.3771
C8 C 0.8363(6) 0.7107(3) 0.6816(2)
C9 C 0.6387(5) 0.6071(3) 0.54093(19)
H5 H 0.6707 0.6790 0.5247
H6 H 0.7312 0.5592 0.5354
C10 C 0.3092(5) 0.3832(4) 0.3447(2)
H7 H 0.3318 0.4011 0.2968
C11 C 0.2665(6) 0.2467(3) 0.4405(2)
H8 H 0.2634 0.1745 0.4557
C12 C 0.2964(5) 0.2690(3) 0.3652(2)
C13 C 0.2431(5) 0.3253(4) 0.4898(2)
C14 C 0.9894(6) 0.7209(4) 0.6397(3)
H9 H 1.0272 0.7948 0.6420
H10 H 0.9700 0.7013 0.5902
H11 H 1.0697 0.6733 0.6599
C15 C 0.3486(5) 0.4796(4) 0.6024(2)
H12 H 0.2606 0.5203 0.6255
C16 C 0.4890(6) 0.7140(4) 0.6381(3)
H13 H 0.4526 0.7108 0.6874
H14 H 0.3972 0.7157 0.6063
H15 H 0.5527 0.7786 0.6311
C17 C 0.5117(6) 0.4981(5) 0.7230(2)
H16 H 0.5284 0.4236 0.7386
H17 H 0.4111 0.5247 0.7435
C18 C 0.6550(5) 0.5710(4) 0.7462(2)
H18 H 0.6101 0.6373 0.7678
C19 C 0.0712(5) 0.4896(5) 0.4801(3)
H19 H 0.0444 0.4907 0.5306
H20 H -0.0045 0.4443 0.4546
H21 H 0.0664 0.5623 0.4611
C20 C 0.7646(7) 0.5174(6) 0.8027(2)
H22 H 0.8131 0.4532 0.7824
H23 H 0.7015 0.4978 0.8443
H24 H 0.8479 0.5676 0.8168
C21 C 0.3216(9) 0.3533(5) 0.6137(3)
H25 H 0.3773 0.3151 0.6493
C22 C 0.2097(10) 0.3005(5) 0.5675(3)
H26 H 0.1260 0.2559 0.5836
loop_
_geom_bond_atom_site_label_1
_geom_bond_atom_site_label_2
_geom_bond_site_symmetry_1
_geom_bond_site_symmetry_2
O1 H1 1_555 1_555
O2 C1 1_555 1_555
O3 C12 1_555 1_555
O4 C8 1_555 1_555
C1 H2 1_555 1_555
C2 C4 1_555 1_555
C3 C5 1_555 1_555
C4 O1 1_555 1_555
C5 O2 1_555 1_555
C6 C2 1_555 1_555
H3 C6 1_555 1_555
C7 C3 1_555 1_555
H4 C7 1_555 1_555
C8 C4 1_555 1_555
C9 C1 1_555 1_555
H5 C9 1_555 1_555
H6 C9 1_555 1_555
C10 C7 1_555 1_555
H7 C10 1_555 1_555
C11 H8 1_555 1_555
C12 C10 1_555 1_555
C13 C3 1_555 1_555
C14 C8 1_555 1_555
H9 C14 1_555 1_555
H10 C14 1_555 1_555
H11 C14 1_555 1_555
C15 C5 1_555 1_555
H12 C15 1_555 1_555
C16 C2 1_555 1_555
H13 C16 1_555 1_555
H14 C16 1_555 1_555
H15 C16 1_555 1_555
C17 C6 1_555 1_555
H16 C17 1_555 1_555
H17 C17 1_555 1_555
C18 C4 1_555 1_555
H18 C18 1_555 1_555
C19 C3 1_555 1_555
H19 C19 1_555 1_555
H20 C19 1_555 1_555
H21 C19 1_555 1_555
C20 C18 1_555 1_555
H22 C20 1_555 1_555
H23 C20 1_555 1_555
H24 C20 1_555 1_555
C21 C15 1_555 1_555
H25 C21 1_555 1_555
C22 C13 1_555 1_555
H26 C22 1_555 1_555
C1 C5 1_555 1_555
C2 C9 1_555 1_555
C6 C15 1_555 1_555
C11 C12 1_555 1_555
C11 C13 1_555 1_555
C17 C18 1_555 1_555
C21 C22 1_555 1_555

#END
