
#######################################################################
#
#                 Cambridge Crystallographic Data Centre
#                                CCDC 
#
#######################################################################
#
# If this CIF has been generated from an entry in the Cambridge 
# Structural Database, then it will include bibliographic, chemical, 
# crystal, experimental, refinement or atomic coordinate data resulting 
# from the CCDC's data processing and validation procedures.
#
#######################################################################

data_BEFDOG
_chemical_formula_moiety         'C49 H74 O37,8(H2 O1)'
_chemical_name_systematic        
'6-O-(4-Hydroxybenzoylphenyl)-\b-D-cyclodextrin octahydrate'
_symmetry_cell_setting           monoclinic
_symmetry_space_group_name_H-M   'C 2'
_symmetry_Int_Tables_number      5
_space_group_name_Hall           'C 2y'
loop_
_symmetry_equiv_pos_site_id
_symmetry_equiv_pos_as_xyz
1 x,y,z
2 -x,y,-z
3 1/2+x,1/2+y,z
4 1/2-x,1/2+y,-z
_cell_length_a                   19.21(2)
_cell_length_b                   24.62(3)
_cell_length_c                   15.707(19)
_cell_angle_alpha                90
_cell_angle_beta                 109.97(3)
_cell_angle_gamma                90
_cell_volume                     6981.96
_cell_formula_units_Z            4
loop_
_atom_site_label
_atom_site_type_symbol
_atom_site_fract_x
_atom_site_fract_y
_atom_site_fract_z
O1 O 0.5994(17) -0.0150(11) 0.509(2)
O2 O 0.4932(10) -0.1673(10) 0.1735(12)
H1 H 0.5177 -0.1931 0.1667
C1 C 0.6306(8) -0.3334(5) 0.7785(11)
H2 H 0.6240 -0.3726 0.7682
C2 C 0.7931(8) -0.1556(7) 0.8169(12)
H3 H 0.8297 -0.1835 0.8174
C3 C 0.7137(8) 0.0515(5) 0.8123(9)
H4 H 0.7663 0.0567 0.8218
C4 C 0.4366(9) 0.1219(6) 0.7388(10)
H5 H 0.4611 0.1565 0.7367
C5 C 0.1853(8) 0.0137(6) 0.6779(10)
H6 H 0.1670 0.0507 0.6609
C6 C 0.1389(7) -0.1979(5) 0.6915(10)
H7 H 0.0873 -0.1865 0.6769
C7 C 0.3415(8) -0.3488(6) 0.7261(9)
H8 H 0.2959 -0.3705 0.7089
C8 C 0.6913(7) -0.3239(5) 0.8713(9)
H9 H 0.7372 -0.3402 0.8690
O11 O 0.6744(5) -0.3491(4) 0.9431(7)
H10 H 0.6293 -0.3514 0.9296
C9 C 0.8229(10) -0.1218(7) 0.9034(11)
H11 H 0.8691 -0.1053 0.9025
O12 O 0.8425(7) -0.1546(4) 0.9825(8)
H12 H 0.8170 -0.1822 0.9719
C10 C 0.6965(8) 0.0780(5) 0.8886(9)
H13 H 0.7055 0.1170 0.8848
O13 O 0.7430(5) 0.0607(4) 0.9739(6)
H14 H 0.7581 0.0300 0.9699
C11 C 0.4001(8) 0.1262(5) 0.8082(10)
H15 H 0.3662 0.1573 0.7923
O14 O 0.4538(6) 0.1363(4) 0.8955(6)
H16 H 0.4934 0.1227 0.8983
C12 C 0.1534(9) -0.0067(5) 0.7503(10)
H17 H 0.0992 -0.0057 0.7245
O15 O 0.1764(5) 0.0264(4) 0.8288(7)
H18 H 0.2168 0.0399 0.8347
C13 C 0.1594(9) -0.2339(6) 0.7723(9)
H19 H 0.1270 -0.2658 0.7576
O16 O 0.1453(6) -0.2039(4) 0.8448(6)
H20 H 0.1462 -0.1712 0.8353
C14 C 0.3957(9) -0.3727(7) 0.8148(10)
H21 H 0.4059 -0.4107 0.8046
O17 O 0.3658(5) -0.3700(4) 0.8878(6)
H22 H 0.3346 -0.3459 0.8773
C15 C 0.7048(8) -0.2617(5) 0.8868(8)
H23 H 0.6600 -0.2442 0.8901
O18 O 0.7647(5) -0.2524(4) 0.9683(6)
H24 H 0.7540 -0.2640 1.0113
C16 C 0.7722(9) -0.0759(6) 0.9030(11)
H25 H 0.7255 -0.0909 0.9049
O19 O 0.8042(7) -0.0422(4) 0.9821(7)
H26 H 0.7833 -0.0126 0.9739
C17 C 0.6156(8) 0.0716(6) 0.8745(9)
H27 H 0.6049 0.0328 0.8775
O20 O 0.5985(5) 0.0997(4) 0.9466(6)
H28 H 0.5550 0.1093 0.9280
C18 C 0.3550(8) 0.0759(6) 0.8078(9)
H29 H 0.3887 0.0448 0.8262
O21 O 0.3160(5) 0.0815(4) 0.8710(6)
H30 H 0.2769 0.0646 0.8524
C19 C 0.1780(8) -0.0653(5) 0.7733(9)
H31 H 0.2321 -0.0669 0.8005
O22 O 0.1456(6) -0.0854(3) 0.8342(6)
H32 H 0.1473 -0.1187 0.8346
C20 C 0.2367(9) -0.2526(5) 0.7977(8)
H33 H 0.2698 -0.2211 0.8136
O23 O 0.2553(6) -0.2883(4) 0.8711(6)
H34 H 0.2474 -0.2737 0.9138
C21 C 0.4700(8) -0.3391(6) 0.8398(9)
H35 H 0.4606 -0.3011 0.8506
O24 O 0.5210(5) -0.3628(4) 0.9216(6)
H36 H 0.5636 -0.3571 0.9238
C22 C 0.7227(8) -0.2395(6) 0.8077(10)
H37 H 0.7704 -0.2539 0.8083
O25 O 0.7273(5) -0.1814(3) 0.8177(6)
C23 C 0.7556(9) -0.0431(6) 0.8142(11)
H38 H 0.8004 -0.0235 0.8156
O26 O 0.7001(5) -0.0047(4) 0.8156(6)
C24 C 0.5674(7) 0.0934(6) 0.7813(7)
H39 H 0.5720 0.1331 0.7807
O27 O 0.4930(5) 0.0795(4) 0.7654(6)
C25 C 0.3008(8) 0.0652(5) 0.7154(9)
H40 H 0.2646 0.0948 0.6985
O28 O 0.2639(5) 0.0162(3) 0.7174(6)
C26 C 0.1523(9) -0.0970(5) 0.6837(9)
H41 H 0.0981 -0.0987 0.6579
O29 O 0.1846(5) -0.1516(4) 0.7106(6)
C27 C 0.2474(8) -0.2813(5) 0.7199(9)
H42 H 0.2168 -0.3142 0.7063
O30 O 0.3231(5) -0.2957(4) 0.7389(5)
C28 C 0.4987(8) -0.3429(6) 0.7601(9)
H43 H 0.5112 -0.3807 0.7520
O31 O 0.5630(5) -0.3108(3) 0.7839(6)
C29 C 0.6639(9) -0.2517(6) 0.7181(10)
H44 H 0.6183 -0.2325 0.7146
O32 O 0.6490(6) -0.3115(5) 0.7107(6)
C30 C 0.7298(9) -0.0779(6) 0.7308(9)
H45 H 0.6810 -0.0931 0.7244
O33 O 0.7799(7) -0.1210(4) 0.7366(7)
C31 C 0.5895(8) 0.0702(6) 0.7091(9)
H46 H 0.5759 0.0317 0.7036
O34 O 0.6721(5) 0.0740(3) 0.7287(6)
C32 C 0.3438(10) 0.0631(7) 0.6463(9)
H47 H 0.3770 0.0316 0.6600
O35 O 0.3861(6) 0.1112(4) 0.6524(7)
C33 C 0.1845(9) -0.0721(6) 0.6194(10)
H48 H 0.2386 -0.0721 0.6462
O36 O 0.1590(6) -0.0185(4) 0.6015(7)
C34 C 0.2245(8) -0.2431(6) 0.6326(9)
H49 H 0.2574 -0.2115 0.6426
O37 O 0.1463(5) -0.2258(4) 0.6148(7)
C35 C 0.4418(8) -0.3230(7) 0.6757(8)
H50 H 0.4313 -0.2846 0.6820
O38 O 0.3736(5) -0.3554(4) 0.6571(6)
C36 C 0.6873(12) -0.2346(11) 0.6356(15)
H51 H 0.6474 -0.2407 0.5788
H52 H 0.7014 -0.1966 0.6397
O39 O 0.7554(15) -0.2721(10) 0.6437(12)
H53 H 0.7708 -0.2654 0.6022
C37 C 0.7236(12) -0.0452(7) 0.6525(10)
H54 H 0.6930 -0.0136 0.6509
H55 H 0.7723 -0.0328 0.6553
O40 O 0.6900(11) -0.0786(6) 0.5706(11)
C38 C 0.5569(9) 0.0960(7) 0.6152(9)
H56 H 0.5042 0.0885 0.5906
H57 H 0.5799 0.0799 0.5750
O41 O 0.5683(5) 0.1524(4) 0.6189(6)
H58 H 0.5984 0.1600 0.5943
C39 C 0.2921(13) 0.0586(10) 0.5543(12)
H59 H 0.2643 0.0252 0.5494
H60 H 0.3203 0.0556 0.5137
O42 O 0.2436(9) 0.1000(8) 0.5256(9)
H61 H 0.2634 0.1251 0.5081
C40 C 0.1613(17) -0.1013(10) 0.5303(18)
H62 H 0.1794 -0.1384 0.5396
H63 H 0.1828 -0.0836 0.4900
O43 O 0.0859(12) -0.1015(7) 0.4916(11)
H64 H 0.0740 -0.1175 0.4429
C41 C 0.2235(8) -0.2748(6) 0.5473(9)
H65 H 0.2733 -0.2868 0.5547
H66 H 0.2072 -0.2509 0.4951
O44 O 0.1745(6) -0.3217(4) 0.5313(7)
H67 H 0.1498 -0.3201 0.5647
C42 C 0.4649(10) -0.3312(8) 0.5946(12)
H68 H 0.5062 -0.3071 0.6001
H69 H 0.4242 -0.3202 0.5411
O45 O 0.4854(8) -0.3838(6) 0.5811(8)
H70 H 0.4958 -0.3848 0.5346
C43 C 0.632(2) -0.0593(13) 0.508(3)
C44 C 0.5848(12) -0.0928(7) 0.4243(12)
C45 C 0.6216(10) -0.1370(7) 0.4045(12)
H71 H 0.6639 -0.1507 0.4483
C46 C 0.5952(11) -0.1608(7) 0.3192(14)
H72 H 0.6199 -0.1904 0.3059
C47 C 0.5321(12) -0.1404(9) 0.2536(11)
C48 C 0.4952(10) -0.0962(10) 0.2734(15)
H73 H 0.4529 -0.0825 0.2296
C49 C 0.5216(11) -0.0724(8) 0.3587(17)
H74 H 0.4969 -0.0428 0.3720
O3 O 0.3898(11) -0.4653(7) 0.5840(14)
O4 O 0.5000 -0.0108(14) 0.0000
O5 O 0.0587(12) -0.9706(8) 0.9039(17)
O6 O 0.0475(12) -0.1233(8) 0.2995(13)
O7 O 0.8964(12) -0.2287(9) 0.6988(13)
O8 O 0.9213(12) -0.0109(9) 0.7464(16)
O9 O 0.4617(8) -0.7686(6) 0.5847(9)
O10 O 0.4077(9) -0.7812(6) -0.0208(13)
loop_
_geom_bond_atom_site_label_1
_geom_bond_atom_site_label_2
_geom_bond_site_symmetry_1
_geom_bond_site_symmetry_2
O1 C43 1_555 1_555
O2 H1 1_555 1_555
C1 H2 1_555 1_555
C2 H3 1_555 1_555
C3 H4 1_555 1_555
C4 H5 1_555 1_555
C5 H6 1_555 1_555
C6 H7 1_555 1_555
C7 H8 1_555 1_555
C8 C1 1_555 1_555
H9 C8 1_555 1_555
O11 C8 1_555 1_555
H10 O11 1_555 1_555
C9 C2 1_555 1_555
H11 C9 1_555 1_555
O12 C9 1_555 1_555
H12 O12 1_555 1_555
C10 C3 1_555 1_555
H13 C10 1_555 1_555
O13 C10 1_555 1_555
H14 O13 1_555 1_555
C11 C4 1_555 1_555
H15 C11 1_555 1_555
O14 C11 1_555 1_555
H16 O14 1_555 1_555
C12 C5 1_555 1_555
H17 C12 1_555 1_555
O15 C12 1_555 1_555
H18 O15 1_555 1_555
C13 C6 1_555 1_555
H19 C13 1_555 1_555
O16 C13 1_555 1_555
H20 O16 1_555 1_555
C14 C7 1_555 1_555
H21 C14 1_555 1_555
O17 C14 1_555 1_555
H22 O17 1_555 1_555
C15 C8 1_555 1_555
H23 C15 1_555 1_555
O18 C15 1_555 1_555
H24 O18 1_555 1_555
C16 C9 1_555 1_555
H25 C16 1_555 1_555
O19 C16 1_555 1_555
H26 O19 1_555 1_555
C17 C10 1_555 1_555
H27 C17 1_555 1_555
O20 C17 1_555 1_555
H28 O20 1_555 1_555
C18 C11 1_555 1_555
H29 C18 1_555 1_555
O21 C18 1_555 1_555
H30 O21 1_555 1_555
C19 C12 1_555 1_555
H31 C19 1_555 1_555
O22 C19 1_555 1_555
H32 O22 1_555 1_555
C20 C13 1_555 1_555
H33 C20 1_555 1_555
O23 C20 1_555 1_555
H34 O23 1_555 1_555
C21 C14 1_555 1_555
H35 C21 1_555 1_555
O24 C21 1_555 1_555
H36 O24 1_555 1_555
C22 C15 1_555 1_555
H37 C22 1_555 1_555
O25 C2 1_555 1_555
C23 C16 1_555 1_555
H38 C23 1_555 1_555
O26 C3 1_555 1_555
C24 C17 1_555 1_555
H39 C24 1_555 1_555
O27 C4 1_555 1_555
C25 C18 1_555 1_555
H40 C25 1_555 1_555
O28 C5 1_555 1_555
C26 C19 1_555 1_555
H41 C26 1_555 1_555
O29 C6 1_555 1_555
C27 C20 1_555 1_555
H42 C27 1_555 1_555
O30 C7 1_555 1_555
C28 C21 1_555 1_555
H43 C28 1_555 1_555
O31 C1 1_555 1_555
C29 C22 1_555 1_555
H44 C29 1_555 1_555
O32 C1 1_555 1_555
C30 C23 1_555 1_555
H45 C30 1_555 1_555
O33 C2 1_555 1_555
C31 C24 1_555 1_555
H46 C31 1_555 1_555
O34 C3 1_555 1_555
C32 C25 1_555 1_555
H47 C32 1_555 1_555
O35 C4 1_555 1_555
C33 C26 1_555 1_555
H48 C33 1_555 1_555
O36 C5 1_555 1_555
C34 C27 1_555 1_555
H49 C34 1_555 1_555
O37 C6 1_555 1_555
C35 C28 1_555 1_555
H50 C35 1_555 1_555
O38 C7 1_555 1_555
C36 C29 1_555 1_555
H51 C36 1_555 1_555
H52 C36 1_555 1_555
O39 C36 1_555 1_555
H53 O39 1_555 1_555
C37 C30 1_555 1_555
H54 C37 1_555 1_555
H55 C37 1_555 1_555
O40 C37 1_555 1_555
C38 C31 1_555 1_555
H56 C38 1_555 1_555
H57 C38 1_555 1_555
O41 C38 1_555 1_555
H58 O41 1_555 1_555
C39 C32 1_555 1_555
H59 C39 1_555 1_555
H60 C39 1_555 1_555
O42 C39 1_555 1_555
H61 O42 1_555 1_555
C40 C33 1_555 1_555
H62 C40 1_555 1_555
H63 C40 1_555 1_555
O43 C40 1_555 1_555
H64 O43 1_555 1_555
C41 C34 1_555 1_555
H65 C41 1_555 1_555
H66 C41 1_555 1_555
O44 C41 1_555 1_555
H67 O44 1_555 1_555
C42 C35 1_555 1_555
H68 C42 1_555 1_555
H69 C42 1_555 1_555
O45 C42 1_555 1_555
H70 O45 1_555 1_555
C43 O40 1_555 1_555
C44 C43 1_555 1_555
C45 C44 1_555 1_555
H71 C45 1_555 1_555
C46 C45 1_555 1_555
H72 C46 1_555 1_555
C47 O2 1_555 1_555
C48 C47 1_555 1_555
H73 C48 1_555 1_555
C49 C44 1_555 1_555
H74 C49 1_555 1_555
C22 O25 1_555 1_555
C23 O26 1_555 1_555
C24 O27 1_555 1_555
C25 O28 1_555 1_555
C26 O29 1_555 1_555
C27 O30 1_555 1_555
C28 O31 1_555 1_555
C29 O32 1_555 1_555
C30 O33 1_555 1_555
C31 O34 1_555 1_555
C32 O35 1_555 1_555
C33 O36 1_555 1_555
C34 O37 1_555 1_555
C35 O38 1_555 1_555
C46 C47 1_555 1_555
C48 C49 1_555 1_555

#END
