
#######################################################################
#
#                 Cambridge Crystallographic Data Centre
#                                CCDC 
#
#######################################################################
#
# If this CIF has been generated from an entry in the Cambridge 
# Structural Database, then it will include bibliographic, chemical, 
# crystal, experimental, refinement or atomic coordinate data resulting 
# from the CCDC's data processing and validation procedures.
#
#######################################################################

data_BEFDIC
_chemical_compound_source        'saline soil-derived Penicillium raistrickii'
_chemical_name_common            'penicipyran E'
_chemical_formula_moiety         'C15 H16 O4'
_chemical_name_systematic        
(Z)-2,4-dihydroxy-3-methyl-6-(((S)-6-methyl-5,6-dihydro-2H-pyran-2-ylidene)methyl)benzaldehyde
_chemical_properties_biological  'cytotoxic activity'
_symmetry_cell_setting           triclinic
_symmetry_space_group_name_H-M   'P 1'
_symmetry_Int_Tables_number      1
_space_group_name_Hall           'P 1'
loop_
_symmetry_equiv_pos_site_id
_symmetry_equiv_pos_as_xyz
1 x,y,z
_cell_length_a                   8.5057(5)
_cell_length_b                   8.5593(5)
_cell_length_c                   9.4977(5)
_cell_angle_alpha                102.001(3)
_cell_angle_beta                 101.812(3)
_cell_angle_gamma                97.7165(17)
_cell_volume                     650.635
_exptl_crystal_colour            yellow
_exptl_crystal_description       needles
_chemical_melting_point          '168-170 deg.C'
_cell_formula_units_Z            2
loop_
_atom_site_label
_atom_site_type_symbol
_atom_site_fract_x
_atom_site_fract_y
_atom_site_fract_z
O1 O 0.7899(4) 0.6765(3) 0.6596(4)
O2 O 0.9800(3) 0.5573(3) 0.8364(3)
H1 H 0.9421 0.6275 0.8006
O3 O 0.9018(3) -0.0035(3) 0.7799(3)
H2 H 0.8418 -0.0875 0.7278
O4 O 0.4614(3) -0.0732(3) 0.3552(2)
C1 C 0.7187(5) 0.5366(4) 0.5980(4)
H3 H 0.6314 0.5227 0.5166
C2 C 0.7587(4) 0.3932(4) 0.6407(4)
C3 C 0.8927(4) 0.4104(4) 0.7615(4)
C4 C 0.9424(4) 0.2765(4) 0.8099(4)
C5 C 0.8535(4) 0.1263(4) 0.7327(4)
C6 C 0.7194(4) 0.1019(4) 0.6108(4)
H4 H 0.6639 -0.0029 0.5624
C7 C 0.6700(4) 0.2339(4) 0.5625(4)
C8 C 0.5315(4) 0.2128(4) 0.4363(4)
H5 H 0.5013 0.3091 0.4197
C9 C 0.4399(4) 0.0765(4) 0.3396(3)
C10 C 0.3052(5) 0.0874(5) 0.2193(4)
H6 H 0.2934 0.1883 0.2010
C11 C 0.1999(4) -0.0450(5) 0.1361(4)
H7 H 0.1116 -0.0347 0.0649
C12 C 0.2221(4) -0.2080(4) 0.1560(4)
H8 H 0.1875 -0.2861 0.0605
H9 H 0.1541 -0.2406 0.2192
C13 C 0.3986(4) -0.2085(4) 0.2247(3)
H10 H 0.4630 -0.1956 0.1518
C14 C 0.4258(6) -0.3599(5) 0.2741(5)
H11 H 0.5392 -0.3496 0.3209
H12 H 0.3945 -0.4514 0.1898
H13 H 0.3609 -0.3758 0.3435
C15 C 1.0859(5) 0.2998(5) 0.9386(5)
H14 H 1.1481 0.4077 0.9592
H15 H 1.1536 0.2219 0.9149
H16 H 1.0479 0.2848 1.0242
O5 O -0.1301(4) -0.0751(3) 0.2809(4)
O6 O -0.3058(3) 0.0413(3) 0.0919(3)
H17 H -0.2687 -0.0281 0.1294
O7 O -0.2320(3) 0.6022(3) 0.1525(3)
H18 H -0.1755 0.6871 0.2066
O8 O 0.1982(3) 0.6727(3) 0.5850(3)
C16 C -0.0617(4) 0.0648(4) 0.3455(4)
H19 H 0.0170 0.0792 0.4333
C17 C -0.0936(4) 0.2082(4) 0.2964(4)
C18 C -0.2226(4) 0.1900(4) 0.1699(4)
C19 C -0.2711(4) 0.3215(5) 0.1207(4)
C20 C -0.1849(4) 0.4752(4) 0.2019(4)
C21 C -0.0560(4) 0.4980(4) 0.3256(4)
H20 H -0.0025 0.6029 0.3758
C22 C -0.0056(3) 0.3668(3) 0.3753(3)
C23 C 0.1327(4) 0.3876(4) 0.5014(4)
H21 H 0.1596 0.2908 0.5201
C24 C 0.2276(4) 0.5216(4) 0.5948(4)
C25 C 0.3592(5) 0.5145(5) 0.7159(5)
H22 H 0.3878 0.4142 0.7201
C26 C 0.4402(5) 0.6431(5) 0.8202(4)
H23 H 0.5193 0.6311 0.8988
C27 C 0.4052(6) 0.8095(5) 0.8129(4)
H24 H 0.5055 0.8894 0.8511
H25 H 0.3294 0.8383 0.8733
C28 C 0.3321(4) 0.8088(3) 0.6531(3)
H26 H 0.4172 0.7991 0.5978
C29 C 0.2642(5) 0.9575(5) 0.6351(5)
H27 H 0.2136 0.9458 0.5325
H28 H 0.3510 1.0506 0.6684
H29 H 0.1845 0.9717 0.6928
C30 C -0.4111(5) 0.2973(5) -0.0118(5)
H30 H -0.3842 0.2376 -0.0982
H31 H -0.4317 0.4011 -0.0261
H32 H -0.5070 0.2376 0.0044
loop_
_geom_bond_atom_site_label_1
_geom_bond_atom_site_label_2
_geom_bond_site_symmetry_1
_geom_bond_site_symmetry_2
O1 C1 1_555 1_555
O2 H1 1_555 1_555
O3 H2 1_555 1_555
O4 C9 1_555 1_555
C1 H3 1_555 1_555
C2 C1 1_555 1_555
C3 O2 1_555 1_555
C4 C3 1_555 1_555
C5 O3 1_555 1_555
C6 C5 1_555 1_555
H4 C6 1_555 1_555
C7 C2 1_555 1_555
C8 C7 1_555 1_555
H5 C8 1_555 1_555
C9 C8 1_555 1_555
C10 C9 1_555 1_555
H6 C10 1_555 1_555
C11 C10 1_555 1_555
H7 C11 1_555 1_555
C12 C11 1_555 1_555
H8 C12 1_555 1_555
H9 C12 1_555 1_555
C13 O4 1_555 1_555
H10 C13 1_555 1_555
C14 C13 1_555 1_555
H11 C14 1_555 1_555
H12 C14 1_555 1_555
H13 C14 1_555 1_555
C15 C4 1_555 1_555
H14 C15 1_555 1_555
H15 C15 1_555 1_555
H16 C15 1_555 1_555
O5 C16 1_555 1_555
O6 H17 1_555 1_555
O7 H18 1_555 1_555
O8 C24 1_555 1_555
C16 H19 1_555 1_555
C17 C16 1_555 1_555
C18 O6 1_555 1_555
C19 C18 1_555 1_555
C20 O7 1_555 1_555
C21 C20 1_555 1_555
H20 C21 1_555 1_555
C22 C17 1_555 1_555
C23 C22 1_555 1_555
H21 C23 1_555 1_555
C24 C23 1_555 1_555
C25 C24 1_555 1_555
H22 C25 1_555 1_555
C26 C25 1_555 1_555
H23 C26 1_555 1_555
C27 C26 1_555 1_555
H24 C27 1_555 1_555
H25 C27 1_555 1_555
C28 O8 1_555 1_555
H26 C28 1_555 1_555
C29 C28 1_555 1_555
H27 C29 1_555 1_555
H28 C29 1_555 1_555
H29 C29 1_555 1_555
C30 C19 1_555 1_555
H30 C30 1_555 1_555
H31 C30 1_555 1_555
H32 C30 1_555 1_555
C2 C3 1_555 1_555
C4 C5 1_555 1_555
C6 C7 1_555 1_555
C12 C13 1_555 1_555
C17 C18 1_555 1_555
C19 C20 1_555 1_555
C21 C22 1_555 1_555
C27 C28 1_555 1_555

#END
