
#######################################################################
#
#                 Cambridge Crystallographic Data Centre
#                                CCDC 
#
#######################################################################
#
# If this CIF has been generated from an entry in the Cambridge 
# Structural Database, then it will include bibliographic, chemical, 
# crystal, experimental, refinement or atomic coordinate data resulting 
# from the CCDC's data processing and validation procedures.
#
#######################################################################

data_BEFFEX02
_chemical_name_common            gene892
_chemical_formula_moiety         'C23 H22 O1'
_chemical_name_systematic        
1,1'-[1-(4-methoxyphenyl)but-1-ene-1,2-diyl]dibenzene
_symmetry_cell_setting           triclinic
_symmetry_space_group_name_H-M   'P -1'
_symmetry_Int_Tables_number      2
_space_group_name_Hall           '-P 1'
loop_
_symmetry_equiv_pos_site_id
_symmetry_equiv_pos_as_xyz
1 x,y,z
2 -x,-y,-z
_cell_length_a                   9.5989(13)
_cell_length_b                   9.9930(13)
_cell_length_c                   10.2627(14)
_cell_angle_alpha                78.416(2)
_cell_angle_beta                 65.919(2)
_cell_angle_gamma                75.486(2)
_cell_volume                     864.635
_exptl_crystal_colour            colorless
_exptl_crystal_description       plate
_cell_formula_units_Z            2
loop_
_atom_site_label
_atom_site_type_symbol
_atom_site_fract_x
_atom_site_fract_y
_atom_site_fract_z
C1 C 0.6722(2) 0.68050(19) 0.3238(2)
C2 C 0.5450(2) 0.76146(19) 0.3064(2)
C3 C 0.4681(2) 0.8997(2) 0.3660(2)
H1 H 0.516194 0.911835 0.430696
H2 H 0.356810 0.898322 0.423985
C4 C 0.4810(3) 1.0237(2) 0.2501(2)
H3 H 0.590700 1.028862 0.195401
H4 H 0.426467 1.109519 0.295216
H5 H 0.433971 1.012379 0.185198
C5 C 0.4648(2) 0.72238(19) 0.2250(2)
C6 C 0.5403(2) 0.7021(2) 0.0799(2)
H6 H 0.646619 0.709414 0.031881
C7 C 0.4630(2) 0.6718(2) 0.0052(2)
H7 H 0.516131 0.658671 -0.093546
C8 C 0.3080(2) 0.6603(2) 0.0736(2)
H8 H 0.255102 0.638468 0.022355
C9 C 0.2312(2) 0.6808(2) 0.2165(2)
H9 H 0.124934 0.672979 0.263822
C10 C 0.3081(2) 0.7127(2) 0.2916(2)
H10 H 0.253434 0.728207 0.389615
C11 C 0.7567(2) 0.7228(2) 0.3991(2)
C12 C 0.8086(2) 0.8488(2) 0.3617(2)
H11 H 0.790053 0.911890 0.285283
C13 C 0.8869(2) 0.8838(2) 0.4337(2)
H12 H 0.921122 0.970277 0.406660
C14 C 0.9153(2) 0.7928(2) 0.5454(2)
H13 H 0.967815 0.816941 0.595761
C15 C 0.8663(2) 0.6663(2) 0.5828(2)
H14 H 0.885798 0.603358 0.658816
C16 C 0.7893(2) 0.6314(2) 0.5101(2)
H15 H 0.757936 0.543696 0.535919
C17 C 0.7377(2) 0.53698(19) 0.2770(2)
C18 C 0.8950(2) 0.4993(2) 0.1980(2)
H16 H 0.959544 0.566136 0.172013
C19 C 0.9615(2) 0.36633(19) 0.1556(2)
H17 H 1.069367 0.343762 0.099657
C20 C 0.8688(2) 0.26768(19) 0.1958(2)
C21 C 0.7106(2) 0.3019(2) 0.2778(2)
H18 H 0.646867 0.233938 0.306736
C22 C 0.6466(2) 0.4354(2) 0.3169(2)
H19 H 0.538543 0.458170 0.371942
C23 C 1.0844(3) 0.0929(2) 0.0807(3)
H20 H 1.114043 0.151032 -0.011771
H21 H 1.107601 -0.004895 0.064241
H22 H 1.143136 0.104992 0.135064
O1 O 0.92197(16) 0.13320(13) 0.16041(15)
loop_
_geom_bond_atom_site_label_1
_geom_bond_atom_site_label_2
_geom_bond_site_symmetry_1
_geom_bond_site_symmetry_2
C1 C2 1_555 1_555
C2 C3 1_555 1_555
C3 H1 1_555 1_555
H2 C3 1_555 1_555
C4 C3 1_555 1_555
H3 C4 1_555 1_555
H4 C4 1_555 1_555
H5 C4 1_555 1_555
C5 C2 1_555 1_555
C6 C5 1_555 1_555
H6 C6 1_555 1_555
C7 C6 1_555 1_555
H7 C7 1_555 1_555
C8 C7 1_555 1_555
H8 C8 1_555 1_555
C9 C8 1_555 1_555
H9 C9 1_555 1_555
C10 C5 1_555 1_555
H10 C10 1_555 1_555
C11 C1 1_555 1_555
C12 C11 1_555 1_555
H11 C12 1_555 1_555
C13 C12 1_555 1_555
H12 C13 1_555 1_555
C14 C13 1_555 1_555
H13 C14 1_555 1_555
C15 C14 1_555 1_555
H14 C15 1_555 1_555
C16 C11 1_555 1_555
H15 C16 1_555 1_555
C17 C1 1_555 1_555
C18 C17 1_555 1_555
H16 C18 1_555 1_555
C19 C18 1_555 1_555
H17 C19 1_555 1_555
C20 C19 1_555 1_555
C21 C20 1_555 1_555
H18 C21 1_555 1_555
C22 C17 1_555 1_555
H19 C22 1_555 1_555
C23 H20 1_555 1_555
H21 C23 1_555 1_555
H22 C23 1_555 1_555
O1 C20 1_555 1_555
C9 C10 1_555 1_555
C15 C16 1_555 1_555
C21 C22 1_555 1_555
C23 O1 1_555 1_555

#END
