
#######################################################################
#
#                 Cambridge Crystallographic Data Centre
#                                CCDC 
#
#######################################################################
#
# If this CIF has been generated from an entry in the Cambridge 
# Structural Database, then it will include bibliographic, chemical, 
# crystal, experimental, refinement or atomic coordinate data resulting 
# from the CCDC's data processing and validation procedures.
#
#######################################################################

data_BEFFEX03
_chemical_name_common            gene636
_chemical_formula_moiety         'C23 H22 O1'
_chemical_name_systematic        
1,1'-[1-(4-methoxyphenyl)but-1-ene-1,2-diyl]dibenzene
_symmetry_cell_setting           triclinic
_symmetry_space_group_name_H-M   'P -1'
_symmetry_Int_Tables_number      2
_space_group_name_Hall           '-P 1'
loop_
_symmetry_equiv_pos_site_id
_symmetry_equiv_pos_as_xyz
1 x,y,z
2 -x,-y,-z
_cell_length_a                   9.5851(3)
_cell_length_b                   9.9859(3)
_cell_length_c                   10.2722(3)
_cell_angle_alpha                78.476(2)
_cell_angle_beta                 66.039(2)
_cell_angle_gamma                75.513(2)
_cell_volume                     864.54
_exptl_crystal_colour            colorless
_exptl_crystal_description       prism
_cell_formula_units_Z            2
loop_
_atom_site_label
_atom_site_type_symbol
_atom_site_fract_x
_atom_site_fract_y
_atom_site_fract_z
C1 C 0.67230(18) 0.68011(16) 0.32395(17)
C2 C 0.54496(18) 0.76129(16) 0.30659(17)
C3 C 0.4683(2) 0.89974(16) 0.36578(19)
H1 H 0.5168 0.9120 0.4302
H2 H 0.3571 0.8985 0.4238
C4 C 0.4808(2) 1.02327(17) 0.2505(2)
H3 H 0.5904 1.0298 0.1974
H4 H 0.4242 1.1089 0.2954
H5 H 0.4359 1.0107 0.1844
C5 C 0.46459(19) 0.72223(16) 0.22535(18)
C6 C 0.5403(2) 0.70166(17) 0.08105(19)
H6 H 0.6469 0.7083 0.0335
C7 C 0.4625(2) 0.67165(18) 0.0059(2)
H7 H 0.5155 0.6589 -0.0928
C8 C 0.3079(2) 0.66011(18) 0.0740(2)
H8 H 0.2549 0.6383 0.0226
C9 C 0.2305(2) 0.68045(17) 0.2170(2)
H9 H 0.1243 0.6726 0.2642
C10 C 0.30843(19) 0.71233(17) 0.29167(19)
H10 H 0.2542 0.7276 0.3896
C11 C 0.75659(18) 0.72252(16) 0.39921(18)
C12 C 0.80845(19) 0.84887(17) 0.36163(19)
H11 H 0.7895 0.9120 0.2856
C13 C 0.88705(19) 0.88347(17) 0.43358(19)
H12 H 0.9217 0.9698 0.4065
C14 C 0.9152(2) 0.79298(18) 0.5446(2)
H13 H 0.9678 0.8174 0.5948
C15 C 0.8664(2) 0.66628(18) 0.58262(19)
H14 H 0.8859 0.6035 0.6586
C16 C 0.78930(19) 0.63165(16) 0.50962(18)
H15 H 0.7579 0.5439 0.5352
C17 C 0.73738(18) 0.53691(16) 0.27702(17)
C18 C 0.89447(19) 0.49907(16) 0.19791(18)
H16 H 0.9591 0.5660 0.1717
C19 C 0.96097(19) 0.36633(16) 0.15545(18)
H17 H 1.0687 0.3442 0.0990
C20 C 0.8690(2) 0.26716(16) 0.19608(17)
C21 C 0.7105(2) 0.30181(17) 0.27770(18)
H18 H 0.6468 0.2338 0.3063
C22 C 0.64619(19) 0.43480(16) 0.31695(17)
H19 H 0.5381 0.4574 0.3721
C23 C 1.0850(2) 0.09326(19) 0.0805(2)
H20 H 1.1143 0.1512 -0.0119
H21 H 1.1083 -0.0047 0.0642
H22 H 1.1438 0.1057 0.1346
O1 O 0.92213(15) 0.13344(12) 0.16015(14)
loop_
_geom_bond_atom_site_label_1
_geom_bond_atom_site_label_2
_geom_bond_site_symmetry_1
_geom_bond_site_symmetry_2
C1 C2 1_555 1_555
C2 C3 1_555 1_555
C3 H1 1_555 1_555
H2 C3 1_555 1_555
C4 C3 1_555 1_555
H3 C4 1_555 1_555
H4 C4 1_555 1_555
H5 C4 1_555 1_555
C5 C2 1_555 1_555
C6 C5 1_555 1_555
H6 C6 1_555 1_555
C7 C6 1_555 1_555
H7 C7 1_555 1_555
C8 C7 1_555 1_555
H8 C8 1_555 1_555
C9 C8 1_555 1_555
H9 C9 1_555 1_555
C10 C5 1_555 1_555
H10 C10 1_555 1_555
C11 C1 1_555 1_555
C12 C11 1_555 1_555
H11 C12 1_555 1_555
C13 C12 1_555 1_555
H12 C13 1_555 1_555
C14 C13 1_555 1_555
H13 C14 1_555 1_555
C15 C14 1_555 1_555
H14 C15 1_555 1_555
C16 C11 1_555 1_555
H15 C16 1_555 1_555
C17 C1 1_555 1_555
C18 C17 1_555 1_555
H16 C18 1_555 1_555
C19 C18 1_555 1_555
H17 C19 1_555 1_555
C20 C19 1_555 1_555
C21 C20 1_555 1_555
H18 C21 1_555 1_555
C22 C17 1_555 1_555
H19 C22 1_555 1_555
C23 H20 1_555 1_555
H21 C23 1_555 1_555
H22 C23 1_555 1_555
O1 C20 1_555 1_555
C9 C10 1_555 1_555
C15 C16 1_555 1_555
C21 C22 1_555 1_555
C23 O1 1_555 1_555

#END
