
#######################################################################
#
#                 Cambridge Crystallographic Data Centre
#                                CCDC 
#
#######################################################################
#
# If this CIF has been generated from an entry in the Cambridge 
# Structural Database, then it will include bibliographic, chemical, 
# crystal, experimental, refinement or atomic coordinate data resulting 
# from the CCDC's data processing and validation procedures.
#
#######################################################################

data_BEFJII
_chemical_formula_moiety         'C22 H19 N7 O2,0.25(H2 O1)'
_chemical_name_systematic        
'1-(4-methoxyphenyl)-3,3-dimethyl-4-(pyrazin-2-yl)-5-([1,2,3]triazolo[1,5-a]pyrazin-3-yl)-1,3-dihydro-2H-pyrrol-2-one hydrate'
_symmetry_cell_setting           monoclinic
_symmetry_space_group_name_H-M   'P 21/c'
_symmetry_Int_Tables_number      14
_space_group_name_Hall           '-P 2ybc'
loop_
_symmetry_equiv_pos_site_id
_symmetry_equiv_pos_as_xyz
1 x,y,z
2 -x,1/2+y,1/2-z
3 -x,-y,-z
4 x,1/2-y,1/2+z
_cell_length_a                   5.6504(12)
_cell_length_b                   21.092(5)
_cell_length_c                   16.981(4)
_cell_angle_alpha                90
_cell_angle_beta                 90.073(4)
_cell_angle_gamma                90
_cell_volume                     2023.76
_exptl_crystal_colour            colorless
_exptl_crystal_description       prism
_cell_formula_units_Z            4
_exptl_crystal_preparation       ', Luminescent'
loop_
_atom_site_label
_atom_site_type_symbol
_atom_site_fract_x
_atom_site_fract_y
_atom_site_fract_z
O1 O 0.51917(14) 0.66795(4) 0.18728(5)
O2 O 0.19971(13) 0.47798(4) 0.43853(4)
N1 N 0.31402(15) 0.71147(4) 0.29105(5)
N2 N 0.57240(16) 0.91921(4) 0.26803(6)
N3 N 0.15794(16) 0.97970(4) 0.31816(6)
N4 N -0.00563(15) 0.81761(4) 0.50269(5)
N5 N 0.32932(16) 0.90702(5) 0.54042(6)
N6 N -0.15371(16) 0.77238(4) 0.47482(5)
N7 N -0.05856(16) 0.75162(4) 0.40851(5)
C1 C 0.44930(18) 0.71405(5) 0.22388(6)
C2 C 0.50552(17) 0.78321(5) 0.20657(6)
C3 C 0.38455(16) 0.81682(5) 0.27438(6)
C4 C 0.28239(17) 0.77349(5) 0.32158(6)
C5 C 0.40864(19) 0.80290(5) 0.12566(6)
H1 H 0.2359 0.7988 0.1255
H2 H 0.4760 0.7754 0.0849
H3 H 0.4523 0.8470 0.1150
C6 C 0.77642(18) 0.78893(5) 0.20771(7)
H4 H 0.8218 0.8330 0.1973
H5 H 0.8439 0.7614 0.1671
H6 H 0.8364 0.7761 0.2595
C7 C 0.27183(17) 0.65293(5) 0.33183(6)
C8 C 0.44139(18) 0.63041(5) 0.38411(6)
H7 H 0.5783 0.6550 0.3953
C9 C 0.40987(19) 0.57210(5) 0.41977(6)
H8 H 0.5245 0.5567 0.4560
C10 C 0.21037(19) 0.53603(5) 0.40263(6)
C11 C 0.03717(18) 0.55938(5) 0.35196(6)
H9 H -0.1021 0.5355 0.3419
C12 C 0.06993(18) 0.61795(5) 0.31624(6)
H10 H -0.0464 0.6340 0.2811
C13 C 0.0134(2) 0.43628(5) 0.41510(7)
H11 H -0.1396 0.4553 0.4286
H12 H 0.0307 0.3956 0.4425
H13 H 0.0212 0.4293 0.3581
C14 C 0.37306(18) 0.88607(5) 0.28308(6)
C15 C 0.5609(2) 0.98165(5) 0.28008(7)
H14 H 0.6975 1.0066 0.2698
C16 C 0.3592(2) 1.01155(5) 0.30683(7)
H15 H 0.3637 1.0558 0.3174
C17 C 0.16635(18) 0.91734(5) 0.30523(6)
H16 H 0.0255 0.8933 0.3114
C18 C 0.14678(17) 0.78269(5) 0.39401(6)
C19 C 0.18733(17) 0.82554(5) 0.45486(6)
C20 C 0.35571(19) 0.87165(5) 0.47799(6)
H17 H 0.4936 0.8771 0.4468
C21 C 0.1286(2) 0.89760(6) 0.58482(7)
H18 H 0.1071 0.9235 0.6300
C22 C -0.0399(2) 0.85408(6) 0.56856(7)
H19 H -0.1753 0.8490 0.6011
O3 O 0.1900(6) 0.45040(17) 0.0485(2)
loop_
_geom_bond_atom_site_label_1
_geom_bond_atom_site_label_2
_geom_bond_site_symmetry_1
_geom_bond_site_symmetry_2
O1 C1 1_555 1_555
O2 C10 1_555 1_555
N1 C1 1_555 1_555
N2 C14 1_555 1_555
N3 C16 1_555 1_555
N4 N6 1_555 1_555
N5 C20 1_555 1_555
N6 N7 1_555 1_555
N7 C18 1_555 1_555
C1 C2 1_555 1_555
C2 C3 1_555 1_555
C3 C4 1_555 1_555
C4 N1 1_555 1_555
C5 C2 1_555 1_555
H1 C5 1_555 1_555
H2 C5 1_555 1_555
H3 C5 1_555 1_555
C6 C2 1_555 1_555
H4 C6 1_555 1_555
H5 C6 1_555 1_555
H6 C6 1_555 1_555
C7 N1 1_555 1_555
C8 C7 1_555 1_555
H7 C8 1_555 1_555
C9 C8 1_555 1_555
H8 C9 1_555 1_555
C10 C9 1_555 1_555
C11 C10 1_555 1_555
H9 C11 1_555 1_555
C12 C7 1_555 1_555
H10 C12 1_555 1_555
C13 O2 1_555 1_555
H11 C13 1_555 1_555
H12 C13 1_555 1_555
H13 C13 1_555 1_555
C14 C3 1_555 1_555
C15 N2 1_555 1_555
H14 C15 1_555 1_555
C16 C15 1_555 1_555
H15 C16 1_555 1_555
C17 N3 1_555 1_555
H16 C17 1_555 1_555
C18 C4 1_555 1_555
C19 N4 1_555 1_555
C20 C19 1_555 1_555
H17 C20 1_555 1_555
C21 N5 1_555 1_555
H18 C21 1_555 1_555
C22 N4 1_555 1_555
H19 C22 1_555 1_555
C11 C12 1_555 1_555
C14 C17 1_555 1_555
C18 C19 1_555 1_555
C21 C22 1_555 1_555

#END
