
#######################################################################
#
#                 Cambridge Crystallographic Data Centre
#                                CCDC 
#
#######################################################################
#
# If this CIF has been generated from an entry in the Cambridge 
# Structural Database, then it will include bibliographic, chemical, 
# crystal, experimental, refinement or atomic coordinate data resulting 
# from the CCDC's data processing and validation procedures.
#
#######################################################################

data_BEFJED
_chemical_formula_moiety         'C35 H48 O2'
_chemical_name_systematic        
20-(10b-Methyl-1,4,4a,5,6,10b-hexahydro-2H-benzo[f]isochromen-4-yl)pregn-4-en-3-one
_symmetry_cell_setting           monoclinic
_symmetry_space_group_name_H-M   'P 21'
_symmetry_Int_Tables_number      4
_space_group_name_Hall           'P 2yb'
loop_
_symmetry_equiv_pos_site_id
_symmetry_equiv_pos_as_xyz
1 x,y,z
2 -x,1/2+y,-z
_cell_length_a                   12.6151(7)
_cell_length_b                   9.4520(5)
_cell_length_c                   13.0025(7)
_cell_angle_alpha                90
_cell_angle_beta                 111.859(3)
_cell_angle_gamma                90
_cell_volume                     1438.92
_exptl_crystal_colour            colorless
_exptl_crystal_description       block
_cell_formula_units_Z            2
loop_
_atom_site_label
_atom_site_type_symbol
_atom_site_fract_x
_atom_site_fract_y
_atom_site_fract_z
C1 C -0.1485(2) 0.3233(3) 0.7292(3)
H1 H -0.2274 0.3391 0.6885
C2 C -0.0995(3) 0.3762(4) 0.8431(3)
C3 C 0.0170(3) 0.3241(5) 0.9095(3)
H2 H 0.0123 0.2279 0.9378
H3 H 0.0532 0.3872 0.9739
C4 C 0.0901(2) 0.3204(4) 0.8370(2)
H4 H 0.0996 0.4182 0.8146
H5 H 0.1669 0.2834 0.8819
C5 C 0.0387(2) 0.2295(3) 0.7331(2)
C6 C 0.0595(2) 0.0705(3) 0.7648(3)
H6 H 0.0296 0.0125 0.6976
H7 H 0.0204 0.0454 0.8148
H8 H 0.1416 0.0535 0.8020
C7 C -0.0889(2) 0.2542(3) 0.6790(2)
C8 C -0.14632(19) 0.1935(3) 0.5646(2)
H9 H -0.2258 0.2291 0.5327
H10 H -0.1496 0.0893 0.5702
C9 C -0.08543(18) 0.2309(3) 0.4864(2)
H11 H -0.1201 0.1763 0.4169
H12 H -0.0969 0.3327 0.4675
C10 C 0.04200(17) 0.2000(2) 0.53617(19)
H13 H 0.0540 0.0955 0.5460
C11 C 0.09541(18) 0.2731(2) 0.64965(19)
H14 H 0.0796 0.3764 0.6354
C12 C 0.22554(18) 0.2580(3) 0.69716(19)
H15 H 0.2456 0.1575 0.7157
H16 H 0.2572 0.3134 0.7666
C13 C 0.28112(18) 0.3091(2) 0.61591(18)
H17 H 0.2686 0.4122 0.6038
H18 H 0.3645 0.2923 0.6492
C14 C 0.23177(17) 0.2326(2) 0.50411(18)
C15 C 0.26579(19) 0.0755(2) 0.5177(2)
H19 H 0.2341 0.0301 0.5677
H20 H 0.3492 0.0674 0.5487
H21 H 0.2357 0.0288 0.4452
C16 C 0.10074(17) 0.2543(2) 0.46128(17)
H22 H 0.0886 0.3591 0.4568
C17 C 0.05918(19) 0.2022(3) 0.3411(2)
H23 H -0.0146 0.2463 0.2958
H24 H 0.0504 0.0980 0.3373
C18 C 0.1551(2) 0.2496(3) 0.3018(2)
H25 H 0.1282 0.3281 0.2478
H26 H 0.1790 0.1700 0.2659
C19 C 0.25694(18) 0.2996(2) 0.40718(17)
H27 H 0.2497 0.4044 0.4127
C20 C 0.37295(18) 0.2709(2) 0.39678(18)
H28 H 0.3773 0.1671 0.3840
C21 C 0.4774(2) 0.3099(3) 0.5010(2)
H29 H 0.4706 0.4084 0.5214
H30 H 0.5472 0.2986 0.4856
H31 H 0.4805 0.2475 0.5623
C22 C 0.3760(2) 0.3480(2) 0.29378(19)
H32 H 0.3041 0.3252 0.2298
C23 C 0.3649(2) 0.5795(3) 0.2202(2)
H33 H 0.3660 0.6811 0.2392
H34 H 0.2901 0.5587 0.1611
C24 C 0.4596(2) 0.5501(2) 0.1768(2)
H35 H 0.5335 0.5823 0.2322
H36 H 0.4448 0.6046 0.1078
C25 C 0.46757(19) 0.3916(2) 0.15330(18)
C26 C 0.36099(19) 0.3479(3) 0.05178(18)
H37 H 0.3647 0.2466 0.0377
H38 H 0.3590 0.4018 -0.0133
H39 H 0.2919 0.3679 0.0668
C27 C 0.47793(18) 0.3114(2) 0.26091(17)
H40 H 0.5480 0.3481 0.3212
C28 C 0.4964(2) 0.1538(2) 0.2500(2)
H41 H 0.4336 0.1152 0.1848
H42 H 0.4965 0.1035 0.3168
C29 C 0.6106(2) 0.1309(3) 0.2367(2)
H43 H 0.6727 0.1371 0.3106
H44 H 0.6117 0.0340 0.2082
C30 C 0.63527(19) 0.2344(2) 0.16022(18)
C31 C 0.57121(19) 0.3587(2) 0.12355(17)
C32 C 0.6000(2) 0.4476(3) 0.0514(2)
H45 H 0.5567 0.5311 0.0244
C33 C 0.6896(2) 0.4166(3) 0.0186(2)
H46 H 0.7075 0.4790 -0.0300
C34 C 0.7534(2) 0.2954(3) 0.0559(2)
H47 H 0.8154 0.2738 0.0337
C35 C 0.7257(2) 0.2065(3) 0.1259(2)
H48 H 0.7697 0.1232 0.1518
O1 O -0.1514(3) 0.4546(4) 0.8815(2)
O2 O 0.37714(16) 0.49699(18) 0.31530(14)
loop_
_geom_bond_atom_site_label_1
_geom_bond_atom_site_label_2
_geom_bond_site_symmetry_1
_geom_bond_site_symmetry_2
C1 H1 1_555 1_555
C2 C1 1_555 1_555
C3 C2 1_555 1_555
H2 C3 1_555 1_555
H3 C3 1_555 1_555
C4 C3 1_555 1_555
H4 C4 1_555 1_555
H5 C4 1_555 1_555
C5 C4 1_555 1_555
C6 C5 1_555 1_555
H6 C6 1_555 1_555
H7 C6 1_555 1_555
H8 C6 1_555 1_555
C7 C1 1_555 1_555
C8 C7 1_555 1_555
H9 C8 1_555 1_555
H10 C8 1_555 1_555
C9 C8 1_555 1_555
H11 C9 1_555 1_555
H12 C9 1_555 1_555
C10 C9 1_555 1_555
H13 C10 1_555 1_555
C11 C5 1_555 1_555
H14 C11 1_555 1_555
C12 C11 1_555 1_555
H15 C12 1_555 1_555
H16 C12 1_555 1_555
C13 C12 1_555 1_555
H17 C13 1_555 1_555
H18 C13 1_555 1_555
C14 C13 1_555 1_555
C15 C14 1_555 1_555
H19 C15 1_555 1_555
H20 C15 1_555 1_555
H21 C15 1_555 1_555
C16 C10 1_555 1_555
H22 C16 1_555 1_555
C17 C16 1_555 1_555
H23 C17 1_555 1_555
H24 C17 1_555 1_555
C18 C17 1_555 1_555
H25 C18 1_555 1_555
H26 C18 1_555 1_555
C19 C14 1_555 1_555
H27 C19 1_555 1_555
C20 C19 1_555 1_555
H28 C20 1_555 1_555
C21 C20 1_555 1_555
H29 C21 1_555 1_555
H30 C21 1_555 1_555
H31 C21 1_555 1_555
C22 C20 1_555 1_555
H32 C22 1_555 1_555
C23 H33 1_555 1_555
H34 C23 1_555 1_555
C24 C23 1_555 1_555
H35 C24 1_555 1_555
H36 C24 1_555 1_555
C25 C24 1_555 1_555
C26 C25 1_555 1_555
H37 C26 1_555 1_555
H38 C26 1_555 1_555
H39 C26 1_555 1_555
C27 C22 1_555 1_555
H40 C27 1_555 1_555
C28 C27 1_555 1_555
H41 C28 1_555 1_555
H42 C28 1_555 1_555
C29 C28 1_555 1_555
H43 C29 1_555 1_555
H44 C29 1_555 1_555
C30 C29 1_555 1_555
C31 C25 1_555 1_555
C32 C31 1_555 1_555
H45 C32 1_555 1_555
C33 C32 1_555 1_555
H46 C33 1_555 1_555
C34 C33 1_555 1_555
H47 C34 1_555 1_555
C35 C30 1_555 1_555
H48 C35 1_555 1_555
O1 C2 1_555 1_555
O2 C22 1_555 1_555
C5 C7 1_555 1_555
C10 C11 1_555 1_555
C14 C16 1_555 1_555
C18 C19 1_555 1_555
C23 O2 1_555 1_555
C25 C27 1_555 1_555
C30 C31 1_555 1_555
C34 C35 1_555 1_555

#END
