
#######################################################################
#
#                 Cambridge Crystallographic Data Centre
#                                CCDC 
#
#######################################################################
#
# If this CIF has been generated from an entry in the Cambridge 
# Structural Database, then it will include bibliographic, chemical, 
# crystal, experimental, refinement or atomic coordinate data resulting 
# from the CCDC's data processing and validation procedures.
#
#######################################################################

data_BEFJAZ
_chemical_formula_moiety         'C5 H6 O2'
_chemical_name_systematic        '1-Methylcycloprop-2-ene-1-carboxylic acid'
_symmetry_cell_setting           orthorhombic
_symmetry_space_group_name_H-M   'P n m a'
_symmetry_Int_Tables_number      62
_space_group_name_Hall           '-P 2ac 2n'
loop_
_symmetry_equiv_pos_site_id
_symmetry_equiv_pos_as_xyz
1 x,y,z
2 1/2-x,-y,1/2+z
3 -x,1/2+y,-z
4 1/2+x,1/2-y,1/2-z
5 -x,-y,-z
6 1/2+x,y,1/2-z
7 x,1/2-y,z
8 1/2-x,1/2+y,1/2+z
_cell_length_a                   11.7879(7)
_cell_length_b                   6.7883(4)
_cell_length_c                   12.4266(7)
_cell_angle_alpha                90
_cell_angle_beta                 90
_cell_angle_gamma                90
_cell_volume                     994.374
_exptl_crystal_colour            colorless
_exptl_crystal_description       needle
_cell_formula_units_Z            8
loop_
_atom_site_label
_atom_site_type_symbol
_atom_site_fract_x
_atom_site_fract_y
_atom_site_fract_z
O1 O -0.00346(5) 0.7500 0.27117(5)
O2 O 0.18664(5) 0.7500 0.27643(5)
H1 H 0.1717(15) 0.7500 0.3490(15)
C1 C 0.19906(5) 0.65544(9) 0.05364(4)
H3 H 0.2296(9) 0.5377(17) 0.0361(8)
C2 C 0.09564(6) 0.7500 0.10509(6)
C3 C -0.01924(7) 0.7500 0.05012(7)
H4 H -0.0078(13) 0.7500 -0.0305(11)
H5 H -0.0658(8) 0.6354(17) 0.0704(8)
C4 C 0.08849(6) 0.7500 0.22429(6)
C1F C 0.19906(5) 0.84456(9) 0.05364(4)
H3F H 0.2296(9) 0.9623(17) 0.0361(8)
H5F H -0.0658(8) 0.8646(17) 0.0704(8)
O3 O 0.15570(4) 0.7500 0.48735(5)
O4 O -0.03393(5) 0.7500 0.47796(5)
H2 H -0.0206(16) 0.7500 0.4048(14)
C5 C 0.14065(5) 0.65525(9) 0.71626(4)
H6 H 0.1683(8) 0.5296(17) 0.7384(8)
C6 C 0.04663(6) 0.7500 0.65086(6)
C7 C -0.07499(6) 0.7500 0.69052(7)
H7 H -0.0771(14) 0.7500 0.7708(14)
H8 H -0.1156(9) 0.6348(17) 0.6644(8)
C8 C 0.06177(6) 0.7500 0.53187(6)
C5F C 0.14065(5) 0.84475(9) 0.71626(4)
H6F H 0.1683(8) 0.9704(17) 0.7384(8)
H8F H -0.1156(9) 0.8652(17) 0.6644(8)
loop_
_geom_bond_atom_site_label_1
_geom_bond_atom_site_label_2
_geom_bond_site_symmetry_1
_geom_bond_site_symmetry_2
O1 C4 1_555 1_555
O2 H1 1_555 1_555
O3 C8 1_555 1_555
O4 H2 1_555 1_555
C1 H3 1_555 1_555
C2 C1 1_555 1_555
C3 C2 1_555 1_555
H4 C3 1_555 1_555
H5 C3 1_555 1_555
C4 O2 1_555 1_555
C5 H6 1_555 1_555
C6 C5 1_555 1_555
C7 C6 1_555 1_555
H7 C7 1_555 1_555
H8 C7 1_555 1_555
C8 O4 1_555 1_555
C1F C1 1_555 1_555
H3F C1F 1_555 1_555
H5F C3 1_555 1_555
C5F C5 1_555 1_555
H6F C5F 1_555 1_555
H8F C7 1_555 1_555
C2 C4 1_555 1_555
C2 C1F 1_555 1_555
C6 C8 1_555 1_555
C6 C5F 1_555 1_555

#END
