
#######################################################################
#
#                 Cambridge Crystallographic Data Centre
#                                CCDC 
#
#######################################################################
#
# If this CIF has been generated from an entry in the Cambridge 
# Structural Database, then it will include bibliographic, chemical, 
# crystal, experimental, refinement or atomic coordinate data resulting 
# from the CCDC's data processing and validation procedures.
#
#######################################################################

data_BEFJIH
_chemical_formula_moiety         'C25 H30 O1'
_chemical_name_systematic        
4a,10b-Dimethyl-1-phenyl-3,4,4a,4b,5,6,10b,11,12,12a-decahydro-1H-naphtho[2,1-f]isochromene
_symmetry_cell_setting           monoclinic
_symmetry_space_group_name_H-M   'C 2/c'
_symmetry_Int_Tables_number      15
_space_group_name_Hall           '-C 2yn'
loop_
_symmetry_equiv_pos_site_id
_symmetry_equiv_pos_as_xyz
1 x,y,z
2 -x,y,1/2-z
3 1/2+x,1/2+y,z
4 1/2-x,1/2+y,1/2-z
5 -x,-y,-z
6 x,-y,1/2+z
7 1/2-x,1/2-y,-z
8 1/2+x,1/2-y,1/2+z
_cell_length_a                   17.974(4)
_cell_length_b                   11.959(2)
_cell_length_c                   18.458(3)
_cell_angle_alpha                90
_cell_angle_beta                 106.945(9)
_cell_angle_gamma                90
_cell_volume                     3795.31
_exptl_crystal_colour            colorless
_exptl_crystal_description       block
_cell_formula_units_Z            8
loop_
_atom_site_label
_atom_site_type_symbol
_atom_site_fract_x
_atom_site_fract_y
_atom_site_fract_z
C1 C 1.05889(8) 0.02120(12) 0.35963(8)
H1 H 1.0931 0.0754 0.3493
C2 C 1.06625(9) -0.09005(13) 0.34195(9)
H2 H 1.1056 -0.1118 0.3199
C3 C 1.01641(9) -0.16968(12) 0.35632(9)
H3 H 1.0219 -0.2461 0.3447
C4 C 0.95899(8) -0.13770(11) 0.38751(8)
H4 H 0.9239 -0.1917 0.3964
C5 C 0.95229(8) -0.02644(11) 0.40608(8)
H5 H 0.9131 -0.0051 0.4285
C6 C 1.00219(7) 0.05398(10) 0.39224(7)
C7 C 0.99207(7) 0.17468(10) 0.41116(7)
H6 H 0.9662 0.1778 0.4523
C8 C 1.06623(8) 0.33570(11) 0.46287(8)
H7 H 1.1200 0.3654 0.4795
H8 H 1.0455 0.3371 0.5070
C9 C 1.01661(8) 0.41114(11) 0.40135(7)
H9 H 1.0422 0.4200 0.3609
H10 H 1.0132 0.4860 0.4231
C10 C 0.93373(7) 0.36487(10) 0.36636(7)
C11 C 0.88893(8) 0.37324(12) 0.42576(8)
H11 H 0.8699 0.4498 0.4269
H12 H 0.9236 0.3537 0.4758
H13 H 0.8447 0.3215 0.4124
C12 C 0.94406(7) 0.24275(9) 0.34321(7)
H14 H 0.9762 0.2470 0.3072
C13 C 0.86714(7) 0.19014(10) 0.29897(7)
H15 H 0.8313 0.1889 0.3308
H16 H 0.8761 0.1120 0.2858
C14 C 0.83022(8) 0.25623(11) 0.22662(7)
H17 H 0.7796 0.2217 0.1999
H18 H 0.8641 0.2506 0.1930
C15 C 0.81705(7) 0.38100(10) 0.24048(7)
C16 C 0.74657(8) 0.39167(13) 0.27175(8)
H19 H 0.7421 0.4692 0.2872
H20 H 0.7538 0.3422 0.3156
H21 H 0.6991 0.3704 0.2323
C17 C 0.89410(7) 0.43042(10) 0.29254(7)
H22 H 0.9316 0.4249 0.2619
C18 C 0.88517(9) 0.55603(11) 0.30311(8)
H23 H 0.8389 0.5704 0.3205
H24 H 0.9315 0.5852 0.3419
C19 C 0.87616(9) 0.61454(12) 0.22787(9)
H25 H 0.8572 0.6916 0.2310
H26 H 0.9279 0.6200 0.2192
C20 C 0.82087(8) 0.55607(12) 0.16090(8)
C21 C 0.79583(7) 0.44618(11) 0.16539(8)
C22 C 0.74729(8) 0.39742(14) 0.09954(8)
H27 H 0.7300 0.3227 0.1016
C23 C 0.72370(9) 0.45494(16) 0.03153(9)
H28 H 0.6908 0.4199 -0.0123
C24 C 0.74835(9) 0.56365(16) 0.02786(9)
H29 H 0.7321 0.6040 -0.0184
C25 C 0.79659(9) 0.61314(14) 0.09169(10)
H30 H 0.8138 0.6876 0.0888
O1 O 1.06820(5) 0.22275(8) 0.43843(5)
loop_
_geom_bond_atom_site_label_1
_geom_bond_atom_site_label_2
_geom_bond_site_symmetry_1
_geom_bond_site_symmetry_2
C1 H1 1_555 1_555
C2 C1 1_555 1_555
H2 C2 1_555 1_555
C3 C2 1_555 1_555
H3 C3 1_555 1_555
C4 C3 1_555 1_555
H4 C4 1_555 1_555
C5 C4 1_555 1_555
H5 C5 1_555 1_555
C6 C1 1_555 1_555
C7 C6 1_555 1_555
H6 C7 1_555 1_555
C8 H7 1_555 1_555
H8 C8 1_555 1_555
C9 C8 1_555 1_555
H9 C9 1_555 1_555
H10 C9 1_555 1_555
C10 C9 1_555 1_555
C11 C10 1_555 1_555
H11 C11 1_555 1_555
H12 C11 1_555 1_555
H13 C11 1_555 1_555
C12 C7 1_555 1_555
H14 C12 1_555 1_555
C13 C12 1_555 1_555
H15 C13 1_555 1_555
H16 C13 1_555 1_555
C14 C13 1_555 1_555
H17 C14 1_555 1_555
H18 C14 1_555 1_555
C15 C14 1_555 1_555
C16 C15 1_555 1_555
H19 C16 1_555 1_555
H20 C16 1_555 1_555
H21 C16 1_555 1_555
C17 C10 1_555 1_555
H22 C17 1_555 1_555
C18 C17 1_555 1_555
H23 C18 1_555 1_555
H24 C18 1_555 1_555
C19 C18 1_555 1_555
H25 C19 1_555 1_555
H26 C19 1_555 1_555
C20 C19 1_555 1_555
C21 C15 1_555 1_555
C22 C21 1_555 1_555
H27 C22 1_555 1_555
C23 C22 1_555 1_555
H28 C23 1_555 1_555
C24 C23 1_555 1_555
H29 C24 1_555 1_555
C25 C20 1_555 1_555
H30 C25 1_555 1_555
O1 C7 1_555 1_555
C5 C6 1_555 1_555
C8 O1 1_555 1_555
C10 C12 1_555 1_555
C15 C17 1_555 1_555
C20 C21 1_555 1_555
C24 C25 1_555 1_555

#END
