
#######################################################################
#
#                 Cambridge Crystallographic Data Centre
#                                CCDC 
#
#######################################################################
#
# If this CIF has been generated from an entry in the Cambridge 
# Structural Database, then it will include bibliographic, chemical, 
# crystal, experimental, refinement or atomic coordinate data resulting 
# from the CCDC's data processing and validation procedures.
#
#######################################################################

data_BEFKAB
_chemical_formula_moiety         'C17 H14 Cl1 N1 O2'
_chemical_name_systematic        
5-chloro-1-methyl-3-(2-oxo-2-phenylethyl)-1,3-dihydro-2H-indol-2-one
_symmetry_cell_setting           orthorhombic
_symmetry_space_group_name_H-M   'F d d 2'
_symmetry_Int_Tables_number      43
_space_group_name_Hall           'F 2 -2d'
loop_
_symmetry_equiv_pos_site_id
_symmetry_equiv_pos_as_xyz
1 x,y,z
2 -x,-y,z
3 1/4+x,1/4-y,1/4+z
4 1/4-x,1/4+y,1/4+z
5 x,1/2+y,1/2+z
6 -x,1/2-y,1/2+z
7 1/4+x,3/4-y,3/4+z
8 1/4-x,3/4+y,3/4+z
9 1/2+x,y,1/2+z
10 1/2-x,-y,1/2+z
11 3/4+x,1/4-y,3/4+z
12 3/4-x,1/4+y,3/4+z
13 1/2+x,1/2+y,z
14 1/2-x,1/2-y,z
15 3/4+x,3/4-y,1/4+z
16 3/4-x,3/4+y,1/4+z
_cell_length_a                   32.751(4)
_cell_length_b                   38.485(5)
_cell_length_c                   4.6626(6)
_cell_angle_alpha                90
_cell_angle_beta                 90
_cell_angle_gamma                90
_cell_volume                     5876.84
_exptl_crystal_colour            colorless
_exptl_crystal_description       prismatic
_cell_formula_units_Z            16
loop_
_atom_site_label
_atom_site_type_symbol
_atom_site_fract_x
_atom_site_fract_y
_atom_site_fract_z
Cl1 Cl 0.05363(3) 0.04683(3) 0.1049(3)
N1 N -0.04898(7) 0.14084(7) 0.7788(6)
O1 O -0.03016(7) 0.18565(7) 1.0718(6)
O2 O 0.10074(6) 0.16256(6) 0.5786(6)
C1 C 0.03825(9) 0.10210(8) 0.4461(7)
H1 H 0.0662 0.1061 0.4424
C2 C 0.02139(10) 0.07455(8) 0.2991(9)
C3 C -0.01983(10) 0.06797(9) 0.2989(9)
H2 H -0.0302 0.0493 0.1959
C4 C -0.04579(10) 0.08939(9) 0.4536(9)
H3 H -0.0738 0.0855 0.4557
C5 C -0.02892(9) 0.11645(7) 0.6031(8)
C6 C 0.01267(8) 0.12342(7) 0.5978(7)
C7 C 0.02057(9) 0.15507(8) 0.7795(7)
H4 H 0.0399 0.1495 0.9336
C8 C -0.02156(9) 0.16270(8) 0.9032(7)
C9 C -0.09226(10) 0.14214(10) 0.8335(11)
H5 H -0.1001 0.1223 0.9455
H6 H -0.1068 0.1420 0.6547
H7 H -0.0987 0.1630 0.9368
C10 C 0.03481(8) 0.18708(8) 0.6148(8)
H8 H 0.0167 0.1905 0.4527
H9 H 0.0320 0.2072 0.7389
C11 C 0.07762(8) 0.18592(8) 0.5062(7)
C12 C 0.09130(9) 0.21348(8) 0.3058(8)
C13 C 0.12992(9) 0.21129(9) 0.1826(8)
H10 H 0.1469 0.1928 0.2298
C14 C 0.14322(12) 0.23602(10) -0.0074(9)
H11 H 0.1692 0.2342 -0.0872
C15 C 0.11827(13) 0.26353(9) -0.0807(9)
H12 H 0.1271 0.2801 -0.2119
C16 C 0.08067(12) 0.26616(8) 0.0406(9)
H13 H 0.0639 0.2847 -0.0076
C17 C 0.06703(10) 0.24166(9) 0.2343(8)
H14 H 0.0414 0.2441 0.3174
loop_
_geom_bond_atom_site_label_1
_geom_bond_atom_site_label_2
_geom_bond_site_symmetry_1
_geom_bond_site_symmetry_2
Cl1 C2 1_555 1_555
N1 C5 1_555 1_555
O1 C8 1_555 1_555
O2 C11 1_555 1_555
C1 H1 1_555 1_555
C2 C1 1_555 1_555
C3 C2 1_555 1_555
H2 C3 1_555 1_555
C4 C3 1_555 1_555
H3 C4 1_555 1_555
C5 C4 1_555 1_555
C6 C1 1_555 1_555
C7 C6 1_555 1_555
H4 C7 1_555 1_555
C8 N1 1_555 1_555
C9 N1 1_555 1_555
H5 C9 1_555 1_555
H6 C9 1_555 1_555
H7 C9 1_555 1_555
C10 C7 1_555 1_555
H8 C10 1_555 1_555
H9 C10 1_555 1_555
C11 C10 1_555 1_555
C12 C11 1_555 1_555
C13 C12 1_555 1_555
H10 C13 1_555 1_555
C14 C13 1_555 1_555
H11 C14 1_555 1_555
C15 C14 1_555 1_555
H12 C15 1_555 1_555
C16 C15 1_555 1_555
H13 C16 1_555 1_555
C17 C12 1_555 1_555
H14 C17 1_555 1_555
C5 C6 1_555 1_555
C7 C8 1_555 1_555
C16 C17 1_555 1_555

#END
