
#######################################################################
#
#                 Cambridge Crystallographic Data Centre
#                                CCDC 
#
#######################################################################
#
# If this CIF has been generated from an entry in the Cambridge 
# Structural Database, then it will include bibliographic, chemical, 
# crystal, experimental, refinement or atomic coordinate data resulting 
# from the CCDC's data processing and validation procedures.
#
#######################################################################

data_BEFNEF
_chemical_formula_moiety         'C13 H15 N1 O4 S1'
_chemical_name_systematic        
10-Cyano-2-methylsulfonyl-tetracyclo(4.3.2.0^4,8^.0^5,11^)undecan-7-one
_symmetry_cell_setting           orthorhombic
_symmetry_space_group_name_H-M   'P b c a'
_symmetry_Int_Tables_number      61
_space_group_name_Hall           '-P 2ac 2ab'
loop_
_symmetry_equiv_pos_site_id
_symmetry_equiv_pos_as_xyz
1 x,y,z
2 1/2-x,-y,1/2+z
3 1/2+x,1/2-y,-z
4 -x,1/2+y,1/2-z
5 -x,-y,-z
6 1/2+x,y,1/2-z
7 1/2-x,1/2+y,z
8 x,1/2-y,1/2+z
_cell_length_a                   9.057(3)
_cell_length_b                   10.254(4)
_cell_length_c                   27.08(7)
_cell_angle_alpha                90
_cell_angle_beta                 90
_cell_angle_gamma                90
_cell_volume                     2514.93
_chemical_melting_point          135-6deg.C
_cell_formula_units_Z            8
loop_
_atom_site_label
_atom_site_type_symbol
_atom_site_fract_x
_atom_site_fract_y
_atom_site_fract_z
S1 S 0.26700 0.57760 0.00510
C1 C 0.31570 0.77910 0.16510
C2 C 0.40350 0.65830 0.18080
C3 C 0.52740 0.70360 0.21600
C4 C 0.52760 0.84870 0.21010
C5 C 0.38030 0.65730 -0.03800
C6 C 0.36950 0.72620 0.07590
C7 C 0.51960 0.72970 0.10040
C8 C 0.24550 0.75700 0.11320
C9 C 0.52120 0.62590 0.14090
C10 C 0.43450 0.88610 0.16640
C11 C 0.64100 0.63370 0.18190
C12 C 0.53420 0.87020 0.12060
C13 C 0.78000 0.69770 0.17180
H1 H 0.23400 0.80100 0.19200
H2 H 0.33900 0.57700 0.19200
H3 H 0.53100 0.67400 0.25400
H4 H 0.49100 0.62500 -0.03700
H5 H 0.34400 0.63900 -0.07500
H6 H 0.38300 0.75900 -0.03400
H7 H 0.37300 0.78600 0.04400
H8 H 0.59800 0.70300 0.07300
H9 H 0.17500 0.66600 0.11900
H10 H 0.51700 0.52900 0.12600
H11 H 0.39300 0.98500 0.17000
H12 H 0.49600 0.92900 0.09100
H13 H 0.64500 0.90100 0.12700
H14 H 0.19600 0.85200 0.10800
H15 H 0.67100 0.53700 0.19200
N1 N 0.88800 0.75180 0.16320
O1 O 0.27290 0.44120 -0.00440
O2 O 0.59860 0.92400 0.23600
O3 O 0.12750 0.64080 0.00690
O4 O 0.35000 0.59350 0.05560
loop_
_geom_bond_atom_site_label_1
_geom_bond_atom_site_label_2
_geom_bond_site_symmetry_1
_geom_bond_site_symmetry_2
S1 C5 1_555 1_555
C1 C2 1_555 1_555
C2 C3 1_555 1_555
C3 C4 1_555 1_555
C4 C10 1_555 1_555
C5 H4 1_555 1_555
C6 C7 1_555 1_555
C7 C9 1_555 1_555
C8 C1 1_555 1_555
C9 C2 1_555 1_555
C10 C1 1_555 1_555
C11 C3 1_555 1_555
C12 C7 1_555 1_555
C13 C11 1_555 1_555
H1 C1 1_555 1_555
H2 C2 1_555 1_555
H3 C3 1_555 1_555
H5 C5 1_555 1_555
H6 C5 1_555 1_555
H7 C6 1_555 1_555
H8 C7 1_555 1_555
H9 C8 1_555 1_555
H10 C9 1_555 1_555
H11 C10 1_555 1_555
H12 C12 1_555 1_555
H13 C12 1_555 1_555
H14 C8 1_555 1_555
H15 C11 1_555 1_555
N1 C13 1_555 1_555
O1 S1 1_555 1_555
O2 C4 1_555 1_555
O3 S1 1_555 1_555
O4 S1 1_555 1_555
C6 C8 1_555 1_555
C6 O4 1_555 1_555
C9 C11 1_555 1_555
C10 C12 1_555 1_555

#END
