
#######################################################################
#
#                 Cambridge Crystallographic Data Centre
#                                CCDC 
#
#######################################################################
#
# If this CIF has been generated from an entry in the Cambridge 
# Structural Database, then it will include bibliographic, chemical, 
# crystal, experimental, refinement or atomic coordinate data resulting 
# from the CCDC's data processing and validation procedures.
#
#######################################################################

data_BEFPUY
_chemical_formula_moiety         'C8 H11 N1 O3'
_chemical_name_systematic        
4,7a-dimethyl-1,3a,4,7a-tetrahydro-2H-pyrano[4,3-d][1,3]oxazol-2-one
_symmetry_cell_setting           orthorhombic
_symmetry_space_group_name_H-M   'P 21 21 21'
_symmetry_Int_Tables_number      19
_space_group_name_Hall           'P 2ac 2ab'
loop_
_symmetry_equiv_pos_site_id
_symmetry_equiv_pos_as_xyz
1 x,y,z
2 1/2-x,-y,1/2+z
3 -x,1/2+y,1/2-z
4 1/2+x,1/2-y,-z
_cell_length_a                   6.436(3)
_cell_length_b                   10.506(4)
_cell_length_c                   12.647(5)
_cell_angle_alpha                90
_cell_angle_beta                 90
_cell_angle_gamma                90
_cell_volume                     855.147
_exptl_crystal_colour            white
_chemical_melting_point          '181-183 deg.C'
_cell_formula_units_Z            4
loop_
_atom_site_label
_atom_site_type_symbol
_atom_site_fract_x
_atom_site_fract_y
_atom_site_fract_z
O1 O 0.0388(11) 0.3395(6) 0.9169(4)
O2 O -0.2074(9) 0.3625(5) 0.7200(4)
O3 O -0.2497(11) 0.2318(5) 0.5802(4)
C1 C -0.0508(16) 0.4510(8) 0.7567(7)
H1 H -0.092(10) 0.536(6) 0.732(5)
N1 N 0.0553(13) 0.3418(7) 0.6106(5)
H2 H 0.1212 0.3246 0.5531
C2 C 0.2691(16) 0.3262(7) 0.7700(7)
H3 H 0.3914 0.2922 0.7428
C3 C 0.1411(15) 0.4156(9) 0.6982(7)
C4 C -0.2504(14) 0.4788(8) 0.9256(6)
H4 H -0.3205 0.5476 0.8907
H5 H -0.2283 0.5004 0.9985
H6 H -0.3339 0.4032 0.9213
C5 C -0.1373(18) 0.3050(9) 0.6312(7)
C6 C -0.0453(16) 0.4555(10) 0.8733(8)
H7 H 0.048(12) 0.525(7) 0.894(6)
C7 C 0.2818(15) 0.5250(8) 0.6577(6)
H8 H 0.4020 0.4898 0.6236
H9 H 0.3249 0.5767 0.7163
H10 H 0.2058 0.5763 0.6082
C8 C 0.2174(17) 0.2955(8) 0.8658(8)
H11 H 0.3046 0.2407 0.9028
loop_
_geom_bond_atom_site_label_1
_geom_bond_atom_site_label_2
_geom_bond_site_symmetry_1
_geom_bond_site_symmetry_2
O1 C6 1_555 1_555
O2 C1 1_555 1_555
O3 C5 1_555 1_555
C1 H1 1_555 1_555
N1 H2 1_555 1_555
C2 H3 1_555 1_555
C3 C1 1_555 1_555
C4 H4 1_555 1_555
H5 C4 1_555 1_555
H6 C4 1_555 1_555
C5 O2 1_555 1_555
C6 C1 1_555 1_555
H7 C6 1_555 1_555
C7 C3 1_555 1_555
H8 C7 1_555 1_555
H9 C7 1_555 1_555
H10 C7 1_555 1_555
C8 O1 1_555 1_555
H11 C8 1_555 1_555
N1 C5 1_555 1_555
N1 C3 1_555 1_555
C2 C3 1_555 1_555
C2 C8 1_555 1_555
C4 C6 1_555 1_555

#END
