
#######################################################################
#
#                 Cambridge Crystallographic Data Centre
#                                CCDC 
#
#######################################################################
#
# If this CIF has been generated from an entry in the Cambridge 
# Structural Database, then it will include bibliographic, chemical, 
# crystal, experimental, refinement or atomic coordinate data resulting 
# from the CCDC's data processing and validation procedures.
#
#######################################################################

data_BEFSIR
_chemical_formula_moiety         'C40 H66 Ca1 N4 O2'
_chemical_name_systematic        
bis(N,N'-di-t-butylphenylacetamidinato)-bis(tetrahydrofuran)-calcium
_symmetry_cell_setting           trigonal
_symmetry_space_group_name_H-M   'P 31 2 1'
_symmetry_Int_Tables_number      152
_space_group_name_Hall           'P 31 2"'
loop_
_symmetry_equiv_pos_site_id
_symmetry_equiv_pos_as_xyz
1 x,y,z
2 -y,x-y,1/3+z
3 -x+y,-x,2/3+z
4 x-y,-y,2/3-z
5 -x,-x+y,1/3-z
6 y,x,-z
_cell_length_a                   11.0777(12)
_cell_length_b                   11.0777(12)
_cell_length_c                   28.196(3)
_cell_angle_alpha                90
_cell_angle_beta                 90
_cell_angle_gamma                120
_cell_volume                     2996.52
_exptl_crystal_colour            colorless
_exptl_crystal_description       block
_cell_formula_units_Z            3
loop_
_atom_site_label
_atom_site_type_symbol
_atom_site_fract_x
_atom_site_fract_y
_atom_site_fract_z
Ca1 Ca 0.0000 0.18377(9) 0.1667
O1 O 0.0725(3) 0.0496(3) 0.11745(8)
N1 N -0.1907(3) 0.1336(3) 0.11147(9)
N2 N 0.0205(3) 0.3178(3) 0.09554(10)
C1 C -0.1158(4) 0.2496(4) 0.08604(11)
C2 C -0.1817(4) 0.3074(4) 0.05079(11)
H1 H -0.1140 0.3598 0.0263
H2 H -0.2610 0.2296 0.0356
C3 C -0.2295(4) 0.4000(4) 0.07315(11)
C4 C -0.2117(4) 0.4356(4) 0.12133(12)
H3 H -0.1654 0.4042 0.1408
C5 C -0.2625(5) 0.5175(4) 0.14030(13)
H4 H -0.2507 0.5395 0.1724
C6 C -0.3302(5) 0.5665(5) 0.11178(13)
H5 H -0.3649 0.6204 0.1246
C7 C -0.3458(5) 0.5342(5) 0.06404(13)
H6 H -0.3903 0.5676 0.0445
C8 C -0.2958(5) 0.4532(5) 0.04521(12)
H7 H -0.3066 0.4334 0.0129
C9 C 0.1307(4) 0.4341(4) 0.06828(11)
C10 C 0.1230(5) 0.5686(5) 0.06964(13)
H8 H 0.0454 0.5567 0.0509
H9 H 0.2076 0.6443 0.0571
H10 H 0.1109 0.5890 0.1018
C11 C 0.1383(5) 0.3940(5) 0.01655(12)
H11 H 0.1433 0.3099 0.0160
H12 H 0.2198 0.4677 0.0016
H13 H 0.0567 0.3793 -0.0002
C12 C 0.2671(4) 0.4652(5) 0.09193(13)
H14 H 0.2669 0.4913 0.1244
H15 H 0.3439 0.5402 0.0755
H16 H 0.2764 0.3836 0.0908
C13 C -0.3390(4) 0.0291(4) 0.10344(12)
C14 C -0.3627(5) -0.0459(5) 0.05509(13)
H17 H -0.3493 0.0180 0.0299
H18 H -0.4560 -0.1237 0.0538
H19 H -0.2975 -0.0784 0.0516
C15 C -0.4456(4) 0.0789(5) 0.10963(13)
H20 H -0.4286 0.1281 0.1391
H21 H -0.5382 -0.0003 0.1097
H22 H -0.4363 0.1398 0.0839
C16 C -0.3739(4) -0.0843(4) 0.14113(13)
H23 H -0.3087 -0.1172 0.1388
H24 H -0.4666 -0.1605 0.1359
H25 H -0.3682 -0.0460 0.1721
C17 C 0.0446(7) 0.0397(6) 0.06805(14)
H26 H 0.1262 0.1067 0.0505
H27 H -0.0322 0.0555 0.0612
C18 C 0.0072(7) -0.1075(6) 0.05579(17)
H28 H -0.0919 -0.1710 0.0598
H29 H 0.0331 -0.1133 0.0234
C19 C 0.0880(8) -0.1391(7) 0.08937(19)
H30 H 0.1631 -0.1435 0.0733
H31 H 0.0290 -0.2278 0.1049
C20 C 0.1460(7) -0.0209(7) 0.12530(17)
H32 H 0.1311 -0.0572 0.1574
H33 H 0.2450 0.0407 0.1204
O1D O -0.0725(3) -0.0229(4) 0.21588(8)
N1D N 0.1907(3) 0.3243(4) 0.22186(9)
N2D N -0.0205(3) 0.2973(4) 0.23779(10)
C1D C 0.1158(4) 0.3654(6) 0.24729(11)
C2D C 0.1817(4) 0.4891(6) 0.28254(11)
H1D H 0.1140 0.4738 0.3070
H2D H 0.2610 0.4906 0.2977
C3D C 0.2295(4) 0.6295(6) 0.26018(11)
C4D C 0.2117(4) 0.6473(6) 0.21200(12)
H3D H 0.1654 0.5696 0.1925
C5D C 0.2625(5) 0.7800(6) 0.19303(13)
H4D H 0.2507 0.7902 0.1609
C6D C 0.3302(5) 0.8967(7) 0.22155(13)
H5D H 0.3649 0.9853 0.2087
C7D C 0.3458(5) 0.8800(7) 0.26929(13)
H6D H 0.3903 0.9579 0.2888
C8D C 0.2958(5) 0.7490(7) 0.28812(12)
H7D H 0.3066 0.7400 0.3204
C9D C -0.1307(4) 0.3034(6) 0.26505(11)
C10D C -0.1230(5) 0.4456(7) 0.26369(13)
H8D H -0.0454 0.5113 0.2824
H9D H -0.2076 0.4367 0.2762
H10D H -0.1109 0.4781 0.2315
C11D C -0.1383(5) 0.2557(7) 0.31678(12)
H11D H -0.1433 0.1666 0.3173
H12D H -0.2198 0.2479 0.3317
H13D H -0.0567 0.3226 0.3335
C12D C -0.2671(4) 0.1981(6) 0.24140(13)
H14D H -0.2669 0.2244 0.2089
H15D H -0.3439 0.1963 0.2578
H16D H -0.2764 0.1072 0.2425
C13D C 0.3390(4) 0.3681(6) 0.22989(12)
C14D C 0.3627(5) 0.3168(7) 0.27824(13)
H17D H 0.3493 0.3673 0.3034
H18D H 0.4560 0.3323 0.2795
H19D H 0.2975 0.2191 0.2817
C15D C 0.4456(4) 0.5245(6) 0.22370(13)
H20D H 0.4286 0.5567 0.1942
H21D H 0.5382 0.5379 0.2236
H22D H 0.4363 0.5761 0.2494
C16D C 0.3739(4) 0.2896(6) 0.19220(13)
H23D H 0.3087 0.1915 0.1945
H24D H 0.4666 0.3061 0.1974
H25D H 0.3682 0.3222 0.1612
C17D C -0.0446(7) -0.0049(9) 0.26528(14)
H26D H -0.1262 -0.0195 0.2828
H27D H 0.0322 0.0877 0.2721
C18D C -0.0072(7) -0.1147(9) 0.27754(17)
H28D H 0.0919 -0.0791 0.2735
H29D H -0.0331 -0.1464 0.3099
C19D C -0.0880(8) -0.2271(11) 0.24396(19)
H30D H -0.1631 -0.3066 0.2600
H31D H -0.0290 -0.2568 0.2284
C20D C -0.1460(7) -0.1669(10) 0.20803(17)
H32D H -0.1311 -0.1883 0.1759
H33D H -0.2450 -0.2043 0.2129
loop_
_geom_bond_atom_site_label_1
_geom_bond_atom_site_label_2
_geom_bond_site_symmetry_1
_geom_bond_site_symmetry_2
Ca1 O1 1_555 1_555
O1 C17 1_555 1_555
N1 Ca1 1_555 1_555
N2 Ca1 1_555 1_555
C1 N1 1_555 1_555
C2 C1 1_555 1_555
H1 C2 1_555 1_555
H2 C2 1_555 1_555
C3 C2 1_555 1_555
C4 C3 1_555 1_555
H3 C4 1_555 1_555
C5 C4 1_555 1_555
H4 C5 1_555 1_555
C6 C5 1_555 1_555
H5 C6 1_555 1_555
C7 C6 1_555 1_555
H6 C7 1_555 1_555
C8 C3 1_555 1_555
H7 C8 1_555 1_555
C9 N2 1_555 1_555
C10 C9 1_555 1_555
H8 C10 1_555 1_555
H9 C10 1_555 1_555
H10 C10 1_555 1_555
C11 C9 1_555 1_555
H11 C11 1_555 1_555
H12 C11 1_555 1_555
H13 C11 1_555 1_555
C12 C9 1_555 1_555
H14 C12 1_555 1_555
H15 C12 1_555 1_555
H16 C12 1_555 1_555
C13 N1 1_555 1_555
C14 C13 1_555 1_555
H17 C14 1_555 1_555
H18 C14 1_555 1_555
H19 C14 1_555 1_555
C15 C13 1_555 1_555
H20 C15 1_555 1_555
H21 C15 1_555 1_555
H22 C15 1_555 1_555
C16 C13 1_555 1_555
H23 C16 1_555 1_555
H24 C16 1_555 1_555
H25 C16 1_555 1_555
C17 H26 1_555 1_555
H27 C17 1_555 1_555
C18 C17 1_555 1_555
H28 C18 1_555 1_555
H29 C18 1_555 1_555
C19 C18 1_555 1_555
H30 C19 1_555 1_555
H31 C19 1_555 1_555
C20 O1 1_555 1_555
H32 C20 1_555 1_555
H33 C20 1_555 1_555
O1D Ca1 1_555 1_555
N1D Ca1 1_555 1_555
N2D Ca1 1_555 1_555
C1D N1D 1_555 1_555
C2D C1D 1_555 1_555
H1D C2D 1_555 1_555
H2D C2D 1_555 1_555
C3D C2D 1_555 1_555
C4D C3D 1_555 1_555
H3D C4D 1_555 1_555
C5D C4D 1_555 1_555
H4D C5D 1_555 1_555
C6D C5D 1_555 1_555
H5D C6D 1_555 1_555
C7D C6D 1_555 1_555
H6D C7D 1_555 1_555
C8D C3D 1_555 1_555
H7D C8D 1_555 1_555
C9D N2D 1_555 1_555
C10D C9D 1_555 1_555
H8D C10D 1_555 1_555
H9D C10D 1_555 1_555
H10D C10D 1_555 1_555
C11D C9D 1_555 1_555
H11D C11D 1_555 1_555
H12D C11D 1_555 1_555
H13D C11D 1_555 1_555
C12D C9D 1_555 1_555
H14D C12D 1_555 1_555
H15D C12D 1_555 1_555
H16D C12D 1_555 1_555
C13D N1D 1_555 1_555
C14D C13D 1_555 1_555
H17D C14D 1_555 1_555
H18D C14D 1_555 1_555
H19D C14D 1_555 1_555
C15D C13D 1_555 1_555
H20D C15D 1_555 1_555
H21D C15D 1_555 1_555
H22D C15D 1_555 1_555
C16D C13D 1_555 1_555
H23D C16D 1_555 1_555
H24D C16D 1_555 1_555
H25D C16D 1_555 1_555
C17D O1D 1_555 1_555
H26D C17D 1_555 1_555
H27D C17D 1_555 1_555
C18D C17D 1_555 1_555
H28D C18D 1_555 1_555
H29D C18D 1_555 1_555
C19D C18D 1_555 1_555
H30D C19D 1_555 1_555
H31D C19D 1_555 1_555
C20D O1D 1_555 1_555
H32D C20D 1_555 1_555
H33D C20D 1_555 1_555
N2 C1 1_555 1_555
C7 C8 1_555 1_555
C19 C20 1_555 1_555
N2D C1D 1_555 1_555
C7D C8D 1_555 1_555
C19D C20D 1_555 1_555

#END
