
#######################################################################
#
#                 Cambridge Crystallographic Data Centre
#                                CCDC 
#
#######################################################################
#
# If this CIF has been generated from an entry in the Cambridge 
# Structural Database, then it will include bibliographic, chemical, 
# crystal, experimental, refinement or atomic coordinate data resulting 
# from the CCDC's data processing and validation procedures.
#
#######################################################################

data_BEFSUD
_chemical_formula_moiety         'C49 H74 Ca1 N2 O4,C4 H8 O1'
_chemical_name_systematic        
"(N,N'-bis(2,6-diisopropylphenyl)-3-phenylprop-2-ene-1,2-diaminato)-tetrakis(tetrahydrofuran)-calcium tetrahydrofuran solvate"
_symmetry_cell_setting           orthorhombic
_symmetry_space_group_name_H-M   'P b c a'
_symmetry_Int_Tables_number      61
_space_group_name_Hall           '-P 2ac 2ab'
loop_
_symmetry_equiv_pos_site_id
_symmetry_equiv_pos_as_xyz
1 x,y,z
2 1/2-x,-y,1/2+z
3 1/2+x,1/2-y,-z
4 -x,1/2+y,1/2-z
5 -x,-y,-z
6 1/2+x,y,1/2-z
7 1/2-x,1/2+y,z
8 x,1/2-y,1/2+z
_cell_length_a                   19.9899(4)
_cell_length_b                   18.8984(4)
_cell_length_c                   26.9075(4)
_cell_angle_alpha                90
_cell_angle_beta                 90
_cell_angle_gamma                90
_cell_volume                     10165
_exptl_crystal_colour            yellow
_exptl_crystal_description       plate
_cell_formula_units_Z            8
loop_
_atom_site_label
_atom_site_type_symbol
_atom_site_fract_x
_atom_site_fract_y
_atom_site_fract_z
Ca1 Ca 0.05869(3) 0.22687(3) 0.65615(2)
O1 O -0.02607(12) 0.18248(15) 0.59751(9)
O2 O -0.04367(11) 0.28418(12) 0.69098(9)
O3 O 0.06062(12) 0.34533(13) 0.61964(10)
O4 O 0.01327(11) 0.14403(11) 0.71642(8)
N1 N 0.14461(12) 0.17953(13) 0.60459(8)
N2 N 0.15908(11) 0.23922(12) 0.69917(8)
C1 C 0.20903(14) 0.19514(14) 0.61733(10)
C2 C 0.21544(13) 0.24006(14) 0.66419(10)
H1 H 0.2551 0.2247 0.6819
H2 H 0.2229 0.2887 0.6541
C3 C 0.26439(14) 0.17327(15) 0.59123(10)
H3 H 0.2555 0.1409 0.5660
C4 C 0.13407(14) 0.14682(17) 0.55750(11)
C5 C 0.11780(16) 0.07443(17) 0.55486(12)
C6 C 0.0957(2) 0.0461(2) 0.50965(13)
H4 H 0.0825 -0.0011 0.5082
C7 C 0.0932(2) 0.0870(2) 0.46709(13)
H5 H 0.0777 0.0677 0.4374
C8 C 0.11383(19) 0.1564(2) 0.46893(12)
H6 H 0.1137 0.1831 0.4399
C9 C 0.13499(16) 0.18771(18) 0.51340(11)
C10 C 0.15952(19) 0.2640(2) 0.51317(12)
H7 H 0.1621 0.2799 0.5478
C11 C 0.1132(2) 0.3147(2) 0.48532(15)
H8 H 0.1150 0.3046 0.4504
H9 H 0.1275 0.3626 0.4910
H10 H 0.0682 0.3089 0.4971
C12 C 0.2300(2) 0.2701(3) 0.49060(17)
H11 H 0.2603 0.2403 0.5087
H12 H 0.2449 0.3183 0.4926
H13 H 0.2288 0.2555 0.4564
C13 C 0.12824(19) 0.02576(18) 0.59947(13)
H14 H 0.1292 0.0555 0.6293
C14 C 0.0738(2) -0.0297(2) 0.60683(16)
H15 H 0.0309 -0.0071 0.6072
H16 H 0.0809 -0.0537 0.6378
H17 H 0.0755 -0.0633 0.5801
C15 C 0.1961(2) -0.0112(2) 0.59557(17)
H18 H 0.1973 -0.0393 0.5658
H19 H 0.2025 -0.0412 0.6240
H20 H 0.2310 0.0236 0.5944
C16 C 0.17753(13) 0.22207(14) 0.74764(10)
C17 C 0.21452(15) 0.15980(15) 0.76070(10)
C18 C 0.23264(16) 0.14771(17) 0.81014(11)
H21 H 0.2584 0.1082 0.8178
C19 C 0.21350(18) 0.19262(19) 0.84796(12)
H22 H 0.2255 0.1832 0.8807
C20 C 0.17605(17) 0.25210(18) 0.83626(11)
H23 H 0.1623 0.2821 0.8617
C21 C 0.15845(14) 0.26805(15) 0.78751(11)
C22 C 0.12520(15) 0.33817(16) 0.77538(11)
H24 H 0.0948 0.3302 0.7474
C23 C 0.17813(18) 0.39172(17) 0.75855(14)
H25 H 0.2081 0.4015 0.7856
H26 H 0.1566 0.4347 0.7484
H27 H 0.2029 0.3725 0.7312
C24 C 0.08412(19) 0.3695(2) 0.81791(14)
H28 H 0.0526 0.3349 0.8296
H29 H 0.0605 0.4105 0.8063
H30 H 0.1134 0.3827 0.8446
C25 C 0.20240(19) 0.03098(17) 0.73789(14)
H31 H 0.2220 0.0158 0.7687
H32 H 0.2117 -0.0032 0.7125
H33 H 0.1549 0.0355 0.7419
C26 C 0.23204(15) 0.10277(15) 0.72294(11)
H34 H 0.2121 0.1164 0.6911
C27 C 0.30768(16) 0.09518(18) 0.71512(13)
H35 H 0.3257 0.1393 0.7035
H36 H 0.3161 0.0589 0.6909
H37 H 0.3286 0.0826 0.7460
C28 C 0.33441(14) 0.19219(15) 0.59642(10)
C29 C 0.38265(16) 0.14916(17) 0.57307(12)
H38 H 0.3684 0.1095 0.5556
C30 C 0.45055(17) 0.1639(2) 0.57526(15)
H39 H 0.4809 0.1337 0.5599
C31 C 0.47345(17) 0.22323(19) 0.60014(15)
H40 H 0.5190 0.2331 0.6019
C32 C 0.42729(16) 0.26733(18) 0.62219(13)
H41 H 0.4421 0.3076 0.6387
C33 C 0.35928(15) 0.25301(16) 0.62028(11)
H42 H 0.3294 0.2843 0.6351
C34 C -0.0683(2) 0.1209(2) 0.59853(15)
H43 H -0.0881 0.1148 0.6312
H44 H -0.0429 0.0788 0.5903
C35 C -0.1214(2) 0.1343(2) 0.56037(15)
H45 H -0.1587 0.1604 0.5743
H46 H -0.1377 0.0904 0.5461
C36 C -0.0840(3) 0.1779(3) 0.52244(18)
H47 H -0.0618 0.1475 0.4985
H48 H -0.1143 0.2091 0.5048
C37 C -0.0368(3) 0.2172(3) 0.55000(17)
H49 H -0.0532 0.2649 0.5553
H50 H 0.0050 0.2200 0.5318
C38 C -0.11106(16) 0.25561(19) 0.68647(15)
H51 H -0.1113 0.2052 0.6934
H52 H -0.1284 0.2632 0.6532
C39 C -0.15245(19) 0.2950(2) 0.72420(18)
H53 H -0.1972 0.3037 0.7117
H54 H -0.1556 0.2685 0.7550
C40 C -0.1168(2) 0.3614(2) 0.7318(2)
H55 H -0.1330 0.3974 0.7092
H56 H -0.1227 0.3780 0.7656
C41 C -0.04675(19) 0.3457(2) 0.72209(19)
H57 H -0.0257 0.3856 0.7056
H58 H -0.0234 0.3370 0.7531
C42 C 0.0088(2) 0.3856(2) 0.59522(19)
H59 H -0.0324 0.3838 0.6143
H60 H 0.0002 0.3668 0.5623
C43 C 0.0335(3) 0.4593(2) 0.5919(2)
H61 H 0.0319 0.4757 0.5578
H62 H 0.0061 0.4904 0.6121
C44 C 0.1007(3) 0.4588(3) 0.6096(3)
H63 H 0.1307 0.4745 0.5835
H64 H 0.1050 0.4910 0.6375
C45 C 0.1182(2) 0.3901(2) 0.62454(19)
H65 H 0.1332 0.3905 0.6588
H66 H 0.1543 0.3724 0.6039
C46 C 0.00554(19) 0.16833(18) 0.76737(12)
H67 H -0.0410 0.1782 0.7747
H68 H 0.0316 0.2109 0.7731
C47 C 0.0308(2) 0.1085(2) 0.79871(14)
H69 H 0.0107 0.1091 0.8315
H70 H 0.0791 0.1102 0.8021
C48 C 0.0090(2) 0.0442(2) 0.76953(16)
H71 H 0.0391 0.0047 0.7750
H72 H -0.0360 0.0301 0.7785
C49 C 0.0120(3) 0.0690(2) 0.71630(15)
H73 H 0.0518 0.0506 0.7003
H74 H -0.0268 0.0521 0.6982
O5 O 0.3548(2) 0.0678(3) 0.39662(19)
C50 C 0.3122(4) 0.1031(4) 0.4301(4)
H75 H 0.2784 0.1300 0.4125
H76 H 0.3374 0.1350 0.4513
C51 C 0.2817(4) 0.0463(5) 0.4593(2)
H77 H 0.3106 0.0313 0.4863
H78 H 0.2387 0.0606 0.4728
C52 C 0.2743(4) -0.0082(4) 0.4227(3)
H79 H 0.2349 -0.0005 0.4024
H80 H 0.2716 -0.0545 0.4380
C53 C 0.3345(4) -0.0008(4) 0.3940(3)
H81 H 0.3690 -0.0318 0.4070
H82 H 0.3261 -0.0138 0.3596
loop_
_geom_bond_atom_site_label_1
_geom_bond_atom_site_label_2
_geom_bond_site_symmetry_1
_geom_bond_site_symmetry_2
Ca1 O1 1_555 1_555
O1 C34 1_555 1_555
O2 Ca1 1_555 1_555
O3 Ca1 1_555 1_555
O4 Ca1 1_555 1_555
N1 Ca1 1_555 1_555
N2 Ca1 1_555 1_555
C1 N1 1_555 1_555
C2 N2 1_555 1_555
H1 C2 1_555 1_555
H2 C2 1_555 1_555
C3 C1 1_555 1_555
H3 C3 1_555 1_555
C4 N1 1_555 1_555
C5 C4 1_555 1_555
C6 C5 1_555 1_555
H4 C6 1_555 1_555
C7 C6 1_555 1_555
H5 C7 1_555 1_555
C8 C7 1_555 1_555
H6 C8 1_555 1_555
C9 C4 1_555 1_555
C10 C9 1_555 1_555
H7 C10 1_555 1_555
C11 C10 1_555 1_555
H8 C11 1_555 1_555
H9 C11 1_555 1_555
H10 C11 1_555 1_555
C12 C10 1_555 1_555
H11 C12 1_555 1_555
H12 C12 1_555 1_555
H13 C12 1_555 1_555
C13 C5 1_555 1_555
H14 C13 1_555 1_555
C14 C13 1_555 1_555
H15 C14 1_555 1_555
H16 C14 1_555 1_555
H17 C14 1_555 1_555
C15 C13 1_555 1_555
H18 C15 1_555 1_555
H19 C15 1_555 1_555
H20 C15 1_555 1_555
C16 N2 1_555 1_555
C17 C16 1_555 1_555
C18 C17 1_555 1_555
H21 C18 1_555 1_555
C19 C18 1_555 1_555
H22 C19 1_555 1_555
C20 C19 1_555 1_555
H23 C20 1_555 1_555
C21 C16 1_555 1_555
C22 C21 1_555 1_555
H24 C22 1_555 1_555
C23 C22 1_555 1_555
H25 C23 1_555 1_555
H26 C23 1_555 1_555
H27 C23 1_555 1_555
C24 C22 1_555 1_555
H28 C24 1_555 1_555
H29 C24 1_555 1_555
H30 C24 1_555 1_555
C25 H31 1_555 1_555
H32 C25 1_555 1_555
H33 C25 1_555 1_555
C26 C17 1_555 1_555
H34 C26 1_555 1_555
C27 C26 1_555 1_555
H35 C27 1_555 1_555
H36 C27 1_555 1_555
H37 C27 1_555 1_555
C28 C3 1_555 1_555
C29 C28 1_555 1_555
H38 C29 1_555 1_555
C30 C29 1_555 1_555
H39 C30 1_555 1_555
C31 C30 1_555 1_555
H40 C31 1_555 1_555
C32 C31 1_555 1_555
H41 C32 1_555 1_555
C33 C28 1_555 1_555
H42 C33 1_555 1_555
C34 H43 1_555 1_555
H44 C34 1_555 1_555
C35 C34 1_555 1_555
H45 C35 1_555 1_555
H46 C35 1_555 1_555
C36 C35 1_555 1_555
H47 C36 1_555 1_555
H48 C36 1_555 1_555
C37 O1 1_555 1_555
H49 C37 1_555 1_555
H50 C37 1_555 1_555
C38 O2 1_555 1_555
H51 C38 1_555 1_555
H52 C38 1_555 1_555
C39 C38 1_555 1_555
H53 C39 1_555 1_555
H54 C39 1_555 1_555
C40 C39 1_555 1_555
H55 C40 1_555 1_555
H56 C40 1_555 1_555
C41 O2 1_555 1_555
H57 C41 1_555 1_555
H58 C41 1_555 1_555
C42 O3 1_555 1_555
H59 C42 1_555 1_555
H60 C42 1_555 1_555
C43 C42 1_555 1_555
H61 C43 1_555 1_555
H62 C43 1_555 1_555
C44 C43 1_555 1_555
H63 C44 1_555 1_555
H64 C44 1_555 1_555
C45 O3 1_555 1_555
H65 C45 1_555 1_555
H66 C45 1_555 1_555
C46 O4 1_555 1_555
H67 C46 1_555 1_555
H68 C46 1_555 1_555
C47 C46 1_555 1_555
H69 C47 1_555 1_555
H70 C47 1_555 1_555
C48 C47 1_555 1_555
H71 C48 1_555 1_555
H72 C48 1_555 1_555
C49 O4 1_555 1_555
H73 C49 1_555 1_555
H74 C49 1_555 1_555
O5 C50 1_555 1_555
C50 H75 1_555 1_555
H76 C50 1_555 1_555
C51 C50 1_555 1_555
H77 C51 1_555 1_555
H78 C51 1_555 1_555
C52 C51 1_555 1_555
H79 C52 1_555 1_555
H80 C52 1_555 1_555
C53 O5 1_555 1_555
H81 C53 1_555 1_555
H82 C53 1_555 1_555
C1 C2 1_555 1_555
C8 C9 1_555 1_555
C20 C21 1_555 1_555
C25 C26 1_555 1_555
C32 C33 1_555 1_555
C36 C37 1_555 1_555
C40 C41 1_555 1_555
C44 C45 1_555 1_555
C48 C49 1_555 1_555
C52 C53 1_555 1_555

#END
