
#######################################################################
#
#                 Cambridge Crystallographic Data Centre
#                                CCDC 
#
#######################################################################
#
# If this CIF has been generated from an entry in the Cambridge 
# Structural Database, then it will include bibliographic, chemical, 
# crystal, experimental, refinement or atomic coordinate data resulting 
# from the CCDC's data processing and validation procedures.
#
#######################################################################

data_BEFSOX
_chemical_formula_moiety         'C48 H74 Ca1 N4 O2'
_chemical_name_systematic        
bis(N,N'-dicyclohexylphenylacetamidinato)-bis(tetrahydrofuran)-calcium
_symmetry_cell_setting           triclinic
_symmetry_space_group_name_H-M   'P -1'
_symmetry_Int_Tables_number      2
_space_group_name_Hall           '-P 1'
loop_
_symmetry_equiv_pos_site_id
_symmetry_equiv_pos_as_xyz
1 x,y,z
2 -x,-y,-z
_cell_length_a                   10.2008(8)
_cell_length_b                   10.6338(7)
_cell_length_c                   21.7041(14)
_cell_angle_alpha                100.861(6)
_cell_angle_beta                 95.791(6)
_cell_angle_gamma                94.498(6)
_cell_volume                     2288.88
_exptl_crystal_colour            colorless
_exptl_crystal_description       chunk
_cell_formula_units_Z            2
loop_
_atom_site_label
_atom_site_type_symbol
_atom_site_fract_x
_atom_site_fract_y
_atom_site_fract_z
Ca1 Ca 0.5000 0.0000 0.5000
N1 N 0.4144(3) -0.1437(2) 0.40144(13)
N2 N 0.5250(3) 0.0452(2) 0.39562(12)
O1 O 0.2941(3) 0.0968(4) 0.49660(12)
C1 C 0.4630(3) -0.0671(3) 0.36522(15)
C2 C 0.4489(3) -0.1076(3) 0.29283(14)
H1 H 0.3804 -0.1789 0.2794
H2 H 0.4215 -0.0364 0.2742
C3 C 0.5765(3) -0.1473(3) 0.26895(14)
C4 C 0.6363(3) -0.0854(3) 0.22630(15)
H3 H 0.5965 -0.0188 0.2120
C5 C 0.7540(4) -0.1211(4) 0.20476(18)
H4 H 0.7929 -0.0784 0.1766
C6 C 0.8132(4) -0.2208(4) 0.22547(18)
H5 H 0.8924 -0.2451 0.2114
C7 C 0.7539(4) -0.2842(3) 0.26726(18)
H6 H 0.7934 -0.3514 0.2811
C8 C 0.6367(3) -0.2484(3) 0.28845(16)
H7 H 0.5975 -0.2923 0.3161
C9 C 0.3392(3) -0.2682(3) 0.37693(15)
H8 H 0.3725 -0.3089 0.3380
C10 C 0.1906(4) -0.2563(3) 0.36330(19)
H9 H 0.1604 -0.2066 0.4005
H10 H 0.1766 -0.2098 0.3292
C11 C 0.1080(4) -0.3867(4) 0.3452(2)
H11 H 0.0149 -0.3735 0.3401
H12 H 0.1298 -0.4321 0.3050
C12 C 0.1324(4) -0.4683(4) 0.3946(2)
H13 H 0.0996 -0.4287 0.4333
H14 H 0.0845 -0.5528 0.3799
C13 C 0.2780(4) -0.4819(3) 0.4078(2)
H15 H 0.3079 -0.5312 0.3704
H16 H 0.2916 -0.5288 0.4417
C14 C 0.3599(4) -0.3515(3) 0.42618(18)
H17 H 0.3366 -0.3062 0.4661
H18 H 0.4529 -0.3648 0.4322
C15 C 0.5885(3) 0.1372(3) 0.36352(16)
H19 H 0.5642 0.1085 0.3179
C16 C 0.7393(3) 0.1461(3) 0.37778(18)
H20 H 0.7634 0.1647 0.4232
H21 H 0.7694 0.0635 0.3611
C17 C 0.8096(4) 0.2496(3) 0.34937(19)
H22 H 0.9042 0.2548 0.3619
H23 H 0.7943 0.2258 0.3037
C18 C 0.7611(4) 0.3807(4) 0.3707(2)
H24 H 0.8030 0.4426 0.3494
H25 H 0.7856 0.4094 0.4158
C19 C 0.6115(4) 0.3739(3) 0.35573(18)
H26 H 0.5882 0.3555 0.3103
H27 H 0.5820 0.4568 0.3723
C20 C 0.5403(4) 0.2706(3) 0.38391(16)
H28 H 0.4460 0.2657 0.3709
H29 H 0.5544 0.2951 0.4296
C21 C 0.2124(5) 0.1143(5) 0.4419(2)
H30 H 0.2641 0.1585 0.4158
H31 H 0.1740 0.0318 0.4169
C22 C 0.1121(7) 0.1888(9) 0.4641(3)
H32 H 0.0263 0.1388 0.4547
H33 H 0.1085 0.2643 0.4451
C23 C 0.1512(12) 0.2262(12) 0.5335(3)
H34 H 0.1823 0.3170 0.5446
H35 H 0.0749 0.2118 0.5555
C24 C 0.2423(5) 0.1606(6) 0.5507(2)
H36 H 0.2068 0.0981 0.5735
H37 H 0.3121 0.2169 0.5786
N1A N 0.5856(3) 0.1437(2) 0.59856(13)
N2A N 0.4750(3) -0.0452(2) 0.60438(12)
O1A O 0.7059(3) -0.0968(4) 0.50340(12)
C1A C 0.5370(3) 0.0671(3) 0.63478(15)
C2A C 0.5511(3) 0.1076(3) 0.70717(14)
H1A H 0.6196 0.1789 0.7206
H2A H 0.5785 0.0364 0.7258
C3A C 0.4235(3) 0.1473(3) 0.73105(14)
C4A C 0.3637(3) 0.0854(3) 0.77370(15)
H3A H 0.4035 0.0188 0.7880
C5A C 0.2460(4) 0.1211(4) 0.79524(18)
H4A H 0.2071 0.0784 0.8234
C6A C 0.1868(4) 0.2208(4) 0.77453(18)
H5A H 0.1076 0.2451 0.7886
C7A C 0.2461(4) 0.2842(3) 0.73274(18)
H6A H 0.2066 0.3514 0.7189
C8A C 0.3633(3) 0.2484(3) 0.71155(16)
H7A H 0.4025 0.2923 0.6839
C9A C 0.6608(3) 0.2682(3) 0.62307(15)
H8A H 0.6275 0.3089 0.6620
C10A C 0.8094(4) 0.2563(3) 0.63670(19)
H9A H 0.8396 0.2066 0.5995
H10A H 0.8234 0.2098 0.6708
C11A C 0.8920(4) 0.3867(4) 0.6548(2)
H11A H 0.9851 0.3735 0.6599
H12A H 0.8702 0.4321 0.6950
C12A C 0.8676(4) 0.4683(4) 0.6054(2)
H13A H 0.9004 0.4287 0.5667
H14A H 0.9155 0.5528 0.6201
C13A C 0.7220(4) 0.4819(3) 0.5922(2)
H15A H 0.6921 0.5312 0.6296
H16A H 0.7084 0.5288 0.5583
C14A C 0.6401(4) 0.3515(3) 0.57382(18)
H17A H 0.6634 0.3062 0.5339
H18A H 0.5471 0.3648 0.5678
C15A C 0.4115(3) -0.1372(3) 0.63648(16)
H19A H 0.4358 -0.1085 0.6821
C16A C 0.2607(3) -0.1461(3) 0.62222(18)
H20A H 0.2366 -0.1647 0.5768
H21A H 0.2306 -0.0635 0.6389
C17A C 0.1904(4) -0.2496(3) 0.65063(19)
H22A H 0.0958 -0.2548 0.6381
H23A H 0.2057 -0.2258 0.6963
C18A C 0.2389(4) -0.3807(4) 0.6293(2)
H24A H 0.1970 -0.4426 0.6506
H25A H 0.2144 -0.4094 0.5842
C19A C 0.3885(4) -0.3739(3) 0.64427(18)
H26A H 0.4118 -0.3555 0.6897
H27A H 0.4180 -0.4568 0.6277
C20A C 0.4597(4) -0.2706(3) 0.61609(16)
H28A H 0.5540 -0.2657 0.6291
H29A H 0.4456 -0.2951 0.5704
C21A C 0.7876(5) -0.1143(5) 0.5581(2)
H30A H 0.7359 -0.1585 0.5842
H31A H 0.8260 -0.0318 0.5831
C22A C 0.8879(7) -0.1888(9) 0.5359(3)
H32A H 0.9737 -0.1388 0.5453
H33A H 0.8915 -0.2643 0.5549
C23A C 0.8488(12) -0.2262(12) 0.4665(3)
H34A H 0.8177 -0.3170 0.4554
H35A H 0.9251 -0.2118 0.4445
C24A C 0.7577(5) -0.1606(6) 0.4493(2)
H36A H 0.7932 -0.0981 0.4265
H37A H 0.6879 -0.2169 0.4214
Ca2 Ca 0.0000 0.0000 0.0000
N3 N 0.1588(3) -0.0184(2) 0.08722(12)
N4 N 0.1726(3) -0.1460(2) -0.00750(12)
O2 O -0.1546(2) -0.1657(2) 0.02452(12)
C25 C 0.2248(3) -0.1033(3) 0.05223(15)
C26 C 0.3524(3) -0.1497(3) 0.07985(15)
H38 H 0.4058 -0.1751 0.0459
H39 H 0.4023 -0.0783 0.1096
C27 C 0.3308(4) -0.2612(3) 0.11310(15)
C28 C 0.4357(4) -0.3318(3) 0.12676(18)
H40 H 0.5175 -0.3131 0.1134
C29 C 0.4186(6) -0.4300(4) 0.1603(2)
H41 H 0.4891 -0.4771 0.1686
C30 C 0.2997(6) -0.4585(4) 0.1812(2)
H42 H 0.2901 -0.5230 0.2045
C31 C 0.1937(5) -0.3903(4) 0.1674(2)
H43 H 0.1120 -0.4104 0.1805
C32 C 0.2101(4) -0.2918(3) 0.13395(17)
H44 H 0.1390 -0.2456 0.1254
C33 C 0.1973(3) 0.0306(3) 0.15436(15)
H45 H 0.2588 -0.0254 0.1703
C34 C 0.0749(4) 0.0264(3) 0.18834(16)
H46 H 0.0360 -0.0620 0.1816
H47 H 0.0106 0.0757 0.1701
C35 C 0.1036(4) 0.0798(4) 0.25929(17)
H48 H 0.0214 0.0791 0.2781
H49 H 0.1604 0.0254 0.2786
C36 C 0.1704(5) 0.2157(4) 0.27216(18)
H50 H 0.1944 0.2450 0.3173
H51 H 0.1094 0.2723 0.2576
C37 C 0.2945(4) 0.2216(3) 0.23845(18)
H52 H 0.3596 0.1734 0.2568
H53 H 0.3321 0.3104 0.2448
C38 C 0.2646(4) 0.1667(3) 0.16750(17)
H54 H 0.2080 0.2212 0.1482
H55 H 0.3467 0.1671 0.1485
C39 C 0.2331(3) -0.2361(3) -0.05270(15)
H56 H 0.2959 -0.2803 -0.0293
C40 C 0.3075(4) -0.1669(3) -0.09588(18)
H57 H 0.3820 -0.1121 -0.0708
H58 H 0.2493 -0.1120 -0.1138
C41 C 0.3588(4) -0.2568(3) -0.14954(19)
H59 H 0.3955 -0.2065 -0.1778
H60 H 0.4293 -0.3007 -0.1322
C42 C 0.2505(4) -0.3555(4) -0.18652(18)
H61 H 0.1867 -0.3126 -0.2092
H62 H 0.2886 -0.4160 -0.2173
C43 C 0.1813(4) -0.4271(4) -0.1442(2)
H63 H 0.2428 -0.4782 -0.1254
H64 H 0.1090 -0.4853 -0.1690
C44 C 0.1270(4) -0.3358(3) -0.09181(18)
H65 H 0.0582 -0.2919 -0.1106
H66 H 0.0871 -0.3857 -0.0642
C45 C -0.1199(4) -0.2870(3) 0.03713(17)
H67 H -0.1252 -0.2907 0.0811
H68 H -0.0306 -0.3006 0.0276
C46 C -0.2184(5) -0.3862(4) -0.0051(2)
H69 H -0.2405 -0.4569 0.0156
H70 H -0.1833 -0.4200 -0.0441
C47 C -0.3389(4) -0.3169(3) -0.0182(2)
H71 H -0.4134 -0.3502 0.0005
H72 H -0.3637 -0.3264 -0.0633
C48 C -0.2970(3) -0.1770(3) 0.01205(19)
H73 H -0.3248 -0.1212 -0.0163
H74 H -0.3361 -0.1535 0.0510
N3A N -0.1588(3) 0.0184(2) -0.08722(12)
N4A N -0.1726(3) 0.1460(2) 0.00750(12)
O2A O 0.1546(2) 0.1657(2) -0.02452(12)
C25A C -0.2248(3) 0.1033(3) -0.05223(15)
C26A C -0.3524(3) 0.1497(3) -0.07985(15)
H38A H -0.4058 0.1751 -0.0459
H39A H -0.4023 0.0783 -0.1096
C27A C -0.3308(4) 0.2612(3) -0.11310(15)
C28A C -0.4357(4) 0.3318(3) -0.12676(18)
H40A H -0.5175 0.3131 -0.1134
C29A C -0.4186(6) 0.4300(4) -0.1603(2)
H41A H -0.4891 0.4771 -0.1686
C30A C -0.2997(6) 0.4585(4) -0.1812(2)
H42A H -0.2901 0.5230 -0.2045
C31A C -0.1937(5) 0.3903(4) -0.1674(2)
H43A H -0.1120 0.4104 -0.1805
C32A C -0.2101(4) 0.2918(3) -0.13395(17)
H44A H -0.1390 0.2456 -0.1254
C33A C -0.1973(3) -0.0306(3) -0.15436(15)
H45A H -0.2588 0.0254 -0.1703
C34A C -0.0749(4) -0.0264(3) -0.18834(16)
H46A H -0.0360 0.0620 -0.1816
H47A H -0.0106 -0.0757 -0.1701
C35A C -0.1036(4) -0.0798(4) -0.25929(17)
H48A H -0.0214 -0.0791 -0.2781
H49A H -0.1604 -0.0254 -0.2786
C36A C -0.1704(5) -0.2157(4) -0.27216(18)
H50A H -0.1944 -0.2450 -0.3173
H51A H -0.1094 -0.2723 -0.2576
C37A C -0.2945(4) -0.2216(3) -0.23845(18)
H52A H -0.3596 -0.1734 -0.2568
H53A H -0.3321 -0.3104 -0.2448
C38A C -0.2646(4) -0.1667(3) -0.16750(17)
H54A H -0.2080 -0.2212 -0.1482
H55A H -0.3467 -0.1671 -0.1485
C39A C -0.2331(3) 0.2361(3) 0.05270(15)
H56A H -0.2959 0.2803 0.0293
C40A C -0.3075(4) 0.1669(3) 0.09588(18)
H57A H -0.3820 0.1121 0.0708
H58A H -0.2493 0.1120 0.1138
C41A C -0.3588(4) 0.2568(3) 0.14954(19)
H59A H -0.3955 0.2065 0.1778
H60A H -0.4293 0.3007 0.1322
C42A C -0.2505(4) 0.3555(4) 0.18652(18)
H61A H -0.1867 0.3126 0.2092
H62A H -0.2886 0.4160 0.2173
C43A C -0.1813(4) 0.4271(4) 0.1442(2)
H63A H -0.2428 0.4782 0.1254
H64A H -0.1090 0.4853 0.1690
C44A C -0.1270(4) 0.3358(3) 0.09181(18)
H65A H -0.0582 0.2919 0.1106
H66A H -0.0871 0.3857 0.0642
C45A C 0.1199(4) 0.2870(3) -0.03713(17)
H67A H 0.1252 0.2907 -0.0811
H68A H 0.0306 0.3006 -0.0276
C46A C 0.2184(5) 0.3862(4) 0.0051(2)
H69A H 0.2405 0.4569 -0.0156
H70A H 0.1833 0.4200 0.0441
C47A C 0.3389(4) 0.3169(3) 0.0182(2)
H71A H 0.4134 0.3502 -0.0005
H72A H 0.3637 0.3264 0.0633
C48A C 0.2970(3) 0.1770(3) -0.01205(19)
H73A H 0.3248 0.1212 0.0163
H74A H 0.3361 0.1535 -0.0510
loop_
_geom_bond_atom_site_label_1
_geom_bond_atom_site_label_2
_geom_bond_site_symmetry_1
_geom_bond_site_symmetry_2
Ca1 N1 1_555 1_555
N1 C1 1_555 1_555
N2 Ca1 1_555 1_555
O1 Ca1 1_555 1_555
C1 N2 1_555 1_555
C2 C1 1_555 1_555
H1 C2 1_555 1_555
H2 C2 1_555 1_555
C3 C2 1_555 1_555
C4 C3 1_555 1_555
H3 C4 1_555 1_555
C5 C4 1_555 1_555
H4 C5 1_555 1_555
C6 C5 1_555 1_555
H5 C6 1_555 1_555
C7 C6 1_555 1_555
H6 C7 1_555 1_555
C8 C3 1_555 1_555
H7 C8 1_555 1_555
C9 N1 1_555 1_555
H8 C9 1_555 1_555
C10 C9 1_555 1_555
H9 C10 1_555 1_555
H10 C10 1_555 1_555
C11 C10 1_555 1_555
H11 C11 1_555 1_555
H12 C11 1_555 1_555
C12 C11 1_555 1_555
H13 C12 1_555 1_555
H14 C12 1_555 1_555
C13 C12 1_555 1_555
H15 C13 1_555 1_555
H16 C13 1_555 1_555
C14 C9 1_555 1_555
H17 C14 1_555 1_555
H18 C14 1_555 1_555
C15 N2 1_555 1_555
H19 C15 1_555 1_555
C16 C15 1_555 1_555
H20 C16 1_555 1_555
H21 C16 1_555 1_555
C17 C16 1_555 1_555
H22 C17 1_555 1_555
H23 C17 1_555 1_555
C18 C17 1_555 1_555
H24 C18 1_555 1_555
H25 C18 1_555 1_555
C19 C18 1_555 1_555
H26 C19 1_555 1_555
H27 C19 1_555 1_555
C20 C15 1_555 1_555
H28 C20 1_555 1_555
H29 C20 1_555 1_555
C21 O1 1_555 1_555
H30 C21 1_555 1_555
H31 C21 1_555 1_555
C22 C21 1_555 1_555
H32 C22 1_555 1_555
H33 C22 1_555 1_555
C23 C22 1_555 1_555
H34 C23 1_555 1_555
H35 C23 1_555 1_555
C24 O1 1_555 1_555
H36 C24 1_555 1_555
H37 C24 1_555 1_555
Ca2 N3 1_555 1_555
N3 C25 1_555 1_555
N4 Ca2 1_555 1_555
O2 Ca2 1_555 1_555
C25 N4 1_555 1_555
C26 C25 1_555 1_555
H38 C26 1_555 1_555
H39 C26 1_555 1_555
C27 C26 1_555 1_555
C28 C27 1_555 1_555
H40 C28 1_555 1_555
C29 C28 1_555 1_555
H41 C29 1_555 1_555
C30 C29 1_555 1_555
H42 C30 1_555 1_555
C31 C30 1_555 1_555
H43 C31 1_555 1_555
C32 C27 1_555 1_555
H44 C32 1_555 1_555
C33 N3 1_555 1_555
H45 C33 1_555 1_555
C34 C33 1_555 1_555
H46 C34 1_555 1_555
H47 C34 1_555 1_555
C35 C34 1_555 1_555
H48 C35 1_555 1_555
H49 C35 1_555 1_555
C36 C35 1_555 1_555
H50 C36 1_555 1_555
H51 C36 1_555 1_555
C37 C36 1_555 1_555
H52 C37 1_555 1_555
H53 C37 1_555 1_555
C38 C33 1_555 1_555
H54 C38 1_555 1_555
H55 C38 1_555 1_555
C39 N4 1_555 1_555
H56 C39 1_555 1_555
C40 C39 1_555 1_555
H57 C40 1_555 1_555
H58 C40 1_555 1_555
C41 C40 1_555 1_555
H59 C41 1_555 1_555
H60 C41 1_555 1_555
C42 C41 1_555 1_555
H61 C42 1_555 1_555
H62 C42 1_555 1_555
C43 C42 1_555 1_555
H63 C43 1_555 1_555
H64 C43 1_555 1_555
C44 C39 1_555 1_555
H65 C44 1_555 1_555
H66 C44 1_555 1_555
C45 O2 1_555 1_555
H67 C45 1_555 1_555
H68 C45 1_555 1_555
C46 C45 1_555 1_555
H69 C46 1_555 1_555
H70 C46 1_555 1_555
C47 C46 1_555 1_555
H71 C47 1_555 1_555
H72 C47 1_555 1_555
C48 O2 1_555 1_555
H73 C48 1_555 1_555
H74 C48 1_555 1_555
N1A Ca1 1_555 1_555
N2A Ca1 1_555 1_555
O1A Ca1 1_555 1_555
C1A N1A 1_555 1_555
C2A C1A 1_555 1_555
H1A C2A 1_555 1_555
H2A C2A 1_555 1_555
C3A C2A 1_555 1_555
C4A C3A 1_555 1_555
H3A C4A 1_555 1_555
C5A C4A 1_555 1_555
H4A C5A 1_555 1_555
C6A C5A 1_555 1_555
H5A C6A 1_555 1_555
C7A C6A 1_555 1_555
H6A C7A 1_555 1_555
C8A C3A 1_555 1_555
H7A C8A 1_555 1_555
C9A N1A 1_555 1_555
H8A C9A 1_555 1_555
C10A C9A 1_555 1_555
H9A C10A 1_555 1_555
H10A C10A 1_555 1_555
C11A C10A 1_555 1_555
H11A C11A 1_555 1_555
H12A C11A 1_555 1_555
C12A C11A 1_555 1_555
H13A C12A 1_555 1_555
H14A C12A 1_555 1_555
C13A C12A 1_555 1_555
H15A C13A 1_555 1_555
H16A C13A 1_555 1_555
C14A C9A 1_555 1_555
H17A C14A 1_555 1_555
H18A C14A 1_555 1_555
C15A N2A 1_555 1_555
H19A C15A 1_555 1_555
C16A C15A 1_555 1_555
H20A C16A 1_555 1_555
H21A C16A 1_555 1_555
C17A C16A 1_555 1_555
H22A C17A 1_555 1_555
H23A C17A 1_555 1_555
C18A C17A 1_555 1_555
H24A C18A 1_555 1_555
H25A C18A 1_555 1_555
C19A C18A 1_555 1_555
H26A C19A 1_555 1_555
H27A C19A 1_555 1_555
C20A C15A 1_555 1_555
H28A C20A 1_555 1_555
H29A C20A 1_555 1_555
C21A O1A 1_555 1_555
H30A C21A 1_555 1_555
H31A C21A 1_555 1_555
C22A C21A 1_555 1_555
H32A C22A 1_555 1_555
H33A C22A 1_555 1_555
C23A C22A 1_555 1_555
H34A C23A 1_555 1_555
H35A C23A 1_555 1_555
C24A O1A 1_555 1_555
H36A C24A 1_555 1_555
H37A C24A 1_555 1_555
N3A Ca2 1_555 1_555
N4A Ca2 1_555 1_555
O2A Ca2 1_555 1_555
C25A N3A 1_555 1_555
C26A C25A 1_555 1_555
H38A C26A 1_555 1_555
H39A C26A 1_555 1_555
C27A C26A 1_555 1_555
C28A C27A 1_555 1_555
H40A C28A 1_555 1_555
C29A C28A 1_555 1_555
H41A C29A 1_555 1_555
C30A C29A 1_555 1_555
H42A C30A 1_555 1_555
C31A C30A 1_555 1_555
H43A C31A 1_555 1_555
C32A C27A 1_555 1_555
H44A C32A 1_555 1_555
C33A N3A 1_555 1_555
H45A C33A 1_555 1_555
C34A C33A 1_555 1_555
H46A C34A 1_555 1_555
H47A C34A 1_555 1_555
C35A C34A 1_555 1_555
H48A C35A 1_555 1_555
H49A C35A 1_555 1_555
C36A C35A 1_555 1_555
H50A C36A 1_555 1_555
H51A C36A 1_555 1_555
C37A C36A 1_555 1_555
H52A C37A 1_555 1_555
H53A C37A 1_555 1_555
C38A C33A 1_555 1_555
H54A C38A 1_555 1_555
H55A C38A 1_555 1_555
C39A N4A 1_555 1_555
H56A C39A 1_555 1_555
C40A C39A 1_555 1_555
H57A C40A 1_555 1_555
H58A C40A 1_555 1_555
C41A C40A 1_555 1_555
H59A C41A 1_555 1_555
H60A C41A 1_555 1_555
C42A C41A 1_555 1_555
H61A C42A 1_555 1_555
H62A C42A 1_555 1_555
C43A C42A 1_555 1_555
H63A C43A 1_555 1_555
H64A C43A 1_555 1_555
C44A C39A 1_555 1_555
H65A C44A 1_555 1_555
H66A C44A 1_555 1_555
C45A O2A 1_555 1_555
H67A C45A 1_555 1_555
H68A C45A 1_555 1_555
C46A C45A 1_555 1_555
H69A C46A 1_555 1_555
H70A C46A 1_555 1_555
C47A C46A 1_555 1_555
H71A C47A 1_555 1_555
H72A C47A 1_555 1_555
C48A O2A 1_555 1_555
H73A C48A 1_555 1_555
H74A C48A 1_555 1_555
C7 C8 1_555 1_555
C13 C14 1_555 1_555
C19 C20 1_555 1_555
C23 C24 1_555 1_555
C31 C32 1_555 1_555
C37 C38 1_555 1_555
C43 C44 1_555 1_555
C47 C48 1_555 1_555
N2A C1A 1_555 1_555
C7A C8A 1_555 1_555
C13A C14A 1_555 1_555
C19A C20A 1_555 1_555
C23A C24A 1_555 1_555
N4A C25A 1_555 1_555
C31A C32A 1_555 1_555
C37A C38A 1_555 1_555
C43A C44A 1_555 1_555
C47A C48A 1_555 1_555

#END
