
#######################################################################
#
#                 Cambridge Crystallographic Data Centre
#                                CCDC 
#
#######################################################################
#
# If this CIF has been generated from an entry in the Cambridge 
# Structural Database, then it will include bibliographic, chemical, 
# crystal, experimental, refinement or atomic coordinate data resulting 
# from the CCDC's data processing and validation procedures.
#
#######################################################################

data_BEFTAK
_chemical_formula_moiety         'C36 H58 Ca1 N4 O2'
_chemical_name_systematic        
bis(N,N'-diisopropylphenylacetamidinato)-bis(tetrahydrofuran)-calcium
_symmetry_cell_setting           triclinic
_symmetry_space_group_name_H-M   'P -1'
_symmetry_Int_Tables_number      2
_space_group_name_Hall           '-P 1'
loop_
_symmetry_equiv_pos_site_id
_symmetry_equiv_pos_as_xyz
1 x,y,z
2 -x,-y,-z
_cell_length_a                   10.1567(12)
_cell_length_b                   10.2500(15)
_cell_length_c                   10.3670(9)
_cell_angle_alpha                85.635(10)
_cell_angle_beta                 65.798(10)
_cell_angle_gamma                69.757(13)
_cell_volume                     920.875
_exptl_crystal_colour            colorless
_exptl_crystal_description       plates
_cell_formula_units_Z            1
loop_
_atom_site_label
_atom_site_type_symbol
_atom_site_fract_x
_atom_site_fract_y
_atom_site_fract_z
Ca1 Ca 0.5000 0.0000 0.0000
N1 N 0.28960(15) 0.20728(14) 0.00416(14)
N2 N 0.30563(15) 0.14571(14) 0.21320(14)
O1 O 0.34035(14) -0.13870(13) 0.02656(15)
C1 C 0.23870(17) 0.23995(16) 0.14252(16)
C2 C 0.2268(2) 0.29639(19) -0.08807(18)
H1 H 0.1257 0.3638 -0.0299
C3 C 0.2084(3) 0.2053(3) -0.1850(2)
H2 H 0.3071 0.1384 -0.2415
H3 H 0.1662 0.2629 -0.2460
H4 H 0.1404 0.1573 -0.1284
C4 C 0.3323(3) 0.3743(2) -0.1762(2)
H5 H 0.3363 0.4371 -0.1149
H6 H 0.2935 0.4262 -0.2419
H7 H 0.4337 0.3088 -0.2276
C5 C 0.2649(2) 0.16847(19) 0.36418(17)
H8 H 0.1685 0.2478 0.4048
C6 C 0.3900(3) 0.2007(3) 0.3849(2)
H9 H 0.4850 0.1235 0.3452
H10 H 0.3616 0.2162 0.4844
H11 H 0.4027 0.2829 0.3383
C7 C 0.2416(4) 0.0403(3) 0.4381(2)
H12 H 0.1538 0.0279 0.4344
H13 H 0.2250 0.0516 0.5353
H14 H 0.3314 -0.0400 0.3916
C8 C 0.10786(18) 0.37608(17) 0.21784(17)
H15 H 0.1332 0.4142 0.2838
H16 H 0.0987 0.4433 0.1481
C9 C -0.04568(18) 0.35505(17) 0.29795(17)
C10 C -0.0878(2) 0.26567(19) 0.2410(2)
H17 H -0.0204 0.2170 0.1534
C11 C -0.2290(2) 0.2477(2) 0.3127(2)
H18 H -0.2546 0.1865 0.2735
C12 C -0.3314(2) 0.3204(2) 0.4421(2)
H19 H -0.4263 0.3091 0.4897
C13 C -0.2919(2) 0.4096(2) 0.4998(2)
H20 H -0.3606 0.4587 0.5869
C14 C -0.1496(2) 0.4274(2) 0.42891(18)
H21 H -0.1241 0.4877 0.4693
C15 C 0.1821(2) -0.0965(2) 0.1277(2)
H22 H 0.1136 -0.0791 0.0801
H23 H 0.1547 -0.0127 0.1847
C16 C 0.1735(3) -0.2183(2) 0.2184(3)
H24 H 0.2038 -0.2127 0.2946
H25 H 0.0705 -0.2225 0.2586
C17 C 0.2860(3) -0.3420(2) 0.1150(3)
H26 H 0.2324 -0.3852 0.0830
H27 H 0.3447 -0.4107 0.1588
C18 C 0.3910(2) -0.28594(19) -0.0081(2)
H28 H 0.4971 -0.3305 -0.0203
H29 H 0.3837 -0.3031 -0.0952
N1A N 0.71040(15) -0.20728(14) -0.00416(14)
N2A N 0.69437(15) -0.14571(14) -0.21320(14)
O1A O 0.65965(14) 0.13870(13) -0.02656(15)
C1A C 0.76130(17) -0.23995(16) -0.14252(16)
C2A C 0.7732(2) -0.29639(19) 0.08807(18)
H1A H 0.8743 -0.3638 0.0299
C3A C 0.7916(3) -0.2053(3) 0.1850(2)
H2A H 0.6929 -0.1384 0.2415
H3A H 0.8338 -0.2629 0.2460
H4A H 0.8596 -0.1573 0.1284
C4A C 0.6677(3) -0.3743(2) 0.1762(2)
H5A H 0.6637 -0.4371 0.1149
H6A H 0.7065 -0.4262 0.2419
H7A H 0.5663 -0.3088 0.2276
C5A C 0.7351(2) -0.16847(19) -0.36418(17)
H8A H 0.8315 -0.2478 -0.4048
C6A C 0.6100(3) -0.2007(3) -0.3849(2)
H9A H 0.5150 -0.1235 -0.3452
H10A H 0.6384 -0.2162 -0.4844
H11A H 0.5973 -0.2829 -0.3383
C7A C 0.7584(4) -0.0403(3) -0.4381(2)
H12A H 0.8462 -0.0279 -0.4344
H13A H 0.7750 -0.0516 -0.5353
H14A H 0.6686 0.0400 -0.3916
C8A C 0.89214(18) -0.37608(17) -0.21784(17)
H15A H 0.8668 -0.4142 -0.2838
H16A H 0.9013 -0.4433 -0.1481
C9A C 1.04568(18) -0.35505(17) -0.29795(17)
C10A C 1.0878(2) -0.26567(19) -0.2410(2)
H17A H 1.0204 -0.2170 -0.1534
C11A C 1.2290(2) -0.2477(2) -0.3127(2)
H18A H 1.2546 -0.1865 -0.2735
C12A C 1.3314(2) -0.3204(2) -0.4421(2)
H19A H 1.4263 -0.3091 -0.4897
C13A C 1.2919(2) -0.4096(2) -0.4998(2)
H20A H 1.3606 -0.4587 -0.5869
C14A C 1.1496(2) -0.4274(2) -0.42891(18)
H21A H 1.1241 -0.4877 -0.4693
C15A C 0.8179(2) 0.0965(2) -0.1277(2)
H22A H 0.8864 0.0791 -0.0801
H23A H 0.8453 0.0127 -0.1847
C16A C 0.8265(3) 0.2183(2) -0.2184(3)
H24A H 0.7962 0.2127 -0.2946
H25A H 0.9295 0.2225 -0.2586
C17A C 0.7140(3) 0.3420(2) -0.1150(3)
H26A H 0.7676 0.3852 -0.0830
H27A H 0.6553 0.4107 -0.1588
C18A C 0.6090(2) 0.28594(19) 0.0081(2)
H28A H 0.5029 0.3305 0.0203
H29A H 0.6163 0.3031 0.0952
loop_
_geom_bond_atom_site_label_1
_geom_bond_atom_site_label_2
_geom_bond_site_symmetry_1
_geom_bond_site_symmetry_2
Ca1 N1 1_555 1_555
N1 C1 1_555 1_555
N2 Ca1 1_555 1_555
O1 Ca1 1_555 1_555
C1 N2 1_555 1_555
C2 N1 1_555 1_555
H1 C2 1_555 1_555
C3 C2 1_555 1_555
H2 C3 1_555 1_555
H3 C3 1_555 1_555
H4 C3 1_555 1_555
C4 C2 1_555 1_555
H5 C4 1_555 1_555
H6 C4 1_555 1_555
H7 C4 1_555 1_555
C5 N2 1_555 1_555
H8 C5 1_555 1_555
C6 C5 1_555 1_555
H9 C6 1_555 1_555
H10 C6 1_555 1_555
H11 C6 1_555 1_555
C7 C5 1_555 1_555
H12 C7 1_555 1_555
H13 C7 1_555 1_555
H14 C7 1_555 1_555
C8 C1 1_555 1_555
H15 C8 1_555 1_555
H16 C8 1_555 1_555
C9 C8 1_555 1_555
C10 C9 1_555 1_555
H17 C10 1_555 1_555
C11 C10 1_555 1_555
H18 C11 1_555 1_555
C12 C11 1_555 1_555
H19 C12 1_555 1_555
C13 C12 1_555 1_555
H20 C13 1_555 1_555
C14 C9 1_555 1_555
H21 C14 1_555 1_555
C15 O1 1_555 1_555
H22 C15 1_555 1_555
H23 C15 1_555 1_555
C16 C15 1_555 1_555
H24 C16 1_555 1_555
H25 C16 1_555 1_555
C17 C16 1_555 1_555
H26 C17 1_555 1_555
H27 C17 1_555 1_555
C18 O1 1_555 1_555
H28 C18 1_555 1_555
H29 C18 1_555 1_555
N1A Ca1 1_555 1_555
N2A Ca1 1_555 1_555
O1A Ca1 1_555 1_555
C1A N1A 1_555 1_555
C2A N1A 1_555 1_555
H1A C2A 1_555 1_555
C3A C2A 1_555 1_555
H2A C3A 1_555 1_555
H3A C3A 1_555 1_555
H4A C3A 1_555 1_555
C4A C2A 1_555 1_555
H5A C4A 1_555 1_555
H6A C4A 1_555 1_555
H7A C4A 1_555 1_555
C5A N2A 1_555 1_555
H8A C5A 1_555 1_555
C6A C5A 1_555 1_555
H9A C6A 1_555 1_555
H10A C6A 1_555 1_555
H11A C6A 1_555 1_555
C7A C5A 1_555 1_555
H12A C7A 1_555 1_555
H13A C7A 1_555 1_555
H14A C7A 1_555 1_555
C8A C1A 1_555 1_555
H15A C8A 1_555 1_555
H16A C8A 1_555 1_555
C9A C8A 1_555 1_555
C10A C9A 1_555 1_555
H17A C10A 1_555 1_555
C11A C10A 1_555 1_555
H18A C11A 1_555 1_555
C12A C11A 1_555 1_555
H19A C12A 1_555 1_555
C13A C12A 1_555 1_555
H20A C13A 1_555 1_555
C14A C9A 1_555 1_555
H21A C14A 1_555 1_555
C15A O1A 1_555 1_555
H22A C15A 1_555 1_555
H23A C15A 1_555 1_555
C16A C15A 1_555 1_555
H24A C16A 1_555 1_555
H25A C16A 1_555 1_555
C17A C16A 1_555 1_555
H26A C17A 1_555 1_555
H27A C17A 1_555 1_555
C18A O1A 1_555 1_555
H28A C18A 1_555 1_555
H29A C18A 1_555 1_555
C13 C14 1_555 1_555
C17 C18 1_555 1_555
N2A C1A 1_555 1_555
C13A C14A 1_555 1_555
C17A C18A 1_555 1_555

#END
