
#######################################################################
#
#                 Cambridge Crystallographic Data Centre
#                                CCDC 
#
#######################################################################
#
# If this CIF has been generated from an entry in the Cambridge 
# Structural Database, then it will include bibliographic, chemical, 
# crystal, experimental, refinement or atomic coordinate data resulting 
# from the CCDC's data processing and validation procedures.
#
#######################################################################

data_BEFVAJ01
_chemical_name_common            'Clofibric acid'
_chemical_formula_moiety         'C10 H11 Cl1 O3'
_chemical_name_systematic        '2-(4-Chlorophenoxy)-2-methylpropanoic acid'
_symmetry_cell_setting           monoclinic
_symmetry_space_group_name_H-M   'P 21/n'
_symmetry_Int_Tables_number      14
_space_group_name_Hall           '-P 2yn'
loop_
_symmetry_equiv_pos_site_id
_symmetry_equiv_pos_as_xyz
1 x,y,z
2 1/2-x,1/2+y,1/2-z
3 -x,-y,-z
4 1/2+x,1/2-y,1/2+z
_cell_length_a                   6.2132(5)
_cell_length_b                   7.7970(6)
_cell_length_c                   21.0796(13)
_cell_angle_alpha                90
_cell_angle_beta                 90.351(3)
_cell_angle_gamma                90
_cell_volume                     1021.17
_exptl_crystal_colour            colorless
_exptl_crystal_description       irregular
_cell_formula_units_Z            4
loop_
_atom_site_label
_atom_site_type_symbol
_atom_site_fract_x
_atom_site_fract_y
_atom_site_fract_z
Cl1 Cl 0.23522(4) 0.24467(3) 0.137722(10)
O1 O 0.83916(10) 0.26789(8) 0.35274(3)
O2 O 0.52530(10) 0.29324(8) 0.49090(3)
O3 O 0.70257(11) 0.49920(8) 0.43936(3)
C1 C 0.68282(12) 0.25410(10) 0.30636(3)
C2 C 0.74888(13) 0.18263(11) 0.24948(4)
C3 C 0.61048(14) 0.17831(11) 0.19766(3)
C4 C 0.40560(14) 0.24550(10) 0.20361(4)
C5 C 0.33476(13) 0.31292(11) 0.26059(4)
C6 C 0.47482(13) 0.31717(12) 0.31240(4)
C7 C 0.79497(12) 0.20919(10) 0.41594(3)
C8 C 0.65807(12) 0.33913(10) 0.45178(3)
C9 C 0.69278(15) 0.03289(11) 0.41597(4)
C10 C 1.01537(14) 0.20972(14) 0.44852(4)
H1 H 0.891(2) 0.1374(17) 0.2482(6)
H2 H 0.189(2) 0.3568(16) 0.2637(6)
H3 H 0.557(2) 0.0329(18) 0.3939(6)
H4 H 0.4257(19) 0.3689(16) 0.3506(6)
H5 H 0.655(2) 0.1269(17) 0.1590(6)
H6 H 1.106(2) 0.122(2) 0.4290(7)
H7 H 1.082(2) 0.3153(18) 0.4466(6)
H8 H 0.681(2) -0.0093(18) 0.4586(7)
H9 H 1.000(2) 0.1865(18) 0.4938(6)
H10 H 0.623(3) 0.566(2) 0.4627(8)
H11 H 0.780(2) -0.0440(19) 0.3930(7)
loop_
_geom_bond_atom_site_label_1
_geom_bond_atom_site_label_2
_geom_bond_site_symmetry_1
_geom_bond_site_symmetry_2
Cl1 C4 1_555 1_555
O1 C1 1_555 1_555
O2 C8 1_555 1_555
O3 C8 1_555 1_555
C1 C2 1_555 1_555
C2 C3 1_555 1_555
C3 C4 1_555 1_555
C4 C5 1_555 1_555
C5 C6 1_555 1_555
C6 C1 1_555 1_555
C7 O1 1_555 1_555
C8 C7 1_555 1_555
C9 C7 1_555 1_555
C10 C7 1_555 1_555
H1 C2 1_555 1_555
H2 C5 1_555 1_555
H3 C9 1_555 1_555
H4 C6 1_555 1_555
H5 C3 1_555 1_555
H6 C10 1_555 1_555
H7 C10 1_555 1_555
H8 C9 1_555 1_555
H9 C10 1_555 1_555
H10 O3 1_555 1_555
H11 C9 1_555 1_555

#END
