
#######################################################################
#
#                 Cambridge Crystallographic Data Centre
#                                CCDC 
#
#######################################################################
#
# If this CIF has been generated from an entry in the Cambridge 
# Structural Database, then it will include bibliographic, chemical, 
# crystal, experimental, refinement or atomic coordinate data resulting 
# from the CCDC's data processing and validation procedures.
#
#######################################################################

data_BEFVAM
_chemical_formula_moiety         'C20 H20 N1 P1'
_chemical_name_systematic        
'N-(2,6-dimethylphenyl)-P,P-diphenylphosphinous amide'
_symmetry_cell_setting           triclinic
_symmetry_space_group_name_H-M   'P -1'
_symmetry_Int_Tables_number      2
_space_group_name_Hall           '-P 1'
loop_
_symmetry_equiv_pos_site_id
_symmetry_equiv_pos_as_xyz
1 x,y,z
2 -x,-y,-z
_cell_length_a                   4.7707(4)
_cell_length_b                   12.5813(16)
_cell_length_c                   14.7998(14)
_cell_angle_alpha                109.049(10)
_cell_angle_beta                 92.514(7)
_cell_angle_gamma                96.532(9)
_cell_volume                     831.105
_exptl_crystal_colour            colorless
_exptl_crystal_description       plates
_cell_formula_units_Z            2
loop_
_atom_site_label
_atom_site_type_symbol
_atom_site_fract_x
_atom_site_fract_y
_atom_site_fract_z
P1 P 0.4172(2) 0.13814(8) 0.77738(8)
N1 N 0.1851(8) 0.1931(3) 0.7238(3)
H1 H 0.0086 0.1660 0.7163
C1 C 0.2770(10) 0.2858(3) 0.6898(3)
C2 C 0.4496(11) 0.2668(4) 0.6134(3)
C3 C 0.5467(12) 0.3582(4) 0.5840(4)
H2 H 0.6675 0.3476 0.5351
C4 C 0.4663(12) 0.4642(4) 0.6264(4)
H3 H 0.5305 0.5241 0.6056
C5 C 0.2903(12) 0.4806(4) 0.7000(4)
H4 H 0.2343 0.5518 0.7275
C6 C 0.1945(10) 0.3931(4) 0.7339(3)
C7 C 0.0054(11) 0.4142(4) 0.8149(4)
H5 H -0.0013 0.4942 0.8427
H6 H 0.0787 0.3861 0.8628
H7 H -0.1820 0.3757 0.7908
C8 C 0.5274(12) 0.1507(4) 0.5621(4)
H8 H 0.5881 0.1478 0.5005
H9 H 0.3655 0.0945 0.5538
H10 H 0.6782 0.1357 0.5994
C9 C 0.2753(10) -0.0126(4) 0.7360(3)
C10 C 0.4038(12) -0.0845(4) 0.7740(4)
H11 H 0.5498 -0.0544 0.8227
C11 C 0.3166(11) -0.2006(4) 0.7402(4)
H12 H 0.4033 -0.2477 0.7664
C12 C 0.1007(11) -0.2465(4) 0.6674(4)
H13 H 0.0440 -0.3245 0.6441
C13 C -0.0295(12) -0.1769(4) 0.6296(4)
H14 H -0.1762 -0.2081 0.5813
C14 C 0.0543(11) -0.0604(4) 0.6624(4)
H15 H -0.0349 -0.0141 0.6359
C15 C 0.3241(10) 0.1833(4) 0.9025(3)
C16 C 0.1156(12) 0.1248(4) 0.9380(4)
H16 H 0.0208 0.0553 0.8984
C17 C 0.0482(13) 0.1693(5) 1.0322(4)
H17 H -0.0888 0.1288 1.0555
C18 C 0.1817(13) 0.2721(5) 1.0907(4)
H18 H 0.1341 0.3018 1.1535
C19 C 0.3873(13) 0.3319(5) 1.0568(4)
H19 H 0.4784 0.4020 1.0967
C20 C 0.4580(12) 0.2874(4) 0.9632(4)
H20 H 0.5974 0.3279 0.9408
loop_
_geom_bond_atom_site_label_1
_geom_bond_atom_site_label_2
_geom_bond_site_symmetry_1
_geom_bond_site_symmetry_2
P1 N1 1_555 1_555
N1 H1 1_555 1_555
C1 N1 1_555 1_555
C2 C1 1_555 1_555
C3 C2 1_555 1_555
H2 C3 1_555 1_555
C4 C3 1_555 1_555
H3 C4 1_555 1_555
C5 C4 1_555 1_555
H4 C5 1_555 1_555
C6 C1 1_555 1_555
C7 C6 1_555 1_555
H5 C7 1_555 1_555
H6 C7 1_555 1_555
H7 C7 1_555 1_555
C8 C2 1_555 1_555
H8 C8 1_555 1_555
H9 C8 1_555 1_555
H10 C8 1_555 1_555
C9 P1 1_555 1_555
C10 C9 1_555 1_555
H11 C10 1_555 1_555
C11 C10 1_555 1_555
H12 C11 1_555 1_555
C12 C11 1_555 1_555
H13 C12 1_555 1_555
C13 C12 1_555 1_555
H14 C13 1_555 1_555
C14 C9 1_555 1_555
H15 C14 1_555 1_555
C15 P1 1_555 1_555
C16 C15 1_555 1_555
H16 C16 1_555 1_555
C17 C16 1_555 1_555
H17 C17 1_555 1_555
C18 C17 1_555 1_555
H18 C18 1_555 1_555
C19 C18 1_555 1_555
H19 C19 1_555 1_555
C20 C15 1_555 1_555
H20 C20 1_555 1_555
C5 C6 1_555 1_555
C13 C14 1_555 1_555
C19 C20 1_555 1_555

#END
