
#######################################################################
#
#                 Cambridge Crystallographic Data Centre
#                                CCDC 
#
#######################################################################
#
# If this CIF has been generated from an entry in the Cambridge 
# Structural Database, then it will include bibliographic, chemical, 
# crystal, experimental, refinement or atomic coordinate data resulting 
# from the CCDC's data processing and validation procedures.
#
#######################################################################

data_BEFWER
_chemical_formula_moiety         'C26 H27 N2 1+,H2 O1,I1 1-'
_chemical_name_systematic        
'2-mesityl-1,3-dimethyl-4,5-diphenyl-1H-imidazol-3-ium iodide monohydrate'
_symmetry_cell_setting           tetragonal
_symmetry_space_group_name_H-M   'P 43'
_symmetry_Int_Tables_number      78
_space_group_name_Hall           'P 4cw'
loop_
_symmetry_equiv_pos_site_id
_symmetry_equiv_pos_as_xyz
1 x,y,z
2 -x,-y,1/2+z
3 -y,x,3/4+z
4 y,-x,1/4+z
_cell_length_a                   8.8965(5)
_cell_length_b                   8.8965(5)
_cell_length_c                   30.3964(18)
_cell_angle_alpha                90
_cell_angle_beta                 90
_cell_angle_gamma                90
_cell_volume                     2405.81
_exptl_crystal_colour            colorless
_exptl_crystal_description       block
_cell_formula_units_Z            4
_exptl_crystal_recrystallization_method water
loop_
_atom_site_label
_atom_site_type_symbol
_atom_site_fract_x
_atom_site_fract_y
_atom_site_fract_z
I1 I 0.85469(9) 0.72350(10) 0.54962(3)
O1 O 0.678(2) 0.0763(19) 0.5511(7)
N1 N 0.3825(9) 0.3525(9) 0.5247(3)
C1 C 0.5310(12) 0.3845(15) 0.5052(4)
H1 H 0.5262 0.3697 0.4733
H2 H 0.6060 0.3163 0.5178
H3 H 0.5593 0.4887 0.5116
C2 C 0.2560(11) 0.3370(11) 0.5013(4)
N2 N 0.1476(9) 0.2981(11) 0.5292(4)
C3 C -0.0117(12) 0.2858(16) 0.5166(4)
H4 H -0.0380 0.3684 0.4967
H5 H -0.0745 0.2912 0.5431
H6 H -0.0287 0.1896 0.5017
C4 C 0.2040(12) 0.2883(11) 0.5713(3)
C5 C 0.3519(11) 0.3232(10) 0.5690(3)
C6 C 0.2434(11) 0.3467(11) 0.4534(3)
C7 C 0.2114(11) 0.4820(11) 0.4325(3)
C8 C 0.2093(13) 0.3541(14) 0.3629(4)
C9 C 0.1933(13) 0.4841(13) 0.3874(4)
H7 H 0.1695 0.5759 0.3730
C10 C 0.2450(13) 0.2194(13) 0.3838(4)
H8 H 0.2592 0.1308 0.3669
C11 C 0.2598(12) 0.2137(12) 0.4288(4)
C12 C 0.1983(17) 0.6247(13) 0.4589(5)
H9 H 0.2946 0.6461 0.4733
H10 H 0.1200 0.6126 0.4813
H11 H 0.1717 0.7082 0.4394
C13 C 0.188(2) 0.356(2) 0.3136(5)
H12 H 0.2753 0.4034 0.2997
H13 H 0.0971 0.4132 0.3063
H14 H 0.1775 0.2528 0.3028
C14 C 0.2956(17) 0.0650(14) 0.4509(5)
H15 H 0.2038 0.0233 0.4639
H16 H 0.3705 0.0812 0.4741
H17 H 0.3358 -0.0054 0.4291
C15 C 0.1144(11) 0.2403(12) 0.6098(4)
C16 C 0.0356(12) 0.1040(13) 0.6087(4)
H18 H 0.0338 0.0464 0.5824
C17 C -0.0391(15) 0.0532(15) 0.6452(5)
H19 H -0.0966 -0.0367 0.6438
C18 C -0.0305(14) 0.1328(17) 0.6840(4)
H20 H -0.0780 0.0947 0.7097
C19 C 0.0459(15) 0.2659(15) 0.6859(4)
H21 H 0.0498 0.3205 0.7128
C20 C 0.1178(13) 0.3221(14) 0.6488(4)
H22 H 0.1689 0.4157 0.6501
C21 C 0.4648(11) 0.3268(11) 0.6043(3)
C22 C 0.4651(14) 0.2132(13) 0.6367(4)
H23 H 0.3989 0.1299 0.6341
C23 C 0.5612(14) 0.2229(15) 0.6721(4)
H24 H 0.5588 0.1474 0.6942
C24 C 0.6597(14) 0.3395(17) 0.6758(4)
H25 H 0.7242 0.3451 0.7007
C25 C 0.6668(14) 0.4500(16) 0.6438(5)
H26 H 0.7382 0.5290 0.6459
C26 C 0.5676(13) 0.4431(12) 0.6085(4)
H27 H 0.5702 0.5199 0.5868
loop_
_geom_bond_atom_site_label_1
_geom_bond_atom_site_label_2
_geom_bond_site_symmetry_1
_geom_bond_site_symmetry_2
N1 C1 1_555 1_555
C1 H1 1_555 1_555
H2 C1 1_555 1_555
H3 C1 1_555 1_555
C2 N1 1_555 1_555
N2 C2 1_555 1_555
C3 N2 1_555 1_555
H4 C3 1_555 1_555
H5 C3 1_555 1_555
H6 C3 1_555 1_555
C4 N2 1_555 1_555
C5 N1 1_555 1_555
C6 C2 1_555 1_555
C7 C6 1_555 1_555
C8 C9 1_555 1_555
C9 C7 1_555 1_555
H7 C9 1_555 1_555
C10 C8 1_555 1_555
H8 C10 1_555 1_555
C11 C6 1_555 1_555
C12 C7 1_555 1_555
H9 C12 1_555 1_555
H10 C12 1_555 1_555
H11 C12 1_555 1_555
C13 C8 1_555 1_555
H12 C13 1_555 1_555
H13 C13 1_555 1_555
H14 C13 1_555 1_555
C14 C11 1_555 1_555
H15 C14 1_555 1_555
H16 C14 1_555 1_555
H17 C14 1_555 1_555
C15 C4 1_555 1_555
C16 C15 1_555 1_555
H18 C16 1_555 1_555
C17 C16 1_555 1_555
H19 C17 1_555 1_555
C18 C17 1_555 1_555
H20 C18 1_555 1_555
C19 C18 1_555 1_555
H21 C19 1_555 1_555
C20 C15 1_555 1_555
H22 C20 1_555 1_555
C21 C5 1_555 1_555
C22 C21 1_555 1_555
H23 C22 1_555 1_555
C23 C22 1_555 1_555
H24 C23 1_555 1_555
C24 C23 1_555 1_555
H25 C24 1_555 1_555
C25 C24 1_555 1_555
H26 C25 1_555 1_555
C26 C21 1_555 1_555
H27 C26 1_555 1_555
C4 C5 1_555 1_555
C10 C11 1_555 1_555
C19 C20 1_555 1_555
C25 C26 1_555 1_555

#END
