
#######################################################################
#
#                 Cambridge Crystallographic Data Centre
#                                CCDC 
#
#######################################################################
#
# If this CIF has been generated from an entry in the Cambridge 
# Structural Database, then it will include bibliographic, chemical, 
# crystal, experimental, refinement or atomic coordinate data resulting 
# from the CCDC's data processing and validation procedures.
#
#######################################################################

data_BEGBOH
_chemical_formula_moiety         'C10 H12 N4 O3 S1'
_chemical_name_systematic        
'2,4-dimethyl-9,10-dihydro-2H-pyrimido[5,4-d]pyrrolo[1,2-b][1,2,6]thiadiazine-1,3(4H,8H)-dione 6-oxide'
_symmetry_cell_setting           monoclinic
_symmetry_space_group_name_H-M   'P 21/c'
_symmetry_Int_Tables_number      14
_space_group_name_Hall           '-P 2ybc'
loop_
_symmetry_equiv_pos_site_id
_symmetry_equiv_pos_as_xyz
1 x,y,z
2 -x,1/2+y,1/2-z
3 -x,-y,-z
4 x,1/2-y,1/2+z
_cell_length_a                   10.634(2)
_cell_length_b                   13.566(3)
_cell_length_c                   8.3322(17)
_cell_angle_alpha                90
_cell_angle_beta                 109.23(3)
_cell_angle_gamma                90
_cell_volume                     1134.94
_exptl_crystal_colour            'light grey'
_exptl_crystal_description       prism
_cell_formula_units_Z            4
loop_
_atom_site_label
_atom_site_type_symbol
_atom_site_fract_x
_atom_site_fract_y
_atom_site_fract_z
N1 N 0.56461(14) 0.96049(11) 0.80423(18)
C1 C 0.66495(17) 0.89711(14) 0.8917(2)
N2 N 0.63017(14) 0.81658(12) 0.96771(19)
C2 C 0.50180(16) 0.79623(12) 0.9690(2)
C3 C 0.40018(15) 0.86490(11) 0.8749(2)
C4 C 0.27039(15) 0.85606(12) 0.8765(2)
C5 C 0.21300(19) 0.77965(16) 0.9615(3)
H1 H 0.267(3) 0.7634(18) 1.076(3)
H2 H 0.206(3) 0.720(2) 0.903(3)
C6 C 0.0786(2) 0.8221(3) 0.9520(5)
H3 H 0.018(4) 0.771(3) 0.932(4)
H4 H 0.085(4) 0.849(4) 1.058(6)
C7 C 0.0453(2) 0.8990(2) 0.8162(4)
H5 H 0.005(3) 0.956(3) 0.851(4)
H6 H -0.017(3) 0.882(2) 0.709(4)
N3 N 0.17548(14) 0.92019(12) 0.7973(2)
S1 S 0.18940(5) 1.00541(3) 0.64790(6)
N4 N 0.35004(16) 1.01722(11) 0.7120(2)
C8 C 0.43331(16) 0.94737(12) 0.7922(2)
O1 O 0.14649(15) 0.95226(13) 0.48706(18)
C9 C 0.6007(2) 1.04372(16) 0.7157(3)
H7 H 0.5808 1.1045 0.7613
H8 H 0.5507 1.0401 0.5966
H9 H 0.6942 1.0410 0.7312
O2 O 0.77969(13) 0.91138(14) 0.9002(2)
C10 C 0.7373(2) 0.74957(19) 1.0618(3)
H10 H 0.8077 0.7517 1.0136
H11 H 0.7032 0.6836 1.0547
H12 H 0.7711 0.7695 1.1788
O3 O 0.48293(14) 0.72482(10) 1.0462(2)
loop_
_geom_bond_atom_site_label_1
_geom_bond_atom_site_label_2
_geom_bond_site_symmetry_1
_geom_bond_site_symmetry_2
N1 C1 1_555 1_555
C1 N2 1_555 1_555
N2 C2 1_555 1_555
C2 C3 1_555 1_555
C3 C4 1_555 1_555
C4 C5 1_555 1_555
C5 H1 1_555 1_555
H2 C5 1_555 1_555
C6 C5 1_555 1_555
H3 C6 1_555 1_555
H4 C6 1_555 1_555
C7 C6 1_555 1_555
H5 C7 1_555 1_555
H6 C7 1_555 1_555
N3 C4 1_555 1_555
S1 N3 1_555 1_555
N4 S1 1_555 1_555
C8 N1 1_555 1_555
O1 S1 1_555 1_555
C9 N1 1_555 1_555
H7 C9 1_555 1_555
H8 C9 1_555 1_555
H9 C9 1_555 1_555
O2 C1 1_555 1_555
C10 N2 1_555 1_555
H10 C10 1_555 1_555
H11 C10 1_555 1_555
H12 C10 1_555 1_555
O3 C2 1_555 1_555
C3 C8 1_555 1_555
C7 N3 1_555 1_555
N4 C8 1_555 1_555

#END
