
#######################################################################
#
#                 Cambridge Crystallographic Data Centre
#                                CCDC 
#
#######################################################################
#
# If this CIF has been generated from an entry in the Cambridge 
# Structural Database, then it will include bibliographic, chemical, 
# crystal, experimental, refinement or atomic coordinate data resulting 
# from the CCDC's data processing and validation procedures.
#
#######################################################################

data_BEGDUN
_chemical_formula_moiety         'C18 H21 N2 O2'
_chemical_name_systematic        
2-Methyl-6-(4,4,5,5-tetramethylimidazolin-2-yl-1-oxy-3-oxide)-naphthalene
_symmetry_cell_setting           orthorhombic
_symmetry_space_group_name_H-M   'P 21 21 21'
_symmetry_Int_Tables_number      19
_space_group_name_Hall           'P 2ac 2ab'
loop_
_symmetry_equiv_pos_site_id
_symmetry_equiv_pos_as_xyz
1 x,y,z
2 1/2-x,-y,1/2+z
3 -x,1/2+y,1/2-z
4 1/2+x,1/2-y,-z
_cell_length_a                   6.1262(2)
_cell_length_b                   11.1426(6)
_cell_length_c                   23.0543(13)
_cell_angle_alpha                90
_cell_angle_beta                 90
_cell_angle_gamma                90
_cell_volume                     1573.73
_exptl_crystal_colour            blue
_chemical_melting_point          176-178deg.C(dec)
_cell_formula_units_Z            4
_exptl_crystal_recrystallization_method dichloromethane
loop_
_atom_site_label
_atom_site_type_symbol
_atom_site_fract_x
_atom_site_fract_y
_atom_site_fract_z
O1 O 0.4740(3) 1.16603(18) 0.11723(9)
O2 O 0.8895(3) 0.88672(17) 0.21637(9)
N1 N 0.6090(3) 1.1177(2) 0.15224(9)
N2 N 0.8052(3) 0.9857(2) 0.19905(10)
C1 C 0.2497(5) 0.6097(3) 0.03751(12)
H1 H 0.1137 0.6195 0.0202
C2 C 0.3459(6) 0.4995(3) 0.03580(13)
C3 C 0.5565(6) 0.4871(3) 0.06039(13)
H2 H 0.6264 0.4131 0.0585
C4 C 0.6594(6) 0.5807(3) 0.08671(12)
H3 H 0.7971 0.5694 0.1028
C5 C 0.6560(5) 0.7921(3) 0.11920(11)
H4 H 0.7931 0.7818 0.1358
C6 C 0.5538(4) 0.9022(3) 0.12407(11)
C7 C 0.3464(5) 0.9161(3) 0.09763(12)
H5 H 0.2750 0.9896 0.1000
C8 C 0.2497(5) 0.8236(3) 0.06878(12)
H6 H 0.1147 0.8356 0.0513
C9 C 0.3497(5) 0.7104(3) 0.06483(11)
C10 C 0.5590(5) 0.6949(3) 0.08985(11)
C11 C 0.2354(7) 0.3924(3) 0.00939(16)
H7 H 0.0951 0.4155 -0.0053
H8 H 0.2173 0.3313 0.0384
H9 H 0.3233 0.3617 -0.0217
C12 C 0.6539(4) 0.9988(3) 0.15714(11)
C13 C 0.7616(4) 1.1937(2) 0.18816(12)
C14 C 0.8525(4) 1.0995(2) 0.23110(11)
C15 C 0.9309(5) 1.2438(3) 0.14666(14)
H10 H 0.8634 1.3015 0.1214
H11 H 0.9913 1.1797 0.1239
H12 H 1.0452 1.2821 0.1684
C16 C 0.6343(5) 1.2967(3) 0.21503(14)
H13 H 0.5850 1.3498 0.1850
H14 H 0.7269 1.3398 0.2414
H15 H 0.5107 1.2654 0.2357
C17 C 1.0960(4) 1.1079(3) 0.24260(14)
H16 H 1.1382 1.0465 0.2695
H17 H 1.1296 1.1853 0.2587
H18 H 1.1743 1.0974 0.2069
C18 C 0.7270(5) 1.0927(3) 0.28794(12)
H19 H 0.7917 1.0329 0.3125
H20 H 0.5778 1.0718 0.2802
H21 H 0.7322 1.1693 0.3070
loop_
_geom_bond_atom_site_label_1
_geom_bond_atom_site_label_2
_geom_bond_site_symmetry_1
_geom_bond_site_symmetry_2
O1 N1 1_555 1_555
O2 N2 1_555 1_555
N1 C12 1_555 1_555
N2 C12 1_555 1_555
C1 H1 1_555 1_555
C2 C1 1_555 1_555
C3 C2 1_555 1_555
H2 C3 1_555 1_555
C4 C3 1_555 1_555
H3 C4 1_555 1_555
C5 H4 1_555 1_555
C6 C5 1_555 1_555
C7 C6 1_555 1_555
H5 C7 1_555 1_555
C8 C7 1_555 1_555
H6 C8 1_555 1_555
C9 C1 1_555 1_555
C10 C4 1_555 1_555
C11 C2 1_555 1_555
H7 C11 1_555 1_555
H8 C11 1_555 1_555
H9 C11 1_555 1_555
C12 C6 1_555 1_555
C13 N1 1_555 1_555
C14 N2 1_555 1_555
C15 C13 1_555 1_555
H10 C15 1_555 1_555
H11 C15 1_555 1_555
H12 C15 1_555 1_555
C16 C13 1_555 1_555
H13 C16 1_555 1_555
H14 C16 1_555 1_555
H15 C16 1_555 1_555
C17 C14 1_555 1_555
H16 C17 1_555 1_555
H17 C17 1_555 1_555
H18 C17 1_555 1_555
C18 C14 1_555 1_555
H19 C18 1_555 1_555
H20 C18 1_555 1_555
H21 C18 1_555 1_555
C5 C10 1_555 1_555
C8 C9 1_555 1_555
C9 C10 1_555 1_555
C13 C14 1_555 1_555

#END
