
#######################################################################
#
#                 Cambridge Crystallographic Data Centre
#                                CCDC 
#
#######################################################################
#
# If this CIF has been generated from an entry in the Cambridge 
# Structural Database, then it will include bibliographic, chemical, 
# crystal, experimental, refinement or atomic coordinate data resulting 
# from the CCDC's data processing and validation procedures.
#
#######################################################################

data_BEGFUR
_chemical_formula_moiety         'C62 H76 N4 P1 1+,3(C2 H6 O1),Cl1 1-'
_chemical_name_systematic        
'1,3-bis{1,3-bis[2,6-bis(propan-2-yl)phenyl]-1,3-dihydro-2H-imidazol-2-ylidene}-2,3-dihydro-1H-isophosphindol-2-ium chloride ethanol solvate'
_symmetry_cell_setting           monoclinic
_symmetry_space_group_name_H-M   'P 21/n'
_symmetry_Int_Tables_number      14
_space_group_name_Hall           '-P 2yn'
loop_
_symmetry_equiv_pos_site_id
_symmetry_equiv_pos_as_xyz
1 x,y,z
2 1/2-x,1/2+y,1/2-z
3 -x,-y,-z
4 1/2+x,1/2-y,1/2+z
_cell_length_a                   11.7627(11)
_cell_length_b                   22.295(2)
_cell_length_c                   24.911(2)
_cell_angle_alpha                90
_cell_angle_beta                 99.493(3)
_cell_angle_gamma                90
_cell_volume                     6443.43
_exptl_crystal_colour            colorless
_exptl_crystal_description       block
_cell_formula_units_Z            4
loop_
_atom_site_label
_atom_site_type_symbol
_atom_site_fract_x
_atom_site_fract_y
_atom_site_fract_z
C1 C 0.5080(2) 0.24996(11) 0.96745(9)
C2 C 0.4266(2) 0.29770(11) 0.95693(9)
C3 C 0.3359(2) 0.31312(11) 0.98495(10)
H1 H 0.3223 0.2899 1.0152
C4 C 0.2674(2) 0.36161(12) 0.96852(10)
H2 H 0.2069 0.3719 0.9879
C5 C 0.2849(2) 0.39641(12) 0.92362(10)
H3 H 0.2367 0.4300 0.9131
C6 C 0.3712(2) 0.38217(11) 0.89490(10)
H4 H 0.3820 0.4056 0.8643
C7 C 0.4442(2) 0.33256(11) 0.91088(9)
C8 C 0.5403(2) 0.31152(11) 0.88791(9)
C9 C 0.5812(2) 0.33994(11) 0.84236(10)
C10 C 0.6930(2) 0.38702(12) 0.79100(10)
H5 H 0.7567 0.4076 0.7806
C11 C 0.5959(2) 0.37126(12) 0.75823(10)
H6 H 0.5779 0.3784 0.7202
C12 C 0.4170(2) 0.31333(12) 0.76969(10)
C13 C 0.3188(2) 0.34894(12) 0.75501(10)
C14 C 0.3241(2) 0.41723(13) 0.75159(11)
H7 H 0.3975 0.4309 0.7744
C15 C 0.2241(3) 0.44862(14) 0.77213(12)
H8 H 0.2203 0.4352 0.8093
H9 H 0.1517 0.4386 0.7483
H10 H 0.2360 0.4921 0.7720
C16 C 0.3270(3) 0.43552(14) 0.69188(12)
H11 H 0.2555 0.4227 0.6688
H12 H 0.3929 0.4163 0.6794
H13 H 0.3345 0.4792 0.6896
C17 C 0.2148(2) 0.31883(13) 0.73854(10)
H14 H 0.1457 0.3412 0.7290
C18 C 0.2110(2) 0.25695(13) 0.73585(10)
H15 H 0.1391 0.2373 0.7256
C19 C 0.3105(2) 0.22344(13) 0.74794(10)
H16 H 0.3063 0.1810 0.7448
C20 C 0.4172(2) 0.25061(12) 0.76472(10)
C21 C 0.5281(2) 0.21451(12) 0.77193(11)
H17 H 0.5888 0.2381 0.7958
C22 C 0.5665(3) 0.20700(15) 0.71609(12)
H18 H 0.5764 0.2466 0.7004
H19 H 0.5077 0.1845 0.6917
H20 H 0.6398 0.1852 0.7206
C23 C 0.5188(3) 0.15374(13) 0.79850(12)
H21 H 0.4638 0.1286 0.7746
H22 H 0.4921 0.1592 0.8334
H23 H 0.5946 0.1343 0.8046
C24 C 0.7736(2) 0.37802(11) 0.88943(10)
C25 C 0.7572(2) 0.42119(11) 0.92821(11)
C26 C 0.6430(2) 0.45233(12) 0.92987(12)
H24 H 0.5849 0.4359 0.8996
C27 C 0.6018(2) 0.43823(14) 0.98383(12)
H25 H 0.6508 0.4593 1.0136
H26 H 0.6067 0.3949 0.9905
H27 H 0.5218 0.4515 0.9818
C28 C 0.6519(3) 0.52022(13) 0.92120(14)
H28 H 0.6733 0.5279 0.8854
H29 H 0.7108 0.5371 0.9496
H30 H 0.5774 0.5390 0.9230
C29 C 0.8517(2) 0.43495(13) 0.96787(11)
H31 H 0.8440 0.4646 0.9944
C30 C 0.9564(2) 0.40630(14) 0.96937(12)
H32 H 1.0203 0.4169 0.9962
C31 C 0.9678(2) 0.36223(13) 0.93171(11)
H33 H 1.0393 0.3418 0.9338
C32 C 0.8769(2) 0.34709(12) 0.89065(10)
C33 C 0.8934(2) 0.29676(13) 0.85130(11)
H34 H 0.8204 0.2925 0.8246
C34 C 0.9913(2) 0.31165(14) 0.81967(12)
H35 H 1.0624 0.3190 0.8454
H36 H 0.9710 0.3476 0.7975
H37 H 1.0029 0.2779 0.7960
C35 C 0.9159(3) 0.23761(14) 0.88210(14)
H38 H 0.8515 0.2289 0.9013
H39 H 0.9873 0.2408 0.9085
H40 H 0.9232 0.2052 0.8563
C36 C 0.5056(2) 0.20659(11) 1.01024(9)
C37 C 0.5070(2) 0.16280(11) 1.09197(10)
H41 H 0.5116 0.1577 1.1301
C38 C 0.4883(2) 0.11945(11) 1.05363(10)
H42 H 0.4773 0.0780 1.0598
C39 C 0.4706(2) 0.11275(11) 0.95320(10)
C40 C 0.3611(2) 0.11253(11) 0.92101(10)
C41 C 0.2647(2) 0.15402(12) 0.93032(11)
H43 H 0.2919 0.1775 0.9642
C42 C 0.1563(2) 0.11958(14) 0.93868(13)
H44 H 0.1289 0.0953 0.9063
H45 H 0.0961 0.1481 0.9446
H46 H 0.1745 0.0933 0.9705
C43 C 0.2379(2) 0.19858(12) 0.88309(11)
H47 H 0.2055 0.1770 0.8498
H48 H 0.3089 0.2190 0.8777
H49 H 0.1820 0.2283 0.8915
C44 C 0.3451(2) 0.07298(12) 0.87707(11)
H50 H 0.2720 0.0711 0.8543
C45 C 0.4333(3) 0.03650(12) 0.86597(11)
H51 H 0.4197 0.0092 0.8364
C46 C 0.5410(2) 0.03959(12) 0.89769(11)
H52 H 0.6013 0.0148 0.8892
C47 C 0.5630(2) 0.07847(11) 0.94197(10)
C48 C 0.6825(2) 0.08238(12) 0.97543(12)
H53 H 0.6837 0.1172 1.0008
C49 C 0.7106(3) 0.02567(14) 1.00977(13)
H54 H 0.7120 -0.0090 0.9857
H55 H 0.6516 0.0195 1.0328
H56 H 0.7861 0.0302 1.0328
C50 C 0.7739(3) 0.09348(15) 0.93937(14)
H57 H 0.7547 0.1300 0.9179
H58 H 0.7759 0.0593 0.9148
H59 H 0.8495 0.0982 0.9623
C51 C 0.5537(2) 0.27231(11) 1.09234(10)
C52 C 0.4763(2) 0.30163(12) 1.12061(10)
C53 C 0.3592(2) 0.27607(12) 1.12688(10)
H60 H 0.3399 0.2430 1.0998
C54 C 0.3654(3) 0.24949(14) 1.18442(11)
H61 H 0.3850 0.2812 1.2116
H62 H 0.4246 0.2182 1.1902
H63 H 0.2905 0.2322 1.1881
C55 C 0.2619(2) 0.32299(13) 1.11706(11)
H64 H 0.2658 0.3447 1.0832
H65 H 0.2708 0.3513 1.1475
H66 H 0.1871 0.3028 1.1142
C56 C 0.5140(3) 0.35538(13) 1.14654(11)
H67 H 0.4643 0.3768 1.1661
C57 C 0.6222(3) 0.37776(13) 1.14409(12)
H68 H 0.6450 0.4151 1.1608
C58 C 0.6976(3) 0.34650(13) 1.11766(11)
H69 H 0.7727 0.3621 1.1175
C59 C 0.6663(2) 0.29237(12) 1.09109(10)
C60 C 0.7538(2) 0.25542(13) 1.06680(10)
H70 H 0.7101 0.2323 1.0356
C61 C 0.8123(3) 0.20954(15) 1.10781(12)
H71 H 0.7538 0.1836 1.1196
H72 H 0.8551 0.2305 1.1394
H73 H 0.8657 0.1850 1.0908
C62 C 0.8438(3) 0.29219(16) 1.04433(15)
H74 H 0.8927 0.3130 1.0742
H75 H 0.8054 0.3217 1.0183
H76 H 0.8914 0.2656 1.0259
N1 N 0.52603(17) 0.34264(9) 0.79005(8)
N2 N 0.68351(17) 0.36768(9) 0.84306(8)
N3 N 0.48797(17) 0.14671(9) 1.00358(8)
N4 N 0.51842(17) 0.21644(9) 1.06478(8)
P1 P 0.60545(6) 0.24930(3) 0.92199(3)
C63 C 1.0237(4) 0.4943(2) 0.17186(17)
H77 H 1.0316 0.5348 0.1565
H78 H 0.9496 0.4938 0.1858
C64 C 1.0133(5) 0.4535(2) 0.12834(18)
H79 H 1.0536 0.4693 0.0999
H80 H 0.9316 0.4477 0.1134
H81 H 1.0474 0.4150 0.1414
O1 O 1.1071 0.4884 0.2144
H82 H 1.0915 0.5092 0.2404
O2 O 0.7998(6) 0.0781(3) 0.7265(3)
H83 H 0.7760 0.0460 0.7109
C65 C 0.8507(7) 0.0661(5) 0.7781(3)
H84 H 0.8381 0.0233 0.7860
H85 H 0.8130 0.0904 0.8034
C66 C 0.9712(7) 0.0780(4) 0.7883(3)
H86 H 1.0052 0.0603 0.8233
H87 H 0.9840 0.1214 0.7894
H88 H 1.0073 0.0603 0.7593
O4 O 1.1637(3) 0.1161(3) 1.14578(13)
H95 H 1.2243 0.1362 1.1546
C69 C 1.0516(4) 0.0682(3) 1.0748(2)
H96 H 1.0491 0.0347 1.1001
H97 H 1.0559 0.0525 1.0385
H98 H 0.9819 0.0926 1.0734
C70 C 1.1492(4) 0.1037(3) 1.09294(18)
H99 H 1.2185 0.0826 1.0849
H100 H 1.1421 0.1418 1.0723
Cl1 Cl 0.08906(7) 0.57981(3) 0.30441(3)
O3? O 0.8368(13) 0.0556(7) 0.7166(5)
H89? H 0.7794 0.0326 0.7113
C67? C 0.9060(16) 0.0401(9) 0.7634(6)
H90? H 0.9865 0.0498 0.7598
H91? H 0.9012 -0.0039 0.7681
C68? C 0.880(2) 0.0682(11) 0.8106(7)
H92? H 0.8692 0.1113 0.8038
H93? H 0.9441 0.0620 0.8407
H94? H 0.8096 0.0509 0.8200
loop_
_geom_bond_atom_site_label_1
_geom_bond_atom_site_label_2
_geom_bond_site_symmetry_1
_geom_bond_site_symmetry_2
C1 C2 1_555 1_555
C2 C3 1_555 1_555
C3 H1 1_555 1_555
C4 C3 1_555 1_555
H2 C4 1_555 1_555
C5 C4 1_555 1_555
H3 C5 1_555 1_555
C6 C5 1_555 1_555
H4 C6 1_555 1_555
C7 C2 1_555 1_555
C8 C7 1_555 1_555
C9 C8 1_555 1_555
C10 H5 1_555 1_555
C11 C10 1_555 1_555
H6 C11 1_555 1_555
C12 C13 1_555 1_555
C13 C14 1_555 1_555
C14 H7 1_555 1_555
C15 C14 1_555 1_555
H8 C15 1_555 1_555
H9 C15 1_555 1_555
H10 C15 1_555 1_555
C16 C14 1_555 1_555
H11 C16 1_555 1_555
H12 C16 1_555 1_555
H13 C16 1_555 1_555
C17 C13 1_555 1_555
H14 C17 1_555 1_555
C18 C17 1_555 1_555
H15 C18 1_555 1_555
C19 C18 1_555 1_555
H16 C19 1_555 1_555
C20 C12 1_555 1_555
C21 C20 1_555 1_555
H17 C21 1_555 1_555
C22 C21 1_555 1_555
H18 C22 1_555 1_555
H19 C22 1_555 1_555
H20 C22 1_555 1_555
C23 C21 1_555 1_555
H21 C23 1_555 1_555
H22 C23 1_555 1_555
H23 C23 1_555 1_555
C24 C25 1_555 1_555
C25 C26 1_555 1_555
C26 H24 1_555 1_555
C27 C26 1_555 1_555
H25 C27 1_555 1_555
H26 C27 1_555 1_555
H27 C27 1_555 1_555
C28 C26 1_555 1_555
H28 C28 1_555 1_555
H29 C28 1_555 1_555
H30 C28 1_555 1_555
C29 C25 1_555 1_555
H31 C29 1_555 1_555
C30 C29 1_555 1_555
H32 C30 1_555 1_555
C31 C30 1_555 1_555
H33 C31 1_555 1_555
C32 C24 1_555 1_555
C33 C32 1_555 1_555
H34 C33 1_555 1_555
C34 C33 1_555 1_555
H35 C34 1_555 1_555
H36 C34 1_555 1_555
H37 C34 1_555 1_555
C35 C33 1_555 1_555
H38 C35 1_555 1_555
H39 C35 1_555 1_555
H40 C35 1_555 1_555
C36 C1 1_555 1_555
C37 H41 1_555 1_555
C38 C37 1_555 1_555
H42 C38 1_555 1_555
C39 C40 1_555 1_555
C40 C41 1_555 1_555
C41 H43 1_555 1_555
C42 C41 1_555 1_555
H44 C42 1_555 1_555
H45 C42 1_555 1_555
H46 C42 1_555 1_555
C43 C41 1_555 1_555
H47 C43 1_555 1_555
H48 C43 1_555 1_555
H49 C43 1_555 1_555
C44 C40 1_555 1_555
H50 C44 1_555 1_555
C45 C44 1_555 1_555
H51 C45 1_555 1_555
C46 C45 1_555 1_555
H52 C46 1_555 1_555
C47 C39 1_555 1_555
C48 C47 1_555 1_555
H53 C48 1_555 1_555
C49 C48 1_555 1_555
H54 C49 1_555 1_555
H55 C49 1_555 1_555
H56 C49 1_555 1_555
C50 C48 1_555 1_555
H57 C50 1_555 1_555
H58 C50 1_555 1_555
H59 C50 1_555 1_555
C51 C52 1_555 1_555
C52 C53 1_555 1_555
C53 H60 1_555 1_555
C54 C53 1_555 1_555
H61 C54 1_555 1_555
H62 C54 1_555 1_555
H63 C54 1_555 1_555
C55 C53 1_555 1_555
H64 C55 1_555 1_555
H65 C55 1_555 1_555
H66 C55 1_555 1_555
C56 C52 1_555 1_555
H67 C56 1_555 1_555
C57 C56 1_555 1_555
H68 C57 1_555 1_555
C58 C57 1_555 1_555
H69 C58 1_555 1_555
C59 C51 1_555 1_555
C60 C59 1_555 1_555
H70 C60 1_555 1_555
C61 C60 1_555 1_555
H71 C61 1_555 1_555
H72 C61 1_555 1_555
H73 C61 1_555 1_555
C62 C60 1_555 1_555
H74 C62 1_555 1_555
H75 C62 1_555 1_555
H76 C62 1_555 1_555
N1 C9 1_555 1_555
N2 C9 1_555 1_555
N3 C36 1_555 1_555
N4 C36 1_555 1_555
P1 C1 1_555 1_555
C63 H77 1_555 1_555
H78 C63 1_555 1_555
C64 C63 1_555 1_555
H79 C64 1_555 1_555
H80 C64 1_555 1_555
H81 C64 1_555 1_555
O1 C63 1_555 1_555
H82 O1 1_555 1_555
O2 H83 1_555 1_555
C65 O2 1_555 1_555
H84 C65 1_555 1_555
H85 C65 1_555 1_555
C66 C65 1_555 1_555
H86 C66 1_555 1_555
H87 C66 1_555 1_555
H88 C66 1_555 1_555
O4 H95 1_555 1_555
C69 H96 1_555 1_555
H97 C69 1_555 1_555
H98 C69 1_555 1_555
C70 O4 1_555 1_555
H99 C70 1_555 1_555
H100 C70 1_555 1_555
C6 C7 1_555 1_555
C8 P1 1_555 1_555
C10 N2 1_555 1_555
C11 N1 1_555 1_555
C12 N1 1_555 1_555
C19 C20 1_555 1_555
C24 N2 1_555 1_555
C31 C32 1_555 1_555
C37 N4 1_555 1_555
C38 N3 1_555 1_555
C39 N3 1_555 1_555
C46 C47 1_555 1_555
C51 N4 1_555 1_555
C58 C59 1_555 1_555
C69 C70 1_555 1_555

#END
