
#######################################################################
#
#                 Cambridge Crystallographic Data Centre
#                                CCDC 
#
#######################################################################
#
# If this CIF has been generated from an entry in the Cambridge 
# Structural Database, then it will include bibliographic, chemical, 
# crystal, experimental, refinement or atomic coordinate data resulting 
# from the CCDC's data processing and validation procedures.
#
#######################################################################

data_BEGHUQ10
_chemical_formula_moiety         'C32 H47 F1 O5'
_chemical_name_systematic        
'5\b-(S)-(1-p-Fluorophenylethanol-1-yl)-deoxycholic acid'
_symmetry_cell_setting           monoclinic
_symmetry_space_group_name_H-M   'P 21'
_symmetry_Int_Tables_number      4
_space_group_name_Hall           'P 2yb'
loop_
_symmetry_equiv_pos_site_id
_symmetry_equiv_pos_as_xyz
1 x,y,z
2 -x,1/2+y,-z
_cell_length_a                   12.199(3)
_cell_length_b                   15.191(3)
_cell_length_c                   7.461(1)
_cell_angle_alpha                90
_cell_angle_beta                 94.5(1)
_cell_angle_gamma                90
_cell_volume                     1378.37
_chemical_melting_point          215-220deg.C
_cell_formula_units_Z            2
loop_
_atom_site_label
_atom_site_type_symbol
_atom_site_fract_x
_atom_site_fract_y
_atom_site_fract_z
C1 C 0.4499(5) 0.2420(5) 0.5015(10)
C2 C 0.4902(5) 0.2905(5) 0.3389(12)
C3 C 0.4178(6) 0.3682(5) 0.2958(10)
C4 C 0.2965(5) 0.3419(4) 0.2663(9)
C5 C 0.2503(4) 0.2939(4) 0.4284(7)
C6 C 0.1333(5) 0.2619(4) 0.3655(9)
C7 C 0.1287(5) 0.1918(4) 0.2192(9)
C8 C 0.1951(5) 0.1119(4) 0.2798(9)
C9 C 0.3155(4) 0.1388(4) 0.3325(8)
C10 C 0.3285(4) 0.2123(4) 0.4837(7)
C11 C 0.3867(5) 0.0563(4) 0.3798(9)
C12 C 0.3785(4) -0.0165(4) 0.2401(8)
C13 C 0.2575(4) -0.0441(4) 0.1951(8)
C14 C 0.1930(4) 0.0410(4) 0.1376(8)
C15 C 0.0806(5) 0.0064(5) 0.0623(11)
C16 C 0.1087(6) -0.0797(5) -0.0324(12)
C17 C 0.2307(4) -0.1039(4) 0.0261(8)
C18 C 0.2124(6) -0.0854(5) 0.3617(10)
C19 C 0.3054(8) 0.1724(5) 0.6653(10)
C20 C 0.2461(5) -0.2033(4) 0.0450(8)
C21 C 0.3622(6) -0.2263(5) 0.1265(11)
C22 C 0.2182(5) -0.2512(4) -0.1327(9)
C23 C 0.1992(5) -0.3513(5) -0.1145(10)
C24 C 0.2976(5) -0.4104(4) -0.0866(8)
O1 O 0.4521(6) 0.4082(4) 0.1348(10)
O2 O 0.4296(5) 0.0130(4) 0.0862(10)
O3 O 0.2884(5) -0.4824(4) -0.0140(9)
O4 O 0.3873(4) -0.3851(3) -0.1513(8)
C25 C 0.2345(5) 0.3652(4) 0.5870(8)
C26 C 0.1553(7) 0.3373(6) 0.7273(10)
C27 C 0.1898(5) 0.4536(4) 0.5090(8)
C28 C 0.2604(6) 0.5247(5) 0.4884(10)
C29 C 0.2216(7) 0.6065(5) 0.4273(11)
C30 C 0.1120(7) 0.6141(5) 0.3901(10)
C31 C 0.0374(6) 0.5487(5) 0.4051(10)
C32 C 0.0782(6) 0.4685(5) 0.4655(9)
O5 O 0.3404(4) 0.3821(4) 0.6744(8)
F1 F 0.0720(5) 0.6948(4) 0.3293(7)
H1 H 0.4943(44) 0.2045(36) 0.5307(67)
H2 H 0.4688(40) 0.2841(35) 0.6229(68)
H3 H 0.4878(53) 0.2513(48) 0.2321(89)
H4 H 0.5713(58) 0.3018(46) 0.3768(87)
H5 H 0.4377(48) 0.4098(44) 0.4209(82)
H6 H 0.2934(43) 0.3095(38) 0.1790(73)
H7 H 0.2451(41) 0.4051(37) 0.2270(68)
H8 H 0.0911(46) 0.3070(39) 0.3253(75)
H9 H 0.0959(56) 0.2423(49) 0.4760(91)
H10 H 0.1469(45) 0.2145(41) 0.1092(80)
H11 H 0.0535(49) 0.1794(39) 0.1869(74)
H12 H 0.1508(45) 0.0909(38) 0.3837(75)
H13 H 0.3439(36) 0.1716(29) 0.2063(58)
H14 H 0.3652(48) 0.0358(43) 0.4974(83)
H15 H 0.4748(54) 0.0620(43) 0.4134(80)
H16 H 0.4298(39) -0.0676(33) 0.2958(66)
H17 H 0.2307(34) 0.0685(30) 0.0264(59)
H18 H 0.0383(46) 0.0425(40) -0.0193(77)
H19 H 0.0333(43) -0.0052(37) 0.1918(73)
H20 H 0.0993(45) -0.0739(37) -0.1569(81)
H21 H 0.0685(50) -0.1172(44) -0.0048(84)
H22 H 0.2739(39) -0.0801(33) -0.0830(65)
H23 H 0.1584(65) -0.1114(58) 0.3445(98)
H24 H 0.2089(58) -0.0493(48) 0.4830(93)
H25 H 0.2615(61) -0.1255(55) 0.4144(96)
H26 H 0.2259(57) 0.1449(47) 0.6655(89)
H27 H 0.3228(50) 0.2247(44) 0.7787(86)
H28 H 0.3483(63) 0.1381(52) 0.7067(93)
H29 H 0.2004(50) -0.2195(44) 0.1230(82)
H30 H 0.3718(59) -0.2843(57) 0.1357(98)
H31 H 0.3785(64) -0.1987(57) 0.2490(92)
H32 H 0.4370(64) -0.2020(52) 0.0701(99)
H33 H 0.2787(43) -0.2373(36) -0.2116(68)
H34 H 0.1442(46) -0.2188(39) -0.1942(71)
H35 H 0.1510(61) -0.3667(51) -0.0174(91)
H36 H 0.4011(39) 0.4115(36) 0.0615(66)
H37 H 0.4195(63) 0.0044(56) 0.0081(88)
H38 H 0.4519(72) -0.4226(62) -0.1235(93)
H39 H 0.0685(67) 0.3149(55) 0.6535(93)
H40 H 0.1528(55) 0.3767(50) 0.8119(95)
H41 H 0.1872(58) 0.2992(50) 0.7916(98)
H42 H 0.3304(42) 0.5137(35) 0.5240(65)
H43 H 0.2706(55) 0.6624(48) 0.4174(91)
H44 H -0.0465(57) 0.5492(47) 0.3528(89)
H45 H 0.0365(52) 0.4316(46) 0.4825(90)
loop_
_geom_bond_atom_site_label_1
_geom_bond_atom_site_label_2
_geom_bond_site_symmetry_1
_geom_bond_site_symmetry_2
C1 C2 1_555 1_555
C2 C3 1_555 1_555
C3 C4 1_555 1_555
C4 C5 1_555 1_555
C5 C6 1_555 1_555
C6 C7 1_555 1_555
C7 C8 1_555 1_555
C8 C9 1_555 1_555
C9 C10 1_555 1_555
C10 C1 1_555 1_555
C11 C9 1_555 1_555
C12 C11 1_555 1_555
C13 C12 1_555 1_555
C14 C8 1_555 1_555
C15 C14 1_555 1_555
C16 C15 1_555 1_555
C17 C13 1_555 1_555
C18 C13 1_555 1_555
C19 C10 1_555 1_555
C20 C17 1_555 1_555
C21 C20 1_555 1_555
C22 C20 1_555 1_555
C23 C22 1_555 1_555
C24 C23 1_555 1_555
O1 C3 1_555 1_555
O2 C12 1_555 1_555
O3 C24 1_555 1_555
O4 C24 1_555 1_555
C25 C5 1_555 1_555
C26 C25 1_555 1_555
C27 C25 1_555 1_555
C28 C27 1_555 1_555
C29 C28 1_555 1_555
C30 C29 1_555 1_555
C31 C30 1_555 1_555
C32 C27 1_555 1_555
O5 C25 1_555 1_555
F1 C30 1_555 1_555
H1 C1 1_555 1_555
H2 C1 1_555 1_555
H3 C2 1_555 1_555
H4 C2 1_555 1_555
H5 C3 1_555 1_555
H6 C4 1_555 1_555
H7 C4 1_555 1_555
H8 C6 1_555 1_555
H9 C6 1_555 1_555
H10 C7 1_555 1_555
H11 C7 1_555 1_555
H12 C8 1_555 1_555
H13 C9 1_555 1_555
H14 C11 1_555 1_555
H15 C11 1_555 1_555
H16 C12 1_555 1_555
H17 C14 1_555 1_555
H18 C15 1_555 1_555
H19 C15 1_555 1_555
H20 C16 1_555 1_555
H21 C16 1_555 1_555
H22 C17 1_555 1_555
H23 C18 1_555 1_555
H24 C18 1_555 1_555
H25 C18 1_555 1_555
H26 C19 1_555 1_555
H27 C19 1_555 1_555
H28 C19 1_555 1_555
H29 C20 1_555 1_555
H30 C21 1_555 1_555
H31 C21 1_555 1_555
H32 C21 1_555 1_555
H33 C22 1_555 1_555
H34 C22 1_555 1_555
H35 C23 1_555 1_555
H36 O1 1_555 1_555
H37 O2 1_555 1_555
H38 O4 1_555 1_555
H39 C26 1_555 1_555
H40 C26 1_555 1_555
H41 C26 1_555 1_555
H42 C28 1_555 1_555
H43 C29 1_555 1_555
H44 C31 1_555 1_555
H45 C32 1_555 1_555
C5 C10 1_555 1_555
C13 C14 1_555 1_555
C16 C17 1_555 1_555
C31 C32 1_555 1_555

#END
