
#######################################################################
#
#                 Cambridge Crystallographic Data Centre
#                                CCDC 
#
#######################################################################
#
# If this CIF has been generated from an entry in the Cambridge 
# Structural Database, then it will include bibliographic, chemical, 
# crystal, experimental, refinement or atomic coordinate data resulting 
# from the CCDC's data processing and validation procedures.
#
#######################################################################

data_BEGHUS
_chemical_formula_moiety         'C22 H21 Br1 N2 O3'
_chemical_name_systematic        
"Ethyl 5-bromo-2-oxo-1',2',3',3a'-tetrahydro-5'H-spiro[indole-3,4'-pyrrolo[1,2-a]quinoline]-1(2H)-carboxylate"
_symmetry_cell_setting           monoclinic
_symmetry_space_group_name_H-M   'P 21/c'
_symmetry_Int_Tables_number      14
_space_group_name_Hall           '-P 2ybc'
loop_
_symmetry_equiv_pos_site_id
_symmetry_equiv_pos_as_xyz
1 x,y,z
2 -x,1/2+y,1/2-z
3 -x,-y,-z
4 x,1/2-y,1/2+z
_cell_length_a                   10.2542(2)
_cell_length_b                   14.2847(3)
_cell_length_c                   13.2826(4)
_cell_angle_alpha                90
_cell_angle_beta                 96.513(2)
_cell_angle_gamma                90
_cell_volume                     1933.05
_cell_formula_units_Z            4
loop_
_atom_site_label
_atom_site_type_symbol
_atom_site_fract_x
_atom_site_fract_y
_atom_site_fract_z
Br1 Br 0.50867(3) 0.115532(19) 0.16424(2)
O1 O 0.16218(17) 0.46846(12) 0.54346(14)
O2 O 0.1004(2) 0.28985(13) 0.57508(15)
N1 N 0.22997(19) 0.34618(13) 0.45476(15)
N2 N 0.0627(2) 0.05055(14) 0.37333(16)
O3 O 0.2771(2) 0.49583(13) 0.41530(18)
C1 C 0.1880(2) 0.18234(16) 0.45783(17)
C2 C 0.3001(2) 0.30274(16) 0.38047(17)
C3 C 0.2473(2) 0.01393(17) 0.49591(19)
C4 C 0.2785(2) 0.20674(16) 0.38011(17)
C5 C 0.1650(2) 0.27676(17) 0.50654(19)
C6 C 0.4426(2) 0.28612(17) 0.25263(19)
H1 H 0.4986 0.3118 0.2097
C7 C 0.1542(2) -0.01313(16) 0.41479(19)
C8 C 0.3818(2) 0.34376(18) 0.31702(19)
H2 H 0.3955 0.4081 0.3176
C9 C 0.3378(2) 0.14986(17) 0.31493(18)
H3 H 0.3228 0.0856 0.3132
C10 C 0.4205(2) 0.19095(17) 0.25190(18)
C11 C 0.1610(3) -0.10378(18) 0.3763(2)
H4 H 0.1010 -0.1226 0.3223
C12 C 0.2778(3) 0.6064(2) 0.6144(3)
H5 H 0.3485 0.5976 0.5738
H6 H 0.2967 0.5734 0.6774
H7 H 0.2679 0.6719 0.6277
C13 C 0.0521(2) 0.14478(17) 0.41285(18)
H8 H -0.0056 0.1431 0.4668
C14 C -0.0171(2) 0.1982(2) 0.3234(2)
H9 H -0.0687 0.2494 0.3460
H10 H 0.0455 0.2229 0.2806
C15 C 0.2452(3) 0.11209(17) 0.5380(2)
H11 H 0.3339 0.1307 0.5632
H12 H 0.1930 0.1129 0.5945
C16 C 0.2272(2) 0.44366(17) 0.46793(19)
C17 C -0.1042(3) 0.1249(2) 0.2679(3)
H13 H -0.1856 0.1179 0.2979
H14 H -0.1243 0.1410 0.1969
C18 C 0.3416(3) -0.0500(2) 0.5339(2)
H15 H 0.4042 -0.0319 0.5865
C19 C 0.3453(3) -0.1398(2) 0.4962(3)
H16 H 0.4083 -0.1821 0.5240
C20 C -0.0230(3) 0.0363(2) 0.2803(2)
H17 H -0.0786 -0.0180 0.2856
H18 H 0.0274 0.0276 0.2235
C21 C 0.2555(3) -0.1657(2) 0.4176(3)
H19 H 0.2581 -0.2259 0.3913
C22 C 0.1546(3) 0.56981(18) 0.5595(2)
H20 H 0.0820 0.5835 0.5981
H21 H 0.1379 0.6010 0.4945
loop_
_geom_bond_atom_site_label_1
_geom_bond_atom_site_label_2
_geom_bond_site_symmetry_1
_geom_bond_site_symmetry_2
Br1 C10 1_555 1_555
O1 C16 1_555 1_555
O2 C5 1_555 1_555
N1 C2 1_555 1_555
N2 C7 1_555 1_555
O3 C16 1_555 1_555
C1 C4 1_555 1_555
C2 C4 1_555 1_555
C3 C7 1_555 1_555
C4 C9 1_555 1_555
C5 N1 1_555 1_555
C6 H1 1_555 1_555
C7 C11 1_555 1_555
C8 C2 1_555 1_555
H2 C8 1_555 1_555
C9 H3 1_555 1_555
C10 C6 1_555 1_555
C11 H4 1_555 1_555
C12 H5 1_555 1_555
H6 C12 1_555 1_555
H7 C12 1_555 1_555
C13 N2 1_555 1_555
H8 C13 1_555 1_555
C14 C13 1_555 1_555
H9 C14 1_555 1_555
H10 C14 1_555 1_555
C15 C1 1_555 1_555
H11 C15 1_555 1_555
H12 C15 1_555 1_555
C16 N1 1_555 1_555
C17 C14 1_555 1_555
H13 C17 1_555 1_555
H14 C17 1_555 1_555
C18 C3 1_555 1_555
H15 C18 1_555 1_555
C19 C18 1_555 1_555
H16 C19 1_555 1_555
C20 N2 1_555 1_555
H17 C20 1_555 1_555
H18 C20 1_555 1_555
C21 C11 1_555 1_555
H19 C21 1_555 1_555
C22 O1 1_555 1_555
H20 C22 1_555 1_555
H21 C22 1_555 1_555
C1 C5 1_555 1_555
C1 C13 1_555 1_555
C3 C15 1_555 1_555
C6 C8 1_555 1_555
C9 C10 1_555 1_555
C12 C22 1_555 1_555
C17 C20 1_555 1_555
C19 C21 1_555 1_555

#END
