
#######################################################################
#
#                 Cambridge Crystallographic Data Centre
#                                CCDC 
#
#######################################################################
#
# If this CIF has been generated from an entry in the Cambridge 
# Structural Database, then it will include bibliographic, chemical, 
# crystal, experimental, refinement or atomic coordinate data resulting 
# from the CCDC's data processing and validation procedures.
#
#######################################################################

data_BEGJOO
_chemical_formula_moiety         'C36 H26'
_chemical_name_systematic        
8,9-bis(4-methylphenyl)-10-phenylpentaleno[1,2-a]naphthalene
_symmetry_cell_setting           monoclinic
_symmetry_space_group_name_H-M   'P 21/n'
_symmetry_Int_Tables_number      14
_space_group_name_Hall           '-P 2yn'
loop_
_symmetry_equiv_pos_site_id
_symmetry_equiv_pos_as_xyz
1 x,y,z
2 1/2-x,1/2+y,1/2-z
3 -x,-y,-z
4 1/2+x,1/2-y,1/2+z
_cell_length_a                   10.6839(3)
_cell_length_b                   23.5559(7)
_cell_length_c                   10.7016(3)
_cell_angle_alpha                90
_cell_angle_beta                 115.2010(10)
_cell_angle_gamma                90
_cell_volume                     2436.91
_exptl_crystal_colour            black
_cell_formula_units_Z            4
loop_
_atom_site_label
_atom_site_type_symbol
_atom_site_fract_x
_atom_site_fract_y
_atom_site_fract_z
C1 C 1.10666(14) -0.22694(5) 0.61680(14)
C2 C 1.15800(13) -0.20668(5) 0.74837(14)
C3 C 1.12482(12) -0.15107(5) 0.77760(12)
C4 C 1.03086(11) -0.11738(5) 0.66496(12)
C5 C 0.99216(11) -0.06357(5) 0.69690(11)
C6 C 0.89247(11) -0.01928(5) 0.61530(11)
C7 C 0.78125(11) -0.00751(5) 0.49400(11)
C8 C 0.72856(11) 0.05041(5) 0.50715(11)
C9 C 0.60420(11) 0.07574(5) 0.39589(11)
C10 C 0.60987(12) 0.12914(5) 0.34214(12)
C11 C 0.49236(12) 0.15289(5) 0.23924(12)
C12 C 0.36552(12) 0.12464(5) 0.18813(12)
C13 C 0.23819(13) 0.15105(6) 0.07757(14)
C14 C 0.98508(12) -0.13901(5) 0.52878(13)
C15 C 1.02128(13) -0.19239(5) 0.50506(14)
C16 C 1.05648(11) -0.04260(5) 0.83227(11)
C17 C 1.15307(12) -0.07487(5) 0.94063(13)
C18 C 1.18381(12) -0.12891(5) 0.91280(13)
C19 C 1.00654(11) 0.01558(5) 0.83690(12)
C20 C 0.91179(11) 0.02882(5) 0.70794(11)
C21 C 0.36019(12) 0.07137(5) 0.24161(12)
C22 C 0.47756(11) 0.04675(5) 0.34285(12)
C23 C 0.80858(10) 0.07263(4) 0.63395(11)
C24 C 0.79924(11) 0.12771(5) 0.69449(11)
C25 C 0.92030(11) 0.15443(5) 0.78701(11)
C26 C 0.91547(12) 0.20572(5) 0.84841(12)
C27 C 0.79014(11) 0.23238(5) 0.82085(11)
C28 C 0.66986(12) 0.20652(5) 0.72607(12)
C29 C 0.67337(11) 0.15500(5) 0.66488(12)
C30 C 0.78385(14) 0.28599(5) 0.89395(14)
C31 C 0.71376(11) -0.04106(4) 0.36619(11)
C32 C 0.69210(12) -0.01731(5) 0.23901(12)
C33 C 0.62819(13) -0.04836(6) 0.11846(13)
C34 C 0.58205(13) -0.10319(6) 0.12297(14)
C35 C 0.60239(13) -0.12690(6) 0.24821(14)
C36 C 0.66775(12) -0.09621(5) 0.36922(13)
H1 H 0.6974(13) 0.1500(5) 0.3807(12)
H2 H 0.4976(13) 0.1916(6) 0.2022(13)
H3 H 0.4712(13) 0.0083(5) 0.3792(12)
H4 H 1.2481(14) -0.1526(6) 0.9875(13)
H5 H 1.0012(14) 0.2232(5) 0.9162(13)
H6 H 0.5859(14) 0.1359(5) 0.6003(13)
H7 H 0.5792(14) 0.2263(6) 0.7043(13)
H8 H 1.0383(13) 0.0396(5) 0.9235(13)
H9 H 1.0111(14) 0.1365(5) 0.8090(12)
H10 H 0.6805(14) -0.1120(6) 0.4594(14)
H11 H 0.9858(14) -0.2054(6) 0.4098(14)
H12 H 0.2738(14) 0.0497(5) 0.2114(13)
H13 H 0.9293(13) -0.1151(5) 0.4515(13)
H14 H 0.7236(13) 0.0221(5) 0.2351(13)
H15 H 1.2210(14) -0.2302(6) 0.8274(13)
H16 H 1.1988(13) -0.0591(6) 1.0359(14)
H17 H 1.1311(14) -0.2652(6) 0.5973(13)
H18 H 0.6145(14) -0.0305(6) 0.0300(15)
H19 H 0.2430(15) 0.1945(7) 0.0798(15)
H20 H 0.5340(15) -0.1252(6) 0.0378(14)
H21 H 0.5737(14) -0.1663(6) 0.2546(14)
H22 H 0.1520(16) 0.1390(6) 0.0888(14)
H23 H 0.2275(16) 0.1402(7) -0.0186(17)
H24 H 0.7121(18) 0.3119(7) 0.8362(16)
H25 H 0.7671(19) 0.2781(8) 0.9739(19)
H26 H 0.8709(19) 0.3085(7) 0.9263(16)
loop_
_geom_bond_atom_site_label_1
_geom_bond_atom_site_label_2
_geom_bond_site_symmetry_1
_geom_bond_site_symmetry_2
C1 C2 1_555 1_555
C2 C3 1_555 1_555
C3 C4 1_555 1_555
C4 C5 1_555 1_555
C5 C6 1_555 1_555
C6 C7 1_555 1_555
C7 C8 1_555 1_555
C8 C9 1_555 1_555
C9 C10 1_555 1_555
C10 C11 1_555 1_555
C11 C12 1_555 1_555
C12 C13 1_555 1_555
C13 H19 1_555 1_555
C14 C4 1_555 1_555
C15 C1 1_555 1_555
C16 C5 1_555 1_555
C17 C16 1_555 1_555
C18 C3 1_555 1_555
C19 C16 1_555 1_555
C20 C6 1_555 1_555
C21 C12 1_555 1_555
C22 C9 1_555 1_555
C23 C8 1_555 1_555
C24 C23 1_555 1_555
C25 C24 1_555 1_555
C26 C25 1_555 1_555
C27 C26 1_555 1_555
C28 C27 1_555 1_555
C29 C24 1_555 1_555
C30 C27 1_555 1_555
C31 C7 1_555 1_555
C32 C31 1_555 1_555
C33 C32 1_555 1_555
C34 C33 1_555 1_555
C35 C34 1_555 1_555
C36 C31 1_555 1_555
H1 C10 1_555 1_555
H2 C11 1_555 1_555
H3 C22 1_555 1_555
H4 C18 1_555 1_555
H5 C26 1_555 1_555
H6 C29 1_555 1_555
H7 C28 1_555 1_555
H8 C19 1_555 1_555
H9 C25 1_555 1_555
H10 C36 1_555 1_555
H11 C15 1_555 1_555
H12 C21 1_555 1_555
H13 C14 1_555 1_555
H14 C32 1_555 1_555
H15 C2 1_555 1_555
H16 C17 1_555 1_555
H17 C1 1_555 1_555
H18 C33 1_555 1_555
H20 C34 1_555 1_555
H21 C35 1_555 1_555
H22 C13 1_555 1_555
H23 C13 1_555 1_555
H24 C30 1_555 1_555
H25 C30 1_555 1_555
H26 C30 1_555 1_555
C14 C15 1_555 1_555
C17 C18 1_555 1_555
C19 C20 1_555 1_555
C20 C23 1_555 1_555
C21 C22 1_555 1_555
C28 C29 1_555 1_555
C35 C36 1_555 1_555

#END
