
#######################################################################
#
#                 Cambridge Crystallographic Data Centre
#                                CCDC 
#
#######################################################################
#
# If this CIF has been generated from an entry in the Cambridge 
# Structural Database, then it will include bibliographic, chemical, 
# crystal, experimental, refinement or atomic coordinate data resulting 
# from the CCDC's data processing and validation procedures.
#
#######################################################################

data_BEGNUZ
_chemical_formula_moiety         'C16 H16 F3 N3 O1'
_chemical_name_systematic        
7'-(trifluoromethyl)-3'H-spiro[4-azabicyclo[2.2.2]octane-2,2'-[1,3]oxazolo[3,2-a]benzimidazole]
_chemical_properties_biological  'alpha 7 nAChR potency and selectivity'
_symmetry_cell_setting           monoclinic
_symmetry_space_group_name_H-M   'C 2'
_symmetry_Int_Tables_number      5
_space_group_name_Hall           'C 2y'
loop_
_symmetry_equiv_pos_site_id
_symmetry_equiv_pos_as_xyz
1 x,y,z
2 -x,y,-z
3 1/2+x,1/2+y,z
4 1/2-x,1/2+y,-z
_cell_length_a                   18.3442(10)
_cell_length_b                   6.3547(4)
_cell_length_c                   12.4128(6)
_cell_angle_alpha                90
_cell_angle_beta                 93.907(3)
_cell_angle_gamma                90
_cell_volume                     1443.62
_exptl_crystal_colour            colorless
_exptl_crystal_description       needle
_cell_formula_units_Z            4
_exptl_crystal_recrystallization_method methanol
loop_
_atom_site_label
_atom_site_type_symbol
_atom_site_fract_x
_atom_site_fract_y
_atom_site_fract_z
F4 F 0.2887(5) 0.119(2) 0.9666(7)
F5 F 0.4026(4) 0.074(2) 0.9558(8)
F6 F 0.3266(9) -0.1548(10) 0.8907(4)
N1 N 0.39551(7) 0.0984(2) 0.51356(10)
N2 N 0.35622(7) 0.4344(2) 0.49990(11)
N3 N 0.50420(7) 0.6892(3) 0.25008(11)
O1 O 0.40158(6) 0.3024(2) 0.35188(8)
C1 C 0.33728(9) 0.0506(3) 0.89998(13)
C2 C 0.33655(8) 0.1602(3) 0.79345(12)
C3 C 0.36571(8) 0.0553(3) 0.70787(12)
H1 H 0.3833 -0.0850 0.7151
C4 C 0.36788(8) 0.1657(3) 0.61117(12)
C5 C 0.34223(7) 0.3744(3) 0.60352(12)
C6 C 0.31309(8) 0.4775(3) 0.68940(13)
H2 H 0.2956 0.6179 0.6828
C7 C 0.31070(8) 0.3668(3) 0.78475(12)
H3 H 0.2912 0.4320 0.8454
C8 C 0.38631(8) 0.2657(3) 0.45402(12)
C9 C 0.34718(8) 0.6096(3) 0.42513(12)
H4 H 0.3642 0.7438 0.4587
H5 H 0.2958 0.6248 0.3961
C10 C 0.39762(8) 0.5352(3) 0.33741(12)
C11 C 0.36889(8) 0.5818(3) 0.22190(12)
H6 H 0.3163 0.5403 0.2106
C12 C 0.37759(9) 0.8187(3) 0.20498(13)
H7 H 0.3545 0.8973 0.2625
H8 H 0.3537 0.8609 0.1344
C13 C 0.46016(9) 0.8681(3) 0.20848(15)
H9 H 0.4739 0.9032 0.1349
H10 H 0.4707 0.9923 0.2551
C14 C 0.49619(9) 0.5152(4) 0.17235(14)
H11 H 0.5208 0.3885 0.2037
H12 H 0.5203 0.5534 0.1061
C15 C 0.41476(9) 0.4647(3) 0.14268(13)
H13 H 0.4010 0.5105 0.0678
H14 H 0.4062 0.3113 0.1476
C16 C 0.47645(8) 0.6234(3) 0.35220(12)
H15 H 0.4771 0.7451 0.4020
H16 H 0.5091 0.5139 0.3856
F1? F 0.2953(10) 0.147(3) 0.9664(11)
F2? F 0.4028(5) 0.029(5) 0.9489(13)
F3? F 0.3108(16) -0.146(2) 0.8899(10)
loop_
_geom_bond_atom_site_label_1
_geom_bond_atom_site_label_2
_geom_bond_site_symmetry_1
_geom_bond_site_symmetry_2
F4 C1 1_555 1_555
F5 C1 1_555 1_555
F6 C1 1_555 1_555
N1 C4 1_555 1_555
N2 C5 1_555 1_555
N3 C13 1_555 1_555
O1 C8 1_555 1_555
C1 C2 1_555 1_555
C2 C3 1_555 1_555
C3 H1 1_555 1_555
C4 C3 1_555 1_555
C5 C4 1_555 1_555
C6 C5 1_555 1_555
H2 C6 1_555 1_555
C7 C2 1_555 1_555
H3 C7 1_555 1_555
C8 N1 1_555 1_555
C9 N2 1_555 1_555
H4 C9 1_555 1_555
H5 C9 1_555 1_555
C10 O1 1_555 1_555
C11 C10 1_555 1_555
H6 C11 1_555 1_555
C12 C11 1_555 1_555
H7 C12 1_555 1_555
H8 C12 1_555 1_555
C13 C12 1_555 1_555
H9 C13 1_555 1_555
H10 C13 1_555 1_555
C14 N3 1_555 1_555
H11 C14 1_555 1_555
H12 C14 1_555 1_555
C15 C11 1_555 1_555
H13 C15 1_555 1_555
H14 C15 1_555 1_555
C16 N3 1_555 1_555
H15 C16 1_555 1_555
H16 C16 1_555 1_555
N2 C8 1_555 1_555
C6 C7 1_555 1_555
C9 C10 1_555 1_555
C10 C16 1_555 1_555
C14 C15 1_555 1_555

#END
