
#######################################################################
#
#                 Cambridge Crystallographic Data Centre
#                                CCDC 
#
#######################################################################
#
# If this CIF has been generated from an entry in the Cambridge 
# Structural Database, then it will include bibliographic, chemical, 
# crystal, experimental, refinement or atomic coordinate data resulting 
# from the CCDC's data processing and validation procedures.
#
#######################################################################

data_BEGRIQ
_chemical_formula_moiety         'C17 H17 N1 O1'
_chemical_name_systematic        
8a-Methyl-3a-phenyl-3,3a,8,8a-tetrahydro-2H-furo[2,3-b]indole
_symmetry_cell_setting           monoclinic
_symmetry_space_group_name_H-M   'P 21/c'
_symmetry_Int_Tables_number      14
_space_group_name_Hall           '-P 2ybc'
loop_
_symmetry_equiv_pos_site_id
_symmetry_equiv_pos_as_xyz
1 x,y,z
2 -x,1/2+y,1/2-z
3 -x,-y,-z
4 x,1/2-y,1/2+z
_cell_length_a                   9.1444(15)
_cell_length_b                   22.890(4)
_cell_length_c                   7.0366(12)
_cell_angle_alpha                90
_cell_angle_beta                 111.330(4)
_cell_angle_gamma                90
_cell_volume                     1371.98
_exptl_crystal_colour            colorless
_exptl_crystal_description       prismatic
_cell_formula_units_Z            4
loop_
_atom_site_label
_atom_site_type_symbol
_atom_site_fract_x
_atom_site_fract_y
_atom_site_fract_z
N1 N 0.0585(2) 0.53697(7) 0.7569(3)
O1 O 0.10260(18) 0.56994(6) 0.4599(2)
C1 C -0.0355(2) 0.57856(8) 0.7980(3)
C2 C -0.1718(3) 0.57112(10) 0.8386(4)
H1 H -0.2157 0.5342 0.8330
C3 C -0.2404(3) 0.61922(12) 0.8869(4)
H2 H -0.3309 0.6147 0.9165
C4 C -0.1779(3) 0.67394(11) 0.8924(3)
H3 H -0.2269 0.7061 0.9239
C5 C -0.0421(3) 0.68142(9) 0.8513(3)
H4 H 0.0002 0.7185 0.8553
C6 C 0.0300(2) 0.63371(7) 0.8044(3)
C7 C 0.1804(2) 0.62885(7) 0.7617(3)
C8 C 0.1686(2) 0.56419(8) 0.6804(3)
C9 C 0.0634(3) 0.62917(9) 0.4004(3)
H5 H -0.0447 0.6374 0.3832
H6 H 0.0785 0.6377 0.2737
C10 C 0.1750(3) 0.66402(9) 0.5739(3)
H7 H 0.1357 0.7032 0.5771
H8 H 0.2780 0.6664 0.5642
C11 C 0.3206(2) 0.64154(8) 0.9552(3)
C12 C 0.4163(2) 0.68916(9) 0.9718(4)
H9 H 0.3970 0.7140 0.8607
C13 C 0.5407(3) 0.70061(13) 1.1511(4)
H10 H 0.6037 0.7331 1.1595
C14 C 0.5719(3) 0.66460(14) 1.3167(4)
H11 H 0.6572 0.6720 1.4360
C15 C 0.4766(3) 0.61780(12) 1.3044(4)
H12 H 0.4963 0.5933 1.4164
C16 C 0.3507(3) 0.60658(10) 1.1263(3)
H13 H 0.2851 0.5751 1.1211
C17 C 0.3156(3) 0.52851(10) 0.7267(4)
H14 H 0.3592 0.5201 0.8701
H15 H 0.3905 0.5500 0.6882
H16 H 0.2908 0.4926 0.6514
H17 H 0.021(2) 0.5014(10) 0.711(3)
loop_
_geom_bond_atom_site_label_1
_geom_bond_atom_site_label_2
_geom_bond_site_symmetry_1
_geom_bond_site_symmetry_2
N1 C1 1_555 1_555
O1 C8 1_555 1_555
C1 C2 1_555 1_555
C2 H1 1_555 1_555
C3 C2 1_555 1_555
H2 C3 1_555 1_555
C4 C3 1_555 1_555
H3 C4 1_555 1_555
C5 C4 1_555 1_555
H4 C5 1_555 1_555
C6 C1 1_555 1_555
C7 C6 1_555 1_555
C8 N1 1_555 1_555
C9 O1 1_555 1_555
H5 C9 1_555 1_555
H6 C9 1_555 1_555
C10 C7 1_555 1_555
H7 C10 1_555 1_555
H8 C10 1_555 1_555
C11 C7 1_555 1_555
C12 C11 1_555 1_555
H9 C12 1_555 1_555
C13 C12 1_555 1_555
H10 C13 1_555 1_555
C14 C13 1_555 1_555
H11 C14 1_555 1_555
C15 C14 1_555 1_555
H12 C15 1_555 1_555
C16 C11 1_555 1_555
H13 C16 1_555 1_555
C17 C8 1_555 1_555
H14 C17 1_555 1_555
H15 C17 1_555 1_555
H16 C17 1_555 1_555
H17 N1 1_555 1_555
C5 C6 1_555 1_555
C7 C8 1_555 1_555
C9 C10 1_555 1_555
C15 C16 1_555 1_555

#END
