
#######################################################################
#
#                 Cambridge Crystallographic Data Centre
#                                CCDC 
#
#######################################################################
#
# If this CIF has been generated from an entry in the Cambridge 
# Structural Database, then it will include bibliographic, chemical, 
# crystal, experimental, refinement or atomic coordinate data resulting 
# from the CCDC's data processing and validation procedures.
#
#######################################################################

data_BEGVIU
_chemical_formula_moiety         'C20 H10 Cl1 F1 N2 O1'
_chemical_name_systematic        
2-(2-Chlorophenyl)-9-fluoropyrrolo[2,3,4-kl]acridin-1(2H)-one
_symmetry_cell_setting           triclinic
_symmetry_space_group_name_H-M   'P -1'
_symmetry_Int_Tables_number      2
_space_group_name_Hall           '-P 1'
loop_
_symmetry_equiv_pos_site_id
_symmetry_equiv_pos_as_xyz
1 x,y,z
2 -x,-y,-z
_cell_length_a                   8.3506(6)
_cell_length_b                   8.5287(6)
_cell_length_c                   12.1084(10)
_cell_angle_alpha                94.429(6)
_cell_angle_beta                 100.123(7)
_cell_angle_gamma                114.107(7)
_cell_volume                     764.163
_exptl_crystal_colour            red
_exptl_crystal_description       block
_cell_formula_units_Z            2
loop_
_atom_site_label
_atom_site_type_symbol
_atom_site_fract_x
_atom_site_fract_y
_atom_site_fract_z
Cl1 Cl 0.85242(9) 0.58547(8) 0.47119(5)
F1 F 1.12047(19) 0.76988(19) -0.21143(12)
O1 O 0.95028(18) 0.89100(17) 0.17870(12)
N1 N 0.7282(2) 0.67773(19) 0.24669(13)
N2 N 0.5964(2) 0.2576(2) -0.06026(14)
C1 C 0.8344(2) 0.7436(2) 0.16753(16)
C2 C 0.7737(2) 0.5932(2) 0.07401(16)
C3 C 0.8231(2) 0.5677(2) -0.02832(16)
C4 C 0.9561(3) 0.6967(3) -0.07088(18)
H1 H 1.0178 0.8104 -0.0318
C5 C 0.9911(3) 0.6500(3) -0.17005(19)
C6 C 0.9017(3) 0.4815(3) -0.23360(19)
H2 H 0.9311 0.4560 -0.3012
C7 C 0.7725(3) 0.3564(3) -0.19555(18)
H3 H 0.7124 0.2449 -0.2380
C8 C 0.7265(2) 0.3923(2) -0.09167(16)
C9 C 0.5531(2) 0.2875(2) 0.03856(17)
C10 C 0.4206(3) 0.1605(3) 0.08410(19)
H4 H 0.3568 0.0467 0.0453
C11 C 0.3884(3) 0.2074(3) 0.18501(19)
H5 H 0.3001 0.1230 0.2127
C12 C 0.4819(3) 0.3785(3) 0.25108(18)
H6 H 0.4561 0.4050 0.3199
C13 C 0.6096(2) 0.5004(2) 0.20939(16)
C14 C 0.6430(2) 0.4544(2) 0.10441(16)
C15 C 0.7348(2) 0.7839(2) 0.34584(17)
C16 C 0.6898(3) 0.9225(3) 0.33395(19)
H7 H 0.6517 0.9429 0.2619
C17 C 0.7019(3) 1.0300(3) 0.4297(2)
H8 H 0.6717 1.1229 0.4220
C18 C 0.7588(3) 0.9994(3) 0.5366(2)
H9 H 0.7668 1.0721 0.6007
C19 C 0.8037(3) 0.8626(3) 0.54945(19)
H10 H 0.8424 0.8429 0.6217
C20 C 0.7908(3) 0.7553(3) 0.45403(18)
loop_
_geom_bond_atom_site_label_1
_geom_bond_atom_site_label_2
_geom_bond_site_symmetry_1
_geom_bond_site_symmetry_2
Cl1 C20 1_555 1_555
F1 C5 1_555 1_555
O1 C1 1_555 1_555
N1 C1 1_555 1_555
N2 C8 1_555 1_555
C1 C2 1_555 1_555
C2 C3 1_555 1_555
C3 C4 1_555 1_555
C4 H1 1_555 1_555
C5 C4 1_555 1_555
C6 C5 1_555 1_555
H2 C6 1_555 1_555
C7 C6 1_555 1_555
H3 C7 1_555 1_555
C8 C3 1_555 1_555
C9 N2 1_555 1_555
C10 C9 1_555 1_555
H4 C10 1_555 1_555
C11 C10 1_555 1_555
H5 C11 1_555 1_555
C12 C11 1_555 1_555
H6 C12 1_555 1_555
C13 N1 1_555 1_555
C14 C2 1_555 1_555
C15 N1 1_555 1_555
C16 C15 1_555 1_555
H7 C16 1_555 1_555
C17 C16 1_555 1_555
H8 C17 1_555 1_555
C18 C17 1_555 1_555
H9 C18 1_555 1_555
C19 C18 1_555 1_555
H10 C19 1_555 1_555
C20 C15 1_555 1_555
C7 C8 1_555 1_555
C9 C14 1_555 1_555
C12 C13 1_555 1_555
C13 C14 1_555 1_555
C19 C20 1_555 1_555

#END
