
#######################################################################
#
#                 Cambridge Crystallographic Data Centre
#                                CCDC 
#
#######################################################################
#
# If this CIF has been generated from an entry in the Cambridge 
# Structural Database, then it will include bibliographic, chemical, 
# crystal, experimental, refinement or atomic coordinate data resulting 
# from the CCDC's data processing and validation procedures.
#
#######################################################################

data_BEGWUH
_chemical_formula_moiety         'C28 H23 N1 O3 S1'
_chemical_name_systematic        
1-Benzyl-3-(benzylsulfonyl)-3-phenyl-1,3-dihydro-2H-indol-2-one
_symmetry_cell_setting           monoclinic
_symmetry_space_group_name_H-M   'P 21'
_symmetry_Int_Tables_number      4
_space_group_name_Hall           'P 2yb'
loop_
_symmetry_equiv_pos_site_id
_symmetry_equiv_pos_as_xyz
1 x,y,z
2 -x,1/2+y,-z
_cell_length_a                   8.706(9)
_cell_length_b                   13.319(12)
_cell_length_c                   10.030(9)
_cell_angle_alpha                90
_cell_angle_beta                 92.372(18)
_cell_angle_gamma                90
_cell_volume                     1162.03
_cell_formula_units_Z            2
loop_
_atom_site_label
_atom_site_type_symbol
_atom_site_fract_x
_atom_site_fract_y
_atom_site_fract_z
C1 C 0.5736(5) 0.3761(4) 0.1475(4)
C2 C 0.5741(5) 0.3169(3) 0.0149(4)
C3 C 0.6875(5) 0.2322(3) 0.0481(5)
C4 C 0.7310(5) 0.2398(4) 0.1826(5)
N1 N 0.6607(4) 0.3243(3) 0.2398(4)
O1 O 0.5077(4) 0.4548(3) 0.1690(3)
O2 O 0.8060(3) 0.4373(2) -0.0452(3)
S1 S 0.66711(11) 0.39721(8) -0.10849(10)
O3 O 0.6797(4) 0.3393(2) -0.2266(3)
C5 C 0.8337(5) 0.1731(4) 0.2438(5)
H1 H 0.8606 0.1782 0.3343
C6 C 0.8947(6) 0.0987(4) 0.1658(7)
H2 H 0.9636 0.0528 0.2047
C7 C 0.8559(5) 0.0911(4) 0.0322(6)
H3 H 0.9000 0.0413 -0.0186
C8 C 0.7506(5) 0.1578(3) -0.0278(5)
H4 H 0.7233 0.1521 -0.1182
C9 C 0.4153(5) 0.2856(3) -0.0393(4)
C10 C 0.3980(5) 0.2087(4) -0.1312(5)
H5 H 0.4844 0.1741 -0.1575
C11 C 0.2553(6) 0.1822(5) -0.1845(5)
H6 H 0.2467 0.1308 -0.2473
C12 C 0.1265(6) 0.2308(5) -0.1459(6)
H7 H 0.0303 0.2127 -0.1819
C13 C 0.1404(6) 0.3072(5) -0.0526(7)
H8 H 0.0528 0.3402 -0.0255
C14 C 0.2826(5) 0.3350(4) 0.0005(5)
H9 H 0.2906 0.3866 0.0628
C15 C 0.6942(6) 0.3591(5) 0.3754(5)
H10 H 0.6773 0.3043 0.4368
H11 H 0.6230 0.4125 0.3956
C16 C 0.8566(5) 0.3974(4) 0.3983(4)
C17 C 0.9344(6) 0.4432(4) 0.2972(5)
H12 H 0.8867 0.4505 0.2131
C18 C 1.0807(8) 0.4779(5) 0.3202(6)
H13 H 1.1330 0.5068 0.2509
C19 C 1.1504(8) 0.4705(6) 0.4433(8)
H14 H 1.2475 0.4980 0.4597
C20 C 1.0768(9) 0.4220(6) 0.5437(6)
H15 H 1.1268 0.4128 0.6266
C21 C 0.9293(8) 0.3871(5) 0.5214(5)
H16 H 0.8786 0.3563 0.5902
C22 C 0.5358(5) 0.4989(4) -0.1406(5)
H17 H 0.4350 0.4721 -0.1657
H18 H 0.5266 0.5382 -0.0600
C23 C 0.5898(5) 0.5652(3) -0.2505(4)
C24 C 0.5264(6) 0.5536(5) -0.3770(5)
H19 H 0.4564 0.5020 -0.3946
C25 C 0.5654(8) 0.6179(6) -0.4792(6)
H20 H 0.5187 0.6115 -0.5639
C26 C 0.6733(8) 0.6907(5) -0.4540(6)
H21 H 0.7008 0.7336 -0.5221
C27 C 0.7411(7) 0.7010(4) -0.3296(6)
H22 H 0.8157 0.7499 -0.3131
C28 C 0.6977(6) 0.6382(4) -0.2288(5)
H23 H 0.7431 0.6457 -0.1439
loop_
_geom_bond_atom_site_label_1
_geom_bond_atom_site_label_2
_geom_bond_site_symmetry_1
_geom_bond_site_symmetry_2
C1 C2 1_555 1_555
C2 C3 1_555 1_555
C3 C4 1_555 1_555
C4 N1 1_555 1_555
N1 C1 1_555 1_555
O1 C1 1_555 1_555
O2 S1 1_555 1_555
S1 C2 1_555 1_555
O3 S1 1_555 1_555
C5 C4 1_555 1_555
H1 C5 1_555 1_555
C6 C5 1_555 1_555
H2 C6 1_555 1_555
C7 C6 1_555 1_555
H3 C7 1_555 1_555
C8 C3 1_555 1_555
H4 C8 1_555 1_555
C9 C2 1_555 1_555
C10 C9 1_555 1_555
H5 C10 1_555 1_555
C11 C10 1_555 1_555
H6 C11 1_555 1_555
C12 C11 1_555 1_555
H7 C12 1_555 1_555
C13 C12 1_555 1_555
H8 C13 1_555 1_555
C14 C9 1_555 1_555
H9 C14 1_555 1_555
C15 N1 1_555 1_555
H10 C15 1_555 1_555
H11 C15 1_555 1_555
C16 C15 1_555 1_555
C17 C16 1_555 1_555
H12 C17 1_555 1_555
C18 C17 1_555 1_555
H13 C18 1_555 1_555
C19 C18 1_555 1_555
H14 C19 1_555 1_555
C20 C19 1_555 1_555
H15 C20 1_555 1_555
C21 C16 1_555 1_555
H16 C21 1_555 1_555
C22 S1 1_555 1_555
H17 C22 1_555 1_555
H18 C22 1_555 1_555
C23 C22 1_555 1_555
C24 C23 1_555 1_555
H19 C24 1_555 1_555
C25 C24 1_555 1_555
H20 C25 1_555 1_555
C26 C25 1_555 1_555
H21 C26 1_555 1_555
C27 C26 1_555 1_555
H22 C27 1_555 1_555
C28 C23 1_555 1_555
H23 C28 1_555 1_555
C7 C8 1_555 1_555
C13 C14 1_555 1_555
C20 C21 1_555 1_555
C27 C28 1_555 1_555

#END
