
#######################################################################
#
#                 Cambridge Crystallographic Data Centre
#                                CCDC 
#
#######################################################################
#
# If this CIF has been generated from an entry in the Cambridge 
# Structural Database, then it will include bibliographic, chemical, 
# crystal, experimental, refinement or atomic coordinate data resulting 
# from the CCDC's data processing and validation procedures.
#
#######################################################################

data_BEGYIY
_chemical_formula_moiety         'C25 H18 O4'
_chemical_name_systematic        'di-2-naphthyl cyclopropane-1,2-dicarboxylate'
_symmetry_cell_setting           monoclinic
_symmetry_space_group_name_H-M   'P 21'
_symmetry_Int_Tables_number      4
_space_group_name_Hall           'P 2yb'
loop_
_symmetry_equiv_pos_site_id
_symmetry_equiv_pos_as_xyz
1 x,y,z
2 -x,1/2+y,-z
_cell_length_a                   8.2590(3)
_cell_length_b                   5.8054(2)
_cell_length_c                   40.0039(14)
_cell_angle_alpha                90
_cell_angle_beta                 90.611(3)
_cell_angle_gamma                90
_cell_volume                     1917.95
_exptl_crystal_colour            colorless
_exptl_crystal_description       needle
_cell_formula_units_Z            4
loop_
_atom_site_label
_atom_site_type_symbol
_atom_site_fract_x
_atom_site_fract_y
_atom_site_fract_z
C1 C 0.7960(6) 0.4508(9) 0.24125(11)
H1 H 0.8987 0.4987 0.2320
H2 H 0.7873 0.2873 0.2459
C2 C 0.6479(5) 0.5736(7) 0.22989(10)
H3 H 0.5484 0.4826 0.2278
C3 C 0.7120(5) 0.6145(8) 0.26436(10)
H4 H 0.7648 0.7628 0.2687
C4 C 0.6704(5) 0.7633(7) 0.20561(10)
C5 C 0.6260(5) 0.5035(8) 0.29265(10)
C6 C 0.6344(5) 0.8326(6) 0.12479(9)
H5 H 0.6892 0.6929 0.1238
C7 C 0.5692(5) 0.9039(7) 0.15376(9)
C8 C 0.4930(5) 1.1165(8) 0.15701(11)
H6 H 0.4541 1.1647 0.1776
C9 C 0.4765(5) 1.2527(7) 0.12938(11)
H7 H 0.4245 1.3941 0.1313
C10 C 0.5132(6) 1.3157(9) 0.06900(13)
H8 H 0.4589 1.4558 0.0701
C11 C 0.5696(7) 1.2401(11) 0.03924(13)
H9 H 0.5521 1.3281 0.0201
C12 C 0.6530(7) 1.0339(10) 0.03688(12)
H10 H 0.6922 0.9854 0.0163
C13 C 0.6775(6) 0.9017(8) 0.06473(10)
H11 H 0.7339 0.7636 0.0630
C14 C 0.6190(5) 0.9715(6) 0.09599(10)
C15 C 0.5358(5) 1.1850(6) 0.09833(10)
C16 C 0.5340(4) 0.6426(6) 0.37138(9)
H12 H 0.4959 0.7831 0.3634
C17 C 0.6251(5) 0.5070(7) 0.35180(10)
C18 C 0.6843(5) 0.2922(6) 0.36240(10)
H13 H 0.7467 0.2024 0.3482
C19 C 0.6492(4) 0.2171(6) 0.39374(9)
H14 H 0.6872 0.0744 0.4009
C20 C 0.5207(5) 0.2856(6) 0.44844(9)
H15 H 0.5603 0.1458 0.4564
C21 C 0.4299(5) 0.4209(7) 0.46877(10)
H16 H 0.4074 0.3718 0.4904
C22 C 0.3698(5) 0.6339(7) 0.45749(10)
H17 H 0.3074 0.7246 0.4715
C23 C 0.4031(4) 0.7071(6) 0.42598(10)
H18 H 0.3637 0.8489 0.4188
C24 C 0.4968(4) 0.5708(6) 0.40391(9)
C25 C 0.5554(4) 0.3542(6) 0.41561(9)
O1 O 0.7698(4) 0.9116(6) 0.20694(8)
O2 O 0.5611(3) 0.7464(5) 0.18065(6)
O3 O 0.5279(4) 0.3534(6) 0.29138(7)
O4 O 0.6783(4) 0.5993(5) 0.32141(6)
C26 C 1.3093(5) 0.9333(7) 0.25108(11)
H19 H 1.3437 0.9992 0.2300
H20 H 1.3813 0.9637 0.2699
C27 C 1.2253(5) 0.7054(6) 0.24998(9)
H21 H 1.2465 0.6046 0.2692
C28 C 1.1316(5) 0.9243(6) 0.25767(9)
H22 H 1.0625 0.9807 0.2394
C29 C 1.2032(5) 0.5872(7) 0.21792(10)
C30 C 1.0728(5) 0.9757(7) 0.29127(10)
C31 C 1.1479(5) 0.7615(7) 0.13673(9)
H23 H 1.2012 0.8998 0.1409
C32 C 1.0990(5) 0.6300(7) 0.16252(9)
C33 C 1.0131(5) 0.4243(7) 0.15772(11)
H24 H 0.9776 0.3382 0.1758
C34 C 0.9830(5) 0.3537(7) 0.12554(11)
H25 H 0.9267 0.2170 0.1220
C35 C 1.0068(6) 0.4116(8) 0.06437(11)
H26 H 0.9524 0.2742 0.0601
C36 C 1.0580(7) 0.5414(10) 0.03846(12)
H27 H 1.0369 0.4930 0.0167
C37 C 1.1419(6) 0.7466(10) 0.04390(11)
H28 H 1.1782 0.8330 0.0259
C38 C 1.1702(5) 0.8197(8) 0.07581(10)
H29 H 1.2248 0.9578 0.0794
C39 C 1.1186(5) 0.6900(7) 0.10349(9)
C40 C 1.0345(5) 0.4814(7) 0.09778(10)
C41 C 1.0375(4) 0.7950(6) 0.36754(9)
H30 H 1.0000 0.6576 0.3584
C42 C 1.1260(5) 0.9423(6) 0.34871(9)
C43 C 1.1853(5) 1.1508(6) 0.36168(10)
H31 H 1.2469 1.2484 0.3485
C44 C 1.1515(4) 1.2083(6) 0.39371(9)
H32 H 1.1895 1.3474 0.4023
C45 C 1.0243(5) 1.1152(6) 0.44782(9)
H33 H 1.0620 1.2528 0.4569
C46 C 0.9351(5) 0.9685(7) 0.46720(10)
H34 H 0.9127 1.0067 0.4892
C47 C 0.8777(5) 0.7609(7) 0.45370(10)
H35 H 0.8166 0.6622 0.4668
C48 C 0.9107(4) 0.7023(6) 0.42154(9)
H36 H 0.8725 0.5633 0.4130
C49 C 1.0025(4) 0.8503(6) 0.40094(8)
C50 C 1.0595(4) 1.0607(5) 0.41443(8)
O5 O 1.2513(4) 0.3961(5) 0.21208(7)
O6 O 1.1271(3) 0.7198(5) 0.19487(6)
O7 O 0.9558(4) 1.0883(7) 0.29705(7)
O8 O 1.1659(3) 0.8827(5) 0.31573(6)
loop_
_geom_bond_atom_site_label_1
_geom_bond_atom_site_label_2
_geom_bond_site_symmetry_1
_geom_bond_site_symmetry_2
C1 H1 1_555 1_555
H2 C1 1_555 1_555
C2 C1 1_555 1_555
H3 C2 1_555 1_555
C3 C1 1_555 1_555
H4 C3 1_555 1_555
C4 C2 1_555 1_555
C5 C3 1_555 1_555
C6 H5 1_555 1_555
C7 C6 1_555 1_555
C8 C7 1_555 1_555
H6 C8 1_555 1_555
C9 C8 1_555 1_555
H7 C9 1_555 1_555
C10 H8 1_555 1_555
C11 C10 1_555 1_555
H9 C11 1_555 1_555
C12 C11 1_555 1_555
H10 C12 1_555 1_555
C13 C12 1_555 1_555
H11 C13 1_555 1_555
C14 C6 1_555 1_555
C15 C9 1_555 1_555
C16 H12 1_555 1_555
C17 C16 1_555 1_555
C18 C17 1_555 1_555
H13 C18 1_555 1_555
C19 C18 1_555 1_555
H14 C19 1_555 1_555
C20 H15 1_555 1_555
C21 C20 1_555 1_555
H16 C21 1_555 1_555
C22 C21 1_555 1_555
H17 C22 1_555 1_555
C23 C22 1_555 1_555
H18 C23 1_555 1_555
C24 C16 1_555 1_555
C25 C19 1_555 1_555
O1 C4 1_555 1_555
O2 C4 1_555 1_555
O3 C5 1_555 1_555
O4 C5 1_555 1_555
C26 H19 1_555 1_555
H20 C26 1_555 1_555
C27 C26 1_555 1_555
H21 C27 1_555 1_555
C28 C26 1_555 1_555
H22 C28 1_555 1_555
C29 C27 1_555 1_555
C30 C28 1_555 1_555
C31 H23 1_555 1_555
C32 C31 1_555 1_555
C33 C32 1_555 1_555
H24 C33 1_555 1_555
C34 C33 1_555 1_555
H25 C34 1_555 1_555
C35 H26 1_555 1_555
C36 C35 1_555 1_555
H27 C36 1_555 1_555
C37 C36 1_555 1_555
H28 C37 1_555 1_555
C38 C37 1_555 1_555
H29 C38 1_555 1_555
C39 C31 1_555 1_555
C40 C34 1_555 1_555
C41 H30 1_555 1_555
C42 C41 1_555 1_555
C43 C42 1_555 1_555
H31 C43 1_555 1_555
C44 C43 1_555 1_555
H32 C44 1_555 1_555
C45 H33 1_555 1_555
C46 C45 1_555 1_555
H34 C46 1_555 1_555
C47 C46 1_555 1_555
H35 C47 1_555 1_555
C48 C47 1_555 1_555
H36 C48 1_555 1_555
C49 C41 1_555 1_555
C50 C44 1_555 1_555
O5 C29 1_555 1_555
O6 C29 1_555 1_555
O7 C30 1_555 1_555
O8 C30 1_555 1_555
C2 C3 1_555 1_555
C7 O2 1_555 1_555
C10 C15 1_555 1_555
C13 C14 1_555 1_555
C14 C15 1_555 1_555
C17 O4 1_555 1_555
C20 C25 1_555 1_555
C23 C24 1_555 1_555
C24 C25 1_555 1_555
C27 C28 1_555 1_555
C32 O6 1_555 1_555
C35 C40 1_555 1_555
C38 C39 1_555 1_555
C39 C40 1_555 1_555
C42 O8 1_555 1_555
C45 C50 1_555 1_555
C48 C49 1_555 1_555
C49 C50 1_555 1_555

#END
