
#######################################################################
#
#                 Cambridge Crystallographic Data Centre
#                                CCDC 
#
#######################################################################
#
# If this CIF has been generated from an entry in the Cambridge 
# Structural Database, then it will include bibliographic, chemical, 
# crystal, experimental, refinement or atomic coordinate data resulting 
# from the CCDC's data processing and validation procedures.
#
#######################################################################

data_BEHKAB
_chemical_compound_source        'aerial parts of Spiranthes sinenesis'
_chemical_name_common            'Homocyclotirucallane ethane solvate'
_chemical_formula_moiety         'C31 H52 O1,C2 H6'
_chemical_name_systematic        'Sinetirucallol ethane solvate'
_chemical_properties_biological  'whole plant used as a Taiwanese folk drug'
_symmetry_cell_setting           monoclinic
_symmetry_space_group_name_H-M   'C 2'
_symmetry_Int_Tables_number      5
_space_group_name_Hall           'C 2y'
loop_
_symmetry_equiv_pos_site_id
_symmetry_equiv_pos_as_xyz
1 x,y,z
2 -x,y,-z
3 1/2+x,1/2+y,z
4 1/2-x,1/2+y,-z
_cell_length_a                   44.2182(5)
_cell_length_b                   9.04440(10)
_cell_length_c                   7.44880(10)
_cell_angle_alpha                90
_cell_angle_beta                 97.7020(10)
_cell_angle_gamma                90
_cell_volume                     2952.1
_exptl_crystal_colour            colorless
_exptl_crystal_description       needle
_chemical_melting_point          96-97deg.C
_cell_formula_units_Z            4
loop_
_atom_site_label
_atom_site_type_symbol
_atom_site_fract_x
_atom_site_fract_y
_atom_site_fract_z
O1 O 0.01665(7) 1.2598(6) 0.6663(5)
H1 H 0.00885(7) 1.2599(6) 0.5571(5)
C1 C 0.08843(8) 1.1134(7) 0.5056(5)
H2 H 0.10206(8) 1.1976(7) 0.5445(5)
H3 H 0.09230(8) 1.0838(7) 0.3828(5)
C2 C 0.05513(9) 1.1646(9) 0.4963(6)
H4 H 0.05179(9) 1.2520(9) 0.4161(6)
H5 H 0.04137(9) 1.0848(9) 0.4438(6)
C3 C 0.04755(9) 1.2035(8) 0.6808(7)
H6 H 0.06137(9) 1.2867(8) 0.7266(7)
C4 C 0.05302(8) 1.0789(6) 0.8206(5)
C5 C 0.08691(8) 1.0245(5) 0.8245(5)
H7 H 0.09934(8) 1.1147(5) 0.8603(5)
C6 C 0.09685(9) 0.9161(6) 0.9750(5)
H8 H 0.08176(9) 0.8348(6) 0.9695(5)
H9 H 0.09700(9) 0.9668(6) 1.0929(5)
C7 C 0.12858(10) 0.8499(5) 0.9654(6)
H10 H 0.12624(10) 0.7509(5) 0.9086(6)
H11 H 0.13935(10) 0.8375(5) 1.0898(6)
C8 C 0.14796(7) 0.9479(4) 0.8561(4)
H12 H 0.14853(7) 1.0491(4) 0.9105(4)
C9 C 0.13156(7) 0.9604(4) 0.6635(4)
C10 C 0.09661(8) 0.9809(6) 0.6386(5)
C11 C 0.14688(7) 0.9533(5) 0.5214(4)
H13 H 0.13523(7) 0.9538(5) 0.4046(4)
C12 C 0.18119(7) 0.9447(4) 0.5298(4)
H14 H 0.18799(7) 1.0137(4) 0.4400(4)
H15 H 0.18711(7) 0.8433(4) 0.4984(4)
C13 C 0.19698(7) 0.9846(3) 0.7198(4)
C14 C 0.18100(8) 0.8963(4) 0.8608(4)
C15 C 0.20220(8) 0.9256(4) 1.0382(4)
H16 H 0.19672(8) 1.0194(4) 1.0942(4)
H17 H 0.20091(8) 0.8440(4) 1.1255(4)
C16 C 0.23438(8) 0.9348(5) 0.9827(4)
H18 H 0.24667(8) 0.8482(5) 1.0295(4)
H19 H 0.24483(8) 1.0256(5) 1.0326(4)
C17 C 0.23069(7) 0.9376(4) 0.7718(4)
H20 H 0.23222(7) 0.8327(4) 0.7313(4)
C18 C 0.19402(7) 1.1528(4) 0.7453(4)
H21 H 0.20396(7) 1.1808(4) 0.8660(4)
H22 H 0.17238(7) 1.1798(4) 0.7330(4)
H23 H 0.20383(7) 1.2046(4) 0.6530(4)
C19 C 0.08140(11) 0.8393(8) 0.5586(8)
H24 H 0.05918(11) 0.8517(8) 0.5425(8)
H25 H 0.08709(11) 0.7565(8) 0.6411(8)
H26 H 0.08818(11) 0.8191(8) 0.4411(8)
C20 C 0.25635(7) 1.0239(4) 0.6963(4)
H27 H 0.25647(7) 1.1285(4) 0.7398(4)
C21 C 0.25265(8) 1.0220(5) 0.4893(5)
H28 H 0.26935(8) 1.0778(5) 0.4473(5)
H29 H 0.23310(8) 1.0674(5) 0.4413(5)
H30 H 0.25312(8) 0.9196(5) 0.4466(5)
C22 C 0.28752(10) 0.9476(9) 0.7716(5)
H31 H 0.29021(10) 0.9555(9) 0.9054(5)
H32 H 0.28582(10) 0.8411(9) 0.7411(5)
C23 C 0.31471(10) 1.0034(5) 0.7090(7)
H33 H 0.31546(10) 1.1123(5) 0.7224(7)
H34 H 0.31430(10) 0.9797(5) 0.5789(7)
C24 C 0.34337(12) 0.9344(9) 0.8184(8)
H35 H 0.34457(12) 0.9479(9) 0.9524(8)
C25 C 0.3725(2) 0.9449(6) 0.7511(10)
C26 C 0.3729(3) 1.0011(9) 0.5570(15)
H36 H 0.3939(3) 1.0027(9) 0.5293(15)
H37 H 0.3643(3) 1.1013(9) 0.5459(15)
H38 H 0.3605(3) 0.9353(9) 0.4719(15)
C27 C 0.4002(2) 0.9809(9) 0.8844(16)
H39 H 0.4182(2) 0.9847(9) 0.8212(16)
H40 H 0.4030(2) 0.9045(9) 0.9784(16)
H41 H 0.3973(2) 1.0771(9) 0.9404(16)
C28 C 0.04915(9) 1.1395(7) 1.0094(6)
H42 H 0.05265(9) 1.0598(7) 1.0989(6)
H43 H 0.02841(9) 1.1782(7) 1.0077(6)
H44 H 0.06393(9) 1.2190(7) 1.0417(6)
C29 C 0.02846(10) 0.9575(9) 0.7800(7)
H45 H 0.03222(10) 0.8786(9) 0.8703(7)
H46 H 0.02935(10) 0.9167(9) 0.6589(7)
H47 H 0.00822(10) 1.0003(9) 0.7850(7)
C30 C 0.18159(11) 0.7274(4) 0.8210(6)
H48 H 0.20278(11) 0.6945(4) 0.8242(6)
H49 H 0.17034(11) 0.7076(4) 0.7010(6)
H50 H 0.17204(11) 0.6737(4) 0.9130(6)
C31 C 0.35784(9) 0.7918(6) 0.7628(6)
H51 H 0.34885(9) 0.7437(6) 0.6486(6)
H52 H 0.36682(9) 0.7237(6) 0.8595(6)
C32 C 0.0013(2) 1.5032(9) 0.8212(9)
H53 H 0.0095(2) 1.4355(9) 0.7367(9)
H54 H -0.0087(2) 1.4461(9) 0.9083(9)
H55 H 0.0181(2) 1.5612(9) 0.8860(9)
C33 C -0.0197(2) 1.5977(13) 0.7254(14)
H56 H -0.0337(2) 1.5405(13) 0.6388(14)
H57 H -0.0090(2) 1.6706(13) 0.6599(14)
H58 H -0.0313(2) 1.6488(13) 0.8099(14)
loop_
_geom_bond_atom_site_label_1
_geom_bond_atom_site_label_2
_geom_bond_site_symmetry_1
_geom_bond_site_symmetry_2
O1 H1 1_555 1_555
C1 H2 1_555 1_555
H3 C1 1_555 1_555
C2 C1 1_555 1_555
H4 C2 1_555 1_555
H5 C2 1_555 1_555
C3 O1 1_555 1_555
H6 C3 1_555 1_555
C4 C3 1_555 1_555
C5 C4 1_555 1_555
H7 C5 1_555 1_555
C6 C5 1_555 1_555
H8 C6 1_555 1_555
H9 C6 1_555 1_555
C7 C6 1_555 1_555
H10 C7 1_555 1_555
H11 C7 1_555 1_555
C8 C7 1_555 1_555
H12 C8 1_555 1_555
C9 C8 1_555 1_555
C10 C1 1_555 1_555
C11 C9 1_555 1_555
H13 C11 1_555 1_555
C12 C11 1_555 1_555
H14 C12 1_555 1_555
H15 C12 1_555 1_555
C13 C12 1_555 1_555
C14 C8 1_555 1_555
C15 C14 1_555 1_555
H16 C15 1_555 1_555
H17 C15 1_555 1_555
C16 C15 1_555 1_555
H18 C16 1_555 1_555
H19 C16 1_555 1_555
C17 C13 1_555 1_555
H20 C17 1_555 1_555
C18 C13 1_555 1_555
H21 C18 1_555 1_555
H22 C18 1_555 1_555
H23 C18 1_555 1_555
C19 C10 1_555 1_555
H24 C19 1_555 1_555
H25 C19 1_555 1_555
H26 C19 1_555 1_555
C20 C17 1_555 1_555
H27 C20 1_555 1_555
C21 C20 1_555 1_555
H28 C21 1_555 1_555
H29 C21 1_555 1_555
H30 C21 1_555 1_555
C22 C20 1_555 1_555
H31 C22 1_555 1_555
H32 C22 1_555 1_555
C23 C22 1_555 1_555
H33 C23 1_555 1_555
H34 C23 1_555 1_555
C24 C23 1_555 1_555
H35 C24 1_555 1_555
C25 C24 1_555 1_555
C26 C25 1_555 1_555
H36 C26 1_555 1_555
H37 C26 1_555 1_555
H38 C26 1_555 1_555
C27 C25 1_555 1_555
H39 C27 1_555 1_555
H40 C27 1_555 1_555
H41 C27 1_555 1_555
C28 C4 1_555 1_555
H42 C28 1_555 1_555
H43 C28 1_555 1_555
H44 C28 1_555 1_555
C29 C4 1_555 1_555
H45 C29 1_555 1_555
H46 C29 1_555 1_555
H47 C29 1_555 1_555
C30 C14 1_555 1_555
H48 C30 1_555 1_555
H49 C30 1_555 1_555
H50 C30 1_555 1_555
C31 C24 1_555 1_555
H51 C31 1_555 1_555
H52 C31 1_555 1_555
C32 H53 1_555 1_555
H54 C32 1_555 1_555
H55 C32 1_555 1_555
C33 C32 1_555 1_555
H56 C33 1_555 1_555
H57 C33 1_555 1_555
H58 C33 1_555 1_555
C2 C3 1_555 1_555
C5 C10 1_555 1_555
C9 C10 1_555 1_555
C13 C14 1_555 1_555
C16 C17 1_555 1_555
C25 C31 1_555 1_555

#END
