
#######################################################################
#
#                 Cambridge Crystallographic Data Centre
#                                CCDC 
#
#######################################################################
#
# If this CIF has been generated from an entry in the Cambridge 
# Structural Database, then it will include bibliographic, chemical, 
# crystal, experimental, refinement or atomic coordinate data resulting 
# from the CCDC's data processing and validation procedures.
#
#######################################################################

data_BEHROY
_chemical_formula_moiety         'C13 H21 F1 N3 O2 P1'
_chemical_name_systematic        
N-(bis(isopropylamino)phosphoryl)-2-fluorobenzamide
_symmetry_cell_setting           triclinic
_symmetry_space_group_name_H-M   'P -1'
_symmetry_Int_Tables_number      2
_space_group_name_Hall           '-P 1'
loop_
_symmetry_equiv_pos_site_id
_symmetry_equiv_pos_as_xyz
1 x,y,z
2 -x,-y,-z
_cell_length_a                   4.9312(4)
_cell_length_b                   17.7765(16)
_cell_length_c                   18.9829(16)
_cell_angle_alpha                108.651(11)
_cell_angle_beta                 97.389(7)
_cell_angle_gamma                97.929(7)
_cell_volume                     1534.89
_exptl_crystal_colour            colorless
_exptl_crystal_description       rod
_cell_formula_units_Z            4
loop_
_atom_site_label
_atom_site_type_symbol
_atom_site_fract_x
_atom_site_fract_y
_atom_site_fract_z
P1 P 0.2035(3) 0.50009(8) 0.23152(8)
F1 F -0.2555(8) 0.2585(2) 0.1247(2)
O1 O 0.4540(8) 0.3872(2) 0.1155(2)
O2 O -0.0410(7) 0.5314(2) 0.2595(2)
N1 N 0.0555(9) 0.4152(3) 0.1558(3)
H1 H -0.122(5) 0.399(3) 0.144(3)
N2 N 0.4124(9) 0.5619(3) 0.2072(3)
H2 H 0.581(6) 0.554(3) 0.218(3)
N3 N 0.4086(9) 0.4740(3) 0.2888(3)
H3 H 0.582(5) 0.482(3) 0.286(3)
C1 C -0.1907(11) 0.2450(3) 0.0558(3)
C2 C -0.3429(12) 0.1791(3) -0.0037(4)
H4 H -0.4983 0.1461 0.0034
C3 C -0.2658(13) 0.1617(4) -0.0739(4)
H5 H -0.3729 0.1177 -0.1157
C4 C -0.0348(14) 0.2080(4) -0.0836(4)
H6 H 0.0231 0.1944 -0.1313
C5 C 0.1122(12) 0.2745(3) -0.0232(3)
H7 H 0.271(4) 0.3061(8) -0.0300(4)
C6 C 0.0359(11) 0.2955(3) 0.0475(3)
C7 C 0.1999(11) 0.3686(3) 0.1089(3)
C8 C 0.3112(12) 0.4177(4) 0.3265(3)
H8 H 0.1239 0.3827 0.3024
C9 C 0.354(3) 0.4579(8) 0.4116(6)
H9 H 0.2520 0.5025 0.4238
H10 H 0.5535 0.4790 0.4319
H11 H 0.2860 0.4182 0.4342
C10 C 0.546(3) 0.3718(8) 0.3399(7)
H12 H 0.7202 0.4107 0.3649
H13 H 0.5714 0.3351 0.2912
H14 H 0.4963 0.3405 0.3720
C11 C 0.3260(13) 0.6083(4) 0.1595(4)
H15 H 0.1369 0.6201 0.1666
C12 C 0.5304(13) 0.6863(4) 0.1811(4)
H16 H 0.5496 0.7159 0.2353
H17 H 0.4634 0.7192 0.1523
H18 H 0.7118 0.6748 0.1697
C13 C 0.320(12) 0.562(2) 0.0771(8)
H19 H 0.1927 0.5100 0.0617
H20 H 0.5073 0.5535 0.0697
H21 H 0.2546 0.5937 0.0464
P2 P 1.0282(3) 1.00013(8) 0.73147(8)
F3 F 1.1392(8) 0.7583(2) 0.6245(2)
O3 O 0.5492(8) 0.8867(2) 0.6153(2)
O4 O 1.3304(7) 1.0310(2) 0.7595(2)
N4 N 1.0165(9) 0.9156(3) 0.6558(2)
H32 H 1.166(8) 0.899(3) 0.644(3)
N5 N 0.8574(9) 1.0623(3) 0.7085(2)
H33 H 0.684(5) 1.059(3) 0.712(3)
N6 N 0.8542(9) 0.9742(3) 0.7891(3)
H34 H 0.684(6) 0.982(3) 0.787(3)
C17 C 0.9916(11) 0.7450(3) 0.5556(3)
C18 C 1.0178(12) 0.6793(3) 0.4960(4)
H35 H 1.1477 0.6463 0.5030
C19 C 0.8538(13) 0.6618(4) 0.4261(3)
H36 H 0.8740 0.6172 0.3845
C20 C 0.6621(13) 0.7081(4) 0.4163(3)
H37 H 0.5461 0.6951 0.3684
C21 C 0.6391(12) 0.7739(3) 0.4766(3)
H38 H 0.503(3) 0.8056(8) 0.4697(4)
C22 C 0.8063(10) 0.7952(3) 0.5475(3)
C23 C 0.7787(11) 0.8688(3) 0.6095(3)
C24 C 0.9423(13) 1.1080(4) 0.6598(4)
H39 H 1.1484 1.1256 0.6775
C25 C 0.8369(13) 1.1863(4) 0.6807(4)
H40 H 0.8892 1.2145 0.7354
H41 H 0.6336 1.1750 0.6658
H42 H 0.9192 1.2204 0.6543
C26 C 0.914(3) 1.0658(9) 0.5797(7)
H43 H 1.0312 1.0246 0.5714
H44 H 0.9724 1.1043 0.5549
H45 H 0.7189 1.0397 0.5584
C27 C 0.9337(12) 0.9173(4) 0.8262(3)
H46 H 1.0237 0.8757 0.7933
C28 C 0.690(3) 0.8792(8) 0.8496(8)
H47 H 0.5979 0.9212 0.8782
H48 H 0.7533 0.8487 0.8814
H49 H 0.5593 0.8424 0.8045
C29 C 1.144(3) 0.9727(8) 0.9021(7)
H50 H 1.3037 1.0017 0.8893
H51 H 1.2094 0.9386 0.9298
H52 H 1.0485 1.0117 0.9337
F2? F 0.345(4) 0.3149(14) -0.0321(15)
H22? H -0.2425(16) 0.2563(4) 0.1041(11)
C14? C 0.223(3) 0.4723(9) 0.4001(7)
H23? H 0.0566 0.4925 0.3859
H24? H 0.3754 0.5182 0.4278
H25? H 0.1825 0.4403 0.4323
C15? C 0.428(3) 0.3380(8) 0.2900(8)
H26? H 0.3414 0.3130 0.2364
H27? H 0.3832 0.2999 0.3164
H28? H 0.6301 0.3517 0.2947
C16? C 0.23(3) 0.557(5) 0.078(2)
H29? H 0.0325 0.5292 0.0708
H30? H 0.3438 0.5171 0.0624
H31? H 0.2330 0.5916 0.0465
F4? F 0.440(4) 0.8148(14) 0.4675(15)
H53? H 1.104(3) 0.7564(4) 0.6037(11)
C30? C 0.787(3) 1.0573(10) 0.5742(7)
H54? H 0.8446 1.0047 0.5576
H55? H 0.8368 1.0873 0.5411
H56? H 0.5849 1.0489 0.5720
C31? C 0.697(3) 0.8384(7) 0.7917(7)
H57? H 0.6937 0.8141 0.7374
H58? H 0.5161 0.8529 0.7999
H59? H 0.7354 0.7995 0.8167
C32? C 0.980(3) 0.9466(9) 0.9069(6)
H60? H 1.1242 0.9958 0.9264
H61? H 1.0416 0.9053 0.9257
H62? H 0.8069 0.9588 0.9239
loop_
_geom_bond_atom_site_label_1
_geom_bond_atom_site_label_2
_geom_bond_site_symmetry_1
_geom_bond_site_symmetry_2
P1 O2 1_555 1_555
F1 C1 1_555 1_555
O1 C7 1_555 1_555
N1 P1 1_555 1_555
H1 N1 1_555 1_555
N2 P1 1_555 1_555
H2 N2 1_555 1_555
N3 P1 1_555 1_555
H3 N3 1_555 1_555
C1 C2 1_555 1_555
C2 H4 1_555 1_555
C3 C2 1_555 1_555
H5 C3 1_555 1_555
C4 C3 1_555 1_555
H6 C4 1_555 1_555
C5 C4 1_555 1_555
H7 C5 1_555 1_555
C6 C1 1_555 1_555
C7 N1 1_555 1_555
C8 N3 1_555 1_555
H8 C8 1_555 1_555
C9 C8 1_555 1_555
H9 C9 1_555 1_555
H10 C9 1_555 1_555
H11 C9 1_555 1_555
C10 C8 1_555 1_555
H12 C10 1_555 1_555
H13 C10 1_555 1_555
H14 C10 1_555 1_555
C11 N2 1_555 1_555
H15 C11 1_555 1_555
C12 C11 1_555 1_555
H16 C12 1_555 1_555
H17 C12 1_555 1_555
H18 C12 1_555 1_555
C13 C11 1_555 1_555
H19 C13 1_555 1_555
H20 C13 1_555 1_555
H21 C13 1_555 1_555
P2 O4 1_555 1_555
F3 C17 1_555 1_555
O3 C23 1_555 1_555
N4 P2 1_555 1_555
H32 N4 1_555 1_555
N5 P2 1_555 1_555
H33 N5 1_555 1_555
N6 P2 1_555 1_555
H34 N6 1_555 1_555
C17 C18 1_555 1_555
C18 H35 1_555 1_555
C19 C18 1_555 1_555
H36 C19 1_555 1_555
C20 C19 1_555 1_555
H37 C20 1_555 1_555
C21 C20 1_555 1_555
H38 C21 1_555 1_555
C22 C17 1_555 1_555
C23 N4 1_555 1_555
C24 N5 1_555 1_555
H39 C24 1_555 1_555
C25 C24 1_555 1_555
H40 C25 1_555 1_555
H41 C25 1_555 1_555
H42 C25 1_555 1_555
C26 C24 1_555 1_555
H43 C26 1_555 1_555
H44 C26 1_555 1_555
H45 C26 1_555 1_555
C27 N6 1_555 1_555
H46 C27 1_555 1_555
C28 C27 1_555 1_555
H47 C28 1_555 1_555
H48 C28 1_555 1_555
H49 C28 1_555 1_555
C29 C27 1_555 1_555
H50 C29 1_555 1_555
H51 C29 1_555 1_555
H52 C29 1_555 1_555
C5 C6 1_555 1_555
C6 C7 1_555 1_555
C21 C22 1_555 1_555
C22 C23 1_555 1_555

#END
