
#######################################################################
#
#                 Cambridge Crystallographic Data Centre
#                                CCDC 
#
#######################################################################
#
# If this CIF has been generated from an entry in the Cambridge 
# Structural Database, then it will include bibliographic, chemical, 
# crystal, experimental, refinement or atomic coordinate data resulting 
# from the CCDC's data processing and validation procedures.
#
#######################################################################

data_BEHRUD
_chemical_formula_moiety         'C45 H35 I1 N2 O4,0.67(C1 H1 Cl3)'
_chemical_name_systematic        
"2-(2,5-Di-t-butylphenyl)-9-(4-iodobenzyl)isoquinolino [4',5',6':6,5,10]anthra[2,1,9-def]isoquinoline-1,3,8,10(2H,9H)-tetrone chloroform solvate"
_symmetry_cell_setting           hexagonal
_symmetry_space_group_name_H-M   'P 63/m'
_symmetry_Int_Tables_number      176
_space_group_name_Hall           '-P 6c'
loop_
_symmetry_equiv_pos_site_id
_symmetry_equiv_pos_as_xyz
1 x,y,z
2 -y,x-y,z
3 -x+y,-x,z
4 -x,-y,1/2+z
5 y,-x+y,1/2+z
6 x-y,x,1/2+z
7 -x,-y,-z
8 y,-x+y,-z
9 x-y,x,-z
10 x,y,1/2-z
11 -y,x-y,1/2-z
12 -x+y,-x,1/2-z
_cell_length_a                   23.1988(10)
_cell_length_b                   23.1988(10)
_cell_length_c                   12.4904(5)
_cell_angle_alpha                90
_cell_angle_beta                 90
_cell_angle_gamma                120
_cell_volume                     5821.54
_exptl_crystal_colour            orange
_exptl_crystal_description       prism
_cell_formula_units_Z            6
loop_
_atom_site_label
_atom_site_type_symbol
_atom_site_fract_x
_atom_site_fract_y
_atom_site_fract_z
Cl1 Cl 0.6658(5) 0.3337(6) 0.39965(14)
Cl2 Cl 0.59508(15) 0.33436(15) 0.5913(2)
Cl3 Cl 0.71721(16) 0.3313(2) 0.6093(3)
C36 C 0.6696(4) 0.3567(5) 0.5328(5)
Cl2B Cl 0.73928(21) 0.40492(15) 0.5913(2)
Cl2A Cl 0.66564(15) 0.26072(21) 0.5913(2)
Cl3A Cl 0.6687(2) 0.38591(26) 0.6093(3)
Cl3B Cl 0.61409(26) 0.28279(16) 0.6093(3)
C36A C 0.6433(5) 0.3129(6) 0.5328(5)
C36B C 0.6871(6) 0.3304(4) 0.5328(5)
I1 I 0.29943(12) 0.45521(12) 0.2500
O1 O 1.12678(10) 0.85327(11) 0.43110(17)
O2 O 0.58997(11) 0.43543(11) 0.43114(18)
N1 N 0.59255(17) 0.43071(16) 0.2500
N2 N 1.12199(16) 0.85933(16) 0.2500
C1 C 0.3756(2) 0.4316(2) 0.2500
C2 C 0.39875(16) 0.42258(17) 0.3462(3)
H1 H 0.3820 0.4289 0.4119
C3 C 0.44701(15) 0.40415(16) 0.3452(3)
H2 H 0.4636 0.3980 0.4111
C4 C 0.4715(2) 0.3945(2) 0.2500
C5 C 0.5238(2) 0.3735(2) 0.2500
H3 H 0.5175 0.3458 0.3140
C6 C 0.62175(14) 0.45620(14) 0.3491(3)
C7 C 0.69268(13) 0.50888(13) 0.3477(2)
C8 C 0.72632(19) 0.53359(19) 0.2500
C9 C 0.79468(18) 0.58439(18) 0.2500
C10 C 0.72526(14) 0.53399(14) 0.4426(2)
H4 H 0.7020 0.5176 0.5083
C11 C 0.79207(14) 0.58330(14) 0.4439(2)
H5 H 0.8137 0.5997 0.5108
C12 C 0.82801(13) 0.60914(12) 0.3498(2)
C13 C 0.89786(13) 0.66184(12) 0.3499(2)
C14 C 0.92991(18) 0.68837(18) 0.2500
C15 C 0.99637(18) 0.74288(19) 0.2500
C16 C 1.02908(13) 0.76949(13) 0.3480(2)
C17 C 0.99865(13) 0.74094(14) 0.4432(2)
H6 H 1.0218 0.7578 0.5088
C18 C 0.93366(13) 0.68720(13) 0.4438(2)
H7 H 0.9134 0.6675 0.5102
C19 C 1.09589(14) 0.82930(14) 0.3492(2)
C20 C 1.18845(19) 0.9180(2) 0.2500
C21 C 1.1994(2) 0.9829(2) 0.2500
C22 C 1.2666(2) 1.0327(2) 0.2500
H8 H 1.2772 1.0779 0.2500
C23 C 1.3179(2) 1.0188(2) 0.2500
H9 H 1.3625 1.0547 0.2500
C24 C 1.3066(2) 0.9540(2) 0.2500
C25 C 1.2401(2) 0.9045(2) 0.2500
H10 H 1.2297 0.8593 0.2500
C26 C 1.1452(2) 1.0027(2) 0.2500
C27 C 1.1008(2) 0.9746(2) 0.3495(3)
H11 H 1.1285 0.9891 0.4140
H12 H 1.0763 0.9259 0.3461
H13 H 1.0691 0.9909 0.3518
C28 C 1.1743(3) 1.0778(3) 0.2500
H14 H 1.1381 1.0880 0.2500
H15 H 1.2018 1.0969 0.1859
H16 H 1.2018 1.0969 0.3141
C31 C 1.3639(2) 0.9399(2) 0.2500
C32 C 1.4076(3) 0.9743(3) 0.3475(5)
H23 H 1.4232 1.0221 0.3445
H24 H 1.4460 0.9674 0.3474
H25 H 1.3817 0.9555 0.4130
C33 C 1.3412(5) 0.8682(4) 0.2500
H26 H 1.3799 0.8618 0.2500
H27 H 1.3143 0.8475 0.1859
H28 H 1.3143 0.8475 0.3141
O1I O 1.12678(10) 0.85327(11) 0.06890(17)
O2I O 0.58997(11) 0.43543(11) 0.06886(18)
C2I C 0.39875(16) 0.42258(17) 0.1538(3)
H1I H 0.3820 0.4289 0.0881
C3I C 0.44701(15) 0.40415(16) 0.1548(3)
H2I H 0.4636 0.3980 0.0889
H3I H 0.5175 0.3458 0.1860
C6I C 0.62175(14) 0.45620(14) 0.1509(3)
C7I C 0.69268(13) 0.50888(13) 0.1523(2)
C10I C 0.72526(14) 0.53399(14) 0.0574(2)
H4I H 0.7020 0.5176 -0.0083
C11I C 0.79207(14) 0.58330(14) 0.0561(2)
H5I H 0.8137 0.5997 -0.0108
C12I C 0.82801(13) 0.60914(12) 0.1502(2)
C13I C 0.89786(13) 0.66184(12) 0.1501(2)
C16I C 1.02908(13) 0.76949(13) 0.1520(2)
C17I C 0.99865(13) 0.74094(14) 0.0568(2)
H6I H 1.0218 0.7578 -0.0088
C18I C 0.93366(13) 0.68720(13) 0.0562(2)
H7I H 0.9134 0.6675 -0.0102
C19I C 1.09589(14) 0.82930(14) 0.1508(2)
C27I C 1.1008(2) 0.9746(2) 0.1505(3)
H11I H 1.1285 0.9891 0.0860
H12I H 1.0763 0.9259 0.1539
H13I H 1.0691 0.9909 0.1482
C32I C 1.4076(3) 0.9743(3) 0.1525(5)
H23I H 1.4232 1.0221 0.1555
H24I H 1.4460 0.9674 0.1526
H25I H 1.3817 0.9555 0.0870
C29? C 1.0709(7) 0.9524(17) 0.2500
H17? H 1.0457 0.9760 0.2500
H18? H 1.0596 0.9244 0.3141
H19? H 1.0596 0.9244 0.1859
C30? C 1.1582(16) 1.0476(7) 0.1520(10)
H20? H 1.1425 1.0202 0.0873
H21? H 1.2060 1.0791 0.1458
H22? H 1.1343 1.0723 0.1605
C34? C 1.3587(7) 0.8967(6) 0.3488(11)
H29? H 1.3171 0.8539 0.3450
H30? H 1.3591 0.9200 0.4145
H31? H 1.3965 0.8890 0.3492
C35? C 1.4357(11) 0.9993(13) 0.2500
H32? H 1.4671 0.9827 0.2500
H33? H 1.4428 1.0264 0.3141
H34? H 1.4428 1.0264 0.1859
H35? H 0.6967(7) 0.4058(12) 0.5337(9)
C37? C 1.1452(2) 1.0027(2) 0.2500
C38? C 1.3639(2) 0.9399(2) 0.2500
H36? H 0.5175 0.3458 0.1860
I2? I 0.3094(7) 0.4714(10) 0.2500
loop_
_geom_bond_atom_site_label_1
_geom_bond_atom_site_label_2
_geom_bond_site_symmetry_1
_geom_bond_site_symmetry_2
I1 C1 1_555 1_555
O1 C19 1_555 1_555
O2 C6 1_555 1_555
N1 C5 1_555 1_555
N2 C19 1_555 1_555
C1 C2 1_555 1_555
C2 H1 1_555 1_555
C3 C2 1_555 1_555
H2 C3 1_555 1_555
C4 C3 1_555 1_555
C5 C4 1_555 1_555
H3 C5 1_555 1_555
C6 N1 1_555 1_555
C7 C6 1_555 1_555
C8 C7 1_555 1_555
C9 C8 1_555 1_555
C10 C7 1_555 1_555
H4 C10 1_555 1_555
C11 C10 1_555 1_555
H5 C11 1_555 1_555
C12 C9 1_555 1_555
C13 C12 1_555 1_555
C14 C13 1_555 1_555
C15 C14 1_555 1_555
C16 C15 1_555 1_555
C17 C16 1_555 1_555
H6 C17 1_555 1_555
C18 C13 1_555 1_555
H7 C18 1_555 1_555
C19 C16 1_555 1_555
C20 N2 1_555 1_555
C21 C20 1_555 1_555
C22 C21 1_555 1_555
H8 C22 1_555 1_555
C23 C22 1_555 1_555
H9 C23 1_555 1_555
C24 C23 1_555 1_555
C25 C20 1_555 1_555
H10 C25 1_555 1_555
C26 C21 1_555 1_555
C27 C26 1_555 1_555
H11 C27 1_555 1_555
H12 C27 1_555 1_555
H13 C27 1_555 1_555
C28 C26 1_555 1_555
H14 C28 1_555 1_555
H15 C28 1_555 1_555
H16 C28 1_555 1_555
C31 C24 1_555 1_555
C32 C31 1_555 1_555
H23 C32 1_555 1_555
H24 C32 1_555 1_555
H25 C32 1_555 1_555
C33 C31 1_555 1_555
H26 C33 1_555 1_555
H27 C33 1_555 1_555
H28 C33 1_555 1_555
Cl1 C36 1_555 1_555
Cl2 C36 1_555 1_555
Cl3 C36 1_555 1_555
C36 Cl2B 1_555 1_555
O1I C19I 1_555 1_555
O2I C6I 1_555 1_555
C2I C1 1_555 1_555
H1I C2I 1_555 1_555
C3I C4 1_555 1_555
H2I C3I 1_555 1_555
H3I C5 1_555 1_555
C6I N1 1_555 1_555
C7I C8 1_555 1_555
C10I C7I 1_555 1_555
H4I C10I 1_555 1_555
C11I C10I 1_555 1_555
H5I C11I 1_555 1_555
C12I C9 1_555 1_555
C13I C14 1_555 1_555
C16I C15 1_555 1_555
C17I C16I 1_555 1_555
H6I C17I 1_555 1_555
C18I C13I 1_555 1_555
H7I C18I 1_555 1_555
C19I N2 1_555 1_555
C27I C26 1_555 1_555
H11I C27I 1_555 1_555
H12I C27I 1_555 1_555
H13I C27I 1_555 1_555
C32I C31 1_555 1_555
H23I C32I 1_555 1_555
H24I C32I 1_555 1_555
H25I C32I 1_555 1_555
Cl2B Cl3 1_555 1_555
Cl2A Cl3 1_555 1_555
Cl3A Cl2 1_555 1_555
Cl3B Cl2 1_555 1_555
C36A Cl1 1_555 1_555
C36B Cl1 1_555 1_555
C11 C12 1_555 1_555
C17 C18 1_555 1_555
C24 C25 1_555 1_555
Cl2 C36A 1_555 1_555
Cl3 Cl3A 1_555 1_555
Cl3 Cl3B 1_555 1_555
Cl3 C36A 1_555 1_555
Cl3 C36B 1_555 1_555
C36 Cl3A 1_555 1_555
C36 Cl3B 1_555 1_555
C36 C36A 1_555 1_555
C36 C36B 1_555 1_555
C2I C3I 1_555 1_555
C6I C7I 1_555 1_555
C11I C12I 1_555 1_555
C12I C13I 1_555 1_555
C16I C19I 1_555 1_555
C17I C18I 1_555 1_555
Cl2B Cl3A 1_555 1_555
Cl2B C36B 1_555 1_555
Cl2A Cl3B 1_555 1_555
Cl2A C36A 1_555 1_555
Cl2A C36B 1_555 1_555
Cl3A Cl3B 1_555 1_555
Cl3A C36A 1_555 1_555
Cl3A C36B 1_555 1_555
Cl3B C36A 1_555 1_555
Cl3B C36B 1_555 1_555
C36A C36B 1_555 1_555

#END
