
#######################################################################
#
#                 Cambridge Crystallographic Data Centre
#                                CCDC 
#
#######################################################################
#
# If this CIF has been generated from an entry in the Cambridge 
# Structural Database, then it will include bibliographic, chemical, 
# crystal, experimental, refinement or atomic coordinate data resulting 
# from the CCDC's data processing and validation procedures.
#
#######################################################################

data_BEHZEV01
_chemical_formula_moiety         'C31 H28 B1 F2 N3'
_chemical_name_systematic        
4-(5,5-difluoro-1,3,7,9-tetramethyl-5H-dipyrrolo[1,2-c:2',1'-f][1,3,2]diazaborinin-10-yl)-N,N-diphenylaniline
_symmetry_cell_setting           triclinic
_symmetry_space_group_name_H-M   'P -1'
_symmetry_Int_Tables_number      2
_space_group_name_Hall           '-P 1'
loop_
_symmetry_equiv_pos_site_id
_symmetry_equiv_pos_as_xyz
1 x,y,z
2 -x,-y,-z
_cell_length_a                   9.357(2)
_cell_length_b                   10.222(2)
_cell_length_c                   15.115(4)
_cell_angle_alpha                98.920(19)
_cell_angle_beta                 107.89(2)
_cell_angle_gamma                101.556(18)
_cell_volume                     1311.04
_exptl_crystal_colour            red
_exptl_crystal_description       block
_cell_formula_units_Z            2
loop_
_atom_site_label
_atom_site_type_symbol
_atom_site_fract_x
_atom_site_fract_y
_atom_site_fract_z
C1 C 0.9776(3) 0.4845(3) 0.7997(2)
C2 C 1.0208(3) 0.3582(3) 0.79859(18)
C3 C 1.0629(4) 0.5662(3) 0.8896(2)
H1 H 1.0599 0.6556 0.9112
C4 C 1.1542(4) 0.4942(3) 0.9432(2)
C5 C 0.8597(4) 0.5244(3) 0.7232(3)
H2 H 0.8175 0.4515 0.6665
H3 H 0.9090 0.6064 0.7092
H4 H 0.7774 0.5405 0.7451
C6 C 1.2671(4) 0.5435(4) 1.0440(2)
H5 H 1.3138 0.4717 1.0622
H6 H 1.2131 0.5681 1.0861
H7 H 1.3467 0.6222 1.0482
C7 C 0.9003(4) -0.0689(3) 0.5847(2)
H8 H 0.8495 -0.0027 0.5600
H9 H 0.8235 -0.1479 0.5834
H10 H 0.9585 -0.0961 0.5460
C8 C 1.0339(3) 0.1242(3) 0.74458(17)
C9 C 1.0086(3) -0.0066(3) 0.6857(2)
C10 C 1.0982(4) -0.0750(3) 0.7423(2)
H11 H 1.1039 -0.1640 0.7226
C11 C 1.1784(3) 0.0085(3) 0.8328(2)
C12 C 1.2908(4) -0.0220(4) 0.9161(2)
H12 H 1.3268 0.0552 0.9698
H13 H 1.3778 -0.0393 0.8998
H14 H 1.2402 -0.1014 0.9323
C13 C 0.9776(3) 0.2384(3) 0.72660(17)
C14 C 0.8769(3) 0.2374(2) 0.62898(18)
C15 C 0.7196(3) 0.1688(3) 0.59123(18)
H15 H 0.6753 0.1190 0.6271
C16 C 0.6282(3) 0.1735(3) 0.50144(18)
H16 H 0.5231 0.1268 0.4774
C17 C 0.6919(3) 0.2478(3) 0.44624(18)
C18 C 0.8495(3) 0.3145(3) 0.48313(19)
H17 H 0.8944 0.3624 0.4467
C19 C 0.9402(3) 0.3104(3) 0.57349(19)
H18 H 1.0452 0.3572 0.5976
C20 C 0.4854(3) 0.1429(3) 0.28906(18)
C21 C 0.5175(3) 0.0170(3) 0.27523(19)
H19 H 0.6134 0.0069 0.3111
C22 C 0.4082(4) -0.0938(3) 0.2086(2)
H20 H 0.4306 -0.1785 0.2002
C23 C 0.2668(3) -0.0811(3) 0.1544(2)
H21 H 0.1942 -0.1563 0.1090
C24 C 0.2331(3) 0.0431(3) 0.1675(2)
H22 H 0.1370 0.0523 0.1312
C25 C 0.3411(3) 0.1543(3) 0.2344(2)
H23 H 0.3171 0.2383 0.2432
C26 C 0.6084(3) 0.3919(3) 0.3361(2)
C27 C 0.6171(3) 0.5008(3) 0.4052(3)
H24 H 0.6160 0.4889 0.4648
C28 C 0.6278(5) 0.6297(5) 0.3839(5)
H25 H 0.6355 0.7047 0.4303
C29 C 0.6271(6) 0.6474(6) 0.2975(7)
H26 H 0.6327 0.7339 0.2845
C30 C 0.6185(4) 0.5415(6) 0.2300(4)
H27 H 0.6189 0.5553 0.1707
C31 C 0.6091(3) 0.4113(4) 0.2477(2)
H28 H 0.6033 0.3381 0.2006
N1 N 1.1388(2) 0.1296(2) 0.83506(15)
N2 N 1.1275(2) 0.3678(2) 0.88958(15)
N3 N 0.5983(3) 0.2590(2) 0.35511(16)
B1 B 1.1975(4) 0.2515(4) 0.9229(2)
F1 F 1.1459(2) 0.21345(19) 0.99396(12)
F2 F 1.35867(19) 0.29449(19) 0.95598(14)
loop_
_geom_bond_atom_site_label_1
_geom_bond_atom_site_label_2
_geom_bond_site_symmetry_1
_geom_bond_site_symmetry_2
C1 C2 1_555 1_555
C2 C13 1_555 1_555
C3 C1 1_555 1_555
H1 C3 1_555 1_555
C4 C3 1_555 1_555
C5 C1 1_555 1_555
H2 C5 1_555 1_555
H3 C5 1_555 1_555
H4 C5 1_555 1_555
C6 C4 1_555 1_555
H5 C6 1_555 1_555
H6 C6 1_555 1_555
H7 C6 1_555 1_555
C7 H8 1_555 1_555
H9 C7 1_555 1_555
H10 C7 1_555 1_555
C8 C9 1_555 1_555
C9 C7 1_555 1_555
C10 C9 1_555 1_555
H11 C10 1_555 1_555
C11 C10 1_555 1_555
C12 C11 1_555 1_555
H12 C12 1_555 1_555
H13 C12 1_555 1_555
H14 C12 1_555 1_555
C13 C8 1_555 1_555
C14 C13 1_555 1_555
C15 C14 1_555 1_555
H15 C15 1_555 1_555
C16 C15 1_555 1_555
H16 C16 1_555 1_555
C17 C16 1_555 1_555
C18 C17 1_555 1_555
H17 C18 1_555 1_555
C19 C14 1_555 1_555
H18 C19 1_555 1_555
C20 C21 1_555 1_555
C21 H19 1_555 1_555
C22 C21 1_555 1_555
H20 C22 1_555 1_555
C23 C22 1_555 1_555
H21 C23 1_555 1_555
C24 C23 1_555 1_555
H22 C24 1_555 1_555
C25 C20 1_555 1_555
H23 C25 1_555 1_555
C26 C27 1_555 1_555
C27 H24 1_555 1_555
C28 C27 1_555 1_555
H25 C28 1_555 1_555
C29 C28 1_555 1_555
H26 C29 1_555 1_555
C30 C29 1_555 1_555
H27 C30 1_555 1_555
C31 C26 1_555 1_555
H28 C31 1_555 1_555
N1 C8 1_555 1_555
N2 C2 1_555 1_555
N3 C17 1_555 1_555
B1 N1 1_555 1_555
F1 B1 1_555 1_555
F2 B1 1_555 1_555
C4 N2 1_555 1_555
C11 N1 1_555 1_555
C18 C19 1_555 1_555
C20 N3 1_555 1_555
C24 C25 1_555 1_555
C26 N3 1_555 1_555
C30 C31 1_555 1_555
N2 B1 1_555 1_555

#END
