
#######################################################################
#
#                 Cambridge Crystallographic Data Centre
#                                CCDC 
#
#######################################################################
#
# If this CIF has been generated from an entry in the Cambridge 
# Structural Database, then it will include bibliographic, chemical, 
# crystal, experimental, refinement or atomic coordinate data resulting 
# from the CCDC's data processing and validation procedures.
#
#######################################################################

data_BEHZOF02
_chemical_formula_moiety         'C28 H20 N2'
_chemical_name_systematic        
2,2'-(Anthracene-9,10-diyldiethene-2,1-diyl)dipyridine
_symmetry_cell_setting           monoclinic
_symmetry_space_group_name_H-M   'P 21/c'
_symmetry_Int_Tables_number      14
_space_group_name_Hall           '-P 2ybc'
loop_
_symmetry_equiv_pos_site_id
_symmetry_equiv_pos_as_xyz
1 x,y,z
2 -x,1/2+y,1/2-z
3 -x,-y,-z
4 x,1/2-y,1/2+z
_cell_length_a                   10.187(2)
_cell_length_b                   20.527(4)
_cell_length_c                   10.417(2)
_cell_angle_alpha                90
_cell_angle_beta                 116.37(3)
_cell_angle_gamma                90
_cell_volume                     1951.62
_cell_formula_units_Z            4
loop_
_atom_site_label
_atom_site_type_symbol
_atom_site_fract_x
_atom_site_fract_y
_atom_site_fract_z
C1 C 1.2924(4) 0.35624(14) 0.7019(3)
H1 H 1.2893 0.3770 0.7799
C2 C 1.3838(3) 0.38162(12) 0.6481(3)
H2 H 1.4413 0.4182 0.6888
C3 C 1.3863(3) 0.35102(13) 0.5333(3)
H3 H 1.4452 0.3667 0.4930
C4 C 1.3030(3) 0.29804(12) 0.4789(3)
H4 H 1.3049 0.2771 0.4006
C5 C 1.2163(3) 0.27439(12) 0.5355(3)
C6 C 1.1334(3) 0.21291(15) 0.4739(3)
H5 H 1.1570 0.1886 0.4116
C7 C 1.0295(4) 0.19201(17) 0.5039(4)
H6 H 1.0037 0.2190 0.5608
C8 C 0.9473(3) 0.12918(9) 0.4566(2)
C9 C 0.9307(2) 0.09313(10) 0.5637(2)
C10 C 1.0031(3) 0.11204(11) 0.7117(2)
H7 H 1.0596 0.1497 0.7367
C11 C 0.9918(3) 0.07686(12) 0.8156(2)
H8 H 1.0374 0.0913 0.9100
C12 C 0.9116(3) 0.01857(12) 0.7819(2)
H9 H 0.9058 -0.0059 0.8543
C13 C 0.8426(3) -0.00214(11) 0.6447(2)
H10 H 0.7911 -0.0412 0.6246
C14 C 0.8465(2) 0.03433(9) 0.5296(2)
C15 C 0.7740(2) 0.01293(9) 0.3855(2)
C16 C 0.7905(2) 0.04884(10) 0.2779(2)
C17 C 0.7180(3) 0.02928(11) 0.1309(2)
H11 H 0.6583 -0.0074 0.1060
C18 C 0.7341(3) 0.06296(12) 0.0272(2)
H12 H 0.6880 0.0484 -0.0671
C19 C 0.8196(3) 0.11955(12) 0.0607(2)
H13 H 0.8291 0.1425 -0.0117
C20 C 0.8889(3) 0.14127(11) 0.1983(2)
H14 H 0.9444 0.1792 0.2184
C21 C 0.8781(2) 0.10697(10) 0.3126(2)
C22 C 0.6871(2) -0.04759(10) 0.3450(2)
H15 H 0.7109 -0.0774 0.2914
C23 C 0.5788(3) -0.06437(10) 0.3762(2)
H16 H 0.5528 -0.0350 0.4290
C24 C 0.4971(2) -0.12577(10) 0.3337(2)
C25 C 0.3950(3) -0.14196(12) 0.3824(3)
H17 H 0.3777 -0.1141 0.4436
C26 C 0.3191(3) -0.20005(13) 0.3392(3)
H18 H 0.2501 -0.2117 0.3708
C27 C 0.3469(3) -0.24015(13) 0.2494(3)
H19 H 0.2980 -0.2796 0.2188
C28 C 0.4503(3) -0.22014(12) 0.2056(3)
H20 H 0.4687 -0.2473 0.1440
N1 N 0.5245(2) -0.16505(9) 0.24529(19)
N2 N 1.2080(3) 0.30345(11) 0.6478(3)
C29? C 1.0808(13) 0.2348(6) 0.5446(12)
C30? C 1.0677(16) 0.1772(7) 0.4679(17)
H21? H 1.0816 0.2690 0.6036
H22? H 1.0562 0.1366 0.4245
loop_
_geom_bond_atom_site_label_1
_geom_bond_atom_site_label_2
_geom_bond_site_symmetry_1
_geom_bond_site_symmetry_2
C1 H1 1_555 1_555
C2 C1 1_555 1_555
H2 C2 1_555 1_555
C3 C2 1_555 1_555
H3 C3 1_555 1_555
C4 C3 1_555 1_555
H4 C4 1_555 1_555
C5 C4 1_555 1_555
C6 C5 1_555 1_555
H5 C6 1_555 1_555
C7 C6 1_555 1_555
H6 C7 1_555 1_555
C8 C7 1_555 1_555
C9 C8 1_555 1_555
C10 C9 1_555 1_555
H7 C10 1_555 1_555
C11 C10 1_555 1_555
H8 C11 1_555 1_555
C12 C11 1_555 1_555
H9 C12 1_555 1_555
C13 C12 1_555 1_555
H10 C13 1_555 1_555
C14 C9 1_555 1_555
C15 C14 1_555 1_555
C16 C15 1_555 1_555
C17 C16 1_555 1_555
H11 C17 1_555 1_555
C18 C17 1_555 1_555
H12 C18 1_555 1_555
C19 C18 1_555 1_555
H13 C19 1_555 1_555
C20 C19 1_555 1_555
H14 C20 1_555 1_555
C21 C8 1_555 1_555
C22 C15 1_555 1_555
H15 C22 1_555 1_555
C23 C22 1_555 1_555
H16 C23 1_555 1_555
C24 C23 1_555 1_555
C25 C24 1_555 1_555
H17 C25 1_555 1_555
C26 C25 1_555 1_555
H18 C26 1_555 1_555
C27 C26 1_555 1_555
H19 C27 1_555 1_555
C28 C27 1_555 1_555
H20 C28 1_555 1_555
N1 C24 1_555 1_555
N2 C1 1_555 1_555
C5 N2 1_555 1_555
C13 C14 1_555 1_555
C16 C21 1_555 1_555
C20 C21 1_555 1_555
C28 N1 1_555 1_555

#END
