
#######################################################################
#
#                 Cambridge Crystallographic Data Centre
#                                CCDC 
#
#######################################################################
#
# If this CIF has been generated from an entry in the Cambridge 
# Structural Database, then it will include bibliographic, chemical, 
# crystal, experimental, refinement or atomic coordinate data resulting 
# from the CCDC's data processing and validation procedures.
#
#######################################################################

data_BEJDUQ
_chemical_formula_moiety         'C16 H14 O3'
_chemical_name_systematic        
10-Phenyl-8-oxatricyclo(4.3.1.0^4,11^)undec-10-ene-2,9-dione
_symmetry_cell_setting           orthorhombic
_symmetry_space_group_name_H-M   'P b c a'
_symmetry_Int_Tables_number      61
_space_group_name_Hall           '-P 2ac 2ab'
loop_
_symmetry_equiv_pos_site_id
_symmetry_equiv_pos_as_xyz
1 x,y,z
2 1/2-x,-y,1/2+z
3 1/2+x,1/2-y,-z
4 -x,1/2+y,1/2-z
5 -x,-y,-z
6 1/2+x,y,1/2-z
7 1/2-x,1/2+y,z
8 x,1/2-y,1/2+z
_cell_length_a                   14.2689(15)
_cell_length_b                   10.3045(11)
_cell_length_c                   17.3186(17)
_cell_angle_alpha                90
_cell_angle_beta                 90
_cell_angle_gamma                90
_cell_volume                     2546.42
_cell_formula_units_Z            8
loop_
_atom_site_label
_atom_site_type_symbol
_atom_site_fract_x
_atom_site_fract_y
_atom_site_fract_z
O1 O 0.1870(1) 0.1414(1) 0.2253(1)
O2 O -0.0897(1) -0.0331(1) 0.0633(1)
O3 O 0.1005(1) 0.3140(1) 0.2431(1)
C1 C 0.0318(1) -0.1892(2) 0.0909(1)
C2 C -0.0204(1) -0.0629(2) 0.0991(1)
C3 C 0.0325(1) 0.0185(2) 0.1565(1)
C4 C 0.0303(1) 0.1475(2) 0.1669(1)
C5 C 0.1068(1) 0.2075(2) 0.2146(1)
C6 C 0.1988(1) 0.0107(2) 0.1943(1)
C7 C 0.2347(1) 0.0068(2) 0.1116(1)
C8 C 0.2085(1) -0.1281(2) 0.0843(1)
C9 C 0.1249(1) -0.1746(2) 0.1338(1)
C10 C 0.1079(1) -0.0638(2) 0.1919(1)
C11 C -0.0420(1) 0.2384(2) 0.1376(1)
C12 C -0.1370(1) 0.2110(2) 0.1470(1)
C13 C -0.2046(1) 0.2973(2) 0.1225(1)
C14 C -0.1793(1) 0.4121(2) 0.0879(1)
C15 C -0.0854(1) 0.4413(2) 0.0780(1)
C16 C -0.0172(1) 0.3556(2) 0.1031(1)
H1 H 0.0399 -0.2105 0.0392
H2 H -0.0080 -0.2561 0.1141
H3 H 0.2448 -0.0258 0.2311
H4 H 0.3015 0.0246 0.1079
H5 H 0.2007 0.0733 0.0772
H6 H 0.1900 -0.1288 0.0322
H7 H 0.2613 -0.1843 0.0924
H8 H 0.1393 -0.2537 0.1605
H9 H 0.0870 -0.0867 0.2458
H10 H -0.1528 0.1306 0.1701
H11 H -0.2706 0.2772 0.1304
H12 H -0.2265 0.4748 0.0711
H13 H -0.0680 0.5227 0.0519
H14 H 0.0494 0.3740 0.0986
loop_
_geom_bond_atom_site_label_1
_geom_bond_atom_site_label_2
_geom_bond_site_symmetry_1
_geom_bond_site_symmetry_2
O1 C5 1_555 1_555
O2 C2 1_555 1_555
O3 C5 1_555 1_555
C1 C2 1_555 1_555
C2 C3 1_555 1_555
C3 C4 1_555 1_555
C4 C5 1_555 1_555
C6 O1 1_555 1_555
C7 C6 1_555 1_555
C8 C7 1_555 1_555
C9 C1 1_555 1_555
C10 C3 1_555 1_555
C11 C4 1_555 1_555
C12 C11 1_555 1_555
C13 C12 1_555 1_555
C14 C13 1_555 1_555
C15 C14 1_555 1_555
C16 C11 1_555 1_555
H1 C1 1_555 1_555
H2 C1 1_555 1_555
H3 C6 1_555 1_555
H4 C7 1_555 1_555
H5 C7 1_555 1_555
H6 C8 1_555 1_555
H7 C8 1_555 1_555
H8 C9 1_555 1_555
H9 C10 1_555 1_555
H10 C12 1_555 1_555
H11 C13 1_555 1_555
H12 C14 1_555 1_555
H13 C15 1_555 1_555
H14 C16 1_555 1_555
C6 C10 1_555 1_555
C8 C9 1_555 1_555
C9 C10 1_555 1_555
C15 C16 1_555 1_555

#END
