
#######################################################################
#
#                 Cambridge Crystallographic Data Centre
#                                CCDC 
#
#######################################################################
#
# If this CIF has been generated from an entry in the Cambridge 
# Structural Database, then it will include bibliographic, chemical, 
# crystal, experimental, refinement or atomic coordinate data resulting 
# from the CCDC's data processing and validation procedures.
#
#######################################################################

data_BEJDIE
_chemical_formula_moiety         'C16 H16 O2'
_chemical_name_systematic        
10-Methyl-9-phenyl-7-oxatricyclo(4.3.1.0^3,10^)dec-9-en-8-one
_symmetry_cell_setting           monoclinic
_symmetry_space_group_name_H-M   'P 21'
_symmetry_Int_Tables_number      4
_space_group_name_Hall           'P 2yb'
loop_
_symmetry_equiv_pos_site_id
_symmetry_equiv_pos_as_xyz
1 x,y,z
2 -x,1/2+y,-z
_cell_length_a                   6.6228(6)
_cell_length_b                   12.2008(12)
_cell_length_c                   8.4401(8)
_cell_angle_alpha                90
_cell_angle_beta                 110.754(2)
_cell_angle_gamma                90
_cell_volume                     637.735
_exptl_crystal_colour            colorless
_cell_formula_units_Z            2
loop_
_atom_site_label
_atom_site_type_symbol
_atom_site_fract_x
_atom_site_fract_y
_atom_site_fract_z
O1 O 0.6691(2) 0.7548 0.0599(2)
O2 O 0.8320(3) 0.7204(2) 0.3301(2)
C1 C 0.3656(4) 0.4807(3) 0.3396(3)
C2 C 0.3936(5) 0.3913(3) 0.4454(3)
C3 C 0.5984(6) 0.3519(3) 0.5318(3)
C4 C 0.7728(5) 0.4022(3) 0.5132(3)
C5 C 0.7471(4) 0.4915(2) 0.4069(3)
C6 C 0.5416(3) 0.5326(2) 0.3162(2)
C7 C 0.5013(3) 0.6238(2) 0.1944(2)
C8 C 0.6784(3) 0.7029(2) 0.2044(3)
C9 C 0.4896(3) 0.7371(2) -0.0996(3)
C10 C 0.5064(4) 0.6310(3) -0.1908(3)
C11 C 0.2716(4) 0.6000(3) -0.2931(3)
C12 C 0.1343(3) 0.6433(3) -0.1952(3)
C13 C 0.1274(3) 0.5729(3) -0.0434(3)
C14 C 0.3160(3) 0.6408(2) 0.0658(2)
C15 C 0.2808(3) 0.7275(2) -0.0672(2)
C16 C 0.1782(5) 0.8335(3) -0.0370(4)
H1 H 0.2279 0.5122 0.2944
H2 H 0.2713 0.3546 0.4619
H3 H 0.6120 0.2928 0.5991
H4 H 0.9085 0.3837 0.5670
H5 H 0.8639 0.5272 0.3879
H6 H 0.4968 0.8020 -0.1595
H7 H 0.5945 0.6374 -0.2624
H8 H 0.5679 0.5741 -0.1082
H9 H 0.2562 0.5202 -0.3033
H10 H 0.2278 0.6377 -0.4012
H11 H 0.0056 0.6634 -0.2694
H12 H -0.0013 0.5800 -0.0178
H13 H 0.1667 0.4913 -0.0395
H14 H 0.0528 0.8246 -0.0025
H15 H 0.1706 0.8834 -0.1203
H16 H 0.2921 0.8705 0.0622
loop_
_geom_bond_atom_site_label_1
_geom_bond_atom_site_label_2
_geom_bond_site_symmetry_1
_geom_bond_site_symmetry_2
O1 C8 1_555 1_555
O2 C8 1_555 1_555
C1 C2 1_555 1_555
C2 C3 1_555 1_555
C3 C4 1_555 1_555
C4 C5 1_555 1_555
C5 C6 1_555 1_555
C6 C1 1_555 1_555
C7 C6 1_555 1_555
C8 C7 1_555 1_555
C9 O1 1_555 1_555
C10 C9 1_555 1_555
C11 C10 1_555 1_555
C12 C11 1_555 1_555
C13 C12 1_555 1_555
C14 C7 1_555 1_555
C15 C9 1_555 1_555
C16 C15 1_555 1_555
H1 C1 1_555 1_555
H2 C2 1_555 1_555
H3 C3 1_555 1_555
H4 C4 1_555 1_555
H5 C5 1_555 1_555
H6 C9 1_555 1_555
H7 C10 1_555 1_555
H8 C10 1_555 1_555
H9 C11 1_555 1_555
H10 C11 1_555 1_555
H11 C12 1_555 1_555
H12 C13 1_555 1_555
H13 C13 1_555 1_555
H14 C16 1_555 1_555
H15 C16 1_555 1_555
H16 C16 1_555 1_555
C12 C15 1_555 1_555
C13 C14 1_555 1_555
C14 C15 1_555 1_555

#END
