
#######################################################################
#
#                 Cambridge Crystallographic Data Centre
#                                CCDC 
#
#######################################################################
#
# If this CIF has been generated from an entry in the Cambridge 
# Structural Database, then it will include bibliographic, chemical, 
# crystal, experimental, refinement or atomic coordinate data resulting 
# from the CCDC's data processing and validation procedures.
#
#######################################################################

data_BEJGIH
_chemical_formula_moiety         'C12 H17 N1 O1'
_chemical_name_systematic        
(2S,4R,6R)-(-)-2-Methyl-6-phenylpiperidin-4-ol
_symmetry_cell_setting           monoclinic
_symmetry_space_group_name_H-M   'P 21'
_symmetry_Int_Tables_number      4
_space_group_name_Hall           'P 2yb'
loop_
_symmetry_equiv_pos_site_id
_symmetry_equiv_pos_as_xyz
1 x,y,z
2 -x,1/2+y,-z
_cell_length_a                   7.344(3)
_cell_length_b                   7.054(3)
_cell_length_c                   11.485(5)
_cell_angle_alpha                90
_cell_angle_beta                 112.473(8)
_cell_angle_gamma                90
_cell_volume                     549.793
_chemical_melting_point          '125-126 deg.C'
_cell_formula_units_Z            2
loop_
_atom_site_label
_atom_site_type_symbol
_atom_site_fract_x
_atom_site_fract_y
_atom_site_fract_z
N1 N 0.5120(2) 0.6319(2) 0.8648(2)
C1 C 0.3159(3) 0.5677(3) 0.7786(2)
C2 C 0.2889(3) 0.3660(3) 0.8197(2)
C3 C 0.4524(3) 0.2331(3) 0.8197(2)
C4 C 0.6550(3) 0.3195(3) 0.8919(2)
C5 C 0.6717(3) 0.5206(3) 0.8498(2)
C6 C 0.2797(3) 0.5868(3) 0.6376(2)
C7 C 0.3673(4) 0.7337(4) 0.5971(2)
C8 C 0.3390(4) 0.7526(4) 0.4708(2)
C9 C 0.2193(4) 0.6283(4) 0.3834(2)
C10 C 0.1285(4) 0.4854(4) 0.4216(2)
C11 C 0.1577(4) 0.4644(4) 0.5475(2)
C12 C 0.8696(3) 0.6104(4) 0.9282(3)
O1 O 0.4359(2) 0.0531(2) 0.8729(2)
H1 H 0.524(3) 0.758(4) 0.850(2)
H2 H 0.219(3) 0.652(3) 0.793(2)
H3 H 0.156(3) 0.317(3) 0.769(2)
H4 H 0.294(3) 0.376(3) 0.904(2)
H5 H 0.436(3) 0.209(3) 0.731(2)
H6 H 0.758(3) 0.237(3) 0.879(2)
H7 H 0.677(3) 0.320(3) 0.979(2)
H8 H 0.658(3) 0.521(3) 0.759(2)
H9 H 0.444(4) 0.824(4) 0.660(3)
H10 H 0.408(4) 0.862(5) 0.449(3)
H11 H 0.201(4) 0.642(4) 0.299(3)
H12 H 0.045(5) 0.389(5) 0.362(3)
H13 H 0.092(4) 0.362(4) 0.573(2)
H14 H 0.890(3) 0.612(4) 1.016(2)
H15 H 0.870(4) 0.742(4) 0.898(3)
H16 H 0.978(4) 0.538(4) 0.913(3)
H17 H 0.451(4) 0.067(4) 0.948(3)
loop_
_geom_bond_atom_site_label_1
_geom_bond_atom_site_label_2
_geom_bond_site_symmetry_1
_geom_bond_site_symmetry_2
N1 C1 1_555 1_555
C1 C2 1_555 1_555
C2 C3 1_555 1_555
C3 C4 1_555 1_555
C4 C5 1_555 1_555
C5 N1 1_555 1_555
C6 C1 1_555 1_555
C7 C6 1_555 1_555
C8 C7 1_555 1_555
C9 C8 1_555 1_555
C10 C9 1_555 1_555
C11 C6 1_555 1_555
C12 C5 1_555 1_555
O1 C3 1_555 1_555
H1 N1 1_555 1_555
H2 C1 1_555 1_555
H3 C2 1_555 1_555
H4 C2 1_555 1_555
H5 C3 1_555 1_555
H6 C4 1_555 1_555
H7 C4 1_555 1_555
H8 C5 1_555 1_555
H9 C7 1_555 1_555
H10 C8 1_555 1_555
H11 C9 1_555 1_555
H12 C10 1_555 1_555
H13 C11 1_555 1_555
H14 C12 1_555 1_555
H15 C12 1_555 1_555
H16 C12 1_555 1_555
H17 O1 1_555 1_555
C10 C11 1_555 1_555

#END
