
#######################################################################
#
#                 Cambridge Crystallographic Data Centre
#                                CCDC 
#
#######################################################################
#
# If this CIF has been generated from an entry in the Cambridge 
# Structural Database, then it will include bibliographic, chemical, 
# crystal, experimental, refinement or atomic coordinate data resulting 
# from the CCDC's data processing and validation procedures.
#
#######################################################################

data_BEJGUV
_chemical_formula_moiety         'C16 H17 N7 O2 S1'
_chemical_name_systematic        
1-(4-t-butyl-2-(2-(2-nitrobenzylidene)hydrazino)-1,3-thiazol-5-yl)-1H-1,2,4-triazole
_symmetry_cell_setting           monoclinic
_symmetry_space_group_name_H-M   'P 21/n'
_symmetry_Int_Tables_number      14
_space_group_name_Hall           '-P 2yn'
loop_
_symmetry_equiv_pos_site_id
_symmetry_equiv_pos_as_xyz
1 x,y,z
2 1/2-x,1/2+y,1/2-z
3 -x,-y,-z
4 1/2+x,1/2-y,1/2+z
_cell_length_a                   11.1215(2)
_cell_length_b                   12.0652(3)
_cell_length_c                   13.4362(2)
_cell_angle_alpha                90
_cell_angle_beta                 94.5267(16)
_cell_angle_gamma                90
_cell_volume                     1797.29
_exptl_crystal_colour            yellow
_exptl_crystal_description       block
_cell_formula_units_Z            4
loop_
_atom_site_label
_atom_site_type_symbol
_atom_site_fract_x
_atom_site_fract_y
_atom_site_fract_z
C1 C 0.52599(16) 0.26229(17) 0.86744(13)
H1 H 0.4518 0.2816 0.8934
C2 C 0.68937(16) 0.18109(16) 0.85119(12)
H2 H 0.7576 0.1337 0.8598
C3 C 0.74766(14) 0.28490(14) 0.70278(12)
C4 C 0.74591(14) 0.25237(14) 0.60573(11)
C5 C 0.66421(15) 0.17066(15) 0.54696(12)
C6 C 0.73876(17) 0.06656(18) 0.52873(16)
H3 H 0.8098 0.0872 0.4942
H4 H 0.6894 0.0141 0.4875
H5 H 0.7646 0.0319 0.5929
C7 C 0.62058(19) 0.2239(2) 0.44691(14)
H6 H 0.5729 0.2901 0.4591
H7 H 0.5706 0.1708 0.4069
H8 H 0.6904 0.2448 0.4108
C8 C 0.55334(15) 0.13783(16) 0.60068(13)
H9 H 0.5792 0.1004 0.6635
H10 H 0.5026 0.0876 0.5582
H11 H 0.5072 0.2044 0.6148
C9 C 0.90590(14) 0.36276(14) 0.61397(11)
C10 C 1.18482(14) 0.49200(14) 0.62978(12)
H12 H 1.2055 0.4812 0.5632
C11 C 1.27023(15) 0.54264(15) 0.70516(12)
C12 C 1.39618(15) 0.53285(15) 0.70757(12)
C13 C 1.47232(16) 0.57955(17) 0.78217(14)
H13 H 1.5572 0.5711 0.7816
C14 C 1.42410(18) 0.63866(17) 0.85772(14)
H14 H 1.4755 0.6684 0.9109
C15 C 1.30004(18) 0.65434(17) 0.85550(14)
H15 H 1.2669 0.6974 0.9058
C16 C 1.22517(16) 0.60739(16) 0.78037(13)
H16 H 1.1407 0.6193 0.7796
N1 N 0.67119(12) 0.25663(12) 0.77832(10)
N2 N 0.56462(13) 0.31145(14) 0.78883(11)
N3 N 0.59923(13) 0.18196(14) 0.90905(10)
N4 N 0.83825(12) 0.29841(12) 0.55574(9)
N5 N 1.00502(12) 0.41517(13) 0.58382(10)
H17 H 1.0349(17) 0.3957(17) 0.5266(16)
N6 N 1.08149(12) 0.46270(12) 0.65657(10)
N7 N 1.45335(13) 0.46847(14) 0.63129(11)
O1 O 1.55662(11) 0.49367(13) 0.61371(10)
O2 O 1.39597(12) 0.39220(12) 0.58950(10)
S1 S 0.86575(4) 0.37672(4) 0.73534(3)
loop_
_geom_bond_atom_site_label_1
_geom_bond_atom_site_label_2
_geom_bond_site_symmetry_1
_geom_bond_site_symmetry_2
C1 H1 1_555 1_555
C2 H2 1_555 1_555
C3 C4 1_555 1_555
C4 C5 1_555 1_555
C5 C6 1_555 1_555
C6 H3 1_555 1_555
H4 C6 1_555 1_555
H5 C6 1_555 1_555
C7 C5 1_555 1_555
H6 C7 1_555 1_555
H7 C7 1_555 1_555
H8 C7 1_555 1_555
C8 C5 1_555 1_555
H9 C8 1_555 1_555
H10 C8 1_555 1_555
H11 C8 1_555 1_555
C9 N4 1_555 1_555
C10 H12 1_555 1_555
C11 C10 1_555 1_555
C12 C11 1_555 1_555
C13 C12 1_555 1_555
H13 C13 1_555 1_555
C14 C13 1_555 1_555
H14 C14 1_555 1_555
C15 C14 1_555 1_555
H15 C15 1_555 1_555
C16 C11 1_555 1_555
H16 C16 1_555 1_555
N1 C2 1_555 1_555
N2 C1 1_555 1_555
N3 C1 1_555 1_555
N4 C4 1_555 1_555
N5 C9 1_555 1_555
H17 N5 1_555 1_555
N6 C10 1_555 1_555
N7 C12 1_555 1_555
O1 N7 1_555 1_555
O2 N7 1_555 1_555
S1 C3 1_555 1_555
C2 N3 1_555 1_555
C3 N1 1_555 1_555
C9 S1 1_555 1_555
C15 C16 1_555 1_555
N1 N2 1_555 1_555
N5 N6 1_555 1_555

#END
