
#######################################################################
#
#                 Cambridge Crystallographic Data Centre
#                                CCDC 
#
#######################################################################
#
# If this CIF has been generated from an entry in the Cambridge 
# Structural Database, then it will include bibliographic, chemical, 
# crystal, experimental, refinement or atomic coordinate data resulting 
# from the CCDC's data processing and validation procedures.
#
#######################################################################

data_BEJKEG
_chemical_name_common            Dimethyl-octaethyl-isobacteriochlorin
_chemical_formula_moiety         'C38 H54 N4'
_chemical_name_systematic        
3,7-Dimethyl-3',7'-dihydro-2,2',8,8',12,13,17,18-octaethylporphyrin
_symmetry_cell_setting           triclinic
_symmetry_space_group_name_H-M   'P -1'
_symmetry_Int_Tables_number      2
_space_group_name_Hall           '-P 1'
loop_
_symmetry_equiv_pos_site_id
_symmetry_equiv_pos_as_xyz
1 x,y,z
2 -x,-y,-z
_cell_length_a                   12.300(9)
_cell_length_b                   13.998(4)
_cell_length_c                   11.392(6)
_cell_angle_alpha                109.78(3)
_cell_angle_beta                 95.37(5)
_cell_angle_gamma                68.69(3)
_cell_volume                     1718.53
_exptl_crystal_colour            red
_cell_formula_units_Z            2
loop_
_atom_site_label
_atom_site_type_symbol
_atom_site_fract_x
_atom_site_fract_y
_atom_site_fract_z
N1 N 0.45980 0.43960 1.09930
N2 N 0.26790 0.65350 1.18000
N3 N 0.12310 0.57230 0.98570
N4 N 0.31580 0.36230 0.90630
C1 C 0.52730 0.33080 1.06340
C2 C 0.63020 0.31350 1.15150
C3 C 0.63540 0.42810 1.20190
C4 C 0.51350 0.49850 1.18540
C5 C 0.46590 0.60840 1.24900
C6 C 0.35290 0.67990 1.25060
C7 C 0.31000 0.79645 1.32940
C8 C 0.17540 0.82570 1.33500
C9 C 0.16120 0.74140 1.21680
C10 C 0.06220 0.74520 1.15310
C11 C 0.04310 0.67110 1.04410
C12 C -0.06190 0.68500 0.97440
C13 C -0.04210 0.59290 0.87760
C14 C 0.07450 0.51890 0.88140
C15 C 0.12970 0.41610 0.80380
C16 C 0.24020 0.34200 0.80990
C17 C 0.29020 0.23390 0.73040
C18 C 0.39360 0.18570 0.77820
C19 C 0.40650 0.26800 0.88710
C20 C 0.50380 0.25370 0.96800
C21 C 0.74110 0.22610 1.07640
C22 C 0.85240 0.20640 1.15070
C23 C 0.59830 0.27470 1.24930
C24 C 0.48040 0.34110 1.31830
C25 C 0.68590 0.46350 1.32690
C26 C 0.37240 0.82960 1.44800
C27 C 0.10780 0.94260 1.34120
C28 C 0.12530 0.98040 1.24110
C29 C 0.13490 0.80870 1.44580
C30 C 0.15240 0.71320 1.45670
C31 C -0.17160 0.78350 1.00650
C32 C -0.17600 0.86870 0.95400
C33 C -0.12550 0.56250 0.77820
C34 C -0.11130 0.57900 0.66110
C35 C 0.23540 0.18070 0.61360
C36 C 0.26050 0.20120 0.50110
C37 C 0.47400 0.07070 0.73150
C38 C 0.45450 -0.00180 0.79180
H1 H 0.38540 0.46900 1.06750
H2 H 0.30540 0.42890 0.97160
H3 H 0.68340 0.43120 1.14350
H4 H 0.32210 0.83400 1.27910
H5 H 0.51840 0.63960 1.29940
H6 H -0.00450 0.80870 1.18860
H7 H 0.08570 0.39110 0.73490
H8 H 0.55770 0.18160 0.95230
H9 H 0.75370 0.24710 1.00930
H10 H 0.72730 0.15960 1.04220
H11 H 0.65720 0.27230 1.30930
H12 H 0.59980 0.20270 1.20890
H13 H 0.12490 0.98810 1.41770
H14 H 0.02680 0.95370 1.34500
H15 H 0.05280 0.84700 1.45430
H16 H 0.16740 0.84690 1.51660
H17 H -0.17890 0.81490 1.09480
H18 H -0.23590 0.76080 0.97790
H19 H -0.20300 0.60450 0.81080
H20 H -0.11360 0.48800 0.76150
H21 H 0.15340 0.20790 0.62810
H22 H 0.26430 0.10480 0.59860
H23 H 0.55210 0.06890 0.74530
H24 H 0.46520 0.04270 0.64420
H25 H 0.86830 0.27150 1.18370
H26 H 0.91560 0.15150 1.09730
H27 H 0.84170 0.18330 1.21680
H28 H 0.47820 0.41290 1.36180
H29 H 0.47120 0.30890 1.37600
H30 H 0.42020 0.34250 1.26020
H31 H 0.68830 0.53070 1.34280
H32 H 0.76290 0.41360 1.32740
H33 H 0.63870 0.46520 1.38940
H34 H 0.36730 0.79160 1.50110
H35 H 0.33660 0.90590 1.48920
H36 H 0.45200 0.81300 1.42870
H37 H 0.20520 0.97310 1.23720
H38 H 0.07740 1.05460 1.25810
H39 H 0.10570 0.93830 1.16350
H40 H 0.11620 0.67540 1.39110
H41 H 0.11830 0.72590 1.53480
H42 H 0.23310 0.67530 1.45480
H43 H -0.11320 0.89280 0.98250
H44 H -0.24810 0.92720 0.97810
H45 H -0.17060 0.83830 0.86470
H46 H -0.12550 0.64350 0.67730
H47 H -0.16740 0.55810 0.60470
H48 H -0.03550 0.53620 0.62760
H49 H 0.23110 0.27700 0.51500
H50 H 0.22420 0.16610 0.43180
H51 H 0.34260 0.17340 0.48540
H52 H 0.46480 0.02450 0.87860
H53 H 0.50890 -0.07320 0.75690
H54 H 0.37730 -0.00180 0.77680
loop_
_geom_bond_atom_site_label_1
_geom_bond_atom_site_label_2
_geom_bond_site_symmetry_1
_geom_bond_site_symmetry_2
N1 C1 1_555 1_555
N2 C6 1_555 1_555
N3 C11 1_555 1_555
N4 C16 1_555 1_555
C1 C2 1_555 1_555
C2 C3 1_555 1_555
C3 C4 1_555 1_555
C4 N1 1_555 1_555
C5 C4 1_555 1_555
C6 C5 1_555 1_555
C7 C6 1_555 1_555
C8 C7 1_555 1_555
C9 N2 1_555 1_555
C10 C9 1_555 1_555
C11 C10 1_555 1_555
C12 C11 1_555 1_555
C13 C12 1_555 1_555
C14 N3 1_555 1_555
C15 C14 1_555 1_555
C16 C15 1_555 1_555
C17 C16 1_555 1_555
C18 C17 1_555 1_555
C19 N4 1_555 1_555
C20 C1 1_555 1_555
C21 C2 1_555 1_555
C22 C21 1_555 1_555
C23 C2 1_555 1_555
C24 C23 1_555 1_555
C25 C3 1_555 1_555
C26 C7 1_555 1_555
C27 C8 1_555 1_555
C28 C27 1_555 1_555
C29 C8 1_555 1_555
C30 C29 1_555 1_555
C31 C12 1_555 1_555
C32 C31 1_555 1_555
C33 C13 1_555 1_555
C34 C33 1_555 1_555
C35 C17 1_555 1_555
C36 C35 1_555 1_555
C37 C18 1_555 1_555
C38 C37 1_555 1_555
H1 N1 1_555 1_555
H2 N4 1_555 1_555
H3 C3 1_555 1_555
H4 C7 1_555 1_555
H5 C5 1_555 1_555
H6 C10 1_555 1_555
H7 C15 1_555 1_555
H8 C20 1_555 1_555
H9 C21 1_555 1_555
H10 C21 1_555 1_555
H11 C23 1_555 1_555
H12 C23 1_555 1_555
H13 C27 1_555 1_555
H14 C27 1_555 1_555
H15 C29 1_555 1_555
H16 C29 1_555 1_555
H17 C31 1_555 1_555
H18 C31 1_555 1_555
H19 C33 1_555 1_555
H20 C33 1_555 1_555
H21 C35 1_555 1_555
H22 C35 1_555 1_555
H23 C37 1_555 1_555
H24 C37 1_555 1_555
H25 C22 1_555 1_555
H26 C22 1_555 1_555
H27 C22 1_555 1_555
H28 C24 1_555 1_555
H29 C24 1_555 1_555
H30 C24 1_555 1_555
H31 C25 1_555 1_555
H32 C25 1_555 1_555
H33 C25 1_555 1_555
H34 C26 1_555 1_555
H35 C26 1_555 1_555
H36 C26 1_555 1_555
H37 C28 1_555 1_555
H38 C28 1_555 1_555
H39 C28 1_555 1_555
H40 C30 1_555 1_555
H41 C30 1_555 1_555
H42 C30 1_555 1_555
H43 C32 1_555 1_555
H44 C32 1_555 1_555
H45 C32 1_555 1_555
H46 C34 1_555 1_555
H47 C34 1_555 1_555
H48 C34 1_555 1_555
H49 C36 1_555 1_555
H50 C36 1_555 1_555
H51 C36 1_555 1_555
H52 C38 1_555 1_555
H53 C38 1_555 1_555
H54 C38 1_555 1_555
C8 C9 1_555 1_555
C13 C14 1_555 1_555
C18 C19 1_555 1_555
C19 C20 1_555 1_555

#END
