
#######################################################################
#
#                 Cambridge Crystallographic Data Centre
#                                CCDC 
#
#######################################################################
#
# If this CIF has been generated from an entry in the Cambridge 
# Structural Database, then it will include bibliographic, chemical, 
# crystal, experimental, refinement or atomic coordinate data resulting 
# from the CCDC's data processing and validation procedures.
#
#######################################################################

data_BEJNAI01
_chemical_name_common            'celecoxib bis(proline)'
_chemical_formula_moiety         'C17 H14 F3 N3 O2 S1,2(C5 H9 N1 O2)'
_chemical_name_systematic        
'bis(pyrrolidin-1-ium-2-carboxylate) 4-[5-(4-methylphenyl)-3-(trifluoromethyl)-1H-pyrazol-1-yl]benzene-1-sulfonamide'
_chemical_properties_biological  
'Celecoxib is a COX-2 selective nonsteroidal anti-inflammatory drug.'
_symmetry_cell_setting           orthorhombic
_symmetry_space_group_name_H-M   'P 21 21 21'
_symmetry_Int_Tables_number      19
_space_group_name_Hall           'P 2ac 2ab'
loop_
_symmetry_equiv_pos_site_id
_symmetry_equiv_pos_as_xyz
1 x,y,z
2 1/2-x,-y,1/2+z
3 1/2+x,1/2-y,-z
4 -x,1/2+y,1/2-z
_cell_length_a                   9.5641(7)
_cell_length_b                   20.0364(10)
_cell_length_c                   30.4887(17)
_cell_angle_alpha                90
_cell_angle_beta                 90
_cell_angle_gamma                90
_cell_volume                     5842.55
_exptl_crystal_colour            colorless
_exptl_crystal_description       block
_cell_formula_units_Z            8
loop_
_atom_site_label
_atom_site_type_symbol
_atom_site_fract_x
_atom_site_fract_y
_atom_site_fract_z
S1 S 0.12336(17) 0.62952(8) 0.62865(5)
O1 O 0.2722(4) 0.6284(2) 0.62687(15)
O2 O 0.0510(5) 0.5735(2) 0.64753(15)
N1 N 0.0682(6) 0.6386(3) 0.57944(17)
H1 H -0.036(7) 0.630(3) 0.580(2)
H2 H 0.104(5) 0.672(3) 0.5650(16)
N2 N -0.0089(5) 0.8756(2) 0.72947(18)
N3 N 0.0247(6) 0.9341(3) 0.70953(18)
C1 C 0.0797(6) 0.7022(3) 0.65903(19)
C2 C 0.1731(7) 0.7547(3) 0.6584(2)
H3 H 0.2554 0.7517 0.6422
C3 C 0.1425(7) 0.8117(3) 0.6820(2)
H4 H 0.2045 0.8475 0.6821
C4 C 0.0192(6) 0.8151(3) 0.70555(19)
C5 C -0.0742(6) 0.7626(3) 0.70607(19)
H5 H -0.1572 0.7655 0.7219
C6 C -0.0418(6) 0.7057(3) 0.68270(19)
H6 H -0.1028 0.6695 0.6830
C7 C -0.0727(6) 0.8847(3) 0.7696(2)
C8 C -0.0816(7) 0.9528(3) 0.7750(2)
H7 H -0.1201 0.9757 0.7986
C9 C -0.0204(8) 0.9800(3) 0.7374(2)
C10 C 0.0007(12) 1.0513(4) 0.7269(3)
C11 C -0.1098(7) 0.8291(3) 0.79913(19)
C12 C -0.2376(7) 0.8253(4) 0.8178(2)
H8 H -0.3046 0.8572 0.8107
C13 C -0.0092(7) 0.7813(3) 0.8100(2)
H9 H 0.0795 0.7832 0.7976
C14 C -0.0419(8) 0.7319(4) 0.8390(2)
H10 H 0.0259 0.7003 0.8460
C15 C -0.2713(8) 0.7752(4) 0.8470(2)
H11 H -0.3603 0.7736 0.8592
C16 C -0.1724(9) 0.7270(4) 0.8584(2)
C17 C -0.2068(12) 0.6727(5) 0.8916(3)
H12 H -0.3055 0.6727 0.8973
H13 H -0.1571 0.6811 0.9184
H14 H -0.1794 0.6301 0.8801
F1 F -0.0924(7) 1.0902(2) 0.7437(2)
F2 F 0.1189(7) 1.0746(2) 0.7443(3)
F3 F 0.0088(11) 1.0628(2) 0.68493(19)
S2 S 0.64644(18) 0.60974(8) 0.61220(6)
O3 O 0.6272(5) 0.6700(2) 0.63669(15)
O4 O 0.7738(5) 0.5991(3) 0.58788(17)
N4 N 0.5202(5) 0.6047(3) 0.57797(16)
H15 H 0.4577 0.6356 0.5771
H16 H 0.5149 0.5713 0.5604
N5 N 0.5761(5) 0.3779(2) 0.73247(18)
N6 N 0.6081(6) 0.3177(3) 0.71474(17)
C18 C 0.6308(6) 0.5418(3) 0.64894(18)
C19 C 0.5120(6) 0.5377(3) 0.67515(19)
H17 H 0.4451 0.5713 0.6742
C20 C 0.4938(6) 0.4840(3) 0.7024(2)
H18 H 0.4128 0.4801 0.7191
C21 C 0.5972(6) 0.4353(3) 0.70490(19)
C22 C 0.7164(7) 0.4402(3) 0.6798(2)
H19 H 0.7855 0.4077 0.6818
C23 C 0.7323(7) 0.4935(3) 0.6517(2)
H20 H 0.8124 0.4968 0.6346
C24 C 0.5101(7) 0.3724(3) 0.7722(2)
C25 C 0.5011(7) 0.3047(3) 0.7803(2)
H21 H 0.4635 0.2838 0.8048
C26 C 0.5610(7) 0.2747(3) 0.7435(2)
C27 C 0.5801(12) 0.2008(4) 0.7355(4)
C28 C 0.4729(7) 0.4292(3) 0.8000(2)
C29 C 0.5625(8) 0.4819(4) 0.8073(2)
H22 H 0.6490 0.4830 0.7933
C30 C 0.3445(9) 0.4298(4) 0.8209(2)
H23 H 0.2823 0.3949 0.8162
C31 C 0.3074(10) 0.4809(4) 0.8484(3)
H24 H 0.2208 0.4800 0.8622
C32 C 0.5249(11) 0.5328(4) 0.8350(3)
H25 H 0.5873 0.5676 0.8397
C33 C 0.3974(12) 0.5338(4) 0.8560(2)
C34 C 0.3639(13) 0.5925(4) 0.8871(2)
H26 H 0.4343 0.5952 0.9095
H27 H 0.2742 0.5855 0.9005
H28 H 0.3624 0.6334 0.8707
F4 F 0.634(2) 0.1694(5) 0.7684(5)
F5 F 0.455(2) 0.1714(10) 0.7323(12)
F6 F 0.652(4) 0.1874(5) 0.7013(6)
O5 O 0.6403(5) 0.2129(2) 0.48156(16)
O6 O 0.8672(4) 0.18815(19) 0.48290(15)
N7 N 0.6640(5) 0.3260(2) 0.52690(15)
H29 H 0.6048 0.3001 0.5160
H30 H 0.6698 0.3641 0.5140
C35 C 0.7641(6) 0.2236(3) 0.4920(2)
C36 C 0.7943(6) 0.2827(3) 0.5215(2)
H31 H 0.8695 0.3096 0.5086
C37 C 0.8335(7) 0.2634(4) 0.5682(2)
H32 H 0.8175 0.2162 0.5729
H33 H 0.9314 0.2729 0.5737
C38 C 0.7481(13) 0.3016(8) 0.5964(3)
H34 H 0.8048 0.3359 0.6101
H35 H 0.7124 0.2730 0.6194
C39 C 0.6354(7) 0.3320(4) 0.5751(2)
H36 H 0.6282 0.3785 0.5835
H37 H 0.5486 0.3097 0.5826
O7 O 0.7393(5) 0.4459(2) 0.49026(14)
O8 O 0.5644(4) 0.4826(2) 0.53299(15)
N8 N 0.7948(5) 0.5710(2) 0.45983(15)
H38 H 0.8522 0.5401 0.4679
H39 H 0.8202 0.6071 0.4719
C40 C 0.6539(6) 0.4890(3) 0.5026(2)
C41 C 0.6524(6) 0.5550(3) 0.4785(2)
H40 H 0.6214 0.5909 0.4981
C42 C 0.5605(7) 0.5522(5) 0.4382(2)
H41 H 0.4909 0.5173 0.4411
H42 H 0.5130 0.5945 0.4338
C43 C 0.6542(10) 0.5381(5) 0.4019(2)
H43 H 0.6704 0.4905 0.3994
H44 H 0.6146 0.5541 0.3746
C44 C 0.7858(7) 0.5733(4) 0.4117(2)
H45 H 0.8649 0.5508 0.3983
H46 H 0.7827 0.6190 0.4013
O9 O 0.0626(5) 0.5306(3) 0.46955(18)
O10 O 0.2712(5) 0.5490(2) 0.49903(18)
N9 N 0.2845(5) 0.4342(2) 0.54162(15)
H47 H 0.3409 0.4638 0.5350
H48 H 0.3199 0.3928 0.5329
C45 C 0.1626(9) 0.5150(3) 0.4937(2)
C46 C 0.1519(6) 0.4501(3) 0.51841(18)
H49 H 0.1297 0.4140 0.4979
C47 C 0.0406(6) 0.4526(3) 0.55451(19)
H50 H 0.0143 0.4983 0.5607
H51 H -0.0422 0.4281 0.5457
C48 C 0.1065(6) 0.4208(3) 0.5942(2)
H52 H 0.0962 0.3726 0.5936
H53 H 0.0661 0.4380 0.6211
C49 C 0.2577(7) 0.4410(3) 0.5897(2)
H54 H 0.2720 0.4865 0.5995
H55 H 0.3181 0.4116 0.6065
O11 O 0.3804(4) 0.80786(19) 0.50954(14)
O12 O 0.1859(5) 0.7622(2) 0.53605(15)
N10 N 0.1661(5) 0.6722(2) 0.46971(15)
H56 H 0.1944 0.6309 0.4790
H57 H 0.0974 0.6869 0.4890
C50 C 0.2866(7) 0.7633(3) 0.5104(2)
C51 C 0.3036(6) 0.7072(3) 0.47744(19)
H58 H 0.3705 0.6748 0.4892
C52 C 0.3511(6) 0.7275(3) 0.43176(19)
H59 H 0.3299 0.7741 0.4263
H60 H 0.4511 0.7208 0.4285
C53 C 0.2711(6) 0.6830(3) 0.40037(19)
H61 H 0.2633 0.7032 0.3716
H62 H 0.3152 0.6396 0.3976
C54 C 0.1312(7) 0.6776(3) 0.42219(19)
H63 H 0.0748 0.7168 0.4164
H64 H 0.0812 0.6383 0.4122
F7? F 0.703(4) 0.184(2) 0.737(4)
F8? F 0.500(11) 0.1666(16) 0.757(3)
F9? F 0.525(7) 0.1854(16) 0.6980(17)
loop_
_geom_bond_atom_site_label_1
_geom_bond_atom_site_label_2
_geom_bond_site_symmetry_1
_geom_bond_site_symmetry_2
S1 O1 1_555 1_555
O2 S1 1_555 1_555
N1 S1 1_555 1_555
H1 N1 1_555 1_555
H2 N1 1_555 1_555
N2 N3 1_555 1_555
N3 C9 1_555 1_555
C1 S1 1_555 1_555
C2 C1 1_555 1_555
H3 C2 1_555 1_555
C3 C2 1_555 1_555
H4 C3 1_555 1_555
C4 N2 1_555 1_555
C5 C4 1_555 1_555
H5 C5 1_555 1_555
C6 C1 1_555 1_555
H6 C6 1_555 1_555
C7 N2 1_555 1_555
C8 C7 1_555 1_555
H7 C8 1_555 1_555
C9 C8 1_555 1_555
C10 C9 1_555 1_555
C11 C7 1_555 1_555
C12 C11 1_555 1_555
H8 C12 1_555 1_555
C13 C11 1_555 1_555
H9 C13 1_555 1_555
C14 C13 1_555 1_555
H10 C14 1_555 1_555
C15 C12 1_555 1_555
H11 C15 1_555 1_555
C16 C14 1_555 1_555
C17 C16 1_555 1_555
H12 C17 1_555 1_555
H13 C17 1_555 1_555
H14 C17 1_555 1_555
F1 C10 1_555 1_555
F2 C10 1_555 1_555
F3 C10 1_555 1_555
S2 O3 1_555 1_555
O4 S2 1_555 1_555
N4 S2 1_555 1_555
H15 N4 1_555 1_555
H16 N4 1_555 1_555
N5 N6 1_555 1_555
N6 C26 1_555 1_555
C18 S2 1_555 1_555
C19 C18 1_555 1_555
H17 C19 1_555 1_555
C20 C19 1_555 1_555
H18 C20 1_555 1_555
C21 N5 1_555 1_555
C22 C21 1_555 1_555
H19 C22 1_555 1_555
C23 C18 1_555 1_555
H20 C23 1_555 1_555
C24 N5 1_555 1_555
C25 C24 1_555 1_555
H21 C25 1_555 1_555
C26 C25 1_555 1_555
C27 C26 1_555 1_555
C28 C24 1_555 1_555
C29 C28 1_555 1_555
H22 C29 1_555 1_555
C30 C28 1_555 1_555
H23 C30 1_555 1_555
C31 C30 1_555 1_555
H24 C31 1_555 1_555
C32 C29 1_555 1_555
H25 C32 1_555 1_555
C33 C31 1_555 1_555
C34 C33 1_555 1_555
H26 C34 1_555 1_555
H27 C34 1_555 1_555
H28 C34 1_555 1_555
F4 C27 1_555 1_555
F5 C27 1_555 1_555
F6 C27 1_555 1_555
O5 C35 1_555 1_555
O6 C35 1_555 1_555
N7 H29 1_555 1_555
H30 N7 1_555 1_555
C35 C36 1_555 1_555
C36 N7 1_555 1_555
H31 C36 1_555 1_555
C37 C36 1_555 1_555
H32 C37 1_555 1_555
H33 C37 1_555 1_555
C38 C37 1_555 1_555
H34 C38 1_555 1_555
H35 C38 1_555 1_555
C39 N7 1_555 1_555
H36 C39 1_555 1_555
H37 C39 1_555 1_555
O7 C40 1_555 1_555
O8 C40 1_555 1_555
N8 H38 1_555 1_555
H39 N8 1_555 1_555
C40 C41 1_555 1_555
C41 N8 1_555 1_555
H40 C41 1_555 1_555
C42 C41 1_555 1_555
H41 C42 1_555 1_555
H42 C42 1_555 1_555
C43 C42 1_555 1_555
H43 C43 1_555 1_555
H44 C43 1_555 1_555
C44 N8 1_555 1_555
H45 C44 1_555 1_555
H46 C44 1_555 1_555
O9 C45 1_555 1_555
O10 C45 1_555 1_555
N9 H47 1_555 1_555
H48 N9 1_555 1_555
C45 C46 1_555 1_555
C46 N9 1_555 1_555
H49 C46 1_555 1_555
C47 C46 1_555 1_555
H50 C47 1_555 1_555
H51 C47 1_555 1_555
C48 C47 1_555 1_555
H52 C48 1_555 1_555
H53 C48 1_555 1_555
C49 N9 1_555 1_555
H54 C49 1_555 1_555
H55 C49 1_555 1_555
O11 C50 1_555 1_555
O12 C50 1_555 1_555
N10 H56 1_555 1_555
H57 N10 1_555 1_555
C50 C51 1_555 1_555
C51 N10 1_555 1_555
H58 C51 1_555 1_555
C52 C51 1_555 1_555
H59 C52 1_555 1_555
H60 C52 1_555 1_555
C53 C52 1_555 1_555
H61 C53 1_555 1_555
H62 C53 1_555 1_555
C54 N10 1_555 1_555
H63 C54 1_555 1_555
H64 C54 1_555 1_555
C3 C4 1_555 1_555
C5 C6 1_555 1_555
C15 C16 1_555 1_555
C20 C21 1_555 1_555
C22 C23 1_555 1_555
C32 C33 1_555 1_555
C38 C39 1_555 1_555
C43 C44 1_555 1_555
C48 C49 1_555 1_555
C53 C54 1_555 1_555

#END
