
#######################################################################
#
#                 Cambridge Crystallographic Data Centre
#                                CCDC 
#
#######################################################################
#
# If this CIF has been generated from an entry in the Cambridge 
# Structural Database, then it will include bibliographic, chemical, 
# crystal, experimental, refinement or atomic coordinate data resulting 
# from the CCDC's data processing and validation procedures.
#
#######################################################################

data_BEJPAH
_chemical_name_common            '18-Crown-6 phenylcarbamate clathrate'
_chemical_formula_moiety         'C12 H24 O6,2(C7 H7 N1 O2)'
_chemical_name_systematic        
'1,4,7,10,13,16-Hexaoxacyclo-octadecane phenylcarbamate clathrate'
_symmetry_cell_setting           monoclinic
_symmetry_space_group_name_H-M   'P 21/c'
_symmetry_Int_Tables_number      14
_space_group_name_Hall           '-P 2ybc'
loop_
_symmetry_equiv_pos_site_id
_symmetry_equiv_pos_as_xyz
1 x,y,z
2 -x,1/2+y,1/2-z
3 -x,-y,-z
4 x,1/2-y,1/2+z
_cell_length_a                   10.053(2)
_cell_length_b                   11.893(3)
_cell_length_c                   12.359(3)
_cell_angle_alpha                90
_cell_angle_beta                 105.51(2)
_cell_angle_gamma                90
_cell_volume                     1423.84
_cell_formula_units_Z            2
loop_
_atom_site_label
_atom_site_type_symbol
_atom_site_fract_x
_atom_site_fract_y
_atom_site_fract_z
O1 O -0.10220 0.19220 0.08170
C1 C 0.00050 0.27560 0.11830
C2 C 0.07380 0.29550 0.03100
O2 O 0.15880 0.20220 0.02680
C3 C 0.23680 0.21470 -0.05190
C4 C 0.30960 0.10810 -0.06070
O3 O 0.21280 0.02380 -0.10740
C5 C 0.27850 -0.08000 -0.11850
C6 C -0.17040 0.16600 0.16430
H1 H 0.06600 0.25400 0.17900
H2 H -0.04000 0.34100 0.12700
H3 H 0.00900 0.30200 -0.05000
H4 H 0.12300 0.36000 0.04300
H5 H 0.17300 0.23100 -0.11500
H6 H 0.29600 0.27100 -0.03200
H7 H 0.36400 0.09000 0.01800
H8 H 0.37600 0.11300 -0.10900
H9 H 0.33400 -0.10000 -0.03200
H10 H 0.33600 -0.06900 -0.17000
H11 H -0.10600 0.13900 0.23500
H12 H -0.21000 0.23800 0.18600
C6B C 0.17040 -0.16600 -0.16430
C5B C -0.27850 0.08000 0.11850
O1B O 0.10220 -0.19220 -0.08170
H11B H 0.10600 -0.13900 -0.23500
H12B H 0.21000 -0.23800 -0.18600
O3B O -0.21280 -0.02380 0.10740
H9B H -0.33400 0.10000 0.03200
H10B H -0.33600 0.06900 0.17000
C1B C -0.00050 -0.27560 -0.11830
C4B C -0.30960 -0.10810 0.06070
C2B C -0.07380 -0.29550 -0.03100
H1B H -0.06600 -0.25400 -0.17900
H2B H 0.04000 -0.34100 -0.12700
C3B C -0.23680 -0.21470 0.05190
H7B H -0.36400 -0.09000 -0.01800
H8B H -0.37600 -0.11300 0.10900
O2B O -0.15880 -0.20220 -0.02680
H3B H -0.00900 -0.30200 0.05000
H4B H -0.12300 -0.36000 -0.04300
H5B H -0.17300 -0.23100 0.11500
H6B H -0.29600 -0.27100 0.03200
O4 O 0.83830 0.53930 0.20720
C7 C 0.81740 0.48980 0.28590
N1 N 0.90960 0.43910 0.36780
O5 O 0.68710 0.47520 0.29850
C8 C 0.57960 0.53420 0.22500
C9 C 0.56640 0.64750 0.23860
C10 C 0.45330 0.70210 0.17010
C11 C 0.35680 0.64380 0.09050
C12 C 0.37360 0.53070 0.07730
C13 C 0.48500 0.47470 0.14540
H13 H 0.99900 0.44800 0.36800
H14 H 0.88200 0.41500 0.41500
H15 H 0.63900 0.68400 0.28900
H16 H 0.44600 0.77700 0.17700
H17 H 0.28100 0.69200 0.03800
H18 H 0.31800 0.49200 0.03000
H19 H 0.49900 0.39500 0.13900
loop_
_geom_bond_atom_site_label_1
_geom_bond_atom_site_label_2
_geom_bond_site_symmetry_1
_geom_bond_site_symmetry_2
O1 C1 1_555 1_555
C1 C2 1_555 1_555
C2 O2 1_555 1_555
O2 C3 1_555 1_555
C3 C4 1_555 1_555
C4 O3 1_555 1_555
O3 C5 1_555 1_555
C5 H9 1_555 1_555
C6 O1 1_555 1_555
H1 C1 1_555 1_555
H2 C1 1_555 1_555
H3 C2 1_555 1_555
H4 C2 1_555 1_555
H5 C3 1_555 1_555
H6 C3 1_555 1_555
H7 C4 1_555 1_555
H8 C4 1_555 1_555
H10 C5 1_555 1_555
H11 C6 1_555 1_555
H12 C6 1_555 1_555
O4 C7 1_555 1_555
C7 N1 1_555 1_555
N1 H13 1_555 1_555
O5 C7 1_555 1_555
C8 O5 1_555 1_555
C9 C8 1_555 1_555
C10 C9 1_555 1_555
C11 C10 1_555 1_555
C12 C11 1_555 1_555
C13 C8 1_555 1_555
H14 N1 1_555 1_555
H15 C9 1_555 1_555
H16 C10 1_555 1_555
H17 C11 1_555 1_555
H18 C12 1_555 1_555
H19 C13 1_555 1_555
C6B C5 1_555 1_555
C5B C6 1_555 1_555
O1B C6B 1_555 1_555
H11B C6B 1_555 1_555
H12B C6B 1_555 1_555
O3B C5B 1_555 1_555
H9B C5B 1_555 1_555
H10B C5B 1_555 1_555
C1B O1B 1_555 1_555
C4B O3B 1_555 1_555
C2B C1B 1_555 1_555
H1B C1B 1_555 1_555
H2B C1B 1_555 1_555
C3B C4B 1_555 1_555
H7B C4B 1_555 1_555
H8B C4B 1_555 1_555
O2B C2B 1_555 1_555
H3B C2B 1_555 1_555
H4B C2B 1_555 1_555
H5B C3B 1_555 1_555
H6B C3B 1_555 1_555
C12 C13 1_555 1_555
C3B O2B 1_555 1_555

#END
