
#######################################################################
#
#                 Cambridge Crystallographic Data Centre
#                                CCDC 
#
#######################################################################
#
# If this CIF has been generated from an entry in the Cambridge 
# Structural Database, then it will include bibliographic, chemical, 
# crystal, experimental, refinement or atomic coordinate data resulting 
# from the CCDC's data processing and validation procedures.
#
#######################################################################

data_BEKMEK
_chemical_formula_moiety         'C26 H34 O8'
_chemical_name_systematic        
(4'R,7R)-9-(2',2'-Dimethyl-(1',3')dioxolan-4'-yl)-7-(4''-methoxybenzyloxymethyl)-3,3,8-trimethyl-2,4-dioxaspiro(5.5)undec-8-ene-1,5-dione
_symmetry_cell_setting           monoclinic
_symmetry_space_group_name_H-M   'P 21'
_symmetry_Int_Tables_number      4
_space_group_name_Hall           'P 2yb'
loop_
_symmetry_equiv_pos_site_id
_symmetry_equiv_pos_as_xyz
1 x,y,z
2 -x,1/2+y,-z
_cell_length_a                   9.6272(9)
_cell_length_b                   8.7501(6)
_cell_length_c                   30.305(2)
_cell_angle_alpha                90
_cell_angle_beta                 90.340(10)
_cell_angle_gamma                90
_cell_volume                     2552.82
_exptl_crystal_colour            colorless
_exptl_crystal_description       Plate
_cell_formula_units_Z            4
loop_
_atom_site_label
_atom_site_type_symbol
_atom_site_fract_x
_atom_site_fract_y
_atom_site_fract_z
C1 C 0.5560(3) 0.6194(5) 0.74905(9)
H1 H 0.4729 0.6684 0.7376
H2 H 0.5483 0.5102 0.7440
C2 C 0.6843(3) 0.6823(4) 0.72617(9)
H3 H 0.6728 0.7936 0.7257
C3 C 0.6875(3) 0.6324(4) 0.67774(9)
C4 C 0.5488(3) 0.6582(5) 0.65515(10)
H4 H 0.4827 0.6945 0.6763
H5 H 0.5164 0.5637 0.6427
H6 H 0.5593 0.7327 0.6322
C5 C 0.8013(3) 0.5819(4) 0.65814(10)
C6 C 0.8035(4) 0.5363(5) 0.61001(10)
H10 H 0.7076 0.5307 0.5991
C7 C 0.8769(5) 0.3906(5) 0.59804(13)
H11 H 0.9513 0.3690 0.6188
H12 H 0.8127 0.3052 0.5978
C8 C 0.9386(3) 0.5706(6) 0.68233(11)
H13 H 0.9537 0.4655 0.6914
H14 H 1.0130 0.5988 0.6625
C9 C 0.9436(3) 0.6725(5) 0.72233(10)
H15 H 0.9468 0.7781 0.7127
H16 H 1.0284 0.6517 0.7387
C10 C 0.8191(3) 0.6516(4) 0.75326(10)
C11 C 0.8320(3) 0.7739(4) 0.78831(11)
C12 C 0.8197(3) 0.4928(4) 0.77195(9)
C13 C 1.0726(11) 0.6325(16) 0.5407(4)
H17 H 1.1113 0.5855 0.5150
H18 H 1.1285 0.6073 0.5661
H19 H 1.0710 0.7414 0.5369
C14 C 0.9325(6) 0.5772(7) 0.54720(17)
C15 C 0.8482(12) 0.5993(17) 0.5063(2)
H20 H 0.7563 0.5597 0.5108
H21 H 0.8911 0.5461 0.4823
H22 H 0.8428 0.7063 0.4995
C19 C 0.4475(3) 0.6232(5) 0.81878(9)
H29 H 0.4235 0.5156 0.8175
H30 H 0.3716 0.6813 0.8060
C20 C 0.4702(3) 0.6709(4) 0.86622(9)
C21 C 0.5539(4) 0.7928(5) 0.87659(11)
H31 H 0.6019 0.8426 0.8543
C22 C 0.5678(4) 0.8421(6) 0.91929(12)
H32 H 0.6253 0.9246 0.9258
C23 C 0.4967(4) 0.7696(5) 0.95257(11)
C24 C 0.4143(4) 0.6469(5) 0.94351(10)
H33 H 0.3670 0.5972 0.9660
C25 C 0.4018(3) 0.5963(5) 0.89967(10)
H34 H 0.3469 0.5117 0.8932
C26 C 0.4245(8) 0.7801(11) 1.02741(14)
H35 H 0.4459 0.8322 1.0545
H36 H 0.4359 0.6721 1.0315
H37 H 0.3303 0.8015 1.0190
C27 C 1.0803(4) 0.5809(7) 0.83526(18)
H38 H 1.1222 0.6583 0.8534
H39 H 1.1035 0.5991 0.8049
H40 H 1.1143 0.4823 0.8440
C28 C 0.9240(4) 0.5859(5) 0.84057(11)
C29 C 0.8768(7) 0.5594(8) 0.88593(14)
H41 H 0.9154 0.6362 0.9050
H42 H 0.9069 0.4603 0.8956
H43 H 0.7772 0.5646 0.8868
O1 O 0.9291(5) 0.4169(5) 0.55634(13)
O2 O 0.8765(4) 0.6487(3) 0.58487(9)
O3 O 0.8085(3) 0.9073(3) 0.78162(10)
O4 O 0.8773(3) 0.7361(3) 0.82863(8)
O5 O 0.7811(3) 0.3816(3) 0.75200(8)
O6 O 0.8662(3) 0.4708(3) 0.81334(8)
O7 O 0.57095(19) 0.6499(3) 0.79486(6)
O8 O 0.5141(4) 0.8306(5) 0.99434(8)
C30 C 0.5024(3) 0.0764(5) 0.75145(9)
H44 H 0.5895 0.1198 0.7617
H45 H 0.4925 -0.0241 0.7645
C31 C 0.3818(3) 0.1786(4) 0.76625(9)
H46 H 0.4086 0.2837 0.7591
C32 C 0.3650(3) 0.1727(4) 0.81615(9)
C33 C 0.5016(3) 0.2003(5) 0.84019(11)
H47 H 0.5746 0.2128 0.8191
H48 H 0.5221 0.1146 0.8589
H49 H 0.4944 0.2911 0.8578
C34 C 0.2436(3) 0.1504(4) 0.83577(10)
C35 C 0.2315(4) 0.1282(6) 0.88479(11)
H53 H 0.3194 0.1564 0.8991
C36 C 0.1904(5) -0.0300(6) 0.89900(13)
H54 H 0.1246 -0.0747 0.8784
H55 H 0.2710 -0.0961 0.9013
C37 C 0.1095(3) 0.1357(6) 0.81019(11)
H56 H 0.0360 0.1869 0.8262
H57 H 0.0850 0.0285 0.8077
C38 C 0.1202(3) 0.2037(5) 0.76458(10)
H58 H 0.1259 0.3140 0.7670
H59 H 0.0367 0.1791 0.7480
C39 C 0.2486(3) 0.1443(4) 0.73905(9)
C40 C 0.2284(3) -0.0236(4) 0.73151(10)
C41 C 0.2527(3) 0.2348(4) 0.69647(10)
C45 C 0.0709(14) 0.2191(15) 0.9792(3)
H66 H 0.0184 0.3121 0.9769
H67 H 0.1673 0.2430 0.9836
H68 H 0.0377 0.1602 1.0037
C46 C 0.0540(10) 0.128(2) 0.9374(4)
C47 C -0.0917(8) 0.0960(16) 0.9247(4)
H69 H -0.1423 0.1903 0.9225
H70 H -0.1337 0.0321 0.9466
H71 H -0.0937 0.0447 0.8967
C48 C 0.6005(4) 0.1623(6) 0.68437(11)
H72 H 0.6932 0.1421 0.6957
H73 H 0.5769 0.2674 0.6912
C49 C 0.5973(3) 0.1385(5) 0.63535(10)
C50 C 0.5251(4) 0.2374(5) 0.60848(12)
H74 H 0.4768 0.3184 0.6210
C51 C 0.5227(4) 0.2186(5) 0.56275(12)
H75 H 0.4737 0.2866 0.5449
C52 C 0.5940(3) 0.0980(5) 0.54436(10)
C53 C 0.6649(3) -0.0018(5) 0.57122(11)
H76 H 0.7129 -0.0834 0.5589
C54 C 0.6656(3) 0.0177(5) 0.61639(11)
H77 H 0.7128 -0.0518 0.6342
C55 C 0.5534(6) 0.1873(10) 0.47127(14)
H78 H 0.5634 0.1544 0.4412
H79 H 0.6084 0.2773 0.4761
H80 H 0.4576 0.2099 0.4769
C56 C 0.2607(4) -0.0507(6) 0.61976(13)
H81 H 0.2536 0.0069 0.5929
H82 H 0.2346 -0.1548 0.6143
H83 H 0.3547 -0.0473 0.6305
C57 C 0.1653(3) 0.0173(4) 0.65375(10)
C58 C 0.0161(4) 0.0114(6) 0.63986(17)
H84 H 0.0031 0.0720 0.6138
H85 H -0.0409 0.0509 0.6631
H86 H -0.0097 -0.0925 0.6338
O9 O 0.1291(4) -0.0073(5) 0.94061(11)
O10 O 0.1213(3) 0.2171(4) 0.90307(9)
O11 O 0.2461(3) -0.1200(3) 0.75946(7)
O12 O 0.1808(3) -0.0723(3) 0.69249(7)
O13 O 0.2903(3) 0.3658(3) 0.69479(9)
O14 O 0.2026(3) 0.1735(3) 0.65941(7)
O15 O 0.5046(2) 0.0627(3) 0.70448(6)
O16 O 0.5992(3) 0.0688(5) 0.50023(8)
H7? H 0.5562 0.6328 0.6244
H8? H 0.5225 0.7635 0.6581
H9? H 0.4797 0.5946 0.6686
C16? C 1.151(3) 0.518(4) 0.5764(10)
H23? H 1.1573 0.4665 0.6042
H24? H 1.1849 0.6209 0.5795
H25? H 1.2047 0.4651 0.5548
C17? C 1.0006(18) 0.523(3) 0.5616(6)
C18? C 0.967(5) 0.615(5) 0.5168(9)
H26? H 0.8698 0.6088 0.5103
H27? H 1.0191 0.5716 0.4930
H28? H 0.9932 0.7205 0.5205
H50? H 0.4862 0.1996 0.8715
H51? H 0.5387 0.2977 0.8316
H52? H 0.5664 0.1212 0.8327
C42? C 0.177(4) 0.189(5) 0.9857(7)
H60? H 0.1621 0.2947 0.9926
H61? H 0.2745 0.1721 0.9806
H62? H 0.1473 0.1267 1.0099
C43? C 0.098(3) 0.148(7) 0.9455(13)
C44? C -0.054(3) 0.180(5) 0.9558(10)
H63? H -0.0679 0.2877 0.9588
H64? H -0.0785 0.1295 0.9828
H65? H -0.1114 0.1415 0.9322
loop_
_geom_bond_atom_site_label_1
_geom_bond_atom_site_label_2
_geom_bond_site_symmetry_1
_geom_bond_site_symmetry_2
C1 H1 1_555 1_555
H2 C1 1_555 1_555
C2 C1 1_555 1_555
H3 C2 1_555 1_555
C3 C2 1_555 1_555
C4 C3 1_555 1_555
H4 C4 1_555 1_555
H5 C4 1_555 1_555
H6 C4 1_555 1_555
C5 C3 1_555 1_555
C6 C5 1_555 1_555
H10 C6 1_555 1_555
C7 C6 1_555 1_555
H11 C7 1_555 1_555
H12 C7 1_555 1_555
C8 C5 1_555 1_555
H13 C8 1_555 1_555
H14 C8 1_555 1_555
C9 C8 1_555 1_555
H15 C9 1_555 1_555
H16 C9 1_555 1_555
C10 C2 1_555 1_555
C11 C10 1_555 1_555
C12 C10 1_555 1_555
C13 H17 1_555 1_555
H18 C13 1_555 1_555
H19 C13 1_555 1_555
C14 C13 1_555 1_555
C15 C14 1_555 1_555
H20 C15 1_555 1_555
H21 C15 1_555 1_555
H22 C15 1_555 1_555
C19 H29 1_555 1_555
H30 C19 1_555 1_555
C20 C19 1_555 1_555
C21 C20 1_555 1_555
H31 C21 1_555 1_555
C22 C21 1_555 1_555
H32 C22 1_555 1_555
C23 C22 1_555 1_555
C24 C23 1_555 1_555
H33 C24 1_555 1_555
C25 C20 1_555 1_555
H34 C25 1_555 1_555
C26 H35 1_555 1_555
H36 C26 1_555 1_555
H37 C26 1_555 1_555
C27 H38 1_555 1_555
H39 C27 1_555 1_555
H40 C27 1_555 1_555
C28 C27 1_555 1_555
C29 C28 1_555 1_555
H41 C29 1_555 1_555
H42 C29 1_555 1_555
H43 C29 1_555 1_555
O1 C7 1_555 1_555
O2 C6 1_555 1_555
O3 C11 1_555 1_555
O4 C11 1_555 1_555
O5 C12 1_555 1_555
O6 C12 1_555 1_555
O7 C1 1_555 1_555
O8 C23 1_555 1_555
C30 H44 1_555 1_555
H45 C30 1_555 1_555
C31 C30 1_555 1_555
H46 C31 1_555 1_555
C32 C31 1_555 1_555
C33 C32 1_555 1_555
H47 C33 1_555 1_555
H48 C33 1_555 1_555
H49 C33 1_555 1_555
C34 C32 1_555 1_555
C35 C34 1_555 1_555
H53 C35 1_555 1_555
C36 C35 1_555 1_555
H54 C36 1_555 1_555
H55 C36 1_555 1_555
C37 C34 1_555 1_555
H56 C37 1_555 1_555
H57 C37 1_555 1_555
C38 C37 1_555 1_555
H58 C38 1_555 1_555
H59 C38 1_555 1_555
C39 C31 1_555 1_555
C40 C39 1_555 1_555
C41 C39 1_555 1_555
C45 H66 1_555 1_555
H67 C45 1_555 1_555
H68 C45 1_555 1_555
C46 C45 1_555 1_555
C47 C46 1_555 1_555
H69 C47 1_555 1_555
H70 C47 1_555 1_555
H71 C47 1_555 1_555
C48 H72 1_555 1_555
H73 C48 1_555 1_555
C49 C48 1_555 1_555
C50 C49 1_555 1_555
H74 C50 1_555 1_555
C51 C50 1_555 1_555
H75 C51 1_555 1_555
C52 C51 1_555 1_555
C53 C52 1_555 1_555
H76 C53 1_555 1_555
C54 C49 1_555 1_555
H77 C54 1_555 1_555
C55 H78 1_555 1_555
H79 C55 1_555 1_555
H80 C55 1_555 1_555
C56 H81 1_555 1_555
H82 C56 1_555 1_555
H83 C56 1_555 1_555
C57 C56 1_555 1_555
C58 C57 1_555 1_555
H84 C58 1_555 1_555
H85 C58 1_555 1_555
H86 C58 1_555 1_555
O9 C36 1_555 1_555
O10 C35 1_555 1_555
O11 C40 1_555 1_555
O12 C40 1_555 1_555
O13 C41 1_555 1_555
O14 C41 1_555 1_555
O15 C30 1_555 1_555
O16 C52 1_555 1_555
C9 C10 1_555 1_555
C14 O1 1_555 1_555
C14 O2 1_555 1_555
C19 O7 1_555 1_555
C24 C25 1_555 1_555
C26 O8 1_555 1_555
C28 O4 1_555 1_555
C28 O6 1_555 1_555
C38 C39 1_555 1_555
C46 O9 1_555 1_555
C46 O10 1_555 1_555
C48 O15 1_555 1_555
C53 C54 1_555 1_555
C55 O16 1_555 1_555
C57 O12 1_555 1_555
C57 O14 1_555 1_555

#END
