
#######################################################################
#
#                 Cambridge Crystallographic Data Centre
#                                CCDC 
#
#######################################################################
#
# If this CIF has been generated from an entry in the Cambridge 
# Structural Database, then it will include bibliographic, chemical, 
# crystal, experimental, refinement or atomic coordinate data resulting 
# from the CCDC's data processing and validation procedures.
#
#######################################################################

data_BEKMOU
_chemical_formula_moiety         'C15 H20 O5'
_chemical_name_systematic        
(3aS,7aS,4'R)-6-(2',2'-dimethyl-(1',3')dioxolan-4'-yl)-7-methyl-3-oxo-1,4,5,7a-tetrahydroisobenzofuran-3a-carbaldehyde
_symmetry_cell_setting           orthorhombic
_symmetry_space_group_name_H-M   'P 21 21 21'
_symmetry_Int_Tables_number      19
_space_group_name_Hall           'P 2ac 2ab'
loop_
_symmetry_equiv_pos_site_id
_symmetry_equiv_pos_as_xyz
1 x,y,z
2 1/2-x,-y,1/2+z
3 1/2+x,1/2-y,-z
4 -x,1/2+y,1/2-z
_cell_length_a                   9.3780(11)
_cell_length_b                   10.9680(12)
_cell_length_c                   13.9660(10)
_cell_angle_alpha                90
_cell_angle_beta                 90
_cell_angle_gamma                90
_cell_volume                     1436.51
_exptl_crystal_colour            colorless
_exptl_crystal_description       Block
_chemical_melting_point          118-121deg.C
_cell_formula_units_Z            4
loop_
_atom_site_label
_atom_site_type_symbol
_atom_site_fract_x
_atom_site_fract_y
_atom_site_fract_z
O1 O 1.64068(15) 0.33267(17) 0.88966(13)
O2 O 1.48680(16) 0.41073(16) 0.99385(12)
O3 O 1.3966(2) 0.47551(18) 0.70720(13)
O4 O 0.97814(13) 0.35805(12) 0.65241(9)
O5 O 0.8186(2) 0.20501(15) 0.64766(12)
C1 C 1.5200(2) 0.3608(2) 0.90885(16)
C2 C 1.38648(17) 0.34964(16) 0.84832(13)
C3 C 1.3778(2) 0.4691(2) 0.79139(16)
H1 H 1.3566 0.5404 0.8245
C4 C 1.3690(2) 0.2414(2) 0.78309(16)
H2 H 1.3845 0.1665 0.8185
H3 H 1.4380 0.2452 0.7315
C5 C 1.2164(2) 0.2438(3) 0.74212(19)
H4 H 1.2207 0.2790 0.6785
H5 H 1.1844 0.1602 0.7351
C6 C 1.10375(19) 0.31258(18) 0.79864(13)
C7 C 1.12637(18) 0.36201(17) 0.88432(13)
C8 C 1.0182(2) 0.4274(2) 0.94555(16)
H6 H 0.9240 0.4016 0.9279
H7 H 1.0269 0.5138 0.9360
H8 H 1.0348 0.4085 1.0117
C9 C 1.27302(19) 0.34635(19) 0.92658(13)
H9 H 1.2763 0.2649 0.9553
C10 C 1.3329(2) 0.4349(2) 1.00038(16)
H10 H 1.3109 0.5188 0.9838
H11 H 1.2967 0.4176 1.0640
C11 C 0.9604(2) 0.32100(18) 0.74985(14)
H12 H 0.9005 0.3804 0.7835
C12 C 0.8792(2) 0.2007(2) 0.73915(15)
H13 H 0.9436 0.1319 0.7448
H14 H 0.8058 0.1936 0.7878
C13 C 0.8560(2) 0.31760(19) 0.60329(15)
C14 C 0.8946(4) 0.2936(3) 0.50096(17)
H15 H 0.9774 0.2423 0.4985
H16 H 0.9146 0.3695 0.4694
H17 H 0.8165 0.2537 0.4694
C15 C 0.7354(3) 0.4095(3) 0.6136(2)
H18 H 0.7640 0.4859 0.5861
H19 H 0.7139 0.4208 0.6802
H20 H 0.6523 0.3798 0.5809
loop_
_geom_bond_atom_site_label_1
_geom_bond_atom_site_label_2
_geom_bond_site_symmetry_1
_geom_bond_site_symmetry_2
O1 C1 1_555 1_555
O2 C1 1_555 1_555
O3 C3 1_555 1_555
O4 C11 1_555 1_555
O5 C12 1_555 1_555
C1 C2 1_555 1_555
C2 C3 1_555 1_555
C3 H1 1_555 1_555
C4 C2 1_555 1_555
H2 C4 1_555 1_555
H3 C4 1_555 1_555
C5 C4 1_555 1_555
H4 C5 1_555 1_555
H5 C5 1_555 1_555
C6 C5 1_555 1_555
C7 C6 1_555 1_555
C8 C7 1_555 1_555
H6 C8 1_555 1_555
H7 C8 1_555 1_555
H8 C8 1_555 1_555
C9 C2 1_555 1_555
H9 C9 1_555 1_555
C10 O2 1_555 1_555
H10 C10 1_555 1_555
H11 C10 1_555 1_555
C11 C6 1_555 1_555
H12 C11 1_555 1_555
C12 C11 1_555 1_555
H13 C12 1_555 1_555
H14 C12 1_555 1_555
C13 O4 1_555 1_555
C14 C13 1_555 1_555
H15 C14 1_555 1_555
H16 C14 1_555 1_555
H17 C14 1_555 1_555
C15 C13 1_555 1_555
H18 C15 1_555 1_555
H19 C15 1_555 1_555
H20 C15 1_555 1_555
O5 C13 1_555 1_555
C7 C9 1_555 1_555
C9 C10 1_555 1_555

#END
