
#######################################################################
#
#                 Cambridge Crystallographic Data Centre
#                                CCDC 
#
#######################################################################
#
# If this CIF has been generated from an entry in the Cambridge 
# Structural Database, then it will include bibliographic, chemical, 
# crystal, experimental, refinement or atomic coordinate data resulting 
# from the CCDC's data processing and validation procedures.
#
#######################################################################

data_BEKXIB
_chemical_formula_moiety         
'C52 H56 N2 O14,C12 H14 N2 2+,2(F6 P1 1-),2(C2 H3 N1)'
_chemical_name_systematic        
"63,64-dihydroxy-33,36,39,42,45,48,51,54,57,60-decaoxa-5,26-diazaoctacyclo[28.17.13.1^3,46^.1^7,15^.1^16,24^.1^28,32^.0^9,14^.0^17,22^]tetrahexaconta-1,3(61),7,9,11,13,15(64),16(63),17,19,21,23,28(62),29,31,46-hexadecaene-4,27-dione N,N'-dimethyl-4,4'-bipyridinium bis(hexafluorophosphate) acetonitrile unknown solvate"
_symmetry_cell_setting           orthorhombic
_symmetry_space_group_name_H-M   'P 21 21 21'
_symmetry_Int_Tables_number      19
_space_group_name_Hall           'P 2ac 2ab'
loop_
_symmetry_equiv_pos_site_id
_symmetry_equiv_pos_as_xyz
1 x,y,z
2 1/2-x,-y,1/2+z
3 -x,1/2+y,1/2-z
4 1/2+x,1/2-y,-z
_cell_length_a                   10.9020(4)
_cell_length_b                   17.4447(6)
_cell_length_c                   38.6793(14)
_cell_angle_alpha                90
_cell_angle_beta                 90
_cell_angle_gamma                90
_cell_volume                     7356.11
_cell_formula_units_Z            4
loop_
_atom_site_label
_atom_site_type_symbol
_atom_site_fract_x
_atom_site_fract_y
_atom_site_fract_z
C1 C 0.1550(6) 0.6559(4) 0.41119(16)
C2 C 0.1445(6) 0.7222(4) 0.43098(16)
H1 H 0.1506 0.7192 0.4549
C3 C 0.1251(5) 0.7918(4) 0.41548(16)
C4 C 0.1110(5) 0.7976(3) 0.37903(16)
H2 H 0.0947 0.8445 0.3685
C5 C 0.1223(6) 0.7309(4) 0.35953(16)
C6 C 0.1453(6) 0.6606(4) 0.37549(16)
H3 H 0.1541 0.6166 0.3621
C7 C 0.0703(6) 0.7966(4) 0.30761(17)
H4 H 0.1330 0.8361 0.3081
H5 H -0.0017 0.8159 0.3195
C8 C 0.0384(7) 0.7778(5) 0.27088(18)
H6 H 0.0001 0.7276 0.2699
H7 H -0.0197 0.8152 0.2621
C9 C 0.1196(7) 0.7534(5) 0.21563(17)
H8 H 0.0470 0.7792 0.2070
H9 H 0.1042 0.6986 0.2154
C10 C 0.2285(7) 0.7719(4) 0.19283(17)
H10 H 0.2097 0.7590 0.1690
H11 H 0.2461 0.8264 0.1940
C11 C 0.4387(8) 0.7473(5) 0.18390(18)
H12 H 0.4606 0.8008 0.1868
H13 H 0.4223 0.7384 0.1596
C12 C 0.5423(8) 0.6971(5) 0.19576(18)
H14 H 0.5176 0.6437 0.1946
H15 H 0.6125 0.7040 0.1806
C13 C 0.6887(8) 0.6782(5) 0.2376(2)
H16 H 0.7550 0.7022 0.2248
H17 H 0.6846 0.6247 0.2309
C14 C 0.7133(7) 0.6839(5) 0.2752(2)
H18 H 0.6462 0.6609 0.2881
H19 H 0.7879 0.6563 0.2809
C15 C 0.7445(6) 0.7778(4) 0.31911(18)
C16 C 0.7631(6) 0.7206(4) 0.34395(19)
H20 H 0.7629 0.6693 0.3375
C17 C 0.7819(6) 0.7408(4) 0.3782(2)
C18 C 0.7801(6) 0.8170(4) 0.38839(17)
H21 H 0.7897 0.8302 0.4115
C19 C 0.7635(5) 0.8739(3) 0.36298(17)
C20 C 0.7460(5) 0.8555(4) 0.32821(17)
H22 H 0.7356 0.8935 0.3116
C21 C 0.8121(7) 0.6954(4) 0.43587(19)
H23 H 0.7356 0.7152 0.4451
H24 H 0.8761 0.7330 0.4399
C22 C 0.8446(7) 0.6198(5) 0.4531(2)
H25 H 0.9201 0.5997 0.4434
H26 H 0.8567 0.6276 0.4777
C23 C 0.7797(8) 0.4912(4) 0.4546(2)
H27 H 0.7993 0.4861 0.4789
H28 H 0.8524 0.4781 0.4414
C24 C 0.6808(9) 0.4381(5) 0.4458(2)
H29 H 0.6864 0.4006 0.4288
C25 C 0.4854(12) 0.3936(7) 0.4731(4)
H30 H 0.4531 0.4013 0.4962
H31 H 0.5220 0.3430 0.4722
C26 C 0.3823(12) 0.3988(7) 0.4471(4)
H32 H 0.4150 0.4056 0.4240
H33 H 0.3335 0.3523 0.4475
C27 C 0.2020(9) 0.4571(5) 0.4358(2)
H34 H 0.1300 0.4561 0.4505
H35 H 0.2054 0.4089 0.4233
C28 C 0.1901(9) 0.5205(4) 0.4107(2)
H36 H 0.2623 0.5229 0.3961
H37 H 0.1190 0.5123 0.3961
C29 C 0.1269(5) 0.8626(4) 0.43712(15)
C30 C 0.0418(5) 0.9884(3) 0.45154(15)
H38 H 0.0766 0.9786 0.4742
H39 H -0.0432 1.0031 0.4547
C31 C 0.1102(5) 1.0539(3) 0.43487(14)
C32 C 0.0477(5) 1.1099(3) 0.41780(15)
H40 H -0.0370 1.1052 0.4159
C33 C 0.1044(5) 1.1745(4) 0.40279(15)
C34 C 0.0373(7) 1.2324(4) 0.38570(17)
H41 H -0.0477 1.2292 0.3845
C35 C 0.0965(8) 1.2930(4) 0.3709(2)
H42 H 0.0516 1.3314 0.3601
C36 C 0.2240(8) 1.2978(4) 0.37209(18)
H43 H 0.2631 1.3383 0.3610
C37 C 0.2931(6) 1.2441(3) 0.38921(14)
H44 H 0.3778 1.2499 0.3906
C38 C 0.2361(5) 1.1799(3) 0.40471(13)
C39 C 0.3019(5) 1.1205(3) 0.42185(13)
C40 C 0.2411(5) 1.0589(3) 0.43628(13)
C41 C 0.4954(5) 1.1572(3) 0.45352(14)
C42 C 0.4306(5) 1.1752(3) 0.48436(14)
H45 H 0.3463 1.1672 0.4855
C43 C 0.4910(6) 1.2043(4) 0.51240(16)
H46 H 0.4470 1.2156 0.5324
C44 C 0.6173(6) 1.2175(4) 0.51180(18)
H47 H 0.6563 1.2379 0.5311
C45 C 0.6841(6) 1.2002(4) 0.48252(17)
H48 H 0.7682 1.2090 0.4822
C46 C 0.6252(6) 1.1692(3) 0.45287(15)
C47 C 0.6906(5) 1.1476(3) 0.42324(16)
H49 H 0.7745 1.1571 0.4225
C48 C 0.6365(5) 1.1134(3) 0.39560(14)
C49 C 0.5072(5) 1.1035(3) 0.39579(14)
C50 C 0.4368(5) 1.1255(3) 0.42387(14)
C51 C 0.7124(6) 1.0892(3) 0.36414(15)
H50 H 0.6836 1.1172 0.3441
H51 H 0.7973 1.1033 0.3680
C52 C 0.7664(5) 0.9556(3) 0.37568(15)
N1 N 0.7061(5) 1.0071(3) 0.35683(13)
H52 H 0.6620 0.9915 0.3398
N2 N 0.0469(4) 0.9179(3) 0.43104(13)
H53 H -0.0043 0.9123 0.4143
O1 O 0.8229(4) 0.9725(2) 0.40205(12)
O2 O 0.8003(5) 0.6801(3) 0.39954(14)
O3 O 0.7474(4) 0.5668(3) 0.44764(14)
O4 O 0.5774(6) 0.4506(3) 0.4659(2)
O5 O 0.3086(6) 0.4640(3) 0.45685(15)
O6 O 0.1769(5) 0.5899(3) 0.42939(11)
O7 O 0.7260(5) 0.7625(3) 0.28478(13)
O8 O 0.5747(5) 0.7156(3) 0.22943(13)
O9 O 0.3314(5) 0.7299(3) 0.20399(12)
O10 O 0.1452(4) 0.7782(3) 0.25009(12)
O11 O 0.1141(4) 0.7291(3) 0.32450(11)
O12 O 0.2045(4) 0.8685(3) 0.46103(11)
O13 O 0.3103(4) 1.0041(3) 0.45182(12)
H54 H 0.2690 0.9653 0.4545
O14 O 0.4567(4) 1.0713(2) 0.36705(10)
H55 H 0.3823 1.0786 0.3671
C55 C 0.5321(7) 0.1371(4) 0.01860(17)
H60 H 0.5543 0.0845 0.0222
H61 H 0.5883 0.1601 0.0026
H62 H 0.4504 0.1397 0.0094
C56 C 0.5747(6) 0.2528(4) 0.05225(16)
H63 H 0.5960 0.2772 0.0317
C57 C 0.5815(6) 0.2919(4) 0.08287(15)
H64 H 0.6065 0.3429 0.0829
C58 C 0.5512(5) 0.2563(4) 0.11386(15)
C59 C 0.5092(6) 0.1806(4) 0.11195(17)
H65 H 0.4853 0.1552 0.1320
C60 C 0.5030(7) 0.1439(4) 0.08079(17)
H66 H 0.4745 0.0937 0.0800
C61 C 0.6010(7) 0.4049(4) 0.24453(17)
H67 H 0.5316 0.3923 0.2587
H68 H 0.6047 0.4594 0.2413
H69 H 0.6748 0.3876 0.2556
C62 C 0.5769(6) 0.4084(4) 0.18185(16)
H70 H 0.5778 0.4616 0.1835
C63 C 0.5638(6) 0.3761(3) 0.15012(15)
H71 H 0.5551 0.4066 0.1305
C64 C 0.5634(5) 0.2951(3) 0.14737(15)
C65 C 0.5758(6) 0.2529(4) 0.17810(16)
H72 H 0.5750 0.1997 0.1773
C66 C 0.5892(6) 0.2899(4) 0.20967(17)
H73 H 0.5985 0.2616 0.2299
N3 N 0.5886(5) 0.3670(3) 0.21076(13)
N4 N 0.5371(5) 0.1784(3) 0.05157(13)
C67 C 0.7542(11) 0.0953(6) 0.2368(3)
H74 H 0.7547 0.1481 0.2437
H75 H 0.7174 0.0908 0.2143
H76 H 0.8368 0.0764 0.2360
C68 C 0.6826(8) 0.0499(5) 0.26206(19)
N5 N 0.6275(7) 0.0177(4) 0.28175(16)
C69 C 0.3567(7) 0.3961(5) 0.02241(18)
C70 C 0.3651(9) 0.4775(5) 0.0287(2)
H77 H 0.3302 0.4892 0.0508
H78 H 0.3210 0.5046 0.0110
H79 H 0.4497 0.4929 0.0283
N6 N 0.3492(9) 0.3315(4) 0.01812(18)
F1 F 0.9196(5) 0.5874(4) 0.21663(15)
F2 F 0.8023(5) 0.5793(4) 0.16887(15)
F3 F 1.0063(5) 0.5838(4) 0.16407(15)
F4 F 0.9068(9) 0.4738(4) 0.15286(17)
F5 F 1.0206(6) 0.4804(5) 0.2001(2)
F6 F 0.8187(10) 0.4797(6) 0.2056(3)
P1 P 0.9126(2) 0.53086(13) 0.18442(6)
F13 F 0.6183(7) 1.0486(5) 0.1583(2)
F14 F 0.4803(12) 1.0593(5) 0.1853(3)
F15 F 0.5773(11) 0.9450(6) 0.1904(3)
F16 F 0.5434(14) 0.9445(10) 0.1369(3)
F17 F 0.4116(12) 1.0278(5) 0.1366(3)
F18 F 0.3910(9) 0.9457(5) 0.1796(2)
P3 P 0.4969(4) 0.99044(13) 0.16526(7)
C53? C 0.3841(18) 0.4028(10) 0.4664(6)
H56? H 0.3368 0.3562 0.4634
H57? H 0.4003 0.4078 0.4909
C54? C 0.5024(15) 0.3909(8) 0.4493(4)
H58? H 0.4965 0.3988 0.4245
H59? H 0.5346 0.3400 0.4538
F7? F 0.832(8) 0.494(5) 0.213(2)
P2? P 0.9768(11) 0.5252(6) 0.2078(3)
F8? F 0.955(3) 0.5799(16) 0.2407(8)
F9? F 1.033(3) 0.4671(16) 0.2291(7)
F10? F 0.925(3) 0.5917(16) 0.1833(7)
F11? F 0.996(2) 0.4741(15) 0.1734(8)
F12? F 1.106(3) 0.561(2) 0.2061(8)
loop_
_geom_bond_atom_site_label_1
_geom_bond_atom_site_label_2
_geom_bond_site_symmetry_1
_geom_bond_site_symmetry_2
C1 C2 1_555 1_555
C2 H1 1_555 1_555
C3 C2 1_555 1_555
C4 C3 1_555 1_555
H2 C4 1_555 1_555
C5 C4 1_555 1_555
C6 C1 1_555 1_555
H3 C6 1_555 1_555
C7 H4 1_555 1_555
H5 C7 1_555 1_555
C8 C7 1_555 1_555
H6 C8 1_555 1_555
H7 C8 1_555 1_555
C9 H8 1_555 1_555
H9 C9 1_555 1_555
C10 C9 1_555 1_555
H10 C10 1_555 1_555
H11 C10 1_555 1_555
C11 H12 1_555 1_555
H13 C11 1_555 1_555
C12 C11 1_555 1_555
H14 C12 1_555 1_555
H15 C12 1_555 1_555
C13 H16 1_555 1_555
H17 C13 1_555 1_555
C14 C13 1_555 1_555
H18 C14 1_555 1_555
H19 C14 1_555 1_555
C15 C16 1_555 1_555
C16 H20 1_555 1_555
C17 C16 1_555 1_555
C18 C17 1_555 1_555
H21 C18 1_555 1_555
C19 C18 1_555 1_555
C20 C15 1_555 1_555
H22 C20 1_555 1_555
C21 H23 1_555 1_555
H24 C21 1_555 1_555
C22 C21 1_555 1_555
H25 C22 1_555 1_555
H26 C22 1_555 1_555
C23 H27 1_555 1_555
H28 C23 1_555 1_555
C24 C23 1_555 1_555
H29 C24 1_555 1_555
C25 H30 1_555 1_555
H31 C25 1_555 1_555
C26 C25 1_555 1_555
H32 C26 1_555 1_555
H33 C26 1_555 1_555
C27 H34 1_555 1_555
H35 C27 1_555 1_555
C28 C27 1_555 1_555
H36 C28 1_555 1_555
H37 C28 1_555 1_555
C29 C3 1_555 1_555
C30 H38 1_555 1_555
H39 C30 1_555 1_555
C31 C30 1_555 1_555
C32 C31 1_555 1_555
H40 C32 1_555 1_555
C33 C32 1_555 1_555
C34 C33 1_555 1_555
H41 C34 1_555 1_555
C35 C34 1_555 1_555
H42 C35 1_555 1_555
C36 C35 1_555 1_555
H43 C36 1_555 1_555
C37 C36 1_555 1_555
H44 C37 1_555 1_555
C38 C33 1_555 1_555
C39 C38 1_555 1_555
C40 C31 1_555 1_555
C41 C42 1_555 1_555
C42 H45 1_555 1_555
C43 C42 1_555 1_555
H46 C43 1_555 1_555
C44 C43 1_555 1_555
H47 C44 1_555 1_555
C45 C44 1_555 1_555
H48 C45 1_555 1_555
C46 C41 1_555 1_555
C47 C46 1_555 1_555
H49 C47 1_555 1_555
C48 C47 1_555 1_555
C49 C48 1_555 1_555
C50 C39 1_555 1_555
C51 C48 1_555 1_555
H50 C51 1_555 1_555
H51 C51 1_555 1_555
C52 C19 1_555 1_555
N1 C51 1_555 1_555
H52 N1 1_555 1_555
N2 C29 1_555 1_555
H53 N2 1_555 1_555
O1 C52 1_555 1_555
O2 C17 1_555 1_555
O3 C22 1_555 1_555
O4 C24 1_555 1_555
O5 C26 1_555 1_555
O6 C1 1_555 1_555
O7 C14 1_555 1_555
O8 C12 1_555 1_555
O9 C10 1_555 1_555
O10 C8 1_555 1_555
O11 C5 1_555 1_555
O12 C29 1_555 1_555
O13 C40 1_555 1_555
H54 O13 1_555 1_555
O14 C49 1_555 1_555
H55 O14 1_555 1_555
C55 H60 1_555 1_555
H61 C55 1_555 1_555
H62 C55 1_555 1_555
C56 H63 1_555 1_555
C57 C56 1_555 1_555
H64 C57 1_555 1_555
C58 C57 1_555 1_555
C59 C58 1_555 1_555
H65 C59 1_555 1_555
C60 C59 1_555 1_555
H66 C60 1_555 1_555
C61 H67 1_555 1_555
H68 C61 1_555 1_555
H69 C61 1_555 1_555
C62 H70 1_555 1_555
C63 C62 1_555 1_555
H71 C63 1_555 1_555
C64 C58 1_555 1_555
C65 C64 1_555 1_555
H72 C65 1_555 1_555
C66 C65 1_555 1_555
H73 C66 1_555 1_555
N3 C61 1_555 1_555
N4 C55 1_555 1_555
C67 H74 1_555 1_555
H75 C67 1_555 1_555
H76 C67 1_555 1_555
C68 C67 1_555 1_555
N5 C68 1_555 1_555
C69 C70 1_555 1_555
C70 H77 1_555 1_555
H78 C70 1_555 1_555
H79 C70 1_555 1_555
N6 C69 1_555 1_555
F1 P1 1_555 1_555
F2 P1 1_555 1_555
F3 P1 1_555 1_555
F4 P1 1_555 1_555
F5 P1 1_555 1_555
F6 P1 1_555 1_555
F13 P3 1_555 1_555
F14 P3 1_555 1_555
F15 P3 1_555 1_555
F16 P3 1_555 1_555
F17 P3 1_555 1_555
F18 P3 1_555 1_555
C5 C6 1_555 1_555
C7 O11 1_555 1_555
C9 O10 1_555 1_555
C11 O9 1_555 1_555
C13 O8 1_555 1_555
C15 O7 1_555 1_555
C19 C20 1_555 1_555
C21 O2 1_555 1_555
C23 O3 1_555 1_555
C25 O4 1_555 1_555
C27 O5 1_555 1_555
C28 O6 1_555 1_555
C30 N2 1_555 1_555
C37 C38 1_555 1_555
C39 C40 1_555 1_555
C41 C50 1_555 1_555
C45 C46 1_555 1_555
C49 C50 1_555 1_555
C52 N1 1_555 1_555
C56 N4 1_555 1_555
C60 N4 1_555 1_555
C62 N3 1_555 1_555
C63 C64 1_555 1_555
C66 N3 1_555 1_555

#END
