
#######################################################################
#
#                 Cambridge Crystallographic Data Centre
#                                CCDC 
#
#######################################################################
#
# If this CIF has been generated from an entry in the Cambridge 
# Structural Database, then it will include bibliographic, chemical, 
# crystal, experimental, refinement or atomic coordinate data resulting 
# from the CCDC's data processing and validation procedures.
#
#######################################################################

data_BELDUU
_chemical_formula_moiety         'C23 H17 I1 O3'
_chemical_name_systematic        
'ethyl 3-[1-(2-iodophenyl)naphtho[2,1-b]furan-2-yl]prop-2-enoate'
_symmetry_cell_setting           monoclinic
_symmetry_space_group_name_H-M   'P 21'
_symmetry_Int_Tables_number      4
_space_group_name_Hall           'P 2yb'
loop_
_symmetry_equiv_pos_site_id
_symmetry_equiv_pos_as_xyz
1 x,y,z
2 -x,1/2+y,-z
_cell_length_a                   7.904(3)
_cell_length_b                   24.357(12)
_cell_length_c                   11.224(5)
_cell_angle_alpha                90
_cell_angle_beta                 110.973(9)
_cell_angle_gamma                90
_cell_volume                     2017.66
_cell_formula_units_Z            4
loop_
_atom_site_label
_atom_site_type_symbol
_atom_site_fract_x
_atom_site_fract_y
_atom_site_fract_z
I1 I 1.20642(15) 0.57669(7) 0.41610(10)
O1 O 0.5733(11) 0.5060(4) 0.2960(8)
O2 O 0.6385(14) 0.3117(5) 0.4320(11)
C1 C 0.6980(18) 0.4046(6) 0.4145(12)
H1 H 0.5928 0.4051 0.3424
C2 C 0.7864(18) 0.4502(7) 0.4545(12)
H2 H 0.8957 0.4476 0.5229
O3 O 0.9030(15) 0.3451(5) 0.5671(11)
C3 C 1.2587(17) 0.5874(6) 0.6933(12)
H3 H 1.3772 0.5948 0.6999
C4 C 0.7307(17) 0.5044(7) 0.4027(12)
C5 C 1.1273(15) 0.5759(7) 0.5761(10)
C6 C 0.9480(16) 0.5678(7) 0.5623(11)
C7 C 0.7969(16) 0.5560(6) 0.4373(12)
C8 C 0.6788(17) 0.5938(5) 0.3489(12)
C9 C 0.5144(19) 0.6733(7) 0.2278(13)
C10 C 1.2113(19) 0.5879(7) 0.8010(13)
H4 H 1.2985 0.5943 0.8811
C11 C 0.6704(18) 0.6509(7) 0.3281(13)
C12 C 0.7611(19) 0.3531(7) 0.4806(14)
C13 C 0.5459(17) 0.5595(6) 0.2629(11)
C14 C 0.9040(18) 0.5706(10) 0.6730(15)
H5 H 0.7842 0.5667 0.6671
C15 C 0.3799(19) 0.6350(8) 0.1525(13)
H6 H 0.2776 0.6493 0.0896
C16 C 0.3907(16) 0.5816(8) 0.1657(11)
H7 H 0.2999 0.5589 0.1133
C17 C 1.035(2) 0.5788(9) 0.7879(13)
H8 H 1.0046 0.5782 0.8605
C18 C 0.503(2) 0.7299(8) 0.2100(15)
H9 H 0.3984 0.7444 0.1496
C19 C 0.633(2) 0.7637(8) 0.2749(19)
H10 H 0.6260 0.8008 0.2540
C20 C 0.804(2) 0.6892(7) 0.4014(14)
H11 H 0.9064 0.6763 0.4664
C21 C 0.530(3) 0.2223(9) 0.422(2)
H12 H 0.4198 0.2358 0.4286
H13 H 0.5551 0.1862 0.4588
H14 H 0.5178 0.2206 0.3339
C22 C 0.786(3) 0.7425(9) 0.3792(19)
H15 H 0.8726 0.7666 0.4310
C23 C 0.683(3) 0.2601(8) 0.492(2)
H16 H 0.6964 0.2628 0.5814
H17 H 0.7964 0.2468 0.4875
I2 I 0.64689(17) 0.42582(11) -0.25713(14)
O4 O 0.9686(11) 0.4923(4) 0.1518(9)
O5 O 0.8803(15) 0.6890(5) 0.0456(12)
O6 O 0.6149(15) 0.6579(5) -0.0855(13)
C24 C 0.7920(15) 0.4983(6) 0.0661(12)
C25 C 0.5143(14) 0.4376(5) -0.0345(12)
C26 C 0.7359(17) 0.5501(6) 0.0168(13)
H18 H 0.6199 0.5526 -0.0444
C27 C 0.9905(16) 0.4395(6) 0.1919(11)
C28 C 1.1506(17) 0.4193(7) 0.2786(14)
H19 H 1.2510 0.4414 0.3175
C29 C 0.1520(15) 0.4207(8) -0.1862(13)
H20 H 0.0307 0.4160 -0.2367
C30 C 0.3829(17) 0.4388(7) 0.0196(14)
H21 H 0.4138 0.4469 0.1057
C31 C 0.2816(16) 0.4208(7) -0.2403(11)
H22 H 0.2490 0.4154 -0.3277
C32 C 0.4611(15) 0.4287(7) -0.1651(12)
C33 C 0.8359(14) 0.4093(6) 0.1313(12)
C34 C 0.7059(16) 0.4477(6) 0.0494(12)
C35 C 0.7609(18) 0.6496(6) -0.0050(14)
C36 C 0.9995(19) 0.3296(6) 0.2491(13)
C37 C 1.1506(18) 0.3655(8) 0.3024(14)
H23 H 1.2576 0.3503 0.3582
C38 C 0.8343(15) 0.3521(6) 0.1572(11)
C39 C 0.828(2) 0.5965(6) 0.0471(14)
H24 H 0.9460 0.5947 0.1064
C40 C 0.6888(18) 0.3166(6) 0.1062(13)
H25 H 0.5799 0.3304 0.0499
C41 C 0.858(3) 0.2386(8) 0.2236(17)
H26 H 0.8657 0.2018 0.2466
C42 C 0.2016(19) 0.4277(9) -0.0566(15)
H27 H 0.1145 0.4250 -0.0189
C43 C 0.701(2) 0.2612(8) 0.1365(16)
H28 H 0.6011 0.2386 0.0977
C44 C 0.827(3) 0.7459(8) 0.004(2)
H29 H 0.7975 0.7490 -0.0876
H30 H 0.7212 0.7563 0.0231
C45 C 0.980(3) 0.7822(10) 0.072(3)
H31 H 1.0079 0.7790 0.1618
H32 H 0.9478 0.8195 0.0456
H33 H 1.0838 0.7719 0.0514
C46 C 1.005(2) 0.2751(10) 0.2752(17)
H34 H 1.1140 0.2607 0.3307
loop_
_geom_bond_atom_site_label_1
_geom_bond_atom_site_label_2
_geom_bond_site_symmetry_1
_geom_bond_site_symmetry_2
I1 C5 1_555 1_555
O1 C4 1_555 1_555
O2 C12 1_555 1_555
C1 H1 1_555 1_555
C2 C1 1_555 1_555
H2 C2 1_555 1_555
O3 C12 1_555 1_555
C3 H3 1_555 1_555
C4 C2 1_555 1_555
C5 C3 1_555 1_555
C6 C5 1_555 1_555
C7 C4 1_555 1_555
C8 C7 1_555 1_555
C9 C11 1_555 1_555
C10 C3 1_555 1_555
H4 C10 1_555 1_555
C11 C8 1_555 1_555
C12 C1 1_555 1_555
C13 O1 1_555 1_555
C14 C6 1_555 1_555
H5 C14 1_555 1_555
C15 C9 1_555 1_555
H6 C15 1_555 1_555
C16 C13 1_555 1_555
H7 C16 1_555 1_555
C17 C10 1_555 1_555
H8 C17 1_555 1_555
C18 C9 1_555 1_555
H9 C18 1_555 1_555
C19 C18 1_555 1_555
H10 C19 1_555 1_555
C20 C11 1_555 1_555
H11 C20 1_555 1_555
C21 H12 1_555 1_555
H13 C21 1_555 1_555
H14 C21 1_555 1_555
C22 C19 1_555 1_555
H15 C22 1_555 1_555
C23 O2 1_555 1_555
H16 C23 1_555 1_555
H17 C23 1_555 1_555
I2 C32 1_555 1_555
O4 C24 1_555 1_555
O5 C35 1_555 1_555
O6 C35 1_555 1_555
C24 C26 1_555 1_555
C25 C30 1_555 1_555
C26 H18 1_555 1_555
C27 O4 1_555 1_555
C28 C27 1_555 1_555
H19 C28 1_555 1_555
C29 H20 1_555 1_555
C30 H21 1_555 1_555
C31 C29 1_555 1_555
H22 C31 1_555 1_555
C32 C25 1_555 1_555
C33 C27 1_555 1_555
C34 C24 1_555 1_555
C35 C39 1_555 1_555
C36 C37 1_555 1_555
C37 C28 1_555 1_555
H23 C37 1_555 1_555
C38 C33 1_555 1_555
C39 C26 1_555 1_555
H24 C39 1_555 1_555
C40 C38 1_555 1_555
H25 C40 1_555 1_555
C41 H26 1_555 1_555
C42 C29 1_555 1_555
H27 C42 1_555 1_555
C43 C40 1_555 1_555
H28 C43 1_555 1_555
C44 O5 1_555 1_555
H29 C44 1_555 1_555
H30 C44 1_555 1_555
C45 C44 1_555 1_555
H31 C45 1_555 1_555
H32 C45 1_555 1_555
H33 C45 1_555 1_555
C46 C36 1_555 1_555
H34 C46 1_555 1_555
C6 C7 1_555 1_555
C8 C13 1_555 1_555
C14 C17 1_555 1_555
C15 C16 1_555 1_555
C20 C22 1_555 1_555
C21 C23 1_555 1_555
C25 C34 1_555 1_555
C30 C42 1_555 1_555
C31 C32 1_555 1_555
C33 C34 1_555 1_555
C36 C38 1_555 1_555
C41 C43 1_555 1_555
C41 C46 1_555 1_555

#END
