
#######################################################################
#
#                 Cambridge Crystallographic Data Centre
#                                CCDC 
#
#######################################################################
#
# If this CIF has been generated from an entry in the Cambridge 
# Structural Database, then it will include bibliographic, chemical, 
# crystal, experimental, refinement or atomic coordinate data resulting 
# from the CCDC's data processing and validation procedures.
#
#######################################################################

data_BELJUA
_chemical_formula_moiety         
'3(C41 H34 N10 O8),6(C4 H12 N1 1+),C2 H3 N1,2(O4 P1 3-),2(H2 O1)'
_chemical_name_systematic        
"hexakis(tetramethylammonium) tris(N',N''-{methylenebis[(4,1-phenylene)carbamoylazanediyl-2,1-phenylene]}bis[N'-(4-nitrophenyl)urea]) diphosphate acetonitrile unknown solvate dihydrate"
_symmetry_cell_setting           monoclinic
_symmetry_space_group_name_H-M   'P 21/c'
_symmetry_Int_Tables_number      14
_space_group_name_Hall           '-P 2ybc'
loop_
_symmetry_equiv_pos_site_id
_symmetry_equiv_pos_as_xyz
1 x,y,z
2 -x,1/2+y,1/2-z
3 -x,-y,-z
4 x,1/2-y,1/2+z
_cell_length_a                   18.716(2)
_cell_length_b                   25.844(3)
_cell_length_c                   35.201(4)
_cell_angle_alpha                90
_cell_angle_beta                 95.733(2)
_cell_angle_gamma                90
_cell_volume                     16941.4
_exptl_crystal_colour            yellow
_exptl_crystal_description       block
_cell_formula_units_Z            4
_chemical_properties_physical    ', Heat-sensitive'
_exptl_crystal_recrystallization_method 'Vapour deposition'
loop_
_atom_site_label
_atom_site_type_symbol
_atom_site_fract_x
_atom_site_fract_y
_atom_site_fract_z
C1 C -0.4915(3) 0.3934(2) 0.51638(19)
C2 C -0.4506(3) 0.4373(2) 0.52360(19)
H1 H -0.4620 0.4675 0.5099
C3 C -0.3920(3) 0.4364(2) 0.55145(18)
H2 H -0.3623 0.4652 0.5556
C4 C -0.3788(3) 0.3909(2) 0.57322(16)
C5 C -0.4229(3) 0.3480(2) 0.56628(19)
H3 H -0.4139 0.3181 0.5807
C6 C -0.4796(3) 0.3494(3) 0.5383(2)
H4 H -0.5098 0.3209 0.5341
C7 C -0.2837(3) 0.4251(2) 0.61883(16)
C8 C -0.1751(3) 0.4437(3) 0.66135(18)
C9 C -0.2035(4) 0.4784(3) 0.6854(2)
H5 H -0.2530 0.4793 0.6864
C10 C -0.1615(4) 0.5113(3) 0.7078(2)
H6 H -0.1821 0.5349 0.7234
C11 C -0.0894(4) 0.5095(3) 0.7074(2)
H7 H -0.0606 0.5322 0.7227
C12 C -0.0580(4) 0.4746(3) 0.6844(2)
H8 H -0.0082 0.4731 0.6851
C13 C -0.1005(3) 0.4416(2) 0.66033(17)
C14 C -0.0120(3) 0.4114(2) 0.61854(19)
C15 C 0.0639(3) 0.3558(2) 0.58174(16)
C16 C 0.1252(3) 0.3876(3) 0.58121(19)
H9 H 0.1227 0.4227 0.5867
C17 C 0.1890(3) 0.3659(2) 0.57242(17)
H10 H 0.2293 0.3871 0.5729
C18 C 0.1961(3) 0.3149(2) 0.56300(15)
C19 C 0.1343(3) 0.2849(3) 0.56159(16)
H11 H 0.1368 0.2503 0.5545
C20 C 0.0698(3) 0.3044(2) 0.57034(16)
H12 H 0.0295 0.2832 0.5687
C21 C 0.2680(3) 0.2919(2) 0.55769(15)
H13 H 0.2952 0.3161 0.5438
H14 H 0.2612 0.2606 0.5425
C22 C 0.3106(3) 0.2790(2) 0.59546(16)
C23 C 0.3543(3) 0.3150(2) 0.61478(16)
H15 H 0.3606 0.3472 0.6038
C24 C 0.3891(3) 0.3040(2) 0.65034(16)
H16 H 0.4180 0.3290 0.6631
C25 C 0.3814(3) 0.2562(2) 0.66708(15)
C26 C 0.3383(3) 0.2192(2) 0.64755(16)
H17 H 0.3336 0.1865 0.6580
C27 C 0.3026(3) 0.2313(2) 0.61255(17)
H18 H 0.2723 0.2068 0.6001
C28 C 0.4519(3) 0.2010(2) 0.71274(16)
C29 C 0.5190(3) 0.1583(2) 0.76890(15)
C30 C 0.5573(3) 0.1674(2) 0.80521(17)
C31 C 0.5871(3) 0.1251(2) 0.82600(19)
H19 H 0.6079 0.1299 0.8508
C32 C 0.5859(3) 0.0774(2) 0.81039(19)
H20 H 0.6075 0.0501 0.8244
C33 C 0.5537(3) 0.0683(2) 0.77458(19)
H21 H 0.5551 0.0355 0.7638
C34 C 0.5189(3) 0.1087(2) 0.75428(18)
H22 H 0.4950 0.1022 0.7303
C35 C 0.6165(3) 0.2372(2) 0.84474(17)
C36 C 0.6360(3) 0.3117(2) 0.88762(18)
C37 C 0.6082(3) 0.3606(2) 0.89584(18)
H23 H 0.5701 0.3744 0.8800
C38 C 0.6369(3) 0.3882(3) 0.92715(18)
H24 H 0.6191 0.4208 0.9323
C39 C 0.6915(3) 0.3671(3) 0.95040(17)
C40 C 0.7198(3) 0.3194(2) 0.94339(18)
H25 H 0.7576 0.3061 0.9596
C41 C 0.6921(3) 0.2919(2) 0.91255(18)
H26 H 0.7108 0.2594 0.9079
N1 N -0.5494(3) 0.3946(2) 0.4852(2)
N2 N -0.3182(3) 0.38556(19) 0.59990(14)
H27 H -0.3019 0.3548 0.6045
N3 N -0.2199(3) 0.4098(2) 0.63887(14)
H28 H -0.2070 0.3779 0.6375
N4 N -0.0721(2) 0.4055(2) 0.63574(14)
H29 H -0.0955 0.3772 0.6314
N5 N -0.0013(2) 0.3718(2) 0.59356(15)
H30 H -0.0389 0.3551 0.5843
N6 N 0.4169(2) 0.24642(17) 0.70383(12)
H31 H 0.4164 0.2699 0.7211
N7 N 0.4823(2) 0.20031(17) 0.75038(12)
H32 H 0.4783 0.2280 0.7636
N8 N 0.5613(2) 0.21849(18) 0.81973(13)
H33 H 0.5268 0.2393 0.8124
N9 N 0.6033(2) 0.28662(18) 0.85596(15)
H34 H 0.5714 0.3038 0.8419
N10 N 0.7209(3) 0.3972(3) 0.98382(17)
O1 O -0.5755(3) 0.3527(2) 0.47435(17)
O2 O -0.5661(3) 0.4358(2) 0.47038(18)
O3 O -0.3040(2) 0.46922(16) 0.61906(12)
O4 O 0.0311(2) 0.44773(18) 0.62363(14)
O5 O 0.4572(2) 0.16578(16) 0.69038(11)
O6 O 0.6710(2) 0.21298(17) 0.85502(13)
O7 O 0.7664(3) 0.3760(2) 1.00627(15)
O8 O 0.6999(3) 0.4408(2) 0.98851(16)
C42 C -0.3638(3) 0.3065(3) 0.47503(17)
H35 H -0.3470 0.3373 0.4656
C43 C -0.4236(3) 0.2822(3) 0.45689(16)
C44 C -0.4487(3) 0.2369(3) 0.46937(18)
H36 H -0.4878 0.2207 0.4559
C45 C -0.4152(3) 0.2147(3) 0.50286(17)
H37 H -0.4329 0.1842 0.5123
C46 C -0.3554(3) 0.2386(2) 0.52175(16)
C47 C -0.3297(3) 0.2840(3) 0.50736(16)
H38 H -0.2889 0.2996 0.5197
C48 C -0.3307(3) 0.1765(2) 0.57518(18)
C49 C -0.2852(3) 0.1367(2) 0.63799(19)
C50 C -0.3393(4) 0.1010(3) 0.6394(2)
H39 H -0.3772 0.1011 0.6201
C51 C -0.3392(5) 0.0639(3) 0.6694(3)
H40 H -0.3780 0.0418 0.6710
C52 C -0.2805(4) 0.0618(3) 0.6958(2)
H41 H -0.2769 0.0360 0.7144
C53 C -0.2268(3) 0.0979(2) 0.69471(19)
H42 H -0.1875 0.0964 0.7131
C54 C -0.2290(3) 0.1363(2) 0.66747(17)
C55 C -0.1547(3) 0.2007(2) 0.70470(16)
C56 C -0.0875(3) 0.2761(2) 0.73146(15)
C57 C -0.0952(3) 0.3291(2) 0.73031(16)
H43 H -0.1215 0.3447 0.7096
C58 C -0.0639(3) 0.3590(2) 0.75973(16)
H44 H -0.0690 0.3947 0.7583
C59 C -0.0252(3) 0.3376(2) 0.79120(16)
C60 C -0.0185(3) 0.2859(3) 0.79249(16)
H45 H 0.0074 0.2711 0.8136
C61 C -0.0489(3) 0.2531(2) 0.76332(16)
H46 H -0.0436 0.2174 0.7651
C62 C 0.0133(3) 0.3724(3) 0.82149(17)
H47 H 0.0196 0.3539 0.8456
H48 H -0.0162 0.4025 0.8249
C63 C 0.0863(3) 0.3898(2) 0.81079(16)
C64 C 0.0939(3) 0.4311(2) 0.78687(17)
H49 H 0.0536 0.4512 0.7796
C65 C 0.1578(3) 0.4443(2) 0.77304(16)
H50 H 0.1599 0.4725 0.7568
C66 C 0.2194(3) 0.4149(2) 0.78370(15)
C67 C 0.2138(3) 0.3746(2) 0.80980(14)
H51 H 0.2545 0.3559 0.8185
C68 C 0.1484(3) 0.3621(2) 0.82302(15)
H52 H 0.1461 0.3350 0.8402
C69 C 0.2972(3) 0.4412(2) 0.73440(16)
C70 C 0.3440(4) 0.4504(2) 0.65483(16)
H53 H 0.2946 0.4533 0.6556
C71 C 0.3737(5) 0.4604(3) 0.62105(18)
H54 H 0.3444 0.4710 0.5996
C72 C 0.4457(5) 0.4546(3) 0.61924(19)
H55 H 0.4653 0.4616 0.5965
C73 C 0.4901(4) 0.4384(2) 0.65114(18)
H56 H 0.5389 0.4330 0.6495
C74 C 0.4608(3) 0.4305(2) 0.68549(16)
C75 C 0.3870(3) 0.4361(2) 0.68756(15)
C76 C 0.5724(3) 0.4308(2) 0.72901(17)
C77 C 0.6693(3) 0.4202(2) 0.7816(2)
C78 C 0.7192(4) 0.4514(4) 0.7675(3)
H57 H 0.7105 0.4655 0.7431
C79 C 0.7825(4) 0.4620(4) 0.7893(3)
H58 H 0.8162 0.4833 0.7795
C80 C 0.7967(3) 0.4429(3) 0.8235(3)
C81 C 0.7493(5) 0.4114(4) 0.8374(3)
H59 H 0.7594 0.3966 0.8615
C82 C 0.6851(4) 0.4007(4) 0.8159(2)
H60 H 0.6520 0.3791 0.8260
N11 N -0.4614(3) 0.3048(3) 0.42280(17)
N12 N -0.3195(2) 0.22166(19) 0.55579(13)
H61 H -0.2863 0.2417 0.5661
N13 N -0.2843(2) 0.17372(19) 0.60862(14)
H62 H -0.2516 0.1972 0.6117
N14 N -0.1784(2) 0.17801(18) 0.67046(13)
H63 H -0.1622 0.1893 0.6500
N15 N -0.1180(2) 0.24605(17) 0.70021(12)
H64 H -0.1133 0.2567 0.6774
N16 N 0.2860(2) 0.42109(17) 0.76934(12)
H65 H 0.3233 0.4114 0.7838
N17 N 0.3595(2) 0.42354(17) 0.72216(12)
H66 H 0.3847 0.4026 0.7371
N18 N 0.5050(3) 0.41389(18) 0.71816(13)
H67 H 0.4875 0.3910 0.7324
N19 N 0.6031(2) 0.4070(2) 0.76158(14)
H68 H 0.5797 0.3818 0.7705
N20 N 0.8654(4) 0.4565(3) 0.8443(3)
O9 O -0.4465(3) 0.3509(3) 0.41631(15)
O10 O -0.5041(3) 0.2796(3) 0.40232(13)
O11 O -0.3747(2) 0.14332(16) 0.56451(12)
O12 O -0.1669(2) 0.18395(16) 0.73560(11)
O13 O 0.2546(2) 0.47143(15) 0.71697(11)
O14 O 0.6030(2) 0.46354(19) 0.71171(13)
O15 O 0.9071(3) 0.4842(2) 0.8320(3)
O16 O 0.8783(4) 0.4394(5) 0.8747(2)
C83 C -0.2407(5) 0.5226(4) 0.5167(3)
C84 C -0.2505(7) 0.4966(5) 0.4827(3)
H69 H -0.2714 0.5136 0.4611
C85 C -0.2306(6) 0.4473(5) 0.4799(2)
H70 H -0.2400 0.4295 0.4570
C86 C -0.1951(4) 0.4222(3) 0.5122(2)
C87 C -0.1882(4) 0.4482(3) 0.5460(2)
H71 H -0.1677 0.4317 0.5679
C88 C -0.2108(4) 0.4982(3) 0.5482(2)
H72 H -0.2056 0.5155 0.5715
C89 C -0.1632(4) 0.3404(4) 0.4816(2)
C90 C -0.1198(3) 0.2528(3) 0.46764(18)
C91 C -0.1283(4) 0.2549(4) 0.4278(2)
H73 H -0.1449 0.2852 0.4157
C92 C -0.1125(4) 0.2129(4) 0.4062(2)
H74 H -0.1159 0.2157 0.3797
C93 C -0.0917(4) 0.1670(4) 0.4233(3)
H75 H -0.0822 0.1386 0.4084
C94 C -0.0846(4) 0.1626(4) 0.4633(2)
H76 H -0.0721 0.1313 0.4752
C95 C -0.0970(3) 0.2063(4) 0.4845(2)
C96 C -0.0263(3) 0.1839(3) 0.54573(19)
C97 C 0.0186(3) 0.1687(2) 0.61299(17)
C98 C 0.0769(3) 0.1369(3) 0.60859(18)
H77 H 0.0890 0.1283 0.5844
C99 C 0.1171(3) 0.1180(2) 0.64130(18)
H78 H 0.1559 0.0964 0.6383
C100 C 0.1020(3) 0.1296(2) 0.67729(16)
C101 C 0.0457(3) 0.1630(2) 0.68084(17)
H79 H 0.0353 0.1727 0.7051
C102 C 0.0044(3) 0.1826(2) 0.64936(18)
H80 H -0.0331 0.2053 0.6527
C103 C 0.1432(3) 0.1056(2) 0.71196(17)
H81 H 0.1801 0.0831 0.7036
H82 H 0.1107 0.0844 0.7251
C104 C 0.1782(3) 0.1448(2) 0.73984(16)
C105 C 0.2411(3) 0.1693(2) 0.73148(15)
H83 H 0.2594 0.1625 0.7084
C106 C 0.2770(3) 0.2037(2) 0.75696(15)
H84 H 0.3184 0.2200 0.7505
C107 C 0.2520(3) 0.2140(2) 0.79189(15)
C108 C 0.1873(3) 0.1921(2) 0.80044(17)
H85 H 0.1678 0.2005 0.8229
C109 C 0.1520(3) 0.1567(2) 0.77388(17)
H86 H 0.1097 0.1410 0.7798
C110 C 0.2899(3) 0.2540(2) 0.85383(16)
C111 C 0.3597(3) 0.2889(2) 0.91153(16)
C112 C 0.3790(3) 0.3394(2) 0.92189(15)
C113 C 0.3861(4) 0.3523(3) 0.95996(17)
H87 H 0.3984 0.3858 0.9676
C114 C 0.3745(4) 0.3146(3) 0.98695(18)
H88 H 0.3777 0.3238 1.0126
C115 C 0.3588(3) 0.2651(3) 0.97704(18)
H89 H 0.3537 0.2403 0.9957
C116 C 0.3505(3) 0.2519(3) 0.93902(17)
H90 H 0.3386 0.2181 0.9318
C117 C 0.4325(3) 0.4171(2) 0.89594(16)
C118 C 0.4959(3) 0.4735(2) 0.85271(15)
C119 C 0.5386(3) 0.5008(2) 0.88011(17)
H91 H 0.5316 0.4972 0.9058
C120 C 0.5922(3) 0.5335(2) 0.86936(18)
H92 H 0.6211 0.5521 0.8875
C121 C 0.6012(3) 0.5375(2) 0.83092(18)
C122 C 0.5585(3) 0.5118(2) 0.80330(17)
H93 H 0.5650 0.5161 0.7776
C123 C 0.5053(3) 0.4793(2) 0.81417(16)
H94 H 0.4759 0.4614 0.7958
N21 N -0.2650(5) 0.5750(4) 0.5187(3)
N22 N -0.1711(3) 0.3713(2) 0.51180(14)
H95 H -0.1597 0.3576 0.5338
N23 N -0.1324(3) 0.2939(2) 0.49129(15)
H96 H -0.1190 0.2896 0.5152
N24 N -0.0882(3) 0.2024(2) 0.52471(15)
H97 H -0.1233 0.2121 0.5370
N25 N -0.0311(2) 0.1856(2) 0.58379(14)
H98 H -0.0700 0.1988 0.5907
N26 N 0.2954(2) 0.24556(17) 0.81659(12)
H99 H 0.3296 0.2615 0.8069
N27 N 0.3517(2) 0.27520(18) 0.87207(12)
H100 H 0.3873 0.2805 0.8589
N28 N 0.3910(3) 0.37398(19) 0.89258(13)
H101 H 0.3701 0.3672 0.8703
N29 N 0.4457(2) 0.43643(17) 0.86090(12)
H102 H 0.4196 0.4240 0.8416
N30 N 0.6584(3) 0.5699(2) 0.81897(18)
O17 O -0.2984(6) 0.5947(4) 0.4894(3)
O18 O -0.2499(4) 0.5999(3) 0.5486(3)
O19 O -0.1826(4) 0.3521(3) 0.44778(15)
O20 O 0.0254(2) 0.1680(2) 0.53029(12)
O21 O 0.2378(2) 0.24402(17) 0.87088(11)
O22 O 0.4568(2) 0.43678(17) 0.92675(11)
O23 O 0.6991(2) 0.59082(19) 0.84398(14)
O24 O 0.6661(3) 0.57328(19) 0.78473(15)
C124 C 0.3055(3) 0.7163(3) 0.3248(2)
H103 H 0.2607 0.7346 0.3240
H104 H 0.3358 0.7264 0.3472
H105 H 0.2966 0.6797 0.3256
C125 C 0.4134(3) 0.7015(3) 0.2943(2)
H106 H 0.4060 0.6647 0.2940
H107 H 0.4400 0.7113 0.3180
H108 H 0.4400 0.7111 0.2735
C126 C 0.2973(4) 0.7101(3) 0.2563(2)
H109 H 0.2492 0.7231 0.2563
H110 H 0.2964 0.6730 0.2564
H111 H 0.3175 0.7221 0.2338
C127 C 0.3531(3) 0.7850(3) 0.2879(2)
H112 H 0.3805 0.7922 0.2669
H113 H 0.3789 0.7970 0.3112
H114 H 0.3076 0.8023 0.2840
N31 N 0.3414(2) 0.7288(2) 0.29047(16)
C128 C 0.3043(6) 0.4041(4) 0.3663(5)
H115 H 0.2811 0.4373 0.3640
H116 H 0.3108 0.3941 0.3927
H117 H 0.2752 0.3789 0.3520
C129 C 0.4043(5) 0.3561(3) 0.3492(4)
H118 H 0.3793 0.3372 0.3285
H119 H 0.4015 0.3376 0.3727
H120 H 0.4537 0.3601 0.3447
C130 C 0.4208(5) 0.4442(4) 0.3710(4)
H121 H 0.4658 0.4426 0.3601
H122 H 0.4284 0.4360 0.3978
H123 H 0.4011 0.4784 0.3679
C131 C 0.3635(10) 0.4240(7) 0.3144(4)
H124 H 0.3813 0.3979 0.2983
H125 H 0.3902 0.4554 0.3123
H126 H 0.3136 0.4302 0.3066
N32 N 0.3713(2) 0.40718(18) 0.35200(13)
C132 C 0.0606(5) 0.2567(7) 0.4661(2)
H127 H 0.0789 0.2750 0.4887
H128 H 0.0469 0.2224 0.4728
H129 H 0.0195 0.2746 0.4540
C133 C 0.1629(6) 0.2052(5) 0.4428(4)
H130 H 0.2003 0.2069 0.4261
H131 H 0.1329 0.1758 0.4363
H132 H 0.1839 0.2021 0.4687
C134 C 0.0804(4) 0.2568(4) 0.4004(2)
H133 H 0.0531 0.2883 0.3980
H134 H 0.0486 0.2277 0.3963
H135 H 0.1144 0.2564 0.3817
C135 C 0.1641(5) 0.2988(4) 0.4459(3)
H136 H 0.1909 0.2956 0.4705
H137 H 0.1348 0.3293 0.4454
H138 H 0.1966 0.3012 0.4265
N33 N 0.1186(3) 0.2536(4) 0.43871(16)
C136 C 0.1201(10) 0.5969(10) 0.6853(5)
H139 H 0.0813 0.6191 0.6908
H140 H 0.1363 0.5773 0.7076
H141 H 0.1038 0.5737 0.6649
C137 C 0.2388(7) 0.6146(4) 0.7037(3)
H142 H 0.2306 0.6313 0.7272
H143 H 0.2844 0.6253 0.6961
H144 H 0.2389 0.5777 0.7072
C138 C 0.1706(8) 0.6891(9) 0.6717(4)
H145 H 0.1595 0.7016 0.6961
H146 H 0.1320 0.6975 0.6527
H147 H 0.2141 0.7050 0.6652
C139 C 0.2114(9) 0.6010(7) 0.6361(3)
H148 H 0.2522 0.6199 0.6290
H149 H 0.1745 0.6007 0.6152
H150 H 0.2255 0.5661 0.6425
N34 N 0.1808(7) 0.6290(7) 0.6735(2)
C140 C 0.1274(5) 0.2932(3) 0.7292(2)
H151 H 0.0764 0.2878 0.7271
H152 H 0.1408 0.3170 0.7496
H153 H 0.1515 0.2608 0.7345
C141 C 0.2312(4) 0.3228(4) 0.7034(3)
H154 H 0.2546 0.2898 0.7066
H155 H 0.2394 0.3423 0.7266
H156 H 0.2503 0.3414 0.6831
C142 C 0.1267(8) 0.3669(3) 0.6847(3)
H157 H 0.1551 0.3807 0.6658
H158 H 0.1340 0.3875 0.7075
H159 H 0.0769 0.3677 0.6751
C143 C 0.1480(6) 0.2792(3) 0.6621(2)
H160 H 0.1710 0.2476 0.6708
H161 H 0.1736 0.2942 0.6425
H162 H 0.0994 0.2722 0.6520
N35 N 0.1481(3) 0.31448(18) 0.69332(13)
C144 C 0.2278(8) 0.4525(6) 0.9520(4)
H163 H 0.2691 0.4303 0.9552
H164 H 0.1856 0.4321 0.9452
H165 H 0.2229 0.4705 0.9755
C145 C 0.1832(6) 0.5364(4) 0.9214(3)
H166 H 0.1924 0.5550 0.9450
H167 H 0.1352 0.5228 0.9194
H168 H 0.1884 0.5593 0.9004
C146 C 0.2272(8) 0.4664(6) 0.8827(4)
H169 H 0.2511 0.4863 0.8648
H170 H 0.1769 0.4642 0.8743
H171 H 0.2473 0.4322 0.8846
C147 C 0.3125(5) 0.5090(5) 0.9291(3)
H172 H 0.3370 0.4866 0.9478
H173 H 0.3131 0.5438 0.9387
H174 H 0.3362 0.5080 0.9061
N36 N 0.2370(4) 0.4915(3) 0.92058(19)
C148 C 0.4720(4) 0.1589(4) 0.6006(2)
H175 H 0.4911 0.1423 0.5794
H176 H 0.4233 0.1692 0.5932
H177 H 0.4732 0.1352 0.6216
C149 C 0.5137(4) 0.2030(3) 0.61155(18)
N37 N 0.5485(3) 0.2371(3) 0.6197(2)
O25 O 0.8822(2) 0.30750(16) 0.57026(11)
O26 O 0.84599(18) 0.22771(15) 0.60350(10)
O27 O 0.75739(19) 0.29917(15) 0.59001(12)
O28 O 0.8618(2) 0.31262(16) 0.63935(11)
P1 P 0.83692(8) 0.28734(6) 0.60072(4)
O29 O 0.43448(17) 0.27335(13) 0.80410(10)
O30 O 0.52173(18) 0.34666(14) 0.80552(11)
O31 O 0.43031(18) 0.33500(13) 0.74901(10)
O32 O 0.39010(18) 0.36382(14) 0.81139(9)
P2 P 0.44434(7) 0.33006(5) 0.79251(4)
O33 O 0.0771(4) 0.0993(4) 0.4817(3)
O34 O 0.1543(7) 0.5006(5) 0.6563(4)
loop_
_geom_bond_atom_site_label_1
_geom_bond_atom_site_label_2
_geom_bond_site_symmetry_1
_geom_bond_site_symmetry_2
C1 C2 1_555 1_555
C2 H1 1_555 1_555
C3 C2 1_555 1_555
H2 C3 1_555 1_555
C4 C3 1_555 1_555
C5 C4 1_555 1_555
H3 C5 1_555 1_555
C6 C1 1_555 1_555
H4 C6 1_555 1_555
C7 N2 1_555 1_555
C8 C9 1_555 1_555
C9 H5 1_555 1_555
C10 C9 1_555 1_555
H6 C10 1_555 1_555
C11 C10 1_555 1_555
H7 C11 1_555 1_555
C12 C11 1_555 1_555
H8 C12 1_555 1_555
C13 C8 1_555 1_555
C14 N4 1_555 1_555
C15 C16 1_555 1_555
C16 H9 1_555 1_555
C17 C16 1_555 1_555
H10 C17 1_555 1_555
C18 C17 1_555 1_555
C19 C18 1_555 1_555
H11 C19 1_555 1_555
C20 C15 1_555 1_555
H12 C20 1_555 1_555
C21 C18 1_555 1_555
H13 C21 1_555 1_555
H14 C21 1_555 1_555
C22 C21 1_555 1_555
C23 C22 1_555 1_555
H15 C23 1_555 1_555
C24 C23 1_555 1_555
H16 C24 1_555 1_555
C25 C24 1_555 1_555
C26 C25 1_555 1_555
H17 C26 1_555 1_555
C27 C22 1_555 1_555
H18 C27 1_555 1_555
C28 N6 1_555 1_555
C29 C30 1_555 1_555
C30 C31 1_555 1_555
C31 H19 1_555 1_555
C32 C31 1_555 1_555
H20 C32 1_555 1_555
C33 C32 1_555 1_555
H21 C33 1_555 1_555
C34 C29 1_555 1_555
H22 C34 1_555 1_555
C35 N8 1_555 1_555
C36 C37 1_555 1_555
C37 H23 1_555 1_555
C38 C37 1_555 1_555
H24 C38 1_555 1_555
C39 C38 1_555 1_555
C40 C39 1_555 1_555
H25 C40 1_555 1_555
C41 C36 1_555 1_555
H26 C41 1_555 1_555
N1 C1 1_555 1_555
N2 C4 1_555 1_555
H27 N2 1_555 1_555
N3 C7 1_555 1_555
H28 N3 1_555 1_555
N4 C13 1_555 1_555
H29 N4 1_555 1_555
N5 C14 1_555 1_555
H30 N5 1_555 1_555
N6 C25 1_555 1_555
H31 N6 1_555 1_555
N7 C28 1_555 1_555
H32 N7 1_555 1_555
N8 C30 1_555 1_555
H33 N8 1_555 1_555
N9 C35 1_555 1_555
H34 N9 1_555 1_555
N10 C39 1_555 1_555
O1 N1 1_555 1_555
O2 N1 1_555 1_555
O3 C7 1_555 1_555
O4 C14 1_555 1_555
O5 C28 1_555 1_555
O6 C35 1_555 1_555
O7 N10 1_555 1_555
O8 N10 1_555 1_555
C42 H35 1_555 1_555
C43 C42 1_555 1_555
C44 C43 1_555 1_555
H36 C44 1_555 1_555
C45 C44 1_555 1_555
H37 C45 1_555 1_555
C46 C45 1_555 1_555
C47 C42 1_555 1_555
H38 C47 1_555 1_555
C48 N12 1_555 1_555
C49 C50 1_555 1_555
C50 H39 1_555 1_555
C51 C50 1_555 1_555
H40 C51 1_555 1_555
C52 C51 1_555 1_555
H41 C52 1_555 1_555
C53 C52 1_555 1_555
H42 C53 1_555 1_555
C54 C49 1_555 1_555
C55 N14 1_555 1_555
C56 C57 1_555 1_555
C57 H43 1_555 1_555
C58 C57 1_555 1_555
H44 C58 1_555 1_555
C59 C58 1_555 1_555
C60 C59 1_555 1_555
H45 C60 1_555 1_555
C61 C56 1_555 1_555
H46 C61 1_555 1_555
C62 C59 1_555 1_555
H47 C62 1_555 1_555
H48 C62 1_555 1_555
C63 C62 1_555 1_555
C64 C63 1_555 1_555
H49 C64 1_555 1_555
C65 C64 1_555 1_555
H50 C65 1_555 1_555
C66 C65 1_555 1_555
C67 C66 1_555 1_555
H51 C67 1_555 1_555
C68 C63 1_555 1_555
H52 C68 1_555 1_555
C69 N16 1_555 1_555
C70 H53 1_555 1_555
C71 C70 1_555 1_555
H54 C71 1_555 1_555
C72 C71 1_555 1_555
H55 C72 1_555 1_555
C73 C72 1_555 1_555
H56 C73 1_555 1_555
C74 C73 1_555 1_555
C75 C70 1_555 1_555
C76 N18 1_555 1_555
C77 C78 1_555 1_555
C78 H57 1_555 1_555
C79 C78 1_555 1_555
H58 C79 1_555 1_555
C80 C79 1_555 1_555
C81 C80 1_555 1_555
H59 C81 1_555 1_555
C82 C77 1_555 1_555
H60 C82 1_555 1_555
N11 C43 1_555 1_555
N12 C46 1_555 1_555
H61 N12 1_555 1_555
N13 C48 1_555 1_555
H62 N13 1_555 1_555
N14 C54 1_555 1_555
H63 N14 1_555 1_555
N15 C55 1_555 1_555
H64 N15 1_555 1_555
N16 C66 1_555 1_555
H65 N16 1_555 1_555
N17 C69 1_555 1_555
H66 N17 1_555 1_555
N18 C74 1_555 1_555
H67 N18 1_555 1_555
N19 C76 1_555 1_555
H68 N19 1_555 1_555
N20 C80 1_555 1_555
O9 N11 1_555 1_555
O10 N11 1_555 1_555
O11 C48 1_555 1_555
O12 C55 1_555 1_555
O13 C69 1_555 1_555
O14 C76 1_555 1_555
O15 N20 1_555 1_555
O16 N20 1_555 1_555
C83 C84 1_555 1_555
C84 H69 1_555 1_555
C85 C84 1_555 1_555
H70 C85 1_555 1_555
C86 C85 1_555 1_555
C87 C86 1_555 1_555
H71 C87 1_555 1_555
C88 C83 1_555 1_555
H72 C88 1_555 1_555
C89 N22 1_555 1_555
C90 C91 1_555 1_555
C91 H73 1_555 1_555
C92 C91 1_555 1_555
H74 C92 1_555 1_555
C93 C92 1_555 1_555
H75 C93 1_555 1_555
C94 C93 1_555 1_555
H76 C94 1_555 1_555
C95 C90 1_555 1_555
C96 N24 1_555 1_555
C97 C98 1_555 1_555
C98 H77 1_555 1_555
C99 C98 1_555 1_555
H78 C99 1_555 1_555
C100 C99 1_555 1_555
C101 C100 1_555 1_555
H79 C101 1_555 1_555
C102 C97 1_555 1_555
H80 C102 1_555 1_555
C103 C100 1_555 1_555
H81 C103 1_555 1_555
H82 C103 1_555 1_555
C104 C103 1_555 1_555
C105 C104 1_555 1_555
H83 C105 1_555 1_555
C106 C105 1_555 1_555
H84 C106 1_555 1_555
C107 C106 1_555 1_555
C108 C107 1_555 1_555
H85 C108 1_555 1_555
C109 C104 1_555 1_555
H86 C109 1_555 1_555
C110 N26 1_555 1_555
C111 C112 1_555 1_555
C112 C113 1_555 1_555
C113 H87 1_555 1_555
C114 C113 1_555 1_555
H88 C114 1_555 1_555
C115 C114 1_555 1_555
H89 C115 1_555 1_555
C116 C111 1_555 1_555
H90 C116 1_555 1_555
C117 N28 1_555 1_555
C118 C119 1_555 1_555
C119 H91 1_555 1_555
C120 C119 1_555 1_555
H92 C120 1_555 1_555
C121 C120 1_555 1_555
C122 C121 1_555 1_555
H93 C122 1_555 1_555
C123 C118 1_555 1_555
H94 C123 1_555 1_555
N21 C83 1_555 1_555
N22 C86 1_555 1_555
H95 N22 1_555 1_555
N23 C89 1_555 1_555
H96 N23 1_555 1_555
N24 C95 1_555 1_555
H97 N24 1_555 1_555
N25 C96 1_555 1_555
H98 N25 1_555 1_555
N26 C107 1_555 1_555
H99 N26 1_555 1_555
N27 C110 1_555 1_555
H100 N27 1_555 1_555
N28 C112 1_555 1_555
H101 N28 1_555 1_555
N29 C117 1_555 1_555
H102 N29 1_555 1_555
N30 C121 1_555 1_555
O17 N21 1_555 1_555
O18 N21 1_555 1_555
O19 C89 1_555 1_555
O20 C96 1_555 1_555
O21 C110 1_555 1_555
O22 C117 1_555 1_555
O23 N30 1_555 1_555
O24 N30 1_555 1_555
C124 H103 1_555 1_555
H104 C124 1_555 1_555
H105 C124 1_555 1_555
C125 H106 1_555 1_555
H107 C125 1_555 1_555
H108 C125 1_555 1_555
C126 H109 1_555 1_555
H110 C126 1_555 1_555
H111 C126 1_555 1_555
C127 H112 1_555 1_555
H113 C127 1_555 1_555
H114 C127 1_555 1_555
N31 C124 1_555 1_555
C128 H115 1_555 1_555
H116 C128 1_555 1_555
H117 C128 1_555 1_555
C129 H118 1_555 1_555
H119 C129 1_555 1_555
H120 C129 1_555 1_555
C130 H121 1_555 1_555
H122 C130 1_555 1_555
H123 C130 1_555 1_555
C131 H124 1_555 1_555
H125 C131 1_555 1_555
H126 C131 1_555 1_555
N32 C128 1_555 1_555
C132 H127 1_555 1_555
H128 C132 1_555 1_555
H129 C132 1_555 1_555
C133 H130 1_555 1_555
H131 C133 1_555 1_555
H132 C133 1_555 1_555
C134 H133 1_555 1_555
H134 C134 1_555 1_555
H135 C134 1_555 1_555
C135 H136 1_555 1_555
H137 C135 1_555 1_555
H138 C135 1_555 1_555
N33 C132 1_555 1_555
C136 H139 1_555 1_555
H140 C136 1_555 1_555
H141 C136 1_555 1_555
C137 H142 1_555 1_555
H143 C137 1_555 1_555
H144 C137 1_555 1_555
C138 H145 1_555 1_555
H146 C138 1_555 1_555
H147 C138 1_555 1_555
C139 H148 1_555 1_555
H149 C139 1_555 1_555
H150 C139 1_555 1_555
N34 C136 1_555 1_555
C140 H151 1_555 1_555
H152 C140 1_555 1_555
H153 C140 1_555 1_555
C141 H154 1_555 1_555
H155 C141 1_555 1_555
H156 C141 1_555 1_555
C142 H157 1_555 1_555
H158 C142 1_555 1_555
H159 C142 1_555 1_555
C143 H160 1_555 1_555
H161 C143 1_555 1_555
H162 C143 1_555 1_555
N35 C140 1_555 1_555
C144 H163 1_555 1_555
H164 C144 1_555 1_555
H165 C144 1_555 1_555
C145 H166 1_555 1_555
H167 C145 1_555 1_555
H168 C145 1_555 1_555
C146 H169 1_555 1_555
H170 C146 1_555 1_555
H171 C146 1_555 1_555
C147 H172 1_555 1_555
H173 C147 1_555 1_555
H174 C147 1_555 1_555
N36 C144 1_555 1_555
C148 H175 1_555 1_555
H176 C148 1_555 1_555
H177 C148 1_555 1_555
C149 C148 1_555 1_555
N37 C149 1_555 1_555
O25 P1 1_555 1_555
O26 P1 1_555 1_555
O27 P1 1_555 1_555
O28 P1 1_555 1_555
O29 P2 1_555 1_555
O30 P2 1_555 1_555
O31 P2 1_555 1_555
O32 P2 1_555 1_555
C5 C6 1_555 1_555
C8 N3 1_555 1_555
C12 C13 1_555 1_555
C15 N5 1_555 1_555
C19 C20 1_555 1_555
C26 C27 1_555 1_555
C29 N7 1_555 1_555
C33 C34 1_555 1_555
C36 N9 1_555 1_555
C40 C41 1_555 1_555
C46 C47 1_555 1_555
C49 N13 1_555 1_555
C53 C54 1_555 1_555
C56 N15 1_555 1_555
C60 C61 1_555 1_555
C67 C68 1_555 1_555
C74 C75 1_555 1_555
C75 N17 1_555 1_555
C77 N19 1_555 1_555
C81 C82 1_555 1_555
C87 C88 1_555 1_555
C90 N23 1_555 1_555
C94 C95 1_555 1_555
C97 N25 1_555 1_555
C101 C102 1_555 1_555
C108 C109 1_555 1_555
C111 N27 1_555 1_555
C115 C116 1_555 1_555
C118 N29 1_555 1_555
C122 C123 1_555 1_555
C125 N31 1_555 1_555
C126 N31 1_555 1_555
C127 N31 1_555 1_555
C129 N32 1_555 1_555
C130 N32 1_555 1_555
C131 N32 1_555 1_555
C133 N33 1_555 1_555
C134 N33 1_555 1_555
C135 N33 1_555 1_555
C137 N34 1_555 1_555
C138 N34 1_555 1_555
C139 N34 1_555 1_555
C141 N35 1_555 1_555
C142 N35 1_555 1_555
C143 N35 1_555 1_555
C145 N36 1_555 1_555
C146 N36 1_555 1_555
C147 N36 1_555 1_555

#END
