
#######################################################################
#
#                 Cambridge Crystallographic Data Centre
#                                CCDC 
#
#######################################################################
#
# If this CIF has been generated from an entry in the Cambridge 
# Structural Database, then it will include bibliographic, chemical, 
# crystal, experimental, refinement or atomic coordinate data resulting 
# from the CCDC's data processing and validation procedures.
#
#######################################################################

data_BELPAM
_chemical_formula_moiety         'C13 H13 B1 Cl1 N1 O4'
_chemical_name_systematic        
(1-chloro-2-phenylethenyl)[2,2'-(methylazanediyl)bis(acetato)]boron
_symmetry_cell_setting           monoclinic
_symmetry_space_group_name_H-M   'P 21/n'
_symmetry_Int_Tables_number      14
_space_group_name_Hall           '-P 2yn'
loop_
_symmetry_equiv_pos_site_id
_symmetry_equiv_pos_as_xyz
1 x,y,z
2 1/2-x,1/2+y,1/2-z
3 -x,-y,-z
4 1/2+x,1/2-y,1/2+z
_cell_length_a                   9.92568(16)
_cell_length_b                   10.13713(16)
_cell_length_c                   13.5814(2)
_cell_angle_alpha                90
_cell_angle_beta                 105.1623(17)
_cell_angle_gamma                90
_cell_volume                     1318.96
_cell_formula_units_Z            4
loop_
_atom_site_label
_atom_site_type_symbol
_atom_site_fract_x
_atom_site_fract_y
_atom_site_fract_z
Cl1 Cl 0.25260(3) 0.44739(4) 0.25477(3)
O1 O 0.04716(10) 0.42522(9) 0.38220(7)
O2 O -0.38298(11) 0.43066(11) 0.21698(9)
O3 O 0.16331(11) 0.28182(11) 0.49953(8)
O4 O -0.15862(10) 0.48976(9) 0.25165(7)
N1 N -0.05274(11) 0.27382(11) 0.24533(8)
C1 C 0.05379(15) 0.59530(15) 0.13917(11)
C2 C -0.19904(15) 0.58142(15) 0.03753(11)
C3 C -0.20452(13) 0.26272(13) 0.24274(10)
C4 C 0.09081(14) 0.30612(14) 0.41531(10)
C5 C -0.08066(14) 0.65547(14) 0.08356(10)
C6 C -0.08738(15) 0.79279(14) 0.07078(11)
C7 C 0.07687(14) 0.50172(14) 0.21063(10)
B1 B -0.02052(15) 0.43136(14) 0.27179(11)
C8 C -0.02848(15) 0.22745(15) 0.14694(11)
C9 C -0.20903(16) 0.85396(15) 0.01611(11)
C10 C -0.32611(16) 0.77897(15) -0.02841(11)
C11 C -0.32054(15) 0.64271(15) -0.01793(11)
C12 C 0.04079(15) 0.20352(14) 0.33356(11)
C13 C -0.26132(14) 0.40153(14) 0.23518(10)
H1 H -0.00899(15) 0.84371(14) 0.09944(11)
H2 H -0.21213(16) 0.94528(15) 0.00928(11)
H3 H -0.40780(16) 0.81976(15) -0.06504(11)
H4 H -0.39855(15) 0.59212(15) -0.04820(11)
H5 H -0.19655(15) 0.49007(15) 0.04405(11)
H6 H 0.13254(15) 0.62703(15) 0.12194(11)
H7 H -0.25387(13) 0.21099(13) 0.18433(10)
H8 H -0.21525(13) 0.22031(13) 0.30426(10)
H9 H -0.0486(11) 0.1349(3) 0.1388(4)
H10 H -0.0884(9) 0.2751(8) 0.09136(13)
H11 H 0.0672(3) 0.2426(10) 0.1475(4)
H12 H -0.00979(15) 0.13416(14) 0.35778(11)
H13 H 0.11917(15) 0.16445(14) 0.31399(11)
loop_
_geom_bond_atom_site_label_1
_geom_bond_atom_site_label_2
_geom_bond_site_symmetry_1
_geom_bond_site_symmetry_2
Cl1 C7 1_555 1_555
O1 C4 1_555 1_555
O2 C13 1_555 1_555
O3 C4 1_555 1_555
O4 B1 1_555 1_555
N1 C3 1_555 1_555
C1 C5 1_555 1_555
C2 C5 1_555 1_555
C3 C13 1_555 1_555
C4 C12 1_555 1_555
C5 C6 1_555 1_555
C6 C9 1_555 1_555
C7 C1 1_555 1_555
B1 O1 1_555 1_555
C8 N1 1_555 1_555
C9 C10 1_555 1_555
C10 C11 1_555 1_555
C11 C2 1_555 1_555
C12 N1 1_555 1_555
C13 O4 1_555 1_555
H1 C6 1_555 1_555
H2 C9 1_555 1_555
H3 C10 1_555 1_555
H4 C11 1_555 1_555
H5 C2 1_555 1_555
H6 C1 1_555 1_555
H7 C3 1_555 1_555
H8 C3 1_555 1_555
H9 C8 1_555 1_555
H10 C8 1_555 1_555
H11 C8 1_555 1_555
H12 C12 1_555 1_555
H13 C12 1_555 1_555
N1 B1 1_555 1_555
C7 B1 1_555 1_555

#END
