
#######################################################################
#
#                 Cambridge Crystallographic Data Centre
#                                CCDC 
#
#######################################################################
#
# If this CIF has been generated from an entry in the Cambridge 
# Structural Database, then it will include bibliographic, chemical, 
# crystal, experimental, refinement or atomic coordinate data resulting 
# from the CCDC's data processing and validation procedures.
#
#######################################################################

data_BELZAU
_chemical_formula_moiety         'C33 H26 N6 O6'
_chemical_name_systematic        
'1,3-bis(8-Ethynyl-5,6-dihydro-5-methyl-6-oxo-4H-imidazo-(1,5-a)(1,4)benzodiazepine-3-carboxy)propyl diester'
_chemical_properties_biological  'selective BzR/GABA$A! antagonist'
_symmetry_cell_setting           monoclinic
_symmetry_space_group_name_H-M   'P 2/n'
_symmetry_Int_Tables_number      13
_space_group_name_Hall           '-P 2yac'
loop_
_symmetry_equiv_pos_site_id
_symmetry_equiv_pos_as_xyz
1 x,y,z
2 1/2+x,-y,1/2+z
3 -x,-y,-z
4 1/2-x,y,1/2-z
_cell_length_a                   6.9314(1)
_cell_length_b                   9.2889(1)
_cell_length_c                   22.5403(4)
_cell_angle_alpha                90
_cell_angle_beta                 95.316(1)
_cell_angle_gamma                90
_cell_volume                     1445.02
_exptl_crystal_description       plate
_cell_formula_units_Z            2
loop_
_atom_site_label
_atom_site_type_symbol
_atom_site_fract_x
_atom_site_fract_y
_atom_site_fract_z
C1 C 0.0583(3) 0.4957(2) 0.38384(10)
N1 N -0.0713(2) 0.5543(2) 0.42045(8)
C2 C 0.0302(3) 0.6423(2) 0.45525(10)
H1 H -0.0205 0.6965 0.4848
N2 N 0.2206(2) 0.64678(17) 0.44366(8)
C3 C 0.3729(3) 0.7252(2) 0.47567(9)
C4 C 0.3678(3) 0.7399(2) 0.53661(10)
H2 H 0.2650 0.7006 0.5549
C5 C 0.5123(3) 0.8119(2) 0.57063(10)
H3 H 0.5076 0.8205 0.6116
C6 C 0.6661(3) 0.8721(2) 0.54327(10)
C7 C 0.6658(3) 0.8620(2) 0.48222(9)
H4 H 0.7646 0.9068 0.4639
C8 C 0.5230(3) 0.7871(2) 0.44659(9)
C9 C 0.5409(3) 0.7917(2) 0.38063(10)
O1 O 0.6076(2) 0.89998(18) 0.35880(7)
N3 N 0.4863(2) 0.6755(2) 0.34765(8)
C10 C 0.4333(3) 0.5396(2) 0.37467(11)
H5 H 0.5296 0.5148 0.4070
H6 H 0.4303 0.4633 0.3452
C11 C 0.2394(3) 0.5524(2) 0.39784(9)
C12 C -0.0123(3) 0.3891(2) 0.33885(9)
O2 O -0.1791(2) 0.3537(2) 0.32936(8)
O3 O 0.1313(2) 0.33382(15) 0.30989(6)
C13 C 0.0735(3) 0.2297(3) 0.26324(10)
H7 H 0.0199 0.2793 0.2276
H8 H -0.0250 0.1659 0.2763
C14 C 0.2500 0.1438(4) 0.2500
H9 H 0.301(4) 0.081(3) 0.2867(10)
C15 C 0.5152(4) 0.6746(4) 0.28485(12)
H10 H 0.5480 0.7698 0.2726
H11 H 0.3983 0.6437 0.2623
H12 H 0.6186 0.6096 0.2780
C16 C 0.8236(3) 0.9416(2) 0.57810(10)
C17 C 0.9564(4) 0.9941(3) 0.60647(13)
H13 H 1.053(5) 1.043(4) 0.6280(14)
C13C C 0.4265(3) 0.2297(3) 0.23676(10)
O3C O 0.3687(2) 0.33382(15) 0.19011(6)
C12C C 0.5123(3) 0.3891(2) 0.16115(9)
C1C C 0.4417(3) 0.4957(2) 0.11616(10)
N1C N 0.5713(2) 0.5543(2) 0.07955(8)
C2C C 0.4698(3) 0.6423(2) 0.04475(10)
H1C H 0.5205 0.6965 0.0152
N2C N 0.2794(2) 0.64678(17) 0.05634(8)
C3C C 0.1271(3) 0.7252(2) 0.02433(9)
C4C C 0.1322(3) 0.7399(2) -0.03661(10)
H2C H 0.2350 0.7006 -0.0549
C5C C -0.0123(3) 0.8119(2) -0.07063(10)
H3C H -0.0076 0.8205 -0.1116
C6C C -0.1661(3) 0.8721(2) -0.04327(10)
C7C C -0.1658(3) 0.8620(2) 0.01778(9)
H4C H -0.2646 0.9068 0.0361
C8C C -0.0230(3) 0.7871(2) 0.05341(9)
C9C C -0.0409(3) 0.7917(2) 0.11937(10)
O1C O -0.1076(2) 0.89998(18) 0.14120(7)
N3C N 0.0137(2) 0.6755(2) 0.15235(8)
C10C C 0.0667(3) 0.5396(2) 0.12533(11)
H5C H -0.0296 0.5148 0.0930
H6C H 0.0697 0.4633 0.1548
C11C C 0.2606(3) 0.5524(2) 0.10216(9)
C15C C -0.0152(4) 0.6746(4) 0.21515(12)
H10C H -0.0480 0.7698 0.2274
H11C H 0.1017 0.6437 0.2377
H12C H -0.1186 0.6096 0.2220
C16C C -0.3236(3) 0.9416(2) -0.07810(10)
C17C C -0.4564(4) 0.9941(3) -0.10647(13)
H13C H -0.553(5) 1.043(4) -0.1280(14)
O2C O 0.6791(2) 0.3537(2) 0.17064(8)
H7C H 0.4801 0.2793 0.2724
H8C H 0.5250 0.1659 0.2237
H9C H 0.199(4) 0.081(3) 0.2133(10)
loop_
_geom_bond_atom_site_label_1
_geom_bond_atom_site_label_2
_geom_bond_site_symmetry_1
_geom_bond_site_symmetry_2
C1 N1 1_555 1_555
N1 C2 1_555 1_555
C2 H1 1_555 1_555
N2 C2 1_555 1_555
C3 N2 1_555 1_555
C4 C3 1_555 1_555
H2 C4 1_555 1_555
C5 C4 1_555 1_555
H3 C5 1_555 1_555
C6 C5 1_555 1_555
C7 C6 1_555 1_555
H4 C7 1_555 1_555
C8 C3 1_555 1_555
C9 C8 1_555 1_555
O1 C9 1_555 1_555
N3 C9 1_555 1_555
C10 N3 1_555 1_555
H5 C10 1_555 1_555
H6 C10 1_555 1_555
C11 C1 1_555 1_555
C12 C1 1_555 1_555
O2 C12 1_555 1_555
O3 C12 1_555 1_555
C13 O3 1_555 1_555
H7 C13 1_555 1_555
H8 C13 1_555 1_555
C14 C13 1_555 1_555
H9 C14 1_555 1_555
C15 N3 1_555 1_555
H10 C15 1_555 1_555
H11 C15 1_555 1_555
H12 C15 1_555 1_555
C16 C6 1_555 1_555
C17 C16 1_555 1_555
H13 C17 1_555 1_555
C13C C14 1_555 1_555
O3C C13C 1_555 1_555
C12C O3C 1_555 1_555
C1C C12C 1_555 1_555
N1C C1C 1_555 1_555
C2C N1C 1_555 1_555
H1C C2C 1_555 1_555
N2C C2C 1_555 1_555
C3C N2C 1_555 1_555
C4C C3C 1_555 1_555
H2C C4C 1_555 1_555
C5C C4C 1_555 1_555
H3C C5C 1_555 1_555
C6C C5C 1_555 1_555
C7C C6C 1_555 1_555
H4C C7C 1_555 1_555
C8C C3C 1_555 1_555
C9C C8C 1_555 1_555
O1C C9C 1_555 1_555
N3C C9C 1_555 1_555
C10C N3C 1_555 1_555
H5C C10C 1_555 1_555
H6C C10C 1_555 1_555
C11C C1C 1_555 1_555
C15C N3C 1_555 1_555
H10C C15C 1_555 1_555
H11C C15C 1_555 1_555
H12C C15C 1_555 1_555
C16C C6C 1_555 1_555
C17C C16C 1_555 1_555
H13C C17C 1_555 1_555
O2C C12C 1_555 1_555
H7C C13C 1_555 1_555
H8C C13C 1_555 1_555
H9C C14 1_555 1_555
N2 C11 1_555 1_555
C7 C8 1_555 1_555
C10 C11 1_555 1_555
N2C C11C 1_555 1_555
C7C C8C 1_555 1_555
C10C C11C 1_555 1_555

#END
