
#######################################################################
#
#                 Cambridge Crystallographic Data Centre
#                                CCDC 
#
#######################################################################
#
# If this CIF has been generated from an entry in the Cambridge 
# Structural Database, then it will include bibliographic, chemical, 
# crystal, experimental, refinement or atomic coordinate data resulting 
# from the CCDC's data processing and validation procedures.
#
#######################################################################

data_BEMCIH01
_chemical_formula_moiety         'C6 N8 O8 2-,2(C1 H7 N4 1+)'
_chemical_name_systematic        
"bis(Aminoguanidinium) 4,4',5,5'-tetranitro-2,2'-bi-imidazol-1,1'-di-ide"
_symmetry_cell_setting           triclinic
_symmetry_space_group_name_H-M   'P -1'
_symmetry_Int_Tables_number      2
_space_group_name_Hall           '-P 1'
loop_
_symmetry_equiv_pos_site_id
_symmetry_equiv_pos_as_xyz
1 x,y,z
2 -x,-y,-z
_cell_length_a                   5.2717(3)
_cell_length_b                   7.8352(4)
_cell_length_c                   11.3995(6)
_cell_angle_alpha                90.593(3)
_cell_angle_beta                 98.038(5)
_cell_angle_gamma                103.787(6)
_cell_volume                     452.328
_exptl_crystal_colour            red
_exptl_crystal_description       needle
_cell_formula_units_Z            1
loop_
_atom_site_label
_atom_site_type_symbol
_atom_site_fract_x
_atom_site_fract_y
_atom_site_fract_z
C1 C 0.7790(3) 0.3227(2) 0.28088(14)
C2 C 0.5990(3) 0.2548(2) 0.35687(14)
N1 N 0.6864(2) 0.33110(18) 0.46578(12)
C3 C 0.9161(3) 0.4424(2) 0.45134(14)
N2 N 0.9818(2) 0.44255(18) 0.34061(11)
N3 N 0.7815(3) 0.27783(18) 0.15886(12)
O1 O 0.8918(3) 0.39348(18) 0.09838(11)
O2 O 0.6807(3) 0.12688(17) 0.12058(12)
N4 N 0.3457(3) 0.13590(19) 0.33007(13)
O3 O 0.2449(3) 0.1091(2) 0.22536(12)
O4 O 0.2338(3) 0.0681(2) 0.41053(12)
C1A C 1.2210(3) 0.6773(2) 0.71912(14)
C2A C 1.4010(3) 0.7452(2) 0.64313(14)
N1A N 1.3136(2) 0.66890(18) 0.53422(12)
C3A C 1.0839(3) 0.5576(2) 0.54866(14)
N2A N 1.0182(2) 0.55745(18) 0.65939(11)
N3A N 1.2185(3) 0.72217(18) 0.84114(12)
O1A O 1.1082(3) 0.60652(18) 0.90162(11)
O2A O 1.3193(3) 0.87312(17) 0.87942(12)
N4A N 1.6543(3) 0.86410(19) 0.66993(13)
O3A O 1.7551(3) 0.8909(2) 0.77464(12)
O4A O 1.7662(3) 0.9319(2) 0.58947(12)
N5 N 0.3379(4) 0.2125(3) 0.64999(16)
H1 H 0.456(5) 0.254(3) 0.605(2)
H2 H 0.180(5) 0.143(3) 0.622(2)
C4 C 0.3812(3) 0.2670(2) 0.76191(16)
N6 N 0.6029(3) 0.3762(3) 0.80816(18)
H3 H 0.721(5) 0.416(3) 0.764(2)
H4 H 0.614(5) 0.404(3) 0.878(3)
N7 N 0.1935(3) 0.2104(2) 0.82922(14)
H5 H 0.059(5) 0.116(3) 0.800(2)
N8 N 0.2531(4) 0.2490(3) 0.95161(15)
H6 H 0.117(6) 0.283(4) 0.973(2)
H7 H 0.276(6) 0.141(4) 0.989(3)
loop_
_geom_bond_atom_site_label_1
_geom_bond_atom_site_label_2
_geom_bond_site_symmetry_1
_geom_bond_site_symmetry_2
C1 C2 1_555 1_555
C2 N1 1_555 1_555
N1 C3 1_555 1_555
C3 N2 1_555 1_555
N2 C1 1_555 1_555
N3 C1 1_555 1_555
O1 N3 1_555 1_555
O2 N3 1_555 1_555
N4 C2 1_555 1_555
O3 N4 1_555 1_555
O4 N4 1_555 1_555
N5 H1 1_555 1_555
H2 N5 1_555 1_555
C4 N5 1_555 1_555
N6 C4 1_555 1_555
H3 N6 1_555 1_555
H4 N6 1_555 1_555
N7 C4 1_555 1_555
H5 N7 1_555 1_555
N8 N7 1_555 1_555
H6 N8 1_555 1_555
H7 N8 1_555 1_555
C1A C2A 1_555 1_555
C2A N1A 1_555 1_555
N1A C3A 1_555 1_555
C3A C3 1_555 1_555
N2A C1A 1_555 1_555
N3A C1A 1_555 1_555
O1A N3A 1_555 1_555
O2A N3A 1_555 1_555
N4A C2A 1_555 1_555
O3A N4A 1_555 1_555
O4A N4A 1_555 1_555
C3A N2A 1_555 1_555

#END
