
#######################################################################
#
#                 Cambridge Crystallographic Data Centre
#                                CCDC 
#
#######################################################################
#
# If this CIF has been generated from an entry in the Cambridge 
# Structural Database, then it will include bibliographic, chemical, 
# crystal, experimental, refinement or atomic coordinate data resulting 
# from the CCDC's data processing and validation procedures.
#
#######################################################################

data_BEMGOS
_chemical_formula_moiety         'C7 H11 N1 O2 S1'
_chemical_name_systematic        4-isobutyl-1,3-thiazolidine-2,5-dione
_symmetry_cell_setting           orthorhombic
_symmetry_space_group_name_H-M   'P 21 21 2'
_symmetry_Int_Tables_number      18
_space_group_name_Hall           'P 2 2ab'
loop_
_symmetry_equiv_pos_site_id
_symmetry_equiv_pos_as_xyz
1 x,y,z
2 -x,-y,z
3 1/2-x,1/2+y,-z
4 1/2+x,1/2-y,-z
_cell_length_a                   13.2424(9)
_cell_length_b                   23.4593(18)
_cell_length_c                   5.5565(4)
_cell_angle_alpha                90
_cell_angle_beta                 90
_cell_angle_gamma                90
_cell_volume                     1726.17
_exptl_crystal_colour            colorless
_exptl_crystal_description       needle
_cell_formula_units_Z            8
loop_
_atom_site_label
_atom_site_type_symbol
_atom_site_fract_x
_atom_site_fract_y
_atom_site_fract_z
S1 S 0.50870(8) 0.78020(5) -0.2839(2)
O1 O 0.4169(2) 0.72420(13) 0.0663(5)
O2 O 0.5228(2) 0.88742(15) -0.4278(6)
N1 N 0.3814(3) 0.81912(17) 0.0264(7)
H1 H 0.334(3) 0.817(2) 0.115(7)
C1 C 0.4269(3) 0.7707(2) -0.0326(7)
C2 C 0.4824(3) 0.8544(2) -0.2960(9)
C3 C 0.3960(3) 0.8693(2) -0.1239(8)
H2 H 0.3334 0.8755 -0.2209
C4 C 0.4163(3) 0.9225(2) 0.0225(8)
H3 H 0.4364 0.9537 -0.0875
H4 H 0.4736 0.9151 0.1328
C5 C 0.3243(4) 0.9420(2) 0.1715(9)
H5 H 0.3026 0.9096 0.2766
C6 C 0.3538(4) 0.9916(2) 0.3307(9)
H6 H 0.3701 1.0247 0.2303
H7 H 0.4130 0.9811 0.4269
H8 H 0.2975 1.0010 0.4379
C7 C 0.2362(4) 0.9587(3) 0.0123(10)
H9 H 0.1812 0.9736 0.1123
H10 H 0.2126 0.9253 -0.0769
H11 H 0.2579 0.9882 -0.1014
S2 S 0.16898(8) 0.74288(5) 0.7997(2)
O3 O 0.2547(2) 0.80393(13) 0.4543(6)
O4 O 0.1700(2) 0.63487(14) 0.9407(6)
N2 N 0.2824(3) 0.70761(17) 0.4537(7)
H12 H 0.329(3) 0.709(2) 0.353(7)
C8 C 0.2447(3) 0.7560(2) 0.5359(8)
C9 C 0.1975(3) 0.66852(19) 0.7912(9)
C10 C 0.2645(3) 0.65406(19) 0.5768(8)
H13 H 0.2273 0.6276 0.4668
C11 C 0.3612(3) 0.6252(2) 0.6630(8)
H14 H 0.3430 0.5884 0.7386
H15 H 0.3921 0.6494 0.7892
C12 C 0.4405(3) 0.6140(2) 0.4693(9)
H16 H 0.4555 0.6507 0.3850
C13 C 0.5377(3) 0.5927(2) 0.5897(10)
H17 H 0.5226 0.5589 0.6869
H18 H 0.5651 0.6227 0.6934
H19 H 0.5874 0.5829 0.4658
C14 C 0.4031(4) 0.5709(2) 0.2836(9)
H20 H 0.3887 0.5345 0.3635
H21 H 0.4553 0.5651 0.1608
H22 H 0.3415 0.5853 0.2074
loop_
_geom_bond_atom_site_label_1
_geom_bond_atom_site_label_2
_geom_bond_site_symmetry_1
_geom_bond_site_symmetry_2
S1 C1 1_555 1_555
O1 C1 1_555 1_555
O2 C2 1_555 1_555
N1 H1 1_555 1_555
C1 N1 1_555 1_555
C2 S1 1_555 1_555
C3 N1 1_555 1_555
H2 C3 1_555 1_555
C4 C3 1_555 1_555
H3 C4 1_555 1_555
H4 C4 1_555 1_555
C5 C4 1_555 1_555
H5 C5 1_555 1_555
C6 C5 1_555 1_555
H6 C6 1_555 1_555
H7 C6 1_555 1_555
H8 C6 1_555 1_555
C7 C5 1_555 1_555
H9 C7 1_555 1_555
H10 C7 1_555 1_555
H11 C7 1_555 1_555
S2 C8 1_555 1_555
O3 C8 1_555 1_555
O4 C9 1_555 1_555
N2 H12 1_555 1_555
C8 N2 1_555 1_555
C9 S2 1_555 1_555
C10 N2 1_555 1_555
H13 C10 1_555 1_555
C11 C10 1_555 1_555
H14 C11 1_555 1_555
H15 C11 1_555 1_555
C12 C11 1_555 1_555
H16 C12 1_555 1_555
C13 C12 1_555 1_555
H17 C13 1_555 1_555
H18 C13 1_555 1_555
H19 C13 1_555 1_555
C14 C12 1_555 1_555
H20 C14 1_555 1_555
H21 C14 1_555 1_555
H22 C14 1_555 1_555
C2 C3 1_555 1_555
C9 C10 1_555 1_555

#END
