
#######################################################################
#
#                 Cambridge Crystallographic Data Centre
#                                CCDC 
#
#######################################################################
#
# If this CIF has been generated from an entry in the Cambridge 
# Structural Database, then it will include bibliographic, chemical, 
# crystal, experimental, refinement or atomic coordinate data resulting 
# from the CCDC's data processing and validation procedures.
#
#######################################################################

data_BEMTIY
_chemical_compound_source        'root of Isatis indigotica'
_chemical_formula_moiety         'C10 H8 N2 O3'
_chemical_name_systematic        
(3,4-Dihydroxy-2-oxo-2,3-dihydro-1H-indol-3-yl)acetonitrile
_symmetry_cell_setting           orthorhombic
_symmetry_space_group_name_H-M   'P 21 21 21'
_symmetry_Int_Tables_number      19
_space_group_name_Hall           'P 2ac 2ab'
loop_
_symmetry_equiv_pos_site_id
_symmetry_equiv_pos_as_xyz
1 x,y,z
2 1/2-x,-y,1/2+z
3 -x,1/2+y,1/2-z
4 1/2+x,1/2-y,-z
_cell_length_a                   7.031(5)
_cell_length_b                   7.138(8)
_cell_length_c                   17.970(12)
_cell_angle_alpha                90
_cell_angle_beta                 90
_cell_angle_gamma                90
_cell_volume                     901.865
_exptl_crystal_colour            colorless
_exptl_crystal_description       block
_cell_formula_units_Z            4
loop_
_atom_site_label
_atom_site_type_symbol
_atom_site_fract_x
_atom_site_fract_y
_atom_site_fract_z
N1 N -0.0982(2) -0.7989(2) -0.15604(8)
H1 H -0.0792 -0.6940 -0.1784
N2 N -0.3655(4) -1.4118(4) -0.26486(13)
O1 O -0.0822(2) -0.9946(2) -0.25744(7)
O2 O 0.00021(17) -1.2505(2) -0.13122(6)
H2 H 0.0002 -1.3094 -0.1704
O3 O -0.2152(2) -1.2433(2) 0.02643(7)
H3 H -0.2997 -1.2533 0.0576
C1 C -0.1070(3) -0.9644(3) -0.19052(10)
C2 C -0.1492(2) -1.1184(3) -0.13201(9)
C3 C -0.1509(2) -1.0039(3) -0.06114(9)
C4 C -0.1834(3) -1.0575(3) 0.01190(10)
C5 C -0.1785(3) -0.9203(3) 0.06693(10)
H4 H -0.1932 -0.9538 0.1166
C6 C -0.1522(3) -0.7356(3) 0.04810(11)
H5 H -0.1514 -0.6461 0.0857
C7 C -0.1265(3) -0.6771(3) -0.02519(11)
H6 H -0.1119 -0.5515 -0.0377
C8 C -0.1241(3) -0.8174(3) -0.07823(10)
C9 C -0.3438(3) -1.2105(3) -0.14508(10)
H7 H -0.3728 -1.2906 -0.1030
H8 H -0.4400 -1.1132 -0.1470
C10 C -0.3552(3) -1.3215(3) -0.21302(12)
loop_
_geom_bond_atom_site_label_1
_geom_bond_atom_site_label_2
_geom_bond_site_symmetry_1
_geom_bond_site_symmetry_2
N1 H1 1_555 1_555
N2 C10 1_555 1_555
O1 C1 1_555 1_555
O2 H2 1_555 1_555
O3 H3 1_555 1_555
C1 N1 1_555 1_555
C2 O2 1_555 1_555
C3 C2 1_555 1_555
C4 O3 1_555 1_555
C5 C4 1_555 1_555
H4 C5 1_555 1_555
C6 C5 1_555 1_555
H5 C6 1_555 1_555
C7 C6 1_555 1_555
H6 C7 1_555 1_555
C8 N1 1_555 1_555
C9 C2 1_555 1_555
H7 C9 1_555 1_555
H8 C9 1_555 1_555
C10 C9 1_555 1_555
C1 C2 1_555 1_555
C3 C4 1_555 1_555
C3 C8 1_555 1_555
C7 C8 1_555 1_555

#END
