
#######################################################################
#
#                 Cambridge Crystallographic Data Centre
#                                CCDC 
#
#######################################################################
#
# If this CIF has been generated from an entry in the Cambridge 
# Structural Database, then it will include bibliographic, chemical, 
# crystal, experimental, refinement or atomic coordinate data resulting 
# from the CCDC's data processing and validation procedures.
#
#######################################################################

data_BEMTEU
_chemical_compound_source        'root of Isatis indigotica'
_chemical_formula_moiety         'C17 H12 N2 O3'
_chemical_name_systematic        
2a-Hydroxy-2a,11c-dihydro-7H-6b,11b-diazabenzo[b]cyclopenta[lm]fluorene-1,7(2H)-dione
_symmetry_cell_setting           orthorhombic
_symmetry_space_group_name_H-M   'P c a b'
_symmetry_Int_Tables_number      61
_space_group_name_Hall           '-P 2bc 2ac'
loop_
_symmetry_equiv_pos_site_id
_symmetry_equiv_pos_as_xyz
1 x,y,z
2 -x,1/2-y,1/2+z
3 1/2+x,-y,1/2-z
4 1/2-x,1/2+y,-z
5 -x,-y,-z
6 x,1/2+y,1/2-z
7 1/2-x,y,1/2+z
8 1/2+x,1/2-y,z
_cell_length_a                   11.145(3)
_cell_length_b                   14.533(5)
_cell_length_c                   16.506(4)
_cell_angle_alpha                90
_cell_angle_beta                 90
_cell_angle_gamma                90
_cell_volume                     2673.48
_exptl_crystal_colour            colorless
_exptl_crystal_description       plane
_cell_formula_units_Z            8
loop_
_atom_site_label
_atom_site_type_symbol
_atom_site_fract_x
_atom_site_fract_y
_atom_site_fract_z
N1 N 0.91073(9) 0.22954(6) 0.41934(6)
N2 N 0.81338(9) 0.08679(6) 0.44129(6)
O1 O 1.09653(9) 0.03275(6) 0.40371(7)
H1 H 1.1562 0.0639 0.4133
O2 O 0.71288(9) -0.02164(6) 0.36638(7)
O3 O 0.80396(9) 0.36087(5) 0.43844(6)
C1 C 0.92681(11) 0.13291(7) 0.44170(7)
H2 H 0.9663 0.1272 0.4945
C2 C 1.00420(12) 0.08999(8) 0.37361(8)
C3 C 1.04937(12) 0.17418(8) 0.32940(8)
C4 C 1.13842(14) 0.18058(10) 0.27144(9)
H3 H 1.1774 0.1281 0.2528
C5 C 1.16858(14) 0.26666(12) 0.24169(9)
H4 H 1.2290 0.2721 0.2031
C6 C 1.10953(14) 0.34461(11) 0.26883(8)
H5 H 1.1300 0.4016 0.2472
C7 C 1.02073(13) 0.33971(9) 0.32738(8)
H6 H 0.9815 0.3922 0.3457
C8 C 0.99283(11) 0.25327(8) 0.35756(7)
C9 C 0.91368(14) 0.02846(10) 0.32845(10)
H7 H 0.8966 0.0538 0.2753
H8 H 0.9462 -0.0330 0.3216
C10 C 0.80071(12) 0.02510(8) 0.37875(8)
C11 C 0.73447(11) 0.22297(8) 0.50182(7)
C12 C 0.72448(11) 0.12744(8) 0.49060(7)
C13 C 0.63298(13) 0.07818(9) 0.52749(8)
H9 H 0.6251 0.0153 0.5185
C14 C 0.55344(13) 0.12378(10) 0.57790(9)
H10 H 0.4914 0.0913 0.6024
C15 C 0.56548(13) 0.21733(10) 0.59217(9)
H11 H 0.5133 0.2470 0.6276
C16 C 0.65477(13) 0.26643(9) 0.55382(8)
H12 H 0.6617 0.3294 0.5629
C17 C 0.81931(11) 0.27854(7) 0.45202(7)
loop_
_geom_bond_atom_site_label_1
_geom_bond_atom_site_label_2
_geom_bond_site_symmetry_1
_geom_bond_site_symmetry_2
N1 C1 1_555 1_555
N2 C1 1_555 1_555
O1 H1 1_555 1_555
O2 C10 1_555 1_555
O3 C17 1_555 1_555
C1 H2 1_555 1_555
C2 O1 1_555 1_555
C3 C2 1_555 1_555
C4 C3 1_555 1_555
H3 C4 1_555 1_555
C5 C4 1_555 1_555
H4 C5 1_555 1_555
C6 C5 1_555 1_555
H5 C6 1_555 1_555
C7 C6 1_555 1_555
H6 C7 1_555 1_555
C8 N1 1_555 1_555
C9 C2 1_555 1_555
H7 C9 1_555 1_555
H8 C9 1_555 1_555
C10 N2 1_555 1_555
C11 C12 1_555 1_555
C12 N2 1_555 1_555
C13 C12 1_555 1_555
H9 C13 1_555 1_555
C14 C13 1_555 1_555
H10 C14 1_555 1_555
C15 C14 1_555 1_555
H11 C15 1_555 1_555
C16 C11 1_555 1_555
H12 C16 1_555 1_555
C17 N1 1_555 1_555
C1 C2 1_555 1_555
C3 C8 1_555 1_555
C7 C8 1_555 1_555
C9 C10 1_555 1_555
C11 C17 1_555 1_555
C15 C16 1_555 1_555

#END
