
#######################################################################
#
#                 Cambridge Crystallographic Data Centre
#                                CCDC 
#
#######################################################################
#
# If this CIF has been generated from an entry in the Cambridge 
# Structural Database, then it will include bibliographic, chemical, 
# crystal, experimental, refinement or atomic coordinate data resulting 
# from the CCDC's data processing and validation procedures.
#
#######################################################################

data_BEMVUN
_chemical_formula_moiety         'C11 H10 N2 O2'
_chemical_name_systematic        'methyl 4-(1H-imidazol-1-yl)benzoate'
_symmetry_cell_setting           monoclinic
_symmetry_space_group_name_H-M   'P 21'
_symmetry_Int_Tables_number      4
_space_group_name_Hall           'P 2yb'
loop_
_symmetry_equiv_pos_site_id
_symmetry_equiv_pos_as_xyz
1 x,y,z
2 -x,1/2+y,-z
_cell_length_a                   3.8334(3)
_cell_length_b                   7.1730(5)
_cell_length_c                   17.1158(12)
_cell_angle_alpha                90
_cell_angle_beta                 95.692(3)
_cell_angle_gamma                90
_cell_volume                     468.312
_exptl_crystal_colour            colorless
_exptl_crystal_description       block
_chemical_melting_point          '391.15-393.15 K'
_cell_formula_units_Z            2
loop_
_atom_site_label
_atom_site_type_symbol
_atom_site_fract_x
_atom_site_fract_y
_atom_site_fract_z
O1 O 0.8001(3) 1.0955(2) 0.56779(7)
O2 O 0.8209(4) 1.3345(2) 0.65261(8)
N1 N 0.2816(4) 0.6593(2) 0.85709(8)
N2 N 0.2020(4) 0.5312(2) 0.97240(9)
C1 C 0.3242(5) 0.6762(3) 0.93735(10)
H1 H 0.4298 0.7808 0.9643
C2 C 0.1201(4) 0.4890(3) 0.84139(10)
H2 H 0.0566 0.4356 0.7912
C3 C 0.0709(5) 0.4139(3) 0.91226(10)
H3 H -0.0382 0.2972 0.9196
C4 C 0.3982(4) 0.7867(3) 0.80213(10)
C5 C 0.4431(4) 0.9741(3) 0.82178(11)
H4 H 0.3937 1.0174 0.8720
C6 C 0.5600(4) 1.0968(3) 0.76783(11)
H5 H 0.5902 1.2247 0.7813
C7 C 0.6342(4) 1.0356(3) 0.69397(11)
C8 C 0.5897(4) 0.8467(3) 0.67514(11)
H6 H 0.6408 0.8031 0.6251
C9 C 0.4724(4) 0.7231(3) 0.72848(11)
H7 H 0.4423 0.5952 0.7151
C10 C 0.7603(5) 1.1719(3) 0.63833(10)
C11 C 0.9242(5) 1.2215(3) 0.51079(12)
H8 H 1.1524 1.2724 0.5313
H9 H 0.7561 1.3237 0.5006
H10 H 0.9483 1.1540 0.4618
loop_
_geom_bond_atom_site_label_1
_geom_bond_atom_site_label_2
_geom_bond_site_symmetry_1
_geom_bond_site_symmetry_2
O1 C10 1_555 1_555
O2 C10 1_555 1_555
N1 C1 1_555 1_555
N2 C1 1_555 1_555
C1 H1 1_555 1_555
C2 N1 1_555 1_555
H2 C2 1_555 1_555
C3 N2 1_555 1_555
H3 C3 1_555 1_555
C4 N1 1_555 1_555
C5 C4 1_555 1_555
H4 C5 1_555 1_555
C6 C5 1_555 1_555
H5 C6 1_555 1_555
C7 C6 1_555 1_555
C8 C7 1_555 1_555
H6 C8 1_555 1_555
C9 C4 1_555 1_555
H7 C9 1_555 1_555
C10 C7 1_555 1_555
C11 O1 1_555 1_555
H8 C11 1_555 1_555
H9 C11 1_555 1_555
H10 C11 1_555 1_555
C2 C3 1_555 1_555
C8 C9 1_555 1_555

#END
