
#######################################################################
#
#                 Cambridge Crystallographic Data Centre
#                                CCDC 
#
#######################################################################
#
# If this CIF has been generated from an entry in the Cambridge 
# Structural Database, then it will include bibliographic, chemical, 
# crystal, experimental, refinement or atomic coordinate data resulting 
# from the CCDC's data processing and validation procedures.
#
#######################################################################

data_BEMVAS
_chemical_compound_source        
'fermentation extract of the marine-derived fungus Acremonium persicinum SCSIO 115'
_chemical_name_common            
'cordyheptapeptide C methanol solvate monohydrate'
_chemical_formula_moiety         'C48 H63 N7 O8,C1 H4 O1,H2 O1'
_chemical_name_systematic        
'Cyclo(N-methylglycyl-phenylalanyl-N-methyltyrosyl-valyl-leucyl-N-methylphenylalanyl-prolyl) methanol solvate monohydrate'
_symmetry_cell_setting           monoclinic
_symmetry_space_group_name_H-M   'P 21'
_symmetry_Int_Tables_number      4
_space_group_name_Hall           'P 2yb'
loop_
_symmetry_equiv_pos_site_id
_symmetry_equiv_pos_as_xyz
1 x,y,z
2 -x,1/2+y,-z
_cell_length_a                   12.49951(14)
_cell_length_b                   13.38735(14)
_cell_length_c                   14.86156(15)
_cell_angle_alpha                90
_cell_angle_beta                 99.9697(11)
_cell_angle_gamma                90
_cell_volume                     2449.31
_exptl_crystal_colour            colorless
_cell_formula_units_Z            2
_exptl_crystal_recrystallization_method methanol
loop_
_atom_site_label
_atom_site_type_symbol
_atom_site_fract_x
_atom_site_fract_y
_atom_site_fract_z
N1 N 0.05876(16) 0.58158(16) 0.54122(13)
N2 N 0.28221(15) 0.56874(15) 0.46692(13)
N3 N 0.31831(16) 0.37163(15) 0.30537(13)
N4 N 0.25087(16) 0.24186(15) 0.16554(13)
N5 N 0.12848(15) 0.41754(15) 0.00463(13)
N6 N 0.04047(16) 0.56213(16) 0.15472(13)
N7 N -0.04850(17) 0.49085(16) 0.30613(13)
O1 O 0.17126(15) 0.69125(14) 0.62417(11)
O2 O 0.19219(13) 0.53313(13) 0.32506(11)
O3 O 0.31861(15) 0.25018(14) 0.41190(11)
O4 O 0.07304(14) 0.28125(14) 0.12996(12)
O5 O 0.24217(13) 0.46716(12) 0.13105(10)
O6 O -0.12700(14) 0.56911(16) 0.06844(12)
O7 O -0.06379(14) 0.63760(14) 0.37779(12)
O8 O 0.21861(15) 0.41592(13) -0.38329(12)
C1 C 0.14589(19) 0.64249(18) 0.55347(16)
C2 C -0.0033(2) 0.5693(2) 0.61574(16)
H1 H -0.0297 0.6331 0.6338
H2 H 0.0405 0.5380 0.6685
C3 C -0.0974(2) 0.5016(2) 0.57356(18)
H3 H -0.1246 0.4631 0.6201
H4 H -0.1565 0.5400 0.5393
C4 C -0.0450(2) 0.4341(2) 0.51076(17)
H5 H -0.0993 0.4052 0.4633
H6 H -0.0040 0.3807 0.5449
C5 C 0.03080(19) 0.50617(18) 0.46971(15)
H7 H 0.0962 0.4710 0.4590
C6 C -0.02973(19) 0.55104(18) 0.38049(16)
C7 C -0.1193(2) 0.5250(2) 0.22431(17)
H8 H -0.1592 0.5825 0.2406
H9 H -0.1720 0.4727 0.2049
C8 C -0.06743(19) 0.55375(18) 0.14270(16)
C9 C 0.09810(19) 0.58004(17) 0.07848(15)
H10 H 0.0459 0.5910 0.0221
C10 C 0.16257(18) 0.48448(18) 0.07080(15)
C11 C 0.17960(19) 0.31820(18) 0.01569(16)
H11 H 0.1361 0.2750 -0.0298
C12 C 0.16360(19) 0.27847(17) 0.10954(15)
C13 C 0.24498(19) 0.20683(18) 0.25659(15)
H12 H 0.1676 0.2048 0.2608
C14 C 0.29832(18) 0.27918(18) 0.33153(15)
C15 C 0.36203(19) 0.45008(18) 0.36946(16)
H13 H 0.3978 0.4205 0.4272
C16 C 0.27069(18) 0.51959(17) 0.38634(15)
C17 C 0.20939(19) 0.65442(18) 0.47408(16)
H14 H 0.1567 0.6584 0.4171
C18 C -0.0132(2) 0.3866(2) 0.30476(17)
H15 H 0.0471 0.3757 0.3533
H16 H 0.0085 0.3724 0.2472
H17 H -0.0720 0.3433 0.3129
C19 C 0.1752(2) 0.66937(18) 0.09726(16)
H18 H 0.1334 0.7291 0.1038
H19 H 0.2247 0.6586 0.1544
C20 C 0.2403(2) 0.68498(17) 0.02138(17)
C21 C 0.3516(2) 0.66800(19) 0.03646(18)
H20 H 0.3866 0.6482 0.0941
C22 C 0.4116(2) 0.6802(2) -0.0335(2)
H21 H 0.4863 0.6695 -0.0222
C23 C 0.3600(2) 0.7083(2) -0.1196(2)
H22 H 0.3997 0.7160 -0.1666
C24 C 0.2491(2) 0.7250(2) -0.13565(19)
H23 H 0.2143 0.7435 -0.1937
C25 C 0.1896(2) 0.71425(19) -0.06566(18)
H24 H 0.1153 0.7267 -0.0769
C26 C 0.0351(2) 0.4317(2) -0.06850(18)
H25 H -0.0307 0.4205 -0.0450
H26 H 0.0393 0.3851 -0.1169
H27 H 0.0355 0.4986 -0.0916
C27 C 0.2952(2) 0.31830(18) -0.00713(16)
H28 H 0.3398 0.3670 0.0305
H29 H 0.3281 0.2530 0.0051
C28 C 0.28812(19) 0.34419(19) -0.10668(16)
C29 C 0.2898(2) 0.44298(19) -0.13680(17)
H30 H 0.3061 0.4942 -0.0944
C30 C 0.2674(2) 0.46552(19) -0.22941(17)
H31 H 0.2690 0.5315 -0.2486
C31 C 0.24267(19) 0.38989(19) -0.29313(16)
C32 C 0.2446(2) 0.29079(19) -0.26411(17)
H32 H 0.2308 0.2393 -0.3066
C33 C 0.2672(2) 0.26957(19) -0.17165(16)
H33 H 0.2684 0.2033 -0.1527
C34 C 0.2869(2) 0.09911(19) 0.27185(17)
H34 H 0.2830 0.0806 0.3350
C35 C 0.4050(2) 0.0893(2) 0.25927(19)
H35 H 0.4312 0.0237 0.2776
H36 H 0.4483 0.1384 0.2961
H37 H 0.4099 0.0997 0.1962
C36 C 0.2120(2) 0.0297(2) 0.20920(18)
H38 H 0.1390 0.0377 0.2200
H39 H 0.2348 -0.0382 0.2213
H40 H 0.2150 0.0458 0.1467
C37 C 0.4434(2) 0.5138(2) 0.3280(2)
H41 H 0.4040 0.5451 0.2733
H42 H 0.4680 0.5671 0.3710
C38 C 0.5413(4) 0.4657(4) 0.3034(5)
H43 H 0.5269 0.3939 0.2958
C39 C 0.5744(5) 0.5049(7) 0.2167(4)
H44 H 0.5149 0.4976 0.1668
H45 H 0.6358 0.4677 0.2040
H46 H 0.5935 0.5742 0.2244
C40 C 0.6332(6) 0.4801(5) 0.3854(5)
H47 H 0.6451 0.5502 0.3966
H48 H 0.6985 0.4500 0.3725
H49 H 0.6134 0.4493 0.4385
C41 C 0.37468(19) 0.55572(19) 0.54144(16)
H50 H 0.3881 0.4858 0.5522
H51 H 0.3586 0.5864 0.5959
H52 H 0.4380 0.5865 0.5250
C42 C 0.2735(2) 0.75268(18) 0.48552(16)
H53 H 0.2226 0.8078 0.4825
H54 H 0.3185 0.7537 0.5457
C43 C 0.3452(2) 0.76875(17) 0.41445(16)
C44 C 0.3013(2) 0.77844(18) 0.32240(17)
H55 H 0.2265 0.7741 0.3036
C45 C 0.3683(2) 0.79452(18) 0.25814(18)
H56 H 0.3382 0.8012 0.1967
C46 C 0.4801(2) 0.80065(19) 0.28568(18)
H57 H 0.5249 0.8116 0.2427
C47 C 0.5245(2) 0.79053(19) 0.37667(19)
H58 H 0.5994 0.7943 0.3952
C48 C 0.4577(2) 0.77478(18) 0.44071(17)
H59 H 0.4883 0.7681 0.5021
H60 H 0.201(3) 0.369(2) -0.417(2)
H61 H 0.3085(18) 0.244(2) 0.1475(19)
H62 H 0.077(2) 0.553(3) 0.2044(15)
H63 H 0.295(3) 0.389(3) 0.2499(15)
O9 O 0.65432(16) 0.56185(15) 0.99481(16)
H64 H 0.7159 0.5604 1.0248
C49 C 0.6144(3) 0.4633(3) 0.9803(3)
H65 H 0.6111 0.4325 1.0381
H66 H 0.6620 0.4255 0.9491
H67 H 0.5430 0.4649 0.9440
O10 O 0.14634(17) 0.26579(15) 0.50339(12)
H68 H 0.203(4) 0.250(4) 0.476(3)
H69 H 0.112(4) 0.219(4) 0.527(3)
C50? C 0.5638(7) 0.4606(6) 0.3554(7)
H70? H 0.5729 0.4370 0.4187
C51? C 0.5735(6) 0.3725(6) 0.2937(6)
H71? H 0.5557 0.3933 0.2311
H72? H 0.5243 0.3209 0.3052
H73? H 0.6466 0.3475 0.3057
C52? C 0.6522(6) 0.5406(6) 0.3480(7)
H74? H 0.7228 0.5105 0.3620
H75? H 0.6470 0.5937 0.3904
H76? H 0.6413 0.5669 0.2870
H77? H 0.4454 0.5803 0.3526
H78? H 0.4226 0.5160 0.2628
loop_
_geom_bond_atom_site_label_1
_geom_bond_atom_site_label_2
_geom_bond_site_symmetry_1
_geom_bond_site_symmetry_2
N1 C1 1_555 1_555
N2 C16 1_555 1_555
N3 C14 1_555 1_555
N4 C12 1_555 1_555
N5 C10 1_555 1_555
N6 C8 1_555 1_555
N7 C6 1_555 1_555
O1 C1 1_555 1_555
O2 C16 1_555 1_555
O3 C14 1_555 1_555
O4 C12 1_555 1_555
O5 C10 1_555 1_555
O6 C8 1_555 1_555
O7 C6 1_555 1_555
O8 C31 1_555 1_555
C1 C17 1_555 1_555
C2 N1 1_555 1_555
H1 C2 1_555 1_555
H2 C2 1_555 1_555
C3 C2 1_555 1_555
H3 C3 1_555 1_555
H4 C3 1_555 1_555
C4 C3 1_555 1_555
H5 C4 1_555 1_555
H6 C4 1_555 1_555
C5 N1 1_555 1_555
H7 C5 1_555 1_555
C6 C5 1_555 1_555
C7 N7 1_555 1_555
H8 C7 1_555 1_555
H9 C7 1_555 1_555
C8 C7 1_555 1_555
C9 N6 1_555 1_555
H10 C9 1_555 1_555
C10 C9 1_555 1_555
C11 N5 1_555 1_555
H11 C11 1_555 1_555
C12 C11 1_555 1_555
C13 N4 1_555 1_555
H12 C13 1_555 1_555
C14 C13 1_555 1_555
C15 N3 1_555 1_555
H13 C15 1_555 1_555
C16 C15 1_555 1_555
C17 N2 1_555 1_555
H14 C17 1_555 1_555
C18 N7 1_555 1_555
H15 C18 1_555 1_555
H16 C18 1_555 1_555
H17 C18 1_555 1_555
C19 C9 1_555 1_555
H18 C19 1_555 1_555
H19 C19 1_555 1_555
C20 C19 1_555 1_555
C21 C20 1_555 1_555
H20 C21 1_555 1_555
C22 C21 1_555 1_555
H21 C22 1_555 1_555
C23 C22 1_555 1_555
H22 C23 1_555 1_555
C24 C23 1_555 1_555
H23 C24 1_555 1_555
C25 C20 1_555 1_555
H24 C25 1_555 1_555
C26 N5 1_555 1_555
H25 C26 1_555 1_555
H26 C26 1_555 1_555
H27 C26 1_555 1_555
C27 C11 1_555 1_555
H28 C27 1_555 1_555
H29 C27 1_555 1_555
C28 C27 1_555 1_555
C29 C28 1_555 1_555
H30 C29 1_555 1_555
C30 C29 1_555 1_555
H31 C30 1_555 1_555
C31 C30 1_555 1_555
C32 C31 1_555 1_555
H32 C32 1_555 1_555
C33 C28 1_555 1_555
H33 C33 1_555 1_555
C34 C13 1_555 1_555
H34 C34 1_555 1_555
C35 C34 1_555 1_555
H35 C35 1_555 1_555
H36 C35 1_555 1_555
H37 C35 1_555 1_555
C36 C34 1_555 1_555
H38 C36 1_555 1_555
H39 C36 1_555 1_555
H40 C36 1_555 1_555
C37 C15 1_555 1_555
H41 C37 1_555 1_555
H42 C37 1_555 1_555
C38 C37 1_555 1_555
H43 C38 1_555 1_555
C39 C38 1_555 1_555
H44 C39 1_555 1_555
H45 C39 1_555 1_555
H46 C39 1_555 1_555
C40 C38 1_555 1_555
H47 C40 1_555 1_555
H48 C40 1_555 1_555
H49 C40 1_555 1_555
C41 N2 1_555 1_555
H50 C41 1_555 1_555
H51 C41 1_555 1_555
H52 C41 1_555 1_555
C42 C17 1_555 1_555
H53 C42 1_555 1_555
H54 C42 1_555 1_555
C43 C42 1_555 1_555
C44 C43 1_555 1_555
H55 C44 1_555 1_555
C45 C44 1_555 1_555
H56 C45 1_555 1_555
C46 C45 1_555 1_555
H57 C46 1_555 1_555
C47 C46 1_555 1_555
H58 C47 1_555 1_555
C48 C43 1_555 1_555
H59 C48 1_555 1_555
H60 O8 1_555 1_555
H61 N4 1_555 1_555
H62 N6 1_555 1_555
H63 N3 1_555 1_555
O9 H64 1_555 1_555
C49 O9 1_555 1_555
H65 C49 1_555 1_555
H66 C49 1_555 1_555
H67 C49 1_555 1_555
O10 H68 1_555 1_555
H69 O10 1_555 1_555
C4 C5 1_555 1_555
C24 C25 1_555 1_555
C32 C33 1_555 1_555
C47 C48 1_555 1_555

#END
