
#######################################################################
#
#                 Cambridge Crystallographic Data Centre
#                                CCDC 
#
#######################################################################
#
# If this CIF has been generated from an entry in the Cambridge 
# Structural Database, then it will include bibliographic, chemical, 
# crystal, experimental, refinement or atomic coordinate data resulting 
# from the CCDC's data processing and validation procedures.
#
#######################################################################

data_BENBUT
_chemical_formula_moiety         'C6 H3 Br1 Cl2 N1 O2 S1 1-,K1 1+,1.5(H2 O1)'
_chemical_name_systematic        
'Potassium bromo[(2,4-dichlorophenyl)sulfonyl]azanide sesquihydrate'
_symmetry_cell_setting           monoclinic
_symmetry_space_group_name_H-M   'C 2/c'
_symmetry_Int_Tables_number      15
_space_group_name_Hall           '-C 2yn'
loop_
_symmetry_equiv_pos_site_id
_symmetry_equiv_pos_as_xyz
1 x,y,z
2 -x,y,1/2-z
3 1/2+x,1/2+y,z
4 1/2-x,1/2+y,1/2-z
5 -x,-y,-z
6 x,-y,1/2+z
7 1/2-x,1/2-y,-z
8 1/2+x,1/2-y,1/2+z
_cell_length_a                   12.5263(7)
_cell_length_b                   6.7638(4)
_cell_length_c                   29.703(2)
_cell_angle_alpha                90
_cell_angle_beta                 98.352(5)
_cell_angle_gamma                90
_cell_volume                     2489.91
_exptl_crystal_colour            yellow
_exptl_crystal_description       prism
_cell_formula_units_Z            8
loop_
_atom_site_label
_atom_site_type_symbol
_atom_site_fract_x
_atom_site_fract_y
_atom_site_fract_z
C1 C 0.0780(3) 0.4566(5) 0.11591(11)
C2 C 0.1438(3) 0.3775(5) 0.08637(12)
C3 C 0.1538(3) 0.4716(6) 0.04598(12)
H1 H 0.1980 0.4192 0.0264
C4 C 0.0974(3) 0.6446(6) 0.03496(13)
C5 C 0.0320(3) 0.7248(6) 0.06337(14)
H2 H -0.0056 0.8413 0.0556
C6 C 0.0228(3) 0.6302(5) 0.10361(13)
H3 H -0.0214 0.6841 0.1230
Br1 Br -0.11245(3) 0.10625(6) 0.130655(14)
Cl1 Cl 0.21550(9) 0.15999(15) 0.09788(4)
Cl2 Cl 0.10726(10) 0.7571(2) -0.01671(4)
N1 N 0.0277(2) 0.1274(4) 0.16389(10)
O1 O 0.1712(2) 0.3416(4) 0.19584(8)
O2 O -0.0093(2) 0.4804(4) 0.18845(8)
S1 S 0.06429(7) 0.34987(12) 0.16983(3)
K1 K 0.34306(6) 0.13766(12) 0.23492(3)
O3 O 0.2037(2) -0.1486(4) 0.19206(10)
H4 H 0.234(3) -0.195(7) 0.1725(12)
H5 H 0.155(3) -0.088(6) 0.1774(14)
O4 O 0.5000 0.4277(6) 0.2500
H6 H 0.490(4) 0.502(6) 0.2710(11)
H6A H 0.510(4) 0.502(6) 0.2290(11)
loop_
_geom_bond_atom_site_label_1
_geom_bond_atom_site_label_2
_geom_bond_site_symmetry_1
_geom_bond_site_symmetry_2
C1 C2 1_555 1_555
C2 C3 1_555 1_555
C3 H1 1_555 1_555
C4 C3 1_555 1_555
C5 C4 1_555 1_555
H2 C5 1_555 1_555
C6 C1 1_555 1_555
H3 C6 1_555 1_555
Br1 N1 1_555 1_555
Cl1 C2 1_555 1_555
Cl2 C4 1_555 1_555
N1 S1 1_555 1_555
O1 S1 1_555 1_555
O2 S1 1_555 1_555
O3 H4 1_555 1_555
H5 O3 1_555 1_555
O4 H6 1_555 1_555
S1 C1 1_555 1_555
H6A O4 1_555 1_555
C5 C6 1_555 1_555

#END
