
#######################################################################
#
#                 Cambridge Crystallographic Data Centre
#                                CCDC 
#
#######################################################################
#
# If this CIF has been generated from an entry in the Cambridge 
# Structural Database, then it will include bibliographic, chemical, 
# crystal, experimental, refinement or atomic coordinate data resulting 
# from the CCDC's data processing and validation procedures.
#
#######################################################################

data_BENJIQ
_chemical_formula_moiety         'C17 H26 F4 O1'
_chemical_name_systematic        8,8,11,11-tetrafluorocycloheptadec-9-en-1-one
_symmetry_cell_setting           triclinic
_symmetry_space_group_name_H-M   'P -1'
_symmetry_Int_Tables_number      2
_space_group_name_Hall           '-P 1'
loop_
_symmetry_equiv_pos_site_id
_symmetry_equiv_pos_as_xyz
1 x,y,z
2 -x,-y,-z
_cell_length_a                   10.9742(16)
_cell_length_b                   12.0280(17)
_cell_length_c                   13.166(2)
_cell_angle_alpha                82.639(8)
_cell_angle_beta                 80.686(7)
_cell_angle_gamma                78.126(8)
_cell_volume                     1670.16
_exptl_crystal_colour            colorless
_exptl_crystal_description       prism
_cell_formula_units_Z            4
loop_
_atom_site_label
_atom_site_type_symbol
_atom_site_fract_x
_atom_site_fract_y
_atom_site_fract_z
F1 F 0.52891(13) 0.34598(12) -0.12527(11)
F2 F 0.47318(12) 0.35502(11) 0.04076(11)
F3 F 0.52738(12) 0.07655(12) 0.23615(11)
F4 F 0.60439(13) 0.23181(11) 0.18548(10)
O1 O 1.29347(16) 0.17907(14) -0.09141(13)
C1 C 1.2472(2) 0.2486(2) -0.0300(2)
C2 C 1.1878(2) 0.3691(2) -0.0670(2)
H1 H 1.2505 0.4188 -0.0722
H2 H 1.1166 0.3972 -0.0144
C3 C 1.1396(2) 0.3812(2) -0.1713(2)
H3 H 1.2095 0.3492 -0.2233
H4 H 1.1138 0.4634 -0.1935
C4 C 1.0288(2) 0.3218(2) -0.17017(19)
H5 H 1.0050 0.3325 -0.2407
H6 H 1.0563 0.2388 -0.1524
C5 C 0.9129(2) 0.3646(2) -0.09452(19)
H7 H 0.8909 0.4488 -0.1067
H8 H 0.9333 0.3452 -0.0231
C6 C 0.7989(2) 0.3139(2) -0.10432(18)
H9 H 0.7771 0.3343 -0.1753
H10 H 0.8206 0.2296 -0.0928
C7 C 0.6854(2) 0.3572(2) -0.02679(19)
H11 H 0.7091 0.3389 0.0437
H12 H 0.6635 0.4413 -0.0398
C8 C 0.5704(2) 0.3079(2) -0.03050(18)
C9 C 0.5851(2) 0.1792(2) -0.01948(19)
H13 H 0.5783 0.1474 -0.0803
C10 C 0.6060(2) 0.1033(2) 0.06189(18)
H14 H 0.6112 0.0263 0.0493
C11 C 0.6226(2) 0.1181(2) 0.16943(19)
C12 C 0.7478(2) 0.0567(2) 0.20139(18)
H15 H 0.7584 -0.0254 0.1928
H16 H 0.7466 0.0638 0.2757
C13 C 0.8606(2) 0.1022(2) 0.13975(18)
H17 H 0.8539 0.1828 0.1524
H18 H 0.8591 0.1002 0.0650
C14 C 0.9861(2) 0.0326(2) 0.16883(19)
H19 H 0.9871 0.0351 0.2435
H20 H 0.9917 -0.0480 0.1569
C15 C 1.1016(2) 0.0751(2) 0.10789(19)
H21 H 1.1770 0.0156 0.1173
H22 H 1.0928 0.0854 0.0334
C16 C 1.1226(2) 0.1864(2) 0.13876(19)
H23 H 1.1222 0.1790 0.2146
H24 H 1.0515 0.2479 0.1221
C17 C 1.2465(2) 0.2217(2) 0.08516(19)
H25 H 1.2583 0.2896 0.1150
H26 H 1.3178 0.1589 0.0985
F5 F 0.15014(13) 0.42171(12) 0.27260(11)
F6 F 0.27827(13) 0.26664(11) 0.32287(10)
F7 F 0.13716(13) 0.15716(12) 0.63624(11)
F8 F 0.14639(12) 0.14609(11) 0.47094(11)
O2 O 0.84563(16) 0.31915(14) 0.58543(14)
C18 C 0.8537(2) 0.2515(2) 0.5223(2)
C19 C 0.8835(2) 0.2829(2) 0.4071(2)
H27 H 0.9383 0.2167 0.3750
H28 H 0.9302 0.3466 0.3951
C20 C 0.7634(2) 0.3183(2) 0.3552(2)
H29 H 0.7876 0.3290 0.2794
H30 H 0.7152 0.2555 0.3702
C21 C 0.6785(2) 0.4276(2) 0.39073(19)
H31 H 0.7287 0.4886 0.3814
H32 H 0.6483 0.4145 0.4655
C22 C 0.5645(2) 0.4687(2) 0.33281(19)
H33 H 0.5291 0.5493 0.3448
H34 H 0.5931 0.4661 0.2577
C23 C 0.4604(2) 0.3988(2) 0.36484(18)
H35 H 0.4296 0.4029 0.4395
H36 H 0.4954 0.3178 0.3540
C24 C 0.3499(2) 0.4413(2) 0.30343(18)
H37 H 0.3200 0.5239 0.3096
H38 H 0.3799 0.4316 0.2295
C25 C 0.2407(2) 0.3805(2) 0.33841(18)
C26 C 0.1769(2) 0.3972(2) 0.44595(18)
H39 H 0.1433 0.4746 0.4577
C27 C 0.1588(2) 0.3229(2) 0.52803(18)
H40 H 0.1151 0.3558 0.5887
C28 C 0.1970(2) 0.1939(2) 0.54038(18)
C29 C 0.3363(2) 0.1441(2) 0.53524(18)
H41 H 0.3777 0.1610 0.4639
H42 H 0.3468 0.0601 0.5494
C30 C 0.4034(2) 0.1879(2) 0.60999(18)
H43 H 0.3665 0.1672 0.6819
H44 H 0.3913 0.2721 0.5983
C31 C 0.5446(2) 0.1368(2) 0.59517(18)
H45 H 0.5556 0.0526 0.6057
H46 H 0.5805 0.1578 0.5230
C32 C 0.6176(2) 0.1760(2) 0.66762(19)
H47 H 0.5752 0.1639 0.7394
H48 H 0.6151 0.2591 0.6511
C33 C 0.7556(2) 0.1149(2) 0.6625(2)
H49 H 0.7949 0.1438 0.7138
H50 H 0.7581 0.0323 0.6823
C34 C 0.8337(2) 0.1304(2) 0.5560(2)
H51 H 0.9168 0.0794 0.5568
H52 H 0.7914 0.1060 0.5040
loop_
_geom_bond_atom_site_label_1
_geom_bond_atom_site_label_2
_geom_bond_site_symmetry_1
_geom_bond_site_symmetry_2
F1 C8 1_555 1_555
F2 C8 1_555 1_555
F3 C11 1_555 1_555
F4 C11 1_555 1_555
O1 C1 1_555 1_555
C1 C2 1_555 1_555
C2 H1 1_555 1_555
H2 C2 1_555 1_555
C3 C2 1_555 1_555
H3 C3 1_555 1_555
H4 C3 1_555 1_555
C4 C3 1_555 1_555
H5 C4 1_555 1_555
H6 C4 1_555 1_555
C5 C4 1_555 1_555
H7 C5 1_555 1_555
H8 C5 1_555 1_555
C6 C5 1_555 1_555
H9 C6 1_555 1_555
H10 C6 1_555 1_555
C7 C6 1_555 1_555
H11 C7 1_555 1_555
H12 C7 1_555 1_555
C8 C7 1_555 1_555
C9 C8 1_555 1_555
H13 C9 1_555 1_555
C10 C9 1_555 1_555
H14 C10 1_555 1_555
C11 C10 1_555 1_555
C12 C11 1_555 1_555
H15 C12 1_555 1_555
H16 C12 1_555 1_555
C13 C12 1_555 1_555
H17 C13 1_555 1_555
H18 C13 1_555 1_555
C14 C13 1_555 1_555
H19 C14 1_555 1_555
H20 C14 1_555 1_555
C15 C14 1_555 1_555
H21 C15 1_555 1_555
H22 C15 1_555 1_555
C16 C15 1_555 1_555
H23 C16 1_555 1_555
H24 C16 1_555 1_555
C17 C1 1_555 1_555
H25 C17 1_555 1_555
H26 C17 1_555 1_555
F5 C25 1_555 1_555
F6 C25 1_555 1_555
F7 C28 1_555 1_555
F8 C28 1_555 1_555
O2 C18 1_555 1_555
C18 C19 1_555 1_555
C19 H27 1_555 1_555
H28 C19 1_555 1_555
C20 C19 1_555 1_555
H29 C20 1_555 1_555
H30 C20 1_555 1_555
C21 C20 1_555 1_555
H31 C21 1_555 1_555
H32 C21 1_555 1_555
C22 C21 1_555 1_555
H33 C22 1_555 1_555
H34 C22 1_555 1_555
C23 C22 1_555 1_555
H35 C23 1_555 1_555
H36 C23 1_555 1_555
C24 C23 1_555 1_555
H37 C24 1_555 1_555
H38 C24 1_555 1_555
C25 C24 1_555 1_555
C26 C25 1_555 1_555
H39 C26 1_555 1_555
C27 C26 1_555 1_555
H40 C27 1_555 1_555
C28 C27 1_555 1_555
C29 C28 1_555 1_555
H41 C29 1_555 1_555
H42 C29 1_555 1_555
C30 C29 1_555 1_555
H43 C30 1_555 1_555
H44 C30 1_555 1_555
C31 C30 1_555 1_555
H45 C31 1_555 1_555
H46 C31 1_555 1_555
C32 C31 1_555 1_555
H47 C32 1_555 1_555
H48 C32 1_555 1_555
C33 C32 1_555 1_555
H49 C33 1_555 1_555
H50 C33 1_555 1_555
C34 C18 1_555 1_555
H51 C34 1_555 1_555
H52 C34 1_555 1_555
C16 C17 1_555 1_555
C33 C34 1_555 1_555

#END
