
#######################################################################
#
#                 Cambridge Crystallographic Data Centre
#                                CCDC 
#
#######################################################################
#
# If this CIF has been generated from an entry in the Cambridge 
# Structural Database, then it will include bibliographic, chemical, 
# crystal, experimental, refinement or atomic coordinate data resulting 
# from the CCDC's data processing and validation procedures.
#
#######################################################################

data_BENKIR
_chemical_formula_moiety         'C23 H34 F2 N4 O4'
_chemical_name_systematic        
1-(9,9-difluorocycloheptadecylidene)-2-(2,4-dinitrophenyl)hydrazine
_symmetry_cell_setting           triclinic
_symmetry_space_group_name_H-M   'P -1'
_symmetry_Int_Tables_number      2
_space_group_name_Hall           '-P 1'
loop_
_symmetry_equiv_pos_site_id
_symmetry_equiv_pos_as_xyz
1 x,y,z
2 -x,-y,-z
_cell_length_a                   7.727(2)
_cell_length_b                   8.386(3)
_cell_length_c                   18.428(5)
_cell_angle_alpha                93.814(12)
_cell_angle_beta                 91.618(9)
_cell_angle_gamma                96.974(14)
_cell_volume                     1181.85
_exptl_crystal_colour            yellow
_exptl_crystal_description       platelet
_cell_formula_units_Z            2
loop_
_atom_site_label
_atom_site_type_symbol
_atom_site_fract_x
_atom_site_fract_y
_atom_site_fract_z
F1 F 0.6917(4) -0.4047(4) 0.0418(2)
F2 F 0.6345(4) -0.2259(4) -0.03344(17)
O1 O 0.6311(4) 0.3668(3) 0.53014(15)
O2 O 0.6973(4) 0.2692(4) 0.63244(17)
O3 O 1.1974(6) 0.0119(6) 0.6677(3)
O4 O 1.3799(4) -0.0113(4) 0.5811(2)
N1 N 0.9139(4) 0.4131(4) 0.35781(17)
N2 N 0.8523(4) 0.3787(4) 0.42575(16)
N3 N 0.7305(4) 0.2994(4) 0.56988(17)
N4 N 1.2506(6) 0.0393(5) 0.6067(3)
C1 C 0.8100(5) 0.4751(4) 0.3151(2)
C2 C 0.8705(6) 0.5124(6) 0.2409(2)
H1 H 0.8855 0.6308 0.2385
H2 H 0.7767 0.4676 0.2049
C3 C 1.0365(6) 0.4511(6) 0.2181(3)
H3 H 1.0380 0.3408 0.2340
H4 H 1.1368 0.5205 0.2427
C4 C 1.0576(6) 0.4483(6) 0.1350(3)
H5 H 1.0479 0.5574 0.1190
H6 H 1.1761 0.4224 0.1240
C5 C 0.9258(6) 0.3291(6) 0.0913(3)
H7 H 0.9456 0.3405 0.0389
H8 H 0.8077 0.3578 0.1010
C6 C 0.9298(6) 0.1534(6) 0.1065(3)
H9 H 1.0465 0.1227 0.0954
H10 H 0.9119 0.1412 0.1589
C7 C 0.7932(6) 0.0402(6) 0.0626(3)
H11 H 0.8067 0.0579 0.0104
H12 H 0.6764 0.0672 0.0760
C8 C 0.8015(6) -0.1371(6) 0.0735(3)
H13 H 0.9095 -0.1689 0.0522
H14 H 0.8088 -0.1516 0.1263
C9 C 0.6477(7) -0.2477(6) 0.0399(3)
C10 C 0.4733(7) -0.2427(7) 0.0724(3)
H15 H 0.3883 -0.3246 0.0453
H16 H 0.4355 -0.1359 0.0655
C11 C 0.4664(7) -0.2718(6) 0.1522(3)
H17 H 0.5597 -0.3378 0.1643
H18 H 0.3534 -0.3358 0.1607
C12 C 0.4866(7) -0.1213(6) 0.2046(3)
H19 H 0.5926 -0.0508 0.1926
H20 H 0.5047 -0.1540 0.2547
C13 C 0.3304(6) -0.0232(6) 0.2035(3)
H21 H 0.3287 0.0313 0.1575
H22 H 0.2210 -0.0978 0.2045
C14 C 0.3361(5) 0.1033(6) 0.2677(3)
H23 H 0.3541 0.0507 0.3133
H24 H 0.2217 0.1450 0.2697
C15 C 0.4799(5) 0.2462(5) 0.2638(2)
H25 H 0.5939 0.2049 0.2584
H26 H 0.4571 0.3050 0.2204
C16 C 0.4888(5) 0.3612(5) 0.3312(2)
H27 H 0.5125 0.3011 0.3741
H28 H 0.3729 0.3985 0.3369
C17 C 0.6279(5) 0.5114(5) 0.3316(2)
H29 H 0.5908 0.5835 0.2953
H30 H 0.6313 0.5705 0.3800
C18 C 0.9481(4) 0.2996(4) 0.4710(2)
C19 C 0.8934(4) 0.2592(4) 0.5414(2)
C20 C 0.9945(5) 0.1761(5) 0.5856(2)
H31 H 0.9564 0.1490 0.6323
C21 C 1.1490(5) 0.1338(5) 0.5614(3)
C22 C 1.2089(5) 0.1730(5) 0.4932(2)
H32 H 1.3171 0.1428 0.4774
C23 C 1.1111(5) 0.2547(5) 0.4497(2)
H33 H 1.1534 0.2826 0.4037
H34 H 0.735(3) 0.384(6) 0.444(3)
loop_
_geom_bond_atom_site_label_1
_geom_bond_atom_site_label_2
_geom_bond_site_symmetry_1
_geom_bond_site_symmetry_2
F1 C9 1_555 1_555
F2 C9 1_555 1_555
O1 N3 1_555 1_555
O2 N3 1_555 1_555
O3 N4 1_555 1_555
O4 N4 1_555 1_555
N1 N2 1_555 1_555
N2 C18 1_555 1_555
N3 C19 1_555 1_555
N4 C21 1_555 1_555
C1 N1 1_555 1_555
C2 C1 1_555 1_555
H1 C2 1_555 1_555
H2 C2 1_555 1_555
C3 C2 1_555 1_555
H3 C3 1_555 1_555
H4 C3 1_555 1_555
C4 C3 1_555 1_555
H5 C4 1_555 1_555
H6 C4 1_555 1_555
C5 C4 1_555 1_555
H7 C5 1_555 1_555
H8 C5 1_555 1_555
C6 C5 1_555 1_555
H9 C6 1_555 1_555
H10 C6 1_555 1_555
C7 C6 1_555 1_555
H11 C7 1_555 1_555
H12 C7 1_555 1_555
C8 C7 1_555 1_555
H13 C8 1_555 1_555
H14 C8 1_555 1_555
C9 C8 1_555 1_555
C10 C9 1_555 1_555
H15 C10 1_555 1_555
H16 C10 1_555 1_555
C11 C10 1_555 1_555
H17 C11 1_555 1_555
H18 C11 1_555 1_555
C12 C11 1_555 1_555
H19 C12 1_555 1_555
H20 C12 1_555 1_555
C13 C12 1_555 1_555
H21 C13 1_555 1_555
H22 C13 1_555 1_555
C14 C13 1_555 1_555
H23 C14 1_555 1_555
H24 C14 1_555 1_555
C15 C14 1_555 1_555
H25 C15 1_555 1_555
H26 C15 1_555 1_555
C16 C15 1_555 1_555
H27 C16 1_555 1_555
H28 C16 1_555 1_555
C17 C1 1_555 1_555
H29 C17 1_555 1_555
H30 C17 1_555 1_555
C18 C19 1_555 1_555
C19 C20 1_555 1_555
C20 H31 1_555 1_555
C21 C20 1_555 1_555
C22 C21 1_555 1_555
H32 C22 1_555 1_555
C23 C18 1_555 1_555
H33 C23 1_555 1_555
H34 N2 1_555 1_555
C16 C17 1_555 1_555
C22 C23 1_555 1_555

#END
