
#######################################################################
#
#                 Cambridge Crystallographic Data Centre
#                                CCDC 
#
#######################################################################
#
# If this CIF has been generated from an entry in the Cambridge 
# Structural Database, then it will include bibliographic, chemical, 
# crystal, experimental, refinement or atomic coordinate data resulting 
# from the CCDC's data processing and validation procedures.
#
#######################################################################

data_BENKEN
_chemical_formula_moiety         'C17 H30 F2 O1'
_chemical_name_systematic        9,9-difluorocycloheptadecanone
_symmetry_cell_setting           monoclinic
_symmetry_space_group_name_H-M   'P 21/c'
_symmetry_Int_Tables_number      14
_space_group_name_Hall           '-P 2ybc'
loop_
_symmetry_equiv_pos_site_id
_symmetry_equiv_pos_as_xyz
1 x,y,z
2 -x,1/2+y,1/2-z
3 -x,-y,-z
4 x,1/2-y,1/2+z
_cell_length_a                   15.338(2)
_cell_length_b                   11.363(2)
_cell_length_c                   9.4765(17)
_cell_angle_alpha                90
_cell_angle_beta                 91.257(4)
_cell_angle_gamma                90
_cell_volume                     1651.22
_exptl_crystal_colour            colorless
_exptl_crystal_description       prism
_cell_formula_units_Z            4
loop_
_atom_site_label
_atom_site_type_symbol
_atom_site_fract_x
_atom_site_fract_y
_atom_site_fract_z
F1 F 0.16695(5) 0.41266(7) -0.20689(7)
F2 F 0.19823(5) 0.23066(7) -0.15067(7)
O1 O 0.27245(6) 0.80770(8) 0.48564(10)
C1 C 0.26975(8) 0.72929(10) 0.57292(12)
C2 C 0.18375(8) 0.68372(11) 0.62673(12)
H1 H 0.1647 0.7353 0.7044
H2 H 0.1931 0.6040 0.6664
C3 C 0.11076(8) 0.67763(11) 0.51438(12)
H3 H 0.1091 0.7526 0.4612
H4 H 0.0542 0.6686 0.5615
C4 C 0.12231(7) 0.57594(10) 0.41086(12)
H5 H 0.1772 0.5874 0.3596
H6 H 0.1274 0.5014 0.4645
C5 C 0.04656(7) 0.56587(11) 0.30380(12)
H7 H 0.0451 0.6378 0.2448
H8 H -0.0087 0.5625 0.3556
C6 C 0.05143(7) 0.45849(10) 0.20697(12)
H9 H 0.0561 0.3870 0.2663
H10 H -0.0038 0.4530 0.1512
C7 C 0.12740(7) 0.45954(10) 0.10517(12)
H11 H 0.1829 0.4692 0.1593
H12 H 0.1210 0.5273 0.0401
C8 C 0.13047(7) 0.34562(10) 0.01968(12)
H13 H 0.1430 0.2796 0.0852
H14 H 0.0721 0.3317 -0.0237
C9 C 0.19704(8) 0.34389(10) -0.09549(11)
C10 C 0.28928(7) 0.38075(10) -0.06030(11)
H15 H 0.2892 0.4640 -0.0296
H16 H 0.3243 0.3755 -0.1466
C11 C 0.33270(8) 0.30612(10) 0.05525(12)
H17 H 0.3342 0.2231 0.0237
H18 H 0.2971 0.3099 0.1410
C12 C 0.42582(8) 0.34620(11) 0.09257(13)
H19 H 0.4547 0.2846 0.1508
H20 H 0.4588 0.3540 0.0044
C13 C 0.43050(7) 0.46280(11) 0.17239(12)
H21 H 0.3953 0.5223 0.1204
H22 H 0.4917 0.4905 0.1759
C14 C 0.39738(7) 0.45275(10) 0.32276(12)
H23 H 0.3386 0.4169 0.3192
H24 H 0.4363 0.3989 0.3769
C15 C 0.39244(7) 0.56913(10) 0.40124(12)
H25 H 0.3499 0.6211 0.3518
H26 H 0.4502 0.6080 0.3997
C16 C 0.36530(8) 0.55388(10) 0.55432(12)
H27 H 0.4108 0.5082 0.6059
H28 H 0.3105 0.5079 0.5560
C17 C 0.35144(8) 0.67143(11) 0.63138(13)
H29 H 0.3457 0.6572 0.7338
H30 H 0.4022 0.7236 0.6176
loop_
_geom_bond_atom_site_label_1
_geom_bond_atom_site_label_2
_geom_bond_site_symmetry_1
_geom_bond_site_symmetry_2
F1 C9 1_555 1_555
F2 C9 1_555 1_555
O1 C1 1_555 1_555
C1 C2 1_555 1_555
C2 H1 1_555 1_555
H2 C2 1_555 1_555
C3 C2 1_555 1_555
H3 C3 1_555 1_555
H4 C3 1_555 1_555
C4 C3 1_555 1_555
H5 C4 1_555 1_555
H6 C4 1_555 1_555
C5 C4 1_555 1_555
H7 C5 1_555 1_555
H8 C5 1_555 1_555
C6 C5 1_555 1_555
H9 C6 1_555 1_555
H10 C6 1_555 1_555
C7 C6 1_555 1_555
H11 C7 1_555 1_555
H12 C7 1_555 1_555
C8 C7 1_555 1_555
H13 C8 1_555 1_555
H14 C8 1_555 1_555
C9 C8 1_555 1_555
C10 C9 1_555 1_555
H15 C10 1_555 1_555
H16 C10 1_555 1_555
C11 C10 1_555 1_555
H17 C11 1_555 1_555
H18 C11 1_555 1_555
C12 C11 1_555 1_555
H19 C12 1_555 1_555
H20 C12 1_555 1_555
C13 C12 1_555 1_555
H21 C13 1_555 1_555
H22 C13 1_555 1_555
C14 C13 1_555 1_555
H23 C14 1_555 1_555
H24 C14 1_555 1_555
C15 C14 1_555 1_555
H25 C15 1_555 1_555
H26 C15 1_555 1_555
C16 C15 1_555 1_555
H27 C16 1_555 1_555
H28 C16 1_555 1_555
C17 C1 1_555 1_555
H29 C17 1_555 1_555
H30 C17 1_555 1_555
C16 C17 1_555 1_555

#END
