
#######################################################################
#
#                 Cambridge Crystallographic Data Centre
#                                CCDC 
#
#######################################################################
#
# If this CIF has been generated from an entry in the Cambridge 
# Structural Database, then it will include bibliographic, chemical, 
# crystal, experimental, refinement or atomic coordinate data resulting 
# from the CCDC's data processing and validation procedures.
#
#######################################################################

data_BENLEO
_chemical_formula_moiety         'C17 H28 F4 O1'
_chemical_name_systematic        7,7,11,11-tetrafluorocycloheptadecanone
_symmetry_cell_setting           triclinic
_symmetry_space_group_name_H-M   'P -1'
_symmetry_Int_Tables_number      2
_space_group_name_Hall           '-P 1'
loop_
_symmetry_equiv_pos_site_id
_symmetry_equiv_pos_as_xyz
1 x,y,z
2 -x,-y,-z
_cell_length_a                   5.573(4)
_cell_length_b                   10.076(7)
_cell_length_c                   15.585(11)
_cell_angle_alpha                99.612(14)
_cell_angle_beta                 91.56(3)
_cell_angle_gamma                97.81(2)
_cell_volume                     853.746
_exptl_crystal_colour            colorless
_exptl_crystal_description       prism
_cell_formula_units_Z            2
loop_
_atom_site_label
_atom_site_type_symbol
_atom_site_fract_x
_atom_site_fract_y
_atom_site_fract_z
F1 F 0.8660(6) 0.8005(3) 1.02993(18)
F2 F 0.4786(6) 0.8050(3) 1.00055(19)
F3 F 0.5048(4) 1.1570(2) 0.69905(17)
F4 F 0.2237(4) 1.0180(3) 0.74771(17)
O1 O 1.2726(5) 0.5800(3) 0.6973(2)
C1 C 1.0907(8) 0.4963(5) 0.6801(3)
C2 C 1.0658(8) 0.3621(4) 0.7106(3)
H1 H 1.1991 0.3128 0.6879
H2 H 0.9110 0.3074 0.6856
C3 C 1.0708(8) 0.3731(5) 0.8083(3)
H3 H 1.2234 0.4307 0.8329
H4 H 1.0750 0.2813 0.8225
C4 C 0.8576(9) 0.4322(5) 0.8537(3)
H5 H 0.7089 0.3996 0.8157
H6 H 0.8339 0.3952 0.9083
C5 C 0.8838(8) 0.5869(5) 0.8759(3)
H7 H 1.0273 0.6205 0.9164
H8 H 0.9123 0.6253 0.8220
C6 C 0.6633(8) 0.6368(5) 0.9170(3)
H9 H 0.5311 0.6231 0.8713
H10 H 0.6097 0.5795 0.9607
C7 C 0.6971(9) 0.7829(5) 0.9607(3)
C8 C 0.7646(8) 0.8927(4) 0.9091(3)
H11 H 0.9250 0.8826 0.8850
H12 H 0.7802 0.9817 0.9484
C9 C 0.5808(7) 0.8923(4) 0.8338(3)
H13 H 0.5918 0.8136 0.7873
H14 H 0.4146 0.8824 0.8550
C10 C 0.6286(7) 1.0231(4) 0.7964(3)
H15 H 0.6134 1.1009 0.8430
H16 H 0.7974 1.0341 0.7777
C11 C 0.4596(7) 1.0270(4) 0.7205(3)
C12 C 0.4647(7) 0.9244(4) 0.6383(3)
H17 H 0.3338 0.9352 0.5969
H18 H 0.4294 0.8320 0.6528
C13 C 0.7048(7) 0.9358(4) 0.5932(3)
H19 H 0.7318 1.0241 0.5724
H20 H 0.8386 0.9348 0.6360
C14 C 0.7120(8) 0.8214(4) 0.5162(3)
H21 H 0.8648 0.8399 0.4867
H22 H 0.5761 0.8221 0.4741
C15 C 0.6953(8) 0.6801(5) 0.5402(3)
H23 H 0.5414 0.6606 0.5689
H24 H 0.6907 0.6123 0.4861
C16 C 0.9051(8) 0.6635(4) 0.6003(3)
H25 H 0.9137 0.7333 0.6535
H26 H 1.0587 0.6792 0.5707
C17 C 0.8806(7) 0.5237(4) 0.6262(3)
H27 H 0.7324 0.5116 0.6594
H28 H 0.8571 0.4544 0.5725
loop_
_geom_bond_atom_site_label_1
_geom_bond_atom_site_label_2
_geom_bond_site_symmetry_1
_geom_bond_site_symmetry_2
F1 C7 1_555 1_555
F2 C7 1_555 1_555
F3 C11 1_555 1_555
F4 C11 1_555 1_555
O1 C1 1_555 1_555
C1 C2 1_555 1_555
C2 H1 1_555 1_555
H2 C2 1_555 1_555
C3 C2 1_555 1_555
H3 C3 1_555 1_555
H4 C3 1_555 1_555
C4 C3 1_555 1_555
H5 C4 1_555 1_555
H6 C4 1_555 1_555
C5 C4 1_555 1_555
H7 C5 1_555 1_555
H8 C5 1_555 1_555
C6 C5 1_555 1_555
H9 C6 1_555 1_555
H10 C6 1_555 1_555
C7 C6 1_555 1_555
C8 C7 1_555 1_555
H11 C8 1_555 1_555
H12 C8 1_555 1_555
C9 C8 1_555 1_555
H13 C9 1_555 1_555
H14 C9 1_555 1_555
C10 C9 1_555 1_555
H15 C10 1_555 1_555
H16 C10 1_555 1_555
C11 C10 1_555 1_555
C12 C11 1_555 1_555
H17 C12 1_555 1_555
H18 C12 1_555 1_555
C13 C12 1_555 1_555
H19 C13 1_555 1_555
H20 C13 1_555 1_555
C14 C13 1_555 1_555
H21 C14 1_555 1_555
H22 C14 1_555 1_555
C15 C14 1_555 1_555
H23 C15 1_555 1_555
H24 C15 1_555 1_555
C16 C15 1_555 1_555
H25 C16 1_555 1_555
H26 C16 1_555 1_555
C17 C1 1_555 1_555
H27 C17 1_555 1_555
H28 C17 1_555 1_555
C16 C17 1_555 1_555

#END
