
#######################################################################
#
#                 Cambridge Crystallographic Data Centre
#                                CCDC 
#
#######################################################################
#
# If this CIF has been generated from an entry in the Cambridge 
# Structural Database, then it will include bibliographic, chemical, 
# crystal, experimental, refinement or atomic coordinate data resulting 
# from the CCDC's data processing and validation procedures.
#
#######################################################################

data_BENLAK
_chemical_formula_moiety         'C23 H34 F2 N4 O4'
_chemical_name_systematic        
1-(5,5-difluorocycloheptadecylidene)-2-(2,4-dinitrophenyl)hydrazine
_symmetry_cell_setting           monoclinic
_symmetry_space_group_name_H-M   'P 21'
_symmetry_Int_Tables_number      4
_space_group_name_Hall           'P 2yb'
loop_
_symmetry_equiv_pos_site_id
_symmetry_equiv_pos_as_xyz
1 x,y,z
2 -x,1/2+y,-z
_cell_length_a                   9.913(3)
_cell_length_b                   5.125(2)
_cell_length_c                   23.145(8)
_cell_angle_alpha                90
_cell_angle_beta                 94.496(10)
_cell_angle_gamma                90
_cell_volume                     1172.24
_exptl_crystal_colour            yellow
_exptl_crystal_description       prism
_cell_formula_units_Z            2
loop_
_atom_site_label
_atom_site_type_symbol
_atom_site_fract_x
_atom_site_fract_y
_atom_site_fract_z
F1 F 0.55114(17) -0.0641(4) 0.39431(7)
F2 F 0.36359(17) -0.0668(3) 0.33845(7)
O1 O 0.12321(17) 0.9771(4) 0.05893(7)
O2 O 0.07006(18) 1.0557(4) -0.03148(8)
O3 O 0.2912(2) 0.6518(4) -0.18053(8)
O4 O 0.4105(2) 0.3026(4) -0.16325(9)
N1 N 0.3343(2) 0.3924(4) 0.12820(9)
N2 N 0.2706(2) 0.5675(4) 0.08917(9)
N3 N 0.1315(2) 0.9299(4) 0.00713(9)
N4 N 0.3416(2) 0.4843(5) -0.14739(9)
C1 C 0.3012(2) 0.4117(5) 0.18050(10)
C2 C 0.3677(3) 0.2295(5) 0.22448(11)
H1 H 0.4094 0.0836 0.2042
H2 H 0.2981 0.1551 0.2481
C3 C 0.4769(3) 0.3647(5) 0.26471(11)
H3 H 0.5449 0.4431 0.2408
H4 H 0.4344 0.5080 0.2855
C4 C 0.5487(3) 0.1813(6) 0.30908(11)
H5 H 0.5763 0.0232 0.2884
H6 H 0.6323 0.2684 0.3254
C5 C 0.4690(3) 0.0957(5) 0.35899(11)
C6 C 0.4109(3) 0.3079(6) 0.39466(12)
H7 H 0.3408 0.4027 0.3701
H8 H 0.4836 0.4337 0.4065
C7 C 0.3482(3) 0.2107(6) 0.44881(12)
H9 H 0.4209 0.1457 0.4769
H10 H 0.2869 0.0629 0.4382
C8 C 0.2681(3) 0.4254(7) 0.47777(12)
H11 H 0.2406 0.3582 0.5152
H12 H 0.3289 0.5762 0.4863
C9 C 0.1423(3) 0.5205(6) 0.44186(12)
H13 H 0.1708 0.6124 0.4072
H14 H 0.0947 0.6483 0.4650
C10 C 0.0430(3) 0.3026(6) 0.42203(12)
H15 H 0.0767 0.2142 0.3880
H16 H 0.0409 0.1720 0.4535
C11 C -0.1014(3) 0.3991(6) 0.40603(12)
H17 H -0.1573 0.2491 0.3916
H18 H -0.1395 0.4641 0.4416
C12 C -0.1130(3) 0.6137(6) 0.36058(13)
H19 H -0.0537 0.7605 0.3741
H20 H -0.2073 0.6789 0.3570
C13 C -0.0750(3) 0.5282(6) 0.30094(12)
H21 H -0.1432 0.4019 0.2845
H22 H 0.0136 0.4380 0.3051
C14 C -0.0664(3) 0.7559(6) 0.25898(12)
H23 H -0.1460 0.8700 0.2622
H24 H 0.0154 0.8596 0.2708
C15 C -0.0609(3) 0.6753(6) 0.19587(12)
H25 H -0.0499 0.8342 0.1724
H26 H -0.1486 0.5950 0.1824
C16 C 0.0522(2) 0.4843(6) 0.18425(11)
H27 H 0.0444 0.4372 0.1426
H28 H 0.0405 0.3228 0.2068
C17 C 0.1944(3) 0.5951(5) 0.20027(11)
H29 H 0.2033 0.7675 0.1817
H30 H 0.2079 0.6192 0.2428
C18 C 0.2846(2) 0.5457(5) 0.03220(10)
C19 C 0.2192(2) 0.7186(5) -0.00955(11)
C20 C 0.2371(2) 0.6970(5) -0.06777(11)
H31 H 0.1932 0.8147 -0.0948
C21 C 0.3196(2) 0.5021(5) -0.08632(11)
C22 C 0.3830(2) 0.3243(5) -0.04727(11)
H32 H 0.4378 0.1888 -0.0608
C23 C 0.3658(2) 0.3465(5) 0.01017(11)
H33 H 0.4095 0.2250 0.0364
H34 H 0.214(3) 0.708(5) 0.1018(14)
loop_
_geom_bond_atom_site_label_1
_geom_bond_atom_site_label_2
_geom_bond_site_symmetry_1
_geom_bond_site_symmetry_2
F1 C5 1_555 1_555
F2 C5 1_555 1_555
O1 N3 1_555 1_555
O2 N3 1_555 1_555
O3 N4 1_555 1_555
O4 N4 1_555 1_555
N1 N2 1_555 1_555
N2 C18 1_555 1_555
N3 C19 1_555 1_555
N4 C21 1_555 1_555
C1 N1 1_555 1_555
C2 C1 1_555 1_555
H1 C2 1_555 1_555
H2 C2 1_555 1_555
C3 C2 1_555 1_555
H3 C3 1_555 1_555
H4 C3 1_555 1_555
C4 C3 1_555 1_555
H5 C4 1_555 1_555
H6 C4 1_555 1_555
C5 C4 1_555 1_555
C6 C5 1_555 1_555
H7 C6 1_555 1_555
H8 C6 1_555 1_555
C7 C6 1_555 1_555
H9 C7 1_555 1_555
H10 C7 1_555 1_555
C8 C7 1_555 1_555
H11 C8 1_555 1_555
H12 C8 1_555 1_555
C9 C8 1_555 1_555
H13 C9 1_555 1_555
H14 C9 1_555 1_555
C10 C9 1_555 1_555
H15 C10 1_555 1_555
H16 C10 1_555 1_555
C11 C10 1_555 1_555
H17 C11 1_555 1_555
H18 C11 1_555 1_555
C12 C11 1_555 1_555
H19 C12 1_555 1_555
H20 C12 1_555 1_555
C13 C12 1_555 1_555
H21 C13 1_555 1_555
H22 C13 1_555 1_555
C14 C13 1_555 1_555
H23 C14 1_555 1_555
H24 C14 1_555 1_555
C15 C14 1_555 1_555
H25 C15 1_555 1_555
H26 C15 1_555 1_555
C16 C15 1_555 1_555
H27 C16 1_555 1_555
H28 C16 1_555 1_555
C17 C1 1_555 1_555
H29 C17 1_555 1_555
H30 C17 1_555 1_555
C18 C19 1_555 1_555
C19 C20 1_555 1_555
C20 H31 1_555 1_555
C21 C20 1_555 1_555
C22 C21 1_555 1_555
H32 C22 1_555 1_555
C23 C18 1_555 1_555
H33 C23 1_555 1_555
H34 N2 1_555 1_555
C16 C17 1_555 1_555
C22 C23 1_555 1_555

#END
