
#######################################################################
#
#                 Cambridge Crystallographic Data Centre
#                                CCDC 
#
#######################################################################
#
# If this CIF has been generated from an entry in the Cambridge 
# Structural Database, then it will include bibliographic, chemical, 
# crystal, experimental, refinement or atomic coordinate data resulting 
# from the CCDC's data processing and validation procedures.
#
#######################################################################

data_BENMOX01
_chemical_formula_moiety         'C26 H23 N3 O3 S1'
_chemical_name_systematic        
(2,4-Dihydroxy-2,4-bis(pyridin-2-yl)-6-(2-thienyl)cyclohexyl)(pyridin-2-yl)methanone
_symmetry_cell_setting           triclinic
_symmetry_space_group_name_H-M   'P -1'
_symmetry_Int_Tables_number      2
_space_group_name_Hall           '-P 1'
loop_
_symmetry_equiv_pos_site_id
_symmetry_equiv_pos_as_xyz
1 x,y,z
2 -x,-y,-z
_cell_length_a                   6.0683(9)
_cell_length_b                   10.2258(14)
_cell_length_c                   19.178(3)
_cell_angle_alpha                96.856(3)
_cell_angle_beta                 95.668(3)
_cell_angle_gamma                105.100(3)
_cell_volume                     1130.23
_exptl_crystal_colour            colorless
_cell_formula_units_Z            2
loop_
_atom_site_label
_atom_site_type_symbol
_atom_site_fract_x
_atom_site_fract_y
_atom_site_fract_z
C1 C 0.0649(11) 0.7034(5) 0.0420(3)
H1 H 0.0014 0.7595 0.0163
C2 C -0.0246(9) 0.6606(5) 0.1013(3)
H2 H -0.1480 0.6904 0.1153
C3 C 0.2360(6) 0.5365(4) 0.11719(19)
C4 C 0.3248(6) 0.4369(4) 0.1543(2)
C5 C 0.2573(6) 0.4083(3) 0.2263(2)
H3 H 0.1150 0.4344 0.2319
C6 C 0.2110(6) 0.2544(3) 0.2306(2)
H4 H 0.3518 0.2276 0.2234
C7 C 0.1486(7) 0.2243(4) 0.3033(2)
H5 H 0.1235 0.1271 0.3050
H6 H 0.0062 0.2470 0.3104
C8 C 0.3386(7) 0.3060(4) 0.3632(2)
C9 C -0.2057(6) 0.1893(4) 0.15677(19)
H7 H -0.2610 0.2579 0.1789
C10 C 0.3845(7) 0.4593(4) 0.3586(2)
H8 H 0.5085 0.5104 0.3954
H9 H 0.2478 0.4874 0.3675
C11 C 0.4493(6) 0.4964(4) 0.2865(2)
C12 C 0.4720(7) 0.6482(4) 0.2833(2)
C13 C 0.3078(9) 0.7051(5) 0.3053(3)
H10 H 0.1832 0.6540 0.3240
C14 C 0.3300(11) 0.8384(6) 0.2994(3)
H11 H 0.2172 0.8783 0.3136
C15 C 0.5141(12) 0.9166(5) 0.2729(3)
H12 H 0.5295 1.0085 0.2696
C16 C 0.6738(10) 0.8528(5) 0.2518(3)
H13 H 0.7995 0.9029 0.2332
C17 C 0.0219(6) 0.1717(4) 0.17347(19)
C18 C -0.3302(8) 0.0837(6) 0.1007(3)
H14 H -0.4794 0.0782 0.0812
C19 C -0.2187(8) -0.0075(5) 0.0778(2)
H15 H -0.2819 -0.0822 0.0423
C20 C 0.3349(8) 0.5789(4) 0.0592(2)
H16 H 0.4603 0.5503 0.0460
C21 C 0.2490(10) 0.6620(5) 0.0216(3)
H17 H 0.3141 0.6909 -0.0178
N1 N 0.0572(6) 0.5776(4) 0.1402(2)
C22 C 0.243(4) 0.263(3) 0.4329(10)
N2 N 0.388(3) 0.190(2) 0.4644(9)
C23 C 0.318(4) 0.1510(19) 0.5261(8)
H18 H 0.3959 0.0979 0.5491
C24 C 0.140(4) 0.184(2) 0.5564(8)
H19 H 0.1010 0.1528 0.5983
C25 C 0.083(4) 0.307(2) 0.4635(10)
H20 H 0.0127 0.3664 0.4432
C26 C 0.023(3) 0.262(2) 0.5259(10)
H21 H -0.0960 0.2858 0.5466
N3 N 0.6562(7) 0.7200(4) 0.2568(2)
O1 O 0.5421(6) 0.2627(4) 0.35455(18)
H22 H 0.5819 0.2335 0.3903
O2 O 0.6637(5) 0.4701(3) 0.27629(19)
H23 H 0.6949 0.4221 0.3050
O3 O 0.4456(6) 0.3764(4) 0.12503(19)
S1 S 0.0501(2) 0.03072(13) 0.12163(7)
C27? C 0.272(4) 0.286(3) 0.4351(10)
C28? C 0.231(4) 0.1633(19) 0.5346(9)
C29? C 0.075(3) 0.229(2) 0.5530(7)
C30? C 0.097(3) 0.335(2) 0.4501(8)
C31? C 0.010(3) 0.311(2) 0.5097(8)
H24? H 0.2690 0.1004 0.5615
H25? H 0.0131 0.2177 0.5950
H26? H 0.0365 0.3844 0.4194
H27? H -0.1022 0.3535 0.5224
N4? N 0.333(3) 0.191(2) 0.4762(9)
loop_
_geom_bond_atom_site_label_1
_geom_bond_atom_site_label_2
_geom_bond_site_symmetry_1
_geom_bond_site_symmetry_2
C1 H1 1_555 1_555
C2 C1 1_555 1_555
H2 C2 1_555 1_555
C3 C4 1_555 1_555
C4 C5 1_555 1_555
C5 H3 1_555 1_555
C6 C5 1_555 1_555
H4 C6 1_555 1_555
C7 C6 1_555 1_555
H5 C7 1_555 1_555
H6 C7 1_555 1_555
C8 C7 1_555 1_555
C9 H7 1_555 1_555
C10 C8 1_555 1_555
H8 C10 1_555 1_555
H9 C10 1_555 1_555
C11 C5 1_555 1_555
C12 C11 1_555 1_555
C13 C12 1_555 1_555
H10 C13 1_555 1_555
C14 C13 1_555 1_555
H11 C14 1_555 1_555
C15 C14 1_555 1_555
H12 C15 1_555 1_555
C16 C15 1_555 1_555
H13 C16 1_555 1_555
C17 C6 1_555 1_555
C18 C9 1_555 1_555
H14 C18 1_555 1_555
C19 C18 1_555 1_555
H15 C19 1_555 1_555
C20 C3 1_555 1_555
H16 C20 1_555 1_555
C21 C1 1_555 1_555
H17 C21 1_555 1_555
N1 C2 1_555 1_555
C22 C8 1_555 1_555
N2 C22 1_555 1_555
C23 N2 1_555 1_555
H18 C23 1_555 1_555
C24 C23 1_555 1_555
H19 C24 1_555 1_555
C25 C22 1_555 1_555
H20 C25 1_555 1_555
C26 C24 1_555 1_555
H21 C26 1_555 1_555
N3 C12 1_555 1_555
O1 C8 1_555 1_555
H22 O1 1_555 1_555
O2 C11 1_555 1_555
H23 O2 1_555 1_555
O3 C4 1_555 1_555
S1 C17 1_555 1_555
C3 N1 1_555 1_555
C9 C17 1_555 1_555
C10 C11 1_555 1_555
C16 N3 1_555 1_555
C19 S1 1_555 1_555
C20 C21 1_555 1_555
C25 C26 1_555 1_555

#END
