
#######################################################################
#
#                 Cambridge Crystallographic Data Centre
#                                CCDC 
#
#######################################################################
#
# If this CIF has been generated from an entry in the Cambridge 
# Structural Database, then it will include bibliographic, chemical, 
# crystal, experimental, refinement or atomic coordinate data resulting 
# from the CCDC's data processing and validation procedures.
#
#######################################################################

data_BENMAL
_chemical_formula_moiety         'C16 H28 F2 O1'
_chemical_name_systematic        7,7-difluoro-3-methylcyclopentadecanone
_symmetry_cell_setting           monoclinic
_symmetry_space_group_name_H-M   'P 21'
_symmetry_Int_Tables_number      4
_space_group_name_Hall           'P 2yb'
loop_
_symmetry_equiv_pos_site_id
_symmetry_equiv_pos_as_xyz
1 x,y,z
2 -x,1/2+y,-z
_cell_length_a                   16.987(11)
_cell_length_b                   5.307(3)
_cell_length_c                   17.547(12)
_cell_angle_alpha                90
_cell_angle_beta                 90.555(16)
_cell_angle_gamma                90
_cell_volume                     1581.79
_exptl_crystal_colour            colorless
_exptl_crystal_description       platelet
_cell_formula_units_Z            4
loop_
_atom_site_label
_atom_site_type_symbol
_atom_site_fract_x
_atom_site_fract_y
_atom_site_fract_z
F1 F 0.6167(4) 0.9274(12) 0.8694(4)
F2 F 0.6158(4) 0.5271(16) 0.9044(5)
O1 O 0.3347(4) 0.0376(11) 0.7652(3)
C1 C 0.2989(4) 0.2351(14) 0.7579(4)
C2 C 0.2673(5) 0.377(2) 0.8225(5)
H1 H 0.2105 0.3382 0.8262
H2 H 0.2718 0.5591 0.8105
C3 C 0.3052(6) 0.3328(18) 0.9011(5)
H3 H 0.3317 0.1646 0.9004
C4 C 0.3661(5) 0.5282(17) 0.9201(5)
H4 H 0.3805 0.5127 0.9747
H5 H 0.3427 0.6973 0.9124
C5 C 0.4404(5) 0.5091(15) 0.8732(5)
H6 H 0.4259 0.5021 0.8184
H7 H 0.4683 0.3510 0.8863
C6 C 0.4953(5) 0.7320(16) 0.8870(5)
H8 H 0.4716 0.8828 0.8628
H9 H 0.4980 0.7641 0.9425
C7 C 0.5763(5) 0.704(2) 0.8587(7)
C8 C 0.5868(5) 0.6174(17) 0.7767(8)
H10 H 0.6437 0.5966 0.7668
H11 H 0.5615 0.4507 0.7702
C9 C 0.5531(5) 0.7945(17) 0.7197(6)
H12 H 0.5779 0.9612 0.7279
H13 H 0.4963 0.8135 0.7305
C10 C 0.5617(6) 0.723(2) 0.6301(7)
H14 H 0.5399 0.8629 0.5989
H15 H 0.6183 0.7073 0.6180
C11 C 0.5206(6) 0.4838(19) 0.6083(6)
H16 H 0.5352 0.4397 0.5555
H17 H 0.5399 0.3471 0.6420
C12 C 0.4327(5) 0.494(2) 0.6130(5)
H18 H 0.4117 0.5980 0.5706
H19 H 0.4175 0.5752 0.6615
C13 C 0.3960(7) 0.2298(17) 0.6088(5)
H20 H 0.4124 0.1513 0.5603
H21 H 0.4189 0.1277 0.6507
C14 C 0.3090(7) 0.2117(18) 0.6134(6)
H22 H 0.2853 0.2862 0.5668
H23 H 0.2937 0.0318 0.6151
C15 C 0.2770(5) 0.3415(16) 0.6809(5)
H24 H 0.2188 0.3415 0.6763
H25 H 0.2944 0.5194 0.6793
C16 C 0.2435(7) 0.328(3) 0.9620(7)
H26 H 0.2685 0.2948 1.0115
H27 H 0.2051 0.1948 0.9506
H28 H 0.2165 0.4911 0.9635
F3 F 1.0975(3) -0.4627(8) 0.6157(3)
F4 F 1.0991(3) -0.0936(11) 0.5640(4)
O2 O 0.8452(4) 0.4848(10) 0.7388(3)
C17 C 0.8067(5) 0.2939(16) 0.7495(5)
C18 C 0.7644(6) 0.165(2) 0.6854(5)
H29 H 0.7092 0.2246 0.6855
H30 H 0.7633 -0.0175 0.6972
C19 C 0.7950(4) 0.1945(13) 0.6051(5)
H31 H 0.8247 0.3568 0.6024
C20 C 0.8504(4) -0.0165(13) 0.5843(4)
H32 H 0.8551 -0.0209 0.5282
H33 H 0.8264 -0.1779 0.6003
C21 C 0.9322(4) -0.0007(13) 0.6186(5)
H34 H 0.9283 0.0326 0.6740
H35 H 0.9608 0.1418 0.5952
C22 C 0.9785(4) -0.2439(12) 0.6061(5)
H36 H 0.9556 -0.3780 0.6383
H37 H 0.9720 -0.2961 0.5523
C23 C 1.0643(4) -0.2234(13) 0.6240(5)
C24 C 1.0918(4) -0.1153(16) 0.6969(6)
H38 H 1.0765 0.0646 0.6986
H39 H 1.1500 -0.1232 0.6987
C25 C 1.0605(5) -0.243(2) 0.7651(5)
H40 H 1.0797 -0.4187 0.7681
H41 H 1.0022 -0.2444 0.7639
C26 C 1.0910(6) -0.089(4) 0.8327(6)
H42 H 1.1445 -0.1500 0.8458
H43 H 1.0959 0.0884 0.8163
C27 C 1.0434(7) -0.095(5) 0.9022(7)
H44 H 1.0673 0.0250 0.9388
H45 H 1.0491 -0.2654 0.9248
C28 C 0.9568(7) -0.038(3) 0.8976(6)
H46 H 0.9321 -0.0960 0.9453
H47 H 0.9336 -0.1373 0.8553
C29 C 0.9355(7) 0.235(2) 0.8856(6)
H48 H 0.9554 0.2882 0.8353
H49 H 0.9632 0.3366 0.9248
C30 C 0.8483(7) 0.295(2) 0.8889(5)
H50 H 0.8419 0.4800 0.8865
H51 H 0.8283 0.2383 0.9389
C31 C 0.7971(5) 0.176(2) 0.8261(5)
H52 H 0.8101 -0.0050 0.8224
H53 H 0.7412 0.1901 0.8410
C32 C 0.7272(5) 0.207(2) 0.5488(7)
H54 H 0.6894 0.0726 0.5599
H55 H 0.7471 0.1856 0.4970
H56 H 0.7010 0.3710 0.5530
loop_
_geom_bond_atom_site_label_1
_geom_bond_atom_site_label_2
_geom_bond_site_symmetry_1
_geom_bond_site_symmetry_2
F1 C7 1_555 1_555
F2 C7 1_555 1_555
O1 C1 1_555 1_555
C1 C2 1_555 1_555
C2 H1 1_555 1_555
H2 C2 1_555 1_555
C3 C2 1_555 1_555
H3 C3 1_555 1_555
C4 C3 1_555 1_555
H4 C4 1_555 1_555
H5 C4 1_555 1_555
C5 C4 1_555 1_555
H6 C5 1_555 1_555
H7 C5 1_555 1_555
C6 C5 1_555 1_555
H8 C6 1_555 1_555
H9 C6 1_555 1_555
C7 C6 1_555 1_555
C8 C7 1_555 1_555
H10 C8 1_555 1_555
H11 C8 1_555 1_555
C9 C8 1_555 1_555
H12 C9 1_555 1_555
H13 C9 1_555 1_555
C10 C9 1_555 1_555
H14 C10 1_555 1_555
H15 C10 1_555 1_555
C11 C10 1_555 1_555
H16 C11 1_555 1_555
H17 C11 1_555 1_555
C12 C11 1_555 1_555
H18 C12 1_555 1_555
H19 C12 1_555 1_555
C13 C12 1_555 1_555
H20 C13 1_555 1_555
H21 C13 1_555 1_555
C14 C13 1_555 1_555
H22 C14 1_555 1_555
H23 C14 1_555 1_555
C15 C1 1_555 1_555
H24 C15 1_555 1_555
H25 C15 1_555 1_555
C16 C3 1_555 1_555
H26 C16 1_555 1_555
H27 C16 1_555 1_555
H28 C16 1_555 1_555
F3 C23 1_555 1_555
F4 C23 1_555 1_555
O2 C17 1_555 1_555
C17 C18 1_555 1_555
C18 H29 1_555 1_555
H30 C18 1_555 1_555
C19 C18 1_555 1_555
H31 C19 1_555 1_555
C20 C19 1_555 1_555
H32 C20 1_555 1_555
H33 C20 1_555 1_555
C21 C20 1_555 1_555
H34 C21 1_555 1_555
H35 C21 1_555 1_555
C22 C21 1_555 1_555
H36 C22 1_555 1_555
H37 C22 1_555 1_555
C23 C22 1_555 1_555
C24 C23 1_555 1_555
H38 C24 1_555 1_555
H39 C24 1_555 1_555
C25 C24 1_555 1_555
H40 C25 1_555 1_555
H41 C25 1_555 1_555
C26 C25 1_555 1_555
H42 C26 1_555 1_555
H43 C26 1_555 1_555
C27 C26 1_555 1_555
H44 C27 1_555 1_555
H45 C27 1_555 1_555
C28 C27 1_555 1_555
H46 C28 1_555 1_555
H47 C28 1_555 1_555
C29 C28 1_555 1_555
H48 C29 1_555 1_555
H49 C29 1_555 1_555
C30 C29 1_555 1_555
H50 C30 1_555 1_555
H51 C30 1_555 1_555
C31 C17 1_555 1_555
H52 C31 1_555 1_555
H53 C31 1_555 1_555
C32 C19 1_555 1_555
H54 C32 1_555 1_555
H55 C32 1_555 1_555
H56 C32 1_555 1_555
C14 C15 1_555 1_555
C30 C31 1_555 1_555

#END
