
#######################################################################
#
#                 Cambridge Crystallographic Data Centre
#                                CCDC 
#
#######################################################################
#
# If this CIF has been generated from an entry in the Cambridge 
# Structural Database, then it will include bibliographic, chemical, 
# crystal, experimental, refinement or atomic coordinate data resulting 
# from the CCDC's data processing and validation procedures.
#
#######################################################################

data_BENMOZ
_chemical_formula_moiety         'C16 H26 F2 O1'
_chemical_name_systematic        
10,10-difluoro-14-methylcyclopentadec-6-en-1-one
_symmetry_cell_setting           orthorhombic
_symmetry_space_group_name_H-M   'P 21 21 21'
_symmetry_Int_Tables_number      19
_space_group_name_Hall           'P 2ac 2ab'
loop_
_symmetry_equiv_pos_site_id
_symmetry_equiv_pos_as_xyz
1 x,y,z
2 1/2+x,1/2-y,-z
3 -x,1/2+y,1/2-z
4 1/2-x,-y,1/2+z
_cell_length_a                   5.2696(11)
_cell_length_b                   16.852(4)
_cell_length_c                   17.442(4)
_cell_angle_alpha                90
_cell_angle_beta                 90
_cell_angle_gamma                90
_cell_volume                     1548.91
_exptl_crystal_colour            colorless
_exptl_crystal_description       platelet
_cell_formula_units_Z            4
loop_
_atom_site_label
_atom_site_type_symbol
_atom_site_fract_x
_atom_site_fract_y
_atom_site_fract_z
F1 F 0.2041(3) 0.86587(8) 0.41775(8)
F2 F -0.1850(3) 0.86690(8) 0.37412(8)
O1 O 0.7395(3) 0.59635(10) 0.27285(8)
C1 C 0.5449(4) 0.55953(11) 0.26123(12)
C2 C 0.4057(4) 0.51748(12) 0.32469(13)
H1 H 0.4675 0.4620 0.3266
H2 H 0.2236 0.5155 0.3109
C3 C 0.4273(4) 0.55257(12) 0.40542(12)
H3 H 0.5960 0.5793 0.4102
C4 C 0.2201(4) 0.61384(12) 0.42055(11)
H4 H 0.0543 0.5898 0.4074
H5 H 0.2179 0.6257 0.4761
C5 C 0.2448(3) 0.69163(11) 0.37729(12)
H6 H 0.2660 0.6806 0.3219
H7 H 0.3978 0.7202 0.3953
C6 C 0.0118(4) 0.74389(13) 0.38915(12)
H8 H -0.1312 0.7212 0.3596
H9 H -0.0356 0.7423 0.4441
C7 C 0.0457(4) 0.82897(12) 0.36573(12)
C8 C 0.1460(4) 0.84677(11) 0.28669(13)
H10 H 0.3204 0.8254 0.2824
H11 H 0.1561 0.9050 0.2801
C9 C -0.0147(4) 0.81236(12) 0.22221(12)
H12 H -0.0154 0.7537 0.2259
H13 H -0.1919 0.8312 0.2275
C10 C 0.0867(4) 0.83662(13) 0.14579(13)
H14 H 0.0709 0.8913 0.1334
C11 C 0.1955(5) 0.79170(14) 0.09339(14)
H15 H 0.2513 0.8177 0.0481
C12 C 0.2402(4) 0.70416(13) 0.09774(13)
H16 H 0.2053 0.6801 0.0470
H17 H 0.1210 0.6806 0.1352
C13 C 0.5112(4) 0.68466(12) 0.12148(12)
H18 H 0.6297 0.7127 0.0868
H19 H 0.5403 0.7049 0.1740
C14 C 0.5715(4) 0.59638(14) 0.11981(12)
H20 H 0.5235 0.5748 0.0690
H21 H 0.7570 0.5893 0.1258
C15 C 0.4370(4) 0.54896(12) 0.18158(12)
H22 H 0.2559 0.5646 0.1823
H23 H 0.4450 0.4920 0.1679
C16 C 0.4127(5) 0.48660(14) 0.46500(15)
H24 H 0.2518 0.4581 0.4594
H25 H 0.4229 0.5096 0.5165
H26 H 0.5542 0.4497 0.4575
loop_
_geom_bond_atom_site_label_1
_geom_bond_atom_site_label_2
_geom_bond_site_symmetry_1
_geom_bond_site_symmetry_2
F1 C7 1_555 1_555
F2 C7 1_555 1_555
O1 C1 1_555 1_555
C1 C2 1_555 1_555
C2 H1 1_555 1_555
H2 C2 1_555 1_555
C3 C2 1_555 1_555
H3 C3 1_555 1_555
C4 C3 1_555 1_555
H4 C4 1_555 1_555
H5 C4 1_555 1_555
C5 C4 1_555 1_555
H6 C5 1_555 1_555
H7 C5 1_555 1_555
C6 C5 1_555 1_555
H8 C6 1_555 1_555
H9 C6 1_555 1_555
C7 C6 1_555 1_555
C8 C7 1_555 1_555
H10 C8 1_555 1_555
H11 C8 1_555 1_555
C9 C8 1_555 1_555
H12 C9 1_555 1_555
H13 C9 1_555 1_555
C10 C9 1_555 1_555
H14 C10 1_555 1_555
C11 C10 1_555 1_555
H15 C11 1_555 1_555
C12 C11 1_555 1_555
H16 C12 1_555 1_555
H17 C12 1_555 1_555
C13 C12 1_555 1_555
H18 C13 1_555 1_555
H19 C13 1_555 1_555
C14 C13 1_555 1_555
H20 C14 1_555 1_555
H21 C14 1_555 1_555
C15 C1 1_555 1_555
H22 C15 1_555 1_555
H23 C15 1_555 1_555
C16 C3 1_555 1_555
H24 C16 1_555 1_555
H25 C16 1_555 1_555
H26 C16 1_555 1_555
C14 C15 1_555 1_555

#END
