
#######################################################################
#
#                 Cambridge Crystallographic Data Centre
#                                CCDC 
#
#######################################################################
#
# If this CIF has been generated from an entry in the Cambridge 
# Structural Database, then it will include bibliographic, chemical, 
# crystal, experimental, refinement or atomic coordinate data resulting 
# from the CCDC's data processing and validation procedures.
#
#######################################################################

data_BENMUF
_chemical_formula_moiety         'C24 H22 Br2 N2 S2'
_chemical_name_systematic        
2,9-dibromo-4,7-di-t-butylbisthieno[3,2-c:2',3'-i][1,10]phenanthroline
_symmetry_cell_setting           monoclinic
_symmetry_space_group_name_H-M   'P 21/c'
_symmetry_Int_Tables_number      14
_space_group_name_Hall           '-P 2ybc'
loop_
_symmetry_equiv_pos_site_id
_symmetry_equiv_pos_as_xyz
1 x,y,z
2 -x,1/2+y,1/2-z
3 -x,-y,-z
4 x,1/2-y,1/2+z
_cell_length_a                   6.25656(20)
_cell_length_b                   20.1295(8)
_cell_length_c                   17.8928(6)
_cell_angle_alpha                90
_cell_angle_beta                 96.663(3)
_cell_angle_gamma                90
_cell_volume                     2238.22
_cell_formula_units_Z            4
loop_
_atom_site_label
_atom_site_type_symbol
_atom_site_fract_x
_atom_site_fract_y
_atom_site_fract_z
Br1 Br 0.40701(5) 0.63753(2) 0.13665(2)
Br2 Br -1.40509(5) 0.22828(2) 0.03699(2)
S1 S -0.99697(12) 0.31514(4) 0.03932(4)
S2 S 0.02140(12) 0.54156(4) 0.09428(4)
N1 N -0.6992(4) 0.39333(13) 0.26240(14)
C1 C -0.7763(6) 0.35241(18) 0.39794(18)
H1 H -0.6265 0.3414 0.3921
H2 H -0.8142 0.3335 0.4451
H3 H -0.7932 0.4008 0.3989
N2 N -0.3839(4) 0.48913(13) 0.27702(14)
C2 C -0.3240(5) 0.47344(15) 0.14542(17)
C3 C -0.4340(5) 0.45989(15) 0.20834(17)
C4 C -0.0837(5) 0.54406(15) 0.23082(17)
C5 C -0.5712(5) 0.40605(16) 0.06407(17)
H4 H -0.6200 0.3892 0.0155
C6 C -1.1839(5) 0.27729(16) 0.08930(19)
C7 C -0.1444(5) 0.51617(15) 0.16001(17)
C8 C -0.9632(5) 0.32887(15) 0.18511(17)
C9 C -0.6124(5) 0.41357(15) 0.19933(16)
C10 C 0.1729(5) 0.58842(16) 0.16229(18)
C11 C -0.8622(5) 0.35154(15) 0.25700(17)
C12 C -1.1481(5) 0.28787(16) 0.16460(18)
H5 H -1.2356 0.2701 0.1997
C13 C -0.3957(5) 0.44624(15) 0.07370(17)
H6 H -0.3202 0.4563 0.0320
C14 C -0.6826(5) 0.38901(15) 0.12669(17)
C15 C -0.2200(5) 0.53026(15) 0.28871(17)
C16 C 0.1038(5) 0.58572(16) 0.23089(18)
H7 H 0.1705 0.6085 0.2740
C17 C -0.9252(5) 0.32349(16) 0.33146(17)
C18 C -0.8647(5) 0.34766(16) 0.12186(17)
C19 C -0.8935(6) 0.24762(17) 0.33102(19)
H8 H -0.7453 0.2374 0.3222
H9 H -0.9935 0.2279 0.2909
H10 H -0.9215 0.2292 0.3797
C20 C -0.1864(5) 0.56415(17) 0.36564(17)
C21 C -0.2106(6) 0.63964(17) 0.3543(2)
H11 H -0.1013 0.6556 0.3236
H12 H -0.1918 0.6619 0.4033
H13 H -0.3542 0.6495 0.3287
C22 C -1.1584(5) 0.34094(17) 0.34249(18)
H14 H -1.1942 0.3213 0.3896
H15 H -1.2558 0.3233 0.3003
H16 H -1.1741 0.3893 0.3446
C23 C 0.0372(5) 0.5484(2) 0.40662(19)
H17 H 0.0483 0.5007 0.4170
H18 H 0.0583 0.5731 0.4541
H19 H 0.1477 0.5615 0.3749
C24 C -0.3550(5) 0.54059(19) 0.41517(19)
H20 H -0.4991 0.5515 0.3908
H21 H -0.3312 0.5628 0.4642
H22 H -0.3427 0.4924 0.4223
loop_
_geom_bond_atom_site_label_1
_geom_bond_atom_site_label_2
_geom_bond_site_symmetry_1
_geom_bond_site_symmetry_2
Br1 C10 1_555 1_555
Br2 C6 1_555 1_555
S1 C6 1_555 1_555
S2 C7 1_555 1_555
N1 C9 1_555 1_555
C1 H1 1_555 1_555
H2 C1 1_555 1_555
H3 C1 1_555 1_555
N2 C3 1_555 1_555
C2 C3 1_555 1_555
C3 C9 1_555 1_555
C4 C7 1_555 1_555
C5 H4 1_555 1_555
C6 C12 1_555 1_555
C7 C2 1_555 1_555
C8 C11 1_555 1_555
C9 C14 1_555 1_555
C10 S2 1_555 1_555
C11 N1 1_555 1_555
C12 C8 1_555 1_555
H5 C12 1_555 1_555
C13 C2 1_555 1_555
H6 C13 1_555 1_555
C14 C5 1_555 1_555
C15 N2 1_555 1_555
C16 C4 1_555 1_555
H7 C16 1_555 1_555
C17 C1 1_555 1_555
C18 S1 1_555 1_555
C19 C17 1_555 1_555
H8 C19 1_555 1_555
H9 C19 1_555 1_555
H10 C19 1_555 1_555
C20 C15 1_555 1_555
C21 C20 1_555 1_555
H11 C21 1_555 1_555
H12 C21 1_555 1_555
H13 C21 1_555 1_555
C22 C17 1_555 1_555
H14 C22 1_555 1_555
H15 C22 1_555 1_555
H16 C22 1_555 1_555
C23 C20 1_555 1_555
H17 C23 1_555 1_555
H18 C23 1_555 1_555
H19 C23 1_555 1_555
C24 C20 1_555 1_555
H20 C24 1_555 1_555
H21 C24 1_555 1_555
H22 C24 1_555 1_555
C4 C15 1_555 1_555
C5 C13 1_555 1_555
C8 C18 1_555 1_555
C10 C16 1_555 1_555
C11 C17 1_555 1_555
C14 C18 1_555 1_555

#END
