
#######################################################################
#
#                 Cambridge Crystallographic Data Centre
#                                CCDC 
#
#######################################################################
#
# If this CIF has been generated from an entry in the Cambridge 
# Structural Database, then it will include bibliographic, chemical, 
# crystal, experimental, refinement or atomic coordinate data resulting 
# from the CCDC's data processing and validation procedures.
#
#######################################################################

data_BENMAK
_chemical_formula_moiety         'C28 H22 N2 2+,2(Cl1 1-)'
_chemical_name_systematic        
'9,10-bis(2-(pyridinium-3-yl)ethenyl)anthracene dichloride'
_symmetry_cell_setting           triclinic
_symmetry_space_group_name_H-M   'P -1'
_symmetry_Int_Tables_number      2
_space_group_name_Hall           '-P 1'
loop_
_symmetry_equiv_pos_site_id
_symmetry_equiv_pos_as_xyz
1 x,y,z
2 -x,-y,-z
_cell_length_a                   4.9933(10)
_cell_length_b                   7.9912(16)
_cell_length_c                   14.017(3)
_cell_angle_alpha                87.95(3)
_cell_angle_beta                 85.51(3)
_cell_angle_gamma                81.56(3)
_cell_volume                     551.39
_exptl_crystal_colour            yellow
_exptl_crystal_description       block
_cell_formula_units_Z            1
loop_
_atom_site_label
_atom_site_type_symbol
_atom_site_fract_x
_atom_site_fract_y
_atom_site_fract_z
Cl1 Cl 1.39854(12) -0.22716(7) 0.09812(4)
C1 C 0.2870(4) 0.2804(2) 0.51053(13)
H1 H 0.4204 0.3004 0.4631
C2 C 0.2368(4) 0.3835(3) 0.58669(15)
H2 H 0.3346 0.4732 0.5906
C3 C 0.0364(4) 0.3551(2) 0.66019(14)
H3 H 0.0007 0.4275 0.7116
C4 C -0.1030(4) 0.2235(2) 0.65603(13)
H4 H -0.2318 0.2055 0.7055
C5 C -0.0576(3) 0.1109(2) 0.57734(11)
C6 C 0.1405(3) 0.1423(2) 0.50127(12)
C7 C 0.1945(3) 0.0308(2) 0.42362(12)
C8 C 0.4023(3) 0.0530(2) 0.34482(12)
H5 H 0.5330 -0.0402 0.3313
C9 C 0.4223(4) 0.1909(2) 0.29173(12)
H6 H 0.2885 0.2835 0.3028
C10 C 0.6386(3) 0.2103(2) 0.21641(11)
C11 C 0.8151(4) 0.0738(2) 0.18012(12)
H7 H 0.7907 -0.0355 0.2002
C12 C 1.0661(4) 0.2501(3) 0.08341(13)
H8 H 1.2128 0.2613 0.0397
C13 C 0.8939(5) 0.3899(3) 0.11476(14)
H9 H 0.9209 0.4972 0.0918
C14 C 0.6797(4) 0.3702(2) 0.18070(12)
H10 H 0.5614 0.4650 0.2015
N1 N 1.0204(3) 0.0977(2) 0.11649(10)
H11 H 1.1282 0.0104 0.0959
C1A C -0.2870(4) -0.2804(2) 0.48947(13)
H1A H -0.4204 -0.3004 0.5369
C2A C -0.2368(4) -0.3835(3) 0.41331(15)
H2A H -0.3346 -0.4732 0.4094
C3A C -0.0364(4) -0.3551(2) 0.33981(14)
H3A H -0.0007 -0.4275 0.2884
C4A C 0.1030(4) -0.2235(2) 0.34397(13)
H4A H 0.2318 -0.2055 0.2945
C5A C 0.0576(3) -0.1109(2) 0.42266(11)
C6A C -0.1405(3) -0.1423(2) 0.49873(12)
C7A C -0.1945(3) -0.0308(2) 0.57638(12)
C8A C -0.4023(3) -0.0530(2) 0.65518(12)
H5A H -0.5330 0.0402 0.6687
C9A C -0.4223(4) -0.1909(2) 0.70827(12)
H6A H -0.2885 -0.2835 0.6972
C10A C -0.6386(3) -0.2103(2) 0.78359(11)
C11A C -0.8151(4) -0.0738(2) 0.81988(12)
H7A H -0.7907 0.0355 0.7998
C12A C -1.0661(4) -0.2501(3) 0.91659(13)
H8A H -1.2128 -0.2613 0.9603
C13A C -0.8939(5) -0.3899(3) 0.88524(14)
H9A H -0.9209 -0.4972 0.9082
C14A C -0.6797(4) -0.3702(2) 0.81930(12)
H10A H -0.5614 -0.4650 0.7985
N1A N -1.0204(3) -0.0977(2) 0.88351(10)
H11A H -1.1282 -0.0104 0.9041
loop_
_geom_bond_atom_site_label_1
_geom_bond_atom_site_label_2
_geom_bond_site_symmetry_1
_geom_bond_site_symmetry_2
C1 H1 1_555 1_555
C2 C1 1_555 1_555
H2 C2 1_555 1_555
C3 C2 1_555 1_555
H3 C3 1_555 1_555
C4 C3 1_555 1_555
H4 C4 1_555 1_555
C5 C4 1_555 1_555
C6 C1 1_555 1_555
C7 C6 1_555 1_555
C8 C7 1_555 1_555
H5 C8 1_555 1_555
C9 C8 1_555 1_555
H6 C9 1_555 1_555
C10 C9 1_555 1_555
C11 C10 1_555 1_555
H7 C11 1_555 1_555
C12 H8 1_555 1_555
C13 C12 1_555 1_555
H9 C13 1_555 1_555
C14 C10 1_555 1_555
H10 C14 1_555 1_555
N1 C11 1_555 1_555
H11 N1 1_555 1_555
C1A H1A 1_555 1_555
C2A C1A 1_555 1_555
H2A C2A 1_555 1_555
C3A C2A 1_555 1_555
H3A C3A 1_555 1_555
C4A C3A 1_555 1_555
H4A C4A 1_555 1_555
C5A C7 1_555 1_555
C6A C1A 1_555 1_555
C7A C5 1_555 1_555
C8A C7A 1_555 1_555
H5A C8A 1_555 1_555
C9A C8A 1_555 1_555
H6A C9A 1_555 1_555
C10A C9A 1_555 1_555
C11A C10A 1_555 1_555
H7A C11A 1_555 1_555
C12A H8A 1_555 1_555
C13A C12A 1_555 1_555
H9A C13A 1_555 1_555
C14A C10A 1_555 1_555
H10A C14A 1_555 1_555
N1A C11A 1_555 1_555
H11A N1A 1_555 1_555
C5 C6 1_555 1_555
C12 N1 1_555 1_555
C13 C14 1_555 1_555
C4A C5A 1_555 1_555
C5A C6A 1_555 1_555
C6A C7A 1_555 1_555
C12A N1A 1_555 1_555
C13A C14A 1_555 1_555

#END
