
#######################################################################
#
#                 Cambridge Crystallographic Data Centre
#                                CCDC 
#
#######################################################################
#
# If this CIF has been generated from an entry in the Cambridge 
# Structural Database, then it will include bibliographic, chemical, 
# crystal, experimental, refinement or atomic coordinate data resulting 
# from the CCDC's data processing and validation procedures.
#
#######################################################################

data_BENNOY
_chemical_formula_moiety         'C9 H12 Cl2 O4 S2'
_chemical_name_systematic        
5-endo-6-exo-bis(chloromethanesulfonyl)bicyclo(2.2.1)hept-2-ene
_symmetry_cell_setting           monoclinic
_symmetry_space_group_name_H-M   'P c'
_symmetry_Int_Tables_number      7
_space_group_name_Hall           'P -2yc'
loop_
_symmetry_equiv_pos_site_id
_symmetry_equiv_pos_as_xyz
1 x,y,z
2 x,-y,1/2+z
_cell_length_a                   9.9279(6)
_cell_length_b                   7.8341(4)
_cell_length_c                   15.8873(9)
_cell_angle_alpha                90
_cell_angle_beta                 95.946(1)
_cell_angle_gamma                90
_cell_volume                     1229.01
_exptl_crystal_colour            colorless
_exptl_crystal_description       needle
_chemical_melting_point          '144-145 deg.C'
_cell_formula_units_Z            4
loop_
_atom_site_label
_atom_site_type_symbol
_atom_site_fract_x
_atom_site_fract_y
_atom_site_fract_z
S1 S 0.60643(5) 0.86857(7) 0.52874(3)
S2 S 0.84272(5) 0.67659(6) 0.72504(3)
Cl1 Cl 0.50727(6) 0.59515(9) 0.41987(4)
Cl2 Cl 0.76039(7) 0.69950(8) 0.89638(4)
O1 O 0.6222(2) 0.9707(3) 0.45557(13)
O2 O 0.48113(18) 0.8787(3) 0.56629(12)
O3 O 0.97512(16) 0.7353(2) 0.75839(12)
O4 O 0.83430(18) 0.5581(2) 0.65485(11)
C1 C 0.6544(3) 1.1921(3) 0.6477(2)
H1 H 0.595(4) 1.261(5) 0.621(2)
C2 C 0.6496(3) 1.1398(3) 0.72659(19)
H2 H 0.579(4) 1.165(5) 0.761(2)
C3 C 0.7761(2) 1.1097(3) 0.61434(17)
H3 H 0.807(3) 1.150(4) 0.560(2)
C4 C 0.7699(2) 1.0219(3) 0.74917(16)
H4 H 0.796(4) 1.000(4) 0.811(2)
C5 C 0.8745(2) 1.1034(3) 0.69567(17)
H5 H 0.957(3) 1.029(4) 0.6934(19)
H6 H 0.907(3) 1.220(4) 0.717(2)
C6 C 0.7484(2) 0.9134(3) 0.60468(15)
H7 H 0.820(3) 0.865(4) 0.5808(18)
C7 C 0.7323(2) 0.8549(3) 0.69671(14)
H8 H 0.650(3) 0.806(4) 0.7020(18)
C8 C 0.6326(3) 0.6496(4) 0.50335(18)
H9 H 0.618(4) 0.570(5) 0.551(2)
H10 H 0.724(4) 0.635(5) 0.483(2)
C9 C 0.7666(2) 0.5680(3) 0.80708(15)
H11 H 0.667(3) 0.532(4) 0.788(2)
H12 H 0.822(3) 0.481(4) 0.8226(19)
S3 S 1.31819(5) 0.56372(7) 0.71327(3)
S4 S 1.09791(5) 0.72934(7) 0.50131(4)
Cl3 Cl 1.41684(6) 0.85865(9) 0.80870(4)
Cl4 Cl 1.09644(6) 0.98253(8) 0.36960(4)
O5 O 1.2852(2) 0.4798(3) 0.78943(12)
O6 O 1.45037(18) 0.5356(2) 0.68594(12)
O7 O 0.97517(18) 0.6616(2) 0.45818(14)
O8 O 1.0856(2) 0.8510(2) 0.56819(12)
C10 C 1.2905(3) 0.2310(3) 0.60056(19)
H13 H 1.354(3) 0.164(4) 0.643(2)
C11 C 1.3021(3) 0.2748(3) 0.5211(2)
H14 H 1.370(4) 0.240(5) 0.489(2)
C12 C 1.1629(3) 0.3111(3) 0.62647(18)
H15 H 1.124(3) 0.276(4) 0.674(2)
C13 C 1.1823(3) 0.3872(3) 0.49154(17)
H16 H 1.160(3) 0.398(4) 0.435(2)
C14 C 1.0730(3) 0.3070(3) 0.54193(18)
H17 H 1.051(3) 0.188(5) 0.527(2)
H18 H 0.987(3) 0.377(4) 0.536(2)
C15 C 1.1861(2) 0.5093(3) 0.63255(14)
H19 H 1.103(3) 0.572(4) 0.6479(19)
C16 C 1.2099(2) 0.5602(3) 0.54116(14)
H20 H 1.290(3) 0.603(4) 0.536(2)
C17 C 1.2966(3) 0.7891(3) 0.72600(17)
H21 H 1.306(3) 0.845(4) 0.674(2)
H22 H 1.211(3) 0.805(4) 0.743(2)
C18 C 1.1960(2) 0.8240(3) 0.42485(16)
H23 H 1.205(3) 0.747(5) 0.387(2)
H24 H 1.276(3) 0.876(4) 0.4588(17)
loop_
_geom_bond_atom_site_label_1
_geom_bond_atom_site_label_2
_geom_bond_site_symmetry_1
_geom_bond_site_symmetry_2
S1 O1 1_555 1_555
S2 O3 1_555 1_555
Cl1 C8 1_555 1_555
Cl2 C9 1_555 1_555
O2 S1 1_555 1_555
O4 S2 1_555 1_555
C1 H1 1_555 1_555
C2 C1 1_555 1_555
H2 C2 1_555 1_555
C3 C1 1_555 1_555
H3 C3 1_555 1_555
C4 C2 1_555 1_555
H4 C4 1_555 1_555
C5 C3 1_555 1_555
H5 C5 1_555 1_555
H6 C5 1_555 1_555
C6 S1 1_555 1_555
H7 C6 1_555 1_555
C7 S2 1_555 1_555
H8 C7 1_555 1_555
C8 S1 1_555 1_555
H9 C8 1_555 1_555
H10 C8 1_555 1_555
C9 S2 1_555 1_555
H11 C9 1_555 1_555
H12 C9 1_555 1_555
S3 O5 1_555 1_555
S4 O7 1_555 1_555
Cl3 C17 1_555 1_555
Cl4 C18 1_555 1_555
O6 S3 1_555 1_555
O8 S4 1_555 1_555
C10 H13 1_555 1_555
C11 C10 1_555 1_555
H14 C11 1_555 1_555
C12 C10 1_555 1_555
H15 C12 1_555 1_555
C13 C11 1_555 1_555
H16 C13 1_555 1_555
C14 C12 1_555 1_555
H17 C14 1_555 1_555
H18 C14 1_555 1_555
C15 S3 1_555 1_555
H19 C15 1_555 1_555
C16 S4 1_555 1_555
H20 C16 1_555 1_555
C17 S3 1_555 1_555
H21 C17 1_555 1_555
H22 C17 1_555 1_555
C18 S4 1_555 1_555
H23 C18 1_555 1_555
H24 C18 1_555 1_555
C3 C6 1_555 1_555
C4 C5 1_555 1_555
C4 C7 1_555 1_555
C6 C7 1_555 1_555
C12 C15 1_555 1_555
C13 C14 1_555 1_555
C13 C16 1_555 1_555
C15 C16 1_555 1_555

#END
