
#######################################################################
#
#                 Cambridge Crystallographic Data Centre
#                                CCDC 
#
#######################################################################
#
# If this CIF has been generated from an entry in the Cambridge 
# Structural Database, then it will include bibliographic, chemical, 
# crystal, experimental, refinement or atomic coordinate data resulting 
# from the CCDC's data processing and validation procedures.
#
#######################################################################

data_BENRAP
_chemical_formula_moiety         'C20 H33 N1 O4 S2 Si1'
_chemical_name_systematic        
'(5R,6S)-Allyl 6-((R)-1-((t-butyl(dimethyl)silyl)oxy)ethyl)-7-oxo-3-(propylsulfanyl)-4-thia-1-azabicyclo[3.2.0]hept-2-ene-2-carboxylate'
_symmetry_cell_setting           monoclinic
_symmetry_space_group_name_H-M   'P 21'
_symmetry_Int_Tables_number      4
_space_group_name_Hall           'P 2yb'
loop_
_symmetry_equiv_pos_site_id
_symmetry_equiv_pos_as_xyz
1 x,y,z
2 -x,1/2+y,-z
_cell_length_a                   6.564(2)
_cell_length_b                   12.630(3)
_cell_length_c                   15.150(5)
_cell_angle_alpha                90
_cell_angle_beta                 90.915(15)
_cell_angle_gamma                90
_cell_volume                     1255.83
_exptl_crystal_colour            colorless
_exptl_crystal_description       plate
_cell_formula_units_Z            2
loop_
_atom_site_label
_atom_site_type_symbol
_atom_site_fract_x
_atom_site_fract_y
_atom_site_fract_z
S1 S 1.2124(3) 0.42150(14) 0.49802(11)
S2 S 1.0591(3) 0.30465(14) 0.65899(12)
Si1 Si 0.8846(3) 0.36380(17) 0.10863(15)
O1 O 0.6115(7) 0.4498(4) 0.3658(3)
O2 O 0.6919(8) 0.2087(4) 0.5953(4)
O3 O 0.5975(7) 0.2077(3) 0.4521(3)
O4 O 0.9901(7) 0.3969(3) 0.2042(3)
N1 N 0.9012(7) 0.3465(4) 0.4056(3)
C1 C 1.0328(9) 0.3374(5) 0.5490(4)
C2 C 0.8863(9) 0.3061(5) 0.4937(4)
C3 C 0.7952(11) 0.4317(5) 0.3693(4)
C4 C 0.9853(9) 0.4875(5) 0.3411(4)
C5 C 1.0966(9) 0.3964(5) 0.3889(4)
C6 C 1.3020(10) 0.3581(7) 0.6915(5)
C7 C 1.3557(16) 0.3237(13) 0.7839(6)
C8 C 1.5586(19) 0.3653(13) 0.8144(7)
C9 C 0.7147(11) 0.2354(5) 0.5199(6)
C10 C 0.4256(11) 0.1419(6) 0.4739(6)
C11 C 0.3360(18) 0.1019(10) 0.3929(9)
C12 C 0.168(3) 0.0770(13) 0.3709(9)
C13 C 1.0140(10) 0.4994(5) 0.2427(4)
C14 C 1.2222(12) 0.5468(6) 0.2213(5)
C15 C 0.7895(18) 0.2279(10) 0.1241(8)
C16 C 0.965(3) 0.1569(9) 0.1487(12)
C17 C 0.625(3) 0.2317(15) 0.1950(8)
C18 C 0.704(2) 0.1864(10) 0.0351(8)
C19 C 0.6923(15) 0.4599(9) 0.0756(6)
C20 C 1.0857(14) 0.3633(11) 0.0192(6)
H1 H 1.0040 0.5550 0.3722
H2 H 1.1837 0.3548 0.3500
H3 H 0.4302 0.0938 0.3482
H4 H 0.9073 0.5461 0.2189
H5 H 1.4055 0.3336 0.6514
H6 H 1.2974 0.4348 0.6887
H7 H 1.2515 0.3485 0.8236
H8 H 1.3575 0.2470 0.7865
H9 H 1.6634 0.3373 0.7777
H10 H 1.5837 0.3441 0.8745
H11 H 1.5587 0.4412 0.8107
H12 H 0.4700 0.0835 0.5111
H13 H 0.3260 0.1830 0.5058
H14 H 0.0624 0.0820 0.4107
H15 H 0.1432 0.0525 0.3139
H16 H 1.3279 0.5016 0.2444
H17 H 1.2341 0.6157 0.2477
H18 H 1.2350 0.5528 0.1585
H19 H 0.9973 0.1652 0.2104
H20 H 1.0816 0.1757 0.1145
H21 H 0.9286 0.0846 0.1370
H22 H 0.5400 0.1701 0.1899
H23 H 0.5435 0.2941 0.1869
H24 H 0.6888 0.2332 0.2524
H25 H 0.6362 0.1199 0.0443
H26 H 0.8130 0.1769 -0.0054
H27 H 0.6078 0.2367 0.0112
H28 H 0.5597 0.4331 0.0893
H29 H 0.7002 0.4725 0.0133
H30 H 0.7154 0.5250 0.1069
H31 H 1.1531 0.4307 0.0181
H32 H 1.0215 0.3502 -0.0372
H33 H 1.1838 0.3087 0.0315
loop_
_geom_bond_atom_site_label_1
_geom_bond_atom_site_label_2
_geom_bond_site_symmetry_1
_geom_bond_site_symmetry_2
S1 C1 1_555 1_555
S2 C1 1_555 1_555
Si1 O4 1_555 1_555
O1 C3 1_555 1_555
O2 C9 1_555 1_555
O3 C9 1_555 1_555
O4 C13 1_555 1_555
N1 C2 1_555 1_555
C1 C2 1_555 1_555
C2 C9 1_555 1_555
C3 N1 1_555 1_555
C4 C3 1_555 1_555
C5 S1 1_555 1_555
C6 S2 1_555 1_555
C7 C6 1_555 1_555
C8 C7 1_555 1_555
C10 O3 1_555 1_555
C11 C10 1_555 1_555
C12 C11 1_555 1_555
C13 C4 1_555 1_555
C14 C13 1_555 1_555
C15 Si1 1_555 1_555
C16 C15 1_555 1_555
C17 C15 1_555 1_555
C18 C15 1_555 1_555
C19 Si1 1_555 1_555
C20 Si1 1_555 1_555
H1 C4 1_555 1_555
H2 C5 1_555 1_555
H3 C11 1_555 1_555
H4 C13 1_555 1_555
H5 C6 1_555 1_555
H6 C6 1_555 1_555
H7 C7 1_555 1_555
H8 C7 1_555 1_555
H9 C8 1_555 1_555
H10 C8 1_555 1_555
H11 C8 1_555 1_555
H12 C10 1_555 1_555
H13 C10 1_555 1_555
H14 C12 1_555 1_555
H15 C12 1_555 1_555
H16 C14 1_555 1_555
H17 C14 1_555 1_555
H18 C14 1_555 1_555
H19 C16 1_555 1_555
H20 C16 1_555 1_555
H21 C16 1_555 1_555
H22 C17 1_555 1_555
H23 C17 1_555 1_555
H24 C17 1_555 1_555
H25 C18 1_555 1_555
H26 C18 1_555 1_555
H27 C18 1_555 1_555
H28 C19 1_555 1_555
H29 C19 1_555 1_555
H30 C19 1_555 1_555
H31 C20 1_555 1_555
H32 C20 1_555 1_555
H33 C20 1_555 1_555
N1 C5 1_555 1_555
C4 C5 1_555 1_555

#END
