
#######################################################################
#
#                 Cambridge Crystallographic Data Centre
#                                CCDC 
#
#######################################################################
#
# If this CIF has been generated from an entry in the Cambridge 
# Structural Database, then it will include bibliographic, chemical, 
# crystal, experimental, refinement or atomic coordinate data resulting 
# from the CCDC's data processing and validation procedures.
#
#######################################################################

data_BENRUJ
_chemical_formula_moiety         'C16 H20 B1 N1'
_chemical_name_systematic        
2,6,6,10-Tetramethyl-6,7-dihydro-5\l^5^,6\l^5^-pyrido[2,1-a][2,3]benzazaborinine
_symmetry_cell_setting           monoclinic
_symmetry_space_group_name_H-M   'P 21/n'
_symmetry_Int_Tables_number      14
_space_group_name_Hall           '-P 2yn'
loop_
_symmetry_equiv_pos_site_id
_symmetry_equiv_pos_as_xyz
1 x,y,z
2 1/2-x,1/2+y,1/2-z
3 -x,-y,-z
4 1/2+x,1/2-y,1/2+z
_cell_length_a                   12.046(7)
_cell_length_b                   10.320(6)
_cell_length_c                   12.489(7)
_cell_angle_alpha                90
_cell_angle_beta                 114.189(5)
_cell_angle_gamma                90
_cell_volume                     1416.25
_cell_formula_units_Z            4
loop_
_atom_site_label
_atom_site_type_symbol
_atom_site_fract_x
_atom_site_fract_y
_atom_site_fract_z
B1 B 0.9651(4) -0.1206(5) 0.1809(4)
N1 N 0.9928(3) 0.0259(3) 0.2389(2)
C1 C 0.6558(4) -0.0091(5) 0.5019(4)
H1 H 0.6617 0.0856 0.5059
H2 H 0.6825 -0.0445 0.5814
H3 H 0.5712 -0.0345 0.4552
C2 C 0.7352(4) -0.0609(5) 0.4458(3)
C3 C 0.8005(3) 0.0210(4) 0.4051(3)
H4 H 0.7931 0.1119 0.4119
C4 C 0.8764(3) -0.0253(4) 0.3543(3)
C5 C 0.9464(3) 0.0671(4) 0.3155(3)
C6 C 1.0709(4) -0.1630(5) 0.1400(4)
H5 H 1.0537 -0.2501 0.1058
H6 H 1.1495 -0.1631 0.2081
H7 H 1.0736 -0.1015 0.0813
C7 C 0.9645(3) 0.1951(4) 0.3541(3)
H8 H 0.9345 0.2228 0.4098
C8 C 1.0246(4) 0.2824(4) 0.3138(3)
C9 C 1.0722(4) 0.2381(4) 0.2383(3)
H9 H 1.1174 0.2947 0.2113
C10 C 1.0543(3) 0.1114(5) 0.2018(3)
H10 H 1.0867 0.0826 0.1482
C11 C 1.0374(4) 0.4224(4) 0.3516(4)
H11 H 1.0820 0.4699 0.3138
H12 H 1.0819 0.4276 0.4370
H13 H 0.9564 0.4608 0.3285
C12 C 0.8844(3) -0.1595(4) 0.3397(3)
C13 C 0.9662(4) -0.2102(4) 0.2865(3)
H14 H 0.9403 -0.2989 0.2567
H15 H 1.0503 -0.2154 0.3479
C14 C 0.8155(4) -0.2395(4) 0.3776(3)
H16 H 0.8188 -0.3305 0.3675
C15 C 0.7427(4) -0.1929(5) 0.4292(3)
H17 H 0.6970 -0.2515 0.4538
C16 C 0.8318(4) -0.1104(4) 0.0727(3)
H18 H 0.8093 -0.1949 0.0339
H19 H 0.8342 -0.0458 0.0161
H20 H 0.7717 -0.0845 0.1027
loop_
_geom_bond_atom_site_label_1
_geom_bond_atom_site_label_2
_geom_bond_site_symmetry_1
_geom_bond_site_symmetry_2
B1 N1 1_555 1_555
N1 C5 1_555 1_555
C1 H1 1_555 1_555
H2 C1 1_555 1_555
H3 C1 1_555 1_555
C2 C1 1_555 1_555
C3 C2 1_555 1_555
H4 C3 1_555 1_555
C4 C3 1_555 1_555
C5 C4 1_555 1_555
C6 B1 1_555 1_555
H5 C6 1_555 1_555
H6 C6 1_555 1_555
H7 C6 1_555 1_555
C7 C5 1_555 1_555
H8 C7 1_555 1_555
C8 C7 1_555 1_555
C9 C8 1_555 1_555
H9 C9 1_555 1_555
C10 N1 1_555 1_555
H10 C10 1_555 1_555
C11 C8 1_555 1_555
H11 C11 1_555 1_555
H12 C11 1_555 1_555
H13 C11 1_555 1_555
C12 C4 1_555 1_555
C13 B1 1_555 1_555
H14 C13 1_555 1_555
H15 C13 1_555 1_555
C14 C12 1_555 1_555
H16 C14 1_555 1_555
C15 C2 1_555 1_555
H17 C15 1_555 1_555
C16 B1 1_555 1_555
H18 C16 1_555 1_555
H19 C16 1_555 1_555
H20 C16 1_555 1_555
C9 C10 1_555 1_555
C12 C13 1_555 1_555
C14 C15 1_555 1_555

#END
