
#######################################################################
#
#                 Cambridge Crystallographic Data Centre
#                                CCDC 
#
#######################################################################
#
# If this CIF has been generated from an entry in the Cambridge 
# Structural Database, then it will include bibliographic, chemical, 
# crystal, experimental, refinement or atomic coordinate data resulting 
# from the CCDC's data processing and validation procedures.
#
#######################################################################

data_BENROD
_chemical_name_common            8,8,18,18-Tetramethylbacteriochlorin
_chemical_formula_moiety         'C24 H26 N4'
_chemical_name_systematic        
2,2,12,12-Tetramethyl-2,3,12,13-tetrahydroporphyrin
_symmetry_cell_setting           rhombohedral
_symmetry_space_group_name_H-M   'R -3'
_symmetry_Int_Tables_number      148
_space_group_name_Hall           '-R 3'
loop_
_symmetry_equiv_pos_site_id
_symmetry_equiv_pos_as_xyz
1 x,y,z
2 -y,x-y,z
3 -x+y,-x,z
4 2/3+x,1/3+y,1/3+z
5 2/3-y,1/3+x-y,1/3+z
6 2/3-x+y,1/3-x,1/3+z
7 1/3+x,2/3+y,2/3+z
8 1/3-y,2/3+x-y,2/3+z
9 1/3-x+y,2/3-x,2/3+z
10 -x,-y,-z
11 y,-x+y,-z
12 x-y,x,-z
13 1/3-x,2/3-y,2/3-z
14 1/3+y,2/3-x+y,2/3-z
15 1/3+x-y,2/3+x,2/3-z
16 2/3-x,1/3-y,1/3-z
17 2/3+y,1/3-x+y,1/3-z
18 2/3+x-y,1/3+x,1/3-z
_cell_length_a                   20.4174(6)
_cell_length_b                   20.4174(6)
_cell_length_c                   12.4782(4)
_cell_angle_alpha                90
_cell_angle_beta                 90
_cell_angle_gamma                120
_cell_volume                     4504.88
_exptl_crystal_colour            green
_exptl_crystal_description       prism
_cell_formula_units_Z            9
loop_
_atom_site_label
_atom_site_type_symbol
_atom_site_fract_x
_atom_site_fract_y
_atom_site_fract_z
N1 N 0.4878(4) 0.0575(4) 0.1300(4)
H1 H 0.4888 0.0339 0.0716
N2 N 0.3865(3) -0.0846(3) 0.0212(5)
C1 C 0.5511(3) 0.1272(3) 0.1732(5)
C2 C 0.5236(5) 0.1429(4) 0.2622(6)
H2 H 0.5516 0.1854 0.3075
C3 C 0.4457(5) 0.0856(4) 0.2784(5)
H3 H 0.4129 0.0823 0.3347
C4 C 0.4296(5) 0.0365(5) 0.1933(6)
C5 C 0.3609(4) -0.0305(4) 0.1751(5)
H4 H 0.3229 -0.0378 0.2255
C6 C 0.3364(3) -0.0868(4) 0.1022(4)
C7 C 0.2625(4) -0.1544(4) 0.0963(6)
H5 H 0.2224 -0.1412 0.0859
H6 H 0.2515 -0.1849 0.1625
C8 C 0.2680(3) -0.1995(4) -0.0053(5)
C9 C 0.3481(4) -0.1462(4) -0.0357(6)
C10 C 0.3799(4) -0.1618(4) -0.1249(4)
H7 H 0.3450 -0.2075 -0.1598
C11 C 0.2534(4) -0.2743(4) 0.0347(6)
H8 H 0.2022 -0.3023 0.0644
H9 H 0.2902 -0.2668 0.0907
H10 H 0.2582 -0.3031 -0.0246
C12 C 0.2107(4) -0.2037(5) -0.0839(7)
H11 H 0.2136 -0.2283 -0.1497
H12 H 0.2210 -0.1525 -0.1005
H13 H 0.1600 -0.2331 -0.0528
N1I N 0.5122(4) -0.0575(4) -0.1300(4)
H1I H 0.5112 -0.0339 -0.0716
N2I N 0.6135(3) 0.0846(3) -0.0212(5)
C1I C 0.4489(3) -0.1272(3) -0.1732(5)
C2I C 0.4764(5) -0.1429(4) -0.2622(6)
H2I H 0.4484 -0.1854 -0.3075
C3I C 0.5543(5) -0.0856(4) -0.2784(5)
H3I H 0.5871 -0.0823 -0.3347
C4I C 0.5704(5) -0.0365(5) -0.1933(6)
C5I C 0.6391(4) 0.0305(4) -0.1751(5)
H4I H 0.6771 0.0378 -0.2255
C6I C 0.6636(3) 0.0868(4) -0.1022(4)
C7I C 0.7375(4) 0.1544(4) -0.0963(6)
H5I H 0.7776 0.1412 -0.0859
H6I H 0.7485 0.1849 -0.1625
C8I C 0.7320(3) 0.1995(4) 0.0053(5)
C9I C 0.6519(4) 0.1462(4) 0.0357(6)
C10I C 0.6201(4) 0.1618(4) 0.1249(4)
H7I H 0.6550 0.2075 0.1598
C11I C 0.7466(4) 0.2743(4) -0.0347(6)
H8I H 0.7978 0.3023 -0.0644
H9I H 0.7098 0.2668 -0.0907
H10I H 0.7418 0.3031 0.0246
C12I C 0.7893(4) 0.2037(5) 0.0839(7)
H11I H 0.7864 0.2283 0.1497
H12I H 0.7790 0.1525 0.1005
H13I H 0.8400 0.2331 0.0528
loop_
_geom_bond_atom_site_label_1
_geom_bond_atom_site_label_2
_geom_bond_site_symmetry_1
_geom_bond_site_symmetry_2
N1 H1 1_555 1_555
N2 C6 1_555 1_555
C1 N1 1_555 1_555
C2 C1 1_555 1_555
H2 C2 1_555 1_555
C3 C2 1_555 1_555
H3 C3 1_555 1_555
C4 N1 1_555 1_555
C5 C4 1_555 1_555
H4 C5 1_555 1_555
C6 C5 1_555 1_555
C7 C6 1_555 1_555
H5 C7 1_555 1_555
H6 C7 1_555 1_555
C8 C7 1_555 1_555
C9 N2 1_555 1_555
C10 C9 1_555 1_555
H7 C10 1_555 1_555
C11 C8 1_555 1_555
H8 C11 1_555 1_555
H9 C11 1_555 1_555
H10 C11 1_555 1_555
C12 C8 1_555 1_555
H11 C12 1_555 1_555
H12 C12 1_555 1_555
H13 C12 1_555 1_555
N1I H1I 1_555 1_555
N2I C6I 1_555 1_555
C1I C10 1_555 1_555
C2I C1I 1_555 1_555
H2I C2I 1_555 1_555
C3I C2I 1_555 1_555
H3I C3I 1_555 1_555
C4I N1I 1_555 1_555
C5I C4I 1_555 1_555
H4I C5I 1_555 1_555
C6I C5I 1_555 1_555
C7I C6I 1_555 1_555
H5I C7I 1_555 1_555
H6I C7I 1_555 1_555
C8I C7I 1_555 1_555
C9I N2I 1_555 1_555
C10I C1 1_555 1_555
H7I C10I 1_555 1_555
C11I C8I 1_555 1_555
H8I C11I 1_555 1_555
H9I C11I 1_555 1_555
H10I C11I 1_555 1_555
C12I C8I 1_555 1_555
H11I C12I 1_555 1_555
H12I C12I 1_555 1_555
H13I C12I 1_555 1_555
C3 C4 1_555 1_555
C8 C9 1_555 1_555
N1I C1I 1_555 1_555
C3I C4I 1_555 1_555
C8I C9I 1_555 1_555
C9I C10I 1_555 1_555

#END
