
#######################################################################
#
#                 Cambridge Crystallographic Data Centre
#                                CCDC 
#
#######################################################################
#
# If this CIF has been generated from an entry in the Cambridge 
# Structural Database, then it will include bibliographic, chemical, 
# crystal, experimental, refinement or atomic coordinate data resulting 
# from the CCDC's data processing and validation procedures.
#
#######################################################################

data_BENSIY
_chemical_formula_moiety         'C30 H32 B1 N1,1.5(C6 H6)'
_chemical_name_systematic        
'6,6-Dimesityl-6,7-dihydro-5\l^5^,6\l^5^-pyrido[2,1-a][2,3]benzazaborinine benzene solvate'
_symmetry_cell_setting           triclinic
_symmetry_space_group_name_H-M   'P -1'
_symmetry_Int_Tables_number      2
_space_group_name_Hall           '-P 1'
loop_
_symmetry_equiv_pos_site_id
_symmetry_equiv_pos_as_xyz
1 x,y,z
2 -x,-y,-z
_cell_length_a                   8.3862(13)
_cell_length_b                   12.249(2)
_cell_length_c                   15.940(3)
_cell_angle_alpha                84.322(2)
_cell_angle_beta                 78.898(2)
_cell_angle_gamma                75.051(2)
_cell_volume                     1550.28
_cell_formula_units_Z            1
loop_
_atom_site_label
_atom_site_type_symbol
_atom_site_fract_x
_atom_site_fract_y
_atom_site_fract_z
B1 B 0.6727(3) 0.45027(17) 0.28108(13)
N1 N 0.55088(18) 0.53186(12) 0.21651(9)
C1 C 0.7023(2) 0.54580(15) 0.33813(11)
H1 H 0.5937 0.5848 0.3715
H2 H 0.7772 0.5081 0.3790
C2 C 0.7785(2) 0.63082(15) 0.28140(11)
C3 C 0.9063(2) 0.67192(17) 0.30106(13)
H3 H 0.9524 0.6425 0.3510
C4 C 0.9675(3) 0.75505(18) 0.24913(14)
H4 H 1.0532 0.7829 0.2643
C5 C 0.9042(3) 0.79749(19) 0.17546(15)
H5 H 0.9457 0.8547 0.1401
C6 C 0.7801(3) 0.75613(17) 0.15353(13)
H6 H 0.7389 0.7836 0.1020
C7 C 0.7145(2) 0.67405(15) 0.20658(12)
C8 C 0.5729(2) 0.63598(15) 0.18604(11)
C9 C 0.4614(3) 0.70439(17) 0.13664(12)
H7 H 0.4739 0.7780 0.1171
C10 C 0.3335(3) 0.66687(18) 0.11576(13)
H8 H 0.2596 0.7134 0.0810
C11 C 0.3143(3) 0.56089(17) 0.14594(12)
H9 H 0.2276 0.5326 0.1322
C12 C 0.4237(2) 0.49700(16) 0.19638(11)
H10 H 0.4089 0.4246 0.2182
C13 C 0.5613(2) 0.36391(15) 0.33584(11)
C14 C 0.6014(2) 0.24512(15) 0.32337(11)
C15 C 0.5154(2) 0.17345(16) 0.37684(12)
H11 H 0.5478 0.0948 0.3675
C16 C 0.3854(2) 0.21231(16) 0.44255(11)
C17 C 0.3374(2) 0.32804(16) 0.45140(11)
H12 H 0.2450 0.3575 0.4945
C18 C 0.4186(2) 0.40344(15) 0.39987(11)
C19 C 0.3363(2) 0.52739(16) 0.41555(12)
H13 H 0.2166 0.5364 0.4380
H14 H 0.3504 0.5726 0.3616
H15 H 0.3891 0.5531 0.4572
C20 C 0.2952(3) 0.13292(18) 0.49956(13)
H16 H 0.3722 0.0824 0.5338
H17 H 0.2557 0.0879 0.4641
H18 H 0.1993 0.1770 0.5377
C21 C 0.7321(2) 0.18787(16) 0.25085(12)
H19 H 0.7130 0.1142 0.2431
H20 H 0.8442 0.1771 0.2648
H21 H 0.7235 0.2354 0.1979
C22 C 0.8605(2) 0.39121(14) 0.22726(11)
C23 C 0.9135(2) 0.39059(15) 0.13690(11)
C24 C 1.0800(2) 0.34556(16) 0.10080(12)
H22 H 1.1103 0.3483 0.0402
C25 C 1.2034(2) 0.29685(16) 0.14930(12)
C26 C 1.1529(2) 0.29383(16) 0.23751(12)
H23 H 1.2339 0.2606 0.2728
C27 C 0.9871(2) 0.33804(15) 0.27625(11)
C28 C 0.9532(2) 0.31511(19) 0.37280(12)
H24 H 1.0144 0.2381 0.3873
H25 H 0.8328 0.3231 0.3924
H26 H 0.9905 0.3694 0.4008
C29 C 0.7953(3) 0.42967(18) 0.07194(12)
H27 H 0.8550 0.4056 0.0151
H28 H 0.7563 0.5123 0.0704
H29 H 0.6989 0.3961 0.0886
C30 C 1.3818(3) 0.2457(2) 0.10809(15)
H30 H 1.3836 0.1852 0.0718
H31 H 1.4492 0.2145 0.1527
H32 H 1.4284 0.3043 0.0730
C31 C 0.3567(4) 0.9541(2) 0.27634(18)
H33 H 0.4243 0.9786 0.2268
C32 C 0.1859(3) 0.9965(2) 0.29004(17)
H34 H 0.1356 1.0502 0.2497
C33 C 0.0882(3) 0.9622(2) 0.36097(17)
H35 H -0.0297 0.9923 0.3702
C34 C 0.1600(4) 0.8843(2) 0.41903(18)
H36 H 0.0918 0.8601 0.4684
C35 C 0.3309(4) 0.8411(2) 0.4059(2)
H37 H 0.3805 0.7869 0.4462
C36 C 0.4296(4) 0.8761(3) 0.3347(2)
H38 H 0.5477 0.8466 0.3257
C37 C 0.1477(3) 1.0030(2) 1.02249(16)
H39 H 0.2506 1.0050 1.0381
C38 C 0.1444(3) 0.9243(2) 0.96733(15)
H40 H 0.2451 0.8720 0.9448
C39 C -0.0026(4) 0.9216(2) 0.94525(14)
H41 H -0.0049 0.8672 0.9072
C37A C -0.1477(3) 0.9970(2) 0.97751(16)
H39A H -0.2506 0.9950 0.9619
C38A C -0.1444(3) 1.0757(2) 1.03267(15)
H40A H -0.2451 1.1280 1.0552
C39A C 0.0026(4) 1.0784(2) 1.05475(14)
H41A H 0.0049 1.1328 1.0928
loop_
_geom_bond_atom_site_label_1
_geom_bond_atom_site_label_2
_geom_bond_site_symmetry_1
_geom_bond_site_symmetry_2
B1 N1 1_555 1_555
N1 C8 1_555 1_555
C1 B1 1_555 1_555
H1 C1 1_555 1_555
H2 C1 1_555 1_555
C2 C1 1_555 1_555
C3 C2 1_555 1_555
H3 C3 1_555 1_555
C4 C3 1_555 1_555
H4 C4 1_555 1_555
C5 C4 1_555 1_555
H5 C5 1_555 1_555
C6 C5 1_555 1_555
H6 C6 1_555 1_555
C7 C2 1_555 1_555
C8 C7 1_555 1_555
C9 C8 1_555 1_555
H7 C9 1_555 1_555
C10 C9 1_555 1_555
H8 C10 1_555 1_555
C11 C10 1_555 1_555
H9 C11 1_555 1_555
C12 N1 1_555 1_555
H10 C12 1_555 1_555
C13 B1 1_555 1_555
C14 C13 1_555 1_555
C15 C14 1_555 1_555
H11 C15 1_555 1_555
C16 C15 1_555 1_555
C17 C16 1_555 1_555
H12 C17 1_555 1_555
C18 C13 1_555 1_555
C19 C18 1_555 1_555
H13 C19 1_555 1_555
H14 C19 1_555 1_555
H15 C19 1_555 1_555
C20 C16 1_555 1_555
H16 C20 1_555 1_555
H17 C20 1_555 1_555
H18 C20 1_555 1_555
C21 C14 1_555 1_555
H19 C21 1_555 1_555
H20 C21 1_555 1_555
H21 C21 1_555 1_555
C22 B1 1_555 1_555
C23 C22 1_555 1_555
C24 C23 1_555 1_555
H22 C24 1_555 1_555
C25 C24 1_555 1_555
C26 C25 1_555 1_555
H23 C26 1_555 1_555
C27 C22 1_555 1_555
C28 C27 1_555 1_555
H24 C28 1_555 1_555
H25 C28 1_555 1_555
H26 C28 1_555 1_555
C29 C23 1_555 1_555
H27 C29 1_555 1_555
H28 C29 1_555 1_555
H29 C29 1_555 1_555
C30 C25 1_555 1_555
H30 C30 1_555 1_555
H31 C30 1_555 1_555
H32 C30 1_555 1_555
C31 H33 1_555 1_555
C32 C31 1_555 1_555
H34 C32 1_555 1_555
C33 C32 1_555 1_555
H35 C33 1_555 1_555
C34 C33 1_555 1_555
H36 C34 1_555 1_555
C35 C34 1_555 1_555
H37 C35 1_555 1_555
C36 C31 1_555 1_555
H38 C36 1_555 1_555
C37 H39 1_555 1_555
C38 C37 1_555 1_555
H40 C38 1_555 1_555
C39 C38 1_555 1_555
H41 C39 1_555 1_555
C37A C39 1_555 1_555
H39A C37A 1_555 1_555
C38A C37A 1_555 1_555
H40A C38A 1_555 1_555
C39A C37 1_555 1_555
H41A C39A 1_555 1_555
C6 C7 1_555 1_555
C11 C12 1_555 1_555
C17 C18 1_555 1_555
C26 C27 1_555 1_555
C35 C36 1_555 1_555
C38A C39A 1_555 1_555

#END
