
#######################################################################
#
#                 Cambridge Crystallographic Data Centre
#                                CCDC 
#
#######################################################################
#
# If this CIF has been generated from an entry in the Cambridge 
# Structural Database, then it will include bibliographic, chemical, 
# crystal, experimental, refinement or atomic coordinate data resulting 
# from the CCDC's data processing and validation procedures.
#
#######################################################################

data_BENSAQ
_chemical_formula_moiety         'C24 H22 B1 N1 S1'
_chemical_name_systematic        
6-Mesityl-2-methyl-6H-[1,3]benzothiazolo[2,3-a][2,3]benzazaborinine
_symmetry_cell_setting           triclinic
_symmetry_space_group_name_H-M   'P -1'
_symmetry_Int_Tables_number      2
_space_group_name_Hall           '-P 1'
loop_
_symmetry_equiv_pos_site_id
_symmetry_equiv_pos_as_xyz
1 x,y,z
2 -x,-y,-z
_cell_length_a                   8.9877(17)
_cell_length_b                   11.286(2)
_cell_length_c                   11.623(2)
_cell_angle_alpha                62.096(2)
_cell_angle_beta                 69.228(3)
_cell_angle_gamma                82.185(2)
_cell_volume                     973.538
_cell_formula_units_Z            2
loop_
_atom_site_label
_atom_site_type_symbol
_atom_site_fract_x
_atom_site_fract_y
_atom_site_fract_z
B1 B 0.7879(4) 0.2349(3) 0.0402(3)
N1 N 0.6356(3) 0.1699(2) 0.0723(2)
S1 S 0.39110(10) 0.00140(8) 0.21486(9)
C1 C 0.8548(3) 0.1758(3) 0.1536(3)
H1 H 0.9504 0.2146 0.1410
C2 C 0.7834(4) 0.0655(3) 0.2783(3)
C3 C 0.6399(4) 0.0036(3) 0.3003(3)
C4 C 0.5704(3) 0.0608(3) 0.1970(3)
C5 C 0.8476(4) 0.0053(3) 0.3890(3)
H2 H 0.9410 0.0442 0.3799
C6 C 0.7778(4) -0.1062(3) 0.5067(3)
H3 H 0.8239 -0.1431 0.5778
C7 C 0.6386(4) -0.1694(3) 0.5270(3)
C8 C 0.5718(4) -0.1135(3) 0.4261(3)
H4 H 0.4767 -0.1535 0.4396
C9 C 0.5684(4) -0.2950(3) 0.6589(3)
H5 H 0.4651 -0.3182 0.6625
H6 H 0.5540 -0.2793 0.7383
H7 H 0.6405 -0.3689 0.6615
C10 C 0.5396(3) 0.2066(3) -0.0128(3)
C11 C 0.5662(3) 0.3119(3) -0.1441(3)
H8 H 0.6572 0.3705 -0.1873
C12 C 0.4598(4) 0.3309(3) -0.2114(3)
H9 H 0.4785 0.4028 -0.3017
C13 C 0.3263(4) 0.2474(3) -0.1503(3)
H10 H 0.2550 0.2617 -0.1991
C14 C 0.2961(4) 0.1431(3) -0.0184(3)
H11 H 0.2038 0.0860 0.0247
C15 C 0.4036(3) 0.1233(3) 0.0498(3)
C16 C 0.8747(3) 0.3538(3) -0.1052(3)
C17 C 0.8752(3) 0.4860(3) -0.1234(3)
C18 C 0.9676(4) 0.5858(3) -0.2476(3)
H12 H 0.9667 0.6746 -0.2581
C19 C 1.0610(4) 0.5605(3) -0.3564(3)
C20 C 1.0582(3) 0.4313(3) -0.3397(3)
H13 H 1.1197 0.4121 -0.4140
C21 C 0.9671(3) 0.3287(3) -0.2164(3)
C22 C 0.9693(4) 0.1878(3) -0.2015(3)
H14 H 1.0507 0.1839 -0.2822
H15 H 0.8647 0.1635 -0.1946
H16 H 0.9937 0.1247 -0.1179
C23 C 1.1661(4) 0.6700(3) -0.4883(3)
H17 H 1.1612 0.6628 -0.5677
H18 H 1.2762 0.6604 -0.4884
H19 H 1.1290 0.7578 -0.4942
C24 C 0.7747(4) 0.5211(3) -0.0096(3)
H20 H 0.7831 0.6181 -0.0426
H21 H 0.8122 0.4738 0.0698
H22 H 0.6633 0.4941 0.0181
loop_
_geom_bond_atom_site_label_1
_geom_bond_atom_site_label_2
_geom_bond_site_symmetry_1
_geom_bond_site_symmetry_2
B1 N1 1_555 1_555
N1 C4 1_555 1_555
S1 C4 1_555 1_555
C1 B1 1_555 1_555
H1 C1 1_555 1_555
C2 C1 1_555 1_555
C3 C2 1_555 1_555
C4 C3 1_555 1_555
C5 C2 1_555 1_555
H2 C5 1_555 1_555
C6 C5 1_555 1_555
H3 C6 1_555 1_555
C7 C6 1_555 1_555
C8 C3 1_555 1_555
H4 C8 1_555 1_555
C9 C7 1_555 1_555
H5 C9 1_555 1_555
H6 C9 1_555 1_555
H7 C9 1_555 1_555
C10 N1 1_555 1_555
C11 C10 1_555 1_555
H8 C11 1_555 1_555
C12 C11 1_555 1_555
H9 C12 1_555 1_555
C13 C12 1_555 1_555
H10 C13 1_555 1_555
C14 C13 1_555 1_555
H11 C14 1_555 1_555
C15 S1 1_555 1_555
C16 B1 1_555 1_555
C17 C16 1_555 1_555
C18 C17 1_555 1_555
H12 C18 1_555 1_555
C19 C18 1_555 1_555
C20 C19 1_555 1_555
H13 C20 1_555 1_555
C21 C16 1_555 1_555
C22 C21 1_555 1_555
H14 C22 1_555 1_555
H15 C22 1_555 1_555
H16 C22 1_555 1_555
C23 C19 1_555 1_555
H17 C23 1_555 1_555
H18 C23 1_555 1_555
H19 C23 1_555 1_555
C24 C17 1_555 1_555
H20 C24 1_555 1_555
H21 C24 1_555 1_555
H22 C24 1_555 1_555
C7 C8 1_555 1_555
C10 C15 1_555 1_555
C14 C15 1_555 1_555
C20 C21 1_555 1_555

#END
