
#######################################################################
#
#                 Cambridge Crystallographic Data Centre
#                                CCDC 
#
#######################################################################
#
# If this CIF has been generated from an entry in the Cambridge 
# Structural Database, then it will include bibliographic, chemical, 
# crystal, experimental, refinement or atomic coordinate data resulting 
# from the CCDC's data processing and validation procedures.
#
#######################################################################

data_BENSEU
_chemical_formula_moiety         'C33 H34 B1 N1 S1'
_chemical_name_systematic        
6,6-Dimesityl-2-methyl-5,6-dihydro-7\l^5^,6\l^5^-[1,3]benzothiazolo[2,3-a][2,3]benzazaborinine
_symmetry_cell_setting           monoclinic
_symmetry_space_group_name_H-M   'P 21/n'
_symmetry_Int_Tables_number      14
_space_group_name_Hall           '-P 2yn'
loop_
_symmetry_equiv_pos_site_id
_symmetry_equiv_pos_as_xyz
1 x,y,z
2 1/2-x,1/2+y,1/2-z
3 -x,-y,-z
4 1/2+x,1/2-y,1/2+z
_cell_length_a                   10.0838(2)
_cell_length_b                   15.9314(4)
_cell_length_c                   17.3953(4)
_cell_angle_alpha                90
_cell_angle_beta                 105.851(2)
_cell_angle_gamma                90
_cell_volume                     2688.28
_cell_formula_units_Z            4
loop_
_atom_site_label
_atom_site_type_symbol
_atom_site_fract_x
_atom_site_fract_y
_atom_site_fract_z
N1 N 0.6007(2) 0.85679(13) 0.92566(12)
S1 S 0.39826(7) 0.89603(5) 0.98213(5)
B1 B 0.7643(3) 0.8400(2) 0.92693(18)
C1 C 0.8426(3) 0.90970(18) 0.99398(15)
H1 H 0.9435 0.9046 1.0028
H2 H 0.8149 0.9668 0.9732
C2 C 0.8088(3) 0.89856(17) 1.07162(15)
C3 C 0.9042(3) 0.90508(19) 1.14585(16)
H3 H 0.9979 0.9162 1.1486
C4 C 0.8663(3) 0.8958(2) 1.21553(17)
H4 H 0.9347 0.9006 1.2652
C5 C 0.7309(3) 0.8796(2) 1.21553(17)
C6 C 0.6334(3) 0.87284(18) 1.14154(17)
H5 H 0.5397 0.8621 1.1392
C7 C 0.6727(3) 0.88186(17) 1.07060(15)
C8 C 0.6920(4) 0.8672(2) 1.29254(18)
H6 H 0.7334 0.9117 1.3303
H7 H 0.7258 0.8125 1.3155
H8 H 0.5914 0.8692 1.2818
C9 C 0.5701(3) 0.87655(17) 0.99308(16)
C10 C 0.4814(3) 0.85468(17) 0.85990(16)
C11 C 0.3612(3) 0.87554(18) 0.88055(16)
C12 C 0.2337(3) 0.87623(19) 0.8242(2)
H9 H 0.1526 0.8922 0.8383
C13 C 0.2285(3) 0.8533(2) 0.74772(19)
H10 H 0.1425 0.8535 0.7080
C14 C 0.3466(3) 0.8296(2) 0.72725(17)
H11 H 0.3396 0.8129 0.6739
C15 C 0.4736(3) 0.82971(18) 0.78221(15)
H12 H 0.5538 0.8132 0.7675
C16 C 0.7854(2) 0.86056(17) 0.83844(15)
C17 C 0.7708(3) 0.94282(18) 0.80680(16)
C18 C 0.8081(3) 0.96287(19) 0.73763(16)
H13 H 0.8014 1.0197 0.7203
C19 C 0.8546(3) 0.9036(2) 0.69312(15)
C20 C 0.8567(3) 0.8217(2) 0.71930(16)
H14 H 0.8828 0.7788 0.6884
C21 C 0.8225(3) 0.79857(18) 0.78886(15)
C22 C 0.7033(3) 1.01479(18) 0.83978(16)
H15 H 0.6453 1.0473 0.7954
H16 H 0.7748 1.0512 0.8728
H17 H 0.6463 0.9921 0.8724
C23 C 0.8924(3) 0.9272(2) 0.61736(16)
H18 H 0.9056 0.8761 0.5890
H19 H 0.9780 0.9599 0.6311
H20 H 0.8181 0.9608 0.5830
C24 C 0.8170(3) 0.70558(18) 0.80316(17)
H21 H 0.8158 0.6752 0.7540
H22 H 0.7334 0.6922 0.8191
H23 H 0.8983 0.6888 0.8457
C25 C 0.8114(3) 0.74641(18) 0.96710(14)
C26 C 0.9548(3) 0.72921(19) 0.99568(16)
C27 C 1.0032(3) 0.65685(19) 1.03848(16)
H24 H 1.1000 0.6488 1.0577
C28 C 0.9168(3) 0.5957(2) 1.05446(16)
C29 C 0.7776(3) 0.60981(18) 1.02387(14)
H25 H 0.7153 0.5684 1.0325
C30 C 0.7235(3) 0.68137(17) 0.98107(14)
C31 C 1.0658(3) 0.7839(2) 0.97657(19)
H26 H 1.1331 0.7481 0.9609
H27 H 1.1125 0.8166 1.0239
H28 H 1.0232 0.8221 0.9326
C32 C 0.9718(3) 0.5176(2) 1.10161(17)
H29 H 0.9076 0.4710 1.0830
H30 H 0.9816 0.5277 1.1585
H31 H 1.0619 0.5034 1.0940
C33 C 0.5678(3) 0.68052(17) 0.94780(16)
H32 H 0.5335 0.6233 0.9499
H33 H 0.5428 0.7001 0.8923
H34 H 0.5266 0.7177 0.9798
loop_
_geom_bond_atom_site_label_1
_geom_bond_atom_site_label_2
_geom_bond_site_symmetry_1
_geom_bond_site_symmetry_2
N1 B1 1_555 1_555
S1 C9 1_555 1_555
B1 C1 1_555 1_555
C1 H1 1_555 1_555
H2 C1 1_555 1_555
C2 C1 1_555 1_555
C3 C2 1_555 1_555
H3 C3 1_555 1_555
C4 C3 1_555 1_555
H4 C4 1_555 1_555
C5 C4 1_555 1_555
C6 C5 1_555 1_555
H5 C6 1_555 1_555
C7 C2 1_555 1_555
C8 C5 1_555 1_555
H6 C8 1_555 1_555
H7 C8 1_555 1_555
H8 C8 1_555 1_555
C9 N1 1_555 1_555
C10 N1 1_555 1_555
C11 S1 1_555 1_555
C12 C11 1_555 1_555
H9 C12 1_555 1_555
C13 C12 1_555 1_555
H10 C13 1_555 1_555
C14 C13 1_555 1_555
H11 C14 1_555 1_555
C15 C10 1_555 1_555
H12 C15 1_555 1_555
C16 B1 1_555 1_555
C17 C16 1_555 1_555
C18 C17 1_555 1_555
H13 C18 1_555 1_555
C19 C18 1_555 1_555
C20 C19 1_555 1_555
H14 C20 1_555 1_555
C21 C16 1_555 1_555
C22 C17 1_555 1_555
H15 C22 1_555 1_555
H16 C22 1_555 1_555
H17 C22 1_555 1_555
C23 C19 1_555 1_555
H18 C23 1_555 1_555
H19 C23 1_555 1_555
H20 C23 1_555 1_555
C24 C21 1_555 1_555
H21 C24 1_555 1_555
H22 C24 1_555 1_555
H23 C24 1_555 1_555
C25 B1 1_555 1_555
C26 C25 1_555 1_555
C27 C26 1_555 1_555
H24 C27 1_555 1_555
C28 C27 1_555 1_555
C29 C28 1_555 1_555
H25 C29 1_555 1_555
C30 C25 1_555 1_555
C31 C26 1_555 1_555
H26 C31 1_555 1_555
H27 C31 1_555 1_555
H28 C31 1_555 1_555
C32 C28 1_555 1_555
H29 C32 1_555 1_555
H30 C32 1_555 1_555
H31 C32 1_555 1_555
C33 C30 1_555 1_555
H32 C33 1_555 1_555
H33 C33 1_555 1_555
H34 C33 1_555 1_555
C6 C7 1_555 1_555
C7 C9 1_555 1_555
C10 C11 1_555 1_555
C14 C15 1_555 1_555
C20 C21 1_555 1_555
C29 C30 1_555 1_555

#END
