
#######################################################################
#
#                 Cambridge Crystallographic Data Centre
#                                CCDC 
#
#######################################################################
#
# If this CIF has been generated from an entry in the Cambridge 
# Structural Database, then it will include bibliographic, chemical, 
# crystal, experimental, refinement or atomic coordinate data resulting 
# from the CCDC's data processing and validation procedures.
#
#######################################################################

data_BENVIB
_chemical_name_common            'n-Butylammonium tolbutamide'
_chemical_formula_moiety         'C4 H12 N1 1+,C12 H17 N2 O3 S1 1-'
_chemical_name_systematic        
'n-Butylammonium N-(butylcarbamoyl)-4-methylbenzenesulfonamide'
_chemical_properties_biological  'Tolbutamide is an antidiabetic drug'
_symmetry_cell_setting           monoclinic
_symmetry_space_group_name_H-M   'P 21/n'
_symmetry_Int_Tables_number      14
_space_group_name_Hall           '-P 2yn'
loop_
_symmetry_equiv_pos_site_id
_symmetry_equiv_pos_as_xyz
1 x,y,z
2 1/2-x,1/2+y,1/2-z
3 -x,-y,-z
4 1/2+x,1/2-y,1/2+z
_cell_length_a                   13.5031(6)
_cell_length_b                   11.2985(5)
_cell_length_c                   25.4543(12)
_cell_angle_alpha                90
_cell_angle_beta                 98.694(4)
_cell_angle_gamma                90
_cell_volume                     3838.81
_exptl_crystal_colour            colorless
_exptl_crystal_description       block
_cell_formula_units_Z            8
loop_
_atom_site_label
_atom_site_type_symbol
_atom_site_fract_x
_atom_site_fract_y
_atom_site_fract_z
S1 S 0.79105(5) 0.44025(7) 0.30819(3)
C1 C 0.6175(3) 0.3677(4) 0.51262(14)
H1 H 0.6052 0.2835 0.5182
H2 H 0.5545 0.4116 0.5107
H3 H 0.6657 0.3978 0.5423
C2 C 0.6595(2) 0.3833(4) 0.46119(14)
C3 C 0.6816(3) 0.4948(4) 0.44467(15)
H4 H 0.6700 0.5611 0.4659
C4 C 0.7203(3) 0.5130(3) 0.39790(15)
H5 H 0.7350 0.5909 0.3872
C5 C 0.7375(2) 0.4164(3) 0.36686(12)
C6 C 0.7154(2) 0.3034(3) 0.38251(13)
H6 H 0.7265 0.2370 0.3613
C7 C 0.6766(2) 0.2881(3) 0.42972(14)
H7 H 0.6617 0.2105 0.4405
C8 C 0.6330(2) 0.5360(3) 0.26042(11)
C9 C 0.4805(2) 0.6406(3) 0.22144(13)
H8 H 0.4505 0.6604 0.2535
H9 H 0.4533 0.5631 0.2080
C10 C 0.4515(2) 0.7342(3) 0.17939(12)
H10 H 0.4797 0.8110 0.1930
H11 H 0.3776 0.7419 0.1733
C11 C 0.4864(2) 0.7092(3) 0.12656(13)
H12 H 0.5605 0.7120 0.1316
H13 H 0.4612 0.7726 0.1012
C12 C 0.4518(3) 0.5900(3) 0.10249(15)
H14 H 0.4863 0.5263 0.1241
H15 H 0.4676 0.5850 0.0662
H16 H 0.3793 0.5821 0.1017
O1 O 0.89284(14) 0.47882(18) 0.32498(8)
O2 O 0.78066(14) 0.32953(18) 0.27904(8)
O3 O 0.58332(14) 0.44478(17) 0.26676(8)
N1 N 0.73421(17) 0.5486(2) 0.27736(10)
N2 N 0.58887(18) 0.6315(2) 0.23577(10)
H17 H 0.626(2) 0.690(3) 0.2327(13)
S2 S 0.23462(5) 0.15788(7) 0.18903(3)
C13 C 0.4422(3) 0.1841(4) -0.00574(14)
H18 H 0.5118 0.1568 0.0017
H19 H 0.4405 0.2656 -0.0190
H20 H 0.4043 0.1328 -0.0326
C14 C 0.3961(2) 0.1795(3) 0.04448(12)
C15 C 0.3488(2) 0.2776(3) 0.06213(12)
H21 H 0.3472 0.3493 0.0426
C16 C 0.3036(2) 0.2738(3) 0.10761(12)
H22 H 0.2715 0.3419 0.1190
C17 C 0.3061(2) 0.1689(3) 0.13616(11)
C18 C 0.3553(2) 0.0707(3) 0.12002(12)
H23 H 0.3585 -0.0005 0.1401
C19 C 0.3996(2) 0.0770(3) 0.07470(13)
H24 H 0.4334 0.0095 0.0639
C20 C 0.3740(2) 0.0586(3) 0.25082(11)
N3 N 0.4067(2) -0.0413(2) 0.27643(11)
C21 C 0.5090(2) -0.0577(3) 0.30252(15)
H25 H 0.5545 -0.0238 0.2794
H26 H 0.5226 -0.1437 0.3053
C22 C 0.5344(5) -0.0058(7) 0.3554(3)
H27 H 0.5026 0.0728 0.3568
H28 H 0.6079 0.0036 0.3647
C23 C 0.4939(8) -0.0935(8) 0.3949(4)
H29 H 0.5010 -0.0567 0.4306
H30 H 0.4216 -0.1078 0.3829
C24 C 0.5494(8) -0.2124(9) 0.3990(4)
H31 H 0.5356 -0.2538 0.3648
H32 H 0.5264 -0.2609 0.4267
H33 H 0.6215 -0.1984 0.4080
O4 O 0.13455(14) 0.12538(19) 0.16478(8)
O5 O 0.24185(14) 0.27265(18) 0.21519(8)
O6 O 0.42945(14) 0.14737(18) 0.25024(8)
N4 N 0.27638(17) 0.0503(2) 0.22535(9)
H34 H 0.368(2) -0.094(3) 0.2770(12)
N5 N 0.6071(2) 0.2241(3) 0.21761(11)
C28 C 0.5828(2) 0.2579(3) 0.16091(12)
H44 H 0.5163 0.2967 0.1549
H45 H 0.5787 0.1856 0.1387
C29 C 0.6601(2) 0.3412(3) 0.14370(13)
H46 H 0.7280 0.3077 0.1541
H47 H 0.6573 0.4184 0.1618
C30 C 0.6401(3) 0.3595(3) 0.08327(13)
H48 H 0.6590 0.2864 0.0657
H49 H 0.5674 0.3720 0.0722
C31 C 0.6964(3) 0.4631(4) 0.06407(16)
H50 H 0.6789 0.5358 0.0815
H51 H 0.6781 0.4713 0.0255
H52 H 0.7687 0.4491 0.0728
H53 H 0.553(3) 0.184(3) 0.2284(14)
H54 H 0.658(3) 0.177(3) 0.2232(12)
H55 H 0.620(3) 0.290(4) 0.2400(16)
N6 N 0.3972(2) 0.3827(3) 0.28775(10)
C32 C 0.4292(2) 0.3559(3) 0.34503(12)
H56 H 0.4514 0.4298 0.3641
H57 H 0.4869 0.3008 0.3488
C33 C 0.3457(2) 0.3012(3) 0.36981(13)
H58 H 0.3283 0.2231 0.3533
H59 H 0.2856 0.3523 0.3630
C34 C 0.3765(3) 0.2860(4) 0.42941(15)
H60 H 0.3931 0.3644 0.4457
H61 H 0.4375 0.2363 0.4360
C35 C 0.2945(4) 0.2289(6) 0.45581(18)
H62 H 0.2335 0.2769 0.4488
H63 H 0.3166 0.2239 0.4942
H64 H 0.2807 0.1492 0.4414
H65 H 0.345(3) 0.432(3) 0.2831(13)
H66 H 0.449(3) 0.417(3) 0.2745(14)
H67 H 0.382(3) 0.312(4) 0.2682(15)
H35? H 0.5469 0.0173 0.3025
H36? H 0.5430 -0.1187 0.2838
C25? C 0.5033(9) -0.0998(10) 0.3641(4)
H37? H 0.4601 -0.1708 0.3633
H38? H 0.5712 -0.1221 0.3816
C26? C 0.4629(8) -0.0057(10) 0.3962(3)
H39? H 0.3948 0.0142 0.3781
H40? H 0.5048 0.0657 0.3944
C27? C 0.4556(8) -0.0278(10) 0.4548(4)
H41? H 0.4064 -0.0904 0.4576
H42? H 0.4344 0.0451 0.4708
H43? H 0.5212 -0.0522 0.4735
loop_
_geom_bond_atom_site_label_1
_geom_bond_atom_site_label_2
_geom_bond_site_symmetry_1
_geom_bond_site_symmetry_2
S1 C5 1_555 1_555
C1 H1 1_555 1_555
H2 C1 1_555 1_555
H3 C1 1_555 1_555
C2 C1 1_555 1_555
C3 C2 1_555 1_555
H4 C3 1_555 1_555
C4 C3 1_555 1_555
H5 C4 1_555 1_555
C5 C4 1_555 1_555
C6 C5 1_555 1_555
H6 C6 1_555 1_555
C7 C2 1_555 1_555
H7 C7 1_555 1_555
C8 O3 1_555 1_555
C9 H8 1_555 1_555
H9 C9 1_555 1_555
C10 C9 1_555 1_555
H10 C10 1_555 1_555
H11 C10 1_555 1_555
C11 C10 1_555 1_555
H12 C11 1_555 1_555
H13 C11 1_555 1_555
C12 C11 1_555 1_555
H14 C12 1_555 1_555
H15 C12 1_555 1_555
H16 C12 1_555 1_555
O1 S1 1_555 1_555
O2 S1 1_555 1_555
N1 S1 1_555 1_555
N2 C8 1_555 1_555
H17 N2 1_555 1_555
S2 C17 1_555 1_555
C13 H18 1_555 1_555
H19 C13 1_555 1_555
H20 C13 1_555 1_555
C14 C13 1_555 1_555
C15 C14 1_555 1_555
H21 C15 1_555 1_555
C16 C15 1_555 1_555
H22 C16 1_555 1_555
C17 C16 1_555 1_555
C18 C17 1_555 1_555
H23 C18 1_555 1_555
C19 C14 1_555 1_555
H24 C19 1_555 1_555
C20 N3 1_555 1_555
N3 C21 1_555 1_555
C21 H25 1_555 1_555
H26 C21 1_555 1_555
C22 C21 1_555 1_555
H27 C22 1_555 1_555
H28 C22 1_555 1_555
C23 C22 1_555 1_555
H29 C23 1_555 1_555
H30 C23 1_555 1_555
C24 C23 1_555 1_555
H31 C24 1_555 1_555
H32 C24 1_555 1_555
H33 C24 1_555 1_555
O4 S2 1_555 1_555
O5 S2 1_555 1_555
O6 C20 1_555 1_555
N4 S2 1_555 1_555
H34 N3 1_555 1_555
N5 C28 1_555 1_555
C28 H44 1_555 1_555
H45 C28 1_555 1_555
C29 C28 1_555 1_555
H46 C29 1_555 1_555
H47 C29 1_555 1_555
C30 C29 1_555 1_555
H48 C30 1_555 1_555
H49 C30 1_555 1_555
C31 C30 1_555 1_555
H50 C31 1_555 1_555
H51 C31 1_555 1_555
H52 C31 1_555 1_555
H53 N5 1_555 1_555
H54 N5 1_555 1_555
H55 N5 1_555 1_555
N6 C32 1_555 1_555
C32 H56 1_555 1_555
H57 C32 1_555 1_555
C33 C32 1_555 1_555
H58 C33 1_555 1_555
H59 C33 1_555 1_555
C34 C33 1_555 1_555
H60 C34 1_555 1_555
H61 C34 1_555 1_555
C35 C34 1_555 1_555
H62 C35 1_555 1_555
H63 C35 1_555 1_555
H64 C35 1_555 1_555
H65 N6 1_555 1_555
H66 N6 1_555 1_555
H67 N6 1_555 1_555
C6 C7 1_555 1_555
C8 N1 1_555 1_555
C9 N2 1_555 1_555
C18 C19 1_555 1_555
C20 N4 1_555 1_555

#END
