
#######################################################################
#
#                 Cambridge Crystallographic Data Centre
#                                CCDC 
#
#######################################################################
#
# If this CIF has been generated from an entry in the Cambridge 
# Structural Database, then it will include bibliographic, chemical, 
# crystal, experimental, refinement or atomic coordinate data resulting 
# from the CCDC's data processing and validation procedures.
#
#######################################################################

data_BENYOL
_chemical_formula_moiety         'C60 H92 N2 O4 P2'
_chemical_name_systematic        
'tetrakis(2,4-di-t-butylphenyl) piperazine-1,4-diylbis(phosphonite)'
_symmetry_cell_setting           triclinic
_symmetry_space_group_name_H-M   'P -1'
_symmetry_Int_Tables_number      2
_space_group_name_Hall           '-P 1'
loop_
_symmetry_equiv_pos_site_id
_symmetry_equiv_pos_as_xyz
1 x,y,z
2 -x,-y,-z
_cell_length_a                   14.1002(11)
_cell_length_b                   14.5948(12)
_cell_length_c                   15.2273(12)
_cell_angle_alpha                87.072(2)
_cell_angle_beta                 89.895(2)
_cell_angle_gamma                69.786(2)
_cell_volume                     2936.36
_exptl_crystal_colour            colorless
_exptl_crystal_description       plate
_cell_formula_units_Z            2
loop_
_atom_site_label
_atom_site_type_symbol
_atom_site_fract_x
_atom_site_fract_y
_atom_site_fract_z
C1 C 0.60795(15) 0.56821(16) 0.74160(13)
H1 H 0.5609 0.5700 0.7903
H2 H 0.6000 0.6364 0.7225
C2 C 0.71573(15) 0.51400(17) 0.77297(13)
H3 H 0.7336 0.5496 0.8203
H4 H 0.7219 0.4479 0.7973
C3 C 0.76089(15) 0.45759(16) 0.62592(13)
H5 H 0.7701 0.3889 0.6441
H6 H 0.8075 0.4572 0.5771
C4 C 0.65313(15) 0.50997(17) 0.59473(13)
H7 H 0.6460 0.5759 0.5694
H8 H 0.6358 0.4732 0.5482
C5 C 0.48871(14) 0.40330(14) 0.80622(13)
C6 C 0.44279(15) 0.39414(15) 0.88667(12)
C7 C 0.49207(16) 0.31054(16) 0.93899(13)
H9 H 0.4621 0.3020 0.9933
C8 C 0.58235(16) 0.23798(15) 0.91787(14)
C9 C 0.62419(16) 0.25108(15) 0.83827(15)
H10 H 0.6857 0.2035 0.8212
C10 C 0.57774(15) 0.33263(15) 0.78302(14)
H11 H 0.6075 0.3401 0.7284
C11 C 0.34299(16) 0.47028(16) 0.91488(13)
C12 C 0.3521(2) 0.57190(19) 0.9163(2)
H12 H 0.3662 0.5926 0.8570
H13 H 0.4073 0.5693 0.9565
H14 H 0.2885 0.6187 0.9364
C13 C 0.25750(16) 0.47341(18) 0.85242(14)
H15 H 0.2521 0.4083 0.8518
H16 H 0.2716 0.4939 0.7930
H17 H 0.1938 0.5201 0.8723
C14 C 0.3136(2) 0.4444(2) 1.00688(16)
H18 H 0.2501 0.4943 1.0231
H19 H 0.3670 0.4416 1.0491
H20 H 0.3049 0.3805 1.0075
C15 C 0.62784(18) 0.14748(17) 0.98061(15)
C16 C 0.5602(2) 0.0851(2) 0.9777(2)
H21 H 0.5568 0.0655 0.9176
H22 H 0.4921 0.1232 0.9966
H23 H 0.5883 0.0267 1.0172
C17 C 0.6323(3) 0.1776(2) 1.07490(17)
H24 H 0.6619 0.1190 1.1139
H25 H 0.5638 0.2140 1.0941
H26 H 0.6740 0.2190 1.0771
C18 C 0.7340(2) 0.08563(19) 0.95414(19)
H27 H 0.7610 0.0294 0.9962
H28 H 0.7778 0.1252 0.9541
H29 H 0.7316 0.0626 0.8951
C19 C 0.30513(14) 0.65707(14) 0.60557(12)
C20 C 0.27743(15) 0.74453(14) 0.55307(13)
C21 C 0.18089(15) 0.77546(15) 0.51517(13)
H30 H 0.1603 0.8340 0.4787
C22 C 0.11241(15) 0.72628(14) 0.52715(12)
C23 C 0.14373(15) 0.64053(15) 0.57933(12)
H31 H 0.0994 0.6047 0.5888
C24 C 0.23950(15) 0.60633(15) 0.61806(13)
H32 H 0.2601 0.5472 0.6536
C25 C 0.34911(16) 0.80259(15) 0.53861(15)
C26 C 0.3782(2) 0.83336(18) 0.62644(18)
H33 H 0.4233 0.8708 0.6158
H34 H 0.4128 0.7750 0.6643
H35 H 0.3170 0.8740 0.6553
C27 C 0.44461(18) 0.74094(19) 0.49198(18)
H36 H 0.4894 0.7789 0.4825
H37 H 0.4258 0.7229 0.4352
H38 H 0.4797 0.6815 0.5285
C28 C 0.3000(2) 0.89595(19) 0.4805(2)
H39 H 0.2384 0.9373 0.5082
H40 H 0.2829 0.8787 0.4227
H41 H 0.3473 0.9316 0.4734
C29 C 0.00726(15) 0.76730(15) 0.48304(13)
C30 C 0.01767(17) 0.76858(17) 0.38279(14)
H42 H 0.0484 0.7014 0.3644
H43 H 0.0606 0.8064 0.3649
H44 H -0.0493 0.7987 0.3549
C31 C -0.04758(19) 0.87137(19) 0.51115(19)
H45 H -0.1147 0.8973 0.4830
H46 H -0.0085 0.9130 0.4932
H47 H -0.0546 0.8705 0.5752
C32 C -0.05791(17) 0.70594(19) 0.50910(15)
H48 H -0.1249 0.7353 0.4811
H49 H -0.0648 0.7037 0.5732
H50 H -0.0258 0.6394 0.4897
C33 C 1.05097(14) 0.39067(14) 0.76640(13)
C34 C 1.08456(15) 0.30900(14) 0.82555(12)
C35 C 1.17624(15) 0.23701(14) 0.80579(13)
H51 H 1.2002 0.1803 0.8444
C36 C 1.23468(14) 0.24275(14) 0.73364(13)
C37 C 1.20007(15) 0.32716(15) 0.67951(13)
H52 H 1.2390 0.3350 0.6306
C38 C 1.10943(15) 0.40022(15) 0.69585(13)
H53 H 1.0871 0.4577 0.6581
C39 C 1.02611(17) 0.29813(15) 0.90831(14)
C40 C 1.0094(2) 0.38621(18) 0.96478(15)
H54 H 0.9738 0.3781 1.0183
H55 H 0.9689 0.4461 0.9314
H56 H 1.0749 0.3907 0.9808
C41 C 0.92467(18) 0.29030(19) 0.88216(18)
H57 H 0.9364 0.2323 0.8480
H58 H 0.8853 0.3489 0.8464
H59 H 0.8872 0.2847 0.9352
C42 C 1.0848(2) 0.20684(19) 0.96585(16)
H60 H 1.1508 0.2099 0.9823
H61 H 1.0946 0.1483 0.9330
H62 H 1.0466 0.2039 1.0191
C43 C 1.33505(15) 0.16169(15) 0.71489(14)
C44 C 1.35453(19) 0.07140(18) 0.77683(19)
H63 H 1.4173 0.0205 0.7606
H64 H 1.2981 0.0471 0.7723
H65 H 1.3607 0.0886 0.8374
C45 C 1.42138(17) 0.20118(18) 0.72449(17)
H66 H 1.4855 0.1503 0.7112
H67 H 1.4240 0.2205 0.7849
H68 H 1.4101 0.2581 0.6835
C46 C 1.33323(19) 0.1299(2) 0.62009(17)
H69 H 1.3218 0.1865 0.5787
H70 H 1.2786 0.1035 0.6135
H71 H 1.3981 0.0795 0.6078
C47 C 0.88885(15) 0.70042(14) 0.76413(13)
C48 C 0.82940(15) 0.79969(15) 0.75565(13)
C49 C 0.88026(16) 0.86547(15) 0.76463(13)
H72 H 0.8416 0.9333 0.7598
C50 C 0.98377(16) 0.83857(16) 0.78014(13)
C51 C 1.03892(16) 0.73903(16) 0.78735(14)
H73 H 1.1099 0.7175 0.7973
C52 C 0.99173(15) 0.67091(15) 0.78024(14)
H74 H 1.0304 0.6031 0.7865
C53 C 0.71495(15) 0.83505(15) 0.73661(15)
C54 C 0.66895(19) 0.94678(17) 0.7275(2)
H75 H 0.5966 0.9664 0.7136
H76 H 0.7025 0.9712 0.6802
H77 H 0.6783 0.9742 0.7829
C55 C 0.69324(17) 0.79661(18) 0.64984(15)
H78 H 0.7195 0.7250 0.6538
H79 H 0.7262 0.8206 0.6017
H80 H 0.6201 0.8198 0.6386
C56 C 0.66145(17) 0.80072(18) 0.81283(16)
H81 H 0.5888 0.8219 0.7996
H82 H 0.6725 0.8291 0.8671
H83 H 0.6890 0.7292 0.8203
N1 N 0.58403(12) 0.51867(12) 0.66816(10)
N2 N 0.78500(12) 0.50583(13) 0.69974(10)
O1 O 0.44168(10) 0.48676(10) 0.75267(9)
O2 O 0.39926(10) 0.62361(10) 0.64735(9)
O3 O 0.95915(10) 0.46423(10) 0.78162(9)
O4 O 0.84162(10) 0.63156(10) 0.75823(9)
P1 P 0.47271(4) 0.50770(4) 0.65101(3)
P2 P 0.88823(4) 0.53478(4) 0.69977(3)
C57 C 1.03452(16) 0.91484(16) 0.78939(13)
C58 C 1.0563(3) 0.9219(3) 0.88614(18)
H84 H 0.9933 0.9372 0.9190
H85 H 1.1047 0.8594 0.9093
H86 H 1.0848 0.9737 0.8925
C59 C 1.1301(3) 0.8912(3) 0.7357(3)
H87 H 1.1137 0.8871 0.6738
H88 H 1.1592 0.9427 0.7409
H89 H 1.1791 0.8284 0.7577
C60 C 0.9655(3) 1.0173(2) 0.7584(3)
H90 H 0.9027 1.0352 0.7917
H91 H 0.9996 1.0642 0.7679
H92 H 0.9497 1.0183 0.6956
C61? C 0.9865(8) 0.9879(6) 0.8583(5)
H93? H 0.9875 0.9529 0.9151
H94? H 1.0247 1.0323 0.8635
H95? H 0.9165 1.0257 0.8408
C62? C 1.1455(3) 0.8634(7) 0.8153(6)
H96? H 1.1783 0.8158 0.7718
H97? H 1.1792 0.9118 0.8174
H98? H 1.1503 0.8297 0.8733
C63? C 1.0331(7) 0.9690(6) 0.7010(3)
H99? H 1.0641 0.9217 0.6567
H100? H 0.9631 1.0068 0.6834
H101? H 1.0713 1.0134 0.7061
loop_
_geom_bond_atom_site_label_1
_geom_bond_atom_site_label_2
_geom_bond_site_symmetry_1
_geom_bond_site_symmetry_2
C1 H1 1_555 1_555
H2 C1 1_555 1_555
C2 C1 1_555 1_555
H3 C2 1_555 1_555
H4 C2 1_555 1_555
C3 H5 1_555 1_555
H6 C3 1_555 1_555
C4 C3 1_555 1_555
H7 C4 1_555 1_555
H8 C4 1_555 1_555
C5 C6 1_555 1_555
C6 C7 1_555 1_555
C7 H9 1_555 1_555
C8 C7 1_555 1_555
C9 C8 1_555 1_555
H10 C9 1_555 1_555
C10 C5 1_555 1_555
H11 C10 1_555 1_555
C11 C6 1_555 1_555
C12 C11 1_555 1_555
H12 C12 1_555 1_555
H13 C12 1_555 1_555
H14 C12 1_555 1_555
C13 C11 1_555 1_555
H15 C13 1_555 1_555
H16 C13 1_555 1_555
H17 C13 1_555 1_555
C14 C11 1_555 1_555
H18 C14 1_555 1_555
H19 C14 1_555 1_555
H20 C14 1_555 1_555
C15 C8 1_555 1_555
C16 C15 1_555 1_555
H21 C16 1_555 1_555
H22 C16 1_555 1_555
H23 C16 1_555 1_555
C17 C15 1_555 1_555
H24 C17 1_555 1_555
H25 C17 1_555 1_555
H26 C17 1_555 1_555
C18 C15 1_555 1_555
H27 C18 1_555 1_555
H28 C18 1_555 1_555
H29 C18 1_555 1_555
C19 C20 1_555 1_555
C20 C21 1_555 1_555
C21 H30 1_555 1_555
C22 C21 1_555 1_555
C23 C22 1_555 1_555
H31 C23 1_555 1_555
C24 C19 1_555 1_555
H32 C24 1_555 1_555
C25 C20 1_555 1_555
C26 C25 1_555 1_555
H33 C26 1_555 1_555
H34 C26 1_555 1_555
H35 C26 1_555 1_555
C27 C25 1_555 1_555
H36 C27 1_555 1_555
H37 C27 1_555 1_555
H38 C27 1_555 1_555
C28 C25 1_555 1_555
H39 C28 1_555 1_555
H40 C28 1_555 1_555
H41 C28 1_555 1_555
C29 C22 1_555 1_555
C30 C29 1_555 1_555
H42 C30 1_555 1_555
H43 C30 1_555 1_555
H44 C30 1_555 1_555
C31 C29 1_555 1_555
H45 C31 1_555 1_555
H46 C31 1_555 1_555
H47 C31 1_555 1_555
C32 C29 1_555 1_555
H48 C32 1_555 1_555
H49 C32 1_555 1_555
H50 C32 1_555 1_555
C33 C34 1_555 1_555
C34 C35 1_555 1_555
C35 H51 1_555 1_555
C36 C35 1_555 1_555
C37 C36 1_555 1_555
H52 C37 1_555 1_555
C38 C33 1_555 1_555
H53 C38 1_555 1_555
C39 C34 1_555 1_555
C40 C39 1_555 1_555
H54 C40 1_555 1_555
H55 C40 1_555 1_555
H56 C40 1_555 1_555
C41 C39 1_555 1_555
H57 C41 1_555 1_555
H58 C41 1_555 1_555
H59 C41 1_555 1_555
C42 C39 1_555 1_555
H60 C42 1_555 1_555
H61 C42 1_555 1_555
H62 C42 1_555 1_555
C43 C36 1_555 1_555
C44 C43 1_555 1_555
H63 C44 1_555 1_555
H64 C44 1_555 1_555
H65 C44 1_555 1_555
C45 C43 1_555 1_555
H66 C45 1_555 1_555
H67 C45 1_555 1_555
H68 C45 1_555 1_555
C46 C43 1_555 1_555
H69 C46 1_555 1_555
H70 C46 1_555 1_555
H71 C46 1_555 1_555
C47 C48 1_555 1_555
C48 C49 1_555 1_555
C49 H72 1_555 1_555
C50 C49 1_555 1_555
C51 C50 1_555 1_555
H73 C51 1_555 1_555
C52 C47 1_555 1_555
H74 C52 1_555 1_555
C53 C48 1_555 1_555
C54 C53 1_555 1_555
H75 C54 1_555 1_555
H76 C54 1_555 1_555
H77 C54 1_555 1_555
C55 C53 1_555 1_555
H78 C55 1_555 1_555
H79 C55 1_555 1_555
H80 C55 1_555 1_555
C56 C53 1_555 1_555
H81 C56 1_555 1_555
H82 C56 1_555 1_555
H83 C56 1_555 1_555
N1 C1 1_555 1_555
N2 C2 1_555 1_555
O1 C5 1_555 1_555
O2 C19 1_555 1_555
O3 C33 1_555 1_555
O4 C47 1_555 1_555
P1 N1 1_555 1_555
P2 N2 1_555 1_555
C57 C50 1_555 1_555
C58 C57 1_555 1_555
H84 C58 1_555 1_555
H85 C58 1_555 1_555
H86 C58 1_555 1_555
C59 C57 1_555 1_555
H87 C59 1_555 1_555
H88 C59 1_555 1_555
H89 C59 1_555 1_555
C60 C57 1_555 1_555
H90 C60 1_555 1_555
H91 C60 1_555 1_555
H92 C60 1_555 1_555
C3 N2 1_555 1_555
C4 N1 1_555 1_555
C9 C10 1_555 1_555
C23 C24 1_555 1_555
C37 C38 1_555 1_555
C51 C52 1_555 1_555
O1 P1 1_555 1_555
O2 P1 1_555 1_555
O3 P2 1_555 1_555
O4 P2 1_555 1_555

#END
