
#######################################################################
#
#                 Cambridge Crystallographic Data Centre
#                                CCDC 
#
#######################################################################
#
# If this CIF has been generated from an entry in the Cambridge 
# Structural Database, then it will include bibliographic, chemical, 
# crystal, experimental, refinement or atomic coordinate data resulting 
# from the CCDC's data processing and validation procedures.
#
#######################################################################

data_BEOBCN10
_chemical_formula_moiety         'C28 H34 O4'
_chemical_name_systematic        
2,2'-Dihydroxy-7,7,7',7'-tetramethyl-exo-2,2'-bi(3,4-benzo-9-oxa-bicyclo(3.3.1)non-3-enyl)
_symmetry_cell_setting           orthorhombic
_symmetry_space_group_name_H-M   'F d d 2'
_symmetry_Int_Tables_number      43
_space_group_name_Hall           'F 2 -2d'
loop_
_symmetry_equiv_pos_site_id
_symmetry_equiv_pos_as_xyz
1 x,y,z
2 x,1/2+y,1/2+z
3 1/2+x,y,1/2+z
4 1/2+x,1/2+y,z
5 1/4-x,1/4+y,1/4+z
6 1/4-x,3/4+y,3/4+z
7 3/4-x,1/4+y,3/4+z
8 3/4-x,3/4+y,1/4+z
9 1/4+x,1/4-y,1/4+z
10 1/4+x,3/4-y,3/4+z
11 3/4+x,1/4-y,3/4+z
12 3/4+x,3/4-y,1/4+z
13 1/2-x,-y,1/2+z
14 1/2-x,1/2-y,z
15 -x,-y,z
16 -x,1/2-y,1/2+z
_cell_length_a                   22.771(14)
_cell_length_b                   19.135(11)
_cell_length_c                   10.308(5)
_cell_angle_alpha                90
_cell_angle_beta                 90
_cell_angle_gamma                90
_cell_volume                     4491.43
_cell_formula_units_Z            8
loop_
_atom_site_label
_atom_site_type_symbol
_atom_site_fract_x
_atom_site_fract_y
_atom_site_fract_z
C1 C 0.56060 0.96590 0.63390
C2 C 0.52260 0.96810 0.51040
C3 C 0.56460 0.97350 0.39620
C4 C 0.62060 1.00120 0.41530
C5 C 0.64160 1.02470 0.54680
C6 C 0.68860 0.97820 0.60810
C7 C 0.66240 0.91940 0.69200
C8 C 0.60070 0.90200 0.64030
O1 O 0.59320 1.02990 0.63600
C9 C 0.54930 0.94790 0.27410
C10 C 0.58850 0.95170 0.17210
C11 C 0.64320 0.98050 0.19010
C12 C 0.65890 1.00420 0.30970
C13 C 0.65870 0.94090 0.83450
C14 C 0.70140 0.85490 0.68340
O2 O 0.49230 0.90350 0.49730
H1 H 0.53500 0.97100 0.70900
H2 H 0.65600 1.07100 0.54000
H3 H 0.71700 1.00700 0.66000
H4 H 0.71300 0.95700 0.53600
H5 H 0.58200 0.86900 0.69900
H6 H 0.60600 0.88200 0.54800
H7 H 0.50900 0.92600 0.26000
H8 H 0.57700 0.93400 0.08900
H9 H 0.67000 0.98100 0.11000
H10 H 0.69800 1.02500 0.32300
H11 H 0.64100 0.90300 0.89100
H12 H 0.63300 0.98400 0.84100
H13 H 0.69600 0.95200 0.86900
H14 H 0.70100 0.83900 0.60200
H15 H 0.68800 0.81400 0.74100
H16 H 0.74200 0.86700 0.70000
H17 H 0.45900 0.91000 0.54300
C2N C 0.47740 1.03190 0.51040
C1N C 0.43940 1.03410 0.63390
C3N C 0.43540 1.02650 0.39620
O2N O 0.50770 1.09650 0.49730
C8N C 0.39930 1.09800 0.64030
O1N O 0.40680 0.97010 0.63600
H1N H 0.46500 1.02900 0.70900
C4N C 0.37940 0.99880 0.41530
C9N C 0.45070 1.05210 0.27410
H17N H 0.54100 1.09000 0.54300
C7N C 0.33760 1.08060 0.69200
H5N H 0.41800 1.13100 0.69900
H6N H 0.39400 1.11800 0.54800
C5N C 0.35840 0.97530 0.54680
C12N C 0.34110 0.99580 0.30970
C10N C 0.41150 1.04830 0.17210
H7N H 0.49100 1.07400 0.26000
C6N C 0.31140 1.02180 0.60810
C13N C 0.34130 1.05910 0.83450
C14N C 0.29860 1.14510 0.68340
H2N H 0.34400 0.92900 0.54000
C11N C 0.35680 1.01950 0.19010
H10N H 0.30200 0.97500 0.32300
H8N H 0.42300 1.06600 0.08900
H3N H 0.28300 0.99300 0.66000
H4N H 0.28700 1.04300 0.53600
H11N H 0.35900 1.09700 0.89100
H12N H 0.36700 1.01600 0.84100
H13N H 0.30400 1.04800 0.86900
H14N H 0.29900 1.16100 0.60200
H15N H 0.31200 1.18600 0.74100
H16N H 0.25800 1.13300 0.70000
H9N H 0.33000 1.01900 0.11000
loop_
_geom_bond_atom_site_label_1
_geom_bond_atom_site_label_2
_geom_bond_site_symmetry_1
_geom_bond_site_symmetry_2
C1 C2 1_555 1_555
C2 C3 1_555 1_555
C3 C4 1_555 1_555
C4 C5 1_555 1_555
C5 C6 1_555 1_555
C6 C7 1_555 1_555
C7 C8 1_555 1_555
C8 C1 1_555 1_555
O1 C1 1_555 1_555
C9 C3 1_555 1_555
C10 C9 1_555 1_555
C11 C10 1_555 1_555
C12 C4 1_555 1_555
C13 C7 1_555 1_555
C14 C7 1_555 1_555
O2 C2 1_555 1_555
H1 C1 1_555 1_555
H2 C5 1_555 1_555
H3 C6 1_555 1_555
H4 C6 1_555 1_555
H5 C8 1_555 1_555
H6 C8 1_555 1_555
H7 C9 1_555 1_555
H8 C10 1_555 1_555
H9 C11 1_555 1_555
H10 C12 1_555 1_555
H11 C13 1_555 1_555
H12 C13 1_555 1_555
H13 C13 1_555 1_555
H14 C14 1_555 1_555
H15 C14 1_555 1_555
H16 C14 1_555 1_555
H17 O2 1_555 1_555
C2N C2 1_555 1_555
C1N C2N 1_555 1_555
C3N C2N 1_555 1_555
O2N C2N 1_555 1_555
C8N C1N 1_555 1_555
O1N C1N 1_555 1_555
H1N C1N 1_555 1_555
C4N C3N 1_555 1_555
C9N C3N 1_555 1_555
H17N O2N 1_555 1_555
C7N C8N 1_555 1_555
H5N C8N 1_555 1_555
H6N C8N 1_555 1_555
C5N O1N 1_555 1_555
C12N C4N 1_555 1_555
C10N C9N 1_555 1_555
H7N C9N 1_555 1_555
C6N C7N 1_555 1_555
C13N C7N 1_555 1_555
C14N C7N 1_555 1_555
H2N C5N 1_555 1_555
C11N C12N 1_555 1_555
H10N C12N 1_555 1_555
H8N C10N 1_555 1_555
H3N C6N 1_555 1_555
H4N C6N 1_555 1_555
H11N C13N 1_555 1_555
H12N C13N 1_555 1_555
H13N C13N 1_555 1_555
H14N C14N 1_555 1_555
H15N C14N 1_555 1_555
H16N C14N 1_555 1_555
H9N C11N 1_555 1_555
C5 O1 1_555 1_555
C11 C12 1_555 1_555
C4N C5N 1_555 1_555
C5N C6N 1_555 1_555
C10N C11N 1_555 1_555

#END
