
#######################################################################
#
#                 Cambridge Crystallographic Data Centre
#                                CCDC 
#
#######################################################################
#
# If this CIF has been generated from an entry in the Cambridge 
# Structural Database, then it will include bibliographic, chemical, 
# crystal, experimental, refinement or atomic coordinate data resulting 
# from the CCDC's data processing and validation procedures.
#
#######################################################################

data_BEOXAZ01
_chemical_formula_moiety         'C6 H4 N2 O1'
_chemical_name_systematic        2,1,3-benzoxadiazole
_symmetry_cell_setting           monoclinic
_symmetry_space_group_name_H-M   'P c'
_symmetry_Int_Tables_number      7
_space_group_name_Hall           'P -2yc'
loop_
_symmetry_equiv_pos_site_id
_symmetry_equiv_pos_as_xyz
1 x,y,z
2 x,-y,1/2+z
_cell_length_a                   3.8168(3)
_cell_length_b                   5.8202(3)
_cell_length_c                   12.4208(7)
_cell_angle_alpha                90
_cell_angle_beta                 98.376(6)
_cell_angle_gamma                90
_cell_volume                     272.979
_exptl_crystal_colour            yellow
_exptl_crystal_description       block
_chemical_melting_point          '320-328 K'
_cell_formula_units_Z            2
loop_
_atom_site_label
_atom_site_type_symbol
_atom_site_fract_x
_atom_site_fract_y
_atom_site_fract_z
O1 O 0.1850(5) 0.1188(3) 0.3337(2)
N1 N 0.2172(6) 0.0017(4) 0.4310(2)
N2 N 0.3615(6) 0.3286(4) 0.3441(2)
C1 C 0.4997(6) 0.3382(4) 0.4463(2)
C2 C 0.4122(6) 0.1354(4) 0.5012(2)
C3 C 0.7090(6) 0.5159(4) 0.5036(2)
H1 H 0.7706 0.6514 0.4680
C4 C 0.8145(7) 0.4808(5) 0.6110(3)
H2 H 0.9521 0.5960 0.6516
C5 C 0.5306(7) 0.1033(5) 0.6141(2)
H3 H 0.4755 -0.0319 0.6511
C6 C 0.7265(7) 0.2756(5) 0.6663(2)
H4 H 0.8084 0.2604 0.7420
loop_
_geom_bond_atom_site_label_1
_geom_bond_atom_site_label_2
_geom_bond_site_symmetry_1
_geom_bond_site_symmetry_2
O1 N1 1_555 1_555
N1 C2 1_555 1_555
N2 O1 1_555 1_555
C1 N2 1_555 1_555
C2 C1 1_555 1_555
C3 C1 1_555 1_555
H1 C3 1_555 1_555
C4 C3 1_555 1_555
H2 C4 1_555 1_555
C5 C2 1_555 1_555
H3 C5 1_555 1_555
C6 C4 1_555 1_555
H4 C6 1_555 1_555
C5 C6 1_555 1_555

#END
