
#######################################################################
#
#                 Cambridge Crystallographic Data Centre
#                                CCDC 
#
#######################################################################
#
# If this CIF has been generated from an entry in the Cambridge 
# Structural Database, then it will include bibliographic, chemical, 
# crystal, experimental, refinement or atomic coordinate data resulting 
# from the CCDC's data processing and validation procedures.
#
#######################################################################

data_BEPDEG
_chemical_formula_moiety         'C11 H13 N5 O5,x(H2 O1)'
_chemical_name_systematic        
'(1S,3R,4R,7S)-3-(Guanin-9-yl)-7-hydroxy-1-hydroxymethyl-2,5-dioxabicyclo(2.2.1)heptane hydrate'
_symmetry_cell_setting           triclinic
_symmetry_space_group_name_H-M   'P 1'
_symmetry_Int_Tables_number      1
_space_group_name_Hall           'P 1'
loop_
_symmetry_equiv_pos_site_id
_symmetry_equiv_pos_as_xyz
1 x,y,z
_cell_length_a                   7.141(3)
_cell_length_b                   11.280(4)
_cell_length_c                   16.737(3)
_cell_angle_alpha                97.11(2)
_cell_angle_beta                 94.41(3)
_cell_angle_gamma                91.36(5)
_cell_volume                     1333.09
_exptl_crystal_colour            colorless
_exptl_crystal_description       plate
_cell_formula_units_Z            4
loop_
_atom_site_label
_atom_site_type_symbol
_atom_site_fract_x
_atom_site_fract_y
_atom_site_fract_z
N1 N 1.1061(5) 0.5353(3) 0.0971(2)
C1 C 1.0782(6) 0.4493(4) 0.1477(2)
H1 H 1.0829 0.3676 0.1314
N2 N 1.0448(5) 0.4941(3) 0.2199(2)
C2 C 1.0472(6) 0.6178(4) 0.2183(2)
C3 C 1.0838(5) 0.6441(4) 0.1424(2)
N3 N 1.0945(5) 0.7509(3) 0.1156(2)
C4 C 1.0646(6) 0.8403(4) 0.1725(2)
N4 N 1.0276(5) 0.8233(3) 0.2494(2)
H2 H 1.0038 0.8907 0.2821
C5 C 1.0152(6) 0.7125(4) 0.2783(3)
O1 O 0.9759(5) 0.7073(3) 0.34903(18)
N5 N 1.0688(6) 0.9534(3) 0.1553(2)
H3 H 1.1128 0.9626 0.1066
H4 H 1.0468 1.0177 0.1970
C6 C 1.1156(6) 0.5271(4) 0.0102(2)
H5 H 1.1964 0.5928 -0.0021
O2 O 0.9298(4) 0.5378(2) -0.02690(16)
C7 C 0.8945(6) 0.4331(4) -0.0867(2)
C8 C 0.9935(6) 0.3361(3) -0.0451(2)
H6 H 0.9427 0.3271 0.0066
C9 C 1.1802(6) 0.4083(3) -0.0332(2)
H7 H 1.2847 0.3714 -0.0051
O3 O 1.2092(4) 0.4324(3) -0.11395(17)
C10 C 1.0239(6) 0.4503(4) -0.1526(2)
H8 H 0.9946 0.3919 -0.1998
H9 H 1.0153 0.5300 -0.1684
C11 C 0.6853(7) 0.4195(4) -0.1050(3)
H10 H 0.6394 0.4874 -0.1302
H11 H 0.6548 0.3476 -0.1423
O4 O 0.5976(4) 0.4125(3) -0.0330(2)
H12 H 0.5593 0.3437 -0.0319
O5 O 1.0018(4) 0.2244(3) -0.09363(17)
H13 H 0.9108 0.1819 -0.0872
N6 N 0.6142(5) 0.7913(3) 0.0872(2)
C12 C 0.5834(6) 0.8935(4) 0.1364(2)
H14 H 0.5905 0.9695 0.1206
N7 N 0.5423(5) 0.8722(3) 0.2094(2)
C13 C 0.5443(5) 0.7490(3) 0.2056(2)
C14 C 0.5880(5) 0.6979(4) 0.1316(2)
N8 N 0.5992(5) 0.5796(3) 0.1039(2)
C15 C 0.5658(6) 0.5115(4) 0.1607(2)
N9 N 0.5229(5) 0.5535(3) 0.2369(2)
H15 H 0.5010 0.5016 0.2724
C16 C 0.5077(6) 0.6736(4) 0.2654(3)
O6 O 0.4623(4) 0.7041(3) 0.33520(17)
N10 N 0.5680(5) 0.3917(3) 0.1423(2)
H16 H 0.5383 0.3402 0.1776
C17 C 0.6703(6) 0.7828(4) 0.0033(2)
H17 H 0.7847 0.7373 -0.0027
O7 O 0.6979(4) 0.9026(3) -0.01515(17)
C18 C 0.5579(6) 0.9192(4) -0.0811(3)
C19 C 0.3930(6) 0.8418(4) -0.0626(3)
H18 H 0.3474 0.8687 -0.0099
C20 C 0.5129(6) 0.7332(4) -0.0606(3)
H19 H 0.4467 0.6609 -0.0489
O8 O 0.5956(5) 0.7216(3) -0.13681(18)
C21 C 0.6246(8) 0.8441(5) -0.1552(3)
H20 H 0.5503 0.8576 -0.2040
H21 H 0.7560 0.8616 -0.1613
C22 C 0.5373(7) 1.0516(4) -0.0848(3)
H22 H 0.6554 1.0862 -0.0976
H23 H 0.4423 1.0633 -0.1275
O9 O 0.4860(4) 1.1106(3) -0.01069(18)
H24 H 0.5808 1.1287 0.0197
O10 O 0.2455(5) 0.8259(3) -0.1252(2)
H25 H 0.1798 0.8846 -0.1220
N11 N -0.1420(5) 0.0989(3) 0.4813(2)
C23 C -0.1069(7) -0.0035(4) 0.4309(3)
H26 H -0.1133 -0.0801 0.4459
N12 N -0.0643(5) 0.0192(3) 0.3606(2)
C24 C -0.0707(6) 0.1419(4) 0.3632(2)
C25 C -0.1182(6) 0.1925(4) 0.4383(2)
N13 N -0.1344(5) 0.3095(3) 0.4644(2)
C26 C -0.0946(6) 0.3802(4) 0.4103(3)
N14 N -0.0490(5) 0.3380(3) 0.3339(2)
H27 H -0.0221 0.3949 0.3015
C27 C -0.0298(6) 0.2181(4) 0.3052(2)
O11 O 0.0180(4) 0.1897(3) 0.23595(17)
N15 N -0.0983(6) 0.4985(4) 0.4283(2)
H28 H -0.1307 0.5195 0.4792
H29 H -0.0825 0.5611 0.3987
C28 C -0.1902(7) 0.1129(5) 0.5646(3)
H30 H -0.2853 0.1739 0.5714
O12 O -0.0277(5) 0.1499(3) 0.61809(17)
C29 C -0.0162(7) 0.0680(4) 0.6785(2)
C30 C -0.0715(10) -0.0500(5) 0.6257(3)
H31 H -0.0051 -0.0519 0.5803
C31 C -0.2572(9) 0.0027(7) 0.5966(3)
H32 H -0.3334 -0.0616 0.5598
O13 O -0.3536(9) 0.0762(7) 0.6708(4)
C32 C -0.1956(13) 0.1189(10) 0.7283(6)
C34 C 0.1744(7) 0.0770(4) 0.7227(3)
H33 H 0.1892 0.0092 0.7527
H34 H 0.2683 0.0725 0.6836
O15 O 0.2083(4) 0.1838(3) 0.77693(17)
H35 H 0.2517 0.2362 0.7456
O17 O -0.1529(11) -0.1276(6) 0.6795(4)
N16 N 0.3549(5) 0.3606(3) 0.4687(2)
C35 C 0.3871(6) 0.4429(4) 0.4174(3)
H36 H 0.3759 0.5247 0.4312
N17 N 0.4353(5) 0.3953(3) 0.3468(2)
C36 C 0.4324(6) 0.2744(4) 0.3521(2)
C37 C 0.3824(6) 0.2502(4) 0.4265(2)
N18 N 0.3668(5) 0.1418(3) 0.4541(2)
C38 C 0.4039(6) 0.0532(4) 0.3985(2)
N19 N 0.4515(5) 0.0682(3) 0.3229(2)
H37 H 0.4825 0.0035 0.2889
C39 C 0.4688(6) 0.1768(4) 0.2930(2)
O18 O 0.5129(4) 0.1820(3) 0.22297(17)
N20 N 0.3978(5) -0.0601(3) 0.4168(2)
H38 H 0.3576 -0.0692 0.4659
H39 H 0.4265 -0.1252 0.3812
C40 C 0.2971(6) 0.3874(4) 0.5513(2)
H40 H 0.1554 0.3816 0.5569
O25 O 0.2757(9) 0.5111(5) 0.5747(3)
C41 C 0.4074(12) 0.5395(7) 0.6444(5)
C42 C 0.5650(13) 0.4521(9) 0.6260(5)
C43 C 0.4140(7) 0.3305(4) 0.6139(3)
O26 O 0.3041(11) 0.3591(6) 0.6845(4)
C44 C 0.3141(17) 0.4927(9) 0.7127(6)
C45 C 0.4604(16) 0.6790(10) 0.6601(7)
O27 O 0.2923(12) 0.7387(7) 0.6999(5)
O28 O 0.7096(10) 0.4521(6) 0.6880(4)
O19 O 0.8020(4) 0.1704(3) 0.08652(17)
H41 H 0.9442 0.1617 0.0788
H42 H 0.7951 0.1819 0.1443
O20 O 0.1986(5) 0.1714(3) 0.0854(2)
H43 H 0.2894 0.1819 0.1370
H44 H 0.3054 0.1488 0.0527
O21 O 0.0330(5) 0.9909(3) 0.9420(2)
H45 H -0.0705 0.9447 0.9603
H46 H 0.1127 1.0611 0.9939
O22 O 0.1979(9) 0.7515(4) 0.4997(3)
H47 H 0.1416 0.7391 0.4400
O23 O 0.7032(15) 0.7296(8) 0.4844(5)
O31 O 0.7641(14) 0.6166(8) 0.6023(6)
O14? O -0.3273(9) 0.0042(7) 0.6689(4)
C33? C -0.1755(14) 0.0595(11) 0.7272(6)
O16? O -0.0447(11) -0.1629(6) 0.6625(4)
O24? O 0.5682(16) 0.7311(8) 0.4913(6)
O29? O 0.3797(9) 0.5116(5) 0.5764(3)
C46? C 0.5109(12) 0.5015(8) 0.6454(5)
C47? C 0.5958(12) 0.3808(8) 0.6235(5)
O30? O 0.3519(12) 0.3565(7) 0.6929(5)
C48? C 0.3858(13) 0.4768(7) 0.7149(4)
C49? C 0.6410(13) 0.6110(9) 0.6636(6)
O32? O 0.7151(9) 0.3455(6) 0.6876(4)
P1? P 0.1667(18) 0.7475(11) 0.7216(7)
P2? P 0.9257(15) 0.6123(9) 0.6061(6)
loop_
_geom_bond_atom_site_label_1
_geom_bond_atom_site_label_2
_geom_bond_site_symmetry_1
_geom_bond_site_symmetry_2
N1 C1 1_555 1_555
C1 H1 1_555 1_555
N2 C1 1_555 1_555
C2 N2 1_555 1_555
C3 N1 1_555 1_555
N3 C3 1_555 1_555
C4 N3 1_555 1_555
N4 C4 1_555 1_555
H2 N4 1_555 1_555
C5 C2 1_555 1_555
O1 C5 1_555 1_555
N5 C4 1_555 1_555
H3 N5 1_555 1_555
H4 N5 1_555 1_555
C6 N1 1_555 1_555
H5 C6 1_555 1_555
O2 C6 1_555 1_555
C7 O2 1_555 1_555
C8 C7 1_555 1_555
H6 C8 1_555 1_555
C9 C6 1_555 1_555
H7 C9 1_555 1_555
O3 C9 1_555 1_555
C10 C7 1_555 1_555
H8 C10 1_555 1_555
H9 C10 1_555 1_555
C11 C7 1_555 1_555
H10 C11 1_555 1_555
H11 C11 1_555 1_555
O4 C11 1_555 1_555
H12 O4 1_555 1_555
O5 C8 1_555 1_555
H13 O5 1_555 1_555
N6 C12 1_555 1_555
C12 H14 1_555 1_555
N7 C12 1_555 1_555
C13 N7 1_555 1_555
C14 N6 1_555 1_555
N8 C14 1_555 1_555
C15 N8 1_555 1_555
N9 C15 1_555 1_555
H15 N9 1_555 1_555
C16 C13 1_555 1_555
O6 C16 1_555 1_555
N10 C15 1_555 1_555
H16 N10 1_555 1_555
C17 N6 1_555 1_555
H17 C17 1_555 1_555
O7 C17 1_555 1_555
C18 O7 1_555 1_555
C19 C18 1_555 1_555
H18 C19 1_555 1_555
C20 C17 1_555 1_555
H19 C20 1_555 1_555
O8 C20 1_555 1_555
C21 C18 1_555 1_555
H20 C21 1_555 1_555
H21 C21 1_555 1_555
C22 C18 1_555 1_555
H22 C22 1_555 1_555
H23 C22 1_555 1_555
O9 C22 1_555 1_555
H24 O9 1_555 1_555
O10 C19 1_555 1_555
H25 O10 1_555 1_555
N11 C23 1_555 1_555
C23 H26 1_555 1_555
N12 C23 1_555 1_555
C24 N12 1_555 1_555
C25 N11 1_555 1_555
N13 C25 1_555 1_555
C26 N13 1_555 1_555
N14 C26 1_555 1_555
H27 N14 1_555 1_555
C27 C24 1_555 1_555
O11 C27 1_555 1_555
N15 C26 1_555 1_555
H28 N15 1_555 1_555
H29 N15 1_555 1_555
C28 N11 1_555 1_555
H30 C28 1_555 1_555
O12 C28 1_555 1_555
C29 O12 1_555 1_555
C30 C29 1_555 1_555
H31 C30 1_555 1_555
C31 C28 1_555 1_555
H32 C31 1_555 1_555
O13 C31 1_555 1_555
C32 C29 1_555 1_555
C34 C29 1_555 1_555
H33 C34 1_555 1_555
H34 C34 1_555 1_555
O15 C34 1_555 1_555
H35 O15 1_555 1_555
O17 C30 1_555 1_555
N16 C35 1_555 1_555
C35 H36 1_555 1_555
N17 C35 1_555 1_555
C36 N17 1_555 1_555
C37 N16 1_555 1_555
N18 C37 1_555 1_555
C38 N18 1_555 1_555
N19 C38 1_555 1_555
H37 N19 1_555 1_555
C39 C36 1_555 1_555
O18 C39 1_555 1_555
N20 C38 1_555 1_555
H38 N20 1_555 1_555
H39 N20 1_555 1_555
C40 N16 1_555 1_555
H40 C40 1_555 1_555
O19 H41 1_555 1_555
H42 O19 1_555 1_555
O20 H43 1_555 1_555
H44 O20 1_555 1_555
O21 H45 1_555 1_555
H46 O21 1_555 1_555
O22 H47 1_555 1_555
O25 C40 1_555 1_555
C41 O25 1_555 1_555
C42 C41 1_555 1_555
C43 C40 1_555 1_555
O26 C43 1_555 1_555
C44 C41 1_555 1_555
C45 C41 1_555 1_555
O27 C45 1_555 1_555
O28 C42 1_555 1_555
C2 C3 1_555 1_555
N4 C5 1_555 1_555
C8 C9 1_555 1_555
O3 C10 1_555 1_555
C13 C14 1_555 1_555
N9 C16 1_555 1_555
C19 C20 1_555 1_555
O8 C21 1_555 1_555
C24 C25 1_555 1_555
N14 C27 1_555 1_555
C30 C31 1_555 1_555
O13 C32 1_555 1_555
C36 C37 1_555 1_555
N19 C39 1_555 1_555
C42 C43 1_555 1_555
O26 C44 1_555 1_555

#END
