
#######################################################################
#
#                 Cambridge Crystallographic Data Centre
#                                CCDC 
#
#######################################################################
#
# If this CIF has been generated from an entry in the Cambridge 
# Structural Database, then it will include bibliographic, chemical, 
# crystal, experimental, refinement or atomic coordinate data resulting 
# from the CCDC's data processing and validation procedures.
#
#######################################################################

data_BEPFAF
_chemical_formula_moiety         'C24 H26 Br1 N5 O3'
_chemical_name_systematic        
2-(4-Bromo-3-methylphenyl)-3-(1-(2-methoxybenzyl)-1H-tetrazol-5-yl)-8-oxa-2-azaspiro[4.5]decan-1-one
_symmetry_cell_setting           triclinic
_symmetry_space_group_name_H-M   'P -1'
_symmetry_Int_Tables_number      2
_space_group_name_Hall           '-P 1'
loop_
_symmetry_equiv_pos_site_id
_symmetry_equiv_pos_as_xyz
1 x,y,z
2 -x,-y,-z
_cell_length_a                   6.2629(9)
_cell_length_b                   12.8858(17)
_cell_length_c                   14.605(2)
_cell_angle_alpha                94.657(2)
_cell_angle_beta                 91.384(2)
_cell_angle_gamma                90.916(2)
_cell_volume                     1174.24
_exptl_crystal_colour            colorless
_exptl_crystal_description       prism
_cell_formula_units_Z            2
loop_
_atom_site_label
_atom_site_type_symbol
_atom_site_fract_x
_atom_site_fract_y
_atom_site_fract_z
Br1 Br 0.44872(6) 0.62111(3) 0.63611(3)
O1 O 0.8058(4) 0.43147(19) 1.03371(16)
O2 O 1.0510(4) 0.1671(2) 1.20640(17)
O3 O 1.2073(4) 0.2161(2) 0.65399(16)
N1 N 0.8635(4) 0.3352(2) 0.89733(17)
N2 N 0.7596(4) 0.0912(2) 0.75813(17)
N3 N 0.5635(4) 0.0441(2) 0.7480(2)
N4 N 0.4467(4) 0.0894(3) 0.8109(2)
N5 N 0.5622(4) 0.1654(2) 0.86234(19)
C1 C 0.9385(4) 0.2326(2) 0.8653(2)
H1 H 1.0429 0.2391 0.8171
C2 C 0.8706(5) 0.3533(3) 0.9913(2)
C3 C 0.9678(4) 0.2607(2) 1.0341(2)
C4 C 1.0500(5) 0.1938(3) 0.9511(2)
H2 H 1.0152 0.1209 0.9561
H3 H 1.2038 0.2017 0.9475
C5 C 1.1479(5) 0.2972(3) 1.1032(2)
H4 H 1.2673 0.3239 1.0705
H5 H 1.0972 0.3533 1.1451
C6 C 1.2221(5) 0.2087(3) 1.1576(3)
H6 H 1.2795 0.1541 1.1160
H7 H 1.3352 0.2337 1.2007
C7 C 0.8872(6) 0.1260(3) 1.1443(3)
H8 H 0.7744 0.0962 1.1788
H9 H 0.9450 0.0706 1.1038
C8 C 0.7938(5) 0.2071(3) 1.0871(2)
H10 H 0.7224 0.2590 1.1267
H11 H 0.6882 0.1745 1.0438
C9 C 0.7543(5) 0.1646(2) 0.8283(2)
C10 C 0.7638(5) 0.4013(2) 0.8365(2)
C11 C 0.8601(5) 0.4185(3) 0.7545(2)
H12 H 0.9892 0.3869 0.7409
C12 C 0.7692(5) 0.4817(3) 0.6921(2)
C13 C 0.5803(5) 0.5286(3) 0.7159(2)
C14 C 0.4796(5) 0.5122(3) 0.7963(2)
H13 H 0.3512 0.5446 0.8099
C15 C 0.5704(5) 0.4474(3) 0.8568(2)
H14 H 0.5021 0.4348 0.9107
C16 C 0.8795(6) 0.4971(3) 0.6029(3)
H15 H 0.7830 0.4779 0.5521
H16 H 1.0034 0.4543 0.5984
H17 H 0.9220 0.5689 0.6018
C17 C 0.9299(5) 0.0580(3) 0.6951(2)
H18 H 0.9224 -0.0172 0.6836
H19 H 1.0672 0.0762 0.7248
C18 C 0.9173(5) 0.1060(2) 0.6048(2)
C19 C 1.0662(5) 0.1828(3) 0.5846(2)
C20 C 1.0627(6) 0.2204(3) 0.4978(2)
H20 H 1.1630 0.2703 0.4837
C21 C 0.9096(6) 0.1836(3) 0.4325(3)
H21 H 0.9073 0.2093 0.3748
C22 C 0.7626(6) 0.1100(3) 0.4520(2)
H22 H 0.6592 0.0860 0.4082
C23 C 0.7684(5) 0.0713(3) 0.5377(2)
H23 H 0.6690 0.0203 0.5503
C24 C 1.3870(6) 0.2775(3) 0.6326(3)
H24 H 1.4799 0.2888 0.6859
H25 H 1.3397 0.3433 0.6141
H26 H 1.4627 0.2418 0.5835
loop_
_geom_bond_atom_site_label_1
_geom_bond_atom_site_label_2
_geom_bond_site_symmetry_1
_geom_bond_site_symmetry_2
Br1 C13 1_555 1_555
O1 C2 1_555 1_555
O2 C6 1_555 1_555
O3 C19 1_555 1_555
N1 C1 1_555 1_555
N2 N3 1_555 1_555
N3 N4 1_555 1_555
N4 N5 1_555 1_555
N5 C9 1_555 1_555
C1 H1 1_555 1_555
C2 N1 1_555 1_555
C3 C2 1_555 1_555
C4 C1 1_555 1_555
H2 C4 1_555 1_555
H3 C4 1_555 1_555
C5 C3 1_555 1_555
H4 C5 1_555 1_555
H5 C5 1_555 1_555
C6 C5 1_555 1_555
H6 C6 1_555 1_555
H7 C6 1_555 1_555
C7 O2 1_555 1_555
H8 C7 1_555 1_555
H9 C7 1_555 1_555
C8 C3 1_555 1_555
H10 C8 1_555 1_555
H11 C8 1_555 1_555
C9 N2 1_555 1_555
C10 N1 1_555 1_555
C11 C10 1_555 1_555
H12 C11 1_555 1_555
C12 C11 1_555 1_555
C13 C12 1_555 1_555
C14 C13 1_555 1_555
H13 C14 1_555 1_555
C15 C10 1_555 1_555
H14 C15 1_555 1_555
C16 C12 1_555 1_555
H15 C16 1_555 1_555
H16 C16 1_555 1_555
H17 C16 1_555 1_555
C17 N2 1_555 1_555
H18 C17 1_555 1_555
H19 C17 1_555 1_555
C18 C17 1_555 1_555
C19 C18 1_555 1_555
C20 C19 1_555 1_555
H20 C20 1_555 1_555
C21 C20 1_555 1_555
H21 C21 1_555 1_555
C22 C21 1_555 1_555
H22 C22 1_555 1_555
C23 C18 1_555 1_555
H23 C23 1_555 1_555
C24 O3 1_555 1_555
H24 C24 1_555 1_555
H25 C24 1_555 1_555
H26 C24 1_555 1_555
C1 C9 1_555 1_555
C3 C4 1_555 1_555
C7 C8 1_555 1_555
C14 C15 1_555 1_555
C22 C23 1_555 1_555

#END
