
#######################################################################
#
#                 Cambridge Crystallographic Data Centre
#                                CCDC 
#
#######################################################################
#
# If this CIF has been generated from an entry in the Cambridge 
# Structural Database, then it will include bibliographic, chemical, 
# crystal, experimental, refinement or atomic coordinate data resulting 
# from the CCDC's data processing and validation procedures.
#
#######################################################################

data_BEPGEJ
_chemical_formula_moiety         'C14 H24 O2'
_chemical_name_systematic        2-Allyl-2,7-dihydroxyspiro(5.5)undecane
_symmetry_cell_setting           monoclinic
_symmetry_space_group_name_H-M   'P 21/n'
_symmetry_Int_Tables_number      14
_space_group_name_Hall           '-P 2yn'
loop_
_symmetry_equiv_pos_site_id
_symmetry_equiv_pos_as_xyz
1 x,y,z
2 1/2+x,1/2-y,1/2+z
3 -x,-y,-z
4 1/2-x,1/2+y,1/2-z
_cell_length_a                   7.205(1)
_cell_length_b                   20.662(3)
_cell_length_c                   9.241(2)
_cell_angle_alpha                90
_cell_angle_beta                 107.57(1)
_cell_angle_gamma                90
_cell_volume                     1311.53
_cell_formula_units_Z            4
loop_
_atom_site_label
_atom_site_type_symbol
_atom_site_fract_x
_atom_site_fract_y
_atom_site_fract_z
O1 O 0.30847(15) 0.70864(5) 0.25429(12)
O2 O 0.49524(16) 0.73086(5) 0.54420(11)
C1 C 0.33166(18) 0.64207(6) 0.30496(14)
C2 C 0.1784(2) 0.60419(7) 0.18464(15)
H1 H 0.0510 0.6224 0.1743
H2 H 0.2036 0.6087 0.0878
C3 C 0.1770(2) 0.53295(7) 0.22329(16)
H3 H 0.2997 0.5135 0.2238
H4 H 0.0736 0.5113 0.1463
C4 C 0.1465(2) 0.52367(7) 0.37723(15)
H5 H 0.1599 0.4781 0.4038
H6 H 0.0153 0.5369 0.3716
C5 C 0.2915(2) 0.56253(6) 0.50075(14)
H7 H 0.4202 0.5442 0.5176
H8 H 0.2581 0.5581 0.5944
C6 C 0.29941(17) 0.63527(6) 0.46482(14)
C7 C 0.4691(2) 0.66601(6) 0.59069(14)
H9 H 0.5879 0.6413 0.5985
C8 C 0.4356(2) 0.66635(7) 0.74563(15)
H10 H 0.4323 0.6221 0.7797
H11 H 0.5437 0.6881 0.8179
C9 C 0.2473(3) 0.70000(8) 0.74254(19)
H12 H 0.2562 0.7456 0.7208
H13 H 0.2270 0.6963 0.8413
C10 C 0.0754(2) 0.67005(8) 0.62236(17)
H14 H -0.0414 0.6947 0.6161
H15 H 0.0556 0.6262 0.6519
C11 C 0.1085(2) 0.66904(7) 0.46705(16)
H16 H 0.1101 0.7133 0.4322
H17 H -0.0004 0.6471 0.3959
C12 C 0.53977(19) 0.62118(7) 0.30899(14)
H18 H 0.6322 0.6514 0.3723
H19 H 0.5663 0.5789 0.3564
C13 C 0.5732(2) 0.61796(8) 0.15735(16)
H20 H 0.5434 0.6546 0.0961
C14 C 0.6411(2) 0.56777(11) 0.1043(2)
H21 H 0.374(3) 0.7309(9) 0.335(2)
H22 H 0.590(3) 0.7497(9) 0.611(2)
H23 H 0.661(3) 0.5696(8) 0.005(2)
H24 H 0.673(3) 0.5251(9) 0.167(2)
loop_
_geom_bond_atom_site_label_1
_geom_bond_atom_site_label_2
_geom_bond_site_symmetry_1
_geom_bond_site_symmetry_2
O1 C1 1_555 1_555
O2 C7 1_555 1_555
C1 C2 1_555 1_555
C2 H1 1_555 1_555
H2 C2 1_555 1_555
C3 C2 1_555 1_555
H3 C3 1_555 1_555
H4 C3 1_555 1_555
C4 C3 1_555 1_555
H5 C4 1_555 1_555
H6 C4 1_555 1_555
C5 C4 1_555 1_555
H7 C5 1_555 1_555
H8 C5 1_555 1_555
C6 C1 1_555 1_555
C7 C6 1_555 1_555
H9 C7 1_555 1_555
C8 C7 1_555 1_555
H10 C8 1_555 1_555
H11 C8 1_555 1_555
C9 C8 1_555 1_555
H12 C9 1_555 1_555
H13 C9 1_555 1_555
C10 C9 1_555 1_555
H14 C10 1_555 1_555
H15 C10 1_555 1_555
C11 C6 1_555 1_555
H16 C11 1_555 1_555
H17 C11 1_555 1_555
C12 C1 1_555 1_555
H18 C12 1_555 1_555
H19 C12 1_555 1_555
C13 C12 1_555 1_555
H20 C13 1_555 1_555
C14 C13 1_555 1_555
H21 O1 1_555 1_555
H22 O2 1_555 1_555
H23 C14 1_555 1_555
H24 C14 1_555 1_555
C5 C6 1_555 1_555
C10 C11 1_555 1_555

#END
