
#######################################################################
#
#                 Cambridge Crystallographic Data Centre
#                                CCDC 
#
#######################################################################
#
# If this CIF has been generated from an entry in the Cambridge 
# Structural Database, then it will include bibliographic, chemical, 
# crystal, experimental, refinement or atomic coordinate data resulting 
# from the CCDC's data processing and validation procedures.
#
#######################################################################

data_BEPMUG
_chemical_name_common            N-(4-Pyridylmethyl)valine
_chemical_formula_moiety         'C11 H16 N2 O2'
_chemical_name_systematic        
3-Methyl-2-((pyridin-4-ylmethyl)ammonio)butanoate
_symmetry_cell_setting           monoclinic
_symmetry_space_group_name_H-M   'P 21'
_symmetry_Int_Tables_number      4
_space_group_name_Hall           'P 2yb'
loop_
_symmetry_equiv_pos_site_id
_symmetry_equiv_pos_as_xyz
1 x,y,z
2 -x,1/2+y,-z
_cell_length_a                   7.7973(4)
_cell_length_b                   5.9954(2)
_cell_length_c                   12.1886(6)
_cell_angle_alpha                90
_cell_angle_beta                 104.675(5)
_cell_angle_gamma                90
_cell_volume                     551.204
_exptl_crystal_colour            colorless
_exptl_crystal_description       block
_cell_formula_units_Z            2
loop_
_atom_site_label
_atom_site_type_symbol
_atom_site_fract_x
_atom_site_fract_y
_atom_site_fract_z
C1 C 0.9339(5) 0.4560(7) 0.3087(4)
H1 H 0.9790 0.5776 0.2777
C2 C 0.7590(5) 0.4661(7) 0.3164(3)
H2 H 0.6881 0.5890 0.2892
C3 C 0.6931(4) 0.2879(6) 0.3659(2)
C4 C 0.8038(4) 0.1093(7) 0.4038(3)
H3 H 0.7642 -0.0117 0.4383
C5 C 0.9736(4) 0.1122(7) 0.3900(3)
H4 H 1.0460 -0.0107 0.4145
C6 C 0.5058(4) 0.2897(6) 0.3812(3)
H5 H 0.4936 0.1691 0.4318
H6 H 0.4864 0.4288 0.4168
C7 C 0.3861(4) 0.0722(5) 0.1974(2)
H7 H 0.5094 0.0691 0.1921
C8 C 0.3493(4) -0.1512(5) 0.2510(3)
C9 C 0.2674(4) 0.1011(6) 0.0767(2)
H8 H 0.2665 -0.0424 0.0381
C10 C 0.0762(4) 0.1517(7) 0.0778(3)
H9 H 0.0351 0.0409 0.1219
H10 H 0.0029 0.1500 0.0016
H11 H 0.0704 0.2962 0.1106
C11 C 0.3409(5) 0.2739(7) 0.0082(3)
H12 H 0.3395 0.4186 0.0417
H13 H 0.2689 0.2763 -0.0684
H14 H 0.4604 0.2353 0.0083
N1 N 1.0400(3) 0.2827(6) 0.3430(2)
N2 N 0.3676(3) 0.2646(4) 0.2721(2)
H15 H 0.3658 0.3909 0.2320
H16 H 0.2616 0.2529 0.2883
O1 O 0.3094(4) -0.1504(5) 0.3427(2)
O2 O 0.3657(5) -0.3169(4) 0.1921(2)
loop_
_geom_bond_atom_site_label_1
_geom_bond_atom_site_label_2
_geom_bond_site_symmetry_1
_geom_bond_site_symmetry_2
C1 H1 1_555 1_555
C2 C1 1_555 1_555
H2 C2 1_555 1_555
C3 C2 1_555 1_555
C4 C3 1_555 1_555
H3 C4 1_555 1_555
C5 C4 1_555 1_555
H4 C5 1_555 1_555
C6 C3 1_555 1_555
H5 C6 1_555 1_555
H6 C6 1_555 1_555
C7 H7 1_555 1_555
C8 C7 1_555 1_555
C9 C7 1_555 1_555
H8 C9 1_555 1_555
C10 C9 1_555 1_555
H9 C10 1_555 1_555
H10 C10 1_555 1_555
H11 C10 1_555 1_555
C11 C9 1_555 1_555
H12 C11 1_555 1_555
H13 C11 1_555 1_555
H14 C11 1_555 1_555
N1 C1 1_555 1_555
N2 C6 1_555 1_555
H15 N2 1_555 1_555
H16 N2 1_555 1_555
O1 C8 1_555 1_555
O2 C8 1_555 1_555
C5 N1 1_555 1_555
C7 N2 1_555 1_555

#END
