
#######################################################################
#
#                 Cambridge Crystallographic Data Centre
#                                CCDC 
#
#######################################################################
#
# If this CIF has been generated from an entry in the Cambridge 
# Structural Database, then it will include bibliographic, chemical, 
# crystal, experimental, refinement or atomic coordinate data resulting 
# from the CCDC's data processing and validation procedures.
#
#######################################################################

data_BEPMOA
_chemical_name_common            N-(4-Pyridylmethyl)alanine
_chemical_formula_moiety         'C9 H12 N2 O2'
_chemical_name_systematic        2-((Pyridin-4-ylmethyl)ammonio)propanoate
_symmetry_cell_setting           monoclinic
_symmetry_space_group_name_H-M   'P 21'
_symmetry_Int_Tables_number      4
_space_group_name_Hall           'P 2yb'
loop_
_symmetry_equiv_pos_site_id
_symmetry_equiv_pos_as_xyz
1 x,y,z
2 -x,1/2+y,-z
_cell_length_a                   5.3147(2)
_cell_length_b                   8.7308(3)
_cell_length_c                   9.8683(4)
_cell_angle_alpha                90
_cell_angle_beta                 91.651(4)
_cell_angle_gamma                90
_cell_volume                     457.715
_exptl_crystal_colour            colorless
_exptl_crystal_description       block
_cell_formula_units_Z            2
loop_
_atom_site_label
_atom_site_type_symbol
_atom_site_fract_x
_atom_site_fract_y
_atom_site_fract_z
C1 C 1.2569(7) 0.9501(6) 0.3891(4)
H1 H 1.3417 1.0432 0.3938
C2 C 1.0752(6) 0.9308(5) 0.2861(4)
H2 H 1.0386 1.0094 0.2251
C3 C 0.9507(6) 0.7924(4) 0.2766(4)
C4 C 1.0094(7) 0.6796(5) 0.3728(4)
H3 H 0.9287 0.5851 0.3701
C5 C 1.1909(8) 0.7119(6) 0.4726(5)
H4 H 1.2263 0.6368 0.5372
C6 C 0.7536(7) 0.7563(4) 0.1672(4)
H5 H 0.7629 0.6483 0.1451
H6 H 0.5882 0.7759 0.2024
C7 C 0.6489(6) 0.7762(4) -0.0782(3)
H7 H 0.7054 0.6701 -0.0880
C8 C 0.3649(6) 0.7775(4) -0.0560(3)
C9 C 0.7112(6) 0.8651(5) -0.2051(3)
H8 H 0.6751 0.9717 -0.1918
H9 H 0.6115 0.8271 -0.2805
H10 H 0.8866 0.8528 -0.2233
N1 N 1.3176(7) 0.8430(6) 0.4820(4)
N2 N 0.7826(4) 0.8467(3) 0.0417(3)
H11 H 0.9474 0.8550 0.0245
H12 H 0.7220 0.9417 0.0546
O1 O 0.2745(4) 0.8994(3) -0.0109(3)
O2 O 0.2419(4) 0.6583(3) -0.0858(3)
loop_
_geom_bond_atom_site_label_1
_geom_bond_atom_site_label_2
_geom_bond_site_symmetry_1
_geom_bond_site_symmetry_2
C1 H1 1_555 1_555
C2 C1 1_555 1_555
H2 C2 1_555 1_555
C3 C2 1_555 1_555
C4 C3 1_555 1_555
H3 C4 1_555 1_555
C5 C4 1_555 1_555
H4 C5 1_555 1_555
C6 C3 1_555 1_555
H5 C6 1_555 1_555
H6 C6 1_555 1_555
C7 H7 1_555 1_555
C8 C7 1_555 1_555
C9 C7 1_555 1_555
H8 C9 1_555 1_555
H9 C9 1_555 1_555
H10 C9 1_555 1_555
N1 C1 1_555 1_555
N2 C6 1_555 1_555
H11 N2 1_555 1_555
H12 N2 1_555 1_555
O1 C8 1_555 1_555
O2 C8 1_555 1_555
C5 N1 1_555 1_555
C7 N2 1_555 1_555

#END
