
#######################################################################
#
#                 Cambridge Crystallographic Data Centre
#                                CCDC 
#
#######################################################################
#
# If this CIF has been generated from an entry in the Cambridge 
# Structural Database, then it will include bibliographic, chemical, 
# crystal, experimental, refinement or atomic coordinate data resulting 
# from the CCDC's data processing and validation procedures.
#
#######################################################################

data_BEPNAO
_chemical_formula_moiety         'C16 H19 N1 O2'
_chemical_name_systematic        
4-benzylidene-3-ethyl-1-oxa-3-azaspiro[4.4]nonan-2-one
_symmetry_cell_setting           monoclinic
_symmetry_space_group_name_H-M   'P 21/c'
_symmetry_Int_Tables_number      14
_space_group_name_Hall           '-P 2ybc'
loop_
_symmetry_equiv_pos_site_id
_symmetry_equiv_pos_as_xyz
1 x,y,z
2 -x,1/2+y,1/2-z
3 -x,-y,-z
4 x,1/2-y,1/2+z
_cell_length_a                   10.9284(2)
_cell_length_b                   9.47510(10)
_cell_length_c                   14.2510(2)
_cell_angle_alpha                90
_cell_angle_beta                 111.917(2)
_cell_angle_gamma                90
_cell_volume                     1369.01
_cell_formula_units_Z            4
loop_
_atom_site_label
_atom_site_type_symbol
_atom_site_fract_x
_atom_site_fract_y
_atom_site_fract_z
O1 O 0.20993(9) 0.72998(11) 0.68779(7)
O2 O 0.30289(10) 0.68548(11) 0.85421(7)
N1 N 0.42610(10) 0.69019(11) 0.75307(8)
C1 C 0.40212(12) 0.72341(13) 0.65176(9)
C2 C 0.25340(12) 0.73959(13) 0.60204(9)
C3 C 0.31320(13) 0.69995(13) 0.77294(10)
C4 C 0.55306(12) 0.66604(14) 0.83521(10)
H1 H 0.6050 0.6022 0.8118
H2 H 0.5380 0.6207 0.8910
C5 C 0.19793(12) 0.87593(14) 0.54513(10)
H3 H 0.2515 0.9083 0.5083
H4 H 0.1947 0.9495 0.5915
C6 C 0.48376(13) 0.73743(14) 0.60223(10)
H5 H 0.4436 0.7660 0.5352
C7 C 0.62817(13) 0.71479(14) 0.63692(10)
C8 C 0.68537(13) 0.58233(15) 0.66553(10)
H6 H 0.6323 0.5057 0.6658
C9 C 0.18493(13) 0.62340(14) 0.52691(10)
H7 H 0.1843 0.5355 0.5616
H8 H 0.2283 0.6081 0.4795
C10 C 0.63102(14) 0.80105(16) 0.87318(11)
H9 H 0.6464 0.8465 0.8184
H10 H 0.7140 0.7788 0.9258
H11 H 0.5819 0.8631 0.8993
C11 C 0.82045(13) 0.56268(17) 0.69373(11)
H12 H 0.8570 0.4737 0.7135
C12 C 0.71017(15) 0.82743(16) 0.63483(11)
H13 H 0.6741 0.9164 0.6146
C13 C 0.90068(14) 0.6750(2) 0.69248(11)
H14 H 0.9911 0.6621 0.7114
C14 C 0.04499(14) 0.67897(16) 0.47278(12)
H15 H 0.0074 0.6426 0.4043
H16 H -0.0113 0.6516 0.5087
C15 C 0.84508(15) 0.80704(18) 0.66275(12)
H17 H 0.8986 0.8827 0.6615
C16 C 0.05904(18) 0.83740(18) 0.47229(17)
H18 H -0.0062 0.8819 0.4936
H19 H 0.0455 0.8700 0.4046
loop_
_geom_bond_atom_site_label_1
_geom_bond_atom_site_label_2
_geom_bond_site_symmetry_1
_geom_bond_site_symmetry_2
O1 C2 1_555 1_555
O2 C3 1_555 1_555
N1 C1 1_555 1_555
C1 C2 1_555 1_555
C2 C5 1_555 1_555
C3 O1 1_555 1_555
C4 N1 1_555 1_555
H1 C4 1_555 1_555
H2 C4 1_555 1_555
C5 H3 1_555 1_555
H4 C5 1_555 1_555
C6 C1 1_555 1_555
H5 C6 1_555 1_555
C7 C6 1_555 1_555
C8 C7 1_555 1_555
H6 C8 1_555 1_555
C9 C2 1_555 1_555
H7 C9 1_555 1_555
H8 C9 1_555 1_555
C10 C4 1_555 1_555
H9 C10 1_555 1_555
H10 C10 1_555 1_555
H11 C10 1_555 1_555
C11 C8 1_555 1_555
H12 C11 1_555 1_555
C12 C7 1_555 1_555
H13 C12 1_555 1_555
C13 C11 1_555 1_555
H14 C13 1_555 1_555
C14 C9 1_555 1_555
H15 C14 1_555 1_555
H16 C14 1_555 1_555
C15 C12 1_555 1_555
H17 C15 1_555 1_555
C16 C5 1_555 1_555
H18 C16 1_555 1_555
H19 C16 1_555 1_555
N1 C3 1_555 1_555
C13 C15 1_555 1_555
C14 C16 1_555 1_555

#END
