
#######################################################################
#
#                 Cambridge Crystallographic Data Centre
#                                CCDC 
#
#######################################################################
#
# If this CIF has been generated from an entry in the Cambridge 
# Structural Database, then it will include bibliographic, chemical, 
# crystal, experimental, refinement or atomic coordinate data resulting 
# from the CCDC's data processing and validation procedures.
#
#######################################################################

data_BEPPUI
_chemical_name_common            
N-(4-Methoxycarbonylphenyl)-1,2,9,9a-tetrahydropropa(c)benz(e)indol-4-one
_chemical_formula_moiety         'C21 H17 N1 O3'
_chemical_name_systematic        
'(+-)-Methyl 4-(5-oxo-1a,2-dihydro-1H-benzo[e]cyclopropa[c]indol-3(5H)-yl)benzoate'
_chemical_properties_biological  'L1210 cytotoxic activity'
_symmetry_cell_setting           monoclinic
_symmetry_space_group_name_H-M   'P 21'
_symmetry_Int_Tables_number      4
_space_group_name_Hall           'P 2yb'
loop_
_symmetry_equiv_pos_site_id
_symmetry_equiv_pos_as_xyz
1 x,y,z
2 -x,1/2+y,-z
_cell_length_a                   8.0665(8)
_cell_length_b                   7.3516(7)
_cell_length_c                   13.3380(13)
_cell_angle_alpha                90
_cell_angle_beta                 102.183(7)
_cell_angle_gamma                90
_cell_volume                     773.152
_exptl_crystal_colour            colorless
_exptl_crystal_description       Plate
_chemical_melting_point          '191-193 deg.C'
_cell_formula_units_Z            2
_exptl_crystal_recrystallization_method 'methanol/ethyl acetate'
loop_
_atom_site_label
_atom_site_type_symbol
_atom_site_fract_x
_atom_site_fract_y
_atom_site_fract_z
O1 O 0.74502(18) 0.2779(6) 1.10049(10)
C1 C 0.1440(3) 0.2898(7) 1.05957(14)
H1 H 0.0348 0.2916 1.0156
C2 C 0.1588(3) 0.2888(7) 1.16503(15)
H2 H 0.0597 0.2890 1.1928
C3 C 0.3169(3) 0.2875(7) 1.22999(15)
H3 H 0.3264 0.2874 1.3022
C4 C 0.4613(3) 0.2864(6) 1.18930(14)
H4 H 0.5702 0.2846 1.2337
C5 C 0.4474(2) 0.2880(6) 1.08317(13)
C6 C 0.2880(3) 0.2883(6) 1.01779(13)
C7 C 0.5881(3) 0.3008(9) 0.93251(16)
H5 H 0.6871 0.3092 0.9048
C8 C 0.6049(3) 0.2850(7) 1.04215(14)
C9 C 0.2775(2) 0.2875(6) 0.90606(14)
C10 C 0.4350(3) 0.3037(8) 0.86931(15)
C11 C 0.1547(10) 0.1538(8) 0.8390(6)
H6 H 0.1979 0.0827 0.7869
H7 H 0.0719 0.0889 0.8713
C12 C 0.1319(7) 0.3521(10) 0.8224(5)
H8 H 0.0326 0.4157 0.8405
C13 C 0.2106(5) 0.4239(7) 0.7370(3)
H9 H 0.1533 0.3725 0.6700
H10 H 0.2033 0.5582 0.7333
N1 N 0.3886(4) 0.3640(7) 0.7645(2)
C14 C 0.4947(6) 0.3702(7) 0.6951(3)
C15 C 0.4433(6) 0.4695(7) 0.6042(3)
H11 H 0.3386 0.5333 0.5922
C16 C 0.5426(6) 0.4759(7) 0.5317(3)
H12 H 0.5056 0.5428 0.4701
C17 C 0.6965(6) 0.3844(7) 0.5489(3)
C18 C 0.7467(13) 0.283(3) 0.6383(6)
H13 H 0.8510 0.2182 0.6491
C19 C 0.6485(8) 0.2729(19) 0.7117(6)
H14 H 0.6842 0.2020 0.7719
C20 C 0.7999(6) 0.3986(6) 0.4695(3)
C21 C 1.0540(12) 0.3114(17) 0.4237(8)
H15 H 1.1669 0.2711 0.4592
H16 H 1.0604 0.4370 0.4001
H17 H 1.0127 0.2323 0.3645
O2 O 0.7640(5) 0.4870(6) 0.3923(3)
O3 O 0.9394(9) 0.3024(18) 0.4927(6)
C22? C 0.2775(2) 0.2875(6) 0.90606(14)
C23? C 0.4350(3) 0.3037(8) 0.86931(15)
C24? C 0.1534(19) 0.424(2) 0.8413(11)
H18? H 0.0694 0.4845 0.8744
H19? H 0.1960 0.4989 0.7906
C25? C 0.1347(16) 0.228(3) 0.8221(11)
H20? H 0.0362 0.1631 0.8402
C26? C 0.2131(12) 0.1529(16) 0.7365(7)
H21? H 0.2049 0.0186 0.7331
H22? H 0.1581 0.2047 0.6692
N2? N 0.3896(10) 0.2126(16) 0.7675(6)
C27? C 0.4943(11) 0.2025(15) 0.6948(6)
C28? C 0.4442(14) 0.1024(16) 0.6041(7)
H23? H 0.3391 0.0393 0.5909
C29? C 0.5467(12) 0.0954(15) 0.5347(8)
H24? H 0.5110 0.0257 0.4740
C30? C 0.7005(12) 0.1862(14) 0.5493(7)
C31? C 0.752(3) 0.283(6) 0.6407(12)
H25? H 0.8616 0.3361 0.6564
C32? C 0.645(2) 0.303(4) 0.7090(14)
H26? H 0.6737 0.3842 0.7653
C33? C 0.8039(13) 0.1708(15) 0.4704(7)
C34? C 1.048(3) 0.269(5) 0.4144(19)
H27? H 1.1403 0.3574 0.4340
H28? H 0.9762 0.3049 0.3486
H29? H 1.0960 0.1482 0.4078
O4? O 0.7669(13) 0.0783(13) 0.3950(6)
O5? O 0.9469(17) 0.264(4) 0.4927(13)
loop_
_geom_bond_atom_site_label_1
_geom_bond_atom_site_label_2
_geom_bond_site_symmetry_1
_geom_bond_site_symmetry_2
O1 C8 1_555 1_555
C1 H1 1_555 1_555
C2 C1 1_555 1_555
H2 C2 1_555 1_555
C3 C2 1_555 1_555
H3 C3 1_555 1_555
C4 C3 1_555 1_555
H4 C4 1_555 1_555
C5 C4 1_555 1_555
C6 C1 1_555 1_555
C7 H5 1_555 1_555
C8 C5 1_555 1_555
C9 C6 1_555 1_555
C10 C7 1_555 1_555
C11 C9 1_555 1_555
H6 C11 1_555 1_555
H7 C11 1_555 1_555
C12 C9 1_555 1_555
H8 C12 1_555 1_555
C13 C12 1_555 1_555
H9 C13 1_555 1_555
H10 C13 1_555 1_555
N1 C10 1_555 1_555
C14 N1 1_555 1_555
C15 C14 1_555 1_555
H11 C15 1_555 1_555
C16 C15 1_555 1_555
H12 C16 1_555 1_555
C17 C16 1_555 1_555
C18 C17 1_555 1_555
H13 C18 1_555 1_555
C19 C14 1_555 1_555
H14 C19 1_555 1_555
C20 C17 1_555 1_555
C21 H15 1_555 1_555
H16 C21 1_555 1_555
H17 C21 1_555 1_555
O2 C20 1_555 1_555
O3 C20 1_555 1_555
C5 C6 1_555 1_555
C7 C8 1_555 1_555
C9 C10 1_555 1_555
C11 C12 1_555 1_555
C13 N1 1_555 1_555
C18 C19 1_555 1_555
C21 O3 1_555 1_555

#END
