
#######################################################################
#
#                 Cambridge Crystallographic Data Centre
#                                CCDC 
#
#######################################################################
#
# If this CIF has been generated from an entry in the Cambridge 
# Structural Database, then it will include bibliographic, chemical, 
# crystal, experimental, refinement or atomic coordinate data resulting 
# from the CCDC's data processing and validation procedures.
#
#######################################################################

data_BEPPIW
_chemical_name_common            
N-(4-Fluorophenyl)-1,2,9,9a-tetrahydropropa(c)benz(e)indol-4-one
_chemical_formula_moiety         'C19 H14 F1 N1 O1'
_chemical_name_systematic        
(+-)-3-(4-Fluorophenyl)-5-oxo-1,1a,2,5-tetrahydro-benzo[e]cyclopropa[c]indole
_chemical_properties_biological  'L1210 cytotoxic activity'
_symmetry_cell_setting           monoclinic
_symmetry_space_group_name_H-M   'P 21/c'
_symmetry_Int_Tables_number      14
_space_group_name_Hall           '-P 2ybc'
loop_
_symmetry_equiv_pos_site_id
_symmetry_equiv_pos_as_xyz
1 x,y,z
2 -x,1/2+y,1/2-z
3 -x,-y,-z
4 x,1/2-y,1/2+z
_cell_length_a                   8.4072(11)
_cell_length_b                   7.6108(10)
_cell_length_c                   21.767(3)
_cell_angle_alpha                90
_cell_angle_beta                 96.373(2)
_cell_angle_gamma                90
_cell_volume                     1384.17
_exptl_crystal_colour            'dull-yellow or yellow'
_exptl_crystal_description       Needle
_chemical_melting_point          '154-156 deg.C'
_cell_formula_units_Z            4
_exptl_crystal_recrystallization_method dichloromethane/hexanes
loop_
_atom_site_label
_atom_site_type_symbol
_atom_site_fract_x
_atom_site_fract_y
_atom_site_fract_z
F1 F 0.43033(19) 0.6667(3) -0.27324(7)
O1 O 0.16328(17) 0.8243(2) 0.07660(7)
N1 N -0.0708(2) 0.7289(2) -0.13202(7)
C1 C -0.4039(3) 0.7961(3) 0.03095(10)
H1 H -0.4932 0.7764 0.0026
C2 C -0.4242(3) 0.8429(3) 0.09067(11)
H2 H -0.5266 0.8543 0.1025
C3 C -0.2927(3) 0.8727(3) 0.13288(10)
H3 H -0.3064 0.9045 0.1732
C4 C -0.1413(3) 0.8557(3) 0.11564(9)
H4 H -0.0530 0.8767 0.1444
C5 C -0.1181(2) 0.8073(2) 0.05527(9)
C6 C -0.2519(2) 0.7781(3) 0.01250(9)
C7 C -0.2248(2) 0.7231(3) -0.05040(9)
C8 C -0.0619(2) 0.7352(3) -0.06819(9)
C9 C 0.0680(2) 0.7592(3) -0.02605(9)
H5 H 0.1704 0.7527 -0.0383
C10 C 0.0475(2) 0.7946(3) 0.03776(9)
C11 C -0.3228(3) 0.5709(3) -0.08150(10)
H6 H -0.2658 0.4816 -0.1021
H7 H -0.4127 0.5278 -0.0616
C12 C -0.3366(3) 0.7470(3) -0.10973(9)
H8 H -0.4359 0.8141 -0.1089
C13 C -0.2317(3) 0.7810(3) -0.15987(9)
H9 H -0.2652 0.7109 -0.1962
H10 H -0.2340 0.9042 -0.1714
C14 C 0.0579(3) 0.7134(3) -0.16796(9)
C15 C 0.0530(3) 0.8005(3) -0.22427(9)
H11 H -0.0348 0.8701 -0.2379
C16 C 0.1771(4) 0.7843(4) -0.25984(11)
H12 H 0.1741 0.8421 -0.2976
C17 C 0.3053(3) 0.6815(4) -0.23887(11)
C18 C 0.3124(3) 0.5892(3) -0.18464(10)
H13 H 0.3995 0.5174 -0.1721
C19 C 0.1870(3) 0.6054(3) -0.14891(9)
H14 H 0.1891 0.5435 -0.1120
loop_
_geom_bond_atom_site_label_1
_geom_bond_atom_site_label_2
_geom_bond_site_symmetry_1
_geom_bond_site_symmetry_2
F1 C17 1_555 1_555
O1 C10 1_555 1_555
N1 C8 1_555 1_555
C1 H1 1_555 1_555
C2 C1 1_555 1_555
H2 C2 1_555 1_555
C3 C2 1_555 1_555
H3 C3 1_555 1_555
C4 C3 1_555 1_555
H4 C4 1_555 1_555
C5 C4 1_555 1_555
C6 C1 1_555 1_555
C7 C6 1_555 1_555
C8 C7 1_555 1_555
C9 C8 1_555 1_555
H5 C9 1_555 1_555
C10 C5 1_555 1_555
C11 C7 1_555 1_555
H6 C11 1_555 1_555
H7 C11 1_555 1_555
C12 C7 1_555 1_555
H8 C12 1_555 1_555
C13 N1 1_555 1_555
H9 C13 1_555 1_555
H10 C13 1_555 1_555
C14 N1 1_555 1_555
C15 C14 1_555 1_555
H11 C15 1_555 1_555
C16 C15 1_555 1_555
H12 C16 1_555 1_555
C17 C16 1_555 1_555
C18 C17 1_555 1_555
H13 C18 1_555 1_555
C19 C14 1_555 1_555
H14 C19 1_555 1_555
C5 C6 1_555 1_555
C9 C10 1_555 1_555
C11 C12 1_555 1_555
C12 C13 1_555 1_555
C18 C19 1_555 1_555

#END
