
#######################################################################
#
#                 Cambridge Crystallographic Data Centre
#                                CCDC 
#
#######################################################################
#
# If this CIF has been generated from an entry in the Cambridge 
# Structural Database, then it will include bibliographic, chemical, 
# crystal, experimental, refinement or atomic coordinate data resulting 
# from the CCDC's data processing and validation procedures.
#
#######################################################################

data_BEPQAR
_chemical_formula_moiety         'C35 H28 N4'
_chemical_name_systematic        
4-methyl-N-(4-methylphenyl)-N-[4-([1^4^,2^2^:2^6^,3^4^-terpyridin]-2^4^-yl)phenyl]aniline
_symmetry_cell_setting           triclinic
_symmetry_space_group_name_H-M   'P -1'
_symmetry_Int_Tables_number      2
_space_group_name_Hall           '-P 1'
loop_
_symmetry_equiv_pos_site_id
_symmetry_equiv_pos_as_xyz
1 x,y,z
2 -x,-y,-z
_cell_length_a                   10.396(3)
_cell_length_b                   10.717(3)
_cell_length_c                   13.424(4)
_cell_angle_alpha                76.778(4)
_cell_angle_beta                 87.364(4)
_cell_angle_gamma                66.181(3)
_cell_volume                     1330.15
_exptl_crystal_colour            colorless
_exptl_crystal_description       block
_cell_formula_units_Z            2
loop_
_atom_site_label
_atom_site_type_symbol
_atom_site_fract_x
_atom_site_fract_y
_atom_site_fract_z
N1 N 0.63770(15) 1.42459(14) 0.41403(10)
N2 N 1.11760(17) 0.69908(14) 0.86837(11)
N3 N 0.33897(19) 1.31588(19) 0.19257(12)
N4 N 0.70930(19) 1.83905(16) 0.46927(14)
C1 C 0.72222(18) 1.17651(18) 0.47926(13)
H1 H 0.7222 1.0915 0.4740
C2 C 0.63844(18) 1.29998(17) 0.41089(12)
C3 C 1.19357(19) 0.72236(17) 0.94374(13)
C4 C 0.80579(18) 1.18019(18) 0.55528(13)
C5 C 0.80451(19) 1.30996(18) 0.55705(14)
H2 H 0.8592 1.3171 0.6066
C6 C 0.72172(18) 1.42871(17) 0.48498(13)
C7 C 1.13847(18) 0.56079(17) 0.86620(13)
C8 C 1.04140(19) 0.81558(17) 0.78920(13)
C9 C 0.53901(18) 1.30336(18) 0.33348(12)
C10 C 0.88946(18) 1.05249(17) 0.63401(13)
C11 C 1.09011(19) 0.91949(18) 0.75360(14)
H3 H 1.1747 0.9106 0.7811
C12 C 0.71847(19) 1.56951(17) 0.48229(13)
C13 C 1.01550(19) 1.03586(18) 0.67809(14)
H4 H 1.0501 1.1047 0.6562
C14 C 0.4362(2) 1.42993(19) 0.28128(14)
H5 H 0.4322 1.5141 0.2920
C15 C 0.8413(2) 0.94742(18) 0.66971(14)
H6 H 0.7575 0.9556 0.6413
C16 C 0.5392(2) 1.18398(19) 0.31074(14)
H7 H 0.6063 1.0963 0.3423
C17 C 1.33900(19) 0.66998(18) 0.94857(14)
H8 H 1.3900 0.6141 0.9046
C18 C 0.8202(2) 1.58973(19) 0.53067(14)
H9 H 0.8941 1.5133 0.5693
C19 C 1.1915(2) 0.28174(19) 0.86500(16)
C20 C 0.9146(2) 0.83121(18) 0.74624(14)
H10 H 0.8793 0.7632 0.7692
C21 C 1.1317(2) 0.5222(2) 0.77546(14)
H11 H 1.1106 0.5890 0.7138
C22 C 1.1974(2) 0.32120(19) 0.95476(15)
H12 H 1.2203 0.2538 1.0162
C23 C 1.3371(2) 0.7823(2) 1.08487(15)
C24 C 1.1705(2) 0.45784(19) 0.95637(14)
H13 H 1.1738 0.4811 1.0186
C25 C 1.4084(2) 0.7002(2) 1.01808(16)
H14 H 1.5063 0.6643 1.0202
C26 C 0.3408(2) 1.4302(2) 0.21390(15)
H15 H 0.2726 1.5164 0.1809
C27 C 0.6111(2) 1.68944(18) 0.42734(15)
H16 H 0.5396 1.6824 0.3928
C28 C 1.1561(2) 0.3859(2) 0.77582(15)
H17 H 1.1486 0.3632 0.7141
C29 C 1.1207(2) 0.8036(2) 1.01034(15)
H18 H 1.0229 0.8388 1.0086
C30 C 0.6108(2) 1.8173(2) 0.42420(17)
H19 H 0.5362 1.8957 0.3879
C31 C 1.1919(2) 0.8330(2) 1.07976(15)
H20 H 1.1410 0.8883 1.1241
C32 C 0.4398(2) 1.1953(2) 0.24123(16)
H21 H 0.4431 1.1131 0.2271
C33 C 0.8121(2) 1.7235(2) 0.52180(17)
H22 H 0.8830 1.7336 0.5546
C34 C 1.2258(3) 0.1314(2) 0.8627(2)
H23 H 1.1409 0.1220 0.8482
H24 H 1.2674 0.0715 0.9280
H25 H 1.2907 0.1052 0.8104
C35 C 1.4145(3) 0.8174(3) 1.15925(19)
H26 H 1.5063 0.7431 1.1769
H27 H 1.3627 0.8283 1.2200
H28 H 1.4238 0.9032 1.1281
loop_
_geom_bond_atom_site_label_1
_geom_bond_atom_site_label_2
_geom_bond_site_symmetry_1
_geom_bond_site_symmetry_2
N1 C2 1_555 1_555
N2 C3 1_555 1_555
N3 C26 1_555 1_555
N4 C30 1_555 1_555
C1 H1 1_555 1_555
C2 C1 1_555 1_555
C3 C17 1_555 1_555
C4 C1 1_555 1_555
C5 C4 1_555 1_555
H2 C5 1_555 1_555
C6 N1 1_555 1_555
C7 N2 1_555 1_555
C8 N2 1_555 1_555
C9 C2 1_555 1_555
C10 C4 1_555 1_555
C11 C8 1_555 1_555
H3 C11 1_555 1_555
C12 C6 1_555 1_555
C13 C10 1_555 1_555
H4 C13 1_555 1_555
C14 C9 1_555 1_555
H5 C14 1_555 1_555
C15 C10 1_555 1_555
H6 C15 1_555 1_555
C16 C9 1_555 1_555
H7 C16 1_555 1_555
C17 H8 1_555 1_555
C18 C12 1_555 1_555
H9 C18 1_555 1_555
C19 C22 1_555 1_555
C20 C8 1_555 1_555
H10 C20 1_555 1_555
C21 C7 1_555 1_555
H11 C21 1_555 1_555
C22 H12 1_555 1_555
C23 C25 1_555 1_555
C24 C7 1_555 1_555
H13 C24 1_555 1_555
C25 C17 1_555 1_555
H14 C25 1_555 1_555
C26 C14 1_555 1_555
H15 C26 1_555 1_555
C27 C12 1_555 1_555
H16 C27 1_555 1_555
C28 C19 1_555 1_555
H17 C28 1_555 1_555
C29 C3 1_555 1_555
H18 C29 1_555 1_555
C30 C27 1_555 1_555
H19 C30 1_555 1_555
C31 C23 1_555 1_555
H20 C31 1_555 1_555
C32 N3 1_555 1_555
H21 C32 1_555 1_555
C33 N4 1_555 1_555
H22 C33 1_555 1_555
C34 C19 1_555 1_555
H23 C34 1_555 1_555
H24 C34 1_555 1_555
H25 C34 1_555 1_555
C35 C23 1_555 1_555
H26 C35 1_555 1_555
H27 C35 1_555 1_555
H28 C35 1_555 1_555
C5 C6 1_555 1_555
C11 C13 1_555 1_555
C15 C20 1_555 1_555
C16 C32 1_555 1_555
C18 C33 1_555 1_555
C21 C28 1_555 1_555
C22 C24 1_555 1_555
C29 C31 1_555 1_555

#END
