
#######################################################################
#
#                 Cambridge Crystallographic Data Centre
#                                CCDC 
#
#######################################################################
#
# If this CIF has been generated from an entry in the Cambridge 
# Structural Database, then it will include bibliographic, chemical, 
# crystal, experimental, refinement or atomic coordinate data resulting 
# from the CCDC's data processing and validation procedures.
#
#######################################################################

data_BEPSOG
_chemical_formula_moiety         'C50 H38 N8 O4,2(C8 H20 N1 1+),2(Cl1 1-)'
_chemical_name_systematic        
"bis(tetraethylammonium) dichloride 1,1'-(1,2-Phenylenebis(carbamoylimino-2,1-phenylene))bis(3-(1-anthryl)urea) unknown solvate"
_symmetry_cell_setting           triclinic
_symmetry_space_group_name_H-M   'P -1'
_symmetry_Int_Tables_number      2
_space_group_name_Hall           '-P 1'
loop_
_symmetry_equiv_pos_site_id
_symmetry_equiv_pos_as_xyz
1 x,y,z
2 -x,-y,-z
_cell_length_a                   13.718(3)
_cell_length_b                   13.831(3)
_cell_length_c                   19.066(5)
_cell_angle_alpha                90.835(3)
_cell_angle_beta                 100.181(3)
_cell_angle_gamma                116.673(3)
_cell_volume                     3163.41
_exptl_crystal_colour            yellow
_exptl_crystal_description       block
_cell_formula_units_Z            2
loop_
_atom_site_label
_atom_site_type_symbol
_atom_site_fract_x
_atom_site_fract_y
_atom_site_fract_z
Cl1 Cl 0.59406(9) 0.63791(8) 0.75249(5)
Cl2 Cl 0.46319(9) 0.83075(9) 0.81156(5)
O1 O 0.2346(2) 0.4965(2) 0.56834(14)
O2 O 0.7296(2) 0.9663(2) 0.64381(14)
O3 O 0.7564(3) 0.8793(3) 0.98904(15)
O4 O 0.2216(3) 0.4922(4) 0.9159(2)
N1 N 0.3403(3) 0.4810(3) 0.67002(17)
H1 H 0.3973 0.5158 0.7041
N2 N 0.3972(3) 0.6438(3) 0.62382(15)
H2 H 0.4417 0.6689 0.6649
N3 N 0.5527(3) 0.8585(3) 0.66052(15)
H3 H 0.5130 0.8365 0.6927
N4 N 0.6949(3) 0.9388(3) 0.75714(15)
H4 H 0.6423 0.9169 0.7808
N5 N 0.7407(3) 0.8394(3) 0.87041(16)
H5 H 0.7051 0.7897 0.8348
N6 N 0.6192(3) 0.7164(3) 0.93080(16)
H6 H 0.5914 0.6768 0.8902
N7 N 0.3923(3) 0.6327(3) 0.91415(19)
H7 H 0.4270 0.6832 0.8889
N8 N 0.2473(3) 0.5917(3) 0.82034(19)
H8 H 0.2929 0.6518 0.8072
C1 C 0.1610(4) 0.3218(4) 0.6569(2)
H9 H 0.1253 0.3648 0.6462
C2 C 0.0976(4) 0.2090(4) 0.6581(3)
H10 H 0.0203 0.1781 0.6475
C3 C 0.1470(5) 0.1454(4) 0.6744(3)
H11 H 0.1031 0.0712 0.6750
C4 C 0.2649(4) 0.1892(3) 0.6907(2)
C5 C 0.3180(5) 0.1242(4) 0.7073(3)
H12 H 0.2745 0.0499 0.7079
C6 C 0.4335(5) 0.1665(4) 0.7231(2)
C7 C 0.4907(7) 0.1024(5) 0.7407(3)
H13 H 0.4494 0.0275 0.7404
C8 C 0.6009(7) 0.1472(6) 0.7573(3)
H14 H 0.6357 0.1034 0.7682
C9 C 0.6659(5) 0.2602(6) 0.7586(3)
H15 H 0.7431 0.2908 0.7716
C10 C 0.6169(4) 0.3243(5) 0.7411(2)
H16 H 0.6610 0.3987 0.7414
C11 C 0.4994(4) 0.2806(3) 0.72242(19)
C12 C 0.4470(4) 0.3449(3) 0.70478(19)
H17 H 0.4904 0.4190 0.7032
C13 C 0.3315(4) 0.3023(3) 0.68936(18)
C14 C 0.2745(3) 0.3683(3) 0.67146(19)
C15 C 0.3170(3) 0.5375(3) 0.61653(19)
C16 C 0.4141(3) 0.7163(3) 0.57011(19)
C17 C 0.3539(4) 0.6834(4) 0.5000(2)
H18 H 0.2943 0.6139 0.4884
C18 C 0.3818(4) 0.7528(4) 0.4476(2)
H19 H 0.3416 0.7295 0.4008
C19 C 0.4682(4) 0.8557(4) 0.4641(2)
H20 H 0.4884 0.9010 0.4281
C20 C 0.5257(4) 0.8926(4) 0.5345(2)
H21 H 0.5830 0.9633 0.5461
C21 C 0.4967(3) 0.8224(3) 0.58805(18)
C22 C 0.6639(3) 0.9251(3) 0.68380(19)
C23 C 0.8045(3) 0.9854(3) 0.79697(19)
C24 C 0.8903(4) 1.0791(4) 0.7795(2)
H22 H 0.8764 1.1108 0.7388
C25 C 0.9944(5) 1.1242(4) 0.8222(3)
H23 H 1.0511 1.1865 0.8103
C26 C 1.0160(4) 1.0774(5) 0.8833(3)
H24 H 1.0867 1.1091 0.9126
C27 C 0.9319(4) 0.9833(4) 0.9002(2)
H25 H 0.9466 0.9511 0.9405
C28 C 0.8268(4) 0.9377(3) 0.8575(2)
C29 C 0.7087(4) 0.8157(4) 0.9344(2)
C30 C 0.5693(4) 0.6741(4) 0.9893(2)
C31 C 0.6331(5) 0.6742(5) 1.0545(2)
H26 H 0.7102 0.7052 1.0602
C32 C 0.5837(6) 0.6290(5) 1.1108(2)
H27 H 0.6267 0.6282 1.1541
C33 C 0.4683(6) 0.5845(5) 1.1018(3)
H28 H 0.4348 0.5559 1.1400
C34 C 0.4039(5) 0.5820(4) 1.0384(2)
H29 H 0.3268 0.5502 1.0328
C35 C 0.4554(4) 0.6287(4) 0.9802(2)
C36 C 0.2826(4) 0.5655(4) 0.8860(2)
C37 C 0.1459(4) 0.5320(4) 0.7725(2)
C38 C 0.0671(4) 0.4313(4) 0.7837(3)
H30 H 0.0790 0.4023 0.8261
C39 C -0.0315(4) 0.3714(4) 0.7318(3)
C40 C -0.0523(4) 0.4114(4) 0.6687(3)
H31 H -0.1176 0.3705 0.6351
C41 C 0.0257(3) 0.5153(4) 0.6546(2)
C42 C 0.0081(4) 0.5570(4) 0.5904(3)
H32 H -0.0552 0.5145 0.5558
C43 C 0.0818(4) 0.6601(4) 0.5760(2)
C44 C 0.0657(4) 0.7048(5) 0.5105(2)
H33 H 0.0039 0.6634 0.4746
C45 C 0.1375(5) 0.8048(5) 0.4997(3)
H34 H 0.1248 0.8319 0.4566
C46 C 0.2328(4) 0.8702(4) 0.5533(3)
H35 H 0.2820 0.9400 0.5454
C47 C 0.2522(4) 0.8305(4) 0.6161(2)
H36 H 0.3156 0.8737 0.6506
C48 C 0.1777(3) 0.7243(3) 0.6309(2)
C49 C 0.1974(3) 0.6827(4) 0.6939(2)
H37 H 0.2613 0.7251 0.7283
C50 C 0.1244(3) 0.5786(3) 0.7081(2)
N9 N 0.2043(3) 0.2601(3) 0.41261(18)
C51 C 0.1912(4) 0.3630(4) 0.4126(3)
H38 H 0.1124 0.3429 0.3993
H39 H 0.2181 0.3994 0.4610
C52 C 0.2509(5) 0.4419(4) 0.3632(3)
H40 H 0.3299 0.4735 0.3813
H41 H 0.2282 0.4982 0.3603
H42 H 0.2330 0.4043 0.3163
C53 C 0.3866(5) 0.3491(6) 0.5038(3)
H43 H 0.3867 0.4186 0.5045
H44 H 0.4620 0.3597 0.5124
H45 H 0.3503 0.3098 0.5403
C54 C 0.3250(4) 0.2853(4) 0.4315(2)
H46 H 0.3623 0.3260 0.3951
H47 H 0.3296 0.2173 0.4305
C55 C 0.1491(7) 0.0895(6) 0.4787(4)
H48 H 0.1205 0.0436 0.4341
H49 H 0.1057 0.0528 0.5132
H50 H 0.2254 0.1054 0.4960
C56 C 0.1422(5) 0.1947(5) 0.4673(3)
H51 H 0.0643 0.1776 0.4526
H52 H 0.1710 0.2399 0.5128
C57 C 0.0399(5) 0.1718(5) 0.3037(4)
H53 H -0.0050 0.1543 0.3394
H54 H 0.0099 0.1110 0.2676
H55 H 0.0399 0.2341 0.2820
C58 C 0.1584(4) 0.1974(4) 0.3384(2)
H56 H 0.2070 0.2387 0.3070
H57 H 0.1622 0.1292 0.3414
N10? N 0.3650(8) 0.9363(8) 0.9851(5)
C59? C 0.4359(11) 1.0607(10) 0.9815(10)
C60? C 0.4880(11) 1.0933(9) 0.9255(5)
C61? C 0.4411(12) 0.8747(11) 1.0026(8)
C62? C 0.2808(12) 0.8925(12) 0.9100(6)
C63? C 0.1847(19) 0.916(3) 0.8954(11)
C64? C 0.3014(11) 0.9304(10) 1.0452(7)
C65? C 0.2103(13) 0.7987(12) 1.0625(6)
loop_
_geom_bond_atom_site_label_1
_geom_bond_atom_site_label_2
_geom_bond_site_symmetry_1
_geom_bond_site_symmetry_2
O1 C15 1_555 1_555
O2 C22 1_555 1_555
O3 C29 1_555 1_555
O4 C36 1_555 1_555
N1 H1 1_555 1_555
N2 H2 1_555 1_555
N3 H3 1_555 1_555
N4 H4 1_555 1_555
N5 H5 1_555 1_555
N6 H6 1_555 1_555
N7 H7 1_555 1_555
N8 H8 1_555 1_555
C1 H9 1_555 1_555
C2 C1 1_555 1_555
H10 C2 1_555 1_555
C3 C2 1_555 1_555
H11 C3 1_555 1_555
C4 C3 1_555 1_555
C5 C4 1_555 1_555
H12 C5 1_555 1_555
C6 C5 1_555 1_555
C7 C6 1_555 1_555
H13 C7 1_555 1_555
C8 C7 1_555 1_555
H14 C8 1_555 1_555
C9 C8 1_555 1_555
H15 C9 1_555 1_555
C10 C9 1_555 1_555
H16 C10 1_555 1_555
C11 C6 1_555 1_555
C12 C11 1_555 1_555
H17 C12 1_555 1_555
C13 C4 1_555 1_555
C14 N1 1_555 1_555
C15 N1 1_555 1_555
C16 N2 1_555 1_555
C17 C16 1_555 1_555
H18 C17 1_555 1_555
C18 C17 1_555 1_555
H19 C18 1_555 1_555
C19 C18 1_555 1_555
H20 C19 1_555 1_555
C20 C19 1_555 1_555
H21 C20 1_555 1_555
C21 N3 1_555 1_555
C22 N3 1_555 1_555
C23 N4 1_555 1_555
C24 C23 1_555 1_555
H22 C24 1_555 1_555
C25 C24 1_555 1_555
H23 C25 1_555 1_555
C26 C25 1_555 1_555
H24 C26 1_555 1_555
C27 C26 1_555 1_555
H25 C27 1_555 1_555
C28 N5 1_555 1_555
C29 N5 1_555 1_555
C30 N6 1_555 1_555
C31 C30 1_555 1_555
H26 C31 1_555 1_555
C32 C31 1_555 1_555
H27 C32 1_555 1_555
C33 C32 1_555 1_555
H28 C33 1_555 1_555
C34 C33 1_555 1_555
H29 C34 1_555 1_555
C35 N7 1_555 1_555
C36 N7 1_555 1_555
C37 N8 1_555 1_555
C38 C37 1_555 1_555
H30 C38 1_555 1_555
C39 C38 1_555 1_555
C40 C39 1_555 1_555
H31 C40 1_555 1_555
C41 C40 1_555 1_555
C42 C41 1_555 1_555
H32 C42 1_555 1_555
C43 C42 1_555 1_555
C44 C43 1_555 1_555
H33 C44 1_555 1_555
C45 C44 1_555 1_555
H34 C45 1_555 1_555
C46 C45 1_555 1_555
H35 C46 1_555 1_555
C47 C46 1_555 1_555
H36 C47 1_555 1_555
C48 C43 1_555 1_555
C49 C48 1_555 1_555
H37 C49 1_555 1_555
C50 C37 1_555 1_555
N9 C51 1_555 1_555
C51 H38 1_555 1_555
H39 C51 1_555 1_555
C52 C51 1_555 1_555
H40 C52 1_555 1_555
H41 C52 1_555 1_555
H42 C52 1_555 1_555
C53 H43 1_555 1_555
H44 C53 1_555 1_555
H45 C53 1_555 1_555
C54 N9 1_555 1_555
H46 C54 1_555 1_555
H47 C54 1_555 1_555
C55 H48 1_555 1_555
H49 C55 1_555 1_555
H50 C55 1_555 1_555
C56 N9 1_555 1_555
H51 C56 1_555 1_555
H52 C56 1_555 1_555
C57 H53 1_555 1_555
H54 C57 1_555 1_555
H55 C57 1_555 1_555
C58 N9 1_555 1_555
H56 C58 1_555 1_555
H57 C58 1_555 1_555
N2 C15 1_555 1_555
N4 C22 1_555 1_555
N6 C29 1_555 1_555
N8 C36 1_555 1_555
C1 C14 1_555 1_555
C10 C11 1_555 1_555
C12 C13 1_555 1_555
C13 C14 1_555 1_555
C16 C21 1_555 1_555
C20 C21 1_555 1_555
C23 C28 1_555 1_555
C27 C28 1_555 1_555
C30 C35 1_555 1_555
C34 C35 1_555 1_555
C41 C50 1_555 1_555
C47 C48 1_555 1_555
C49 C50 1_555 1_555
C53 C54 1_555 1_555
C55 C56 1_555 1_555
C57 C58 1_555 1_555

#END
