
#######################################################################
#
#                 Cambridge Crystallographic Data Centre
#                                CCDC 
#
#######################################################################
#
# If this CIF has been generated from an entry in the Cambridge 
# Structural Database, then it will include bibliographic, chemical, 
# crystal, experimental, refinement or atomic coordinate data resulting 
# from the CCDC's data processing and validation procedures.
#
#######################################################################

data_BEPXEC
_chemical_formula_moiety         'C32 H46 N4 O2 S1'
_chemical_name_systematic        
'methyl 3-[(1-phenyl-1H-tetrazol-5-yl)sulfanyl]cholan-24-oate'
_symmetry_cell_setting           triclinic
_symmetry_space_group_name_H-M   'P 1'
_symmetry_Int_Tables_number      1
_space_group_name_Hall           'P 1'
loop_
_symmetry_equiv_pos_site_id
_symmetry_equiv_pos_as_xyz
1 x,y,z
_cell_length_a                   7.3783(2)
_cell_length_b                   9.3489(3)
_cell_length_c                   21.4724(7)
_cell_angle_alpha                96.0180(10)
_cell_angle_beta                 94.8770(10)
_cell_angle_gamma                90.6460(10)
_cell_volume                     1467.34
_exptl_crystal_colour            colorless
_exptl_crystal_description       block
_cell_formula_units_Z            2
loop_
_atom_site_label
_atom_site_type_symbol
_atom_site_fract_x
_atom_site_fract_y
_atom_site_fract_z
S1 S 0.25508(8) 0.77130(6) -0.07830(3)
O1 O 0.1635(3) 1.5109(2) 0.45571(9)
O2 O 0.3329(3) 1.4021(2) 0.52810(10)
N1 N 0.0152(3) 0.7640(2) -0.18357(11)
N2 N -0.1611(3) 0.7988(2) -0.19967(12)
N3 N -0.2250(3) 0.8570(3) -0.14884(12)
N4 N -0.0966(3) 0.8620(2) -0.09880(12)
C1 C 0.1831(4) 1.6432(3) 0.49685(14)
H1 H 0.101824 1.715081 0.480263
H2 H 0.309246 1.678685 0.499407
H3 H 0.151360 1.625867 0.538860
C2 C 0.2503(4) 1.3977(3) 0.47692(13)
C3 C 0.2306(4) 1.2685(3) 0.42865(12)
H4 H 0.311550 1.281392 0.395094
H5 H 0.103815 1.261333 0.409238
C4 C 0.2776(4) 1.1287(3) 0.45690(13)
H6 H 0.212819 1.125234 0.495259
H7 H 0.409739 1.129743 0.469696
C5 C 0.2285(4) 0.9910(3) 0.41216(12)
H8 H 0.276954 0.907946 0.433815
C6 C 0.0213(4) 0.9700(3) 0.40192(13)
H9 H -0.029216 1.040078 0.374650
H10 H -0.030961 0.984078 0.442519
H11 H -0.008236 0.872370 0.382055
C7 C 0.3207(3) 0.9898(3) 0.35052(12)
H12 H 0.272633 1.072761 0.328743
C8 C 0.5310(3) 1.0127(3) 0.36301(12)
H13 H 0.563240 1.116550 0.367964
H14 H 0.576210 0.971022 0.401790
C9 C 0.6156(3) 0.9355(3) 0.30524(13)
H15 H 0.698308 1.001295 0.287320
H16 H 0.683896 0.850153 0.316648
C10 C 0.4503(3) 0.8916(3) 0.25891(12)
H17 H 0.409908 0.981173 0.240606
C11 C 0.3014(3) 0.8535(3) 0.30159(12)
C12 C 0.3430(4) 0.7180(3) 0.33425(13)
H18 H 0.450278 0.736223 0.364374
H19 H 0.366951 0.638328 0.302759
H20 H 0.238528 0.692752 0.356482
C13 C 0.1214(3) 0.8319(3) 0.25953(12)
H21 H 0.025195 0.798858 0.284467
H22 H 0.084251 0.924994 0.244888
C14 C 0.1394(4) 0.7213(3) 0.20236(13)
H23 H 0.022526 0.713391 0.175846
H24 H 0.164245 0.625988 0.217103
C15 C 0.2918(3) 0.7610(3) 0.16232(12)
H25 H 0.261519 0.857590 0.148718
C16 C 0.4755(3) 0.7808(3) 0.20344(12)
H26 H 0.509784 0.687192 0.219336
C17 C 0.6267(4) 0.8309(3) 0.16520(12)
H27 H 0.602674 0.930445 0.155461
H28 H 0.744541 0.831899 0.190996
C18 C 0.6406(4) 0.7343(3) 0.10376(13)
H29 H 0.683052 0.638412 0.113499
H30 H 0.731879 0.776292 0.079312
C19 C 0.4572(4) 0.7170(3) 0.06375(13)
H31 H 0.472767 0.644688 0.026936
C20 C 0.3058(4) 0.6586(3) 0.10109(12)
C21 C 0.3469(4) 0.5040(3) 0.11558(14)
H32 H 0.454277 0.504964 0.145795
H33 H 0.370198 0.445044 0.076702
H34 H 0.242287 0.463533 0.133462
C22 C 0.1285(4) 0.6495(3) 0.05711(12)
H35 H 0.144019 0.578671 0.020427
H36 H 0.028996 0.613419 0.079785
C23 C 0.0725(4) 0.7920(3) 0.03354(13)
H37 H 0.041593 0.859286 0.069648
H38 H -0.038269 0.775643 0.004103
C24 C 0.2200(4) 0.8616(3) 0.00031(13)
H39 H 0.187162 0.963743 -0.004059
C25 C 0.4072(4) 0.8603(3) 0.03822(13)
H40 H 0.501945 0.885779 0.011045
H41 H 0.409789 0.936203 0.074118
C26 C 0.0509(4) 0.8037(3) -0.12073(13)
C27 C 0.1233(4) 0.6994(3) -0.23077(13)
C28 C 0.0361(4) 0.6100(3) -0.28062(13)
H42 H -0.090999 0.590792 -0.282402
C29 C 0.1382(4) 0.5497(3) -0.32759(14)
H43 H 0.079979 0.489836 -0.362180
C30 C 0.3231(4) 0.5755(3) -0.32472(14)
H44 H 0.391970 0.532601 -0.356886
C31 C 0.4086(4) 0.6645(3) -0.27458(14)
H45 H 0.536207 0.681638 -0.272468
C32 C 0.3087(4) 0.7285(3) -0.22756(13)
H46 H 0.366468 0.791062 -0.193797
S2 S 0.76765(9) 0.27816(7) 1.07757(3)
O3 O 0.7920(3) -0.5272(2) 0.54413(9)
O4 O 0.6560(4) -0.4141(2) 0.46637(11)
N5 N 0.9867(3) 0.2543(2) 1.18497(11)
N6 N 1.1549(3) 0.2052(3) 1.20330(13)
N7 N 1.2225(4) 0.1503(3) 1.15282(12)
N8 N 1.1054(4) 0.1611(3) 1.10072(12)
C33 C 0.7882(5) -0.6574(3) 0.50162(16)
H47 H 0.873556 -0.725884 0.518676
H48 H 0.823318 -0.635034 0.460660
H49 H 0.665002 -0.699713 0.496606
C34 C 0.7138(4) -0.4131(3) 0.52051(13)
C35 C 0.7048(4) -0.2881(3) 0.57031(13)
H50 H 0.814617 -0.287026 0.600252
H51 H 0.597447 -0.301658 0.593930
C36 C 0.6920(4) -0.1434(3) 0.54342(13)
H52 H 0.613288 -0.155868 0.503452
H53 H 0.814866 -0.114338 0.533524
C37 C 0.6165(4) -0.0209(3) 0.58696(12)
H54 H 0.620754 0.067967 0.564870
C38 C 0.4162(4) -0.0510(3) 0.59545(13)
H55 H 0.407526 -0.125189 0.624160
H56 H 0.351866 -0.084538 0.554619
H57 H 0.360874 0.037425 0.613013
C39 C 0.7367(4) 0.0102(3) 0.64952(13)
H58 H 0.738593 -0.080061 0.670730
C40 C 0.9372(4) 0.0487(3) 0.63949(14)
H59 H 1.012325 -0.038466 0.638858
H60 H 0.943199 0.089914 0.599078
C41 C 1.0071(4) 0.1602(3) 0.69512(15)
H61 H 1.126167 0.132358 0.714599
H62 H 1.019401 0.257231 0.681157
C42 C 0.8600(4) 0.1565(3) 0.74084(13)
H63 H 0.878467 0.065895 0.761313
C43 C 0.6808(4) 0.1333(3) 0.69777(13)
C44 C 0.6296(5) 0.2678(3) 0.66503(15)
H64 H 0.612826 0.348638 0.696812
H65 H 0.516221 0.248530 0.638037
H66 H 0.727086 0.291866 0.639413
C45 C 0.5332(4) 0.0940(3) 0.73944(13)
H67 H 0.560737 -0.000257 0.754775
H68 H 0.414488 0.084434 0.714009
C46 C 0.5190(4) 0.2075(3) 0.79622(14)
H69 H 0.474563 0.298187 0.780955
H70 H 0.428627 0.173583 0.823209
C47 C 0.7019(4) 0.2377(3) 0.83575(13)
H71 H 0.737859 0.144703 0.851966
C48 C 0.8533(4) 0.2772(3) 0.79434(13)
H72 H 0.820296 0.368358 0.775980
C49 C 1.0375(4) 0.2999(3) 0.83300(13)
H73 H 1.127738 0.335923 0.806508
H74 H 1.079874 0.206561 0.846020
C50 C 1.0260(4) 0.4073(3) 0.89160(14)
H75 H 1.145292 0.413542 0.916719
H76 H 0.999444 0.503768 0.878406
C51 C 0.8788(4) 0.3641(3) 0.93266(13)
H77 H 0.871102 0.443889 0.967136
C52 C 0.6895(4) 0.3482(3) 0.89470(13)
C53 C 0.6263(4) 0.4957(3) 0.87638(14)
H78 H 0.639644 0.566586 0.913552
H79 H 0.498319 0.488252 0.859697
H80 H 0.700658 0.526075 0.844234
C54 C 0.5527(4) 0.2978(3) 0.93844(13)
H81 H 0.542108 0.374510 0.973329
H82 H 0.431784 0.284008 0.914614
C55 C 0.6040(4) 0.1581(3) 0.96618(14)
H83 H 0.512521 0.135115 0.995005
H84 H 0.601556 0.078584 0.931795
C56 C 0.7926(4) 0.1684(3) 1.00203(14)
H85 H 0.829259 0.069560 1.011129
C57 C 0.9343(4) 0.2288(3) 0.96350(14)
H86 H 0.962514 0.153087 0.930130
H87 H 1.047357 0.251106 0.991243
C58 C 0.9597(4) 0.2270(3) 1.12176(14)
C59 C 0.8717(4) 0.3150(3) 1.23138(13)
C60 C 0.6879(4) 0.2776(3) 1.22643(14)
H88 H 0.635818 0.214508 1.191799
C61 C 0.5815(4) 0.3343(3) 1.27323(14)
H89 H 0.455385 0.310400 1.270476
C62 C 0.6589(4) 0.4254(3) 1.32384(14)
H90 H 0.585637 0.463388 1.355714
C63 C 0.8426(5) 0.4614(3) 1.32814(14)
H91 H 0.894810 0.523715 1.363004
C64 C 0.9508(4) 0.4067(3) 1.28166(14)
H92 H 1.076587 0.431679 1.284235
loop_
_geom_bond_atom_site_label_1
_geom_bond_atom_site_label_2
_geom_bond_site_symmetry_1
_geom_bond_site_symmetry_2
S1 C24 1_555 1_555
O1 C1 1_555 1_555
O2 C2 1_555 1_555
N1 N2 1_555 1_555
N2 N3 1_555 1_555
N3 N4 1_555 1_555
N4 C26 1_555 1_555
C1 H1 1_555 1_555
H2 C1 1_555 1_555
H3 C1 1_555 1_555
C2 O1 1_555 1_555
C3 C2 1_555 1_555
H4 C3 1_555 1_555
H5 C3 1_555 1_555
C4 C3 1_555 1_555
H6 C4 1_555 1_555
H7 C4 1_555 1_555
C5 C4 1_555 1_555
H8 C5 1_555 1_555
C6 C5 1_555 1_555
H9 C6 1_555 1_555
H10 C6 1_555 1_555
H11 C6 1_555 1_555
C7 C5 1_555 1_555
H12 C7 1_555 1_555
C8 C7 1_555 1_555
H13 C8 1_555 1_555
H14 C8 1_555 1_555
C9 C8 1_555 1_555
H15 C9 1_555 1_555
H16 C9 1_555 1_555
C10 C9 1_555 1_555
H17 C10 1_555 1_555
C11 C7 1_555 1_555
C12 C11 1_555 1_555
H18 C12 1_555 1_555
H19 C12 1_555 1_555
H20 C12 1_555 1_555
C13 C11 1_555 1_555
H21 C13 1_555 1_555
H22 C13 1_555 1_555
C14 C13 1_555 1_555
H23 C14 1_555 1_555
H24 C14 1_555 1_555
C15 C14 1_555 1_555
H25 C15 1_555 1_555
C16 C10 1_555 1_555
H26 C16 1_555 1_555
C17 C16 1_555 1_555
H27 C17 1_555 1_555
H28 C17 1_555 1_555
C18 C17 1_555 1_555
H29 C18 1_555 1_555
H30 C18 1_555 1_555
C19 C18 1_555 1_555
H31 C19 1_555 1_555
C20 C15 1_555 1_555
C21 C20 1_555 1_555
H32 C21 1_555 1_555
H33 C21 1_555 1_555
H34 C21 1_555 1_555
C22 C20 1_555 1_555
H35 C22 1_555 1_555
H36 C22 1_555 1_555
C23 C22 1_555 1_555
H37 C23 1_555 1_555
H38 C23 1_555 1_555
C24 C23 1_555 1_555
H39 C24 1_555 1_555
C25 C19 1_555 1_555
H40 C25 1_555 1_555
H41 C25 1_555 1_555
C26 S1 1_555 1_555
C27 N1 1_555 1_555
C28 C27 1_555 1_555
H42 C28 1_555 1_555
C29 C28 1_555 1_555
H43 C29 1_555 1_555
C30 C29 1_555 1_555
H44 C30 1_555 1_555
C31 C30 1_555 1_555
H45 C31 1_555 1_555
C32 C27 1_555 1_555
H46 C32 1_555 1_555
S2 C56 1_555 1_555
O3 C33 1_555 1_555
O4 C34 1_555 1_555
N5 N6 1_555 1_555
N6 N7 1_555 1_555
N7 N8 1_555 1_555
N8 C58 1_555 1_555
C33 H47 1_555 1_555
H48 C33 1_555 1_555
H49 C33 1_555 1_555
C34 O3 1_555 1_555
C35 C34 1_555 1_555
H50 C35 1_555 1_555
H51 C35 1_555 1_555
C36 C35 1_555 1_555
H52 C36 1_555 1_555
H53 C36 1_555 1_555
C37 C36 1_555 1_555
H54 C37 1_555 1_555
C38 C37 1_555 1_555
H55 C38 1_555 1_555
H56 C38 1_555 1_555
H57 C38 1_555 1_555
C39 C37 1_555 1_555
H58 C39 1_555 1_555
C40 C39 1_555 1_555
H59 C40 1_555 1_555
H60 C40 1_555 1_555
C41 C40 1_555 1_555
H61 C41 1_555 1_555
H62 C41 1_555 1_555
C42 C41 1_555 1_555
H63 C42 1_555 1_555
C43 C39 1_555 1_555
C44 C43 1_555 1_555
H64 C44 1_555 1_555
H65 C44 1_555 1_555
H66 C44 1_555 1_555
C45 C43 1_555 1_555
H67 C45 1_555 1_555
H68 C45 1_555 1_555
C46 C45 1_555 1_555
H69 C46 1_555 1_555
H70 C46 1_555 1_555
C47 C46 1_555 1_555
H71 C47 1_555 1_555
C48 C42 1_555 1_555
H72 C48 1_555 1_555
C49 C48 1_555 1_555
H73 C49 1_555 1_555
H74 C49 1_555 1_555
C50 C49 1_555 1_555
H75 C50 1_555 1_555
H76 C50 1_555 1_555
C51 C50 1_555 1_555
H77 C51 1_555 1_555
C52 C47 1_555 1_555
C53 C52 1_555 1_555
H78 C53 1_555 1_555
H79 C53 1_555 1_555
H80 C53 1_555 1_555
C54 C52 1_555 1_555
H81 C54 1_555 1_555
H82 C54 1_555 1_555
C55 C54 1_555 1_555
H83 C55 1_555 1_555
H84 C55 1_555 1_555
C56 C55 1_555 1_555
H85 C56 1_555 1_555
C57 C51 1_555 1_555
H86 C57 1_555 1_555
H87 C57 1_555 1_555
C58 S2 1_555 1_555
C59 N5 1_555 1_555
C60 C59 1_555 1_555
H88 C60 1_555 1_555
C61 C60 1_555 1_555
H89 C61 1_555 1_555
C62 C61 1_555 1_555
H90 C62 1_555 1_555
C63 C62 1_555 1_555
H91 C63 1_555 1_555
C64 C59 1_555 1_555
H92 C64 1_555 1_555
N1 C26 1_555 1_555
C10 C11 1_555 1_555
C15 C16 1_555 1_555
C19 C20 1_555 1_555
C24 C25 1_555 1_555
C31 C32 1_555 1_555
N5 C58 1_555 1_555
C42 C43 1_555 1_555
C47 C48 1_555 1_555
C51 C52 1_555 1_555
C56 C57 1_555 1_555
C63 C64 1_555 1_555

#END
