
#######################################################################
#
#                 Cambridge Crystallographic Data Centre
#                                CCDC 
#
#######################################################################
#
# If this CIF has been generated from an entry in the Cambridge 
# Structural Database, then it will include bibliographic, chemical, 
# crystal, experimental, refinement or atomic coordinate data resulting 
# from the CCDC's data processing and validation procedures.
#
#######################################################################

data_BEPXAY
_chemical_formula_moiety         'C14 H12 N4 O2 S1'
_chemical_name_systematic        5-(benzylsulfonyl)-1-phenyl-1H-tetrazole
_symmetry_cell_setting           monoclinic
_symmetry_space_group_name_H-M   'P 21/c'
_symmetry_Int_Tables_number      14
_space_group_name_Hall           '-P 2ybc'
loop_
_symmetry_equiv_pos_site_id
_symmetry_equiv_pos_as_xyz
1 x,y,z
2 -x,1/2+y,1/2-z
3 -x,-y,-z
4 x,1/2-y,1/2+z
_cell_length_a                   9.5954(3)
_cell_length_b                   16.1368(6)
_cell_length_c                   9.0205(4)
_cell_angle_alpha                90
_cell_angle_beta                 105.4740(10)
_cell_angle_gamma                90
_cell_volume                     1346.1
_exptl_crystal_colour            colorless
_exptl_crystal_description       block
_cell_formula_units_Z            4
loop_
_atom_site_label
_atom_site_type_symbol
_atom_site_fract_x
_atom_site_fract_y
_atom_site_fract_z
S1 S 0.91551(4) 0.29746(2) 0.71827(4)
O1 O 1.03081(12) 0.24718(7) 0.69447(13)
O2 O 0.79292(11) 0.25901(7) 0.75178(12)
N1 N 0.93760(14) 0.39554(9) 0.48043(15)
N2 N 0.84910(15) 0.43638(9) 0.35940(15)
N3 N 0.71398(14) 0.42319(9) 0.35326(15)
N4 N 0.71205(13) 0.37313(8) 0.47308(14)
C1 C 0.85914(17) 0.51119(10) 0.78614(17)
H1 H 0.920037 0.522256 0.720949
C2 C 0.75406(18) 0.56802(10) 0.79690(18)
H2 H 0.743090 0.617981 0.739232
C3 C 0.66486(17) 0.55200(10) 0.89186(18)
H3 H 0.591376 0.590405 0.897409
C4 C 0.68291(17) 0.48006(10) 0.97853(18)
H4 H 0.623223 0.469822 1.045328
C5 C 0.78779(17) 0.42291(10) 0.96819(17)
H5 H 0.799725 0.373533 1.027599
C6 C 0.87576(16) 0.43797(10) 0.87048(17)
C7 C 0.98842(16) 0.37550(11) 0.85716(18)
H6 H 1.029148 0.349082 0.958551
H7 H 1.068104 0.404307 0.827672
C8 C 0.85049(16) 0.35723(10) 0.54806(17)
C9 C 0.57598(15) 0.34667(10) 0.49811(16)
C10 C 0.51273(16) 0.27481(10) 0.42776(17)
H8 H 0.558357 0.242526 0.366090
C11 C 0.38073(17) 0.25117(10) 0.44981(18)
H9 H 0.334703 0.202177 0.402364
C12 C 0.31545(17) 0.29867(10) 0.54076(18)
H10 H 0.225638 0.281641 0.556345
C13 C 0.38065(17) 0.37070(10) 0.60881(18)
H11 H 0.334806 0.403282 0.669861
C14 C 0.51273(17) 0.39557(10) 0.58830(17)
H12 H 0.558485 0.444817 0.634893
loop_
_geom_bond_atom_site_label_1
_geom_bond_atom_site_label_2
_geom_bond_site_symmetry_1
_geom_bond_site_symmetry_2
S1 O1 1_555 1_555
O2 S1 1_555 1_555
N1 N2 1_555 1_555
N2 N3 1_555 1_555
N3 N4 1_555 1_555
N4 C8 1_555 1_555
C1 H1 1_555 1_555
C2 C1 1_555 1_555
H2 C2 1_555 1_555
C3 C2 1_555 1_555
H3 C3 1_555 1_555
C4 C3 1_555 1_555
H4 C4 1_555 1_555
C5 C4 1_555 1_555
H5 C5 1_555 1_555
C6 C1 1_555 1_555
C7 S1 1_555 1_555
H6 C7 1_555 1_555
H7 C7 1_555 1_555
C8 S1 1_555 1_555
C9 N4 1_555 1_555
C10 C9 1_555 1_555
H8 C10 1_555 1_555
C11 C10 1_555 1_555
H9 C11 1_555 1_555
C12 C11 1_555 1_555
H10 C12 1_555 1_555
C13 C12 1_555 1_555
H11 C13 1_555 1_555
C14 C9 1_555 1_555
H12 C14 1_555 1_555
N1 C8 1_555 1_555
C5 C6 1_555 1_555
C6 C7 1_555 1_555
C13 C14 1_555 1_555

#END
