
#######################################################################
#
#                 Cambridge Crystallographic Data Centre
#                                CCDC 
#
#######################################################################
#
# If this CIF has been generated from an entry in the Cambridge 
# Structural Database, then it will include bibliographic, chemical, 
# crystal, experimental, refinement or atomic coordinate data resulting 
# from the CCDC's data processing and validation procedures.
#
#######################################################################

data_BEPZAZ
_chemical_formula_moiety         'C26 H18 N2 O4'
_chemical_name_systematic        
'Ethyl (3-cyano-4-(1-naphthyl)-5-oxo-4H,5H-pyrano[3,2-c]chromen-2-yl)imidoformate'
_chemical_properties_biological  'anti-HIV activity'
_symmetry_cell_setting           orthorhombic
_symmetry_space_group_name_H-M   'P b c a'
_symmetry_Int_Tables_number      61
_space_group_name_Hall           '-P 2ac 2ab'
loop_
_symmetry_equiv_pos_site_id
_symmetry_equiv_pos_as_xyz
1 x,y,z
2 1/2+x,1/2-y,-z
3 -x,1/2+y,1/2-z
4 1/2-x,-y,1/2+z
5 -x,-y,-z
6 1/2-x,1/2+y,z
7 x,1/2-y,1/2+z
8 1/2+x,y,1/2-z
_cell_length_a                   15.9428(3)
_cell_length_b                   12.3953(2)
_cell_length_c                   20.5395(4)
_cell_angle_alpha                90
_cell_angle_beta                 90
_cell_angle_gamma                90
_cell_volume                     4058.93
_exptl_crystal_colour            colorless
_exptl_crystal_description       plate
_chemical_melting_point          '282-283 deg.C'
_cell_formula_units_Z            8
_exptl_crystal_recrystallization_method dioxane
loop_
_atom_site_label
_atom_site_type_symbol
_atom_site_fract_x
_atom_site_fract_y
_atom_site_fract_z
C1 C 0.70807(11) 0.34801(14) 0.86174(9)
C2 C 0.78495(10) 0.48767(12) 0.91619(8)
C3 C 0.71101(10) 0.44744(13) 0.89716(8)
C4 C 0.62732(10) 0.50125(13) 0.90917(8)
H1 H 0.5884 0.4487 0.9304
C5 C 0.64185(10) 0.59531(13) 0.95436(7)
C6 C 0.56803(11) 0.65015(14) 0.97902(8)
C7 C 0.65781(11) 0.77892(14) 1.03155(8)
C8 C 0.73035(10) 0.72565(13) 1.01104(7)
C9 C 0.71822(10) 0.63121(12) 0.97106(8)
C10 C 0.58772(11) 0.54226(13) 0.84521(8)
C11 C 0.63265(12) 0.61457(14) 0.80888(9)
H2 H 0.6883 0.6316 0.8218
C12 C 0.59949(14) 0.66450(15) 0.75310(9)
H3 H 0.6327 0.7132 0.7283
C13 C 0.51862(14) 0.64207(15) 0.73490(9)
H4 H 0.4948 0.6778 0.6984
C14 C 0.47048(11) 0.56606(14) 0.77017(8)
C15 C 0.38699(12) 0.54211(17) 0.75085(9)
H5 H 0.3626 0.5802 0.7155
C16 C 0.34160(12) 0.46526(17) 0.78239(9)
H6 H 0.2860 0.4492 0.7688
C17 C 0.37757(12) 0.40949(16) 0.83535(9)
H7 H 0.3461 0.3549 0.8568
C18 C 0.45658(11) 0.43258(14) 0.85632(9)
H8 H 0.4791 0.3945 0.8924
C19 C 0.50582(11) 0.51280(13) 0.82496(8)
C20 C 0.80786(11) 0.76804(14) 1.02922(8)
H9 H 0.8581 0.7340 1.0153
C21 C 0.81166(12) 0.85958(15) 1.06751(9)
H10 H 0.8646 0.8877 1.0804
C22 C 0.73810(12) 0.91086(16) 1.08725(9)
H11 H 0.7414 0.9740 1.1133
C23 C 0.66111(12) 0.87140(15) 1.06952(9)
H12 H 0.6111 0.9066 1.0829
C24 C 0.92812(11) 0.48165(15) 0.92034(9)
H13 H 0.9248 0.5424 0.9484
C25 C 1.00849(11) 0.35833(14) 0.85652(9)
H14 H 0.9650 0.3673 0.8226
H15 H 1.0001 0.2877 0.8780
C26 C 1.09458(12) 0.36434(16) 0.82682(10)
H16 H 1.1018 0.4343 0.8053
H17 H 1.1011 0.3064 0.7948
H18 H 1.1370 0.3563 0.8610
N1 N 0.69755(11) 0.27000(14) 0.83454(10)
N2 N 0.86023(9) 0.43985(11) 0.90049(7)
O1 O 0.79104(7) 0.58184(9) 0.95202(6)
O2 O 0.49669(8) 0.62194(11) 0.97019(7)
O3 O 0.57912(7) 0.74190(10) 1.01575(6)
O4 O 1.00318(8) 0.44542(11) 0.90411(7)
loop_
_geom_bond_atom_site_label_1
_geom_bond_atom_site_label_2
_geom_bond_site_symmetry_1
_geom_bond_site_symmetry_2
C1 C3 1_555 1_555
C2 C3 1_555 1_555
C3 C4 1_555 1_555
C4 H1 1_555 1_555
C5 C4 1_555 1_555
C6 C5 1_555 1_555
C7 C8 1_555 1_555
C8 C9 1_555 1_555
C9 C5 1_555 1_555
C10 C4 1_555 1_555
C11 C10 1_555 1_555
H2 C11 1_555 1_555
C12 C11 1_555 1_555
H3 C12 1_555 1_555
C13 C12 1_555 1_555
H4 C13 1_555 1_555
C14 C13 1_555 1_555
C15 C14 1_555 1_555
H5 C15 1_555 1_555
C16 C15 1_555 1_555
H6 C16 1_555 1_555
C17 C16 1_555 1_555
H7 C17 1_555 1_555
C18 C17 1_555 1_555
H8 C18 1_555 1_555
C19 C10 1_555 1_555
C20 C8 1_555 1_555
H9 C20 1_555 1_555
C21 C20 1_555 1_555
H10 C21 1_555 1_555
C22 C21 1_555 1_555
H11 C22 1_555 1_555
C23 C7 1_555 1_555
H12 C23 1_555 1_555
C24 H13 1_555 1_555
C25 H14 1_555 1_555
H15 C25 1_555 1_555
C26 C25 1_555 1_555
H16 C26 1_555 1_555
H17 C26 1_555 1_555
H18 C26 1_555 1_555
N1 C1 1_555 1_555
N2 C2 1_555 1_555
O1 C2 1_555 1_555
O2 C6 1_555 1_555
O3 C6 1_555 1_555
O4 C24 1_555 1_555
C7 O3 1_555 1_555
C9 O1 1_555 1_555
C14 C19 1_555 1_555
C18 C19 1_555 1_555
C22 C23 1_555 1_555
C24 N2 1_555 1_555
C25 O4 1_555 1_555

#END
