
#######################################################################
#
#                 Cambridge Crystallographic Data Centre
#                                CCDC 
#
#######################################################################
#
# If this CIF has been generated from an entry in the Cambridge 
# Structural Database, then it will include bibliographic, chemical, 
# crystal, experimental, refinement or atomic coordinate data resulting 
# from the CCDC's data processing and validation procedures.
#
#######################################################################

data_BEQHAJ
_chemical_formula_moiety         'C22 H19 Br1 O4'
_chemical_name_systematic        
4-(6-bromo-2-methoxy-1-naphthyl)-7,7-dimethyl-7,8-dihydro-2H-chromene-2,5(6H)-dione
_symmetry_cell_setting           orthorhombic
_symmetry_space_group_name_H-M   'P 21 21 21'
_symmetry_Int_Tables_number      19
_space_group_name_Hall           'P 2ac 2ab'
loop_
_symmetry_equiv_pos_site_id
_symmetry_equiv_pos_as_xyz
1 x,y,z
2 1/2-x,-y,1/2+z
3 1/2+x,1/2-y,-z
4 -x,1/2+y,1/2-z
_cell_length_a                   11.666(2)
_cell_length_b                   12.090(2)
_cell_length_c                   13.715(3)
_cell_angle_alpha                90
_cell_angle_beta                 90
_cell_angle_gamma                90
_cell_volume                     1934.39
_exptl_crystal_colour            colorless
_exptl_crystal_description       block
_cell_formula_units_Z            4
loop_
_atom_site_label
_atom_site_type_symbol
_atom_site_fract_x
_atom_site_fract_y
_atom_site_fract_z
Br1 Br 0.34266(11) 0.15597(10) -0.15719(7)
O1 O 0.3650(6) 0.5700(7) 0.3181(6)
O2 O -0.0799(7) 0.5520(7) 0.3099(6)
O3 O -0.0083(6) 0.4028(6) 0.3798(5)
O4 O 0.3660(6) 0.2594(6) 0.3363(5)
C1 C 0.2988(8) 0.4337(8) 0.2137(7)
C2 C 0.3813(9) 0.5110(9) 0.2353(7)
C3 C 0.4780(9) 0.5260(8) 0.1743(7)
H1 H 0.5339 0.5778 0.1903
C4 C 0.4881(9) 0.4632(9) 0.0912(7)
H2 H 0.5506 0.4742 0.0502
C5 C 0.4038(9) 0.3807(9) 0.0664(7)
C6 C 0.4124(9) 0.3177(9) -0.0201(7)
H3 H 0.4730 0.3299 -0.0628
C7 C 0.3327(8) 0.2393(8) -0.0411(7)
C8 C 0.2425(9) 0.2185(9) 0.0236(7)
H4 H 0.1901 0.1626 0.0101
C9 C 0.2313(8) 0.2803(9) 0.1071(7)
H5 H 0.1705 0.2665 0.1493
C10 C 0.3110(9) 0.3647(8) 0.1299(7)
C11 C 0.4457(9) 0.6561(10) 0.3406(7)
H6 H 0.4492 0.7075 0.2874
H7 H 0.5201 0.6242 0.3509
H8 H 0.4217 0.6940 0.3986
C12 C 0.1939(8) 0.4234(8) 0.2757(7)
C13 C 0.1096(9) 0.4982(10) 0.2639(7)
H9 H 0.1221 0.5566 0.2211
C14 C -0.0004(10) 0.4929(10) 0.3144(7)
C15 C 0.0766(10) 0.3278(10) 0.3940(7)
C16 C 0.0449(9) 0.2402(11) 0.4652(8)
H10 H -0.0042 0.1865 0.4332
H11 H 0.0016 0.2732 0.5181
C17 C 0.1490(11) 0.1810(9) 0.5071(9)
C18 C 0.2298(11) 0.1482(9) 0.4240(8)
H12 H 0.1916 0.0956 0.3816
H13 H 0.2974 0.1127 0.4507
C19 C 0.2659(10) 0.2498(9) 0.3646(6)
C20 C 0.1781(8) 0.3328(8) 0.3447(6)
C21 C 0.1120(17) 0.0753(13) 0.5611(13)
H14 H 0.0571 0.0939 0.6106
H15 H 0.1778 0.0416 0.5908
H16 H 0.0781 0.0246 0.5157
C22 C 0.2111(12) 0.2561(13) 0.5799(8)
H17 H 0.2180 0.3291 0.5529
H18 H 0.2860 0.2269 0.5930
H19 H 0.1681 0.2595 0.6395
loop_
_geom_bond_atom_site_label_1
_geom_bond_atom_site_label_2
_geom_bond_site_symmetry_1
_geom_bond_site_symmetry_2
Br1 C7 1_555 1_555
O1 C2 1_555 1_555
O2 C14 1_555 1_555
O3 C14 1_555 1_555
O4 C19 1_555 1_555
C1 C2 1_555 1_555
C2 C3 1_555 1_555
C3 H1 1_555 1_555
C4 C3 1_555 1_555
H2 C4 1_555 1_555
C5 C4 1_555 1_555
C6 C5 1_555 1_555
H3 C6 1_555 1_555
C7 C6 1_555 1_555
C8 C7 1_555 1_555
H4 C8 1_555 1_555
C9 C8 1_555 1_555
H5 C9 1_555 1_555
C10 C1 1_555 1_555
C11 O1 1_555 1_555
H6 C11 1_555 1_555
H7 C11 1_555 1_555
H8 C11 1_555 1_555
C12 C1 1_555 1_555
C13 C12 1_555 1_555
H9 C13 1_555 1_555
C14 C13 1_555 1_555
C15 O3 1_555 1_555
C16 C15 1_555 1_555
H10 C16 1_555 1_555
H11 C16 1_555 1_555
C17 C16 1_555 1_555
C18 C17 1_555 1_555
H12 C18 1_555 1_555
H13 C18 1_555 1_555
C19 C18 1_555 1_555
C20 C12 1_555 1_555
C21 C17 1_555 1_555
H14 C21 1_555 1_555
H15 C21 1_555 1_555
H16 C21 1_555 1_555
C22 C17 1_555 1_555
H17 C22 1_555 1_555
H18 C22 1_555 1_555
H19 C22 1_555 1_555
C5 C10 1_555 1_555
C9 C10 1_555 1_555
C15 C20 1_555 1_555
C19 C20 1_555 1_555

#END
