
#######################################################################
#
#                 Cambridge Crystallographic Data Centre
#                                CCDC 
#
#######################################################################
#
# If this CIF has been generated from an entry in the Cambridge 
# Structural Database, then it will include bibliographic, chemical, 
# crystal, experimental, refinement or atomic coordinate data resulting 
# from the CCDC's data processing and validation procedures.
#
#######################################################################

data_BEQMIV
_chemical_formula_moiety         'C28 H32 O3,C18 H24 N1 1+,F6 P1 1-,C1 H1 Cl3'
_chemical_name_systematic        
'N-(3,5-Dimethylbenzyl)(3,5-dimethylphenyl)methanaminium hexafluorophosphate 15,18,21-trioxatetracyclo[21.2.2.2^4,7^.2^10,13^]hentriaconta-1(25),4,6,10,12,23,26,28,30-nonaene chloroform solvate'
_symmetry_cell_setting           triclinic
_symmetry_space_group_name_H-M   'P -1'
_symmetry_Int_Tables_number      2
_space_group_name_Hall           '-P 1'
loop_
_symmetry_equiv_pos_site_id
_symmetry_equiv_pos_as_xyz
1 x,y,z
2 -x,-y,-z
_cell_length_a                   11.5164(7)
_cell_length_b                   12.4216(6)
_cell_length_c                   17.7638(8)
_cell_angle_alpha                109.367(4)
_cell_angle_beta                 94.950(4)
_cell_angle_gamma                94.088(5)
_cell_volume                     2374.88
_exptl_crystal_colour            colorless
_exptl_crystal_description       columnar
_cell_formula_units_Z            2
loop_
_atom_site_label
_atom_site_type_symbol
_atom_site_fract_x
_atom_site_fract_y
_atom_site_fract_z
O1 O 0.63944(19) 0.2017(2) -0.12387(14)
O2 O 0.8381(3) 0.1106(3) -0.08838(19)
O3 O 1.0354(2) 0.1182(2) -0.16881(15)
C1 C 0.5262(3) 0.2250(4) -0.1463(3)
H1 H 0.4967 0.2773 -0.1000
H2 H 0.4738 0.1544 -0.1656
C2 C 0.6406(3) 0.1351(4) -0.0728(3)
H3 H 0.6054 0.0578 -0.1031
H4 H 0.5935 0.1676 -0.0297
C3 C 0.7566(4) 0.1302(5) -0.0389(3)
H5 H 0.7811 0.2025 0.0040
H6 H 0.7534 0.0706 -0.0149
C4 C 0.9551(4) 0.1155(5) -0.0508(3)
H7 H 0.9546 0.0788 -0.0104
H8 H 0.9890 0.1945 -0.0254
C5 C 1.0218(4) 0.0545(4) -0.1153(3)
H9 H 1.0983 0.0446 -0.0926
H10 H 0.9812 -0.0209 -0.1448
C6 C 1.1051(5) 0.0646(5) -0.2301(3)
H11 H 1.0684 -0.0118 -0.2614
H12 H 1.1818 0.0576 -0.2061
C7 C 1.1177(4) 0.1346(4) -0.2835(2)
C8 C 1.0576(4) 0.1007(4) -0.3594(3)
H13 H 1.0089 0.0320 -0.3785
C9 C 1.0686(4) 0.1670(4) -0.4073(2)
H14 H 1.0283 0.1414 -0.4588
C10 C 1.1389(3) 0.2720(3) -0.3806(3)
C11 C 1.1985(4) 0.3049(4) -0.3044(3)
H15 H 1.2464 0.3741 -0.2847
C12 C 1.1885(4) 0.2383(5) -0.2574(3)
H16 H 1.2304 0.2629 -0.2064
C13 C 1.1531(4) 0.3466(5) -0.4326(3)
H17 H 1.1669 0.4260 -0.3974
H18 H 1.2230 0.3285 -0.4591
C14 C 1.0535(5) 0.3368(5) -0.4956(3)
H19 H 1.0380 0.2568 -0.5296
H20 H 1.0793 0.3796 -0.5290
C15 C 0.9382(4) 0.3779(3) -0.4670(2)
C16 C 0.8381(5) 0.3543(4) -0.5211(2)
H21 H 0.8410 0.3088 -0.5742
C17 C 0.7343(4) 0.3960(4) -0.4987(2)
H22 H 0.6689 0.3777 -0.5369
C18 C 0.7246(3) 0.4650(3) -0.4201(2)
C19 C 0.8230(3) 0.4850(3) -0.3658(2)
H23 H 0.8189 0.5284 -0.3124
C20 C 0.9284(3) 0.4429(3) -0.3876(2)
H24 H 0.9928 0.4584 -0.3488
C21 C 0.6134(4) 0.5156(3) -0.3966(3)
H25 H 0.5894 0.5561 -0.4326
H26 H 0.6290 0.5715 -0.3427
C22 C 0.5119(4) 0.4279(4) -0.3984(3)
H27 H 0.4403 0.4650 -0.3946
H28 H 0.5036 0.3666 -0.4500
C23 C 0.5239(3) 0.3753(3) -0.3329(2)
C24 C 0.5080(3) 0.2577(3) -0.3509(2)
H29 H 0.4953 0.2101 -0.4044
C25 C 0.5104(3) 0.2095(3) -0.2913(2)
H30 H 0.4992 0.1301 -0.3052
C26 C 0.5294(3) 0.2773(3) -0.2108(2)
C27 C 0.5480(3) 0.3955(3) -0.1926(2)
H31 H 0.5625 0.4430 -0.1391
C28 C 0.5453(3) 0.4432(3) -0.2521(2)
H32 H 0.5581 0.5225 -0.2382
N1 N 0.8522(2) 0.2661(2) -0.17680(13)
H33 H 0.789(4) 0.239(3) -0.165(2)
H34 H 0.915(4) 0.231(3) -0.175(2)
C29 C 0.8733(3) 0.3816(3) -0.11197(17)
H35 H 0.8845 0.3711 -0.0602
H36 H 0.8043 0.4218 -0.1130
C30 C 0.9784(3) 0.4549(2) -0.12030(16)
C31 C 0.9619(3) 0.5414(3) -0.15147(19)
H37 H 0.8864 0.5528 -0.1680
C32 C 1.0566(3) 0.6116(3) -0.1584(2)
C33 C 1.1676(3) 0.5941(3) -0.1322(2)
H38 H 1.2316 0.6404 -0.1370
C34 C 1.1868(3) 0.5096(3) -0.09884(19)
C35 C 1.0901(3) 0.4402(3) -0.09338(17)
H39 H 1.1008 0.3830 -0.0712
C36 C 1.0372(5) 0.7076(4) -0.1917(4)
H40 H 1.1115 0.7470 -0.1928
H41 H 0.9907 0.7606 -0.1581
H42 H 0.9972 0.6759 -0.2452
C37 C 1.3074(3) 0.4962(4) -0.0675(3)
H43 H 1.3627 0.5513 -0.0761
H44 H 1.3263 0.4201 -0.0951
H45 H 1.3108 0.5086 -0.0110
C38 C 0.8310(3) 0.2672(2) -0.26014(16)
H46 H 0.9028 0.2968 -0.2746
H47 H 0.7721 0.3184 -0.2625
C39 C 0.7905(2) 0.1492(2) -0.32022(16)
C40 C 0.7845(3) 0.0501(3) -0.30111(18)
H48 H 0.8046 0.0546 -0.2482
C41 C 0.7488(4) -0.0565(3) -0.3597(2)
C42 C 0.7176(4) -0.0613(3) -0.4378(2)
H49 H 0.6938 -0.1320 -0.4774
C43 C 0.7210(3) 0.0375(3) -0.45823(19)
C44 C 0.7596(3) 0.1420(3) -0.39908(17)
H50 H 0.7648 0.2084 -0.4125
C45 C 0.7493(6) -0.1653(3) -0.3387(3)
H51 H 0.7215 -0.2303 -0.3857
H52 H 0.6992 -0.1613 -0.2976
H53 H 0.8277 -0.1730 -0.3195
C46 C 0.6841(5) 0.0326(4) -0.5436(2)
H54 H 0.6596 -0.0455 -0.5768
H55 H 0.7491 0.0619 -0.5641
H56 H 0.6203 0.0782 -0.5438
P1 P 0.31571(10) 0.23527(9) 0.06601(7)
F1 F 0.3245(5) 0.2754(5) 0.1592(2)
F2 F 0.3084(4) 0.1940(6) -0.0274(3)
F3 F 0.1941(3) 0.1669(4) 0.0625(2)
F4 F 0.3791(4) 0.1284(4) 0.0623(5)
F5 F 0.4384(3) 0.3026(3) 0.0724(3)
F6 F 0.2570(5) 0.3424(5) 0.0682(4)
C47 C 0.5763(4) 0.1800(4) 0.2249(3)
H57 H 0.4882 0.1799 0.2064
Cl1 Cl 0.64867(13) 0.09663(13) 0.14829(9)
Cl2 Cl 0.64651(19) 0.31969(13) 0.27122(10)
Cl3 Cl 0.5858(6) 0.1132(5) 0.3001(3)
Cl4? Cl 0.5280(7) 0.1240(9) 0.2911(6)
loop_
_geom_bond_atom_site_label_1
_geom_bond_atom_site_label_2
_geom_bond_site_symmetry_1
_geom_bond_site_symmetry_2
O1 C1 1_555 1_555
O2 C3 1_555 1_555
O3 C5 1_555 1_555
C1 H1 1_555 1_555
H2 C1 1_555 1_555
C2 O1 1_555 1_555
H3 C2 1_555 1_555
H4 C2 1_555 1_555
C3 C2 1_555 1_555
H5 C3 1_555 1_555
H6 C3 1_555 1_555
C4 O2 1_555 1_555
H7 C4 1_555 1_555
H8 C4 1_555 1_555
C5 C4 1_555 1_555
H9 C5 1_555 1_555
H10 C5 1_555 1_555
C6 O3 1_555 1_555
H11 C6 1_555 1_555
H12 C6 1_555 1_555
C7 C6 1_555 1_555
C8 C7 1_555 1_555
H13 C8 1_555 1_555
C9 C8 1_555 1_555
H14 C9 1_555 1_555
C10 C9 1_555 1_555
C11 C10 1_555 1_555
H15 C11 1_555 1_555
C12 C7 1_555 1_555
H16 C12 1_555 1_555
C13 C10 1_555 1_555
H17 C13 1_555 1_555
H18 C13 1_555 1_555
C14 C13 1_555 1_555
H19 C14 1_555 1_555
H20 C14 1_555 1_555
C15 C14 1_555 1_555
C16 C15 1_555 1_555
H21 C16 1_555 1_555
C17 C16 1_555 1_555
H22 C17 1_555 1_555
C18 C17 1_555 1_555
C19 C18 1_555 1_555
H23 C19 1_555 1_555
C20 C15 1_555 1_555
H24 C20 1_555 1_555
C21 C18 1_555 1_555
H25 C21 1_555 1_555
H26 C21 1_555 1_555
C22 C21 1_555 1_555
H27 C22 1_555 1_555
H28 C22 1_555 1_555
C23 C22 1_555 1_555
C24 C23 1_555 1_555
H29 C24 1_555 1_555
C25 C24 1_555 1_555
H30 C25 1_555 1_555
C26 C1 1_555 1_555
C27 C26 1_555 1_555
H31 C27 1_555 1_555
C28 C23 1_555 1_555
H32 C28 1_555 1_555
N1 H33 1_555 1_555
H34 N1 1_555 1_555
C29 N1 1_555 1_555
H35 C29 1_555 1_555
H36 C29 1_555 1_555
C30 C29 1_555 1_555
C31 C30 1_555 1_555
H37 C31 1_555 1_555
C32 C31 1_555 1_555
C33 C32 1_555 1_555
H38 C33 1_555 1_555
C34 C33 1_555 1_555
C35 C30 1_555 1_555
H39 C35 1_555 1_555
C36 C32 1_555 1_555
H40 C36 1_555 1_555
H41 C36 1_555 1_555
H42 C36 1_555 1_555
C37 C34 1_555 1_555
H43 C37 1_555 1_555
H44 C37 1_555 1_555
H45 C37 1_555 1_555
C38 N1 1_555 1_555
H46 C38 1_555 1_555
H47 C38 1_555 1_555
C39 C38 1_555 1_555
C40 C39 1_555 1_555
H48 C40 1_555 1_555
C41 C40 1_555 1_555
C42 C41 1_555 1_555
H49 C42 1_555 1_555
C43 C42 1_555 1_555
C44 C39 1_555 1_555
H50 C44 1_555 1_555
C45 C41 1_555 1_555
H51 C45 1_555 1_555
H52 C45 1_555 1_555
H53 C45 1_555 1_555
C46 C43 1_555 1_555
H54 C46 1_555 1_555
H55 C46 1_555 1_555
H56 C46 1_555 1_555
P1 F1 1_555 1_555
F2 P1 1_555 1_555
F3 P1 1_555 1_555
F4 P1 1_555 1_555
F5 P1 1_555 1_555
F6 P1 1_555 1_555
C47 H57 1_555 1_555
Cl1 C47 1_555 1_555
Cl2 C47 1_555 1_555
Cl3 C47 1_555 1_555
C11 C12 1_555 1_555
C19 C20 1_555 1_555
C25 C26 1_555 1_555
C27 C28 1_555 1_555
C34 C35 1_555 1_555
C43 C44 1_555 1_555

#END
