
#######################################################################
#
#                 Cambridge Crystallographic Data Centre
#                                CCDC 
#
#######################################################################
#
# If this CIF has been generated from an entry in the Cambridge 
# Structural Database, then it will include bibliographic, chemical, 
# crystal, experimental, refinement or atomic coordinate data resulting 
# from the CCDC's data processing and validation procedures.
#
#######################################################################

data_BEQWAX
_chemical_formula_moiety         'C27 H26 N2 O4 S1'
_chemical_name_systematic        
3-((4-Methylphenyl)sulfonyl)-2-phenyl-2,3-dihydro-11bH-spiro[bis[1,3]oxazolo[3,4-a:4',5'-b]indole-4,1'-cyclobutane]
_symmetry_cell_setting           monoclinic
_symmetry_space_group_name_H-M   'P 21/c'
_symmetry_Int_Tables_number      14
_space_group_name_Hall           '-P 2ybc'
loop_
_symmetry_equiv_pos_site_id
_symmetry_equiv_pos_as_xyz
1 x,y,z
2 -x,1/2+y,1/2-z
3 -x,-y,-z
4 x,1/2-y,1/2+z
_cell_length_a                   13.829(4)
_cell_length_b                   13.800(4)
_cell_length_c                   12.746(4)
_cell_angle_alpha                90
_cell_angle_beta                 104.525(2)
_cell_angle_gamma                90
_cell_volume                     2354.7
_exptl_crystal_colour            colorless
_exptl_crystal_description       block
_cell_formula_units_Z            4
loop_
_atom_site_label
_atom_site_type_symbol
_atom_site_fract_x
_atom_site_fract_y
_atom_site_fract_z
C1 C 0.71060(15) 1.10155(14) 0.84051(16)
C2 C 0.66267(19) 1.18534(17) 0.79590(19)
H1 H 0.6000 1.2015 0.8051
C3 C 0.7101(2) 1.24415(18) 0.7375(2)
H2 H 0.6797 1.3016 0.7083
C4 C 0.8016(2) 1.21982(17) 0.72143(19)
H3 H 0.8321 1.2607 0.6814
C5 C 0.84870(17) 1.13542(16) 0.76400(17)
H4 H 0.9102 1.1184 0.7523
C6 C 0.80242(15) 1.07642(14) 0.82459(15)
C7 C 0.83558(14) 0.98308(13) 0.88179(15)
H5 H 0.9016 0.9890 0.9324
C8 C 0.75278(14) 0.96068(13) 0.94197(15)
C9 C 0.78351(16) 0.97262(14) 1.06726(16)
C10 C 0.65405(19) 1.07313(17) 1.00311(19)
H6 H 0.6321 1.1400 0.9923
H7 H 0.6028 1.0357 1.0246
C11 C 0.89180(18) 0.96408(18) 1.13309(17)
H8 H 0.9246 1.0260 1.1527
H9 H 0.9323 0.9216 1.1009
C12 C 0.8543(2) 0.9168(2) 1.2242(2)
H10 H 0.8907 0.8587 1.2536
H11 H 0.8495 0.9612 1.2817
C13 C 0.75443(18) 0.89662(17) 1.14326(17)
H12 H 0.6966 0.9145 1.1692
H13 H 0.7481 0.8312 1.1144
C14 C 0.79652(15) 0.82281(14) 0.84988(17)
H14 H 0.7624 0.7804 0.7904
C15 C 0.87792(16) 0.76564(14) 0.92755(17)
C16 C 0.97745(17) 0.77769(17) 0.9286(2)
H15 H 0.9955 0.8230 0.8830
C17 C 1.0502(2) 0.7228(2) 0.9973(2)
H16 H 1.1171 0.7322 0.9988
C18 C 1.0239(2) 0.6549(2) 1.0628(3)
H17 H 1.0730 0.6173 1.1079
C19 C 0.9258(2) 0.6419(2) 1.0627(2)
H18 H 0.9083 0.5962 1.1083
C20 C 0.85276(19) 0.69681(17) 0.9947(2)
H19 H 0.7860 0.6873 0.9941
C21 C 0.53785(15) 0.87360(15) 0.74926(17)
C22 C 0.47561(16) 0.95149(16) 0.75122(18)
H20 H 0.4764 0.9822 0.8164
C23 C 0.41234(17) 0.98347(17) 0.65617(19)
H21 H 0.3705 1.0358 0.6579
C24 C 0.40981(17) 0.93924(16) 0.55801(19)
C25 C 0.47386(18) 0.86226(18) 0.5573(2)
H22 H 0.4739 0.8325 0.4919
C26 C 0.53751(17) 0.82884(16) 0.65156(19)
H23 H 0.5798 0.7768 0.6497
C27 C 0.3370(2) 0.9724(2) 0.4559(2)
H24 H 0.3616 0.9551 0.3944
H25 H 0.3294 1.0415 0.4580
H26 H 0.2735 0.9419 0.4502
N1 N 0.67408(12) 1.03363(11) 0.90474(13)
N2 N 0.72301(12) 0.86136(11) 0.90492(13)
O1 O 0.74612(13) 1.06673(11) 1.08272(12)
O2 O 0.83257(11) 0.90539(10) 0.80642(11)
O3 O 0.56348(11) 0.85595(12) 0.95604(12)
O4 O 0.61521(12) 0.72167(10) 0.85323(14)
S1 S 0.60711(4) 0.82315(4) 0.87208(5)
loop_
_geom_bond_atom_site_label_1
_geom_bond_atom_site_label_2
_geom_bond_site_symmetry_1
_geom_bond_site_symmetry_2
C1 C2 1_555 1_555
C2 H1 1_555 1_555
C3 C2 1_555 1_555
H2 C3 1_555 1_555
C4 C3 1_555 1_555
H3 C4 1_555 1_555
C5 C4 1_555 1_555
H4 C5 1_555 1_555
C6 C1 1_555 1_555
C7 C6 1_555 1_555
H5 C7 1_555 1_555
C8 C7 1_555 1_555
C9 C8 1_555 1_555
C10 H6 1_555 1_555
H7 C10 1_555 1_555
C11 C9 1_555 1_555
H8 C11 1_555 1_555
H9 C11 1_555 1_555
C12 C11 1_555 1_555
H10 C12 1_555 1_555
H11 C12 1_555 1_555
C13 C9 1_555 1_555
H12 C13 1_555 1_555
H13 C13 1_555 1_555
C14 H14 1_555 1_555
C15 C14 1_555 1_555
C16 C15 1_555 1_555
H15 C16 1_555 1_555
C17 C16 1_555 1_555
H16 C17 1_555 1_555
C18 C17 1_555 1_555
H17 C18 1_555 1_555
C19 C18 1_555 1_555
H18 C19 1_555 1_555
C20 C15 1_555 1_555
H19 C20 1_555 1_555
C21 C22 1_555 1_555
C22 H20 1_555 1_555
C23 C22 1_555 1_555
H21 C23 1_555 1_555
C24 C23 1_555 1_555
C25 C24 1_555 1_555
H22 C25 1_555 1_555
C26 C21 1_555 1_555
H23 C26 1_555 1_555
C27 C24 1_555 1_555
H24 C27 1_555 1_555
H25 C27 1_555 1_555
H26 C27 1_555 1_555
N1 C1 1_555 1_555
N2 C8 1_555 1_555
O1 C9 1_555 1_555
O2 C7 1_555 1_555
O3 S1 1_555 1_555
O4 S1 1_555 1_555
S1 C21 1_555 1_555
C5 C6 1_555 1_555
C8 N1 1_555 1_555
C10 N1 1_555 1_555
C10 O1 1_555 1_555
C12 C13 1_555 1_555
C14 N2 1_555 1_555
C14 O2 1_555 1_555
C19 C20 1_555 1_555
C25 C26 1_555 1_555
N2 S1 1_555 1_555

#END
