
#######################################################################
#
#                 Cambridge Crystallographic Data Centre
#                                CCDC 
#
#######################################################################
#
# If this CIF has been generated from an entry in the Cambridge 
# Structural Database, then it will include bibliographic, chemical, 
# crystal, experimental, refinement or atomic coordinate data resulting 
# from the CCDC's data processing and validation procedures.
#
#######################################################################

data_BEQWIG
_chemical_formula_moiety         'C12 H11 Br1 N4 O3'
_chemical_name_systematic        
N-[(4-bromophenyl)methoxy]-1-(1-methyl-5-nitro-1H-imidazol-2-yl)methanimine
_symmetry_cell_setting           monoclinic
_symmetry_space_group_name_H-M   'P 21/n'
_symmetry_Int_Tables_number      14
_space_group_name_Hall           '-P 2yn'
loop_
_symmetry_equiv_pos_site_id
_symmetry_equiv_pos_as_xyz
1 x,y,z
2 1/2-x,1/2+y,1/2-z
3 -x,-y,-z
4 1/2+x,1/2-y,1/2+z
_cell_length_a                   7.6024(2)
_cell_length_b                   12.7526(3)
_cell_length_c                   13.8954(5)
_cell_angle_alpha                90
_cell_angle_beta                 104.869(2)
_cell_angle_gamma                90
_cell_volume                     1302.05
_exptl_crystal_colour            yellow
_exptl_crystal_description       block
_cell_formula_units_Z            4
loop_
_atom_site_label
_atom_site_type_symbol
_atom_site_fract_x
_atom_site_fract_y
_atom_site_fract_z
C1 C 0.4010(4) 0.5860(2) 0.1628(2)
C2 C 0.3825(4) 0.4812(2) 0.1385(2)
H1 H 0.3902 0.4517 0.0769
C3 C 0.3498(4) 0.4984(2) 0.2868(2)
C4 C 0.3974(5) 0.6933(2) 0.3184(3)
H2 H 0.3108 0.7457 0.2827
H3 H 0.5214 0.7210 0.3308
H4 H 0.3704 0.6770 0.3821
C5 C 0.3150(4) 0.4652(2) 0.3803(2)
H5 H 0.3120 0.3922 0.3932
C6 C 0.2011(4) 0.5460(2) 0.5916(2)
H6 H 0.0894 0.5833 0.5554
H7 H 0.2982 0.5986 0.6159
C7 C 0.1655(4) 0.4863(2) 0.6778(2)
C8 C 0.1233(4) 0.3798(2) 0.6718(2)
H8 H 0.1207 0.3422 0.6124
C9 C 0.0849(4) 0.3284(2) 0.7522(2)
H9 H 0.0561 0.2558 0.7481
C10 C 0.0890(4) 0.3840(2) 0.8382(2)
C11 C 0.1292(4) 0.4900(2) 0.8463(2)
H10 H 0.1300 0.5275 0.9055
C12 C 0.1683(4) 0.5400(2) 0.7656(2)
H11 H 0.1977 0.6126 0.7702
N1 N 0.3517(4) 0.42704(18) 0.21619(19)
N2 N 0.3819(3) 0.59752(17) 0.25814(18)
N3 N 0.2882(3) 0.52867(18) 0.44583(19)
N4 N 0.4338(4) 0.6687(2) 0.1020(2)
O1 O 0.2561(3) 0.47297(15) 0.52654(16)
O2 O 0.4605(4) 0.75804(16) 0.13734(19)
O3 O 0.4324(4) 0.64727(19) 0.01529(19)
Br1 Br 0.04121(4) 0.31299(2) 0.94938(2)
loop_
_geom_bond_atom_site_label_1
_geom_bond_atom_site_label_2
_geom_bond_site_symmetry_1
_geom_bond_site_symmetry_2
C1 C2 1_555 1_555
C2 H1 1_555 1_555
C3 C5 1_555 1_555
C4 H2 1_555 1_555
H3 C4 1_555 1_555
H4 C4 1_555 1_555
C5 H5 1_555 1_555
C6 H6 1_555 1_555
H7 C6 1_555 1_555
C7 C6 1_555 1_555
C8 C7 1_555 1_555
H8 C8 1_555 1_555
C9 C8 1_555 1_555
H9 C9 1_555 1_555
C10 C9 1_555 1_555
C11 C10 1_555 1_555
H10 C11 1_555 1_555
C12 C7 1_555 1_555
H11 C12 1_555 1_555
N1 C2 1_555 1_555
N2 C1 1_555 1_555
N3 C5 1_555 1_555
N4 C1 1_555 1_555
O1 C6 1_555 1_555
O2 N4 1_555 1_555
O3 N4 1_555 1_555
Br1 C10 1_555 1_555
C3 N1 1_555 1_555
C3 N2 1_555 1_555
C4 N2 1_555 1_555
C11 C12 1_555 1_555
N3 O1 1_555 1_555

#END
