
#######################################################################
#
#                 Cambridge Crystallographic Data Centre
#                                CCDC 
#
#######################################################################
#
# If this CIF has been generated from an entry in the Cambridge 
# Structural Database, then it will include bibliographic, chemical, 
# crystal, experimental, refinement or atomic coordinate data resulting 
# from the CCDC's data processing and validation procedures.
#
#######################################################################

data_BEQXEA
_chemical_formula_moiety         '2(C12 H9 N2 1+),Cl2 I1 1-,Cl1 I2 1-'
_chemical_name_systematic        
'bis(1,10-Phenanthrolin-1-ium) dichloroiodide chlorodi-iodide'
_symmetry_cell_setting           monoclinic
_symmetry_space_group_name_H-M   'P 21/c'
_symmetry_Int_Tables_number      14
_space_group_name_Hall           '-P 2ybc'
loop_
_symmetry_equiv_pos_site_id
_symmetry_equiv_pos_as_xyz
1 x,y,z
2 -x,1/2+y,1/2-z
3 -x,-y,-z
4 x,1/2-y,1/2+z
_cell_length_a                   8.9031(4)
_cell_length_b                   15.7897(6)
_cell_length_c                   20.0697(7)
_cell_angle_alpha                90
_cell_angle_beta                 99.569(4)
_cell_angle_gamma                90
_cell_volume                     2782.09
_exptl_crystal_colour            'dark red'
_exptl_crystal_description       column
_cell_formula_units_Z            4
loop_
_atom_site_label
_atom_site_type_symbol
_atom_site_fract_x
_atom_site_fract_y
_atom_site_fract_z
I1 I 0.47831(2) 0.587626(15) 0.615538(11)
Cl1 Cl 0.25467(12) 0.58865(8) 0.67946(6)
Cl2 Cl 0.70649(11) 0.58402(7) 0.55319(5)
I2 I 1.63491(3) 0.855484(18) 0.620324(13)
I3 I 1.33495(3) 0.848479(16) 0.634984(12)
Cl3 Cl 0.99198(9) 0.84289(6) 0.63021(4)
N1 N 0.9536(4) 0.7333(2) 0.49655(15)
N2 N 0.7510(4) 0.8575(2) 0.44705(17)
C1 C 1.0548(4) 0.6766(3) 0.5239(2)
C2 C 1.0797(5) 0.6050(3) 0.4887(2)
C3 C 0.9969(5) 0.5919(3) 0.4264(2)
C4 C 0.8879(4) 0.6512(2) 0.39718(19)
C5 C 0.7950(6) 0.6417(3) 0.3322(2)
C6 C 0.6947(6) 0.7005(4) 0.3077(2)
C7 C 0.6727(4) 0.7756(3) 0.34430(19)
C8 C 0.5696(5) 0.8402(4) 0.3204(3)
C9 C 0.5585(6) 0.9091(4) 0.3590(3)
C10 C 0.6495(6) 0.9150(3) 0.4213(3)
C11 C 0.7617(4) 0.7882(2) 0.40860(17)
C12 C 0.8685(4) 0.7243(2) 0.43442(16)
H1 H 0.936(4) 0.773(2) 0.5157(19)
H2 H 1.103(5) 0.686(3) 0.565(2)
H3 H 1.144(5) 0.570(3) 0.508(2)
H4 H 1.013(5) 0.543(3) 0.407(2)
H5 H 0.805(5) 0.591(3) 0.310(2)
H6 H 0.631(6) 0.689(4) 0.268(3)
H7 H 0.508(5) 0.832(3) 0.277(2)
H8 H 0.502(6) 0.950(3) 0.346(3)
H9 H 0.659(7) 0.972(4) 0.453(3)
N3 N 1.0086(3) 0.7055(2) 0.74716(15)
N4 N 1.2223(3) 0.81198(19) 0.81463(15)
C13 C 0.9068(4) 0.6565(3) 0.7095(2)
C14 C 0.8731(5) 0.5786(3) 0.7334(2)
C15 C 0.9422(5) 0.5525(3) 0.7959(2)
C16 C 1.0499(4) 0.6048(2) 0.83543(18)
C17 C 1.1288(5) 0.5817(3) 0.9009(2)
C18 C 1.2319(6) 0.6339(3) 0.9360(2)
C19 C 1.2680(4) 0.7142(2) 0.90904(17)
C20 C 1.3780(5) 0.7701(3) 0.9428(2)
C21 C 1.4083(5) 0.8437(3) 0.9122(2)
C22 C 1.3265(5) 0.8616(3) 0.8483(2)
C23 C 1.1936(4) 0.7390(2) 0.84502(16)
C24 C 1.0821(4) 0.6829(2) 0.80892(16)
H10 H 1.026(4) 0.750(3) 0.7308(19)
H11 H 0.867(4) 0.677(2) 0.6706(19)
H12 H 0.803(5) 0.547(3) 0.709(2)
H13 H 0.929(5) 0.503(3) 0.812(2)
H14 H 1.113(5) 0.530(3) 0.917(2)
H15 H 1.283(5) 0.617(3) 0.979(2)
H16 H 1.431(4) 0.755(3) 0.985(2)
H17 H 1.485(5) 0.888(3) 0.936(2)
H18 H 1.355(5) 0.907(3) 0.831(2)
loop_
_geom_bond_atom_site_label_1
_geom_bond_atom_site_label_2
_geom_bond_site_symmetry_1
_geom_bond_site_symmetry_2
I1 Cl1 1_555 1_555
I2 I3 1_555 1_555
I3 Cl3 1_555 1_555
Cl2 I1 1_555 1_555
N1 C1 1_555 1_555
N2 C10 1_555 1_555
N3 C13 1_555 1_555
N4 C22 1_555 1_555
C1 C2 1_555 1_555
C2 C3 1_555 1_555
C3 C4 1_555 1_555
C4 C5 1_555 1_555
C5 C6 1_555 1_555
C6 C7 1_555 1_555
C7 C8 1_555 1_555
C8 C9 1_555 1_555
C9 C10 1_555 1_555
C10 H9 1_555 1_555
C11 N2 1_555 1_555
C12 N1 1_555 1_555
C13 C14 1_555 1_555
C14 C15 1_555 1_555
C15 C16 1_555 1_555
C16 C17 1_555 1_555
C17 C18 1_555 1_555
C18 C19 1_555 1_555
C19 C20 1_555 1_555
C20 C21 1_555 1_555
C21 C22 1_555 1_555
C22 H18 1_555 1_555
C23 N4 1_555 1_555
C24 N3 1_555 1_555
H1 N1 1_555 1_555
H2 C1 1_555 1_555
H3 C2 1_555 1_555
H4 C3 1_555 1_555
H5 C5 1_555 1_555
H6 C6 1_555 1_555
H7 C8 1_555 1_555
H8 C9 1_555 1_555
H10 N3 1_555 1_555
H11 C13 1_555 1_555
H12 C14 1_555 1_555
H13 C15 1_555 1_555
H14 C17 1_555 1_555
H15 C18 1_555 1_555
H16 C20 1_555 1_555
H17 C21 1_555 1_555
C4 C12 1_555 1_555
C7 C11 1_555 1_555
C11 C12 1_555 1_555
C16 C24 1_555 1_555
C19 C23 1_555 1_555
C23 C24 1_555 1_555

#END
