
#######################################################################
#
#                 Cambridge Crystallographic Data Centre
#                                CCDC 
#
#######################################################################
#
# If this CIF has been generated from an entry in the Cambridge 
# Structural Database, then it will include bibliographic, chemical, 
# crystal, experimental, refinement or atomic coordinate data resulting 
# from the CCDC's data processing and validation procedures.
#
#######################################################################

data_BERCEG
_chemical_formula_moiety         'C10 H4 N2 O6 2-,2(H5 N2 1+)'
_chemical_name_systematic        
'bis(Hydrazinium) 4-hydroxy-1-oxo-2H-phthalazine-6,7-dicarboxylate'
_symmetry_cell_setting           monoclinic
_symmetry_space_group_name_H-M   'C 2/c'
_symmetry_Int_Tables_number      15
_space_group_name_Hall           '-C 2yn'
loop_
_symmetry_equiv_pos_site_id
_symmetry_equiv_pos_as_xyz
1 x,y,z
2 1/2+x,1/2+y,z
3 -x,y,1/2-z
4 1/2-x,1/2+y,1/2-z
5 -x,-y,-z
6 1/2-x,1/2-y,-z
7 x,-y,1/2+z
8 1/2+x,1/2-y,1/2+z
_cell_length_a                   25.300(5)
_cell_length_b                   7.366(2)
_cell_length_c                   14.609(3)
_cell_angle_alpha                90
_cell_angle_beta                 113.62(3)
_cell_angle_gamma                90
_cell_volume                     2494.44
_exptl_crystal_colour            'light yellow'
_exptl_crystal_description       plate
_cell_formula_units_Z            8
_exptl_crystal_recrystallization_method methanol
loop_
_atom_site_label
_atom_site_type_symbol
_atom_site_fract_x
_atom_site_fract_y
_atom_site_fract_z
O1 O -0.00189(5) 0.5182(2) 0.1252(1)
O2 O -0.05768(5) 1.2197(2) 0.03852(8)
O3 O 0.17570(5) 1.2165(2) 0.41534(8)
O4 O 0.16636(5) 1.3441(2) 0.27091(8)
O5 O 0.22221(5) 0.8840(2) 0.33606(8)
O6 O 0.18374(5) 0.7343(2) 0.42841(8)
N1 N -0.06634(6) 0.7360(2) 0.0348(1)
N2 N -0.07722(6) 0.9196(2) 0.0188(1)
C1 C -0.01663(7) 0.6922(2) 0.1037(1)
C2 C -0.04189(6) 1.0598(2) 0.0645(1)
C3 C 0.05651(7) 1.1380(2) 0.1934(1)
C4 C 0.10950(6) 1.0835(2) 0.2644(1)
C5 C 0.12111(6) 0.8976(2) 0.2858(1)
C6 C 0.07984(7) 0.7683(2) 0.2359(1)
C7 C 0.02650(6) 0.8227(2) 0.1622(1)
C8 C 0.01443(6) 1.0079(2) 0.1418(1)
C9 C 0.15408(6) 1.2256(2) 0.3211(1)
C10 C 0.18035(7) 0.8343(2) 0.3572(1)
H1 H -0.025(1) 0.444(4) 0.090(2)
H2 H -0.110(1) 0.944(3) -0.024(2)
H3 H 0.0487(9) 1.261(3) 0.180(1)
H4 H 0.0874(8) 0.643(3) 0.250(1)
N3 N -0.19450(6) 0.9460(2) -0.1358(1)
N4 N -0.23278(6) 1.0031(2) -0.0890(1)
H5 H -0.199(1) 1.028(3) -0.183(2)
H6 H -0.211(1) 0.848(3) -0.169(2)
H7 H -0.267(1) 1.063(3) -0.137(2)
H8 H -0.245(1) 0.898(3) -0.060(2)
H9 H -0.2125(9) 1.090(3) -0.035(2)
N5 N 0.16132(6) 0.3690(2) 0.6217(1)
N6 N 0.16930(6) 0.4841(2) 0.5474(1)
H10 H 0.1255(9) 0.314(3) 0.588(1)
H11 H 0.159(1) 0.448(3) 0.670(2)
H12 H 0.1697(9) 0.403(3) 0.496(2)
H13 H 0.140(1) 0.575(3) 0.522(2)
H14 H 0.207(1) 0.540(3) 0.580(2)
loop_
_geom_bond_atom_site_label_1
_geom_bond_atom_site_label_2
_geom_bond_site_symmetry_1
_geom_bond_site_symmetry_2
O1 C1 1_555 1_555
O2 C2 1_555 1_555
O3 C9 1_555 1_555
O4 C9 1_555 1_555
O5 C10 1_555 1_555
O6 C10 1_555 1_555
N1 N2 1_555 1_555
N2 C2 1_555 1_555
C1 N1 1_555 1_555
C2 C8 1_555 1_555
C3 C4 1_555 1_555
C4 C5 1_555 1_555
C5 C6 1_555 1_555
C6 C7 1_555 1_555
C7 C1 1_555 1_555
C8 C3 1_555 1_555
C9 C4 1_555 1_555
C10 C5 1_555 1_555
N3 N4 1_555 1_555
N4 H7 1_555 1_555
N5 N6 1_555 1_555
N6 H12 1_555 1_555
H1 O1 1_555 1_555
H2 N2 1_555 1_555
H3 C3 1_555 1_555
H4 C6 1_555 1_555
H5 N3 1_555 1_555
H6 N3 1_555 1_555
H8 N4 1_555 1_555
H9 N4 1_555 1_555
H10 N5 1_555 1_555
H11 N5 1_555 1_555
H13 N6 1_555 1_555
H14 N6 1_555 1_555
C7 C8 1_555 1_555

#END
