
#######################################################################
#
#                 Cambridge Crystallographic Data Centre
#                                CCDC 
#
#######################################################################
#
# If this CIF has been generated from an entry in the Cambridge 
# Structural Database, then it will include bibliographic, chemical, 
# crystal, experimental, refinement or atomic coordinate data resulting 
# from the CCDC's data processing and validation procedures.
#
#######################################################################

data_BERDUZ
_chemical_formula_moiety         'C17 H11 N1 O1'
_chemical_name_systematic        
2-(2-Methylphenyl)-1-oxo-1H-indene-3-carbonitrile
_symmetry_cell_setting           triclinic
_symmetry_space_group_name_H-M   'P -1'
_symmetry_Int_Tables_number      2
_space_group_name_Hall           '-P 1'
loop_
_symmetry_equiv_pos_site_id
_symmetry_equiv_pos_as_xyz
1 x,y,z
2 -x,-y,-z
_cell_length_a                   7.7325(3)
_cell_length_b                   8.8630(3)
_cell_length_c                   9.8596(3)
_cell_angle_alpha                82.255(2)
_cell_angle_beta                 68.663(2)
_cell_angle_gamma                78.619(2)
_cell_volume                     615.549
_exptl_crystal_colour            colorless
_exptl_crystal_description       block
_cell_formula_units_Z            2
loop_
_atom_site_label
_atom_site_type_symbol
_atom_site_fract_x
_atom_site_fract_y
_atom_site_fract_z
O1 O 0.26497(14) 0.90450(10) 1.03027(9)
N1 N 0.24589(17) 0.59957(11) 0.53598(12)
C1 C 0.16114(18) 1.23874(13) 0.56968(12)
H1 H 0.1369 1.3331 0.5205
C2 C 0.32266(17) 1.20196(12) 0.60512(12)
H2 H 0.4080 1.2709 0.5758
C3 C 0.36111(16) 1.06357(12) 0.68402(12)
C4 C 0.23103(16) 0.95998(12) 0.72364(12)
C5 C 0.25246(16) 0.81410(12) 0.81134(12)
C6 C 0.26089(17) 0.79965(13) 0.96455(13)
C7 C 0.25840(16) 0.63338(13) 1.01629(12)
C8 C 0.26098(18) 0.55637(14) 1.14704(13)
H3 H 0.2655 0.6083 1.2213
C9 C 0.25665(19) 0.39731(14) 1.16444(13)
H4 H 0.2586 0.3428 1.2515
C10 C 0.24942(18) 0.32017(13) 1.05370(13)
H5 H 0.2475 0.2145 1.0673
C11 C 0.24493(17) 0.39925(13) 0.92112(13)
H6 H 0.2386 0.3480 0.8471
C12 C 0.25018(16) 0.55594(12) 0.90481(12)
C13 C 0.24731(16) 0.67063(12) 0.78095(12)
C14 C 0.03516(18) 1.13506(13) 0.60738(13)
H7 H -0.0723 1.1587 0.5820
C15 C 0.07101(17) 0.99629(13) 0.68303(12)
H8 H -0.0123 0.9261 0.7073
C16 C 0.53869(18) 1.02909(14) 0.71874(14)
H9 H 0.6400 1.0619 0.6363
H10 H 0.5674 0.9201 0.7404
H11 H 0.5224 1.0832 0.8017
C17 C 0.24406(17) 0.63179(12) 0.64555(12)
loop_
_geom_bond_atom_site_label_1
_geom_bond_atom_site_label_2
_geom_bond_site_symmetry_1
_geom_bond_site_symmetry_2
O1 C6 1_555 1_555
N1 C17 1_555 1_555
C1 H1 1_555 1_555
C2 C1 1_555 1_555
H2 C2 1_555 1_555
C3 C2 1_555 1_555
C4 C3 1_555 1_555
C5 C4 1_555 1_555
C6 C5 1_555 1_555
C7 C6 1_555 1_555
C8 C7 1_555 1_555
H3 C8 1_555 1_555
C9 C8 1_555 1_555
H4 C9 1_555 1_555
C10 C9 1_555 1_555
H5 C10 1_555 1_555
C11 C10 1_555 1_555
H6 C11 1_555 1_555
C12 C7 1_555 1_555
C13 C5 1_555 1_555
C14 C1 1_555 1_555
H7 C14 1_555 1_555
C15 C4 1_555 1_555
H8 C15 1_555 1_555
C16 C3 1_555 1_555
H9 C16 1_555 1_555
H10 C16 1_555 1_555
H11 C16 1_555 1_555
C17 C13 1_555 1_555
C11 C12 1_555 1_555
C12 C13 1_555 1_555
C14 C15 1_555 1_555

#END
