
#######################################################################
#
#                 Cambridge Crystallographic Data Centre
#                                CCDC 
#
#######################################################################
#
# If this CIF has been generated from an entry in the Cambridge 
# Structural Database, then it will include bibliographic, chemical, 
# crystal, experimental, refinement or atomic coordinate data resulting 
# from the CCDC's data processing and validation procedures.
#
#######################################################################

data_BERJAM
_chemical_formula_moiety         'C23 H23 N3 S2'
_chemical_name_systematic        
5-(t-butyldisulfanyl)-1-[(naphthalen-2-yl)methyl]-4-phenyl-1H-1,2,3-triazole
_symmetry_cell_setting           orthorhombic
_symmetry_space_group_name_H-M   'P 21 21 21'
_symmetry_Int_Tables_number      19
_space_group_name_Hall           'P 2ac 2ab'
loop_
_symmetry_equiv_pos_site_id
_symmetry_equiv_pos_as_xyz
1 x,y,z
2 1/2-x,-y,1/2+z
3 -x,1/2+y,1/2-z
4 1/2+x,1/2-y,-z
_cell_length_a                   5.913(14)
_cell_length_b                   17.51(4)
_cell_length_c                   20.51(5)
_cell_angle_alpha                90
_cell_angle_beta                 90
_cell_angle_gamma                90
_cell_volume                     2123.54
_cell_formula_units_Z            4
loop_
_atom_site_label
_atom_site_type_symbol
_atom_site_fract_x
_atom_site_fract_y
_atom_site_fract_z
S1 S 0.3220(2) 0.69370(6) 0.23539(5)
S2 S 0.4408(2) 0.58966(6) 0.26482(6)
N1 N 0.8288(7) 0.84177(18) 0.23366(18)
N2 N 0.8282(7) 0.8198(2) 0.29551(17)
N3 N 0.6606(7) 0.76842(19) 0.30275(16)
C1 C 0.6224(9) 0.7358(2) 0.36845(18)
H1 H 0.7669 0.7232 0.3881
H2 H 0.5355 0.6891 0.3646
C2 C 0.4978(7) 0.7910(2) 0.41184(19)
C3 C 0.5913(8) 0.8154(2) 0.46942(19)
H3 H 0.7315 0.7966 0.4823
C4 C 0.4762(8) 0.8693(2) 0.5098(2)
C5 C 0.5697(8) 0.8968(3) 0.5686(2)
H4 H 0.7090 0.8786 0.5828
C6 C 0.4579(10) 0.9497(3) 0.6045(2)
H5 H 0.5223 0.9677 0.6430
C7 C 0.2479(11) 0.9776(3) 0.5848(3)
H6 H 0.1737 1.0138 0.6101
C8 C 0.1503(9) 0.9521(3) 0.5285(2)
H7 H 0.0106 0.9711 0.5155
C9 C 0.2636(8) 0.8962(2) 0.4898(2)
C10 C 0.1693(8) 0.8681(3) 0.4307(2)
H8 H 0.0277 0.8850 0.4172
C11 C 0.2833(8) 0.8174(3) 0.3943(2)
H9 H 0.2174 0.7992 0.3562
C12 C 0.5516(7) 0.7556(2) 0.24464(19)
C13 C 0.6604(7) 0.8043(2) 0.20130(18)
C14 C 0.6280(7) 0.8201(2) 0.13096(19)
C15 C 0.7973(9) 0.8571(3) 0.0975(2)
H10 H 0.9291 0.8710 0.1192
C16 C 0.7732(9) 0.8740(3) 0.0315(2)
H11 H 0.8890 0.8988 0.0093
C17 C 0.5787(11) 0.8540(3) -0.0008(2)
H12 H 0.5622 0.8656 -0.0448
C18 C 0.4081(9) 0.8170(3) 0.0320(2)
H13 H 0.2765 0.8031 0.0102
C19 C 0.4335(8) 0.8003(3) 0.0980(2)
H14 H 0.3176 0.7755 0.1202
C20 C 0.5690(8) 0.5419(2) 0.1935(2)
C21 C 0.6799(10) 0.4720(3) 0.2246(2)
H15 H 0.7512 0.4418 0.1913
H16 H 0.5668 0.4419 0.2462
H17 H 0.7914 0.4882 0.2556
C22 C 0.7405(9) 0.5929(3) 0.1610(3)
H18 H 0.8182 0.5647 0.1277
H19 H 0.8475 0.6106 0.1928
H20 H 0.6649 0.6359 0.1417
C23 C 0.3845(10) 0.5180(3) 0.1461(2)
H21 H 0.3116 0.5627 0.1289
H22 H 0.2752 0.4871 0.1685
H23 H 0.4501 0.4892 0.1111
loop_
_geom_bond_atom_site_label_1
_geom_bond_atom_site_label_2
_geom_bond_site_symmetry_1
_geom_bond_site_symmetry_2
S1 S2 1_555 1_555
S2 C20 1_555 1_555
N1 N2 1_555 1_555
N2 N3 1_555 1_555
N3 C1 1_555 1_555
C1 H1 1_555 1_555
H2 C1 1_555 1_555
C2 C1 1_555 1_555
C3 C2 1_555 1_555
H3 C3 1_555 1_555
C4 C3 1_555 1_555
C5 C4 1_555 1_555
H4 C5 1_555 1_555
C6 C5 1_555 1_555
H5 C6 1_555 1_555
C7 C6 1_555 1_555
H6 C7 1_555 1_555
C8 C7 1_555 1_555
H7 C8 1_555 1_555
C9 C4 1_555 1_555
C10 C9 1_555 1_555
H8 C10 1_555 1_555
C11 C2 1_555 1_555
H9 C11 1_555 1_555
C12 S1 1_555 1_555
C13 N1 1_555 1_555
C14 C13 1_555 1_555
C15 C14 1_555 1_555
H10 C15 1_555 1_555
C16 C15 1_555 1_555
H11 C16 1_555 1_555
C17 C16 1_555 1_555
H12 C17 1_555 1_555
C18 C17 1_555 1_555
H13 C18 1_555 1_555
C19 C14 1_555 1_555
H14 C19 1_555 1_555
C20 C21 1_555 1_555
C21 H15 1_555 1_555
H16 C21 1_555 1_555
H17 C21 1_555 1_555
C22 C20 1_555 1_555
H18 C22 1_555 1_555
H19 C22 1_555 1_555
H20 C22 1_555 1_555
C23 C20 1_555 1_555
H21 C23 1_555 1_555
H22 C23 1_555 1_555
H23 C23 1_555 1_555
N3 C12 1_555 1_555
C8 C9 1_555 1_555
C10 C11 1_555 1_555
C12 C13 1_555 1_555
C18 C19 1_555 1_555

#END
