
#######################################################################
#
#                 Cambridge Crystallographic Data Centre
#                                CCDC 
#
#######################################################################
#
# If this CIF has been generated from an entry in the Cambridge 
# Structural Database, then it will include bibliographic, chemical, 
# crystal, experimental, refinement or atomic coordinate data resulting 
# from the CCDC's data processing and validation procedures.
#
#######################################################################

data_BERLIV
_chemical_formula_moiety         'C100 H104 Mg2 O6'
_chemical_name_systematic        
bis(\m~2~-2,2'-(oxydimethanediyl)bis[4,6-bis(2-phenylpropan-2-yl)phenolato])-di-magnesium(ii)
_symmetry_cell_setting           triclinic
_symmetry_space_group_name_H-M   'P -1'
_symmetry_Int_Tables_number      2
_space_group_name_Hall           '-P 1'
loop_
_symmetry_equiv_pos_site_id
_symmetry_equiv_pos_as_xyz
1 x,y,z
2 -x,-y,-z
_cell_length_a                   12.498(3)
_cell_length_b                   13.382(3)
_cell_length_c                   15.071(3)
_cell_angle_alpha                65.05(3)
_cell_angle_beta                 68.00(3)
_cell_angle_gamma                65.58(3)
_cell_volume                     2018.79
_exptl_crystal_colour            colorless
_exptl_crystal_description       parallelepiped
_cell_formula_units_Z            1
loop_
_atom_site_label
_atom_site_type_symbol
_atom_site_fract_x
_atom_site_fract_y
_atom_site_fract_z
Mg1 Mg 0.97874(7) 0.58160(7) 0.40150(6)
O1 O 0.91028(13) 0.66495(13) 0.28858(11)
O2 O 1.06682(13) 0.69586(13) 0.36981(11)
O3 O 0.91929(13) 0.57474(13) 0.54664(11)
C1 C 0.97781(19) 0.7128(2) 0.19924(17)
C2 C 0.97775(19) 0.7062(2) 0.10842(17)
C3 C 1.05734(19) 0.7509(2) 0.01979(18)
H1 H 1.0579 0.7457 -0.0400
C4 C 1.13589(19) 0.8030(2) 0.01610(17)
C5 C 1.1290(2) 0.8140(2) 0.10561(18)
H2 H 1.1782 0.8507 0.1053
C6 C 1.0512(2) 0.7720(2) 0.19566(17)
C7 C 1.0355(2) 0.8004(2) 0.28631(17)
H3 H 1.0867 0.8472 0.2694
H4 H 0.9521 0.8452 0.3068
C8 C 1.0566(2) 0.7229(2) 0.45738(17)
H5 H 1.0926 0.7838 0.4356
H6 H 1.1009 0.6550 0.5026
C9 C 0.9264(2) 0.7612(2) 0.51260(17)
C10 C 0.8700(2) 0.8736(2) 0.51761(17)
H7 H 0.9137 0.9265 0.4849
C11 C 0.7507(2) 0.9087(2) 0.57007(18)
C12 C 0.6899(2) 0.8249(2) 0.61852(18)
H8 H 0.6105 0.8461 0.6558
C13 C 0.74042(19) 0.7122(2) 0.61453(17)
C14 C 0.8620(2) 0.6808(2) 0.55989(17)
C15 C 0.8868(2) 0.6578(2) 0.10673(18)
C16 C 0.7593(2) 0.7384(2) 0.1373(2)
H9 H 0.7466 0.7410 0.2033
H10 H 0.6999 0.7097 0.1381
H11 H 0.7516 0.8148 0.0896
C17 C 0.9039(2) 0.6569(2) 0.00043(19)
H12 H 0.9829 0.6067 -0.0203
H13 H 0.8960 0.7339 -0.0461
H14 H 0.8433 0.6297 0.0014
C18 C 0.9015(2) 0.5322(2) 0.17486(17)
C19 C 0.8079(2) 0.4837(2) 0.21247(19)
H15 H 0.7316 0.5306 0.2018
C20 C 0.8259(2) 0.3668(2) 0.26550(19)
H16 H 0.7620 0.3363 0.2894
C21 C 0.9376(3) 0.2961(2) 0.28288(19)
H17 H 0.9493 0.2179 0.3192
C22 C 1.0323(2) 0.3419(2) 0.24602(19)
H18 H 1.1083 0.2946 0.2572
C23 C 1.0138(2) 0.4582(2) 0.19243(18)
H19 H 1.0786 0.4877 0.1673
C24 C 1.2239(2) 0.8516(2) -0.08064(18)
C25 C 1.2276(2) 0.8233(3) -0.17051(18)
H20 H 1.2545 0.7409 -0.1559
H21 H 1.2826 0.8565 -0.2294
H22 H 1.1481 0.8547 -0.1824
C26 C 1.1809(2) 0.9841(2) -0.1065(2)
H23 H 1.1008 1.0146 -0.1172
H24 H 1.2351 1.0165 -0.1667
H25 H 1.1799 1.0037 -0.0518
C27 C 1.3514(2) 0.7978(2) -0.06305(18)
C28 C 1.3914(2) 0.6820(2) -0.01009(19)
H26 H 1.3391 0.6378 0.0155
C29 C 1.5065(2) 0.6296(3) 0.0062(2)
H27 H 1.5297 0.5519 0.0440
C30 C 1.5867(3) 0.6919(3) -0.0335(2)
H28 H 1.6647 0.6565 -0.0236
C31 C 1.5513(3) 0.8062(3) -0.0874(2)
H29 H 1.6056 0.8487 -0.1146
C32 C 1.4341(2) 0.8602(3) -0.1024(2)
H30 H 1.4109 0.9384 -0.1388
C33 C 0.6856(2) 1.0327(2) 0.57582(19)
C34 C 0.7549(3) 1.1165(2) 0.4947(2)
H31 H 0.8343 1.0925 0.5050
H32 H 0.7119 1.1931 0.4993
H33 H 0.7618 1.1162 0.4292
C35 C 0.5596(3) 1.0749(2) 0.5564(2)
H34 H 0.5188 1.1522 0.5598
H35 H 0.5134 1.0247 0.6065
H36 H 0.5678 1.0743 0.4907
C36 C 0.6781(2) 1.0364(2) 0.67891(19)
C37 C 0.7804(2) 0.9797(2) 0.71787(19)
H37 H 0.8508 0.9378 0.6825
C38 C 0.7793(3) 0.9843(2) 0.8085(2)
H38 H 0.8486 0.9460 0.8332
C39 C 0.6755(3) 1.0458(3) 0.8618(2)
H39 H 0.6743 1.0488 0.9228
C40 C 0.5749(3) 1.1020(3) 0.8247(2)
H40 H 0.5049 1.1437 0.8605
C41 C 0.5753(2) 1.0980(2) 0.7340(2)
H41 H 0.5056 1.1371 0.7098
C42 C 0.6693(2) 0.6243(2) 0.67135(17)
C43 C 0.7243(2) 0.5360(2) 0.76126(18)
H42 H 0.8085 0.4990 0.7368
H43 H 0.6824 0.4789 0.7979
H44 H 0.7162 0.5753 0.8051
C44 C 0.5347(2) 0.6809(2) 0.71596(19)
H45 H 0.4969 0.7368 0.6623
H46 H 0.5291 0.7187 0.7601
H47 H 0.4945 0.6225 0.7533
C45 C 0.66984(19) 0.5643(2) 0.60361(18)
C46 C 0.6430(2) 0.4599(2) 0.6461(2)
H48 H 0.6319 0.4231 0.7153
C47 C 0.6327(2) 0.4102(2) 0.5868(2)
H49 H 0.6141 0.3409 0.6168
C48 C 0.6495(2) 0.4619(3) 0.4846(2)
H50 H 0.6422 0.4282 0.4453
C49 C 0.6773(2) 0.5644(2) 0.4407(2)
H51 H 0.6909 0.5992 0.3712
C50 C 0.6852(2) 0.6156(2) 0.50021(18)
H52 H 0.7013 0.6862 0.4699
Mg1A Mg 1.02126(7) 0.41840(7) 0.59850(6)
O1A O 1.08972(13) 0.33505(13) 0.71142(11)
O2A O 0.93318(13) 0.30414(13) 0.63019(11)
O3A O 1.08071(13) 0.42526(13) 0.45336(11)
C1A C 1.02219(19) 0.2872(2) 0.80076(17)
C2A C 1.02225(19) 0.2938(2) 0.89158(17)
C3A C 0.94266(19) 0.2491(2) 0.98021(18)
H1A H 0.9421 0.2543 1.0400
C4A C 0.86411(19) 0.1970(2) 0.98390(17)
C5A C 0.8710(2) 0.1860(2) 0.89439(18)
H2A H 0.8218 0.1493 0.8947
C6A C 0.9488(2) 0.2280(2) 0.80434(17)
C7A C 0.9645(2) 0.1996(2) 0.71369(17)
H3A H 0.9133 0.1528 0.7306
H4A H 1.0479 0.1548 0.6932
C8A C 0.9434(2) 0.2771(2) 0.54262(17)
H5A H 0.9074 0.2162 0.5644
H6A H 0.8991 0.3450 0.4974
C9A C 1.0736(2) 0.2388(2) 0.48740(17)
C10A C 1.1300(2) 0.1264(2) 0.48239(17)
H7A H 1.0863 0.0735 0.5151
C11A C 1.2493(2) 0.0913(2) 0.42993(18)
C12A C 1.3101(2) 0.1751(2) 0.38148(18)
H8A H 1.3895 0.1539 0.3442
C13A C 1.25958(19) 0.2878(2) 0.38547(17)
C14A C 1.1380(2) 0.3192(2) 0.44011(17)
C15A C 1.1132(2) 0.3422(2) 0.89327(18)
C16A C 1.2407(2) 0.2616(2) 0.8627(2)
H9A H 1.2534 0.2590 0.7967
H10A H 1.3001 0.2903 0.8619
H11A H 1.2484 0.1852 0.9104
C17A C 1.0961(2) 0.3431(2) 0.99957(19)
H12A H 1.0171 0.3933 1.0203
H13A H 1.1040 0.2661 1.0461
H14A H 1.1567 0.3703 0.9986
C18A C 1.0985(2) 0.4678(2) 0.82514(17)
C19A C 1.1921(2) 0.5163(2) 0.78753(19)
H15A H 1.2684 0.4694 0.7982
C20A C 1.1741(2) 0.6332(2) 0.73450(19)
H16A H 1.2380 0.6637 0.7106
C21A C 1.0624(3) 0.7039(2) 0.71712(19)
H17A H 1.0507 0.7821 0.6808
C22A C 0.9677(2) 0.6581(2) 0.75398(19)
H18A H 0.8917 0.7054 0.7428
C23A C 0.9862(2) 0.5418(2) 0.80757(18)
H19A H 0.9214 0.5123 0.8327
C24A C 0.7761(2) 0.1484(2) 1.08064(18)
C25A C 0.7724(2) 0.1767(3) 1.17051(18)
H20A H 0.7455 0.2591 1.1559
H21A H 0.7174 0.1435 1.2294
H22A H 0.8519 0.1453 1.1824
C26A C 0.8191(2) 0.0159(2) 1.1065(2)
H23A H 0.8992 -0.0146 1.1172
H24A H 0.7649 -0.0165 1.1667
H25A H 0.8201 -0.0037 1.0518
C27A C 0.6486(2) 0.2022(2) 1.06305(18)
C28A C 0.6086(2) 0.3180(2) 1.01009(19)
H26A H 0.6609 0.3622 0.9845
C29A C 0.4935(2) 0.3704(3) 0.9938(2)
H27A H 0.4703 0.4481 0.9560
C30A C 0.4133(3) 0.3081(3) 1.0335(2)
H28A H 0.3353 0.3435 1.0236
C31A C 0.4487(3) 0.1938(3) 1.0874(2)
H29A H 0.3944 0.1513 1.1146
C32A C 0.5659(2) 0.1398(3) 1.1024(2)
H30A H 0.5891 0.0616 1.1388
C33A C 1.3144(2) -0.0327(2) 0.42418(19)
C34A C 1.2451(3) -0.1165(2) 0.5053(2)
H31A H 1.1657 -0.0925 0.4950
H32A H 1.2881 -0.1931 0.5007
H33A H 1.2382 -0.1162 0.5708
C35A C 1.4404(3) -0.0749(2) 0.4436(2)
H34A H 1.4812 -0.1522 0.4402
H35A H 1.4866 -0.0247 0.3935
H36A H 1.4322 -0.0743 0.5093
C36A C 1.3219(2) -0.0364(2) 0.32109(19)
C37A C 1.2196(2) 0.0203(2) 0.28213(19)
H37A H 1.1492 0.0622 0.3175
C38A C 1.2207(3) 0.0157(2) 0.1915(2)
H38A H 1.1514 0.0540 0.1668
C39A C 1.3245(3) -0.0458(3) 0.1382(2)
H39A H 1.3257 -0.0488 0.0772
C40A C 1.4251(3) -0.1020(3) 0.1753(2)
H40A H 1.4951 -0.1437 0.1395
C41A C 1.4247(2) -0.0980(2) 0.2660(2)
H41A H 1.4944 -0.1371 0.2902
C42A C 1.3307(2) 0.3757(2) 0.32865(17)
C43A C 1.2757(2) 0.4640(2) 0.23874(18)
H42A H 1.1915 0.5010 0.2632
H43A H 1.3176 0.5211 0.2021
H44A H 1.2838 0.4247 0.1949
C44A C 1.4653(2) 0.3191(2) 0.28404(19)
H45A H 1.5031 0.2632 0.3377
H46A H 1.4709 0.2813 0.2399
H47A H 1.5055 0.3775 0.2467
C45A C 1.33016(19) 0.4357(2) 0.39639(18)
C46A C 1.3570(2) 0.5401(2) 0.3539(2)
H48A H 1.3681 0.5769 0.2847
C47A C 1.3673(2) 0.5898(2) 0.4132(2)
H49A H 1.3859 0.6591 0.3832
C48A C 1.3505(2) 0.5381(3) 0.5154(2)
H50A H 1.3578 0.5718 0.5547
C49A C 1.3227(2) 0.4356(2) 0.5593(2)
H51A H 1.3091 0.4008 0.6288
C50A C 1.3148(2) 0.3844(2) 0.49979(18)
H52A H 1.2987 0.3138 0.5301
loop_
_geom_bond_atom_site_label_1
_geom_bond_atom_site_label_2
_geom_bond_site_symmetry_1
_geom_bond_site_symmetry_2
Mg1 O1 1_555 1_555
O1 C1 1_555 1_555
O2 Mg1 1_555 1_555
O3 Mg1 1_555 1_555
C1 C2 1_555 1_555
C2 C3 1_555 1_555
C3 H1 1_555 1_555
C4 C3 1_555 1_555
C5 C4 1_555 1_555
H2 C5 1_555 1_555
C6 C1 1_555 1_555
C7 O2 1_555 1_555
H3 C7 1_555 1_555
H4 C7 1_555 1_555
C8 O2 1_555 1_555
H5 C8 1_555 1_555
H6 C8 1_555 1_555
C9 C8 1_555 1_555
C10 C9 1_555 1_555
H7 C10 1_555 1_555
C11 C10 1_555 1_555
C12 C11 1_555 1_555
H8 C12 1_555 1_555
C13 C12 1_555 1_555
C14 O3 1_555 1_555
C15 C2 1_555 1_555
C16 C15 1_555 1_555
H9 C16 1_555 1_555
H10 C16 1_555 1_555
H11 C16 1_555 1_555
C17 C15 1_555 1_555
H12 C17 1_555 1_555
H13 C17 1_555 1_555
H14 C17 1_555 1_555
C18 C15 1_555 1_555
C19 C18 1_555 1_555
H15 C19 1_555 1_555
C20 C19 1_555 1_555
H16 C20 1_555 1_555
C21 C20 1_555 1_555
H17 C21 1_555 1_555
C22 C21 1_555 1_555
H18 C22 1_555 1_555
C23 C18 1_555 1_555
H19 C23 1_555 1_555
C24 C4 1_555 1_555
C25 C24 1_555 1_555
H20 C25 1_555 1_555
H21 C25 1_555 1_555
H22 C25 1_555 1_555
C26 C24 1_555 1_555
H23 C26 1_555 1_555
H24 C26 1_555 1_555
H25 C26 1_555 1_555
C27 C24 1_555 1_555
C28 C27 1_555 1_555
H26 C28 1_555 1_555
C29 C28 1_555 1_555
H27 C29 1_555 1_555
C30 C29 1_555 1_555
H28 C30 1_555 1_555
C31 C30 1_555 1_555
H29 C31 1_555 1_555
C32 C27 1_555 1_555
H30 C32 1_555 1_555
C33 C11 1_555 1_555
C34 C33 1_555 1_555
H31 C34 1_555 1_555
H32 C34 1_555 1_555
H33 C34 1_555 1_555
C35 C33 1_555 1_555
H34 C35 1_555 1_555
H35 C35 1_555 1_555
H36 C35 1_555 1_555
C36 C33 1_555 1_555
C37 C36 1_555 1_555
H37 C37 1_555 1_555
C38 C37 1_555 1_555
H38 C38 1_555 1_555
C39 C38 1_555 1_555
H39 C39 1_555 1_555
C40 C39 1_555 1_555
H40 C40 1_555 1_555
C41 C36 1_555 1_555
H41 C41 1_555 1_555
C42 C13 1_555 1_555
C43 C42 1_555 1_555
H42 C43 1_555 1_555
H43 C43 1_555 1_555
H44 C43 1_555 1_555
C44 C42 1_555 1_555
H45 C44 1_555 1_555
H46 C44 1_555 1_555
H47 C44 1_555 1_555
C45 C42 1_555 1_555
C46 C45 1_555 1_555
H48 C46 1_555 1_555
C47 C46 1_555 1_555
H49 C47 1_555 1_555
C48 C47 1_555 1_555
H50 C48 1_555 1_555
C49 C48 1_555 1_555
H51 C49 1_555 1_555
C50 C45 1_555 1_555
H52 C50 1_555 1_555
Mg1A O3 1_555 1_555
O1A Mg1A 1_555 1_555
O2A Mg1A 1_555 1_555
O3A Mg1 1_555 1_555
C1A O1A 1_555 1_555
C2A C1A 1_555 1_555
C3A C2A 1_555 1_555
H1A C3A 1_555 1_555
C4A C3A 1_555 1_555
C5A C4A 1_555 1_555
H2A C5A 1_555 1_555
C6A C1A 1_555 1_555
C7A O2A 1_555 1_555
H3A C7A 1_555 1_555
H4A C7A 1_555 1_555
C8A O2A 1_555 1_555
H5A C8A 1_555 1_555
H6A C8A 1_555 1_555
C9A C8A 1_555 1_555
C10A C9A 1_555 1_555
H7A C10A 1_555 1_555
C11A C10A 1_555 1_555
C12A C11A 1_555 1_555
H8A C12A 1_555 1_555
C13A C12A 1_555 1_555
C14A O3A 1_555 1_555
C15A C2A 1_555 1_555
C16A C15A 1_555 1_555
H9A C16A 1_555 1_555
H10A C16A 1_555 1_555
H11A C16A 1_555 1_555
C17A C15A 1_555 1_555
H12A C17A 1_555 1_555
H13A C17A 1_555 1_555
H14A C17A 1_555 1_555
C18A C15A 1_555 1_555
C19A C18A 1_555 1_555
H15A C19A 1_555 1_555
C20A C19A 1_555 1_555
H16A C20A 1_555 1_555
C21A C20A 1_555 1_555
H17A C21A 1_555 1_555
C22A C21A 1_555 1_555
H18A C22A 1_555 1_555
C23A C18A 1_555 1_555
H19A C23A 1_555 1_555
C24A C4A 1_555 1_555
C25A C24A 1_555 1_555
H20A C25A 1_555 1_555
H21A C25A 1_555 1_555
H22A C25A 1_555 1_555
C26A C24A 1_555 1_555
H23A C26A 1_555 1_555
H24A C26A 1_555 1_555
H25A C26A 1_555 1_555
C27A C24A 1_555 1_555
C28A C27A 1_555 1_555
H26A C28A 1_555 1_555
C29A C28A 1_555 1_555
H27A C29A 1_555 1_555
C30A C29A 1_555 1_555
H28A C30A 1_555 1_555
C31A C30A 1_555 1_555
H29A C31A 1_555 1_555
C32A C27A 1_555 1_555
H30A C32A 1_555 1_555
C33A C11A 1_555 1_555
C34A C33A 1_555 1_555
H31A C34A 1_555 1_555
H32A C34A 1_555 1_555
H33A C34A 1_555 1_555
C35A C33A 1_555 1_555
H34A C35A 1_555 1_555
H35A C35A 1_555 1_555
H36A C35A 1_555 1_555
C36A C33A 1_555 1_555
C37A C36A 1_555 1_555
H37A C37A 1_555 1_555
C38A C37A 1_555 1_555
H38A C38A 1_555 1_555
C39A C38A 1_555 1_555
H39A C39A 1_555 1_555
C40A C39A 1_555 1_555
H40A C40A 1_555 1_555
C41A C36A 1_555 1_555
H41A C41A 1_555 1_555
C42A C13A 1_555 1_555
C43A C42A 1_555 1_555
H42A C43A 1_555 1_555
H43A C43A 1_555 1_555
H44A C43A 1_555 1_555
C44A C42A 1_555 1_555
H45A C44A 1_555 1_555
H46A C44A 1_555 1_555
H47A C44A 1_555 1_555
C45A C42A 1_555 1_555
C46A C45A 1_555 1_555
H48A C46A 1_555 1_555
C47A C46A 1_555 1_555
H49A C47A 1_555 1_555
C48A C47A 1_555 1_555
H50A C48A 1_555 1_555
C49A C48A 1_555 1_555
H51A C49A 1_555 1_555
C50A C45A 1_555 1_555
H52A C50A 1_555 1_555
C5 C6 1_555 1_555
C6 C7 1_555 1_555
C9 C14 1_555 1_555
C13 C14 1_555 1_555
C22 C23 1_555 1_555
C31 C32 1_555 1_555
C40 C41 1_555 1_555
C49 C50 1_555 1_555
Mg1A O3A 1_555 1_555
C5A C6A 1_555 1_555
C6A C7A 1_555 1_555
C9A C14A 1_555 1_555
C13A C14A 1_555 1_555
C22A C23A 1_555 1_555
C31A C32A 1_555 1_555
C40A C41A 1_555 1_555
C49A C50A 1_555 1_555

#END
