
#######################################################################
#
#                 Cambridge Crystallographic Data Centre
#                                CCDC 
#
#######################################################################
#
# If this CIF has been generated from an entry in the Cambridge 
# Structural Database, then it will include bibliographic, chemical, 
# crystal, experimental, refinement or atomic coordinate data resulting 
# from the CCDC's data processing and validation procedures.
#
#######################################################################

data_BERLUH
_chemical_formula_moiety         'C50 H53 O3 1-,2(C4 H8 O1),K1 1+'
_chemical_name_systematic        
'Potassium 2-(((2-hydroxy-3,5-bis(2-phenylpropan-2-yl)benzyl)oxy)methyl)-4,6-bis(2-phenylpropan-2-yl)phenolate tetrahydrofuran solvate'
_symmetry_cell_setting           triclinic
_symmetry_space_group_name_H-M   'P -1'
_symmetry_Int_Tables_number      2
_space_group_name_Hall           '-P 1'
loop_
_symmetry_equiv_pos_site_id
_symmetry_equiv_pos_as_xyz
1 x,y,z
2 -x,-y,-z
_cell_length_a                   13.543(3)
_cell_length_b                   13.946(3)
_cell_length_c                   15.444(3)
_cell_angle_alpha                104.72(3)
_cell_angle_beta                 108.69(3)
_cell_angle_gamma                105.77(3)
_cell_volume                     2465.84
_exptl_crystal_colour            colorless
_exptl_crystal_description       block
_cell_formula_units_Z            2
loop_
_atom_site_label
_atom_site_type_symbol
_atom_site_fract_x
_atom_site_fract_y
_atom_site_fract_z
K1 K 0.47040(3) 0.52186(3) 0.17377(3)
O1 O 0.34831(9) 0.35429(9) 0.00165(9)
O2 O 0.60659(9) 0.41314(9) 0.11905(8)
O3 O 0.63492(9) 0.65545(9) 0.15345(9)
C1 C 0.34905(13) 0.26856(13) 0.02504(12)
C2 C 0.25182(14) 0.20072(13) 0.02860(12)
C3 C 0.25625(14) 0.11184(13) 0.05214(12)
H1 H 0.1920 0.0667 0.0529
C4 C 0.35248(14) 0.08651(13) 0.07488(12)
C5 C 0.44709(14) 0.15536(13) 0.07370(12)
H2 H 0.5130 0.1420 0.0903
C6 C 0.44619(13) 0.24429(13) 0.04819(12)
C7 C 0.54768(13) 0.31057(13) 0.03921(12)
H3 H 0.5981 0.2727 0.0394
H4 H 0.5237 0.3209 -0.0229
C8 C 0.69795(13) 0.47744(13) 0.10502(13)
H5 H 0.6684 0.4971 0.0491
H6 H 0.7427 0.4367 0.0915
C9 C 0.77056(14) 0.57688(13) 0.19612(12)
C10 C 0.87310(14) 0.58341(14) 0.26102(13)
H7 H 0.8959 0.5265 0.2458
C11 C 0.94219(14) 0.67153(14) 0.34733(13)
C12 C 0.90411(14) 0.75518(14) 0.36774(13)
H8 H 0.9491 0.8151 0.4258
C13 C 0.80217(13) 0.75301(13) 0.30535(12)
C14 C 0.73399(13) 0.66146(13) 0.21693(12)
C15 C 0.14267(13) 0.22273(14) -0.00074(13)
C16 C 0.05138(15) 0.14821(15) 0.01739(15)
H9 H 0.0782 0.1604 0.0863
H10 H 0.0348 0.0747 -0.0196
H11 H -0.0159 0.1629 -0.0033
C17 C 0.09399(14) 0.19918(16) -0.11160(14)
H12 H 0.1485 0.2441 -0.1265
H13 H 0.0264 0.2136 -0.1305
H14 H 0.0766 0.1251 -0.1473
C18 C 0.16521(13) 0.33817(14) 0.06087(13)
C19 C 0.21539(15) 0.37383(16) 0.16348(14)
H15 H 0.2140 0.3191 0.1927
C20 C 0.23064(18) 0.47468(17) 0.22251(17)
H16 H 0.2405 0.4872 0.2907
C21 C 0.19609(18) 0.54228(17) 0.17979(18)
H17 H 0.2051 0.6096 0.2190
C22 C 0.14835(19) 0.50960(17) 0.07907(19)
H18 H 0.1265 0.5557 0.0502
C23 C 0.13234(16) 0.40809(16) 0.01973(16)
H19 H 0.0991 0.3869 -0.0485
C24 C 0.34624(15) -0.01877(15) 0.09121(14)
C25 C 0.46113(16) -0.02859(16) 0.12291(15)
H20 H 0.5135 0.0293 0.1843
H21 H 0.4889 -0.0253 0.0734
H22 H 0.4531 -0.0959 0.1310
C26 C 0.3051(2) -0.02385(18) 0.17258(17)
H23 H 0.3566 0.0363 0.2326
H24 H 0.3019 -0.0895 0.1829
H25 H 0.2313 -0.0215 0.1530
C27 C 0.26573(10) -0.11509(8) -0.00823(8)
C28 C 0.19619(12) -0.21114(10) -0.01157(10)
H26 H 0.1939 -0.2180 0.0462
C29 C 0.13013(11) -0.29700(8) -0.10121(13)
H27 H 0.0836 -0.3613 -0.1034
C30 C 0.13361(12) -0.28681(9) -0.18752(10)
H28 H 0.0894 -0.3443 -0.2475
C31 C 0.20315(13) -0.19076(12) -0.18418(8)
H29 H 0.2055 -0.1839 -0.2419
C32 C 0.26921(11) -0.10490(9) -0.09454(9)
H30 H 0.3157 -0.0406 -0.0923
C33 C 1.05463(14) 0.67947(14) 0.42187(13)
C34 C 1.08076(16) 0.57955(15) 0.38674(15)
H31 H 1.0205 0.5166 0.3768
H32 H 1.1502 0.5865 0.4356
H33 H 1.0879 0.5731 0.3259
C35 C 1.04347(16) 0.68611(18) 0.51868(15)
H34 H 1.0273 0.7480 0.5425
H35 H 1.1129 0.6920 0.5667
H36 H 0.9832 0.6225 0.5075
C36 C 1.15362(14) 0.77681(14) 0.43648(13)
C37 C 1.25245(16) 0.82591(16) 0.52355(16)
H37 H 1.2569 0.8009 0.5745
C38 C 1.34427(17) 0.91124(18) 0.5358(2)
H38 H 1.4092 0.9427 0.5945
C39 C 1.33959(18) 0.94900(19) 0.4621(2)
H39 H 1.4007 1.0067 0.4706
C40 C 1.24385(19) 0.9013(2) 0.3749(2)
H40 H 1.2407 0.9263 0.3240
C41 C 1.15171(17) 0.81558(18) 0.36247(16)
H41 H 1.0876 0.7839 0.3031
C42 C 0.76129(14) 0.84494(14) 0.33012(13)
C43 C 0.84590(15) 0.93614(15) 0.42945(14)
H42 H 0.8562 0.9082 0.4810
H43 H 0.8172 0.9914 0.4428
H44 H 0.9170 0.9656 0.4265
C44 C 0.75001(16) 0.89607(15) 0.25212(15)
H45 H 0.6978 0.8423 0.1884
H46 H 0.8225 0.9259 0.2516
H47 H 0.7227 0.9520 0.2677
C45 C 0.65016(14) 0.80125(14) 0.34022(13)
C46 C 0.55395(16) 0.81637(17) 0.29127(16)
H48 H 0.5533 0.8489 0.2456
C47 C 0.45839(17) 0.7839(2) 0.30891(19)
H49 H 0.3949 0.7953 0.2752
C48 C 0.45645(17) 0.73536(18) 0.37549(17)
H50 H 0.3929 0.7152 0.3883
C49 C 0.55024(18) 0.71688(17) 0.42315(16)
H51 H 0.5496 0.6822 0.4672
C50 C 0.64576(16) 0.74999(16) 0.40542(14)
H52 H 0.7086 0.7373 0.4384
H53 H 0.636(3) 0.648(3) 0.076(3)
O4 O 0.54486(12) 0.46379(12) 0.32753(12)
C51 C 0.66308(19) 0.4896(2) 0.37155(18)
H54 H 0.6940 0.5276 0.4423
H55 H 0.7018 0.5340 0.3440
C52 C 0.6751(2) 0.3841(2) 0.3483(2)
H56 H 0.7456 0.3890 0.3955
H57 H 0.6716 0.3581 0.2825
C53 C 0.5753(2) 0.3131(2) 0.3561(2)
H58 H 0.5511 0.2386 0.3144
H59 H 0.5926 0.3184 0.4236
C54 C 0.4882(2) 0.3567(2) 0.3214(2)
H60 H 0.4351 0.3113 0.2539
H61 H 0.4467 0.3589 0.3622
O5 O 0.23907(14) 0.27753(13) 0.36264(12)
C55 C 0.23896(19) 0.17571(18) 0.31767(17)
H62 H 0.2992 0.1638 0.3624
H63 H 0.2509 0.1718 0.2584
C56 C 0.1267(2) 0.0923(2) 0.2926(2)
H64 H 0.0966 0.0396 0.2263
H65 H 0.1334 0.0557 0.3385
C57 C 0.0537(2) 0.1526(3) 0.3001(3)
H66 H -0.0045 0.1348 0.2356
H67 H 0.0178 0.1359 0.3426
C58 C 0.1281(2) 0.2664(2) 0.3421(3)
H68 H 0.1042 0.3001 0.2958
H69 H 0.1230 0.3023 0.4022
loop_
_geom_bond_atom_site_label_1
_geom_bond_atom_site_label_2
_geom_bond_site_symmetry_1
_geom_bond_site_symmetry_2
O1 C1 1_555 1_555
O2 C7 1_555 1_555
O3 C14 1_555 1_555
C1 C2 1_555 1_555
C2 C3 1_555 1_555
C3 H1 1_555 1_555
C4 C3 1_555 1_555
C5 C4 1_555 1_555
H2 C5 1_555 1_555
C6 C1 1_555 1_555
C7 C6 1_555 1_555
H3 C7 1_555 1_555
H4 C7 1_555 1_555
C8 O2 1_555 1_555
H5 C8 1_555 1_555
H6 C8 1_555 1_555
C9 C8 1_555 1_555
C10 C9 1_555 1_555
H7 C10 1_555 1_555
C11 C10 1_555 1_555
C12 C11 1_555 1_555
H8 C12 1_555 1_555
C13 C12 1_555 1_555
C14 C9 1_555 1_555
C15 C2 1_555 1_555
C16 C15 1_555 1_555
H9 C16 1_555 1_555
H10 C16 1_555 1_555
H11 C16 1_555 1_555
C17 C15 1_555 1_555
H12 C17 1_555 1_555
H13 C17 1_555 1_555
H14 C17 1_555 1_555
C18 C15 1_555 1_555
C19 C18 1_555 1_555
H15 C19 1_555 1_555
C20 C19 1_555 1_555
H16 C20 1_555 1_555
C21 C20 1_555 1_555
H17 C21 1_555 1_555
C22 C21 1_555 1_555
H18 C22 1_555 1_555
C23 C18 1_555 1_555
H19 C23 1_555 1_555
C24 C4 1_555 1_555
C25 C24 1_555 1_555
H20 C25 1_555 1_555
H21 C25 1_555 1_555
H22 C25 1_555 1_555
C26 C24 1_555 1_555
H23 C26 1_555 1_555
H24 C26 1_555 1_555
H25 C26 1_555 1_555
C27 C24 1_555 1_555
C28 C27 1_555 1_555
H26 C28 1_555 1_555
C29 C28 1_555 1_555
H27 C29 1_555 1_555
C30 C29 1_555 1_555
H28 C30 1_555 1_555
C31 C30 1_555 1_555
H29 C31 1_555 1_555
C32 C27 1_555 1_555
H30 C32 1_555 1_555
C33 C11 1_555 1_555
C34 C33 1_555 1_555
H31 C34 1_555 1_555
H32 C34 1_555 1_555
H33 C34 1_555 1_555
C35 C33 1_555 1_555
H34 C35 1_555 1_555
H35 C35 1_555 1_555
H36 C35 1_555 1_555
C36 C33 1_555 1_555
C37 C36 1_555 1_555
H37 C37 1_555 1_555
C38 C37 1_555 1_555
H38 C38 1_555 1_555
C39 C38 1_555 1_555
H39 C39 1_555 1_555
C40 C39 1_555 1_555
H40 C40 1_555 1_555
C41 C36 1_555 1_555
H41 C41 1_555 1_555
C42 C13 1_555 1_555
C43 C42 1_555 1_555
H42 C43 1_555 1_555
H43 C43 1_555 1_555
H44 C43 1_555 1_555
C44 C42 1_555 1_555
H45 C44 1_555 1_555
H46 C44 1_555 1_555
H47 C44 1_555 1_555
C45 C42 1_555 1_555
C46 C45 1_555 1_555
H48 C46 1_555 1_555
C47 C46 1_555 1_555
H49 C47 1_555 1_555
C48 C47 1_555 1_555
H50 C48 1_555 1_555
C49 C48 1_555 1_555
H51 C49 1_555 1_555
C50 C45 1_555 1_555
H52 C50 1_555 1_555
H53 O3 1_555 1_555
O4 C51 1_555 1_555
C51 H54 1_555 1_555
H55 C51 1_555 1_555
C52 C51 1_555 1_555
H56 C52 1_555 1_555
H57 C52 1_555 1_555
C53 C52 1_555 1_555
H58 C53 1_555 1_555
H59 C53 1_555 1_555
C54 O4 1_555 1_555
H60 C54 1_555 1_555
H61 C54 1_555 1_555
O5 C55 1_555 1_555
C55 H62 1_555 1_555
H63 C55 1_555 1_555
C56 C55 1_555 1_555
H64 C56 1_555 1_555
H65 C56 1_555 1_555
C57 C56 1_555 1_555
H66 C57 1_555 1_555
H67 C57 1_555 1_555
C58 O5 1_555 1_555
H68 C58 1_555 1_555
H69 C58 1_555 1_555
C5 C6 1_555 1_555
C13 C14 1_555 1_555
C22 C23 1_555 1_555
C31 C32 1_555 1_555
C40 C41 1_555 1_555
C49 C50 1_555 1_555
C53 C54 1_555 1_555
C57 C58 1_555 1_555

#END
