
#######################################################################
#
#                 Cambridge Crystallographic Data Centre
#                                CCDC 
#
#######################################################################
#
# If this CIF has been generated from an entry in the Cambridge 
# Structural Database, then it will include bibliographic, chemical, 
# crystal, experimental, refinement or atomic coordinate data resulting 
# from the CCDC's data processing and validation procedures.
#
#######################################################################

data_BERNOE
_chemical_formula_moiety         'C6 H6 N12 O12,C2 H3 N1'
_chemical_name_systematic        
'1,3,4,7,8,10-hexanitrooctahydro-1H-5,2,6-(epiminomethanetriylimino)imidazo[4,5-b]pyrazine acetonitrile solvate'
_symmetry_cell_setting           monoclinic
_symmetry_space_group_name_H-M   'C 2/c'
_symmetry_Int_Tables_number      15
_space_group_name_Hall           '-C 2yn'
loop_
_symmetry_equiv_pos_site_id
_symmetry_equiv_pos_as_xyz
1 x,y,z
2 -x,y,1/2-z
3 1/2+x,1/2+y,z
4 1/2-x,1/2+y,1/2-z
5 -x,-y,-z
6 x,-y,1/2+z
7 1/2-x,1/2-y,-z
8 1/2+x,1/2-y,1/2+z
_cell_length_a                   29.746(6)
_cell_length_b                   7.8121(16)
_cell_length_c                   19.757(4)
_cell_angle_alpha                90
_cell_angle_beta                 130.51(3)
_cell_angle_gamma                90
_cell_volume                     3490.58
_exptl_crystal_colour            colorless
_exptl_crystal_description       prism
_cell_formula_units_Z            8
loop_
_atom_site_label
_atom_site_type_symbol
_atom_site_fract_x
_atom_site_fract_y
_atom_site_fract_z
O1 O -0.02944(6) -0.12233(18) 0.15242(9)
O2 O -0.03424(6) 0.15248(18) 0.14039(10)
O3 O 0.08534(8) 0.0994(2) 0.04631(10)
O4 O 0.01157(7) 0.1855(2) 0.03694(9)
O5 O 0.17075(6) -0.0376(2) 0.49184(8)
O6 O 0.18392(7) 0.23122(19) 0.48100(8)
O7 O 0.26291(6) -0.10476(18) 0.47032(8)
O8 O 0.27923(6) -0.1066(3) 0.37797(10)
O9 O 0.05699(7) -0.41091(19) 0.13695(10)
O10 O 0.13162(8) -0.3769(2) 0.14299(12)
O11 O 0.20524(7) 0.47175(18) 0.34973(10)
O12 O 0.24162(8) 0.3656(2) 0.29445(11)
C1 C 0.08560(7) -0.1327(2) 0.23701(10)
H1 H 0.0626 -0.2306 0.2309
C2 C 0.14419(7) -0.1103(2) 0.33611(10)
H2 H 0.1471 -0.1967 0.3747
C3 C 0.08002(7) 0.1809(2) 0.21573(10)
H3 H 0.0541 0.2793 0.1983
C4 C 0.14015(7) 0.2002(2) 0.31393(10)
H4 H 0.1414 0.3093 0.3396
C5 C 0.16457(7) -0.0916(2) 0.23672(10)
H5 H 0.1862 -0.1478 0.2210
C6 C 0.16174(8) 0.1088(2) 0.22336(11)
H6 H 0.1821 0.1432 0.2017
N1 N 0.05183(6) 0.02308(18) 0.20804(9)
N2 N 0.10211(6) 0.17912(18) 0.16783(9)
N3 N 0.14542(6) 0.05957(18) 0.36517(8)
N4 N 0.18808(6) -0.14083(19) 0.32616(9)
N5 N 0.10476(6) -0.15878(18) 0.18469(9)
N6 N 0.18734(6) 0.19355(18) 0.30810(8)
N7 N -0.00833(6) 0.01666(19) 0.16265(9)
N8 N 0.06310(8) 0.1504(2) 0.07668(10)
N9 N 0.16930(6) 0.0861(2) 0.45326(9)
N10 N 0.24797(7) -0.1145(2) 0.39711(10)
N11 N 0.09794(8) -0.3314(2) 0.15387(10)
N12 N 0.21273(7) 0.3586(2) 0.31704(9)
N13 N 0.07752(10) 0.5250(2) 0.31805(13)
C7 C 0.07964(9) 0.5206(2) 0.37773(13)
C8 C 0.08299(13) 0.5140(4) 0.45340(17)
H7 H 0.1089(15) 0.451(4) 0.492(2)
H8 H 0.048(2) 0.485(6) 0.437(3)
H9 H 0.0977(14) 0.607(4) 0.478(2)
loop_
_geom_bond_atom_site_label_1
_geom_bond_atom_site_label_2
_geom_bond_site_symmetry_1
_geom_bond_site_symmetry_2
O1 N7 1_555 1_555
O2 N7 1_555 1_555
O3 N8 1_555 1_555
O4 N8 1_555 1_555
O5 N9 1_555 1_555
O6 N9 1_555 1_555
O7 N10 1_555 1_555
O8 N10 1_555 1_555
O9 N11 1_555 1_555
O10 N11 1_555 1_555
O11 N12 1_555 1_555
O12 N12 1_555 1_555
C1 H1 1_555 1_555
C2 C1 1_555 1_555
H2 C2 1_555 1_555
C3 H3 1_555 1_555
C4 C3 1_555 1_555
H4 C4 1_555 1_555
C5 H5 1_555 1_555
C6 C5 1_555 1_555
H6 C6 1_555 1_555
N1 C1 1_555 1_555
N2 C3 1_555 1_555
N3 C2 1_555 1_555
N4 C2 1_555 1_555
N5 C1 1_555 1_555
N6 C4 1_555 1_555
N7 N1 1_555 1_555
N8 N2 1_555 1_555
N9 N3 1_555 1_555
N10 N4 1_555 1_555
N11 N5 1_555 1_555
N12 N6 1_555 1_555
N13 C7 1_555 1_555
C7 C8 1_555 1_555
C8 H7 1_555 1_555
H8 C8 1_555 1_555
H9 C8 1_555 1_555
C3 N1 1_555 1_555
C4 N3 1_555 1_555
C5 N4 1_555 1_555
C5 N5 1_555 1_555
C6 N2 1_555 1_555
C6 N6 1_555 1_555

#END
