
#######################################################################
#
#                 Cambridge Crystallographic Data Centre
#                                CCDC 
#
#######################################################################
#
# If this CIF has been generated from an entry in the Cambridge 
# Structural Database, then it will include bibliographic, chemical, 
# crystal, experimental, refinement or atomic coordinate data resulting 
# from the CCDC's data processing and validation procedures.
#
#######################################################################

data_BERQUN
_chemical_formula_moiety         'C31 H39 B2 F4 N5,C1 H2 Cl2'
_chemical_name_systematic        
'(N,N-bis({5-[1-(3,5-dimethyl-2H-pyrrol-2-ylidene)ethyl]-4-methyl-1H-pyrrol-2-yl}methyl)propan-1-aminato)-tetrafluoro-di-boron dichloromethane solvate'
_symmetry_cell_setting           triclinic
_symmetry_space_group_name_H-M   'P -1'
_symmetry_Int_Tables_number      2
_space_group_name_Hall           '-P 1'
loop_
_symmetry_equiv_pos_site_id
_symmetry_equiv_pos_as_xyz
1 x,y,z
2 -x,-y,-z
_cell_length_a                   7.544(3)
_cell_length_b                   11.137(4)
_cell_length_c                   20.250(8)
_cell_angle_alpha                92.37(3)
_cell_angle_beta                 95.19(3)
_cell_angle_gamma                100.11(3)
_cell_volume                     1665.23
_exptl_crystal_colour            red
_exptl_crystal_description       block
_cell_formula_units_Z            2
loop_
_atom_site_label
_atom_site_type_symbol
_atom_site_fract_x
_atom_site_fract_y
_atom_site_fract_z
N1 N 0.2805(3) 0.1316(2) 0.09177(11)
F1 F 0.3919(2) 0.28181(19) 0.47069(10)
N2 N 0.2537(3) 0.2737(2) 0.00270(11)
F2 F 0.2318(3) 0.38356(16) 0.40025(10)
N3 N 0.1379(3) 0.1679(2) 0.40434(11)
F3 F 0.4423(3) 0.33638(18) 0.10394(9)
N4 N 0.1002(3) 0.3087(2) 0.49733(12)
F4 F 0.1438(3) 0.30688(18) 0.10853(10)
N5 N 0.4174(4) 0.1169(2) 0.26868(12)
C1 C -0.0226(4) 0.0930(3) 0.41554(13)
C2 C 0.2377(4) 0.1759(3) -0.04445(14)
C3 C -0.0626(4) 0.2335(3) 0.50612(14)
C4 C 0.2636(4) 0.0361(3) 0.04301(14)
C5 C 0.2414(4) 0.0589(3) -0.02414(14)
C6 C 0.2962(4) 0.0851(3) 0.15203(14)
C7 C 0.2114(4) 0.1130(3) 0.35570(13)
C8 C -0.1227(4) 0.1283(3) 0.46568(14)
C9 C 0.3047(4) 0.1594(3) 0.21562(14)
H1 H 0.3530 0.2441 0.2088
H2 H 0.1834 0.1552 0.2287
C10 C -0.0471(5) -0.0114(3) 0.37126(15)
B1 B 0.2198(5) 0.2888(3) 0.44237(16)
C11 C 0.2465(4) 0.3758(3) -0.02880(16)
C12 C 0.2922(5) -0.0395(3) 0.14310(17)
H3 H 0.3017 -0.0925 0.1770
B2 B 0.2805(5) 0.2652(3) 0.07864(16)
C13 C 0.1293(5) 0.4014(3) 0.54399(15)
C14 C 0.2723(4) -0.0724(3) 0.07671(16)
C15 C 0.3871(4) 0.1692(3) 0.33347(14)
H4 H 0.3910 0.2564 0.3307
H5 H 0.4839 0.1578 0.3662
C16 C -0.1343(5) 0.2861(3) 0.56128(16)
C17 C 0.0994(5) 0.0041(3) 0.33467(15)
H6 H 0.1196 -0.0501 0.3012
C18 C -0.0114(5) 0.3877(3) 0.58363(17)
H7 H -0.0208 0.4395 0.6198
C19 C 0.2578(6) 0.4981(3) 0.0055(2)
H8 H 0.2714 0.4910 0.0527
H9 H 0.1493 0.5291 -0.0067
H10 H 0.3602 0.5531 -0.0073
C20 C 0.2190(5) 0.2246(3) -0.10832(16)
C21 C 0.6078(5) 0.1423(4) 0.25865(17)
H11 H 0.6224 0.1036 0.2162
H12 H 0.6727 0.1034 0.2927
C22 C 0.2623(6) -0.2004(3) 0.0485(2)
H13 H 0.2753 -0.2535 0.0841
H14 H 0.3577 -0.2023 0.0204
H15 H 0.1474 -0.2273 0.0230
C23 C 0.2231(5) -0.0453(3) -0.07580(17)
H16 H 0.2088 -0.0150 -0.1193
H17 H 0.1191 -0.1055 -0.0695
H18 H 0.3296 -0.0815 -0.0714
C24 C 0.2900(6) 0.4987(3) 0.55003(19)
H19 H 0.3655 0.4854 0.5157
H20 H 0.3565 0.4977 0.5927
H21 H 0.2531 0.5764 0.5457
C25 C -0.1920(5) -0.1204(3) 0.36183(18)
H22 H -0.1660 -0.1747 0.3274
H23 H -0.3056 -0.0959 0.3494
H24 H -0.1986 -0.1615 0.4025
C26 C 0.2259(6) 0.3467(4) -0.09774(18)
H25 H 0.2182 0.4019 -0.1306
C27 C -0.2957(5) 0.0484(4) 0.47674(19)
H26 H -0.3485 0.0838 0.5125
H27 H -0.2729 -0.0308 0.4879
H28 H -0.3775 0.0405 0.4370
C28 C -0.3032(5) 0.2437(5) 0.5923(2)
H29 H -0.3108 0.2987 0.6293
H30 H -0.3024 0.1633 0.6075
H31 H -0.4056 0.2416 0.5602
C29 C 0.1958(7) 0.1605(5) -0.17611(17)
H32 H 0.1884 0.2190 -0.2093
H33 H 0.0866 0.1004 -0.1807
H34 H 0.2973 0.1211 -0.1817
C30 C 0.6971(6) 0.2743(4) 0.2598(3)
H35 H 0.6345 0.3144 0.2256
H36 H 0.6862 0.3140 0.3024
C31 C 0.8898(7) 0.2893(7) 0.2487(3)
H37 H 0.9399 0.3747 0.2487
H38 H 0.9015 0.2498 0.2067
H39 H 0.9535 0.2531 0.2835
Cl1 Cl -0.5338(3) 0.4132(2) 0.73134(12)
Cl2 Cl -0.1813(4) 0.3702(2) 0.78082(11)
C32 C -0.3278(11) 0.4740(6) 0.7635(5)
H40 H -0.3365 0.5201 0.8044
H41 H -0.2739 0.5314 0.7331
loop_
_geom_bond_atom_site_label_1
_geom_bond_atom_site_label_2
_geom_bond_site_symmetry_1
_geom_bond_site_symmetry_2
N1 C4 1_555 1_555
F1 B1 1_555 1_555
N2 C2 1_555 1_555
F2 B1 1_555 1_555
N3 C1 1_555 1_555
F3 B2 1_555 1_555
N4 C3 1_555 1_555
F4 B2 1_555 1_555
N5 C9 1_555 1_555
C1 C8 1_555 1_555
C2 C5 1_555 1_555
C3 C8 1_555 1_555
C4 C5 1_555 1_555
C5 C23 1_555 1_555
C6 N1 1_555 1_555
C7 N3 1_555 1_555
C8 C27 1_555 1_555
C9 C6 1_555 1_555
H1 C9 1_555 1_555
H2 C9 1_555 1_555
C10 C1 1_555 1_555
B1 N3 1_555 1_555
C11 N2 1_555 1_555
C12 C6 1_555 1_555
H3 C12 1_555 1_555
B2 N1 1_555 1_555
C13 N4 1_555 1_555
C14 C4 1_555 1_555
C15 N5 1_555 1_555
H4 C15 1_555 1_555
H5 C15 1_555 1_555
C16 C3 1_555 1_555
C17 C7 1_555 1_555
H6 C17 1_555 1_555
C18 C13 1_555 1_555
H7 C18 1_555 1_555
C19 C11 1_555 1_555
H8 C19 1_555 1_555
H9 C19 1_555 1_555
H10 C19 1_555 1_555
C20 C2 1_555 1_555
C21 N5 1_555 1_555
H11 C21 1_555 1_555
H12 C21 1_555 1_555
C22 C14 1_555 1_555
H13 C22 1_555 1_555
H14 C22 1_555 1_555
H15 C22 1_555 1_555
C23 H16 1_555 1_555
H17 C23 1_555 1_555
H18 C23 1_555 1_555
C24 C13 1_555 1_555
H19 C24 1_555 1_555
H20 C24 1_555 1_555
H21 C24 1_555 1_555
C25 C10 1_555 1_555
H22 C25 1_555 1_555
H23 C25 1_555 1_555
H24 C25 1_555 1_555
C26 C11 1_555 1_555
H25 C26 1_555 1_555
C27 H26 1_555 1_555
H27 C27 1_555 1_555
H28 C27 1_555 1_555
C28 C16 1_555 1_555
H29 C28 1_555 1_555
H30 C28 1_555 1_555
H31 C28 1_555 1_555
C29 C20 1_555 1_555
H32 C29 1_555 1_555
H33 C29 1_555 1_555
H34 C29 1_555 1_555
C30 C21 1_555 1_555
H35 C30 1_555 1_555
H36 C30 1_555 1_555
C31 C30 1_555 1_555
H37 C31 1_555 1_555
H38 C31 1_555 1_555
H39 C31 1_555 1_555
Cl1 C32 1_555 1_555
Cl2 C32 1_555 1_555
C32 H40 1_555 1_555
H41 C32 1_555 1_555
N2 B2 1_555 1_555
N4 B1 1_555 1_555
C7 C15 1_555 1_555
C10 C17 1_555 1_555
C12 C14 1_555 1_555
C16 C18 1_555 1_555
C20 C26 1_555 1_555

#END
