
#######################################################################
#
#                 Cambridge Crystallographic Data Centre
#                                CCDC 
#
#######################################################################
#
# If this CIF has been generated from an entry in the Cambridge 
# Structural Database, then it will include bibliographic, chemical, 
# crystal, experimental, refinement or atomic coordinate data resulting 
# from the CCDC's data processing and validation procedures.
#
#######################################################################

data_BERRIZ
_chemical_compound_source        'Aspergillus terreus'
_chemical_name_common            'Territrem B'
_chemical_formula_moiety         'C29 H34 O9'
_chemical_name_systematic        
(4a,R,6aR,12aS,12bS)-4a,6,6a,12,12a,12b-Hexahydro-4a,12a-dihydroxy-4,4,6a,12b-tetramethyl-9-(3,4,5-trimethoxyphenyl)-4H,11H-naphtho(2,1-b)pyrano(3,4-e)pyran-1,11(5H)-dione
_symmetry_cell_setting           orthorhombic
_symmetry_space_group_name_H-M   'P 21 21 21'
_symmetry_Int_Tables_number      19
_space_group_name_Hall           'P 2ac 2ab'
loop_
_symmetry_equiv_pos_site_id
_symmetry_equiv_pos_as_xyz
1 x,y,z
2 1/2+x,1/2-y,-z
3 -x,1/2+y,1/2-z
4 1/2-x,-y,1/2+z
_cell_length_a                   8.681(2)
_cell_length_b                   12.477(2)
_cell_length_c                   25.314(2)
_cell_angle_alpha                90
_cell_angle_beta                 90
_cell_angle_gamma                90
_cell_volume                     2741.83
_exptl_crystal_colour            colorless
_cell_formula_units_Z            4
loop_
_atom_site_label
_atom_site_type_symbol
_atom_site_fract_x
_atom_site_fract_y
_atom_site_fract_z
O1 O 1.30890 0.52050 1.15260
O2 O 1.51720 0.30960 1.10940
O3 O 0.52960 0.68570 0.80880
O4 O 0.48570 0.50190 0.75980
O5 O 0.65320 0.32470 0.78050
O6 O 0.93500 0.60780 0.94620
O7 O 0.99780 0.70300 1.01870
O8 O 1.30060 0.40990 0.96020
O9 O 1.27740 0.39920 1.06490
C1 C 0.83110 0.51760 0.87050
C2 C 0.74590 0.60810 0.86060
C3 C 0.62780 0.60540 0.82220
C4 C 0.59520 0.50510 0.79620
C5 C 0.68950 0.41640 0.80850
C6 C 0.81190 0.42410 0.84370
C7 C 1.02620 0.63280 0.99120
C8 C 0.95500 0.52320 0.91050
C9 C 1.07140 0.45610 0.91680
C10 C 1.17720 0.47540 0.95850
C11 C 1.16360 0.56000 0.99430
C12 C 1.27860 0.58250 1.03730
C13 C 1.38310 0.48360 1.04720
C14 C 1.44180 0.44700 0.99240
C15 C 1.54470 0.34240 0.99690
C16 C 1.67830 0.36700 1.03370
C17 C 1.61530 0.39280 1.08920
C18 C 1.51310 0.50120 1.08740
C19 C 1.44660 0.51020 1.14500
C20 C 1.57360 0.50840 1.18470
C21 C 1.70790 0.46220 1.17880
C22 C 1.75900 0.40750 1.13000
C23 C 1.90190 0.45760 1.10360
C24 C 1.80050 0.29080 1.15210
C25 C 1.60640 0.60130 1.07750
C26 C 1.52080 0.52750 0.95560
C27 C 0.54590 0.78550 0.83440
C28 C 0.33830 0.46490 0.77950
C29 C 0.73400 0.22710 0.79090
H1 H 1.54500 0.28200 1.13500
H2 H 1.27300 0.39100 1.10100
H3 H 0.80800 0.65500 0.85400
H4 H 0.86200 0.35600 0.85500
H5 H 1.09400 0.39000 0.89500
H6 H 1.55500 0.52100 1.21200
H7 H 1.75800 0.42700 1.20400
H8 H 1.35000 0.64900 1.03100
H9 H 1.23600 0.60200 1.06700
H10 H 1.48900 0.28000 0.99900
H11 H 1.58200 0.30600 0.96500
H12 H 1.73200 0.42500 1.02000
H13 H 1.74900 0.30600 1.03500
H14 H 1.94000 0.42500 1.07500
H15 H 1.99100 0.45800 1.12700
H16 H 1.88300 0.52800 1.09300
H17 H 1.89800 0.30600 1.18600
H18 H 1.83500 0.24700 1.11400
H19 H 1.71100 0.25300 1.11600
H20 H 1.65900 0.59400 1.04200
H21 H 1.69500 0.61000 1.10900
H22 H 1.56400 0.64800 1.07800
H23 H 1.46400 0.59200 0.94000
H24 H 1.55400 0.49100 0.92400
H25 H 1.60800 0.55800 0.97100
H26 H 0.66100 0.80500 0.83300
H27 H 0.52400 0.77800 0.86700
H28 H 0.50100 0.84000 0.82000
H29 H 0.33600 0.38300 0.78400
H30 H 0.30800 0.48800 0.81300
H31 H 0.25000 0.47600 0.75600
H32 H 0.83800 0.22200 0.78900
H33 H 0.68900 0.16400 0.77100
H34 H 0.71900 0.20500 0.82400
loop_
_geom_bond_atom_site_label_1
_geom_bond_atom_site_label_2
_geom_bond_site_symmetry_1
_geom_bond_site_symmetry_2
O1 C19 1_555 1_555
O2 C17 1_555 1_555
O3 C3 1_555 1_555
O4 C4 1_555 1_555
O5 C5 1_555 1_555
O6 C7 1_555 1_555
O7 C7 1_555 1_555
O8 C10 1_555 1_555
O9 C13 1_555 1_555
C1 C2 1_555 1_555
C2 C3 1_555 1_555
C3 C4 1_555 1_555
C4 C5 1_555 1_555
C5 C6 1_555 1_555
C6 C1 1_555 1_555
C7 C11 1_555 1_555
C8 O6 1_555 1_555
C9 C8 1_555 1_555
C10 C9 1_555 1_555
C11 C10 1_555 1_555
C12 C11 1_555 1_555
C13 C12 1_555 1_555
C14 O8 1_555 1_555
C15 C14 1_555 1_555
C16 C15 1_555 1_555
C17 C16 1_555 1_555
C18 C13 1_555 1_555
C19 C18 1_555 1_555
C20 C19 1_555 1_555
C21 C20 1_555 1_555
C22 C17 1_555 1_555
C23 C22 1_555 1_555
C24 C22 1_555 1_555
C25 C18 1_555 1_555
C26 C14 1_555 1_555
C27 O3 1_555 1_555
C28 O4 1_555 1_555
C29 O5 1_555 1_555
H1 O2 1_555 1_555
H2 O9 1_555 1_555
H3 C2 1_555 1_555
H4 C6 1_555 1_555
H5 C9 1_555 1_555
H6 C20 1_555 1_555
H7 C21 1_555 1_555
H8 C12 1_555 1_555
H9 C12 1_555 1_555
H10 C15 1_555 1_555
H11 C15 1_555 1_555
H12 C16 1_555 1_555
H13 C16 1_555 1_555
H14 C23 1_555 1_555
H15 C23 1_555 1_555
H16 C23 1_555 1_555
H17 C24 1_555 1_555
H18 C24 1_555 1_555
H19 C24 1_555 1_555
H20 C25 1_555 1_555
H21 C25 1_555 1_555
H22 C25 1_555 1_555
H23 C26 1_555 1_555
H24 C26 1_555 1_555
H25 C26 1_555 1_555
H26 C27 1_555 1_555
H27 C27 1_555 1_555
H28 C27 1_555 1_555
H29 C28 1_555 1_555
H30 C28 1_555 1_555
H31 C28 1_555 1_555
H32 C29 1_555 1_555
H33 C29 1_555 1_555
H34 C29 1_555 1_555
C1 C8 1_555 1_555
C13 C14 1_555 1_555
C17 C18 1_555 1_555
C21 C22 1_555 1_555

#END
