
#######################################################################
#
#                 Cambridge Crystallographic Data Centre
#                                CCDC 
#
#######################################################################
#
# If this CIF has been generated from an entry in the Cambridge 
# Structural Database, then it will include bibliographic, chemical, 
# crystal, experimental, refinement or atomic coordinate data resulting 
# from the CCDC's data processing and validation procedures.
#
#######################################################################

data_BERRAU
_chemical_formula_moiety         'C54 H68 Si6'
_chemical_name_systematic        
1,2,3,4,5,6-hexakis(2,4,6-trimethylphenyl)tricyclo[2.2.0.0^2,5^]hexasilane
_symmetry_cell_setting           triclinic
_symmetry_space_group_name_H-M   'P -1'
_symmetry_Int_Tables_number      2
_space_group_name_Hall           '-P 1'
loop_
_symmetry_equiv_pos_site_id
_symmetry_equiv_pos_as_xyz
1 x,y,z
2 -x,-y,-z
_cell_length_a                   12.508(4)
_cell_length_b                   13.417(4)
_cell_length_c                   16.765(4)
_cell_angle_alpha                93.629(4)
_cell_angle_beta                 91.851(4)
_cell_angle_gamma                116.420(7)
_cell_volume                     2508.83
_exptl_crystal_colour            yellow
_exptl_crystal_description       prism
_cell_formula_units_Z            2
loop_
_atom_site_label
_atom_site_type_symbol
_atom_site_fract_x
_atom_site_fract_y
_atom_site_fract_z
Si1 Si 1.11979(10) 0.86822(9) 0.15178(6)
Si2 Si 0.99249(10) 0.64863(9) 0.26361(6)
Si3 Si 0.92831(9) 0.72236(9) 0.15838(6)
Si4 Si 1.10613(9) 0.84615(9) 0.28942(6)
Si5 Si 0.81881(10) 0.63930(9) 0.32329(7)
Si6 Si 0.90572(9) 0.81590(9) 0.27604(6)
C1 C 0.8052(3) 0.6466(3) 0.0764(2)
C2 C 1.0511(3) 0.5405(3) 0.2509(2)
C3 C 1.0776(3) 0.5068(3) 0.1754(2)
C4 C 0.7611(3) 0.6041(3) 0.4250(2)
C5 C 0.8479(4) 0.9235(3) 0.2772(2)
C6 C 1.2365(3) 0.8545(3) 0.0896(2)
C7 C 0.6871(3) 0.6599(4) -0.0369(2)
H1 H 0.6656 0.7048 -0.0691
C8 C 0.6626(3) 0.4831(3) -0.0045(2)
H2 H 0.6252 0.4043 -0.0155
C9 C 1.2230(3) 0.9350(3) 0.3725(2)
C10 C 0.7733(3) 0.7115(3) 0.0268(2)
C11 C 0.7450(3) 0.5293(3) 0.0610(2)
C12 C 1.1134(4) 0.4224(4) 0.1696(3)
H3 H 1.1285 0.3988 0.1184
C13 C 1.4134(4) 0.8511(3) -0.0098(3)
C14 C 1.3984(4) 1.0632(4) 0.4985(3)
C15 C 0.6323(3) 0.5455(4) -0.0542(2)
C16 C 1.3246(4) 1.0356(3) 0.3577(2)
C17 C 0.7615(5) 1.0856(4) 0.2697(2)
C18 C 0.9180(4) 1.0347(3) 0.3105(2)
C19 C 1.2100(4) 0.9039(3) 0.4517(2)
C20 C 0.7434(4) 0.6815(4) 0.4786(2)
C21 C 1.0682(4) 0.4905(4) 0.3180(2)
C22 C 1.2967(4) 0.9683(3) 0.5122(2)
H4 H 1.2854 0.9460 0.5652
C23 C 1.3306(4) 0.8342(3) 0.1205(2)
C24 C 1.3180(4) 0.8652(3) -0.0407(2)
H5 H 1.3128 0.8746 -0.0962
C25 C 1.0737(4) 0.5597(4) 0.0990(2)
H6 H 1.0861 0.5172 0.0536
H7 H 1.1369 0.6368 0.1032
H8 H 0.9956 0.5594 0.0908
C26 C 1.1233(4) 0.8734(4) -0.0336(3)
H9 H 1.1371 0.8852 -0.0902
H10 H 1.1136 0.9360 -0.0074
H11 H 1.0507 0.8037 -0.0295
C27 C 1.2288(4) 0.8660(3) 0.0069(2)
C28 C 0.7330(4) 0.8951(3) 0.2443(2)
C29 C 1.3398(4) 0.8076(4) 0.2066(3)
H12 H 1.4059 0.7879 0.2138
H13 H 1.2648 0.7447 0.2184
H14 H 1.3547 0.8732 0.2430
C30 C 1.1279(4) 0.3714(4) 0.2352(3)
C31 C 1.4178(4) 0.8345(3) 0.0699(2)
H15 H 1.4820 0.8227 0.0916
C32 C 1.1064(4) 0.4083(4) 0.3094(3)
H16 H 1.1183 0.3762 0.3557
C33 C 0.6828(4) 0.6446(4) 0.5464(3)
H17 H 0.6715 0.6970 0.5815
C34 C 0.7837(4) 0.8011(4) 0.4620(3)
H18 H 0.7409 0.8041 0.4129
H19 H 0.8700 0.8364 0.4552
H20 H 0.7667 0.8409 0.5069
C35 C 0.6911(4) 0.9754(4) 0.2409(2)
H21 H 0.6125 0.9540 0.2184
C36 C 0.6494(4) 0.7759(4) 0.2152(3)
H22 H 0.6898 0.7466 0.1781
H23 H 0.5777 0.7730 0.1874
H24 H 0.6263 0.7306 0.2610
C37 C 1.1002(4) 0.8059(4) 0.4753(3)
H25 H 1.1241 0.7579 0.5052
H26 H 1.0506 0.7632 0.4271
H27 H 1.0543 0.8330 0.5090
C38 C 0.8723(4) 1.1120(4) 0.3043(3)
H28 H 0.9209 1.1870 0.3252
C39 C 1.0375(4) 1.0696(4) 0.3549(3)
H29 H 1.0952 1.0685 0.3171
H30 H 1.0291 1.0177 0.3956
H31 H 1.0660 1.1453 0.3809
C40 C 0.7148(4) 0.4926(4) 0.4437(3)
C41 C 0.5444(4) 0.4927(4) -0.1256(3)
H32 H 0.5296 0.5500 -0.1503
H33 H 0.4691 0.4356 -0.1084
H34 H 0.5772 0.4580 -0.1646
C42 C 0.8287(4) 0.8371(3) 0.0402(2)
H35 H 0.9093 0.8694 0.0208
H36 H 0.8334 0.8592 0.0976
H37 H 0.7793 0.8645 0.0110
C43 C 1.5109(4) 0.8533(4) -0.0626(3)
H38 H 1.5511 0.9266 -0.0836
H39 H 1.4752 0.7953 -0.1072
H40 H 1.5694 0.8393 -0.0309
C44 C 1.4092(4) 1.0955(4) 0.4208(3)
H41 H 1.4775 1.1615 0.4101
C45 C 0.7609(4) 0.4489(3) 0.1134(3)
H42 H 0.6950 0.4204 0.1489
H43 H 0.8371 0.4876 0.1456
H44 H 0.7608 0.3865 0.0797
C46 C 0.6552(4) 0.4602(4) 0.5130(3)
H45 H 0.6253 0.3846 0.5250
C47 C 1.4909(4) 1.1325(4) 0.5660(3)
H46 H 1.4737 1.1933 0.5871
H47 H 1.5708 1.1640 0.5455
H48 H 1.4878 1.0851 0.6088
C48 C 1.1669(5) 0.2802(4) 0.2263(3)
H49 H 1.1977 0.2714 0.2785
H50 H 1.2300 0.3001 0.1886
H51 H 1.0985 0.2099 0.2061
C49 C 0.6380(4) 0.5359(4) 0.5655(3)
C50 C 0.7211(5) 0.4033(4) 0.3871(3)
H52 H 0.7194 0.3427 0.4175
H53 H 0.7955 0.4356 0.3596
H54 H 0.6525 0.3738 0.3475
C51 C 1.3441(4) 1.0823(4) 0.2769(3)
H55 H 1.4159 1.1543 0.2811
H56 H 1.2746 1.0927 0.2592
H57 H 1.3544 1.0301 0.2380
C52 C 1.0558(5) 0.5293(5) 0.4025(3)
H58 H 1.0552 0.4751 0.4392
H59 H 0.9808 0.5356 0.4045
H60 H 1.1233 0.6023 0.4184
C53 C 0.5695(5) 0.4958(5) 0.6393(3)
H61 H 0.6160 0.4741 0.6764
H62 H 0.4924 0.4314 0.6236
H63 H 0.5560 0.5562 0.6656
C54 C 0.7158(6) 1.1724(5) 0.2679(3)
H64 H 0.7024 1.1927 0.3226
H65 H 0.6404 1.1419 0.2348
H66 H 0.7750 1.2389 0.2454
H67 H 0.726(3) 0.576(3) 0.274(2)
H68 H 1.118(3) 0.982(3) 0.128(2)
loop_
_geom_bond_atom_site_label_1
_geom_bond_atom_site_label_2
_geom_bond_site_symmetry_1
_geom_bond_site_symmetry_2
Si1 Si3 1_555 1_555
Si2 Si3 1_555 1_555
Si3 Si6 1_555 1_555
Si4 Si1 1_555 1_555
Si5 Si2 1_555 1_555
Si6 Si4 1_555 1_555
C1 Si3 1_555 1_555
C2 Si2 1_555 1_555
C3 C2 1_555 1_555
C4 Si5 1_555 1_555
C5 Si6 1_555 1_555
C6 Si1 1_555 1_555
C7 H1 1_555 1_555
C8 H2 1_555 1_555
C9 Si4 1_555 1_555
C10 C1 1_555 1_555
C11 C1 1_555 1_555
C12 C3 1_555 1_555
H3 C12 1_555 1_555
C13 C24 1_555 1_555
C14 C22 1_555 1_555
C15 C7 1_555 1_555
C16 C9 1_555 1_555
C17 C35 1_555 1_555
C18 C5 1_555 1_555
C19 C9 1_555 1_555
C20 C4 1_555 1_555
C21 C2 1_555 1_555
C22 C19 1_555 1_555
H4 C22 1_555 1_555
C23 C6 1_555 1_555
C24 H5 1_555 1_555
C25 C3 1_555 1_555
H6 C25 1_555 1_555
H7 C25 1_555 1_555
H8 C25 1_555 1_555
C26 H9 1_555 1_555
H10 C26 1_555 1_555
H11 C26 1_555 1_555
C27 C6 1_555 1_555
C28 C5 1_555 1_555
C29 C23 1_555 1_555
H12 C29 1_555 1_555
H13 C29 1_555 1_555
H14 C29 1_555 1_555
C30 C12 1_555 1_555
C31 C13 1_555 1_555
H15 C31 1_555 1_555
C32 C21 1_555 1_555
H16 C32 1_555 1_555
C33 C20 1_555 1_555
H17 C33 1_555 1_555
C34 C20 1_555 1_555
H18 C34 1_555 1_555
H19 C34 1_555 1_555
H20 C34 1_555 1_555
C35 C28 1_555 1_555
H21 C35 1_555 1_555
C36 C28 1_555 1_555
H22 C36 1_555 1_555
H23 C36 1_555 1_555
H24 C36 1_555 1_555
C37 C19 1_555 1_555
H25 C37 1_555 1_555
H26 C37 1_555 1_555
H27 C37 1_555 1_555
C38 C17 1_555 1_555
H28 C38 1_555 1_555
C39 C18 1_555 1_555
H29 C39 1_555 1_555
H30 C39 1_555 1_555
H31 C39 1_555 1_555
C40 C4 1_555 1_555
C41 C15 1_555 1_555
H32 C41 1_555 1_555
H33 C41 1_555 1_555
H34 C41 1_555 1_555
C42 C10 1_555 1_555
H35 C42 1_555 1_555
H36 C42 1_555 1_555
H37 C42 1_555 1_555
C43 C13 1_555 1_555
H38 C43 1_555 1_555
H39 C43 1_555 1_555
H40 C43 1_555 1_555
C44 C14 1_555 1_555
H41 C44 1_555 1_555
C45 C11 1_555 1_555
H42 C45 1_555 1_555
H43 C45 1_555 1_555
H44 C45 1_555 1_555
C46 C40 1_555 1_555
H45 C46 1_555 1_555
C47 C14 1_555 1_555
H46 C47 1_555 1_555
H47 C47 1_555 1_555
H48 C47 1_555 1_555
C48 C30 1_555 1_555
H49 C48 1_555 1_555
H50 C48 1_555 1_555
H51 C48 1_555 1_555
C49 C33 1_555 1_555
C50 C40 1_555 1_555
H52 C50 1_555 1_555
H53 C50 1_555 1_555
H54 C50 1_555 1_555
C51 C16 1_555 1_555
H55 C51 1_555 1_555
H56 C51 1_555 1_555
H57 C51 1_555 1_555
C52 C21 1_555 1_555
H58 C52 1_555 1_555
H59 C52 1_555 1_555
H60 C52 1_555 1_555
C53 C49 1_555 1_555
H61 C53 1_555 1_555
H62 C53 1_555 1_555
H63 C53 1_555 1_555
C54 C17 1_555 1_555
H64 C54 1_555 1_555
H65 C54 1_555 1_555
H66 C54 1_555 1_555
H67 Si5 1_555 1_555
H68 Si1 1_555 1_555
Si2 Si4 1_555 1_555
Si5 Si6 1_555 1_555
C7 C10 1_555 1_555
C8 C11 1_555 1_555
C8 C15 1_555 1_555
C16 C44 1_555 1_555
C18 C38 1_555 1_555
C23 C31 1_555 1_555
C24 C27 1_555 1_555
C26 C27 1_555 1_555
C30 C32 1_555 1_555
C46 C49 1_555 1_555

#END
