
#######################################################################
#
#                 Cambridge Crystallographic Data Centre
#                                CCDC 
#
#######################################################################
#
# If this CIF has been generated from an entry in the Cambridge 
# Structural Database, then it will include bibliographic, chemical, 
# crystal, experimental, refinement or atomic coordinate data resulting 
# from the CCDC's data processing and validation procedures.
#
#######################################################################

data_BERREY
_chemical_formula_moiety         'C54 H66 Si6,2(C7 H8)'
_chemical_name_systematic        
'1,2,3,4,5,6-hexakis(2,4,6-trimethylphenyl)tetracyclo[2.2.0.0^2,6^.0^3,5^]hexasilane toluene solvate'
_symmetry_cell_setting           triclinic
_symmetry_space_group_name_H-M   'P -1'
_symmetry_Int_Tables_number      2
_space_group_name_Hall           '-P 1'
loop_
_symmetry_equiv_pos_site_id
_symmetry_equiv_pos_as_xyz
1 x,y,z
2 -x,-y,-z
_cell_length_a                   14.367(3)
_cell_length_b                   15.608(3)
_cell_length_c                   16.258(3)
_cell_angle_alpha                108.449(3)
_cell_angle_beta                 100.857(2)
_cell_angle_gamma                109.399(4)
_cell_volume                     3081.54
_exptl_crystal_colour            yellow
_exptl_crystal_description       prism
_cell_formula_units_Z            2
loop_
_atom_site_label
_atom_site_type_symbol
_atom_site_fract_x
_atom_site_fract_y
_atom_site_fract_z
Si1 Si 0.69575(5) 0.76957(5) 0.45445(4)
Si2 Si 0.73396(5) 0.71934(5) 0.25109(4)
Si3 Si 0.54171(5) 0.64451(5) 0.33509(5)
Si4 Si 0.64033(5) 0.56988(5) 0.26357(4)
Si5 Si 0.79332(5) 0.69309(5) 0.38340(4)
Si6 Si 0.63484(5) 0.79322(5) 0.32195(4)
C1 C 0.78614(18) 0.73795(17) 0.15698(16)
C2 C 0.71481(19) 0.69966(18) 0.06767(17)
C3 C 0.73311(19) 0.78722(18) 0.63779(17)
C4 C 0.51866(19) 0.91166(19) 0.35300(18)
C5 C 0.3292(2) 0.54916(19) 0.22233(18)
C6 C 0.59314(18) 0.89370(17) 0.31354(16)
C7 C 0.7518(2) 0.7137(2) -0.00233(18)
H1 H 0.7034 0.6882 -0.0621
C8 C 0.60235(19) 0.43455(17) 0.19006(17)
C9 C 0.74963(18) 0.94119(17) 0.62277(16)
C10 C 1.00944(19) 0.79397(18) 0.48804(16)
C11 C 0.92478(19) 0.69955(18) 0.43802(16)
C12 C 0.39674(19) 0.58306(18) 0.31248(18)
C13 C 0.6384(2) 0.95373(18) 0.26981(18)
C14 C 0.3531(2) 0.56574(19) 0.37971(19)
C15 C 0.72843(18) 0.83971(18) 0.58146(16)
C16 C 0.5224(2) 0.35888(19) 0.19757(18)
C17 C 0.8930(2) 0.79056(19) 0.17318(18)
C18 C 0.7181(2) 0.68015(19) 0.59907(19)
H2 H 0.7099 0.6531 0.6454
H3 H 0.7791 0.6767 0.5822
H4 H 0.6554 0.6412 0.5446
C19 C 0.9262(2) 0.8019(2) 0.10058(19)
H5 H 0.9987 0.8368 0.1118
C20 C 0.9425(2) 0.61322(19) 0.42695(18)
C21 C 0.8573(2) 0.76390(19) 0.01248(18)
C22 C 0.2452(2) 0.51585(19) 0.3555(2)
H6 H 0.2162 0.5046 0.4010
C23 C 0.7544(2) 0.8359(2) 0.73173(17)
H7 H 0.7561 0.7999 0.7690
C24 C 0.7540(2) 1.00480(19) 0.56839(18)
H8 H 0.7698 1.0728 0.6096
H9 H 0.6864 0.9769 0.5204
H10 H 0.8086 1.0057 0.5401
C25 C 0.77320(19) 0.9354(2) 0.77281(17)
C26 C 0.77064(19) 0.98657(19) 0.71707(17)
H11 H 0.7836 1.0548 0.7441
C27 C 0.48923(19) 0.98643(19) 0.34616(19)
H12 H 0.4389 0.9981 0.3729
C28 C 0.1789(2) 0.48217(19) 0.2675(2)
C29 C 0.2218(2) 0.4991(2) 0.2015(2)
H13 H 0.1769 0.4761 0.1408
C30 C 0.5314(2) 1.04446(19) 0.30128(19)
C31 C 0.6057(2) 1.02687(19) 0.26422(19)
H14 H 0.6356 1.0662 0.2338
C32 C 0.9935(2) 0.88826(18) 0.50869(19)
H15 H 1.0615 0.9459 0.5378
H16 H 0.9522 0.8922 0.5502
H17 H 0.9564 0.8881 0.4514
C33 C 0.6500(2) 0.40854(19) 0.12394(18)
C34 C 0.5991(2) 0.6444(2) 0.04629(19)
H18 H 0.5626 0.6275 -0.0179
H19 H 0.5743 0.6866 0.0866
H20 H 0.5852 0.5833 0.0562
C35 C 1.0445(2) 0.6243(2) 0.4616(2)
H21 H 1.0566 0.5664 0.4539
C36 C 0.6126(2) 0.3088(2) 0.0637(2)
H22 H 0.6441 0.2917 0.0183
C37 C 1.1282(2) 0.7162(2) 0.5065(2)
C38 C 0.8960(3) 0.7790(2) -0.0642(2)
H23 H 0.9024 0.8439 -0.0632
H24 H 0.8464 0.7262 -0.1233
H25 H 0.9644 0.7769 -0.0559
C39 C 1.1099(2) 0.8011(2) 0.52042(17)
H26 H 1.1669 0.8649 0.5525
C40 C 0.4209(2) 0.5990(2) 0.4767(2)
H27 H 0.3766 0.5835 0.5137
H28 H 0.4637 0.6710 0.5028
H29 H 0.4665 0.5643 0.4766
C41 C 0.7416(2) 0.4847(2) 0.1169(2)
H30 H 0.7175 0.5238 0.0887
H31 H 0.7749 0.4508 0.0790
H32 H 0.7922 0.5290 0.1784
C42 C 0.4878(2) 0.2603(2) 0.1361(2)
H33 H 0.4330 0.2096 0.1410
C43 C 0.4982(2) 1.1246(2) 0.2942(3)
H34 H 0.4350 1.0953 0.2410
H35 H 0.5543 1.1753 0.2868
H36 H 0.4839 1.1555 0.3501
C44 C 0.9729(2) 0.8376(3) 0.2675(2)
H37 H 1.0430 0.8543 0.2623
H38 H 0.9593 0.7907 0.2968
H39 H 0.9685 0.8983 0.3048
C45 C 0.5312(3) 0.2345(2) 0.0684(2)
C46 C 0.3701(2) 0.5661(2) 0.14733(19)
H40 H 0.3117 0.5354 0.0898
H41 H 0.4196 0.5362 0.1392
H42 H 0.4054 0.6378 0.1642
C47 C 0.7226(3) 0.9422(2) 0.2313(2)
H43 H 0.6930 0.8787 0.1774
H44 H 0.7777 0.9433 0.2780
H45 H 0.7520 0.9971 0.2134
C48 C 0.7959(3) 0.9856(2) 0.8745(2)
H46 H 0.8694 1.0049 0.9068
H47 H 0.7512 0.9396 0.8948
H48 H 0.7820 1.0451 0.8883
C49 C 0.4729(2) 0.3802(2) 0.2712(2)
H49 H 0.5267 0.4321 0.3287
H50 H 0.4401 0.3194 0.2802
H51 H 0.4199 0.4029 0.2525
C50 C 1.2382(2) 0.7263(3) 0.5407(3)
H52 H 1.2364 0.6691 0.5545
H53 H 1.2787 0.7878 0.5964
H54 H 1.2711 0.7285 0.4933
C51 C 0.8560(2) 0.5104(2) 0.3789(2)
H55 H 0.8338 0.4922 0.3126
H56 H 0.7968 0.5086 0.4010
H57 H 0.8808 0.4630 0.3916
C52 C 0.0616(2) 0.4280(3) 0.2430(3)
H58 H 0.0263 0.4517 0.2035
H59 H 0.0429 0.4409 0.2993
H60 H 0.0399 0.3563 0.2105
C53 C 0.4909(3) 0.1273(2) 0.0011(3)
H61 H 0.5050 0.1253 -0.0560
H62 H 0.4155 0.0936 -0.0119
H63 H 0.5262 0.0935 0.0277
C54 C 0.4699(2) 0.8514(2) 0.4024(2)
H64 H 0.4275 0.8801 0.4320
H65 H 0.5250 0.8523 0.4489
H66 H 0.4255 0.7826 0.3582
C55 C 0.9657(3) 0.0689(3) 0.1947(3)
H67 H 1.0052 0.0308 0.1954
C56 C 0.8484(3) 0.1802(2) 0.1926(2)
C57 C 0.8317(2) 0.1018(2) 0.1155(2)
H68 H 0.7806 0.0854 0.0598
C58 C 0.9261(3) 0.2046(2) 0.2730(2)
H69 H 0.9382 0.2587 0.3277
C59 C 0.8894(3) 0.0443(3) 0.1171(3)
H70 H 0.8746 -0.0121 0.0633
C60 C 0.9853(3) 0.1511(3) 0.2736(3)
H71 H 1.0399 0.1701 0.3280
C61 C 0.7867(3) 0.2402(3) 0.1933(3)
H72 H 0.8263 0.3005 0.1863
H73 H 0.7727 0.2588 0.2517
H74 H 0.7204 0.2008 0.1425
C62 C 0.1447(6) 0.7044(5) 0.0311(4)
H75 H 0.1445 0.7067 -0.0267
C63 C 0.0591(5) 0.6465(5) 0.0400(4)
H76 H -0.0018 0.6067 -0.0125
C64 C 0.2352(5) 0.7622(4) 0.1080(5)
H77 H 0.2980 0.8047 0.1046
C65 C 0.1357(6) 0.6948(4) 0.2891(4)
H78 H 0.1845 0.6691 0.3106
H79 H 0.0647 0.6518 0.2826
H80 H 0.1554 0.7625 0.3336
C66 C 0.1393(4) 0.6964(3) 0.1965(3)
C67 C 0.0553(4) 0.6419(4) 0.1211(4)
H81 H -0.0077 0.5996 0.1244
C68 C 0.2283(3) 0.7541(3) 0.1913(3)
H82 H 0.2886 0.7905 0.2446
loop_
_geom_bond_atom_site_label_1
_geom_bond_atom_site_label_2
_geom_bond_site_symmetry_1
_geom_bond_site_symmetry_2
Si1 Si3 1_555 1_555
Si2 Si4 1_555 1_555
Si3 Si4 1_555 1_555
Si4 Si5 1_555 1_555
Si5 Si1 1_555 1_555
Si6 Si1 1_555 1_555
C1 Si2 1_555 1_555
C2 C1 1_555 1_555
C3 C15 1_555 1_555
C4 C6 1_555 1_555
C5 C12 1_555 1_555
C6 Si6 1_555 1_555
C7 C2 1_555 1_555
H1 C7 1_555 1_555
C8 Si4 1_555 1_555
C9 C15 1_555 1_555
C10 C11 1_555 1_555
C11 Si5 1_555 1_555
C12 Si3 1_555 1_555
C13 C6 1_555 1_555
C14 C12 1_555 1_555
C15 Si1 1_555 1_555
C16 C8 1_555 1_555
C17 C1 1_555 1_555
C18 C3 1_555 1_555
H2 C18 1_555 1_555
H3 C18 1_555 1_555
H4 C18 1_555 1_555
C19 C17 1_555 1_555
H5 C19 1_555 1_555
C20 C11 1_555 1_555
C21 C7 1_555 1_555
C22 C14 1_555 1_555
H6 C22 1_555 1_555
C23 C3 1_555 1_555
H7 C23 1_555 1_555
C24 C9 1_555 1_555
H8 C24 1_555 1_555
H9 C24 1_555 1_555
H10 C24 1_555 1_555
C25 C23 1_555 1_555
C26 C9 1_555 1_555
H11 C26 1_555 1_555
C27 C4 1_555 1_555
H12 C27 1_555 1_555
C28 C22 1_555 1_555
C29 C5 1_555 1_555
H13 C29 1_555 1_555
C30 C27 1_555 1_555
C31 C13 1_555 1_555
H14 C31 1_555 1_555
C32 C10 1_555 1_555
H15 C32 1_555 1_555
H16 C32 1_555 1_555
H17 C32 1_555 1_555
C33 C8 1_555 1_555
C34 C2 1_555 1_555
H18 C34 1_555 1_555
H19 C34 1_555 1_555
H20 C34 1_555 1_555
C35 C20 1_555 1_555
H21 C35 1_555 1_555
C36 C33 1_555 1_555
H22 C36 1_555 1_555
C37 C35 1_555 1_555
C38 C21 1_555 1_555
H23 C38 1_555 1_555
H24 C38 1_555 1_555
H25 C38 1_555 1_555
C39 C10 1_555 1_555
H26 C39 1_555 1_555
C40 C14 1_555 1_555
H27 C40 1_555 1_555
H28 C40 1_555 1_555
H29 C40 1_555 1_555
C41 C33 1_555 1_555
H30 C41 1_555 1_555
H31 C41 1_555 1_555
H32 C41 1_555 1_555
C42 C16 1_555 1_555
H33 C42 1_555 1_555
C43 C30 1_555 1_555
H34 C43 1_555 1_555
H35 C43 1_555 1_555
H36 C43 1_555 1_555
C44 C17 1_555 1_555
H37 C44 1_555 1_555
H38 C44 1_555 1_555
H39 C44 1_555 1_555
C45 C36 1_555 1_555
C46 C5 1_555 1_555
H40 C46 1_555 1_555
H41 C46 1_555 1_555
H42 C46 1_555 1_555
C47 C13 1_555 1_555
H43 C47 1_555 1_555
H44 C47 1_555 1_555
H45 C47 1_555 1_555
C48 C25 1_555 1_555
H46 C48 1_555 1_555
H47 C48 1_555 1_555
H48 C48 1_555 1_555
C49 C16 1_555 1_555
H49 C49 1_555 1_555
H50 C49 1_555 1_555
H51 C49 1_555 1_555
C50 C37 1_555 1_555
H52 C50 1_555 1_555
H53 C50 1_555 1_555
H54 C50 1_555 1_555
C51 C20 1_555 1_555
H55 C51 1_555 1_555
H56 C51 1_555 1_555
H57 C51 1_555 1_555
C52 C28 1_555 1_555
H58 C52 1_555 1_555
H59 C52 1_555 1_555
H60 C52 1_555 1_555
C53 C45 1_555 1_555
H61 C53 1_555 1_555
H62 C53 1_555 1_555
H63 C53 1_555 1_555
C54 C4 1_555 1_555
H64 C54 1_555 1_555
H65 C54 1_555 1_555
H66 C54 1_555 1_555
C55 H67 1_555 1_555
C56 C57 1_555 1_555
C57 H68 1_555 1_555
C58 C56 1_555 1_555
H69 C58 1_555 1_555
C59 C55 1_555 1_555
H70 C59 1_555 1_555
C60 C55 1_555 1_555
H71 C60 1_555 1_555
C61 C56 1_555 1_555
H72 C61 1_555 1_555
H73 C61 1_555 1_555
H74 C61 1_555 1_555
C62 H75 1_555 1_555
C63 C62 1_555 1_555
H76 C63 1_555 1_555
C64 C62 1_555 1_555
H77 C64 1_555 1_555
C65 H78 1_555 1_555
H79 C65 1_555 1_555
H80 C65 1_555 1_555
C66 C65 1_555 1_555
C67 C63 1_555 1_555
H81 C67 1_555 1_555
C68 C64 1_555 1_555
H82 C68 1_555 1_555
Si2 Si5 1_555 1_555
Si2 Si6 1_555 1_555
Si3 Si6 1_555 1_555
C19 C21 1_555 1_555
C25 C26 1_555 1_555
C28 C29 1_555 1_555
C30 C31 1_555 1_555
C37 C39 1_555 1_555
C42 C45 1_555 1_555
C57 C59 1_555 1_555
C58 C60 1_555 1_555
C66 C67 1_555 1_555
C66 C68 1_555 1_555

#END
