
#######################################################################
#
#                 Cambridge Crystallographic Data Centre
#                                CCDC 
#
#######################################################################
#
# If this CIF has been generated from an entry in the Cambridge 
# Structural Database, then it will include bibliographic, chemical, 
# crystal, experimental, refinement or atomic coordinate data resulting 
# from the CCDC's data processing and validation procedures.
#
#######################################################################

data_BESDUB
_chemical_formula_moiety         'C20 H14 Br1 N1 O1'
_chemical_name_systematic        
2-(4-bromophenyl)-3-(6-methoxynaphthalen-2-yl)prop-2-enenitrile
_symmetry_cell_setting           triclinic
_symmetry_space_group_name_H-M   'P -1'
_symmetry_Int_Tables_number      2
_space_group_name_Hall           '-P 1'
loop_
_symmetry_equiv_pos_site_id
_symmetry_equiv_pos_as_xyz
1 x,y,z
2 -x,-y,-z
_cell_length_a                   8.9865(4)
_cell_length_b                   9.1599(5)
_cell_length_c                   10.2998(5)
_cell_angle_alpha                92.973(4)
_cell_angle_beta                 93.628(4)
_cell_angle_gamma                109.163(5)
_cell_volume                     796.872
_exptl_crystal_colour            colorless
_exptl_crystal_description       plate
_cell_formula_units_Z            2
_chemical_properties_physical    Light-sensitive
loop_
_atom_site_label
_atom_site_type_symbol
_atom_site_fract_x
_atom_site_fract_y
_atom_site_fract_z
Br1 Br -0.17341(2) 0.72041(2) 0.53966(2)
O1 O 0.59341(13) 0.04377(13) 0.33915(11)
N1 N 0.07350(17) 0.85684(16) -0.15071(13)
C1 C 0.10811(18) 0.79019(17) -0.06921(15)
C2 C 0.15260(17) 0.70613(16) 0.03293(14)
C3 C 0.08037(16) 0.71208(17) 0.15764(14)
C4 C 0.03873(18) 0.84086(17) 0.19658(15)
H1 H 0.0629 0.9274 0.1450
C5 C -0.03749(18) 0.84479(18) 0.30953(15)
H2 H -0.0641 0.9334 0.3360
C6 C -0.07362(17) 0.71695(18) 0.38249(14)
C7 C -0.03649(17) 0.58639(17) 0.34525(15)
H3 H -0.0638 0.4992 0.3960
C8 C 0.04079(17) 0.58416(17) 0.23338(14)
H4 H 0.0672 0.4952 0.2078
C9 C 0.24769(17) 0.62529(17) -0.00078(14)
H5 H 0.2704 0.6245 -0.0896
C10 C 0.32021(16) 0.53834(17) 0.08419(14)
C11 C 0.40144(17) 0.60478(17) 0.20742(15)
H6 H 0.4050 0.7056 0.2380
C12 C 0.47460(17) 0.52475(18) 0.28236(15)
H7 H 0.5304 0.5718 0.3634
C13 C 0.46810(17) 0.37233(18) 0.24042(14)
C14 C 0.54195(17) 0.28668(18) 0.31791(15)
H8 H 0.5983 0.3314 0.3994
C15 C 0.53097(17) 0.13914(18) 0.27389(16)
C16 C 0.44920(18) 0.07231(18) 0.15134(16)
H9 H 0.4429 -0.0298 0.1220
C17 C 0.37945(18) 0.15354(18) 0.07519(15)
H10 H 0.3259 0.1079 -0.0070
C18 C 0.38642(16) 0.30550(17) 0.11792(15)
C19 C 0.31661(16) 0.39294(17) 0.04039(14)
H11 H 0.2664 0.3502 -0.0435
C20 C 0.6953(2) 0.1096(2) 0.45440(18)
H12 H 0.7843 0.1980 0.4329
H13 H 0.7353 0.0314 0.4905
H14 H 0.6363 0.1446 0.5189
loop_
_geom_bond_atom_site_label_1
_geom_bond_atom_site_label_2
_geom_bond_site_symmetry_1
_geom_bond_site_symmetry_2
Br1 C6 1_555 1_555
O1 C15 1_555 1_555
N1 C1 1_555 1_555
C1 C2 1_555 1_555
C2 C3 1_555 1_555
C3 C4 1_555 1_555
C4 H1 1_555 1_555
C5 C4 1_555 1_555
H2 C5 1_555 1_555
C6 C5 1_555 1_555
C7 C6 1_555 1_555
H3 C7 1_555 1_555
C8 C3 1_555 1_555
H4 C8 1_555 1_555
C9 C2 1_555 1_555
H5 C9 1_555 1_555
C10 C9 1_555 1_555
C11 C10 1_555 1_555
H6 C11 1_555 1_555
C12 C11 1_555 1_555
H7 C12 1_555 1_555
C13 C12 1_555 1_555
C14 C13 1_555 1_555
H8 C14 1_555 1_555
C15 C14 1_555 1_555
C16 C15 1_555 1_555
H9 C16 1_555 1_555
C17 C16 1_555 1_555
H10 C17 1_555 1_555
C18 C13 1_555 1_555
C19 C10 1_555 1_555
H11 C19 1_555 1_555
C20 O1 1_555 1_555
H12 C20 1_555 1_555
H13 C20 1_555 1_555
H14 C20 1_555 1_555
C7 C8 1_555 1_555
C17 C18 1_555 1_555
C18 C19 1_555 1_555

#END
