
#######################################################################
#
#                 Cambridge Crystallographic Data Centre
#                                CCDC 
#
#######################################################################
#
# If this CIF has been generated from an entry in the Cambridge 
# Structural Database, then it will include bibliographic, chemical, 
# crystal, experimental, refinement or atomic coordinate data resulting 
# from the CCDC's data processing and validation procedures.
#
#######################################################################

data_BESDUA
_chemical_formula_moiety         'C15 H15 N1 O4'
_chemical_name_systematic        
1-Phenylhexahydro-2H-furo[2,3-h][1,3]benzoxazole-2,8(1H)-dione
_symmetry_cell_setting           monoclinic
_symmetry_space_group_name_H-M   'P 21/n'
_symmetry_Int_Tables_number      14
_space_group_name_Hall           '-P 2yn'
loop_
_symmetry_equiv_pos_site_id
_symmetry_equiv_pos_as_xyz
1 x,y,z
2 1/2-x,1/2+y,1/2-z
3 -x,-y,-z
4 1/2+x,1/2-y,1/2+z
_cell_length_a                   6.1123(4)
_cell_length_b                   17.9740(12)
_cell_length_c                   11.7487(8)
_cell_angle_alpha                90
_cell_angle_beta                 96.0380(10)
_cell_angle_gamma                90
_cell_volume                     1283.58
_exptl_crystal_colour            colorless
_exptl_crystal_description       needle
_cell_formula_units_Z            4
loop_
_atom_site_label
_atom_site_type_symbol
_atom_site_fract_x
_atom_site_fract_y
_atom_site_fract_z
O1 O 0.37589(15) 0.09469(5) 0.39494(8)
O2 O 0.22212(15) 0.05264(6) 0.54730(8)
O3 O 0.69723(18) 0.23189(6) 0.26892(9)
O4 O 0.75106(19) 0.32086(6) 0.57580(9)
N1 N 0.56552(16) 0.10921(6) 0.56627(9)
C1 C 0.3746(2) 0.08271(7) 0.50862(11)
C2 C 0.72733(19) 0.12741(7) 0.48633(10)
H1 H 0.8336 0.0854 0.4831
C3 C 0.5764(2) 0.13228(7) 0.37207(10)
C4 C 0.5191(2) 0.21159(7) 0.33288(11)
H2 H 0.3779 0.2116 0.2814
C5 C 0.7708(3) 0.16594(9) 0.21369(14)
H3 H 0.9333 0.1626 0.2247
H4 H 0.7231 0.1675 0.1305
C6 C 0.6692(3) 0.09954(8) 0.26807(12)
H5 H 0.7816 0.0612 0.2909
H6 H 0.5512 0.0770 0.2148
C7 C 0.5056(2) 0.26704(8) 0.42825(12)
H7 H 0.3752 0.2554 0.4684
H8 H 0.4845 0.3174 0.3947
C8 C 0.7071(2) 0.26755(7) 0.51428(11)
C9 C 0.8519(2) 0.19922(7) 0.51907(11)
H9 H 0.9264 0.1940 0.5976
H10 H 0.9670 0.2064 0.4668
C10 C 0.6233(2) 0.09119(7) 0.68417(10)
C11 C 0.4763(2) 0.10772(7) 0.76323(11)
H11 H 0.3437 0.1337 0.7399
C12 C 0.5248(2) 0.08596(8) 0.87664(11)
H12 H 0.4238 0.0963 0.9308
C13 C 0.7197(3) 0.04923(8) 0.91103(11)
H13 H 0.7513 0.0337 0.9883
C14 C 0.8682(2) 0.03512(8) 0.83264(12)
H14 H 1.0034 0.0110 0.8570
C15 C 0.8219(2) 0.05590(7) 0.71854(11)
H15 H 0.9244 0.0461 0.6649
loop_
_geom_bond_atom_site_label_1
_geom_bond_atom_site_label_2
_geom_bond_site_symmetry_1
_geom_bond_site_symmetry_2
O1 C1 1_555 1_555
O2 C1 1_555 1_555
O3 C4 1_555 1_555
O4 C8 1_555 1_555
N1 C1 1_555 1_555
C2 N1 1_555 1_555
H1 C2 1_555 1_555
C3 O1 1_555 1_555
C4 C3 1_555 1_555
H2 C4 1_555 1_555
C5 O3 1_555 1_555
H3 C5 1_555 1_555
H4 C5 1_555 1_555
C6 C3 1_555 1_555
H5 C6 1_555 1_555
H6 C6 1_555 1_555
C7 C4 1_555 1_555
H7 C7 1_555 1_555
H8 C7 1_555 1_555
C8 C7 1_555 1_555
C9 C2 1_555 1_555
H9 C9 1_555 1_555
H10 C9 1_555 1_555
C10 N1 1_555 1_555
C11 C10 1_555 1_555
H11 C11 1_555 1_555
C12 C11 1_555 1_555
H12 C12 1_555 1_555
C13 C12 1_555 1_555
H13 C13 1_555 1_555
C14 C13 1_555 1_555
H14 C14 1_555 1_555
C15 C10 1_555 1_555
H15 C15 1_555 1_555
C2 C3 1_555 1_555
C5 C6 1_555 1_555
C8 C9 1_555 1_555
C14 C15 1_555 1_555

#END
