
#######################################################################
#
#                 Cambridge Crystallographic Data Centre
#                                CCDC 
#
#######################################################################
#
# If this CIF has been generated from an entry in the Cambridge 
# Structural Database, then it will include bibliographic, chemical, 
# crystal, experimental, refinement or atomic coordinate data resulting 
# from the CCDC's data processing and validation procedures.
#
#######################################################################

data_BESFIO
_chemical_formula_moiety         'C8 H5 Cl5 O1 Si2'
_chemical_name_systematic        
2,2-Dichloro-3-trichlorosilyl-1-oxa-2-sila-1,2-dihydronaphthalene
_symmetry_cell_setting           orthorhombic
_symmetry_space_group_name_H-M   'P b a m'
_symmetry_Int_Tables_number      55
_space_group_name_Hall           '-P 2 2ab'
loop_
_symmetry_equiv_pos_site_id
_symmetry_equiv_pos_as_xyz
1 x,y,z
2 -x,-y,z
3 1/2+x,1/2-y,-z
4 1/2-x,1/2+y,-z
5 -x,-y,-z
6 x,y,-z
7 1/2-x,1/2+y,z
8 1/2+x,1/2-y,z
_cell_length_a                   24.760(5)
_cell_length_b                   15.705(4)
_cell_length_c                   7.126(3)
_cell_angle_alpha                90
_cell_angle_beta                 90
_cell_angle_gamma                90
_cell_volume                     2770.99
_cell_formula_units_Z            8
loop_
_atom_site_label
_atom_site_type_symbol
_atom_site_fract_x
_atom_site_fract_y
_atom_site_fract_z
Si1 Si 0.20910 0.51100 0.50000
Si2 Si 0.32810 0.42640 0.50000
O1 O 0.14810 0.47330 0.50000
Cl1 Cl 0.21670 0.58620 0.27460
Cl2 Cl 0.36190 0.30960 0.50000
Cl3 Cl 0.35530 0.48820 0.27560
C1 C 0.25560 0.42030 0.50000
C2 C 0.23030 0.34110 0.50000
C3 C 0.17150 0.32710 0.50000
C4 C 0.15250 0.24140 0.50000
C5 C 0.09950 0.22160 0.50000
C6 C 0.06300 0.29000 0.50000
C7 C 0.07830 0.37560 0.50000
C8 C 0.13290 0.39090 0.50000
Cl1E Cl 0.21670 0.58620 0.72540
Cl3E Cl 0.35530 0.48820 0.72440
Si3 Si 0.02670 0.17550 0.00000
Si4 Si -0.05230 0.33970 0.00000
O2 O 0.09160 0.16470 0.00000
Cl4 Cl -0.00370 0.11560 0.22650
Cl5 Cl -0.11220 0.25350 0.00000
Cl6 Cl -0.06180 0.41490 0.22730
C9 C 0.01390 0.28880 0.00000
C10 C 0.05750 0.34050 0.00000
C11 C 0.11380 0.31570 0.00000
C12 C 0.15520 0.37710 0.00000
C13 C 0.20910 0.35390 0.00000
C14 C 0.22370 0.26620 0.00000
C15 C 0.18630 0.20030 0.00000
C16 C 0.13000 0.22990 0.00000
Cl4E Cl -0.00370 0.11560 -0.22650
Cl6E Cl -0.06180 0.41490 -0.22730
loop_
_geom_bond_atom_site_label_1
_geom_bond_atom_site_label_2
_geom_bond_site_symmetry_1
_geom_bond_site_symmetry_2
Si1 O1 1_555 1_555
Si2 Cl2 1_555 1_555
O1 C8 1_555 1_555
Cl1 Si1 1_555 1_555
Cl3 Si2 1_555 1_555
C1 Si1 1_555 1_555
C2 C1 1_555 1_555
C3 C2 1_555 1_555
C4 C3 1_555 1_555
C5 C4 1_555 1_555
C6 C5 1_555 1_555
C7 C6 1_555 1_555
C8 C3 1_555 1_555
Si3 O2 1_555 1_555
Si4 Cl5 1_555 1_555
O2 C16 1_555 1_555
Cl4 Si3 1_555 1_555
Cl6 Si4 1_555 1_555
C9 Si3 1_555 1_555
C10 C9 1_555 1_555
C11 C10 1_555 1_555
C12 C11 1_555 1_555
C13 C12 1_555 1_555
C14 C13 1_555 1_555
C15 C14 1_555 1_555
C16 C11 1_555 1_555
Cl1E Si1 1_555 1_555
Cl3E Si2 1_555 1_555
Cl4E Si3 1_555 1_555
Cl6E Si4 1_555 1_555
Si2 C1 1_555 1_555
C7 C8 1_555 1_555
Si4 C9 1_555 1_555
C15 C16 1_555 1_555

#END
