
#######################################################################
#
#                 Cambridge Crystallographic Data Centre
#                                CCDC 
#
#######################################################################
#
# If this CIF has been generated from an entry in the Cambridge 
# Structural Database, then it will include bibliographic, chemical, 
# crystal, experimental, refinement or atomic coordinate data resulting 
# from the CCDC's data processing and validation procedures.
#
#######################################################################

data_BESGUE
_chemical_formula_moiety         'C31 H35 B2 F4 N5'
_chemical_name_systematic        
7,7'-{[(prop-2-yn-1-yl)azanediyl]bis(methylene)}bis(5,5-difluoro-1,3,9,10-tetramethyl-5H-dipyrrolo[1,2-c:2',1'-f][1,3,2]diazaborinin-4-ium-5-ide)
_symmetry_cell_setting           monoclinic
_symmetry_space_group_name_H-M   'P 21/c'
_symmetry_Int_Tables_number      14
_space_group_name_Hall           '-P 2ybc'
loop_
_symmetry_equiv_pos_site_id
_symmetry_equiv_pos_as_xyz
1 x,y,z
2 -x,1/2+y,1/2-z
3 -x,-y,-z
4 x,1/2-y,1/2+z
_cell_length_a                   12.216(4)
_cell_length_b                   7.220(3)
_cell_length_c                   33.259(12)
_cell_angle_alpha                90
_cell_angle_beta                 91.817(8)
_cell_angle_gamma                90
_cell_volume                     2931.95
_exptl_crystal_colour            red
_exptl_crystal_description       block
_cell_formula_units_Z            4
loop_
_atom_site_label
_atom_site_type_symbol
_atom_site_fract_x
_atom_site_fract_y
_atom_site_fract_z
F1 F 0.82561(14) 0.7693(3) 0.12399(5)
F2 F 1.39563(15) 0.4861(3) 0.10277(5)
F3 F 0.92504(15) 0.6152(3) 0.07881(6)
F4 F 1.35654(15) 0.3218(3) 0.15850(7)
N1 N 1.43984(19) 0.6218(3) 0.16681(7)
N2 N 1.54501(19) 0.3557(4) 0.14203(7)
N3 N 0.97285(19) 0.9327(4) 0.09357(7)
N4 N 0.8036(2) 0.8536(4) 0.05422(7)
C1 C 0.9908(2) 1.0805(4) 0.06760(9)
C2 C 1.6344(2) 0.5905(5) 0.18389(8)
N5 N 1.1608(2) 0.8049(4) 0.17928(7)
C3 C 1.6397(2) 0.4263(5) 0.16184(8)
C4 C 0.9155(2) 1.1187(4) 0.03600(8)
C5 C 1.0869(2) 1.1758(5) 0.08185(10)
C6 C 1.3580(2) 0.7443(4) 0.17307(9)
C7 C 0.8207(3) 1.0104(5) 0.02986(8)
C8 C 1.5361(2) 0.6907(4) 0.18552(8)
C9 C 1.5098(3) 0.8630(5) 0.20353(9)
C10 C 1.2445(2) 0.7123(5) 0.15571(9)
H1 H 1.2403 0.7583 0.1283
H2 H 1.2297 0.5804 0.1549
C11 C 1.7280(3) 0.3037(5) 0.15263(10)
C12 C 1.1227(3) 1.0837(5) 0.11640(10)
H3 H 1.1839 1.1148 0.1323
C13 C 1.3989(3) 0.8942(5) 0.19527(9)
H4 H 1.3591 0.9970 0.2032
C14 C 0.7082(3) 0.7758(5) 0.04239(10)
B1 B 0.8814(3) 0.7852(5) 0.08844(11)
C15 C 1.6840(3) 0.1665(5) 0.12852(10)
H5 H 1.7227 0.0679 0.1179
C16 C 0.9357(3) 1.2787(5) 0.00854(10)
H6 H 0.8771 1.2870 -0.0113
H7 H 1.0037 1.2604 -0.0046
H8 H 0.9393 1.3912 0.0239
C17 C 1.0520(2) 0.9370(5) 0.12329(9)
C18 C 1.7340(2) 0.6588(5) 0.20718(10)
H9 H 1.7941 0.5759 0.2032
H10 H 1.7185 0.6639 0.2353
H11 H 1.7528 0.7803 0.1979
C19 C 1.5724(3) 0.1987(5) 0.12244(10)
C20 C 1.5821(3) 0.9971(5) 0.22702(10)
H12 H 1.5392 1.1011 0.2352
H13 H 1.6398 1.0393 0.2104
H14 H 1.6131 0.9361 0.2504
C21 C 1.0547(2) 0.7987(5) 0.15719(9)
H15 H 0.9964 0.8261 0.1754
H16 H 1.0425 0.6753 0.1465
C22 C 0.7295(3) 1.0263(5) 0.00234(9)
C23 C 0.6612(3) 0.8810(6) 0.01102(10)
H17 H 0.5942 0.8565 -0.0020
B2 B 1.4312(3) 0.4435(5) 0.14187(11)
C24 C 1.1437(3) 1.3412(5) 0.06541(11)
H18 H 1.2066 1.3702 0.0823
H19 H 1.0944 1.4447 0.0647
H20 H 1.1666 1.3148 0.0387
C25 C 1.1517(3) 0.7180(6) 0.21905(9)
H21 H 1.0971 0.7853 0.2338
H22 H 1.2212 0.7327 0.2336
C26 C 1.1224(3) 0.5199(7) 0.21923(11)
C27 C 1.4916(3) 0.0865(6) 0.09851(11)
H23 H 1.4204 0.1420 0.0999
H24 H 1.4894 -0.0369 0.1092
H25 H 1.5129 0.0819 0.0710
C28 C 1.8475(3) 0.3140(6) 0.16424(11)
H26 H 1.8849 0.2100 0.1531
H27 H 1.8563 0.3119 0.1930
H28 H 1.8777 0.4267 0.1540
C29 C 0.7051(3) 1.1688(6) -0.02969(11)
H29 H 0.6363 1.1406 -0.0431
H30 H 0.7621 1.1676 -0.0489
H31 H 0.7013 1.2892 -0.0176
C30 C 0.6632(3) 0.6052(6) 0.06119(12)
H32 H 0.7129 0.5629 0.0821
H33 H 0.6541 0.5104 0.0411
H34 H 0.5936 0.6329 0.0724
C31 C 1.1016 0.3565 0.2161
H35 H 1.0857 0.2310 0.2137
loop_
_geom_bond_atom_site_label_1
_geom_bond_atom_site_label_2
_geom_bond_site_symmetry_1
_geom_bond_site_symmetry_2
F1 B1 1_555 1_555
F2 B2 1_555 1_555
F3 B1 1_555 1_555
F4 B2 1_555 1_555
N1 C6 1_555 1_555
N2 C3 1_555 1_555
N3 C1 1_555 1_555
N4 C7 1_555 1_555
C1 C4 1_555 1_555
C2 C3 1_555 1_555
N5 C10 1_555 1_555
C3 C11 1_555 1_555
C4 C7 1_555 1_555
C5 C1 1_555 1_555
C6 C10 1_555 1_555
C7 C22 1_555 1_555
C8 N1 1_555 1_555
C9 C8 1_555 1_555
C10 H1 1_555 1_555
H2 C10 1_555 1_555
C11 C15 1_555 1_555
C12 C5 1_555 1_555
H3 C12 1_555 1_555
C13 C6 1_555 1_555
H4 C13 1_555 1_555
C14 N4 1_555 1_555
B1 N3 1_555 1_555
C15 H5 1_555 1_555
C16 C4 1_555 1_555
H6 C16 1_555 1_555
H7 C16 1_555 1_555
H8 C16 1_555 1_555
C17 N3 1_555 1_555
C18 C2 1_555 1_555
H9 C18 1_555 1_555
H10 C18 1_555 1_555
H11 C18 1_555 1_555
C19 N2 1_555 1_555
C20 C9 1_555 1_555
H12 C20 1_555 1_555
H13 C20 1_555 1_555
H14 C20 1_555 1_555
C21 N5 1_555 1_555
H15 C21 1_555 1_555
H16 C21 1_555 1_555
C22 C23 1_555 1_555
C23 C14 1_555 1_555
H17 C23 1_555 1_555
B2 N1 1_555 1_555
C24 C5 1_555 1_555
H18 C24 1_555 1_555
H19 C24 1_555 1_555
H20 C24 1_555 1_555
C25 N5 1_555 1_555
H21 C25 1_555 1_555
H22 C25 1_555 1_555
C26 C25 1_555 1_555
C27 C19 1_555 1_555
H23 C27 1_555 1_555
H24 C27 1_555 1_555
H25 C27 1_555 1_555
C28 C11 1_555 1_555
H26 C28 1_555 1_555
H27 C28 1_555 1_555
H28 C28 1_555 1_555
C29 C22 1_555 1_555
H29 C29 1_555 1_555
H30 C29 1_555 1_555
H31 C29 1_555 1_555
C30 C14 1_555 1_555
H32 C30 1_555 1_555
H33 C30 1_555 1_555
H34 C30 1_555 1_555
C31 C26 1_555 1_555
H35 C31 1_555 1_555
N2 B2 1_555 1_555
N4 B1 1_555 1_555
C2 C8 1_555 1_555
C9 C13 1_555 1_555
C12 C17 1_555 1_555
C15 C19 1_555 1_555
C17 C21 1_555 1_555

#END
