
#######################################################################
#
#                 Cambridge Crystallographic Data Centre
#                                CCDC 
#
#######################################################################
#
# If this CIF has been generated from an entry in the Cambridge 
# Structural Database, then it will include bibliographic, chemical, 
# crystal, experimental, refinement or atomic coordinate data resulting 
# from the CCDC's data processing and validation procedures.
#
#######################################################################

data_BESJER
_chemical_compound_source        
'obtained from the leaves of Tripterygium wilfordii'
_chemical_name_common            'triptersinine V'
_chemical_formula_moiety         'C33 H38 O12'
_chemical_name_systematic        
'10-(acetyloxy)-5a-[(acetyloxy)methyl]-4,9-dihydroxy-2,2,9-trimethyl-6-[(3-phenylacryloyl)oxy]octahydro-2H-3,9a-methano-1-benzoxepin-5-yl furan-3-carboxylate'
_symmetry_cell_setting           monoclinic
_symmetry_space_group_name_H-M   'P 21'
_symmetry_Int_Tables_number      4
_space_group_name_Hall           'P 2yb'
loop_
_symmetry_equiv_pos_site_id
_symmetry_equiv_pos_as_xyz
1 x,y,z
2 -x,1/2+y,-z
_cell_length_a                   9.6865(2)
_cell_length_b                   11.9018(3)
_cell_length_c                   13.7460(4)
_cell_angle_alpha                90
_cell_angle_beta                 104.952(3)
_cell_angle_gamma                90
_cell_volume                     1531.08
_cell_formula_units_Z            2
loop_
_atom_site_label
_atom_site_type_symbol
_atom_site_fract_x
_atom_site_fract_y
_atom_site_fract_z
O1 O -0.25218(17) -0.97044(15) -0.66707(12)
O2 O -0.72454(17) -0.82262(14) -0.95370(13)
O3 O -0.59780(18) -0.69602(16) -1.01733(13)
O4 O -0.07398(19) -0.77463(17) -0.74967(14)
O5 O -0.69510(17) -0.90826(14) -0.73757(12)
O6 O -0.82558(17) -0.70845(15) -0.81530(13)
H1 H -0.8737 -0.7475 -0.7875
O7 O -0.31295(17) -0.76177(14) -0.80950(12)
O8 O -0.4584(2) -0.89900(19) -0.40639(14)
O9 O -0.35595(18) -0.99684(15) -0.86730(13)
H2 H -0.3618 -1.0464 -0.9096
O10 O -0.33580(17) -0.83777(15) -0.51582(12)
O11 O -0.2789(2) -1.11939(17) -0.57222(15)
C1 C -0.4516(2) -0.8366(2) -0.69619(17)
O12 O 0.1685(2) -1.08336(17) -0.46009(15)
C2 C -0.6804(2) -0.7078(2) -0.75634(18)
C3 C -0.1796(3) -0.7740(2) -0.81879(19)
C4 C -0.2062(3) -0.8949(2) -0.35391(18)
H3 H -0.2053 -0.9218 -0.2902
C5 C -0.6045(3) -0.9855(2) -0.86507(17)
H4 H -0.6328 -1.0219 -0.9312
C6 C 0.0542(3) -0.9743(2) -0.5883(2)
H5 H 0.0356 -0.9208 -0.6394
C7 C -0.6080(2) -0.8227(2) -0.76893(17)
C8 C -0.3464(3) -0.8775(2) -0.42582(19)
C9 C -0.6795(3) -0.6915(2) -0.64542(18)
H6 H -0.7162 -0.6173 -0.6371
H7 H -0.7434 -0.7461 -0.6278
C10 C -0.8527(3) -0.7093(2) -1.0839(2)
H8 H -0.9049 -0.6655 -1.0467
H9 H -0.9053 -0.7764 -1.1085
H10 H -0.8393 -0.6661 -1.1398
C11 C -0.2037(3) -1.0519(2) -0.59865(17)
C12 C -0.5313(3) -0.7042(2) -0.57292(18)
H11 H -0.4684 -0.6456 -0.5854
H12 H -0.5379 -0.6973 -0.5040
C13 C -0.4719(2) -0.8186(2) -0.58894(17)
H13 H -0.5394 -0.8756 -0.5778
C14 C 0.0284(3) -1.1098(2) -0.48167(19)
H14 H -0.0110 -1.1636 -0.4478
C15 C -0.8714(3) -1.0003(2) -0.8724(2)
H15 H -0.9373 -1.0065 -0.8310
H16 H -0.8864 -1.0615 -0.9195
H17 H -0.8868 -0.9304 -0.9084
C16 C -0.0806(3) -0.8750(2) -0.37336(19)
H18 H -0.0821 -0.8431 -0.4354
C17 C 0.0757(3) -0.9738(2) -0.2239(2)
H19 H -0.0035 -1.0114 -0.2136
C18 C -0.1811(3) -0.7870(3) -0.9282(2)
H20 H -0.1831 -0.8653 -0.9450
H21 H -0.0968 -0.7531 -0.9398
H22 H -0.2642 -0.7507 -0.9694
C19 C -0.7104(3) -0.7404(2) -1.01672(18)
C20 C 0.2090(3) -0.9915(2) -0.1592(2)
H23 H 0.2187 -1.0402 -0.1049
C21 C -0.6104(3) -0.6075(2) -0.79553(18)
H24 H -0.6831 -0.5565 -0.8306
H25 H -0.5566 -0.6340 -0.8407
H26 H -0.5476 -0.5693 -0.7398
C22 C -0.7181(3) -1.0044(2) -0.80571(18)
C23 C -0.6011(2) -0.8580(2) -0.87575(17)
H27 H -0.5120 -0.8329 -0.8901
C24 C 0.0599(3) -0.8991(2) -0.3051(2)
C25 C -0.4060(2) -0.9614(2) -0.70411(17)
H28 H -0.4472 -1.0048 -0.6579
C26 C -0.0472(3) -1.0467(2) -0.55969(18)
C27 C -0.3351(2) -0.7544(2) -0.70949(17)
H29 H -0.3628 -0.6783 -0.6977
H30 H -0.2462 -0.7711 -0.6600
C28 C -0.7009(3) -1.1130(2) -0.7440(2)
H31 H -0.6080 -1.1144 -0.6975
H32 H -0.7110 -1.1765 -0.7884
H33 H -0.7729 -1.1161 -0.7074
C29 C 0.1816(3) -0.9998(3) -0.5260(2)
H34 H 0.2673 -0.9655 -0.5273
C30 C 0.3152(3) -0.8658(3) -0.2559(3)
H35 H 0.3954 -0.8303 -0.2670
C31 C 0.1809(3) -0.8469(2) -0.3213(2)
H36 H 0.1721 -0.7992 -0.3761
C32 C -0.4523(3) -1.0203(2) -0.80752(18)
H37 H -0.4520 -1.1016 -0.7960
C33 C 0.3290(3) -0.9372(3) -0.1746(2)
H38 H 0.4182 -0.9490 -0.1302
loop_
_geom_bond_atom_site_label_1
_geom_bond_atom_site_label_2
_geom_bond_site_symmetry_1
_geom_bond_site_symmetry_2
O1 C11 1_555 1_555
O2 C19 1_555 1_555
O3 C19 1_555 1_555
O4 C3 1_555 1_555
O5 C7 1_555 1_555
O6 H1 1_555 1_555
O7 C3 1_555 1_555
O8 C8 1_555 1_555
O9 H2 1_555 1_555
O10 C8 1_555 1_555
O11 C11 1_555 1_555
C1 C7 1_555 1_555
O12 C14 1_555 1_555
C2 O6 1_555 1_555
C3 C18 1_555 1_555
C4 H3 1_555 1_555
C5 H4 1_555 1_555
C6 H5 1_555 1_555
C7 C2 1_555 1_555
C8 C4 1_555 1_555
C9 C2 1_555 1_555
H6 C9 1_555 1_555
H7 C9 1_555 1_555
C10 H8 1_555 1_555
H9 C10 1_555 1_555
H10 C10 1_555 1_555
C11 C26 1_555 1_555
C12 C9 1_555 1_555
H11 C12 1_555 1_555
H12 C12 1_555 1_555
C13 O10 1_555 1_555
H13 C13 1_555 1_555
C14 H14 1_555 1_555
C15 H15 1_555 1_555
H16 C15 1_555 1_555
H17 C15 1_555 1_555
C16 C4 1_555 1_555
H18 C16 1_555 1_555
C17 H19 1_555 1_555
C18 H20 1_555 1_555
H21 C18 1_555 1_555
H22 C18 1_555 1_555
C19 C10 1_555 1_555
C20 C17 1_555 1_555
H23 C20 1_555 1_555
C21 C2 1_555 1_555
H24 C21 1_555 1_555
H25 C21 1_555 1_555
H26 C21 1_555 1_555
C22 O5 1_555 1_555
C23 O2 1_555 1_555
H27 C23 1_555 1_555
C24 C16 1_555 1_555
C25 O1 1_555 1_555
H28 C25 1_555 1_555
C26 C6 1_555 1_555
C27 O7 1_555 1_555
H29 C27 1_555 1_555
H30 C27 1_555 1_555
C28 C22 1_555 1_555
H31 C28 1_555 1_555
H32 C28 1_555 1_555
H33 C28 1_555 1_555
C29 O12 1_555 1_555
H34 C29 1_555 1_555
C30 H35 1_555 1_555
C31 C24 1_555 1_555
H36 C31 1_555 1_555
C32 O9 1_555 1_555
H37 C32 1_555 1_555
C33 C20 1_555 1_555
H38 C33 1_555 1_555
C1 C13 1_555 1_555
C1 C25 1_555 1_555
C1 C27 1_555 1_555
C5 C22 1_555 1_555
C5 C23 1_555 1_555
C5 C32 1_555 1_555
C6 C29 1_555 1_555
C7 C23 1_555 1_555
C12 C13 1_555 1_555
C14 C26 1_555 1_555
C15 C22 1_555 1_555
C17 C24 1_555 1_555
C25 C32 1_555 1_555
C30 C31 1_555 1_555
C30 C33 1_555 1_555

#END
