
#######################################################################
#
#                 Cambridge Crystallographic Data Centre
#                                CCDC 
#
#######################################################################
#
# If this CIF has been generated from an entry in the Cambridge 
# Structural Database, then it will include bibliographic, chemical, 
# crystal, experimental, refinement or atomic coordinate data resulting 
# from the CCDC's data processing and validation procedures.
#
#######################################################################

data_BESZAB
_chemical_formula_moiety         'C34 H28 F30 N6 O2'
_chemical_name_systematic        
2,5,11,14,19,20-hexaaza-7,9,16,18-tetrafluoro-2,5,11,14-tetramethyl-8,17-bis(3,3,4,4,5,5,6,6,7,7,8,8,8-tridecafluorooctyloxy)tricyclo(13.3.1.1^6,10^)icosa-1(18),6,8,10,(20),15(19),16-hexaene
_symmetry_cell_setting           triclinic
_symmetry_space_group_name_H-M   'P -1'
_symmetry_Int_Tables_number      2
_space_group_name_Hall           '-P 1'
loop_
_symmetry_equiv_pos_site_id
_symmetry_equiv_pos_as_xyz
1 x,y,z
2 -x,-y,-z
_cell_length_a                   6.4855(4)
_cell_length_b                   9.8445(6)
_cell_length_c                   16.5044(10)
_cell_angle_alpha                75.596(2)
_cell_angle_beta                 81.248(3)
_cell_angle_gamma                87.719(3)
_cell_volume                     1008.74
_exptl_crystal_colour            colorless
_exptl_crystal_description       plate
_chemical_melting_point          '433-435 K'
_cell_formula_units_Z            1
_exptl_crystal_recrystallization_method 'petroleum ether/acetone'
loop_
_atom_site_label
_atom_site_type_symbol
_atom_site_fract_x
_atom_site_fract_y
_atom_site_fract_z
O1 O 0.18849(19) 0.58368(13) 0.60813(8)
N1 N -0.2402(2) 0.89089(15) 0.53151(9)
N2 N -0.2859(2) 0.95748(17) 0.65820(9)
N3 N -0.2204(2) 0.85067(16) 0.39830(9)
C1 C -0.1886(3) 0.87179(18) 0.60952(11)
C2 C -0.0396(3) 0.76922(19) 0.63583(11)
C3 C 0.0504(3) 0.68958(18) 0.58163(11)
C4 C -0.0024(3) 0.71511(18) 0.50075(11)
C5 C -0.1511(3) 0.81900(18) 0.47581(11)
C6 C -0.3543(3) 0.97359(18) 0.37519(11)
C7 C -0.1295(3) 0.7892(2) 0.32890(12)
C8 C -0.4198(3) 1.07153(19) 0.62039(11)
C9 C -0.3015(3) 0.9223(2) 0.75031(12)
C10 C 0.4015(3) 0.6300(2) 0.59680(12)
C11 C 0.5253(3) 0.51313(19) 0.64653(11)
C12 C 0.4763(3) 0.49285(18) 0.74171(11)
C13 C 0.6361(3) 0.39568(19) 0.78897(11)
C14 C 0.5819(3) 0.3487(2) 0.88709(11)
C15 C 0.7746(3) 0.2933(2) 0.93190(12)
C16 C 0.7178(3) 0.2054(2) 1.02458(12)
C17 C 0.8963(4) 0.1886(3) 1.07849(13)
F1 F 0.02641(18) 0.74749(12) 0.71268(7)
F2 F 0.09893(17) 0.63802(11) 0.44855(7)
F3 F 0.28384(16) 0.43683(12) 0.77345(7)
F4 F 0.4787(2) 0.61862(12) 0.76219(7)
F5 F 0.6533(2) 0.27760(12) 0.76014(7)
F6 F 0.82230(18) 0.46036(13) 0.76863(7)
F7 F 0.44006(19) 0.24467(14) 0.90694(7)
F8 F 0.4986(2) 0.45574(14) 0.91681(8)
F9 F 0.8926(2) 0.21307(15) 0.88787(7)
F10 F 0.8888(2) 0.40366(14) 0.93297(8)
F11 F 0.6608(2) 0.07637(13) 1.02326(8)
F12 F 0.5548(2) 0.26518(15) 1.06346(7)
F13 F 0.8411(2) 0.09205(16) 1.15060(8)
F14 F 1.0691(2) 0.14541(18) 1.03866(9)
F15 F 0.9311(3) 0.30704(18) 1.09774(10)
H1 H -0.352(3) 1.035(2) 0.4136(12)
H2 H -0.299(3) 1.027(2) 0.3149(13)
H3 H 0.010(4) 0.825(2) 0.3059(14)
H4 H -0.122(4) 0.687(3) 0.3456(14)
H5 H -0.216(4) 0.815(2) 0.2849(15)
H6 H -0.359(3) 1.108(2) 0.5620(13)
H7 H -0.411(3) 1.147(2) 0.6511(13)
H8 H -0.318(4) 0.826(3) 0.7734(16)
H9 H -0.418(5) 0.965(3) 0.7725(18)
H10 H -0.176(5) 0.956(3) 0.7668(17)
H11 H 0.460(3) 0.651(2) 0.5363(14)
H12 H 0.405(4) 0.715(3) 0.6144(14)
H13 H 0.668(4) 0.533(2) 0.6305(13)
H14 H 0.504(4) 0.422(2) 0.6328(14)
C8A C -0.5802(3) 0.92847(19) 0.37961(11)
N2A N -0.7141(2) 1.04252(17) 0.34180(9)
C1A C -0.8114(3) 1.12821(18) 0.39048(11)
N1A N -0.7598(2) 1.10911(15) 0.46849(9)
C5A C -0.8489(3) 1.18100(18) 0.52419(11)
N3A N -0.7796(2) 1.14933(16) 0.60170(9)
C6A C -0.6457(3) 1.02641(18) 0.62481(11)
H1A H -0.648(3) 0.965(2) 0.5864(12)
H2A H -0.701(3) 0.973(2) 0.6851(13)
C7A C -0.8705(3) 1.2108(2) 0.67110(12)
H3A H -1.010(4) 1.175(2) 0.6941(14)
H4A H -0.878(4) 1.313(3) 0.6544(14)
H5A H -0.784(4) 1.185(2) 0.7151(15)
C4A C -0.9976(3) 1.28489(18) 0.49925(11)
C3A C -1.0504(3) 1.31042(18) 0.41837(11)
O1A O -1.18849(19) 1.41632(13) 0.39187(8)
C10A C -1.4015(3) 1.3700(2) 0.40320(12)
C11A C -1.5253(3) 1.48687(19) 0.35347(11)
C12A C -1.4763(3) 1.50715(18) 0.25829(11)
C13A C -1.6361(3) 1.60432(19) 0.21103(11)
C14A C -1.5819(3) 1.6513(2) 0.11291(11)
C15A C -1.7746(3) 1.7067(2) 0.06810(12)
C16A C -1.7178(3) 1.7946(2) -0.02458(12)
C17A C -1.8963(4) 1.8114(3) -0.07849(13)
F13A F -1.8411(2) 1.90795(16) -0.15060(8)
F14A F -2.0691(2) 1.85459(18) -0.03866(9)
F15A F -1.9311(3) 1.69296(18) -0.09774(10)
F11A F -1.6608(2) 1.92363(13) -0.02326(8)
F12A F -1.5548(2) 1.73482(15) -0.06346(7)
F9A F -1.8926(2) 1.78693(15) 0.11213(7)
F10A F -1.8888(2) 1.59634(14) 0.06703(8)
F7A F -1.44006(19) 1.75533(14) 0.09306(7)
F8A F -1.4986(2) 1.54426(14) 0.08319(8)
F5A F -1.6533(2) 1.72240(12) 0.23986(7)
F6A F -1.82230(18) 1.53964(13) 0.23137(7)
F3A F -1.28384(16) 1.56317(12) 0.22655(7)
F4A F -1.4787(2) 1.38138(12) 0.23781(7)
H13A H -1.668(4) 1.467(2) 0.3695(13)
H14A H -1.504(4) 1.578(2) 0.3672(14)
H11A H -1.460(3) 1.349(2) 0.4637(14)
H12A H -1.405(4) 1.285(3) 0.3856(14)
C2A C -0.9604(3) 1.23078(19) 0.36417(11)
F1A F -1.02641(18) 1.25251(12) 0.28732(7)
F2A F -1.09893(17) 1.36198(11) 0.55145(7)
C9A C -0.6985(3) 1.0777(2) 0.24969(12)
H8A H -0.682(4) 1.174(3) 0.2266(16)
H9A H -0.582(5) 1.035(3) 0.2275(18)
H10A H -0.824(5) 1.044(3) 0.2332(17)
H6A H -0.641(3) 0.892(2) 0.4380(13)
H7A H -0.589(3) 0.853(2) 0.3489(13)
loop_
_geom_bond_atom_site_label_1
_geom_bond_atom_site_label_2
_geom_bond_site_symmetry_1
_geom_bond_site_symmetry_2
O1 C3 1_555 1_555
N1 C1 1_555 1_555
N2 C1 1_555 1_555
N3 C5 1_555 1_555
C1 C2 1_555 1_555
C2 C3 1_555 1_555
C3 C4 1_555 1_555
C4 C5 1_555 1_555
C5 N1 1_555 1_555
C6 N3 1_555 1_555
C7 N3 1_555 1_555
C8 N2 1_555 1_555
C9 N2 1_555 1_555
C10 O1 1_555 1_555
C11 C10 1_555 1_555
C12 C11 1_555 1_555
C13 C12 1_555 1_555
C14 C13 1_555 1_555
C15 C14 1_555 1_555
C16 C15 1_555 1_555
C17 C16 1_555 1_555
F1 C2 1_555 1_555
F2 C4 1_555 1_555
F3 C12 1_555 1_555
F4 C12 1_555 1_555
F5 C13 1_555 1_555
F6 C13 1_555 1_555
F7 C14 1_555 1_555
F8 C14 1_555 1_555
F9 C15 1_555 1_555
F10 C15 1_555 1_555
F11 C16 1_555 1_555
F12 C16 1_555 1_555
F13 C17 1_555 1_555
F14 C17 1_555 1_555
F15 C17 1_555 1_555
H1 C6 1_555 1_555
H2 C6 1_555 1_555
H3 C7 1_555 1_555
H4 C7 1_555 1_555
H5 C7 1_555 1_555
H6 C8 1_555 1_555
H7 C8 1_555 1_555
H8 C9 1_555 1_555
H9 C9 1_555 1_555
H10 C9 1_555 1_555
H11 C10 1_555 1_555
H12 C10 1_555 1_555
H13 C11 1_555 1_555
H14 C11 1_555 1_555
C8A C6 1_555 1_555
N2A C8A 1_555 1_555
C1A N2A 1_555 1_555
N1A C1A 1_555 1_555
C5A N1A 1_555 1_555
N3A C5A 1_555 1_555
C6A C8 1_555 1_555
H1A C6A 1_555 1_555
H2A C6A 1_555 1_555
C7A N3A 1_555 1_555
H3A C7A 1_555 1_555
H4A C7A 1_555 1_555
H5A C7A 1_555 1_555
C4A C5A 1_555 1_555
C3A C4A 1_555 1_555
O1A C3A 1_555 1_555
C10A O1A 1_555 1_555
C11A C10A 1_555 1_555
C12A C11A 1_555 1_555
C13A C12A 1_555 1_555
C14A C13A 1_555 1_555
C15A C14A 1_555 1_555
C16A C15A 1_555 1_555
C17A C16A 1_555 1_555
F13A C17A 1_555 1_555
F14A C17A 1_555 1_555
F15A C17A 1_555 1_555
F11A C16A 1_555 1_555
F12A C16A 1_555 1_555
F9A C15A 1_555 1_555
F10A C15A 1_555 1_555
F7A C14A 1_555 1_555
F8A C14A 1_555 1_555
F5A C13A 1_555 1_555
F6A C13A 1_555 1_555
F3A C12A 1_555 1_555
F4A C12A 1_555 1_555
H13A C11A 1_555 1_555
H14A C11A 1_555 1_555
H11A C10A 1_555 1_555
H12A C10A 1_555 1_555
C2A C1A 1_555 1_555
F1A C2A 1_555 1_555
F2A C4A 1_555 1_555
C9A N2A 1_555 1_555
H8A C9A 1_555 1_555
H9A C9A 1_555 1_555
H10A C9A 1_555 1_555
H6A C8A 1_555 1_555
H7A C8A 1_555 1_555
N3A C6A 1_555 1_555
C3A C2A 1_555 1_555

#END
