
#######################################################################
#
#                 Cambridge Crystallographic Data Centre
#                                CCDC 
#
#######################################################################
#
# If this CIF has been generated from an entry in the Cambridge 
# Structural Database, then it will include bibliographic, chemical, 
# crystal, experimental, refinement or atomic coordinate data resulting 
# from the CCDC's data processing and validation procedures.
#
#######################################################################

data_BETANC03
_chemical_name_common            'Betaine hydrochloride'
_chemical_formula_moiety         'C5 H12 N1 O2 1+,Cl1 1-'
_chemical_name_systematic        
'1-Carboxy-N,N,N-trimethylmethanaminium chloride'
_symmetry_cell_setting           monoclinic
_symmetry_space_group_name_H-M   'C m'
_symmetry_Int_Tables_number      8
_space_group_name_Hall           'C -2y'
loop_
_symmetry_equiv_pos_site_id
_symmetry_equiv_pos_as_xyz
1 x,y,z
2 1/2+x,1/2+y,z
3 x,-y,z
4 1/2+x,1/2-y,z
_cell_length_a                   10.578(1)
_cell_length_b                   6.9383(8)
_cell_length_c                   5.7052(8)
_cell_angle_alpha                90
_cell_angle_beta                 111.45(1)
_cell_angle_gamma                90
_cell_volume                     389.722
_exptl_crystal_colour            colorless
_cell_formula_units_Z            2
loop_
_atom_site_label
_atom_site_type_symbol
_atom_site_fract_x
_atom_site_fract_y
_atom_site_fract_z
Cl1 Cl 0.5000 0.0000 0.5000
O1 O 0.2193(3) 0.0000 0.4890(6)
O2 O 0.1302(3) 0.0000 0.0671(7)
C1 C 0.1182(3) 0.0000 0.2680(7)
C2 C -0.0136(3) 0.0000 0.3150(6)
N1 N -0.1404(3) 0.0000 0.0837(5)
C3 C -0.1521(3) 0.1780(4) -0.0725(5)
C4 C -0.2577(4) 0.0000 0.1744(9)
H1 H 0.2908 0.0000 0.4555
H2 H -0.0149 0.1130 0.4112
H3 H -0.0785 0.1818 -0.1329
H4 H -0.1484 0.2901 0.0285
H5 H -0.2369 0.1761 -0.2131
H6 H -0.3417 0.0000 0.0321
H7 H -0.2530 0.1130 0.2744
H2B H -0.0149 -0.1130 0.4112
C3B C -0.1521(3) -0.1780(4) -0.0725(5)
H7B H -0.2530 -0.1130 0.2744
H3B H -0.0785 -0.1818 -0.1329
H4B H -0.1484 -0.2901 0.0285
H5B H -0.2369 -0.1761 -0.2131
loop_
_geom_bond_atom_site_label_1
_geom_bond_atom_site_label_2
_geom_bond_site_symmetry_1
_geom_bond_site_symmetry_2
O1 C1 1_555 1_555
O2 C1 1_555 1_555
C1 C2 1_555 1_555
C2 N1 1_555 1_555
N1 C3 1_555 1_555
C3 H3 1_555 1_555
C4 N1 1_555 1_555
H1 O1 1_555 1_555
H2 C2 1_555 1_555
H4 C3 1_555 1_555
H5 C3 1_555 1_555
H6 C4 1_555 1_555
H7 C4 1_555 1_555
H2B C2 1_555 1_555
C3B N1 1_555 1_555
H7B C4 1_555 1_555
H3B C3B 1_555 1_555
H4B C3B 1_555 1_555
H5B C3B 1_555 1_555

#END
