
#######################################################################
#
#                 Cambridge Crystallographic Data Centre
#                                CCDC 
#
#######################################################################
#
# If this CIF has been generated from an entry in the Cambridge 
# Structural Database, then it will include bibliographic, chemical, 
# crystal, experimental, refinement or atomic coordinate data resulting 
# from the CCDC's data processing and validation procedures.
#
#######################################################################

data_BETDEM
_chemical_formula_moiety         'C45 H38 N1 P1 Se1'
_chemical_name_systematic        
'N-[2,6-bis(diphenylmethyl)-4-methylphenyl]-P,P-diphenylphosphinoselenoic amide'
_symmetry_cell_setting           monoclinic
_symmetry_space_group_name_H-M   'C c'
_symmetry_Int_Tables_number      9
_space_group_name_Hall           'C -2yc'
loop_
_symmetry_equiv_pos_site_id
_symmetry_equiv_pos_as_xyz
1 x,y,z
2 x,-y,1/2+z
3 1/2+x,1/2+y,z
4 1/2+x,1/2-y,1/2+z
_cell_length_a                   9.6971(3)
_cell_length_b                   43.7703(9)
_cell_length_c                   9.1722(3)
_cell_angle_alpha                90
_cell_angle_beta                 107.819(3)
_cell_angle_gamma                90
_cell_volume                     3706.33
_exptl_crystal_colour            colorless
_exptl_crystal_description       needle
_cell_formula_units_Z            4
loop_
_atom_site_label
_atom_site_type_symbol
_atom_site_fract_x
_atom_site_fract_y
_atom_site_fract_z
Se1 Se -0.66429(6) -0.59071(2) -0.41382(6)
P1 P -0.68360(13) -0.61766(3) -0.60724(14)
C1 C -0.2877(6) -0.61265(11) -0.4685(5)
N1 N -0.5264(5) -0.63264(10) -0.6129(5)
H1 H -0.5435 -0.6501 -0.6574
C2 C -0.1552(6) -0.61669(11) -0.3565(6)
H2 H -0.0824 -0.6023 -0.3476
C3 C -0.4899(5) -0.68381(11) -0.3971(6)
H3 H -0.5819 -0.6744 -0.4555
C4 C -0.4716(5) -0.71179(11) -0.4865(6)
C5 C -0.3951(5) -0.63481(11) -0.4855(5)
C6 C -0.5029(5) -0.69105(12) -0.2381(6)
C7 C -0.7397(7) -0.57719(16) -1.0276(7)
H4 H -0.6880 -0.5745 -1.0969
C8 C -0.3402(6) -0.72006(13) -0.5086(6)
H5 H -0.2591 -0.7078 -0.4682
C9 C -0.8278(7) -0.67021(14) -0.7451(7)
H6 H -0.7695 -0.6688 -0.8086
C10 C -0.5895(6) -0.73065(14) -0.5501(7)
H7 H -0.6781 -0.7259 -0.5362
C11 C -0.6793(7) -0.59388(13) -0.8936(7)
H8 H -0.5878 -0.6025 -0.8747
C12 C -0.3282(7) -0.74619(13) -0.5895(7)
H9 H -0.2393 -0.7515 -0.6012
C13 C -0.3736(5) -0.65963(11) -0.3833(6)
C14 C -0.3147(6) -0.58435(12) -0.5699(6)
H10 H -0.4164 -0.5790 -0.5859
C15 C 0.0167(6) -0.64553(13) -0.1357(7)
H11 H 0.0884 -0.6336 -0.1622
H12 H 0.0441 -0.6667 -0.1292
H13 H 0.0094 -0.6389 -0.0386
C16 C -0.1283(6) -0.64158(12) -0.2572(6)
C17 C -0.8120(5) -0.64903(12) -0.6269(6)
C18 C -0.8758(7) -0.56479(14) -1.0570(8)
H14 H -0.9169 -0.5539 -1.1470
C19 C -0.3124(8) -0.59989(17) -1.0355(7)
H15 H -0.3180 -0.6033 -1.1373
C20 C -0.5648(7) -0.66971(14) -0.1673(7)
H16 H -0.6024 -0.6518 -0.2185
C21 C -0.0759(9) -0.50660(14) -0.3320(8)
H17 H -0.0266 -0.4895 -0.2818
C22 C -0.3429(7) -0.56682(14) -0.8406(7)
H18 H -0.3664 -0.5476 -0.8118
C23 C -0.4551(7) -0.72268(14) -0.0113(7)
H19 H -0.4176 -0.7405 0.0410
C24 C -0.5153(7) -0.70090(15) 0.0589(7)
H20 H -0.5181 -0.7038 0.1585
C25 C -0.4481(7) -0.76441(13) -0.6527(7)
H21 H -0.4408 -0.7819 -0.7073
C26 C -0.2402(6) -0.66226(11) -0.2696(6)
H22 H -0.2258 -0.6783 -0.2002
C27 C -0.2625(6) -0.61799(13) -0.7755(7)
H23 H -0.2316 -0.6335 -0.7036
C28 C -0.5787(7) -0.75623(14) -0.6336(8)
H24 H -0.6604 -0.7681 -0.6776
C29 C -0.5716(7) -0.67467(15) -0.0206(7)
H25 H -0.6148 -0.6601 0.0250
C30 C -0.4496(6) -0.71831(13) -0.1609(7)
H26 H -0.4109 -0.7333 -0.2084
C31 C -0.9291(7) -0.69311(15) -0.7675(7)
H27 H -0.9407 -0.7069 -0.8475
C32 C -0.1995(9) -0.51620(17) -0.3059(9)
H28 H -0.2328 -0.5059 -0.2344
C33 C -0.2283(6) -0.55685(12) -0.4902(6)
C34 C -0.3028(6) -0.59009(11) -0.7311(7)
C35 C -0.0250(8) -0.52253(17) -0.4337(8)
H29 H 0.0623 -0.5170 -0.4487
C36 C -0.2678(7) -0.62311(15) -0.9279(7)
H30 H -0.2414 -0.6420 -0.9571
C37 C -0.8977(7) -0.65191(14) -0.5309(7)
H31 H -0.8875 -0.6381 -0.4512
C38 C -0.9511(7) -0.56848(15) -0.9535(8)
H32 H -1.0424 -0.5597 -0.9734
C39 C -0.3482(7) -0.57189(16) -0.9897(7)
H33 H -0.3763 -0.5562 -1.0608
C40 C -1.0145(7) -0.69566(14) -0.6705(8)
H34 H -1.0827 -0.7112 -0.6849
C41 C -0.1043(8) -0.54713(15) -0.5149(7)
H35 H -0.0714 -0.5571 -0.5876
C42 C -0.2774(7) -0.54103(14) -0.3837(8)
H36 H -0.3622 -0.5471 -0.3648
C43 C -0.7545(6) -0.59775(12) -0.7882(6)
C44 C -0.9973(7) -0.67506(16) -0.5534(9)
H37 H -1.0541 -0.6768 -0.4885
C45 C -0.8933(7) -0.58494(14) -0.8203(8)
H38 H -0.9462 -0.5875 -0.7521
loop_
_geom_bond_atom_site_label_1
_geom_bond_atom_site_label_2
_geom_bond_site_symmetry_1
_geom_bond_site_symmetry_2
Se1 P1 1_555 1_555
P1 N1 1_555 1_555
C1 C2 1_555 1_555
N1 H1 1_555 1_555
C2 H2 1_555 1_555
C3 H3 1_555 1_555
C4 C3 1_555 1_555
C5 C1 1_555 1_555
C6 C3 1_555 1_555
C7 H4 1_555 1_555
C8 C4 1_555 1_555
H5 C8 1_555 1_555
C9 H6 1_555 1_555
C10 C4 1_555 1_555
H7 C10 1_555 1_555
C11 C7 1_555 1_555
H8 C11 1_555 1_555
C12 C8 1_555 1_555
H9 C12 1_555 1_555
C13 C3 1_555 1_555
C14 C1 1_555 1_555
H10 C14 1_555 1_555
C15 H11 1_555 1_555
H12 C15 1_555 1_555
H13 C15 1_555 1_555
C16 C2 1_555 1_555
C17 P1 1_555 1_555
C18 C7 1_555 1_555
H14 C18 1_555 1_555
C19 H15 1_555 1_555
C20 C6 1_555 1_555
H16 C20 1_555 1_555
C21 H17 1_555 1_555
C22 H18 1_555 1_555
C23 H19 1_555 1_555
C24 C23 1_555 1_555
H20 C24 1_555 1_555
C25 C12 1_555 1_555
H21 C25 1_555 1_555
C26 C13 1_555 1_555
H22 C26 1_555 1_555
C27 H23 1_555 1_555
C28 C10 1_555 1_555
H24 C28 1_555 1_555
C29 C20 1_555 1_555
H25 C29 1_555 1_555
C30 C6 1_555 1_555
H26 C30 1_555 1_555
C31 C9 1_555 1_555
H27 C31 1_555 1_555
C32 C21 1_555 1_555
H28 C32 1_555 1_555
C33 C14 1_555 1_555
C34 C14 1_555 1_555
C35 C21 1_555 1_555
H29 C35 1_555 1_555
C36 C19 1_555 1_555
H30 C36 1_555 1_555
C37 C17 1_555 1_555
H31 C37 1_555 1_555
C38 C18 1_555 1_555
H32 C38 1_555 1_555
C39 C19 1_555 1_555
H33 C39 1_555 1_555
C40 C31 1_555 1_555
H34 C40 1_555 1_555
C41 C33 1_555 1_555
H35 C41 1_555 1_555
C42 C32 1_555 1_555
H36 C42 1_555 1_555
C43 P1 1_555 1_555
C44 C37 1_555 1_555
H37 C44 1_555 1_555
C45 C38 1_555 1_555
H38 C45 1_555 1_555
N1 C5 1_555 1_555
C5 C13 1_555 1_555
C9 C17 1_555 1_555
C11 C43 1_555 1_555
C15 C16 1_555 1_555
C16 C26 1_555 1_555
C22 C34 1_555 1_555
C22 C39 1_555 1_555
C23 C30 1_555 1_555
C24 C29 1_555 1_555
C25 C28 1_555 1_555
C27 C34 1_555 1_555
C27 C36 1_555 1_555
C33 C42 1_555 1_555
C35 C41 1_555 1_555
C40 C44 1_555 1_555
C43 C45 1_555 1_555

#END
