
#######################################################################
#
#                 Cambridge Crystallographic Data Centre
#                                CCDC 
#
#######################################################################
#
# If this CIF has been generated from an entry in the Cambridge 
# Structural Database, then it will include bibliographic, chemical, 
# crystal, experimental, refinement or atomic coordinate data resulting 
# from the CCDC's data processing and validation procedures.
#
#######################################################################

data_BETFEO
_chemical_formula_moiety         'C50 H44 N2 P4 S4'
_chemical_name_systematic        
"N,N'-ethane-1,2-diylbis[N-(diphenylphosphorothioyl)-P,P-diphenyl(phosphinothioic amide)]"
_symmetry_cell_setting           monoclinic
_symmetry_space_group_name_H-M   'P 21/c'
_symmetry_Int_Tables_number      14
_space_group_name_Hall           '-P 2ybc'
loop_
_symmetry_equiv_pos_site_id
_symmetry_equiv_pos_as_xyz
1 x,y,z
2 -x,1/2+y,1/2-z
3 -x,-y,-z
4 x,1/2-y,1/2+z
_cell_length_a                   12.8507(7)
_cell_length_b                   10.3146(5)
_cell_length_c                   17.7617(9)
_cell_angle_alpha                90
_cell_angle_beta                 109.162(6)
_cell_angle_gamma                90
_cell_volume                     2223.87
_exptl_crystal_colour            colorless
_exptl_crystal_description       block
_cell_formula_units_Z            2
loop_
_atom_site_label
_atom_site_type_symbol
_atom_site_fract_x
_atom_site_fract_y
_atom_site_fract_z
P1 P 0.84118(5) 0.72437(6) 0.44859(4)
S1 S 0.80144(6) 0.35907(6) 0.30407(4)
S2 S 0.95046(5) 0.79295(6) 0.54394(4)
P2 P 0.76460(5) 0.44108(6) 0.39117(4)
N1 N 0.85470(16) 0.56118(18) 0.43919(11)
C1 C 0.76902(19) 0.3291(2) 0.47078(14)
C2 C 0.97404(19) 0.5233(2) 0.45703(13)
H1 H 1.0158 0.5988 0.4478
H2 H 0.9789 0.4533 0.4202
C3 C 0.7815(2) 0.3730(2) 0.54777(14)
H3 H 0.7817 0.4634 0.5579
C4 C 0.6258(2) 0.5066(2) 0.35357(14)
C5 C 0.7665(2) 0.1963(2) 0.45676(15)
H4 H 0.7564 0.1651 0.4045
C6 C 0.7048(2) 0.7583(2) 0.45234(14)
C7 C 0.5506(2) 0.4890(2) 0.39316(16)
H5 H 0.5736 0.4505 0.4446
C8 C 0.7935(2) 0.2856(2) 0.60939(15)
H6 H 0.8018 0.3163 0.6615
C9 C 0.6232(2) 0.8192(2) 0.39083(16)
H7 H 0.6345 0.8363 0.3415
C10 C 0.6880(2) 0.7372(2) 0.52538(15)
H8 H 0.7440 0.6973 0.5680
C11 C 0.8588(2) 0.7952(2) 0.36011(14)
C12 C 0.7788(2) 0.1089(3) 0.51885(16)
H9 H 0.7772 0.0183 0.5089
C13 C 0.8618(2) 0.7197(2) 0.29564(14)
H10 H 0.8454 0.6298 0.2943
C14 C 0.8821(2) 0.9276(2) 0.36058(15)
H11 H 0.8812 0.9798 0.4044
C15 C 0.5913(2) 0.5639(3) 0.27791(15)
H12 H 0.6421 0.5747 0.2497
C16 C 0.4416(2) 0.5274(3) 0.35836(18)
H13 H 0.3901 0.5138 0.3855
C17 C 0.7934(2) 0.1539(3) 0.59501(16)
H14 H 0.8033 0.0941 0.6375
C18 C 0.5246(2) 0.8550(3) 0.40198(19)
H15 H 0.4685 0.8957 0.3599
C19 C 0.5903(2) 0.7743(3) 0.53582(18)
H16 H 0.5796 0.7603 0.5856
C20 C 0.8888(2) 0.7761(3) 0.23361(15)
H17 H 0.8924 0.7240 0.1904
C21 C 0.9066(2) 0.9829(3) 0.29729(16)
H18 H 0.9207 1.0733 0.2974
C22 C 0.4836(2) 0.6045(3) 0.24433(17)
H19 H 0.4611 0.6459 0.1937
C23 C 0.9106(2) 0.9073(3) 0.23412(15)
H20 H 0.9282 0.9455 0.1911
C24 C 0.5079(3) 0.8317(3) 0.4738(2)
H21 H 0.4401 0.8551 0.4806
C25 C 0.4084(2) 0.5855(3) 0.28378(17)
H22 H 0.3340 0.6122 0.2599
P1B P 1.15882(5) 0.27563(6) 0.55141(4)
S1B S 1.19856(6) 0.64093(6) 0.69593(4)
S2B S 1.04954(5) 0.20705(6) 0.45606(4)
P2B P 1.23540(5) 0.55892(6) 0.60883(4)
N1B N 1.14530(16) 0.43882(18) 0.56081(11)
C1B C 1.23098(19) 0.6709(2) 0.52922(14)
C2B C 1.02596(19) 0.4767(2) 0.54297(13)
H1B H 0.9842 0.4012 0.5522
H2B H 1.0211 0.5467 0.5798
C3B C 1.2185(2) 0.6270(2) 0.45223(14)
H3B H 1.2183 0.5366 0.4421
C4B C 1.3742(2) 0.4934(2) 0.64643(14)
C5B C 1.2335(2) 0.8037(2) 0.54324(15)
H4B H 1.2436 0.8349 0.5955
C6B C 1.2952(2) 0.2417(2) 0.54766(14)
C7B C 1.4494(2) 0.5110(2) 0.60684(16)
H5B H 1.4264 0.5495 0.5554
C8B C 1.2065(2) 0.7144(2) 0.39061(15)
H6B H 1.1982 0.6837 0.3385
C9B C 1.3768(2) 0.1808(2) 0.60917(16)
H7B H 1.3655 0.1637 0.6585
C10B C 1.3120(2) 0.2628(2) 0.47462(15)
H8B H 1.2560 0.3027 0.4320
C11B C 1.1412(2) 0.2048(2) 0.63989(14)
C12B C 1.2212(2) 0.8911(3) 0.48115(16)
H9B H 1.2228 0.9817 0.4911
C13B C 1.1382(2) 0.2803(2) 0.70436(14)
H10B H 1.1546 0.3702 0.7057
C14B C 1.1179(2) 0.0724(2) 0.63942(15)
H11B H 1.1188 0.0202 0.5956
C15B C 1.4087(2) 0.4361(3) 0.72209(15)
H12B H 1.3579 0.4253 0.7503
C16B C 1.5584(2) 0.4726(3) 0.64164(18)
H13B H 1.6099 0.4862 0.6145
C17B C 1.2066(2) 0.8461(3) 0.40499(16)
H14B H 1.1967 0.9059 0.3625
C18B C 1.4754(2) 0.1450(3) 0.59802(19)
H15B H 1.5315 0.1043 0.6401
C19B C 1.4097(2) 0.2257(3) 0.46418(18)
H16B H 1.4204 0.2397 0.4144
C20B C 1.1112(2) 0.2239(3) 0.76639(15)
H17B H 1.1076 0.2760 0.8096
C21B C 1.0934(2) 0.0171(3) 0.70271(16)
H18B H 1.0793 -0.0733 0.7026
C22B C 1.5164(2) 0.3955(3) 0.75567(17)
H19B H 1.5389 0.3541 0.8063
C23B C 1.0894(2) 0.0927(3) 0.76588(15)
H20B H 1.0718 0.0545 0.8089
C24B C 1.4921(3) 0.1683(3) 0.5262(2)
H21B H 1.5599 0.1449 0.5194
C25B C 1.5916(2) 0.4145(3) 0.71622(17)
H22B H 1.6660 0.3878 0.7401
loop_
_geom_bond_atom_site_label_1
_geom_bond_atom_site_label_2
_geom_bond_site_symmetry_1
_geom_bond_site_symmetry_2
P1 S2 1_555 1_555
S1 P2 1_555 1_555
P2 N1 1_555 1_555
N1 P1 1_555 1_555
C1 P2 1_555 1_555
C2 N1 1_555 1_555
H1 C2 1_555 1_555
H2 C2 1_555 1_555
C3 C1 1_555 1_555
H3 C3 1_555 1_555
C4 P2 1_555 1_555
C5 C1 1_555 1_555
H4 C5 1_555 1_555
C6 P1 1_555 1_555
C7 C4 1_555 1_555
H5 C7 1_555 1_555
C8 C3 1_555 1_555
H6 C8 1_555 1_555
C9 C6 1_555 1_555
H7 C9 1_555 1_555
C10 C6 1_555 1_555
H8 C10 1_555 1_555
C11 P1 1_555 1_555
C12 C5 1_555 1_555
H9 C12 1_555 1_555
C13 C11 1_555 1_555
H10 C13 1_555 1_555
C14 C11 1_555 1_555
H11 C14 1_555 1_555
C15 C4 1_555 1_555
H12 C15 1_555 1_555
C16 C7 1_555 1_555
H13 C16 1_555 1_555
C17 C8 1_555 1_555
H14 C17 1_555 1_555
C18 C9 1_555 1_555
H15 C18 1_555 1_555
C19 C10 1_555 1_555
H16 C19 1_555 1_555
C20 C13 1_555 1_555
H17 C20 1_555 1_555
C21 C14 1_555 1_555
H18 C21 1_555 1_555
C22 C15 1_555 1_555
H19 C22 1_555 1_555
C23 C20 1_555 1_555
H20 C23 1_555 1_555
C24 C18 1_555 1_555
H21 C24 1_555 1_555
C25 C16 1_555 1_555
H22 C25 1_555 1_555
P1B S2B 1_555 1_555
S1B P2B 1_555 1_555
P2B N1B 1_555 1_555
N1B P1B 1_555 1_555
C1B P2B 1_555 1_555
C2B C2 1_555 1_555
H1B C2B 1_555 1_555
H2B C2B 1_555 1_555
C3B C1B 1_555 1_555
H3B C3B 1_555 1_555
C4B P2B 1_555 1_555
C5B C1B 1_555 1_555
H4B C5B 1_555 1_555
C6B P1B 1_555 1_555
C7B C4B 1_555 1_555
H5B C7B 1_555 1_555
C8B C3B 1_555 1_555
H6B C8B 1_555 1_555
C9B C6B 1_555 1_555
H7B C9B 1_555 1_555
C10B C6B 1_555 1_555
H8B C10B 1_555 1_555
C11B P1B 1_555 1_555
C12B C5B 1_555 1_555
H9B C12B 1_555 1_555
C13B C11B 1_555 1_555
H10B C13B 1_555 1_555
C14B C11B 1_555 1_555
H11B C14B 1_555 1_555
C15B C4B 1_555 1_555
H12B C15B 1_555 1_555
C16B C7B 1_555 1_555
H13B C16B 1_555 1_555
C17B C8B 1_555 1_555
H14B C17B 1_555 1_555
C18B C9B 1_555 1_555
H15B C18B 1_555 1_555
C19B C10B 1_555 1_555
H16B C19B 1_555 1_555
C20B C13B 1_555 1_555
H17B C20B 1_555 1_555
C21B C14B 1_555 1_555
H18B C21B 1_555 1_555
C22B C15B 1_555 1_555
H19B C22B 1_555 1_555
C23B C20B 1_555 1_555
H20B C23B 1_555 1_555
C24B C18B 1_555 1_555
H21B C24B 1_555 1_555
C25B C16B 1_555 1_555
H22B C25B 1_555 1_555
C12 C17 1_555 1_555
C19 C24 1_555 1_555
C21 C23 1_555 1_555
C22 C25 1_555 1_555
N1B C2B 1_555 1_555
C12B C17B 1_555 1_555
C19B C24B 1_555 1_555
C21B C23B 1_555 1_555
C22B C25B 1_555 1_555

#END
