
#######################################################################
#
#                 Cambridge Crystallographic Data Centre
#                                CCDC 
#
#######################################################################
#
# If this CIF has been generated from an entry in the Cambridge 
# Structural Database, then it will include bibliographic, chemical, 
# crystal, experimental, refinement or atomic coordinate data resulting 
# from the CCDC's data processing and validation procedures.
#
#######################################################################

data_BETFIP
_chemical_name_common            '(+-)-ketopinic acid'
_chemical_formula_moiety         'C10 H14 O3'
_chemical_name_systematic        
'(+-)-7,7-Dimethyl-2-oxobicyclo(2.2.1)heptane-1-carboxylic acid'
_symmetry_cell_setting           triclinic
_symmetry_space_group_name_H-M   'P -1'
_symmetry_Int_Tables_number      2
_space_group_name_Hall           '-P 1'
loop_
_symmetry_equiv_pos_site_id
_symmetry_equiv_pos_as_xyz
1 x,y,z
2 -x,-y,-z
_cell_length_a                   7.0947(3)
_cell_length_b                   11.8316(6)
_cell_length_c                   12.1662(6)
_cell_angle_alpha                72.013(1)
_cell_angle_beta                 77.019(1)
_cell_angle_gamma                86.546(1)
_cell_volume                     946.47
_exptl_crystal_colour            colorless
_exptl_crystal_description       prism
_chemical_melting_point          'Sublimes below 511K'
_cell_formula_units_Z            4
_exptl_crystal_recrystallization_method 'aqueous ethanol'
loop_
_atom_site_label
_atom_site_type_symbol
_atom_site_fract_x
_atom_site_fract_y
_atom_site_fract_z
O1 O 1.1562(11) 0.5269(6) 0.3060(4)
O3 O 0.8766(12) 0.4918(10) 0.1413(8)
O4 O 1.0704(8) 0.6296(5) 0.0118(4)
C1 C 0.9305(3) 0.6567(2) 0.19874(18)
C3 C 1.0336(2) 0.60097(13) 0.30160(12)
C4 C 0.9384(6) 0.6561(3) 0.3985(3)
C6 C 0.7898(2) 0.73940(13) 0.34132(12)
C7 C 0.9069(3) 0.84495(18) 0.24468(19)
C9 C 1.0131(4) 0.7864(2) 0.1492(2)
C11 C 0.7205(3) 0.67074(16) 0.26714(14)
C13 C 0.5945(2) 0.74497(14) 0.18485(13)
C14 C 0.6186(4) 0.5536(2) 0.3445(2)
C16 C 0.9570(2) 0.58500(15) 0.11361(15)
H1 H 1.0757 0.5833 -0.0291
H3 H 1.0337 0.7007 0.4177
H4 H 0.8747 0.5947 0.4715
H7 H 0.6834 0.7635 0.3988
H8 H 1.0004 0.8778 0.2765
H9 H 0.8202 0.9091 0.2119
H12 H 1.1550 0.7872 0.1415
H13 H 0.9828 0.8278 0.0711
H16 H 0.6618 0.8196 0.1360
H17 H 0.4716 0.7623 0.2322
H18 H 0.5693 0.7005 0.1336
H22 H 0.7012 0.5071 0.3966
H23 H 0.5936 0.5084 0.2939
H24 H 0.4958 0.5701 0.3925
O7 O 0.3362(17) -0.0796(7) 0.3726(10)
O9 O 0.29271(18) 0.02288(11) 0.09922(12)
O10 O 0.59792(19) 0.06811(11) 0.07887(11)
C17 C 0.3136(4) 0.1162(2) 0.22812(19)
C19 C 0.32032(19) 0.02753(12) 0.35113(11)
C20 C 0.2729(3) 0.10290(14) 0.43503(13)
C21 C 0.2643(7) 0.2281(8) 0.3528(7)
C23 C 0.0644(3) 0.2289(2) 0.3233(2)
C25 C 0.0940(4) 0.1480(3) 0.2416(2)
C27 C 0.4077(5) 0.2290(2) 0.2348(2)
C29 C 0.3969(2) 0.33838(12) 0.13094(12)
C30 C 0.6179(4) 0.2133(3) 0.2487(3)
C32 C 0.4241(3) 0.06529(13) 0.12917(13)
H28 H 0.3420 -0.0068 0.0450
H30 H 0.1473 0.0787 0.4912
H31 H 0.3750 0.0964 0.4803
H34 H 0.2864 0.2927 0.3857
H36 H 0.0279 0.3104 0.2815
H37 H -0.0365 0.1959 0.3958
H40 H 0.0637 0.1910 0.1639
H41 H 0.0118 0.0757 0.2787
H44 H 0.2631 0.3496 0.1209
H45 H 0.4803 0.3279 0.0588
H46 H 0.4403 0.4082 0.1459
H50 H 0.6272 0.1429 0.3156
H51 H 0.6604 0.2837 0.2632
H52 H 0.7005 0.2033 0.1761
O2? O 1.184(4) 0.539(2) 0.298(2)
O5? O 1.1044(11) 0.6123(6) 0.0412(5)
O6? O 0.8368(12) 0.4963(10) 0.1241(8)
C2? C 0.8740(9) 0.6053(6) 0.2405(6)
C5? C 0.9882(17) 0.6960(9) 0.3674(10)
C8? C 0.6502(9) 0.6287(6) 0.4155(5)
C10? C 0.7161(11) 0.5359(6) 0.3470(6)
C12? C 0.8096(8) 0.7361(5) 0.2139(5)
C15? C 0.9554(12) 0.8261(7) 0.1264(7)
H2? H 0.8641 0.4758 0.0622
H5? H 0.9808 0.6607 0.4534
H6? H 1.0857 0.7611 0.3348
H10? H 0.6676 0.5977 0.4980
H11? H 0.5130 0.6502 0.4164
H14? H 0.7701 0.4642 0.3968
H15? H 0.6074 0.5120 0.3200
H19? H 0.5114 0.6845 0.2443
H20? H 0.6037 0.7344 0.1087
H21? H 0.5419 0.8218 0.1843
H25? H 0.9636 0.8212 0.0465
H26? H 1.0823 0.8095 0.1468
H27? H 0.9149 0.9060 0.1291
O8? O 0.305(2) -0.0770(8) 0.3783(11)
C18? C 0.4287(5) 0.1116(2) 0.2356(2)
C22? C 0.3277(9) 0.2273(9) 0.3547(9)
C24? C 0.5492(5) 0.2247(3) 0.3440(3)
C26? C 0.6180(4) 0.1408(3) 0.2662(3)
C28? C 0.3090(6) 0.2278(3) 0.2299(3)
C31? C 0.0975(5) 0.2152(5) 0.2236(4)
H29? H 0.6125 0.0318 0.0282
H32? H 0.3591 0.0792 0.4885
H33? H 0.1419 0.0934 0.4799
H35? H 0.2587 0.2927 0.3830
H38? H 0.5822 0.1921 0.4226
H39? H 0.6073 0.3051 0.3048
H42? H 0.7137 0.1813 0.1936
H43? H 0.6763 0.0678 0.3107
H47? H 0.3810 0.3331 0.0564
H48? H 0.5322 0.3435 0.1291
H49? H 0.3328 0.4079 0.1452
H53? H 0.0389 0.1447 0.2866
H54? H 0.0933 0.2070 0.1465
H55? H 0.0256 0.2859 0.2338
loop_
_geom_bond_atom_site_label_1
_geom_bond_atom_site_label_2
_geom_bond_site_symmetry_1
_geom_bond_site_symmetry_2
O1 C3 1_555 1_555
O3 C16 1_555 1_555
O4 C16 1_555 1_555
C1 C3 1_555 1_555
C3 C4 1_555 1_555
C4 C6 1_555 1_555
C6 C7 1_555 1_555
C7 C9 1_555 1_555
C9 C1 1_555 1_555
C11 C1 1_555 1_555
C13 C11 1_555 1_555
C14 C11 1_555 1_555
C16 C1 1_555 1_555
H1 O4 1_555 1_555
H3 C4 1_555 1_555
H4 C4 1_555 1_555
H7 C6 1_555 1_555
H8 C7 1_555 1_555
H9 C7 1_555 1_555
H12 C9 1_555 1_555
H13 C9 1_555 1_555
H16 C13 1_555 1_555
H17 C13 1_555 1_555
H18 C13 1_555 1_555
H22 C14 1_555 1_555
H23 C14 1_555 1_555
H24 C14 1_555 1_555
O7 C19 1_555 1_555
O9 C32 1_555 1_555
O10 C32 1_555 1_555
C17 C19 1_555 1_555
C19 C20 1_555 1_555
C20 C21 1_555 1_555
C21 C23 1_555 1_555
C23 C25 1_555 1_555
C25 C17 1_555 1_555
C27 C17 1_555 1_555
C29 C27 1_555 1_555
C30 C27 1_555 1_555
C32 C17 1_555 1_555
H28 O9 1_555 1_555
H30 C20 1_555 1_555
H31 C20 1_555 1_555
H34 C21 1_555 1_555
H36 C23 1_555 1_555
H37 C23 1_555 1_555
H40 C25 1_555 1_555
H41 C25 1_555 1_555
H44 C29 1_555 1_555
H45 C29 1_555 1_555
H46 C29 1_555 1_555
H50 C30 1_555 1_555
H51 C30 1_555 1_555
H52 C30 1_555 1_555
C6 C11 1_555 1_555
C21 C27 1_555 1_555

#END
