
#######################################################################
#
#                 Cambridge Crystallographic Data Centre
#                                CCDC 
#
#######################################################################
#
# If this CIF has been generated from an entry in the Cambridge 
# Structural Database, then it will include bibliographic, chemical, 
# crystal, experimental, refinement or atomic coordinate data resulting 
# from the CCDC's data processing and validation procedures.
#
#######################################################################

data_BETJAL02
_chemical_name_common            N-(pyridin-3-oyl)-N,N'-dicyclohexylurea
_chemical_formula_moiety         'C19 H27 N3 O2'
_chemical_name_systematic        
N-Cyclohexyl-N-(cyclohexylcarbamoyl)nicotinamide
_symmetry_cell_setting           triclinic
_symmetry_space_group_name_H-M   'P -1'
_symmetry_Int_Tables_number      2
_space_group_name_Hall           '-P 1'
loop_
_symmetry_equiv_pos_site_id
_symmetry_equiv_pos_as_xyz
1 x,y,z
2 -x,-y,-z
_cell_length_a                   9.6754(3)
_cell_length_b                   12.7643(5)
_cell_length_c                   16.0409(7)
_cell_angle_alpha                67.278(2)
_cell_angle_beta                 87.650(2)
_cell_angle_gamma                85.791(3)
_cell_volume                     1822.2
_exptl_crystal_colour            colorless
_exptl_crystal_description       slab
_cell_formula_units_Z            4
_exptl_crystal_recrystallization_method acetone
loop_
_atom_site_label
_atom_site_type_symbol
_atom_site_fract_x
_atom_site_fract_y
_atom_site_fract_z
N1 N 0.4362(3) 0.6832(2) 0.32556(19)
O2 O 0.6179(2) 0.7682(2) 0.23120(17)
N2 N 0.4523(3) 0.6962(2) 0.1770(2)
H1 H 0.368(4) 0.670(3) 0.188(2)
N3 N 0.6813(3) 0.3848(3) 0.3183(2)
O4 O 0.3315(3) 0.5463(2) 0.4409(2)
C5 C 0.4755(3) 0.4844(3) 0.3445(2)
C6 C 0.5119(4) 0.7190(3) 0.2407(2)
C7 C 0.4070(3) 0.5730(3) 0.3748(3)
C8 C 0.3925(3) 0.7713(3) 0.3616(2)
H5 H 0.3119 0.7442 0.4013
C11 C 0.6170(3) 0.4654(3) 0.3425(2)
H9 H 0.6714 0.5112 0.3590
C12 C 0.3961(3) 0.4129(3) 0.3234(3)
H10 H 0.2999 0.4208 0.3263
C15 C 0.5120(3) 0.7276(3) 0.0864(2)
H12 H 0.6114 0.7357 0.0897
C17 C 0.4471(4) 0.8404(3) 0.0225(2)
H14 H 0.3479 0.8349 0.0205
H15 H 0.4621 0.8992 0.0448
C18 C 0.4946(4) 0.6356(3) 0.0506(3)
H16 H 0.5407 0.5649 0.0905
H17 H 0.3969 0.6236 0.0501
C21 C 0.5082(5) 0.8731(3) -0.0718(3)
H21 H 0.4612 0.9434 -0.1117
H22 H 0.6054 0.8864 -0.0708
C23 C 0.5028(4) 0.7872(3) 0.4184(3)
H25 H 0.5854 0.8123 0.3817
H26 H 0.5268 0.7152 0.4674
C24 C 0.5998(4) 0.3194(3) 0.2965(3)
H27 H 0.6419 0.2629 0.2792
C26 C 0.3461(4) 0.8832(3) 0.2872(3)
H30 H 0.2718 0.8708 0.2539
H31 H 0.4229 0.9113 0.2454
C29 C 0.2964(4) 0.9716(3) 0.3247(3)
H36 H 0.2733 1.0433 0.2753
H37 H 0.2132 0.9475 0.3611
C30 C 0.5546(5) 0.6671(4) -0.0442(3)
H38 H 0.5351 0.6093 -0.0667
H39 H 0.6544 0.6692 -0.0425
C31 C 0.4942(5) 0.7816(4) -0.1078(3)
H40 H 0.5414 0.8025 -0.1660
H41 H 0.3970 0.7760 -0.1168
C32 C 0.4058(5) 0.9881(4) 0.3817(3)
H42 H 0.3695 1.0415 0.4080
H43 H 0.4853 1.0199 0.3440
C33 C 0.4596(4) 0.3303(3) 0.2981(3)
H44 H 0.4076 0.2826 0.2822
C36 C 0.4510(6) 0.8752(4) 0.4570(3)
H49 H 0.3734 0.8469 0.4979
H50 H 0.5244 0.8872 0.4912
O1 O 0.1652(2) 0.2482(2) 0.25469(16)
O3 O -0.1598(3) 0.4677(2) 0.06428(19)
N4 N -0.0326(3) 0.3283(2) 0.17139(18)
N5 N -0.0169(3) 0.3069(2) 0.3212(2)
H2 H -0.102(4) 0.330(3) 0.317(2)
N6 N 0.1630(3) 0.6172(3) 0.1852(2)
C1 C 0.0486(4) 0.2923(3) 0.2518(2)
C2 C -0.0272(3) 0.5252(3) 0.1573(2)
C3 C 0.0502(3) 0.2783(3) 0.4076(2)
H3 H 0.1501 0.2826 0.3952
C4 C -0.1190(3) 0.5998(3) 0.1779(2)
H4 H -0.2139 0.5960 0.1735
C9 C 0.0689(4) 0.2259(3) 0.0782(3)
H6 H 0.1494 0.2002 0.1166
H7 H 0.0879 0.2978 0.0299
C10 C -0.0701(4) 0.6797(3) 0.2049(3)
H8 H -0.1306 0.7293 0.2206
C13 C 0.1120(3) 0.5395(3) 0.1601(2)
H11 H 0.1746 0.4920 0.1434
C14 C -0.0797(3) 0.4390(3) 0.1265(2)
C16 C -0.0550(3) 0.2430(3) 0.1328(2)
H13 H -0.1334 0.2723 0.0916
C19 C 0.0698(4) 0.6841(3) 0.2081(3)
H18 H 0.1026 0.7374 0.2275
C20 C -0.0943(4) 0.1311(3) 0.2064(3)
H19 H -0.0210 0.1020 0.2504
H20 H -0.1783 0.1439 0.2372
C22 C 0.0270(4) 0.1578(3) 0.4716(3)
H23 H 0.0607 0.1053 0.4438
H24 H -0.0715 0.1493 0.4837
C25 C 0.0608(5) 0.2144(4) 0.6023(3)
H28 H -0.0360 0.2080 0.6207
H29 H 0.1155 0.1969 0.6558
C27 C 0.0081(5) 0.3625(3) 0.4495(3)
H32 H -0.0912 0.3627 0.4606
H33 H 0.0295 0.4382 0.4079
C28 C 0.1019(5) 0.1295(3) 0.5596(3)
H34 H 0.0803 0.0539 0.6014
H35 H 0.2011 0.1290 0.5482
C34 C 0.0087(6) 0.0276(4) 0.1125(3)
H45 H -0.0089 -0.0268 0.0861
H46 H 0.0866 -0.0030 0.1528
C35 C 0.0823(5) 0.3341(3) 0.5378(3)
H47 H 0.1807 0.3433 0.5257
H48 H 0.0479 0.3867 0.5654
C37 C -0.1175(5) 0.0442(3) 0.1655(3)
H51 H -0.1374 -0.0278 0.2134
H52 H -0.1968 0.0701 0.1260
C38 C 0.0443(5) 0.1395(4) 0.0381(3)
H53 H 0.1268 0.1277 0.0057
H54 H -0.0312 0.1679 -0.0044
loop_
_geom_bond_atom_site_label_1
_geom_bond_atom_site_label_2
_geom_bond_site_symmetry_1
_geom_bond_site_symmetry_2
N1 C6 1_555 1_555
O1 C1 1_555 1_555
O2 C6 1_555 1_555
O3 C14 1_555 1_555
N2 H1 1_555 1_555
N3 C11 1_555 1_555
N4 C1 1_555 1_555
N5 H2 1_555 1_555
O4 C7 1_555 1_555
N6 C13 1_555 1_555
C1 N5 1_555 1_555
C2 C4 1_555 1_555
C3 N5 1_555 1_555
H3 C3 1_555 1_555
C4 H4 1_555 1_555
C5 C7 1_555 1_555
C6 N2 1_555 1_555
C7 N1 1_555 1_555
C8 N1 1_555 1_555
H5 C8 1_555 1_555
C9 H6 1_555 1_555
H7 C9 1_555 1_555
C10 C4 1_555 1_555
H8 C10 1_555 1_555
C11 C5 1_555 1_555
H9 C11 1_555 1_555
C12 C5 1_555 1_555
H10 C12 1_555 1_555
C13 C2 1_555 1_555
H11 C13 1_555 1_555
C14 N4 1_555 1_555
C15 N2 1_555 1_555
H12 C15 1_555 1_555
C16 N4 1_555 1_555
H13 C16 1_555 1_555
C17 C15 1_555 1_555
H14 C17 1_555 1_555
H15 C17 1_555 1_555
C18 C15 1_555 1_555
H16 C18 1_555 1_555
H17 C18 1_555 1_555
C19 N6 1_555 1_555
H18 C19 1_555 1_555
C20 C16 1_555 1_555
H19 C20 1_555 1_555
H20 C20 1_555 1_555
C21 C17 1_555 1_555
H21 C21 1_555 1_555
H22 C21 1_555 1_555
C22 C3 1_555 1_555
H23 C22 1_555 1_555
H24 C22 1_555 1_555
C23 C8 1_555 1_555
H25 C23 1_555 1_555
H26 C23 1_555 1_555
C24 N3 1_555 1_555
H27 C24 1_555 1_555
C25 H28 1_555 1_555
H29 C25 1_555 1_555
C26 C8 1_555 1_555
H30 C26 1_555 1_555
H31 C26 1_555 1_555
C27 C3 1_555 1_555
H32 C27 1_555 1_555
H33 C27 1_555 1_555
C28 C22 1_555 1_555
H34 C28 1_555 1_555
H35 C28 1_555 1_555
C29 C26 1_555 1_555
H36 C29 1_555 1_555
H37 C29 1_555 1_555
C30 C18 1_555 1_555
H38 C30 1_555 1_555
H39 C30 1_555 1_555
C31 C21 1_555 1_555
H40 C31 1_555 1_555
H41 C31 1_555 1_555
C32 C29 1_555 1_555
H42 C32 1_555 1_555
H43 C32 1_555 1_555
C33 C12 1_555 1_555
H44 C33 1_555 1_555
C34 H45 1_555 1_555
H46 C34 1_555 1_555
C35 C25 1_555 1_555
H47 C35 1_555 1_555
H48 C35 1_555 1_555
C36 C23 1_555 1_555
H49 C36 1_555 1_555
H50 C36 1_555 1_555
C37 C20 1_555 1_555
H51 C37 1_555 1_555
H52 C37 1_555 1_555
C38 C9 1_555 1_555
H53 C38 1_555 1_555
H54 C38 1_555 1_555
C2 C14 1_555 1_555
C9 C16 1_555 1_555
C10 C19 1_555 1_555
C24 C33 1_555 1_555
C25 C28 1_555 1_555
C27 C35 1_555 1_555
C30 C31 1_555 1_555
C32 C36 1_555 1_555
C34 C37 1_555 1_555
C34 C38 1_555 1_555

#END
