
#######################################################################
#
#                 Cambridge Crystallographic Data Centre
#                                CCDC 
#
#######################################################################
#
# If this CIF has been generated from an entry in the Cambridge 
# Structural Database, then it will include bibliographic, chemical, 
# crystal, experimental, refinement or atomic coordinate data resulting 
# from the CCDC's data processing and validation procedures.
#
#######################################################################

data_BETJIV
_chemical_formula_moiety         'C10 H9 N3 O3'
_chemical_name_systematic        
'5-Methoxy-1-(pyridin-2-yl)-1H-pyrazole-3-carboxylic acid'
_symmetry_cell_setting           monoclinic
_symmetry_space_group_name_H-M   'P 21/n'
_symmetry_Int_Tables_number      14
_space_group_name_Hall           '-P 2yn'
loop_
_symmetry_equiv_pos_site_id
_symmetry_equiv_pos_as_xyz
1 x,y,z
2 1/2-x,1/2+y,1/2-z
3 -x,-y,-z
4 1/2+x,1/2-y,1/2+z
_cell_length_a                   7.144(3)
_cell_length_b                   8.093(4)
_cell_length_c                   16.662(3)
_cell_angle_alpha                90
_cell_angle_beta                 95.6380(10)
_cell_angle_gamma                90
_cell_volume                     958.677
_chemical_melting_point          '201.1-203.5 deg.C'
_cell_formula_units_Z            4
_exptl_crystal_recrystallization_method ethanol
loop_
_atom_site_label
_atom_site_type_symbol
_atom_site_fract_x
_atom_site_fract_y
_atom_site_fract_z
N1 N 0.0311(4) 0.2121(4) 0.90570(17)
N2 N 0.1653(4) 0.3470(4) 0.80500(17)
N3 N -0.0811(4) 0.1230(4) 0.85114(17)
O1 O 0.0563(3) 0.3000(3) 1.03783(15)
O2 O -0.3442(3) -0.0725(4) 0.78213(16)
H1 H -0.4333 -0.1293 0.7636
O3 O -0.4999(4) -0.0731(4) 0.88884(17)
C1 C 0.3085(5) 0.4273(5) 0.7779(2)
H2 H 0.2973 0.4626 0.7245
C2 C 0.4718(5) 0.4602(5) 0.8252(2)
H3 H 0.5670 0.5216 0.8053
C3 C 0.4915(5) 0.4026(5) 0.9003(3)
H4 H 0.6030 0.4212 0.9328
C4 C 0.3488(5) 0.3160(5) 0.9301(2)
H5 H 0.3611 0.2737 0.9823
C5 C 0.1883(4) 0.2944(4) 0.8800(2)
C6 C -0.2159(4) 0.0704(5) 0.8944(2)
C7 C -0.3670(5) -0.0317(5) 0.8552(2)
C8 C -0.1962(5) 0.1246(5) 0.9737(2)
H6 H -0.2745 0.1036 1.0139
C9 C -0.0371(5) 0.2146(5) 0.9788(2)
C10 C -0.0311(6) 0.3015(6) 1.1110(2)
H7 H -0.1550 0.3477 1.1012
H8 H 0.0424 0.3672 1.1504
H9 H -0.0397 0.1906 1.1307
loop_
_geom_bond_atom_site_label_1
_geom_bond_atom_site_label_2
_geom_bond_site_symmetry_1
_geom_bond_site_symmetry_2
N1 N3 1_555 1_555
N2 C1 1_555 1_555
N3 C6 1_555 1_555
O1 C9 1_555 1_555
O2 H1 1_555 1_555
O3 C7 1_555 1_555
C1 H2 1_555 1_555
C2 C1 1_555 1_555
H3 C2 1_555 1_555
C3 C2 1_555 1_555
H4 C3 1_555 1_555
C4 C3 1_555 1_555
H5 C4 1_555 1_555
C5 N1 1_555 1_555
C6 C7 1_555 1_555
C7 O2 1_555 1_555
C8 C6 1_555 1_555
H6 C8 1_555 1_555
C9 N1 1_555 1_555
C10 O1 1_555 1_555
H7 C10 1_555 1_555
H8 C10 1_555 1_555
H9 C10 1_555 1_555
N2 C5 1_555 1_555
C4 C5 1_555 1_555
C8 C9 1_555 1_555

#END
