
#######################################################################
#
#                 Cambridge Crystallographic Data Centre
#                                CCDC 
#
#######################################################################
#
# If this CIF has been generated from an entry in the Cambridge 
# Structural Database, then it will include bibliographic, chemical, 
# crystal, experimental, refinement or atomic coordinate data resulting 
# from the CCDC's data processing and validation procedures.
#
#######################################################################

data_BETJIU
_chemical_formula_moiety         'C23 H35 N3 O3 S1'
_chemical_name_systematic        
1-Ethyl-2-(toluene-4-sulfonyl)-4-((2-(methoxymethyl)pyrrolidin-1-yl)imino)hexahydrocyclopenta(c)pyrrole
_symmetry_cell_setting           monoclinic
_symmetry_space_group_name_H-M   'P 21'
_symmetry_Int_Tables_number      4
_space_group_name_Hall           'P 2yb'
loop_
_symmetry_equiv_pos_site_id
_symmetry_equiv_pos_as_xyz
1 x,y,z
2 -x,1/2+y,-z
_cell_length_a                   11.130(2)
_cell_length_b                   7.964(2)
_cell_length_c                   13.859(2)
_cell_angle_alpha                90
_cell_angle_beta                 106.16(2)
_cell_angle_gamma                90
_cell_volume                     1179.91
_exptl_crystal_colour            colorless
_exptl_crystal_description       block
_cell_formula_units_Z            2
_exptl_crystal_recrystallization_method dichloromethane
loop_
_atom_site_label
_atom_site_type_symbol
_atom_site_fract_x
_atom_site_fract_y
_atom_site_fract_z
S1 S 0.5474(2) 0.2775(3) 0.30162(17)
O1 O 0.4146(6) 0.2684(10) 0.2817(5)
O2 O 0.6251(7) 0.1407(7) 0.3496(5)
O3 O 1.0126(5) 1.2168(8) 0.1909(4)
N1 N 0.5937(6) 0.4435(7) 0.3690(4)
N2 N 0.9118(5) 0.8376(7) 0.2928(4)
N3 N 0.8877(5) 0.8893(7) 0.1924(4)
C1 C 0.5244(6) 0.6035(8) 0.3450(5)
H1 H 0.4802 0.6066 0.2732
C2 C 0.6289(6) 0.7317(8) 0.3676(5)
H2 H 0.6019 0.8352 0.3937
C3 C 0.7363(7) 0.6532(10) 0.4458(5)
H3 H 0.7247 0.6616 0.5132
C4 C 0.7290(7) 0.4721(10) 0.4098(5)
H4 H 0.7719 0.4579 0.3582
H5 H 0.7651 0.3961 0.4649
C5 C 0.4303(7) 0.6233(11) 0.4061(5)
H6 H 0.3867 0.5177 0.4058
H7 H 0.4749 0.6492 0.4752
C6 C 0.3364(8) 0.7589(16) 0.3659(7)
H8 H 0.2797 0.7670 0.4067
H9 H 0.2904 0.7325 0.2981
H10 H 0.3789 0.8641 0.3670
C7 C 0.6834(6) 0.7717(11) 0.2797(5)
H11 H 0.6658 0.6816 0.2307
H12 H 0.6486 0.8753 0.2468
C8 C 0.8228(7) 0.7890(10) 0.3271(5)
C9 C 0.8523(7) 0.7462(10) 0.4389(5)
H13 H 0.8554 0.8522 0.4754
C10 C 0.9767(7) 0.6592(13) 0.4814(6)
H14 H 1.0429 0.7300 0.4731
H15 H 0.9773 0.5552 0.4465
H16 H 0.9888 0.6371 0.5516
C11 C 0.8171(7) 0.7768(12) 0.1138(5)
H17 H 0.7279 0.7865 0.1053
H18 H 0.8424 0.6609 0.1286
C12 C 0.8514(7) 0.8386(14) 0.0224(6)
H19 H 0.8607 0.7445 -0.0194
H20 H 0.7863 0.9118 -0.0169
C13 C 0.9709(7) 0.9316(12) 0.0569(5)
H21 H 0.9597 1.0477 0.0351
H22 H 1.0341 0.8809 0.0301
C14 C 1.0093(6) 0.9212(10) 0.1705(6)
H23 H 1.0625 0.8221 0.1907
C15 C 1.0762(6) 1.0686(10) 0.2248(6)
H24 H 1.0853 1.0560 0.2961
H25 H 1.1593 1.0741 0.2154
C16 C 1.0751(9) 1.3612(13) 0.2415(8)
H26 H 1.0291 1.4602 0.2140
H27 H 1.1577 1.3672 0.2330
H28 H 1.0808 1.3534 0.3118
C17 C 0.5793(7) 0.3136(9) 0.1856(5)
C18 C 0.6915(6) 0.2647(10) 0.1710(5)
H29 H 0.7504 0.2086 0.2215
C19 C 0.7158(6) 0.2992(11) 0.0812(6)
H30 H 0.7918 0.2657 0.0717
C20 C 0.6300(7) 0.3827(10) 0.0041(6)
C21 C 0.5184(7) 0.4315(10) 0.0202(6)
H31 H 0.4599 0.4889 -0.0300
C22 C 0.4925(7) 0.3967(10) 0.1089(6)
H32 H 0.4161 0.4289 0.1180
C23 C 0.6568(7) 0.4158(13) -0.0939(6)
H33 H 0.5872 0.4737 -0.1379
H34 H 0.6698 0.3112 -0.1239
H35 H 0.7306 0.4838 -0.0828
loop_
_geom_bond_atom_site_label_1
_geom_bond_atom_site_label_2
_geom_bond_site_symmetry_1
_geom_bond_site_symmetry_2
S1 O1 1_555 1_555
O2 S1 1_555 1_555
O3 C15 1_555 1_555
N1 S1 1_555 1_555
N2 N3 1_555 1_555
N3 C11 1_555 1_555
C1 N1 1_555 1_555
H1 C1 1_555 1_555
C2 C1 1_555 1_555
H2 C2 1_555 1_555
C3 C2 1_555 1_555
H3 C3 1_555 1_555
C4 N1 1_555 1_555
H4 C4 1_555 1_555
H5 C4 1_555 1_555
C5 C1 1_555 1_555
H6 C5 1_555 1_555
H7 C5 1_555 1_555
C6 C5 1_555 1_555
H8 C6 1_555 1_555
H9 C6 1_555 1_555
H10 C6 1_555 1_555
C7 C2 1_555 1_555
H11 C7 1_555 1_555
H12 C7 1_555 1_555
C8 N2 1_555 1_555
C9 C3 1_555 1_555
H13 C9 1_555 1_555
C10 C9 1_555 1_555
H14 C10 1_555 1_555
H15 C10 1_555 1_555
H16 C10 1_555 1_555
C11 H17 1_555 1_555
H18 C11 1_555 1_555
C12 C11 1_555 1_555
H19 C12 1_555 1_555
H20 C12 1_555 1_555
C13 C12 1_555 1_555
H21 C13 1_555 1_555
H22 C13 1_555 1_555
C14 N3 1_555 1_555
H23 C14 1_555 1_555
C15 C14 1_555 1_555
H24 C15 1_555 1_555
H25 C15 1_555 1_555
C16 O3 1_555 1_555
H26 C16 1_555 1_555
H27 C16 1_555 1_555
H28 C16 1_555 1_555
C17 S1 1_555 1_555
C18 C17 1_555 1_555
H29 C18 1_555 1_555
C19 C18 1_555 1_555
H30 C19 1_555 1_555
C20 C19 1_555 1_555
C21 C20 1_555 1_555
H31 C21 1_555 1_555
C22 C17 1_555 1_555
H32 C22 1_555 1_555
C23 C20 1_555 1_555
H33 C23 1_555 1_555
H34 C23 1_555 1_555
H35 C23 1_555 1_555
C3 C4 1_555 1_555
C7 C8 1_555 1_555
C8 C9 1_555 1_555
C13 C14 1_555 1_555
C21 C22 1_555 1_555

#END
