
#######################################################################
#
#                 Cambridge Crystallographic Data Centre
#                                CCDC 
#
#######################################################################
#
# If this CIF has been generated from an entry in the Cambridge 
# Structural Database, then it will include bibliographic, chemical, 
# crystal, experimental, refinement or atomic coordinate data resulting 
# from the CCDC's data processing and validation procedures.
#
#######################################################################

data_BETLEU
_chemical_compound_source        
'95% EtOH extract of stems of Dendrobium findlayanum'
_chemical_name_common            'findlayine C'
_chemical_formula_moiety         'C15 H21 N1 O3'
_chemical_name_systematic        
10-hydroxy-9-isopropyl-12-methyl-6-azatricyclo[6.4.0.0^4,12^]dodec-9-ene-7,11-dione
_symmetry_cell_setting           orthorhombic
_symmetry_space_group_name_H-M   'P 21 21 21'
_symmetry_Int_Tables_number      19
_space_group_name_Hall           'P 2ac 2ab'
loop_
_symmetry_equiv_pos_site_id
_symmetry_equiv_pos_as_xyz
1 x,y,z
2 1/2+x,1/2-y,-z
3 -x,1/2+y,1/2-z
4 1/2-x,-y,1/2+z
_cell_length_a                   7.9580(5)
_cell_length_b                   9.8360(6)
_cell_length_c                   17.1200(11)
_cell_angle_alpha                90
_cell_angle_beta                 90
_cell_angle_gamma                90
_cell_volume                     1340.07
_exptl_crystal_colour            colorless
_exptl_crystal_description       sheet
_cell_formula_units_Z            4
loop_
_atom_site_label
_atom_site_type_symbol
_atom_site_fract_x
_atom_site_fract_y
_atom_site_fract_z
O1 O 0.5336(8) 0.7159(7) 0.1749(3)
O2 O -0.1891(8) 0.6229(6) 0.2913(3)
O3 O -0.1434(8) 0.6713(6) 0.1388(3)
H1 H -0.2349 0.6587 0.1622
N1 N 0.3867(11) 0.5596(7) 0.2421(4)
H2 H 0.4725 0.5045 0.2351
C1 C -0.0133(14) 0.7631(10) 0.4070(4)
H3 H -0.0875 0.8389 0.3932
H4 H 0.0710 0.7942 0.4447
H5 H -0.0798 0.6895 0.4301
C2 C 0.0750(13) 0.7110(9) 0.3334(4)
C3 C -0.0534(12) 0.6769(8) 0.2731(4)
C4 C -0.0261(11) 0.7048(9) 0.1900(4)
C5 C 0.1239(12) 0.7586(9) 0.1648(4)
C6 C 0.1468(11) 0.7767(9) 0.0764(4)
H6 H 0.0348 0.8004 0.0537
C7 C 0.2054(12) 0.6443(9) 0.0381(4)
H7 H 0.3129 0.6163 0.0610
H8 H 0.2196 0.6586 -0.0182
H9 H 0.1214 0.5731 0.0469
C8 C 0.4051(13) 0.6842(9) 0.2112(4)
C9 C 0.2459(14) 0.5016(9) 0.2856(5)
H10 H 0.2791 0.4103 0.3043
H11 H 0.1503 0.4896 0.2492
C10 C 0.1857(13) 0.5847(9) 0.3555(4)
H12 H 0.1209 0.5244 0.3916
C11 C 0.3317(14) 0.6492(9) 0.4001(5)
H13 H 0.4360 0.5957 0.3928
H14 H 0.3062 0.6542 0.4567
C12 C 0.3514(14) 0.7936(9) 0.3651(5)
H15 H 0.3437 0.8629 0.4069
H16 H 0.4619 0.8026 0.3391
C13 C 0.2094(13) 0.8132(9) 0.3059(4)
H17 H 0.1639 0.9076 0.3109
C14 C 0.2641(11) 0.7886(8) 0.2201(4)
H18 H 0.3130 0.8768 0.2021
C15 C 0.2694(12) 0.8937(9) 0.0567(4)
H19 H 0.2383 0.9748 0.0866
H20 H 0.2634 0.9139 0.0008
H21 H 0.3842 0.8665 0.0704
loop_
_geom_bond_atom_site_label_1
_geom_bond_atom_site_label_2
_geom_bond_site_symmetry_1
_geom_bond_site_symmetry_2
O1 C8 1_555 1_555
O2 C3 1_555 1_555
O3 H1 1_555 1_555
N1 H2 1_555 1_555
C1 H3 1_555 1_555
H4 C1 1_555 1_555
H5 C1 1_555 1_555
C2 C1 1_555 1_555
C3 C2 1_555 1_555
C4 O3 1_555 1_555
C5 C4 1_555 1_555
C6 C5 1_555 1_555
H6 C6 1_555 1_555
C7 C6 1_555 1_555
H7 C7 1_555 1_555
H8 C7 1_555 1_555
H9 C7 1_555 1_555
C8 N1 1_555 1_555
C9 N1 1_555 1_555
H10 C9 1_555 1_555
H11 C9 1_555 1_555
C10 C2 1_555 1_555
H12 C10 1_555 1_555
C11 C10 1_555 1_555
H13 C11 1_555 1_555
H14 C11 1_555 1_555
C12 C11 1_555 1_555
H15 C12 1_555 1_555
H16 C12 1_555 1_555
C13 C2 1_555 1_555
H17 C13 1_555 1_555
C14 C5 1_555 1_555
H18 C14 1_555 1_555
C15 C6 1_555 1_555
H19 C15 1_555 1_555
H20 C15 1_555 1_555
H21 C15 1_555 1_555
C3 C4 1_555 1_555
C8 C14 1_555 1_555
C9 C10 1_555 1_555
C12 C13 1_555 1_555
C13 C14 1_555 1_555

#END
