
#######################################################################
#
#                 Cambridge Crystallographic Data Centre
#                                CCDC 
#
#######################################################################
#
# If this CIF has been generated from an entry in the Cambridge 
# Structural Database, then it will include bibliographic, chemical, 
# crystal, experimental, refinement or atomic coordinate data resulting 
# from the CCDC's data processing and validation procedures.
#
#######################################################################

data_BETLUI
_chemical_formula_moiety         'C23 H19 F2 N3 O2'
_chemical_name_systematic        
(+-)-2-Fluoro-4-((3aSR,4RS,8aSR,8bRS)-2-(4-fluorobenzyl)-1,3-dioxodecahydropyrrolo(3,4-a)pyrrolizin-4-yl)benzonitrile
_symmetry_cell_setting           triclinic
_symmetry_space_group_name_H-M   'P -1'
_symmetry_Int_Tables_number      2
_space_group_name_Hall           '-P 1'
loop_
_symmetry_equiv_pos_site_id
_symmetry_equiv_pos_as_xyz
1 x,y,z
2 -x,-y,-z
_cell_length_a                   9.4926(2)
_cell_length_b                   10.3004(3)
_cell_length_c                   10.9831(3)
_cell_angle_alpha                93.680(1)
_cell_angle_beta                 94.130(1)
_cell_angle_gamma                115.220(1)
_cell_volume                     963.641
_exptl_crystal_colour            colorless
_chemical_melting_point          155-156deg.C
_cell_formula_units_Z            2
_exptl_crystal_recrystallization_method 'ethyl acetate/hexane'
loop_
_atom_site_label
_atom_site_type_symbol
_atom_site_fract_x
_atom_site_fract_y
_atom_site_fract_z
C1 C 0.55094(17) 0.49647(16) 0.28585(14)
N1 N 0.53867(13) 0.39606(12) 0.36816(10)
C2 C 0.39128(16) 0.32973(14) 0.40580(11)
C3 C 0.28336(16) 0.37654(14) 0.33149(12)
H1 H 0.2237 0.4104 0.3851
C4 C 0.39321(17) 0.49887(15) 0.26242(13)
H2 H 0.3971 0.5934 0.2918
O1 O 0.66969(13) 0.56698(14) 0.24192(13)
O2 O 0.35890(12) 0.24896(12) 0.48535(9)
C5 C 0.66795(17) 0.36058(17) 0.40802(14)
H3 H 0.6633 0.3415 0.4943
H4 H 0.7679 0.4435 0.4019
C6 C 0.66103(15) 0.23086(16) 0.33167(13)
C7 C 0.6767(2) 0.2341(2) 0.20692(15)
H5 H 0.6967 0.3197 0.1709
C8 C 0.6633(2) 0.1139(2) 0.13538(17)
H6 H 0.6733 0.1165 0.0509
C9 C 0.6352(2) -0.0092(2) 0.18938(19)
C10 C 0.62320(19) -0.01663(19) 0.31271(19)
H7 H 0.6070 -0.1018 0.3483
C11 C 0.63551(17) 0.10466(18) 0.38319(15)
H8 H 0.6264 0.1013 0.4677
F1 F 0.61762(18) -0.12905(16) 0.11861(15)
C12 C 0.17185(15) 0.25819(14) 0.22770(12)
H9 H 0.0725 0.2677 0.2151
N2 N 0.25438(14) 0.29702(12) 0.11781(10)
C13 C 0.1459(2) 0.25423(18) 0.00385(13)
H10 H 0.0565 0.1613 0.0086
H11 H 0.1996 0.2452 -0.0669
C14 C 0.0904(2) 0.3730(2) -0.00899(15)
H12 H 0.0938 0.3993 -0.0933
H13 H -0.0171 0.3405 0.0122
C15 C 0.2034(2) 0.50114(18) 0.08023(15)
H14 H 0.1502 0.5190 0.1481
H15 H 0.2488 0.5887 0.0384
C16 C 0.33020(18) 0.45554(15) 0.12689(13)
H16 H 0.4177 0.4891 0.0752
C17 C 0.13502(14) 0.10523(14) 0.25249(11)
C18 C 0.22422(15) 0.03850(14) 0.20814(13)
H17 H 0.3044 0.0860 0.1592
C19 C 0.19275(15) -0.09789(15) 0.23728(13)
C20 C 0.07604(15) -0.17286(15) 0.30977(12)
C21 C -0.01569(16) -0.10693(16) 0.35090(13)
H18 H -0.0975 -0.1557 0.3981
C22 C 0.01411(16) 0.03021(16) 0.32197(13)
H19 H -0.0484 0.0739 0.3497
C23 C 0.05655(16) -0.31282(17) 0.33910(13)
N3 N 0.04784(16) -0.42330(16) 0.36139(14)
F2 F 0.27671(10) -0.16476(9) 0.19384(10)
loop_
_geom_bond_atom_site_label_1
_geom_bond_atom_site_label_2
_geom_bond_site_symmetry_1
_geom_bond_site_symmetry_2
C1 N1 1_555 1_555
N1 C2 1_555 1_555
C2 C3 1_555 1_555
C3 H1 1_555 1_555
C4 C1 1_555 1_555
H2 C4 1_555 1_555
O1 C1 1_555 1_555
O2 C2 1_555 1_555
C5 N1 1_555 1_555
H3 C5 1_555 1_555
H4 C5 1_555 1_555
C6 C5 1_555 1_555
C7 C6 1_555 1_555
H5 C7 1_555 1_555
C8 C7 1_555 1_555
H6 C8 1_555 1_555
C9 C8 1_555 1_555
C10 C9 1_555 1_555
H7 C10 1_555 1_555
C11 C6 1_555 1_555
H8 C11 1_555 1_555
F1 C9 1_555 1_555
C12 C3 1_555 1_555
H9 C12 1_555 1_555
N2 C12 1_555 1_555
C13 N2 1_555 1_555
H10 C13 1_555 1_555
H11 C13 1_555 1_555
C14 C13 1_555 1_555
H12 C14 1_555 1_555
H13 C14 1_555 1_555
C15 C14 1_555 1_555
H14 C15 1_555 1_555
H15 C15 1_555 1_555
C16 C4 1_555 1_555
H16 C16 1_555 1_555
C17 C12 1_555 1_555
C18 C17 1_555 1_555
H17 C18 1_555 1_555
C19 C18 1_555 1_555
C20 C19 1_555 1_555
C21 C20 1_555 1_555
H18 C21 1_555 1_555
C22 C17 1_555 1_555
H19 C22 1_555 1_555
C23 C20 1_555 1_555
N3 C23 1_555 1_555
F2 C19 1_555 1_555
C3 C4 1_555 1_555
C10 C11 1_555 1_555
N2 C16 1_555 1_555
C15 C16 1_555 1_555
C21 C22 1_555 1_555

#END
