
#######################################################################
#
#                 Cambridge Crystallographic Data Centre
#                                CCDC 
#
#######################################################################
#
# If this CIF has been generated from an entry in the Cambridge 
# Structural Database, then it will include bibliographic, chemical, 
# crystal, experimental, refinement or atomic coordinate data resulting 
# from the CCDC's data processing and validation procedures.
#
#######################################################################

data_BETLIY
_chemical_compound_source        
'95% EtOH extract of stems of Dendrobium findlayanum'
_chemical_name_common            'findlayine D'
_chemical_formula_moiety         'C16 H25 N1 O4'
_chemical_name_systematic        
6-(5-hydroxy-4-isopropyl-2-oxotetrahydrofuran-3-yl)-2,6a-dimethylhexahydrocyclopenta[c]pyrrol-1(2H)-one
_symmetry_cell_setting           orthorhombic
_symmetry_space_group_name_H-M   'P 21 21 21'
_symmetry_Int_Tables_number      19
_space_group_name_Hall           'P 2ac 2ab'
loop_
_symmetry_equiv_pos_site_id
_symmetry_equiv_pos_as_xyz
1 x,y,z
2 1/2+x,1/2-y,-z
3 -x,1/2+y,1/2-z
4 1/2-x,-y,1/2+z
_cell_length_a                   9.1164(3)
_cell_length_b                   10.3428(3)
_cell_length_c                   15.9959(5)
_cell_angle_alpha                90
_cell_angle_beta                 90
_cell_angle_gamma                90
_cell_volume                     1508.24
_exptl_crystal_colour            colorless
_exptl_crystal_description       prism
_cell_formula_units_Z            4
loop_
_atom_site_label
_atom_site_type_symbol
_atom_site_fract_x
_atom_site_fract_y
_atom_site_fract_z
O1 O 0.75514(13) 0.06281(11) 0.58409(7)
H1 H 0.7787 0.0395 0.6326
O2 O 0.94322(13) -0.05372(11) 0.52190(7)
O3 O 1.12490(13) -0.01233(12) 0.43298(8)
O4 O 0.66038(13) 0.05527(11) 0.23230(7)
N1 N 0.55956(15) 0.22418(13) 0.30496(8)
C1 C 0.78557(18) -0.03546(16) 0.52838(10)
H2 H 0.7387 -0.1174 0.5481
C2 C 0.73158(17) -0.00364(15) 0.43934(9)
H3 H 0.6675 0.0748 0.4418
C3 C 0.87216(17) 0.03010(14) 0.39072(10)
H4 H 0.8751 -0.0236 0.3388
C4 C 0.90140(17) 0.17255(16) 0.36658(9)
H5 H 1.0073 0.1767 0.3505
C5 C 0.81408(17) 0.22825(15) 0.28985(9)
C6 C 0.67152(17) 0.15831(15) 0.27185(9)
C7 C 0.40938(19) 0.18028(18) 0.30706(11)
H6 H 0.4019 0.0966 0.2787
H7 H 0.3466 0.2434 0.2786
H8 H 0.3776 0.1710 0.3653
C8 C 0.99612(18) -0.01286(15) 0.44775(10)
C9 C 0.76366(18) 0.36450(16) 0.31863(10)
H9 H 0.7731 0.4289 0.2723
C10 C 0.60273(18) 0.34630(16) 0.34383(10)
H10 H 0.5927 0.3416 0.4054
H11 H 0.5417 0.4185 0.3228
C11 C 0.86259(19) 0.40035(16) 0.39225(11)
H12 H 0.8150 0.4652 0.4289
H13 H 0.9579 0.4348 0.3727
C12 C 0.88221(19) 0.27135(15) 0.43758(10)
H14 H 0.7949 0.2507 0.4719
H15 H 0.9698 0.2732 0.4741
C13 C 0.91100(19) 0.22966(17) 0.21177(10)
H16 H 0.9418 0.1412 0.1985
H17 H 0.9978 0.2832 0.2221
H18 H 0.8555 0.2654 0.1647
C14 C 0.64279(17) -0.11666(15) 0.40105(10)
H19 H 0.6272 -0.0964 0.3406
C15 C 0.49215(19) -0.12710(17) 0.44158(12)
H20 H 0.4363 -0.1965 0.4146
H21 H 0.4397 -0.0450 0.4350
H22 H 0.5035 -0.1465 0.5012
C16 C 0.72239(18) -0.24743(16) 0.40569(10)
H23 H 0.7317 -0.2739 0.4643
H24 H 0.8202 -0.2392 0.3808
H25 H 0.6660 -0.3126 0.3749
loop_
_geom_bond_atom_site_label_1
_geom_bond_atom_site_label_2
_geom_bond_site_symmetry_1
_geom_bond_site_symmetry_2
O1 H1 1_555 1_555
O2 C1 1_555 1_555
O3 C8 1_555 1_555
O4 C6 1_555 1_555
N1 C6 1_555 1_555
C1 O1 1_555 1_555
H2 C1 1_555 1_555
C2 C1 1_555 1_555
H3 C2 1_555 1_555
C3 C2 1_555 1_555
H4 C3 1_555 1_555
C4 C3 1_555 1_555
H5 C4 1_555 1_555
C5 C4 1_555 1_555
C6 C5 1_555 1_555
C7 N1 1_555 1_555
H6 C7 1_555 1_555
H7 C7 1_555 1_555
H8 C7 1_555 1_555
C8 O2 1_555 1_555
C9 C5 1_555 1_555
H9 C9 1_555 1_555
C10 N1 1_555 1_555
H10 C10 1_555 1_555
H11 C10 1_555 1_555
C11 C9 1_555 1_555
H12 C11 1_555 1_555
H13 C11 1_555 1_555
C12 C4 1_555 1_555
H14 C12 1_555 1_555
H15 C12 1_555 1_555
C13 C5 1_555 1_555
H16 C13 1_555 1_555
H17 C13 1_555 1_555
H18 C13 1_555 1_555
C14 C2 1_555 1_555
H19 C14 1_555 1_555
C15 C14 1_555 1_555
H20 C15 1_555 1_555
H21 C15 1_555 1_555
H22 C15 1_555 1_555
C16 C14 1_555 1_555
H23 C16 1_555 1_555
H24 C16 1_555 1_555
H25 C16 1_555 1_555
C3 C8 1_555 1_555
C9 C10 1_555 1_555
C11 C12 1_555 1_555

#END
