
#######################################################################
#
#                 Cambridge Crystallographic Data Centre
#                                CCDC 
#
#######################################################################
#
# If this CIF has been generated from an entry in the Cambridge 
# Structural Database, then it will include bibliographic, chemical, 
# crystal, experimental, refinement or atomic coordinate data resulting 
# from the CCDC's data processing and validation procedures.
#
#######################################################################

data_BETMET
_chemical_formula_moiety         'C8 H3 F2 N1 O1'
_chemical_name_systematic        3,5-Difluoro-4-formylbenzonitrile
_symmetry_cell_setting           orthorhombic
_symmetry_space_group_name_H-M   'P 21 21 21'
_symmetry_Int_Tables_number      19
_space_group_name_Hall           'P 2ac 2ab'
loop_
_symmetry_equiv_pos_site_id
_symmetry_equiv_pos_as_xyz
1 x,y,z
2 1/2-x,-y,1/2+z
3 -x,1/2+y,1/2-z
4 1/2+x,1/2-y,-z
_cell_length_a                   3.7369(2)
_cell_length_b                   6.2036(3)
_cell_length_c                   28.8526(18)
_cell_angle_alpha                90
_cell_angle_beta                 90
_cell_angle_gamma                90
_cell_volume                     668.868
_exptl_crystal_colour            colorless
_chemical_melting_point          97-98deg.C
_cell_formula_units_Z            4
loop_
_atom_site_label
_atom_site_type_symbol
_atom_site_fract_x
_atom_site_fract_y
_atom_site_fract_z
C1 C 0.3865(5) 0.0398(3) 0.59038(6)
C2 C 0.2206(5) 0.2374(3) 0.58281(6)
C3 C 0.1425(5) 0.3839(3) 0.61705(6)
H1 H 0.0332 0.5183 0.6101
C4 C 0.2302(5) 0.3275(3) 0.66238(6)
C5 C 0.3914(5) 0.1297(3) 0.67290(6)
H2 H 0.4459 0.0909 0.7040
C6 C 0.4678(5) -0.0061(3) 0.63662(6)
C7 C 0.4703(5) -0.1061(3) 0.55084(6)
H3 H 0.3589 -0.0781 0.5219
O1 O 0.6723(4) -0.2586(2) 0.55350(4)
C8 C 0.1519(5) 0.4766(3) 0.69961(6)
N1 N 0.0928(5) 0.5968(2) 0.72867(5)
F1 F 0.6281(3) -0.19524(15) 0.64655(3)
F2 F 0.1293(3) 0.28762(17) 0.53878(3)
loop_
_geom_bond_atom_site_label_1
_geom_bond_atom_site_label_2
_geom_bond_site_symmetry_1
_geom_bond_site_symmetry_2
C1 C2 1_555 1_555
C2 C3 1_555 1_555
C3 H1 1_555 1_555
C4 C3 1_555 1_555
C5 C4 1_555 1_555
H2 C5 1_555 1_555
C6 C1 1_555 1_555
C7 C1 1_555 1_555
H3 C7 1_555 1_555
O1 C7 1_555 1_555
C8 C4 1_555 1_555
N1 C8 1_555 1_555
F1 C6 1_555 1_555
F2 C2 1_555 1_555
C5 C6 1_555 1_555

#END
