
#######################################################################
#
#                 Cambridge Crystallographic Data Centre
#                                CCDC 
#
#######################################################################
#
# If this CIF has been generated from an entry in the Cambridge 
# Structural Database, then it will include bibliographic, chemical, 
# crystal, experimental, refinement or atomic coordinate data resulting 
# from the CCDC's data processing and validation procedures.
#
#######################################################################

data_BETMAP
_chemical_formula_moiety         'C23 H19 F2 N3 O2'
_chemical_name_systematic        
(+-)-3-Fluoro-4-((3aSR,4RS,8aSR,8bRS)-2-(4-fluorobenzyl)-1,3-dioxodecahydropyrrolo(3,4-a)pyrrolizin-4-yl)benzonitrile
_symmetry_cell_setting           triclinic
_symmetry_space_group_name_H-M   'P -1'
_symmetry_Int_Tables_number      2
_space_group_name_Hall           '-P 1'
loop_
_symmetry_equiv_pos_site_id
_symmetry_equiv_pos_as_xyz
1 x,y,z
2 -x,-y,-z
_cell_length_a                   7.673(1)
_cell_length_b                   11.394(2)
_cell_length_c                   11.894(2)
_cell_angle_alpha                97.22(1)
_cell_angle_beta                 106.92(1)
_cell_angle_gamma                90.85(1)
_cell_volume                     985.497
_exptl_crystal_colour            colorless
_chemical_melting_point          159-160deg.C
_cell_formula_units_Z            2
_exptl_crystal_recrystallization_method 'ethyl acetate/hexane'
loop_
_atom_site_label
_atom_site_type_symbol
_atom_site_fract_x
_atom_site_fract_y
_atom_site_fract_z
C1 C 0.7394(2) 0.36009(17) 0.96883(16)
N1 N 0.74261(18) 0.35181(13) 0.85262(13)
C2 C 0.6798(2) 0.24175(15) 0.78805(15)
C3 C 0.6164(2) 0.16642(15) 0.86572(15)
H1 H 0.6811 0.0919 0.8726
C4 C 0.6575(2) 0.24508(16) 0.98676(15)
H2 H 0.7401 0.2081 1.0516
O1 O 0.7903(2) 0.44793(14) 1.04118(13)
O2 O 0.67845(18) 0.21599(12) 0.68626(12)
C5 C 0.7985(2) 0.44880(18) 0.79999(19)
H3 H 0.8692 0.4176 0.7473
H4 H 0.8784 0.5059 0.8632
C6 C 0.6402(2) 0.51236(15) 0.73025(16)
C7 C 0.4659(2) 0.49831(17) 0.74034(18)
H5 H 0.4438 0.4492 0.7932
C8 C 0.3249(3) 0.5563(2) 0.6730(2)
H6 H 0.2064 0.5472 0.6796
C9 C 0.3593(3) 0.6271(2) 0.5966(2)
C10 C 0.5282(3) 0.6452(2) 0.5857(2)
H7 H 0.5487 0.6956 0.5335
C11 C 0.6684(3) 0.58743(18) 0.6533(2)
H8 H 0.7867 0.5991 0.6472
F1 F 0.2189(2) 0.68030(18) 0.52778(19)
C12 C 0.4060(2) 0.14205(14) 0.82495(14)
H9 H 0.3762 0.0708 0.8570
N2 N 0.34423(18) 0.24710(11) 0.88525(12)
C13 C 0.1648(2) 0.22777(18) 0.90441(18)
H10 H 0.0841 0.1757 0.8369
H11 H 0.1075 0.3034 0.9125
C14 C 0.1960(3) 0.1709(3) 1.0173(2)
H12 H 0.1519 0.0875 0.9986
H13 H 0.1322 0.2124 1.0696
C15 C 0.4021(3) 0.18185(19) 1.07610(18)
H14 H 0.4556 0.1046 1.0699
H15 H 0.4313 0.2149 1.1600
C16 C 0.4709(2) 0.26621(15) 1.00594(15)
H16 H 0.4684 0.3492 1.0418
C17 C 0.3176(2) 0.12593(14) 0.69254(14)
C18 C 0.2114(2) 0.20964(16) 0.63399(16)
H17 H 0.1915 0.2800 0.6780
C19 C 0.1341(2) 0.19204(18) 0.51231(17)
H18 H 0.0634 0.2502 0.4740
C20 C 0.1616(2) 0.08758(18) 0.44675(16)
C21 C 0.2657(3) 0.00209(17) 0.50210(17)
H19 H 0.2849 -0.0687 0.4585
C22 C 0.3401(3) 0.02360(15) 0.62264(16)
F2 F 0.44564(19) -0.05853(10) 0.67760(11)
C23 C 0.0775(3) 0.0713(2) 0.31993(19)
N3 N 0.0072(3) 0.0617(2) 0.22035(18)
loop_
_geom_bond_atom_site_label_1
_geom_bond_atom_site_label_2
_geom_bond_site_symmetry_1
_geom_bond_site_symmetry_2
C1 N1 1_555 1_555
N1 C2 1_555 1_555
C2 C3 1_555 1_555
C3 H1 1_555 1_555
C4 C1 1_555 1_555
H2 C4 1_555 1_555
O1 C1 1_555 1_555
O2 C2 1_555 1_555
C5 N1 1_555 1_555
H3 C5 1_555 1_555
H4 C5 1_555 1_555
C6 C5 1_555 1_555
C7 C6 1_555 1_555
H5 C7 1_555 1_555
C8 C7 1_555 1_555
H6 C8 1_555 1_555
C9 C8 1_555 1_555
C10 C9 1_555 1_555
H7 C10 1_555 1_555
C11 C6 1_555 1_555
H8 C11 1_555 1_555
F1 C9 1_555 1_555
C12 C3 1_555 1_555
H9 C12 1_555 1_555
N2 C12 1_555 1_555
C13 N2 1_555 1_555
H10 C13 1_555 1_555
H11 C13 1_555 1_555
C14 C13 1_555 1_555
H12 C14 1_555 1_555
H13 C14 1_555 1_555
C15 C14 1_555 1_555
H14 C15 1_555 1_555
H15 C15 1_555 1_555
C16 C4 1_555 1_555
H16 C16 1_555 1_555
C17 C12 1_555 1_555
C18 C17 1_555 1_555
H17 C18 1_555 1_555
C19 C18 1_555 1_555
H18 C19 1_555 1_555
C20 C19 1_555 1_555
C21 C20 1_555 1_555
H19 C21 1_555 1_555
C22 C17 1_555 1_555
F2 C22 1_555 1_555
C23 C20 1_555 1_555
N3 C23 1_555 1_555
C3 C4 1_555 1_555
C10 C11 1_555 1_555
N2 C16 1_555 1_555
C15 C16 1_555 1_555
C21 C22 1_555 1_555

#END
