
#######################################################################
#
#                 Cambridge Crystallographic Data Centre
#                                CCDC 
#
#######################################################################
#
# If this CIF has been generated from an entry in the Cambridge 
# Structural Database, then it will include bibliographic, chemical, 
# crystal, experimental, refinement or atomic coordinate data resulting 
# from the CCDC's data processing and validation procedures.
#
#######################################################################

data_BETPEY01
_chemical_formula_moiety         'C19 H15 N1 O5'
_chemical_name_systematic        
'dimethyl 3-(benzenecarbonyl)indolizine-1,2-dicarboxylate'
_symmetry_cell_setting           monoclinic
_symmetry_space_group_name_H-M   'P 21/c'
_symmetry_Int_Tables_number      14
_space_group_name_Hall           '-P 2ybc'
loop_
_symmetry_equiv_pos_site_id
_symmetry_equiv_pos_as_xyz
1 x,y,z
2 -x,1/2+y,1/2-z
3 -x,-y,-z
4 x,1/2-y,1/2+z
_cell_length_a                   8.5225(15)
_cell_length_b                   24.099(4)
_cell_length_c                   7.8606(14)
_cell_angle_alpha                90
_cell_angle_beta                 99.519(2)
_cell_angle_gamma                90
_cell_volume                     1592.21
_exptl_crystal_colour            yellow
_exptl_crystal_description       block
_cell_formula_units_Z            4
loop_
_atom_site_label
_atom_site_type_symbol
_atom_site_fract_x
_atom_site_fract_y
_atom_site_fract_z
O1 O 1.05926(12) 0.29759(4) 0.22240(13)
O2 O 0.69039(12) 0.42260(4) -0.02959(14)
O3 O 1.22052(13) 0.32287(4) 0.03650(14)
N1 N 1.10852(13) 0.47928(4) 0.28044(14)
O4 O 0.83012(13) 0.34489(4) -0.05420(15)
C1 C 1.37044(17) 0.42917(6) 0.33009(19)
C2 C 1.13470(15) 0.33419(5) 0.13732(17)
C3 C 0.95562(16) 0.47158(5) 0.19092(17)
O5 O 1.44864(13) 0.47163(5) 0.3316(2)
C4 C 1.09534(15) 0.39200(5) 0.18463(17)
C5 C 0.81959(16) 0.39029(6) 0.00709(18)
C6 C 1.19675(16) 0.43036(5) 0.27683(18)
C7 C 1.38467(17) 0.33295(6) 0.46038(19)
H1 H 1.2837 0.3374 0.4886
C8 C 0.94696(15) 0.41679(6) 0.12800(17)
C9 C 1.60354(17) 0.36831(7) 0.3370(2)
H2 H 1.6508 0.3969 0.2843
C10 C 1.15358(18) 0.52791(6) 0.36675(19)
H3 H 1.2554 0.5317 0.4299
C11 C 1.45127(15) 0.37513(6) 0.37576(17)
C12 C 0.84685(18) 0.51616(6) 0.1815(2)
H4 H 0.7444 0.5124 0.1200
C13 C 1.4681(2) 0.28437(7) 0.5029(2)
H5 H 1.4237 0.2563 0.5608
C14 C 1.0479(2) 0.57001(6) 0.3584(2)
H6 H 1.0774 0.6030 0.4164
C15 C 0.8933(2) 0.56458(6) 0.2630(2)
H7 H 0.8229 0.5943 0.2558
C16 C 1.68454(19) 0.31937(8) 0.3764(2)
H8 H 1.7850 0.3146 0.3470
C17 C 1.0722(2) 0.24015(6) 0.1750(2)
H9 H 1.1782 0.2272 0.2163
H10 H 1.0496 0.2367 0.0517
H11 H 0.9975 0.2184 0.2255
C18 C 1.6174(2) 0.27751(7) 0.4591(3)
H12 H 1.6726 0.2445 0.4857
C19 C 0.5584(2) 0.39944(9) -0.1474(3)
H13 H 0.5006 0.3742 -0.0863
H14 H 0.5978 0.3800 -0.2381
H15 H 0.4890 0.4288 -0.1960
loop_
_geom_bond_atom_site_label_1
_geom_bond_atom_site_label_2
_geom_bond_site_symmetry_1
_geom_bond_site_symmetry_2
O1 C2 1_555 1_555
O2 C5 1_555 1_555
O3 C2 1_555 1_555
N1 C3 1_555 1_555
O4 C5 1_555 1_555
C1 O5 1_555 1_555
C2 C4 1_555 1_555
C3 C8 1_555 1_555
C4 C6 1_555 1_555
C5 C8 1_555 1_555
C6 N1 1_555 1_555
C7 H1 1_555 1_555
C8 C4 1_555 1_555
C9 H2 1_555 1_555
C10 N1 1_555 1_555
H3 C10 1_555 1_555
C11 C1 1_555 1_555
C12 C3 1_555 1_555
H4 C12 1_555 1_555
C13 C7 1_555 1_555
H5 C13 1_555 1_555
C14 C10 1_555 1_555
H6 C14 1_555 1_555
C15 C12 1_555 1_555
H7 C15 1_555 1_555
C16 C9 1_555 1_555
H8 C16 1_555 1_555
C17 O1 1_555 1_555
H9 C17 1_555 1_555
H10 C17 1_555 1_555
H11 C17 1_555 1_555
C18 C13 1_555 1_555
H12 C18 1_555 1_555
C19 O2 1_555 1_555
H13 C19 1_555 1_555
H14 C19 1_555 1_555
H15 C19 1_555 1_555
C1 C6 1_555 1_555
C7 C11 1_555 1_555
C9 C11 1_555 1_555
C14 C15 1_555 1_555
C16 C18 1_555 1_555

#END
