
#######################################################################
#
#                 Cambridge Crystallographic Data Centre
#                                CCDC 
#
#######################################################################
#
# If this CIF has been generated from an entry in the Cambridge 
# Structural Database, then it will include bibliographic, chemical, 
# crystal, experimental, refinement or atomic coordinate data resulting 
# from the CCDC's data processing and validation procedures.
#
#######################################################################

data_BETQEW
_chemical_formula_moiety         'C13 H20 O6,0.4(H2 O1)'
_chemical_name_systematic        
'3,3,7-trimethyl-2,8,10-trioxa-9-oxobicyclo[5.4.0]undec-4-yl acetate hydrate'
_symmetry_cell_setting           orthorhombic
_symmetry_space_group_name_H-M   'P 21 21 21'
_symmetry_Int_Tables_number      19
_space_group_name_Hall           'P 2ac 2ab'
loop_
_symmetry_equiv_pos_site_id
_symmetry_equiv_pos_as_xyz
1 x,y,z
2 1/2-x,-y,1/2+z
3 1/2+x,1/2-y,-z
4 -x,1/2+y,1/2-z
_cell_length_a                   8.0614(8)
_cell_length_b                   10.6645(11)
_cell_length_c                   16.1512(16)
_cell_angle_alpha                90
_cell_angle_beta                 90
_cell_angle_gamma                90
_cell_volume                     1388.53
_exptl_crystal_colour            colorless
_cell_formula_units_Z            4
_exptl_crystal_recrystallization_method hexanes/dichloromethane
loop_
_atom_site_label
_atom_site_type_symbol
_atom_site_fract_x
_atom_site_fract_y
_atom_site_fract_z
O1 O 0.4016(1) 1.0409(1) 0.2571(1)
C1 C 0.4839(2) 0.9992(2) 0.3321(1)
O2 O 0.1567(2) 0.9021(1) 0.0925(1)
C2 C 0.3606(2) 0.9578(1) 0.3992(1)
O3 O -0.1034(2) 0.8447(1) 0.0901(1)
C3 C 0.1960(2) 1.0275(1) 0.4021(1)
O4 O -0.0199(1) 0.9423(1) 0.2019(1)
C4 C 0.0649(2) 0.9850(1) 0.3395(1)
O5 O 0.3252(1) 0.8242(1) 0.3897(1)
C5 C 0.1059(2) 1.0133(1) 0.2496(1)
O6 O 0.3958(2) 0.7844(1) 0.5213(1)
C6 C 0.0066(2) 0.8953(1) 0.1267(1)
C7 C 0.2933(2) 0.9660(1) 0.1323(1)
C8 C 0.2752(2) 0.9629(1) 0.2249(1)
C9 C 0.5726(2) 1.1168(2) 0.3611(1)
C10 C 0.6072(2) 0.8959(2) 0.3107(1)
C11 C 0.3457(2) 0.7489(1) 0.4553(1)
C12 C 0.2977(2) 0.6173(2) 0.4346(1)
C13 C 0.0813(2) 1.1514(1) 0.2292(1)
H1 H 0.4159 0.9695 0.4541
H2 H 0.2180 1.1178 0.3930
H3 H 0.1490 1.0185 0.4584
H4 H 0.0490 0.8934 0.3455
H5 H -0.0416 1.0260 0.3534
H6 H 0.2970 1.0541 0.1133
H7 H 0.3989 0.9252 0.1164
H8 H 0.2893 0.8752 0.2457
H9 H 0.6297 1.1460 0.3221
H10 H 0.6432 1.0951 0.4085
H11 H 0.4910 1.1799 0.3781
H12 H 0.6781 0.9238 0.2773
H13 H 0.5484 0.8245 0.2862
H14 H 0.6641 0.8688 0.3613
H15 H 0.3406 0.5680 0.4690
H16 H 0.3411 0.5942 0.3799
H17 H 0.1763 0.6098 0.4343
H18 H 0.0996 1.1633 0.1786
H19 H 0.1578 1.2021 0.2625
H20 H -0.0332 1.1756 0.2419
O7 O 0.5870(5) 0.8428(3) 0.0156(2)
H21 H 0.5341 0.7580 -0.0002
H22 H 0.7012 0.8125 0.0325
loop_
_geom_bond_atom_site_label_1
_geom_bond_atom_site_label_2
_geom_bond_site_symmetry_1
_geom_bond_site_symmetry_2
O1 C1 1_555 1_555
C1 C2 1_555 1_555
O2 C6 1_555 1_555
C2 C3 1_555 1_555
O3 C6 1_555 1_555
C3 C4 1_555 1_555
O4 C5 1_555 1_555
C4 C5 1_555 1_555
O5 C2 1_555 1_555
C5 C8 1_555 1_555
O6 C11 1_555 1_555
C6 O4 1_555 1_555
C7 O2 1_555 1_555
C8 O1 1_555 1_555
C9 C1 1_555 1_555
C10 C1 1_555 1_555
C11 O5 1_555 1_555
C12 C11 1_555 1_555
C13 C5 1_555 1_555
O7 H21 1_555 1_555
H1 C2 1_555 1_555
H2 C3 1_555 1_555
H3 C3 1_555 1_555
H4 C4 1_555 1_555
H5 C4 1_555 1_555
H6 C7 1_555 1_555
H7 C7 1_555 1_555
H8 C8 1_555 1_555
H9 C9 1_555 1_555
H10 C9 1_555 1_555
H11 C9 1_555 1_555
H12 C10 1_555 1_555
H13 C10 1_555 1_555
H14 C10 1_555 1_555
H15 C12 1_555 1_555
H16 C12 1_555 1_555
H17 C12 1_555 1_555
H18 C13 1_555 1_555
H19 C13 1_555 1_555
H20 C13 1_555 1_555
H22 O7 1_555 1_555
C7 C8 1_555 1_555

#END
