
#######################################################################
#
#                 Cambridge Crystallographic Data Centre
#                                CCDC 
#
#######################################################################
#
# If this CIF has been generated from an entry in the Cambridge 
# Structural Database, then it will include bibliographic, chemical, 
# crystal, experimental, refinement or atomic coordinate data resulting 
# from the CCDC's data processing and validation procedures.
#
#######################################################################

data_BETWIJ
_chemical_formula_moiety         'C18 H19 N1 O3 S1'
_chemical_name_systematic        
4-((4-methylphenyl)sulfonyl)-2-(prop-1-en-2-yl)-3,4-dihydro-2H-1,4-benzoxazine
_symmetry_cell_setting           orthorhombic
_symmetry_space_group_name_H-M   'P b c a'
_symmetry_Int_Tables_number      61
_space_group_name_Hall           '-P 2ac 2ab'
loop_
_symmetry_equiv_pos_site_id
_symmetry_equiv_pos_as_xyz
1 x,y,z
2 1/2-x,-y,1/2+z
3 1/2+x,1/2-y,-z
4 -x,1/2+y,1/2-z
5 -x,-y,-z
6 1/2+x,y,1/2-z
7 1/2-x,1/2+y,z
8 x,1/2-y,1/2+z
_cell_length_a                   13.8425(5)
_cell_length_b                   9.2000(3)
_cell_length_c                   26.7184(19)
_cell_angle_alpha                90
_cell_angle_beta                 90
_cell_angle_gamma                90
_cell_volume                     3402.61
_exptl_crystal_colour            yellow
_exptl_crystal_description       block
_cell_formula_units_Z            8
_exptl_crystal_recrystallization_method n-hexane/dichloromethane
loop_
_atom_site_label
_atom_site_type_symbol
_atom_site_fract_x
_atom_site_fract_y
_atom_site_fract_z
S1 S 0.98917(6) 0.21204(8) 0.61835(5)
O1 O 1.06840(15) 0.2135(3) 0.58433(14)
O2 O 0.9672(2) 0.3379(2) 0.64647(14)
O3 O 0.91463(12) -0.18331(16) 0.68358(7)
N1 N 1.01064(14) 0.0823(2) 0.65977(10)
C1 C 0.7965(2) 0.2135(3) 0.60007(13)
H1 H 0.7920 0.2799 0.6262
C2 C 0.7150(2) 0.1670(3) 0.57591(14)
H2 H 0.6553 0.2031 0.5858
C3 C 0.7191(3) 0.0686(4) 0.53757(13)
C4 C 0.8087(3) 0.0178(4) 0.52365(12)
H3 H 0.8133 -0.0485 0.4975
C5 C 0.8914(2) 0.0626(4) 0.54737(13)
H4 H 0.9512 0.0259 0.5377
C6 C 0.88525(18) 0.1612(3) 0.58533(12)
C7 C 0.6278(3) 0.0191(5) 0.51187(17)
H5 H 0.5786 0.0018 0.5365
H6 H 0.6403 -0.0691 0.4938
H7 H 0.6065 0.0930 0.4890
C8 C 1.04743(16) -0.0559(2) 0.64374(10)
C9 C 1.13468(18) -0.0689(3) 0.61828(12)
H8 H 1.1694 0.0143 0.6100
C10 C 1.1702(2) -0.2030(4) 0.60523(13)
H9 H 1.2277 -0.2101 0.5874
C11 C 1.1210(2) -0.3259(4) 0.61841(12)
H10 H 1.1452 -0.4167 0.6096
C12 C 1.0365(2) -0.3157(3) 0.64451(11)
H11 H 1.0039 -0.3998 0.6539
C13 C 0.99891(16) -0.1809(2) 0.65704(10)
C14 C 0.86737(16) -0.0472(2) 0.69166(11)
H12 H 0.8314 -0.0214 0.6613
C15 C 0.94261(19) 0.0699(3) 0.70151(13)
H13 H 0.9105 0.1624 0.7065
H14 H 0.9778 0.0465 0.7319
C16 C 0.7973(2) -0.0675(3) 0.73342(12)
C17 C 0.7071(3) -0.0173(6) 0.72760(19)
H15 H 0.6620 -0.0293 0.7531
H16 H 0.6896 0.0294 0.6981
C18 C 0.8286(3) -0.1409(5) 0.77830(15)
H17 H 0.8631 -0.2276 0.7694
H18 H 0.7733 -0.1659 0.7982
H19 H 0.8702 -0.0778 0.7971
loop_
_geom_bond_atom_site_label_1
_geom_bond_atom_site_label_2
_geom_bond_site_symmetry_1
_geom_bond_site_symmetry_2
S1 O1 1_555 1_555
O2 S1 1_555 1_555
O3 C13 1_555 1_555
N1 S1 1_555 1_555
C1 H1 1_555 1_555
C2 C1 1_555 1_555
H2 C2 1_555 1_555
C3 C2 1_555 1_555
C4 C3 1_555 1_555
H3 C4 1_555 1_555
C5 C4 1_555 1_555
H4 C5 1_555 1_555
C6 S1 1_555 1_555
C7 C3 1_555 1_555
H5 C7 1_555 1_555
H6 C7 1_555 1_555
H7 C7 1_555 1_555
C8 N1 1_555 1_555
C9 C8 1_555 1_555
H8 C9 1_555 1_555
C10 C9 1_555 1_555
H9 C10 1_555 1_555
C11 C10 1_555 1_555
H10 C11 1_555 1_555
C12 C11 1_555 1_555
H11 C12 1_555 1_555
C13 C8 1_555 1_555
C14 O3 1_555 1_555
H12 C14 1_555 1_555
C15 N1 1_555 1_555
H13 C15 1_555 1_555
H14 C15 1_555 1_555
C16 C14 1_555 1_555
C17 C16 1_555 1_555
H15 C17 1_555 1_555
H16 C17 1_555 1_555
C18 C16 1_555 1_555
H17 C18 1_555 1_555
H18 C18 1_555 1_555
H19 C18 1_555 1_555
C1 C6 1_555 1_555
C5 C6 1_555 1_555
C12 C13 1_555 1_555
C14 C15 1_555 1_555

#END
