
#######################################################################
#
#                 Cambridge Crystallographic Data Centre
#                                CCDC 
#
#######################################################################
#
# If this CIF has been generated from an entry in the Cambridge 
# Structural Database, then it will include bibliographic, chemical, 
# crystal, experimental, refinement or atomic coordinate data resulting 
# from the CCDC's data processing and validation procedures.
#
#######################################################################

data_BETWAB
_chemical_formula_moiety         'C20 H21 N1 O3 S1'
_chemical_name_systematic        
11-((4-methylphenyl)sulfonyl)-5a,6,7,8,10a,11-hexahydrobenzo[b]cyclohepta[e][1,4]oxazine
_symmetry_cell_setting           monoclinic
_symmetry_space_group_name_H-M   'P 21/n'
_symmetry_Int_Tables_number      14
_space_group_name_Hall           '-P 2yn'
loop_
_symmetry_equiv_pos_site_id
_symmetry_equiv_pos_as_xyz
1 x,y,z
2 1/2-x,1/2+y,1/2-z
3 -x,-y,-z
4 1/2+x,1/2-y,1/2+z
_cell_length_a                   11.8481(9)
_cell_length_b                   12.2656(8)
_cell_length_c                   11.9764(7)
_cell_angle_alpha                90
_cell_angle_beta                 97.277(6)
_cell_angle_gamma                90
_cell_volume                     1726.44
_exptl_crystal_colour            colorless
_exptl_crystal_description       plate
_cell_formula_units_Z            4
_exptl_crystal_recrystallization_method 'Vapour Deposition'
loop_
_atom_site_label
_atom_site_type_symbol
_atom_site_fract_x
_atom_site_fract_y
_atom_site_fract_z
S1 S 0.24522(5) 0.12782(5) 0.23096(5)
O1 O 0.20048(13) 0.23560(14) 0.23369(15)
O2 O 0.22562(14) 0.05224(14) 0.31714(14)
O3 O 0.57397(14) 0.05932(13) 0.13233(14)
N1 N 0.38525(16) 0.13887(15) 0.23682(16)
C1 C 0.1691(2) 0.13648(19) 0.0064(2)
H1 H 0.1782 0.2133 0.0131
C2 C 0.1307(2) 0.0902(2) -0.0966(2)
H2 H 0.1134 0.1357 -0.1607
C3 C 0.11718(18) -0.0218(2) -0.1080(2)
C4 C 0.1416(2) -0.0861(2) -0.0132(2)
H3 H 0.1313 -0.1628 -0.0196
C5 C 0.18063(19) -0.04149(19) 0.0911(2)
H4 H 0.1977 -0.0869 0.1553
C6 C 0.19425(17) 0.07034(19) 0.09963(19)
C7 C 0.0784(2) -0.0720(2) -0.2211(2)
H5 H 0.1448 -0.0957 -0.2558
H6 H 0.0355 -0.0179 -0.2695
H7 H 0.0296 -0.1349 -0.2114
C8 C 0.43533(18) 0.20253(18) 0.15488(19)
C9 C 0.39786(19) 0.30695(19) 0.1241(2)
H8 H 0.3361 0.3376 0.1568
C10 C 0.4488(2) 0.36680(19) 0.0469(2)
H9 H 0.4197 0.4366 0.0242
C11 C 0.5423(2) 0.3257(2) 0.0024(2)
H10 H 0.5783 0.3673 -0.0499
C12 C 0.5825(2) 0.2238(2) 0.0348(2)
H11 H 0.6480 0.1961 0.0062
C13 C 0.52899(19) 0.16098(18) 0.10843(19)
C14 C 0.5013(2) -0.01240(19) 0.1853(2)
H12 H 0.4339 -0.0288 0.1288
C15 C 0.45755(18) 0.04677(18) 0.2832(2)
H13 H 0.4096 -0.0049 0.3215
C16 C 0.5488(2) 0.0931(2) 0.3700(2)
H14 H 0.5492 0.1696 0.3824
C17 C 0.6281(2) 0.0341(2) 0.4300(2)
H15 H 0.6779 0.0706 0.4862
C18 C 0.6453(2) -0.0858(2) 0.4160(2)
H16 H 0.5765 -0.1249 0.4334
H17 H 0.7101 -0.1099 0.4708
C19 C 0.6686(2) -0.1170(2) 0.2980(2)
H18 H 0.7243 -0.0649 0.2734
H19 H 0.7039 -0.1903 0.3010
C20 C 0.5642(2) -0.1184(2) 0.2111(2)
H20 H 0.5873 -0.1464 0.1398
H21 H 0.5097 -0.1715 0.2361
loop_
_geom_bond_atom_site_label_1
_geom_bond_atom_site_label_2
_geom_bond_site_symmetry_1
_geom_bond_site_symmetry_2
S1 O1 1_555 1_555
O2 S1 1_555 1_555
O3 C13 1_555 1_555
N1 S1 1_555 1_555
C1 H1 1_555 1_555
C2 C1 1_555 1_555
H2 C2 1_555 1_555
C3 C2 1_555 1_555
C4 C3 1_555 1_555
H3 C4 1_555 1_555
C5 C4 1_555 1_555
H4 C5 1_555 1_555
C6 S1 1_555 1_555
C7 C3 1_555 1_555
H5 C7 1_555 1_555
H6 C7 1_555 1_555
H7 C7 1_555 1_555
C8 N1 1_555 1_555
C9 C8 1_555 1_555
H8 C9 1_555 1_555
C10 C9 1_555 1_555
H9 C10 1_555 1_555
C11 C10 1_555 1_555
H10 C11 1_555 1_555
C12 C11 1_555 1_555
H11 C12 1_555 1_555
C13 C8 1_555 1_555
C14 O3 1_555 1_555
H12 C14 1_555 1_555
C15 N1 1_555 1_555
H13 C15 1_555 1_555
C16 C15 1_555 1_555
H14 C16 1_555 1_555
C17 C16 1_555 1_555
H15 C17 1_555 1_555
C18 C17 1_555 1_555
H16 C18 1_555 1_555
H17 C18 1_555 1_555
C19 C18 1_555 1_555
H18 C19 1_555 1_555
H19 C19 1_555 1_555
C20 C14 1_555 1_555
H20 C20 1_555 1_555
H21 C20 1_555 1_555
C1 C6 1_555 1_555
C5 C6 1_555 1_555
C12 C13 1_555 1_555
C14 C15 1_555 1_555
C19 C20 1_555 1_555

#END
