
#######################################################################
#
#                 Cambridge Crystallographic Data Centre
#                                CCDC 
#
#######################################################################
#
# If this CIF has been generated from an entry in the Cambridge 
# Structural Database, then it will include bibliographic, chemical, 
# crystal, experimental, refinement or atomic coordinate data resulting 
# from the CCDC's data processing and validation procedures.
#
#######################################################################

data_BETXIJ
_chemical_formula_moiety         'C11 H10 N2 O1'
_chemical_name_systematic        4-(3-Methyl-1H-pyrazol-1-yl)benzaldehyde
_symmetry_cell_setting           monoclinic
_symmetry_space_group_name_H-M   'P 21/n'
_symmetry_Int_Tables_number      14
_space_group_name_Hall           '-P 2yn'
loop_
_symmetry_equiv_pos_site_id
_symmetry_equiv_pos_as_xyz
1 x,y,z
2 1/2-x,1/2+y,1/2-z
3 -x,-y,-z
4 1/2+x,1/2-y,1/2+z
_cell_length_a                   12.2350(11)
_cell_length_b                   5.7766(5)
_cell_length_c                   13.3920(12)
_cell_angle_alpha                90
_cell_angle_beta                 107.278(3)
_cell_angle_gamma                90
_cell_volume                     903.791
_exptl_crystal_colour            colorless
_exptl_crystal_description       plate
_cell_formula_units_Z            4
loop_
_atom_site_label
_atom_site_type_symbol
_atom_site_fract_x
_atom_site_fract_y
_atom_site_fract_z
O1 O 0.18992(7) 0.00817(15) 0.18179(7)
N1 N 0.69322(8) 0.04027(16) 0.12060(7)
N2 N 0.74168(9) 0.21852(16) 0.08108(7)
C1 C 0.84461(10) 0.1411(2) 0.08298(9)
C2 C 0.86317(11) -0.0852(2) 0.12412(9)
H1 H 0.9316(11) -0.174(2) 0.1344(9)
C3 C 0.76571(11) -0.1439(2) 0.14666(9)
H2 H 0.7427(11) -0.285(2) 0.1741(9)
C4 C 0.36122(10) 0.1187(2) 0.14389(8)
C5 C 0.42244(11) -0.0841(2) 0.17908(9)
H3 H 0.3878(11) -0.205(2) 0.2106(10)
C6 C 0.53203(10) -0.1114(2) 0.17197(9)
H4 H 0.5738(11) -0.253(2) 0.1973(9)
C7 C 0.58157(10) 0.06512(19) 0.12938(8)
C8 C 0.52163(10) 0.2694(2) 0.09474(9)
H5 H 0.5585(11) 0.391(2) 0.0662(10)
C9 C 0.41197(11) 0.2943(2) 0.10200(9)
H6 H 0.3694(12) 0.435(2) 0.0786(10)
C10 C 0.24412(11) 0.1500(2) 0.14929(9)
H7 H 0.2106(11) 0.308(2) 0.1231(10)
C11 C 0.92246(12) 0.2874(2) 0.04320(12)
H8 H 0.9010(17) 0.453(3) 0.0452(13)
H9 H 0.9172(16) 0.243(3) -0.0275(15)
H10 H 1.0010(19) 0.268(3) 0.0837(14)
loop_
_geom_bond_atom_site_label_1
_geom_bond_atom_site_label_2
_geom_bond_site_symmetry_1
_geom_bond_site_symmetry_2
O1 C10 1_555 1_555
N1 N2 1_555 1_555
N2 C1 1_555 1_555
C1 C2 1_555 1_555
C2 H1 1_555 1_555
C3 N1 1_555 1_555
H2 C3 1_555 1_555
C4 C5 1_555 1_555
C5 H3 1_555 1_555
C6 C5 1_555 1_555
H4 C6 1_555 1_555
C7 N1 1_555 1_555
C8 C7 1_555 1_555
H5 C8 1_555 1_555
C9 C4 1_555 1_555
H6 C9 1_555 1_555
C10 C4 1_555 1_555
H7 C10 1_555 1_555
C11 C1 1_555 1_555
H8 C11 1_555 1_555
H9 C11 1_555 1_555
H10 C11 1_555 1_555
C2 C3 1_555 1_555
C6 C7 1_555 1_555
C8 C9 1_555 1_555

#END
