
#######################################################################
#
#                 Cambridge Crystallographic Data Centre
#                                CCDC 
#
#######################################################################
#
# If this CIF has been generated from an entry in the Cambridge 
# Structural Database, then it will include bibliographic, chemical, 
# crystal, experimental, refinement or atomic coordinate data resulting 
# from the CCDC's data processing and validation procedures.
#
#######################################################################

data_BETXAZ01
_chemical_name_common            2-Ethynyl-2-adamantanol
_chemical_formula_moiety         'C12 H16 O1'
_chemical_name_systematic        (Z)-Ethynyl-tricyclo(3.3.1.1^3,7^)decan-2-ol
_symmetry_cell_setting           monoclinic
_symmetry_space_group_name_H-M   'P 21/c'
_symmetry_Int_Tables_number      14
_space_group_name_Hall           '-P 2ybc'
loop_
_symmetry_equiv_pos_site_id
_symmetry_equiv_pos_as_xyz
1 x,y,z
2 -x,1/2+y,1/2-z
3 -x,-y,-z
4 x,1/2-y,1/2+z
_cell_length_a                   6.799(3)
_cell_length_b                   22.491(10)
_cell_length_c                   12.649(6)
_cell_angle_alpha                90
_cell_angle_beta                 93.88(3)
_cell_angle_gamma                90
_cell_volume                     1929.81
_exptl_crystal_colour            white
_chemical_melting_point          102-104deg.C
_cell_formula_units_Z            8
loop_
_atom_site_label
_atom_site_type_symbol
_atom_site_fract_x
_atom_site_fract_y
_atom_site_fract_z
O1 O 0.0977(5) 0.5929(2) 0.3385(3)
C1 C 0.1240(4) 0.6497(1) 0.2919(2)
C2 C 0.1799(5) 0.6436(2) 0.1748(2)
C3 C 0.1983(6) 0.7053(2) 0.1250(3)
C4 C -0.0014(6) 0.7386(2) 0.1266(3)
C5 C -0.1643(6) 0.7030(2) 0.0635(3)
C6 C -0.1820(5) 0.6410(2) 0.1131(3)
C7 C -0.2363(5) 0.6477(2) 0.2285(3)
C8 C -0.0752(5) 0.6837(2) 0.2921(3)
C9 C -0.0558(6) 0.7452(2) 0.2416(3)
C10 C 0.0173(6) 0.6078(2) 0.1114(3)
C11 C 0.2812(5) 0.6820(2) 0.3563(3)
C12 C 0.4114(6) 0.7064(2) 0.4096(3)
H1 H 0.2223(11) 0.5719(4) 0.3461(7)
H2 H 0.3224(11) 0.6203(4) 0.1746(7)
H3 H 0.2389(14) 0.7010(4) 0.0426(6)
H4 H 0.3168(13) 0.7302(4) 0.1675(7)
H5 H 0.0129(18) 0.7828(5) 0.0909(10)
H6 H -0.1279(17) 0.6989(5) -0.0198(7)
H7 H -0.3048(16) 0.7273(5) 0.0647(9)
H8 H -0.2948(14) 0.6143(5) 0.0675(8)
H9 H -0.2572(14) 0.6046(4) 0.2646(8)
H10 H -0.3785(12) 0.6722(5) 0.2312(8)
H11 H -0.1133(13) 0.6881(4) 0.3750(7)
H12 H 0.0558(14) 0.7718(4) 0.2875(7)
H13 H -0.1974(14) 0.7688(5) 0.2432(8)
H14 H 0.0037(14) 0.5636(4) 0.1448(7)
H15 H 0.0614(16) 0.6024(5) 0.0308(7)
H16 H 0.5254(20) 0.7263(7) 0.4566(9)
O2 O 0.4602(5) 0.5321(2) 0.3502(3)
C13 C 0.4318(4) 0.4690(1) 0.3364(2)
C14 C 0.3366(4) 0.4598(2) 0.2227(2)
C15 C 0.5940(5) 0.3681(2) 0.3256(3)
C16 C 0.4995(5) 0.3596(2) 0.2127(3)
C17 C 0.6377(5) 0.3844(2) 0.1325(3)
C18 C 0.6744(5) 0.4510(2) 0.1533(3)
C19 C 0.4757(5) 0.4845(2) 0.1423(3)
C20 C 0.6309(4) 0.4349(2) 0.3480(2)
C21 C 0.3000(5) 0.3935(2) 0.2017(3)
C22 C 0.7703(5) 0.4592(2) 0.2664(3)
C23 C 0.2962(5) 0.4482(2) 0.4155(2)
C24 C 0.1812(5) 0.4343(2) 0.4800(3)
H17 H 0.5493(12) 0.5396(4) 0.4110(6)
H18 H 0.1943(10) 0.4840(4) 0.2165(6)
H19 H 0.7351(14) 0.3446(4) 0.3349(8)
H20 H 0.4965(15) 0.3493(4) 0.3838(7)
H21 H 0.4747(14) 0.3125(4) 0.1990(8)
H22 H 0.7781(13) 0.3596(4) 0.1390(7)
H23 H 0.5737(14) 0.3777(4) 0.0515(7)
H24 H 0.7753(12) 0.4699(4) 0.0957(7)
H25 H 0.4061(13) 0.4775(4) 0.0626(6)
H26 H 0.5019(14) 0.5318(4) 0.1536(7)
H27 H 0.6990(12) 0.4407(4) 0.4290(6)
H28 H 0.2291(14) 0.3877(4) 0.1227(7)
H29 H 0.1983(12) 0.3750(4) 0.2566(7)
H30 H 0.9098(11) 0.4346(5) 0.2773(7)
H31 H 0.8037(12) 0.5055(4) 0.2821(7)
H32 H 0.0799(13) 0.4228(5) 0.5378(7)
loop_
_geom_bond_atom_site_label_1
_geom_bond_atom_site_label_2
_geom_bond_site_symmetry_1
_geom_bond_site_symmetry_2
O1 C1 1_555 1_555
C1 C2 1_555 1_555
C2 C3 1_555 1_555
C3 C4 1_555 1_555
C4 C5 1_555 1_555
C5 C6 1_555 1_555
C6 C7 1_555 1_555
C7 C8 1_555 1_555
C8 C1 1_555 1_555
C9 C4 1_555 1_555
C10 C2 1_555 1_555
C11 C1 1_555 1_555
C12 C11 1_555 1_555
H1 O1 1_555 1_555
H2 C2 1_555 1_555
H3 C3 1_555 1_555
H4 C3 1_555 1_555
H5 C4 1_555 1_555
H6 C5 1_555 1_555
H7 C5 1_555 1_555
H8 C6 1_555 1_555
H9 C7 1_555 1_555
H10 C7 1_555 1_555
H11 C8 1_555 1_555
H12 C9 1_555 1_555
H13 C9 1_555 1_555
H14 C10 1_555 1_555
H15 C10 1_555 1_555
H16 C12 1_555 1_555
O2 C13 1_555 1_555
C13 C14 1_555 1_555
C14 C19 1_555 1_555
C15 C16 1_555 1_555
C16 C17 1_555 1_555
C17 C18 1_555 1_555
C18 C19 1_555 1_555
C19 H25 1_555 1_555
C20 C13 1_555 1_555
C21 C14 1_555 1_555
C22 C18 1_555 1_555
C23 C13 1_555 1_555
C24 C23 1_555 1_555
H17 O2 1_555 1_555
H18 C14 1_555 1_555
H19 C15 1_555 1_555
H20 C15 1_555 1_555
H21 C16 1_555 1_555
H22 C17 1_555 1_555
H23 C17 1_555 1_555
H24 C18 1_555 1_555
H26 C19 1_555 1_555
H27 C20 1_555 1_555
H28 C21 1_555 1_555
H29 C21 1_555 1_555
H30 C22 1_555 1_555
H31 C22 1_555 1_555
H32 C24 1_555 1_555
C6 C10 1_555 1_555
C8 C9 1_555 1_555
C15 C20 1_555 1_555
C16 C21 1_555 1_555
C20 C22 1_555 1_555

#END
