
#######################################################################
#
#                 Cambridge Crystallographic Data Centre
#                                CCDC 
#
#######################################################################
#
# If this CIF has been generated from an entry in the Cambridge 
# Structural Database, then it will include bibliographic, chemical, 
# crystal, experimental, refinement or atomic coordinate data resulting 
# from the CCDC's data processing and validation procedures.
#
#######################################################################

data_BEVGOA
_chemical_formula_moiety         'C66 H76 N6 O4'
_chemical_name_systematic        
2,12-bis(2-hexyldecyl)pyrido[3',4',5':5,6]acenaphtho[1,2-b]pyrido[3'',4'',5'':5',6']acenaphtho[1',2':5,6]pyrazino[2,3-g]quinoxaline-1,3,11,13(2H,12H)-tetrone
_symmetry_cell_setting           triclinic
_symmetry_space_group_name_H-M   'P -1'
_symmetry_Int_Tables_number      2
_space_group_name_Hall           '-P 1'
loop_
_symmetry_equiv_pos_site_id
_symmetry_equiv_pos_as_xyz
1 x,y,z
2 -x,-y,-z
_cell_length_a                   4.681(4)
_cell_length_b                   16.30(2)
_cell_length_c                   17.554(16)
_cell_angle_alpha                94.08(5)
_cell_angle_beta                 93.92(3)
_cell_angle_gamma                95.36(6)
_cell_volume                     1326.34
_exptl_crystal_colour            yellow
_exptl_crystal_description       needle
_cell_formula_units_Z            1
loop_
_atom_site_label
_atom_site_type_symbol
_atom_site_fract_x
_atom_site_fract_y
_atom_site_fract_z
C1 C 1.1412(17) 1.0602(5) 0.5504(5)
H1 H 1.2384 1.1022 0.5837
C2 C 0.9285(18) 1.0109(5) 0.5766(5)
C3 C 0.7787(16) 0.9489(4) 0.5239(5)
C4 C 0.6578(17) 0.9726(5) 0.6707(5)
C5 C 0.5435(17) 0.9665(5) 0.7464(4)
C6 C 0.3202(17) 0.9014(5) 0.7362(5)
C7 C 0.2834(16) 0.8630(4) 0.6608(4)
C8 C 0.5016(17) 0.9086(5) 0.6188(5)
C9 C 0.5975(16) 1.0038(5) 0.8186(4)
H2 H 0.7415 1.0474 0.8274
C10 C 0.4429(16) 0.9786(4) 0.8800(4)
H3 H 0.4876 1.0051 0.9286
C11 C 0.2217(16) 0.9137(4) 0.8688(5)
C12 C 0.0676(17) 0.8813(5) 0.9304(5)
C13 C 0.0727(15) 0.7970(4) 0.6434(4)
H4 H 0.042 0.7706 0.5944
C14 C -0.0923(15) 0.7720(5) 0.7036(5)
H5 H -0.2358 0.7285 0.693
C15 C -0.0531(17) 0.8080(5) 0.7760(5)
C16 C -0.2331(18) 0.7806(5) 0.8383(5)
C17 C 0.1584(18) 0.8750(5) 0.7948(5)
C18 C -0.2940(15) 0.7814(4) 0.9758(4)
H6 H -0.4734 0.7506 0.9553
H7 H -0.3407 0.8267 1.0101
C19 C -0.1165(15) 0.7246(4) 1.0214(4)
H8 H 0.0623 0.7573 1.0417
C20 C -0.0343(14) 0.6533(4) 0.9705(4)
H9 H 0.0521 0.6762 0.927
H10 H 0.1146 0.6279 0.9988
C21 C -0.2614(14) 0.5855(4) 0.9397(4)
H11 H -0.4206 0.6102 0.9151
H12 H -0.3333 0.5572 0.9823
C22 C -0.1579(16) 0.5217(4) 0.8822(4)
H13 H 0.0108 0.5003 0.9055
H14 H -0.3068 0.476 0.8722
C23 C -0.0831(17) 0.5542(4) 0.8061(4)
H15 H -0.2513 0.5752 0.782
H16 H 0.067 0.5997 0.8154
C24 C 0.016(2) 0.4895(5) 0.7534(5)
H17 H -0.1322 0.4433 0.745
H18 H 0.1874 0.4696 0.7766
C25 C 0.083(2) 0.5236(6) 0.6741(5)
H19 H -0.0917 0.5417 0.6524
H20 H 0.1414 0.4797 0.641
H21 H 0.2314 0.569 0.6795
C26 C -0.2722(16) 0.6964(4) 1.0891(4)
H22 H -0.1645 0.6555 1.1124
H23 H -0.4583 0.6688 1.0697
C27 C -0.3212(16) 0.7619(4) 1.1515(4)
H24 H -0.1366 0.7904 1.171
H25 H -0.4348 0.8023 1.1293
C28 C -0.4730(16) 0.7279(4) 1.2180(4)
H26 H -0.6571 0.6992 1.1985
H27 H -0.3589 0.6877 1.2404
C29 C -0.5227(16) 0.7925(4) 1.2795(4)
H28 H -0.6355 0.8328 1.2569
H29 H -0.3383 0.821 1.2991
C30 C -0.6773(15) 0.7590(5) 1.3467(4)
H30 H -0.7302 0.8053 1.3787
H31 H -0.8536 0.7262 1.3266
C31 C -0.5011(18) 0.7060(5) 1.3962(5)
H32 H -0.3145 0.7363 1.4106
H33 H -0.4668 0.6577 1.3639
C32 C -0.660(3) 0.6821(9) 1.4625(7)
H34 H -0.8421 0.6515 1.4442
H35 H -0.6999 0.7315 1.4923
C33 C -0.483(3) 0.6273(10) 1.5150(8)
H36 H -0.4351 0.5797 1.485
H37 H -0.5974 0.6098 1.5554
H38 H -0.3101 0.6591 1.5367
N1 N 0.5536(13) 0.8938(4) 0.5479(4)
N2 N 0.8672(14) 1.0245(4) 0.6518(4)
N3 N -0.1453(13) 0.8153(4) 0.9127(4)
O1 O -0.4372(10) 0.7287(3) 0.8264(3)
O2 O 0.1207(10) 0.9085(3) 0.9981(3)
C1A C 0.8588(17) 0.9398(5) 0.4496(5)
H1A H 0.7616 0.8978 0.4163
C2A C 1.0715(18) 0.9891(5) 0.4234(5)
C3A C 1.2213(16) 1.0511(4) 0.4761(5)
C4A C 1.3422(17) 1.0274(5) 0.3293(5)
C5A C 1.4565(17) 1.0335(5) 0.2536(4)
C6A C 1.6798(17) 1.0986(5) 0.2638(5)
C7A C 1.7166(16) 1.1370(4) 0.3392(4)
C8A C 1.4984(17) 1.0914(5) 0.3812(5)
C9A C 1.4025(16) 0.9962(5) 0.1814(4)
H2A H 1.2585 0.9526 0.1726
C10A C 1.5571(16) 1.0214(4) 0.1200(4)
H3A H 1.5124 0.9949 0.0714
C11A C 1.7783(16) 1.0863(4) 0.1312(5)
C12A C 1.9324(17) 1.1187(5) 0.0696(5)
C13A C 1.9273(15) 1.2030(4) 0.3566(4)
H4A H 1.958 1.2294 0.4056
C14A C 2.0923(15) 1.2280(5) 0.2964(5)
H5A H 2.2358 1.2715 0.307
C15A C 2.0531(17) 1.1920(5) 0.2240(5)
C16A C 2.2331(18) 1.2194(5) 0.1617(5)
C17A C 1.8416(18) 1.1250(5) 0.2052(5)
C18A C 2.2940(15) 1.2186(4) 0.0242(4)
H6A H 2.4734 1.2494 0.0447
H7A H 2.3407 1.1733 -0.0101
C19A C 2.1165(15) 1.2754(4) -0.0214(4)
H8A H 1.9377 1.2427 -0.0417
C20A C 2.0343(14) 1.3467(4) 0.0295(4)
H9A H 1.9479 1.3238 0.073
H10A H 1.8854 1.3721 0.0012
C21A C 2.2614(14) 1.4145(4) 0.0603(4)
H11A H 2.4206 1.3898 0.0849
H12A H 2.3333 1.4428 0.0177
C22A C 2.1579(16) 1.4783(4) 0.1178(4)
H13A H 1.9892 1.4997 0.0945
H14A H 2.3068 1.524 0.1278
C23A C 2.0831(17) 1.4458(4) 0.1939(4)
H15A H 2.2513 1.4248 0.218
H16A H 1.933 1.4003 0.1846
C24A C 1.984(2) 1.5105(5) 0.2466(5)
H17A H 2.1322 1.5567 0.255
H18A H 1.8126 1.5304 0.2234
C25A C 1.917(2) 1.4764(6) 0.3259(5)
H19A H 2.0917 1.4583 0.3476
H20A H 1.8586 1.5203 0.359
H21A H 1.7686 1.431 0.3205
C26A C 2.2722(16) 1.3036(4) -0.0891(4)
H22A H 2.1645 1.3445 -0.1124
H23A H 2.4583 1.3312 -0.0697
C27A C 2.3212(16) 1.2381(4) -0.1515(4)
H24A H 2.1366 1.2096 -0.171
H25A H 2.4348 1.1977 -0.1293
C28A C 2.4730(16) 1.2721(4) -0.2180(4)
H26A H 2.6571 1.3008 -0.1985
H27A H 2.3589 1.3123 -0.2404
C29A C 2.5227(16) 1.2075(4) -0.2795(4)
H28A H 2.6355 1.1672 -0.2569
H29A H 2.3383 1.179 -0.2991
C30A C 2.6773(15) 1.2410(5) -0.3467(4)
H30A H 2.7302 1.1947 -0.3787
H31A H 2.8536 1.2738 -0.3266
C31A C 2.5011(18) 1.2940(5) -0.3962(5)
H32A H 2.3145 1.2637 -0.4106
H33A H 2.4668 1.3423 -0.3639
C32A C 2.660(3) 1.3179(9) -0.4625(7)
H34A H 2.8421 1.3485 -0.4442
H35A H 2.6999 1.2685 -0.4923
C33A C 2.483(3) 1.3727(10) -0.5150(8)
H36A H 2.4351 1.4203 -0.485
H37A H 2.5974 1.3902 -0.5554
H38A H 2.3101 1.3409 -0.5367
N1A N 1.4464(13) 1.1062(4) 0.4521(4)
N2A N 1.1328(14) 0.9755(4) 0.3482(4)
N3A N 2.1453(13) 1.1847(4) 0.0873(4)
O1A O 2.4372(10) 1.2713(3) 0.1736(3)
O2A O 1.8793(10) 1.0915(3) 0.0019(3)
loop_
_geom_bond_atom_site_label_1
_geom_bond_atom_site_label_2
_geom_bond_site_symmetry_1
_geom_bond_site_symmetry_2
C1 H1 1_555 1_555
C2 C1 1_555 1_555
C3 C2 1_555 1_555
C4 C5 1_555 1_555
C5 C6 1_555 1_555
C6 C7 1_555 1_555
C7 C8 1_555 1_555
C8 C4 1_555 1_555
C9 C5 1_555 1_555
H2 C9 1_555 1_555
C10 C9 1_555 1_555
H3 C10 1_555 1_555
C11 C10 1_555 1_555
C12 C11 1_555 1_555
C13 C7 1_555 1_555
H4 C13 1_555 1_555
C14 C13 1_555 1_555
H5 C14 1_555 1_555
C15 C14 1_555 1_555
C16 C15 1_555 1_555
C17 C6 1_555 1_555
C18 H6 1_555 1_555
H7 C18 1_555 1_555
C19 C18 1_555 1_555
H8 C19 1_555 1_555
C20 C19 1_555 1_555
H9 C20 1_555 1_555
H10 C20 1_555 1_555
C21 C20 1_555 1_555
H11 C21 1_555 1_555
H12 C21 1_555 1_555
C22 C21 1_555 1_555
H13 C22 1_555 1_555
H14 C22 1_555 1_555
C23 C22 1_555 1_555
H15 C23 1_555 1_555
H16 C23 1_555 1_555
C24 C23 1_555 1_555
H17 C24 1_555 1_555
H18 C24 1_555 1_555
C25 C24 1_555 1_555
H19 C25 1_555 1_555
H20 C25 1_555 1_555
H21 C25 1_555 1_555
C26 C19 1_555 1_555
H22 C26 1_555 1_555
H23 C26 1_555 1_555
C27 C26 1_555 1_555
H24 C27 1_555 1_555
H25 C27 1_555 1_555
C28 C27 1_555 1_555
H26 C28 1_555 1_555
H27 C28 1_555 1_555
C29 C28 1_555 1_555
H28 C29 1_555 1_555
H29 C29 1_555 1_555
C30 C29 1_555 1_555
H30 C30 1_555 1_555
H31 C30 1_555 1_555
C31 C30 1_555 1_555
H32 C31 1_555 1_555
H33 C31 1_555 1_555
C32 C31 1_555 1_555
H34 C32 1_555 1_555
H35 C32 1_555 1_555
C33 C32 1_555 1_555
H36 C33 1_555 1_555
H37 C33 1_555 1_555
H38 C33 1_555 1_555
N1 C3 1_555 1_555
N2 C2 1_555 1_555
N3 C12 1_555 1_555
O1 C16 1_555 1_555
O2 C12 1_555 1_555
C1A C3 1_555 1_555
H1A C1A 1_555 1_555
C2A C1A 1_555 1_555
C3A C1 1_555 1_555
C4A C5A 1_555 1_555
C5A C6A 1_555 1_555
C6A C7A 1_555 1_555
C7A C8A 1_555 1_555
C8A C4A 1_555 1_555
C9A C5A 1_555 1_555
H2A C9A 1_555 1_555
C10A C9A 1_555 1_555
H3A C10A 1_555 1_555
C11A C10A 1_555 1_555
C12A C11A 1_555 1_555
C13A C7A 1_555 1_555
H4A C13A 1_555 1_555
C14A C13A 1_555 1_555
H5A C14A 1_555 1_555
C15A C14A 1_555 1_555
C16A C15A 1_555 1_555
C17A C6A 1_555 1_555
C18A H6A 1_555 1_555
H7A C18A 1_555 1_555
C19A C18A 1_555 1_555
H8A C19A 1_555 1_555
C20A C19A 1_555 1_555
H9A C20A 1_555 1_555
H10A C20A 1_555 1_555
C21A C20A 1_555 1_555
H11A C21A 1_555 1_555
H12A C21A 1_555 1_555
C22A C21A 1_555 1_555
H13A C22A 1_555 1_555
H14A C22A 1_555 1_555
C23A C22A 1_555 1_555
H15A C23A 1_555 1_555
H16A C23A 1_555 1_555
C24A C23A 1_555 1_555
H17A C24A 1_555 1_555
H18A C24A 1_555 1_555
C25A C24A 1_555 1_555
H19A C25A 1_555 1_555
H20A C25A 1_555 1_555
H21A C25A 1_555 1_555
C26A C19A 1_555 1_555
H22A C26A 1_555 1_555
H23A C26A 1_555 1_555
C27A C26A 1_555 1_555
H24A C27A 1_555 1_555
H25A C27A 1_555 1_555
C28A C27A 1_555 1_555
H26A C28A 1_555 1_555
H27A C28A 1_555 1_555
C29A C28A 1_555 1_555
H28A C29A 1_555 1_555
H29A C29A 1_555 1_555
C30A C29A 1_555 1_555
H30A C30A 1_555 1_555
H31A C30A 1_555 1_555
C31A C30A 1_555 1_555
H32A C31A 1_555 1_555
H33A C31A 1_555 1_555
C32A C31A 1_555 1_555
H34A C32A 1_555 1_555
H35A C32A 1_555 1_555
C33A C32A 1_555 1_555
H36A C33A 1_555 1_555
H37A C33A 1_555 1_555
H38A C33A 1_555 1_555
N1A C3A 1_555 1_555
N2A C2A 1_555 1_555
N3A C12A 1_555 1_555
O1A C16A 1_555 1_555
O2A C12A 1_555 1_555
C4 N2 1_555 1_555
C8 N1 1_555 1_555
C11 C17 1_555 1_555
C15 C17 1_555 1_555
C16 N3 1_555 1_555
C18 N3 1_555 1_555
C2A C3A 1_555 1_555
C4A N2A 1_555 1_555
C8A N1A 1_555 1_555
C11A C17A 1_555 1_555
C15A C17A 1_555 1_555
C16A N3A 1_555 1_555
C18A N3A 1_555 1_555

#END
