
#######################################################################
#
#                 Cambridge Crystallographic Data Centre
#                                CCDC 
#
#######################################################################
#
# If this CIF has been generated from an entry in the Cambridge 
# Structural Database, then it will include bibliographic, chemical, 
# crystal, experimental, refinement or atomic coordinate data resulting 
# from the CCDC's data processing and validation procedures.
#
#######################################################################

data_BEVHOB
_chemical_formula_moiety         'C23 H15 N1'
_chemical_name_systematic        6-Phenylbenzo[k]phenanthridine
_symmetry_cell_setting           monoclinic
_symmetry_space_group_name_H-M   'P 21/n'
_symmetry_Int_Tables_number      14
_space_group_name_Hall           '-P 2yn'
loop_
_symmetry_equiv_pos_site_id
_symmetry_equiv_pos_as_xyz
1 x,y,z
2 1/2-x,1/2+y,1/2-z
3 -x,-y,-z
4 1/2+x,1/2-y,1/2+z
_cell_length_a                   10.376(6)
_cell_length_b                   7.317(4)
_cell_length_c                   20.485(11)
_cell_angle_alpha                90
_cell_angle_beta                 100.828(7)
_cell_angle_gamma                90
_cell_volume                     1527.56
_exptl_crystal_colour            colorless
_exptl_crystal_description       block
_cell_formula_units_Z            4
loop_
_atom_site_label
_atom_site_type_symbol
_atom_site_fract_x
_atom_site_fract_y
_atom_site_fract_z
N1 N 0.0686(5) 0.7185(7) 0.4197(2)
C1 C -0.0104(6) 0.7297(9) 0.4664(3)
C2 C -0.1470(6) 0.7164(10) 0.4424(3)
H1 H -0.1797 0.6947 0.3966
C3 C -0.2325(7) 0.7350(10) 0.4859(4)
H2 H -0.3243 0.7248 0.4701
C4 C -0.1848(7) 0.7688(11) 0.5532(4)
H3 H -0.2442 0.7815 0.5829
C5 C -0.0535(7) 0.7835(9) 0.5762(4)
H4 H -0.0232 0.8140 0.6215
C6 C 0.0398(6) 0.7547(9) 0.5346(3)
C7 C 0.1788(6) 0.7632(8) 0.5558(3)
C8 C 0.2490(6) 0.7569(8) 0.6248(3)
C9 C 0.1919(6) 0.6746(10) 0.6768(3)
H5 H 0.1065 0.6229 0.6667
C10 C 0.2622(7) 0.6715(10) 0.7414(4)
H6 H 0.2229 0.6218 0.7758
C11 C 0.3874(6) 0.7389(9) 0.7563(4)
H7 H 0.4332 0.7379 0.8011
C12 C 0.4468(6) 0.8072(9) 0.7079(3)
H8 H 0.5342 0.8518 0.7191
C13 C 0.3798(6) 0.8127(9) 0.6409(3)
C14 C 0.4461(6) 0.8606(10) 0.5885(3)
H9 H 0.5317 0.9118 0.5989
C15 C 0.3893(6) 0.8343(10) 0.5243(3)
H10 H 0.4388 0.8538 0.4903
C16 C 0.2555(6) 0.7774(9) 0.5069(3)
C17 C 0.1942(6) 0.7458(8) 0.4387(3)
C18 C 0.2740(6) 0.7393(9) 0.3842(3)
C19 C 0.3887(7) 0.6320(10) 0.3908(3)
H11 H 0.4162 0.5610 0.4298
C20 C 0.4611(7) 0.6300(10) 0.3408(4)
H12 H 0.5402 0.5614 0.3463
C21 C 0.4204(8) 0.7256(11) 0.2834(4)
H13 H 0.4703 0.7211 0.2490
C22 C 0.3051(7) 0.8307(11) 0.2749(3)
H14 H 0.2759 0.8964 0.2348
C23 C 0.2344(6) 0.8366(10) 0.3263(3)
H15 H 0.1573 0.9092 0.3214
loop_
_geom_bond_atom_site_label_1
_geom_bond_atom_site_label_2
_geom_bond_site_symmetry_1
_geom_bond_site_symmetry_2
N1 C1 1_555 1_555
C1 C2 1_555 1_555
C2 H1 1_555 1_555
C3 C2 1_555 1_555
H2 C3 1_555 1_555
C4 C3 1_555 1_555
H3 C4 1_555 1_555
C5 C4 1_555 1_555
H4 C5 1_555 1_555
C6 C1 1_555 1_555
C7 C6 1_555 1_555
C8 C7 1_555 1_555
C9 C8 1_555 1_555
H5 C9 1_555 1_555
C10 C9 1_555 1_555
H6 C10 1_555 1_555
C11 C10 1_555 1_555
H7 C11 1_555 1_555
C12 C11 1_555 1_555
H8 C12 1_555 1_555
C13 C8 1_555 1_555
C14 C13 1_555 1_555
H9 C14 1_555 1_555
C15 C14 1_555 1_555
H10 C15 1_555 1_555
C16 C7 1_555 1_555
C17 N1 1_555 1_555
C18 C17 1_555 1_555
C19 C18 1_555 1_555
H11 C19 1_555 1_555
C20 C19 1_555 1_555
H12 C20 1_555 1_555
C21 C20 1_555 1_555
H13 C21 1_555 1_555
C22 C21 1_555 1_555
H14 C22 1_555 1_555
C23 C18 1_555 1_555
H15 C23 1_555 1_555
C5 C6 1_555 1_555
C12 C13 1_555 1_555
C15 C16 1_555 1_555
C16 C17 1_555 1_555
C22 C23 1_555 1_555

#END
