
#######################################################################
#
#                 Cambridge Crystallographic Data Centre
#                                CCDC 
#
#######################################################################
#
# If this CIF has been generated from an entry in the Cambridge 
# Structural Database, then it will include bibliographic, chemical, 
# crystal, experimental, refinement or atomic coordinate data resulting 
# from the CCDC's data processing and validation procedures.
#
#######################################################################

data_BEVHIV
_chemical_formula_moiety         'C24 H17 N1'
_chemical_name_systematic        6-(4-Methylphenyl)benzo[k]phenanthridine
_symmetry_cell_setting           monoclinic
_symmetry_space_group_name_H-M   'P 21/c'
_symmetry_Int_Tables_number      14
_space_group_name_Hall           '-P 2ybc'
loop_
_symmetry_equiv_pos_site_id
_symmetry_equiv_pos_as_xyz
1 x,y,z
2 -x,1/2+y,1/2-z
3 -x,-y,-z
4 x,1/2-y,1/2+z
_cell_length_a                   10.896(2)
_cell_length_b                   7.2896(15)
_cell_length_c                   21.401(4)
_cell_angle_alpha                90
_cell_angle_beta                 101.92(3)
_cell_angle_gamma                90
_cell_volume                     1663.17
_exptl_crystal_colour            colorless
_exptl_crystal_description       block
_cell_formula_units_Z            4
loop_
_atom_site_label
_atom_site_type_symbol
_atom_site_fract_x
_atom_site_fract_y
_atom_site_fract_z
N1 N 0.35392(17) 0.2138(2) -0.07732(8)
C1 C 0.4686(2) 0.2295(3) -0.03610(10)
C2 C 0.5760(2) 0.2198(3) -0.06305(11)
H1 H 0.5667 0.1969 -0.1075
C3 C 0.6932(2) 0.2429(3) -0.02638(11)
H2 H 0.7650 0.2321 -0.0448
C4 C 0.7068(2) 0.2826(3) 0.03876(11)
H3 H 0.7880 0.3047 0.0640
C5 C 0.6040(2) 0.2897(3) 0.06657(10)
H4 H 0.6152 0.3177 0.1107
C6 C 0.48204(19) 0.2562(3) 0.03075(9)
C7 C 0.36844(19) 0.2630(3) 0.05603(9)
C8 C 0.36575(19) 0.2628(3) 0.12383(9)
C9 C 0.4626(2) 0.1906(3) 0.17157(10)
H5 H 0.5346 0.1390 0.1597
C10 C 0.4549(2) 0.1934(3) 0.23504(10)
H6 H 0.5212 0.1434 0.2663
C11 C 0.3507(2) 0.2690(3) 0.25379(10)
H7 H 0.3485 0.2791 0.2978
C12 C 0.2515(2) 0.3285(3) 0.20831(10)
H8 H 0.1791 0.3750 0.2211
C13 C 0.25448(19) 0.3225(3) 0.14264(10)
C14 C 0.1452(2) 0.3637(3) 0.09533(10)
H9 H 0.0737 0.4149 0.1077
C15 C 0.1429(2) 0.3301(3) 0.03282(10)
H10 H 0.0665 0.3436 0.0024
C16 C 0.25374(19) 0.2748(3) 0.01186(9)
C17 C 0.2519(2) 0.2392(3) -0.05463(9)
C18 C 0.1316(2) 0.2297(3) -0.10206(10)
C19 C 0.0318(2) 0.1182(3) -0.09458(11)
H11 H 0.0387 0.0460 -0.0571
C20 C -0.0774(2) 0.1111(3) -0.14099(12)
H12 H -0.1441 0.0338 -0.1348
C21 C -0.0913(2) 0.2151(3) -0.19653(11)
C22 C 0.0083(2) 0.3250(3) -0.20432(10)
H13 H 0.0014 0.3963 -0.2420
C23 C 0.1175(2) 0.3323(3) -0.15804(10)
H14 H 0.1843 0.4089 -0.1645
C24 C -0.2113(2) 0.2106(4) -0.24627(14)
H15 H -0.2469 0.0868 -0.2486
H16 H -0.1937 0.2443 -0.2879
H17 H -0.2712 0.2979 -0.2347
loop_
_geom_bond_atom_site_label_1
_geom_bond_atom_site_label_2
_geom_bond_site_symmetry_1
_geom_bond_site_symmetry_2
N1 C1 1_555 1_555
C1 C2 1_555 1_555
C2 H1 1_555 1_555
C3 C2 1_555 1_555
H2 C3 1_555 1_555
C4 C3 1_555 1_555
H3 C4 1_555 1_555
C5 C4 1_555 1_555
H4 C5 1_555 1_555
C6 C1 1_555 1_555
C7 C6 1_555 1_555
C8 C7 1_555 1_555
C9 C8 1_555 1_555
H5 C9 1_555 1_555
C10 C9 1_555 1_555
H6 C10 1_555 1_555
C11 C10 1_555 1_555
H7 C11 1_555 1_555
C12 C11 1_555 1_555
H8 C12 1_555 1_555
C13 C8 1_555 1_555
C14 C13 1_555 1_555
H9 C14 1_555 1_555
C15 C14 1_555 1_555
H10 C15 1_555 1_555
C16 C7 1_555 1_555
C17 N1 1_555 1_555
C18 C17 1_555 1_555
C19 C18 1_555 1_555
H11 C19 1_555 1_555
C20 C19 1_555 1_555
H12 C20 1_555 1_555
C21 C20 1_555 1_555
C22 C21 1_555 1_555
H13 C22 1_555 1_555
C23 C18 1_555 1_555
H14 C23 1_555 1_555
C24 C21 1_555 1_555
H15 C24 1_555 1_555
H16 C24 1_555 1_555
H17 C24 1_555 1_555
C5 C6 1_555 1_555
C12 C13 1_555 1_555
C15 C16 1_555 1_555
C16 C17 1_555 1_555
C22 C23 1_555 1_555

#END
