
#######################################################################
#
#                 Cambridge Crystallographic Data Centre
#                                CCDC 
#
#######################################################################
#
# If this CIF has been generated from an entry in the Cambridge 
# Structural Database, then it will include bibliographic, chemical, 
# crystal, experimental, refinement or atomic coordinate data resulting 
# from the CCDC's data processing and validation procedures.
#
#######################################################################

data_BEVJET
_chemical_formula_moiety         'C24 H17 N1 O1'
_chemical_name_systematic        6-(2-Methoxyphenyl)benzo[k]phenanthridine
_symmetry_cell_setting           monoclinic
_symmetry_space_group_name_H-M   'P 21/c'
_symmetry_Int_Tables_number      14
_space_group_name_Hall           '-P 2ybc'
loop_
_symmetry_equiv_pos_site_id
_symmetry_equiv_pos_as_xyz
1 x,y,z
2 -x,1/2+y,1/2-z
3 -x,-y,-z
4 x,1/2-y,1/2+z
_cell_length_a                   11.349(2)
_cell_length_b                   12.782(3)
_cell_length_c                   11.772(2)
_cell_angle_alpha                90
_cell_angle_beta                 104.11(3)
_cell_angle_gamma                90
_cell_volume                     1656.16
_exptl_crystal_colour            colorless
_exptl_crystal_description       block
_cell_formula_units_Z            4
loop_
_atom_site_label
_atom_site_type_symbol
_atom_site_fract_x
_atom_site_fract_y
_atom_site_fract_z
O1 O 0.65988(12) 0.03341(11) 0.63802(11)
N1 N 0.72079(13) -0.14328(11) 0.90440(13)
C1 C 0.74949(16) -0.05401(14) 0.86385(14)
C2 C 0.87006(15) -0.02998(13) 0.85047(15)
C3 C 0.89961(16) 0.07405(13) 0.82315(15)
H1 H 0.8403 0.1277 0.8156
C4 C 1.01115(16) 0.09715(13) 0.80786(15)
H2 H 1.0321 0.1679 0.7977
C5 C 1.09724(16) 0.01658(13) 0.80692(15)
C6 C 1.20571(16) 0.03920(14) 0.77320(16)
H3 H 1.2244 0.1098 0.7594
C7 C 1.28444(17) -0.03838(15) 0.75999(16)
H4 H 1.3578 -0.0218 0.7387
C8 C 1.25534(17) -0.14246(15) 0.77824(16)
H5 H 1.3072 -0.1970 0.7649
C9 C 1.15261(16) -0.16670(14) 0.81523(15)
H6 H 1.1359 -0.2379 0.8285
C10 C 1.07126(15) -0.08842(13) 0.83398(15)
C11 C 0.95872(15) -0.10914(13) 0.86908(14)
C12 C 0.93153(16) -0.20415(13) 0.92520(15)
C13 C 1.01887(17) -0.28016(13) 0.97773(15)
H7 H 1.1005 -0.2721 0.9723
C14 C 0.98870(18) -0.36495(14) 1.03615(16)
H8 H 1.0490 -0.4153 1.0690
C15 C 0.86960(18) -0.37792(14) 1.04780(16)
H9 H 0.8487 -0.4374 1.0872
C16 C 0.78349(17) -0.30419(14) 1.00186(16)
H10 H 0.7031 -0.3125 1.0108
C17 C 0.81245(16) -0.21606(14) 0.94142(15)
C18 C 0.65115(15) 0.02722(13) 0.83582(16)
C19 C 0.61020(16) 0.07259(14) 0.72452(16)
C20 C 0.52334(16) 0.15156(15) 0.70656(18)
H11 H 0.4959 0.1821 0.6312
C21 C 0.47654(17) 0.18590(15) 0.79874(19)
H12 H 0.4188 0.2411 0.7865
C22 C 0.51341(18) 0.14025(15) 0.90781(19)
H13 H 0.4799 0.1625 0.9703
C23 C 0.60002(17) 0.06146(14) 0.92528(17)
H14 H 0.6251 0.0300 1.0004
C24 C 0.6362(2) 0.08914(19) 0.52912(18)
H15 H 0.6827 0.0575 0.4779
H16 H 0.6605 0.1624 0.5439
H17 H 0.5493 0.0856 0.4912
loop_
_geom_bond_atom_site_label_1
_geom_bond_atom_site_label_2
_geom_bond_site_symmetry_1
_geom_bond_site_symmetry_2
O1 C19 1_555 1_555
N1 C1 1_555 1_555
C1 C2 1_555 1_555
C2 C3 1_555 1_555
C3 H1 1_555 1_555
C4 C3 1_555 1_555
H2 C4 1_555 1_555
C5 C4 1_555 1_555
C6 C5 1_555 1_555
H3 C6 1_555 1_555
C7 C6 1_555 1_555
H4 C7 1_555 1_555
C8 C7 1_555 1_555
H5 C8 1_555 1_555
C9 C8 1_555 1_555
H6 C9 1_555 1_555
C10 C5 1_555 1_555
C11 C2 1_555 1_555
C12 C11 1_555 1_555
C13 C12 1_555 1_555
H7 C13 1_555 1_555
C14 C13 1_555 1_555
H8 C14 1_555 1_555
C15 C14 1_555 1_555
H9 C15 1_555 1_555
C16 C15 1_555 1_555
H10 C16 1_555 1_555
C17 N1 1_555 1_555
C18 C1 1_555 1_555
C19 C18 1_555 1_555
C20 C19 1_555 1_555
H11 C20 1_555 1_555
C21 C20 1_555 1_555
H12 C21 1_555 1_555
C22 C21 1_555 1_555
H13 C22 1_555 1_555
C23 C18 1_555 1_555
H14 C23 1_555 1_555
C24 O1 1_555 1_555
H15 C24 1_555 1_555
H16 C24 1_555 1_555
H17 C24 1_555 1_555
C9 C10 1_555 1_555
C10 C11 1_555 1_555
C12 C17 1_555 1_555
C16 C17 1_555 1_555
C22 C23 1_555 1_555

#END
