
#######################################################################
#
#                 Cambridge Crystallographic Data Centre
#                                CCDC 
#
#######################################################################
#
# If this CIF has been generated from an entry in the Cambridge 
# Structural Database, then it will include bibliographic, chemical, 
# crystal, experimental, refinement or atomic coordinate data resulting 
# from the CCDC's data processing and validation procedures.
#
#######################################################################

data_BEVJAP
_chemical_formula_moiety         'C23 H14 N2 O2'
_chemical_name_systematic        6-(4-Nitrophenyl)benzo[k]phenanthridine
_symmetry_cell_setting           monoclinic
_symmetry_space_group_name_H-M   'P 21/c'
_symmetry_Int_Tables_number      14
_space_group_name_Hall           '-P 2ybc'
loop_
_symmetry_equiv_pos_site_id
_symmetry_equiv_pos_as_xyz
1 x,y,z
2 -x,1/2+y,1/2-z
3 -x,-y,-z
4 x,1/2-y,1/2+z
_cell_length_a                   10.305(2)
_cell_length_b                   20.321(4)
_cell_length_c                   7.9229(16)
_cell_angle_alpha                90
_cell_angle_beta                 95.15(3)
_cell_angle_gamma                90
_cell_volume                     1652.42
_exptl_crystal_colour            'pale yellow'
_exptl_crystal_description       rod
_cell_formula_units_Z            4
loop_
_atom_site_label
_atom_site_type_symbol
_atom_site_fract_x
_atom_site_fract_y
_atom_site_fract_z
O1 O 0.36572(19) 0.46388(9) 0.0438(2)
O2 O 0.4234(2) 0.51309(9) 0.2802(2)
N1 N 0.8195(2) 0.22967(9) 0.2939(2)
N2 N 0.4397(2) 0.47114(9) 0.1730(2)
C1 C 0.9101(2) 0.18058(11) 0.3301(3)
C2 C 0.8636(3) 0.11539(11) 0.3131(3)
H1 H 0.7731 0.1074 0.2881
C3 C 0.9487(3) 0.06351(11) 0.3325(3)
H2 H 0.9171 0.0196 0.3239
C4 C 1.0819(3) 0.07551(11) 0.3649(3)
H3 H 1.1413 0.0397 0.3695
C5 C 1.1281(3) 0.13827(11) 0.3903(3)
H4 H 1.2191 0.1453 0.4137
C6 C 1.0423(2) 0.19265(10) 0.3820(3)
C7 C 1.0817(2) 0.26058(10) 0.4095(3)
C8 C 1.2057(2) 0.28113(10) 0.4927(3)
C9 C 1.2861(2) 0.24058(11) 0.6033(3)
H5 H 1.2583 0.1972 0.6260
C10 C 1.4030(2) 0.26244(12) 0.6784(3)
H6 H 1.4538 0.2345 0.7546
C11 C 1.4485(3) 0.32552(12) 0.6439(3)
H7 H 1.5332 0.3390 0.6876
C12 C 1.3700(3) 0.36737(12) 0.5469(3)
H8 H 1.3992 0.4109 0.5280
C13 C 1.2465(2) 0.34743(11) 0.4742(3)
C14 C 1.1607(3) 0.39310(11) 0.3858(3)
H9 H 1.1904 0.4364 0.3651
C15 C 1.0376(3) 0.37575(11) 0.3309(3)
H10 H 0.9794 0.4080 0.2809
C16 C 0.9937(2) 0.30941(10) 0.3472(3)
C17 C 0.8613(2) 0.29064(11) 0.2977(3)
C18 C 0.7568(2) 0.34082(11) 0.2590(3)
C19 C 0.7418(3) 0.39327(12) 0.3691(3)
H11 H 0.8034 0.3994 0.4644
C20 C 0.6389(3) 0.43634(11) 0.3414(3)
H12 H 0.6279 0.4716 0.4176
C21 C 0.5522(2) 0.42706(10) 0.2004(3)
C22 C 0.5657(2) 0.37667(11) 0.0871(3)
H13 H 0.5057 0.3719 -0.0103
C23 C 0.6680(2) 0.33321(11) 0.1179(3)
H14 H 0.6777 0.2978 0.0419
loop_
_geom_bond_atom_site_label_1
_geom_bond_atom_site_label_2
_geom_bond_site_symmetry_1
_geom_bond_site_symmetry_2
O1 N2 1_555 1_555
O2 N2 1_555 1_555
N1 C1 1_555 1_555
N2 C21 1_555 1_555
C1 C2 1_555 1_555
C2 H1 1_555 1_555
C3 C2 1_555 1_555
H2 C3 1_555 1_555
C4 C3 1_555 1_555
H3 C4 1_555 1_555
C5 C4 1_555 1_555
H4 C5 1_555 1_555
C6 C1 1_555 1_555
C7 C6 1_555 1_555
C8 C7 1_555 1_555
C9 C8 1_555 1_555
H5 C9 1_555 1_555
C10 C9 1_555 1_555
H6 C10 1_555 1_555
C11 C10 1_555 1_555
H7 C11 1_555 1_555
C12 C11 1_555 1_555
H8 C12 1_555 1_555
C13 C8 1_555 1_555
C14 C13 1_555 1_555
H9 C14 1_555 1_555
C15 C14 1_555 1_555
H10 C15 1_555 1_555
C16 C7 1_555 1_555
C17 N1 1_555 1_555
C18 C17 1_555 1_555
C19 C18 1_555 1_555
H11 C19 1_555 1_555
C20 C19 1_555 1_555
H12 C20 1_555 1_555
C21 C20 1_555 1_555
C22 C21 1_555 1_555
H13 C22 1_555 1_555
C23 C18 1_555 1_555
H14 C23 1_555 1_555
C5 C6 1_555 1_555
C12 C13 1_555 1_555
C15 C16 1_555 1_555
C16 C17 1_555 1_555
C22 C23 1_555 1_555

#END
