
#######################################################################
#
#                 Cambridge Crystallographic Data Centre
#                                CCDC 
#
#######################################################################
#
# If this CIF has been generated from an entry in the Cambridge 
# Structural Database, then it will include bibliographic, chemical, 
# crystal, experimental, refinement or atomic coordinate data resulting 
# from the CCDC's data processing and validation procedures.
#
#######################################################################

data_BEVLIA
_chemical_formula_moiety         'C27 H24 Br1 N1 O5'
_chemical_name_systematic        
'dimethyl 2-(4-bromobenzylidene)-4-(diphenylcarbamoyl)pentanedioate'
_symmetry_cell_setting           monoclinic
_symmetry_space_group_name_H-M   'P 21/n'
_symmetry_Int_Tables_number      14
_space_group_name_Hall           '-P 2yn'
loop_
_symmetry_equiv_pos_site_id
_symmetry_equiv_pos_as_xyz
1 x,y,z
2 1/2-x,1/2+y,1/2-z
3 -x,-y,-z
4 1/2+x,1/2-y,1/2+z
_cell_length_a                   15.264(5)
_cell_length_b                   10.026(3)
_cell_length_c                   17.484(6)
_cell_angle_alpha                90
_cell_angle_beta                 110.483(6)
_cell_angle_gamma                90
_cell_volume                     2506.53
_exptl_crystal_description       schistose
_cell_formula_units_Z            4
loop_
_atom_site_label
_atom_site_type_symbol
_atom_site_fract_x
_atom_site_fract_y
_atom_site_fract_z
O1 O 0.5822(2) 0.6429(3) 0.27429(18)
N1 N 0.5306(2) 0.7278(3) 0.1470(2)
O2 O 0.4608(2) 0.4046(3) 0.1694(2)
O3 O 0.2503(2) 0.9688(4) 0.1254(2)
O4 O 0.2271(2) 0.7496(4) 0.1220(2)
C1 C 0.6148(3) 1.0587(5) 0.4832(3)
C2 C 0.4594(3) 0.7485(4) 0.0681(2)
C3 C 0.5178(3) 0.6625(4) 0.2104(3)
C4 C 0.6227(3) 0.7772(4) 0.1569(3)
C5 C 0.6628(4) 0.8776(5) 0.2120(3)
H1 H 0.6306 0.9143 0.2433
C6 C 0.4200(3) 0.6156(4) 0.2023(3)
H2 H 0.3781 0.6299 0.1459
C7 C 0.3562(3) 0.8377(4) 0.2304(3)
C8 C 0.2725(3) 0.8439(5) 0.1545(3)
C9 C 0.3625(4) 0.8980(5) -0.0315(3)
H3 H 0.3428 0.9844 -0.0483
C10 C 0.3950(3) 0.9507(5) 0.2669(3)
H4 H 0.3664 1.0267 0.2386
C11 C 0.4733(3) 0.9806(5) 0.3421(3)
C12 C 0.4308(3) 0.8761(4) 0.0434(3)
H5 H 0.4576 0.9478 0.0773
C13 C 0.5410(3) 1.1438(5) 0.4474(3)
H6 H 0.5383 1.2267 0.4703
C14 C 0.3827(3) 0.6959(4) 0.2601(3)
H7 H 0.3283 0.6509 0.2644
H8 H 0.4303 0.6984 0.3142
C15 C 0.4217(3) 0.6433(5) 0.0178(3)
H9 H 0.4425 0.5570 0.0338
C16 C 0.6183(3) 0.9357(5) 0.4500(3)
H10 H 0.6682 0.8787 0.4750
C17 C 0.7984(4) 0.8719(6) 0.1754(4)
H11 H 0.8576 0.9037 0.1814
C18 C 0.5484(3) 0.8972(5) 0.3798(3)
H12 H 0.5514 0.8140 0.3572
C19 C 0.6698(3) 0.7257(5) 0.1105(3)
H13 H 0.6425 0.6598 0.0721
C20 C 0.4720(3) 1.1037(4) 0.3777(3)
H14 H 0.4222 1.1612 0.3530
C21 C 0.4263(3) 0.4675(5) 0.2200(3)
C22 C 0.3528(4) 0.6657(6) -0.0571(3)
H15 H 0.3261 0.5940 -0.0911
C23 C 0.3235(4) 0.7920(6) -0.0814(3)
H16 H 0.2770 0.8065 -0.1318
C24 C 0.1666(4) 0.9796(7) 0.0543(4)
H17 H 0.1741 0.9291 0.0103
H18 H 0.1556 1.0715 0.0385
H19 H 0.1144 0.9452 0.0667
C25 C 0.7590(4) 0.7720(6) 0.1208(4)
H20 H 0.7922 0.7350 0.0904
C26 C 0.4677(4) 0.2603(5) 0.1742(4)
H21 H 0.4939 0.2282 0.1352
H22 H 0.4065 0.2227 0.1626
H23 H 0.5072 0.2346 0.2282
O5 O 0.4008(3) 0.4115(4) 0.2685(3)
C27 C 0.7514(4) 0.9238(5) 0.2204(3)
H24 H 0.7784 0.9914 0.2575
Br1 Br 0.71213(4) 1.11353(6) 0.57942(3)
loop_
_geom_bond_atom_site_label_1
_geom_bond_atom_site_label_2
_geom_bond_site_symmetry_1
_geom_bond_site_symmetry_2
O1 C3 1_555 1_555
N1 C2 1_555 1_555
O2 C21 1_555 1_555
O3 C8 1_555 1_555
O4 C8 1_555 1_555
C1 C13 1_555 1_555
C2 C12 1_555 1_555
C3 N1 1_555 1_555
C4 N1 1_555 1_555
C5 C4 1_555 1_555
H1 C5 1_555 1_555
C6 C3 1_555 1_555
H2 C6 1_555 1_555
C7 C8 1_555 1_555
C9 H3 1_555 1_555
C10 C7 1_555 1_555
H4 C10 1_555 1_555
C11 C10 1_555 1_555
C12 C9 1_555 1_555
H5 C12 1_555 1_555
C13 H6 1_555 1_555
C14 C6 1_555 1_555
H7 C14 1_555 1_555
H8 C14 1_555 1_555
C15 C2 1_555 1_555
H9 C15 1_555 1_555
C16 C1 1_555 1_555
H10 C16 1_555 1_555
C17 H11 1_555 1_555
C18 C11 1_555 1_555
H12 C18 1_555 1_555
C19 C4 1_555 1_555
H13 C19 1_555 1_555
C20 C11 1_555 1_555
H14 C20 1_555 1_555
C21 C6 1_555 1_555
C22 C15 1_555 1_555
H15 C22 1_555 1_555
C23 C9 1_555 1_555
H16 C23 1_555 1_555
C24 O3 1_555 1_555
H17 C24 1_555 1_555
H18 C24 1_555 1_555
H19 C24 1_555 1_555
C25 C17 1_555 1_555
H20 C25 1_555 1_555
C26 O2 1_555 1_555
H21 C26 1_555 1_555
H22 C26 1_555 1_555
H23 C26 1_555 1_555
O5 C21 1_555 1_555
C27 C5 1_555 1_555
H24 C27 1_555 1_555
Br1 C1 1_555 1_555
C7 C14 1_555 1_555
C13 C20 1_555 1_555
C16 C18 1_555 1_555
C17 C27 1_555 1_555
C19 C25 1_555 1_555
C22 C23 1_555 1_555

#END
