
#######################################################################
#
#                 Cambridge Crystallographic Data Centre
#                                CCDC 
#
#######################################################################
#
# If this CIF has been generated from an entry in the Cambridge 
# Structural Database, then it will include bibliographic, chemical, 
# crystal, experimental, refinement or atomic coordinate data resulting 
# from the CCDC's data processing and validation procedures.
#
#######################################################################

data_BEVMUN
_chemical_formula_moiety         'C36 H40 B1 N1'
_chemical_name_systematic        
1-benzyl-3-benzylidene-2-[2,4,6-tris(propan-2-yl)phenyl]-2,3-dihydro-1H-1,2-benzazaborole
_symmetry_cell_setting           triclinic
_symmetry_space_group_name_H-M   'P -1'
_symmetry_Int_Tables_number      2
_space_group_name_Hall           '-P 1'
loop_
_symmetry_equiv_pos_site_id
_symmetry_equiv_pos_as_xyz
1 x,y,z
2 -x,-y,-z
_cell_length_a                   10.5135(5)
_cell_length_b                   11.0876(6)
_cell_length_c                   14.3976(9)
_cell_angle_alpha                76.243(2)
_cell_angle_beta                 85.228(2)
_cell_angle_gamma                64.362(2)
_cell_volume                     1469.31
_exptl_crystal_colour            yellow
_exptl_crystal_description       Block
_cell_formula_units_Z            2
loop_
_atom_site_label
_atom_site_type_symbol
_atom_site_fract_x
_atom_site_fract_y
_atom_site_fract_z
B1 B 0.2445(2) 0.5905(2) 0.78281(15)
N1 N 0.12563(16) 0.56438(15) 0.81473(12)
C1 C 0.3752(2) 0.4477(2) 0.80371(14)
C2 C 0.3182(2) 0.35064(19) 0.85554(14)
C3 C 0.3799(2) 0.2135(2) 0.90380(16)
H1 H 0.4794 0.1624 0.9037
C4 C 0.2967(3) 0.1513(2) 0.95188(17)
H2 H 0.3399 0.0577 0.9848
C5 C 0.1522(3) 0.2231(2) 0.95274(17)
H3 H 0.0967 0.1779 0.9849
C6 C 0.0866(2) 0.3611(2) 0.90691(16)
H4 H -0.0130 0.4111 0.9075
C7 C 0.1704(2) 0.4234(2) 0.86046(14)
C8 C -0.0223(2) 0.6604(2) 0.81108(17)
H5 H -0.0293 0.7549 0.7907
H6 H -0.0599 0.6501 0.8764
C9 C -0.1144(2) 0.6430(2) 0.74447(16)
C10 C -0.0597(2) 0.5690(2) 0.67423(16)
H7 H 0.0397 0.5225 0.6690
C11 C -0.1480(2) 0.5620(2) 0.61131(17)
H8 H -0.1089 0.5107 0.5635
C12 C -0.2927(2) 0.6293(2) 0.61812(19)
H9 H -0.3532 0.6258 0.5743
C13 C -0.3488(2) 0.7011(2) 0.6883(2)
H10 H -0.4483 0.7464 0.6936
C14 C -0.2606(2) 0.7082(2) 0.75195(19)
H11 H -0.3003 0.7577 0.8006
C15 C 0.24563(19) 0.73341(19) 0.73599(13)
C16 C 0.23435(19) 0.78433(19) 0.63661(14)
C17 C 0.24970(19) 0.90506(19) 0.59739(14)
H12 H 0.2422 0.9384 0.5300
C18 C 0.27559(19) 0.97773(19) 0.65376(14)
C19 C 0.2849(2) 0.92775(19) 0.75251(14)
H13 H 0.3011 0.9770 0.7924
C20 C 0.27104(19) 0.80722(19) 0.79416(14)
C21 C 0.2852(2) 0.7545(2) 0.90235(14)
H14 H 0.2632 0.6728 0.9184
C22 C 0.1794(3) 0.8617(3) 0.95402(17)
H15 H 0.0837 0.8904 0.9302
H16 H 0.2011 0.9415 0.9421
H17 H 0.1857 0.8218 1.0229
C23 C 0.4356(3) 0.7074(3) 0.93770(18)
H18 H 0.5009 0.6362 0.9056
H19 H 0.4424 0.6700 1.0069
H20 H 0.4601 0.7856 0.9233
C24 C 0.2067(2) 0.7087(2) 0.57096(14)
H21 H 0.1997 0.6256 0.6123
C25 C 0.0670(3) 0.7955(2) 0.51598(18)
H22 H -0.0095 0.8238 0.5612
H23 H 0.0496 0.7415 0.4779
H24 H 0.0710 0.8772 0.4735
C26 C 0.3282(3) 0.6591(3) 0.50356(19)
H25 H 0.4151 0.5969 0.5410
H26 H 0.3405 0.7381 0.4635
H27 H 0.3073 0.6104 0.4628
C27 C 0.3018(2) 1.1033(2) 0.60811(14)
H28 H 0.2740 1.1298 0.5389
C28 C 0.2161(2) 1.2270(2) 0.65100(17)
H29 H 0.1154 1.2506 0.6454
H30 H 0.2347 1.3051 0.6166
H31 H 0.2431 1.2049 0.7186
C29 C 0.4595(2) 1.0669(2) 0.61391(18)
H32 H 0.4764 1.1467 0.5812
H33 H 0.5131 0.9902 0.5831
H34 H 0.4900 1.0405 0.6811
C30 C 0.5058(2) 0.4301(2) 0.77400(14)
H35 H 0.5152 0.5132 0.7497
C31 C 0.6363(2) 0.3056(2) 0.77241(14)
C32 C 0.6358(2) 0.1879(2) 0.75439(17)
H36 H 0.5482 0.1850 0.7473
C33 C 0.7603(3) 0.0751(2) 0.74663(19)
H37 H 0.7578 -0.0038 0.7334
C34 C 0.8881(2) 0.0777(2) 0.75813(17)
H38 H 0.9738 -0.0001 0.7540
C35 C 0.8910(2) 0.1939(2) 0.77564(16)
H39 H 0.9790 0.1954 0.7840
C36 C 0.7671(2) 0.3077(2) 0.78111(15)
H40 H 0.7705 0.3881 0.7908
loop_
_geom_bond_atom_site_label_1
_geom_bond_atom_site_label_2
_geom_bond_site_symmetry_1
_geom_bond_site_symmetry_2
B1 N1 1_555 1_555
N1 C7 1_555 1_555
C1 B1 1_555 1_555
C2 C1 1_555 1_555
C3 C2 1_555 1_555
H1 C3 1_555 1_555
C4 C3 1_555 1_555
H2 C4 1_555 1_555
C5 C4 1_555 1_555
H3 C5 1_555 1_555
C6 C5 1_555 1_555
H4 C6 1_555 1_555
C7 C2 1_555 1_555
C8 N1 1_555 1_555
H5 C8 1_555 1_555
H6 C8 1_555 1_555
C9 C8 1_555 1_555
C10 C9 1_555 1_555
H7 C10 1_555 1_555
C11 C10 1_555 1_555
H8 C11 1_555 1_555
C12 C11 1_555 1_555
H9 C12 1_555 1_555
C13 C12 1_555 1_555
H10 C13 1_555 1_555
C14 C9 1_555 1_555
H11 C14 1_555 1_555
C15 B1 1_555 1_555
C16 C15 1_555 1_555
C17 C16 1_555 1_555
H12 C17 1_555 1_555
C18 C17 1_555 1_555
C19 C18 1_555 1_555
H13 C19 1_555 1_555
C20 C15 1_555 1_555
C21 C20 1_555 1_555
H14 C21 1_555 1_555
C22 C21 1_555 1_555
H15 C22 1_555 1_555
H16 C22 1_555 1_555
H17 C22 1_555 1_555
C23 C21 1_555 1_555
H18 C23 1_555 1_555
H19 C23 1_555 1_555
H20 C23 1_555 1_555
C24 C16 1_555 1_555
H21 C24 1_555 1_555
C25 C24 1_555 1_555
H22 C25 1_555 1_555
H23 C25 1_555 1_555
H24 C25 1_555 1_555
C26 C24 1_555 1_555
H25 C26 1_555 1_555
H26 C26 1_555 1_555
H27 C26 1_555 1_555
C27 C18 1_555 1_555
H28 C27 1_555 1_555
C28 C27 1_555 1_555
H29 C28 1_555 1_555
H30 C28 1_555 1_555
H31 C28 1_555 1_555
C29 C27 1_555 1_555
H32 C29 1_555 1_555
H33 C29 1_555 1_555
H34 C29 1_555 1_555
C30 C1 1_555 1_555
H35 C30 1_555 1_555
C31 C30 1_555 1_555
C32 C31 1_555 1_555
H36 C32 1_555 1_555
C33 C32 1_555 1_555
H37 C33 1_555 1_555
C34 C33 1_555 1_555
H38 C34 1_555 1_555
C35 C34 1_555 1_555
H39 C35 1_555 1_555
C36 C31 1_555 1_555
H40 C36 1_555 1_555
C6 C7 1_555 1_555
C13 C14 1_555 1_555
C19 C20 1_555 1_555
C35 C36 1_555 1_555

#END
