
#######################################################################
#
#                 Cambridge Crystallographic Data Centre
#                                CCDC 
#
#######################################################################
#
# If this CIF has been generated from an entry in the Cambridge 
# Structural Database, then it will include bibliographic, chemical, 
# crystal, experimental, refinement or atomic coordinate data resulting 
# from the CCDC's data processing and validation procedures.
#
#######################################################################

data_BEVPAV
_chemical_formula_moiety         'C24 H22 Br1 N5 O4'
_chemical_name_systematic        
1-Allyl-2-(3-(4-bromophenyl)-2-(2,4-dinitrobenzenecarbohydrazonoyl)cyclobutyl)-1H-pyrrole
_symmetry_cell_setting           orthorhombic
_symmetry_space_group_name_H-M   'P 21 21 21'
_symmetry_Int_Tables_number      19
_space_group_name_Hall           'P 2ac 2ab'
loop_
_symmetry_equiv_pos_site_id
_symmetry_equiv_pos_as_xyz
1 x,y,z
2 1/2-x,-y,1/2+z
3 1/2+x,1/2-y,-z
4 -x,1/2+y,1/2-z
_cell_length_a                   5.6126(3)
_cell_length_b                   16.8138(9)
_cell_length_c                   25.1126(10)
_cell_angle_alpha                90
_cell_angle_beta                 90
_cell_angle_gamma                90
_cell_volume                     2369.85
_exptl_crystal_colour            colorless
_exptl_crystal_description       block
_cell_formula_units_Z            4
loop_
_atom_site_label
_atom_site_type_symbol
_atom_site_fract_x
_atom_site_fract_y
_atom_site_fract_z
N1 N -0.0320(12) 0.2756(3) 0.3860(2)
H1 H 0.0663 0.2765 0.4122
C1 C 0.4769(14) 0.3920(4) 0.2181(3)
C2 C -0.4600(15) 0.1172(4) 0.4246(3)
H2 H -0.4929 0.0829 0.4527
C3 C -0.3642(13) 0.2171(4) 0.3394(3)
H3 H -0.3347 0.2500 0.3104
N2 N -0.0067(11) 0.3282(3) 0.3432(2)
C4 C 0.4624(13) 0.4281(4) 0.2721(3)
H4 H 0.5868 0.4053 0.2949
N3 N -0.1394(14) 0.1719(4) 0.4770(3)
C5 C -0.2164(13) 0.2229(4) 0.3850(3)
C6 C 0.1767(15) 0.3723(4) 0.3451(3)
H5 H 0.2834 0.3664 0.3732
C7 C -0.5470(15) 0.1648(4) 0.3370(3)
H6 H -0.6416 0.1621 0.3067
C8 C -0.5926(13) 0.1157(4) 0.3798(3)
C9 C 0.5194(17) 0.3323(5) 0.1165(3)
O1 O 0.0518(12) 0.2082(4) 0.4786(2)
C10 C 0.0409(16) 0.6339(4) 0.2848(3)
H7 H 0.1000 0.6363 0.2503
C11 C 0.6629(14) 0.3413(4) 0.2041(3)
H8 H 0.7753 0.3274 0.2297
C12 C 0.6841(15) 0.3110(5) 0.1529(3)
H9 H 0.8084 0.2770 0.1439
C13 C 0.4737(15) 0.5212(4) 0.2751(3)
H10 H 0.6294 0.5418 0.2847
H11 H 0.4119 0.5477 0.2437
N4 N -0.7891(15) 0.0591(4) 0.3757(4)
O2 O -0.2200(12) 0.1361(4) 0.5158(2)
O3 O -0.9064(14) 0.0590(5) 0.3353(4)
C14 C 0.2247(13) 0.4328(4) 0.3037(3)
H12 H 0.0901 0.4356 0.2789
C15 C -0.2735(14) 0.1711(4) 0.4278(3)
C16 C 0.1139(14) 0.5830(4) 0.3244(3)
C17 C 0.3268(17) 0.3819(5) 0.1280(3)
H13 H 0.2151 0.3947 0.1020
C18 C 0.2957(13) 0.5185(4) 0.3222(3)
H14 H 0.3825 0.5158 0.3560
O4 O -0.8361(14) 0.0176(5) 0.4138(3)
C19 C 0.3077(15) 0.4112(5) 0.1789(3)
H15 H 0.1808 0.4444 0.1875
Br1 Br 0.5459(3) 0.28963(7) 0.04599(4)
C20 C -0.1764(19) 0.6592(6) 0.3576(5)
H16 H -0.2879 0.6805 0.3810
C21 C -0.1399(18) 0.6815(5) 0.3065(5)
H17 H -0.2211 0.7217 0.2887
N5 N -0.0177(15) 0.5993(4) 0.3683(3)
C22 C 0.014(2) 0.5620(8) 0.4212(5)
H18 H 0.0157 0.6026 0.4486
H19 H 0.1641 0.5336 0.4224
C23 C -0.186(3) 0.5058(10) 0.4310(6)
H20 H -0.2008 0.4608 0.4097
C24 C -0.337(3) 0.5181(11) 0.4678(7)
H21 H -0.3242 0.5630 0.4893
H22 H -0.4610 0.4822 0.4733
loop_
_geom_bond_atom_site_label_1
_geom_bond_atom_site_label_2
_geom_bond_site_symmetry_1
_geom_bond_site_symmetry_2
N1 H1 1_555 1_555
C1 C4 1_555 1_555
C2 H2 1_555 1_555
C3 H3 1_555 1_555
N2 N1 1_555 1_555
C4 H4 1_555 1_555
N3 O1 1_555 1_555
C5 N1 1_555 1_555
C6 N2 1_555 1_555
H5 C6 1_555 1_555
C7 C3 1_555 1_555
H6 C7 1_555 1_555
C8 C2 1_555 1_555
C9 C12 1_555 1_555
C10 H7 1_555 1_555
C11 C1 1_555 1_555
H8 C11 1_555 1_555
C12 C11 1_555 1_555
H9 C12 1_555 1_555
C13 C4 1_555 1_555
H10 C13 1_555 1_555
H11 C13 1_555 1_555
N4 C8 1_555 1_555
O2 N3 1_555 1_555
O3 N4 1_555 1_555
C14 C4 1_555 1_555
H12 C14 1_555 1_555
C15 C2 1_555 1_555
C16 C10 1_555 1_555
C17 C9 1_555 1_555
H13 C17 1_555 1_555
C18 C13 1_555 1_555
H14 C18 1_555 1_555
O4 N4 1_555 1_555
C19 C1 1_555 1_555
H15 C19 1_555 1_555
Br1 C9 1_555 1_555
C20 H16 1_555 1_555
C21 C10 1_555 1_555
H17 C21 1_555 1_555
N5 C16 1_555 1_555
C22 N5 1_555 1_555
H18 C22 1_555 1_555
H19 C22 1_555 1_555
C23 C22 1_555 1_555
H20 C23 1_555 1_555
C24 C23 1_555 1_555
H21 C24 1_555 1_555
H22 C24 1_555 1_555
C3 C5 1_555 1_555
N3 C15 1_555 1_555
C5 C15 1_555 1_555
C6 C14 1_555 1_555
C7 C8 1_555 1_555
C14 C18 1_555 1_555
C16 C18 1_555 1_555
C17 C19 1_555 1_555
C20 C21 1_555 1_555
C20 N5 1_555 1_555

#END
