
#######################################################################
#
#                 Cambridge Crystallographic Data Centre
#                                CCDC 
#
#######################################################################
#
# If this CIF has been generated from an entry in the Cambridge 
# Structural Database, then it will include bibliographic, chemical, 
# crystal, experimental, refinement or atomic coordinate data resulting 
# from the CCDC's data processing and validation procedures.
#
#######################################################################

data_BEVQUQ
_chemical_formula_moiety         'C33 H24 N2'
_chemical_name_systematic        
2-(4-(Diphenylamino)phenyl)-3,3-diphenylacrylonitrile
_symmetry_cell_setting           monoclinic
_symmetry_space_group_name_H-M   'P 21/c'
_symmetry_Int_Tables_number      14
_space_group_name_Hall           '-P 2ybc'
loop_
_symmetry_equiv_pos_site_id
_symmetry_equiv_pos_as_xyz
1 x,y,z
2 -x,1/2+y,1/2-z
3 -x,-y,-z
4 x,1/2-y,1/2+z
_cell_length_a                   12.057(9)
_cell_length_b                   10.242(7)
_cell_length_c                   21.011(15)
_cell_angle_alpha                90
_cell_angle_beta                 103.453(9)
_cell_angle_gamma                90
_cell_volume                     2523.41
_cell_formula_units_Z            4
loop_
_atom_site_label
_atom_site_type_symbol
_atom_site_fract_x
_atom_site_fract_y
_atom_site_fract_z
C1 C -0.02531(11) 0.26111(12) 0.01186(6)
N1 N 0.53466(10) 0.28813(11) 0.13580(6)
C2 C 0.42041(11) 0.27354(13) 0.09969(6)
C3 C -0.01881(11) 0.30448(14) 0.08053(6)
C4 C -0.14263(11) 0.25397(13) -0.03116(6)
C5 C 0.07030(11) 0.22604(13) -0.00770(6)
C6 C 0.54371(12) 0.08429(15) 0.19725(7)
H1 H 0.4658 0.0894 0.1946
C7 C 0.22857(11) 0.35838(13) 0.06358(6)
H2 H 0.1772 0.4263 0.0632
C8 C 0.59735(11) 0.18117(13) 0.16888(6)
C9 C 0.27147(12) 0.14561(13) 0.03081(7)
H3 H 0.2491 0.0688 0.0077
C10 C 0.58803(11) 0.41354(13) 0.13946(7)
C11 C 0.34111(11) 0.37350(13) 0.09757(6)
H4 H 0.3640 0.4515 0.1193
C12 C 0.19097(11) 0.24360(13) 0.03006(6)
C13 C -0.23397(13) 0.21562(15) -0.00466(8)
H5 H -0.2207 0.1946 0.0395
C14 C 0.38400(12) 0.15947(14) 0.06503(7)
H6 H 0.4356 0.0920 0.0648
C15 C -0.16633(13) 0.28707(14) -0.09715(7)
H7 H -0.1077 0.3152 -0.1158
C16 C -0.06598(13) 0.42295(15) 0.09284(7)
H8 H -0.0991 0.4770 0.0581
C17 C 0.59163(13) 0.47963(15) 0.08257(8)
H9 H 0.5618 0.4410 0.0422
C18 C 0.60568(13) -0.01937(15) 0.22932(8)
H10 H 0.5687 -0.0843 0.2474
C19 C 0.71409(12) 0.17190(15) 0.17418(7)
H11 H 0.7514 0.2356 0.1555
C20 C 0.06103(12) 0.16300(16) -0.06999(8)
C21 C 0.02830(13) 0.22393(16) 0.13278(7)
H12 H 0.0605 0.1444 0.1256
C22 C 0.63654(12) 0.47023(16) 0.19908(8)
H13 H 0.6373 0.4256 0.2377
C23 C -0.27678(15) 0.27858(17) -0.13553(8)
H14 H -0.2911 0.2999 -0.1797
C24 C -0.34399(13) 0.20862(17) -0.04350(9)
H15 H -0.4037 0.1832 -0.0251
C25 C 0.68472(14) 0.66052(17) 0.14446(10)
H16 H 0.7157 0.7439 0.1462
C26 C -0.36517(14) 0.23898(17) -0.10889(10)
H17 H -0.4387 0.2328 -0.1350
C27 C 0.63937(14) 0.60290(16) 0.08545(9)
H18 H 0.6406 0.6470 0.0469
C28 C 0.02715(14) 0.2628(2) 0.19626(8)
H19 H 0.0579 0.2085 0.2314
C29 C 0.68405(14) 0.59396(17) 0.20120(9)
H20 H 0.7158 0.6323 0.2414
C30 C -0.01923(15) 0.3812(2) 0.20719(8)
H21 H -0.0198 0.4066 0.2496
C31 C 0.72112(14) -0.02778(16) 0.23480(8)
H22 H 0.7625 -0.0974 0.2569
C32 C 0.77504(13) 0.06784(17) 0.20725(9)
H23 H 0.8533 0.0626 0.2108
C33 C -0.06434(14) 0.4613(2) 0.15589(8)
H24 H -0.0941 0.5421 0.1635
N2 N 0.05940(14) 0.11108(19) -0.11837(8)
loop_
_geom_bond_atom_site_label_1
_geom_bond_atom_site_label_2
_geom_bond_site_symmetry_1
_geom_bond_site_symmetry_2
C1 C3 1_555 1_555
N1 C2 1_555 1_555
C2 C11 1_555 1_555
C3 C16 1_555 1_555
C4 C1 1_555 1_555
C5 C1 1_555 1_555
C6 H1 1_555 1_555
C7 H2 1_555 1_555
C8 N1 1_555 1_555
C9 H3 1_555 1_555
C10 N1 1_555 1_555
C11 C7 1_555 1_555
H4 C11 1_555 1_555
C12 C5 1_555 1_555
C13 C4 1_555 1_555
H5 C13 1_555 1_555
C14 C2 1_555 1_555
H6 C14 1_555 1_555
C15 C4 1_555 1_555
H7 C15 1_555 1_555
C16 H8 1_555 1_555
C17 C10 1_555 1_555
H9 C17 1_555 1_555
C18 C6 1_555 1_555
H10 C18 1_555 1_555
C19 C8 1_555 1_555
H11 C19 1_555 1_555
C20 C5 1_555 1_555
C21 C3 1_555 1_555
H12 C21 1_555 1_555
C22 C10 1_555 1_555
H13 C22 1_555 1_555
C23 C15 1_555 1_555
H14 C23 1_555 1_555
C24 C13 1_555 1_555
H15 C24 1_555 1_555
C25 H16 1_555 1_555
C26 C23 1_555 1_555
H17 C26 1_555 1_555
C27 C17 1_555 1_555
H18 C27 1_555 1_555
C28 C21 1_555 1_555
H19 C28 1_555 1_555
C29 C22 1_555 1_555
H20 C29 1_555 1_555
C30 C28 1_555 1_555
H21 C30 1_555 1_555
C31 C18 1_555 1_555
H22 C31 1_555 1_555
C32 C19 1_555 1_555
H23 C32 1_555 1_555
C33 C16 1_555 1_555
H24 C33 1_555 1_555
N2 C20 1_555 1_555
C6 C8 1_555 1_555
C7 C12 1_555 1_555
C9 C12 1_555 1_555
C9 C14 1_555 1_555
C24 C26 1_555 1_555
C25 C27 1_555 1_555
C25 C29 1_555 1_555
C30 C33 1_555 1_555
C31 C32 1_555 1_555

#END
