
#######################################################################
#
#                 Cambridge Crystallographic Data Centre
#                                CCDC 
#
#######################################################################
#
# If this CIF has been generated from an entry in the Cambridge 
# Structural Database, then it will include bibliographic, chemical, 
# crystal, experimental, refinement or atomic coordinate data resulting 
# from the CCDC's data processing and validation procedures.
#
#######################################################################

data_BEVQIE
_chemical_formula_moiety         'C37 H26 N2'
_chemical_name_systematic        
2-(4-(1-Naphthyl(phenyl)amino)phenyl)-3,3-diphenylacrylonitrile
_symmetry_cell_setting           triclinic
_symmetry_space_group_name_H-M   'P -1'
_symmetry_Int_Tables_number      2
_space_group_name_Hall           '-P 1'
loop_
_symmetry_equiv_pos_site_id
_symmetry_equiv_pos_as_xyz
1 x,y,z
2 -x,-y,-z
_cell_length_a                   10.118(3)
_cell_length_b                   12.072(3)
_cell_length_c                   12.647(3)
_cell_angle_alpha                103.028(3)
_cell_angle_beta                 105.156(3)
_cell_angle_gamma                104.109(4)
_cell_volume                     1375.33
_cell_formula_units_Z            2
loop_
_atom_site_label
_atom_site_type_symbol
_atom_site_fract_x
_atom_site_fract_y
_atom_site_fract_z
N1 N 0.9393(3) 0.5357(2) 0.2772(2)
N2 N 0.5124(3) -0.0008(2) -0.1655(2)
C1 C 0.8511(3) 0.5875(2) 0.3284(2)
C2 C 0.7850(4) 0.5317(3) 0.3946(3)
H1 H 0.7985 0.4604 0.4035
C3 C 0.7008(4) 0.5793(3) 0.4470(3)
H2 H 0.6584 0.5414 0.4919
C4 C 0.6786(5) 0.6847(4) 0.4328(4)
H3 H 0.6208 0.7180 0.4674
C5 C 0.7433(5) 0.7385(3) 0.3670(4)
H4 H 0.7285 0.8091 0.3569
C6 C 0.8291(4) 0.6918(3) 0.3155(3)
H5 H 0.8726 0.7308 0.2717
C7 C 1.0661(4) 0.6109(2) 0.2616(3)
C8 C 1.0734(4) 0.6027(3) 0.1543(3)
H6 H 0.9937 0.5518 0.0912
C9 C 1.1921(4) 0.6656(3) 0.1341(3)
H7 H 1.1925 0.6565 0.0592
C10 C 1.3119(4) 0.7430(3) 0.2274(4)
H8 H 1.3941 0.7854 0.2159
C11 C 1.3063(3) 0.7564(3) 0.3423(3)
C12 C 1.4191(4) 0.8390(3) 0.4382(4)
H9 H 1.4984 0.8874 0.4277
C13 C 1.4154(5) 0.8501(4) 0.5452(4)
H10 H 1.4929 0.9039 0.6083
C14 C 1.2941(5) 0.7802(3) 0.5616(3)
H11 H 1.2939 0.7881 0.6364
C15 C 1.1785(4) 0.7025(3) 0.4737(3)
H12 H 1.0988 0.6587 0.4873
C16 C 1.1799(4) 0.6877(2) 0.3564(3)
C17 C 0.8869(3) 0.4123(2) 0.2128(2)
C18 C 0.7401(3) 0.3529(2) 0.1575(2)
H13 H 0.6743 0.3941 0.1626
C19 C 0.6913(3) 0.2328(2) 0.0948(2)
H14 H 0.5925 0.1944 0.0579
C20 C 0.7861(3) 0.1676(2) 0.0853(2)
C21 C 0.9331(3) 0.2295(2) 0.1394(2)
H15 H 0.9993 0.1890 0.1327
C22 C 0.9827(3) 0.3489(2) 0.2022(2)
H16 H 1.0816 0.3878 0.2381
C23 C 0.7289(3) 0.0382(2) 0.0155(2)
C24 C 0.6086(3) 0.0124(2) -0.0869(3)
C25 C 0.7759(3) -0.0515(2) 0.0412(2)
C26 C 0.7192(3) -0.1772(2) -0.0385(2)
C27 C 0.6951(3) -0.2041(3) -0.1554(3)
H17 H 0.7130 -0.1424 -0.1877
C28 C 0.6444(4) -0.3223(3) -0.2246(3)
H18 H 0.6265 -0.3392 -0.3034
C29 C 0.6204(4) -0.4138(3) -0.1795(4)
H19 H 0.5887 -0.4928 -0.2269
C30 C 0.6425(4) -0.3902(3) -0.0653(4)
H20 H 0.6240 -0.4531 -0.0346
C31 C 0.6927(3) -0.2728(3) 0.0058(3)
H21 H 0.7089 -0.2575 0.0844
C32 C 0.8872(3) -0.0306(2) 0.1536(2)
C33 C 1.0078(3) -0.0679(2) 0.1571(2)
H22 H 1.0179 -0.1071 0.0888
C34 C 1.1120(3) -0.0471(3) 0.2608(3)
H23 H 1.1929 -0.0710 0.2620
C35 C 1.0977(4) 0.0083(3) 0.3617(3)
H24 H 1.1687 0.0224 0.4314
C36 C 0.9778(4) 0.0433(3) 0.3601(3)
H25 H 0.9673 0.0800 0.4290
C37 C 0.8728(3) 0.0241(2) 0.2567(2)
H26 H 0.7921 0.0480 0.2564
loop_
_geom_bond_atom_site_label_1
_geom_bond_atom_site_label_2
_geom_bond_site_symmetry_1
_geom_bond_site_symmetry_2
N1 C1 1_555 1_555
N2 C24 1_555 1_555
C1 C2 1_555 1_555
C2 H1 1_555 1_555
C3 C2 1_555 1_555
H2 C3 1_555 1_555
C4 C3 1_555 1_555
H3 C4 1_555 1_555
C5 C4 1_555 1_555
H4 C5 1_555 1_555
C6 C1 1_555 1_555
H5 C6 1_555 1_555
C7 N1 1_555 1_555
C8 C7 1_555 1_555
H6 C8 1_555 1_555
C9 C8 1_555 1_555
H7 C9 1_555 1_555
C10 C9 1_555 1_555
H8 C10 1_555 1_555
C11 C10 1_555 1_555
C12 C11 1_555 1_555
H9 C12 1_555 1_555
C13 C12 1_555 1_555
H10 C13 1_555 1_555
C14 C13 1_555 1_555
H11 C14 1_555 1_555
C15 C14 1_555 1_555
H12 C15 1_555 1_555
C16 C7 1_555 1_555
C17 N1 1_555 1_555
C18 C17 1_555 1_555
H13 C18 1_555 1_555
C19 C18 1_555 1_555
H14 C19 1_555 1_555
C20 C19 1_555 1_555
C21 C20 1_555 1_555
H15 C21 1_555 1_555
C22 C17 1_555 1_555
H16 C22 1_555 1_555
C23 C20 1_555 1_555
C24 C23 1_555 1_555
C25 C23 1_555 1_555
C26 C25 1_555 1_555
C27 C26 1_555 1_555
H17 C27 1_555 1_555
C28 C27 1_555 1_555
H18 C28 1_555 1_555
C29 C28 1_555 1_555
H19 C29 1_555 1_555
C30 C29 1_555 1_555
H20 C30 1_555 1_555
C31 C26 1_555 1_555
H21 C31 1_555 1_555
C32 C25 1_555 1_555
C33 C32 1_555 1_555
H22 C33 1_555 1_555
C34 C33 1_555 1_555
H23 C34 1_555 1_555
C35 C34 1_555 1_555
H24 C35 1_555 1_555
C36 C35 1_555 1_555
H25 C36 1_555 1_555
C37 C32 1_555 1_555
H26 C37 1_555 1_555
C5 C6 1_555 1_555
C11 C16 1_555 1_555
C15 C16 1_555 1_555
C21 C22 1_555 1_555
C30 C31 1_555 1_555
C36 C37 1_555 1_555

#END
