
#######################################################################
#
#                 Cambridge Crystallographic Data Centre
#                                CCDC 
#
#######################################################################
#
# If this CIF has been generated from an entry in the Cambridge 
# Structural Database, then it will include bibliographic, chemical, 
# crystal, experimental, refinement or atomic coordinate data resulting 
# from the CCDC's data processing and validation procedures.
#
#######################################################################

data_BEVQOK
_chemical_formula_moiety         'C34 H26 N2'
_chemical_name_systematic        
2-(4-((4-Methylphenyl)(phenyl)amino)phenyl)-3,3-diphenylacrylonitrile
_symmetry_cell_setting           monoclinic
_symmetry_space_group_name_H-M   'C c'
_symmetry_Int_Tables_number      9
_space_group_name_Hall           'C -2yc'
loop_
_symmetry_equiv_pos_site_id
_symmetry_equiv_pos_as_xyz
1 x,y,z
2 x,-y,1/2+z
3 1/2+x,1/2+y,z
4 1/2+x,1/2-y,1/2+z
_cell_length_a                   14.165(3)
_cell_length_b                   13.763(3)
_cell_length_c                   13.176(3)
_cell_angle_alpha                90
_cell_angle_beta                 94.685(2)
_cell_angle_gamma                90
_cell_volume                     2560.12
_cell_formula_units_Z            4
loop_
_atom_site_label
_atom_site_type_symbol
_atom_site_fract_x
_atom_site_fract_y
_atom_site_fract_z
N1 N -0.10151(15) 0.01972(16) 0.42196(19)
C1 C 0.27622(17) 0.19729(18) 0.23696(19)
C2 C 0.26099(17) 0.11349(18) 0.2895(2)
C3 C 0.15931(18) 0.03591(19) 0.4139(2)
H1 H 0.2138 0.0199 0.4546
C4 C -0.01037(17) 0.03522(19) 0.3868(2)
C5 C 0.16768(17) 0.08088(17) 0.3204(2)
C6 C 0.3403(2) 0.05397(19) 0.3254(2)
C7 C 0.08524(18) 0.0952(2) 0.2574(2)
H2 H 0.0892 0.1196 0.1921
C8 C -0.12137(17) -0.06642(19) 0.47625(19)
C9 C 0.17923(19) 0.3199(2) 0.1341(2)
H3 H 0.2111 0.3038 0.0775
C10 C -0.00275(19) 0.0735(2) 0.2905(2)
H4 H -0.0572 0.0847 0.2478
C11 C 0.07197(19) 0.0146(2) 0.4474(2)
H5 H 0.0682 -0.0137 0.5110
C12 C -0.20588(19) -0.1515(2) 0.6001(2)
H6 H -0.2496 -0.1499 0.6491
C13 C -0.17326(17) 0.09119(19) 0.4003(2)
C14 C 0.08395(19) 0.3706(2) 0.3008(2)
H7 H 0.0515 0.3874 0.3569
C15 C 0.20313(17) 0.27447(17) 0.2265(2)
C16 C 0.15571(18) 0.30211(18) 0.3106(2)
H8 H 0.1725 0.2743 0.3739
C17 C -0.18472(18) -0.0666(2) 0.5507(2)
H9 H -0.2135 -0.0088 0.5678
C18 C 0.36655(17) 0.21582(18) 0.19084(19)
C19 C 0.0609(2) 0.4134(2) 0.2085(3)
H10 H 0.0127 0.4594 0.2020
C20 C -0.0779(2) -0.1538(2) 0.4551(2)
H11 H -0.0342 -0.1556 0.4061
C21 C 0.4926(2) 0.3244(2) 0.1537(2)
H12 H 0.5205 0.3855 0.1597
C22 C -0.26555(19) 0.0644(2) 0.3696(2)
H13 H -0.2810 -0.0010 0.3618
C23 C 0.1082(2) 0.3892(2) 0.1256(2)
H14 H 0.0925 0.4193 0.0633
C24 C -0.2213(3) 0.2586(2) 0.3890(2)
H15 H -0.2061 0.3242 0.3951
C25 C -0.0983(2) -0.2375(2) 0.5053(2)
H16 H -0.0677 -0.2948 0.4899
C26 C -0.16338(19) -0.2390(2) 0.5783(2)
C27 C 0.4953(2) 0.1611(2) 0.0950(2)
H17 H 0.5243 0.1122 0.0601
C28 C -0.1515(2) 0.1891(2) 0.4094(2)
H18 H -0.0898 0.2083 0.4292
N2 N 0.40007(19) 0.00694(19) 0.3631(2)
C29 C 0.40817(19) 0.30767(19) 0.1952(2)
H19 H 0.3784 0.3584 0.2266
C30 C 0.41088(19) 0.1426(2) 0.1383(2)
H20 H 0.3837 0.0811 0.1324
C31 C 0.5361(2) 0.2516(3) 0.1037(3)
H21 H 0.5931 0.2636 0.0756
C32 C -0.1850(3) -0.3320(2) 0.6328(3)
H22 H -0.1653 -0.3866 0.5944
H23 H -0.2518 -0.3361 0.6395
H24 H -0.1515 -0.3324 0.6992
C33 C -0.3125(3) 0.2316(3) 0.3599(3)
H25 H -0.3592 0.2785 0.3466
C34 C -0.3346(2) 0.1343(3) 0.3505(2)
H26 H -0.3965 0.1156 0.3311
loop_
_geom_bond_atom_site_label_1
_geom_bond_atom_site_label_2
_geom_bond_site_symmetry_1
_geom_bond_site_symmetry_2
N1 C4 1_555 1_555
C1 C2 1_555 1_555
C2 C5 1_555 1_555
C3 H1 1_555 1_555
C4 C10 1_555 1_555
C5 C3 1_555 1_555
C6 C2 1_555 1_555
C7 C5 1_555 1_555
H2 C7 1_555 1_555
C8 N1 1_555 1_555
C9 H3 1_555 1_555
C10 C7 1_555 1_555
H4 C10 1_555 1_555
C11 C3 1_555 1_555
H5 C11 1_555 1_555
C12 H6 1_555 1_555
C13 N1 1_555 1_555
C14 H7 1_555 1_555
C15 C1 1_555 1_555
C16 C14 1_555 1_555
H8 C16 1_555 1_555
C17 C8 1_555 1_555
H9 C17 1_555 1_555
C18 C1 1_555 1_555
C19 C14 1_555 1_555
H10 C19 1_555 1_555
C20 C8 1_555 1_555
H11 C20 1_555 1_555
C21 H12 1_555 1_555
C22 C13 1_555 1_555
H13 C22 1_555 1_555
C23 C9 1_555 1_555
H14 C23 1_555 1_555
C24 H15 1_555 1_555
C25 C20 1_555 1_555
H16 C25 1_555 1_555
C26 C12 1_555 1_555
C27 H17 1_555 1_555
C28 C13 1_555 1_555
H18 C28 1_555 1_555
N2 C6 1_555 1_555
C29 C18 1_555 1_555
H19 C29 1_555 1_555
C30 C18 1_555 1_555
H20 C30 1_555 1_555
C31 C21 1_555 1_555
H21 C31 1_555 1_555
C32 C26 1_555 1_555
H22 C32 1_555 1_555
H23 C32 1_555 1_555
H24 C32 1_555 1_555
C33 C24 1_555 1_555
H25 C33 1_555 1_555
C34 C22 1_555 1_555
H26 C34 1_555 1_555
C4 C11 1_555 1_555
C9 C15 1_555 1_555
C12 C17 1_555 1_555
C15 C16 1_555 1_555
C19 C23 1_555 1_555
C21 C29 1_555 1_555
C24 C28 1_555 1_555
C25 C26 1_555 1_555
C27 C30 1_555 1_555
C27 C31 1_555 1_555
C33 C34 1_555 1_555

#END
