
#######################################################################
#
#                 Cambridge Crystallographic Data Centre
#                                CCDC 
#
#######################################################################
#
# If this CIF has been generated from an entry in the Cambridge 
# Structural Database, then it will include bibliographic, chemical, 
# crystal, experimental, refinement or atomic coordinate data resulting 
# from the CCDC's data processing and validation procedures.
#
#######################################################################

data_BEVWEH
_chemical_formula_moiety         'C17 H23 N1 O2'
_chemical_name_systematic        
9a-methoxy-8-methyl-2,3,6,6a,9,9a-hexahydro-5H-1,9b-propanoindeno[7,1-bc]azepin-5-one
_symmetry_cell_setting           orthorhombic
_symmetry_space_group_name_H-M   'P 21 21 21'
_symmetry_Int_Tables_number      19
_space_group_name_Hall           'P 2ac 2ab'
loop_
_symmetry_equiv_pos_site_id
_symmetry_equiv_pos_as_xyz
1 x,y,z
2 1/2+x,1/2-y,-z
3 -x,1/2+y,1/2-z
4 1/2-x,-y,1/2+z
_cell_length_a                   10.1969(11)
_cell_length_b                   10.2083(12)
_cell_length_c                   13.8021(13)
_cell_angle_alpha                90
_cell_angle_beta                 90
_cell_angle_gamma                90
_cell_volume                     1436.7
_exptl_crystal_colour            brown
_exptl_crystal_description       block
_cell_formula_units_Z            4
loop_
_atom_site_label
_atom_site_type_symbol
_atom_site_fract_x
_atom_site_fract_y
_atom_site_fract_z
O1 O 0.8516(6) 0.6768(6) 0.0993(3)
O2 O 0.9877(6) 0.2967(7) -0.2044(3)
N1 N 0.7547(7) 0.4722(7) 0.1300(4)
C1 C 0.7730(10) 0.2353(10) 0.0653(6)
H1 H 0.8043 0.1500 0.0902
H2 H 0.6813 0.2224 0.0437
C2 C 0.7707(9) 0.3308(10) 0.1500(5)
H3 H 0.6986 0.3039 0.1937
H4 H 0.8536 0.3196 0.1864
C3 C 0.8678(9) 0.5357(8) 0.0857(5)
C4 C 0.9986(7) 0.4909(9) 0.1262(4)
H5 H 1.0052 0.3946 0.1192
H6 H 1.0015 0.5115 0.1963
C5 C 1.1158(8) 0.5539(9) 0.0770(5)
C6 C 1.2406(9) 0.5546(10) 0.1336(5)
H7 H 1.3126 0.5846 0.0921
H8 H 1.2594 0.4658 0.1568
H9 H 1.2318 0.6137 0.1892
C7 C 0.8527(9) 0.2679(10) -0.0220(5)
H10 H 0.8803 0.1938 -0.0583
C8 C 0.8926(7) 0.3833(9) -0.0586(5)
C9 C 0.8681(8) 0.5236(8) -0.0269(5)
C10 C 0.7373(8) 0.5721(9) -0.0683(5)
H11 H 0.7297 0.6676 -0.0571
H12 H 0.7361 0.5570 -0.1391
C11 C 0.6201(9) 0.5031(11) -0.0223(5)
H13 H 0.6193 0.4099 -0.0422
H14 H 0.5378 0.5441 -0.0453
C12 C 0.6276(8) 0.5125(11) 0.0896(5)
H15 H 0.6099 0.6041 0.1092
H16 H 0.5580 0.4568 0.1179
C13 C 0.8541(10) 0.7221(10) 0.1965(5)
H17 H 0.7995 0.6649 0.2369
H18 H 0.8200 0.8118 0.1992
H19 H 0.9445 0.7208 0.2206
C14 C 1.1043(8) 0.6002(9) -0.0129(5)
H20 H 1.1808 0.6370 -0.0412
C15 C 0.9830(8) 0.5997(9) -0.0733(5)
H21 H 0.9552 0.6920 -0.0864
C16 C 1.0065(9) 0.5288(9) -0.1695(5)
H22 H 0.9538 0.5687 -0.2220
H23 H 1.1004 0.5325 -0.1878
C17 C 0.9640(8) 0.3890(10) -0.1512(5)
loop_
_geom_bond_atom_site_label_1
_geom_bond_atom_site_label_2
_geom_bond_site_symmetry_1
_geom_bond_site_symmetry_2
O1 C3 1_555 1_555
O2 C17 1_555 1_555
N1 C2 1_555 1_555
C1 H1 1_555 1_555
H2 C1 1_555 1_555
C2 C1 1_555 1_555
H3 C2 1_555 1_555
H4 C2 1_555 1_555
C3 N1 1_555 1_555
C4 C3 1_555 1_555
H5 C4 1_555 1_555
H6 C4 1_555 1_555
C5 C4 1_555 1_555
C6 C5 1_555 1_555
H7 C6 1_555 1_555
H8 C6 1_555 1_555
H9 C6 1_555 1_555
C7 C1 1_555 1_555
H10 C7 1_555 1_555
C8 C7 1_555 1_555
C9 C3 1_555 1_555
C10 C9 1_555 1_555
H11 C10 1_555 1_555
H12 C10 1_555 1_555
C11 C10 1_555 1_555
H13 C11 1_555 1_555
H14 C11 1_555 1_555
C12 N1 1_555 1_555
H15 C12 1_555 1_555
H16 C12 1_555 1_555
C13 O1 1_555 1_555
H17 C13 1_555 1_555
H18 C13 1_555 1_555
H19 C13 1_555 1_555
C14 C5 1_555 1_555
H20 C14 1_555 1_555
C15 C9 1_555 1_555
H21 C15 1_555 1_555
C16 C15 1_555 1_555
H22 C16 1_555 1_555
H23 C16 1_555 1_555
C17 C8 1_555 1_555
C8 C9 1_555 1_555
C11 C12 1_555 1_555
C14 C15 1_555 1_555
C16 C17 1_555 1_555

#END
