
#######################################################################
#
#                 Cambridge Crystallographic Data Centre
#                                CCDC 
#
#######################################################################
#
# If this CIF has been generated from an entry in the Cambridge 
# Structural Database, then it will include bibliographic, chemical, 
# crystal, experimental, refinement or atomic coordinate data resulting 
# from the CCDC's data processing and validation procedures.
#
#######################################################################

data_BEVWIL
_chemical_formula_moiety         'C17 H21 N1 O5'
_chemical_name_systematic        
'methyl 2-hydroxy-8-oxo-1,2,6a,7,8,9,11,12-octahydro-4H,10H-2,9-methanocyclopenta[e][1,3]oxazolo[2,3-j]quinoline-5-carboxylate'
_symmetry_cell_setting           monoclinic
_symmetry_space_group_name_H-M   'P 21'
_symmetry_Int_Tables_number      4
_space_group_name_Hall           'P 2yb'
loop_
_symmetry_equiv_pos_site_id
_symmetry_equiv_pos_as_xyz
1 x,y,z
2 -x,1/2+y,-z
_cell_length_a                   7.9404(2)
_cell_length_b                   9.0717(2)
_cell_length_c                   10.6445(2)
_cell_angle_alpha                90
_cell_angle_beta                 104.6710(10)
_cell_angle_gamma                90
_cell_volume                     741.755
_exptl_crystal_colour            brown
_exptl_crystal_description       prism
_cell_formula_units_Z            2
loop_
_atom_site_label
_atom_site_type_symbol
_atom_site_fract_x
_atom_site_fract_y
_atom_site_fract_z
O1 O 0.4760(3) 0.3074(2) 0.39637(19)
H1 H 0.5220 0.3911 0.3991
O2 O 0.5329(2) 0.2730(2) 0.61869(18)
O3 O 0.9391(3) 0.2934(3) 1.0659(2)
O4 O 0.9006(4) 0.0639(3) 0.9909(3)
O5 O 0.1413(3) 0.6660(2) 0.6712(2)
N1 N 0.3503(3) 0.0817(3) 0.6165(2)
C1 C 0.3997(4) 0.2927(4) 0.4990(3)
C2 C 0.4460(4) 0.1988(3) 0.7021(3)
C3 C 0.5827(4) 0.1282(4) 0.8114(3)
H2 H 0.5257 0.0550 0.8560
H3 H 0.6676 0.0751 0.7741
C4 C 0.6784(4) 0.2385(3) 0.9094(3)
C5 C 0.8501(4) 0.1881(4) 0.9905(3)
C6 C 1.1068(4) 0.2516(4) 1.1458(3)
H4 H 1.0944 0.1646 1.1972
H5 H 1.1554 0.3332 1.2042
H6 H 1.1850 0.2287 1.0905
C7 C 0.6113(4) 0.3687(3) 0.9258(3)
H7 H 0.6824 0.4363 0.9842
C8 C 0.4311(4) 0.4158(3) 0.8586(3)
H8 H 0.3649 0.4188 0.9269
C9 C 0.3258(4) 0.3098(3) 0.7492(3)
C10 C 0.2965(4) 0.4276(3) 0.5165(3)
H9 H 0.1979 0.4402 0.4390
H10 H 0.3717 0.5158 0.5242
C11 C 0.2253(4) 0.4149(3) 0.6396(3)
H11 H 0.0994 0.3870 0.6138
C12 C 0.2455(4) 0.5670(3) 0.6998(3)
C13 C 0.4181(4) 0.5710(3) 0.8002(3)
H12 H 0.4185 0.6471 0.8670
H13 H 0.5151 0.5906 0.7596
C14 C 0.2929(4) 0.1492(3) 0.4865(3)
H14 H 0.1665 0.1704 0.4643
H15 H 0.3186 0.0839 0.4192
C15 C 0.2140(4) 0.0073(3) 0.6644(3)
H16 H 0.2704 -0.0570 0.7382
H17 H 0.1456 -0.0567 0.5946
C16 C 0.0896(4) 0.1117(4) 0.7085(3)
H18 H 0.0163 0.1639 0.6324
H19 H 0.0122 0.0547 0.7501
C17 C 0.1935(4) 0.2231(4) 0.8045(3)
H20 H 0.2565 0.1706 0.8841
H21 H 0.1120 0.2934 0.8291
loop_
_geom_bond_atom_site_label_1
_geom_bond_atom_site_label_2
_geom_bond_site_symmetry_1
_geom_bond_site_symmetry_2
O1 H1 1_555 1_555
O2 C1 1_555 1_555
O3 C5 1_555 1_555
O4 C5 1_555 1_555
O5 C12 1_555 1_555
N1 C2 1_555 1_555
C1 O1 1_555 1_555
C2 O2 1_555 1_555
C3 C2 1_555 1_555
H2 C3 1_555 1_555
H3 C3 1_555 1_555
C4 C3 1_555 1_555
C5 C4 1_555 1_555
C6 O3 1_555 1_555
H4 C6 1_555 1_555
H5 C6 1_555 1_555
H6 C6 1_555 1_555
C7 C4 1_555 1_555
H7 C7 1_555 1_555
C8 C7 1_555 1_555
H8 C8 1_555 1_555
C9 C2 1_555 1_555
C10 C1 1_555 1_555
H9 C10 1_555 1_555
H10 C10 1_555 1_555
C11 C9 1_555 1_555
H11 C11 1_555 1_555
C12 C11 1_555 1_555
C13 C8 1_555 1_555
H12 C13 1_555 1_555
H13 C13 1_555 1_555
C14 N1 1_555 1_555
H14 C14 1_555 1_555
H15 C14 1_555 1_555
C15 N1 1_555 1_555
H16 C15 1_555 1_555
H17 C15 1_555 1_555
C16 C15 1_555 1_555
H18 C16 1_555 1_555
H19 C16 1_555 1_555
C17 C9 1_555 1_555
H20 C17 1_555 1_555
H21 C17 1_555 1_555
C1 C14 1_555 1_555
C8 C9 1_555 1_555
C10 C11 1_555 1_555
C12 C13 1_555 1_555
C16 C17 1_555 1_555

#END
