
#######################################################################
#
#                 Cambridge Crystallographic Data Centre
#                                CCDC 
#
#######################################################################
#
# If this CIF has been generated from an entry in the Cambridge 
# Structural Database, then it will include bibliographic, chemical, 
# crystal, experimental, refinement or atomic coordinate data resulting 
# from the CCDC's data processing and validation procedures.
#
#######################################################################

data_BEVYOS
_chemical_formula_moiety         'C5 H4 N8 O10'
_chemical_name_systematic        
2,4-Dinitro-N-(2,2,2-trinitroethyl)-1H-imidazol-1-amine
_symmetry_cell_setting           orthorhombic
_symmetry_space_group_name_H-M   'P n a 21'
_symmetry_Int_Tables_number      33
_space_group_name_Hall           'P 2c -2n'
loop_
_symmetry_equiv_pos_site_id
_symmetry_equiv_pos_as_xyz
1 x,y,z
2 -x,-y,1/2+z
3 1/2-x,1/2+y,1/2+z
4 1/2+x,1/2-y,z
_cell_length_a                   11.1074(7)
_cell_length_b                   9.5233(6)
_cell_length_c                   10.9770(7)
_cell_angle_alpha                90
_cell_angle_beta                 90
_cell_angle_gamma                90
_cell_volume                     1161.14
_exptl_crystal_colour            colorless
_exptl_crystal_description       prism
_cell_formula_units_Z            4
loop_
_atom_site_label
_atom_site_type_symbol
_atom_site_fract_x
_atom_site_fract_y
_atom_site_fract_z
N1 N 0.20432(17) 1.0959(2) 0.8398(2)
C1 C 0.1367(2) 1.1924(3) 0.7760(2)
N2 N 0.02419(18) 1.1928(2) 0.8089(2)
C2 C 0.0194(2) 1.0943(3) 0.8963(2)
C3 C 0.1289(2) 1.0320(3) 0.9199(3)
H1 H 0.1472 0.9614 0.9782
N3 N 0.32873(17) 1.0686(2) 0.8373(2)
H2 H 0.3782 1.0941 0.8959
C4 C 0.3676(2) 0.9942(3) 0.7288(2)
H3 H 0.4211 1.0554 0.6799
H4 H 0.2967 0.9700 0.6783
C5 C 0.4349(2) 0.8600(3) 0.7643(2)
N4 N 0.5193(2) 0.8788(3) 0.8740(2)
O1 O 0.5247(2) 0.7838(3) 0.9468(2)
O2 O 0.5766(2) 0.9867(3) 0.8736(2)
N5 N 0.5138(2) 0.8127(3) 0.6606(2)
O3 O 0.6114(2) 0.7617(4) 0.6840(3)
O4 O 0.4698(3) 0.8261(3) 0.56028(19)
N6 N 0.3545(2) 0.7384(2) 0.7960(2)
O5 O 0.3705(3) 0.6275(3) 0.7432(3)
O6 O 0.2789(2) 0.7629(2) 0.8735(2)
N7 N 0.1853(2) 1.2837(3) 0.6828(2)
O7 O 0.1194(2) 1.3732(3) 0.6415(2)
O8 O 0.28920(17) 1.2656(2) 0.6510(2)
N8 N -0.09128(19) 1.0668(2) 0.9610(2)
O9 O -0.18109(16) 1.1336(2) 0.9320(2)
O10 O -0.08700(19) 0.9807(2) 1.0436(2)
loop_
_geom_bond_atom_site_label_1
_geom_bond_atom_site_label_2
_geom_bond_site_symmetry_1
_geom_bond_site_symmetry_2
N1 C1 1_555 1_555
C1 N2 1_555 1_555
N2 C2 1_555 1_555
C2 C3 1_555 1_555
C3 N1 1_555 1_555
H1 C3 1_555 1_555
N3 N1 1_555 1_555
H2 N3 1_555 1_555
C4 N3 1_555 1_555
H3 C4 1_555 1_555
H4 C4 1_555 1_555
C5 C4 1_555 1_555
N4 C5 1_555 1_555
O1 N4 1_555 1_555
O2 N4 1_555 1_555
N5 C5 1_555 1_555
O3 N5 1_555 1_555
O4 N5 1_555 1_555
N6 C5 1_555 1_555
O5 N6 1_555 1_555
O6 N6 1_555 1_555
N7 C1 1_555 1_555
O7 N7 1_555 1_555
O8 N7 1_555 1_555
N8 C2 1_555 1_555
O9 N8 1_555 1_555
O10 N8 1_555 1_555

#END
