
#######################################################################
#
#                 Cambridge Crystallographic Data Centre
#                                CCDC 
#
#######################################################################
#
# If this CIF has been generated from an entry in the Cambridge 
# Structural Database, then it will include bibliographic, chemical, 
# crystal, experimental, refinement or atomic coordinate data resulting 
# from the CCDC's data processing and validation procedures.
#
#######################################################################

data_BEWGOZ
_chemical_formula_moiety         'C28 H30 N4 P2 S2'
_chemical_name_systematic        
trans-2,4-Dithio-2,4-bis(N-ethyl-anilino)-1,3-diphenyl-1,3,2,4-diazadiphosphetidine
_symmetry_cell_setting           monoclinic
_symmetry_space_group_name_H-M   'P 21/n'
_symmetry_Int_Tables_number      14
_space_group_name_Hall           '-P 2yn'
loop_
_symmetry_equiv_pos_site_id
_symmetry_equiv_pos_as_xyz
1 x,y,z
2 1/2-x,1/2+y,1/2-z
3 -x,-y,-z
4 1/2+x,1/2-y,1/2+z
_cell_length_a                   10.280(4)
_cell_length_b                   19.059(4)
_cell_length_c                   7.531(1)
_cell_angle_alpha                90
_cell_angle_beta                 112.10(2)
_cell_angle_gamma                90
_cell_volume                     1367.11
_chemical_melting_point          238-40deg.C
_cell_formula_units_Z            2
loop_
_atom_site_label
_atom_site_type_symbol
_atom_site_fract_x
_atom_site_fract_y
_atom_site_fract_z
S1 S -0.14088 -0.11897 0.26560
P1 P -0.08838 -0.05045 0.46590
N1 N -0.08470 0.03510 0.41100
N2 N -0.17030 -0.05880 0.61300
C1 C -0.14600 -0.00780 0.77220
C2 C -0.27330 0.03670 0.74360
C3 C -0.19280 0.08030 0.29410
C4 C -0.16160 0.14820 0.25740
C5 C -0.26850 0.19210 0.14410
C6 C -0.40490 0.16860 0.06690
C7 C -0.43550 0.10170 0.10240
C8 C -0.33030 0.05700 0.21680
C9 C -0.25800 -0.11800 0.61380
C10 C -0.21470 -0.16360 0.76660
C11 C -0.30220 -0.21790 0.77550
C12 C -0.42990 -0.22720 0.63020
C13 C -0.47170 -0.18190 0.47660
C14 C -0.38720 -0.12710 0.46840
N1B N 0.08470 -0.03510 0.58900
P1B P 0.08838 0.05045 0.53410
C3B C 0.19280 -0.08030 0.70590
S1B S 0.14088 0.11897 0.73440
N2B N 0.17030 0.05880 0.38700
C4B C 0.16160 -0.14820 0.74260
C8B C 0.33030 -0.05700 0.78320
C1B C 0.14600 0.00780 0.22780
C9B C 0.25800 0.11800 0.38620
C5B C 0.26850 -0.19210 0.85590
C7B C 0.43550 -0.10170 0.89760
C2B C 0.27330 -0.03670 0.25640
C10B C 0.21470 0.16360 0.23340
C14B C 0.38720 0.12710 0.53160
C6B C 0.40490 -0.16860 0.93310
C11B C 0.30220 0.21790 0.22450
C13B C 0.47170 0.18190 0.52340
C12B C 0.42990 0.22720 0.36980
loop_
_geom_bond_atom_site_label_1
_geom_bond_atom_site_label_2
_geom_bond_site_symmetry_1
_geom_bond_site_symmetry_2
S1 P1 1_555 1_555
P1 N1 1_555 1_555
N1 C3 1_555 1_555
N2 P1 1_555 1_555
C1 N2 1_555 1_555
C2 C1 1_555 1_555
C3 C4 1_555 1_555
C4 C5 1_555 1_555
C5 C6 1_555 1_555
C6 C7 1_555 1_555
C7 C8 1_555 1_555
C8 C3 1_555 1_555
C9 N2 1_555 1_555
C10 C9 1_555 1_555
C11 C10 1_555 1_555
C12 C11 1_555 1_555
C13 C12 1_555 1_555
C14 C9 1_555 1_555
N1B P1 1_555 1_555
P1B N1 1_555 1_555
C3B N1B 1_555 1_555
S1B P1B 1_555 1_555
N2B P1B 1_555 1_555
C4B C3B 1_555 1_555
C8B C3B 1_555 1_555
C1B N2B 1_555 1_555
C9B N2B 1_555 1_555
C5B C4B 1_555 1_555
C7B C8B 1_555 1_555
C2B C1B 1_555 1_555
C10B C9B 1_555 1_555
C14B C9B 1_555 1_555
C6B C5B 1_555 1_555
C11B C10B 1_555 1_555
C13B C14B 1_555 1_555
C12B C11B 1_555 1_555
C13 C14 1_555 1_555
N1B P1B 1_555 1_555
C7B C6B 1_555 1_555
C13B C12B 1_555 1_555

#END
