
#######################################################################
#
#                 Cambridge Crystallographic Data Centre
#                                CCDC 
#
#######################################################################
#
# If this CIF has been generated from an entry in the Cambridge 
# Structural Database, then it will include bibliographic, chemical, 
# crystal, experimental, refinement or atomic coordinate data resulting 
# from the CCDC's data processing and validation procedures.
#
#######################################################################

data_BEWGIU
_chemical_formula_moiety         'C8 H21 O2 1+,C6 O12 P1 1-'
_chemical_name_systematic        
'bis(diethyl ether)hydronium tris(oxalato)phosphorus'
_symmetry_cell_setting           triclinic
_symmetry_space_group_name_H-M   'P -1'
_symmetry_Int_Tables_number      2
_space_group_name_Hall           '-P 1'
loop_
_symmetry_equiv_pos_site_id
_symmetry_equiv_pos_as_xyz
1 x,y,z
2 -x,-y,-z
_cell_length_a                   7.4186(8)
_cell_length_b                   11.285(1)
_cell_length_c                   12.790(1)
_cell_angle_alpha                72.051(2)
_cell_angle_beta                 89.905(2)
_cell_angle_gamma                82.973(2)
_cell_volume                     1010.26
_exptl_crystal_colour            colorless
_exptl_crystal_description       block
_chemical_melting_point          80deg.C(dec.)
_cell_formula_units_Z            2
loop_
_atom_site_label
_atom_site_type_symbol
_atom_site_fract_x
_atom_site_fract_y
_atom_site_fract_z
O1 O -0.5579(12) 0.3838(8) 1.2611(8)
C1 C -0.7515(10) 0.4148(7) 1.2423(7)
H1 H -0.7806 0.4800 1.1703
H2 H -0.8061 0.4466 1.3007
C2 C -0.822(3) 0.2975(10) 1.2438(10)
H3 H -0.7900 0.2335 1.3150
H4 H -0.7674 0.2678 1.1850
H5 H -0.9541 0.3132 1.2323
C3 C -0.4561(19) 0.4961(10) 1.2734(14)
H6 H -0.3254 0.4813 1.2592
H7 H -0.5093 0.5767 1.2199
C4 C -0.4780(13) 0.5005(10) 1.3806(10)
H8 H -0.4082 0.5638 1.3926
H9 H -0.4342 0.4181 1.4328
H10 H -0.6070 0.5226 1.3917
O2 O -0.3353(19) 0.2218(12) 1.2331(9)
C5 C -0.2833(14) 0.1069(7) 1.3208(12)
H12 H -0.1574 0.0726 1.3109
C6 C -0.294(2) 0.1266(14) 1.4248(12)
H13 H -0.2112 0.1866 1.4287
H14 H -0.2593 0.0467 1.4827
H15 H -0.4187 0.1602 1.4349
C7 C -0.340(3) 0.2145(15) 1.1160(13)
H16 H -0.2278 0.1635 1.1041
H17 H -0.4453 0.1734 1.1047
C8 C -0.353(2) 0.3388(14) 1.0386(10)
H18 H -0.2730 0.3884 1.0639
H19 H -0.4786 0.3793 1.0327
H20 H -0.3156 0.3335 0.9664
H21 H -0.475(7) 0.293(4) 1.247(3)
H22 H -0.3996 0.0375 1.3766
P1 P -0.00980(9) 0.20467(5) 0.75656(5)
O3 O 0.0835(2) 0.09826(15) 0.87314(13)
O4 O 0.2170(3) 0.0856(2) 1.03407(15)
O5 O 0.0647(3) 0.32198(16) 0.79423(14)
O6 O 0.1968(3) 0.3575(2) 0.93658(18)
O7 O -0.0996(3) 0.31365(16) 0.63795(13)
O8 O -0.0384(4) 0.3920(2) 0.46034(16)
O9 O 0.3088(3) 0.2371(2) 0.52842(18)
O10 O 0.1838(3) 0.17968(16) 0.69247(14)
O11 O -0.2081(2) 0.23010(16) 0.81653(13)
O12 O -0.4853(3) 0.1699(2) 0.83829(18)
O13 O -0.0887(3) 0.08714(16) 0.72060(14)
O14 O -0.3408(3) 0.0007(2) 0.71563(17)
C9 C 0.1558(4) 0.1460(3) 0.9446(2)
C10 C 0.1445(4) 0.2869(3) 0.8946(2)
C11 C 0.0061(5) 0.3269(3) 0.5512(2)
C12 C 0.1840(5) 0.2452(3) 0.5857(2)
C13 C -0.3368(4) 0.1602(3) 0.8053(2)
C14 C -0.2614(4) 0.0720(3) 0.7430(2)
H11? H -0.3642 0.0443 1.3178
O15? O -0.3677(19) 0.2063(13) 1.2691(7)
O16? O -0.6098(12) 0.3651(9) 1.2329(7)
C15? C -0.3631(14) 0.1179(9) 1.3796(6)
H23? H -0.4500 0.1519 1.4253
C16? C -0.1702(12) 0.0950(9) 1.4317(8)
H24? H -0.1679 0.0359 1.5062
H25? H -0.1348 0.1747 1.4349
H26? H -0.0848 0.0600 1.3870
C17? C -0.3119(15) 0.1520(9) 1.1813(7)
H27? H -0.3915 0.0887 1.1785
H28? H -0.1852 0.1100 1.1962
H29? H -0.2044 0.2846 1.0649
H30? H -0.4146 0.3164 1.0733
H31? H -0.3392 0.2161 1.0170
C18? C -0.326(3) 0.254(2) 1.0750(11)
C19? C -0.790(4) 0.310(3) 1.2196(19)
C20? C -0.9223(19) 0.3705(13) 1.1925(10)
C21? C -0.6194(15) 0.4569(9) 1.2911(7)
C22? C -0.526(4) 0.500(3) 1.214(2)
C23? C -0.434(3) 0.4791(16) 1.3129(13)
loop_
_geom_bond_atom_site_label_1
_geom_bond_atom_site_label_2
_geom_bond_site_symmetry_1
_geom_bond_site_symmetry_2
O1 C1 1_555 1_555
C1 H1 1_555 1_555
H2 C1 1_555 1_555
C2 C1 1_555 1_555
H3 C2 1_555 1_555
H4 C2 1_555 1_555
H5 C2 1_555 1_555
C3 O1 1_555 1_555
H6 C3 1_555 1_555
H7 C3 1_555 1_555
C4 C3 1_555 1_555
H8 C4 1_555 1_555
H9 C4 1_555 1_555
H10 C4 1_555 1_555
O2 C5 1_555 1_555
C5 H12 1_555 1_555
C6 C5 1_555 1_555
H13 C6 1_555 1_555
H14 C6 1_555 1_555
H15 C6 1_555 1_555
C7 O2 1_555 1_555
H16 C7 1_555 1_555
H17 C7 1_555 1_555
C8 C7 1_555 1_555
H18 C8 1_555 1_555
H19 C8 1_555 1_555
H20 C8 1_555 1_555
P1 O3 1_555 1_555
O3 C9 1_555 1_555
O4 C9 1_555 1_555
O5 P1 1_555 1_555
O6 C10 1_555 1_555
O7 P1 1_555 1_555
O8 C11 1_555 1_555
O9 C12 1_555 1_555
O10 P1 1_555 1_555
O11 P1 1_555 1_555
O12 C13 1_555 1_555
O13 P1 1_555 1_555
O14 C14 1_555 1_555
H21 O1 1_555 1_555
C9 C10 1_555 1_555
C10 O5 1_555 1_555
C11 O7 1_555 1_555
C12 O10 1_555 1_555
C13 O11 1_555 1_555
C14 O13 1_555 1_555
H22 C5 1_555 1_555
O2 H21 1_555 1_555
C11 C12 1_555 1_555
C13 C14 1_555 1_555

#END
