
#######################################################################
#
#                 Cambridge Crystallographic Data Centre
#                                CCDC 
#
#######################################################################
#
# If this CIF has been generated from an entry in the Cambridge 
# Structural Database, then it will include bibliographic, chemical, 
# crystal, experimental, refinement or atomic coordinate data resulting 
# from the CCDC's data processing and validation procedures.
#
#######################################################################

data_BEWGIT
_chemical_formula_moiety         'C26 H26 N4 P2 S2'
_chemical_name_systematic        
trans-2,4-Dithio-2,4-bis(N-methyl-anilino)-1,3-diphenyl-1,3,2,4-diazadiphosphetidine
_symmetry_cell_setting           triclinic
_symmetry_space_group_name_H-M   'P -1'
_symmetry_Int_Tables_number      2
_space_group_name_Hall           '-P 1'
loop_
_symmetry_equiv_pos_site_id
_symmetry_equiv_pos_as_xyz
1 x,y,z
2 -x,-y,-z
_cell_length_a                   10.131(3)
_cell_length_b                   10.043(3)
_cell_length_c                   13.524(3)
_cell_angle_alpha                90.16(2)
_cell_angle_beta                 108.75(2)
_cell_angle_gamma                102.86(2)
_cell_volume                     1266.18
_chemical_melting_point          248-9deg.C
_cell_formula_units_Z            2
loop_
_atom_site_label
_atom_site_type_symbol
_atom_site_fract_x
_atom_site_fract_y
_atom_site_fract_z
P1 P 0.50352 0.37412 0.00855
S1 S 0.61548 0.27118 -0.03583
N1 N 0.41420 0.47250 -0.07710
N2 N 0.39830 0.28470 0.06670
C1 C 0.37570 0.13630 0.07220
C3 C 0.29510 0.43720 -0.17120
C4 C 0.25200 0.53710 -0.23520
C5 C 0.13460 0.50140 -0.32570
C6 C 0.05870 0.36690 -0.35210
C7 C 0.10360 0.26630 -0.28950
C8 C 0.22120 0.30050 -0.19930
C9 C 0.31380 0.34880 0.11220
C10 C 0.36780 0.39570 0.21630
C11 C 0.28320 0.44820 0.26160
C12 C 0.14600 0.45180 0.20330
C13 C 0.09260 0.40440 0.09920
C14 C 0.17620 0.35320 0.05350
N1A N 0.58580 0.52750 0.07710
P1A P 0.49648 0.62588 -0.00855
C3A C 0.70490 0.56280 0.17120
S1A S 0.38452 0.72882 0.03583
N2A N 0.60170 0.71530 -0.06670
C4A C 0.74800 0.46290 0.23520
C8A C 0.77880 0.69950 0.19930
C1A C 0.62430 0.86370 -0.07220
C9A C 0.68620 0.65120 -0.11220
C5A C 0.86540 0.49860 0.32570
C7A C 0.89640 0.73370 0.28950
C10A C 0.63220 0.60430 -0.21630
C14A C 0.82380 0.64680 -0.05350
C6A C 0.94130 0.63310 0.35210
C11A C 0.71680 0.55180 -0.26160
C13A C 0.90740 0.59560 -0.09920
C12A C 0.85400 0.54820 -0.20330
P2 P 0.49876 0.12672 0.50802
S2 S 0.60508 0.28317 0.46351
N3 N 0.41410 -0.01370 0.42340
N4 N 0.39090 0.16400 0.56600
C2 C 0.36670 0.30070 0.57540
C15 C 0.30020 -0.03300 0.32650
C16 C 0.26390 -0.15330 0.26280
C17 C 0.15360 -0.17030 0.16740
C18 C 0.08010 -0.06980 0.13640
C19 C 0.11620 0.04840 0.19970
C20 C 0.22590 0.06810 0.29520
C21 C 0.31170 0.05890 0.61190
C22 C 0.36300 0.04620 0.71820
C23 C 0.28390 -0.05030 0.76340
C24 C 0.15540 -0.13230 0.70310
C25 C 0.10510 -0.11940 0.59770
C26 C 0.18300 -0.02340 0.55130
N3A N 0.58590 0.01370 0.57660
P2A P 0.50124 -0.12672 0.49198
C15A C 0.69980 0.03300 0.67350
S2A S 0.39492 -0.28317 0.53649
N4A N 0.60910 -0.16400 0.43400
C16A C 0.73610 0.15330 0.73720
C20A C 0.77410 -0.06810 0.70480
C2A C 0.63330 -0.30070 0.42460
C21A C 0.68830 -0.05890 0.38810
C17A C 0.84640 0.17030 0.83260
C19A C 0.88380 -0.04840 0.80030
C22A C 0.63700 -0.04620 0.28180
C26A C 0.81700 0.02340 0.44870
C18A C 0.91990 0.06980 0.86360
C23A C 0.71610 0.05030 0.23660
C25A C 0.89490 0.11940 0.40230
C24A C 0.84460 0.13230 0.29690
loop_
_geom_bond_atom_site_label_1
_geom_bond_atom_site_label_2
_geom_bond_site_symmetry_1
_geom_bond_site_symmetry_2
P1 S1 1_555 1_555
P2 S2 1_555 1_555
N1 P1 1_555 1_555
N2 P1 1_555 1_555
C1 N2 1_555 1_555
N3 P2 1_555 1_555
N4 P2 1_555 1_555
C2 N4 1_555 1_555
C3 N1 1_555 1_555
C4 C3 1_555 1_555
C5 C4 1_555 1_555
C6 C5 1_555 1_555
C7 C6 1_555 1_555
C8 C3 1_555 1_555
C9 N2 1_555 1_555
C10 C9 1_555 1_555
C11 C10 1_555 1_555
C12 C11 1_555 1_555
C13 C12 1_555 1_555
C14 C9 1_555 1_555
C15 N3 1_555 1_555
C16 C15 1_555 1_555
C17 C16 1_555 1_555
C18 C17 1_555 1_555
C19 C18 1_555 1_555
C20 C15 1_555 1_555
C21 N4 1_555 1_555
C22 C21 1_555 1_555
C23 C22 1_555 1_555
C24 C23 1_555 1_555
C25 C24 1_555 1_555
C26 C21 1_555 1_555
N1A P1 1_555 1_555
P1A N1 1_555 1_555
C3A N1A 1_555 1_555
S1A P1A 1_555 1_555
N2A P1A 1_555 1_555
C4A C3A 1_555 1_555
C8A C3A 1_555 1_555
C1A N2A 1_555 1_555
C9A N2A 1_555 1_555
C5A C4A 1_555 1_555
C7A C8A 1_555 1_555
C10A C9A 1_555 1_555
C14A C9A 1_555 1_555
C6A C5A 1_555 1_555
C11A C10A 1_555 1_555
C13A C14A 1_555 1_555
C12A C11A 1_555 1_555
N3A P2 1_555 1_555
P2A N3 1_555 1_555
C15A N3A 1_555 1_555
S2A P2A 1_555 1_555
N4A P2A 1_555 1_555
C16A C15A 1_555 1_555
C20A C15A 1_555 1_555
C2A N4A 1_555 1_555
C21A N4A 1_555 1_555
C17A C16A 1_555 1_555
C19A C20A 1_555 1_555
C22A C21A 1_555 1_555
C26A C21A 1_555 1_555
C18A C17A 1_555 1_555
C23A C22A 1_555 1_555
C25A C26A 1_555 1_555
C24A C23A 1_555 1_555
C7 C8 1_555 1_555
C13 C14 1_555 1_555
C19 C20 1_555 1_555
C25 C26 1_555 1_555
N1A P1A 1_555 1_555
C7A C6A 1_555 1_555
C13A C12A 1_555 1_555
N3A P2A 1_555 1_555
C19A C18A 1_555 1_555
C25A C24A 1_555 1_555

#END
