
#######################################################################
#
#                 Cambridge Crystallographic Data Centre
#                                CCDC 
#
#######################################################################
#
# If this CIF has been generated from an entry in the Cambridge 
# Structural Database, then it will include bibliographic, chemical, 
# crystal, experimental, refinement or atomic coordinate data resulting 
# from the CCDC's data processing and validation procedures.
#
#######################################################################

data_BEWKOE
_chemical_formula_moiety         'C52 H64 N16 O4'
_chemical_name_systematic        
'16,17,33,34-Tetraphenyl-8,25-bis(aminoethyl)-1,3,5,8,11,13,15,18,20,22,25,28,30,32-tetradecaazanonacyclo-(26.6.1.1^5,32^.1^11,18^.1^15,22^.0^3,33^.0^13,17^.0^16,20^.0^30,34^) octatriacontane-2,14,19,31-tetrone'
_symmetry_cell_setting           monoclinic
_symmetry_space_group_name_H-M   'C 2/c'
_symmetry_Int_Tables_number      15
_space_group_name_Hall           '-C 2yn'
loop_
_symmetry_equiv_pos_site_id
_symmetry_equiv_pos_as_xyz
1 x,y,z
2 1/2+x,1/2+y,z
3 x,-y,1/2+z
4 1/2+x,1/2-y,1/2+z
5 -x,-y,-z
6 1/2-x,1/2-y,-z
7 -x,y,1/2-z
8 1/2-x,1/2+y,1/2-z
_cell_length_a                   20.736(4)
_cell_length_b                   15.807(3)
_cell_length_c                   16.385(3)
_cell_angle_alpha                90
_cell_angle_beta                 116.93(3)
_cell_angle_gamma                90
_cell_volume                     4788.19
_exptl_crystal_colour            colorless
_exptl_crystal_description       Block
_cell_formula_units_Z            4
loop_
_atom_site_label
_atom_site_type_symbol
_atom_site_fract_x
_atom_site_fract_y
_atom_site_fract_z
O1 O 0.43522(10) 0.97284(11) 0.29727(11)
O2 O 0.28074(11) 1.23391(12) 0.13509(12)
N1 N 0.33869(10) 0.97996(12) 0.15177(12)
N2 N 0.31666(11) 0.99664(12) 0.27162(12)
N3 N 0.25097(11) 1.12147(12) 0.20112(13)
N4 N 0.26431(11) 1.09828(13) 0.07518(13)
N5 N 0.33435(12) 1.12518(14) 0.36386(13)
N6 N 0.37705(12) 1.07449(13) 0.06438(13)
N7 N 0.52927(13) 1.19584(16) 0.47198(16)
N8 N 0.6068(3) 1.2328(5) 0.6502(5)
C1 C 0.25131(13) 1.02935(15) 0.19620(15)
C2 C 0.26501(13) 1.01317(15) 0.11042(15)
C3 C 0.37076(15) 0.98359(15) 0.24532(16)
C4 C 0.26801(14) 1.15959(17) 0.13828(17)
C5 C 0.33325(15) 1.03336(17) 0.36151(16)
H1 H 0.2976 1.0135 0.3800
H2 H 0.3801 1.0126 0.4060
C6 C 0.26714(16) 1.15731(17) 0.29075(17)
H3 H 0.2703 1.2184 0.2879
H4 H 0.2276 1.1444 0.3050
C7 C 0.37740(14) 0.98870(16) 0.09597(16)
H5 H 0.4271 0.9706 0.1319
H6 H 0.3553 0.9516 0.0433
C8 C 0.30440(15) 1.10848(17) 0.02090(16)
H7 H 0.2776 1.0807 -0.0377
H8 H 0.3069 1.1682 0.0092
C9 C 0.21454(13) 0.95336(16) 0.03837(16)
C10 C 0.21997(16) 0.86664(17) 0.0563(2)
H9 H 0.2552 0.8467 0.1122
C11 C 0.17371(19) 0.8101(2) -0.0078(3)
H10 H 0.1767 0.7527 0.0060
C12 C 0.12328(19) 0.8387(3) -0.0920(2)
H11 H 0.0927 0.8006 -0.1357
C13 C 0.11831(16) 0.9230(3) -0.1110(2)
H12 H 0.0849 0.9417 -0.1686
C14 C 0.16164(15) 0.9811(2) -0.04706(18)
H13 H 0.1558 1.0386 -0.0605
C15 C 0.18239(14) 0.99179(16) 0.19173(16)
C16 C 0.18229(15) 0.91879(17) 0.23885(18)
H14 H 0.2256 0.8913 0.2752
C17 C 0.11809(18) 0.88708(19) 0.2318(2)
H15 H 0.1185 0.8391 0.2649
C18 C 0.05277(18) 0.9260(2) 0.1760(2)
H16 H 0.0095 0.9032 0.1702
C19 C 0.05238(16) 0.9982(2) 0.1294(2)
H17 H 0.0090 1.0249 0.0921
C20 C 0.11714(16) 1.03087(19) 0.1384(2)
H18 H 0.1167 1.0806 0.1078
C21 C 0.39939(16) 1.16465(18) 0.36687(17)
H19 H 0.3943 1.2256 0.3672
H20 H 0.4031 1.1496 0.3117
C22 C 0.46845(15) 1.13894(19) 0.44924(18)
H21 H 0.4588 1.1349 0.5018
H22 H 0.4822 1.0831 0.4382
C23 C 0.5248(3) 1.2698(3) 0.5146(3)
H23 H 0.4764 1.2928 0.4812
H24 H 0.5582 1.3108 0.5110
C24 C 0.5402(3) 1.2598(3) 0.6070(3)
H25 H 0.5350 1.3133 0.6324
H26 H 0.5073 1.2191 0.6125
C25 C 0.43069(15) 1.12874(18) 0.13569(18)
H27 H 0.4749 1.0967 0.1687
H28 H 0.4126 1.1442 0.1789
C26 C 0.55195(17) 1.20864(19) 0.4013(2)
H29 H 0.5945 1.2446 0.4256
H30 H 0.5139 1.2387 0.3508
C25F C 0.56931(15) 1.12874(18) 0.36431(18)
N6F N 0.62295(12) 1.07449(13) 0.43562(13)
C7F C 0.62260(14) 0.98870(16) 0.40403(16)
N1F N 0.66131(10) 0.97996(12) 0.34823(12)
C2F C 0.73499(13) 1.01317(15) 0.38958(15)
N4F N 0.73569(11) 1.09828(13) 0.42482(13)
C4F C 0.73199(14) 1.15959(17) 0.36172(17)
O2F O 0.71926(11) 1.23391(12) 0.36491(12)
N3F N 0.74903(11) 1.12147(12) 0.29888(13)
C1F C 0.74869(13) 1.02935(15) 0.30380(15)
N2F N 0.68334(11) 0.99664(12) 0.22838(12)
C3F C 0.62924(15) 0.98359(15) 0.25468(16)
O1F O 0.56478(10) 0.97284(11) 0.20273(11)
C5F C 0.66675(15) 1.03336(17) 0.13849(16)
N5F N 0.66565(12) 1.12518(14) 0.13614(13)
C6F C 0.73286(16) 1.15731(17) 0.20925(17)
H3F H 0.7297 1.2184 0.2121
H4F H 0.7724 1.1444 0.1950
C21F C 0.60061(16) 1.16465(18) 0.13313(17)
H19F H 0.6057 1.2256 0.1328
H20F H 0.5969 1.1496 0.1883
C22F C 0.53155(15) 1.13894(19) 0.05076(18)
N7F N 0.47073(13) 1.19584(16) 0.02802(16)
C23F C 0.4752(3) 1.2698(3) -0.0146(3)
H23F H 0.5236 1.2928 0.0188
H24F H 0.4418 1.3108 -0.0110
C24F C 0.4598(3) 1.2598(3) -0.1070(3)
N8F N 0.3932(3) 1.2328(5) -0.1502(5)
H25F H 0.4650 1.3133 -0.1324
H26F H 0.4927 1.2191 -0.1125
C26F C 0.44805(17) 1.20864(19) 0.0987(2)
H29F H 0.4055 1.2446 0.0744
H30F H 0.4861 1.2387 0.1492
H21F H 0.5412 1.1349 -0.0018
H22F H 0.5178 1.0831 0.0618
H1F H 0.7024 1.0135 0.1200
H2F H 0.6199 1.0126 0.0940
C9F C 0.78546(13) 0.95336(16) 0.46163(16)
C10F C 0.78003(16) 0.86664(17) 0.4437(2)
H9F H 0.7448 0.8467 0.3878
C11F C 0.82629(19) 0.8101(2) 0.5078(3)
H10F H 0.8233 0.7527 0.4940
C12F C 0.87672(19) 0.8387(3) 0.5920(2)
H11F H 0.9073 0.8006 0.6357
C13F C 0.88169(16) 0.9230(3) 0.6110(2)
H12F H 0.9151 0.9417 0.6686
C14F C 0.83836(15) 0.9811(2) 0.54706(18)
H13F H 0.8442 1.0386 0.5605
C15F C 0.81761(14) 0.99179(16) 0.30827(16)
C16F C 0.81771(15) 0.91879(17) 0.26115(18)
H14F H 0.7744 0.8913 0.2248
C17F C 0.88191(18) 0.88708(19) 0.2682(2)
H15F H 0.8815 0.8391 0.2351
C18F C 0.94723(18) 0.9260(2) 0.3240(2)
H16F H 0.9905 0.9032 0.3298
C19F C 0.94762(16) 0.9982(2) 0.3706(2)
H17F H 0.9910 1.0249 0.4079
C20F C 0.88286(16) 1.03087(19) 0.3616(2)
H18F H 0.8833 1.0806 0.3922
C8F C 0.69560(15) 1.10848(17) 0.47910(16)
H7F H 0.7224 1.0807 0.5377
H8F H 0.6931 1.1682 0.4908
H5F H 0.5729 0.9706 0.3681
H6F H 0.6447 0.9516 0.4567
H27F H 0.5251 1.0967 0.3313
H28F H 0.5874 1.1442 0.3211
loop_
_geom_bond_atom_site_label_1
_geom_bond_atom_site_label_2
_geom_bond_site_symmetry_1
_geom_bond_site_symmetry_2
O1 C3 1_555 1_555
O2 C4 1_555 1_555
N1 C2 1_555 1_555
N2 C1 1_555 1_555
N3 C1 1_555 1_555
N4 C2 1_555 1_555
N5 C5 1_555 1_555
N6 C7 1_555 1_555
N7 C22 1_555 1_555
N8 C24 1_555 1_555
C1 C2 1_555 1_555
C2 C9 1_555 1_555
C3 N1 1_555 1_555
C4 N3 1_555 1_555
C5 N2 1_555 1_555
H1 C5 1_555 1_555
H2 C5 1_555 1_555
C6 N3 1_555 1_555
H3 C6 1_555 1_555
H4 C6 1_555 1_555
C7 N1 1_555 1_555
H5 C7 1_555 1_555
H6 C7 1_555 1_555
C8 N4 1_555 1_555
H7 C8 1_555 1_555
H8 C8 1_555 1_555
C9 C10 1_555 1_555
C10 H9 1_555 1_555
C11 C10 1_555 1_555
H10 C11 1_555 1_555
C12 C11 1_555 1_555
H11 C12 1_555 1_555
C13 C12 1_555 1_555
H12 C13 1_555 1_555
C14 C9 1_555 1_555
H13 C14 1_555 1_555
C15 C1 1_555 1_555
C16 C15 1_555 1_555
H14 C16 1_555 1_555
C17 C16 1_555 1_555
H15 C17 1_555 1_555
C18 C17 1_555 1_555
H16 C18 1_555 1_555
C19 C18 1_555 1_555
H17 C19 1_555 1_555
C20 C15 1_555 1_555
H18 C20 1_555 1_555
C21 N5 1_555 1_555
H19 C21 1_555 1_555
H20 C21 1_555 1_555
C22 C21 1_555 1_555
H21 C22 1_555 1_555
H22 C22 1_555 1_555
C23 N7 1_555 1_555
H23 C23 1_555 1_555
H24 C23 1_555 1_555
C24 C23 1_555 1_555
H25 C24 1_555 1_555
H26 C24 1_555 1_555
C25 N6 1_555 1_555
H27 C25 1_555 1_555
H28 C25 1_555 1_555
C26 N7 1_555 1_555
H29 C26 1_555 1_555
H30 C26 1_555 1_555
C25F C26 1_555 1_555
N6F C25F 1_555 1_555
C7F N6F 1_555 1_555
N1F C7F 1_555 1_555
C2F N1F 1_555 1_555
N4F C2F 1_555 1_555
C4F N4F 1_555 1_555
O2F C4F 1_555 1_555
N3F C4F 1_555 1_555
C1F C2F 1_555 1_555
N2F C1F 1_555 1_555
C3F N1F 1_555 1_555
O1F C3F 1_555 1_555
C5F N2F 1_555 1_555
N5F C5F 1_555 1_555
C6F N3F 1_555 1_555
H3F C6F 1_555 1_555
H4F C6F 1_555 1_555
C21F N5F 1_555 1_555
H19F C21F 1_555 1_555
H20F C21F 1_555 1_555
C22F C21F 1_555 1_555
N7F C22F 1_555 1_555
C23F N7F 1_555 1_555
H23F C23F 1_555 1_555
H24F C23F 1_555 1_555
C24F C23F 1_555 1_555
N8F C24F 1_555 1_555
H25F C24F 1_555 1_555
H26F C24F 1_555 1_555
C26F C25 1_555 1_555
H29F C26F 1_555 1_555
H30F C26F 1_555 1_555
H21F C22F 1_555 1_555
H22F C22F 1_555 1_555
H1F C5F 1_555 1_555
H2F C5F 1_555 1_555
C9F C2F 1_555 1_555
C10F C9F 1_555 1_555
H9F C10F 1_555 1_555
C11F C10F 1_555 1_555
H10F C11F 1_555 1_555
C12F C11F 1_555 1_555
H11F C12F 1_555 1_555
C13F C12F 1_555 1_555
H12F C13F 1_555 1_555
C14F C9F 1_555 1_555
H13F C14F 1_555 1_555
C15F C1F 1_555 1_555
C16F C15F 1_555 1_555
H14F C16F 1_555 1_555
C17F C16F 1_555 1_555
H15F C17F 1_555 1_555
C18F C17F 1_555 1_555
H16F C18F 1_555 1_555
C19F C18F 1_555 1_555
H17F C19F 1_555 1_555
C20F C15F 1_555 1_555
H18F C20F 1_555 1_555
C8F N6F 1_555 1_555
H7F C8F 1_555 1_555
H8F C8F 1_555 1_555
H5F C7F 1_555 1_555
H6F C7F 1_555 1_555
H27F C25F 1_555 1_555
H28F C25F 1_555 1_555
N2 C3 1_555 1_555
N4 C4 1_555 1_555
N5 C6 1_555 1_555
N6 C8 1_555 1_555
C13 C14 1_555 1_555
C19 C20 1_555 1_555
N4F C8F 1_555 1_555
N3F C1F 1_555 1_555
N2F C3F 1_555 1_555
N5F C6F 1_555 1_555
N7F C26F 1_555 1_555
C13F C14F 1_555 1_555
C19F C20F 1_555 1_555

#END
