
#######################################################################
#
#                 Cambridge Crystallographic Data Centre
#                                CCDC 
#
#######################################################################
#
# If this CIF has been generated from an entry in the Cambridge 
# Structural Database, then it will include bibliographic, chemical, 
# crystal, experimental, refinement or atomic coordinate data resulting 
# from the CCDC's data processing and validation procedures.
#
#######################################################################

data_BEWKAS
_chemical_formula_moiety         'C21 H17 N1 O1'
_chemical_name_systematic        
([1,1'-biphenyl]-4-yl)(2-phenylaziridin-2-yl)methanone
_symmetry_cell_setting           monoclinic
_symmetry_space_group_name_H-M   'P 21'
_symmetry_Int_Tables_number      4
_space_group_name_Hall           'P 2yb'
loop_
_symmetry_equiv_pos_site_id
_symmetry_equiv_pos_as_xyz
1 x,y,z
2 -x,1/2+y,-z
_cell_length_a                   5.6465(3)
_cell_length_b                   7.7042(6)
_cell_length_c                   17.1588(15)
_cell_angle_alpha                90
_cell_angle_beta                 93.670(6)
_cell_angle_gamma                90
_cell_volume                     744.907
_cell_formula_units_Z            2
loop_
_atom_site_label
_atom_site_type_symbol
_atom_site_fract_x
_atom_site_fract_y
_atom_site_fract_z
O1 O 1.2318(3) 0.1565(2) 0.36462(8)
C1 C 1.0520(4) 0.1280(3) 0.12525(12)
H1 H 1.1585 0.0764 0.0913
C2 C 0.6779(3) 0.2587(3) 0.14732(11)
H2 H 0.5252 0.2979 0.1285
C3 C 0.5581(4) 0.2643(3) -0.02262(12)
H3 H 0.4581 0.3236 0.0110
C4 C 0.8321(3) 0.1895(3) 0.09423(10)
C5 C 0.7645(3) 0.1840(3) 0.00884(11)
C6 C 1.0495(3) 0.2281(3) 0.34032(11)
C7 C 0.9659(3) 0.2157(2) 0.25605(11)
C8 C 0.7430(3) 0.2713(3) 0.22661(11)
H4 H 0.6344 0.3183 0.2611
N1 N 0.9783(3) 0.3103(2) 0.48032(9)
H5 H 1.1063 0.2512 0.4894
C9 C 0.6409(4) 0.1751(3) -0.15287(11)
H6 H 0.5995 0.1721 -0.2074
C10 C 0.9008(3) 0.3263(3) 0.39610(11)
C11 C 1.1171(3) 0.1406(3) 0.20374(11)
H7 H 1.2675 0.0976 0.2229
C12 C 0.8469(4) 0.0957(3) -0.12227(12)
H8 H 0.9476 0.0381 -0.1562
C13 C 0.4964(4) 0.2589(3) -0.10239(12)
H9 H 0.3542 0.3130 -0.1225
C14 C 0.8110(3) 0.5027(3) 0.37268(10)
C15 C 0.9074(4) 0.0994(3) -0.04311(12)
H10 H 1.0488 0.0435 -0.0234
C16 C 0.9479(3) 0.6072(3) 0.32683(11)
H11 H 1.0937 0.5638 0.3101
C17 C 0.5263(3) 0.7371(3) 0.37625(11)
H12 H 0.3828 0.7823 0.3940
C18 C 0.6640(4) 0.8380(3) 0.32953(11)
H13 H 0.6131 0.9512 0.3143
C19 C 0.7733(4) 0.2090(3) 0.44905(10)
H14 H 0.6139 0.2451 0.4638
H15 H 0.7942 0.0822 0.4430
C20 C 0.5986(4) 0.5697(3) 0.39707(11)
H16 H 0.5022 0.5005 0.4282
C21 C 0.8756(4) 0.7729(3) 0.30518(12)
H17 H 0.9710 0.8419 0.2737
loop_
_geom_bond_atom_site_label_1
_geom_bond_atom_site_label_2
_geom_bond_site_symmetry_1
_geom_bond_site_symmetry_2
O1 C6 1_555 1_555
C1 H1 1_555 1_555
C2 H2 1_555 1_555
C3 H3 1_555 1_555
C4 C1 1_555 1_555
C5 C3 1_555 1_555
C6 C7 1_555 1_555
C7 C8 1_555 1_555
C8 C2 1_555 1_555
H4 C8 1_555 1_555
N1 H5 1_555 1_555
C9 H6 1_555 1_555
C10 C6 1_555 1_555
C11 C1 1_555 1_555
H7 C11 1_555 1_555
C12 C9 1_555 1_555
H8 C12 1_555 1_555
C13 C3 1_555 1_555
H9 C13 1_555 1_555
C14 C10 1_555 1_555
C15 C5 1_555 1_555
H10 C15 1_555 1_555
C16 C14 1_555 1_555
H11 C16 1_555 1_555
C17 H12 1_555 1_555
C18 C17 1_555 1_555
H13 C18 1_555 1_555
C19 N1 1_555 1_555
H14 C19 1_555 1_555
H15 C19 1_555 1_555
C20 C14 1_555 1_555
H16 C20 1_555 1_555
C21 C16 1_555 1_555
H17 C21 1_555 1_555
C2 C4 1_555 1_555
C4 C5 1_555 1_555
C7 C11 1_555 1_555
N1 C10 1_555 1_555
C9 C13 1_555 1_555
C10 C19 1_555 1_555
C12 C15 1_555 1_555
C17 C20 1_555 1_555
C18 C21 1_555 1_555

#END
