
#######################################################################
#
#                 Cambridge Crystallographic Data Centre
#                                CCDC 
#
#######################################################################
#
# If this CIF has been generated from an entry in the Cambridge 
# Structural Database, then it will include bibliographic, chemical, 
# crystal, experimental, refinement or atomic coordinate data resulting 
# from the CCDC's data processing and validation procedures.
#
#######################################################################

data_BEWLOG
_chemical_formula_moiety         'C23 H16 F1 N1 O2'
_chemical_name_systematic        
'3-Phenylisoquinolin-4-yl (4-fluorophenyl)acetate'
_symmetry_cell_setting           monoclinic
_symmetry_space_group_name_H-M   'P 21/c'
_symmetry_Int_Tables_number      14
_space_group_name_Hall           '-P 2ybc'
loop_
_symmetry_equiv_pos_site_id
_symmetry_equiv_pos_as_xyz
1 x,y,z
2 -x,1/2+y,1/2-z
3 -x,-y,-z
4 x,1/2-y,1/2+z
_cell_length_a                   17.532(4)
_cell_length_b                   7.5384(19)
_cell_length_c                   13.756(3)
_cell_angle_alpha                90
_cell_angle_beta                 100.059(4)
_cell_angle_gamma                90
_cell_volume                     1790.09
_exptl_crystal_colour            colorless
_exptl_crystal_description       block
_cell_formula_units_Z            4
loop_
_atom_site_label
_atom_site_type_symbol
_atom_site_fract_x
_atom_site_fract_y
_atom_site_fract_z
F1 F 0.02957(16) 0.8954(4) 0.4040(2)
N1 N 0.4046(2) 0.1447(4) 0.0604(2)
O1 O 0.30218(16) 0.5722(4) 0.2338(2)
O2 O 0.30614(15) 0.5697(3) 0.07163(17)
C1 C 0.4766(3) 0.1963(6) 0.0860(3)
H1 H 0.5152 0.1117 0.0858
C2 C 0.5001(3) 0.3706(6) 0.1141(3)
C3 C 0.5782(3) 0.4190(7) 0.1416(3)
H2 H 0.6168 0.3342 0.1424
C4 C 0.5976(3) 0.5894(8) 0.1670(3)
H3 H 0.6494 0.6205 0.1861
C5 C 0.5398(3) 0.7182(6) 0.1647(3)
H4 H 0.5539 0.8344 0.1822
C6 C 0.4637(3) 0.6770(6) 0.1373(3)
H5 H 0.4261 0.7647 0.1350
C7 C 0.4422(3) 0.5008(6) 0.1127(3)
C8 C 0.3656(3) 0.4405(6) 0.0853(3)
C9 C 0.3474(3) 0.2685(6) 0.0605(3)
C10 C 0.2787(2) 0.6254(6) 0.1532(4)
C11 C 0.2176(3) 0.7652(6) 0.1226(3)
H6 H 0.2429 0.8751 0.1099
H7 H 0.1853 0.7285 0.0613
C12 C 0.1668(3) 0.7998(6) 0.1974(3)
C13 C 0.0926(3) 0.7384(6) 0.1842(3)
H8 H 0.0731 0.6734 0.1279
C14 C 0.0458(3) 0.7716(7) 0.2534(5)
H9 H -0.0047 0.7291 0.2444
C15 C 0.0750(3) 0.8668(7) 0.3341(4)
C16 C 0.1467(3) 0.9324(6) 0.3497(3)
H10 H 0.1651 0.9985 0.4060
C17 C 0.1927(2) 0.8999(6) 0.2806(4)
H11 H 0.2425 0.9464 0.2901
C18 C 0.2670(3) 0.2074(5) 0.0255(3)
C19 C 0.2499(3) 0.1145(6) -0.0618(3)
H12 H 0.2893 0.0891 -0.0969
C20 C 0.1757(4) 0.0583(6) -0.0980(4)
H13 H 0.1652 -0.0028 -0.1576
C21 C 0.1174(3) 0.0927(7) -0.0461(5)
H14 H 0.0672 0.0554 -0.0706
C22 C 0.1332(3) 0.1822(7) 0.0423(4)
H15 H 0.0938 0.2043 0.0781
C23 C 0.2079(3) 0.2391(5) 0.0776(3)
H16 H 0.2184 0.2995 0.1374
loop_
_geom_bond_atom_site_label_1
_geom_bond_atom_site_label_2
_geom_bond_site_symmetry_1
_geom_bond_site_symmetry_2
F1 C15 1_555 1_555
N1 C1 1_555 1_555
O1 C10 1_555 1_555
O2 C8 1_555 1_555
C1 H1 1_555 1_555
C2 C1 1_555 1_555
C3 C2 1_555 1_555
H2 C3 1_555 1_555
C4 C3 1_555 1_555
H3 C4 1_555 1_555
C5 C4 1_555 1_555
H4 C5 1_555 1_555
C6 C5 1_555 1_555
H5 C6 1_555 1_555
C7 C2 1_555 1_555
C8 C7 1_555 1_555
C9 N1 1_555 1_555
C10 O2 1_555 1_555
C11 C10 1_555 1_555
H6 C11 1_555 1_555
H7 C11 1_555 1_555
C12 C11 1_555 1_555
C13 C12 1_555 1_555
H8 C13 1_555 1_555
C14 C13 1_555 1_555
H9 C14 1_555 1_555
C15 C14 1_555 1_555
C16 C15 1_555 1_555
H10 C16 1_555 1_555
C17 C12 1_555 1_555
H11 C17 1_555 1_555
C18 C9 1_555 1_555
C19 C18 1_555 1_555
H12 C19 1_555 1_555
C20 C19 1_555 1_555
H13 C20 1_555 1_555
C21 C20 1_555 1_555
H14 C21 1_555 1_555
C22 C21 1_555 1_555
H15 C22 1_555 1_555
C23 C18 1_555 1_555
H16 C23 1_555 1_555
C6 C7 1_555 1_555
C8 C9 1_555 1_555
C16 C17 1_555 1_555
C22 C23 1_555 1_555

#END
