
#######################################################################
#
#                 Cambridge Crystallographic Data Centre
#                                CCDC 
#
#######################################################################
#
# If this CIF has been generated from an entry in the Cambridge 
# Structural Database, then it will include bibliographic, chemical, 
# crystal, experimental, refinement or atomic coordinate data resulting 
# from the CCDC's data processing and validation procedures.
#
#######################################################################

data_BEWPAX
_chemical_formula_moiety         
'C72 H34 F20 N12 O4,C16 H36 N1 1+,N1 O3 1-,0.5(C6 H14)'
_chemical_name_systematic        
"tetra-n-butylammonium nitrate N,N',N'',N'''-[porphyrin-5,10,15,20-tetrayltetrakis(2,1-phenylene)]tetrakis[N'-(pentafluorophenyl)urea] n-hexane solvate"
_symmetry_cell_setting           tetragonal
_symmetry_space_group_name_H-M   'P 4/n n c'
_symmetry_Int_Tables_number      126
_space_group_name_Hall           '-P 4a 2bc'
loop_
_symmetry_equiv_pos_site_id
_symmetry_equiv_pos_as_xyz
1 x,y,z
2 1/2-y,x,z
3 1/2-x,1/2-y,z
4 y,1/2-x,z
5 x,1/2-y,1/2-z
6 1/2-x,y,1/2-z
7 y,x,1/2-z
8 1/2-y,1/2-x,1/2-z
9 -x,-y,-z
10 1/2+y,-x,-z
11 1/2+x,1/2+y,-z
12 -y,1/2+x,-z
13 -x,1/2+y,1/2+z
14 1/2+x,-y,1/2+z
15 -y,-x,1/2+z
16 1/2+y,1/2+x,1/2+z
_cell_length_a                   19.5994(4)
_cell_length_b                   19.5994(4)
_cell_length_c                   22.6683(6)
_cell_angle_alpha                90
_cell_angle_beta                 90
_cell_angle_gamma                90
_cell_volume                     8707.72
_exptl_crystal_colour            red
_exptl_crystal_description       block
_cell_formula_units_Z            4
loop_
_atom_site_label
_atom_site_type_symbol
_atom_site_fract_x
_atom_site_fract_y
_atom_site_fract_z
N4 N 0.250000 -0.250000 0.500000
C19 C 0.3421(3) -0.1022(3) 0.6655(2)
H9 H 0.325748 -0.060549 0.646334
H10 H 0.384345 -0.092393 0.687068
H11 H 0.307412 -0.118822 0.693176
C20 C 0.35563(18) -0.15576(19) 0.61973(16)
H12 H 0.372477 -0.197612 0.639378
H13 H 0.391891 -0.139394 0.592822
C21 C 0.29247(15) -0.17313(15) 0.58381(14)
H14 H 0.256287 -0.190547 0.610298
H15 H 0.275140 -0.131474 0.564171
C22 C 0.30931(13) -0.22643(14) 0.53792(13)
H16 H 0.328714 -0.266710 0.558245
H17 H 0.345169 -0.207886 0.511676
C19B C 0.1579(3) -0.3978(3) 0.6655(2)
H9B H 0.174252 -0.439451 0.646334
H10B H 0.115655 -0.407607 0.687068
H11B H 0.192588 -0.381178 0.693176
C20B C 0.14437(18) -0.34424(19) 0.61973(16)
H12B H 0.127523 -0.302388 0.639378
H13B H 0.108109 -0.360606 0.592822
C21B C 0.20753(15) -0.32687(15) 0.58381(14)
H14B H 0.243713 -0.309453 0.610298
H15B H 0.224860 -0.368526 0.564171
C22B C 0.19069(13) -0.27357(14) 0.53792(13)
H16B H 0.171286 -0.233290 0.558245
H17B H 0.154831 -0.292114 0.511676
C19I C 0.3978(3) -0.3421(3) 0.3345(2)
H9I H 0.439451 -0.325748 0.353666
H10I H 0.407607 -0.384345 0.312932
H11I H 0.381178 -0.307412 0.306824
C20I C 0.34424(19) -0.35563(18) 0.38027(16)
H12I H 0.302388 -0.372477 0.360622
H13I H 0.360606 -0.391891 0.407178
C21I C 0.32687(15) -0.29247(15) 0.41619(14)
H14I H 0.309453 -0.256287 0.389702
H15I H 0.368526 -0.275140 0.435829
C22I C 0.27357(14) -0.30931(13) 0.46208(13)
H16I H 0.233290 -0.328714 0.441755
H17I H 0.292114 -0.345169 0.488324
C19K C 0.1022(3) -0.1579(3) 0.3345(2)
H9K H 0.060549 -0.174252 0.353666
H10K H 0.092393 -0.115655 0.312932
H11K H 0.118822 -0.192588 0.306824
C20K C 0.15576(19) -0.14437(18) 0.38027(16)
H12K H 0.197612 -0.127523 0.360622
H13K H 0.139394 -0.108109 0.407178
C21K C 0.17313(15) -0.20753(15) 0.41619(14)
H14K H 0.190547 -0.243713 0.389702
H15K H 0.131474 -0.224860 0.435829
C22K C 0.22643(14) -0.19069(13) 0.46208(13)
H16K H 0.266710 -0.171286 0.441755
H17K H 0.207886 -0.154831 0.488324
F1 F 0.25647(12) 0.07057(14) 0.64187(10)
F2 F 0.15764(14) 0.05394(16) 0.72281(9)
F3 F 0.02553(12) 0.04312(13) 0.68823(10)
F4 F -0.00666(13) 0.04761(15) 0.57282(12)
F5 F 0.09327(14) 0.06163(13) 0.49128(10)
O1 O 0.24696(14) -0.03345(10) 0.51083(10)
N1 N 0.22834(16) 0.07948(13) 0.52218(12)
H1 H 0.241374 0.121124 0.513019
N2 N 0.30094(13) 0.04293(11) 0.45063(10)
H2 H 0.310763 0.086506 0.446724
N3 N 0.20456(11) 0.15471(11) 0.32224(9)
C1 C 0.19172(19) 0.06620(18) 0.62397(16)
C2 C 0.1413(2) 0.0584(2) 0.66564(15)
C3 C 0.07478(19) 0.05314(17) 0.64827(15)
C4 C 0.05853(19) 0.05523(19) 0.58960(17)
C5 C 0.1091(2) 0.06243(17) 0.54819(15)
C6 C 0.17682(19) 0.06926(15) 0.56473(15)
C7 C 0.25795(16) 0.02465(14) 0.49521(13)
C8 C 0.33079(13) -0.00308(13) 0.41031(12)
C9 C 0.35876(14) -0.06448(14) 0.42910(14)
H3 H 0.358691 -0.075787 0.469854
C10 C 0.38663(14) -0.10902(14) 0.38865(14)
H4 H 0.405414 -0.151111 0.401622
C11 C 0.38735(16) -0.09285(15) 0.32972(15)
H5 H 0.405209 -0.124278 0.301790
C12 C 0.36186(16) -0.03033(15) 0.31114(14)
H6 H 0.363814 -0.018765 0.270478
C13 C 0.33365(13) 0.01545(13) 0.35072(12)
C14 C 0.30850(14) 0.08457(13) 0.33225(11)
C15 C 0.23781(13) 0.09415(13) 0.32911(11)
C16 C 0.18838(14) 0.04103(14) 0.33803(13)
H7 H 0.197820 -0.006195 0.342748
C17 C 0.12640(14) 0.07023(14) 0.33848(13)
H8 H 0.084005 0.047601 0.343919
C18 C 0.13618(13) 0.14214(13) 0.32921(11)
F1A F 0.42943(14) 0.25647(12) 0.64187(10)
F2A F 0.44606(16) 0.15764(14) 0.72281(9)
F3A F 0.45688(13) 0.02553(12) 0.68823(10)
F4A F 0.45239(15) -0.00666(13) 0.57282(12)
F5A F 0.43837(13) 0.09327(14) 0.49128(10)
O1A O 0.53345(10) 0.24696(14) 0.51083(10)
N1A N 0.42052(13) 0.22834(16) 0.52218(12)
H1A H 0.378876 0.241374 0.513019
N2A N 0.45707(11) 0.30094(13) 0.45063(10)
H2A H 0.413494 0.310763 0.446724
N3A N 0.34529(11) 0.20456(11) 0.32224(9)
C1A C 0.43380(18) 0.19172(19) 0.62397(16)
C2A C 0.4416(2) 0.1413(2) 0.66564(15)
C3A C 0.44686(17) 0.07478(19) 0.64827(15)
C4A C 0.44477(19) 0.05853(19) 0.58960(17)
C5A C 0.43757(17) 0.1091(2) 0.54819(15)
C6A C 0.43074(15) 0.17682(19) 0.56473(15)
C7A C 0.47535(14) 0.25795(16) 0.49521(13)
C8A C 0.50308(13) 0.33079(13) 0.41031(12)
C9A C 0.56448(14) 0.35876(14) 0.42910(14)
H3A H 0.575787 0.358691 0.469854
C10A C 0.60902(14) 0.38663(14) 0.38865(14)
H4A H 0.651111 0.405414 0.401622
C11A C 0.59285(15) 0.38735(16) 0.32972(15)
H5A H 0.624278 0.405209 0.301790
C12A C 0.53033(15) 0.36186(16) 0.31114(14)
H6A H 0.518765 0.363814 0.270478
C13A C 0.48455(13) 0.33365(13) 0.35072(12)
C14A C 0.41543(13) 0.30850(14) 0.33225(11)
C15A C 0.40585(13) 0.23781(13) 0.32911(11)
C16A C 0.45897(14) 0.18838(14) 0.33803(13)
H7A H 0.506195 0.197820 0.342748
C17A C 0.42977(14) 0.12640(14) 0.33848(13)
H8A H 0.452399 0.084005 0.343919
C18A C 0.35786(13) 0.13618(13) 0.32921(11)
F1C F 0.07057(14) 0.24353(12) 0.64187(10)
F2C F 0.05394(16) 0.34236(14) 0.72281(9)
F3C F 0.04312(13) 0.47447(12) 0.68823(10)
F4C F 0.04761(15) 0.50666(13) 0.57282(12)
F5C F 0.06163(13) 0.40673(14) 0.49128(10)
O1C O -0.03345(10) 0.25304(14) 0.51083(10)
N1C N 0.07948(13) 0.27166(16) 0.52218(12)
H1C H 0.121124 0.258626 0.513019
N2C N 0.04293(11) 0.19906(13) 0.45063(10)
H2C H 0.086506 0.189237 0.446724
N3C N 0.15471(11) 0.29544(11) 0.32224(9)
C1C C 0.06620(18) 0.30828(19) 0.62397(16)
C2C C 0.0584(2) 0.3587(2) 0.66564(15)
C3C C 0.05314(17) 0.42522(19) 0.64827(15)
C4C C 0.05523(19) 0.44147(19) 0.58960(17)
C5C C 0.06243(17) 0.3909(2) 0.54819(15)
C6C C 0.06926(15) 0.32318(19) 0.56473(15)
C7C C 0.02465(14) 0.24205(16) 0.49521(13)
C8C C -0.00308(13) 0.16921(13) 0.41031(12)
C9C C -0.06448(14) 0.14124(14) 0.42910(14)
H3C H -0.075787 0.141309 0.469854
C10C C -0.10902(14) 0.11337(14) 0.38865(14)
H4C H -0.151111 0.094586 0.401622
C11C C -0.09285(15) 0.11265(16) 0.32972(15)
H5C H -0.124278 0.094791 0.301790
C12C C -0.03033(15) 0.13814(16) 0.31114(14)
H6C H -0.018765 0.136186 0.270478
C13C C 0.01545(13) 0.16635(13) 0.35072(12)
C14C C 0.08457(13) 0.19150(14) 0.33225(11)
C15C C 0.09415(13) 0.26219(13) 0.32911(11)
C16C C 0.04103(14) 0.31162(14) 0.33803(13)
H7C H -0.006195 0.302180 0.342748
C17C C 0.07023(14) 0.37360(14) 0.33848(13)
H8C H 0.047601 0.415995 0.343919
C18C C 0.14214(13) 0.36382(13) 0.32921(11)
F1B F 0.24353(12) 0.42943(14) 0.64187(10)
F2B F 0.34236(14) 0.44606(16) 0.72281(9)
F3B F 0.47447(12) 0.45688(13) 0.68823(10)
F4B F 0.50666(13) 0.45239(15) 0.57282(12)
F5B F 0.40673(14) 0.43837(13) 0.49128(10)
O1B O 0.25304(14) 0.53345(10) 0.51083(10)
N1B N 0.27166(16) 0.42052(13) 0.52218(12)
H1B H 0.258626 0.378876 0.513019
N2B N 0.19906(13) 0.45707(11) 0.45063(10)
H2B H 0.189237 0.413494 0.446724
N3B N 0.29544(11) 0.34529(11) 0.32224(9)
C1B C 0.30828(19) 0.43380(18) 0.62397(16)
C2B C 0.3587(2) 0.4416(2) 0.66564(15)
C3B C 0.42522(19) 0.44686(17) 0.64827(15)
C4B C 0.44147(19) 0.44477(19) 0.58960(17)
C5B C 0.3909(2) 0.43757(17) 0.54819(15)
C6B C 0.32318(19) 0.43074(15) 0.56473(15)
C7B C 0.24205(16) 0.47535(14) 0.49521(13)
C8B C 0.16921(13) 0.50308(13) 0.41031(12)
C9B C 0.14124(14) 0.56448(14) 0.42910(14)
H3B H 0.141309 0.575787 0.469854
C10B C 0.11337(14) 0.60902(14) 0.38865(14)
H4B H 0.094586 0.651111 0.401622
C11B C 0.11265(16) 0.59285(15) 0.32972(15)
H5B H 0.094791 0.624278 0.301790
C12B C 0.13814(16) 0.53033(15) 0.31114(14)
H6B H 0.136186 0.518765 0.270478
C13B C 0.16635(13) 0.48455(13) 0.35072(12)
C14B C 0.19150(14) 0.41543(13) 0.33225(11)
C15B C 0.26219(13) 0.40585(13) 0.32911(11)
C16B C 0.31162(14) 0.45897(14) 0.33803(13)
H7B H 0.302180 0.506195 0.342748
C17B C 0.37360(14) 0.42977(14) 0.33848(13)
H8B H 0.415995 0.452399 0.343919
C18B C 0.36382(13) 0.35786(13) 0.32921(11)
C23? C 0.250000 0.250000 0.6095(4)
C24? C 0.2847(9) 0.252(3) 0.6756(8)
C25? C 0.250000 0.250000 0.7184(6)
O2? O 0.2013(3) 0.2056(3) 0.45690(18)
N5? N 0.250000 0.250000 0.4564(2)
H18? H 0.223461 0.194504 0.314736
loop_
_geom_bond_atom_site_label_1
_geom_bond_atom_site_label_2
_geom_bond_site_symmetry_1
_geom_bond_site_symmetry_2
F1 C1 1_555 1_555
F2 C2 1_555 1_555
F3 C3 1_555 1_555
F4 C4 1_555 1_555
F5 C5 1_555 1_555
O1 C7 1_555 1_555
N1 H1 1_555 1_555
N2 H2 1_555 1_555
N3 C15 1_555 1_555
C1 C2 1_555 1_555
C2 C3 1_555 1_555
C3 C4 1_555 1_555
C4 C5 1_555 1_555
C5 C6 1_555 1_555
C6 N1 1_555 1_555
C7 N1 1_555 1_555
C8 N2 1_555 1_555
C9 C8 1_555 1_555
H3 C9 1_555 1_555
C10 C9 1_555 1_555
H4 C10 1_555 1_555
C11 C10 1_555 1_555
H5 C11 1_555 1_555
C12 C11 1_555 1_555
H6 C12 1_555 1_555
C13 C8 1_555 1_555
C14 C13 1_555 1_555
C15 C14 1_555 1_555
C16 C15 1_555 1_555
H7 C16 1_555 1_555
C17 C16 1_555 1_555
H8 C17 1_555 1_555
C18 N3 1_555 1_555
N4 C22 1_555 1_555
C19 H9 1_555 1_555
H10 C19 1_555 1_555
H11 C19 1_555 1_555
C20 C19 1_555 1_555
H12 C20 1_555 1_555
H13 C20 1_555 1_555
C21 C20 1_555 1_555
H14 C21 1_555 1_555
H15 C21 1_555 1_555
C22 C21 1_555 1_555
H16 C22 1_555 1_555
H17 C22 1_555 1_555
F1A C1A 1_555 1_555
F2A C2A 1_555 1_555
F3A C3A 1_555 1_555
F4A C4A 1_555 1_555
F5A C5A 1_555 1_555
O1A C7A 1_555 1_555
N1A H1A 1_555 1_555
N2A H2A 1_555 1_555
N3A C15A 1_555 1_555
C1A C2A 1_555 1_555
C2A C3A 1_555 1_555
C3A C4A 1_555 1_555
C4A C5A 1_555 1_555
C5A C6A 1_555 1_555
C6A N1A 1_555 1_555
C7A N1A 1_555 1_555
C8A N2A 1_555 1_555
C9A C8A 1_555 1_555
H3A C9A 1_555 1_555
C10A C9A 1_555 1_555
H4A C10A 1_555 1_555
C11A C10A 1_555 1_555
H5A C11A 1_555 1_555
C12A C11A 1_555 1_555
H6A C12A 1_555 1_555
C13A C8A 1_555 1_555
C14A C13A 1_555 1_555
C15A C14A 1_555 1_555
C16A C15A 1_555 1_555
H7A C16A 1_555 1_555
C17A C16A 1_555 1_555
H8A C17A 1_555 1_555
C18A C14 1_555 1_555
F1C C1C 1_555 1_555
F2C C2C 1_555 1_555
F3C C3C 1_555 1_555
F4C C4C 1_555 1_555
F5C C5C 1_555 1_555
O1C C7C 1_555 1_555
N1C H1C 1_555 1_555
N2C H2C 1_555 1_555
N3C C15C 1_555 1_555
C1C C2C 1_555 1_555
C2C C3C 1_555 1_555
C3C C4C 1_555 1_555
C4C C5C 1_555 1_555
C5C C6C 1_555 1_555
C6C N1C 1_555 1_555
C7C N1C 1_555 1_555
C8C N2C 1_555 1_555
C9C C8C 1_555 1_555
H3C C9C 1_555 1_555
C10C C9C 1_555 1_555
H4C C10C 1_555 1_555
C11C C10C 1_555 1_555
H5C C11C 1_555 1_555
C12C C11C 1_555 1_555
H6C C12C 1_555 1_555
C13C C8C 1_555 1_555
C14C C18 1_555 1_555
C15C C14C 1_555 1_555
C16C C15C 1_555 1_555
H7C C16C 1_555 1_555
C17C C16C 1_555 1_555
H8C C17C 1_555 1_555
C18C N3C 1_555 1_555
F1B C1B 1_555 1_555
F2B C2B 1_555 1_555
F3B C3B 1_555 1_555
F4B C4B 1_555 1_555
F5B C5B 1_555 1_555
O1B C7B 1_555 1_555
N1B H1B 1_555 1_555
N2B H2B 1_555 1_555
N3B C15B 1_555 1_555
C1B C2B 1_555 1_555
C2B C3B 1_555 1_555
C3B C4B 1_555 1_555
C4B C5B 1_555 1_555
C5B C6B 1_555 1_555
C6B N1B 1_555 1_555
C7B N1B 1_555 1_555
C8B N2B 1_555 1_555
C9B C8B 1_555 1_555
H3B C9B 1_555 1_555
C10B C9B 1_555 1_555
H4B C10B 1_555 1_555
C11B C10B 1_555 1_555
H5B C11B 1_555 1_555
C12B C11B 1_555 1_555
H6B C12B 1_555 1_555
C13B C8B 1_555 1_555
C14B C18C 1_555 1_555
C15B C14B 1_555 1_555
C16B C15B 1_555 1_555
H7B C16B 1_555 1_555
C17B C16B 1_555 1_555
H8B C17B 1_555 1_555
C18B C14A 1_555 1_555
C19B H9B 1_555 1_555
H10B C19B 1_555 1_555
H11B C19B 1_555 1_555
C20B C19B 1_555 1_555
H12B C20B 1_555 1_555
H13B C20B 1_555 1_555
C21B C20B 1_555 1_555
H14B C21B 1_555 1_555
H15B C21B 1_555 1_555
C22B N4 1_555 1_555
H16B C22B 1_555 1_555
H17B C22B 1_555 1_555
C19I H9I 1_555 1_555
H10I C19I 1_555 1_555
H11I C19I 1_555 1_555
C20I C19I 1_555 1_555
H12I C20I 1_555 1_555
H13I C20I 1_555 1_555
C21I C20I 1_555 1_555
H14I C21I 1_555 1_555
H15I C21I 1_555 1_555
C22I N4 1_555 1_555
H16I C22I 1_555 1_555
H17I C22I 1_555 1_555
C19K H9K 1_555 1_555
H10K C19K 1_555 1_555
H11K C19K 1_555 1_555
C20K C19K 1_555 1_555
H12K C20K 1_555 1_555
H13K C20K 1_555 1_555
C21K C20K 1_555 1_555
H14K C21K 1_555 1_555
H15K C21K 1_555 1_555
C22K N4 1_555 1_555
H16K C22K 1_555 1_555
H17K C22K 1_555 1_555
N2 C7 1_555 1_555
C1 C6 1_555 1_555
C12 C13 1_555 1_555
C17 C18 1_555 1_555
N2A C7A 1_555 1_555
N3A C18A 1_555 1_555
C1A C6A 1_555 1_555
C12A C13A 1_555 1_555
C17A C18A 1_555 1_555
N2C C7C 1_555 1_555
C1C C6C 1_555 1_555
C12C C13C 1_555 1_555
C13C C14C 1_555 1_555
C17C C18C 1_555 1_555
N2B C7B 1_555 1_555
N3B C18B 1_555 1_555
C1B C6B 1_555 1_555
C12B C13B 1_555 1_555
C13B C14B 1_555 1_555
C17B C18B 1_555 1_555
C21B C22B 1_555 1_555
C21I C22I 1_555 1_555
C21K C22K 1_555 1_555

#END
