
#######################################################################
#
#                 Cambridge Crystallographic Data Centre
#                                CCDC 
#
#######################################################################
#
# If this CIF has been generated from an entry in the Cambridge 
# Structural Database, then it will include bibliographic, chemical, 
# crystal, experimental, refinement or atomic coordinate data resulting 
# from the CCDC's data processing and validation procedures.
#
#######################################################################

data_BEWPAV
_chemical_formula_moiety         'C19 H16 O2'
_chemical_name_systematic        
(1S,2R)-2,3-Dihydro-1-phenyl-1H-naphtho(2,1-b)pyran-2-ol
_symmetry_cell_setting           monoclinic
_symmetry_space_group_name_H-M   'P 21'
_symmetry_Int_Tables_number      4
_space_group_name_Hall           'P 2yb'
loop_
_symmetry_equiv_pos_site_id
_symmetry_equiv_pos_as_xyz
1 x,y,z
2 -x,1/2+y,-z
_cell_length_a                   5.582(3)
_cell_length_b                   8.991(6)
_cell_length_c                   13.574(8)
_cell_angle_alpha                90
_cell_angle_beta                 96.75(2)
_cell_angle_gamma                90
_cell_volume                     676.527
_exptl_crystal_colour            colorless
_exptl_crystal_description       plate
_cell_formula_units_Z            2
loop_
_atom_site_label
_atom_site_type_symbol
_atom_site_fract_x
_atom_site_fract_y
_atom_site_fract_z
C1 C 0.3449(5) -0.1618(3) -0.2469(2)
C2 C 0.5488(5) -0.2325(4) -0.2036(2)
C3 C 0.6925(5) -0.3230(3) -0.2583(2)
H1 H 0.8320 -0.3706 -0.2258
C4 C 0.6317(5) -0.3421(4) -0.3568(2)
H2 H 0.7299 -0.4025 -0.3931
C5 C 0.3569(5) -0.2942(3) -0.5096(2)
H3 H 0.4516 -0.3567 -0.5461
C6 C 0.1581(5) -0.2255(4) -0.5569(2)
H4 H 0.1150 -0.2404 -0.6260
C7 C 0.0151(5) -0.1316(4) -0.5029(2)
H5 H -0.1234 -0.0838 -0.5360
C8 C 0.0765(5) -0.1102(4) -0.4040(2)
H6 H -0.0194 -0.0462 -0.3691
C9 C 0.4240(5) -0.2734(3) -0.4065(2)
C10 C 0.2808(5) -0.1813(3) -0.3515(2)
C11 C 0.1893(5) -0.0710(3) -0.1849(2)
H7 H 0.0180 -0.0989 -0.2071
C12 C 0.2409(5) -0.1180(3) -0.0759(2)
H8 H 0.1648 -0.0450 -0.0335
C13 C 0.5096(5) -0.1221(4) -0.0448(2)
H9 H 0.5773 -0.0214 -0.0516
H10 H 0.5400 -0.1511 0.0259
C14 C 0.2061(5) 0.0953(3) -0.1965(2)
C15 C 0.3895(5) 0.1638(4) -0.2426(2)
H11 H 0.5091 0.1043 -0.2678
C16 C 0.3983(5) 0.3163(3) -0.2517(2)
H12 H 0.5231 0.3602 -0.2838
C17 C 0.2298(5) 0.4062(4) -0.2153(2)
H13 H 0.2366 0.5112 -0.2220
C18 C 0.0481(5) 0.3389(3) -0.1682(2)
H14 H -0.0680 0.3995 -0.1416
C19 C 0.0341(5) 0.1876(3) -0.1595(2)
H15 H -0.0928 0.1446 -0.1282
O1 O 0.6302(3) -0.2249(2) -0.10323(14)
O2 O 0.1521(3) -0.2638(2) -0.05891(15)
H16 H 0.0012 -0.2648 -0.0719
loop_
_geom_bond_atom_site_label_1
_geom_bond_atom_site_label_2
_geom_bond_site_symmetry_1
_geom_bond_site_symmetry_2
C1 C2 1_555 1_555
C2 C3 1_555 1_555
C3 H1 1_555 1_555
C4 C3 1_555 1_555
H2 C4 1_555 1_555
C5 H3 1_555 1_555
C6 C5 1_555 1_555
H4 C6 1_555 1_555
C7 C6 1_555 1_555
H5 C7 1_555 1_555
C8 C7 1_555 1_555
H6 C8 1_555 1_555
C9 C4 1_555 1_555
C10 C1 1_555 1_555
C11 C1 1_555 1_555
H7 C11 1_555 1_555
C12 C11 1_555 1_555
H8 C12 1_555 1_555
C13 C12 1_555 1_555
H9 C13 1_555 1_555
H10 C13 1_555 1_555
C14 C11 1_555 1_555
C15 C14 1_555 1_555
H11 C15 1_555 1_555
C16 C15 1_555 1_555
H12 C16 1_555 1_555
C17 C16 1_555 1_555
H13 C17 1_555 1_555
C18 C17 1_555 1_555
H14 C18 1_555 1_555
C19 C14 1_555 1_555
H15 C19 1_555 1_555
O1 C2 1_555 1_555
O2 C12 1_555 1_555
H16 O2 1_555 1_555
C5 C9 1_555 1_555
C8 C10 1_555 1_555
C9 C10 1_555 1_555
C13 O1 1_555 1_555
C18 C19 1_555 1_555

#END
