
#######################################################################
#
#                 Cambridge Crystallographic Data Centre
#                                CCDC 
#
#######################################################################
#
# If this CIF has been generated from an entry in the Cambridge 
# Structural Database, then it will include bibliographic, chemical, 
# crystal, experimental, refinement or atomic coordinate data resulting 
# from the CCDC's data processing and validation procedures.
#
#######################################################################

data_BEWRUT
_chemical_formula_moiety         'C16 H10 Cl1 F1 N2 O1'
_chemical_name_systematic        4-chloro-N-(5-fluoroquinolin-8-yl)benzamide
_symmetry_cell_setting           triclinic
_symmetry_space_group_name_H-M   'P -1'
_symmetry_Int_Tables_number      2
_space_group_name_Hall           '-P 1'
loop_
_symmetry_equiv_pos_site_id
_symmetry_equiv_pos_as_xyz
1 x,y,z
2 -x,-y,-z
_cell_length_a                   7.6576(13)
_cell_length_b                   10.1949(14)
_cell_length_c                   10.3237(15)
_cell_angle_alpha                115.042(4)
_cell_angle_beta                 92.445(5)
_cell_angle_gamma                108.132(4)
_cell_volume                     679.551
_exptl_crystal_colour            colorless
_exptl_crystal_description       block
_cell_formula_units_Z            2
loop_
_atom_site_label
_atom_site_type_symbol
_atom_site_fract_x
_atom_site_fract_y
_atom_site_fract_z
C1 C 0.1394(4) 0.3779(3) 0.3100(3)
H1 H 0.1305 0.4345 0.2609
C2 C -0.0103(4) 0.3259(3) 0.3683(3)
H2 H -0.1187 0.3467 0.3586
C3 C 0.0048(4) 0.2424(3) 0.4412(3)
C4 C 0.1636(4) 0.2087(3) 0.4536(3)
H3 H 0.1713 0.1510 0.5018
C5 C 0.3105(4) 0.2607(3) 0.3943(3)
H4 H 0.4171 0.2371 0.4021
C6 C 0.3025(3) 0.3483(2) 0.3225(2)
C7 C 0.4695(3) 0.4035(2) 0.2642(2)
C8 C 0.6222(3) 0.6001(2) 0.1822(2)
C9 C 0.7777(3) 0.5655(3) 0.1466(3)
H5 H 0.7933 0.4809 0.1520
C10 C 0.9146(4) 0.6573(3) 0.1017(3)
H6 H 1.0213 0.6346 0.0790
C11 C 0.8897(4) 0.7779(3) 0.0919(3)
C12 C 0.7335(3) 0.8198(2) 0.1258(2)
C13 C 0.5976(3) 0.7294(2) 0.1734(2)
C14 C 0.4230(4) 0.8827(3) 0.2066(3)
H7 H 0.3191 0.9070 0.2357
C15 C 0.5475(4) 0.9765(3) 0.1581(3)
H8 H 0.5248 1.0591 0.1537
C16 C 0.7029(4) 0.9450(3) 0.1172(2)
H9 H 0.7873 1.0056 0.0842
Cl1 Cl -0.17882(12) 0.18229(10) 0.52072(8)
F1 F 1.0227(2) 0.86654(18) 0.04859(18)
N1 N 0.4791(3) 0.52061(19) 0.2318(2)
H10 H 0.3848 0.5503 0.2431
N2 N 0.4435(3) 0.7621(2) 0.2137(2)
O1 O 0.5904(3) 0.34610(19) 0.2479(2)
loop_
_geom_bond_atom_site_label_1
_geom_bond_atom_site_label_2
_geom_bond_site_symmetry_1
_geom_bond_site_symmetry_2
C1 H1 1_555 1_555
C2 C1 1_555 1_555
H2 C2 1_555 1_555
C3 C2 1_555 1_555
C4 C3 1_555 1_555
H3 C4 1_555 1_555
C5 C4 1_555 1_555
H4 C5 1_555 1_555
C6 C1 1_555 1_555
C7 C6 1_555 1_555
C8 C9 1_555 1_555
C9 H5 1_555 1_555
C10 C9 1_555 1_555
H6 C10 1_555 1_555
C11 C10 1_555 1_555
C12 C11 1_555 1_555
C13 C8 1_555 1_555
C14 H7 1_555 1_555
C15 C14 1_555 1_555
H8 C15 1_555 1_555
C16 C12 1_555 1_555
H9 C16 1_555 1_555
Cl1 C3 1_555 1_555
F1 C11 1_555 1_555
N1 C7 1_555 1_555
H10 N1 1_555 1_555
N2 C13 1_555 1_555
O1 C7 1_555 1_555
C5 C6 1_555 1_555
C8 N1 1_555 1_555
C12 C13 1_555 1_555
C14 N2 1_555 1_555
C15 C16 1_555 1_555

#END
