
#######################################################################
#
#                 Cambridge Crystallographic Data Centre
#                                CCDC 
#
#######################################################################
#
# If this CIF has been generated from an entry in the Cambridge 
# Structural Database, then it will include bibliographic, chemical, 
# crystal, experimental, refinement or atomic coordinate data resulting 
# from the CCDC's data processing and validation procedures.
#
#######################################################################

data_BEWXUY
_chemical_formula_moiety         'C15 H8 F3 N1'
_chemical_name_systematic        2-(2,4,5-Trifluorophenyl)quinoline
_symmetry_cell_setting           monoclinic
_symmetry_space_group_name_H-M   'P 21/c'
_symmetry_Int_Tables_number      14
_space_group_name_Hall           '-P 2ybc'
loop_
_symmetry_equiv_pos_site_id
_symmetry_equiv_pos_as_xyz
1 x,y,z
2 -x,1/2+y,1/2-z
3 -x,-y,-z
4 x,1/2-y,1/2+z
_cell_length_a                   13.384(3)
_cell_length_b                   3.8751(8)
_cell_length_c                   22.231(4)
_cell_angle_alpha                90
_cell_angle_beta                 97.43(3)
_cell_angle_gamma                90
_cell_volume                     1143.32
_exptl_crystal_colour            colorless
_exptl_crystal_description       sheet
_cell_formula_units_Z            4
loop_
_atom_site_label
_atom_site_type_symbol
_atom_site_fract_x
_atom_site_fract_y
_atom_site_fract_z
F1 F 0.47454(7) 0.1223(3) 0.33507(5)
F2 F 0.37178(9) -0.3842(3) 0.50795(4)
F3 F 0.18232(8) -0.4366(3) 0.45134(4)
N1 N 0.18732(8) 0.2154(3) 0.25445(5)
C1 C 0.27667(10) 0.0709(3) 0.26703(6)
C2 C 0.34293(11) 0.0138(4) 0.22334(7)
H1 H 0.4055 -0.0881 0.2343
C3 C 0.31336(12) 0.1105(4) 0.16518(7)
H2 H 0.3553 0.0704 0.1357
C4 C 0.21961(11) 0.2710(4) 0.14937(6)
C5 C 0.18435(14) 0.3858(5) 0.08987(7)
H3 H 0.2238 0.3538 0.0588
C6 C 0.09313(15) 0.5423(5) 0.07799(8)
H4 H 0.0707 0.6177 0.0389
C7 C 0.03259(14) 0.5912(4) 0.12408(9)
H5 H -0.0296 0.6990 0.1152
C8 C 0.06350(11) 0.4828(4) 0.18212(7)
H6 H 0.0224 0.5163 0.2123
C9 C 0.15811(10) 0.3196(3) 0.19598(6)
C10 C 0.30388(10) -0.0458(3) 0.33090(6)
C11 C 0.40018(10) -0.0223(4) 0.36220(7)
C12 C 0.42506(11) -0.1326(5) 0.42116(7)
H7 H 0.4906 -0.1133 0.4406
C13 C 0.35068(13) -0.2708(4) 0.45010(7)
C14 C 0.25361(11) -0.2971(4) 0.42121(7)
C15 C 0.23036(10) -0.1871(4) 0.36255(6)
H8 H 0.1645 -0.2070 0.3435
loop_
_geom_bond_atom_site_label_1
_geom_bond_atom_site_label_2
_geom_bond_site_symmetry_1
_geom_bond_site_symmetry_2
F1 C11 1_555 1_555
F2 C13 1_555 1_555
F3 C14 1_555 1_555
N1 C1 1_555 1_555
C1 C2 1_555 1_555
C2 H1 1_555 1_555
C3 C2 1_555 1_555
H2 C3 1_555 1_555
C4 C3 1_555 1_555
C5 C4 1_555 1_555
H3 C5 1_555 1_555
C6 C5 1_555 1_555
H4 C6 1_555 1_555
C7 C6 1_555 1_555
H5 C7 1_555 1_555
C8 C7 1_555 1_555
H6 C8 1_555 1_555
C9 N1 1_555 1_555
C10 C1 1_555 1_555
C11 C10 1_555 1_555
C12 C11 1_555 1_555
H7 C12 1_555 1_555
C13 C12 1_555 1_555
C14 C13 1_555 1_555
C15 C10 1_555 1_555
H8 C15 1_555 1_555
C4 C9 1_555 1_555
C8 C9 1_555 1_555
C14 C15 1_555 1_555

#END
