
#######################################################################
#
#                 Cambridge Crystallographic Data Centre
#                                CCDC 
#
#######################################################################
#
# If this CIF has been generated from an entry in the Cambridge 
# Structural Database, then it will include bibliographic, chemical, 
# crystal, experimental, refinement or atomic coordinate data resulting 
# from the CCDC's data processing and validation procedures.
#
#######################################################################

data_BEXDUD01
_chemical_formula_moiety         'C22 H34 N4 O4'
_chemical_name_systematic        
1-(2,4-dinitrophenyl)-2-(3-methylcyclopentadecylidene)hydrazine
_symmetry_cell_setting           monoclinic
_symmetry_space_group_name_H-M   'P 21'
_symmetry_Int_Tables_number      4
_space_group_name_Hall           'P 2yb'
loop_
_symmetry_equiv_pos_site_id
_symmetry_equiv_pos_as_xyz
1 x,y,z
2 -x,1/2+y,-z
_cell_length_a                   8.210(17)
_cell_length_b                   6.432(16)
_cell_length_c                   20.95(5)
_cell_angle_alpha                90
_cell_angle_beta                 90.76(7)
_cell_angle_gamma                90
_cell_volume                     1106.2
_exptl_crystal_colour            orange
_exptl_crystal_description       platelet
_cell_formula_units_Z            2
loop_
_atom_site_label
_atom_site_type_symbol
_atom_site_fract_x
_atom_site_fract_y
_atom_site_fract_z
O1 O -0.0013(7) 0.280(2) 0.4699(4)
O2 O -0.0016(8) 0.297(2) 0.5733(4)
O3 O 0.4716(9) 0.286(2) 0.6991(4)
O4 O 0.7107(7) 0.288(2) 0.6567(4)
N1 N 0.3656(8) 0.307(2) 0.3546(4)
N2 N 0.0707(9) 0.280(2) 0.5222(5)
N3 N 0.5595(10) 0.290(2) 0.6513(4)
N4 N 0.2719(8) 0.280(2) 0.4085(4)
C1 C 0.2902(11) 0.294(3) 0.3012(6)
C2 C 0.1119(12) 0.229(3) 0.2941(8)
H1 H 0.0913 0.1126 0.3239
H2 H 0.0935 0.1760 0.2502
C3 C -0.0147(12) 0.406(3) 0.3072(7)
H3 H 0.0211 0.4576 0.3501
C4 C -0.020(3) 0.595(4) 0.2696(9)
H4 H 0.0934 0.6437 0.2632
H5 H -0.0773 0.7033 0.2940
C5 C -0.103(4) 0.571(3) 0.2046(10)
H6 H -0.2066 0.4945 0.2097
H7 H -0.0323 0.4881 0.1763
C6 C -0.137(2) 0.783(3) 0.1740(9)
H8 H -0.2380 0.7781 0.1476
H9 H -0.1492 0.8914 0.2071
C7 C 0.010(3) 0.828(5) 0.1325(11)
H10 H 0.1113 0.7973 0.1571
H11 H 0.0114 0.9774 0.1211
C8 C 0.007(3) 0.697(4) 0.0713(16)
H12 H 0.0006 0.5495 0.0843
H13 H -0.0961 0.7298 0.0483
C9 C 0.145(4) 0.715(7) 0.0231(14)
H14 H 0.1223 0.6194 -0.0129
H15 H 0.1458 0.8587 0.0058
C10 C 0.312(3) 0.666(4) 0.0515(18)
H16 H 0.3271 0.7457 0.0915
H17 H 0.3965 0.7112 0.0213
C11 C 0.334(3) 0.434(4) 0.0656(16)
H18 H 0.3415 0.3549 0.0253
H19 H 0.2396 0.3809 0.0898
C12 C 0.493(3) 0.411(5) 0.1056(11)
H20 H 0.5864 0.4292 0.0769
H21 H 0.4970 0.5241 0.1375
C13 C 0.511(2) 0.214(4) 0.1386(10)
H22 H 0.6229 0.2075 0.1568
H23 H 0.5008 0.1009 0.1068
C14 C 0.3905(18) 0.172(3) 0.1924(8)
H24 H 0.2799 0.1579 0.1735
H25 H 0.4189 0.0374 0.2127
C15 C 0.3869(13) 0.336(3) 0.2427(7)
H26 H 0.3443 0.4649 0.2228
H27 H 0.5007 0.3640 0.2563
C16 C 0.3408(9) 0.282(2) 0.4670(5)
C17 C 0.2489(9) 0.286(2) 0.5234(5)
C18 C 0.3214(11) 0.292(2) 0.5830(5)
H28 H 0.2558 0.3024 0.6199
C19 C 0.4867(10) 0.284(2) 0.5894(5)
C20 C 0.5840(9) 0.288(2) 0.5342(5)
H29 H 0.6994 0.2892 0.5383
C21 C 0.5128(9) 0.290(2) 0.4760(5)
H30 H 0.5799 0.2961 0.4395
C22 C -0.1754(12) 0.291(3) 0.3226(7)
H31 H -0.2083 0.2051 0.2861
H32 H -0.2607 0.3937 0.3312
H33 H -0.1588 0.2030 0.3602
H34 H 0.155(3) 0.257(17) 0.403(4)
loop_
_geom_bond_atom_site_label_1
_geom_bond_atom_site_label_2
_geom_bond_site_symmetry_1
_geom_bond_site_symmetry_2
O1 N2 1_555 1_555
O2 N2 1_555 1_555
O3 N3 1_555 1_555
O4 N3 1_555 1_555
N1 N4 1_555 1_555
N2 C17 1_555 1_555
N3 C19 1_555 1_555
N4 C16 1_555 1_555
C1 N1 1_555 1_555
C2 C1 1_555 1_555
H1 C2 1_555 1_555
H2 C2 1_555 1_555
C3 C2 1_555 1_555
H3 C3 1_555 1_555
C4 C3 1_555 1_555
H4 C4 1_555 1_555
H5 C4 1_555 1_555
C5 C4 1_555 1_555
H6 C5 1_555 1_555
H7 C5 1_555 1_555
C6 C5 1_555 1_555
H8 C6 1_555 1_555
H9 C6 1_555 1_555
C7 C6 1_555 1_555
H10 C7 1_555 1_555
H11 C7 1_555 1_555
C8 C7 1_555 1_555
H12 C8 1_555 1_555
H13 C8 1_555 1_555
C9 C8 1_555 1_555
H14 C9 1_555 1_555
H15 C9 1_555 1_555
C10 C9 1_555 1_555
H16 C10 1_555 1_555
H17 C10 1_555 1_555
C11 C10 1_555 1_555
H18 C11 1_555 1_555
H19 C11 1_555 1_555
C12 C11 1_555 1_555
H20 C12 1_555 1_555
H21 C12 1_555 1_555
C13 C12 1_555 1_555
H22 C13 1_555 1_555
H23 C13 1_555 1_555
C14 C13 1_555 1_555
H24 C14 1_555 1_555
H25 C14 1_555 1_555
C15 C1 1_555 1_555
H26 C15 1_555 1_555
H27 C15 1_555 1_555
C16 C17 1_555 1_555
C17 C18 1_555 1_555
C18 H28 1_555 1_555
C19 C18 1_555 1_555
C20 C19 1_555 1_555
H29 C20 1_555 1_555
C21 C16 1_555 1_555
H30 C21 1_555 1_555
C22 C3 1_555 1_555
H31 C22 1_555 1_555
H32 C22 1_555 1_555
H33 C22 1_555 1_555
H34 N4 1_555 1_555
C14 C15 1_555 1_555
C20 C21 1_555 1_555

#END
