
#######################################################################
#
#                 Cambridge Crystallographic Data Centre
#                                CCDC 
#
#######################################################################
#
# If this CIF has been generated from an entry in the Cambridge 
# Structural Database, then it will include bibliographic, chemical, 
# crystal, experimental, refinement or atomic coordinate data resulting 
# from the CCDC's data processing and validation procedures.
#
#######################################################################

data_BEXFES
_chemical_formula_moiety         'C40 H20 F1 N3 O2,0.6(C4 H8 O2),0.4(C6 H12)'
_chemical_name_systematic        
"5-(9H-carbazol-9-yl)-6-fluorobenzo[b]dinaphtho[2,1-e:1',2'-g][1,4]dioxocine-4,7-dicarbonitrile ethyl acetate cyclohexane solvate"
_symmetry_cell_setting           orthorhombic
_symmetry_space_group_name_H-M   'P 21 21 21'
_symmetry_Int_Tables_number      19
_space_group_name_Hall           'P 2ac 2ab'
loop_
_symmetry_equiv_pos_site_id
_symmetry_equiv_pos_as_xyz
1 x,y,z
2 1/2-x,-y,1/2+z
3 -x,1/2+y,1/2-z
4 1/2+x,1/2-y,-z
_cell_length_a                   7.8517(2)
_cell_length_b                   19.0723(4)
_cell_length_c                   22.3162(4)
_cell_angle_alpha                90
_cell_angle_beta                 90
_cell_angle_gamma                90
_cell_volume                     3341.85
_exptl_crystal_colour            yellow
_exptl_crystal_description       block
_cell_formula_units_Z            4
loop_
_atom_site_label
_atom_site_type_symbol
_atom_site_fract_x
_atom_site_fract_y
_atom_site_fract_z
O3 O 0.7481(13) 0.6519(5) 0.6303(4)
O4 O 0.7232(14) 0.7337(5) 0.5515(4)
C41 C 0.6443(19) 0.6919(8) 0.5830(6)
C42 C 0.510(2) 0.6618(8) 0.5639(6)
C43 C 0.621(2) 0.7767(8) 0.5063(7)
C44 C 0.614(2) 0.7436(8) 0.4542(6)
F1 F 0.2333(3) 0.25827(11) 0.64239(9)
O1 O 0.4911(3) 0.30814(13) 0.45779(11)
O2 O 0.3293(3) 0.44440(13) 0.45828(11)
N1 N 0.4654(4) 0.15711(17) 0.53844(15)
N2 N 0.1255(5) 0.54804(18) 0.55618(15)
N3 N 0.0942(4) 0.39175(16) 0.65336(13)
C1 C 0.3604(4) 0.28454(19) 0.55058(16)
C2 C 0.2629(5) 0.30580(19) 0.59917(15)
C3 C 0.1931(5) 0.37247(19) 0.60330(15)
C4 C 0.2249(5) 0.41865(19) 0.55511(16)
C5 C 0.3185(5) 0.39812(19) 0.50504(16)
C6 C 0.3894(5) 0.33098(19) 0.50305(16)
C7 C 0.4193(5) 0.21365(19) 0.54533(15)
C8 C 0.1662(5) 0.49045(19) 0.55645(15)
C9 C 0.1382(5) 0.37889(19) 0.71393(15)
C10 C 0.2903(5) 0.3538(2) 0.73787(17)
H1 H 0.3844 0.3424 0.7129
C11 C 0.2989(5) 0.3460(2) 0.79956(17)
H2 H 0.4010 0.3291 0.8173
C12 C 0.1601(6) 0.3626(2) 0.83606(18)
H3 H 0.1688 0.3561 0.8782
C13 C 0.0115(6) 0.3881(2) 0.81233(17)
H4 H -0.0815 0.3999 0.8376
C14 C -0.0005(5) 0.39648(18) 0.75001(17)
C15 C -0.1351(5) 0.42110(18) 0.71102(16)
C16 C -0.3005(5) 0.4443(2) 0.72193(17)
H5 H -0.3418 0.4485 0.7618
C17 C -0.4038(5) 0.4612(2) 0.67348(18)
H6 H -0.5165 0.4776 0.6801
C18 C -0.3422(5) 0.4542(2) 0.61503(18)
H7 H -0.4156 0.4652 0.5825
C19 C -0.1772(5) 0.43174(19) 0.60264(16)
H8 H -0.1366 0.4273 0.5627
C20 C -0.0750(5) 0.41608(18) 0.65170(16)
C21 C 0.4939(5) 0.46155(19) 0.43744(15)
C22 C 0.5634(5) 0.42548(19) 0.39008(16)
C23 C 0.7322(5) 0.4441(2) 0.37141(16)
C24 C 0.8198(5) 0.4069(2) 0.32533(17)
H9 H 0.7647 0.3696 0.3048
C25 C 0.9838(5) 0.4250(2) 0.31053(18)
H10 H 1.0414 0.3998 0.2799
C26 C 1.0676(5) 0.4802(2) 0.33988(19)
H11 H 1.1808 0.4921 0.3289
C27 C 0.9876(5) 0.5167(2) 0.38399(18)
H12 H 1.0456 0.5540 0.4035
C28 C 0.8183(5) 0.4997(2) 0.40138(17)
C29 C 0.7356(5) 0.5361(2) 0.44806(17)
H13 H 0.7925 0.5739 0.4673
C30 C 0.5752(5) 0.5181(2) 0.46609(16)
H14 H 0.5198 0.5432 0.4973
C31 C 0.4209(5) 0.31132(19) 0.39949(16)
C32 C 0.4662(5) 0.36630(19) 0.36326(16)
C33 C 0.4101(5) 0.36423(19) 0.30224(16)
C34 C 0.4423(5) 0.4197(2) 0.26217(17)
H15 H 0.5039 0.4597 0.2755
C35 C 0.3854(6) 0.4166(2) 0.20399(18)
H16 H 0.4064 0.4549 0.1777
C36 C 0.2967(6) 0.3577(2) 0.18291(19)
H17 H 0.2597 0.3558 0.1424
C37 C 0.2638(6) 0.3032(2) 0.22082(18)
H18 H 0.2046 0.2633 0.2062
C38 C 0.3163(5) 0.3051(2) 0.28166(17)
C39 C 0.2724(5) 0.2508(2) 0.32213(18)
H19 H 0.2065 0.2121 0.3086
C40 C 0.3244(5) 0.25373(19) 0.38075(17)
H20 H 0.2955 0.2174 0.4080
C45? C 0.706(4) 0.6530(16) 0.6724(14)
C46? C 0.605(3) 0.6518(12) 0.6062(10)
C47? C 0.498(3) 0.7295(13) 0.6009(10)
C48? C 0.573(3) 0.7874(11) 0.5654(9)
loop_
_geom_bond_atom_site_label_1
_geom_bond_atom_site_label_2
_geom_bond_site_symmetry_1
_geom_bond_site_symmetry_2
F1 C2 1_555 1_555
O1 C6 1_555 1_555
O2 C5 1_555 1_555
N1 C7 1_555 1_555
N2 C8 1_555 1_555
N3 C3 1_555 1_555
C1 C2 1_555 1_555
C2 C3 1_555 1_555
C3 C4 1_555 1_555
C4 C5 1_555 1_555
C5 C6 1_555 1_555
C6 C1 1_555 1_555
C7 C1 1_555 1_555
C8 C4 1_555 1_555
C9 N3 1_555 1_555
C10 C9 1_555 1_555
H1 C10 1_555 1_555
C11 C10 1_555 1_555
H2 C11 1_555 1_555
C12 C11 1_555 1_555
H3 C12 1_555 1_555
C13 C12 1_555 1_555
H4 C13 1_555 1_555
C14 C9 1_555 1_555
C15 C14 1_555 1_555
C16 C15 1_555 1_555
H5 C16 1_555 1_555
C17 C16 1_555 1_555
H6 C17 1_555 1_555
C18 C17 1_555 1_555
H7 C18 1_555 1_555
C19 C18 1_555 1_555
H8 C19 1_555 1_555
C20 N3 1_555 1_555
C21 O2 1_555 1_555
C22 C21 1_555 1_555
C23 C22 1_555 1_555
C24 C23 1_555 1_555
H9 C24 1_555 1_555
C25 C24 1_555 1_555
H10 C25 1_555 1_555
C26 C25 1_555 1_555
H11 C26 1_555 1_555
C27 C26 1_555 1_555
H12 C27 1_555 1_555
C28 C23 1_555 1_555
C29 C28 1_555 1_555
H13 C29 1_555 1_555
C30 C21 1_555 1_555
H14 C30 1_555 1_555
C31 O1 1_555 1_555
C32 C22 1_555 1_555
C33 C32 1_555 1_555
C34 C33 1_555 1_555
H15 C34 1_555 1_555
C35 C34 1_555 1_555
H16 C35 1_555 1_555
C36 C35 1_555 1_555
H17 C36 1_555 1_555
C37 C36 1_555 1_555
H18 C37 1_555 1_555
C38 C33 1_555 1_555
C39 C38 1_555 1_555
H19 C39 1_555 1_555
C40 C31 1_555 1_555
H20 C40 1_555 1_555
O3 C41 1_555 1_555
O4 C41 1_555 1_555
C41 C42 1_555 1_555
C43 O4 1_555 1_555
C44 C43 1_555 1_555
C13 C14 1_555 1_555
C15 C20 1_555 1_555
C19 C20 1_555 1_555
C27 C28 1_555 1_555
C29 C30 1_555 1_555
C31 C32 1_555 1_555
C37 C38 1_555 1_555
C39 C40 1_555 1_555

#END
