
#######################################################################
#
#                 Cambridge Crystallographic Data Centre
#                                CCDC 
#
#######################################################################
#
# If this CIF has been generated from an entry in the Cambridge 
# Structural Database, then it will include bibliographic, chemical, 
# crystal, experimental, refinement or atomic coordinate data resulting 
# from the CCDC's data processing and validation procedures.
#
#######################################################################

data_BEXGUJ
_chemical_compound_source        'Macrolepiota procera'
_chemical_name_common            'Lepiotaprocerin A'
_chemical_formula_moiety         'C32 H44 O6'
_chemical_name_systematic        
'16-(acetyloxy)-3-oxo-1,11-epoxylanosta-1,8,24-trien-26-oic acid'
_symmetry_cell_setting           monoclinic
_symmetry_space_group_name_H-M   'P 21'
_symmetry_Int_Tables_number      4
_space_group_name_Hall           'P 2yb'
loop_
_symmetry_equiv_pos_site_id
_symmetry_equiv_pos_as_xyz
1 x,y,z
2 -x,1/2+y,-z
_cell_length_a                   5.9650(5)
_cell_length_b                   16.1958(11)
_cell_length_c                   14.5295(11)
_cell_angle_alpha                90
_cell_angle_beta                 91.695(5)
_cell_angle_gamma                90
_cell_volume                     1403.05
_exptl_crystal_colour            colorless
_exptl_crystal_description       prism
_cell_formula_units_Z            2
_exptl_crystal_recrystallization_method methanol
loop_
_atom_site_label
_atom_site_type_symbol
_atom_site_fract_x
_atom_site_fract_y
_atom_site_fract_z
O1 O 0.3121(6) 0.5020(2) 0.3041(3)
O2 O 0.3257(6) 0.7566(2) 0.1444(2)
O3 O 0.6025(6) 1.4071(2) 0.2180(3)
H1 H 0.6563 1.4078 0.2721
O4 O 0.7631(6) 1.5184(2) 0.1584(3)
O5 O 0.2621(6) 1.1738(2) 0.2943(2)
O6 O 0.4306(9) 1.2413(3) 0.4114(3)
C1 C 0.2584(8) 0.5758(3) 0.2968(4)
C2 C 0.3245(8) 0.6240(3) 0.2172(3)
H2 H 0.4177 0.6001 0.1725
C3 C 0.2532(8) 0.7021(3) 0.2075(3)
C4 C 0.2325(8) 0.8393(3) 0.1659(3)
H3 H 0.0993 0.8499 0.1242
C5 C 0.4020(8) 0.9086(3) 0.1544(4)
H4 H 0.4078 0.9252 0.0889
H5 H 0.5534 0.8903 0.1753
C6 C 0.3235(8) 0.9817(3) 0.2136(3)
C7 C 0.4686(8) 1.0614(3) 0.2170(3)
H6 H 0.6283 1.0431 0.2243
C8 C 0.4585(8) 1.1224(3) 0.1347(4)
H7 H 0.3080 1.1497 0.1323
C9 C 0.6400(9) 1.1889(3) 0.1504(4)
H8 H 0.7881 1.1653 0.1361
H9 H 0.6445 1.2050 0.2162
C10 C 0.5986(9) 1.2665(4) 0.0910(4)
H10 H 0.5324 1.2499 0.0305
H11 H 0.4897 1.3028 0.1214
C11 C 0.8113(9) 1.3135(3) 0.0765(3)
H12 H 0.9178 1.2846 0.0413
C12 C 0.8783(8) 1.3882(3) 0.1038(4)
C13 C 0.7439(8) 1.4436(4) 0.1623(4)
C14 C 0.4958(10) 1.0802(4) 0.0425(4)
H13 H 0.5252 1.1221 -0.0043
H14 H 0.3616 1.0487 0.0242
H15 H 0.6245 1.0428 0.0485
C15 C 0.3328(8) 0.9550(3) 0.3171(3)
C16 C 0.1898(8) 0.8796(3) 0.3330(4)
C17 C 0.1216(9) 0.8548(3) 0.4293(3)
H16 H 0.0078 0.8943 0.4506
H17 H 0.2543 0.8591 0.4715
C18 C 0.0249(8) 0.7662(3) 0.4356(4)
H18 H 0.0473 0.7447 0.4990
H19 H -0.1381 0.7670 0.4207
C19 C 0.1443(8) 0.7102(3) 0.3677(3)
H20 H 0.3070 0.7235 0.3774
C20 C 0.1317(8) 0.6157(3) 0.3775(4)
C21 C 0.2545(9) 0.5901(4) 0.4666(4)
H21 H 0.4059 0.6137 0.4682
H22 H 0.2644 0.5298 0.4694
H23 H 0.1722 0.6105 0.5194
C22 C 0.1547(7) 0.8285(3) 0.2620(3)
C23 C 0.0877(8) 0.7403(3) 0.2703(3)
C24 C -0.1530(8) 0.7249(4) 0.2310(4)
H24 H -0.2619 0.7394 0.2775
H25 H -0.1701 0.6666 0.2145
H26 H -0.1791 0.7591 0.1761
C25 C -0.1087(8) 0.5798(4) 0.3784(4)
H27 H -0.1017 0.5212 0.3952
H28 H -0.1800 0.5856 0.3172
H29 H -0.1966 0.6098 0.4235
C26 C 0.2749(8) 1.0370(3) 0.3650(4)
H30 H 0.1116 1.0479 0.3610
H31 H 0.3246 1.0362 0.4306
C27 C 0.4052(8) 1.1024(3) 0.3110(4)
H32 H 0.5440 1.1191 0.3465
C28 C 0.2960(9) 1.2399(3) 0.3503(4)
C29 C 0.1371(10) 1.3084(4) 0.3237(4)
H33 H 0.1660 1.3562 0.3636
H34 H -0.0176 1.2896 0.3307
H35 H 0.1594 1.3240 0.2595
C30 C 0.5715(8) 0.9311(3) 0.3524(4)
H36 H 0.5673 0.9161 0.4177
H37 H 0.6728 0.9780 0.3448
H38 H 0.6253 0.8839 0.3170
C31 C 0.0831(8) 1.0066(3) 0.1820(4)
H39 H 0.0767 1.0137 0.1150
H40 H 0.0425 1.0587 0.2117
H41 H -0.0224 0.9633 0.1994
C32 C 1.0941(9) 1.4256(4) 0.0748(4)
H42 H 1.1745 1.3861 0.0368
H43 H 1.1866 1.4394 0.1296
H44 H 1.0629 1.4759 0.0392
loop_
_geom_bond_atom_site_label_1
_geom_bond_atom_site_label_2
_geom_bond_site_symmetry_1
_geom_bond_site_symmetry_2
O1 C1 1_555 1_555
O2 C3 1_555 1_555
O3 H1 1_555 1_555
O4 C13 1_555 1_555
O5 C27 1_555 1_555
O6 C28 1_555 1_555
C1 C2 1_555 1_555
C2 H2 1_555 1_555
C3 C2 1_555 1_555
C4 O2 1_555 1_555
H3 C4 1_555 1_555
C5 C4 1_555 1_555
H4 C5 1_555 1_555
H5 C5 1_555 1_555
C6 C5 1_555 1_555
C7 C6 1_555 1_555
H6 C7 1_555 1_555
C8 C7 1_555 1_555
H7 C8 1_555 1_555
C9 C8 1_555 1_555
H8 C9 1_555 1_555
H9 C9 1_555 1_555
C10 C9 1_555 1_555
H10 C10 1_555 1_555
H11 C10 1_555 1_555
C11 C10 1_555 1_555
H12 C11 1_555 1_555
C12 C11 1_555 1_555
C13 O3 1_555 1_555
C14 C8 1_555 1_555
H13 C14 1_555 1_555
H14 C14 1_555 1_555
H15 C14 1_555 1_555
C15 C6 1_555 1_555
C16 C15 1_555 1_555
C17 C16 1_555 1_555
H16 C17 1_555 1_555
H17 C17 1_555 1_555
C18 C17 1_555 1_555
H18 C18 1_555 1_555
H19 C18 1_555 1_555
C19 C18 1_555 1_555
H20 C19 1_555 1_555
C20 C1 1_555 1_555
C21 C20 1_555 1_555
H21 C21 1_555 1_555
H22 C21 1_555 1_555
H23 C21 1_555 1_555
C22 C4 1_555 1_555
C23 C3 1_555 1_555
C24 C23 1_555 1_555
H24 C24 1_555 1_555
H25 C24 1_555 1_555
H26 C24 1_555 1_555
C25 C20 1_555 1_555
H27 C25 1_555 1_555
H28 C25 1_555 1_555
H29 C25 1_555 1_555
C26 C15 1_555 1_555
H30 C26 1_555 1_555
H31 C26 1_555 1_555
C27 C7 1_555 1_555
H32 C27 1_555 1_555
C28 O5 1_555 1_555
C29 C28 1_555 1_555
H33 C29 1_555 1_555
H34 C29 1_555 1_555
H35 C29 1_555 1_555
C30 C15 1_555 1_555
H36 C30 1_555 1_555
H37 C30 1_555 1_555
H38 C30 1_555 1_555
C31 C6 1_555 1_555
H39 C31 1_555 1_555
H40 C31 1_555 1_555
H41 C31 1_555 1_555
C32 C12 1_555 1_555
H42 C32 1_555 1_555
H43 C32 1_555 1_555
H44 C32 1_555 1_555
C12 C13 1_555 1_555
C16 C22 1_555 1_555
C19 C20 1_555 1_555
C19 C23 1_555 1_555
C22 C23 1_555 1_555
C26 C27 1_555 1_555

#END
