
#######################################################################
#
#                 Cambridge Crystallographic Data Centre
#                                CCDC 
#
#######################################################################
#
# If this CIF has been generated from an entry in the Cambridge 
# Structural Database, then it will include bibliographic, chemical, 
# crystal, experimental, refinement or atomic coordinate data resulting 
# from the CCDC's data processing and validation procedures.
#
#######################################################################

data_BEXLAT
_chemical_formula_moiety         'C17 H18 O2'
_chemical_name_systematic        
3-(4-Methoxyphenyl)-1,1-dimethyl-1,3-dihydro-2-benzofuran
_symmetry_cell_setting           orthorhombic
_symmetry_space_group_name_H-M   'P 21 21 21'
_symmetry_Int_Tables_number      19
_space_group_name_Hall           'P 2ac 2ab'
loop_
_symmetry_equiv_pos_site_id
_symmetry_equiv_pos_as_xyz
1 x,y,z
2 1/2-x,-y,1/2+z
3 1/2+x,1/2-y,-z
4 -x,1/2+y,1/2-z
_cell_length_a                   7.0097(5)
_cell_length_b                   11.1321(8)
_cell_length_c                   17.6150(12)
_cell_angle_alpha                90
_cell_angle_beta                 90
_cell_angle_gamma                90
_cell_volume                     1374.55
_exptl_crystal_colour            colorless
_exptl_crystal_description       prism
_cell_formula_units_Z            4
loop_
_atom_site_label
_atom_site_type_symbol
_atom_site_fract_x
_atom_site_fract_y
_atom_site_fract_z
C1 C 0.80295(15) 0.62389(10) 0.55893(6)
H1 H 0.8892 0.6373 0.5145
C2 C 0.91395(15) 0.56394(10) 0.62178(6)
C3 C 1.05634(15) 0.61070(10) 0.66790(6)
H2 H 1.0981 0.6913 0.6619
C4 C 1.13656(16) 0.53683(11) 0.72304(6)
H3 H 1.2323 0.5677 0.7558
C5 C 1.07740(17) 0.41781(11) 0.73050(6)
H4 H 1.1349 0.3679 0.7678
C6 C 0.93534(16) 0.37154(10) 0.68404(6)
H5 H 0.8953 0.2904 0.6890
C7 C 0.85283(15) 0.44663(10) 0.63001(6)
C8 C 0.69303(16) 0.42063(9) 0.57513(6)
C9 C 0.75040(16) 0.32988(10) 0.51469(6)
H6 H 0.8664 0.3575 0.4890
H7 H 0.6472 0.3218 0.4775
H8 H 0.7745 0.2518 0.5386
C10 C 0.50994(16) 0.38413(11) 0.61499(7)
H9 H 0.5252 0.3037 0.6368
H10 H 0.4048 0.3834 0.5783
H11 H 0.4816 0.4417 0.6555
C11 C 0.71139(15) 0.74184(9) 0.58113(6)
C12 C 0.55031(16) 0.74524(10) 0.62771(6)
H12 H 0.4948 0.6721 0.6445
C13 C 0.46985(15) 0.85383(10) 0.64987(6)
H13 H 0.3596 0.8547 0.6813
C14 C 0.55162(16) 0.96148(10) 0.62581(6)
C15 C 0.71258(16) 0.95880(10) 0.57959(6)
H14 H 0.7692 1.0318 0.5632
C16 C 0.79039(16) 0.84998(10) 0.55750(6)
H15 H 0.8997 0.8493 0.5256
C17 C 0.30165(17) 1.07965(11) 0.68048(7)
H16 H 0.2082 1.0368 0.6492
H17 H 0.2633 1.1639 0.6854
H18 H 0.3076 1.0427 0.7309
O1 O 0.65998(11) 0.53643(7) 0.53881(4)
O2 O 0.48602(11) 1.07319(6) 0.64515(4)
loop_
_geom_bond_atom_site_label_1
_geom_bond_atom_site_label_2
_geom_bond_site_symmetry_1
_geom_bond_site_symmetry_2
C1 H1 1_555 1_555
C2 C1 1_555 1_555
C3 C2 1_555 1_555
H2 C3 1_555 1_555
C4 C3 1_555 1_555
H3 C4 1_555 1_555
C5 C4 1_555 1_555
H4 C5 1_555 1_555
C6 C5 1_555 1_555
H5 C6 1_555 1_555
C7 C2 1_555 1_555
C8 C7 1_555 1_555
C9 C8 1_555 1_555
H6 C9 1_555 1_555
H7 C9 1_555 1_555
H8 C9 1_555 1_555
C10 C8 1_555 1_555
H9 C10 1_555 1_555
H10 C10 1_555 1_555
H11 C10 1_555 1_555
C11 C1 1_555 1_555
C12 C11 1_555 1_555
H12 C12 1_555 1_555
C13 C12 1_555 1_555
H13 C13 1_555 1_555
C14 C13 1_555 1_555
C15 C14 1_555 1_555
H14 C15 1_555 1_555
C16 C11 1_555 1_555
H15 C16 1_555 1_555
C17 H16 1_555 1_555
H17 C17 1_555 1_555
H18 C17 1_555 1_555
O1 C1 1_555 1_555
O2 C14 1_555 1_555
C6 C7 1_555 1_555
C8 O1 1_555 1_555
C15 C16 1_555 1_555
C17 O2 1_555 1_555

#END
