
#######################################################################
#
#                 Cambridge Crystallographic Data Centre
#                                CCDC 
#
#######################################################################
#
# If this CIF has been generated from an entry in the Cambridge 
# Structural Database, then it will include bibliographic, chemical, 
# crystal, experimental, refinement or atomic coordinate data resulting 
# from the CCDC's data processing and validation procedures.
#
#######################################################################

data_BEXSAY
_chemical_formula_moiety         'C1 H3 O2 S2 1-,H4 N1 1+'
_chemical_name_systematic        'Ammonium methanethiosulfonate'
_symmetry_cell_setting           monoclinic
_symmetry_space_group_name_H-M   'P 21/c'
_symmetry_Int_Tables_number      14
_space_group_name_Hall           '-P 2ybc'
loop_
_symmetry_equiv_pos_site_id
_symmetry_equiv_pos_as_xyz
1 x,y,z
2 -x,1/2+y,1/2-z
3 -x,-y,-z
4 x,1/2-y,1/2+z
_cell_length_a                   8.832(1)
_cell_length_b                   8.117(1)
_cell_length_c                   7.697(3)
_cell_angle_alpha                90
_cell_angle_beta                 90.72(2)
_cell_angle_gamma                90
_cell_volume                     551.749
_cell_formula_units_Z            4
loop_
_atom_site_label
_atom_site_type_symbol
_atom_site_fract_x
_atom_site_fract_y
_atom_site_fract_z
S1 S 0.20520 0.18940 0.04530
S2 S 0.27110 -0.00560 0.17440
O1 O 0.17230 -0.04370 0.32070
O2 O 0.29090 -0.14670 0.05720
C1 C 0.45190 0.03600 0.26500
H1 H 0.44180 0.14050 0.35100
H2 H 0.53040 0.06490 0.16300
H3 H 0.49300 -0.06910 0.33760
N1 N 0.13400 0.57770 0.21160
H4 H 0.02120 0.59400 0.21280
H5 H 0.18150 0.56970 0.33430
H6 H 0.19090 0.66540 0.14300
H7 H 0.16400 0.46260 0.16040
loop_
_geom_bond_atom_site_label_1
_geom_bond_atom_site_label_2
_geom_bond_site_symmetry_1
_geom_bond_site_symmetry_2
S1 S2 1_555 1_555
S2 O1 1_555 1_555
O2 S2 1_555 1_555
C1 S2 1_555 1_555
N1 H4 1_555 1_555
H1 C1 1_555 1_555
H2 C1 1_555 1_555
H3 C1 1_555 1_555
H5 N1 1_555 1_555
H6 N1 1_555 1_555
H7 N1 1_555 1_555

#END
