
#######################################################################
#
#                 Cambridge Crystallographic Data Centre
#                                CCDC 
#
#######################################################################
#
# If this CIF has been generated from an entry in the Cambridge 
# Structural Database, then it will include bibliographic, chemical, 
# crystal, experimental, refinement or atomic coordinate data resulting 
# from the CCDC's data processing and validation procedures.
#
#######################################################################

data_BEXSAB
_chemical_formula_moiety         'C21 H22 N2 O4 S1,0.5(H2 O1)'
_chemical_name_systematic        
"1'-[(4-methylphenyl)sulfonyl]-2'-(2-oxopropyl)spiro[indole-3,3'-pyrrolidin]-2(1H)-one hemihydrate"
_symmetry_cell_setting           orthorhombic
_symmetry_space_group_name_H-M   'C 2 2 21'
_symmetry_Int_Tables_number      20
_space_group_name_Hall           'C 2n 2'
loop_
_symmetry_equiv_pos_site_id
_symmetry_equiv_pos_as_xyz
1 x,y,z
2 -x,-y,1/2+z
3 -x,y,1/2-z
4 x,-y,-z
5 1/2+x,1/2+y,z
6 1/2-x,1/2-y,1/2+z
7 1/2-x,1/2+y,1/2-z
8 1/2+x,1/2-y,-z
_cell_length_a                   7.1932(15)
_cell_length_b                   24.001(5)
_cell_length_c                   23.926(5)
_cell_angle_alpha                90
_cell_angle_beta                 90
_cell_angle_gamma                90
_cell_volume                     4130.68
_cell_formula_units_Z            8
loop_
_atom_site_label
_atom_site_type_symbol
_atom_site_fract_x
_atom_site_fract_y
_atom_site_fract_z
S1 S 0.76127(9) 0.87417(3) 0.00026(3)
N1 N 0.9174(3) 0.91193(9) 0.03113(9)
N2 N 1.1962(3) 0.95105(10) 0.20427(11)
O1 O 0.8352(3) 0.86154(9) -0.05367(7)
O2 O 0.5872(3) 0.90268(8) 0.00531(9)
O3 O 1.1166(4) 1.02576(8) 0.15093(11)
O4 O 0.7081(4) 0.97019(9) 0.18270(8)
C1 C 0.7222(6) 0.66431(13) 0.13760(16)
H1 H 0.7894 0.6348 0.1195
H2 H 0.5955 0.6531 0.1431
H3 H 0.7784 0.6723 0.1731
C2 C 0.7276(4) 0.71554(11) 0.10168(12)
C3 C 0.8353(4) 0.71837(12) 0.05507(13)
H4 H 0.9047 0.6874 0.0448
C4 C 0.8448(4) 0.76557(11) 0.02271(11)
H5 H 0.9203 0.7666 -0.0088
C5 C 0.7399(4) 0.81184(10) 0.03784(10)
C6 C 0.6250(4) 0.80917(11) 0.08427(11)
H6 H 0.5507 0.8394 0.0938
C7 C 0.6218(4) 0.76170(11) 0.11594(12)
H7 H 0.5471 0.7604 0.1476
C8 C 1.1143(4) 0.90432(13) 0.01877(11)
H8 H 1.1445 0.9177 -0.0184
H9 H 1.1500 0.8655 0.0219
C9 C 1.2077(4) 0.93920(12) 0.06308(13)
H10 H 1.2114 0.9781 0.0522
H11 H 1.3335 0.9264 0.0700
C10 C 1.0846(4) 0.93072(10) 0.11482(11)
C11 C 0.8860(3) 0.93179(10) 0.08985(11)
H12 H 0.8087 0.9046 0.1096
C12 C 0.7864(4) 0.98762(10) 0.08906(11)
H13 H 0.8732 1.0164 0.0777
H14 H 0.6872 0.9863 0.0616
C13 C 0.7068(4) 1.00245(12) 0.14455(11)
C14 C 0.6208(7) 1.05816(14) 0.15045(17)
H15 H 0.5588 1.0606 0.1859
H16 H 0.5324 1.0638 0.1209
H17 H 0.7155 1.0863 0.1484
C15 C 1.1287(4) 0.97567(12) 0.15789(13)
C16 C 1.1952(4) 0.89324(12) 0.19927(12)
C17 C 1.2483(4) 0.85447(14) 0.23823(13)
H18 H 1.2948 0.8653 0.2728
C18 C 1.2304(5) 0.79894(14) 0.22441(15)
H19 H 1.2642 0.7719 0.2503
C19 C 1.1643(4) 0.78301(13) 0.17360(16)
H20 H 1.1541 0.7453 0.1652
C20 C 1.1117(4) 0.82252(11) 0.13411(13)
H21 H 1.0659 0.8115 0.0995
C21 C 1.1286(3) 0.87843(10) 0.14704(11)
O5 O 0.0000 0.0945(4) 0.2500
loop_
_geom_bond_atom_site_label_1
_geom_bond_atom_site_label_2
_geom_bond_site_symmetry_1
_geom_bond_site_symmetry_2
S1 N1 1_555 1_555
N1 C8 1_555 1_555
N2 C15 1_555 1_555
O1 S1 1_555 1_555
O2 S1 1_555 1_555
O3 C15 1_555 1_555
O4 C13 1_555 1_555
C1 H1 1_555 1_555
H2 C1 1_555 1_555
H3 C1 1_555 1_555
C2 C1 1_555 1_555
C3 C2 1_555 1_555
H4 C3 1_555 1_555
C4 C3 1_555 1_555
H5 C4 1_555 1_555
C5 S1 1_555 1_555
C6 C5 1_555 1_555
H6 C6 1_555 1_555
C7 C2 1_555 1_555
H7 C7 1_555 1_555
C8 H8 1_555 1_555
H9 C8 1_555 1_555
C9 C8 1_555 1_555
H10 C9 1_555 1_555
H11 C9 1_555 1_555
C10 C9 1_555 1_555
C11 N1 1_555 1_555
H12 C11 1_555 1_555
C12 C11 1_555 1_555
H13 C12 1_555 1_555
H14 C12 1_555 1_555
C13 C12 1_555 1_555
C14 C13 1_555 1_555
H15 C14 1_555 1_555
H16 C14 1_555 1_555
H17 C14 1_555 1_555
C15 C10 1_555 1_555
C16 N2 1_555 1_555
C17 C16 1_555 1_555
H18 C17 1_555 1_555
C18 C17 1_555 1_555
H19 C18 1_555 1_555
C19 C18 1_555 1_555
H20 C19 1_555 1_555
C20 C19 1_555 1_555
H21 C20 1_555 1_555
C21 C10 1_555 1_555
C4 C5 1_555 1_555
C6 C7 1_555 1_555
C10 C11 1_555 1_555
C16 C21 1_555 1_555
C20 C21 1_555 1_555

#END
