
#######################################################################
#
#                 Cambridge Crystallographic Data Centre
#                                CCDC 
#
#######################################################################
#
# If this CIF has been generated from an entry in the Cambridge 
# Structural Database, then it will include bibliographic, chemical, 
# crystal, experimental, refinement or atomic coordinate data resulting 
# from the CCDC's data processing and validation procedures.
#
#######################################################################

data_BEXVEF
_chemical_formula_moiety         'C13 H14 Cl4 O3 S1'
_chemical_name_systematic        
1,3,4,11-Tetrachloro-2-methylsulfonato-methyl-tetracyclo(5.3.1.0^2,6^.0^5,9^)undec-3-ene
_symmetry_cell_setting           monoclinic
_symmetry_space_group_name_H-M   'P 21/n'
_symmetry_Int_Tables_number      14
_space_group_name_Hall           '-P 2yn'
loop_
_symmetry_equiv_pos_site_id
_symmetry_equiv_pos_as_xyz
1 x,y,z
2 1/2-x,1/2+y,1/2-z
3 -x,-y,-z
4 1/2+x,1/2-y,1/2+z
_cell_length_a                   7.693(5)
_cell_length_b                   17.007(4)
_cell_length_c                   11.894(4)
_cell_angle_alpha                90
_cell_angle_beta                 98.78(4)
_cell_angle_gamma                90
_cell_volume                     1537.91
_chemical_melting_point          147-8deg.C
_cell_formula_units_Z            4
loop_
_atom_site_label
_atom_site_type_symbol
_atom_site_fract_x
_atom_site_fract_y
_atom_site_fract_z
Cl1 Cl 0.42090 0.75763 0.41316
Cl2 Cl 0.58423 0.96182 0.37054
Cl3 Cl 1.00769 0.94660 0.34010
Cl4 Cl 0.32740 0.66108 0.16573
S1 S 0.25007 0.95691 0.03282
O1 O 0.41050 0.90493 0.08956
O2 O 0.08990 0.91935 0.05060
O3 O 0.28240 0.96948 -0.08073
C1 C 0.57410 0.75202 0.31360
C2 C 0.56670 0.82506 0.23320
C3 C 0.67340 0.89349 0.28940
C4 C 0.84110 0.88780 0.27780
C5 C 0.87270 0.81300 0.21650
C6 C 0.68840 0.79194 0.15070
C7 C 0.67570 0.69977 0.15220
C8 C 0.85970 0.67420 0.21150
C9 C 0.90240 0.74160 0.29740
C10 C 0.76340 0.74338 0.37930
C11 C 0.54820 0.68002 0.23550
C12 C 0.38330 0.85032 0.18000
C13 C 0.27910 1.04443 0.10980
H1 H 0.98200 0.82400 0.17500
H2 H 0.66200 0.81500 0.06600
H3 H 0.63500 0.66300 0.08200
H4 H 0.92800 0.66900 0.14800
H5 H 0.85400 0.62300 0.24400
H6 H 1.00900 0.74300 0.33200
H7 H 0.78100 0.78600 0.42800
H8 H 0.76200 0.70000 0.42000
H9 H 0.57100 0.62800 0.27700
H10 H 0.33800 0.88300 0.23200
H11 H 0.32100 0.80900 0.14400
H12 H 0.27100 1.03200 0.19100
H13 H 0.39000 1.06800 0.11000
H14 H 0.17900 1.07700 0.07700
loop_
_geom_bond_atom_site_label_1
_geom_bond_atom_site_label_2
_geom_bond_site_symmetry_1
_geom_bond_site_symmetry_2
Cl1 C1 1_555 1_555
Cl2 C3 1_555 1_555
Cl3 C4 1_555 1_555
Cl4 C11 1_555 1_555
S1 O1 1_555 1_555
O1 C12 1_555 1_555
O2 S1 1_555 1_555
O3 S1 1_555 1_555
C1 C2 1_555 1_555
C2 C3 1_555 1_555
C3 C4 1_555 1_555
C4 C5 1_555 1_555
C5 C6 1_555 1_555
C6 C2 1_555 1_555
C7 C6 1_555 1_555
C8 C7 1_555 1_555
C9 C5 1_555 1_555
C10 C1 1_555 1_555
C11 C1 1_555 1_555
C12 C2 1_555 1_555
C13 S1 1_555 1_555
H1 C5 1_555 1_555
H2 C6 1_555 1_555
H3 C7 1_555 1_555
H4 C8 1_555 1_555
H5 C8 1_555 1_555
H6 C9 1_555 1_555
H7 C10 1_555 1_555
H8 C10 1_555 1_555
H9 C11 1_555 1_555
H10 C12 1_555 1_555
H11 C12 1_555 1_555
H12 C13 1_555 1_555
H13 C13 1_555 1_555
H14 C13 1_555 1_555
C7 C11 1_555 1_555
C8 C9 1_555 1_555
C9 C10 1_555 1_555

#END
