
#######################################################################
#
#                 Cambridge Crystallographic Data Centre
#                                CCDC 
#
#######################################################################
#
# If this CIF has been generated from an entry in the Cambridge 
# Structural Database, then it will include bibliographic, chemical, 
# crystal, experimental, refinement or atomic coordinate data resulting 
# from the CCDC's data processing and validation procedures.
#
#######################################################################

data_BEXWUY
_chemical_formula_moiety         'C57 H30 B3 F18 N3 O6,C6 H6'
_chemical_name_systematic        
'2,14,26-tris(3,5-bis(trifluoromethyl)phenyl)-3,15,27,39,42,45-hexaoxa-1\l^5^,13\l^5^,25\l^5^-triaza-2\l^5^,14\l^5^,26\l^5^-triboradecacyclo[31.3.1.1^2,5^.1^4,8^.1^9,13^.1^14,17^.1^16,20^.1^21,25^.1^26,29^.1^28,32^]pentatetraconta-1(37),4(44),5,7,9(43),10,12,16(41),17,19,21(40),22,24,28(38),29,31,33,35-octadecaene benzene solvate'
_symmetry_cell_setting           monoclinic
_symmetry_space_group_name_H-M   'P 21/n'
_symmetry_Int_Tables_number      14
_space_group_name_Hall           '-P 2yn'
loop_
_symmetry_equiv_pos_site_id
_symmetry_equiv_pos_as_xyz
1 x,y,z
2 1/2-x,1/2+y,1/2-z
3 -x,-y,-z
4 1/2+x,1/2-y,1/2+z
_cell_length_a                   18.7601(10)
_cell_length_b                   13.2475(9)
_cell_length_c                   27.5549(14)
_cell_angle_alpha                90
_cell_angle_beta                 90.546(5)
_cell_angle_gamma                90
_cell_volume                     6847.75
_exptl_crystal_colour            colorless
_exptl_crystal_description       prismatic
_cell_formula_units_Z            4
loop_
_atom_site_label
_atom_site_type_symbol
_atom_site_fract_x
_atom_site_fract_y
_atom_site_fract_z
O1 O 0.24239(9) 0.18262(15) 0.48500(7)
O2 O 0.17962(9) 0.32901(14) 0.50980(6)
O3 O -0.26094(10) 0.22921(15) 0.54080(6)
O4 O -0.17737(9) 0.36062(15) 0.55197(6)
O5 O -0.05911(10) 0.60232(15) 0.28629(6)
O6 O -0.03379(9) 0.62031(14) 0.37007(6)
N1 N 0.15011(13) 0.16240(19) 0.54884(8)
N2 N -0.28329(12) 0.38776(18) 0.49608(8)
N3 N 0.06673(12) 0.57558(18) 0.31429(8)
B1 B 0.21281(18) 0.2352(3) 0.52796(12)
B2 B -0.25507(18) 0.3401(3) 0.54688(13)
B3 B -0.00543(18) 0.6415(3) 0.32134(12)
C1 C 0.16846(17) 0.0742(2) 0.56907(10)
H1 H 0.2174 0.0569 0.5720
C2 C 0.11773(17) 0.0086(2) 0.58558(10)
H2 H 0.1315 -0.0535 0.6002
C3 C 0.04634(17) 0.0331(2) 0.58083(10)
H3 H 0.0112 -0.0117 0.5929
C4 C 0.02561(15) 0.1227(2) 0.55850(9)
C5 C 0.08060(16) 0.1857(2) 0.54378(9)
H4 H 0.0684 0.2486 0.5294
C6 C -0.04941(15) 0.1490(2) 0.55113(9)
C7 C -0.09944(16) 0.0732(2) 0.54196(9)
H5 H -0.0837 0.0053 0.5394
C8 C -0.17191(16) 0.0942(2) 0.53648(9)
H6 H -0.2054 0.0419 0.5300
C9 C -0.19320(16) 0.1923(3) 0.54079(10)
C10 C -0.14375(16) 0.2688(3) 0.54800(9)
C11 C -0.07253(15) 0.2502(2) 0.55389(9)
H7 H -0.0397 0.3035 0.5596
C12 C -0.35311(16) 0.3778(3) 0.48513(11)
H8 H -0.3846 0.3504 0.5085
C13 C -0.37880(17) 0.4066(3) 0.44093(12)
H9 H -0.4281 0.3994 0.4336
C14 C -0.33313(16) 0.4466(3) 0.40647(11)
H10 H -0.3512 0.4673 0.3757
C15 C -0.26037(15) 0.4562(2) 0.41723(10)
C16 C -0.23797(15) 0.4260(2) 0.46316(10)
H11 H -0.1890 0.4325 0.4717
C17 C -0.20843(15) 0.4938(2) 0.38123(10)
C18 C -0.22155(15) 0.4818(2) 0.33179(10)
H12 H -0.2644 0.4499 0.3213
C19 C -0.17345(16) 0.5156(2) 0.29734(10)
H13 H -0.1830 0.5074 0.2637
C20 C -0.11252(16) 0.5605(2) 0.31301(10)
C21 C -0.09778(15) 0.5719(2) 0.36261(10)
C22 C -0.14459(15) 0.5397(2) 0.39737(10)
H14 H -0.1344 0.5480 0.4310
C23 C 0.10170(17) 0.5862(2) 0.27205(10)
H15 H 0.0836 0.6312 0.2481
C24 C 0.16219(18) 0.5337(3) 0.26321(11)
H16 H 0.1860 0.5416 0.2332
C25 C 0.18919(16) 0.4687(2) 0.29801(10)
H17 H 0.2323 0.4333 0.2921
C26 C 0.15393(16) 0.4545(2) 0.34145(10)
C27 C 0.09163(16) 0.5110(2) 0.34776(10)
H18 H 0.0659 0.5032 0.3771
C28 C 0.17892(15) 0.3822(2) 0.37843(10)
C29 C 0.21593(15) 0.2954(2) 0.36488(11)
H19 H 0.2258 0.2850 0.3315
C30 C 0.23893(14) 0.2237(2) 0.39827(10)
H20 H 0.2640 0.1650 0.3884
C31 C 0.22394(15) 0.2412(2) 0.44592(10)
C32 C 0.18682(14) 0.3271(2) 0.46020(10)
C33 C 0.16430(14) 0.3987(2) 0.42790(10)
H21 H 0.1397 0.4574 0.4383
C34 C 0.27222(15) 0.2514(2) 0.56945(11)
C35 C 0.34171(17) 0.2748(2) 0.55471(12)
H22 H 0.3521 0.2787 0.5211
C36 C 0.39557(18) 0.2923(3) 0.58886(15)
C37 C 0.3823(2) 0.2850(3) 0.63767(14)
H23 H 0.4194 0.2965 0.6607
C38 C 0.3154(2) 0.2610(3) 0.65287(12)
C39 C 0.26086(17) 0.2461(2) 0.61911(11)
H24 H 0.2142 0.2318 0.6304
C40 C 0.4694(3) 0.3176(6) 0.5705(2)
C41 C 0.3018(3) 0.2478(4) 0.70550(15)
C42 C -0.30101(15) 0.3825(3) 0.59133(10)
C43 C -0.30775(16) 0.3211(2) 0.63172(11)
H25 H -0.2866 0.2560 0.6314
C44 C -0.34433(19) 0.3518(3) 0.67233(11)
C45 C -0.37591(17) 0.4454(3) 0.67373(11)
H26 H -0.4009 0.4667 0.7017
C46 C -0.37074(16) 0.5078(3) 0.63396(11)
C47 C -0.33300(15) 0.4778(3) 0.59396(11)
H27 H -0.3285 0.5229 0.5674
C48 C -0.3483(4) 0.2848(4) 0.71628(18)
C49 C -0.4080(2) 0.6073(3) 0.63492(15)
C50 C 0.01210(16) 0.7579(2) 0.31224(9)
C51 C -0.03970(16) 0.8209(3) 0.29186(10)
H28 H -0.0844 0.7927 0.2826
C52 C -0.02830(17) 0.9233(3) 0.28461(10)
C53 C 0.03578(17) 0.9664(3) 0.29709(10)
H29 H 0.0436 1.0365 0.2924
C54 C 0.08922(16) 0.9052(3) 0.31680(10)
C55 C 0.07706(16) 0.8035(3) 0.32442(9)
H30 H 0.1139 0.7634 0.3383
C56 C -0.0852(2) 0.9871(3) 0.26274(16)
C57 C 0.15996(19) 0.9509(3) 0.32657(12)
F1 F 0.4915(4) 0.2514(9) 0.5370(4)
F2 F 0.5189(5) 0.3009(13) 0.6064(3)
F3 F 0.4781(6) 0.4055(8) 0.5556(8)
F4 F 0.3134(10) 0.3337(9) 0.7283(5)
F5 F 0.2284(7) 0.2344(17) 0.7145(4)
F6 F 0.3340(13) 0.1781(11) 0.7278(6)
F7 F -0.3597(8) 0.1894(9) 0.7040(5)
F8 F -0.3926(10) 0.3077(8) 0.7479(5)
F9 F -0.2793(6) 0.2758(10) 0.7378(4)
F10 F -0.38269(11) 0.66837(16) 0.67007(8)
F11 F -0.47725(10) 0.59760(16) 0.64467(8)
F12 F -0.40318(12) 0.65918(17) 0.59404(8)
F13 F -0.0582(4) 1.0680(5) 0.2412(3)
F14 F -0.1168(4) 0.9373(4) 0.2255(3)
F15 F -0.1331(4) 1.0118(8) 0.2916(2)
F16 F 0.20494(9) 0.89125(15) 0.35123(7)
F17 F 0.15658(10) 1.03585(16) 0.35226(8)
F18 F 0.19389(10) 0.97381(18) 0.28565(7)
C58 C -0.0843(3) 0.2729(3) 0.4014(2)
H31 H -0.1259 0.2850 0.4199
C59 C -0.0840(3) 0.2941(3) 0.3514(2)
H32 H -0.1251 0.3211 0.3357
C60 C -0.0243(3) 0.2752(3) 0.32600(15)
H33 H -0.0236 0.2888 0.2922
C61 C 0.0335(2) 0.2377(3) 0.34781(16)
H34 H 0.0752 0.2248 0.3295
C62 C 0.0331(2) 0.2181(3) 0.39553(16)
H35 H 0.0748 0.1915 0.4106
C63 C -0.0250(3) 0.2354(3) 0.42269(14)
H36 H -0.0241 0.2212 0.4565
F19? F 0.4934(5) 0.4017(9) 0.5948(4)
F20? F 0.4677(5) 0.3547(13) 0.5240(3)
F21? F 0.5158(6) 0.2523(9) 0.5759(8)
F22? F 0.2943(9) 0.3294(7) 0.7307(4)
F23? F 0.2563(12) 0.1785(15) 0.7148(4)
F24? F 0.3653(8) 0.2075(13) 0.7255(6)
F25? F -0.3177(10) 0.2026(10) 0.7124(4)
F26? F -0.3369(6) 0.3314(6) 0.7565(2)
F27? F -0.4218(5) 0.2546(10) 0.7206(3)
F28? F -0.0985(8) 1.0726(10) 0.2933(5)
F29? F -0.1509(6) 0.9504(10) 0.2613(8)
F30? F -0.0731(10) 1.0290(17) 0.2222(5)
loop_
_geom_bond_atom_site_label_1
_geom_bond_atom_site_label_2
_geom_bond_site_symmetry_1
_geom_bond_site_symmetry_2
O1 B1 1_555 1_555
O2 B1 1_555 1_555
O3 B2 1_555 1_555
O4 B2 1_555 1_555
O5 B3 1_555 1_555
O6 B3 1_555 1_555
N1 B1 1_555 1_555
N2 B2 1_555 1_555
N3 B3 1_555 1_555
B1 C34 1_555 1_555
B2 C42 1_555 1_555
B3 C50 1_555 1_555
C1 N1 1_555 1_555
H1 C1 1_555 1_555
C2 C1 1_555 1_555
H2 C2 1_555 1_555
C3 C2 1_555 1_555
H3 C3 1_555 1_555
C4 C3 1_555 1_555
C5 N1 1_555 1_555
H4 C5 1_555 1_555
C6 C4 1_555 1_555
C7 C6 1_555 1_555
H5 C7 1_555 1_555
C8 C7 1_555 1_555
H6 C8 1_555 1_555
C9 O3 1_555 1_555
C10 O4 1_555 1_555
C11 C6 1_555 1_555
H7 C11 1_555 1_555
C12 N2 1_555 1_555
H8 C12 1_555 1_555
C13 C12 1_555 1_555
H9 C13 1_555 1_555
C14 C13 1_555 1_555
H10 C14 1_555 1_555
C15 C14 1_555 1_555
C16 N2 1_555 1_555
H11 C16 1_555 1_555
C17 C15 1_555 1_555
C18 C17 1_555 1_555
H12 C18 1_555 1_555
C19 C18 1_555 1_555
H13 C19 1_555 1_555
C20 O5 1_555 1_555
C21 O6 1_555 1_555
C22 C17 1_555 1_555
H14 C22 1_555 1_555
C23 N3 1_555 1_555
H15 C23 1_555 1_555
C24 C23 1_555 1_555
H16 C24 1_555 1_555
C25 C24 1_555 1_555
H17 C25 1_555 1_555
C26 C25 1_555 1_555
C27 N3 1_555 1_555
H18 C27 1_555 1_555
C28 C26 1_555 1_555
C29 C28 1_555 1_555
H19 C29 1_555 1_555
C30 C29 1_555 1_555
H20 C30 1_555 1_555
C31 O1 1_555 1_555
C32 O2 1_555 1_555
C33 C28 1_555 1_555
H21 C33 1_555 1_555
C34 C35 1_555 1_555
C35 H22 1_555 1_555
C36 C35 1_555 1_555
C37 C36 1_555 1_555
H23 C37 1_555 1_555
C38 C37 1_555 1_555
C39 C34 1_555 1_555
H24 C39 1_555 1_555
C40 C36 1_555 1_555
C41 C38 1_555 1_555
C42 C43 1_555 1_555
C43 H25 1_555 1_555
C44 C43 1_555 1_555
C45 C44 1_555 1_555
H26 C45 1_555 1_555
C46 C45 1_555 1_555
C47 C42 1_555 1_555
H27 C47 1_555 1_555
C48 C44 1_555 1_555
C49 C46 1_555 1_555
C50 C51 1_555 1_555
C51 H28 1_555 1_555
C52 C51 1_555 1_555
C53 C52 1_555 1_555
H29 C53 1_555 1_555
C54 C53 1_555 1_555
C55 C50 1_555 1_555
H30 C55 1_555 1_555
C56 C52 1_555 1_555
C57 C54 1_555 1_555
F1 C40 1_555 1_555
F2 C40 1_555 1_555
F3 C40 1_555 1_555
F4 C41 1_555 1_555
F5 C41 1_555 1_555
F6 C41 1_555 1_555
F7 C48 1_555 1_555
F8 C48 1_555 1_555
F9 C48 1_555 1_555
F10 C49 1_555 1_555
F11 C49 1_555 1_555
F12 C49 1_555 1_555
F13 C56 1_555 1_555
F14 C56 1_555 1_555
F15 C56 1_555 1_555
F16 C57 1_555 1_555
F17 C57 1_555 1_555
F18 C57 1_555 1_555
C58 H31 1_555 1_555
C59 C58 1_555 1_555
H32 C59 1_555 1_555
C60 C59 1_555 1_555
H33 C60 1_555 1_555
C61 C60 1_555 1_555
H34 C61 1_555 1_555
C62 C61 1_555 1_555
H35 C62 1_555 1_555
C63 C58 1_555 1_555
H36 C63 1_555 1_555
C4 C5 1_555 1_555
C8 C9 1_555 1_555
C9 C10 1_555 1_555
C10 C11 1_555 1_555
C15 C16 1_555 1_555
C19 C20 1_555 1_555
C20 C21 1_555 1_555
C21 C22 1_555 1_555
C26 C27 1_555 1_555
C30 C31 1_555 1_555
C31 C32 1_555 1_555
C32 C33 1_555 1_555
C38 C39 1_555 1_555
C46 C47 1_555 1_555
C54 C55 1_555 1_555
C62 C63 1_555 1_555

#END
