
#######################################################################
#
#                 Cambridge Crystallographic Data Centre
#                                CCDC 
#
#######################################################################
#
# If this CIF has been generated from an entry in the Cambridge 
# Structural Database, then it will include bibliographic, chemical, 
# crystal, experimental, refinement or atomic coordinate data resulting 
# from the CCDC's data processing and validation procedures.
#
#######################################################################

data_BEXXAF
_chemical_formula_moiety         'C18 H22 B1 N1 O2'
_chemical_name_systematic        
4-(2-(4-t-Butylphenyl)-1,3,2-dioxaborinan-5-yl)pyridine
_symmetry_cell_setting           orthorhombic
_symmetry_space_group_name_H-M   'P n m a'
_symmetry_Int_Tables_number      62
_space_group_name_Hall           '-P 2ac 2n'
loop_
_symmetry_equiv_pos_site_id
_symmetry_equiv_pos_as_xyz
1 x,y,z
2 1/2-x,-y,1/2+z
3 -x,1/2+y,-z
4 1/2+x,1/2-y,1/2-z
5 -x,-y,-z
6 1/2+x,y,1/2-z
7 x,1/2-y,z
8 1/2-x,1/2+y,1/2+z
_cell_length_a                   10.8803(11)
_cell_length_b                   9.5482(5)
_cell_length_c                   15.9052(17)
_cell_angle_alpha                90
_cell_angle_beta                 90
_cell_angle_gamma                90
_cell_volume                     1652.35
_exptl_crystal_colour            colorless
_exptl_crystal_description       prismatic
_cell_formula_units_Z            4
loop_
_atom_site_label
_atom_site_type_symbol
_atom_site_fract_x
_atom_site_fract_y
_atom_site_fract_z
O1 O 0.63238(8) 0.12369(9) 0.54183(5)
N1 N 0.09499(14) 0.2500 0.70093(10)
B1 B 0.68422(17) 0.2500 0.52122(11)
C1 C 0.51558(11) 0.11993(14) 0.58518(8)
H1 H 0.5325(13) 0.1135(15) 0.6473(9)
H2 H 0.4727(14) 0.0331(16) 0.5689(9)
C2 C 0.43969(16) 0.2500 0.56414(10)
H3 H 0.423(2) 0.2500 0.5021(14)
C3 C 0.31902(15) 0.2500 0.61134(11)
C4 C 0.31704(16) 0.2500 0.69915(11)
H4 H 0.390(2) 0.2500 0.7317(14)
C5 C 0.20460(18) 0.2500 0.73978(12)
H5 H 0.205(2) 0.2500 0.8024(17)
C6 C 0.09833(16) 0.2500 0.61655(12)
H6 H 0.019(2) 0.2500 0.5882(14)
C7 C 0.20642(16) 0.2500 0.56993(11)
H7 H 0.202(2) 0.2500 0.5084(15)
C8 C 0.80718(15) 0.2500 0.46989(10)
C9 C 0.86261(12) 0.12538(14) 0.44394(9)
H8 H 0.8259(16) 0.034(2) 0.4616(11)
C10 C 0.96690(13) 0.12510(14) 0.39248(9)
H9 H 1.0015(16) 0.0339(19) 0.3753(11)
C11 C 1.01982(15) 0.2500 0.36456(11)
C12 C 1.12732(17) 0.2500 0.30151(12)
C13 C 1.20908(19) 0.1211(2) 0.31181(17)
H10 H 1.2763(19) 0.125(2) 0.2702(13)
H11 H 1.160(2) 0.037(3) 0.2960(16)
H12 H 1.241(3) 0.112(4) 0.374(2)
C14 C 1.0714(3) 0.2500 0.21325(16)
H13 H 1.136(4) 0.2500 0.172(2)
H14 H 1.016(3) 0.170(3) 0.203(2)
O1F O 0.63238(8) 0.37631(9) 0.54183(5)
C1F C 0.51558(11) 0.38007(14) 0.58518(8)
H1F H 0.5325(13) 0.3865(15) 0.6473(9)
H2F H 0.4727(14) 0.4669(16) 0.5689(9)
C9F C 0.86261(12) 0.37462(14) 0.44394(9)
H8F H 0.8259(16) 0.466(2) 0.4616(11)
C10F C 0.96690(13) 0.37490(14) 0.39248(9)
H9F H 1.0015(16) 0.4661(19) 0.3753(11)
C13F C 1.20908(19) 0.3789(2) 0.31181(17)
H10F H 1.2763(19) 0.375(2) 0.2702(13)
H11F H 1.160(2) 0.463(3) 0.2960(16)
H12F H 1.241(3) 0.388(4) 0.374(2)
H14F H 1.016(3) 0.330(3) 0.203(2)
loop_
_geom_bond_atom_site_label_1
_geom_bond_atom_site_label_2
_geom_bond_site_symmetry_1
_geom_bond_site_symmetry_2
O1 B1 1_555 1_555
N1 C5 1_555 1_555
B1 C8 1_555 1_555
C1 O1 1_555 1_555
H1 C1 1_555 1_555
H2 C1 1_555 1_555
C2 C1 1_555 1_555
H3 C2 1_555 1_555
C3 C2 1_555 1_555
C4 C3 1_555 1_555
H4 C4 1_555 1_555
C5 C4 1_555 1_555
H5 C5 1_555 1_555
C6 N1 1_555 1_555
H6 C6 1_555 1_555
C7 C3 1_555 1_555
H7 C7 1_555 1_555
C8 C9 1_555 1_555
C9 H8 1_555 1_555
C10 C9 1_555 1_555
H9 C10 1_555 1_555
C11 C10 1_555 1_555
C12 C11 1_555 1_555
C13 C12 1_555 1_555
H10 C13 1_555 1_555
H11 C13 1_555 1_555
H12 C13 1_555 1_555
C14 C12 1_555 1_555
H13 C14 1_555 1_555
H14 C14 1_555 1_555
O1F B1 1_555 1_555
C1F C2 1_555 1_555
H1F C1F 1_555 1_555
H2F C1F 1_555 1_555
C9F C8 1_555 1_555
H8F C9F 1_555 1_555
C10F C11 1_555 1_555
H9F C10F 1_555 1_555
C13F C12 1_555 1_555
H10F C13F 1_555 1_555
H11F C13F 1_555 1_555
H12F C13F 1_555 1_555
H14F C14 1_555 1_555
C6 C7 1_555 1_555
O1F C1F 1_555 1_555
C9F C10F 1_555 1_555

#END
