
#######################################################################
#
#                 Cambridge Crystallographic Data Centre
#                                CCDC 
#
#######################################################################
#
# If this CIF has been generated from an entry in the Cambridge 
# Structural Database, then it will include bibliographic, chemical, 
# crystal, experimental, refinement or atomic coordinate data resulting 
# from the CCDC's data processing and validation procedures.
#
#######################################################################

data_BEYDOB
_chemical_formula_moiety         'C29 H23 Br1 N4 O5,H2 O1'
_chemical_name_systematic        
'4-[1-(4-bromophenyl)-2-(3-methyl-4-nitro-1,2-oxazol-5-yl)ethyl]-1,3-diphenyl-1H-pyrazol-5-yl acetate monohydrate'
_symmetry_cell_setting           monoclinic
_symmetry_space_group_name_H-M   'P 21'
_symmetry_Int_Tables_number      4
_space_group_name_Hall           'P 2yb'
loop_
_symmetry_equiv_pos_site_id
_symmetry_equiv_pos_as_xyz
1 x,y,z
2 -x,1/2+y,-z
_cell_length_a                   14.443(9)
_cell_length_b                   6.804(4)
_cell_length_c                   17.163(10)
_cell_angle_alpha                90
_cell_angle_beta                 112.801(15)
_cell_angle_gamma                90
_cell_volume                     1554.81
_cell_formula_units_Z            2
loop_
_atom_site_label
_atom_site_type_symbol
_atom_site_fract_x
_atom_site_fract_y
_atom_site_fract_z
Br1 Br 0.98895(9) 0.8765(3) 0.57269(10)
N1 N 0.5594(5) 0.3786(9) 0.1695(4)
C1 C 0.8562(7) 0.8304(18) 0.4946(7)
O1 O 0.6701(4) 0.6508(8) 0.2193(3)
O2 O 0.3248(5) 0.8238(9) 0.1896(3)
C2 C 0.6249(8) 0.1145(13) 0.1113(6)
H1 H 0.6272 0.0358 0.1563
C3 C 0.8185(7) 0.6426(15) 0.4906(6)
H2 H 0.8590 0.5425 0.5232
N2 N 0.2217(7) 0.7924(12) 0.1725(5)
O3 O 0.7840(5) 0.4169(13) 0.2869(4)
N3 N 0.4832(5) 0.2879(8) 0.1812(4)
C4 C 0.7983(9) 0.9758(17) 0.4453(8)
H3 H 0.8254 1.1003 0.4464
O4 O 0.4207(6) 0.8262(11) 0.4449(4)
N4 N 0.3335(7) 0.8039(9) 0.3988(5)
C5 C 0.6962(7) 0.9381(13) 0.3917(6)
H4 H 0.6556 1.0387 0.3596
O5 O 0.2635(7) 0.7818(11) 0.4208(5)
C6 C 0.7203(6) 0.6042(11) 0.4382(5)
H5 H 0.6949 0.4778 0.4362
C7 C 0.5499(6) 0.6973(10) 0.3374(5)
H6 H 0.5249 0.6361 0.3772
C8 C 0.6583(7) 0.7508(12) 0.3880(6)
C9 C 0.5938(6) 0.5300(11) 0.2220(5)
C10 C 0.5408(5) 0.5458(10) 0.2722(4)
C11 C 0.7684(7) 0.5782(18) 0.2599(6)
C12 C 0.4713(5) 0.3913(10) 0.2440(4)
C13 C 0.5945(6) 0.3019(10) 0.1067(5)
C14 C 0.8407(9) 0.727(2) 0.2607(9)
H7 H 0.8221 0.7806 0.2050
H8 H 0.9063 0.6686 0.2784
H9 H 0.8417 0.8296 0.2993
C15 C 0.6255(8) 0.3519(18) -0.0182(6)
H10 H 0.6272 0.4323 -0.0615
C16 C 0.6519(9) 0.1623(18) -0.0159(6)
H11 H 0.6700 0.1133 -0.0586
C17 C 0.6531(9) 0.0378(14) 0.0478(7)
H12 H 0.6720 -0.0931 0.0488
C18 C 0.3876(5) 0.3412(9) 0.2704(4)
C19 C 0.4022(6) 0.3333(10) 0.3548(5)
H13 H 0.4659 0.3517 0.3966
C20 C 0.3215(8) 0.2977(12) 0.3762(6)
H14 H 0.3313 0.2930 0.4330
C21 C 0.2287(8) 0.2697(13) 0.3172(7)
H15 H 0.1750 0.2484 0.3333
C22 C 0.2133(7) 0.2725(13) 0.2326(7)
H16 H 0.1496 0.2497 0.1917
C23 C 0.2925(7) 0.3092(11) 0.2090(5)
H17 H 0.2823 0.3125 0.1520
C24 C 0.4836(6) 0.8755(12) 0.3012(5)
H18 H 0.5015 0.9777 0.3439
H19 H 0.4970 0.9253 0.2537
C25 C 0.3780(6) 0.8355(10) 0.2737(5)
C26 C 0.3095(6) 0.8060(11) 0.3101(5)
C27 C 0.2153(8) 0.7814(12) 0.2459(7)
C28 C 0.1139(8) 0.7508(18) 0.2506(10)
H20 H 0.0625 0.7534 0.1947
H21 H 0.1019 0.8536 0.2839
H22 H 0.1130 0.6259 0.2764
C29 C 0.5958(8) 0.4295(11) 0.0430(5)
H23 H 0.5774 0.5608 0.0419
O7 O 0.9091(9) 0.315(3) 0.1332(8)
O6? O 0.8749(15) 0.660(5) 0.0313(8)
loop_
_geom_bond_atom_site_label_1
_geom_bond_atom_site_label_2
_geom_bond_site_symmetry_1
_geom_bond_site_symmetry_2
Br1 C1 1_555 1_555
N1 N3 1_555 1_555
C1 C3 1_555 1_555
O1 C9 1_555 1_555
O2 N2 1_555 1_555
C2 H1 1_555 1_555
C3 H2 1_555 1_555
N2 C27 1_555 1_555
O3 C11 1_555 1_555
N3 C12 1_555 1_555
C4 C1 1_555 1_555
H3 C4 1_555 1_555
O4 N4 1_555 1_555
N4 O5 1_555 1_555
C5 C4 1_555 1_555
H4 C5 1_555 1_555
C6 C3 1_555 1_555
H5 C6 1_555 1_555
C7 H6 1_555 1_555
C8 C5 1_555 1_555
C9 N1 1_555 1_555
C10 C7 1_555 1_555
C11 O1 1_555 1_555
C12 C10 1_555 1_555
C13 N1 1_555 1_555
C14 C11 1_555 1_555
H7 C14 1_555 1_555
H8 C14 1_555 1_555
H9 C14 1_555 1_555
C15 H10 1_555 1_555
C16 C15 1_555 1_555
H11 C16 1_555 1_555
C17 C2 1_555 1_555
H12 C17 1_555 1_555
C18 C12 1_555 1_555
C19 C18 1_555 1_555
H13 C19 1_555 1_555
C20 C19 1_555 1_555
H14 C20 1_555 1_555
C21 C20 1_555 1_555
H15 C21 1_555 1_555
C22 C21 1_555 1_555
H16 C22 1_555 1_555
C23 C18 1_555 1_555
H17 C23 1_555 1_555
C24 C7 1_555 1_555
H18 C24 1_555 1_555
H19 C24 1_555 1_555
C25 O2 1_555 1_555
C26 N4 1_555 1_555
C27 C26 1_555 1_555
C28 C27 1_555 1_555
H20 C28 1_555 1_555
H21 C28 1_555 1_555
H22 C28 1_555 1_555
C29 C13 1_555 1_555
H23 C29 1_555 1_555
C2 C13 1_555 1_555
C6 C8 1_555 1_555
C7 C8 1_555 1_555
C9 C10 1_555 1_555
C15 C29 1_555 1_555
C16 C17 1_555 1_555
C22 C23 1_555 1_555
C24 C25 1_555 1_555
C25 C26 1_555 1_555

#END
