
#######################################################################
#
#                 Cambridge Crystallographic Data Centre
#                                CCDC 
#
#######################################################################
#
# If this CIF has been generated from an entry in the Cambridge 
# Structural Database, then it will include bibliographic, chemical, 
# crystal, experimental, refinement or atomic coordinate data resulting 
# from the CCDC's data processing and validation procedures.
#
#######################################################################

data_BEYDIT
_chemical_formula_moiety         'C18 H23 N1 O5 S1'
_chemical_name_systematic        
'Ethyl 1-allyl-3-methyl-4-(4-methylphenylsulfonyl)pyroglutamate'
_symmetry_cell_setting           orthorhombic
_symmetry_space_group_name_H-M   'P c a 21'
_symmetry_Int_Tables_number      29
_space_group_name_Hall           'P 2c -2ac'
loop_
_symmetry_equiv_pos_site_id
_symmetry_equiv_pos_as_xyz
1 x,y,z
2 -x,-y,1/2+z
3 1/2+x,-y,z
4 1/2-x,y,1/2+z
_cell_length_a                   9.8102(11)
_cell_length_b                   10.3120(12)
_cell_length_c                   18.686(2)
_cell_angle_alpha                90
_cell_angle_beta                 90
_cell_angle_gamma                90
_cell_volume                     1890.33
_exptl_crystal_colour            colorless
_chemical_melting_point          101-103deg.C
_cell_formula_units_Z            4
_exptl_crystal_recrystallization_method 'ethyl acetate/dichloromethane'
loop_
_atom_site_label
_atom_site_type_symbol
_atom_site_fract_x
_atom_site_fract_y
_atom_site_fract_z
S1 S -0.51083(9) -0.61433(12) -0.00698(9)
N1 N -0.3533(3) -0.4615(3) 0.1562(2)
O1 O -0.5944(3) -0.6749(4) 0.0469(2)
O2 O -0.5770(3) -0.5439(4) -0.0636(2)
O3 O -0.3038(3) -0.6672(3) 0.1180(2)
O4 O -0.5441(3) -0.3046(4) 0.2255(2)
O5 O -0.4974(4) -0.1433(3) 0.1514(2)
C1 C -0.3971(4) -0.5047(4) 0.0369(2)
H1 H -0.3185 -0.4891 0.0057
C2 C -0.4642(4) -0.3741(4) 0.0546(2)
H2 H -0.5609 -0.3893 0.0647
C3 C -0.3924(4) -0.3376(4) 0.1256(2)
H3 H -0.3108 -0.2860 0.1154
C4 C -0.3467(4) -0.5569(4) 0.1076(3)
C5 C -0.4866(4) -0.2625(5) 0.1745(3)
C6 C -0.6153(10) -0.0742(8) 0.1885(6)
H4 H -0.6050 -0.0757 0.2395
H5 H -0.7004 -0.1146 0.1764
C8 C -0.6099(12) 0.0579(10) 0.1604(7)
H8 H -0.6830 0.1061 0.1818
H9 H -0.5244 0.0972 0.1728
H10 H -0.6203 0.0581 0.1093
C10 C -0.2968(5) -0.4766(5) 0.2280(3)
H14 H -0.2677 -0.5657 0.2344
H15 H -0.3677 -0.4590 0.2629
C11 C -0.1779(5) -0.3880(5) 0.2419(3)
H16 H -0.1103 -0.3816 0.2072
C12 C -0.1650(8) -0.3212(6) 0.2989(4)
H17 H -0.2312 -0.3259 0.3345
H18 H -0.0895 -0.2678 0.3050
C13 C -0.4536(5) -0.2717(5) -0.0024(3)
H19 H -0.5001 -0.3005 -0.0447
H20 H -0.3593 -0.2564 -0.0134
H21 H -0.4945 -0.1928 0.0144
C14 C -0.4033(4) -0.7318(4) -0.0454(3)
C15 C -0.3478(5) -0.7069(5) -0.1112(3)
H22 H -0.3684 -0.6303 -0.1352
C16 C -0.2600(5) -0.7974(5) -0.1418(3)
H23 H -0.2210 -0.7799 -0.1862
C17 C -0.2302(5) -0.9112(5) -0.1079(3)
C18 C -0.2866(6) -0.9352(5) -0.0417(3)
H24 H -0.2659 -1.0118 -0.0178
C19 C -0.3744(5) -0.8456(5) -0.0103(3)
H25 H -0.4131 -0.8626 0.0341
C20 C -0.1199(12) -0.9906(13) -0.1491(7)
H26 H -0.0631 -0.9325 -0.1759
H27 H -0.0651 -1.0376 -0.1153
H28 H -0.1632 -1.0506 -0.1812
C7? C -0.5531(17) -0.0328(17) 0.1901(9)
H6? H -0.4902 0.0385 0.1917
H7? H -0.5788 -0.0569 0.2379
C9? C -0.6747(17) -0.0048(18) 0.1454(10)
H11? H -0.7235 0.0675 0.1651
H12? H -0.6449 0.0159 0.0978
H13? H -0.7333 -0.0793 0.1439
C21? C -0.1511(13) -1.0274(13) -0.1334(7)
H29? H -0.1893 -1.1048 -0.1131
H30? H -0.1557 -1.0322 -0.1846
H31? H -0.0577 -1.0192 -0.1188
loop_
_geom_bond_atom_site_label_1
_geom_bond_atom_site_label_2
_geom_bond_site_symmetry_1
_geom_bond_site_symmetry_2
S1 O1 1_555 1_555
N1 C3 1_555 1_555
O2 S1 1_555 1_555
O3 C4 1_555 1_555
O4 C5 1_555 1_555
O5 C5 1_555 1_555
C1 S1 1_555 1_555
H1 C1 1_555 1_555
C2 C1 1_555 1_555
H2 C2 1_555 1_555
C3 C2 1_555 1_555
H3 C3 1_555 1_555
C4 N1 1_555 1_555
C5 C3 1_555 1_555
C6 O5 1_555 1_555
H4 C6 1_555 1_555
H5 C6 1_555 1_555
C8 C6 1_555 1_555
H8 C8 1_555 1_555
H9 C8 1_555 1_555
H10 C8 1_555 1_555
C10 N1 1_555 1_555
H14 C10 1_555 1_555
H15 C10 1_555 1_555
C11 C10 1_555 1_555
H16 C11 1_555 1_555
C12 C11 1_555 1_555
H17 C12 1_555 1_555
H18 C12 1_555 1_555
C13 C2 1_555 1_555
H19 C13 1_555 1_555
H20 C13 1_555 1_555
H21 C13 1_555 1_555
C14 S1 1_555 1_555
C15 C14 1_555 1_555
H22 C15 1_555 1_555
C16 C15 1_555 1_555
H23 C16 1_555 1_555
C17 C16 1_555 1_555
C18 C17 1_555 1_555
H24 C18 1_555 1_555
C19 C14 1_555 1_555
H25 C19 1_555 1_555
C20 C17 1_555 1_555
H26 C20 1_555 1_555
H27 C20 1_555 1_555
H28 C20 1_555 1_555
C1 C4 1_555 1_555
C18 C19 1_555 1_555

#END
