
#######################################################################
#
#                 Cambridge Crystallographic Data Centre
#                                CCDC 
#
#######################################################################
#
# If this CIF has been generated from an entry in the Cambridge 
# Structural Database, then it will include bibliographic, chemical, 
# crystal, experimental, refinement or atomic coordinate data resulting 
# from the CCDC's data processing and validation procedures.
#
#######################################################################

data_BEYJUN
_chemical_formula_moiety         'C19 H14 N4 O1'
_chemical_name_systematic        bis(4-(1H-imidazol-1-yl)phenyl)methanone
_symmetry_cell_setting           monoclinic
_symmetry_space_group_name_H-M   'P 21/c'
_symmetry_Int_Tables_number      14
_space_group_name_Hall           '-P 2ybc'
loop_
_symmetry_equiv_pos_site_id
_symmetry_equiv_pos_as_xyz
1 x,y,z
2 -x,1/2+y,1/2-z
3 -x,-y,-z
4 x,1/2-y,1/2+z
_cell_length_a                   16.0546(5)
_cell_length_b                   8.0138(3)
_cell_length_c                   12.1711(4)
_cell_angle_alpha                90
_cell_angle_beta                 103.135(3)
_cell_angle_gamma                90
_cell_volume                     1524.95
_exptl_crystal_colour            colorless
_exptl_crystal_description       block
_cell_formula_units_Z            4
loop_
_atom_site_label
_atom_site_type_symbol
_atom_site_fract_x
_atom_site_fract_y
_atom_site_fract_z
C1 C 0.42121(14) 0.7296(3) 0.51182(18)
H1 H 0.4064 0.7711 0.4386
C2 C 0.45647(14) 0.8157(3) 0.60531(19)
H2 H 0.4699 0.9287 0.6064
C3 C 0.44193(13) 0.5705(3) 0.65831(16)
H3 H 0.4428 0.4765 0.7033
C4 C 0.37116(10) 0.4350(2) 0.47710(14)
C5 C 0.34106(11) 0.4530(2) 0.36207(14)
H4 H 0.3481 0.5538 0.3274
C6 C 0.30044(11) 0.3211(2) 0.29849(14)
H5 H 0.2810 0.3341 0.2210
C7 C 0.28806(10) 0.1696(2) 0.34777(13)
C8 C 0.31914(13) 0.1545(2) 0.46399(14)
H6 H 0.3118 0.0543 0.4991
C9 C 0.36038(13) 0.2840(2) 0.52791(15)
H7 H 0.3811 0.2705 0.6052
C10 C 0.25068(11) 0.0178(2) 0.28438(14)
C11 C 0.20522(10) 0.0225(2) 0.16367(14)
C12 C 0.14946(11) 0.1489(2) 0.11530(15)
H8 H 0.1403 0.2391 0.1592
C13 C 0.10737(12) 0.1423(2) 0.00265(15)
H9 H 0.0699 0.2271 -0.0287
C14 C 0.12142(10) 0.0085(2) -0.06309(14)
C15 C 0.17470(11) -0.1204(2) -0.01541(14)
H10 H 0.1827 -0.2118 -0.0590
C16 C 0.21580(11) -0.1131(2) 0.09660(14)
H11 H 0.2514 -0.2005 0.1282
C17 C 0.00621(12) 0.0744(2) -0.23536(16)
H12 H -0.0309 0.1348 -0.2019
C18 C -0.00485(12) 0.0413(2) -0.34471(16)
H13 H -0.0516 0.0749 -0.4005
C19 C 0.11454(12) -0.0716(2) -0.26241(14)
H14 H 0.1659 -0.1301 -0.2491
N1 N 0.41133(9) 0.57011(18) 0.54467(12)
N2 N 0.47004(12) 0.7167(2) 0.69795(15)
N3 N 0.08227(9) 0.00345(18) -0.18046(11)
N4 N 0.06364(11) -0.0506(2) -0.36295(14)
O1 O 0.26148(10) -0.11799(17) 0.33197(11)
loop_
_geom_bond_atom_site_label_1
_geom_bond_atom_site_label_2
_geom_bond_site_symmetry_1
_geom_bond_site_symmetry_2
C1 H1 1_555 1_555
C2 C1 1_555 1_555
H2 C2 1_555 1_555
C3 H3 1_555 1_555
C4 C5 1_555 1_555
C5 H4 1_555 1_555
C6 C5 1_555 1_555
H5 C6 1_555 1_555
C7 C6 1_555 1_555
C8 C7 1_555 1_555
H6 C8 1_555 1_555
C9 C4 1_555 1_555
H7 C9 1_555 1_555
C10 C7 1_555 1_555
C11 C10 1_555 1_555
C12 C11 1_555 1_555
H8 C12 1_555 1_555
C13 C12 1_555 1_555
H9 C13 1_555 1_555
C14 C13 1_555 1_555
C15 C14 1_555 1_555
H10 C15 1_555 1_555
C16 C11 1_555 1_555
H11 C16 1_555 1_555
C17 H12 1_555 1_555
C18 C17 1_555 1_555
H13 C18 1_555 1_555
C19 H14 1_555 1_555
N1 C1 1_555 1_555
N2 C2 1_555 1_555
N3 C14 1_555 1_555
N4 C18 1_555 1_555
O1 C10 1_555 1_555
C3 N1 1_555 1_555
C3 N2 1_555 1_555
C4 N1 1_555 1_555
C8 C9 1_555 1_555
C15 C16 1_555 1_555
C17 N3 1_555 1_555
C19 N3 1_555 1_555
C19 N4 1_555 1_555

#END
