
#######################################################################
#
#                 Cambridge Crystallographic Data Centre
#                                CCDC 
#
#######################################################################
#
# If this CIF has been generated from an entry in the Cambridge 
# Structural Database, then it will include bibliographic, chemical, 
# crystal, experimental, refinement or atomic coordinate data resulting 
# from the CCDC's data processing and validation procedures.
#
#######################################################################

data_BEYKAU
_chemical_formula_moiety         'C27 H18 N4 O1'
_chemical_name_systematic        bis(4-(1H-benzimidazol-1-yl)phenyl)methanone
_symmetry_cell_setting           orthorhombic
_symmetry_space_group_name_H-M   'F d d 2'
_symmetry_Int_Tables_number      43
_space_group_name_Hall           'F 2 -2d'
loop_
_symmetry_equiv_pos_site_id
_symmetry_equiv_pos_as_xyz
1 x,y,z
2 -x,-y,z
3 1/4+x,1/4-y,1/4+z
4 1/4-x,1/4+y,1/4+z
5 x,1/2+y,1/2+z
6 -x,1/2-y,1/2+z
7 1/4+x,3/4-y,3/4+z
8 1/4-x,3/4+y,3/4+z
9 1/2+x,y,1/2+z
10 1/2-x,-y,1/2+z
11 3/4+x,1/4-y,3/4+z
12 3/4-x,1/4+y,3/4+z
13 1/2+x,1/2+y,z
14 1/2-x,1/2-y,z
15 3/4+x,3/4-y,1/4+z
16 3/4-x,3/4+y,1/4+z
_cell_length_a                   45.301(2)
_cell_length_b                   13.2696(7)
_cell_length_c                   6.7022(3)
_cell_angle_alpha                90
_cell_angle_beta                 90
_cell_angle_gamma                90
_cell_volume                     4028.87
_exptl_crystal_colour            colorless
_exptl_crystal_description       block
_cell_formula_units_Z            8
loop_
_atom_site_label
_atom_site_type_symbol
_atom_site_fract_x
_atom_site_fract_y
_atom_site_fract_z
C1 C 0.68159(9) 0.5627(3) 0.8635(5)
H1 H 0.6877 0.5117 0.9494
C2 C 0.66037(7) 0.6932(3) 0.7481(6)
C3 C 0.64344(8) 0.7792(3) 0.7182(8)
H2 H 0.6326 0.8068 0.8225
C4 C 0.64298(8) 0.8227(3) 0.5338(8)
H3 H 0.6313 0.8793 0.5114
C5 C 0.65972(8) 0.7832(3) 0.3796(7)
H4 H 0.6596 0.8154 0.2564
C6 C 0.67675(7) 0.6972(2) 0.4036(5)
H5 H 0.6879 0.6708 0.2996
C7 C 0.67621(6) 0.6527(2) 0.5902(4)
C8 C 0.70592(6) 0.49093(19) 0.5637(4)
C9 C 0.72974(7) 0.4444(2) 0.6573(5)
H6 H 0.7361 0.4665 0.7818
C10 C 0.74386(6) 0.3650(2) 0.5634(5)
H7 H 0.7595 0.3328 0.6269
C11 C 0.73497(6) 0.33260(19) 0.3749(4)
C12 C 0.71175(6) 0.3819(2) 0.2829(5)
H8 H 0.7060 0.3625 0.1554
C13 C 0.69691(6) 0.4598(2) 0.3780(5)
H9 H 0.6809 0.4908 0.3161
C14 C 0.7500 0.2500 0.2653(8)
N1 N 0.66425(8) 0.6352(2) 0.9189(5)
N2 N 0.69016(5) 0.56759(16) 0.6666(4)
O1 O 0.7500 0.2500 0.0817(5)
C1M C 0.81841(9) -0.0627(3) 0.8635(5)
H1M H 0.8123 -0.0117 0.9494
C2M C 0.83963(7) -0.1932(3) 0.7481(6)
C3M C 0.85656(8) -0.2792(3) 0.7182(8)
H2M H 0.8674 -0.3068 0.8225
C4M C 0.85702(8) -0.3227(3) 0.5338(8)
H3M H 0.8687 -0.3793 0.5114
C5M C 0.84028(8) -0.2832(3) 0.3796(7)
H4M H 0.8404 -0.3154 0.2564
C6M C 0.82325(7) -0.1972(2) 0.4036(5)
H5M H 0.8121 -0.1708 0.2996
C7M C 0.82379(6) -0.1527(2) 0.5902(4)
C8M C 0.79408(6) 0.00907(19) 0.5637(4)
C9M C 0.77026(7) 0.0556(2) 0.6573(5)
H6M H 0.7639 0.0335 0.7818
C10M C 0.75614(6) 0.1350(2) 0.5634(5)
H7M H 0.7405 0.1672 0.6269
C11M C 0.76503(6) 0.16740(19) 0.3749(4)
C12M C 0.78825(6) 0.1181(2) 0.2829(5)
H8M H 0.7940 0.1375 0.1554
C13M C 0.80309(6) 0.0402(2) 0.3780(5)
H9M H 0.8191 0.0092 0.3161
N1M N 0.83575(8) -0.1352(2) 0.9189(5)
N2M N 0.80984(5) -0.06759(16) 0.6666(4)
loop_
_geom_bond_atom_site_label_1
_geom_bond_atom_site_label_2
_geom_bond_site_symmetry_1
_geom_bond_site_symmetry_2
C1 H1 1_555 1_555
C2 C3 1_555 1_555
C3 H2 1_555 1_555
C4 C3 1_555 1_555
H3 C4 1_555 1_555
C5 C4 1_555 1_555
H4 C5 1_555 1_555
C6 C5 1_555 1_555
H5 C6 1_555 1_555
C7 C2 1_555 1_555
C8 C9 1_555 1_555
C9 H6 1_555 1_555
C10 C9 1_555 1_555
H7 C10 1_555 1_555
C11 C10 1_555 1_555
C12 C11 1_555 1_555
H8 C12 1_555 1_555
C13 C8 1_555 1_555
H9 C13 1_555 1_555
C14 C11 1_555 1_555
N1 C1 1_555 1_555
N2 C1 1_555 1_555
O1 C14 1_555 1_555
C1M H1M 1_555 1_555
C2M C3M 1_555 1_555
C3M H2M 1_555 1_555
C4M C3M 1_555 1_555
H3M C4M 1_555 1_555
C5M C4M 1_555 1_555
H4M C5M 1_555 1_555
C6M C5M 1_555 1_555
H5M C6M 1_555 1_555
C7M C2M 1_555 1_555
C8M C9M 1_555 1_555
C9M H6M 1_555 1_555
C10M C9M 1_555 1_555
H7M C10M 1_555 1_555
C11M C14 1_555 1_555
C12M C11M 1_555 1_555
H8M C12M 1_555 1_555
C13M C8M 1_555 1_555
H9M C13M 1_555 1_555
N1M C1M 1_555 1_555
N2M C1M 1_555 1_555
C2 N1 1_555 1_555
C6 C7 1_555 1_555
C7 N2 1_555 1_555
C8 N2 1_555 1_555
C12 C13 1_555 1_555
C2M N1M 1_555 1_555
C6M C7M 1_555 1_555
C7M N2M 1_555 1_555
C8M N2M 1_555 1_555
C10M C11M 1_555 1_555
C12M C13M 1_555 1_555

#END
