
#######################################################################
#
#                 Cambridge Crystallographic Data Centre
#                                CCDC 
#
#######################################################################
#
# If this CIF has been generated from an entry in the Cambridge 
# Structural Database, then it will include bibliographic, chemical, 
# crystal, experimental, refinement or atomic coordinate data resulting 
# from the CCDC's data processing and validation procedures.
#
#######################################################################

data_BEYPOL
_chemical_formula_moiety         'C12 H12 N4 O2,0.5(H2 O1)'
_chemical_name_systematic        
'2,7-bis(Acetamido)-1,8-naphthyridine hemihydrate'
_symmetry_cell_setting           monoclinic
_symmetry_space_group_name_H-M   'P 21/c'
_symmetry_Int_Tables_number      14
_space_group_name_Hall           '-P 2ybc'
loop_
_symmetry_equiv_pos_site_id
_symmetry_equiv_pos_as_xyz
1 x,y,z
2 x,1/2-y,1/2+z
3 -x,-y,-z
4 -x,1/2+y,1/2-z
_cell_length_a                   27.8630(5)
_cell_length_b                   11.4857(2)
_cell_length_c                   7.5182(1)
_cell_angle_alpha                90
_cell_angle_beta                 93.915(1)
_cell_angle_gamma                90
_cell_volume                     2400.41
_exptl_crystal_colour            colorless
_exptl_crystal_description       plate
_cell_formula_units_Z            8
loop_
_atom_site_label
_atom_site_type_symbol
_atom_site_fract_x
_atom_site_fract_y
_atom_site_fract_z
N1 N 0.19409(7) 0.65308(18) 0.3686(3)
H1 H 0.1996(10) 0.582(2) 0.339(4)
N2 N 0.27575(7) 0.65455(16) 0.3651(3)
N3 N 0.35754(6) 0.64236(16) 0.3439(2)
N4 N 0.43769(7) 0.61641(18) 0.3143(3)
H2 H 0.4258(11) 0.541(3) 0.267(4)
O1 O 0.13742(7) 0.79431(18) 0.3840(4)
O2 O 0.50394(7) 0.73234(17) 0.3610(3)
C1 C 0.11042(10) 0.6003(2) 0.3772(5)
H3 H 0.1227 0.5278 0.3288
H4 H 0.0818 0.6254 0.3041
H5 H 0.1019 0.5873 0.5000
C2 C 0.14792(9) 0.6916(2) 0.3751(4)
C3 C 0.23676(8) 0.7178(2) 0.3847(3)
C4 C 0.23736(10) 0.8391(2) 0.4230(3)
H6 H 0.2085(10) 0.875(2) 0.445(4)
C5 C 0.28090(9) 0.8931(2) 0.4365(3)
H7 H 0.2828(9) 0.977(2) 0.475(4)
C6 C 0.32310(9) 0.8315(2) 0.4082(3)
C7 C 0.36941(9) 0.8799(2) 0.4153(3)
H8 H 0.3735(10) 0.963(2) 0.443(4)
C8 C 0.40823(9) 0.8125(2) 0.3869(3)
H9 H 0.4408(10) 0.843(2) 0.385(3)
C9 C 0.40015(8) 0.6929(2) 0.3507(3)
C10 C 0.31889(8) 0.71083(19) 0.3726(3)
C11 C 0.48562(9) 0.6396(2) 0.3141(3)
C12 C 0.51501(9) 0.5410(3) 0.2516(4)
H10 H 0.4939 0.4751 0.2183
H11 H 0.5386 0.5172 0.3475
H12 H 0.5319 0.5658 0.1478
N5 N 0.07812(7) 0.50225(19) -0.1071(3)
H13 H 0.0944(10) 0.571(3) -0.102(4)
N6 N 0.14602(6) 0.44386(16) 0.0525(3)
N7 N 0.21597(7) 0.40135(15) 0.2177(3)
N8 N 0.28732(7) 0.37475(18) 0.3776(3)
H14 H 0.2866(11) 0.460(3) 0.379(4)
O3 O 0.01005(7) 0.41272(19) -0.2199(4)
O4 O 0.32799(6) 0.21386(15) 0.4863(2)
C13 C 0.01572(10) 0.6172(3) -0.2604(4)
H15 H 0.0420 0.6739 -0.2467
H16 H -0.0108 0.6425 -0.1905
H17 H 0.0044 0.6117 -0.3864
C14 C 0.03335(9) 0.5008(2) -0.1956(4)
C15 C 0.10445(8) 0.4106(2) -0.0278(3)
C16 C 0.08792(8) 0.2938(2) -0.0343(3)
H18 H 0.0549(11) 0.273(3) -0.089(4)
C17 C 0.11817(9) 0.2107(2) 0.0393(3)
H19 H 0.1065(9) 0.127(2) 0.040(4)
C18 C 0.16360(8) 0.24095(19) 0.1198(3)
C19 C 0.19812(9) 0.1619(2) 0.1938(3)
H20 H 0.1907(9) 0.076(2) 0.190(4)
C20 C 0.23990(9) 0.2019(2) 0.2745(3)
H21 H 0.2635(9) 0.151(2) 0.326(4)
C21 C 0.24717(8) 0.32407(19) 0.2865(3)
C22 C 0.17496(8) 0.36066(19) 0.1290(3)
C23 C 0.32374(8) 0.3202(2) 0.4765(3)
C24 C 0.35897(10) 0.3994(2) 0.5736(4)
H22 H 0.3457 0.4784 0.5748
H23 H 0.3891 0.3999 0.5134
H24 H 0.3653 0.3718 0.6963
O5 O 0.41465(7) 0.38014(16) 0.1663(3)
H25 H 0.4369 0.3216 0.1690
H26 H 0.3881 0.3487 0.1194
loop_
_geom_bond_atom_site_label_1
_geom_bond_atom_site_label_2
_geom_bond_site_symmetry_1
_geom_bond_site_symmetry_2
N1 H1 1_555 1_555
N2 C3 1_555 1_555
N3 C9 1_555 1_555
N4 H2 1_555 1_555
O1 C2 1_555 1_555
O2 C11 1_555 1_555
C1 H3 1_555 1_555
H4 C1 1_555 1_555
H5 C1 1_555 1_555
C2 N1 1_555 1_555
C3 N1 1_555 1_555
C4 C3 1_555 1_555
H6 C4 1_555 1_555
C5 C4 1_555 1_555
H7 C5 1_555 1_555
C6 C5 1_555 1_555
C7 C6 1_555 1_555
H8 C7 1_555 1_555
C8 C7 1_555 1_555
H9 C8 1_555 1_555
C9 N4 1_555 1_555
C10 N2 1_555 1_555
C11 N4 1_555 1_555
C12 C11 1_555 1_555
H10 C12 1_555 1_555
H11 C12 1_555 1_555
H12 C12 1_555 1_555
N5 H13 1_555 1_555
N6 C15 1_555 1_555
N7 C21 1_555 1_555
N8 H14 1_555 1_555
O3 C14 1_555 1_555
O4 C23 1_555 1_555
C13 H15 1_555 1_555
H16 C13 1_555 1_555
H17 C13 1_555 1_555
C14 N5 1_555 1_555
C15 N5 1_555 1_555
C16 C15 1_555 1_555
H18 C16 1_555 1_555
C17 C16 1_555 1_555
H19 C17 1_555 1_555
C18 C17 1_555 1_555
C19 C18 1_555 1_555
H20 C19 1_555 1_555
C20 C19 1_555 1_555
H21 C20 1_555 1_555
C21 N8 1_555 1_555
C22 N6 1_555 1_555
C23 N8 1_555 1_555
C24 C23 1_555 1_555
H22 C24 1_555 1_555
H23 C24 1_555 1_555
H24 C24 1_555 1_555
O5 H25 1_555 1_555
H26 O5 1_555 1_555
N3 C10 1_555 1_555
C1 C2 1_555 1_555
C6 C10 1_555 1_555
C8 C9 1_555 1_555
N7 C22 1_555 1_555
C13 C14 1_555 1_555
C18 C22 1_555 1_555
C20 C21 1_555 1_555

#END
