
#######################################################################
#
#                 Cambridge Crystallographic Data Centre
#                                CCDC 
#
#######################################################################
#
# If this CIF has been generated from an entry in the Cambridge 
# Structural Database, then it will include bibliographic, chemical, 
# crystal, experimental, refinement or atomic coordinate data resulting 
# from the CCDC's data processing and validation procedures.
#
#######################################################################

data_BEZJAS
_chemical_compound_source        'dry wood of Gustavia hexapetala (AUBL) Smith'
_chemical_formula_moiety         'C17 H26 O5'
_chemical_name_systematic        Portentol
_chemical_properties_biological  
'marginally active cancer cell growth inhibitor'
_symmetry_cell_setting           orthorhombic
_symmetry_space_group_name_H-M   'P 21 21 21'
_symmetry_Int_Tables_number      19
_space_group_name_Hall           'P 2ac 2ab'
loop_
_symmetry_equiv_pos_site_id
_symmetry_equiv_pos_as_xyz
1 x,y,z
2 1/2-x,-y,1/2+z
3 -x,1/2+y,1/2-z
4 1/2+x,1/2-y,-z
_cell_length_a                   8.73650(10)
_cell_length_b                   12.4620(2)
_cell_length_c                   15.3818(3)
_cell_angle_alpha                90
_cell_angle_beta                 90
_cell_angle_gamma                90
_cell_volume                     1674.68
_exptl_crystal_colour            colorless
_exptl_crystal_description       Rods
_chemical_melting_point          '225 deg.C'
_cell_formula_units_Z            4
_exptl_crystal_recrystallization_method ethanol
loop_
_atom_site_label
_atom_site_type_symbol
_atom_site_fract_x
_atom_site_fract_y
_atom_site_fract_z
C1 C 0.9311(2) 0.91140(15) 0.35761(12)
C2 C 0.9501(2) 0.80383(16) 0.40486(13)
O1 O 1.07117(19) 0.77561(13) 0.43510(11)
C3 C 0.8071(3) 0.73634(16) 0.40442(16)
H1 H 0.7733 0.7262 0.4660
C4 C 0.6853(3) 0.80053(17) 0.35754(15)
H2 H 0.5897 0.7566 0.3537
O2 O 0.73969(17) 0.82424(12) 0.26917(10)
C5 C 0.6492(2) 0.90567(16) 0.40365(13)
H3 H 0.6321 0.8885 0.4664
C6 C 0.7942(2) 0.97995(15) 0.39843(12)
O3 O 0.77758(15) 1.05925(10) 0.33174(8)
C7 C 0.8465(2) 1.03043(16) 0.48572(12)
H4 H 0.9566 1.0501 0.4775
C8 C 0.7626(2) 1.13616(16) 0.50538(13)
H5 H 0.8096 1.1695 0.5582
O4 O 0.60373(16) 1.11946(13) 0.52133(9)
H6 H 0.5892 1.1117 0.5749
C9 C 0.7807(3) 1.21296(15) 0.42945(14)
H7 H 0.8925 1.2223 0.4178
C10 C 0.7082(2) 1.16203(15) 0.35001(13)
H8 H 0.5962 1.1520 0.3605
C11 C 0.8697(2) 0.88018(15) 0.26752(13)
O5 O 0.93307(18) 0.90120(13) 0.20025(9)
C12 C 1.0810(2) 0.97149(16) 0.35049(14)
H9 H 1.1343 0.9692 0.4065
H10 H 1.0609 1.0463 0.3345
H11 H 1.1450 0.9379 0.3058
C13 C 0.8385(3) 0.62516(19) 0.3651(2)
H12 H 0.8694 0.6332 0.3042
H13 H 0.7455 0.5814 0.3683
H14 H 0.9207 0.5899 0.3977
C14 C 0.5013(2) 0.95393(18) 0.36902(17)
H15 H 0.5151 0.9742 0.3080
H16 H 0.4749 1.0177 0.4032
H17 H 0.4188 0.9010 0.3736
C15 C 0.8420(3) 0.95613(17) 0.56436(14)
H18 H 0.8935 0.9908 0.6135
H19 H 0.8943 0.8888 0.5503
H20 H 0.7354 0.9411 0.5798
C16 C 0.7125(3) 1.32318(17) 0.44907(17)
H21 H 0.7447 1.3743 0.4042
H22 H 0.7486 1.3478 0.5060
H23 H 0.6006 1.3182 0.4496
C17 C 0.7311(3) 1.22520(17) 0.26694(15)
H24 H 0.8407 1.2372 0.2575
H25 H 0.6786 1.2945 0.2717
H26 H 0.6887 1.1848 0.2178
loop_
_geom_bond_atom_site_label_1
_geom_bond_atom_site_label_2
_geom_bond_site_symmetry_1
_geom_bond_site_symmetry_2
C1 C2 1_555 1_555
C2 O1 1_555 1_555
C3 C2 1_555 1_555
H1 C3 1_555 1_555
C4 C3 1_555 1_555
H2 C4 1_555 1_555
O2 C4 1_555 1_555
C5 C4 1_555 1_555
H3 C5 1_555 1_555
C6 C1 1_555 1_555
O3 C6 1_555 1_555
C7 C6 1_555 1_555
H4 C7 1_555 1_555
C8 C7 1_555 1_555
H5 C8 1_555 1_555
O4 C8 1_555 1_555
H6 O4 1_555 1_555
C9 C8 1_555 1_555
H7 C9 1_555 1_555
C10 O3 1_555 1_555
H8 C10 1_555 1_555
C11 C1 1_555 1_555
O5 C11 1_555 1_555
C12 C1 1_555 1_555
H9 C12 1_555 1_555
H10 C12 1_555 1_555
H11 C12 1_555 1_555
C13 C3 1_555 1_555
H12 C13 1_555 1_555
H13 C13 1_555 1_555
H14 C13 1_555 1_555
C14 C5 1_555 1_555
H15 C14 1_555 1_555
H16 C14 1_555 1_555
H17 C14 1_555 1_555
C15 C7 1_555 1_555
H18 C15 1_555 1_555
H19 C15 1_555 1_555
H20 C15 1_555 1_555
C16 C9 1_555 1_555
H21 C16 1_555 1_555
H22 C16 1_555 1_555
H23 C16 1_555 1_555
C17 C10 1_555 1_555
H24 C17 1_555 1_555
H25 C17 1_555 1_555
H26 C17 1_555 1_555
O2 C11 1_555 1_555
C5 C6 1_555 1_555
C9 C10 1_555 1_555

#END
