
#######################################################################
#
#                 Cambridge Crystallographic Data Centre
#                                CCDC 
#
#######################################################################
#
# If this CIF has been generated from an entry in the Cambridge 
# Structural Database, then it will include bibliographic, chemical, 
# crystal, experimental, refinement or atomic coordinate data resulting 
# from the CCDC's data processing and validation procedures.
#
#######################################################################

data_BEZLUO
_chemical_formula_moiety         'C22 F14'
_chemical_name_systematic        Perfluoropentacene
_symmetry_cell_setting           monoclinic
_symmetry_space_group_name_H-M   'P 21/c'
_symmetry_Int_Tables_number      14
_space_group_name_Hall           '-P 2ybc'
loop_
_symmetry_equiv_pos_site_id
_symmetry_equiv_pos_as_xyz
1 x,y,z
2 x,1/2-y,1/2+z
3 -x,-y,-z
4 -x,1/2+y,1/2-z
_cell_length_a                   15.51(1)
_cell_length_b                   4.490(4)
_cell_length_c                   11.449(11)
_cell_angle_alpha                90
_cell_angle_beta                 91.567(13)
_cell_angle_gamma                90
_cell_volume                     797.009
_exptl_crystal_colour            blue
_exptl_crystal_description       platelet
_chemical_melting_point          'above 300deg.C'
_cell_formula_units_Z            2
_exptl_crystal_recrystallization_method sublimation
loop_
_atom_site_label
_atom_site_type_symbol
_atom_site_fract_x
_atom_site_fract_y
_atom_site_fract_z
F1 F 0.97030(12) 0.7463(5) 0.9405(2)
F2 F 0.94360(13) 0.3105(5) 0.7819(2)
F3 F 0.78629(12) 0.0806(4) 0.7421(2)
F4 F 0.62767(12) 0.0785(4) 0.7883(2)
F5 F 0.47149(12) 0.0765(4) 0.8332(2)
F6 F 0.68477(12) 0.9256(4) 1.1224(2)
F7 F 0.84290(13) 0.9405(5) 1.0742(2)
C1 C 0.8253(2) 0.7298(7) 0.9937(3)
C2 C 0.8908(2) 0.6302(8) 0.9282(3)
C3 C 0.8763(2) 0.4082(7) 0.8424(3)
C4 C 0.7965(2) 0.2941(7) 0.8234(3)
C5 C 0.7243(2) 0.3942(7) 0.8881(2)
C6 C 0.6411(2) 0.2891(7) 0.8703(3)
C7 C 0.5695(2) 0.3898(7) 0.9334(2)
C8 C 0.4856(2) 0.2846(7) 0.9150(3)
C9 C 0.5850(2) 0.6127(7) 1.0226(2)
C10 C 0.6701(2) 0.7172(7) 1.0406(2)
C11 C 0.7400(2) 0.6176(7) 0.9772(2)
C9B C 0.4150(2) 0.3873(7) 0.9774(2)
C7B C 0.4305(2) 0.6102(7) 1.0666(2)
C6B C 0.3589(2) 0.7109(7) 1.1297(3)
F4B F 0.37233(12) 0.9215(4) 1.2117(2)
C5B C 0.2757(2) 0.6058(7) 1.1119(2)
C4B C 0.2035(2) 0.7059(7) 1.1766(3)
F3B F 0.21371(12) 0.9194(4) 1.2579(2)
C3B C 0.1237(2) 0.5918(7) 1.1576(3)
F2B F 0.05640(13) 0.6895(5) 1.2181(2)
C2B C 0.1092(2) 0.3698(8) 1.0718(3)
F1B F 0.02970(12) 0.2537(5) 1.0595(2)
C1B C 0.1747(2) 0.2702(7) 1.0063(3)
F7B F 0.15710(13) 0.0595(5) 0.9258(2)
C11B C 0.2600(2) 0.3824(7) 1.0228(2)
C10B C 0.3299(2) 0.2828(7) 0.9594(2)
F6B F 0.31523(12) 0.0744(4) 0.8776(2)
C8B C 0.5144(2) 0.7154(7) 1.0850(3)
F5B F 0.52851(12) 0.9235(4) 1.1668(2)
loop_
_geom_bond_atom_site_label_1
_geom_bond_atom_site_label_2
_geom_bond_site_symmetry_1
_geom_bond_site_symmetry_2
F1 C2 1_555 1_555
F2 C3 1_555 1_555
F3 C4 1_555 1_555
F4 C6 1_555 1_555
F5 C8 1_555 1_555
F6 C10 1_555 1_555
F7 C1 1_555 1_555
C1 C2 1_555 1_555
C2 C3 1_555 1_555
C3 C4 1_555 1_555
C4 C5 1_555 1_555
C5 C6 1_555 1_555
C6 C7 1_555 1_555
C7 C8 1_555 1_555
C8 C9B 1_555 1_555
C9 C7 1_555 1_555
C10 C9 1_555 1_555
C11 C1 1_555 1_555
C9B C7B 1_555 1_555
C7B C6B 1_555 1_555
C6B F4B 1_555 1_555
C5B C6B 1_555 1_555
C4B C5B 1_555 1_555
F3B C4B 1_555 1_555
C3B C4B 1_555 1_555
F2B C3B 1_555 1_555
C2B C3B 1_555 1_555
F1B C2B 1_555 1_555
C1B C2B 1_555 1_555
F7B C1B 1_555 1_555
C11B C5B 1_555 1_555
C10B C9B 1_555 1_555
F6B C10B 1_555 1_555
C8B C9 1_555 1_555
F5B C8B 1_555 1_555
C5 C11 1_555 1_555
C10 C11 1_555 1_555
C7B C8B 1_555 1_555
C1B C11B 1_555 1_555
C11B C10B 1_555 1_555

#END
