
#######################################################################
#
#                 Cambridge Crystallographic Data Centre
#                                CCDC 
#
#######################################################################
#
# If this CIF has been generated from an entry in the Cambridge 
# Structural Database, then it will include bibliographic, chemical, 
# crystal, experimental, refinement or atomic coordinate data resulting 
# from the CCDC's data processing and validation procedures.
#
#######################################################################

data_BEZRUW
_chemical_formula_moiety         'C50 H62 B2 F10 P2,2(C7 H8)'
_chemical_name_systematic        
'9,10-dimethyl-2,6-bis(pentafluorophenyl)-1,5-bis[2,4,6-tris(propan-2-yl)phenyl]-1,5-diphospha-2,6-diboratricyclo[4.2.1.1^2,5^]decane toluene solvate'
_symmetry_cell_setting           monoclinic
_symmetry_space_group_name_H-M   'C 2/c'
_symmetry_Int_Tables_number      15
_space_group_name_Hall           '-C 2yn'
loop_
_symmetry_equiv_pos_site_id
_symmetry_equiv_pos_as_xyz
1 x,y,z
2 -x,y,1/2-z
3 1/2+x,1/2+y,z
4 1/2-x,1/2+y,1/2-z
5 -x,-y,-z
6 x,-y,1/2+z
7 1/2-x,1/2-y,-z
8 1/2+x,1/2-y,1/2+z
_cell_length_a                   24.3500(3)
_cell_length_b                   15.0736(3)
_cell_length_c                   17.1713(3)
_cell_angle_alpha                90
_cell_angle_beta                 113.773(1)
_cell_angle_gamma                90
_cell_volume                     5767.81
_exptl_crystal_colour            colorless
_exptl_crystal_description       prism
_cell_formula_units_Z            4
loop_
_atom_site_label
_atom_site_type_symbol
_atom_site_fract_x
_atom_site_fract_y
_atom_site_fract_z
P1 P 0.03933(2) 0.22184(4) 0.19148(3)
C1 C 0.00086(10) 0.11668(16) 0.14710(15)
H1 H -0.0018 0.1080 0.0886
H2 H 0.0230 0.0661 0.1826
C2 C -0.06274(10) 0.12322(15) 0.14663(14)
H3 H -0.0675 0.0775 0.1849
H4 H -0.0932 0.1121 0.0884
C3 C -0.03000(9) 0.28683(15) 0.14906(13)
H5 H -0.0244 0.3463 0.1771
C4 C -0.05420(10) 0.29572(16) 0.05144(13)
H6 H -0.0612 0.2365 0.0256
H7 H -0.0248 0.3273 0.0361
H8 H -0.0920 0.3290 0.0305
C5 C 0.08703(10) 0.25060(15) 0.13446(13)
C6 C 0.09275(10) 0.34100(15) 0.11627(14)
C7 C 0.10909(11) 0.36150(16) 0.04946(15)
H9 H 0.1110 0.4220 0.0353
C8 C 0.12273(11) 0.29654(16) 0.00276(15)
C9 C 0.12558(11) 0.20971(16) 0.03006(15)
H10 H 0.1393 0.1654 0.0029
C10 C 0.10913(10) 0.18456(15) 0.09581(14)
C11 C 0.08772(11) 0.41723(15) 0.17133(15)
H11 H 0.0769 0.3917 0.2170
C12 C 0.04081(12) 0.48759(17) 0.12390(16)
H12 H 0.0509 0.5144 0.0794
H13 H 0.0404 0.5336 0.1640
H14 H 0.0011 0.4598 0.0980
C13 C 0.14962(12) 0.46130(17) 0.21420(16)
H15 H 0.1801 0.4157 0.2413
H16 H 0.1491 0.5034 0.2574
H17 H 0.1591 0.4929 0.1713
C14 C 0.13712(12) 0.31981(17) -0.07310(16)
H18 H 0.1408 0.2630 -0.1006
C15 C 0.08673(14) 0.3736(2) -0.13921(18)
H19 H 0.0487 0.3416 -0.1554
H20 H 0.0955 0.3825 -0.1896
H21 H 0.0836 0.4314 -0.1151
C16 C 0.19684(14) 0.3681(2) -0.0452(2)
H22 H 0.1947 0.4240 -0.0174
H23 H 0.2055 0.3807 -0.0951
H24 H 0.2287 0.3309 -0.0052
C17 C 0.12217(10) 0.08919(15) 0.12717(15)
H25 H 0.1057 0.0799 0.1713
C18 C 0.19046(11) 0.07546(19) 0.16946(17)
H26 H 0.2072 0.0807 0.1265
H27 H 0.1992 0.0163 0.1953
H28 H 0.2085 0.1206 0.2136
C19 C 0.09405(13) 0.01981(17) 0.05719(17)
H29 H 0.0508 0.0308 0.0281
H30 H 0.1007 -0.0396 0.0826
H31 H 0.1126 0.0238 0.0161
B1 B -0.07331(11) 0.22175(17) 0.17830(15)
C20 C -0.14396(10) 0.25034(15) 0.14383(13)
F1 F -0.17283(6) 0.10287(9) 0.15896(9)
C21 C -0.18809(10) 0.18835(15) 0.13673(14)
F2 F -0.28844(6) 0.14217(10) 0.10101(10)
C22 C -0.24874(10) 0.20683(17) 0.10780(14)
F3 F -0.32656(6) 0.31296(11) 0.05649(9)
C23 C -0.26831(10) 0.29224(18) 0.08410(14)
F4 F -0.24589(7) 0.43951(10) 0.06460(10)
C24 C -0.22725(11) 0.35646(16) 0.08880(14)
F5 F -0.12978(6) 0.40314(9) 0.12220(9)
C25 C -0.16690(10) 0.33467(15) 0.11849(14)
P1A P -0.03933(2) 0.22184(4) 0.30852(3)
C1A C -0.00086(10) 0.11668(16) 0.35290(15)
H1A H 0.0018 0.1080 0.4114
H2A H -0.0230 0.0661 0.3174
C2A C 0.06274(10) 0.12322(15) 0.35337(14)
H3A H 0.0675 0.0775 0.3151
H4A H 0.0932 0.1121 0.4116
C3A C 0.03000(9) 0.28683(15) 0.35094(13)
H5A H 0.0244 0.3463 0.3229
C4A C 0.05420(10) 0.29572(16) 0.44856(13)
H6A H 0.0612 0.2365 0.4744
H7A H 0.0248 0.3273 0.4639
H8A H 0.0920 0.3290 0.4695
C5A C -0.08703(10) 0.25060(15) 0.36554(13)
C6A C -0.09275(10) 0.34100(15) 0.38373(14)
C7A C -0.10909(11) 0.36150(16) 0.45054(15)
H9A H -0.1110 0.4220 0.4647
C8A C -0.12273(11) 0.29654(16) 0.49724(15)
C9A C -0.12558(11) 0.20971(16) 0.46994(15)
H10A H -0.1393 0.1654 0.4971
C10A C -0.10913(10) 0.18456(15) 0.40419(14)
C11A C -0.08772(11) 0.41723(15) 0.32867(15)
H11A H -0.0769 0.3917 0.2830
C12A C -0.04081(12) 0.48759(17) 0.37610(16)
H12A H -0.0509 0.5144 0.4206
H13A H -0.0404 0.5336 0.3360
H14A H -0.0011 0.4598 0.4020
C13A C -0.14962(12) 0.46130(17) 0.28580(16)
H15A H -0.1801 0.4157 0.2587
H16A H -0.1491 0.5034 0.2426
H17A H -0.1591 0.4929 0.3287
C14A C -0.13712(12) 0.31981(17) 0.57310(16)
H18A H -0.1408 0.2630 0.6006
C15A C -0.08673(14) 0.3736(2) 0.63921(18)
H19A H -0.0487 0.3416 0.6554
H20A H -0.0955 0.3825 0.6896
H21A H -0.0836 0.4314 0.6151
C16A C -0.19684(14) 0.3681(2) 0.5452(2)
H22A H -0.1947 0.4240 0.5174
H23A H -0.2055 0.3807 0.5951
H24A H -0.2287 0.3309 0.5052
C17A C -0.12217(10) 0.08919(15) 0.37283(15)
H25A H -0.1057 0.0799 0.3287
C18A C -0.19046(11) 0.07546(19) 0.33054(17)
H26A H -0.2072 0.0807 0.3735
H27A H -0.1992 0.0163 0.3047
H28A H -0.2085 0.1206 0.2864
C19A C -0.09405(13) 0.01981(17) 0.44281(17)
H29A H -0.0508 0.0308 0.4719
H30A H -0.1007 -0.0396 0.4174
H31A H -0.1126 0.0238 0.4839
B1A B 0.07331(11) 0.22175(17) 0.32170(15)
C20A C 0.14396(10) 0.25034(15) 0.35617(13)
F1A F 0.17283(6) 0.10287(9) 0.34104(9)
C21A C 0.18809(10) 0.18835(15) 0.36327(14)
F2A F 0.28844(6) 0.14217(10) 0.39899(10)
C22A C 0.24874(10) 0.20683(17) 0.39220(14)
F3A F 0.32656(6) 0.31296(11) 0.44351(9)
C23A C 0.26831(10) 0.29224(18) 0.41590(14)
F4A F 0.24589(7) 0.43951(10) 0.43540(10)
C24A C 0.22725(11) 0.35646(16) 0.41120(14)
F5A F 0.12978(6) 0.40314(9) 0.37780(9)
C25A C 0.16690(10) 0.33467(15) 0.38151(14)
C26 C 0.08633(16) 0.8271(2) 0.2034(2)
C27 C 0.11596(18) 0.7533(2) 0.1944(2)
H32 H 0.0947 0.7099 0.1532
C28 C 0.1756(2) 0.7408(3) 0.2437(3)
H33 H 0.1942 0.6869 0.2388
C29 C 0.20874(18) 0.8036(3) 0.2993(3)
H34 H 0.2508 0.7962 0.3300
C30 C 0.1801(2) 0.8785(3) 0.3103(3)
H35 H 0.2024 0.9229 0.3496
C31 C 0.11782(18) 0.8893(2) 0.2633(2)
H36 H 0.0977 0.9394 0.2730
C32 C 0.02098(18) 0.8380(3) 0.1509(3)
H37 H -0.0015 0.8278 0.1863
H38 H 0.0082 0.7951 0.1040
H39 H 0.0132 0.8984 0.1277
loop_
_geom_bond_atom_site_label_1
_geom_bond_atom_site_label_2
_geom_bond_site_symmetry_1
_geom_bond_site_symmetry_2
P1 C1 1_555 1_555
C1 H1 1_555 1_555
H2 C1 1_555 1_555
C2 C1 1_555 1_555
H3 C2 1_555 1_555
H4 C2 1_555 1_555
C3 P1 1_555 1_555
H5 C3 1_555 1_555
C4 C3 1_555 1_555
H6 C4 1_555 1_555
H7 C4 1_555 1_555
H8 C4 1_555 1_555
C5 P1 1_555 1_555
C6 C5 1_555 1_555
C7 C6 1_555 1_555
H9 C7 1_555 1_555
C8 C7 1_555 1_555
C9 C8 1_555 1_555
H10 C9 1_555 1_555
C10 C5 1_555 1_555
C11 C6 1_555 1_555
H11 C11 1_555 1_555
C12 C11 1_555 1_555
H12 C12 1_555 1_555
H13 C12 1_555 1_555
H14 C12 1_555 1_555
C13 C11 1_555 1_555
H15 C13 1_555 1_555
H16 C13 1_555 1_555
H17 C13 1_555 1_555
C14 C8 1_555 1_555
H18 C14 1_555 1_555
C15 C14 1_555 1_555
H19 C15 1_555 1_555
H20 C15 1_555 1_555
H21 C15 1_555 1_555
C16 C14 1_555 1_555
H22 C16 1_555 1_555
H23 C16 1_555 1_555
H24 C16 1_555 1_555
C17 C10 1_555 1_555
H25 C17 1_555 1_555
C18 C17 1_555 1_555
H26 C18 1_555 1_555
H27 C18 1_555 1_555
H28 C18 1_555 1_555
C19 C17 1_555 1_555
H29 C19 1_555 1_555
H30 C19 1_555 1_555
H31 C19 1_555 1_555
B1 C2 1_555 1_555
C20 B1 1_555 1_555
F1 C21 1_555 1_555
C21 C20 1_555 1_555
F2 C22 1_555 1_555
C22 C21 1_555 1_555
F3 C23 1_555 1_555
C23 C22 1_555 1_555
F4 C24 1_555 1_555
C24 C23 1_555 1_555
F5 C25 1_555 1_555
C25 C20 1_555 1_555
C26 C27 1_555 1_555
C27 H32 1_555 1_555
C28 C27 1_555 1_555
H33 C28 1_555 1_555
C29 C28 1_555 1_555
H34 C29 1_555 1_555
C30 C29 1_555 1_555
H35 C30 1_555 1_555
C31 C26 1_555 1_555
H36 C31 1_555 1_555
C32 C26 1_555 1_555
H37 C32 1_555 1_555
H38 C32 1_555 1_555
H39 C32 1_555 1_555
P1A B1 1_555 1_555
C1A P1A 1_555 1_555
H1A C1A 1_555 1_555
H2A C1A 1_555 1_555
C2A C1A 1_555 1_555
H3A C2A 1_555 1_555
H4A C2A 1_555 1_555
C3A P1A 1_555 1_555
H5A C3A 1_555 1_555
C4A C3A 1_555 1_555
H6A C4A 1_555 1_555
H7A C4A 1_555 1_555
H8A C4A 1_555 1_555
C5A P1A 1_555 1_555
C6A C5A 1_555 1_555
C7A C6A 1_555 1_555
H9A C7A 1_555 1_555
C8A C7A 1_555 1_555
C9A C8A 1_555 1_555
H10A C9A 1_555 1_555
C10A C5A 1_555 1_555
C11A C6A 1_555 1_555
H11A C11A 1_555 1_555
C12A C11A 1_555 1_555
H12A C12A 1_555 1_555
H13A C12A 1_555 1_555
H14A C12A 1_555 1_555
C13A C11A 1_555 1_555
H15A C13A 1_555 1_555
H16A C13A 1_555 1_555
H17A C13A 1_555 1_555
C14A C8A 1_555 1_555
H18A C14A 1_555 1_555
C15A C14A 1_555 1_555
H19A C15A 1_555 1_555
H20A C15A 1_555 1_555
H21A C15A 1_555 1_555
C16A C14A 1_555 1_555
H22A C16A 1_555 1_555
H23A C16A 1_555 1_555
H24A C16A 1_555 1_555
C17A C10A 1_555 1_555
H25A C17A 1_555 1_555
C18A C17A 1_555 1_555
H26A C18A 1_555 1_555
H27A C18A 1_555 1_555
H28A C18A 1_555 1_555
C19A C17A 1_555 1_555
H29A C19A 1_555 1_555
H30A C19A 1_555 1_555
H31A C19A 1_555 1_555
B1A P1 1_555 1_555
C20A B1A 1_555 1_555
F1A C21A 1_555 1_555
C21A C20A 1_555 1_555
F2A C22A 1_555 1_555
C22A C21A 1_555 1_555
F3A C23A 1_555 1_555
C23A C22A 1_555 1_555
F4A C24A 1_555 1_555
C24A C23A 1_555 1_555
F5A C25A 1_555 1_555
C25A C20A 1_555 1_555
C3 B1 1_555 1_555
C9 C10 1_555 1_555
C24 C25 1_555 1_555
C30 C31 1_555 1_555
C2A B1A 1_555 1_555
C3A B1A 1_555 1_555
C9A C10A 1_555 1_555
C24A C25A 1_555 1_555

#END
