
#######################################################################
#
#                 Cambridge Crystallographic Data Centre
#                                CCDC 
#
#######################################################################
#
# If this CIF has been generated from an entry in the Cambridge 
# Structural Database, then it will include bibliographic, chemical, 
# crystal, experimental, refinement or atomic coordinate data resulting 
# from the CCDC's data processing and validation procedures.
#
#######################################################################

data_BEZRIK
_chemical_formula_moiety         'C50 H62 B2 F10 P2,2(C7 H8)'
_chemical_name_systematic        
'9,10-dimethyl-2,6-bis(pentafluorophenyl)-1,5-bis[2,4,6-tris(propan-2-yl)phenyl]-1,5-diphospha-2,6-diboratricyclo[4.2.1.1^2,5^]decane toluene solvate'
_symmetry_cell_setting           triclinic
_symmetry_space_group_name_H-M   'P -1'
_symmetry_Int_Tables_number      2
_space_group_name_Hall           '-P 1'
loop_
_symmetry_equiv_pos_site_id
_symmetry_equiv_pos_as_xyz
1 x,y,z
2 -x,-y,-z
_cell_length_a                   10.8445(3)
_cell_length_b                   11.9200(3)
_cell_length_c                   13.1484(3)
_cell_angle_alpha                86.0520(10)
_cell_angle_beta                 70.2850(10)
_cell_angle_gamma                66.5020(10)
_cell_volume                     1463.09
_exptl_crystal_colour            colorless
_exptl_crystal_description       plate
_cell_formula_units_Z            1
loop_
_atom_site_label
_atom_site_type_symbol
_atom_site_fract_x
_atom_site_fract_y
_atom_site_fract_z
B1 B 0.48401(19) 0.14852(17) 0.50315(14)
C1 C 0.51739(17) 0.04658(15) 0.32030(13)
H1 H 0.5767 0.0596 0.2485
H2 H 0.4478 0.0182 0.31
P1 P 0.63112(4) -0.06820(4) 0.38762(3)
C2 C 0.43785(17) 0.16767(15) 0.39460(13)
H3 H 0.3333 0.1924 0.416
H4 H 0.4619 0.2338 0.3545
C3 C 0.65213(16) 0.04564(15) 0.45932(12)
H5 H 0.6857 0.0104 0.5211
C4 C 0.75046(17) 0.10310(16) 0.38279(13)
H6 H 0.7073 0.1478 0.3297
H7 H 0.8438 0.0381 0.3449
H8 H 0.7628 0.1599 0.4252
C5 C 0.80159(17) -0.16210(15) 0.28266(13)
C6 C 0.80538(17) -0.18009(15) 0.17611(13)
C7 C 0.93613(18) -0.21649(16) 0.09212(13)
H9 H 0.9383 -0.2254 0.0202
C8 C 1.06327(18) -0.24027(16) 0.10931(14)
C9 C 1.05944(18) -0.23800(16) 0.21616(14)
H10 H 1.1467 -0.262 0.2299
C10 C 0.93151(17) -0.20160(15) 0.30376(13)
C11 C 0.67793(17) -0.17792(16) 0.14918(13)
H11 H 0.5925 -0.1501 0.2169
C12 C 0.70762(19) -0.30906(17) 0.11404(14)
H12 H 0.7884 -0.337 0.0459
H13 H 0.6227 -0.3101 0.1037
H14 H 0.7307 -0.3638 0.1701
C13 C 0.6413(2) -0.09267(18) 0.06179(14)
H15 H 0.6186 -0.0084 0.0854
H16 H 0.5586 -0.0964 0.0497
H17 H 0.7233 -0.1186 -0.0058
C14 C 1.2020(2) -0.2746(2) 0.01320(16)
H18 H 1.1766 -0.2655 -0.0542
C15 C 1.3015(4) -0.4076(3) 0.0115(3)
H19 H 1.3875 -0.4282 -0.0529
H20 H 1.2527 -0.4608 0.0096
H21 H 1.3284 -0.4199 0.0767
C16 C 1.2743(4) -0.1888(4) 0.0108(4)
H22 H 1.2073 -0.104 0.0117
H23 H 1.3582 -0.2088 -0.0553
H24 H 1.3045 -0.1979 0.0743
C17 C 0.94005(17) -0.21884(16) 0.41735(13)
H25 H 0.8402 -0.184 0.47
C18 C 1.0055(2) -0.35596(17) 0.43267(15)
H26 H 0.9555 -0.3975 0.4109
H27 H 0.9961 -0.3674 0.509
H28 H 1.1069 -0.3907 0.3879
C19 C 1.0237(2) -0.15518(18) 0.44547(15)
H29 H 1.1212 -0.1853 0.3933
H30 H 1.0269 -0.1732 0.5186
H31 H 0.9763 -0.0664 0.4425
C20 C 0.46292(16) 0.27460(15) 0.56253(12)
C21 C 0.37017(17) 0.39071(16) 0.54915(13)
F1 F 0.28804(10) 0.40515(9) 0.48771(8)
C22 C 0.35456(18) 0.49932(16) 0.59505(13)
F2 F 0.26617(11) 0.60746(9) 0.57496(8)
C23 C 0.43344(19) 0.49461(16) 0.65958(13)
F3 F 0.41880(12) 0.59816(10) 0.70607(9)
C24 C 0.52712(18) 0.38232(17) 0.67608(14)
F4 F 0.60351(11) 0.37610(10) 0.74008(9)
C25 C 0.53895(17) 0.27662(15) 0.62873(13)
F5 F 0.63099(10) 0.16995(9) 0.65154(8)
B1A B 0.51599(19) -0.14852(17) 0.49685(14)
C1A C 0.48261(17) -0.04658(15) 0.67970(13)
H1A H 0.4233 -0.0596 0.7515
H2A H 0.5522 -0.0182 0.69
P1A P 0.36888(4) 0.06820(4) 0.61238(3)
C2A C 0.56215(17) -0.16767(15) 0.60540(13)
H3A H 0.6667 -0.1924 0.584
H4A H 0.5381 -0.2338 0.6455
C3A C 0.34787(16) -0.04564(15) 0.54068(12)
H5A H 0.3143 -0.0104 0.4789
C4A C 0.24954(17) -0.10310(16) 0.61721(13)
H6A H 0.2927 -0.1478 0.6703
H7A H 0.1562 -0.0381 0.6551
H8A H 0.2372 -0.1599 0.5748
C5A C 0.19841(17) 0.16210(15) 0.71734(13)
C6A C 0.19462(17) 0.18009(15) 0.82389(13)
C7A C 0.06387(18) 0.21649(16) 0.90788(13)
H9A H 0.0617 0.2254 0.9798
C8A C -0.06327(18) 0.24027(16) 0.89069(14)
C9A C -0.05944(18) 0.23800(16) 0.78384(14)
H10A H -0.1467 0.262 0.7701
C10A C 0.06849(17) 0.20160(15) 0.69624(13)
C11A C 0.32207(17) 0.17792(16) 0.85082(13)
H11A H 0.4075 0.1501 0.7831
C12A C 0.29238(19) 0.30906(17) 0.88596(14)
H12A H 0.2116 0.337 0.9541
H13A H 0.3773 0.3101 0.8963
H14A H 0.2693 0.3638 0.8299
C13A C 0.3587(2) 0.09267(18) 0.93821(14)
H15A H 0.3814 0.0084 0.9146
H16A H 0.4414 0.0964 0.9503
H17A H 0.2767 0.1186 1.0058
C14A C -0.2020(2) 0.2746(2) 0.98680(16)
H18A H -0.1766 0.2655 1.0542
C15A C -0.3015(4) 0.4076(3) 0.9885(3)
H19A H -0.3875 0.4282 1.0529
H20A H -0.2527 0.4608 0.9904
H21A H -0.3284 0.4199 0.9233
C16A C -0.2743(4) 0.1888(4) 0.9892(4)
H22A H -0.2073 0.104 0.9883
H23A H -0.3582 0.2088 1.0553
H24A H -0.3045 0.1979 0.9257
C17A C 0.05995(17) 0.21884(16) 0.58265(13)
H25A H 0.1598 0.184 0.53
C18A C -0.0055(2) 0.35596(17) 0.56733(15)
H26A H 0.0445 0.3975 0.5891
H27A H 0.0039 0.3674 0.491
H28A H -0.1069 0.3907 0.6121
C19A C -0.0237(2) 0.15518(18) 0.55453(15)
H29A H -0.1212 0.1853 0.6067
H30A H -0.0269 0.1732 0.4814
H31A H 0.0237 0.0664 0.5575
C20A C 0.53708(16) -0.27460(15) 0.43747(12)
C21A C 0.62983(17) -0.39071(16) 0.45085(13)
F1A F 0.71196(10) -0.40515(9) 0.51229(8)
C22A C 0.64544(18) -0.49932(16) 0.40495(13)
F2A F 0.73383(11) -0.60746(9) 0.42504(8)
C23A C 0.56656(19) -0.49461(16) 0.34042(13)
F3A F 0.58120(12) -0.59816(10) 0.29393(9)
C24A C 0.47288(18) -0.38232(17) 0.32392(14)
F4A F 0.39649(11) -0.37610(10) 0.25992(9)
C25A C 0.46105(17) -0.27662(15) 0.37127(13)
F5A F 0.36901(10) -0.16995(9) 0.34846(8)
C28 C 0.8712(2) 0.80613(19) 0.77427(14)
C29 C 0.7907(2) 0.7394(2) 0.77478(16)
H39 H 0.7012 0.7798 0.7643
C30 C 0.8392(3) 0.6155(2) 0.79031(18)
H40 H 0.7837 0.5712 0.789
C31 C 0.9682(2) 0.5557(2) 0.80772(17)
H41 H 1.0016 0.4706 0.8183
C32 C 1.0476(2) 0.6208(2) 0.80952(16)
H42 H 1.1351 0.5807 0.8232
C33 C 1.0009(2) 0.74445(19) 0.79158(15)
H43 H 1.0582 0.7877 0.7911
C34 C 0.8185(2) 0.9406(2) 0.75638(17)
H44 H 0.8811 0.9747 0.7691
H45 H 0.7209 0.9831 0.8067
H46 H 0.8191 0.9517 0.6817
H32? H 1.1905 -0.3248 -0.038
C26? C 1.3344(15) -0.354(3) 0.0271(17)
H33? H 1.3395 -0.3263 0.0936
H34? H 1.4144 -0.3515 -0.0351
H35? H 1.3398 -0.438 0.0324
C27? C 1.2016(13) -0.1599(11) -0.0466(9)
H36? H 1.1954 -0.0981 0.0024
H37? H 1.1192 -0.1268 -0.0716
H38? H 1.2899 -0.1813 -0.1091
loop_
_geom_bond_atom_site_label_1
_geom_bond_atom_site_label_2
_geom_bond_site_symmetry_1
_geom_bond_site_symmetry_2
B1 C2 1_555 1_555
C1 H1 1_555 1_555
H2 C1 1_555 1_555
P1 C1 1_555 1_555
C2 C1 1_555 1_555
H3 C2 1_555 1_555
H4 C2 1_555 1_555
C3 B1 1_555 1_555
H5 C3 1_555 1_555
C4 C3 1_555 1_555
H6 C4 1_555 1_555
H7 C4 1_555 1_555
H8 C4 1_555 1_555
C5 P1 1_555 1_555
C6 C5 1_555 1_555
C7 C6 1_555 1_555
H9 C7 1_555 1_555
C8 C7 1_555 1_555
C9 C8 1_555 1_555
H10 C9 1_555 1_555
C10 C5 1_555 1_555
C11 C6 1_555 1_555
H11 C11 1_555 1_555
C12 C11 1_555 1_555
H12 C12 1_555 1_555
H13 C12 1_555 1_555
H14 C12 1_555 1_555
C13 C11 1_555 1_555
H15 C13 1_555 1_555
H16 C13 1_555 1_555
H17 C13 1_555 1_555
C14 C8 1_555 1_555
H18 C14 1_555 1_555
C15 C14 1_555 1_555
H19 C15 1_555 1_555
H20 C15 1_555 1_555
H21 C15 1_555 1_555
C16 C14 1_555 1_555
H22 C16 1_555 1_555
H23 C16 1_555 1_555
H24 C16 1_555 1_555
C17 C10 1_555 1_555
H25 C17 1_555 1_555
C18 C17 1_555 1_555
H26 C18 1_555 1_555
H27 C18 1_555 1_555
H28 C18 1_555 1_555
C19 C17 1_555 1_555
H29 C19 1_555 1_555
H30 C19 1_555 1_555
H31 C19 1_555 1_555
C20 B1 1_555 1_555
C21 C20 1_555 1_555
F1 C21 1_555 1_555
C22 C21 1_555 1_555
F2 C22 1_555 1_555
C23 C22 1_555 1_555
F3 C23 1_555 1_555
C24 C23 1_555 1_555
F4 C24 1_555 1_555
C25 C20 1_555 1_555
F5 C25 1_555 1_555
C28 C29 1_555 1_555
C29 H39 1_555 1_555
C30 C29 1_555 1_555
H40 C30 1_555 1_555
C31 C30 1_555 1_555
H41 C31 1_555 1_555
C32 C31 1_555 1_555
H42 C32 1_555 1_555
C33 C28 1_555 1_555
H43 C33 1_555 1_555
C34 C28 1_555 1_555
H44 C34 1_555 1_555
H45 C34 1_555 1_555
H46 C34 1_555 1_555
B1A P1 1_555 1_555
C1A H1A 1_555 1_555
H2A C1A 1_555 1_555
P1A B1 1_555 1_555
C2A B1A 1_555 1_555
H3A C2A 1_555 1_555
H4A C2A 1_555 1_555
C3A B1A 1_555 1_555
H5A C3A 1_555 1_555
C4A C3A 1_555 1_555
H6A C4A 1_555 1_555
H7A C4A 1_555 1_555
H8A C4A 1_555 1_555
C5A P1A 1_555 1_555
C6A C5A 1_555 1_555
C7A C6A 1_555 1_555
H9A C7A 1_555 1_555
C8A C7A 1_555 1_555
C9A C8A 1_555 1_555
H10A C9A 1_555 1_555
C10A C5A 1_555 1_555
C11A C6A 1_555 1_555
H11A C11A 1_555 1_555
C12A C11A 1_555 1_555
H12A C12A 1_555 1_555
H13A C12A 1_555 1_555
H14A C12A 1_555 1_555
C13A C11A 1_555 1_555
H15A C13A 1_555 1_555
H16A C13A 1_555 1_555
H17A C13A 1_555 1_555
C14A C8A 1_555 1_555
H18A C14A 1_555 1_555
C15A C14A 1_555 1_555
H19A C15A 1_555 1_555
H20A C15A 1_555 1_555
H21A C15A 1_555 1_555
C16A C14A 1_555 1_555
H22A C16A 1_555 1_555
H23A C16A 1_555 1_555
H24A C16A 1_555 1_555
C17A C10A 1_555 1_555
H25A C17A 1_555 1_555
C18A C17A 1_555 1_555
H26A C18A 1_555 1_555
H27A C18A 1_555 1_555
H28A C18A 1_555 1_555
C19A C17A 1_555 1_555
H29A C19A 1_555 1_555
H30A C19A 1_555 1_555
H31A C19A 1_555 1_555
C20A B1A 1_555 1_555
C21A C20A 1_555 1_555
F1A C21A 1_555 1_555
C22A C21A 1_555 1_555
F2A C22A 1_555 1_555
C23A C22A 1_555 1_555
F3A C23A 1_555 1_555
C24A C23A 1_555 1_555
F4A C24A 1_555 1_555
C25A C20A 1_555 1_555
F5A C25A 1_555 1_555
P1 C3 1_555 1_555
C9 C10 1_555 1_555
C24 C25 1_555 1_555
C32 C33 1_555 1_555
C1A P1A 1_555 1_555
C1A C2A 1_555 1_555
P1A C3A 1_555 1_555
C9A C10A 1_555 1_555
C24A C25A 1_555 1_555

#END
