
#######################################################################
#
#                 Cambridge Crystallographic Data Centre
#                                CCDC 
#
#######################################################################
#
# If this CIF has been generated from an entry in the Cambridge 
# Structural Database, then it will include bibliographic, chemical, 
# crystal, experimental, refinement or atomic coordinate data resulting 
# from the CCDC's data processing and validation procedures.
#
#######################################################################

data_BEZSUX
_chemical_formula_moiety         'C39 H39 B1 F5 P1'
_chemical_name_systematic        
7-methyl-4-(pentafluorophenyl)-2,6-diphenyl-1-[2,4,6-tris(propan-2-yl)phenyl]-1-phospha-4-borabicyclo[2.2.1]hepta-2,5-diene
_symmetry_cell_setting           triclinic
_symmetry_space_group_name_H-M   'P -1'
_symmetry_Int_Tables_number      2
_space_group_name_Hall           '-P 1'
loop_
_symmetry_equiv_pos_site_id
_symmetry_equiv_pos_as_xyz
1 x,y,z
2 -x,-y,-z
_cell_length_a                   10.1084(8)
_cell_length_b                   12.6426(9)
_cell_length_c                   13.2320(11)
_cell_angle_alpha                94.185(3)
_cell_angle_beta                 92.423(3)
_cell_angle_gamma                101.427(3)
_cell_volume                     1650.28
_exptl_crystal_colour            colorless
_exptl_crystal_description       prism
_cell_formula_units_Z            2
loop_
_atom_site_label
_atom_site_type_symbol
_atom_site_fract_x
_atom_site_fract_y
_atom_site_fract_z
P1 P 0.54771(6) 0.64220(5) 0.27028(4)
C1 C 0.6555(2) 0.68241(18) 0.16630(17)
C2 C 0.7397(2) 0.61254(18) 0.16380(17)
H1 H 0.8118 0.6169 0.1195
C3 C 0.5335(2) 0.49758(18) 0.23888(18)
H2 H 0.4983 0.4564 0.2971
C4 C 0.4598(3) 0.4442(2) 0.14030(18)
H3 H 0.4888 0.4888 0.0846
H4 H 0.3621 0.4371 0.146
H5 H 0.4808 0.3723 0.1266
C5 C 0.6565(2) 0.64419(18) 0.38396(17)
C6 C 0.7409(2) 0.57796(17) 0.35776(17)
H6 H 0.8126 0.5666 0.4017
C7 C 0.4191(2) 0.72350(18) 0.28918(17)
C8 C 0.4624(2) 0.83793(18) 0.30793(16)
C9 C 0.3639(2) 0.89919(18) 0.32423(17)
H7 H 0.3919 0.9755 0.3365
C10 C 0.2271(2) 0.85448(18) 0.32352(17)
C11 C 0.1882(2) 0.74267(18) 0.30626(17)
H8 H 0.0948 0.7106 0.3053
C12 C 0.2803(2) 0.67589(18) 0.29037(17)
C13 C 0.6084(2) 0.90044(18) 0.31600(17)
H9 H 0.6688 0.8482 0.3011
C14 C 0.6484(2) 0.95622(19) 0.42334(18)
H10 H 0.5946 1.0115 0.4373
H11 H 0.7446 0.9903 0.4277
H12 H 0.6316 0.9023 0.4733
C15 C 0.6339(2) 0.98843(18) 0.24070(18)
H13 H 0.5996 0.9569 0.1725
H14 H 0.7312 1.0177 0.2404
H15 H 0.5873 1.0468 0.2613
C16 C 0.1242(2) 0.92576(19) 0.33976(19)
H16 H 0.1726 0.9952 0.377
C17 C 0.0718(3) 0.9527(3) 0.2380(2)
H17 H 0.1474 0.9899 0.2015
H18 H 0.0067 0.9999 0.2485
H19 H 0.0274 0.8858 0.1982
C18 C 0.0097(3) 0.8768(2) 0.4040(3)
H20 H -0.0432 0.9315 0.423
H21 H 0.0476 0.8523 0.4655
H22 H -0.0488 0.815 0.3649
C19 C 0.2234(2) 0.55397(19) 0.28015(18)
H23 H 0.3007 0.5161 0.2713
C20 C 0.1256(3) 0.5218(2) 0.18613(19)
H24 H 0.0467 0.5552 0.1946
H25 H 0.0962 0.4429 0.1779
H26 H 0.1713 0.5469 0.1259
C21 C 0.1538(3) 0.5170(2) 0.3756(2)
H27 H 0.2185 0.536 0.4345
H28 H 0.1211 0.4384 0.3677
H29 H 0.0774 0.5529 0.3857
B1 B 0.7076(3) 0.5195(2) 0.2435(2)
C22 C 0.7661(2) 0.41093(18) 0.21419(17)
F1 F 0.81098(14) 0.37327(10) 0.38433(10)
C23 C 0.8148(2) 0.34838(18) 0.28308(17)
F2 F 0.91450(15) 0.20263(11) 0.32924(11)
C24 C 0.8691(2) 0.25938(18) 0.25716(18)
F3 F 0.93316(15) 0.14165(11) 0.12889(11)
C25 C 0.8783(2) 0.22746(18) 0.15614(19)
F4 F 0.83678(16) 0.25458(11) -0.01560(10)
C26 C 0.8304(2) 0.28480(19) 0.08365(18)
F5 F 0.72965(15) 0.42491(11) 0.03730(10)
C27 C 0.7760(2) 0.37333(18) 0.11369(18)
C28 C 0.6458(2) 0.76532(18) 0.09488(17)
C29 C 0.5209(2) 0.78020(18) 0.05484(17)
H30 H 0.4396 0.7389 0.0766
C30 C 0.5147(3) 0.85467(19) -0.01637(18)
H31 H 0.4294 0.8638 -0.0432
C31 C 0.6327(3) 0.9160(2) -0.04858(18)
H32 H 0.6282 0.9679 -0.0963
C32 C 0.7574(3) 0.9009(2) -0.01055(19)
H33 H 0.8384 0.9421 -0.0327
C33 C 0.7632(3) 0.82574(19) 0.05960(18)
H34 H 0.8488 0.815 0.0843
C34 C 0.6450(2) 0.69679(17) 0.48643(17)
C35 C 0.5205(2) 0.70528(19) 0.52383(18)
H35 H 0.4403 0.68 0.4818
C36 C 0.5121(3) 0.75023(19) 0.62169(18)
H36 H 0.4264 0.7567 0.6455
C37 C 0.6272(3) 0.78562(19) 0.68461(19)
H37 H 0.6212 0.8161 0.7516
C38 C 0.7520(3) 0.77625(19) 0.64911(18)
H38 H 0.8315 0.7994 0.6923
C39 C 0.7609(2) 0.73323(18) 0.55077(17)
H39 H 0.847 0.7285 0.5268
loop_
_geom_bond_atom_site_label_1
_geom_bond_atom_site_label_2
_geom_bond_site_symmetry_1
_geom_bond_site_symmetry_2
P1 C1 1_555 1_555
C1 C2 1_555 1_555
C2 H1 1_555 1_555
C3 P1 1_555 1_555
H2 C3 1_555 1_555
C4 C3 1_555 1_555
H3 C4 1_555 1_555
H4 C4 1_555 1_555
H5 C4 1_555 1_555
C5 P1 1_555 1_555
C6 C5 1_555 1_555
H6 C6 1_555 1_555
C7 P1 1_555 1_555
C8 C7 1_555 1_555
C9 C8 1_555 1_555
H7 C9 1_555 1_555
C10 C9 1_555 1_555
C11 C10 1_555 1_555
H8 C11 1_555 1_555
C12 C7 1_555 1_555
C13 C8 1_555 1_555
H9 C13 1_555 1_555
C14 C13 1_555 1_555
H10 C14 1_555 1_555
H11 C14 1_555 1_555
H12 C14 1_555 1_555
C15 C13 1_555 1_555
H13 C15 1_555 1_555
H14 C15 1_555 1_555
H15 C15 1_555 1_555
C16 C10 1_555 1_555
H16 C16 1_555 1_555
C17 C16 1_555 1_555
H17 C17 1_555 1_555
H18 C17 1_555 1_555
H19 C17 1_555 1_555
C18 C16 1_555 1_555
H20 C18 1_555 1_555
H21 C18 1_555 1_555
H22 C18 1_555 1_555
C19 C12 1_555 1_555
H23 C19 1_555 1_555
C20 C19 1_555 1_555
H24 C20 1_555 1_555
H25 C20 1_555 1_555
H26 C20 1_555 1_555
C21 C19 1_555 1_555
H27 C21 1_555 1_555
H28 C21 1_555 1_555
H29 C21 1_555 1_555
B1 C2 1_555 1_555
C22 B1 1_555 1_555
F1 C23 1_555 1_555
C23 C22 1_555 1_555
F2 C24 1_555 1_555
C24 C23 1_555 1_555
F3 C25 1_555 1_555
C25 C24 1_555 1_555
F4 C26 1_555 1_555
C26 C25 1_555 1_555
F5 C27 1_555 1_555
C27 C22 1_555 1_555
C28 C1 1_555 1_555
C29 C28 1_555 1_555
H30 C29 1_555 1_555
C30 C29 1_555 1_555
H31 C30 1_555 1_555
C31 C30 1_555 1_555
H32 C31 1_555 1_555
C32 C31 1_555 1_555
H33 C32 1_555 1_555
C33 C28 1_555 1_555
H34 C33 1_555 1_555
C34 C5 1_555 1_555
C35 C34 1_555 1_555
H35 C35 1_555 1_555
C36 C35 1_555 1_555
H36 C36 1_555 1_555
C37 C36 1_555 1_555
H37 C37 1_555 1_555
C38 C37 1_555 1_555
H38 C38 1_555 1_555
C39 C34 1_555 1_555
H39 C39 1_555 1_555
C3 B1 1_555 1_555
C6 B1 1_555 1_555
C11 C12 1_555 1_555
C26 C27 1_555 1_555
C32 C33 1_555 1_555
C38 C39 1_555 1_555

#END
