
#######################################################################
#
#                 Cambridge Crystallographic Data Centre
#                                CCDC 
#
#######################################################################
#
# If this CIF has been generated from an entry in the Cambridge 
# Structural Database, then it will include bibliographic, chemical, 
# crystal, experimental, refinement or atomic coordinate data resulting 
# from the CCDC's data processing and validation procedures.
#
#######################################################################

data_BEZTIM
_chemical_formula_moiety         'C33 H39 B2 F10 P1 S1'
_chemical_name_systematic        
3-(dimethyl-sulfanyl)-2-methyl-3-(pentafluorophenyl)-1-[(pentafluorophenyl)-boranyl]-1-[2,4,6-tris(propan-2-yl)phenyl]-1,3-phosphaborolane
_symmetry_cell_setting           monoclinic
_symmetry_space_group_name_H-M   'P 21/c'
_symmetry_Int_Tables_number      14
_space_group_name_Hall           '-P 2ybc'
loop_
_symmetry_equiv_pos_site_id
_symmetry_equiv_pos_as_xyz
1 x,y,z
2 -x,1/2+y,1/2-z
3 -x,-y,-z
4 x,1/2-y,1/2+z
_cell_length_a                   9.0259(6)
_cell_length_b                   24.2046(13)
_cell_length_c                   15.7132(10)
_cell_angle_alpha                90
_cell_angle_beta                 98.923(2)
_cell_angle_gamma                90
_cell_volume                     3391.29
_exptl_crystal_colour            colorless
_exptl_crystal_description       prism
_cell_formula_units_Z            4
loop_
_atom_site_label
_atom_site_type_symbol
_atom_site_fract_x
_atom_site_fract_y
_atom_site_fract_z
P1 P 0.65307(8) 0.51284(3) 0.30654(4)
S1 S 0.87685(8) 0.62840(3) 0.36084(5)
B1 B 0.7268(4) 0.59436(13) 0.4296(2)
B2 B 0.5277(4) 0.44623(13) 0.2978(2)
H1 H 0.504(4) 0.4407(12) 0.363(2)
H2 H 0.433(4) 0.4533(13) 0.251(2)
C1 C 0.8216(3) 0.50103(12) 0.38760(18)
H3 H 0.828 0.4617 0.4049
H4 H 0.9131 0.5107 0.3633
C2 C 0.8086(3) 0.53765(11) 0.46587(18)
H5 H 0.9093 0.5457 0.4983
H6 H 0.7487 0.5188 0.5049
C3 C 0.5835(3) 0.57431(11) 0.35859(17)
H7 H 0.5559 0.6041 0.3148
C4 C 0.4468(3) 0.55948(12) 0.40173(19)
H8 H 0.4783 0.535 0.4509
H9 H 0.3715 0.5407 0.36
H10 H 0.4035 0.5933 0.4218
C5 C 0.7941(4) 0.68932(14) 0.3092(3)
H11 H 0.7573 0.713 0.352
H12 H 0.7102 0.6789 0.2648
H13 H 0.8693 0.7094 0.2826
C6 C 1.0189(4) 0.65711(16) 0.4407(2)
H14 H 1.0946 0.6756 0.4124
H15 H 1.0663 0.6275 0.4779
H16 H 0.9734 0.6839 0.4756
C7 C 0.7041(3) 0.53929(11) 0.20510(17)
C8 C 0.5981(3) 0.57404(11) 0.15346(17)
C9 C 0.6458(3) 0.60603(11) 0.08913(18)
H17 H 0.5762 0.6302 0.0562
C10 C 0.7923(3) 0.60380(11) 0.07141(18)
C11 C 0.8869(3) 0.56434(11) 0.11494(18)
H18 H 0.9842 0.5599 0.1
C12 C 0.8454(3) 0.53104(11) 0.17946(17)
C13 C 0.4307(3) 0.57234(11) 0.15790(17)
H19 H 0.4167 0.5514 0.2109
C14 C 0.3581(3) 0.62923(13) 0.1625(2)
H20 H 0.4116 0.6499 0.2115
H21 H 0.2529 0.6246 0.1699
H22 H 0.3632 0.6496 0.1092
C15 C 0.3538(3) 0.53958(13) 0.07961(19)
H23 H 0.3701 0.5583 0.0266
H24 H 0.246 0.5372 0.0815
H25 H 0.3963 0.5023 0.0808
C16 C 0.8516(3) 0.64221(12) 0.00821(19)
H26 H 0.9351 0.6225 -0.014
C17 C 0.7370(4) 0.65776(15) -0.0692(2)
H27 H 0.6971 0.6242 -0.0991
H28 H 0.785 0.6807 -0.1085
H29 H 0.655 0.6785 -0.0499
C18 C 0.9185(4) 0.69361(13) 0.0554(2)
H30 H 0.8385 0.7152 0.0751
H31 H 0.9682 0.7161 0.0163
H32 H 0.9919 0.6826 0.1052
C19 C 0.9538(3) 0.48521(11) 0.21471(18)
H33 H 0.9067 0.4632 0.2573
C20 C 0.9799(4) 0.44638(12) 0.1400(2)
H34 H 0.883 0.4351 0.1077
H35 H 1.0355 0.4136 0.1636
H36 H 1.0378 0.4659 0.1015
C21 C 1.1052(3) 0.50668(13) 0.2595(2)
H37 H 1.1571 0.5254 0.2173
H38 H 1.1663 0.4756 0.2849
H39 H 1.0894 0.5328 0.3049
C22 C 0.6903(3) 0.63989(11) 0.49956(19)
C23 C 0.7614(4) 0.64093(12) 0.5848(2)
F1 F 0.8786(2) 0.60729(7) 0.61095(11)
C24 C 0.7209(4) 0.67500(13) 0.6479(2)
F2 F 0.7954(3) 0.67358(8) 0.72833(12)
C25 C 0.6041(4) 0.71118(13) 0.6269(2)
F3 F 0.5599(3) 0.74405(9) 0.68748(15)
C26 C 0.5320(4) 0.71395(13) 0.5431(2)
F4 F 0.4184(3) 0.74958(8) 0.52115(16)
C27 C 0.5766(4) 0.67932(12) 0.4822(2)
F5 F 0.5012(2) 0.68510(7) 0.40083(12)
C28 C 0.6281(3) 0.39622(11) 0.26959(19)
C29 C 0.6413(3) 0.38550(12) 0.1838(2)
F6 F 0.5723(2) 0.41892(7) 0.12138(11)
C30 C 0.7225(4) 0.34235(15) 0.1575(2)
F7 F 0.7328(3) 0.33544(10) 0.07316(15)
C31 C 0.7990(4) 0.30771(15) 0.2178(3)
F8 F 0.8811(3) 0.26587(10) 0.1934(2)
C32 C 0.7914(4) 0.31639(14) 0.3032(3)
F9 F 0.8663(3) 0.28279(9) 0.36371(18)
C33 C 0.7083(4) 0.35973(12) 0.3273(2)
F10 F 0.7060(2) 0.36598(7) 0.41344(12)
loop_
_geom_bond_atom_site_label_1
_geom_bond_atom_site_label_2
_geom_bond_site_symmetry_1
_geom_bond_site_symmetry_2
P1 B2 1_555 1_555
S1 B1 1_555 1_555
B1 C2 1_555 1_555
B2 H1 1_555 1_555
H2 B2 1_555 1_555
C1 P1 1_555 1_555
H3 C1 1_555 1_555
H4 C1 1_555 1_555
C2 C1 1_555 1_555
H5 C2 1_555 1_555
H6 C2 1_555 1_555
C3 P1 1_555 1_555
H7 C3 1_555 1_555
C4 C3 1_555 1_555
H8 C4 1_555 1_555
H9 C4 1_555 1_555
H10 C4 1_555 1_555
C5 S1 1_555 1_555
H11 C5 1_555 1_555
H12 C5 1_555 1_555
H13 C5 1_555 1_555
C6 S1 1_555 1_555
H14 C6 1_555 1_555
H15 C6 1_555 1_555
H16 C6 1_555 1_555
C7 P1 1_555 1_555
C8 C7 1_555 1_555
C9 C8 1_555 1_555
H17 C9 1_555 1_555
C10 C9 1_555 1_555
C11 C10 1_555 1_555
H18 C11 1_555 1_555
C12 C7 1_555 1_555
C13 C8 1_555 1_555
H19 C13 1_555 1_555
C14 C13 1_555 1_555
H20 C14 1_555 1_555
H21 C14 1_555 1_555
H22 C14 1_555 1_555
C15 C13 1_555 1_555
H23 C15 1_555 1_555
H24 C15 1_555 1_555
H25 C15 1_555 1_555
C16 C10 1_555 1_555
H26 C16 1_555 1_555
C17 C16 1_555 1_555
H27 C17 1_555 1_555
H28 C17 1_555 1_555
H29 C17 1_555 1_555
C18 C16 1_555 1_555
H30 C18 1_555 1_555
H31 C18 1_555 1_555
H32 C18 1_555 1_555
C19 C12 1_555 1_555
H33 C19 1_555 1_555
C20 C19 1_555 1_555
H34 C20 1_555 1_555
H35 C20 1_555 1_555
H36 C20 1_555 1_555
C21 C19 1_555 1_555
H37 C21 1_555 1_555
H38 C21 1_555 1_555
H39 C21 1_555 1_555
C22 B1 1_555 1_555
C23 C22 1_555 1_555
F1 C23 1_555 1_555
C24 C23 1_555 1_555
F2 C24 1_555 1_555
C25 C24 1_555 1_555
F3 C25 1_555 1_555
C26 C25 1_555 1_555
F4 C26 1_555 1_555
C27 C22 1_555 1_555
F5 C27 1_555 1_555
C28 B2 1_555 1_555
C29 C28 1_555 1_555
F6 C29 1_555 1_555
C30 C29 1_555 1_555
F7 C30 1_555 1_555
C31 C30 1_555 1_555
F8 C31 1_555 1_555
C32 C31 1_555 1_555
F9 C32 1_555 1_555
C33 C28 1_555 1_555
F10 C33 1_555 1_555
B1 C3 1_555 1_555
C11 C12 1_555 1_555
C26 C27 1_555 1_555
C32 C33 1_555 1_555

#END
