
#######################################################################
#
#                 Cambridge Crystallographic Data Centre
#                                CCDC 
#
#######################################################################
#
# If this CIF has been generated from an entry in the Cambridge 
# Structural Database, then it will include bibliographic, chemical, 
# crystal, experimental, refinement or atomic coordinate data resulting 
# from the CCDC's data processing and validation procedures.
#
#######################################################################

data_BEZTEI
_chemical_formula_moiety         'C25 H31 B1 F5 P1'
_chemical_name_systematic        
diethenyl[(pentafluorophenyl)-boranyl][2,4,6-tris(propan-2-yl)phenyl]-phosphane
_symmetry_cell_setting           monoclinic
_symmetry_space_group_name_H-M   'P 21/n'
_symmetry_Int_Tables_number      14
_space_group_name_Hall           '-P 2yn'
loop_
_symmetry_equiv_pos_site_id
_symmetry_equiv_pos_as_xyz
1 x,y,z
2 1/2-x,1/2+y,1/2-z
3 -x,-y,-z
4 1/2+x,1/2-y,1/2+z
_cell_length_a                   12.4707(4)
_cell_length_b                   11.7399(4)
_cell_length_c                   16.9189(5)
_cell_angle_alpha                90
_cell_angle_beta                 100.647(2)
_cell_angle_gamma                90
_cell_volume                     2434.36
_exptl_crystal_colour            colorless
_exptl_crystal_description       prism
_cell_formula_units_Z            4
loop_
_atom_site_label
_atom_site_type_symbol
_atom_site_fract_x
_atom_site_fract_y
_atom_site_fract_z
B1 B 0.64178(17) 0.45429(18) 0.24722(13)
H1 H 0.6859(17) 0.4329(18) 0.3070(13)
H2 H 0.6807(17) 0.4240(19) 0.1998(13)
C1 C 0.55376(15) 0.20812(15) 0.23222(11)
H3 H 0.5144 0.1516 0.2552
P1 P 0.51382(4) 0.35611(4) 0.23686(3)
C2 C 0.63547(16) 0.17660(17) 0.19803(11)
H4 H 0.6756 0.2321 0.1748
H5 H 0.6544 0.0983 0.1966
C3 C 0.42310(15) 0.36360(16) 0.14038(11)
H6 H 0.3552 0.3248 0.1341
C4 C 0.44596(17) 0.41952(18) 0.07890(12)
H7 H 0.5133 0.4591 0.0835
H8 H 0.3953 0.4206 0.0295
C5 C 0.43032(14) 0.36325(15) 0.31494(10)
C6 C 0.46349(14) 0.30065(15) 0.38693(10)
C7 C 0.39139(15) 0.29124(16) 0.44007(11)
H9 H 0.4127 0.2474 0.4876
C8 C 0.28960(15) 0.34306(16) 0.42679(11)
C9 C 0.26339(15) 0.41257(15) 0.35980(11)
H10 H 0.1959 0.4523 0.3515
C10 C 0.33199(14) 0.42660(15) 0.30414(10)
C11 C 0.57859(14) 0.25315(16) 0.41450(11)
H11 H 0.6186 0.2609 0.3687
C12 C 0.57986(16) 0.12723(18) 0.43786(13)
H12 H 0.5425 0.1174 0.4835
H13 H 0.6555 0.1011 0.4529
H14 H 0.5424 0.0825 0.3921
C13 C 0.63812(16) 0.32579(19) 0.48420(12)
H15 H 0.6372 0.4058 0.4675
H16 H 0.7138 0.2997 0.4993
H17 H 0.6014 0.3184 0.5304
C14 C 0.21242(16) 0.32203(17) 0.48515(12)
H18 H 0.2579 0.3168 0.5403
C15 C 0.15626(19) 0.20665(19) 0.46648(15)
H19 H 0.1136 0.2076 0.4117
H20 H 0.1077 0.1921 0.5048
H21 H 0.2115 0.1465 0.471
C16 C 0.12921(17) 0.41647(19) 0.48699(13)
H22 H 0.1672 0.4892 0.499
H23 H 0.0863 0.3998 0.5286
H24 H 0.0805 0.4212 0.4345
C17 C 0.29886(15) 0.51606(15) 0.23876(11)
H25 H 0.3593 0.5229 0.2076
C18 C 0.19498(15) 0.48354(18) 0.17992(11)
H26 H 0.2048 0.4089 0.1563
H27 H 0.18 0.5407 0.1371
H28 H 0.1336 0.4802 0.2086
C19 C 0.28336(16) 0.63289(16) 0.27573(12)
H29 H 0.2205 0.6301 0.3029
H30 H 0.2707 0.6906 0.2332
H31 H 0.349 0.6526 0.3148
C20 C 0.61084(14) 0.58771(15) 0.24119(11)
C21 C 0.62645(15) 0.65556(16) 0.17688(11)
F1 F 0.66358(9) 0.60873(10) 0.11414(6)
C22 C 0.60683(15) 0.77158(16) 0.17225(11)
F2 F 0.62264(9) 0.83120(10) 0.10766(7)
C23 C 0.57099(15) 0.82502(15) 0.23460(12)
F3 F 0.54992(9) 0.93744(9) 0.23135(7)
C24 C 0.55611(15) 0.76287(16) 0.30070(11)
F4 F 0.52246(10) 0.81543(9) 0.36244(7)
C25 C 0.57573(14) 0.64704(16) 0.30252(11)
F5 F 0.55970(9) 0.59048(9) 0.36896(6)
loop_
_geom_bond_atom_site_label_1
_geom_bond_atom_site_label_2
_geom_bond_site_symmetry_1
_geom_bond_site_symmetry_2
B1 H1 1_555 1_555
H2 B1 1_555 1_555
C1 H3 1_555 1_555
P1 B1 1_555 1_555
C2 C1 1_555 1_555
H4 C2 1_555 1_555
H5 C2 1_555 1_555
C3 P1 1_555 1_555
H6 C3 1_555 1_555
C4 C3 1_555 1_555
H7 C4 1_555 1_555
H8 C4 1_555 1_555
C5 P1 1_555 1_555
C6 C5 1_555 1_555
C7 C6 1_555 1_555
H9 C7 1_555 1_555
C8 C7 1_555 1_555
C9 C8 1_555 1_555
H10 C9 1_555 1_555
C10 C5 1_555 1_555
C11 C6 1_555 1_555
H11 C11 1_555 1_555
C12 C11 1_555 1_555
H12 C12 1_555 1_555
H13 C12 1_555 1_555
H14 C12 1_555 1_555
C13 C11 1_555 1_555
H15 C13 1_555 1_555
H16 C13 1_555 1_555
H17 C13 1_555 1_555
C14 C8 1_555 1_555
H18 C14 1_555 1_555
C15 C14 1_555 1_555
H19 C15 1_555 1_555
H20 C15 1_555 1_555
H21 C15 1_555 1_555
C16 C14 1_555 1_555
H22 C16 1_555 1_555
H23 C16 1_555 1_555
H24 C16 1_555 1_555
C17 C10 1_555 1_555
H25 C17 1_555 1_555
C18 C17 1_555 1_555
H26 C18 1_555 1_555
H27 C18 1_555 1_555
H28 C18 1_555 1_555
C19 C17 1_555 1_555
H29 C19 1_555 1_555
H30 C19 1_555 1_555
H31 C19 1_555 1_555
C20 B1 1_555 1_555
C21 C20 1_555 1_555
F1 C21 1_555 1_555
C22 C21 1_555 1_555
F2 C22 1_555 1_555
C23 C22 1_555 1_555
F3 C23 1_555 1_555
C24 C23 1_555 1_555
F4 C24 1_555 1_555
C25 C20 1_555 1_555
F5 C25 1_555 1_555
C1 P1 1_555 1_555
C9 C10 1_555 1_555
C24 C25 1_555 1_555

#END
