
#######################################################################
#
#                 Cambridge Crystallographic Data Centre
#                                CCDC 
#
#######################################################################
#
# If this CIF has been generated from an entry in the Cambridge 
# Structural Database, then it will include bibliographic, chemical, 
# crystal, experimental, refinement or atomic coordinate data resulting 
# from the CCDC's data processing and validation procedures.
#
#######################################################################

data_BEZTAE
_chemical_formula_moiety         'C42 H45 B1 F5 P1'
_chemical_name_systematic        
7-methyl-4-(pentafluorophenyl)-2,6-diphenyl-1-(2,4,6-tri-t-butylphenyl)-1-phospha-4-borabicyclo[2.2.1]hepta-2,5-diene
_symmetry_cell_setting           triclinic
_symmetry_space_group_name_H-M   'P -1'
_symmetry_Int_Tables_number      2
_space_group_name_Hall           '-P 1'
loop_
_symmetry_equiv_pos_site_id
_symmetry_equiv_pos_as_xyz
1 x,y,z
2 -x,-y,-z
_cell_length_a                   11.1225(6)
_cell_length_b                   11.7795(6)
_cell_length_c                   14.5374(8)
_cell_angle_alpha                74.415(3)
_cell_angle_beta                 78.609(3)
_cell_angle_gamma                79.231(3)
_cell_volume                     1780.34
_exptl_crystal_colour            colorless
_exptl_crystal_description       prism
_cell_formula_units_Z            2
loop_
_atom_site_label
_atom_site_type_symbol
_atom_site_fract_x
_atom_site_fract_y
_atom_site_fract_z
B1 B 0.54996(17) 0.61792(17) 0.57568(13)
C1 C 0.36549(15) 0.77700(14) 0.56821(11)
P1 P 0.40599(4) 0.72034(4) 0.69080(3)
C2 C 0.44886(15) 0.71113(14) 0.51671(11)
H1 H 0.4487 0.7186 0.45
C3 C 0.57189(15) 0.70121(14) 0.64907(11)
H2 H 0.5987 0.7785 0.6097
C4 C 0.65741(16) 0.64067(16) 0.72326(13)
H3 H 0.6291 0.5658 0.7619
H4 H 0.6561 0.6931 0.7657
H5 H 0.742 0.6241 0.6899
C5 C 0.40371(15) 0.55785(14) 0.72630(12)
C6 C 0.47967(15) 0.51650(15) 0.65535(12)
H6 H 0.4913 0.4357 0.6519
C7 C 0.32651(15) 0.78633(14) 0.79126(11)
C8 C 0.39386(15) 0.84954(14) 0.83106(12)
C9 C 0.36788(15) 0.83903(15) 0.93071(12)
H7 H 0.4196 0.8713 0.959
C10 C 0.27129(15) 0.78445(14) 0.99072(12)
C11 C 0.19170(15) 0.74807(14) 0.94563(12)
H8 H 0.1168 0.7234 0.9833
C12 C 0.21479(15) 0.74548(14) 0.84835(11)
C13 C 0.47374(16) 0.95009(15) 0.77580(12)
C14 C 0.39251(18) 1.06489(16) 0.79725(13)
H9 H 0.4359 1.1335 0.7648
H10 H 0.3766 1.058 0.8671
H11 H 0.3137 1.0757 0.7734
C15 C 0.59617(17) 0.93521(17) 0.81460(14)
H12 H 0.6482 0.8619 0.8031
H13 H 0.5787 0.9306 0.8842
H14 H 0.6397 1.0036 0.7813
C16 C 0.50498(16) 0.97263(15) 0.66551(12)
H15 H 0.4372 0.9547 0.6401
H16 H 0.5816 0.9213 0.6481
H17 H 0.5161 1.0562 0.6378
C17 C 0.24529(16) 0.77816(16) 1.09929(12)
C18 C 0.36693(18) 0.75300(19) 1.14067(13)
H18 H 0.4145 0.6784 1.1281
H19 H 0.3485 0.7462 1.2105
H20 H 0.4155 0.8184 1.1098
C19 C 0.1747(2) 0.8987(2) 1.11417(15)
H21 H 0.2256 0.9616 1.0808
H22 H 0.1565 0.8961 1.1834
H23 H 0.097 0.9152 1.0878
C20 C 0.1672(2) 0.6801(2) 1.15523(13)
H24 H 0.0844 0.7003 1.1367
H25 H 0.1604 0.6727 1.2248
H26 H 0.207 0.6043 1.14
C21 C 0.10283(15) 0.71398(14) 0.81447(12)
C22 C 0.00505(16) 0.82654(16) 0.81066(13)
H27 H 0.0381 0.8938 0.7627
H28 H -0.0148 0.8447 0.8744
H29 H -0.0702 0.8124 0.7925
C23 C 0.04649(16) 0.60871(15) 0.88735(12)
H30 H -0.0176 0.5868 0.8604
H31 H 0.0096 0.6319 0.9478
H32 H 0.1116 0.5405 0.9001
C24 C 0.12443(15) 0.68729(15) 0.71476(12)
H33 H 0.046 0.6752 0.7002
H34 H 0.1847 0.6151 0.7143
H35 H 0.1563 0.7544 0.6658
C25 C 0.27197(14) 0.87853(14) 0.53169(11)
C26 C 0.22462(15) 0.97075(15) 0.57765(12)
H36 H 0.2449 0.9652 0.6393
C27 C 0.14832(16) 1.07062(16) 0.53516(13)
H37 H 0.1183 1.1331 0.5673
C28 C 0.11592(16) 1.07945(16) 0.44601(13)
H38 H 0.0653 1.1484 0.416
C29 C 0.15827(15) 0.98631(16) 0.40112(13)
H39 H 0.1345 0.9907 0.3408
C30 C 0.23468(15) 0.88706(15) 0.44309(12)
H40 H 0.2623 0.8238 0.4115
C31 C 0.35085(15) 0.48291(14) 0.81954(12)
C32 C 0.37029(15) 0.49679(15) 0.90760(12)
H41 H 0.41 0.5611 0.9087
C33 C 0.33213(16) 0.41757(17) 0.99364(13)
H42 H 0.346 0.4279 1.0531
C34 C 0.27386(17) 0.32349(16) 0.99328(14)
H43 H 0.2476 0.2696 1.0523
C35 C 0.25412(17) 0.30841(16) 0.90657(14)
H44 H 0.214 0.2441 0.9061
C36 C 0.29272(16) 0.38700(15) 0.82015(13)
H45 H 0.2795 0.3755 0.7609
C37 C 0.68210(15) 0.57863(15) 0.51297(11)
C38 C 0.73574(15) 0.65910(15) 0.43371(12)
F1 F 0.67589(9) 0.77103(9) 0.40636(7)
C39 C 0.84970(16) 0.63402(16) 0.37950(12)
F2 F 0.89539(9) 0.71760(10) 0.30372(7)
C40 C 0.91725(15) 0.52289(16) 0.40311(13)
F3 F 1.02861(9) 0.49640(10) 0.35156(8)
C41 C 0.87008(15) 0.43945(15) 0.48170(13)
F4 F 0.93646(9) 0.33112(9) 0.50747(8)
C42 C 0.75579(15) 0.46929(15) 0.53449(11)
F5 F 0.71860(9) 0.38364(8) 0.61315(7)
loop_
_geom_bond_atom_site_label_1
_geom_bond_atom_site_label_2
_geom_bond_site_symmetry_1
_geom_bond_site_symmetry_2
B1 C2 1_555 1_555
C1 P1 1_555 1_555
P1 C3 1_555 1_555
C2 C1 1_555 1_555
H1 C2 1_555 1_555
C3 B1 1_555 1_555
H2 C3 1_555 1_555
C4 C3 1_555 1_555
H3 C4 1_555 1_555
H4 C4 1_555 1_555
H5 C4 1_555 1_555
C5 P1 1_555 1_555
C6 B1 1_555 1_555
H6 C6 1_555 1_555
C7 P1 1_555 1_555
C8 C7 1_555 1_555
C9 C8 1_555 1_555
H7 C9 1_555 1_555
C10 C9 1_555 1_555
C11 C10 1_555 1_555
H8 C11 1_555 1_555
C12 C7 1_555 1_555
C13 C8 1_555 1_555
C14 C13 1_555 1_555
H9 C14 1_555 1_555
H10 C14 1_555 1_555
H11 C14 1_555 1_555
C15 C13 1_555 1_555
H12 C15 1_555 1_555
H13 C15 1_555 1_555
H14 C15 1_555 1_555
C16 C13 1_555 1_555
H15 C16 1_555 1_555
H16 C16 1_555 1_555
H17 C16 1_555 1_555
C17 C10 1_555 1_555
C18 C17 1_555 1_555
H18 C18 1_555 1_555
H19 C18 1_555 1_555
H20 C18 1_555 1_555
C19 C17 1_555 1_555
H21 C19 1_555 1_555
H22 C19 1_555 1_555
H23 C19 1_555 1_555
C20 C17 1_555 1_555
H24 C20 1_555 1_555
H25 C20 1_555 1_555
H26 C20 1_555 1_555
C21 C12 1_555 1_555
C22 C21 1_555 1_555
H27 C22 1_555 1_555
H28 C22 1_555 1_555
H29 C22 1_555 1_555
C23 C21 1_555 1_555
H30 C23 1_555 1_555
H31 C23 1_555 1_555
H32 C23 1_555 1_555
C24 C21 1_555 1_555
H33 C24 1_555 1_555
H34 C24 1_555 1_555
H35 C24 1_555 1_555
C25 C1 1_555 1_555
C26 C25 1_555 1_555
H36 C26 1_555 1_555
C27 C26 1_555 1_555
H37 C27 1_555 1_555
C28 C27 1_555 1_555
H38 C28 1_555 1_555
C29 C28 1_555 1_555
H39 C29 1_555 1_555
C30 C25 1_555 1_555
H40 C30 1_555 1_555
C31 C5 1_555 1_555
C32 C31 1_555 1_555
H41 C32 1_555 1_555
C33 C32 1_555 1_555
H42 C33 1_555 1_555
C34 C33 1_555 1_555
H43 C34 1_555 1_555
C35 C34 1_555 1_555
H44 C35 1_555 1_555
C36 C31 1_555 1_555
H45 C36 1_555 1_555
C37 B1 1_555 1_555
C38 C37 1_555 1_555
F1 C38 1_555 1_555
C39 C38 1_555 1_555
F2 C39 1_555 1_555
C40 C39 1_555 1_555
F3 C40 1_555 1_555
C41 C40 1_555 1_555
F4 C41 1_555 1_555
C42 C37 1_555 1_555
F5 C42 1_555 1_555
C5 C6 1_555 1_555
C11 C12 1_555 1_555
C29 C30 1_555 1_555
C35 C36 1_555 1_555
C41 C42 1_555 1_555

#END
