
#######################################################################
#
#                 Cambridge Crystallographic Data Centre
#                                CCDC 
#
#######################################################################
#
# If this CIF has been generated from an entry in the Cambridge 
# Structural Database, then it will include bibliographic, chemical, 
# crystal, experimental, refinement or atomic coordinate data resulting 
# from the CCDC's data processing and validation procedures.
#
#######################################################################

data_BEZVUX01
_chemical_name_common            Alachlor
_chemical_formula_moiety         'C14 H20 Cl1 N1 O2'
_chemical_name_systematic        
(N-Chloroacetyl-N-methoxymethyl)-2,2-diethylaniline
_symmetry_cell_setting           monoclinic
_symmetry_space_group_name_H-M   'P 21/c'
_symmetry_Int_Tables_number      14
_space_group_name_Hall           '-P 2ybc'
loop_
_symmetry_equiv_pos_site_id
_symmetry_equiv_pos_as_xyz
1 x,y,z
2 -x,1/2+y,1/2-z
3 -x,-y,-z
4 x,1/2-y,1/2+z
_cell_length_a                   9.186
_cell_length_b                   18.804
_cell_length_c                   8.548
_cell_angle_alpha                90
_cell_angle_beta                 100.88
_cell_angle_gamma                90
_cell_volume                     1449.99
_cell_formula_units_Z            4
loop_
_atom_site_label
_atom_site_type_symbol
_atom_site_fract_x
_atom_site_fract_y
_atom_site_fract_z
Cl1 Cl 0.12790 0.06680 0.73630
O1 O -0.04610 0.10430 0.42890
O2 O 0.03360 0.20280 0.10720
N1 N 0.14060 0.11110 0.28740
C1 C 0.29610 0.10420 0.28530
C2 C 0.39270 0.15910 0.34390
C3 C 0.54400 0.14940 0.33970
C4 C 0.59340 0.09180 0.27780
C5 C 0.49720 0.03490 0.21650
C6 C 0.34510 0.04140 0.21790
C7 C 0.24340 -0.01760 0.15650
C8 C 0.28420 -0.08890 0.21780
C9 C 0.33310 0.22650 0.41170
C10 C 0.42170 0.28830 0.42300
C11 C 0.04240 0.13050 0.13860
C12 C -0.06700 0.24160 0.18630
C13 C 0.08560 0.09580 0.42240
C14 C 0.19470 0.06530 0.55630
H1 H 0.60000 0.20000 0.35000
H2 H 0.71000 0.08750 0.32500
H3 H 0.50000 0.00000 0.11300
H4 H 0.24000 -0.02500 0.03100
H5 H 0.15500 -0.02000 0.22400
H6 H 0.28500 -0.10700 0.34000
H7 H 0.38700 -0.10000 0.18200
H8 H 0.24500 -0.12700 0.13000
H9 H 0.24500 0.25200 0.32500
H10 H 0.36700 0.20000 0.52600
H11 H 0.50300 0.26100 0.50600
H12 H 0.47700 0.31080 0.33000
H13 H 0.37000 0.34000 0.39400
H14 H 0.08000 0.10000 0.05000
H15 H -0.07000 0.12000 0.14700
H16 H -0.04000 0.29750 0.19000
H17 H 0.02000 0.21000 0.26000
H18 H -0.17080 0.22000 0.13000
H19 H 0.26500 0.02100 0.53500
H20 H 0.22000 0.12000 0.59000
loop_
_geom_bond_atom_site_label_1
_geom_bond_atom_site_label_2
_geom_bond_site_symmetry_1
_geom_bond_site_symmetry_2
Cl1 C14 1_555 1_555
O1 C13 1_555 1_555
O2 C11 1_555 1_555
N1 C1 1_555 1_555
C1 C2 1_555 1_555
C2 C3 1_555 1_555
C3 C4 1_555 1_555
C4 C5 1_555 1_555
C5 C6 1_555 1_555
C6 C1 1_555 1_555
C7 C6 1_555 1_555
C8 C7 1_555 1_555
C9 C2 1_555 1_555
C10 C9 1_555 1_555
C11 N1 1_555 1_555
C12 O2 1_555 1_555
C13 N1 1_555 1_555
C14 C13 1_555 1_555
H1 C3 1_555 1_555
H2 C4 1_555 1_555
H3 C5 1_555 1_555
H4 C7 1_555 1_555
H5 C7 1_555 1_555
H6 C8 1_555 1_555
H7 C8 1_555 1_555
H8 C8 1_555 1_555
H9 C9 1_555 1_555
H10 C9 1_555 1_555
H11 C10 1_555 1_555
H12 C10 1_555 1_555
H13 C10 1_555 1_555
H14 C11 1_555 1_555
H15 C11 1_555 1_555
H16 C12 1_555 1_555
H17 C12 1_555 1_555
H18 C12 1_555 1_555
H19 C14 1_555 1_555
H20 C14 1_555 1_555

#END
