
#######################################################################
#
#                 Cambridge Crystallographic Data Centre
#                                CCDC 
#
#######################################################################
#
# If this CIF has been generated from an entry in the Cambridge 
# Structural Database, then it will include bibliographic, chemical, 
# crystal, experimental, refinement or atomic coordinate data resulting 
# from the CCDC's data processing and validation procedures.
#
#######################################################################

data_BEZYEL
_chemical_formula_moiety         'C34 H42 O8'
_chemical_name_systematic        
(E,E)-1,4-bis(2-(2,4,6-Trimethoxyphenyl)ethenyl)-2,5-di-isopropoxybenzene
_symmetry_cell_setting           triclinic
_symmetry_space_group_name_H-M   'P -1'
_symmetry_Int_Tables_number      2
_space_group_name_Hall           '-P 1'
loop_
_symmetry_equiv_pos_site_id
_symmetry_equiv_pos_as_xyz
1 x,y,z
2 -x,-y,-z
_cell_length_a                   7.572(5)
_cell_length_b                   9.033(5)
_cell_length_c                   11.729(5)
_cell_angle_alpha                101.570(5)
_cell_angle_beta                 98.290(5)
_cell_angle_gamma                91.040(5)
_cell_volume                     776.808
_exptl_crystal_colour            yellow
_exptl_crystal_description       needles
_chemical_melting_point          '468-471 K'
_cell_formula_units_Z            1
_exptl_crystal_recrystallization_method p-xylene
loop_
_atom_site_label
_atom_site_type_symbol
_atom_site_fract_x
_atom_site_fract_y
_atom_site_fract_z
O1 O 0.6123(2) 0.21319(18) 0.01011(15)
O2 O 0.3197(3) 0.11056(19) 0.28789(17)
C1 C 0.2559(3) 0.4699(3) 0.4753(2)
C2 C 0.2100(4) 0.4266(3) 0.5733(2)
H1 H 0.196(4) 0.493(3) 0.644(3)
O3 O 0.2631(3) 0.61744(18) 0.46386(15)
C3 C 0.2940(3) 0.3648(3) 0.3757(2)
C4 C 0.6059(3) 0.4293(3) -0.0767(2)
H2 H 0.686(4) 0.383(3) -0.132(2)
C5 C 0.5566(3) 0.3573(3) 0.0066(2)
C6 C 0.4480(3) 0.4271(3) 0.0882(2)
C7 C 0.2029(4) 0.2750(3) 0.5769(2)
C8 C 0.3488(3) 0.4224(3) 0.2779(2)
H3 H 0.352(4) 0.534(3) 0.286(2)
C9 C 0.2819(4) 0.2120(3) 0.3845(2)
O4 O 0.1576(3) 0.2192(2) 0.66918(18)
C10 C 0.3953(3) 0.3498(3) 0.1771(2)
H4 H 0.404(4) 0.244(3) 0.164(2)
C11 C 0.2374(4) 0.1667(3) 0.4816(3)
H5 H 0.231(4) 0.069(3) 0.493(2)
C12 C 0.2424(4) 0.7313(3) 0.5646(2)
H6 H 0.336(2) 0.7209(15) 0.6331(13)
H7 H 0.258(3) 0.8347(18) 0.5459(7)
H8 H 0.119(2) 0.7186(14) 0.5860(12)
C13 C 0.7586(4) 0.2033(3) 0.1003(3)
H9 H 0.740(4) 0.276(3) 0.170(3)
C14 C 0.3204(6) -0.0456(3) 0.2932(3)
H10 H 0.202(3) -0.0792(11) 0.308(2)
H11 H 0.347(4) -0.1056(14) 0.2176(18)
H12 H 0.413(3) -0.0607(6) 0.358(2)
C15 C 0.1221(5) 0.3244(4) 0.7703(3)
H13 H 0.023(3) 0.382(2) 0.7484(6)
H14 H 0.094(3) 0.2705(11) 0.8286(15)
H15 H 0.225(2) 0.391(2) 0.8019(14)
C16 C 0.7495(5) 0.0459(4) 0.1235(4)
H16 H 0.635(3) 0.0282(12) 0.152(2)
H17 H 0.851(3) 0.0342(10) 0.184(2)
H18 H 0.756(4) -0.0284(17) 0.0497(17)
C17 C 0.9327(5) 0.2450(5) 0.0672(4)
H19 H 0.9539(19) 0.175(2) -0.001(2)
H20 H 1.026(2) 0.242(3) 0.1302(17)
H21 H 0.9295(14) 0.344(3) 0.052(2)
C6A C 0.5520(3) 0.5729(3) -0.0882(2)
C5A C 0.4434(3) 0.6427(3) -0.0066(2)
O1A O 0.3877(2) 0.78681(18) -0.01011(15)
C13A C 0.2414(4) 0.7967(3) -0.1003(3)
H9A H 0.260(4) 0.724(3) -0.170(3)
C16A C 0.2505(5) 0.9541(4) -0.1235(4)
H16A H 0.365(3) 0.9718(12) -0.152(2)
H17A H 0.149(3) 0.9658(10) -0.184(2)
H18A H 0.244(4) 1.0284(17) -0.0497(17)
C17A C 0.0673(5) 0.7550(5) -0.0672(4)
H19A H 0.0461(19) 0.825(2) 0.001(2)
H20A H -0.026(2) 0.758(3) -0.1302(17)
H21A H 0.0705(14) 0.656(3) -0.052(2)
C4A C 0.3941(3) 0.5707(3) 0.0767(2)
H2A H 0.314(4) 0.617(3) 0.132(2)
C10A C 0.6047(3) 0.6502(3) -0.1771(2)
C8A C 0.6512(3) 0.5776(3) -0.2779(2)
C3A C 0.7060(3) 0.6352(3) -0.3757(2)
C1A C 0.7441(3) 0.5301(3) -0.4753(2)
C2A C 0.7900(4) 0.5734(3) -0.5733(2)
H1A H 0.804(4) 0.507(3) -0.644(3)
C7A C 0.7971(4) 0.7250(3) -0.5769(2)
O4A O 0.8424(3) 0.7808(2) -0.66918(18)
C15A C 0.8779(5) 0.6756(4) -0.7703(3)
H13A H 0.977(3) 0.618(2) -0.7484(6)
H14A H 0.906(3) 0.7295(11) -0.8286(15)
H15A H 0.775(2) 0.609(2) -0.8019(14)
C11A C 0.7626(4) 0.8333(3) -0.4816(3)
C9A C 0.7181(4) 0.7880(3) -0.3845(2)
O2A O 0.6803(3) 0.88944(19) -0.28789(17)
C14A C 0.6796(6) 1.0456(3) -0.2932(3)
H10A H 0.798(3) 1.0792(11) -0.308(2)
H11A H 0.653(4) 1.1056(14) -0.2176(18)
H12A H 0.587(3) 1.0607(6) -0.358(2)
H5A H 0.769(4) 0.931(3) -0.493(2)
O3A O 0.7369(3) 0.38256(18) -0.46386(15)
C12A C 0.7576(4) 0.2687(3) -0.5646(2)
H6A H 0.664(2) 0.2791(15) -0.6331(13)
H7A H 0.742(3) 0.1653(18) -0.5459(7)
H8A H 0.881(2) 0.2814(14) -0.5860(12)
H3A H 0.648(4) 0.466(3) -0.286(2)
H4A H 0.596(4) 0.756(3) -0.164(2)
loop_
_geom_bond_atom_site_label_1
_geom_bond_atom_site_label_2
_geom_bond_site_symmetry_1
_geom_bond_site_symmetry_2
O1 C5 1_555 1_555
O2 C9 1_555 1_555
C1 C2 1_555 1_555
C2 H1 1_555 1_555
O3 C1 1_555 1_555
C3 C1 1_555 1_555
C4 H2 1_555 1_555
C5 C4 1_555 1_555
C6 C5 1_555 1_555
C7 C2 1_555 1_555
C8 C3 1_555 1_555
H3 C8 1_555 1_555
C9 C3 1_555 1_555
O4 C7 1_555 1_555
C10 C6 1_555 1_555
H4 C10 1_555 1_555
C11 C7 1_555 1_555
H5 C11 1_555 1_555
C12 O3 1_555 1_555
H6 C12 1_555 1_555
H7 C12 1_555 1_555
H8 C12 1_555 1_555
C13 O1 1_555 1_555
H9 C13 1_555 1_555
C14 O2 1_555 1_555
H10 C14 1_555 1_555
H11 C14 1_555 1_555
H12 C14 1_555 1_555
C15 O4 1_555 1_555
H13 C15 1_555 1_555
H14 C15 1_555 1_555
H15 C15 1_555 1_555
C16 C13 1_555 1_555
H16 C16 1_555 1_555
H17 C16 1_555 1_555
H18 C16 1_555 1_555
C17 C13 1_555 1_555
H19 C17 1_555 1_555
H20 C17 1_555 1_555
H21 C17 1_555 1_555
C6A C4 1_555 1_555
C5A C6A 1_555 1_555
O1A C5A 1_555 1_555
C13A O1A 1_555 1_555
H9A C13A 1_555 1_555
C16A C13A 1_555 1_555
H16A C16A 1_555 1_555
H17A C16A 1_555 1_555
H18A C16A 1_555 1_555
C17A C13A 1_555 1_555
H19A C17A 1_555 1_555
H20A C17A 1_555 1_555
H21A C17A 1_555 1_555
C4A C6 1_555 1_555
H2A C4A 1_555 1_555
C10A C6A 1_555 1_555
C8A C10A 1_555 1_555
C3A C8A 1_555 1_555
C1A C3A 1_555 1_555
C2A C1A 1_555 1_555
H1A C2A 1_555 1_555
C7A C2A 1_555 1_555
O4A C7A 1_555 1_555
C15A O4A 1_555 1_555
H13A C15A 1_555 1_555
H14A C15A 1_555 1_555
H15A C15A 1_555 1_555
C11A C7A 1_555 1_555
C9A C3A 1_555 1_555
O2A C9A 1_555 1_555
C14A O2A 1_555 1_555
H10A C14A 1_555 1_555
H11A C14A 1_555 1_555
H12A C14A 1_555 1_555
H5A C11A 1_555 1_555
O3A C1A 1_555 1_555
C12A O3A 1_555 1_555
H6A C12A 1_555 1_555
H7A C12A 1_555 1_555
H8A C12A 1_555 1_555
H3A C8A 1_555 1_555
H4A C10A 1_555 1_555
C8 C10 1_555 1_555
C9 C11 1_555 1_555
C5A C4A 1_555 1_555
C11A C9A 1_555 1_555

#END
