
#######################################################################
#
#                 Cambridge Crystallographic Data Centre
#                                CCDC 
#
#######################################################################
#
# If this CIF has been generated from an entry in the Cambridge 
# Structural Database, then it will include bibliographic, chemical, 
# crystal, experimental, refinement or atomic coordinate data resulting 
# from the CCDC's data processing and validation procedures.
#
#######################################################################

data_BEZYIR
_chemical_formula_moiety         'C16 H22 O9'
_chemical_name_systematic        
"1-(3,5a-dihydroxy-7,7-dimethyl-5-oxohexahydro-2H-difuro[3,2-b:2',3'-c]furan-6-yl)-3-oxobutan-2-yl acetate"
_symmetry_cell_setting           orthorhombic
_symmetry_space_group_name_H-M   'P 21 21 21'
_symmetry_Int_Tables_number      19
_space_group_name_Hall           'P 2ac 2ab'
loop_
_symmetry_equiv_pos_site_id
_symmetry_equiv_pos_as_xyz
1 x,y,z
2 1/2+x,1/2-y,-z
3 -x,1/2+y,1/2-z
4 1/2-x,-y,1/2+z
_cell_length_a                   9.9474(2)
_cell_length_b                   10.9082(2)
_cell_length_c                   15.4415(3)
_cell_angle_alpha                90
_cell_angle_beta                 90
_cell_angle_gamma                90
_cell_volume                     1675.53
_exptl_crystal_colour            colorless
_exptl_crystal_description       block
_cell_formula_units_Z            4
loop_
_atom_site_label
_atom_site_type_symbol
_atom_site_fract_x
_atom_site_fract_y
_atom_site_fract_z
O1 O 0.42751(11) 0.80842(10) 0.92502(6)
O2 O 0.30544(11) 0.65900(9) 0.84873(8)
O3 O 0.34315(11) 0.90322(9) 0.72351(6)
O4 O 0.55298(15) 0.66182(13) 0.68312(8)
H1 H 0.5614 0.7001 0.6362
O5 O 0.15423(12) 1.01063(10) 0.74038(6)
O6 O 0.09853(9) 0.81259(9) 0.86610(6)
H2 H 0.0862 0.7630 0.8252
O7 O -0.05841(13) 1.22506(11) 1.02217(8)
O8 O 0.11705(10) 1.18149(9) 0.89182(6)
O9 O -0.05704(11) 1.21989(10) 0.80351(7)
C1 C -0.07549(15) 1.13243(13) 0.98102(9)
C2 C 0.03908(14) 1.08098(12) 0.92605(8)
H3 H 0.0018 1.0307 0.8775
C3 C 0.13138(14) 1.00222(12) 0.98247(8)
H4 H 0.0796 0.9316 1.0050
H5 H 0.1617 1.0514 1.0327
C4 C 0.25506(12) 0.95443(11) 0.93354(8)
H6 H 0.3058 1.0269 0.9112
C5 C 0.35218(13) 0.87788(12) 0.98994(9)
C6 C 0.45450(15) 0.95687(14) 1.03645(10)
H7 H 0.5216 0.9043 1.0643
H8 H 0.4090 1.0066 1.0805
H9 H 0.4990 1.0109 0.9946
C7 C 0.28277(15) 0.78858(13) 1.05136(9)
H10 H 0.2091 0.7473 1.0209
H11 H 0.2467 0.8336 1.1011
H12 H 0.3478 0.7274 1.0715
C8 C -0.20375(16) 1.06103(15) 0.98356(12)
H13 H -0.1926 0.9896 1.0214
H14 H -0.2267 1.0336 0.9250
H15 H -0.2760 1.1131 1.0060
C9 C 0.05668(15) 1.24236(12) 0.82696(9)
C10 C 0.14554(17) 1.33845(15) 0.78986(11)
H16 H 0.0906 1.4006 0.7607
H17 H 0.2072 1.3011 0.7480
H18 H 0.1974 1.3771 0.8364
C11 C 0.23234(15) 0.93804(12) 0.76873(9)
C12 C 0.22375(13) 0.86997(12) 0.85602(8)
C13 C 0.34625(14) 0.78347(12) 0.85335(9)
C14 C 0.42056(14) 0.81085(12) 0.76869(9)
H19 H 0.5133 0.8416 0.7810
C15 C 0.42665(17) 0.68928(14) 0.72025(10)
H20 H 0.3544 0.6854 0.6753
C16 C 0.39847(17) 0.59838(13) 0.79234(12)
H21 H 0.3587 0.5221 0.7688
H22 H 0.4822 0.5775 0.8237
loop_
_geom_bond_atom_site_label_1
_geom_bond_atom_site_label_2
_geom_bond_site_symmetry_1
_geom_bond_site_symmetry_2
O1 C5 1_555 1_555
O2 C13 1_555 1_555
O3 C11 1_555 1_555
O4 H1 1_555 1_555
O5 C11 1_555 1_555
O6 H2 1_555 1_555
O7 C1 1_555 1_555
O8 C2 1_555 1_555
O9 C9 1_555 1_555
C1 C2 1_555 1_555
C2 H3 1_555 1_555
C3 C2 1_555 1_555
H4 C3 1_555 1_555
H5 C3 1_555 1_555
C4 C3 1_555 1_555
H6 C4 1_555 1_555
C5 C4 1_555 1_555
C6 C5 1_555 1_555
H7 C6 1_555 1_555
H8 C6 1_555 1_555
H9 C6 1_555 1_555
C7 C5 1_555 1_555
H10 C7 1_555 1_555
H11 C7 1_555 1_555
H12 C7 1_555 1_555
C8 C1 1_555 1_555
H13 C8 1_555 1_555
H14 C8 1_555 1_555
H15 C8 1_555 1_555
C9 O8 1_555 1_555
C10 C9 1_555 1_555
H16 C10 1_555 1_555
H17 C10 1_555 1_555
H18 C10 1_555 1_555
C11 C12 1_555 1_555
C12 O6 1_555 1_555
C13 O1 1_555 1_555
C14 O3 1_555 1_555
H19 C14 1_555 1_555
C15 O4 1_555 1_555
H20 C15 1_555 1_555
C16 O2 1_555 1_555
H21 C16 1_555 1_555
H22 C16 1_555 1_555
C4 C12 1_555 1_555
C12 C13 1_555 1_555
C13 C14 1_555 1_555
C14 C15 1_555 1_555
C15 C16 1_555 1_555

#END
