
#######################################################################
#
#                 Cambridge Crystallographic Data Centre
#                                CCDC 
#
#######################################################################
#
# If this CIF has been generated from an entry in the Cambridge 
# Structural Database, then it will include bibliographic, chemical, 
# crystal, experimental, refinement or atomic coordinate data resulting 
# from the CCDC's data processing and validation procedures.
#
#######################################################################

data_BEZYAH
_chemical_formula_moiety         'C30 H34 O8'
_chemical_name_systematic        
(E,E)-1,4-bis(2-(2,4,6-Trimethoxyphenyl)ethenyl)-2,5-dimethoxybenzene
_symmetry_cell_setting           triclinic
_symmetry_space_group_name_H-M   'P -1'
_symmetry_Int_Tables_number      2
_space_group_name_Hall           '-P 1'
loop_
_symmetry_equiv_pos_site_id
_symmetry_equiv_pos_as_xyz
1 x,y,z
2 -x,-y,-z
_cell_length_a                   8.0838(9)
_cell_length_b                   8.9765(10)
_cell_length_c                   9.9412(11)
_cell_angle_alpha                101.214(2)
_cell_angle_beta                 105.716(2)
_cell_angle_gamma                93.070(2)
_cell_volume                     676.825
_exptl_crystal_colour            orange
_exptl_crystal_description       block
_cell_formula_units_Z            1
_exptl_crystal_recrystallization_method dichloromethane/hexanes
loop_
_atom_site_label
_atom_site_type_symbol
_atom_site_fract_x
_atom_site_fract_y
_atom_site_fract_z
C1 C -0.25667(19) -1.01058(15) -0.68070(16)
C2 C -0.3772(2) -0.75340(16) -0.65997(17)
H1 H -0.382(2) -0.7453(19) -0.7563(18)
C3 C -0.1781(2) -1.16889(17) -0.87898(17)
H2 H -0.171(2) -1.1881(19) -0.9724(19)
C4 C -0.1360(2) -1.25332(17) -0.65735(17)
H3 H -0.098(2) -1.3243(18) -0.5988(17)
O1 O -0.52875(17) -0.52851(13) -0.78772(12)
O2 O -0.21584(17) -1.09304(13) -0.46519(12)
C5 C -0.4250(2) -0.60978(16) -0.43237(16)
H4 H -0.374(2) -0.6870(19) -0.3838(17)
O3 O -0.06435(17) -1.39876(13) -0.86269(13)
C6 C -0.1535(3) -1.1962(2) -0.3759(2)
H5 H -0.172(3) -1.158(2) -0.289(2)
H6 H -0.216(2) -1.297(2) -0.4170(19)
H7 H -0.030(3) -1.201(2) -0.3614(19)
C7 C -0.2015(2) -1.12213(16) -0.60116(16)
C8 C -0.3223(2) -0.87573(17) -0.61164(18)
H8 H -0.323(2) -0.884(2) -0.518(2)
C9 C -0.43743(19) -0.62447(15) -0.57756(16)
C10 C -0.5145(2) -0.51058(16) -0.64438(15)
C11 C -0.2407(2) -1.03827(16) -0.82095(16)
C12 C -0.5936(3) -0.4086(2) -0.8550(2)
H9 H -0.594(3) -0.435(2) -0.952(2)
H10 H -0.515(3) -0.309(3) -0.805(2)
H11 H -0.710(3) -0.396(2) -0.8518(19)
C13 C -0.1256(2) -1.27473(16) -0.79581(17)
C14 C -0.0368(3) -1.5243(2) -0.7950(3)
H12 H -0.006(3) -1.601(3) -0.857(2)
H13 H 0.054(3) -1.501(2) -0.704(2)
H14 H -0.146(3) -1.561(2) -0.774(2)
C15 C -0.2794(4) -0.9504(3) -1.0391(2)
H15 H -0.323(3) -0.862(3) -1.072(2)
H16 H -0.159(3) -0.952(2) -1.039(2)
H17 H -0.345(3) -1.044(3) -1.099(2)
O4 O -0.29036(17) -0.92778(12) -0.89641(12)
C10A C -0.4855(2) -0.48942(16) -0.35562(15)
O1A O -0.47125(17) -0.47149(13) -0.21228(12)
C12A C -0.4064(3) -0.5914(2) -0.1450(2)
H9A H -0.406(3) -0.565(2) -0.048(2)
H10A H -0.485(3) -0.691(3) -0.195(2)
H11A H -0.290(3) -0.604(2) -0.1482(19)
C9A C -0.56257(19) -0.37553(15) -0.42244(16)
C2A C -0.6228(2) -0.24660(16) -0.34003(17)
H1A H -0.618(2) -0.2547(19) -0.2437(18)
C8A C -0.6777(2) -0.12427(17) -0.38836(18)
C1A C -0.74333(19) 0.01058(15) -0.31930(16)
C7A C -0.7985(2) 0.12213(16) -0.39884(16)
C4A C -0.8640(2) 0.25332(17) -0.34265(17)
H3A H -0.902(2) 0.3243(18) -0.4012(17)
C13A C -0.8744(2) 0.27473(16) -0.20419(17)
C3A C -0.8219(2) 0.16889(17) -0.12102(17)
H2A H -0.829(2) 0.1881(19) -0.0276(19)
C11A C -0.7593(2) 0.03827(16) -0.17905(16)
O4A O -0.70964(17) -0.07222(12) -0.10359(12)
C15A C -0.7206(4) -0.0496(3) 0.0391(2)
H15A H -0.677(3) -0.138(3) 0.072(2)
H16A H -0.841(3) -0.048(2) 0.039(2)
H17A H -0.655(3) 0.044(3) 0.099(2)
O3A O -0.93565(17) 0.39876(13) -0.13731(13)
C14A C -0.9632(3) 0.5243(2) -0.2050(3)
H12A H -0.994(3) 0.601(3) -0.143(2)
H13A H -1.054(3) 0.501(2) -0.296(2)
H14A H -0.854(3) 0.561(2) -0.226(2)
O2A O -0.78416(17) 0.09304(13) -0.53481(12)
C6A C -0.8465(3) 0.1962(2) -0.6241(2)
H5A H -0.828(3) 0.158(2) -0.711(2)
H6A H -0.784(2) 0.297(2) -0.5830(19)
H7A H -0.970(3) 0.201(2) -0.6386(19)
H8A H -0.677(2) -0.116(2) -0.482(2)
C5A C -0.5750(2) -0.39022(16) -0.56763(16)
H4A H -0.626(2) -0.3130(19) -0.6162(17)
loop_
_geom_bond_atom_site_label_1
_geom_bond_atom_site_label_2
_geom_bond_site_symmetry_1
_geom_bond_site_symmetry_2
C1 C7 1_555 1_555
C2 H1 1_555 1_555
C3 H2 1_555 1_555
C4 H3 1_555 1_555
O1 C10 1_555 1_555
O2 C6 1_555 1_555
C5 H4 1_555 1_555
O3 C13 1_555 1_555
C6 H5 1_555 1_555
H6 C6 1_555 1_555
H7 C6 1_555 1_555
C7 C4 1_555 1_555
C8 C1 1_555 1_555
H8 C8 1_555 1_555
C9 C2 1_555 1_555
C10 C9 1_555 1_555
C11 C1 1_555 1_555
C12 O1 1_555 1_555
H9 C12 1_555 1_555
H10 C12 1_555 1_555
H11 C12 1_555 1_555
C13 C3 1_555 1_555
C14 O3 1_555 1_555
H12 C14 1_555 1_555
H13 C14 1_555 1_555
H14 C14 1_555 1_555
C15 H15 1_555 1_555
H16 C15 1_555 1_555
H17 C15 1_555 1_555
O4 C11 1_555 1_555
C10A C5 1_555 1_555
O1A C10A 1_555 1_555
C12A O1A 1_555 1_555
H9A C12A 1_555 1_555
H10A C12A 1_555 1_555
H11A C12A 1_555 1_555
C9A C10A 1_555 1_555
C2A C9A 1_555 1_555
H1A C2A 1_555 1_555
C8A C2A 1_555 1_555
C1A C8A 1_555 1_555
C7A C1A 1_555 1_555
C4A C7A 1_555 1_555
H3A C4A 1_555 1_555
C13A C4A 1_555 1_555
C3A C13A 1_555 1_555
H2A C3A 1_555 1_555
C11A C1A 1_555 1_555
O4A C11A 1_555 1_555
C15A O4A 1_555 1_555
H15A C15A 1_555 1_555
H16A C15A 1_555 1_555
H17A C15A 1_555 1_555
O3A C13A 1_555 1_555
C14A O3A 1_555 1_555
H12A C14A 1_555 1_555
H13A C14A 1_555 1_555
H14A C14A 1_555 1_555
O2A C7A 1_555 1_555
C6A O2A 1_555 1_555
H5A C6A 1_555 1_555
H6A C6A 1_555 1_555
H7A C6A 1_555 1_555
H8A C8A 1_555 1_555
C5A C10 1_555 1_555
H4A C5A 1_555 1_555
C2 C8 1_555 1_555
C3 C11 1_555 1_555
C4 C13 1_555 1_555
O2 C7 1_555 1_555
C5 C9 1_555 1_555
C15 O4 1_555 1_555
C9A C5A 1_555 1_555
C3A C11A 1_555 1_555

#END
