
#######################################################################
#
#                 Cambridge Crystallographic Data Centre
#                                CCDC 
#
#######################################################################
#
# If this CIF has been generated from an entry in the Cambridge 
# Structural Database, then it will include bibliographic, chemical, 
# crystal, experimental, refinement or atomic coordinate data resulting 
# from the CCDC's data processing and validation procedures.
#
#######################################################################

data_BEZYIP
_chemical_formula_moiety         'C40 H54 O8'
_chemical_name_systematic        
(E,E)-1,4-bis(2-(2,4,6-Trimethoxyphenyl)ethenyl)-2,5-dihexoxybenzene
_symmetry_cell_setting           monoclinic
_symmetry_space_group_name_H-M   'P 21/c'
_symmetry_Int_Tables_number      14
_space_group_name_Hall           '-P 2ybc'
loop_
_symmetry_equiv_pos_site_id
_symmetry_equiv_pos_as_xyz
1 x,y,z
2 x,1/2-y,1/2+z
3 -x,-y,-z
4 -x,1/2+y,1/2-z
_cell_length_a                   8.174(2)
_cell_length_b                   15.302(4)
_cell_length_c                   16.320(4)
_cell_angle_alpha                90
_cell_angle_beta                 115.947(18)
_cell_angle_gamma                90
_cell_volume                     1835.52
_exptl_crystal_colour            yellow
_exptl_crystal_description       block
_cell_formula_units_Z            2
_exptl_crystal_recrystallization_method ethanol
loop_
_atom_site_label
_atom_site_type_symbol
_atom_site_fract_x
_atom_site_fract_y
_atom_site_fract_z
O1 O -0.4897(3) 0.07049(13) -0.64524(14)
O2 O -0.9854(3) 0.13215(14) -0.88212(14)
O3 O -0.5353(3) -0.23214(13) -0.69177(13)
C1 C -0.5160(4) -0.08076(18) -0.66920(17)
C2 C -0.8780(4) -0.00315(18) -0.90593(18)
C3 C -0.6565(4) -0.0730(2) -0.76325(19)
H1 H -0.682(4) -0.1274(19) -0.796(2)
C4 C -0.4520(4) -0.1641(2) -0.63379(19)
C5 C -0.3158(5) -0.1772(2) -0.5474(2)
H2 H -0.275(4) -0.231(2) -0.527(2)
O4 O -0.0996(4) -0.12460(17) -0.40907(16)
C6 C -0.7498(4) -0.0039(2) -0.80919(18)
H3 H -0.737(4) 0.0511(19) -0.7775(19)
C7 C -0.8880(4) -0.0705(2) -0.96524(19)
H4 H -0.806(4) -0.1237(19) -0.938(2)
C8 C -0.9936(4) 0.06797(18) -0.94327(19)
C9 C -0.2928(4) -0.0217(2) -0.5238(2)
H5 H -0.229(4) 0.029(2) -0.487(2)
C10 C -0.4316(4) -0.0108(2) -0.61094(19)
C11 C -0.2371(4) -0.1053(2) -0.4935(2)
C12 C -1.0936(5) 0.2080(2) -0.9139(2)
H6 H -1.223(3) 0.1916(4) -0.9494(9)
H7 H -1.0547(10) 0.2418(8) -0.9539(10)
C13 C -0.4873(5) -0.3184(2) -0.6584(2)
H8 H -0.358(3) -0.3278(6) -0.6406(15)
H9 H -0.559(3) -0.3600(9) -0.7061(11)
H10 H -0.512(3) -0.3270(6) -0.6057(15)
C14 C -1.0717(5) 0.2624(3) -0.8330(3)
H11 H -1.149(2) 0.3150(14) -0.8557(6)
H12 H -1.1199(15) 0.2286(9) -0.7968(10)
C15 C -0.0199(6) -0.0537(3) -0.3486(2)
H13 H 0.041(4) -0.0148(15) -0.3741(12)
H14 H 0.069(4) -0.0760(6) -0.2899(17)
H15 H -0.114(3) -0.0215(15) -0.3401(16)
C16 C -0.4028(5) 0.1447(2) -0.5922(3)
H16 H -0.418(3) 0.1445(10) -0.5372(16)
H17 H -0.456(3) 0.1968(12) -0.6262(10)
H18 H -0.276(3) 0.1431(9) -0.5773(16)
C17 C -0.8735(6) 0.3423(3) -0.6915(3)
H19 H -0.9098(13) 0.3049(11) -0.6531(11)
H20 H -0.959(3) 0.3917(14) -0.7128(7)
C18 C -0.8890(6) 0.2907(3) -0.7724(3)
H21 H -0.8412(16) 0.3268(11) -0.8079(11)
H22 H -0.810(2) 0.2381(15) -0.7503(7)
C19 C -0.6859(8) 0.3775(4) -0.6341(5)
H23 H -0.655(3) 0.356(2) -0.598(4)
H24 H -0.639(5) 0.3672(11) -0.654(2)
C20 C -0.6529(9) 0.4550(4) -0.6127(6)
H25 H -0.683(16) 0.482(3) -0.655(4)
H26 H -0.552(10) 0.4608(15) -0.584(8)
H27 H -0.703(15) 0.469(3) -0.586(8)
C8B C -1.0064(4) -0.06797(18) -1.05673(19)
O2B O -1.0146(3) -0.13215(14) -1.11788(14)
C12B C -0.9064(5) -0.2080(2) -1.0861(2)
H6B H -0.777(3) -0.1916(4) -1.0506(9)
H7B H -0.9453(10) -0.2418(8) -1.0461(10)
C14B C -0.9283(5) -0.2624(3) -1.1670(3)
H11B H -0.851(2) -0.3150(14) -1.1443(6)
H12B H -0.8801(15) -0.2286(9) -1.2032(10)
C18B C -1.1110(6) -0.2907(3) -1.2276(3)
C17B C -1.1265(6) -0.3423(3) -1.3085(3)
H19B H -1.0902(13) -0.3049(11) -1.3469(11)
H20B H -1.041(3) -0.3917(14) -1.2872(7)
C19B C -1.3141(8) -0.3775(4) -1.3659(5)
H23B H -1.345(3) -0.356(2) -1.402(4)
H24B H -1.361(5) -0.3672(11) -1.346(2)
C20B C -1.3471(9) -0.4550(4) -1.3873(6)
H25B H -1.317(16) -0.482(3) -1.345(4)
H26B H -1.448(10) -0.4608(15) -1.416(8)
H27B H -1.297(15) -0.469(3) -1.414(8)
H21B H -1.1588(16) -0.3268(11) -1.1921(11)
H22B H -1.190(2) -0.2381(15) -1.2497(7)
C2B C -1.1220(4) 0.00315(18) -1.09407(18)
C6B C -1.2502(4) 0.0039(2) -1.19081(18)
C3B C -1.3435(4) 0.0730(2) -1.23675(19)
C1B C -1.4840(4) 0.08076(18) -1.33080(17)
C4B C -1.5480(4) 0.1641(2) -1.36621(19)
O3B O -1.4647(3) 0.23214(13) -1.30823(13)
C13B C -1.5127(5) 0.3184(2) -1.3416(2)
H8B H -1.642(3) 0.3278(6) -1.3594(15)
H9B H -1.441(3) 0.3600(9) -1.2939(11)
H10B H -1.488(3) 0.3270(6) -1.3943(15)
C5B C -1.6842(5) 0.1772(2) -1.4526(2)
H2B H -1.725(4) 0.231(2) -1.473(2)
C11B C -1.7629(4) 0.1053(2) -1.5065(2)
O4B O -1.9004(4) 0.12460(17) -1.59093(16)
C15B C -1.9801(6) 0.0537(3) -1.6514(2)
H13B H -2.041(4) 0.0148(15) -1.6259(12)
H14B H -2.069(4) 0.0760(6) -1.7101(17)
H15B H -1.886(3) 0.0215(15) -1.6599(16)
C9B C -1.7072(4) 0.0217(2) -1.4762(2)
H5B H -1.771(4) -0.029(2) -1.513(2)
C10B C -1.5684(4) 0.0108(2) -1.38906(19)
O1B O -1.5103(3) -0.07049(13) -1.35476(14)
C16B C -1.5972(5) -0.1447(2) -1.4078(3)
H16B H -1.582(3) -0.1445(10) -1.4628(16)
H17B H -1.544(3) -0.1968(12) -1.3738(10)
H18B H -1.724(3) -0.1431(9) -1.4227(16)
H1B H -1.318(4) 0.1274(19) -1.204(2)
H3B H -1.263(4) -0.0511(19) -1.2225(19)
C7B C -1.1120(4) 0.0705(2) -1.03476(19)
H4B H -1.194(4) 0.1237(19) -1.062(2)
loop_
_geom_bond_atom_site_label_1
_geom_bond_atom_site_label_2
_geom_bond_site_symmetry_1
_geom_bond_site_symmetry_2
O1 C10 1_555 1_555
O2 C8 1_555 1_555
O3 C4 1_555 1_555
C1 C3 1_555 1_555
C2 C6 1_555 1_555
C3 H1 1_555 1_555
C4 C1 1_555 1_555
C5 C4 1_555 1_555
H2 C5 1_555 1_555
O4 C11 1_555 1_555
C6 C3 1_555 1_555
H3 C6 1_555 1_555
C7 C2 1_555 1_555
H4 C7 1_555 1_555
C8 C2 1_555 1_555
C9 H5 1_555 1_555
C10 C1 1_555 1_555
C11 C5 1_555 1_555
C12 O2 1_555 1_555
H6 C12 1_555 1_555
H7 C12 1_555 1_555
C13 O3 1_555 1_555
H8 C13 1_555 1_555
H9 C13 1_555 1_555
H10 C13 1_555 1_555
C14 C12 1_555 1_555
H11 C14 1_555 1_555
H12 C14 1_555 1_555
C15 O4 1_555 1_555
H13 C15 1_555 1_555
H14 C15 1_555 1_555
H15 C15 1_555 1_555
C16 O1 1_555 1_555
H16 C16 1_555 1_555
H17 C16 1_555 1_555
H18 C16 1_555 1_555
C17 H19 1_555 1_555
H20 C17 1_555 1_555
C18 C14 1_555 1_555
H21 C18 1_555 1_555
H22 C18 1_555 1_555
C19 C17 1_555 1_555
H23 C19 1_555 1_555
H24 C19 1_555 1_555
C20 C19 1_555 1_555
H25 C20 1_555 1_555
H26 C20 1_555 1_555
H27 C20 1_555 1_555
C8B C7 1_555 1_555
O2B C8B 1_555 1_555
C12B O2B 1_555 1_555
H6B C12B 1_555 1_555
H7B C12B 1_555 1_555
C14B C12B 1_555 1_555
H11B C14B 1_555 1_555
H12B C14B 1_555 1_555
C18B C14B 1_555 1_555
C17B C18B 1_555 1_555
H19B C17B 1_555 1_555
H20B C17B 1_555 1_555
C19B C17B 1_555 1_555
H23B C19B 1_555 1_555
H24B C19B 1_555 1_555
C20B C19B 1_555 1_555
H25B C20B 1_555 1_555
H26B C20B 1_555 1_555
H27B C20B 1_555 1_555
H21B C18B 1_555 1_555
H22B C18B 1_555 1_555
C2B C8B 1_555 1_555
C6B C2B 1_555 1_555
C3B C6B 1_555 1_555
C1B C3B 1_555 1_555
C4B C1B 1_555 1_555
O3B C4B 1_555 1_555
C13B O3B 1_555 1_555
H8B C13B 1_555 1_555
H9B C13B 1_555 1_555
H10B C13B 1_555 1_555
C5B C4B 1_555 1_555
H2B C5B 1_555 1_555
C11B C5B 1_555 1_555
O4B C11B 1_555 1_555
C15B O4B 1_555 1_555
H13B C15B 1_555 1_555
H14B C15B 1_555 1_555
H15B C15B 1_555 1_555
C9B C11B 1_555 1_555
H5B C9B 1_555 1_555
C10B C1B 1_555 1_555
O1B C10B 1_555 1_555
C16B O1B 1_555 1_555
H16B C16B 1_555 1_555
H17B C16B 1_555 1_555
H18B C16B 1_555 1_555
H1B C3B 1_555 1_555
H3B C6B 1_555 1_555
C7B C8 1_555 1_555
H4B C7B 1_555 1_555
C9 C11 1_555 1_555
C9 C10 1_555 1_555
C17 C18 1_555 1_555
C2B C7B 1_555 1_555
C9B C10B 1_555 1_555

#END
