
#######################################################################
#
#                 Cambridge Crystallographic Data Centre
#                                CCDC 
#
#######################################################################
#
# If this CIF has been generated from an entry in the Cambridge 
# Structural Database, then it will include bibliographic, chemical, 
# crystal, experimental, refinement or atomic coordinate data resulting 
# from the CCDC's data processing and validation procedures.
#
#######################################################################

data_BFLANH10
_chemical_formula_moiety         'C14 H13 Br1 N4 O2,H2 O1'
_chemical_name_systematic        
'9-Bromo-3,7,8,10-tetramethyl-isoalloxazine monohydrate'
_symmetry_cell_setting           monoclinic
_symmetry_space_group_name_H-M   'P 21/c'
_symmetry_Int_Tables_number      14
_space_group_name_Hall           '-P 2ybc'
loop_
_symmetry_equiv_pos_site_id
_symmetry_equiv_pos_as_xyz
1 x,y,z
2 -x,1/2+y,1/2-z
3 -x,-y,-z
4 x,1/2-y,1/2+z
_cell_length_a                   13.047(5)
_cell_length_b                   7.053(5)
_cell_length_c                   17.957(5)
_cell_angle_alpha                90
_cell_angle_beta                 120.40(5)
_cell_angle_gamma                90
_cell_volume                     1425.23
_cell_formula_units_Z            4
loop_
_atom_site_label
_atom_site_type_symbol
_atom_site_fract_x
_atom_site_fract_y
_atom_site_fract_z
Br1 Br 0.77770 -0.44520 0.49550
C1 C 0.37710 -0.36970 0.30780
C2 C 0.00760 -0.41370 0.14440
C3 C 0.78330 -0.36510 0.20180
C4 C 0.90100 -0.39650 0.39220
C5 C 0.18720 -0.37810 0.28740
C6 C 0.53840 -0.27840 0.45040
C7 C 0.20210 -0.39470 0.15750
C8 C 0.33280 -0.38170 0.21650
C9 C 0.52030 -0.36140 0.23630
C10 C 0.59080 -0.36360 0.19780
C11 C 0.71230 -0.36370 0.24670
C12 C 0.76680 -0.38180 0.33740
C13 C 0.69770 -0.38460 0.37760
C14 C 0.57280 -0.36370 0.32740
H1 H -0.00800 -0.51200 0.14900
H2 H -0.02200 -0.31900 0.08300
H3 H -0.02700 -0.29400 0.16100
H4 H 0.54400 -0.37900 0.12400
H5 H 0.83500 -0.26700 0.22600
H6 H 0.73800 -0.38100 0.13500
H7 H 0.84400 -0.50100 0.22100
H8 H 0.92600 -0.55300 0.43100
H9 H 0.91300 -0.39800 0.35300
H10 H 0.91400 -0.29500 0.43400
H11 H 0.61300 -0.17700 0.46400
H12 H 0.48900 -0.20100 0.44100
H13 H 0.56300 -0.40600 0.48900
N1 N 0.30900 -0.36840 0.34290
N2 N 0.49640 -0.34740 0.36180
N3 N 0.13770 -0.39760 0.19890
N4 N 0.39870 -0.37200 0.18170
O1 O 0.12190 -0.37590 0.31790
O2 O 0.15900 -0.40930 0.08010
O3 O 0.29890 -0.39780 -0.01730
loop_
_geom_bond_atom_site_label_1
_geom_bond_atom_site_label_2
_geom_bond_site_symmetry_1
_geom_bond_site_symmetry_2
Br1 C13 1_555 1_555
C1 C8 1_555 1_555
C2 H1 1_555 1_555
C3 C11 1_555 1_555
C4 C12 1_555 1_555
C5 N1 1_555 1_555
C6 H11 1_555 1_555
C7 C8 1_555 1_555
C8 N4 1_555 1_555
C9 C10 1_555 1_555
C10 C11 1_555 1_555
C11 C12 1_555 1_555
C12 C13 1_555 1_555
C13 C14 1_555 1_555
C14 C9 1_555 1_555
H2 C2 1_555 1_555
H3 C2 1_555 1_555
H4 C10 1_555 1_555
H5 C3 1_555 1_555
H6 C3 1_555 1_555
H7 C3 1_555 1_555
H8 C4 1_555 1_555
H9 C4 1_555 1_555
H10 C4 1_555 1_555
H12 C6 1_555 1_555
H13 C6 1_555 1_555
N1 C1 1_555 1_555
N2 C1 1_555 1_555
N3 C2 1_555 1_555
N4 C9 1_555 1_555
O1 C5 1_555 1_555
O2 C7 1_555 1_555
C5 N3 1_555 1_555
C6 N2 1_555 1_555
C7 N3 1_555 1_555
C14 N2 1_555 1_555

#END
