
#######################################################################
#
#                 Cambridge Crystallographic Data Centre
#                                CCDC 
#
#######################################################################
#
# If this CIF has been generated from an entry in the Cambridge 
# Structural Database, then it will include bibliographic, chemical, 
# crystal, experimental, refinement or atomic coordinate data resulting 
# from the CCDC's data processing and validation procedures.
#
#######################################################################

data_BHMALX10
_chemical_formula_moiety         'C15 H17 Br1 N4 O2'
_chemical_name_systematic        
9-Bromo-1,3,7,8,10-pentamethyl-1,5-dihydroisoalloxazine
_symmetry_cell_setting           monoclinic
_symmetry_space_group_name_H-M   'C 2/c'
_symmetry_Int_Tables_number      15
_space_group_name_Hall           '-C 2yn'
loop_
_symmetry_equiv_pos_site_id
_symmetry_equiv_pos_as_xyz
1 x,y,z
2 1/2+x,1/2+y,z
3 -x,y,1/2-z
4 1/2-x,1/2+y,1/2-z
5 -x,-y,-z
6 1/2-x,1/2-y,-z
7 x,-y,1/2+z
8 1/2+x,1/2-y,1/2+z
_cell_length_a                   15.680(5)
_cell_length_b                   15.440(5)
_cell_length_c                   12.845(5)
_cell_angle_alpha                90
_cell_angle_beta                 103.3(5)
_cell_angle_gamma                90
_cell_volume                     3026.36
_cell_formula_units_Z            8
loop_
_atom_site_label
_atom_site_type_symbol
_atom_site_fract_x
_atom_site_fract_y
_atom_site_fract_z
Br1 Br 0.04060 0.33250 -0.01610
C1 C 0.23870 0.40680 0.26180
C2 C 0.11780 0.36750 0.34930
C3 C 0.41920 0.38000 0.55540
C4 C 0.31800 0.33750 -0.19550
C5 C 0.13030 0.29850 -0.20400
C6 C 0.26780 0.37680 0.45170
C7 C 0.12820 0.49770 0.15460
C8 C 0.38870 0.40930 0.36410
C9 C 0.32470 0.41820 0.26570
C10 C 0.29940 0.40700 0.07790
C11 C 0.33110 0.39030 -0.01110
C12 C 0.27820 0.35680 -0.10360
C13 C 0.19020 0.33830 -0.10700
C14 C 0.15890 0.35690 -0.01560
C15 C 0.21070 0.39210 0.07580
H1 H 0.11700 0.31400 0.38800
H2 H 0.09500 0.35100 0.27200
H3 H 0.09500 0.41500 0.37600
H4 H 0.39300 0.38200 0.60400
H5 H 0.45500 0.34700 0.53600
H6 H 0.45400 0.42300 0.56200
H7 H 0.40400 0.42800 0.17300
H8 H 0.39400 0.39900 -0.00400
H9 H 0.28100 0.36400 -0.25400
H10 H 0.33100 0.28000 -0.20000
H11 H 0.37600 0.36000 -0.17800
H12 H 0.09300 0.33900 -0.24400
H13 H 0.16200 0.28900 -0.25800
H14 H 0.09300 0.25300 -0.19800
H15 H 0.07200 0.49500 0.10000
H16 H 0.16400 0.54900 0.14400
H17 H 0.11100 0.51600 0.20600
N1 N 0.21130 0.38550 0.35430
N2 N 0.17580 0.41340 0.16700
N3 N 0.35580 0.38890 0.45200
N4 N 0.35250 0.43660 0.17320
O1 O 0.24350 0.35920 0.53070
O2 O 0.46720 0.41990 0.37210
loop_
_geom_bond_atom_site_label_1
_geom_bond_atom_site_label_2
_geom_bond_site_symmetry_1
_geom_bond_site_symmetry_2
Br1 C14 1_555 1_555
C1 C9 1_555 1_555
C2 H1 1_555 1_555
C3 H4 1_555 1_555
C4 C12 1_555 1_555
C5 C13 1_555 1_555
C6 N1 1_555 1_555
C7 H15 1_555 1_555
C8 C9 1_555 1_555
C9 N4 1_555 1_555
C10 C11 1_555 1_555
C11 C12 1_555 1_555
C12 C13 1_555 1_555
C13 C14 1_555 1_555
C14 C15 1_555 1_555
C15 C10 1_555 1_555
H2 C2 1_555 1_555
H3 C2 1_555 1_555
H5 C3 1_555 1_555
H6 C3 1_555 1_555
H7 N4 1_555 1_555
H8 C11 1_555 1_555
H9 C4 1_555 1_555
H10 C4 1_555 1_555
H11 C4 1_555 1_555
H12 C5 1_555 1_555
H13 C5 1_555 1_555
H14 C5 1_555 1_555
H16 C7 1_555 1_555
H17 C7 1_555 1_555
N1 C1 1_555 1_555
N2 C1 1_555 1_555
N3 C3 1_555 1_555
N4 C10 1_555 1_555
O1 C6 1_555 1_555
O2 C8 1_555 1_555
C2 N1 1_555 1_555
C6 N3 1_555 1_555
C7 N2 1_555 1_555
C8 N3 1_555 1_555
C15 N2 1_555 1_555

#END
