
#######################################################################
#
#                 Cambridge Crystallographic Data Centre
#                                CCDC 
#
#######################################################################
#
# If this CIF has been generated from an entry in the Cambridge 
# Structural Database, then it will include bibliographic, chemical, 
# crystal, experimental, refinement or atomic coordinate data resulting 
# from the CCDC's data processing and validation procedures.
#
#######################################################################

data_BHPROG
_chemical_name_common            12alpha-Bromo-11beta-hydroxyprogesterone
_chemical_formula_moiety         'C21 H29 Br1 O3'
_chemical_name_systematic        12-bromo-11-hydroxypregn-4-ene-3,20-dione
_symmetry_cell_setting           orthorhombic
_symmetry_space_group_name_H-M   'P 21 21 21'
_symmetry_Int_Tables_number      19
_space_group_name_Hall           'P 2ac 2ab'
loop_
_symmetry_equiv_pos_site_id
_symmetry_equiv_pos_as_xyz
1 x,y,z
2 1/2+x,1/2-y,-z
3 -x,1/2+y,1/2-z
4 1/2-x,-y,1/2+z
_cell_length_a                   7.902(1)
_cell_length_b                   31.805(5)
_cell_length_c                   7.577(2)
_cell_angle_alpha                90
_cell_angle_beta                 90
_cell_angle_gamma                90
_cell_volume                     1904.28
_chemical_melting_point          232deg.C
_cell_formula_units_Z            4
loop_
_atom_site_label
_atom_site_type_symbol
_atom_site_fract_x
_atom_site_fract_y
_atom_site_fract_z
Br1 Br 0.06970 0.18430 0.21630
C1 C 0.18220 0.09610 -0.26390
C2 C -0.00750 0.08410 -0.23930
C3 C -0.05950 0.15950 -0.11720
C4 C -0.11780 0.18590 0.04060
C5 C -0.28810 0.17300 0.11780
C6 C -0.28880 0.12500 0.14880
C7 C -0.45480 0.11710 0.25000
C8 C -0.47380 0.15680 0.36820
C9 C -0.33790 0.18830 0.30590
C10 C -0.42860 0.18650 -0.01150
C11 C -0.11110 0.08750 -0.40890
C12 C 0.29400 0.06570 -0.33970
C13 C -0.38940 0.23410 0.31450
C14 C -0.25330 0.26730 0.30990
C15 C 0.28520 0.02490 -0.23990
C16 C 0.11900 0.01280 -0.18320
C17 C -0.01460 0.03860 -0.17860
C18 C -0.18480 0.02390 -0.11520
C19 C -0.24890 0.05180 0.03590
C20 C -0.25070 0.09890 -0.01490
C21 C -0.07550 0.11160 -0.08350
H1 H 0.20130 0.10870 -0.11680
H2 H 0.15340 0.12400 -0.35040
H3 H -0.10450 0.19530 -0.27850
H4 H 0.05930 0.16420 -0.13860
H5 H -0.11290 0.21700 0.00490
H6 H -0.20740 0.12280 0.23730
H7 H -0.46990 0.08940 0.32850
H8 H -0.54780 0.11650 0.17680
H9 H -0.46260 0.14450 0.47640
H10 H -0.58600 0.16490 0.34230
H11 H -0.25970 0.18510 0.37050
H12 H -0.42250 0.20500 -0.03310
H13 H -0.53980 0.17950 0.06080
H14 H -0.41750 0.17130 -0.12680
H15 H -0.08430 0.11830 -0.47120
H16 H -0.25710 0.08700 -0.37710
H17 H -0.04820 0.06530 -0.50800
H18 H 0.40070 0.07840 -0.26720
H19 H 0.22990 0.07000 -0.44050
H20 H -0.22630 0.27230 0.37400
H21 H -0.29670 0.29470 0.31840
H22 H -0.16210 0.25820 0.30800
H23 H 0.10050 -0.01420 -0.10400
H24 H -0.18260 -0.00760 -0.17560
H25 H -0.26920 0.02800 -0.17570
H26 H -0.37670 0.04290 0.05620
H27 H -0.19210 0.05000 0.14550
H28 H -0.35140 0.10560 -0.09160
H29 H -0.00360 0.10680 0.00250
O1 O -0.15240 0.17160 -0.27040
O2 O -0.53740 0.24480 0.31600
O3 O 0.40590 0.00180 -0.22650
loop_
_geom_bond_atom_site_label_1
_geom_bond_atom_site_label_2
_geom_bond_site_symmetry_1
_geom_bond_site_symmetry_2
Br1 C4 1_555 1_555
C1 C2 1_555 1_555
C2 C11 1_555 1_555
C3 C4 1_555 1_555
C4 C5 1_555 1_555
C5 C6 1_555 1_555
C6 C7 1_555 1_555
C7 C8 1_555 1_555
C8 C9 1_555 1_555
C9 C5 1_555 1_555
C10 C5 1_555 1_555
C11 H15 1_555 1_555
C12 C1 1_555 1_555
C13 C9 1_555 1_555
C14 C13 1_555 1_555
C15 C12 1_555 1_555
C16 C15 1_555 1_555
C17 C2 1_555 1_555
C18 C17 1_555 1_555
C19 C18 1_555 1_555
C20 C6 1_555 1_555
C21 C2 1_555 1_555
H1 C1 1_555 1_555
H2 C1 1_555 1_555
H3 O1 1_555 1_555
H4 C3 1_555 1_555
H5 C4 1_555 1_555
H6 C6 1_555 1_555
H7 C7 1_555 1_555
H8 C7 1_555 1_555
H9 C8 1_555 1_555
H10 C8 1_555 1_555
H11 C9 1_555 1_555
H12 C10 1_555 1_555
H13 C10 1_555 1_555
H14 C10 1_555 1_555
H16 C11 1_555 1_555
H17 C11 1_555 1_555
H18 C12 1_555 1_555
H19 C12 1_555 1_555
H20 C14 1_555 1_555
H21 C14 1_555 1_555
H22 C14 1_555 1_555
H23 C16 1_555 1_555
H24 C18 1_555 1_555
H25 C18 1_555 1_555
H26 C19 1_555 1_555
H27 C19 1_555 1_555
H28 C20 1_555 1_555
H29 C21 1_555 1_555
O1 C3 1_555 1_555
O2 C13 1_555 1_555
O3 C15 1_555 1_555
C3 C21 1_555 1_555
C16 C17 1_555 1_555
C19 C20 1_555 1_555
C20 C21 1_555 1_555

#END
