
#######################################################################
#
#                 Cambridge Crystallographic Data Centre
#                                CCDC 
#
#######################################################################
#
# If this CIF has been generated from an entry in the Cambridge 
# Structural Database, then it will include bibliographic, chemical, 
# crystal, experimental, refinement or atomic coordinate data resulting 
# from the CCDC's data processing and validation procedures.
#
#######################################################################

data_BIBCEX
_chemical_formula_moiety         'C24 H22 F3 N1 O4'
_chemical_name_systematic        
"dimethyl 2'-phenyl-5-(2,2,2-trifluoroethyl)-3H-spiro[cyclopentane-1,3'-indole]-3,3-dicarboxylate"
_symmetry_cell_setting           triclinic
_symmetry_space_group_name_H-M   'P -1'
_symmetry_Int_Tables_number      2
_space_group_name_Hall           '-P 1'
loop_
_symmetry_equiv_pos_site_id
_symmetry_equiv_pos_as_xyz
1 x,y,z
2 -x,-y,-z
_cell_length_a                   9.7265(7)
_cell_length_b                   10.2044(7)
_cell_length_c                   11.0062(9)
_cell_angle_alpha                83.532(2)
_cell_angle_beta                 82.442(2)
_cell_angle_gamma                87.866(2)
_cell_volume                     1075.74
_exptl_crystal_colour            colorless
_exptl_crystal_description       prismatic
_cell_formula_units_Z            2
loop_
_atom_site_label
_atom_site_type_symbol
_atom_site_fract_x
_atom_site_fract_y
_atom_site_fract_z
F1 F 1.02052(14) 0.01994(12) 0.69911(13)
F2 F 0.93351(15) 0.08812(12) 0.87058(11)
F3 F 1.07949(11) 0.20434(12) 0.74852(13)
N1 N 0.51017(14) 0.21564(14) 0.64625(14)
O1 O 0.89909(15) 0.70042(13) 0.54312(12)
O2 O 0.70706(13) 0.77357(11) 0.65141(11)
O3 O 0.79876(18) 0.52577(14) 0.93777(12)
O4 O 0.91085(13) 0.69543(12) 0.83141(11)
C1 C 0.48102(17) 0.19749(16) 0.77756(16)
C2 C 0.38653(19) 0.11118(19) 0.8465(2)
H1 H 0.335383 0.055474 0.809388
C3 C 0.3718(2) 0.1118(2) 0.9740(2)
H2 H 0.309987 0.054597 1.023223
C4 C 0.4468(2) 0.1954(2) 1.02897(19)
H3 H 0.433643 0.195030 1.114244
C5 C 0.5410(2) 0.27950(19) 0.95844(17)
H4 H 0.592729 0.334833 0.995457
C6 C 0.55718(16) 0.28010(16) 0.83202(15)
C7 C 0.64971(15) 0.35891(15) 0.73096(14)
C8 C 0.59988(16) 0.30794(15) 0.61843(14)
C9 C 0.65056(16) 0.34619(17) 0.48693(14)
C10 C 0.68136(17) 0.47475(18) 0.43780(15)
H5 H 0.674493 0.541332 0.489594
C11 C 0.72215(18) 0.5051(2) 0.31276(17)
H6 H 0.742052 0.591667 0.281251
C12 C 0.7333(2) 0.4083(3) 0.23532(19)
H7 H 0.761632 0.428753 0.151487
C13 C 0.7025(3) 0.2807(2) 0.2820(2)
H8 H 0.709939 0.214955 0.229357
C14 C 0.6608(2) 0.2493(2) 0.40590(18)
H9 H 0.639266 0.162636 0.436006
C15 C 0.64001(16) 0.50991(15) 0.73868(15)
H10 H 0.593194 0.528256 0.818572
H11 H 0.587726 0.552721 0.675504
C16 C 0.79022(15) 0.56264(15) 0.71944(13)
C17 C 0.88318(15) 0.44620(15) 0.67678(14)
H12 H 0.893107 0.447575 0.587791
H13 H 0.974496 0.449163 0.702608
C18 C 0.80691(15) 0.32422(14) 0.73948(14)
H14 H 0.819741 0.316202 0.826861
C19 C 0.85651(17) 0.19389(15) 0.69010(16)
H15 H 0.779023 0.134683 0.701315
H16 H 0.886612 0.210655 0.602300
C20 C 0.97181(19) 0.12780(17) 0.75092(17)
C21 C 0.80812(17) 0.68518(15) 0.62733(14)
C22 C 0.7095(2) 0.89327(18) 0.5674(2)
H17 H 0.689333 0.873236 0.488503
H18 H 0.799642 0.931064 0.558394
H19 H 0.641021 0.954993 0.599461
C23 C 0.83085(18) 0.59249(16) 0.84263(15)
C24 C 0.9598(2) 0.7277(2) 0.94307(19)
H20 H 1.015226 0.804995 0.924655
H21 H 1.014694 0.655202 0.975597
H22 H 0.881777 0.744156 1.002918
loop_
_geom_bond_atom_site_label_1
_geom_bond_atom_site_label_2
_geom_bond_site_symmetry_1
_geom_bond_site_symmetry_2
F1 C20 1_555 1_555
F2 C20 1_555 1_555
F3 C20 1_555 1_555
N1 C1 1_555 1_555
O1 C21 1_555 1_555
O2 C21 1_555 1_555
O3 C23 1_555 1_555
O4 C23 1_555 1_555
C1 C2 1_555 1_555
C2 H1 1_555 1_555
C3 C2 1_555 1_555
H2 C3 1_555 1_555
C4 C3 1_555 1_555
H3 C4 1_555 1_555
C5 C4 1_555 1_555
H4 C5 1_555 1_555
C6 C1 1_555 1_555
C7 C6 1_555 1_555
C8 N1 1_555 1_555
C9 C8 1_555 1_555
C10 C9 1_555 1_555
H5 C10 1_555 1_555
C11 C10 1_555 1_555
H6 C11 1_555 1_555
C12 C11 1_555 1_555
H7 C12 1_555 1_555
C13 C12 1_555 1_555
H8 C13 1_555 1_555
C14 C9 1_555 1_555
H9 C14 1_555 1_555
C15 C7 1_555 1_555
H10 C15 1_555 1_555
H11 C15 1_555 1_555
C16 C15 1_555 1_555
C17 C16 1_555 1_555
H12 C17 1_555 1_555
H13 C17 1_555 1_555
C18 C7 1_555 1_555
H14 C18 1_555 1_555
C19 C18 1_555 1_555
H15 C19 1_555 1_555
H16 C19 1_555 1_555
C20 C19 1_555 1_555
C21 C16 1_555 1_555
C22 O2 1_555 1_555
H17 C22 1_555 1_555
H18 C22 1_555 1_555
H19 C22 1_555 1_555
C23 C16 1_555 1_555
C24 O4 1_555 1_555
H20 C24 1_555 1_555
H21 C24 1_555 1_555
H22 C24 1_555 1_555
C5 C6 1_555 1_555
C7 C8 1_555 1_555
C13 C14 1_555 1_555
C17 C18 1_555 1_555

#END
