
#######################################################################
#
#                 Cambridge Crystallographic Data Centre
#                                CCDC 
#
#######################################################################
#
# If this CIF has been generated from an entry in the Cambridge 
# Structural Database, then it will include bibliographic, chemical, 
# crystal, experimental, refinement or atomic coordinate data resulting 
# from the CCDC's data processing and validation procedures.
#
#######################################################################

data_BIBGUR
_chemical_formula_moiety         'C8 H20 N1 1+,C22 H32 B11 O2 1-'
_chemical_name_systematic        
'tetraethylammonium 1,2-(1-oxo-3,4-bis(4-isopropylphenyl)-2-oxabut-3-en-1,4-diyl)-1-carba-closo-dodecaborate(10)'
_symmetry_cell_setting           triclinic
_symmetry_space_group_name_H-M   'P 1'
_symmetry_Int_Tables_number      1
_space_group_name_Hall           'P 1'
loop_
_symmetry_equiv_pos_site_id
_symmetry_equiv_pos_as_xyz
1 x,y,z
_cell_length_a                   9.0552(13)
_cell_length_b                   10.6187(16)
_cell_length_c                   10.9743(12)
_cell_angle_alpha                61.561(13)
_cell_angle_beta                 75.723(11)
_cell_angle_gamma                69.777(13)
_cell_volume                     866.378
_exptl_crystal_colour            colorless
_exptl_crystal_description       block
_cell_formula_units_Z            1
loop_
_atom_site_label
_atom_site_type_symbol
_atom_site_fract_x
_atom_site_fract_y
_atom_site_fract_z
O1 O 0.9512(4) 0.4428(5) 0.7022(4)
O2 O 0.7208(3) 0.5007(3) 0.8064(3)
C1 C 0.7526(4) 0.6168(4) 0.5536(4)
C2 C 0.8182(5) 0.5149(5) 0.6891(5)
C3 C 0.5600(4) 0.5780(4) 0.8206(4)
C4 C 0.4793(4) 0.6791(4) 0.7126(4)
C5 C 0.5097(4) 0.5194(5) 0.9712(4)
C6 C 0.4140(6) 0.6080(5) 1.0340(5)
H1 H 0.3732 0.7087 0.9796
C7 C 0.3765(6) 0.5506(5) 1.1772(5)
H2 H 0.3136 0.6145 1.2168
C8 C 0.4295(5) 0.4023(5) 1.2620(4)
C9 C 0.5227(5) 0.3142(5) 1.1977(5)
H3 H 0.5600 0.2128 1.2518
C10 C 0.5628(5) 0.3696(5) 1.0570(5)
H4 H 0.6270 0.3054 1.0182
C11 C 0.3923(6) 0.3447(7) 1.4176(5)
H5 H 0.3707 0.4317 1.4355
C12 C 0.5322(6) 0.2365(6) 1.4962(5)
H6 H 0.5653 0.1498 1.4789
H7 H 0.5032 0.2083 1.5941
H8 H 0.6174 0.2823 1.4660
C13 C 0.2492(8) 0.2981(11) 1.4711(8)
H9 H 0.1653 0.3726 1.4162
H10 H 0.2217 0.2845 1.5660
H11 H 0.2648 0.2061 1.4669
C14 C 0.3098(4) 0.7573(4) 0.7299(4)
C15 C 0.2655(5) 0.8929(5) 0.7319(5)
H12 H 0.3430 0.9364 0.7234
C16 C 0.1070(5) 0.9675(5) 0.7463(5)
H13 H 0.0813 1.0597 0.7475
C17 C -0.0125(5) 0.9094(5) 0.7589(4)
C18 C 0.0345(5) 0.7763(6) 0.7501(6)
H14 H -0.0427 0.7343 0.7548
C19 C 0.1913(5) 0.7021(5) 0.7345(6)
H15 H 0.2171 0.6132 0.7271
C20 C -0.1857(5) 0.9917(6) 0.7729(6)
H16 H -0.2185 1.0487 0.6784
C21 C -0.2921(6) 0.8920(8) 0.8543(7)
H17 H -0.2820 0.8287 0.8112
H18 H -0.3996 0.9510 0.8562
H19 H -0.2630 0.8321 0.9477
C22 C -0.2159(8) 1.1018(10) 0.8300(13)
H20 H -0.1671 1.0545 0.9150
H21 H -0.3278 1.1392 0.8481
H22 H -0.1721 1.1826 0.7635
B1 B 0.5605(5) 0.7136(5) 0.5609(5)
B2 B 0.6220(6) 0.5666(6) 0.5088(5)
H23 H 0.5845 0.4636 0.5713
B3 B 0.8139(6) 0.5660(6) 0.4198(6)
H24 H 0.9017 0.4618 0.4254
B4 B 0.8723(6) 0.7105(6) 0.4150(5)
H25 H 0.9968 0.7004 0.4172
B5 B 0.7141(5) 0.8051(6) 0.5015(5)
H26 H 0.7370 0.8566 0.5588
B6 B 0.5466(5) 0.8820(5) 0.4098(5)
H27 H 0.4589 0.9853 0.4064
B7 B 0.4902(5) 0.7354(5) 0.4140(5)
H28 H 0.3659 0.7434 0.4133
B8 B 0.6499(6) 0.6428(6) 0.3265(6)
H29 H 0.6301 0.5904 0.2685
B9 B 0.8014(6) 0.7326(6) 0.2695(5)
H30 H 0.8800 0.7395 0.1738
B10 B 0.7389(6) 0.8796(6) 0.3200(6)
H31 H 0.7767 0.9825 0.2574
B11 B 0.6011(6) 0.8387(6) 0.2645(5)
H32 H 0.5485 0.9146 0.1657
N1 N 0.1195(4) 0.2023(4) 1.1020(3)
C24 C 0.1509(7) 0.1309(6) 1.2524(5)
H37 H 0.2317 0.0375 1.2707
H38 H 0.1931 0.1947 1.2666
C25 C 0.0096(9) 0.1010(10) 1.3569(6)
H39 H -0.0745 0.1911 1.3359
H40 H 0.0379 0.0656 1.4487
H41 H -0.0248 0.0272 1.3529
C26 C 0.0619(6) 0.1048(6) 1.0705(5)
H42 H -0.0387 0.0937 1.1252
H43 H 0.0430 0.1552 0.9731
C27 C 0.1713(9) -0.0473(7) 1.0989(8)
H44 H 0.2702 -0.0384 1.0427
H45 H 0.1244 -0.1012 1.0765
H46 H 0.1893 -0.0996 1.1955
C28 C 0.2748(5) 0.2259(6) 1.0171(6)
H47 H 0.3002 0.3003 1.0296
H48 H 0.3567 0.1338 1.0546
C29 C 0.2809(6) 0.2736(6) 0.8640(6)
H49 H 0.3809 0.2936 0.8190
H50 H 0.1971 0.3619 0.8259
H51 H 0.2687 0.1958 0.8492
C30 C -0.0056(6) 0.3479(6) 1.0655(5)
H52 H -0.0152 0.3928 0.9664
H53 H -0.1059 0.3280 1.1141
C31 C 0.0224(9) 0.4582(7) 1.0990(7)
H54 H 0.1212 0.4795 1.0514
H55 H 0.0258 0.4179 1.1977
H56 H -0.0618 0.5481 1.0696
H33? H 0.3424 0.2704 1.4297
C23? C 0.268(2) 0.421(3) 1.474(2)
H34? H 0.3012 0.4861 1.4923
H35? H 0.2258 0.3521 1.5599
H36? H 0.1876 0.4777 1.4108
loop_
_geom_bond_atom_site_label_1
_geom_bond_atom_site_label_2
_geom_bond_site_symmetry_1
_geom_bond_site_symmetry_2
O1 C2 1_555 1_555
O2 C2 1_555 1_555
C1 C2 1_555 1_555
C3 O2 1_555 1_555
C4 C3 1_555 1_555
C5 C3 1_555 1_555
C6 C5 1_555 1_555
H1 C6 1_555 1_555
C7 C6 1_555 1_555
H2 C7 1_555 1_555
C8 C7 1_555 1_555
C9 C8 1_555 1_555
H3 C9 1_555 1_555
C10 C5 1_555 1_555
H4 C10 1_555 1_555
C11 C8 1_555 1_555
H5 C11 1_555 1_555
C12 C11 1_555 1_555
H6 C12 1_555 1_555
H7 C12 1_555 1_555
H8 C12 1_555 1_555
C13 C11 1_555 1_555
H9 C13 1_555 1_555
H10 C13 1_555 1_555
H11 C13 1_555 1_555
C14 C4 1_555 1_555
C15 C14 1_555 1_555
H12 C15 1_555 1_555
C16 C15 1_555 1_555
H13 C16 1_555 1_555
C17 C16 1_555 1_555
C18 C17 1_555 1_555
H14 C18 1_555 1_555
C19 C14 1_555 1_555
H15 C19 1_555 1_555
C20 C17 1_555 1_555
H16 C20 1_555 1_555
C21 C20 1_555 1_555
H17 C21 1_555 1_555
H18 C21 1_555 1_555
H19 C21 1_555 1_555
C22 C20 1_555 1_555
H20 C22 1_555 1_555
H21 C22 1_555 1_555
H22 C22 1_555 1_555
B1 C1 1_555 1_555
B2 C1 1_555 1_555
H23 B2 1_555 1_555
B3 C1 1_555 1_555
H24 B3 1_555 1_555
B4 C1 1_555 1_555
H25 B4 1_555 1_555
B5 C1 1_555 1_555
H26 B5 1_555 1_555
B6 B1 1_555 1_555
H27 B6 1_555 1_555
B7 B1 1_555 1_555
H28 B7 1_555 1_555
B8 B2 1_555 1_555
H29 B8 1_555 1_555
B9 B3 1_555 1_555
H30 B9 1_555 1_555
B10 B4 1_555 1_555
H31 B10 1_555 1_555
B11 B6 1_555 1_555
H32 B11 1_555 1_555
N1 C24 1_555 1_555
C24 H37 1_555 1_555
H38 C24 1_555 1_555
C25 C24 1_555 1_555
H39 C25 1_555 1_555
H40 C25 1_555 1_555
H41 C25 1_555 1_555
C26 N1 1_555 1_555
H42 C26 1_555 1_555
H43 C26 1_555 1_555
C27 C26 1_555 1_555
H44 C27 1_555 1_555
H45 C27 1_555 1_555
H46 C27 1_555 1_555
C28 N1 1_555 1_555
H47 C28 1_555 1_555
H48 C28 1_555 1_555
C29 C28 1_555 1_555
H49 C29 1_555 1_555
H50 C29 1_555 1_555
H51 C29 1_555 1_555
C30 N1 1_555 1_555
H52 C30 1_555 1_555
H53 C30 1_555 1_555
C31 C30 1_555 1_555
H54 C31 1_555 1_555
H55 C31 1_555 1_555
H56 C31 1_555 1_555
C4 B1 1_555 1_555
C9 C10 1_555 1_555
C18 C19 1_555 1_555
B1 B2 1_555 1_555
B1 B5 1_555 1_555
B2 B3 1_555 1_555
B2 B7 1_555 1_555
B3 B4 1_555 1_555
B3 B8 1_555 1_555
B4 B5 1_555 1_555
B4 B9 1_555 1_555
B5 B6 1_555 1_555
B5 B10 1_555 1_555
B6 B7 1_555 1_555
B6 B10 1_555 1_555
B7 B8 1_555 1_555
B7 B11 1_555 1_555
B8 B9 1_555 1_555
B8 B11 1_555 1_555
B9 B10 1_555 1_555
B9 B11 1_555 1_555
B10 B11 1_555 1_555

#END
