
#######################################################################
#
#                 Cambridge Crystallographic Data Centre
#                                CCDC 
#
#######################################################################
#
# If this CIF has been generated from an entry in the Cambridge 
# Structural Database, then it will include bibliographic, chemical, 
# crystal, experimental, refinement or atomic coordinate data resulting 
# from the CCDC's data processing and validation procedures.
#
#######################################################################

data_BIBHIG
_chemical_formula_moiety         'C8 H20 N1 1+,C16 H18 B11 Br2 O2 1-'
_chemical_name_systematic        
'tetraethylammonium 1,2-(1-oxo-3,4-bis(4-bromophenyl)-2-oxabut-3-en-1,4-diyl)-1-carba-closo-dodecaborate(10)'
_symmetry_cell_setting           triclinic
_symmetry_space_group_name_H-M   'P -1'
_symmetry_Int_Tables_number      2
_space_group_name_Hall           '-P 1'
loop_
_symmetry_equiv_pos_site_id
_symmetry_equiv_pos_as_xyz
1 x,y,z
2 -x,-y,-z
_cell_length_a                   11.004(2)
_cell_length_b                   11.174(2)
_cell_length_c                   13.102(3)
_cell_angle_alpha                94.237(2)
_cell_angle_beta                 99.125(3)
_cell_angle_gamma                98.623(2)
_cell_volume                     1564.75
_exptl_crystal_colour            colorless
_exptl_crystal_description       chunk
_cell_formula_units_Z            2
loop_
_atom_site_label
_atom_site_type_symbol
_atom_site_fract_x
_atom_site_fract_y
_atom_site_fract_z
C1 C 0.7363(5) 0.5279(5) 0.8389(5)
C2 C 0.7590(6) 0.6618(6) 0.8350(5)
C3 C 0.5560(5) 0.6586(6) 0.7178(5)
C4 C 0.5137(5) 0.5388(6) 0.7166(5)
C5 C 0.4956(5) 0.7547(5) 0.6711(5)
C6 C 0.5267(6) 0.8742(6) 0.7150(6)
H1 H 0.5862 0.8927 0.7752
C7 C 0.4722(6) 0.9664(6) 0.6724(6)
H2 H 0.4948 1.0459 0.7034
C8 C 0.3848(6) 0.9395(6) 0.5841(5)
C9 C 0.3514(5) 0.8217(6) 0.5358(5)
H3 H 0.2926 0.8048 0.4750
C10 C 0.4065(5) 0.7301(6) 0.5792(5)
H4 H 0.3846 0.6509 0.5472
C11 C 0.3834(5) 0.4836(5) 0.6648(5)
C12 C 0.2817(5) 0.5053(6) 0.7106(5)
H5 H 0.2948 0.5544 0.7731
C13 C 0.1619(6) 0.4546(7) 0.6639(6)
H6 H 0.0942 0.4700 0.6941
C14 C 0.1441(6) 0.3816(6) 0.5731(6)
C15 C 0.2440(6) 0.3577(6) 0.5264(6)
H7 H 0.2307 0.3088 0.4637
C16 C 0.3624(6) 0.4078(5) 0.5747(5)
H8 H 0.4301 0.3899 0.5455
B1 B 0.7385(7) 0.4361(8) 0.7295(7)
H9 H 0.7591 0.4682 0.6557
B2 B 0.8593(7) 0.4474(7) 0.8392(6)
H10 H 0.9565 0.4865 0.8365
B3 B 0.7908(7) 0.4727(7) 0.9541(6)
H11 H 0.8444 0.5274 1.0245
B4 B 0.6290(6) 0.4768(7) 0.9127(6)
H12 H 0.5790 0.5343 0.9573
B5 B 0.5979(6) 0.4545(6) 0.7733(6)
B6 B 0.7871(8) 0.3027(8) 0.7750(7)
H13 H 0.8385 0.2461 0.7310
B7 B 0.8184(8) 0.3245(7) 0.9128(6)
H14 H 0.8901 0.2817 0.9581
B8 B 0.6768(7) 0.3427(7) 0.9578(7)
H15 H 0.6565 0.3116 1.0320
B9 B 0.5574(7) 0.3319(7) 0.8463(7)
H16 H 0.4596 0.2942 0.8482
B10 B 0.6248(8) 0.3067(7) 0.7329(6)
H17 H 0.5711 0.2532 0.6619
B11 B 0.6752(7) 0.2394(7) 0.8470(6)
H18 H 0.6536 0.1405 0.8497
O1 O 0.6759(4) 0.7130(4) 0.7713(4)
O2 O 0.8479(4) 0.7298(4) 0.8826(4)
Br1 Br 0.30730(7) 1.06556(7) 0.52693(7)
Br2 Br -0.02038(7) 0.30907(10) 0.50968(8)
C17 C 0.1656(8) 0.9092(9) 0.7599(7)
H19 H 0.2550 0.9230 0.7614
H20 H 0.1259 0.9147 0.6892
C18 C 0.1267(9) 0.7784(7) 0.7876(8)
H21 H 0.1510 0.7753 0.8610
H22 H 0.1671 0.7233 0.7504
H23 H 0.0379 0.7552 0.7688
C19 C 0.2006(10) 1.0047(9) 0.9395(7)
H24 H 0.1738 1.0649 0.9843
H25 H 0.1746 0.9255 0.9620
C20 C 0.3433(9) 1.0293(11) 0.9535(9)
H26 H 0.3698 0.9885 0.8958
H27 H 0.3779 0.9995 1.0168
H28 H 0.3717 1.1152 0.9565
C21 C 0.1784(8) 1.1290(8) 0.7878(7)
H29 H 0.2669 1.1358 0.7858
H30 H 0.1355 1.1284 0.7171
C22 C 0.1573(9) 1.2387(7) 0.8504(8)
H31 H 0.0706 1.2312 0.8560
H32 H 0.1810 1.3100 0.8169
H33 H 0.2066 1.2454 0.9185
C23 C -0.0055(8) 0.9910(9) 0.8307(8)
H34 H -0.0290 0.9176 0.8630
H35 H -0.0226 1.0592 0.8733
C24 C -0.0853(9) 0.9821(10) 0.7225(10)
H36 H -0.0553 1.0493 0.6866
H37 H -0.1706 0.9844 0.7293
H38 H -0.0801 0.9072 0.6840
N1 N 0.1348(5) 1.0077(5) 0.8278(4)
loop_
_geom_bond_atom_site_label_1
_geom_bond_atom_site_label_2
_geom_bond_site_symmetry_1
_geom_bond_site_symmetry_2
C1 C2 1_555 1_555
C2 O1 1_555 1_555
C3 C4 1_555 1_555
C4 C11 1_555 1_555
C5 C3 1_555 1_555
C6 C5 1_555 1_555
H1 C6 1_555 1_555
C7 C6 1_555 1_555
H2 C7 1_555 1_555
C8 C7 1_555 1_555
C9 C8 1_555 1_555
H3 C9 1_555 1_555
C10 C5 1_555 1_555
H4 C10 1_555 1_555
C11 C12 1_555 1_555
C12 H5 1_555 1_555
C13 C12 1_555 1_555
H6 C13 1_555 1_555
C14 C13 1_555 1_555
C15 C14 1_555 1_555
H7 C15 1_555 1_555
C16 C11 1_555 1_555
H8 C16 1_555 1_555
B1 C1 1_555 1_555
H9 B1 1_555 1_555
B2 C1 1_555 1_555
H10 B2 1_555 1_555
B3 C1 1_555 1_555
H11 B3 1_555 1_555
B4 C1 1_555 1_555
H12 B4 1_555 1_555
B5 C1 1_555 1_555
B6 B1 1_555 1_555
H13 B6 1_555 1_555
B7 B2 1_555 1_555
H14 B7 1_555 1_555
B8 B3 1_555 1_555
H15 B8 1_555 1_555
B9 B4 1_555 1_555
H16 B9 1_555 1_555
B10 B1 1_555 1_555
H17 B10 1_555 1_555
B11 B6 1_555 1_555
H18 B11 1_555 1_555
O1 C3 1_555 1_555
O2 C2 1_555 1_555
Br1 C8 1_555 1_555
Br2 C14 1_555 1_555
C17 H19 1_555 1_555
H20 C17 1_555 1_555
C18 C17 1_555 1_555
H21 C18 1_555 1_555
H22 C18 1_555 1_555
H23 C18 1_555 1_555
C19 H24 1_555 1_555
H25 C19 1_555 1_555
C20 C19 1_555 1_555
H26 C20 1_555 1_555
H27 C20 1_555 1_555
H28 C20 1_555 1_555
C21 H29 1_555 1_555
H30 C21 1_555 1_555
C22 C21 1_555 1_555
H31 C22 1_555 1_555
H32 C22 1_555 1_555
H33 C22 1_555 1_555
C23 H34 1_555 1_555
H35 C23 1_555 1_555
C24 C23 1_555 1_555
H36 C24 1_555 1_555
H37 C24 1_555 1_555
H38 C24 1_555 1_555
N1 C17 1_555 1_555
C4 B5 1_555 1_555
C9 C10 1_555 1_555
C15 C16 1_555 1_555
B1 B2 1_555 1_555
B1 B5 1_555 1_555
B2 B3 1_555 1_555
B2 B6 1_555 1_555
B3 B4 1_555 1_555
B3 B7 1_555 1_555
B4 B5 1_555 1_555
B4 B8 1_555 1_555
B5 B9 1_555 1_555
B5 B10 1_555 1_555
B6 B7 1_555 1_555
B6 B10 1_555 1_555
B7 B8 1_555 1_555
B7 B11 1_555 1_555
B8 B9 1_555 1_555
B8 B11 1_555 1_555
B9 B10 1_555 1_555
B9 B11 1_555 1_555
B10 B11 1_555 1_555
C19 N1 1_555 1_555
C21 N1 1_555 1_555
C23 N1 1_555 1_555

#END
