
#######################################################################
#
#                 Cambridge Crystallographic Data Centre
#                                CCDC 
#
#######################################################################
#
# If this CIF has been generated from an entry in the Cambridge 
# Structural Database, then it will include bibliographic, chemical, 
# crystal, experimental, refinement or atomic coordinate data resulting 
# from the CCDC's data processing and validation procedures.
#
#######################################################################

data_BIBKAA
_chemical_formula_moiety         'C39 H38 N4 O12 S1,2(C3 H6 O1)'
_chemical_name_systematic        
"t-Butyl 3-(3,11,11a-triacetoxy-2-methyl-1,4-dioxo-6-(phenylsulfonyl)-1,2,3,4,5a,6,11,11a-octahydro-10bH-pyrazino[1',2':1,5]pyrrolo[2,3-b]indol-10b-yl)-1H-indole-1-carboxylate acetone solvate"
_symmetry_cell_setting           monoclinic
_symmetry_space_group_name_H-M   'P 21'
_symmetry_Int_Tables_number      4
_space_group_name_Hall           'P 2yb'
loop_
_symmetry_equiv_pos_site_id
_symmetry_equiv_pos_as_xyz
1 x,y,z
2 -x,1/2+y,-z
_cell_length_a                   12.8803(7)
_cell_length_b                   10.3954(6)
_cell_length_c                   16.5478(9)
_cell_angle_alpha                90
_cell_angle_beta                 90.0630(10)
_cell_angle_gamma                90
_cell_volume                     2215.68
_exptl_crystal_colour            colorless
_exptl_crystal_description       plate
_cell_formula_units_Z            2
loop_
_atom_site_label
_atom_site_type_symbol
_atom_site_fract_x
_atom_site_fract_y
_atom_site_fract_z
N1 N -0.11813(7) -0.88033(9) -0.19631(5)
C1 C -0.07862(7) -0.75113(10) -0.21925(6)
H1 H -0.0535 -0.7030 -0.1707
C2 C 0.01230(7) -0.77544(10) -0.28048(6)
C3 C 0.00093(7) -0.91708(10) -0.29948(6)
C4 C 0.04873(9) -0.98706(11) -0.36046(7)
H2 H 0.0988 -0.9481 -0.3948
C5 C 0.02147(10) -1.11591(12) -0.37004(7)
H3 H 0.0536 -1.1658 -0.4111
C6 C -0.05270(10) -1.17236(12) -0.31970(8)
H4 H -0.0697 -1.2606 -0.3266
C7 C -0.10206(9) -1.10162(11) -0.25957(7)
H5 H -0.1534 -1.1396 -0.2260
C8 C -0.07358(8) -0.97354(10) -0.25035(6)
N2 N -0.15439(7) -0.67522(9) -0.26456(5)
C9 C -0.13631(8) -0.68114(10) -0.35015(6)
C10 C -0.01761(8) -0.69742(10) -0.35748(6)
H6 H 0.0009 -0.7458 -0.4076
C11 C -0.17652(8) -0.56741(11) -0.40001(7)
N3 N -0.22527(7) -0.46982(9) -0.36094(6)
C12 C -0.27363(8) -0.49216(10) -0.28290(7)
H7 H -0.3445 -0.5297 -0.2905
C13 C -0.20891(8) -0.57875(10) -0.22725(7)
C14 C -0.27459(10) -0.37132(13) -0.41202(8)
H8 H -0.2307 -0.3544 -0.4592
H9 H -0.2832 -0.2919 -0.3809
H10 H -0.3427 -0.4021 -0.4300
O1 O -0.15895(7) -0.56862(9) -0.47232(5)
O2 O -0.20776(7) -0.56197(9) -0.15498(5)
N4 N 0.27569(7) -0.76713(9) -0.18987(6)
C15 C 0.19613(8) -0.82544(10) -0.23353(6)
H11 H 0.1980 -0.9108 -0.2540
C16 C 0.11539(8) -0.74243(10) -0.24255(6)
C17 C 0.14365(8) -0.62453(10) -0.20072(6)
C18 C 0.09133(8) -0.50849(11) -0.18573(7)
H12 H 0.0231 -0.4950 -0.2058
C19 C 0.14113(9) -0.41406(12) -0.14107(7)
H13 H 0.1060 -0.3358 -0.1296
C20 C 0.24256(9) -0.43215(11) -0.11250(7)
H14 H 0.2755 -0.3648 -0.0834
C21 C 0.29599(8) -0.54600(11) -0.12567(7)
H15 H 0.3647 -0.5581 -0.1061
C22 C 0.24448(8) -0.64228(10) -0.16901(6)
O3 O -0.28101(6) -0.37049(8) -0.24383(5)
O4 O -0.42965(7) -0.43707(9) -0.18418(6)
C23 C -0.36458(9) -0.35602(11) -0.19340(7)
C24 C -0.36273(10) -0.22687(13) -0.15384(8)
H16 H -0.3831 -0.1610 -0.1931
H17 H -0.2925 -0.2087 -0.1341
H18 H -0.4114 -0.2262 -0.1084
O5 O -0.17551(6) -0.80063(8) -0.38268(5)
O6 O -0.33867(6) -0.72676(9) -0.36943(6)
C25 C -0.28105(9) -0.81418(12) -0.38442(7)
C26 C -0.31180(10) -0.94855(14) -0.40513(9)
H19 H -0.3382 -0.9917 -0.3567
H20 H -0.2513 -0.9953 -0.4257
H21 H -0.3661 -0.9469 -0.4466
O7 O 0.42851(6) -0.76682(8) -0.12437(5)
O8 O 0.38128(7) -0.94252(9) -0.19770(6)
C27 C 0.36668(8) -0.83561(11) -0.17177(7)
C28 C 0.53580(8) -0.81308(11) -0.10599(7)
C29 C 0.59481(9) -0.83049(14) -0.18468(7)
H22 H 0.5623 -0.8991 -0.2165
H23 H 0.6670 -0.8536 -0.1728
H24 H 0.5931 -0.7500 -0.2155
C30 C 0.57987(9) -0.70274(12) -0.05686(8)
H25 H 0.5764 -0.6233 -0.0886
H26 H 0.6524 -0.7212 -0.0430
H27 H 0.5394 -0.6924 -0.0072
C31 C 0.53051(9) -0.93551(12) -0.05599(7)
H28 H 0.4910 -0.9191 -0.0065
H29 H 0.6010 -0.9632 -0.0419
H30 H 0.4961 -1.0032 -0.0874
S1 S -0.119554(19) -0.91479(2) -0.097407(15)
O9 O -0.16593(7) -1.03969(9) -0.09105(5)
O10 O -0.16588(7) -0.80575(9) -0.05904(5)
C32 C 0.01079(8) -0.92501(11) -0.06705(6)
C33 C 0.05922(9) -0.81614(12) -0.03571(7)
H31 H 0.0221 -0.7376 -0.0303
C34 C 0.16276(10) -0.82419(13) -0.01239(7)
H32 H 0.1970 -0.7509 0.0093
C35 C 0.21617(9) -0.93959(14) -0.02088(8)
H33 H 0.2866 -0.9451 -0.0042
C36 C 0.16747(10) -1.04708(13) -0.05352(8)
H34 H 0.2050 -1.1252 -0.0597
C37 C 0.06411(9) -1.04054(11) -0.07715(8)
H35 H 0.0304 -1.1134 -0.0998
O11 O 0.02661(6) -0.57134(8) -0.35836(5)
O12 O 0.15758(7) -0.64835(10) -0.43478(7)
C38 C 0.11673(8) -0.55979(12) -0.40137(7)
C39 C 0.15435(10) -0.42389(13) -0.40066(9)
H36 H 0.2295 -0.4225 -0.4096
H37 H 0.1386 -0.3846 -0.3483
H38 H 0.1196 -0.3754 -0.4437
O13 O -0.52660(12) -0.48150(12) -0.43527(8)
C40 C -0.57166(12) -0.69651(15) -0.46698(9)
H39 H -0.5585 -0.6695 -0.5228
H40 H -0.6432 -0.7277 -0.4623
H41 H -0.5235 -0.7656 -0.4523
C41 C -0.55617(10) -0.58476(13) -0.41141(8)
C42 C -0.58143(12) -0.6075(2) -0.32464(9)
H42 H -0.5599 -0.5328 -0.2926
H43 H -0.5446 -0.6842 -0.3056
H44 H -0.6564 -0.6204 -0.3188
O14 O -0.48184(9) -0.15832(16) -0.32126(7)
C43 C -0.63804(13) -0.23369(17) -0.26293(11)
H45 H -0.5910 -0.2761 -0.2247
H46 H -0.6795 -0.2987 -0.2912
H47 H -0.6843 -0.1753 -0.2335
C44 C -0.57583(12) -0.15853(16) -0.32316(9)
C45 C -0.63456(16) -0.0821(3) -0.38513(12)
H48 H -0.5855 -0.0331 -0.4183
H49 H -0.6821 -0.0227 -0.3579
H50 H -0.6744 -0.1406 -0.4197
loop_
_geom_bond_atom_site_label_1
_geom_bond_atom_site_label_2
_geom_bond_site_symmetry_1
_geom_bond_site_symmetry_2
N1 C1 1_555 1_555
C1 H1 1_555 1_555
C2 C1 1_555 1_555
C3 C2 1_555 1_555
C4 C3 1_555 1_555
H2 C4 1_555 1_555
C5 C4 1_555 1_555
H3 C5 1_555 1_555
C6 C5 1_555 1_555
H4 C6 1_555 1_555
C7 C6 1_555 1_555
H5 C7 1_555 1_555
C8 N1 1_555 1_555
N2 C1 1_555 1_555
C9 N2 1_555 1_555
C10 C2 1_555 1_555
H6 C10 1_555 1_555
C11 C9 1_555 1_555
N3 C11 1_555 1_555
C12 N3 1_555 1_555
H7 C12 1_555 1_555
C13 N2 1_555 1_555
C14 N3 1_555 1_555
H8 C14 1_555 1_555
H9 C14 1_555 1_555
H10 C14 1_555 1_555
O1 C11 1_555 1_555
O2 C13 1_555 1_555
N4 C15 1_555 1_555
C15 H11 1_555 1_555
C16 C2 1_555 1_555
C17 C16 1_555 1_555
C18 C17 1_555 1_555
H12 C18 1_555 1_555
C19 C18 1_555 1_555
H13 C19 1_555 1_555
C20 C19 1_555 1_555
H14 C20 1_555 1_555
C21 C20 1_555 1_555
H15 C21 1_555 1_555
C22 N4 1_555 1_555
O3 C12 1_555 1_555
O4 C23 1_555 1_555
C23 O3 1_555 1_555
C24 C23 1_555 1_555
H16 C24 1_555 1_555
H17 C24 1_555 1_555
H18 C24 1_555 1_555
O5 C9 1_555 1_555
O6 C25 1_555 1_555
C25 O5 1_555 1_555
C26 C25 1_555 1_555
H19 C26 1_555 1_555
H20 C26 1_555 1_555
H21 C26 1_555 1_555
O7 C27 1_555 1_555
O8 C27 1_555 1_555
C27 N4 1_555 1_555
C28 O7 1_555 1_555
C29 C28 1_555 1_555
H22 C29 1_555 1_555
H23 C29 1_555 1_555
H24 C29 1_555 1_555
C30 C28 1_555 1_555
H25 C30 1_555 1_555
H26 C30 1_555 1_555
H27 C30 1_555 1_555
C31 C28 1_555 1_555
H28 C31 1_555 1_555
H29 C31 1_555 1_555
H30 C31 1_555 1_555
S1 N1 1_555 1_555
O9 S1 1_555 1_555
O10 S1 1_555 1_555
C32 S1 1_555 1_555
C33 C32 1_555 1_555
H31 C33 1_555 1_555
C34 C33 1_555 1_555
H32 C34 1_555 1_555
C35 C34 1_555 1_555
H33 C35 1_555 1_555
C36 C35 1_555 1_555
H34 C36 1_555 1_555
C37 C32 1_555 1_555
H35 C37 1_555 1_555
O11 C10 1_555 1_555
O12 C38 1_555 1_555
C38 O11 1_555 1_555
C39 C38 1_555 1_555
H36 C39 1_555 1_555
H37 C39 1_555 1_555
H38 C39 1_555 1_555
O13 C41 1_555 1_555
C40 H39 1_555 1_555
H40 C40 1_555 1_555
H41 C40 1_555 1_555
C41 C40 1_555 1_555
C42 C41 1_555 1_555
H42 C42 1_555 1_555
H43 C42 1_555 1_555
H44 C42 1_555 1_555
O14 C44 1_555 1_555
C43 H45 1_555 1_555
H46 C43 1_555 1_555
H47 C43 1_555 1_555
C44 C43 1_555 1_555
C45 C44 1_555 1_555
H48 C45 1_555 1_555
H49 C45 1_555 1_555
H50 C45 1_555 1_555
C3 C8 1_555 1_555
C7 C8 1_555 1_555
C9 C10 1_555 1_555
C12 C13 1_555 1_555
C15 C16 1_555 1_555
C17 C22 1_555 1_555
C21 C22 1_555 1_555
C36 C37 1_555 1_555

#END
