
#######################################################################
#
#                 Cambridge Crystallographic Data Centre
#                                CCDC 
#
#######################################################################
#
# If this CIF has been generated from an entry in the Cambridge 
# Structural Database, then it will include bibliographic, chemical, 
# crystal, experimental, refinement or atomic coordinate data resulting 
# from the CCDC's data processing and validation procedures.
#
#######################################################################

data_BIBKEE
_chemical_formula_moiety         'C32 H36 N4 O10 S1 Si1,0.33(C1 H2 Cl2)'
_chemical_name_systematic        
'Ethyl \b-((t-butyl(dimethyl)silyl)oxy)-N-(3,5-dinitrobenzoyl)-1-(phenylsulfonyl)tryptophanate dichloromethane solvate'
_symmetry_cell_setting           triclinic
_symmetry_space_group_name_H-M   'P 1'
_symmetry_Int_Tables_number      1
_space_group_name_Hall           'P 1'
loop_
_symmetry_equiv_pos_site_id
_symmetry_equiv_pos_as_xyz
1 x,y,z
_cell_length_a                   13.7346(10)
_cell_length_b                   16.0038(11)
_cell_length_c                   17.3585(13)
_cell_angle_alpha                100.0100(10)
_cell_angle_beta                 92.2140(10)
_cell_angle_gamma                108.5900(10)
_cell_volume                     3543.25
_exptl_crystal_colour            yellow
_exptl_crystal_description       block
_cell_formula_units_Z            4
loop_
_atom_site_label
_atom_site_type_symbol
_atom_site_fract_x
_atom_site_fract_y
_atom_site_fract_z
S1 S 0.43581(8) 0.97344(6) 0.94798(7)
N1 N 0.4962(3) 1.0019(2) 0.8696(2)
C1 C 0.5998(3) 1.0065(2) 0.8601(3)
H1 H 0.6402 0.9835 0.8908
C2 C 0.6318(3) 1.0495(2) 0.7995(2)
C3 C 0.5472(3) 1.0744(2) 0.7696(2)
C4 C 0.5338(3) 1.1151(2) 0.7073(2)
H2 H 0.5883 1.1347 0.6756
C5 C 0.4392(3) 1.1263(3) 0.6923(2)
H3 H 0.4287 1.1533 0.6495
C6 C 0.3591(3) 1.0984(3) 0.7395(2)
H4 H 0.2953 1.1074 0.7283
C7 C 0.3705(3) 1.0582(3) 0.8015(2)
H5 H 0.3163 1.0401 0.8337
C8 C 0.4649(3) 1.0453(2) 0.8152(2)
N2 N 0.8730(2) 1.1756(2) 0.7173(2)
H6 H 0.935(2) 1.196(3) 0.744(3)
C9 C 0.7953(3) 1.1648(2) 0.7720(2)
H7 H 0.7465 1.1965 0.7593
C10 C 0.7346(3) 1.0640(3) 0.7670(3)
H8 H 0.7227 1.0329 0.7106
O1 O 0.7955(2) 1.02702(19) 0.8089(2)
C11 C 0.8492(3) 1.2069(2) 0.8529(2)
C12 C 0.8465(3) 1.1700(2) 0.6399(2)
C13 C 0.9297(3) 1.1745(2) 0.5864(2)
C14 C 1.0259(3) 1.1704(3) 0.6092(3)
H9 H 1.0424 1.1656 0.6615
C15 C 1.0961(3) 1.1734(3) 0.5559(3)
C16 C 1.0782(3) 1.1821(3) 0.4789(3)
H10 H 1.1285 1.1842 0.4426
C17 C 0.9821(3) 1.1874(3) 0.4584(3)
C18 C 0.9082(3) 1.1839(2) 0.5094(2)
H11 H 0.8433 1.1877 0.4930
N3 N 0.9619(3) 1.2036(3) 0.3794(2)
O2 O 0.8796(3) 1.2119(3) 0.3622(2)
O3 O 1.0301(3) 1.2095(4) 0.3353(3)
N4 N 1.1984(3) 1.1698(3) 0.5813(3)
O4 O 1.2181(3) 1.1771(5) 0.6518(3)
O5 O 1.2582(3) 1.1648(3) 0.5336(3)
O6 O 0.7811(2) 1.2194(2) 0.90362(19)
C19 C 0.8186(4) 1.2504(4) 0.9860(3)
H12 H 0.8808 1.2343 0.9974
H13 H 0.7649 1.2225 1.0189
C20 C 0.7737(11) 1.3190(10) 1.0278(7)
H14 H 0.8058 1.3770 1.0124
H15 H 0.7874 1.3259 1.0848
H16 H 0.6990 1.2985 1.0133
Si1 Si 0.82816(16) 0.93560(12) 0.78424(14)
C21 C 0.8406(7) 0.9186(5) 0.6762(4)
H17 H 0.7776 0.8730 0.6481
H18 H 0.8999 0.8985 0.6655
H19 H 0.8507 0.9754 0.6585
C22 C 0.7327(9) 0.8333(5) 0.8058(7)
H20 H 0.7358 0.8364 0.8627
H21 H 0.6633 0.8291 0.7857
C23 C 0.9530(7) 0.9617(6) 0.8473(5)
C24 C 1.0419(7) 1.0296(7) 0.8140(8)
H22 H 1.0241 1.0838 0.8115
H23 H 1.0513 1.0019 0.7612
C25 C 0.9792(10) 0.8749(8) 0.8500(6)
H24 H 1.0471 0.8906 0.8792
H25 H 0.9801 0.8438 0.7963
H26 H 0.9268 0.8354 0.8763
C26 C 0.9452(10) 1.0045(8) 0.9324(5)
H27 H 0.8888 0.9632 0.9540
H28 H 0.9315 1.0610 0.9329
H29 H 1.0103 1.0164 0.9643
H30 H 0.7411 0.7968 0.7317
H31 H 1.0559 1.0047 0.8292
C27 C 0.4675(4) 1.0740(3) 1.0173(3)
C28 C 0.4039(6) 1.1290(4) 1.0193(4)
H32 H 0.3429 1.1101 0.9840
C29 C 0.4299(7) 1.2088(4) 1.0717(4)
H33 H 0.3885 1.2464 1.0724
C30 C 0.5195(6) 1.2343(4) 1.1248(3)
H34 H 0.5376 1.2890 1.1623
C31 C 0.5777(6) 1.1839(4) 1.1232(4)
H35 H 0.6369 1.2023 1.1603
C32 C 0.5554(5) 1.1026(3) 1.0678(3)
H36 H 0.6008 1.0684 1.0659
O7 O 0.4837(3) 0.9174(2) 0.9768(2)
O8 O 0.3278(3) 0.9426(2) 0.9224(2)
O9 O 0.9401(2) 1.2264(2) 0.86996(18)
O10 O 0.7577(2) 1.1573(2) 0.61461(18)
Si2 Si 0.54338(9) 0.59686(8) 0.49698(7)
S2 S 0.14130(10) 0.52881(8) 0.29058(8)
N5 N 0.1743(3) 0.5089(3) 0.3763(2)
C33 C 0.2725(3) 0.5060(3) 0.3943(2)
H37 H 0.3301 0.5262 0.3656
C34 C 0.2732(3) 0.4698(2) 0.4589(2)
C35 C 0.1696(3) 0.4479(2) 0.4830(2)
C36 C 0.1257(3) 0.4108(2) 0.5471(2)
H38 H 0.1654 0.3928 0.5829
C37 C 0.0228(3) 0.4013(3) 0.5560(3)
H39 H -0.0077 0.3772 0.5990
C38 C -0.0358(3) 0.4261(3) 0.5041(3)
H40 H -0.1058 0.4189 0.5121
C39 C 0.0053(4) 0.4614(3) 0.4401(3)
H41 H -0.0354 0.4777 0.4037
C40 C 0.1087(3) 0.4718(3) 0.4316(3)
N6 N 0.4303(3) 0.3544(3) 0.5559(2)
H42 H 0.474(3) 0.328(3) 0.536(3)
C41 C 0.3536(3) 0.3599(3) 0.4992(3)
H43 H 0.2833 0.3281 0.5133
C42 C 0.3639(3) 0.4593(3) 0.4999(2)
H44 H 0.3728 0.4916 0.5558
O11 O 0.4550(2) 0.4972(2) 0.46434(17)
C43 C 0.3683(4) 0.3119(4) 0.4196(3)
C44 C 0.4163(3) 0.3634(3) 0.6318(3)
C45 C 0.4994(3) 0.3564(3) 0.6854(3)
C46 C 0.6001(3) 0.3691(3) 0.6647(3)
H45 H 0.6181 0.3827 0.6149
C47 C 0.6720(3) 0.3617(3) 0.7176(3)
C48 C 0.6492(4) 0.3393(3) 0.7904(3)
H46 H 0.6996 0.3328 0.8258
C49 C 0.5483(4) 0.3270(3) 0.8084(3)
C50 C 0.4739(4) 0.3369(3) 0.7586(3)
H47 H 0.4066 0.3306 0.7739
N7 N 0.5173(4) 0.2982(3) 0.8828(3)
O12 O 0.4313(3) 0.2919(3) 0.8996(2)
O13 O 0.5816(5) 0.2827(4) 0.9236(3)
N8 N 0.7784(3) 0.3762(3) 0.6955(3)
O14 O 0.7953(3) 0.3965(4) 0.6299(3)
O15 O 0.8426(3) 0.3686(2) 0.7419(3)
O16 O 0.2876(3) 0.2983(3) 0.3692(2)
C51 C 0.2958(6) 0.2579(5) 0.2885(4)
H48 H 0.3237 0.2080 0.2884
H49 H 0.2267 0.2334 0.2584
C52 C 0.3581(10) 0.3207(7) 0.2557(4)
H50 H 0.3483 0.3007 0.1984
H51 H 0.4299 0.3312 0.2747
H52 H 0.3421 0.3766 0.2696
C53 C 0.5043(5) 0.6879(4) 0.4643(5)
H53 H 0.4997 0.6789 0.4068
H54 H 0.5558 0.7465 0.4869
H55 H 0.4369 0.6862 0.4821
C54 C 0.5623(4) 0.6184(4) 0.6064(3)
H56 H 0.5000 0.6260 0.6279
H57 H 0.6213 0.6732 0.6255
H58 H 0.5755 0.5674 0.6234
C55 C 0.6589(3) 0.5843(3) 0.4493(3)
C56 C 0.7465(4) 0.6756(4) 0.4627(4)
H59 H 0.7610 0.7013 0.5191
H60 H 0.7255 0.7167 0.4353
H61 H 0.8088 0.6670 0.4422
C57 C 0.6968(4) 0.5165(3) 0.4831(3)
H62 H 0.7501 0.5031 0.4521
H63 H 0.6388 0.4611 0.4810
H64 H 0.7259 0.5421 0.5378
C58 C 0.6296(5) 0.5500(4) 0.3605(3)
H65 H 0.6881 0.5380 0.3361
H66 H 0.6118 0.5956 0.3374
H67 H 0.5701 0.4945 0.3513
C59 C 0.0976(4) 0.4227(3) 0.2276(3)
C60 C -0.0041(4) 0.3722(3) 0.2284(3)
H68 H -0.0487 0.3931 0.2612
C61 C -0.0388(5) 0.2856(4) 0.1763(4)
H69 H -0.1093 0.2490 0.1718
C62 C 0.0296(5) 0.2556(4) 0.1332(3)
H70 H 0.0063 0.1972 0.1009
C63 C 0.1321(5) 0.3092(4) 0.1360(3)
H71 H 0.1785 0.2881 0.1055
C64 C 0.1658(4) 0.3934(4) 0.1837(3)
H72 H 0.2356 0.4309 0.1863
O17 O 0.2306(4) 0.5825(2) 0.2644(2)
O18 O 0.0699(3) 0.56126(19) 0.30643(18)
O19 O 0.4432(3) 0.2909(3) 0.4065(2)
O20 O 0.3388(3) 0.3778(2) 0.6566(2)
N9 N 0.4585(3) 0.4847(2) -0.0004(2)
C65 C 0.3631(3) 0.4928(3) -0.0224(2)
H73 H 0.3043 0.4782 0.0061
C66 C 0.3668(3) 0.5238(3) -0.0891(2)
C67 C 0.4704(3) 0.5395(3) -0.1121(2)
C68 C 0.5194(3) 0.5706(3) -0.1757(2)
H74 H 0.4826 0.5866 -0.2150
C69 C 0.6763(3) 0.5537(3) -0.1224(3)
H75 H 0.7467 0.5593 -0.1270
C70 C 0.6218(3) 0.5778(3) -0.1809(2)
H76 H 0.6557 0.5990 -0.2239
C71 C 0.6306(3) 0.5225(3) -0.0593(2)
H77 H 0.6680 0.5067 -0.0202
C72 C 0.5272(3) 0.5151(3) -0.0550(2)
N10 N 0.1752(2) 0.5104(2) -0.25822(17)
H78 H 0.1099(18) 0.476(3) -0.265(3)
C73 C 0.2425(3) 0.4774(2) -0.21467(19)
H79 H 0.3042 0.4788 -0.2438
C74 C 0.2787(3) 0.5395(3) -0.1333(2)
H80 H 0.3023 0.6032 -0.1408
O21 O 0.1929(2) 0.5268(2) -0.08884(15)
C75 C 0.1824(3) 0.3800(3) -0.21105(19)
C76 C 0.2113(3) 0.5707(2) -0.30407(19)
C77 C 0.1302(3) 0.6014(2) -0.3417(2)
C78 C 0.0354(2) 0.5949(2) -0.3106(2)
H81 H 0.0179 0.5673 -0.2665
C79 C -0.0312(3) 0.6292(2) -0.3451(2)
C80 C -0.0114(3) 0.6664(3) -0.4111(3)
H82 H -0.0590 0.6886 -0.4350
C81 C 0.0821(3) 0.6699(3) -0.4408(2)
C82 C 0.1540(3) 0.6400(2) -0.4067(2)
H83 H 0.2183 0.6459 -0.4275
N11 N 0.1034(4) 0.7058(4) -0.5121(3)
O22 O 0.1909(3) 0.7180(3) -0.5333(2)
O23 O 0.0355(4) 0.7222(4) -0.5470(3)
N12 N -0.1282(3) 0.6256(3) -0.3102(2)
O24 O -0.1498(3) 0.5823(3) -0.2580(3)
O25 O -0.1787(3) 0.6657(3) -0.3340(2)
O26 O 0.2402(2) 0.34552(18) -0.17254(15)
C83 C 0.1918(4) 0.2557(3) -0.1564(2)
H84 H 0.2336 0.2171 -0.1739
H85 H 0.1221 0.2281 -0.1852
C84 C 0.1842(4) 0.2638(4) -0.0689(2)
H86 H 0.2537 0.2884 -0.0409
H87 H 0.1490 0.2043 -0.0574
H88 H 0.1450 0.3040 -0.0517
C85 C 0.1331(10) 0.6808(7) -0.1063(6)
H89 H 0.1530 0.6622 -0.1585
H90 H 0.1765 0.7427 -0.0840
H91 H 0.0605 0.6774 -0.1110
C86 C 0.2479(7) 0.6731(7) 0.0431(5)
H92 H 0.2795 0.6360 0.0676
H93 H 0.2143 0.7032 0.0823
H94 H 0.3014 0.7183 0.0226
Si3 Si 0.1515(4) 0.6014(4) -0.0379(3)
C87 C 0.0252(7) 0.5429(6) -0.0096(5)
C88 C -0.0306(8) 0.6124(8) 0.0180(7)
H95 H 0.0050 0.6515 0.0677
H96 H -0.1023 0.5804 0.0256
H97 H -0.0297 0.6489 -0.0220
C89 C 0.0405(10) 0.4880(8) 0.0497(6)
H98 H 0.0862 0.5280 0.0953
H99 H 0.0715 0.4438 0.0255
H100 H -0.0265 0.4568 0.0666
C90 C -0.0451(7) 0.4781(8) -0.0860(6)
H101 H -0.0210 0.4269 -0.1020
H102 H -0.0405 0.5114 -0.1288
H103 H -0.1170 0.4563 -0.0741
S3 S 0.48944(10) 0.46976(8) 0.08836(7)
O27 O 0.3940(3) 0.4147(2) 0.1110(2)
O28 O 0.5749(4) 0.4392(4) 0.0838(5)
C91 C 0.5227(3) 0.5765(3) 0.1482(2)
C92 C 0.6251(4) 0.6302(4) 0.1611(3)
H104 H 0.6773 0.6104 0.1377
C93 C 0.6498(5) 0.7164(3) 0.2109(3)
H105 H 0.7195 0.7553 0.2212
C94 C 0.5747(6) 0.7426(4) 0.2429(4)
H106 H 0.5923 0.8007 0.2752
C95 C 0.4725(6) 0.6882(4) 0.2308(5)
H107 H 0.4211 0.7084 0.2551
C96 C 0.4454(5) 0.6030(3) 0.1821(3)
H108 H 0.3756 0.5644 0.1726
O29 O 0.0957(2) 0.3413(2) -0.24118(18)
O30 O 0.30133(19) 0.60241(19) -0.31459(17)
S4 S 0.81336(8) 1.02910(7) 0.17350(7)
N13 N 0.7800(3) 1.0173(2) 0.2623(2)
C97 C 0.6832(3) 1.0178(3) 0.2861(3)
H109 H 0.6347 1.0355 0.2580
C98 C 0.6698(3) 0.9890(3) 0.3554(2)
C99 C 0.7593(3) 0.9687(3) 0.3776(2)
C100 C 0.7881(4) 0.9366(3) 0.4429(3)
H110 H 0.7437 0.9252 0.4832
C101 C 0.8821(4) 0.9222(4) 0.4470(3)
H111 H 0.9026 0.9009 0.4906
C102 C 0.9476(4) 0.9390(4) 0.3868(3)
H112 H 1.0115 0.9281 0.3907
C103 C 0.9223(4) 0.9707(4) 0.3222(3)
H113 H 0.9671 0.9822 0.2821
C104 C 0.8272(3) 0.9847(3) 0.3195(3)
C105 C 0.5965(3) 1.0380(3) 0.4816(3)
H114 H 0.6680 1.0444 0.5022
C106 C 0.5752(3) 0.9781(3) 0.3987(3)
H115 H 0.5480 0.9140 0.4050
O31 O 0.4974(2) 0.9955(2) 0.35647(19)
C107 C 0.5951(3) 1.1317(3) 0.4802(2)
N14 N 0.5228(7) 0.9909(7) 0.5380(6)
H116 H 0.4679 1.0070 0.5461
C108 C 0.5350(7) 0.9262(8) 0.5768(7)
O32 O 0.6093(7) 0.9016(8) 0.5736(6)
C109 C 0.4501(7) 0.8891(7) 0.6278(7)
C110 C 0.4738(8) 0.8475(6) 0.6858(6)
H117 H 0.5396 0.8402 0.6911
C111 C 0.4002(7) 0.8161(6) 0.7365(6)
C112 C 0.3054(7) 0.8242(6) 0.7324(6)
H118 H 0.2571 0.8037 0.7684
C113 C 0.2826(7) 0.8642(7) 0.6728(6)
C114 C 0.3535(6) 0.8968(6) 0.6201(5)
H119 H 0.3350 0.9237 0.5797
N15 N 0.1793(6) 0.8731(6) 0.6634(5)
O33 O 0.1197(6) 0.8487(7) 0.7109(6)
O34 O 0.1573(8) 0.9014(8) 0.6057(5)
N16 N 0.4229(10) 0.7705(8) 0.7972(9)
O35 O 0.3637(8) 0.7524(5) 0.8461(5)
O36 O 0.5072(8) 0.7570(7) 0.7986(7)
O37 O 0.6664(2) 1.1721(2) 0.43764(18)
C115 C 0.6715(4) 1.2617(3) 0.4250(3)
H120 H 0.6184 1.2810 0.4528
H121 H 0.7402 1.3058 0.4459
C116 C 0.6538(6) 1.2572(5) 0.3409(4)
H122 H 0.7122 1.2470 0.3148
H123 H 0.6470 1.3140 0.3319
H124 H 0.5902 1.2077 0.3193
H125 H 0.2070 0.8588 0.2424
C117 C 0.3624(9) 0.8146(8) 0.3607(8)
H126 H 0.4146 0.7852 0.3510
H127 H 0.2940 0.7717 0.3400
H128 H 0.3637 0.8353 0.4174
C118 C 0.4003(12) 0.8951(14) 0.1970(6)
H129 H 0.3867 0.9447 0.1777
H130 H 0.3494 0.8379 0.1702
H131 H 0.4698 0.8951 0.1861
Si4 Si 0.3902(3) 0.9101(3) 0.3120(3)
C119 C 0.2801(6) 0.9492(8) 0.3422(6)
C120 C 0.2983(13) 1.0432(10) 0.3234(9)
H132 H 0.2318 1.0526 0.3156
H133 H 0.3333 1.0479 0.2754
H134 H 0.3413 1.0890 0.3672
C121 C 0.1805(9) 0.8803(13) 0.2928(9)
H135 H 0.1195 0.8907 0.3140
H136 H 0.1783 0.8190 0.2953
C122 C 0.2648(10) 0.9574(12) 0.4303(7)
H137 H 0.2810 1.0209 0.4546
H138 H 0.3108 0.9323 0.4559
H139 H 0.1930 0.9243 0.4364
C123 C 0.7612(3) 0.9213(3) 0.1125(2)
C124 C 0.6600(4) 0.8918(3) 0.0811(2)
H140 H 0.6173 0.9276 0.0942
C125 C 0.6207(5) 0.8094(3) 0.0300(3)
H141 H 0.5514 0.7890 0.0069
C126 C 0.6822(5) 0.7571(3) 0.0128(3)
H142 H 0.6546 0.7000 -0.0214
C127 C 0.7812(5) 0.7859(4) 0.0438(4)
H143 H 0.8226 0.7489 0.0308
C128 C 0.8248(5) 0.8697(4) 0.0952(4)
H144 H 0.8948 0.8900 0.1171
O38 O 0.9237(3) 1.0563(3) 0.1793(2)
O39 O 0.7605(3) 1.0848(2) 0.1490(2)
O40 O 0.5369(2) 1.1637(3) 0.51468(18)
Cl1 Cl -0.16303(15) 0.54481(14) 0.20302(14)
Cl2 Cl -0.0675(2) 0.73700(16) 0.20793(13)
C129 C -0.1015(8) 0.6491(6) 0.2584(5)
H145 H -0.0381 0.6479 0.2865
H146 H -0.1468 0.6620 0.2986
Cl3 Cl -0.9115(3) -0.1357(3) 0.0612(3)
Cl4 Cl -0.8676(4) 0.0525(3) 0.1030(3)
C130 C -0.8234(12) -0.0331(10) 0.0567(10)
H147 H -0.8146 -0.0283 0.0011
H148 H -0.7557 -0.0269 0.0832
H149? H 0.8947 1.2775 0.9909
H150? H 0.8013 1.1981 1.0123
C131? C 0.8447(17) 1.3525(10) 1.0035(11)
H151? H 0.8962 1.3791 0.9694
H152? H 0.8724 1.3764 1.0586
H153? H 0.7820 1.3674 0.9935
Si5? Si 0.8494(5) 0.9494(4) 0.7585(4)
C132? C 0.9388(17) 0.9910(14) 0.6890(12)
H154? H 0.9029 0.9717 0.6358
H155? H 0.9959 0.9669 0.6913
H156? H 0.9661 1.0568 0.7022
C133? C 0.7422(16) 0.8481(10) 0.7076(14)
C134? C 0.9080(16) 0.9253(14) 0.8469(10)
C135? C 1.0119(17) 1.0027(18) 0.872(2)
C136? C 0.839(2) 0.923(2) 0.9154(14)
H157? H 0.7666 0.9001 0.8943
H158? H 0.8557 0.9837 0.9467
H159? H 0.8524 0.8833 0.9487
C137? C 0.928(3) 0.8348(18) 0.8218(17)
H160? H 0.9801 0.8416 0.7840
H161? H 0.8639 0.7880 0.7974
H162? H 0.9536 0.8177 0.8682
H163? H 0.3176 0.3066 0.2582
H164? H 0.3514 0.2311 0.2896
C138? C 0.212(2) 0.1958(16) 0.2501(11)
H165? H 0.2270 0.1732 0.1973
H166? H 0.1568 0.2218 0.2460
H167? H 0.1899 0.1461 0.2785
H168? H 0.1555 0.1876 0.2839
H169? H 0.2256 0.1389 0.2352
H170? H 0.1926 0.2146 0.2027
C139? C 0.2909(10) 0.6997(8) 0.0134(8)
H171? H 0.3410 0.6808 0.0416
H172? H 0.2759 0.7483 0.0481
H173? H 0.3197 0.7210 -0.0331
C140? C 0.1327(10) 0.5426(8) 0.0653(6)
H174? H 0.0962 0.5738 0.1011
H175? H 0.1941 0.5402 0.0943
H176? H 0.0869 0.4813 0.0434
Si6? Si 0.1727(5) 0.6050(6) -0.0168(4)
C141? C 0.0647(8) 0.6362(7) -0.0572(6)
C142? C 0.1059(11) 0.6990(10) -0.1160(8)
H177? H 0.0478 0.7082 -0.1438
H178? H 0.1431 0.6714 -0.1540
H179? H 0.1528 0.7571 -0.0872
C143? C 0.0260(13) 0.6900(11) 0.0117(8)
H180? H 0.0787 0.7121 0.0568
H181? H -0.0380 0.6506 0.0267
H182? H 0.0129 0.7410 -0.0054
C144? C -0.0226(8) 0.5505(9) -0.0971(9)
H183? H -0.0809 0.5666 -0.1163
H184? H -0.0450 0.5113 -0.0591
H185? H 0.0024 0.5189 -0.1414
S5? S 0.5286(13) 0.4977(10) 0.1100(9)
O41? O 0.4323(19) 0.466(2) 0.143(2)
O42? O 0.584(4) 0.438(4) 0.086(7)
C145? C 0.601(2) 0.589(2) 0.1824(19)
C146? C 0.698(2) 0.648(2) 0.182(2)
H186? H 0.7426 0.6344 0.1451
C147? C 0.733(3) 0.731(2) 0.239(2)
H187? H 0.8010 0.7723 0.2397
C148? C 0.668(4) 0.750(3) 0.290(3)
H188? H 0.6917 0.8055 0.3273
C149? C 0.571(4) 0.694(3) 0.291(3)
H189? H 0.5241 0.7113 0.3233
C150? C 0.541(3) 0.607(3) 0.242(2)
H190? H 0.4800 0.5618 0.2497
N17? N 0.5081(10) 1.0058(10) 0.5194(8)
H191? H 0.4538 1.0234 0.5165
C151? C 0.5167(10) 0.9432(11) 0.5618(10)
O43? O 0.5861(10) 0.9114(11) 0.5575(9)
C152? C 0.4280(9) 0.9089(9) 0.6086(8)
C153? C 0.4413(11) 0.8576(9) 0.6618(9)
H192? H 0.5031 0.8434 0.6667
C154? C 0.3611(12) 0.8269(8) 0.7084(8)
C155? C 0.2707(12) 0.8436(10) 0.7005(10)
H193? H 0.2168 0.8221 0.7321
C156? C 0.2602(10) 0.8917(9) 0.6463(9)
C157? C 0.3377(10) 0.9257(9) 0.5987(9)
H194? H 0.3275 0.9594 0.5610
N18? N 0.1640(12) 0.9151(12) 0.6387(10)
O44? O 0.0913(12) 0.8738(9) 0.6708(12)
O45? O 0.1588(9) 0.9631(12) 0.5930(10)
N19? N 0.3776(12) 0.7801(10) 0.7704(9)
O46? O 0.3062(13) 0.7493(6) 0.8081(7)
O47? O 0.4614(12) 0.7695(13) 0.7788(11)
C158? C 0.3327(12) 0.8399(10) 0.3588(11)
H195? H 0.3673 0.7967 0.3392
H196? H 0.2582 0.8127 0.3437
H197? H 0.3457 0.8566 0.4163
C159? C 0.4261(17) 0.890(2) 0.2076(9)
H198? H 0.3687 0.8751 0.1667
H199? H 0.4435 0.8354 0.2106
H200? H 0.4863 0.9357 0.1947
Si7? Si 0.3822(5) 0.9388(5) 0.3172(6)
C160? C 0.2939(8) 0.9938(10) 0.2903(8)
C161? C 0.3485(16) 1.0533(12) 0.2323(10)
H201? H 0.2971 1.0681 0.2015
H202? H 0.3835 1.0204 0.1967
H203? H 0.3993 1.1088 0.2620
C162? C 0.2004(11) 0.9174(16) 0.2396(12)
C163? C 0.2763(14) 1.0376(14) 0.3751(11)
H204? H 0.3139 1.1024 0.3855
H205? H 0.3016 1.0102 0.4144
H206? H 0.2024 1.0273 0.3782
H207? H 0.7486 0.7801 0.7803
H208? H 0.6941 0.8259 0.7455
H209? H 1.1060 1.0459 0.8485
H210? H 1.0117 1.0334 0.9264
H211? H 1.0210 1.0456 0.8371
H212? H 0.1814 0.8878 0.2379
H213? H 0.1358 0.9206 0.2599
H214? H 0.7704 0.8012 0.6850
H215? H 0.7057 0.8638 0.6657
H216? H 0.7527 0.8347 0.6519
H217? H 0.6764 0.8593 0.7124
H218? H 0.1619 0.8779 0.2733
H219? H 0.2260 0.8824 0.1981
H220? H 0.1548 0.9442 0.2157
H221? H 0.1999 0.9251 0.1848
H222? H 1.0467 0.9924 0.9185
H223? H 0.9989 1.0600 0.8857
H224? H 1.0688 0.9781 0.8699
loop_
_geom_bond_atom_site_label_1
_geom_bond_atom_site_label_2
_geom_bond_site_symmetry_1
_geom_bond_site_symmetry_2
S1 N1 1_555 1_555
N1 C1 1_555 1_555
C1 H1 1_555 1_555
C2 C1 1_555 1_555
C3 C2 1_555 1_555
C4 C3 1_555 1_555
H2 C4 1_555 1_555
C5 C4 1_555 1_555
H3 C5 1_555 1_555
C6 C5 1_555 1_555
H4 C6 1_555 1_555
C7 C6 1_555 1_555
H5 C7 1_555 1_555
C8 N1 1_555 1_555
N2 H6 1_555 1_555
C9 N2 1_555 1_555
H7 C9 1_555 1_555
C10 C2 1_555 1_555
H8 C10 1_555 1_555
O1 C10 1_555 1_555
C11 C9 1_555 1_555
C12 N2 1_555 1_555
C13 C12 1_555 1_555
C14 C13 1_555 1_555
H9 C14 1_555 1_555
C15 C14 1_555 1_555
C16 C15 1_555 1_555
H10 C16 1_555 1_555
C17 C16 1_555 1_555
C18 C13 1_555 1_555
H11 C18 1_555 1_555
N3 C17 1_555 1_555
O2 N3 1_555 1_555
O3 N3 1_555 1_555
N4 C15 1_555 1_555
O4 N4 1_555 1_555
O5 N4 1_555 1_555
O6 C11 1_555 1_555
C19 O6 1_555 1_555
H12 C19 1_555 1_555
H13 C19 1_555 1_555
C20 C19 1_555 1_555
H14 C20 1_555 1_555
H15 C20 1_555 1_555
H16 C20 1_555 1_555
Si1 O1 1_555 1_555
C21 Si1 1_555 1_555
H17 C21 1_555 1_555
H18 C21 1_555 1_555
H19 C21 1_555 1_555
C22 Si1 1_555 1_555
H20 C22 1_555 1_555
H21 C22 1_555 1_555
C23 Si1 1_555 1_555
C24 C23 1_555 1_555
H22 C24 1_555 1_555
H23 C24 1_555 1_555
C25 C23 1_555 1_555
H24 C25 1_555 1_555
H25 C25 1_555 1_555
H26 C25 1_555 1_555
C26 C23 1_555 1_555
H27 C26 1_555 1_555
H28 C26 1_555 1_555
H29 C26 1_555 1_555
H30 C22 1_555 1_555
H31 C24 1_555 1_555
C27 S1 1_555 1_555
C28 C27 1_555 1_555
H32 C28 1_555 1_555
C29 C28 1_555 1_555
H33 C29 1_555 1_555
C30 C29 1_555 1_555
H34 C30 1_555 1_555
C31 C30 1_555 1_555
H35 C31 1_555 1_555
C32 C27 1_555 1_555
H36 C32 1_555 1_555
O7 S1 1_555 1_555
O8 S1 1_555 1_555
O9 C11 1_555 1_555
O10 C12 1_555 1_555
Si2 O11 1_555 1_555
S2 N5 1_555 1_555
N5 C33 1_555 1_555
C33 H37 1_555 1_555
C34 C33 1_555 1_555
C35 C34 1_555 1_555
C36 C35 1_555 1_555
H38 C36 1_555 1_555
C37 C36 1_555 1_555
H39 C37 1_555 1_555
C38 C37 1_555 1_555
H40 C38 1_555 1_555
C39 C38 1_555 1_555
H41 C39 1_555 1_555
C40 N5 1_555 1_555
N6 H42 1_555 1_555
C41 N6 1_555 1_555
H43 C41 1_555 1_555
C42 C34 1_555 1_555
H44 C42 1_555 1_555
O11 C42 1_555 1_555
C43 C41 1_555 1_555
C44 N6 1_555 1_555
C45 C44 1_555 1_555
C46 C45 1_555 1_555
H45 C46 1_555 1_555
C47 C46 1_555 1_555
C48 C47 1_555 1_555
H46 C48 1_555 1_555
C49 C48 1_555 1_555
C50 C45 1_555 1_555
H47 C50 1_555 1_555
N7 C49 1_555 1_555
O12 N7 1_555 1_555
O13 N7 1_555 1_555
N8 C47 1_555 1_555
O14 N8 1_555 1_555
O15 N8 1_555 1_555
O16 C43 1_555 1_555
C51 O16 1_555 1_555
H48 C51 1_555 1_555
H49 C51 1_555 1_555
C52 C51 1_555 1_555
H50 C52 1_555 1_555
H51 C52 1_555 1_555
H52 C52 1_555 1_555
C53 Si2 1_555 1_555
H53 C53 1_555 1_555
H54 C53 1_555 1_555
H55 C53 1_555 1_555
C54 Si2 1_555 1_555
H56 C54 1_555 1_555
H57 C54 1_555 1_555
H58 C54 1_555 1_555
C55 Si2 1_555 1_555
C56 C55 1_555 1_555
H59 C56 1_555 1_555
H60 C56 1_555 1_555
H61 C56 1_555 1_555
C57 C55 1_555 1_555
H62 C57 1_555 1_555
H63 C57 1_555 1_555
H64 C57 1_555 1_555
C58 C55 1_555 1_555
H65 C58 1_555 1_555
H66 C58 1_555 1_555
H67 C58 1_555 1_555
C59 S2 1_555 1_555
C60 C59 1_555 1_555
H68 C60 1_555 1_555
C61 C60 1_555 1_555
H69 C61 1_555 1_555
C62 C61 1_555 1_555
H70 C62 1_555 1_555
C63 C62 1_555 1_555
H71 C63 1_555 1_555
C64 C59 1_555 1_555
H72 C64 1_555 1_555
O17 S2 1_555 1_555
O18 S2 1_555 1_555
O19 C43 1_555 1_555
O20 C44 1_555 1_555
N9 C65 1_555 1_555
C65 H73 1_555 1_555
C66 C65 1_555 1_555
C67 C66 1_555 1_555
C68 C67 1_555 1_555
H74 C68 1_555 1_555
C69 H75 1_555 1_555
C70 C68 1_555 1_555
H76 C70 1_555 1_555
C71 C69 1_555 1_555
H77 C71 1_555 1_555
C72 N9 1_555 1_555
N10 H78 1_555 1_555
C73 N10 1_555 1_555
H79 C73 1_555 1_555
C74 C66 1_555 1_555
H80 C74 1_555 1_555
O21 C74 1_555 1_555
C75 C73 1_555 1_555
C76 N10 1_555 1_555
C77 C76 1_555 1_555
C78 C77 1_555 1_555
H81 C78 1_555 1_555
C79 C78 1_555 1_555
C80 C79 1_555 1_555
H82 C80 1_555 1_555
C81 C80 1_555 1_555
C82 C77 1_555 1_555
H83 C82 1_555 1_555
N11 C81 1_555 1_555
O22 N11 1_555 1_555
O23 N11 1_555 1_555
N12 C79 1_555 1_555
O24 N12 1_555 1_555
O25 N12 1_555 1_555
O26 C75 1_555 1_555
C83 O26 1_555 1_555
H84 C83 1_555 1_555
H85 C83 1_555 1_555
C84 C83 1_555 1_555
H86 C84 1_555 1_555
H87 C84 1_555 1_555
H88 C84 1_555 1_555
C85 H89 1_555 1_555
H90 C85 1_555 1_555
H91 C85 1_555 1_555
C86 H92 1_555 1_555
H93 C86 1_555 1_555
H94 C86 1_555 1_555
Si3 O21 1_555 1_555
C87 Si3 1_555 1_555
C88 C87 1_555 1_555
H95 C88 1_555 1_555
H96 C88 1_555 1_555
H97 C88 1_555 1_555
C89 C87 1_555 1_555
H98 C89 1_555 1_555
H99 C89 1_555 1_555
H100 C89 1_555 1_555
C90 C87 1_555 1_555
H101 C90 1_555 1_555
H102 C90 1_555 1_555
H103 C90 1_555 1_555
S3 N9 1_555 1_555
O27 S3 1_555 1_555
O28 S3 1_555 1_555
C91 S3 1_555 1_555
C92 C91 1_555 1_555
H104 C92 1_555 1_555
C93 C92 1_555 1_555
H105 C93 1_555 1_555
C94 C93 1_555 1_555
H106 C94 1_555 1_555
C95 C94 1_555 1_555
H107 C95 1_555 1_555
C96 C91 1_555 1_555
H108 C96 1_555 1_555
O29 C75 1_555 1_555
O30 C76 1_555 1_555
S4 N13 1_555 1_555
N13 C97 1_555 1_555
C97 H109 1_555 1_555
C98 C97 1_555 1_555
C99 C98 1_555 1_555
C100 C99 1_555 1_555
H110 C100 1_555 1_555
C101 C100 1_555 1_555
H111 C101 1_555 1_555
C102 C101 1_555 1_555
H112 C102 1_555 1_555
C103 C102 1_555 1_555
H113 C103 1_555 1_555
C104 N13 1_555 1_555
C105 H114 1_555 1_555
C106 C98 1_555 1_555
H115 C106 1_555 1_555
O31 C106 1_555 1_555
C107 C105 1_555 1_555
N14 C105 1_555 1_555
H116 N14 1_555 1_555
C108 N14 1_555 1_555
O32 C108 1_555 1_555
C109 C108 1_555 1_555
C110 C109 1_555 1_555
H117 C110 1_555 1_555
C111 C110 1_555 1_555
C112 C111 1_555 1_555
H118 C112 1_555 1_555
C113 C112 1_555 1_555
C114 C109 1_555 1_555
H119 C114 1_555 1_555
N15 C113 1_555 1_555
O33 N15 1_555 1_555
O34 N15 1_555 1_555
N16 C111 1_555 1_555
O35 N16 1_555 1_555
O36 N16 1_555 1_555
O37 C107 1_555 1_555
C115 O37 1_555 1_555
H120 C115 1_555 1_555
H121 C115 1_555 1_555
C116 C115 1_555 1_555
H122 C116 1_555 1_555
H123 C116 1_555 1_555
H124 C116 1_555 1_555
H125 C121 1_555 1_555
C117 H126 1_555 1_555
H127 C117 1_555 1_555
H128 C117 1_555 1_555
C118 H129 1_555 1_555
H130 C118 1_555 1_555
H131 C118 1_555 1_555
Si4 O31 1_555 1_555
C119 Si4 1_555 1_555
C120 C119 1_555 1_555
H132 C120 1_555 1_555
H133 C120 1_555 1_555
H134 C120 1_555 1_555
C121 C119 1_555 1_555
H135 C121 1_555 1_555
H136 C121 1_555 1_555
C122 C119 1_555 1_555
H137 C122 1_555 1_555
H138 C122 1_555 1_555
H139 C122 1_555 1_555
C123 S4 1_555 1_555
C124 C123 1_555 1_555
H140 C124 1_555 1_555
C125 C124 1_555 1_555
H141 C125 1_555 1_555
C126 C125 1_555 1_555
H142 C126 1_555 1_555
C127 C126 1_555 1_555
H143 C127 1_555 1_555
C128 C123 1_555 1_555
H144 C128 1_555 1_555
O38 S4 1_555 1_555
O39 S4 1_555 1_555
O40 C107 1_555 1_555
Cl1 C129 1_555 1_555
Cl2 C129 1_555 1_555
C129 H145 1_555 1_555
H146 C129 1_555 1_555
Cl3 C130 1_555 1_555
Cl4 C130 1_555 1_555
C130 H147 1_555 1_555
H148 C130 1_555 1_555
C3 C8 1_555 1_555
C7 C8 1_555 1_555
C9 C10 1_555 1_555
C17 C18 1_555 1_555
C31 C32 1_555 1_555
C35 C40 1_555 1_555
C39 C40 1_555 1_555
C41 C42 1_555 1_555
C49 C50 1_555 1_555
C63 C64 1_555 1_555
C67 C72 1_555 1_555
C69 C70 1_555 1_555
C71 C72 1_555 1_555
C73 C74 1_555 1_555
C81 C82 1_555 1_555
C85 Si3 1_555 1_555
C86 Si3 1_555 1_555
C95 C96 1_555 1_555
C99 C104 1_555 1_555
C103 C104 1_555 1_555
C105 C106 1_555 1_555
C113 C114 1_555 1_555
C117 Si4 1_555 1_555
C118 Si4 1_555 1_555
C127 C128 1_555 1_555

#END
