
#######################################################################
#
#                 Cambridge Crystallographic Data Centre
#                                CCDC 
#
#######################################################################
#
# If this CIF has been generated from an entry in the Cambridge 
# Structural Database, then it will include bibliographic, chemical, 
# crystal, experimental, refinement or atomic coordinate data resulting 
# from the CCDC's data processing and validation procedures.
#
#######################################################################

data_BIBQEK
_chemical_formula_moiety         'C22 H27 B1 F2 N2 Si1'
_chemical_name_systematic        
5,5-Difluoro-1,3,7,9-tetramethyl-10-(2-(trimethylsilyl)phenyl)-5H-dipyrrolo[1,2-c:2',1'-f][1,3,2]diazaborinine
_symmetry_cell_setting           triclinic
_symmetry_space_group_name_H-M   'P -1'
_symmetry_Int_Tables_number      2
_space_group_name_Hall           '-P 1'
loop_
_symmetry_equiv_pos_site_id
_symmetry_equiv_pos_as_xyz
1 x,y,z
2 -x,-y,-z
_cell_length_a                   8.957(4)
_cell_length_b                   14.264(7)
_cell_length_c                   17.227(8)
_cell_angle_alpha                81.589(9)
_cell_angle_beta                 88.643(8)
_cell_angle_gamma                87.439(9)
_cell_volume                     2174.79
_exptl_crystal_colour            orange
_exptl_crystal_description       'plate like'
_cell_formula_units_Z            4
loop_
_atom_site_label
_atom_site_type_symbol
_atom_site_fract_x
_atom_site_fract_y
_atom_site_fract_z
Si1 Si 0.07370(10) 0.25751(7) 0.28664(6)
F1 F 0.5190(3) 0.2216(2) 0.50333(13)
F2 F 0.7533(3) 0.23422(18) 0.45230(16)
N1 N 0.5763(3) 0.1525(2) 0.38752(15)
N2 N 0.5570(3) 0.3268(2) 0.38251(16)
B1 B 0.6037(5) 0.2338(3) 0.4347(2)
C1 C 0.3668(3) 0.2607(2) 0.20452(18)
C2 C 0.2105(3) 0.2631(2) 0.20045(18)
C3 C 0.1517(4) 0.2701(2) 0.1246(2)
H1 H 0.0485 0.2720 0.1193
C4 C 0.2402(4) 0.2743(3) 0.0578(2)
H2 H 0.1966 0.2794 0.0088
C5 C 0.3933(4) 0.2709(3) 0.0639(2)
H3 H 0.4539 0.2730 0.0191
C6 C 0.4558(4) 0.2642(3) 0.1369(2)
H4 H 0.5593 0.2621 0.1410
C7 C 0.1071(6) 0.1510(4) 0.3594(3)
H5 H 0.2033 0.1535 0.3823
H6 H 0.1046 0.0955 0.3341
H7 H 0.0310 0.1486 0.3997
C8 C 0.0792(6) 0.3670(4) 0.3332(3)
H8 H -0.0110 0.3740 0.3634
H9 H 0.0876 0.4210 0.2932
H10 H 0.1637 0.3624 0.3669
C9 C -0.1195(4) 0.2550(4) 0.2480(3)
H11 H -0.1283 0.1988 0.2242
H12 H -0.1383 0.3100 0.2097
H13 H -0.1910 0.2549 0.2905
C10 C 0.4475(3) 0.2518(2) 0.28112(18)
C11 C 0.4953(3) 0.1621(2) 0.31757(19)
C12 C 0.4840(4) 0.0702(3) 0.2960(2)
C13 C 0.5601(4) 0.0088(3) 0.3525(3)
H14 H 0.5721 -0.0564 0.3537
C14 C 0.6157(4) 0.0599(3) 0.4070(2)
C15 C 0.7076(5) 0.0228(4) 0.4774(3)
H15 H 0.8110 0.0345 0.4656
H16 H 0.6957 -0.0442 0.4909
H17 H 0.6750 0.0543 0.5208
C16 C 0.4073(5) 0.0410(3) 0.2269(3)
H18 H 0.4056 -0.0269 0.2329
H19 H 0.4607 0.0639 0.1795
H20 H 0.3068 0.0674 0.2244
C17 C 0.4819(3) 0.3346(2) 0.31143(18)
C18 C 0.4594(4) 0.4322(2) 0.2822(2)
C19 C 0.5209(4) 0.4809(3) 0.3365(3)
H21 H 0.5225 0.5465 0.3332
C20 C 0.5799(4) 0.4154(3) 0.3967(2)
C21 C 0.6609(5) 0.4346(4) 0.4684(3)
H22 H 0.6123 0.4036 0.5148
H23 H 0.6593 0.5017 0.4697
H24 H 0.7626 0.4107 0.4662
C22 C 0.3897(5) 0.4777(3) 0.2076(2)
H25 H 0.3930 0.5453 0.2038
H26 H 0.2876 0.4600 0.2069
H27 H 0.4436 0.4569 0.1639
Si2 Si 0.01432(12) 0.26397(9) 0.65592(6)
F3 F -0.1843(3) 0.20700(16) 1.03771(11)
F4 F -0.3364(2) 0.23973(17) 0.93358(14)
N3 N -0.1164(3) 0.1407(2) 0.92038(16)
N4 N -0.1000(3) 0.3136(2) 0.92550(15)
B2 B -0.1892(4) 0.2247(3) 0.9558(2)
C23 C 0.2122(3) 0.2354(2) 0.79383(18)
C24 C 0.3542(4) 0.2249(2) 0.8265(2)
H28 H 0.3631 0.2160 0.8808
C25 C 0.4814(4) 0.2276(3) 0.7797(2)
H29 H 0.5753 0.2209 0.8023
C26 C 0.4685(4) 0.2402(3) 0.6992(2)
H30 H 0.5536 0.2417 0.6671
C27 C 0.3285(4) 0.2506(2) 0.66662(19)
H31 H 0.3217 0.2591 0.6122
C28 C 0.1964(4) 0.2490(2) 0.71146(18)
C29 C 0.0552(7) 0.3199(9) 0.5559(4)
H32 H 0.1077 0.2749 0.5277
H33 H 0.1160 0.3733 0.5573
H34 H -0.0367 0.3408 0.5300
C30 C -0.0707(9) 0.1498(5) 0.6547(6)
H35 H -0.1562 0.1588 0.6214
H36 H -0.1014 0.1242 0.7070
H37 H 0.0008 0.1066 0.6350
C31 C -0.1266(6) 0.3405(5) 0.6973(4)
H38 H -0.0837 0.3994 0.7035
H39 H -0.1604 0.3096 0.7474
H40 H -0.2098 0.3528 0.6625
C32 C 0.0803(3) 0.2313(2) 0.84842(17)
C33 C 0.0134(4) 0.1449(2) 0.87222(19)
C34 C 0.0478(4) 0.0509(3) 0.8550(2)
C35 C -0.0599(5) -0.0049(3) 0.8932(2)
H41 H -0.0656 -0.0699 0.8930
C36 C -0.1594(4) 0.0505(3) 0.9322(2)
C37 C 0.1758(5) 0.0167(3) 0.8080(3)
H42 H 0.1873 -0.0511 0.8198
H43 H 0.2657 0.0447 0.8210
H44 H 0.1568 0.0345 0.7531
C38 C -0.2957(5) 0.0195(3) 0.9788(3)
H45 H -0.2895 0.0358 1.0307
H46 H -0.3025 -0.0479 0.9820
H47 H -0.3828 0.0507 0.9537
C39 C 0.0265(3) 0.3150(2) 0.87505(17)
C40 C 0.0744(4) 0.4094(2) 0.8602(2)
C41 C -0.0231(4) 0.4622(3) 0.9017(2)
H48 H -0.0189 0.5268 0.9034
C42 C -0.1292(4) 0.4024(3) 0.9405(2)
C43 C -0.2563(5) 0.4279(3) 0.9925(3)
H49 H -0.3490 0.4140 0.9706
H50 H -0.2558 0.4943 0.9966
H51 H -0.2456 0.3916 1.0438
C44 C 0.2038(5) 0.4490(3) 0.8109(2)
H52 H 0.2059 0.5160 0.8118
H53 H 0.1928 0.4374 0.7578
H54 H 0.2954 0.4188 0.8314
loop_
_geom_bond_atom_site_label_1
_geom_bond_atom_site_label_2
_geom_bond_site_symmetry_1
_geom_bond_site_symmetry_2
Si1 C2 1_555 1_555
F1 B1 1_555 1_555
F2 B1 1_555 1_555
N1 B1 1_555 1_555
N2 B1 1_555 1_555
C1 C2 1_555 1_555
C2 C3 1_555 1_555
C3 H1 1_555 1_555
C4 C3 1_555 1_555
H2 C4 1_555 1_555
C5 C4 1_555 1_555
H3 C5 1_555 1_555
C6 C1 1_555 1_555
H4 C6 1_555 1_555
C7 Si1 1_555 1_555
H5 C7 1_555 1_555
H6 C7 1_555 1_555
H7 C7 1_555 1_555
C8 Si1 1_555 1_555
H8 C8 1_555 1_555
H9 C8 1_555 1_555
H10 C8 1_555 1_555
C9 Si1 1_555 1_555
H11 C9 1_555 1_555
H12 C9 1_555 1_555
H13 C9 1_555 1_555
C10 C1 1_555 1_555
C11 N1 1_555 1_555
C12 C11 1_555 1_555
C13 C12 1_555 1_555
H14 C13 1_555 1_555
C14 N1 1_555 1_555
C15 C14 1_555 1_555
H15 C15 1_555 1_555
H16 C15 1_555 1_555
H17 C15 1_555 1_555
C16 C12 1_555 1_555
H18 C16 1_555 1_555
H19 C16 1_555 1_555
H20 C16 1_555 1_555
C17 N2 1_555 1_555
C18 C17 1_555 1_555
C19 C18 1_555 1_555
H21 C19 1_555 1_555
C20 N2 1_555 1_555
C21 C20 1_555 1_555
H22 C21 1_555 1_555
H23 C21 1_555 1_555
H24 C21 1_555 1_555
C22 C18 1_555 1_555
H25 C22 1_555 1_555
H26 C22 1_555 1_555
H27 C22 1_555 1_555
Si2 C28 1_555 1_555
F3 B2 1_555 1_555
F4 B2 1_555 1_555
N3 B2 1_555 1_555
N4 B2 1_555 1_555
C23 C24 1_555 1_555
C24 H28 1_555 1_555
C25 C24 1_555 1_555
H29 C25 1_555 1_555
C26 C25 1_555 1_555
H30 C26 1_555 1_555
C27 C26 1_555 1_555
H31 C27 1_555 1_555
C28 C23 1_555 1_555
C29 Si2 1_555 1_555
H32 C29 1_555 1_555
H33 C29 1_555 1_555
H34 C29 1_555 1_555
C30 Si2 1_555 1_555
H35 C30 1_555 1_555
H36 C30 1_555 1_555
H37 C30 1_555 1_555
C31 Si2 1_555 1_555
H38 C31 1_555 1_555
H39 C31 1_555 1_555
H40 C31 1_555 1_555
C32 C23 1_555 1_555
C33 N3 1_555 1_555
C34 C33 1_555 1_555
C35 C34 1_555 1_555
H41 C35 1_555 1_555
C36 N3 1_555 1_555
C37 C34 1_555 1_555
H42 C37 1_555 1_555
H43 C37 1_555 1_555
H44 C37 1_555 1_555
C38 C36 1_555 1_555
H45 C38 1_555 1_555
H46 C38 1_555 1_555
H47 C38 1_555 1_555
C39 N4 1_555 1_555
C40 C39 1_555 1_555
C41 C40 1_555 1_555
H48 C41 1_555 1_555
C42 N4 1_555 1_555
C43 C42 1_555 1_555
H49 C43 1_555 1_555
H50 C43 1_555 1_555
H51 C43 1_555 1_555
C44 C40 1_555 1_555
H52 C44 1_555 1_555
H53 C44 1_555 1_555
H54 C44 1_555 1_555
C5 C6 1_555 1_555
C10 C11 1_555 1_555
C10 C17 1_555 1_555
C13 C14 1_555 1_555
C19 C20 1_555 1_555
C27 C28 1_555 1_555
C32 C33 1_555 1_555
C32 C39 1_555 1_555
C35 C36 1_555 1_555
C41 C42 1_555 1_555

#END
