
#######################################################################
#
#                 Cambridge Crystallographic Data Centre
#                                CCDC 
#
#######################################################################
#
# If this CIF has been generated from an entry in the Cambridge 
# Structural Database, then it will include bibliographic, chemical, 
# crystal, experimental, refinement or atomic coordinate data resulting 
# from the CCDC's data processing and validation procedures.
#
#######################################################################

data_BIBQIO
_chemical_formula_moiety         'C22 H27 B1 F2 N2 Si1'
_chemical_name_systematic        
5,5-Difluoro-1,3,7,9-tetramethyl-10-(3-(trimethylsilyl)phenyl)-5H-dipyrrolo[1,2-c:2',1'-f][1,3,2]diazaborinine
_symmetry_cell_setting           orthorhombic
_symmetry_space_group_name_H-M   'P n a 21'
_symmetry_Int_Tables_number      33
_space_group_name_Hall           'P 2c -2n'
loop_
_symmetry_equiv_pos_site_id
_symmetry_equiv_pos_as_xyz
1 x,y,z
2 -x,-y,1/2+z
3 1/2+x,1/2-y,z
4 1/2-x,1/2+y,1/2+z
_cell_length_a                   30.7303(15)
_cell_length_b                   6.5809(3)
_cell_length_c                   20.9330(10)
_cell_angle_alpha                90
_cell_angle_beta                 90
_cell_angle_gamma                90
_cell_volume                     4233.34
_exptl_crystal_colour            orange
_exptl_crystal_description       'plate like'
_cell_formula_units_Z            8
loop_
_atom_site_label
_atom_site_type_symbol
_atom_site_fract_x
_atom_site_fract_y
_atom_site_fract_z
Si1 Si 0.37769(2) 1.02038(11) 0.18419(4)
F1 F 0.16300(6) 0.9641(3) 0.48304(9)
F2 F 0.22519(6) 1.1408(2) 0.49994(9)
N1 N 0.22953(7) 0.8355(3) 0.43775(12)
N2 N 0.19420(7) 1.1432(3) 0.39364(11)
B1 B 0.20250(10) 1.0238(5) 0.45614(15)
C1 C 0.23650(8) 0.9201(4) 0.32570(13)
C2 C 0.24571(8) 0.7917(4) 0.37676(13)
C3 C 0.27136(9) 0.6109(4) 0.38120(14)
C4 C 0.26906(9) 0.5503(4) 0.44385(16)
H1 H 0.2820 0.4345 0.4608
C5 C 0.24434(9) 0.6894(4) 0.47781(15)
C6 C 0.21006(8) 1.0919(4) 0.33325(13)
C7 C 0.19415(9) 1.2365(4) 0.28851(16)
C8 C 0.16951(9) 1.3720(4) 0.32346(15)
H2 H 0.1549 1.4840 0.3070
C9 C 0.17020(9) 1.3135(4) 0.38734(15)
C10 C 0.29624(10) 0.5032(4) 0.32960(15)
H3 H 0.3102 0.3853 0.3472
H4 H 0.3179 0.5930 0.3123
H5 H 0.2766 0.4626 0.2963
C11 C 0.23413(11) 0.6904(5) 0.54788(16)
H6 H 0.2537 0.7806 0.5696
H7 H 0.2374 0.5555 0.5647
H8 H 0.2047 0.7356 0.5542
C12 C 0.20076(10) 1.2422(4) 0.21788(16)
H9 H 0.1834 1.3489 0.1998
H10 H 0.1923 1.1143 0.1997
H11 H 0.2309 1.2672 0.2087
C13 C 0.14868(10) 1.4162(4) 0.44255(16)
H12 H 0.1255 1.3322 0.4583
H13 H 0.1371 1.5446 0.4290
H14 H 0.1696 1.4378 0.4759
C14 C 0.25732(8) 0.8790(3) 0.26276(12)
C15 C 0.23763(9) 0.7544(4) 0.21754(14)
H15 H 0.2101 0.7007 0.2249
C16 C 0.25967(10) 0.7115(4) 0.16134(15)
H16 H 0.2465 0.6303 0.1305
C17 C 0.30131(9) 0.7884(4) 0.15033(14)
H17 H 0.3159 0.7540 0.1130
C18 C 0.32139(8) 0.9168(4) 0.19487(13)
C19 C 0.29830(8) 0.9592(4) 0.25133(13)
H18 H 0.3109 1.0435 0.2818
C20 C 0.37499(11) 1.2982(5) 0.1706(2)
H19 H 0.3606 1.3620 0.2061
H20 H 0.3590 1.3251 0.1321
H21 H 0.4039 1.3516 0.1666
C21 C 0.40449(12) 0.8952(6) 0.11526(19)
H22 H 0.4335 0.9472 0.1106
H23 H 0.3882 0.9223 0.0771
H24 H 0.4057 0.7512 0.1224
C22 C 0.40850(10) 0.9643(5) 0.25779(17)
H25 H 0.4386 0.9984 0.2515
H26 H 0.4060 0.8222 0.2676
H27 H 0.3969 1.0429 0.2925
Si2 Si 0.87510(2) 0.53055(12) 0.50892(4)
F3 F 1.02679(6) 0.6560(2) 0.19285(8)
F4 F 1.08942(6) 0.4776(3) 0.20774(10)
N3 N 1.02323(7) 0.3496(3) 0.25546(11)
N4 N 1.05998(7) 0.6583(3) 0.29753(11)
B2 B 1.05048(10) 0.5373(4) 0.23587(16)
C23 C 1.01684(8) 0.4424(4) 0.36678(13)
C24 C 1.00700(8) 0.3126(4) 0.31671(13)
C25 C 0.98228(8) 0.1304(4) 0.31373(13)
C26 C 0.98371(9) 0.0644(4) 0.25081(15)
H28 H 0.9703 -0.0514 0.2346
C27 C 1.00885(10) 0.2030(4) 0.21603(15)
C28 C 1.04372(8) 0.6105(4) 0.35796(13)
C29 C 1.05994(9) 0.7590(4) 0.40147(15)
C30 C 1.08488(9) 0.8918(4) 0.36576(14)
H29 H 1.0999 1.0038 0.3815
C31 C 1.08370(8) 0.8289(4) 0.30155(14)
C32 C 0.95761(10) 0.0244(4) 0.36556(16)
H30 H 0.9450 -0.0981 0.3489
H31 H 0.9350 0.1119 0.3811
H32 H 0.9771 -0.0086 0.3999
C33 C 1.01873(11) 0.1987(5) 0.14607(17)
H33 H 1.0217 0.3353 0.1305
H34 H 0.9954 0.1321 0.1238
H35 H 1.0454 0.1260 0.1390
C34 C 1.05338(10) 0.7717(4) 0.47247(15)
H36 H 1.0708 0.8799 0.4895
H37 H 1.0619 0.6455 0.4918
H38 H 1.0233 0.7977 0.4815
C35 C 1.10566(10) 0.9228(4) 0.24572(16)
H39 H 1.1344 0.8672 0.2414
H40 H 1.1076 1.0670 0.2519
H41 H 1.0892 0.8948 0.2077
C36 C 0.99642(8) 0.4056(4) 0.42955(13)
C37 C 1.01678(9) 0.2935(4) 0.47736(16)
H42 H 1.0447 0.2434 0.4709
C38 C 0.99557(10) 0.2565(4) 0.53420(16)
H43 H 1.0096 0.1833 0.5662
C39 C 0.95437(9) 0.3260(4) 0.54407(14)
H44 H 0.9406 0.2974 0.5826
C40 C 0.93235(8) 0.4383(4) 0.49829(13)
C41 C 0.95448(8) 0.4762(4) 0.44090(13)
H45 H 0.9406 0.5513 0.4093
C42 C 0.84547(10) 0.4819(5) 0.43322(16)
H46 H 0.8148 0.4972 0.4402
H47 H 0.8514 0.3461 0.4189
H48 H 0.8549 0.5771 0.4013
C43 C 0.87516(12) 0.8074(5) 0.5277(2)
H49 H 0.8939 0.8771 0.4983
H50 H 0.8855 0.8277 0.5705
H51 H 0.8461 0.8598 0.5239
C44 C 0.84859(12) 0.3827(6) 0.57472(18)
H52 H 0.8609 0.4222 0.6150
H53 H 0.8533 0.2402 0.5680
H54 H 0.8179 0.4100 0.5749
loop_
_geom_bond_atom_site_label_1
_geom_bond_atom_site_label_2
_geom_bond_site_symmetry_1
_geom_bond_site_symmetry_2
Si1 C18 1_555 1_555
F1 B1 1_555 1_555
F2 B1 1_555 1_555
N1 B1 1_555 1_555
N2 B1 1_555 1_555
C1 C2 1_555 1_555
C2 N1 1_555 1_555
C3 C2 1_555 1_555
C4 C3 1_555 1_555
H1 C4 1_555 1_555
C5 N1 1_555 1_555
C6 N2 1_555 1_555
C7 C6 1_555 1_555
C8 C7 1_555 1_555
H2 C8 1_555 1_555
C9 N2 1_555 1_555
C10 C3 1_555 1_555
H3 C10 1_555 1_555
H4 C10 1_555 1_555
H5 C10 1_555 1_555
C11 C5 1_555 1_555
H6 C11 1_555 1_555
H7 C11 1_555 1_555
H8 C11 1_555 1_555
C12 C7 1_555 1_555
H9 C12 1_555 1_555
H10 C12 1_555 1_555
H11 C12 1_555 1_555
C13 C9 1_555 1_555
H12 C13 1_555 1_555
H13 C13 1_555 1_555
H14 C13 1_555 1_555
C14 C1 1_555 1_555
C15 C14 1_555 1_555
H15 C15 1_555 1_555
C16 C15 1_555 1_555
H16 C16 1_555 1_555
C17 C16 1_555 1_555
H17 C17 1_555 1_555
C18 C17 1_555 1_555
C19 C14 1_555 1_555
H18 C19 1_555 1_555
C20 Si1 1_555 1_555
H19 C20 1_555 1_555
H20 C20 1_555 1_555
H21 C20 1_555 1_555
C21 Si1 1_555 1_555
H22 C21 1_555 1_555
H23 C21 1_555 1_555
H24 C21 1_555 1_555
C22 Si1 1_555 1_555
H25 C22 1_555 1_555
H26 C22 1_555 1_555
H27 C22 1_555 1_555
Si2 C40 1_555 1_555
F3 B2 1_555 1_555
F4 B2 1_555 1_555
N3 B2 1_555 1_555
N4 B2 1_555 1_555
C23 C24 1_555 1_555
C24 N3 1_555 1_555
C25 C24 1_555 1_555
C26 C25 1_555 1_555
H28 C26 1_555 1_555
C27 N3 1_555 1_555
C28 N4 1_555 1_555
C29 C28 1_555 1_555
C30 C29 1_555 1_555
H29 C30 1_555 1_555
C31 N4 1_555 1_555
C32 C25 1_555 1_555
H30 C32 1_555 1_555
H31 C32 1_555 1_555
H32 C32 1_555 1_555
C33 C27 1_555 1_555
H33 C33 1_555 1_555
H34 C33 1_555 1_555
H35 C33 1_555 1_555
C34 C29 1_555 1_555
H36 C34 1_555 1_555
H37 C34 1_555 1_555
H38 C34 1_555 1_555
C35 C31 1_555 1_555
H39 C35 1_555 1_555
H40 C35 1_555 1_555
H41 C35 1_555 1_555
C36 C23 1_555 1_555
C37 C36 1_555 1_555
H42 C37 1_555 1_555
C38 C37 1_555 1_555
H43 C38 1_555 1_555
C39 C38 1_555 1_555
H44 C39 1_555 1_555
C40 C39 1_555 1_555
C41 C36 1_555 1_555
H45 C41 1_555 1_555
C42 Si2 1_555 1_555
H46 C42 1_555 1_555
H47 C42 1_555 1_555
H48 C42 1_555 1_555
C43 Si2 1_555 1_555
H49 C43 1_555 1_555
H50 C43 1_555 1_555
H51 C43 1_555 1_555
C44 Si2 1_555 1_555
H52 C44 1_555 1_555
H53 C44 1_555 1_555
H54 C44 1_555 1_555
C1 C6 1_555 1_555
C4 C5 1_555 1_555
C8 C9 1_555 1_555
C18 C19 1_555 1_555
C23 C28 1_555 1_555
C26 C27 1_555 1_555
C30 C31 1_555 1_555
C40 C41 1_555 1_555

#END
