
#######################################################################
#
#                 Cambridge Crystallographic Data Centre
#                                CCDC 
#
#######################################################################
#
# If this CIF has been generated from an entry in the Cambridge 
# Structural Database, then it will include bibliographic, chemical, 
# crystal, experimental, refinement or atomic coordinate data resulting 
# from the CCDC's data processing and validation procedures.
#
#######################################################################

data_BIBQOU
_chemical_formula_moiety         'C22 H27 B1 F2 N2 Si1'
_chemical_name_systematic        
5,5-Difluoro-1,3,7,9-tetramethyl-10-(4-(trimethylsilyl)phenyl)-5H-dipyrrolo[1,2-c:2',1'-f][1,3,2]diazaborinine
_symmetry_cell_setting           triclinic
_symmetry_space_group_name_H-M   'P -1'
_symmetry_Int_Tables_number      2
_space_group_name_Hall           '-P 1'
loop_
_symmetry_equiv_pos_site_id
_symmetry_equiv_pos_as_xyz
1 x,y,z
2 -x,-y,-z
_cell_length_a                   9.0644(18)
_cell_length_b                   13.838(3)
_cell_length_c                   17.166(3)
_cell_angle_alpha                84.182(9)
_cell_angle_beta                 89.033(10)
_cell_angle_gamma                78.190(9)
_cell_volume                     2096.73
_exptl_crystal_colour            orange
_exptl_crystal_description       prism
_cell_formula_units_Z            4
loop_
_atom_site_label
_atom_site_type_symbol
_atom_site_fract_x
_atom_site_fract_y
_atom_site_fract_z
Si1 Si 0.14945(13) 0.83806(9) 0.25642(7)
F1 F -0.5897(3) 0.68391(19) -0.11708(15)
F2 F -0.7644(3) 0.7767(2) -0.04438(16)
N1 N -0.5466(4) 0.6747(2) 0.02283(19)
N2 N -0.5236(4) 0.8242(2) -0.0654(2)
B1 B -0.6112(5) 0.7389(3) -0.0525(3)
C1 C -0.3520(5) 0.7670(3) 0.0445(2)
C2 C -0.4218(5) 0.6863(3) 0.0645(2)
C3 C -0.3907(5) 0.6060(3) 0.1254(2)
C4 C -0.4976(5) 0.5498(3) 0.1185(3)
H1 H -0.5054 0.4926 0.1505
C5 C -0.5928(5) 0.5928(3) 0.0554(2)
C6 C -0.4033(5) 0.8356(3) -0.0203(2)
C7 C -0.3566(5) 0.9245(3) -0.0520(2)
C8 C -0.4512(5) 0.9629(3) -0.1157(2)
H2 H -0.4472 1.0202 -0.1483
C9 C -0.5533(5) 0.9007(3) -0.1223(2)
C10 C -0.2669(6) 0.5817(3) 0.1851(3)
H3 H -0.2907 0.6245 0.2261
H4 H -0.1741 0.5911 0.1608
H5 H -0.2565 0.5139 0.2067
C11 C -0.7260(5) 0.5581(3) 0.0269(3)
H6 H -0.8136 0.5847 0.0560
H7 H -0.7076 0.4869 0.0340
H8 H -0.7422 0.5803 -0.0277
C12 C -0.2355(5) 0.9718(3) -0.0249(3)
H9 H -0.1395 0.9377 -0.0424
H10 H -0.2360 0.9680 0.0312
H11 H -0.2531 1.0401 -0.0461
C13 C -0.6778(5) 0.9131(3) -0.1803(2)
H12 H -0.6571 0.8601 -0.2134
H13 H -0.6856 0.9755 -0.2116
H14 H -0.7710 0.9117 -0.1532
C14 C -0.2282(5) 0.7812(3) 0.0943(2)
C15 C -0.2621(5) 0.8093(3) 0.1699(2)
H15 H -0.3609 0.8184 0.1879
C16 C -0.1486(5) 0.8234(3) 0.2177(2)
H16 H -0.1722 0.8410 0.2680
C17 C 0.0022(5) 0.8117(3) 0.1922(2)
C18 C 0.0322(5) 0.7825(3) 0.1166(2)
H17 H 0.1310 0.7725 0.0985
C19 C -0.0800(5) 0.7680(3) 0.0678(2)
H18 H -0.0565 0.7497 0.0178
C20 C 0.1233(5) 0.9755(3) 0.2569(3)
H19 H 0.1427 1.0046 0.2056
H20 H 0.1920 0.9903 0.2938
H21 H 0.0216 1.0024 0.2717
C21 C 0.3391(5) 0.7844(4) 0.2188(3)
H22 H 0.3469 0.7147 0.2150
H23 H 0.4151 0.7936 0.2540
H24 H 0.3532 0.8170 0.1680
C22 C 0.1289(6) 0.7790(4) 0.3579(3)
H25 H 0.0291 0.8031 0.3766
H26 H 0.2013 0.7953 0.3918
H27 H 0.1457 0.7083 0.3573
Si2 Si 0.12817(14) 1.34769(9) 0.23051(7)
F3 F -0.6177(3) 1.2432(2) 0.64473(14)
F4 F -0.7544(3) 1.18827(19) 0.55546(18)
N3 N -0.4827(4) 1.1523(3) 0.5447(2)
N4 N -0.6313(4) 1.3223(3) 0.5126(2)
B2 B -0.6262(6) 1.2265(4) 0.5673(3)
C23 C -0.3979(4) 1.2662(3) 0.4450(2)
C24 C -0.3806(5) 1.1721(3) 0.4860(2)
C25 C -0.2695(5) 1.0825(3) 0.4815(2)
C26 C -0.3062(5) 1.0135(3) 0.5384(3)
H28 H -0.2532 0.9487 0.5496
C27 C -0.4370(5) 1.0577(3) 0.5767(2)
C28 C -0.5228(5) 1.3417(3) 0.4577(2)
C29 C -0.5664(5) 1.4427(3) 0.4248(2)
C30 C -0.6989(5) 1.4803(3) 0.4611(2)
H29 H -0.7550 1.5445 0.4510
C31 C -0.7365(5) 1.4071(3) 0.5153(2)
C32 C -0.1406(5) 1.0625(3) 0.4260(3)
H30 H -0.0577 1.0878 0.4441
H31 H -0.1713 1.0945 0.3749
H32 H -0.1100 0.9923 0.4233
C33 C -0.5171(5) 1.0129(3) 0.6431(3)
H33 H -0.4947 1.0378 0.6908
H34 H -0.4845 0.9420 0.6476
H35 H -0.6238 1.0301 0.6335
C34 C -0.4883(5) 1.5000(3) 0.3638(2)
H36 H -0.5039 1.4801 0.3131
H37 H -0.3823 1.4868 0.3751
H38 H -0.5289 1.5697 0.3642
C35 C -0.8665(5) 1.4139(3) 0.5696(3)
H39 H -0.9316 1.3721 0.5551
H40 H -0.9213 1.4814 0.5668
H41 H -0.8305 1.3928 0.6221
C36 C -0.2747(5) 1.2868(3) 0.3915(2)
C37 C -0.1407(5) 1.2983(3) 0.4238(2)
H42 H -0.1303 1.2950 0.4779
C38 C -0.0216(5) 1.3149(3) 0.3750(2)
H43 H 0.0679 1.3218 0.3973
C39 C -0.0336(5) 1.3214(3) 0.2931(2)
C40 C -0.1706(5) 1.3104(3) 0.2627(2)
H44 H -0.1825 1.3145 0.2087
C41 C -0.2889(5) 1.2937(3) 0.3105(2)
H45 H -0.3787 1.2871 0.2884
C42 C 0.0834(6) 1.3409(5) 0.1261(3)
H46 H 0.0085 1.3980 0.1077
H47 H 0.0454 1.2818 0.1214
H48 H 0.1730 1.3393 0.0952
C43 C 0.1590(5) 1.4729(3) 0.2470(3)
H49 H 0.2382 1.4889 0.2134
H50 H 0.1869 1.4732 0.3007
H51 H 0.0679 1.5212 0.2354
C44 C 0.2996(6) 1.2522(4) 0.2602(3)
H52 H 0.2824 1.1876 0.2525
H53 H 0.3212 1.2545 0.3144
H54 H 0.3835 1.2651 0.2289
loop_
_geom_bond_atom_site_label_1
_geom_bond_atom_site_label_2
_geom_bond_site_symmetry_1
_geom_bond_site_symmetry_2
Si1 C17 1_555 1_555
F1 B1 1_555 1_555
F2 B1 1_555 1_555
N1 B1 1_555 1_555
N2 B1 1_555 1_555
C1 C2 1_555 1_555
C2 N1 1_555 1_555
C3 C2 1_555 1_555
C4 C3 1_555 1_555
H1 C4 1_555 1_555
C5 N1 1_555 1_555
C6 N2 1_555 1_555
C7 C6 1_555 1_555
C8 C7 1_555 1_555
H2 C8 1_555 1_555
C9 N2 1_555 1_555
C10 C3 1_555 1_555
H3 C10 1_555 1_555
H4 C10 1_555 1_555
H5 C10 1_555 1_555
C11 C5 1_555 1_555
H6 C11 1_555 1_555
H7 C11 1_555 1_555
H8 C11 1_555 1_555
C12 C7 1_555 1_555
H9 C12 1_555 1_555
H10 C12 1_555 1_555
H11 C12 1_555 1_555
C13 C9 1_555 1_555
H12 C13 1_555 1_555
H13 C13 1_555 1_555
H14 C13 1_555 1_555
C14 C1 1_555 1_555
C15 C14 1_555 1_555
H15 C15 1_555 1_555
C16 C15 1_555 1_555
H16 C16 1_555 1_555
C17 C16 1_555 1_555
C18 C17 1_555 1_555
H17 C18 1_555 1_555
C19 C14 1_555 1_555
H18 C19 1_555 1_555
C20 Si1 1_555 1_555
H19 C20 1_555 1_555
H20 C20 1_555 1_555
H21 C20 1_555 1_555
C21 Si1 1_555 1_555
H22 C21 1_555 1_555
H23 C21 1_555 1_555
H24 C21 1_555 1_555
C22 Si1 1_555 1_555
H25 C22 1_555 1_555
H26 C22 1_555 1_555
H27 C22 1_555 1_555
Si2 C39 1_555 1_555
F3 B2 1_555 1_555
F4 B2 1_555 1_555
N3 B2 1_555 1_555
N4 B2 1_555 1_555
C23 C24 1_555 1_555
C24 N3 1_555 1_555
C25 C24 1_555 1_555
C26 C25 1_555 1_555
H28 C26 1_555 1_555
C27 N3 1_555 1_555
C28 N4 1_555 1_555
C29 C28 1_555 1_555
C30 C29 1_555 1_555
H29 C30 1_555 1_555
C31 N4 1_555 1_555
C32 C25 1_555 1_555
H30 C32 1_555 1_555
H31 C32 1_555 1_555
H32 C32 1_555 1_555
C33 C27 1_555 1_555
H33 C33 1_555 1_555
H34 C33 1_555 1_555
H35 C33 1_555 1_555
C34 C29 1_555 1_555
H36 C34 1_555 1_555
H37 C34 1_555 1_555
H38 C34 1_555 1_555
C35 C31 1_555 1_555
H39 C35 1_555 1_555
H40 C35 1_555 1_555
H41 C35 1_555 1_555
C36 C23 1_555 1_555
C37 C36 1_555 1_555
H42 C37 1_555 1_555
C38 C37 1_555 1_555
H43 C38 1_555 1_555
C39 C38 1_555 1_555
C40 C39 1_555 1_555
H44 C40 1_555 1_555
C41 C36 1_555 1_555
H45 C41 1_555 1_555
C42 Si2 1_555 1_555
H46 C42 1_555 1_555
H47 C42 1_555 1_555
H48 C42 1_555 1_555
C43 Si2 1_555 1_555
H49 C43 1_555 1_555
H50 C43 1_555 1_555
H51 C43 1_555 1_555
C44 Si2 1_555 1_555
H52 C44 1_555 1_555
H53 C44 1_555 1_555
H54 C44 1_555 1_555
C1 C6 1_555 1_555
C4 C5 1_555 1_555
C8 C9 1_555 1_555
C18 C19 1_555 1_555
C23 C28 1_555 1_555
C26 C27 1_555 1_555
C30 C31 1_555 1_555
C40 C41 1_555 1_555

#END
