
#######################################################################
#
#                 Cambridge Crystallographic Data Centre
#                                CCDC 
#
#######################################################################
#
# If this CIF has been generated from an entry in the Cambridge 
# Structural Database, then it will include bibliographic, chemical, 
# crystal, experimental, refinement or atomic coordinate data resulting 
# from the CCDC's data processing and validation procedures.
#
#######################################################################

data_BIBSUD
_chemical_formula_moiety         'C28 H34 B1 N1,C6 H14'
_chemical_name_systematic        
'2-isopropyl-1,1-bis(2,4,6-trimethylphenyl)-1H-2\l^5^,1\l^5^-benzazaborole n-hexane solvate'
_symmetry_cell_setting           monoclinic
_symmetry_space_group_name_H-M   'P 21/c'
_symmetry_Int_Tables_number      14
_space_group_name_Hall           '-P 2ybc'
loop_
_symmetry_equiv_pos_site_id
_symmetry_equiv_pos_as_xyz
1 x,y,z
2 -x,1/2+y,1/2-z
3 -x,-y,-z
4 x,1/2-y,1/2+z
_cell_length_a                   8.4716(3)
_cell_length_b                   27.7566(10)
_cell_length_c                   11.7695(4)
_cell_angle_alpha                90
_cell_angle_beta                 100.2570(10)
_cell_angle_gamma                90
_cell_volume                     2723.29
_exptl_crystal_colour            colorless
_exptl_crystal_description       Block
_cell_formula_units_Z            4
loop_
_atom_site_label
_atom_site_type_symbol
_atom_site_fract_x
_atom_site_fract_y
_atom_site_fract_z
B1 B 0.3657(3) 0.65872(8) 0.5777(2)
N1 N 0.43960(19) 0.68068(6) 0.70665(14)
C1 C 0.2510(2) 0.70484(7) 0.53625(18)
C2 C 0.1555(2) 0.71790(8) 0.4319(2)
H1 H 0.1384 0.6956 0.3697
C3 C 0.0850(3) 0.76308(8) 0.4178(2)
H2 H 0.0191 0.7710 0.3462
C4 C 0.1083(3) 0.79691(8) 0.5054(3)
H3 H 0.0565 0.8273 0.4944
C5 C 0.2061(3) 0.78642(8) 0.6080(2)
H4 H 0.2263 0.8097 0.6679
C6 C 0.2759(3) 0.74055(7) 0.62264(19)
C7 C 0.3811(3) 0.72263(7) 0.72197(19)
H5 H 0.4056 0.7399 0.7926
C8 C 0.5328(3) 0.65376(8) 0.80577(18)
H6 H 0.5839 0.6256 0.7737
C9 C 0.6652(4) 0.68341(12) 0.8754(2)
H7 H 0.7234 0.7006 0.8230
H8 H 0.7393 0.6621 0.9256
H9 H 0.6187 0.7067 0.9227
C10 C 0.4229(3) 0.63434(11) 0.8829(2)
H10 H 0.3379 0.6151 0.8368
H11 H 0.3749 0.6612 0.9187
H12 H 0.4846 0.6141 0.9432
C11 C 0.3016(2) 0.60528(7) 0.60660(17)
C12 C 0.1445(2) 0.59722(7) 0.62709(18)
C13 C 0.0910(3) 0.55141(8) 0.6465(2)
H13 H -0.0164 0.5473 0.6579
C14 C 0.1892(3) 0.51114(8) 0.6499(2)
C15 C 0.3458(3) 0.51902(7) 0.63701(18)
H14 H 0.4173 0.4924 0.6434
C16 C 0.4035(2) 0.56453(7) 0.61493(17)
C17 C 0.0269(3) 0.63809(8) 0.6312(2)
H15 H -0.0051 0.6517 0.5537
H16 H 0.0779 0.6632 0.6840
H17 H -0.0681 0.6258 0.6587
C18 C 0.1277(4) 0.46127(8) 0.6677(3)
H18 H 0.0103 0.4611 0.6483
H19 H 0.1614 0.4518 0.7487
H20 H 0.1715 0.4384 0.6179
C19 C 0.5777(3) 0.56587(8) 0.6003(2)
H21 H 0.5842 0.5612 0.5187
H22 H 0.6372 0.5402 0.6464
H23 H 0.6244 0.5972 0.6261
C20 C 0.4819(2) 0.65856(6) 0.47820(16)
C21 C 0.4271(2) 0.63308(7) 0.37413(17)
C22 C 0.5165(3) 0.63319(8) 0.28533(18)
H24 H 0.4769 0.6156 0.2169
C23 C 0.6598(3) 0.65767(7) 0.29229(18)
C24 C 0.7095(2) 0.68414(7) 0.39103(18)
H25 H 0.8055 0.7024 0.3973
C25 C 0.6247(2) 0.68535(7) 0.48224(17)
C26 C 0.2740(3) 0.60374(8) 0.3519(2)
H26 H 0.2327 0.6026 0.2687
H27 H 0.1940 0.6187 0.3913
H28 H 0.2963 0.5709 0.3812
C27 C 0.7581(3) 0.65570(9) 0.1975(2)
H29 H 0.7066 0.6340 0.1363
H30 H 0.8659 0.6438 0.2290
H31 H 0.7659 0.6881 0.1657
C28 C 0.6954(3) 0.71627(8) 0.58380(19)
H32 H 0.7934 0.7317 0.5684
H33 H 0.7211 0.6962 0.6531
H34 H 0.6176 0.7410 0.5960
loop_
_geom_bond_atom_site_label_1
_geom_bond_atom_site_label_2
_geom_bond_site_symmetry_1
_geom_bond_site_symmetry_2
B1 N1 1_555 1_555
N1 C7 1_555 1_555
C1 B1 1_555 1_555
C2 C1 1_555 1_555
H1 C2 1_555 1_555
C3 C2 1_555 1_555
H2 C3 1_555 1_555
C4 C3 1_555 1_555
H3 C4 1_555 1_555
C5 C4 1_555 1_555
H4 C5 1_555 1_555
C6 C1 1_555 1_555
C7 C6 1_555 1_555
H5 C7 1_555 1_555
C8 N1 1_555 1_555
H6 C8 1_555 1_555
C9 C8 1_555 1_555
H7 C9 1_555 1_555
H8 C9 1_555 1_555
H9 C9 1_555 1_555
C10 C8 1_555 1_555
H10 C10 1_555 1_555
H11 C10 1_555 1_555
H12 C10 1_555 1_555
C11 B1 1_555 1_555
C12 C11 1_555 1_555
C13 C12 1_555 1_555
H13 C13 1_555 1_555
C14 C13 1_555 1_555
C15 C14 1_555 1_555
H14 C15 1_555 1_555
C16 C11 1_555 1_555
C17 C12 1_555 1_555
H15 C17 1_555 1_555
H16 C17 1_555 1_555
H17 C17 1_555 1_555
C18 C14 1_555 1_555
H18 C18 1_555 1_555
H19 C18 1_555 1_555
H20 C18 1_555 1_555
C19 C16 1_555 1_555
H21 C19 1_555 1_555
H22 C19 1_555 1_555
H23 C19 1_555 1_555
C20 B1 1_555 1_555
C21 C20 1_555 1_555
C22 C21 1_555 1_555
H24 C22 1_555 1_555
C23 C22 1_555 1_555
C24 C23 1_555 1_555
H25 C24 1_555 1_555
C25 C20 1_555 1_555
C26 C21 1_555 1_555
H26 C26 1_555 1_555
H27 C26 1_555 1_555
H28 C26 1_555 1_555
C27 C23 1_555 1_555
H29 C27 1_555 1_555
H30 C27 1_555 1_555
H31 C27 1_555 1_555
C28 C25 1_555 1_555
H32 C28 1_555 1_555
H33 C28 1_555 1_555
H34 C28 1_555 1_555
C5 C6 1_555 1_555
C15 C16 1_555 1_555
C24 C25 1_555 1_555

#END
