
#######################################################################
#
#                 Cambridge Crystallographic Data Centre
#                                CCDC 
#
#######################################################################
#
# If this CIF has been generated from an entry in the Cambridge 
# Structural Database, then it will include bibliographic, chemical, 
# crystal, experimental, refinement or atomic coordinate data resulting 
# from the CCDC's data processing and validation procedures.
#
#######################################################################

data_BIBSAJ
_chemical_formula_moiety         'C20 H23 N1 O4'
_chemical_name_systematic        
'ethyl 6-ethyl-1-(4-methylphenyl)-4-oxo-5-propanoyl-1,4-dihydropyridine-3-carboxylate'
_symmetry_cell_setting           monoclinic
_symmetry_space_group_name_H-M   'P 21/n'
_symmetry_Int_Tables_number      14
_space_group_name_Hall           '-P 2yn'
loop_
_symmetry_equiv_pos_site_id
_symmetry_equiv_pos_as_xyz
1 x,y,z
2 1/2-x,1/2+y,1/2-z
3 -x,-y,-z
4 1/2+x,1/2-y,1/2+z
_cell_length_a                   10.4449(13)
_cell_length_b                   8.4856(11)
_cell_length_c                   21.461(3)
_cell_angle_alpha                90
_cell_angle_beta                 99.489(5)
_cell_angle_gamma                90
_cell_volume                     1876.09
_exptl_crystal_colour            yellow
_exptl_crystal_description       block
_cell_formula_units_Z            4
loop_
_atom_site_label
_atom_site_type_symbol
_atom_site_fract_x
_atom_site_fract_y
_atom_site_fract_z
C1 C 0.30457(19) 0.2722(2) 0.32512(10)
C2 C 0.3744(2) 0.2684(3) 0.27686(10)
C3 C 0.3146(2) 0.2791(2) 0.21071(10)
C4 C 0.1762(2) 0.3078(3) 0.20069(9)
C5 C 0.1113(2) 0.3069(3) 0.25035(9)
H1 H 0.0217 0.3203 0.2425
C6 C 0.0879(2) 0.2786(3) 0.35920(9)
C7 C 0.0364(2) 0.4145(3) 0.37941(12)
H2 H 0.0577 0.5123 0.3644
C8 C -0.0486(3) 0.4028(3) 0.42285(13)
H3 H -0.0831 0.4946 0.4370
C9 C -0.0830(3) 0.2611(3) 0.44549(12)
C10 C -0.0276(2) 0.1272(3) 0.42471(11)
H4 H -0.0484 0.0294 0.4399
C11 C 0.0580(2) 0.1346(3) 0.38186(10)
H5 H 0.0947 0.0431 0.3687
C12 C -0.1778(4) 0.2503(5) 0.49151(18)
H6 H -0.1321 0.2637 0.5338
H7 H -0.2193 0.1490 0.4877
H8 H -0.2422 0.3315 0.4823
C13 C 0.5194(2) 0.2491(3) 0.28836(12)
C14 C 0.5996(2) 0.3832(4) 0.27061(15)
H9 H 0.5538 0.4323 0.2325
H10 H 0.6086 0.4614 0.3040
C15 C 0.7306(3) 0.3368(6) 0.2596(3)
H11 H 0.7744 0.2804 0.2957
H12 H 0.7795 0.4294 0.2530
H13 H 0.7231 0.2704 0.2230
C16 C 0.1043(2) 0.3429(3) 0.13648(10)
C17 C -0.1021(3) 0.3428(5) 0.07193(14)
H14 H -0.1155 0.4560 0.0712
H15 H -0.0609 0.3145 0.0362
C18 C -0.2254(3) 0.2623(6) 0.0678(2)
H16 H -0.2119 0.1506 0.0664
H17 H -0.2821 0.2951 0.0302
H18 H -0.2641 0.2879 0.1041
C19 C 0.3653(2) 0.2753(3) 0.39366(11)
H19 H 0.4468 0.2180 0.3993
H20 H 0.3082 0.2235 0.4186
C20 C 0.3898(4) 0.4436(4) 0.41654(13)
H21 H 0.4485 0.4937 0.3927
H22 H 0.4271 0.4431 0.4605
H23 H 0.3092 0.5003 0.4108
N1 N 0.17112(16) 0.2872(2) 0.31125(7)
O1 O 0.37984(17) 0.2620(2) 0.16766(8)
O2 O 0.15002(19) 0.4056(3) 0.09515(8)
O3 O -0.01980(16) 0.2971(2) 0.13043(7)
O4 O 0.56811(19) 0.1300(3) 0.31207(13)
loop_
_geom_bond_atom_site_label_1
_geom_bond_atom_site_label_2
_geom_bond_site_symmetry_1
_geom_bond_site_symmetry_2
C1 C2 1_555 1_555
C2 C3 1_555 1_555
C3 C4 1_555 1_555
C4 C5 1_555 1_555
C5 H1 1_555 1_555
C6 C7 1_555 1_555
C7 H2 1_555 1_555
C8 C7 1_555 1_555
H3 C8 1_555 1_555
C9 C8 1_555 1_555
C10 C9 1_555 1_555
H4 C10 1_555 1_555
C11 C6 1_555 1_555
H5 C11 1_555 1_555
C12 C9 1_555 1_555
H6 C12 1_555 1_555
H7 C12 1_555 1_555
H8 C12 1_555 1_555
C13 C2 1_555 1_555
C14 C13 1_555 1_555
H9 C14 1_555 1_555
H10 C14 1_555 1_555
C15 C14 1_555 1_555
H11 C15 1_555 1_555
H12 C15 1_555 1_555
H13 C15 1_555 1_555
C16 C4 1_555 1_555
C17 H14 1_555 1_555
H15 C17 1_555 1_555
C18 C17 1_555 1_555
H16 C18 1_555 1_555
H17 C18 1_555 1_555
H18 C18 1_555 1_555
C19 C1 1_555 1_555
H19 C19 1_555 1_555
H20 C19 1_555 1_555
C20 C19 1_555 1_555
H21 C20 1_555 1_555
H22 C20 1_555 1_555
H23 C20 1_555 1_555
N1 C1 1_555 1_555
O1 C3 1_555 1_555
O2 C16 1_555 1_555
O3 C16 1_555 1_555
O4 C13 1_555 1_555
C5 N1 1_555 1_555
C6 N1 1_555 1_555
C10 C11 1_555 1_555
C17 O3 1_555 1_555

#END
