
#######################################################################
#
#                 Cambridge Crystallographic Data Centre
#                                CCDC 
#
#######################################################################
#
# If this CIF has been generated from an entry in the Cambridge 
# Structural Database, then it will include bibliographic, chemical, 
# crystal, experimental, refinement or atomic coordinate data resulting 
# from the CCDC's data processing and validation procedures.
#
#######################################################################

data_BIBTAK
_chemical_formula_moiety         'C22 H22 B1 N1'
_chemical_name_systematic        
1,1-diphenyl-2-(propan-2-yl)-1H-2\l^5^,1\l^5^-benzazaborole
_symmetry_cell_setting           monoclinic
_symmetry_space_group_name_H-M   'P 21/c'
_symmetry_Int_Tables_number      14
_space_group_name_Hall           '-P 2ybc'
loop_
_symmetry_equiv_pos_site_id
_symmetry_equiv_pos_as_xyz
1 x,y,z
2 -x,1/2+y,1/2-z
3 -x,-y,-z
4 x,1/2-y,1/2+z
_cell_length_a                   14.0764(16)
_cell_length_b                   13.7022(14)
_cell_length_c                   9.8458(11)
_cell_angle_alpha                90
_cell_angle_beta                 110.47
_cell_angle_gamma                90
_cell_volume                     1779.12
_exptl_crystal_colour            colorless
_exptl_crystal_description       Block
_cell_formula_units_Z            4
loop_
_atom_site_label
_atom_site_type_symbol
_atom_site_fract_x
_atom_site_fract_y
_atom_site_fract_z
B1 B 0.2614(3) 0.4233(3) 0.6404(4)
N1 N 0.19094(19) 0.3433(2) 0.6825(3)
C1 C 0.3543(2) 0.3504(3) 0.6551(4)
C2 C 0.4444(3) 0.3597(3) 0.6291(4)
H1 H 0.4619 0.4210 0.5994
C3 C 0.5094(3) 0.2813(3) 0.6459(5)
H2 H 0.5706 0.2893 0.6267
C4 C 0.4866(3) 0.1914(3) 0.6902(5)
H3 H 0.5332 0.1389 0.7042
C5 C 0.3969(3) 0.1774(3) 0.7143(4)
H4 H 0.3797 0.1155 0.7425
C6 C 0.3325(2) 0.2573(3) 0.6957(4)
C7 C 0.2357(2) 0.2598(3) 0.7143(4)
H5 H 0.2075 0.2055 0.7468
C8 C 0.0962(2) 0.3660(3) 0.7100(4)
H6 H 0.0759 0.4342 0.6763
C9 C 0.0091(3) 0.2990(3) 0.6279(4)
H7 H -0.0010 0.3010 0.5243
H8 H -0.0529 0.3206 0.6426
H9 H 0.0251 0.2320 0.6638
C10 C 0.1181(3) 0.3627(3) 0.8728(4)
H10 H 0.0566 0.3796 0.8925
H11 H 0.1719 0.4095 0.9215
H12 H 0.1401 0.2968 0.9091
C11 C 0.2815(2) 0.5088(2) 0.7592(4)
C12 C 0.3516(3) 0.4988(3) 0.8988(4)
H13 H 0.3920 0.4414 0.9222
C13 C 0.3652(3) 0.5695(3) 1.0055(4)
H14 H 0.4137 0.5601 1.0998
C14 C 0.3077(3) 0.6527(3) 0.9730(4)
H15 H 0.3165 0.7015 1.0449
C15 C 0.2248(3) 0.5943(3) 0.7307(4)
H16 H 0.1762 0.6045 0.6366
C16 C 0.2376(3) 0.6656(3) 0.8371(4)
H17 H 0.1975 0.7232 0.8151
C17 C 0.2101(3) 0.4617(2) 0.4751(4)
C18 C 0.2675(3) 0.5259(3) 0.4240(4)
H18 H 0.3312 0.5477 0.4891
C19 C 0.2346(3) 0.5588(3) 0.2815(4)
H19 H 0.2760 0.6016 0.2502
C20 C 0.1426(4) 0.5294(3) 0.1863(4)
H20 H 0.1199 0.5514 0.0887
C21 C 0.0832(3) 0.4681(3) 0.2325(4)
H21 H 0.0188 0.4481 0.1670
C22 C 0.1169(3) 0.4351(2) 0.3752(4)
H22 H 0.0746 0.3927 0.4051
loop_
_geom_bond_atom_site_label_1
_geom_bond_atom_site_label_2
_geom_bond_site_symmetry_1
_geom_bond_site_symmetry_2
B1 N1 1_555 1_555
N1 C7 1_555 1_555
C1 B1 1_555 1_555
C2 C1 1_555 1_555
H1 C2 1_555 1_555
C3 C2 1_555 1_555
H2 C3 1_555 1_555
C4 C3 1_555 1_555
H3 C4 1_555 1_555
C5 C4 1_555 1_555
H4 C5 1_555 1_555
C6 C1 1_555 1_555
C7 C6 1_555 1_555
H5 C7 1_555 1_555
C8 N1 1_555 1_555
H6 C8 1_555 1_555
C9 C8 1_555 1_555
H7 C9 1_555 1_555
H8 C9 1_555 1_555
H9 C9 1_555 1_555
C10 C8 1_555 1_555
H10 C10 1_555 1_555
H11 C10 1_555 1_555
H12 C10 1_555 1_555
C11 B1 1_555 1_555
C12 C11 1_555 1_555
H13 C12 1_555 1_555
C13 C12 1_555 1_555
H14 C13 1_555 1_555
C14 C13 1_555 1_555
H15 C14 1_555 1_555
C15 C11 1_555 1_555
H16 C15 1_555 1_555
C16 C14 1_555 1_555
H17 C16 1_555 1_555
C17 B1 1_555 1_555
C18 C17 1_555 1_555
H18 C18 1_555 1_555
C19 C18 1_555 1_555
H19 C19 1_555 1_555
C20 C19 1_555 1_555
H20 C20 1_555 1_555
C21 C20 1_555 1_555
H21 C21 1_555 1_555
C22 C17 1_555 1_555
H22 C22 1_555 1_555
C5 C6 1_555 1_555
C15 C16 1_555 1_555
C21 C22 1_555 1_555

#END
