
#######################################################################
#
#                 Cambridge Crystallographic Data Centre
#                                CCDC 
#
#######################################################################
#
# If this CIF has been generated from an entry in the Cambridge 
# Structural Database, then it will include bibliographic, chemical, 
# crystal, experimental, refinement or atomic coordinate data resulting 
# from the CCDC's data processing and validation procedures.
#
#######################################################################

data_BIBTIS
_chemical_formula_moiety         'C22 H22 B1 N1'
_chemical_name_systematic        
5-phenyl-6-isopropyl-6,7-dihydro-5H-dibenzo[c,e][1,2]azaborepine
_symmetry_cell_setting           orthorhombic
_symmetry_space_group_name_H-M   'P b c a'
_symmetry_Int_Tables_number      61
_space_group_name_Hall           '-P 2ac 2ab'
loop_
_symmetry_equiv_pos_site_id
_symmetry_equiv_pos_as_xyz
1 x,y,z
2 1/2-x,-y,1/2+z
3 -x,1/2+y,1/2-z
4 1/2+x,1/2-y,-z
5 -x,-y,-z
6 1/2+x,y,1/2-z
7 x,1/2-y,1/2+z
8 1/2-x,1/2+y,z
_cell_length_a                   19.0048(7)
_cell_length_b                   7.9860(3)
_cell_length_c                   23.0446(10)
_cell_angle_alpha                90
_cell_angle_beta                 90
_cell_angle_gamma                90
_cell_volume                     3497.53
_exptl_crystal_colour            colorless
_exptl_crystal_description       Block
_cell_formula_units_Z            8
loop_
_atom_site_label
_atom_site_type_symbol
_atom_site_fract_x
_atom_site_fract_y
_atom_site_fract_z
N1 N 0.45005(8) 0.48893(19) 0.35581(7)
C1 C 0.42216(10) 0.7693(2) 0.40680(9)
C2 C 0.43411(11) 0.8452(3) 0.46075(9)
H1 H 0.4743 0.8125 0.4824
C3 C 0.39021(11) 0.9650(3) 0.48374(10)
H2 H 0.3997 1.0113 0.5209
C4 C 0.33253(12) 1.0172(3) 0.45263(11)
H3 H 0.3015 1.0983 0.4686
C5 C 0.31988(11) 0.9517(3) 0.39819(11)
H4 H 0.2809 0.9915 0.3763
C6 C 0.36343(10) 0.8275(3) 0.37463(9)
C7 C 0.34885(9) 0.7704(3) 0.31426(9)
C8 C 0.33242(10) 0.8884(3) 0.27147(10)
H5 H 0.3297 1.0034 0.2817
C9 C 0.32014(11) 0.8413(3) 0.21470(11)
H6 H 0.3102 0.9236 0.1861
C10 C 0.32233(11) 0.6734(3) 0.19972(11)
H7 H 0.3134 0.6398 0.1609
C11 C 0.33756(10) 0.5553(3) 0.24164(10)
H8 H 0.3382 0.4402 0.2313
C12 C 0.35206(9) 0.6011(3) 0.29866(9)
C13 C 0.37430(10) 0.4731(3) 0.34310(10)
H9 H 0.3469 0.4894 0.3792
H10 H 0.3643 0.3592 0.3283
C14 C 0.49582(10) 0.3525(2) 0.33419(9)
H11 H 0.5456 0.3895 0.3401
C15 C 0.48608(13) 0.1922(3) 0.36905(11)
H12 H 0.4383 0.1494 0.3632
H13 H 0.4935 0.2157 0.4103
H14 H 0.5202 0.1082 0.3560
C16 C 0.48668(11) 0.3195(3) 0.26972(9)
H15 H 0.4898 0.4255 0.2484
H16 H 0.4406 0.2683 0.2628
H17 H 0.5238 0.2436 0.2563
C17 C 0.55482(10) 0.6384(2) 0.40496(8)
C18 C 0.60103(10) 0.7543(2) 0.38064(9)
H18 H 0.5839 0.8311 0.3526
C19 C 0.67145(10) 0.7603(3) 0.39636(10)
H19 H 0.7018 0.8398 0.3786
C20 C 0.69754(11) 0.6518(3) 0.43748(9)
H20 H 0.7458 0.6561 0.4482
C21 C 0.65331(11) 0.5376(3) 0.46290(10)
H21 H 0.6707 0.4630 0.4916
C22 C 0.58328(11) 0.5313(3) 0.44656(10)
H22 H 0.5535 0.4509 0.4644
B1 B 0.47452(11) 0.6275(3) 0.38669(10)
loop_
_geom_bond_atom_site_label_1
_geom_bond_atom_site_label_2
_geom_bond_site_symmetry_1
_geom_bond_site_symmetry_2
N1 C13 1_555 1_555
C1 C2 1_555 1_555
C2 H1 1_555 1_555
C3 C2 1_555 1_555
H2 C3 1_555 1_555
C4 C3 1_555 1_555
H3 C4 1_555 1_555
C5 C4 1_555 1_555
H4 C5 1_555 1_555
C6 C1 1_555 1_555
C7 C6 1_555 1_555
C8 C7 1_555 1_555
H5 C8 1_555 1_555
C9 C8 1_555 1_555
H6 C9 1_555 1_555
C10 C9 1_555 1_555
H7 C10 1_555 1_555
C11 C10 1_555 1_555
H8 C11 1_555 1_555
C12 C7 1_555 1_555
C13 C12 1_555 1_555
H9 C13 1_555 1_555
H10 C13 1_555 1_555
C14 N1 1_555 1_555
H11 C14 1_555 1_555
C15 C14 1_555 1_555
H12 C15 1_555 1_555
H13 C15 1_555 1_555
H14 C15 1_555 1_555
C16 C14 1_555 1_555
H15 C16 1_555 1_555
H16 C16 1_555 1_555
H17 C16 1_555 1_555
C17 C18 1_555 1_555
C18 H18 1_555 1_555
C19 C18 1_555 1_555
H19 C19 1_555 1_555
C20 C19 1_555 1_555
H20 C20 1_555 1_555
C21 C20 1_555 1_555
H21 C21 1_555 1_555
C22 C17 1_555 1_555
H22 C22 1_555 1_555
B1 N1 1_555 1_555
C1 B1 1_555 1_555
C5 C6 1_555 1_555
C11 C12 1_555 1_555
C17 B1 1_555 1_555
C21 C22 1_555 1_555

#END
