
#######################################################################
#
#                 Cambridge Crystallographic Data Centre
#                                CCDC 
#
#######################################################################
#
# If this CIF has been generated from an entry in the Cambridge 
# Structural Database, then it will include bibliographic, chemical, 
# crystal, experimental, refinement or atomic coordinate data resulting 
# from the CCDC's data processing and validation procedures.
#
#######################################################################

data_BIBZUJ
_chemical_formula_moiety         'C40 H28 N4 S2'
_chemical_name_systematic        
4,4'-[1,3]Thiazolo[5,4-d][1,3]thiazole-2,5-diylbis(N,N-diphenylaniline)
_symmetry_cell_setting           monoclinic
_symmetry_space_group_name_H-M   'P 21/c'
_symmetry_Int_Tables_number      14
_space_group_name_Hall           '-P 2ybc'
loop_
_symmetry_equiv_pos_site_id
_symmetry_equiv_pos_as_xyz
1 x,y,z
2 -x,1/2+y,1/2-z
3 -x,-y,-z
4 x,1/2-y,1/2+z
_cell_length_a                   9.6569(19)
_cell_length_b                   10.140(2)
_cell_length_c                   18.898(5)
_cell_angle_alpha                90
_cell_angle_beta                 118.42(2)
_cell_angle_gamma                90
_cell_volume                     1627.49
_cell_formula_units_Z            2
loop_
_atom_site_label
_atom_site_type_symbol
_atom_site_fract_x
_atom_site_fract_y
_atom_site_fract_z
S1 S 0.50672(7) -0.89513(6) -0.09087(3)
N1 N 0.40307(18) -0.85809(16) 0.01210(9)
N2 N 0.17018(19) -0.29462(17) -0.17091(10)
C1 C 0.4133(2) -0.80121(19) -0.04756(11)
C2 C 0.2042(2) -0.23509(19) -0.22968(12)
C3 C 0.2561(2) -0.4584(2) -0.06362(11)
H1 H 0.2314 -0.4010 -0.0329
C4 C 0.3147(2) -0.5811(2) -0.03406(12)
H2 H 0.3289 -0.6055 0.0164
C5 C 0.3535(2) -0.66985(19) -0.07816(11)
C6 C 0.5304(2) -1.0197(2) -0.02431(11)
C7 C 0.3322(2) -0.6283(2) -0.15301(11)
H3 H 0.3585 -0.6852 -0.1833
C8 C 0.2328(2) -0.41850(19) -0.13949(11)
C9 C 0.0663(2) -0.2287(2) -0.14851(12)
C10 C 0.2736(2) -0.5059(2) -0.18318(11)
H4 H 0.2609 -0.4812 -0.2333
C11 C 0.0902(3) -0.0986(2) -0.12595(13)
H5 H 0.1720 -0.0520 -0.1272
C12 C 0.0865(3) -0.2049(2) -0.30466(14)
H6 H -0.0181 -0.2207 -0.3181
C13 C 0.3938(3) -0.1527(3) -0.26560(16)
H7 H 0.4980 -0.1340 -0.2515
C14 C -0.0586(3) -0.2966(3) -0.14887(15)
H8 H -0.0779 -0.3840 -0.1658
C15 C 0.3579(2) -0.2084(2) -0.21012(14)
H9 H 0.4383 -0.2283 -0.1589
C16 C -0.1542(3) -0.2330(4) -0.12376(19)
H10 H -0.2370 -0.2784 -0.1229
C17 C 0.2781(4) -0.1247(3) -0.34074(17)
H11 H 0.3031 -0.0883 -0.3784
C18 C -0.0073(4) -0.0367(3) -0.10143(15)
H12 H 0.0096 0.0512 -0.0857
C19 C 0.1246(3) -0.1499(3) -0.36116(15)
H13 H 0.0452 -0.1305 -0.4127
C20 C -0.1284(4) -0.1044(4) -0.10030(17)
H14 H -0.1934 -0.0627 -0.0835
S1B S 0.49328(7) -1.10487(6) 0.09087(3)
N1B N 0.59693(18) -1.14191(16) -0.01210(9)
N2B N 0.82982(19) -1.70538(17) 0.17091(10)
C1B C 0.5867(2) -1.19879(19) 0.04756(11)
C2B C 0.7958(2) -1.76491(19) 0.22968(12)
C3B C 0.7439(2) -1.5416(2) 0.06362(11)
H1B H 0.7686 -1.5990 0.0329
C4B C 0.6853(2) -1.4189(2) 0.03406(12)
H2B H 0.6711 -1.3945 -0.0164
C5B C 0.6465(2) -1.33015(19) 0.07816(11)
C6B C 0.4696(2) -0.9803(2) 0.02431(11)
C7B C 0.6678(2) -1.3717(2) 0.15301(11)
H3B H 0.6415 -1.3148 0.1833
C8B C 0.7672(2) -1.58150(19) 0.13949(11)
C9B C 0.9337(2) -1.7713(2) 0.14851(12)
C10B C 0.7264(2) -1.4941(2) 0.18318(11)
H4B H 0.7391 -1.5188 0.2333
C11B C 0.9098(3) -1.9014(2) 0.12595(13)
H5B H 0.8280 -1.9480 0.1272
C12B C 0.9135(3) -1.7951(2) 0.30466(14)
H6B H 1.0181 -1.7793 0.3181
C13B C 0.6062(3) -1.8473(3) 0.26560(16)
H7B H 0.5020 -1.8660 0.2515
C14B C 1.0586(3) -1.7034(3) 0.14887(15)
H8B H 1.0779 -1.6160 0.1658
C15B C 0.6421(2) -1.7916(2) 0.21012(14)
H9B H 0.5617 -1.7717 0.1589
C16B C 1.1542(3) -1.7670(4) 0.12376(19)
H10B H 1.2370 -1.7216 0.1229
C17B C 0.7219(4) -1.8753(3) 0.34074(17)
H11B H 0.6969 -1.9117 0.3784
C18B C 1.0073(4) -1.9633(3) 0.10143(15)
H12B H 0.9904 -2.0512 0.0857
C19B C 0.8754(3) -1.8501(3) 0.36116(15)
H13B H 0.9548 -1.8695 0.4127
C20B C 1.1284(4) -1.8956(4) 0.10030(17)
H14B H 1.1934 -1.9373 0.0835
loop_
_geom_bond_atom_site_label_1
_geom_bond_atom_site_label_2
_geom_bond_site_symmetry_1
_geom_bond_site_symmetry_2
S1 C1 1_555 1_555
N1 C1 1_555 1_555
N2 C2 1_555 1_555
C1 C5 1_555 1_555
C2 C12 1_555 1_555
C3 H1 1_555 1_555
C4 C3 1_555 1_555
H2 C4 1_555 1_555
C5 C4 1_555 1_555
C6 S1 1_555 1_555
C7 C5 1_555 1_555
H3 C7 1_555 1_555
C8 N2 1_555 1_555
C9 N2 1_555 1_555
C10 C7 1_555 1_555
H4 C10 1_555 1_555
C11 C9 1_555 1_555
H5 C11 1_555 1_555
C12 H6 1_555 1_555
C13 H7 1_555 1_555
C14 C9 1_555 1_555
H8 C14 1_555 1_555
C15 C2 1_555 1_555
H9 C15 1_555 1_555
C16 C14 1_555 1_555
H10 C16 1_555 1_555
C17 C13 1_555 1_555
H11 C17 1_555 1_555
C18 C11 1_555 1_555
H12 C18 1_555 1_555
C19 C12 1_555 1_555
H13 C19 1_555 1_555
C20 C16 1_555 1_555
H14 C20 1_555 1_555
S1B C1B 1_555 1_555
N1B C6 1_555 1_555
N2B C2B 1_555 1_555
C1B N1B 1_555 1_555
C2B C12B 1_555 1_555
C3B H1B 1_555 1_555
C4B C3B 1_555 1_555
H2B C4B 1_555 1_555
C5B C1B 1_555 1_555
C6B N1 1_555 1_555
C7B C5B 1_555 1_555
H3B C7B 1_555 1_555
C8B N2B 1_555 1_555
C9B N2B 1_555 1_555
C10B C7B 1_555 1_555
H4B C10B 1_555 1_555
C11B C9B 1_555 1_555
H5B C11B 1_555 1_555
C12B H6B 1_555 1_555
C13B H7B 1_555 1_555
C14B C9B 1_555 1_555
H8B C14B 1_555 1_555
C15B C2B 1_555 1_555
H9B C15B 1_555 1_555
C16B C14B 1_555 1_555
H10B C16B 1_555 1_555
C17B C13B 1_555 1_555
H11B C17B 1_555 1_555
C18B C11B 1_555 1_555
H12B C18B 1_555 1_555
C19B C12B 1_555 1_555
H13B C19B 1_555 1_555
C20B C16B 1_555 1_555
H14B C20B 1_555 1_555
C3 C8 1_555 1_555
C6 C6B 1_555 1_555
C8 C10 1_555 1_555
C13 C15 1_555 1_555
C17 C19 1_555 1_555
C18 C20 1_555 1_555
S1B C6B 1_555 1_555
C3B C8B 1_555 1_555
C4B C5B 1_555 1_555
C8B C10B 1_555 1_555
C13B C15B 1_555 1_555
C17B C19B 1_555 1_555
C18B C20B 1_555 1_555

#END
