
#######################################################################
#
#                 Cambridge Crystallographic Data Centre
#                                CCDC 
#
#######################################################################
#
# If this CIF has been generated from an entry in the Cambridge 
# Structural Database, then it will include bibliographic, chemical, 
# crystal, experimental, refinement or atomic coordinate data resulting 
# from the CCDC's data processing and validation procedures.
#
#######################################################################

data_BICCUL10
_chemical_formula_moiety         'C42 H72 O18'
_chemical_name_systematic        
'3,4,6,7,9,12,14,15,17,18,21,23,24,26,27,29,32,34,35,37,38,40-Docosahydro-10,31:11,30-bis(methanoxyethanoxymethano)-1H,20H-(1,4,7,12,15,18)hexaoxacyclodocosino(9,10-i)(1,4,7,12,15,18) hexaoxacyclodocosin'
_symmetry_cell_setting           triclinic
_symmetry_space_group_name_H-M   'P -1'
_symmetry_Int_Tables_number      2
_space_group_name_Hall           '-P 1'
loop_
_symmetry_equiv_pos_site_id
_symmetry_equiv_pos_as_xyz
1 x,y,z
2 -x,-y,-z
_cell_length_a                   11.841(6)
_cell_length_b                   17.390(9)
_cell_length_c                   11.551(6)
_cell_angle_alpha                95.46(4)
_cell_angle_beta                 107.65(4)
_cell_angle_gamma                91.30(4)
_cell_volume                     2252.94
_chemical_melting_point          '107-108 deg.C'
_cell_formula_units_Z            2
loop_
_atom_site_label
_atom_site_type_symbol
_atom_site_fract_x
_atom_site_fract_y
_atom_site_fract_z
O1 O 0.4165 0.3333 0.4166
O2 O 0.5685 0.4238 0.7122
O3 O 0.7016 0.3714 0.9524
O4 O 0.9964 0.2609 1.0346
O5 O 1.1710 0.1164 1.1870
O6 O 1.2257 0.0316 0.9636
O7 O 0.9966 0.0159 0.7001
O8 O 0.8020 0.1151 0.6422
O9 O 0.6118 0.1959 0.4887
O10 O 0.6687 0.4052 0.2728
O11 O 0.8104 0.4911 0.4900
O12 O 0.8822 0.5034 0.7656
O13 O 1.1393 0.3751 0.8488
O14 O 1.3922 0.2782 0.9275
O15 O 1.4768 0.0950 0.8426
O16 O 1.2417 0.1138 0.6075
O17 O 1.0508 0.2003 0.4696
O18 O 0.8223 0.2344 0.3141
C1 C 0.5339 0.2575 0.3131
C2 C 0.4331 0.3165 0.3020
C3 C 0.5185 0.3801 0.5051
C4 C 0.4671 0.3897 0.6148
C5 C 0.5475 0.4431 0.8289
C6 C 0.6704 0.4439 0.9275
C7 C 0.7599 0.3285 0.8748
C8 C 0.8890 0.3573 0.9266
C9 C 0.9550 0.3367 1.0640
C10 C 1.0389 0.2244 1.1509
C11 C 1.0690 0.1465 1.1399
C12 C 1.2555 0.0739 1.1576
C13 C 1.2113 0.0127 1.0759
C14 C 1.2035 -0.0362 0.8823
C15 C 1.2046 -0.0097 0.7613
C16 C 1.0832 -0.0205 0.6518
C17 C 1.0075 0.0997 0.7060
C18 C 0.9097 0.1339 0.7476
C19 C 0.6996 0.1473 0.6754
C20 C 0.5967 0.1339 0.5653
C21 C 0.5148 0.1897 0.3738
C22 C 0.6181 0.2695 0.2629
C23 C 0.6234 0.3353 0.1851
C24 C 0.7881 0.4260 0.2938
C25 C 0.8196 0.5014 0.3725
C26 C 0.8385 0.5613 0.5689
C27 C 0.7947 0.5428 0.6721
C28 C 0.8856 0.4211 0.7315
C29 C 0.9443 0.3945 0.8651
C30 C 1.0745 0.4213 0.9139
C31 C 1.1269 0.3212 0.8751
C32 C 1.2696 0.2616 0.9393
C33 C 1.4477 0.2169 0.8607
C34 C 1.4278 0.1476 0.9213
C35 C 1.4206 0.0144 0.8334
C36 C 1.2989 0.0147 0.7357
C37 C 1.2979 0.0394 0.6147
C38 C 1.2308 0.1384 0.4851
C39 C 1.1774 0.2171 0.4903
C40 C 0.9905 0.2704 0.4820
C41 C 0.8586 0.2473 0.4477
C42 C 0.7040 0.2021 0.2510
O19? O 1.1663 0.1602 1.1199
C43? C 1.0876 0.1275 1.0878
C44? C 1.2688 0.1252 1.1480
C45? C 1.2485 0.3454 0.9268
C46? C 1.2650 0.2900 0.8472
loop_
_geom_bond_atom_site_label_1
_geom_bond_atom_site_label_2
_geom_bond_site_symmetry_1
_geom_bond_site_symmetry_2
O1 C2 1_555 1_555
O2 C4 1_555 1_555
O3 C6 1_555 1_555
O4 C9 1_555 1_555
O5 C11 1_555 1_555
O6 C13 1_555 1_555
O7 C16 1_555 1_555
O8 C18 1_555 1_555
O9 C20 1_555 1_555
O10 C23 1_555 1_555
O11 C25 1_555 1_555
O12 C27 1_555 1_555
O13 C30 1_555 1_555
O14 C32 1_555 1_555
O15 C34 1_555 1_555
O16 C37 1_555 1_555
O17 C39 1_555 1_555
O18 C41 1_555 1_555
C1 C2 1_555 1_555
C3 O1 1_555 1_555
C4 C3 1_555 1_555
C5 O2 1_555 1_555
C6 C5 1_555 1_555
C7 O3 1_555 1_555
C8 C7 1_555 1_555
C9 C8 1_555 1_555
C10 O4 1_555 1_555
C11 C10 1_555 1_555
C12 O5 1_555 1_555
C13 C12 1_555 1_555
C14 O6 1_555 1_555
C15 C14 1_555 1_555
C16 C15 1_555 1_555
C17 O7 1_555 1_555
C18 C17 1_555 1_555
C19 O8 1_555 1_555
C20 C19 1_555 1_555
C21 O9 1_555 1_555
C22 C1 1_555 1_555
C23 C22 1_555 1_555
C24 O10 1_555 1_555
C25 C24 1_555 1_555
C26 O11 1_555 1_555
C27 C26 1_555 1_555
C28 O12 1_555 1_555
C29 C8 1_555 1_555
C30 C29 1_555 1_555
C31 O13 1_555 1_555
C33 O14 1_555 1_555
C34 C33 1_555 1_555
C35 O15 1_555 1_555
C36 C15 1_555 1_555
C37 C36 1_555 1_555
C38 O16 1_555 1_555
C39 C38 1_555 1_555
C40 O17 1_555 1_555
C41 C40 1_555 1_555
C42 O18 1_555 1_555
C1 C21 1_555 1_555
C22 C42 1_555 1_555
C28 C29 1_555 1_555
C35 C36 1_555 1_555

#END
