
#######################################################################
#
#                 Cambridge Crystallographic Data Centre
#                                CCDC 
#
#######################################################################
#
# If this CIF has been generated from an entry in the Cambridge 
# Structural Database, then it will include bibliographic, chemical, 
# crystal, experimental, refinement or atomic coordinate data resulting 
# from the CCDC's data processing and validation procedures.
#
#######################################################################

data_BICJOO
_chemical_formula_moiety         'C23 H19 N1 O1 S1'
_chemical_name_systematic        
4-(2-(10-Ethyl-10H-phenothiazin-3-yl)vinyl)benzaldehyde
_symmetry_cell_setting           orthorhombic
_symmetry_space_group_name_H-M   'P b c a'
_symmetry_Int_Tables_number      61
_space_group_name_Hall           '-P 2ac 2ab'
loop_
_symmetry_equiv_pos_site_id
_symmetry_equiv_pos_as_xyz
1 x,y,z
2 1/2-x,-y,1/2+z
3 -x,1/2+y,1/2-z
4 1/2+x,1/2-y,-z
5 -x,-y,-z
6 1/2+x,y,1/2-z
7 x,1/2-y,1/2+z
8 1/2-x,1/2+y,z
_cell_length_a                   15.196(8)
_cell_length_b                   7.934(4)
_cell_length_c                   29.846(16)
_cell_angle_alpha                90
_cell_angle_beta                 90
_cell_angle_gamma                90
_cell_volume                     3598.38
_exptl_crystal_colour            yellow
_exptl_crystal_description       sheet
_cell_formula_units_Z            8
loop_
_atom_site_label
_atom_site_type_symbol
_atom_site_fract_x
_atom_site_fract_y
_atom_site_fract_z
C1 C 0.91685(18) 0.1220(4) 0.73043(10)
C2 C 0.9104(2) 0.1835(4) 0.77377(11)
H1 H 0.9451 0.2742 0.7826
C3 C 0.8528(3) 0.1106(4) 0.80402(11)
H2 H 0.8503 0.1481 0.8335
C4 C 0.7994(2) -0.0175(4) 0.78977(11)
H3 H 0.7604 -0.0668 0.8099
C5 C 0.80220(19) -0.0752(4) 0.74622(10)
H4 H 0.7634 -0.1590 0.7371
C6 C 0.86213(18) -0.0096(3) 0.71602(10)
C7 C 0.87639(18) 0.0549(4) 0.63708(10)
C8 C 0.82923(19) 0.0501(4) 0.59690(10)
H5 H 0.7913 -0.0394 0.5912
C9 C 0.8383(2) 0.1774(4) 0.56533(11)
H6 H 0.8073 0.1696 0.5385
C10 C 0.8922(2) 0.3160(4) 0.57251(11)
C11 C 0.93934(18) 0.3198(4) 0.61236(10)
H7 H 0.9766 0.4103 0.6180
C12 C 0.93248(17) 0.1935(4) 0.64356(10)
C13 C 0.8297(2) -0.2305(4) 0.65992(11)
H8 H 0.8359 -0.2497 0.6280
H9 H 0.7673 -0.2270 0.6668
C14 C 0.8710(2) -0.3752(4) 0.68484(12)
H10 H 0.9325 -0.3814 0.6776
H11 H 0.8426 -0.4785 0.6763
H12 H 0.8642 -0.3581 0.7165
C15 C 0.8994(2) 0.4629(5) 0.54156(11)
H13 H 0.9367 0.5492 0.5507
C16 C 0.8602(2) 0.4852(5) 0.50349(12)
H14 H 0.8254 0.3979 0.4927
C17 C 0.8669(2) 0.6397(4) 0.47605(12)
C18 C 0.8407(2) 0.6384(5) 0.43186(12)
H15 H 0.8177 0.5401 0.4196
C19 C 0.8482(2) 0.7795(5) 0.40566(12)
H16 H 0.8308 0.7752 0.3758
C20 C 0.8810(2) 0.9274(4) 0.42285(11)
C21 C 0.9051(2) 0.9325(4) 0.46746(11)
H17 H 0.9261 1.0325 0.4797
C22 C 0.8983(2) 0.7921(5) 0.49388(12)
H18 H 0.9147 0.7976 0.5239
C23 C 0.8914(3) 1.0747(5) 0.39397(12)
H19 H 0.8734 1.0642 0.3643
N1 N 0.86910(15) -0.0671(3) 0.67124(8)
O1 O 0.9215(2) 1.2096(4) 0.40544(10)
S1 S 0.99653(5) 0.20224(10) 0.69330(3)
loop_
_geom_bond_atom_site_label_1
_geom_bond_atom_site_label_2
_geom_bond_site_symmetry_1
_geom_bond_site_symmetry_2
C1 C2 1_555 1_555
C2 H1 1_555 1_555
C3 C2 1_555 1_555
H2 C3 1_555 1_555
C4 C3 1_555 1_555
H3 C4 1_555 1_555
C5 C4 1_555 1_555
H4 C5 1_555 1_555
C6 C1 1_555 1_555
C7 C8 1_555 1_555
C8 H5 1_555 1_555
C9 C8 1_555 1_555
H6 C9 1_555 1_555
C10 C9 1_555 1_555
C11 C10 1_555 1_555
H7 C11 1_555 1_555
C12 C7 1_555 1_555
C13 H8 1_555 1_555
H9 C13 1_555 1_555
C14 C13 1_555 1_555
H10 C14 1_555 1_555
H11 C14 1_555 1_555
H12 C14 1_555 1_555
C15 C10 1_555 1_555
H13 C15 1_555 1_555
C16 C15 1_555 1_555
H14 C16 1_555 1_555
C17 C16 1_555 1_555
C18 C17 1_555 1_555
H15 C18 1_555 1_555
C19 C18 1_555 1_555
H16 C19 1_555 1_555
C20 C19 1_555 1_555
C21 C20 1_555 1_555
H17 C21 1_555 1_555
C22 C17 1_555 1_555
H18 C22 1_555 1_555
C23 C20 1_555 1_555
H19 C23 1_555 1_555
N1 C6 1_555 1_555
O1 C23 1_555 1_555
S1 C1 1_555 1_555
C5 C6 1_555 1_555
C7 N1 1_555 1_555
C11 C12 1_555 1_555
C12 S1 1_555 1_555
C13 N1 1_555 1_555
C21 C22 1_555 1_555

#END
