
#######################################################################
#
#                 Cambridge Crystallographic Data Centre
#                                CCDC 
#
#######################################################################
#
# If this CIF has been generated from an entry in the Cambridge 
# Structural Database, then it will include bibliographic, chemical, 
# crystal, experimental, refinement or atomic coordinate data resulting 
# from the CCDC's data processing and validation procedures.
#
#######################################################################

data_BICJEE
_chemical_formula_moiety         'C30 H38 O14,H2 O1'
_chemical_name_systematic        
'6-(3-Furyl)-6,7,9,12,16,21-hexahydroxy-7,15-dimethyl-3,17,19-trioxaheptacyclo[9.9.3.0^1,10^.0^2,4^.0^2,8^.0^11,18^.0^15,23^]tricosane-13,14-diyl diacetate monohydrate'
_symmetry_cell_setting           orthorhombic
_symmetry_space_group_name_H-M   'P 21 21 21'
_symmetry_Int_Tables_number      19
_space_group_name_Hall           'P 2ac 2ab'
loop_
_symmetry_equiv_pos_site_id
_symmetry_equiv_pos_as_xyz
1 x,y,z
2 1/2+x,1/2-y,-z
3 -x,1/2+y,1/2-z
4 1/2-x,-y,1/2+z
_cell_length_a                   8.03030(10)
_cell_length_b                   17.6095(3)
_cell_length_c                   20.3673(3)
_cell_angle_alpha                90
_cell_angle_beta                 90
_cell_angle_gamma                90
_cell_volume                     2880.13
_exptl_crystal_colour            colorless
_exptl_crystal_description       block
_cell_formula_units_Z            4
loop_
_atom_site_label
_atom_site_type_symbol
_atom_site_fract_x
_atom_site_fract_y
_atom_site_fract_z
O1 O 0.5974(3) 0.62031(13) 0.98561(11)
O2 O 0.4551(3) 0.70781(16) 1.04207(13)
O3 O 0.4970(2) 0.45362(12) 0.76173(9)
O4 O 0.4784(3) 0.29311(13) 0.86862(12)
H1 H 0.4098 0.3104 0.8959
O5 O 0.8756(3) 0.29001(12) 0.73288(10)
O6 O 0.9124(3) 0.13040(14) 0.79681(13)
H2 H 0.8678 0.1566 0.7672
O7 O 0.8056(3) 0.16242(12) 0.92355(11)
H3 H 0.7585 0.1321 0.8976
O8 O 1.2443(3) 0.01641(14) 0.90852(12)
O9 O 1.0022(2) 0.45910(12) 0.84353(10)
H4 H 1.0827 0.4869 0.8327
O10 O 0.2810(3) 0.64793(13) 0.81656(13)
H5 H 0.2224 0.6449 0.8506
O11 O 0.3804(3) 0.39688(13) 0.95594(11)
H6 H 0.3808 0.3833 0.9955
O12 O 0.3487(3) 0.53418(16) 1.03186(10)
O13 O 0.0878(4) 0.5753(2) 1.02034(15)
C1 C 0.7367(4) 0.6782(2) 1.07267(17)
H7 H 0.8134 0.7130 1.0504
H8 H 0.7890 0.6281 1.0769
H9 H 0.7105 0.6980 1.1164
C2 C 0.5800(4) 0.67125(19) 1.03352(16)
C3 C 0.4593(4) 0.60696(18) 0.94122(14)
H10 H 0.3775 0.6496 0.9444
C4 C 0.5359(4) 0.60467(17) 0.87180(14)
C5 C 0.6604(3) 0.53742(16) 0.86880(13)
H11 H 0.7358 0.5428 0.9076
C6 C 0.5613(3) 0.46216(16) 0.87887(12)
C7 C 0.6891(3) 0.39694(16) 0.87313(13)
H12 H 0.7832 0.4101 0.9032
C8 C 0.6428(4) 0.31362(17) 0.88794(14)
H13 H 0.6588 0.3028 0.9357
C9 C 0.7644(4) 0.26575(17) 0.84715(14)
H14 H 0.6967 0.2288 0.8211
C10 C 0.8941(4) 0.21953(16) 0.88634(14)
C11 C 1.0135(4) 0.17809(18) 0.83725(15)
C12 C 1.1319(4) 0.12502(18) 0.87134(17)
C13 C 1.2831(5) 0.1397(2) 0.9056(3)
H15 H 1.3297 0.1885 0.9135
C14 C 1.3486(5) 0.0735(2) 0.9248(3)
H16 H 1.4525 0.0676 0.9465
C15 C 0.4267(3) 0.45680(18) 0.82541(13)
H17 H 0.3585 0.4101 0.8330
C16 C 0.6188(4) 0.39516(18) 0.75233(14)
H18 H 0.6673 0.4005 0.7079
H19 H 0.5627 0.3452 0.7545
C17 C 0.7612(3) 0.39665(17) 0.80331(13)
C18 C 0.8464(4) 0.31980(17) 0.79866(13)
C19 C 1.0162(4) 0.30606(17) 0.77505(14)
H20 H 1.0833 0.3521 0.7638
C20 C 1.1129(4) 0.23732(19) 0.79799(16)
H21 H 1.2068 0.2550 0.8255
H22 H 1.1611 0.2120 0.7590
C21 C 0.9875(4) 0.26792(17) 0.93660(14)
H23 H 0.9092 0.2862 0.9700
H24 H 1.0389 0.3114 0.9144
H25 H 1.0741 0.2372 0.9576
C22 C 1.1149(4) 0.04897(18) 0.87698(15)
H26 H 1.0220 0.0214 0.8606
C23 C 0.8712(3) 0.46652(17) 0.79601(13)
H27 H 0.9205 0.4673 0.7509
C24 C 0.7728(3) 0.53951(16) 0.80715(13)
H28 H 0.7023 0.5492 0.7681
H29 H 0.8519 0.5824 0.8113
O14 O 0.3204(2) 0.52097(12) 0.82505(10)
C25 C 0.4033(4) 0.59323(17) 0.81841(14)
H30 H 0.4613 0.5936 0.7750
C26 C 0.4826(3) 0.46282(17) 0.94822(13)
H31 H 0.5741 0.4608 0.9815
C27 C 0.3768(4) 0.53302(18) 0.96153(13)
H32 H 0.2676 0.5279 0.9383
C28 C 0.2048(5) 0.5600(3) 1.05426(19)
C29 C 0.6190(4) 0.68183(18) 0.85828(17)
H33 H 0.6433 0.6864 0.8113
H34 H 0.7228 0.6855 0.8833
H35 H 0.5436 0.7228 0.8716
C30 C 0.2005(7) 0.5624(5) 1.1280(2)
H36 H 0.2789 0.6009 1.1438
H37 H 0.2319 0.5126 1.1456
H38 H 0.0877 0.5753 1.1427
O15 O 0.0395(3) 0.64939(15) 0.90373(13)
H39 H 0.040(7) 0.627(2) 0.9402(11)
H40 H 0.021(7) 0.6940(10) 0.915(2)
loop_
_geom_bond_atom_site_label_1
_geom_bond_atom_site_label_2
_geom_bond_site_symmetry_1
_geom_bond_site_symmetry_2
O1 C2 1_555 1_555
O2 C2 1_555 1_555
O3 C15 1_555 1_555
O4 H1 1_555 1_555
O5 C18 1_555 1_555
O6 H2 1_555 1_555
O7 H3 1_555 1_555
O8 C14 1_555 1_555
O9 H4 1_555 1_555
O10 H5 1_555 1_555
O11 H6 1_555 1_555
O12 C27 1_555 1_555
O13 C28 1_555 1_555
C1 H7 1_555 1_555
H8 C1 1_555 1_555
H9 C1 1_555 1_555
C2 C1 1_555 1_555
C3 O1 1_555 1_555
H10 C3 1_555 1_555
C4 C3 1_555 1_555
C5 C4 1_555 1_555
H11 C5 1_555 1_555
C6 C5 1_555 1_555
C7 C6 1_555 1_555
H12 C7 1_555 1_555
C8 O4 1_555 1_555
H13 C8 1_555 1_555
C9 C8 1_555 1_555
H14 C9 1_555 1_555
C10 O7 1_555 1_555
C11 O6 1_555 1_555
C12 C11 1_555 1_555
C13 C12 1_555 1_555
H15 C13 1_555 1_555
C14 C13 1_555 1_555
H16 C14 1_555 1_555
C15 C6 1_555 1_555
H17 C15 1_555 1_555
C16 O3 1_555 1_555
H18 C16 1_555 1_555
H19 C16 1_555 1_555
C17 C7 1_555 1_555
C18 C9 1_555 1_555
C19 O5 1_555 1_555
H20 C19 1_555 1_555
C20 C11 1_555 1_555
H21 C20 1_555 1_555
H22 C20 1_555 1_555
C21 C10 1_555 1_555
H23 C21 1_555 1_555
H24 C21 1_555 1_555
H25 C21 1_555 1_555
C22 O8 1_555 1_555
H26 C22 1_555 1_555
C23 O9 1_555 1_555
H27 C23 1_555 1_555
C24 C5 1_555 1_555
H28 C24 1_555 1_555
H29 C24 1_555 1_555
O14 C15 1_555 1_555
C25 O10 1_555 1_555
H30 C25 1_555 1_555
C26 O11 1_555 1_555
H31 C26 1_555 1_555
C27 C3 1_555 1_555
H32 C27 1_555 1_555
C28 O12 1_555 1_555
C29 C4 1_555 1_555
H33 C29 1_555 1_555
H34 C29 1_555 1_555
H35 C29 1_555 1_555
C30 C28 1_555 1_555
H36 C30 1_555 1_555
H37 C30 1_555 1_555
H38 C30 1_555 1_555
O15 H39 1_555 1_555
H40 O15 1_555 1_555
C4 C25 1_555 1_555
C6 C26 1_555 1_555
C7 C8 1_555 1_555
C9 C10 1_555 1_555
C10 C11 1_555 1_555
C12 C22 1_555 1_555
C16 C17 1_555 1_555
C17 C18 1_555 1_555
C17 C23 1_555 1_555
C18 C19 1_555 1_555
C19 C20 1_555 1_555
C23 C24 1_555 1_555
O14 C25 1_555 1_555
C26 C27 1_555 1_555

#END
