
#######################################################################
#
#                 Cambridge Crystallographic Data Centre
#                                CCDC 
#
#######################################################################
#
# If this CIF has been generated from an entry in the Cambridge 
# Structural Database, then it will include bibliographic, chemical, 
# crystal, experimental, refinement or atomic coordinate data resulting 
# from the CCDC's data processing and validation procedures.
#
#######################################################################

data_BICRIO
_chemical_formula_moiety         'C15 H13 N1 O1'
_chemical_name_systematic        4-Ethoxyindeno(1,2-d)azepine
_symmetry_cell_setting           monoclinic
_symmetry_space_group_name_H-M   'P 21/a'
_symmetry_Int_Tables_number      14
_space_group_name_Hall           '-P 2yab'
loop_
_symmetry_equiv_pos_site_id
_symmetry_equiv_pos_as_xyz
1 x,y,z
2 1/2-x,1/2+y,-z
3 -x,-y,-z
4 1/2+x,1/2-y,z
_cell_length_a                   23.752(4)
_cell_length_b                   5.834(1)
_cell_length_c                   8.485(2)
_cell_angle_alpha                90
_cell_angle_beta                 92.22(2)
_cell_angle_gamma                90
_cell_volume                     1174.88
_exptl_crystal_colour            purplish-blue
_chemical_melting_point          388-90K
_cell_formula_units_Z            4
loop_
_atom_site_label
_atom_site_type_symbol
_atom_site_fract_x
_atom_site_fract_y
_atom_site_fract_z
C1 C 0.72717 0.39730 0.86860
C2 C 0.67233 0.35400 0.91040
C3 C 0.64535 0.15270 0.86200
C4 C 0.67166 -0.00900 0.77130
C5 C 0.76545 -0.10040 0.63810
C6 C 0.86330 -0.05400 0.54440
C7 C 0.91339 0.05260 0.53790
N1 N 0.93592 0.24270 0.61410
C8 C 0.90945 0.37830 0.70490
C9 C 0.85140 0.38680 0.75120
C10 C 0.72687 0.03240 0.72910
C11 C 0.81545 0.01260 0.63060
C12 C 0.81128 0.22880 0.72100
C13 C 0.75415 0.23590 0.77840
O1 O 0.93804 0.55410 0.77660
C14 C 0.99657 0.58500 0.74060
C15 C 1.01803 0.77590 0.84370
H1 H 0.74750 0.54100 0.89800
H2 H 0.65220 0.47000 0.97500
H3 H 0.60690 0.12800 0.89200
H4 H 0.65140 -0.15500 0.73900
H5 H 0.75760 -0.25000 0.59000
H6 H 0.86070 -0.20500 0.47700
H7 H 0.94300 -0.03000 0.46800
H8 H 0.84230 0.52500 0.81500
H9 H 0.99780 0.61600 0.62700
H10 H 1.01750 0.43400 0.75700
H11 H 0.99600 0.91600 0.82200
H12 H 1.05760 0.81500 0.81400
H13 H 1.01710 0.73300 0.95400
loop_
_geom_bond_atom_site_label_1
_geom_bond_atom_site_label_2
_geom_bond_site_symmetry_1
_geom_bond_site_symmetry_2
C1 C2 1_555 1_555
C2 C3 1_555 1_555
C3 C4 1_555 1_555
C4 C10 1_555 1_555
C5 C10 1_555 1_555
C6 C7 1_555 1_555
C7 N1 1_555 1_555
N1 C8 1_555 1_555
C8 C9 1_555 1_555
C9 C12 1_555 1_555
C10 C13 1_555 1_555
C11 C5 1_555 1_555
C12 C11 1_555 1_555
C13 C1 1_555 1_555
O1 C8 1_555 1_555
C14 O1 1_555 1_555
C15 C14 1_555 1_555
H1 C1 1_555 1_555
H2 C2 1_555 1_555
H3 C3 1_555 1_555
H4 C4 1_555 1_555
H5 C5 1_555 1_555
H6 C6 1_555 1_555
H7 C7 1_555 1_555
H8 C9 1_555 1_555
H9 C14 1_555 1_555
H10 C14 1_555 1_555
H11 C15 1_555 1_555
H12 C15 1_555 1_555
H13 C15 1_555 1_555
C6 C11 1_555 1_555
C12 C13 1_555 1_555

#END
