
#######################################################################
#
#                 Cambridge Crystallographic Data Centre
#                                CCDC 
#
#######################################################################
#
# If this CIF has been generated from an entry in the Cambridge 
# Structural Database, then it will include bibliographic, chemical, 
# crystal, experimental, refinement or atomic coordinate data resulting 
# from the CCDC's data processing and validation procedures.
#
#######################################################################

data_BICXOD
_chemical_formula_moiety         'C22 H30 O6'
_chemical_name_systematic        
12-hydroxy-3,4a-dimethyldodecahydro-4H,5'H,7H-spiro[6a,12a-epoxy-1-oxacyclohepta[5,6]cycloocta[1,2,3-cd]pentalene-2,2'-oxolane]-4,5'-dione
_symmetry_cell_setting           monoclinic
_symmetry_space_group_name_H-M   'P 21/c'
_symmetry_Int_Tables_number      14
_space_group_name_Hall           '-P 2ybc'
loop_
_symmetry_equiv_pos_site_id
_symmetry_equiv_pos_as_xyz
1 x,y,z
2 -x,1/2+y,1/2-z
3 -x,-y,-z
4 x,1/2-y,1/2+z
_cell_length_a                   12.360(3)
_cell_length_b                   11.2021(16)
_cell_length_c                   15.010(3)
_cell_angle_alpha                90
_cell_angle_beta                 112.76(2)
_cell_angle_gamma                90
_cell_volume                     1916.43
_exptl_crystal_colour            colorless
_exptl_crystal_description       needle
_cell_formula_units_Z            4
loop_
_atom_site_label
_atom_site_type_symbol
_atom_site_fract_x
_atom_site_fract_y
_atom_site_fract_z
O1 O 0.19675(14) 0.54843(14) 0.14249(11)
O2 O 0.22592(16) 0.74410(15) 0.11913(12)
O3 O 0.31822(15) 0.91417(16) 0.20060(14)
O4 O 0.12799(18) 0.5125(2) 0.35217(16)
O5 O 0.47980(16) 0.65100(19) 0.16367(15)
H1 H 0.5151 0.6291 0.2196
C1 C 0.2834(2) 0.6381(2) 0.16853(17)
C2 C 0.2430(2) 0.7688(2) 0.27743(19)
H2 H 0.2795 0.8227 0.3324
C3 C 0.2199(2) 0.8310(2) 0.18342(19)
O6 O 0.35046(19) 1.08821(19) 0.14645(16)
C4 C 0.3279(2) 0.6674(2) 0.27688(17)
H3 H 0.4092 0.6958 0.3012
C5 C 0.2519(2) 0.4324(2) 0.14483(17)
C6 C 0.2717(2) 0.3746(2) 0.24095(17)
H4 H 0.3075 0.2972 0.2425
H5 H 0.1956 0.3607 0.2439
C7 C 0.3474(2) 0.4427(2) 0.33185(18)
H6 H 0.4270 0.4443 0.3345
H7 H 0.3486 0.3976 0.3874
C8 C 0.1123(2) 0.9085(3) 0.1352(2)
H8 H 0.0496 0.8634 0.0873
H9 H 0.0842 0.9402 0.1825
C9 C 0.1623(2) 0.3615(2) 0.06412(18)
H10 H 0.1928 0.2813 0.0661
H11 H 0.0920 0.3552 0.0778
C10 C 0.3117(2) 0.5718(3) 0.34287(17)
C11 C 0.1845(2) 0.5838(3) 0.32834(18)
C12 C 0.3695(2) 0.5958(2) 0.12569(19)
H12 H 0.3350 0.6142 0.0565
C13 C 0.1371(2) 0.7046(3) 0.28396(19)
H13 H 0.0806 0.6905 0.2179
C14 C 0.3695(2) 0.4605(2) 0.13541(19)
H14 H 0.4316 0.4412 0.1980
C15 C 0.2815(3) 1.0121(3) 0.1456(2)
C16 C 0.3982(3) 0.3913(3) 0.0590(2)
H15 H 0.4800 0.4061 0.0711
H16 H 0.3911 0.3069 0.0702
C17 C 0.1533(3) 1.0060(3) 0.0890(2)
H17 H 0.1367 0.9876 0.0218
H18 H 0.1159 1.0810 0.0923
C18 C 0.3809(3) 0.6120(3) 0.44797(18)
H19 H 0.4632 0.6132 0.4607
H20 H 0.3666 0.5573 0.4914
H21 H 0.3560 0.6906 0.4572
C19 C 0.3274(3) 0.4154(3) -0.0473(2)
H22 H 0.3232 0.5011 -0.0572
H23 H 0.3699 0.3824 -0.0841
C20 C 0.2055(3) 0.3669(3) -0.0881(2)
H24 H 0.2097 0.2805 -0.0855
H25 H 0.1693 0.3897 -0.1556
C21 C 0.0736(3) 0.7691(3) 0.3376(2)
H26 H 0.1277 0.7870 0.4020
H27 H 0.0117 0.7194 0.3404
H28 H 0.0409 0.8420 0.3045
C22 C 0.1269(3) 0.4079(3) -0.0377(2)
H29 H 0.1270 0.4944 -0.0360
H30 H 0.0472 0.3822 -0.0755
loop_
_geom_bond_atom_site_label_1
_geom_bond_atom_site_label_2
_geom_bond_site_symmetry_1
_geom_bond_site_symmetry_2
O1 C1 1_555 1_555
O2 C1 1_555 1_555
O3 C3 1_555 1_555
O4 C11 1_555 1_555
O5 H1 1_555 1_555
C1 C4 1_555 1_555
C2 H2 1_555 1_555
C3 O2 1_555 1_555
O6 C15 1_555 1_555
C4 C2 1_555 1_555
H3 C4 1_555 1_555
C5 O1 1_555 1_555
C6 C5 1_555 1_555
H4 C6 1_555 1_555
H5 C6 1_555 1_555
C7 C6 1_555 1_555
H6 C7 1_555 1_555
H7 C7 1_555 1_555
C8 C3 1_555 1_555
H8 C8 1_555 1_555
H9 C8 1_555 1_555
C9 C5 1_555 1_555
H10 C9 1_555 1_555
H11 C9 1_555 1_555
C10 C4 1_555 1_555
C11 C10 1_555 1_555
C12 O5 1_555 1_555
H12 C12 1_555 1_555
C13 C2 1_555 1_555
H13 C13 1_555 1_555
C14 C5 1_555 1_555
H14 C14 1_555 1_555
C15 O3 1_555 1_555
C16 C14 1_555 1_555
H15 C16 1_555 1_555
H16 C16 1_555 1_555
C17 C8 1_555 1_555
H17 C17 1_555 1_555
H18 C17 1_555 1_555
C18 C10 1_555 1_555
H19 C18 1_555 1_555
H20 C18 1_555 1_555
H21 C18 1_555 1_555
C19 C16 1_555 1_555
H22 C19 1_555 1_555
H23 C19 1_555 1_555
C20 C19 1_555 1_555
H24 C20 1_555 1_555
H25 C20 1_555 1_555
C21 C13 1_555 1_555
H26 C21 1_555 1_555
H27 C21 1_555 1_555
H28 C21 1_555 1_555
C22 C9 1_555 1_555
H29 C22 1_555 1_555
H30 C22 1_555 1_555
C1 C12 1_555 1_555
C2 C3 1_555 1_555
C7 C10 1_555 1_555
C11 C13 1_555 1_555
C12 C14 1_555 1_555
C15 C17 1_555 1_555
C20 C22 1_555 1_555

#END
