
#######################################################################
#
#                 Cambridge Crystallographic Data Centre
#                                CCDC 
#
#######################################################################
#
# If this CIF has been generated from an entry in the Cambridge 
# Structural Database, then it will include bibliographic, chemical, 
# crystal, experimental, refinement or atomic coordinate data resulting 
# from the CCDC's data processing and validation procedures.
#
#######################################################################

data_BIDGAZ
_chemical_formula_moiety         'C33 H38 N2 O3'
_chemical_name_systematic        
1-methyl-3-(4-methylphenyl)-3-{2-oxo-2-phenyl-1-[(2,2,6,6-tetramethylpiperidin-1-yl)oxy]ethyl}-1,3-dihydro-2H-indol-2-one
_symmetry_cell_setting           monoclinic
_symmetry_space_group_name_H-M   'P 21/n'
_symmetry_Int_Tables_number      14
_space_group_name_Hall           '-P 2yn'
loop_
_symmetry_equiv_pos_site_id
_symmetry_equiv_pos_as_xyz
1 x,y,z
2 1/2-x,1/2+y,1/2-z
3 -x,-y,-z
4 1/2+x,1/2-y,1/2+z
_cell_length_a                   9.683(3)
_cell_length_b                   21.363(6)
_cell_length_c                   14.386(4)
_cell_angle_alpha                90
_cell_angle_beta                 109.097(3)
_cell_angle_gamma                90
_cell_volume                     2812.08
_exptl_crystal_colour            colorless
_exptl_crystal_description       block
_cell_formula_units_Z            4
loop_
_atom_site_label
_atom_site_type_symbol
_atom_site_fract_x
_atom_site_fract_y
_atom_site_fract_z
O1 O 0.23356(17) 0.52003(8) 0.56348(10)
O2 O 0.63749(16) 0.53515(8) 0.90313(10)
O3 O 0.46998(15) 0.61503(6) 0.73277(10)
N1 N 0.10960(19) 0.56309(8) 0.65955(12)
N2 N 0.58074(19) 0.65082(8) 0.70647(12)
C1 C 0.1418(2) 0.57938(9) 0.75914(15)
C2 C 0.0528(2) 0.61066(10) 0.80139(17)
H1 H -0.044151 0.622231 0.763728
C3 C 0.1101(3) 0.62467(11) 0.90129(18)
H2 H 0.051852 0.646663 0.932323
C4 C 0.2506(3) 0.60697(10) 0.95580(17)
H3 H 0.288252 0.617466 1.023623
C5 C 0.3379(2) 0.57376(10) 0.91222(15)
H4 H 0.433956 0.561191 0.950153
C6 C 0.2824(2) 0.55953(9) 0.81315(14)
C7 C 0.3457(2) 0.52323(9) 0.74486(13)
C8 C 0.2253(2) 0.53441(10) 0.64380(15)
C9 C -0.0218(3) 0.58227(12) 0.58098(17)
H5 H -0.107927 0.564616 0.592880
H6 H -0.017255 0.567032 0.517791
H7 H -0.028597 0.628048 0.579427
C10 C 0.3597(2) 0.45246(9) 0.76579(14)
C11 C 0.3589(2) 0.42778(10) 0.85472(14)
H8 H 0.344767 0.454710 0.903377
C12 C 0.3787(2) 0.36396(10) 0.87340(16)
H9 H 0.377452 0.348084 0.934806
C13 C 0.4002(2) 0.32298(10) 0.80499(18)
C14 C 0.3979(3) 0.34770(11) 0.7155(2)
H10 H 0.409852 0.320531 0.666444
C15 C 0.3786(3) 0.41144(11) 0.69603(17)
H11 H 0.378304 0.427129 0.634185
C16 C 0.4268(3) 0.25427(11) 0.8278(2)
H12 H 0.530566 0.244862 0.841020
H13 H 0.367770 0.229512 0.771502
H14 H 0.399517 0.243791 0.885811
C17 C 0.4898(2) 0.54864(9) 0.73481(13)
H15 H 0.496803 0.534878 0.670076
C18 C 0.6266(2) 0.52559(9) 0.81763(14)
C19 C 0.7446(2) 0.49127(9) 0.79311(14)
C20 C 0.8697(2) 0.47518(10) 0.87078(15)
H16 H 0.877090 0.486547 0.936078
C21 C 0.9827(3) 0.44300(11) 0.85393(17)
H17 H 1.067519 0.432664 0.907479
C22 C 0.9730(3) 0.42572(11) 0.75931(18)
H18 H 1.050651 0.403221 0.748020
C23 C 0.8506(3) 0.44117(11) 0.68141(17)
H19 H 0.844125 0.429534 0.616381
C24 C 0.7367(2) 0.47374(11) 0.69797(15)
H20 H 0.652560 0.484218 0.644018
C25 C 0.6213(3) 0.70222(10) 0.78159(17)
C26 C 0.7227(3) 0.74758(12) 0.7521(2)
H21 H 0.744308 0.783652 0.797857
H22 H 0.816265 0.726056 0.759466
C27 C 0.6594(4) 0.77165(12) 0.6478(2)
H23 H 0.731156 0.798995 0.631944
H24 H 0.570103 0.796423 0.640631
C28 C 0.6229(3) 0.71598(12) 0.5787(2)
H25 H 0.714625 0.693828 0.583161
H26 H 0.579634 0.731452 0.510468
C29 C 0.5162(3) 0.66891(10) 0.59997(16)
C30 C 0.7087(3) 0.67193(13) 0.87939(18)
H27 H 0.643039 0.647077 0.904065
H28 H 0.755020 0.704613 0.927249
H29 H 0.784203 0.644678 0.869574
C31 C 0.4919(3) 0.73784(12) 0.7964(2)
H30 H 0.444525 0.763537 0.738285
H31 H 0.527512 0.764842 0.854461
H32 H 0.421224 0.707797 0.805981
C32 C 0.3601(3) 0.69515(12) 0.57032(19)
H33 H 0.301848 0.669936 0.600671
H34 H 0.315737 0.693668 0.498589
H35 H 0.363165 0.738598 0.592778
C33 C 0.5133(3) 0.61102(11) 0.53671(16)
H36 H 0.608201 0.589826 0.560470
H37 H 0.493344 0.623771 0.468118
H38 H 0.436577 0.582387 0.541025
H39? H 0.668015 0.623591 0.714920
loop_
_geom_bond_atom_site_label_1
_geom_bond_atom_site_label_2
_geom_bond_site_symmetry_1
_geom_bond_site_symmetry_2
O1 C8 1_555 1_555
O2 C18 1_555 1_555
O3 N2 1_555 1_555
N1 C1 1_555 1_555
N2 C25 1_555 1_555
C1 C2 1_555 1_555
C2 H1 1_555 1_555
C3 C2 1_555 1_555
H2 C3 1_555 1_555
C4 C3 1_555 1_555
H3 C4 1_555 1_555
C5 C4 1_555 1_555
H4 C5 1_555 1_555
C6 C1 1_555 1_555
C7 C6 1_555 1_555
C8 N1 1_555 1_555
C9 N1 1_555 1_555
H5 C9 1_555 1_555
H6 C9 1_555 1_555
H7 C9 1_555 1_555
C10 C7 1_555 1_555
C11 C10 1_555 1_555
H8 C11 1_555 1_555
C12 C11 1_555 1_555
H9 C12 1_555 1_555
C13 C12 1_555 1_555
C14 C13 1_555 1_555
H10 C14 1_555 1_555
C15 C10 1_555 1_555
H11 C15 1_555 1_555
C16 C13 1_555 1_555
H12 C16 1_555 1_555
H13 C16 1_555 1_555
H14 C16 1_555 1_555
C17 O3 1_555 1_555
H15 C17 1_555 1_555
C18 C17 1_555 1_555
C19 C18 1_555 1_555
C20 C19 1_555 1_555
H16 C20 1_555 1_555
C21 C20 1_555 1_555
H17 C21 1_555 1_555
C22 C21 1_555 1_555
H18 C22 1_555 1_555
C23 C22 1_555 1_555
H19 C23 1_555 1_555
C24 C19 1_555 1_555
H20 C24 1_555 1_555
C25 C26 1_555 1_555
C26 H21 1_555 1_555
H22 C26 1_555 1_555
C27 C26 1_555 1_555
H23 C27 1_555 1_555
H24 C27 1_555 1_555
C28 C27 1_555 1_555
H25 C28 1_555 1_555
H26 C28 1_555 1_555
C29 N2 1_555 1_555
C30 C25 1_555 1_555
H27 C30 1_555 1_555
H28 C30 1_555 1_555
H29 C30 1_555 1_555
C31 C25 1_555 1_555
H30 C31 1_555 1_555
H31 C31 1_555 1_555
H32 C31 1_555 1_555
C32 C29 1_555 1_555
H33 C32 1_555 1_555
H34 C32 1_555 1_555
H35 C32 1_555 1_555
C33 C29 1_555 1_555
H36 C33 1_555 1_555
H37 C33 1_555 1_555
H38 C33 1_555 1_555
C5 C6 1_555 1_555
C7 C8 1_555 1_555
C7 C17 1_555 1_555
C14 C15 1_555 1_555
C23 C24 1_555 1_555
C28 C29 1_555 1_555

#END
