
#######################################################################
#
#                 Cambridge Crystallographic Data Centre
#                                CCDC 
#
#######################################################################
#
# If this CIF has been generated from an entry in the Cambridge 
# Structural Database, then it will include bibliographic, chemical, 
# crystal, experimental, refinement or atomic coordinate data resulting 
# from the CCDC's data processing and validation procedures.
#
#######################################################################

data_BIDJUW
_chemical_formula_moiety         'C27 H23 N3 O1'
_chemical_name_systematic        
1-methyl-2,2-bis(1-methyl-1H-indol-3-yl)indolin-3-one
_symmetry_cell_setting           monoclinic
_symmetry_space_group_name_H-M   'P 21'
_symmetry_Int_Tables_number      4
_space_group_name_Hall           'P 2yb'
loop_
_symmetry_equiv_pos_site_id
_symmetry_equiv_pos_as_xyz
1 x,y,z
2 -x,1/2+y,-z
_cell_length_a                   8.6288(8)
_cell_length_b                   7.3358(7)
_cell_length_c                   16.8217(14)
_cell_angle_alpha                90
_cell_angle_beta                 103.830(9)
_cell_angle_gamma                90
_cell_volume                     1033.93
_exptl_crystal_colour            colorless
_exptl_crystal_description       block
_cell_formula_units_Z            2
loop_
_atom_site_label
_atom_site_type_symbol
_atom_site_fract_x
_atom_site_fract_y
_atom_site_fract_z
O1 O 0.7561(4) 0.6940(6) 0.2154(2)
N1 N 0.6853(4) 1.1346(6) 0.2815(2)
N2 N 0.3672(5) 1.0870(6) 0.0519(2)
N3 N 0.4123(4) 0.7183(6) 0.3965(2)
C1 C 0.5675(5) 0.7052(7) 0.4406(2)
C2 C 0.6652(5) 0.7897(7) 0.3961(2)
C3 C 0.8285(5) 1.1561(7) 0.2604(3)
C4 C 0.5613(5) 0.8565(7) 0.3217(3)
C5 C 0.8737(5) 0.9933(8) 0.2281(3)
C6 C 0.3050(6) 0.9141(8) 0.0549(3)
C7 C 0.6291(6) 0.6253(7) 0.5173(3)
H1 H 0.5634 0.5689 0.5464
C8 C 0.3820(5) 0.8368(8) 0.1309(3)
C9 C 0.4888(5) 0.9707(7) 0.1741(2)
C10 C 0.4782(5) 1.1183(8) 0.1228(3)
H2 H 0.5383 1.2243 0.1349
C11 C 0.6133(5) 0.9555(7) 0.2545(3)
C12 C 0.7562(6) 0.8570(8) 0.2303(3)
C13 C 0.8899(6) 0.7189(9) 0.5042(3)
H3 H 0.9992 0.7233 0.5269
C14 C 0.4108(5) 0.8128(7) 0.3258(2)
H4 H 0.3192 0.8426 0.2862
C15 C 0.3417(6) 0.6590(8) 0.1456(3)
H5 H 0.3923 0.6004 0.1939
C16 C 1.1068(6) 1.1382(10) 0.2070(3)
H6 H 1.2012 1.1358 0.1896
C17 C 0.8292(5) 0.7956(7) 0.4290(3)
H7 H 0.8965 0.8507 0.4004
C18 C 0.9223(6) 1.3100(8) 0.2663(3)
H8 H 0.8940 1.4182 0.2880
C19 C 0.7908(6) 0.6348(9) 0.5472(3)
H9 H 0.8359 0.5832 0.5979
C20 C 0.3326(7) 1.2046(10) -0.0196(3)
H10 H 0.3900 1.3171 -0.0069
H11 H 0.2201 1.2293 -0.0352
H12 H 0.3647 1.1452 -0.0639
C21 C 1.0590(7) 1.2964(10) 0.2388(3)
H13 H 1.1231 1.3992 0.2417
C22 C 0.1520(7) 0.6533(11) 0.0142(3)
H14 H 0.0733 0.5903 -0.0231
C23 C 1.0149(6) 0.9861(9) 0.2015(3)
H15 H 1.0457 0.8786 0.1803
C24 C 0.1926(7) 0.8241(10) -0.0042(3)
H16 H 0.1469 0.8780 -0.0544
C25 C 0.2263(7) 0.5706(9) 0.0882(3)
H17 H 0.1970 0.4527 0.0989
C26 C 0.6026(6) 1.2759(8) 0.3133(3)
H18 H 0.6560 1.3000 0.3692
H19 H 0.4950 1.2376 0.3105
H20 H 0.6012 1.3846 0.2813
C27 C 0.2742(6) 0.6462(8) 0.4203(3)
H21 H 0.2856 0.5167 0.4278
H22 H 0.1800 0.6719 0.3783
H23 H 0.2654 0.7020 0.4707
loop_
_geom_bond_atom_site_label_1
_geom_bond_atom_site_label_2
_geom_bond_site_symmetry_1
_geom_bond_site_symmetry_2
O1 C12 1_555 1_555
N1 C3 1_555 1_555
N2 C6 1_555 1_555
N3 C1 1_555 1_555
C1 C2 1_555 1_555
C2 C4 1_555 1_555
C3 C5 1_555 1_555
C4 C11 1_555 1_555
C5 C12 1_555 1_555
C6 C8 1_555 1_555
C7 C1 1_555 1_555
H1 C7 1_555 1_555
C8 C9 1_555 1_555
C9 C10 1_555 1_555
C10 N2 1_555 1_555
H2 C10 1_555 1_555
C11 N1 1_555 1_555
C12 C11 1_555 1_555
C13 H3 1_555 1_555
C14 N3 1_555 1_555
H4 C14 1_555 1_555
C15 C8 1_555 1_555
H5 C15 1_555 1_555
C16 H6 1_555 1_555
C17 C2 1_555 1_555
H7 C17 1_555 1_555
C18 C3 1_555 1_555
H8 C18 1_555 1_555
C19 C7 1_555 1_555
H9 C19 1_555 1_555
C20 N2 1_555 1_555
H10 C20 1_555 1_555
H11 C20 1_555 1_555
H12 C20 1_555 1_555
C21 C16 1_555 1_555
H13 C21 1_555 1_555
C22 H14 1_555 1_555
C23 C5 1_555 1_555
H15 C23 1_555 1_555
C24 C6 1_555 1_555
H16 C24 1_555 1_555
C25 C15 1_555 1_555
H17 C25 1_555 1_555
C26 N1 1_555 1_555
H18 C26 1_555 1_555
H19 C26 1_555 1_555
H20 C26 1_555 1_555
C27 N3 1_555 1_555
H21 C27 1_555 1_555
H22 C27 1_555 1_555
H23 C27 1_555 1_555
C4 C14 1_555 1_555
C9 C11 1_555 1_555
C13 C17 1_555 1_555
C13 C19 1_555 1_555
C16 C23 1_555 1_555
C18 C21 1_555 1_555
C22 C24 1_555 1_555
C22 C25 1_555 1_555

#END
