
#######################################################################
#
#                 Cambridge Crystallographic Data Centre
#                                CCDC 
#
#######################################################################
#
# If this CIF has been generated from an entry in the Cambridge 
# Structural Database, then it will include bibliographic, chemical, 
# crystal, experimental, refinement or atomic coordinate data resulting 
# from the CCDC's data processing and validation procedures.
#
#######################################################################

data_BIDKIL
_chemical_formula_moiety         'C18 H17 B1 Cl2 O2'
_chemical_name_systematic        
dichloro-(3-(isopropylidene)-1-oxo-1,4-diphenyl-2-oxabutan-4-yl)-boron
_symmetry_cell_setting           monoclinic
_symmetry_space_group_name_H-M   'P 21/n'
_symmetry_Int_Tables_number      14
_space_group_name_Hall           '-P 2yn'
loop_
_symmetry_equiv_pos_site_id
_symmetry_equiv_pos_as_xyz
1 x,y,z
2 1/2-x,1/2+y,1/2-z
3 -x,-y,-z
4 1/2+x,1/2-y,1/2+z
_cell_length_a                   13.1814(5)
_cell_length_b                   8.4219(4)
_cell_length_c                   15.3446(8)
_cell_angle_alpha                90
_cell_angle_beta                 97.278(4)
_cell_angle_gamma                90
_cell_volume                     1689.72
_exptl_crystal_colour            colorless
_exptl_crystal_description       plate
_cell_formula_units_Z            4
loop_
_atom_site_label
_atom_site_type_symbol
_atom_site_fract_x
_atom_site_fract_y
_atom_site_fract_z
Cl1 Cl 0.85919(5) 0.12596(8) 0.44977(4)
Cl2 Cl 0.93748(4) 0.26177(8) 0.62978(4)
C1 C 0.56980(19) 0.0923(3) 0.64411(17)
H1 H 0.6357 0.0760 0.6758
C2 C 0.55865(18) 0.1827(3) 0.56724(16)
C3 C 0.46186(19) 0.2065(3) 0.52002(17)
H2 H 0.4545 0.2694 0.4682
C4 C 0.37693(19) 0.1377(3) 0.54929(17)
H3 H 0.3111 0.1518 0.5172
C5 C 0.4845(2) 0.0267(4) 0.67378(18)
H4 H 0.4912 -0.0328 0.7268
C6 C 0.3886(2) 0.0480(4) 0.62581(18)
H5 H 0.3303 0.0005 0.6457
O1 O 0.73759(13) 0.2108(2) 0.57259(12)
O2 O 0.63334(13) 0.3444(2) 0.46858(11)
B1 B 0.8347(2) 0.2692(4) 0.53652(19)
C7 C 0.7362(2) 0.5932(3) 0.61939(17)
H6 H 0.6845 0.5144 0.6188
C8 C 0.7364(2) 0.7203(3) 0.67626(17)
H7 H 0.6847 0.7291 0.7138
C9 C 0.88661(19) 0.6946(3) 0.56637(17)
H8 H 0.9387 0.6863 0.5292
C10 C 0.8123(2) 0.8351(3) 0.67859(18)
H9 H 0.8127 0.9224 0.7178
C11 C 0.81068(18) 0.5786(3) 0.56258(15)
C12 C 0.8871(2) 0.8222(4) 0.62381(19)
H10 H 0.9390 0.9007 0.6253
C13 C 0.68679(19) 0.5012(3) 0.35795(16)
C14 C 0.71320(18) 0.4348(3) 0.43581(16)
C15 C 0.64957(18) 0.2482(3) 0.53504(16)
C16 C 0.81175(18) 0.4440(3) 0.49637(16)
H11 H 0.8669 0.4687 0.4593
C17 C 0.7622(2) 0.6060(4) 0.31922(19)
H12 H 0.7275 0.6614 0.2677
H13 H 0.8177 0.5408 0.3017
H14 H 0.7904 0.6841 0.3631
C18 C 0.5838(2) 0.4814(4) 0.30435(19)
H15 H 0.5929 0.4415 0.2458
H16 H 0.5487 0.5841 0.2988
H17 H 0.5429 0.4056 0.3335
loop_
_geom_bond_atom_site_label_1
_geom_bond_atom_site_label_2
_geom_bond_site_symmetry_1
_geom_bond_site_symmetry_2
Cl1 B1 1_555 1_555
Cl2 B1 1_555 1_555
C1 H1 1_555 1_555
C2 C1 1_555 1_555
C3 C2 1_555 1_555
H2 C3 1_555 1_555
C4 C3 1_555 1_555
H3 C4 1_555 1_555
C5 C1 1_555 1_555
H4 C5 1_555 1_555
C6 C4 1_555 1_555
H5 C6 1_555 1_555
O1 B1 1_555 1_555
O2 C14 1_555 1_555
B1 C16 1_555 1_555
C7 H6 1_555 1_555
C8 C7 1_555 1_555
H7 C8 1_555 1_555
C9 H8 1_555 1_555
C10 C8 1_555 1_555
H9 C10 1_555 1_555
C11 C7 1_555 1_555
C12 C9 1_555 1_555
H10 C12 1_555 1_555
C13 C14 1_555 1_555
C14 C16 1_555 1_555
C15 C2 1_555 1_555
C16 C11 1_555 1_555
H11 C16 1_555 1_555
C17 C13 1_555 1_555
H12 C17 1_555 1_555
H13 C17 1_555 1_555
H14 C17 1_555 1_555
C18 C13 1_555 1_555
H15 C18 1_555 1_555
H16 C18 1_555 1_555
H17 C18 1_555 1_555
C5 C6 1_555 1_555
O1 C15 1_555 1_555
O2 C15 1_555 1_555
C9 C11 1_555 1_555
C10 C12 1_555 1_555

#END
