
#######################################################################
#
#                 Cambridge Crystallographic Data Centre
#                                CCDC 
#
#######################################################################
#
# If this CIF has been generated from an entry in the Cambridge 
# Structural Database, then it will include bibliographic, chemical, 
# crystal, experimental, refinement or atomic coordinate data resulting 
# from the CCDC's data processing and validation procedures.
#
#######################################################################

data_BIDMIN
_chemical_formula_moiety         'C64 H56 N4 O8,2.5(C1 H1 Cl3),0.3(C6 H14)'
_chemical_name_systematic        
"diethyl 2,15-bis[2,6-bis(propan-2-yl)phenyl]-1,3,14,16-tetraoxo-1,2,3,8,9,14,15,16-octahydropyrido[3''''',4''''',5''''':5'''',6'''']acenaphtho[1'''',2'''':3''',4''']pyrrolo[2''',1''':3'',4'']pyrazino[1'',2'':1',2']pyrrolo[3',4':2,3]indeno[6,7,1-def]isoquinoline-6,11-dicarboxylate chloroform hexane solvate"
_symmetry_cell_setting           monoclinic
_symmetry_space_group_name_H-M   'P 21/c'
_symmetry_Int_Tables_number      14
_space_group_name_Hall           '-P 2ybc'
loop_
_symmetry_equiv_pos_site_id
_symmetry_equiv_pos_as_xyz
1 x,y,z
2 -x,1/2+y,1/2-z
3 -x,-y,-z
4 x,1/2-y,1/2+z
_cell_length_a                   21.653(7)
_cell_length_b                   14.348(3)
_cell_length_c                   22.739(9)
_cell_angle_alpha                90
_cell_angle_beta                 110.79(4)
_cell_angle_gamma                90
_cell_volume                     6604.5
_exptl_crystal_colour            red
_exptl_crystal_description       plate
_cell_formula_units_Z            4
loop_
_atom_site_label
_atom_site_type_symbol
_atom_site_fract_x
_atom_site_fract_y
_atom_site_fract_z
C1 C 0.24896(17) 0.4649(3) 0.45324(18)
H1 H 0.2579 0.4835 0.4974
H2 H 0.2187 0.4106 0.4434
C2 C 0.21782(18) 0.5453(3) 0.40919(17)
H3 H 0.1746 0.5615 0.4122
H4 H 0.2468 0.6008 0.4211
C3 C 0.25525(17) 0.4622(2) 0.33250(18)
C4 C 0.15699(17) 0.5364(2) 0.28922(17)
C5 C 0.17107(17) 0.4929(2) 0.24135(17)
C6 C 0.23194(17) 0.4434(2) 0.26849(17)
C7 C 0.24165(17) 0.3869(2) 0.21871(17)
C8 C 0.28441(18) 0.3182(2) 0.21391(17)
H5 H 0.3188 0.2964 0.2504
C9 C 0.27642(18) 0.2805(3) 0.15403(18)
H6 H 0.3064 0.2339 0.1511
C10 C 0.22647(17) 0.3091(2) 0.09979(17)
C11 C 0.18074(17) 0.3762(2) 0.10425(17)
C12 C 0.12731(17) 0.4101(2) 0.05228(18)
C13 C 0.08522(17) 0.4750(2) 0.06180(18)
H7 H 0.0507 0.4992 0.0263
C14 C 0.09130(17) 0.5070(2) 0.12231(18)
H8 H 0.0600 0.5493 0.1277
C15 C 0.14348(17) 0.4755(2) 0.17330(17)
C16 C 0.18830(17) 0.4112(2) 0.16274(17)
C17 C 0.21891(18) 0.2721(3) 0.03724(18)
C18 C 0.11854(18) 0.3743(3) -0.01107(19)
C19 C 0.15461(19) 0.2677(3) -0.07606(18)
C20 C 0.1936(2) 0.3015(3) -0.1089(2)
C21 C 0.1814(2) 0.2671(3) -0.1688(2)
H9 H 0.2074 0.2884 -0.1921
C22 C 0.1324(2) 0.2029(3) -0.1953(2)
H10 H 0.1243 0.1813 -0.2369
C23 C 0.0947(2) 0.1694(3) -0.1621(2)
H11 H 0.0614 0.1242 -0.1808
C24 C 0.10468(19) 0.2010(3) -0.10124(19)
C25 C 0.2469(2) 0.3741(3) -0.0803(2)
H12 H 0.2544 0.3782 -0.0343
C26 C 0.2243(3) 0.4700(3) -0.1091(2)
H13 H 0.2592 0.5158 -0.0896
H14 H 0.1841 0.4881 -0.1016
H15 H 0.2152 0.4676 -0.1544
C27 C 0.3127(3) 0.3471(4) -0.0868(4)
H16 H 0.3458 0.3953 -0.0673
H17 H 0.3067 0.3415 -0.1315
H18 H 0.3278 0.2873 -0.0657
C28 C 0.06163(19) 0.1646(3) -0.0663(2)
H19 H 0.0766 0.1946 -0.0238
C29 C -0.0106(2) 0.1919(4) -0.1009(2)
H20 H -0.0377 0.1687 -0.0774
H21 H -0.0262 0.1645 -0.1431
H22 H -0.0143 0.2599 -0.1042
C30 C 0.0673(2) 0.0591(3) -0.0569(2)
H23 H 0.0390 0.0389 -0.0339
H24 H 0.1133 0.0426 -0.0328
H25 H 0.0534 0.0281 -0.0980
C31 C 0.09764(19) 0.5867(3) 0.28769(19)
C32 C -0.01389(19) 0.6179(3) 0.2238(2)
H26 H -0.0392 0.6299 0.1788
H27 H -0.0085 0.6779 0.2466
C33 C -0.0518(2) 0.5513(4) 0.2493(3)
H28 H -0.0950 0.5781 0.2441
H29 H -0.0271 0.5401 0.2941
H30 H -0.0579 0.4922 0.2263
C34 C 0.31404(18) 0.4384(2) 0.38493(18)
C35 C 0.37104(18) 0.4147(2) 0.48891(17)
C36 C 0.41383(18) 0.3983(2) 0.45678(18)
C37 C 0.37863(17) 0.4147(2) 0.39187(18)
C38 C 0.42509(17) 0.4088(2) 0.35790(18)
C39 C 0.42475(18) 0.4220(2) 0.29757(18)
H31 H 0.3852 0.4400 0.2648
C40 C 0.48321(17) 0.4088(3) 0.28466(18)
H32 H 0.4819 0.4171 0.2428
C41 C 0.54241(18) 0.3843(3) 0.33075(18)
C42 C 0.54500(17) 0.3750(2) 0.39365(18)
C43 C 0.60279(18) 0.3549(2) 0.44507(18)
C44 C 0.59993(18) 0.3476(2) 0.50454(18)
H33 H 0.6393 0.3333 0.5388
C45 C 0.54093(18) 0.3606(2) 0.51657(18)
H34 H 0.5405 0.3564 0.5581
C46 C 0.48381(18) 0.3796(2) 0.46644(18)
C47 C 0.48697(18) 0.3874(2) 0.40556(17)
C48 C 0.60328(18) 0.3656(3) 0.31701(18)
C49 C 0.66503(18) 0.3425(3) 0.43321(18)
C50 C 0.71704(18) 0.3097(3) 0.35659(18)
C51 C 0.75748(19) 0.3728(3) 0.34036(19)
C52 C 0.8110(2) 0.3367(3) 0.3276(2)
H35 H 0.8396 0.3778 0.3166
C53 C 0.8231(2) 0.2420(4) 0.3308(2)
H36 H 0.8591 0.2183 0.3208
C54 C 0.7833(2) 0.1816(3) 0.3483(2)
H37 H 0.7929 0.1168 0.3510
C55 C 0.7296(2) 0.2135(3) 0.36195(19)
C56 C 0.7467(2) 0.4781(3) 0.3388(2)
H38 H 0.7054 0.4901 0.3478
C57 C 0.8037(2) 0.5246(3) 0.3907(2)
H39 H 0.7965 0.5921 0.3896
H40 H 0.8452 0.5115 0.3841
H41 H 0.8062 0.5000 0.4316
C58 C 0.7374(3) 0.5193(3) 0.2748(2)
H42 H 0.7303 0.5866 0.2757
H43 H 0.6990 0.4904 0.2430
H44 H 0.7770 0.5073 0.2645
C59 C 0.6880(2) 0.1442(3) 0.3824(2)
H45 H 0.6506 0.1790 0.3882
C60 C 0.6588(2) 0.0703(3) 0.3318(2)
H46 H 0.6320 0.0267 0.3458
H47 H 0.6947 0.0362 0.3245
H48 H 0.6311 0.1004 0.2927
C61 C 0.7289(3) 0.0984(3) 0.4461(2)
H49 H 0.7011 0.0540 0.4581
H50 H 0.7447 0.1466 0.4785
H51 H 0.7668 0.0655 0.4419
C62 C 0.38360(19) 0.4130(3) 0.55646(18)
C63 C 0.4591(2) 0.3590(3) 0.6542(2)
H52 H 0.4993 0.3963 0.6756
H53 H 0.4232 0.3827 0.6676
C64 C 0.4715(5) 0.2632(6) 0.6714(4)
H54 H 0.4841 0.2568 0.7171
H55 H 0.5074 0.2402 0.6585
H56 H 0.4314 0.2266 0.6503
O1 O 0.07455(13) 0.39933(18) -0.05876(12)
O2 O 0.25574(13) 0.21477(18) 0.02749(12)
O3 O 0.09069(14) 0.6277(2) 0.33175(14)
O4 O 0.05084(12) 0.58094(19) 0.23057(13)
O5 O 0.60573(13) 0.36708(19) 0.26465(13)
O6 O 0.71835(12) 0.32931(18) 0.47417(12)
O7 O 0.34913(12) 0.44699(18) 0.58277(12)
O8 O 0.44028(13) 0.36787(19) 0.58662(12)
N1 N 0.20879(14) 0.5170(2) 0.34442(14)
N2 N 0.16403(14) 0.3050(2) -0.01424(15)
N3 N 0.31090(14) 0.4405(2) 0.44430(14)
N4 N 0.65974(14) 0.3428(2) 0.36958(15)
C65 C 0.3053(3) 0.7800(3) 0.3214(2)
H57 H 0.2972 0.8078 0.2790
Cl1 Cl 0.32929(8) 0.66300(8) 0.32094(6)
Cl2 Cl 0.36807(7) 0.84387(9) 0.37832(6)
Cl3 Cl 0.23178(8) 0.78515(10) 0.33809(7)
C66 C 0.6056(8) -0.1303(12) 0.4282(9)
H58 H 0.6308 -0.1857 0.4482
H59 H 0.6336 -0.0749 0.4416
H60 H 0.5912 -0.1367 0.3824
C67 C 0.5454(11) -0.1205(17) 0.4475(13)
H61 H 0.5032 -0.1327 0.4127
H62 H 0.5484 -0.1584 0.4848
C68 C 0.5583(16) -0.0176(16) 0.4623(15)
H63 H 0.5524 -0.0063 0.5029
H64 H 0.6055 -0.0064 0.4694
C69 C 0.5194(16) 0.057(2) 0.4173(15)
H65 H 0.5595 0.0822 0.4118
H66 H 0.5028 0.0117 0.3821
C70 C 0.4765(11) 0.1339(15) 0.3797(9)
H67 H 0.5014 0.1919 0.3801
H68 H 0.4380 0.1470 0.3922
C71 C 0.4584(10) 0.0805(12) 0.3180(9)
H69 H 0.4239 0.1144 0.2850
H70 H 0.4422 0.0184 0.3231
H71 H 0.4976 0.0744 0.3062
C72 C 0.0596(5) -0.2381(6) 0.4203(4)
H72 H 0.0704 -0.2777 0.3903
Cl4 Cl -0.02247(13) -0.27304(17) 0.41400(16)
Cl5 Cl 0.11759(11) -0.28327(17) 0.48921(11)
Cl6 Cl 0.06447(10) -0.11772(13) 0.41699(11)
H73? H 0.4621 0.4220 0.6727
H74? H 0.4239 0.3247 0.6635
C73? C 0.5179(6) 0.3139(9) 0.6824(6)
H75? H 0.5276 0.3107 0.7279
H76? H 0.5532 0.3481 0.6742
H77? H 0.5149 0.2507 0.6654
C74? C 0.0337(9) -0.2375(15) 0.4022(8)
H78? H 0.0594 -0.2892 0.3923
Cl7? Cl 0.0318(4) -0.1405(5) 0.3527(4)
Cl8? Cl 0.0737(4) -0.2032(6) 0.4814(4)
Cl9? Cl -0.0481(5) -0.2742(8) 0.3853(5)
C75? C 0.4785(7) 0.0651(9) 0.3927(6)
H79? H 0.4346 0.0467 0.3942
Cl10? Cl 0.5276(2) -0.0353(2) 0.4025(2)
Cl11? Cl 0.5117(3) 0.1414(3) 0.4474(2)
Cl12? Cl 0.4655(3) 0.1281(4) 0.3200(2)
loop_
_geom_bond_atom_site_label_1
_geom_bond_atom_site_label_2
_geom_bond_site_symmetry_1
_geom_bond_site_symmetry_2
C1 H1 1_555 1_555
H2 C1 1_555 1_555
C2 C1 1_555 1_555
H3 C2 1_555 1_555
H4 C2 1_555 1_555
C3 C6 1_555 1_555
C4 C5 1_555 1_555
C5 C6 1_555 1_555
C6 C7 1_555 1_555
C7 C8 1_555 1_555
C8 H5 1_555 1_555
C9 C8 1_555 1_555
H6 C9 1_555 1_555
C10 C9 1_555 1_555
C11 C10 1_555 1_555
C12 C11 1_555 1_555
C13 C12 1_555 1_555
H7 C13 1_555 1_555
C14 C13 1_555 1_555
H8 C14 1_555 1_555
C15 C5 1_555 1_555
C16 C7 1_555 1_555
C17 C10 1_555 1_555
C18 C12 1_555 1_555
C19 C20 1_555 1_555
C20 C21 1_555 1_555
C21 H9 1_555 1_555
C22 C21 1_555 1_555
H10 C22 1_555 1_555
C23 C22 1_555 1_555
H11 C23 1_555 1_555
C24 C19 1_555 1_555
C25 C20 1_555 1_555
H12 C25 1_555 1_555
C26 C25 1_555 1_555
H13 C26 1_555 1_555
H14 C26 1_555 1_555
H15 C26 1_555 1_555
C27 C25 1_555 1_555
H16 C27 1_555 1_555
H17 C27 1_555 1_555
H18 C27 1_555 1_555
C28 C24 1_555 1_555
H19 C28 1_555 1_555
C29 C28 1_555 1_555
H20 C29 1_555 1_555
H21 C29 1_555 1_555
H22 C29 1_555 1_555
C30 C28 1_555 1_555
H23 C30 1_555 1_555
H24 C30 1_555 1_555
H25 C30 1_555 1_555
C31 C4 1_555 1_555
C32 H26 1_555 1_555
H27 C32 1_555 1_555
C33 C32 1_555 1_555
H28 C33 1_555 1_555
H29 C33 1_555 1_555
H30 C33 1_555 1_555
C34 C3 1_555 1_555
C35 C36 1_555 1_555
C36 C37 1_555 1_555
C37 C34 1_555 1_555
C38 C37 1_555 1_555
C39 C38 1_555 1_555
H31 C39 1_555 1_555
C40 C39 1_555 1_555
H32 C40 1_555 1_555
C41 C40 1_555 1_555
C42 C41 1_555 1_555
C43 C42 1_555 1_555
C44 C43 1_555 1_555
H33 C44 1_555 1_555
C45 C44 1_555 1_555
H34 C45 1_555 1_555
C46 C36 1_555 1_555
C47 C38 1_555 1_555
C48 C41 1_555 1_555
C49 C43 1_555 1_555
C50 C51 1_555 1_555
C51 C52 1_555 1_555
C52 H35 1_555 1_555
C53 C52 1_555 1_555
H36 C53 1_555 1_555
C54 C53 1_555 1_555
H37 C54 1_555 1_555
C55 C50 1_555 1_555
C56 C51 1_555 1_555
H38 C56 1_555 1_555
C57 C56 1_555 1_555
H39 C57 1_555 1_555
H40 C57 1_555 1_555
H41 C57 1_555 1_555
C58 C56 1_555 1_555
H42 C58 1_555 1_555
H43 C58 1_555 1_555
H44 C58 1_555 1_555
C59 C55 1_555 1_555
H45 C59 1_555 1_555
C60 C59 1_555 1_555
H46 C60 1_555 1_555
H47 C60 1_555 1_555
H48 C60 1_555 1_555
C61 C59 1_555 1_555
H49 C61 1_555 1_555
H50 C61 1_555 1_555
H51 C61 1_555 1_555
C62 C35 1_555 1_555
C63 H52 1_555 1_555
H53 C63 1_555 1_555
C64 C63 1_555 1_555
H54 C64 1_555 1_555
H55 C64 1_555 1_555
H56 C64 1_555 1_555
O1 C18 1_555 1_555
O2 C17 1_555 1_555
O3 C31 1_555 1_555
O4 C31 1_555 1_555
O5 C48 1_555 1_555
O6 C49 1_555 1_555
O7 C62 1_555 1_555
O8 C62 1_555 1_555
N1 C2 1_555 1_555
N2 C17 1_555 1_555
N3 C1 1_555 1_555
N4 C48 1_555 1_555
C65 H57 1_555 1_555
Cl1 C65 1_555 1_555
Cl2 C65 1_555 1_555
Cl3 C65 1_555 1_555
C66 H58 1_555 1_555
H59 C66 1_555 1_555
H60 C66 1_555 1_555
C67 C66 1_555 1_555
H61 C67 1_555 1_555
H62 C67 1_555 1_555
C68 C67 1_555 1_555
H63 C68 1_555 1_555
H64 C68 1_555 1_555
C69 C68 1_555 1_555
H65 C69 1_555 1_555
H66 C69 1_555 1_555
C70 C69 1_555 1_555
H67 C70 1_555 1_555
H68 C70 1_555 1_555
C71 C70 1_555 1_555
H69 C71 1_555 1_555
H70 C71 1_555 1_555
H71 C71 1_555 1_555
C72 H72 1_555 1_555
Cl4 C72 1_555 1_555
Cl5 C72 1_555 1_555
Cl6 C72 1_555 1_555
C3 N1 1_555 1_555
C4 N1 1_555 1_555
C11 C16 1_555 1_555
C14 C15 1_555 1_555
C15 C16 1_555 1_555
C18 N2 1_555 1_555
C19 N2 1_555 1_555
C23 C24 1_555 1_555
C32 O4 1_555 1_555
C34 N3 1_555 1_555
C35 N3 1_555 1_555
C42 C47 1_555 1_555
C45 C46 1_555 1_555
C46 C47 1_555 1_555
C49 N4 1_555 1_555
C50 N4 1_555 1_555
C54 C55 1_555 1_555
C63 O8 1_555 1_555

#END
