
#######################################################################
#
#                 Cambridge Crystallographic Data Centre
#                                CCDC 
#
#######################################################################
#
# If this CIF has been generated from an entry in the Cambridge 
# Structural Database, then it will include bibliographic, chemical, 
# crystal, experimental, refinement or atomic coordinate data resulting 
# from the CCDC's data processing and validation procedures.
#
#######################################################################

data_BIDZOG
_chemical_formula_moiety         'C22 H11 F6 N3'
_chemical_name_systematic        
4,4'-{[3,5-bis(trifluoromethyl)phenyl]azanediyl}dibenzonitrile
_symmetry_cell_setting           monoclinic
_symmetry_space_group_name_H-M   'P 21/n'
_symmetry_Int_Tables_number      14
_space_group_name_Hall           '-P 2yn'
loop_
_symmetry_equiv_pos_site_id
_symmetry_equiv_pos_as_xyz
1 x,y,z
2 1/2-x,1/2+y,1/2-z
3 -x,-y,-z
4 1/2+x,1/2-y,1/2+z
_cell_length_a                   11.397(5)
_cell_length_b                   9.435(4)
_cell_length_c                   18.804(8)
_cell_angle_alpha                90
_cell_angle_beta                 93.604(12)
_cell_angle_gamma                90
_cell_volume                     2018.01
_exptl_crystal_colour            yellow
_exptl_crystal_description       block
_cell_formula_units_Z            4
loop_
_atom_site_label
_atom_site_type_symbol
_atom_site_fract_x
_atom_site_fract_y
_atom_site_fract_z
F1 F 0.6028(3) 0.1426(4) 0.05895(17)
N1 N 0.5852(2) 0.5103(3) 0.24889(14)
F2 F 0.4801(4) 0.2117(5) -0.02312(16)
F3 F 0.4254(4) 0.0854(4) 0.0619(3)
C1 C 0.5352(3) 0.5540(4) 0.31226(16)
C2 C 0.7085(3) 0.4924(3) 0.24789(16)
C3 C 0.5121(3) 0.4740(4) 0.18794(16)
C4 C 0.4152(3) 0.5566(4) 0.16727(19)
H1 H 0.397192 0.636427 0.193500
C5 C 0.7701(3) 0.4248(4) 0.30393(18)
H2 H 0.730263 0.391011 0.342152
C6 C 0.5380(3) 0.3556(4) 0.14830(18)
H3 H 0.602341 0.299209 0.162335
C7 C 0.7689(3) 0.5422(4) 0.19084(18)
H4 H 0.728084 0.587732 0.153040
C8 C 0.4385(3) 0.6433(4) 0.43623(17)
C9 C 0.8897(3) 0.4074(4) 0.30332(19)
H5 H 0.930658 0.362884 0.341394
C10 C 0.4279(3) 0.5005(4) 0.33081(19)
H6 H 0.388546 0.433918 0.301715
F4 F 0.1449(3) 0.5362(5) 0.0723(3)
C11 C 0.5934(3) 0.6520(4) 0.35668(19)
H7 H 0.665431 0.688443 0.344830
N2 N 0.3473(4) 0.7340(5) 0.54983(19)
C12 C 0.9493(3) 0.4556(4) 0.2465(2)
C13 C 0.8884(3) 0.5243(4) 0.1901(2)
H8 H 0.928510 0.558026 0.151928
C14 C 0.5449(3) 0.6957(4) 0.41822(19)
H9 H 0.584604 0.761176 0.447828
C15 C 0.4686(3) 0.3211(4) 0.08807(18)
C16 C 0.3794(3) 0.5458(4) 0.3922(2)
H10 H 0.306849 0.510770 0.403981
C17 C 0.3866(4) 0.6921(5) 0.5007(2)
C18 C 0.3720(4) 0.4028(5) 0.06697(19)
H11 H 0.325544 0.379545 0.026212
C19 C 0.3455(3) 0.5192(4) 0.1073(2)
C20 C 1.0732(3) 0.4291(6) 0.2457(3)
N3 N 1.1708(3) 0.4017(7) 0.2449(3)
C21 C 0.4947(4) 0.1910(6) 0.0465(2)
F5 F 0.2138(7) 0.6959(7) 0.1269(5)
C22 C 0.2399(5) 0.6063(6) 0.0849(3)
F6 F 0.2509(5) 0.6635(11) 0.0257(5)
loop_
_geom_bond_atom_site_label_1
_geom_bond_atom_site_label_2
_geom_bond_site_symmetry_1
_geom_bond_site_symmetry_2
F1 C21 1_555 1_555
N1 C1 1_555 1_555
F2 C21 1_555 1_555
F3 C21 1_555 1_555
C1 C10 1_555 1_555
C2 N1 1_555 1_555
C3 N1 1_555 1_555
C4 C3 1_555 1_555
H1 C4 1_555 1_555
C5 C2 1_555 1_555
H2 C5 1_555 1_555
C6 C3 1_555 1_555
H3 C6 1_555 1_555
C7 C2 1_555 1_555
H4 C7 1_555 1_555
C8 C14 1_555 1_555
C9 C5 1_555 1_555
H5 C9 1_555 1_555
C10 H6 1_555 1_555
F4 C22 1_555 1_555
C11 C1 1_555 1_555
H7 C11 1_555 1_555
N2 C17 1_555 1_555
C12 C9 1_555 1_555
C13 C7 1_555 1_555
H8 C13 1_555 1_555
C14 C11 1_555 1_555
H9 C14 1_555 1_555
C15 C6 1_555 1_555
C16 C8 1_555 1_555
H10 C16 1_555 1_555
C17 C8 1_555 1_555
C18 C15 1_555 1_555
H11 C18 1_555 1_555
C19 C4 1_555 1_555
C20 C12 1_555 1_555
N3 C20 1_555 1_555
C21 C15 1_555 1_555
F5 C22 1_555 1_555
C22 C19 1_555 1_555
F6 C22 1_555 1_555
C10 C16 1_555 1_555
C12 C13 1_555 1_555
C18 C19 1_555 1_555

#END
