
#######################################################################
#
#                 Cambridge Crystallographic Data Centre
#                                CCDC 
#
#######################################################################
#
# If this CIF has been generated from an entry in the Cambridge 
# Structural Database, then it will include bibliographic, chemical, 
# crystal, experimental, refinement or atomic coordinate data resulting 
# from the CCDC's data processing and validation procedures.
#
#######################################################################

data_BIDZOF
_chemical_formula_moiety         'C21 H20 O3'
_chemical_name_systematic        
7-Cyclopropyl-2-(4-methoxyphenyl)-2-methyl-1,2-dihydrofuro[3,2-e][1]benzofuran
_symmetry_cell_setting           monoclinic
_symmetry_space_group_name_H-M   'P 21/n'
_symmetry_Int_Tables_number      14
_space_group_name_Hall           '-P 2yn'
loop_
_symmetry_equiv_pos_site_id
_symmetry_equiv_pos_as_xyz
1 x,y,z
2 1/2-x,1/2+y,1/2-z
3 -x,-y,-z
4 1/2+x,1/2-y,1/2+z
_cell_length_a                   5.858(7)
_cell_length_b                   28.33(3)
_cell_length_c                   9.954(11)
_cell_angle_alpha                90
_cell_angle_beta                 90.620(17)
_cell_angle_gamma                90
_cell_volume                     1651.84
_exptl_crystal_colour            colorless
_exptl_crystal_description       block
_cell_formula_units_Z            4
loop_
_atom_site_label
_atom_site_type_symbol
_atom_site_fract_x
_atom_site_fract_y
_atom_site_fract_z
O1 O 0.5276(4) 0.05874(7) 1.0400(2)
O2 O 0.5999(3) 0.25307(6) 0.73016(18)
O3 O 0.6041(3) 0.42192(6) 0.98629(19)
C1 C 0.3228(6) 0.05583(13) 1.1127(4)
H1 H 0.3219 0.0797 1.1810
H2 H 0.3117 0.0253 1.1538
H3 H 0.1953 0.0605 1.0527
C2 C 0.5783(5) 0.10082(9) 0.9802(3)
C3 C 0.4448(4) 0.14071(10) 0.9812(3)
H4 H 0.3060 0.1405 1.0256
C4 C 0.5167(4) 0.18126(9) 0.9160(3)
H5 H 0.4246 0.2080 0.9181
C5 C 0.7212(4) 0.18317(8) 0.8480(2)
C6 C 0.8507(4) 0.14230(9) 0.8465(3)
H6 H 0.9887 0.1422 0.8012
C7 C 0.7800(5) 0.10170(10) 0.9104(3)
H7 H 0.8697 0.0747 0.9064
C8 C 0.8025(4) 0.22877(9) 0.7863(3)
C9 C 0.9645(5) 0.22205(11) 0.6695(3)
H8 H 0.8944 0.2019 0.6033
H9 H 1.1036 0.2078 0.7015
H10 H 0.9978 0.2522 0.6300
C10 C 0.9042(4) 0.26342(8) 0.8940(3)
H11 H 0.8938 0.2502 0.9836
H12 H 1.0626 0.2707 0.8754
C11 C 0.7575(4) 0.30619(8) 0.8793(2)
C12 C 0.5900(4) 0.29744(9) 0.7834(3)
C13 C 0.4220(4) 0.33001(9) 0.7489(3)
H13 H 0.3131 0.3228 0.6834
C14 C 0.4186(4) 0.37302(9) 0.8127(3)
H14 H 0.3095 0.3957 0.7911
C15 C 0.5830(4) 0.38120(9) 0.9097(3)
C16 C 0.7555(4) 0.34974(8) 0.9446(2)
C17 C 0.8846(4) 0.37243(9) 1.0490(3)
H15 H 1.0112 0.3601 1.0940
C18 C 0.7891(4) 0.41480(9) 1.0700(3)
C19 C 0.8428(5) 0.45415(10) 1.1611(3)
H16 H 0.9783 0.4492 1.2180
C20 C 0.6613(6) 0.48287(11) 1.2240(3)
H17 H 0.5040 0.4756 1.2006
H18 H 0.6855 0.4932 1.3159
C21 C 0.8047(5) 0.50398(10) 1.1195(3)
H19 H 0.9171 0.5272 1.1474
H20 H 0.7356 0.5096 1.0320
loop_
_geom_bond_atom_site_label_1
_geom_bond_atom_site_label_2
_geom_bond_site_symmetry_1
_geom_bond_site_symmetry_2
O1 C1 1_555 1_555
O2 C8 1_555 1_555
O3 C15 1_555 1_555
C1 H1 1_555 1_555
H2 C1 1_555 1_555
H3 C1 1_555 1_555
C2 O1 1_555 1_555
C3 C2 1_555 1_555
H4 C3 1_555 1_555
C4 C3 1_555 1_555
H5 C4 1_555 1_555
C5 C4 1_555 1_555
C6 C5 1_555 1_555
H6 C6 1_555 1_555
C7 C2 1_555 1_555
H7 C7 1_555 1_555
C8 C5 1_555 1_555
C9 C8 1_555 1_555
H8 C9 1_555 1_555
H9 C9 1_555 1_555
H10 C9 1_555 1_555
C10 C8 1_555 1_555
H11 C10 1_555 1_555
H12 C10 1_555 1_555
C11 C10 1_555 1_555
C12 O2 1_555 1_555
C13 C12 1_555 1_555
H13 C13 1_555 1_555
C14 C13 1_555 1_555
H14 C14 1_555 1_555
C15 C14 1_555 1_555
C16 C11 1_555 1_555
C17 C16 1_555 1_555
H15 C17 1_555 1_555
C18 O3 1_555 1_555
C19 C18 1_555 1_555
H16 C19 1_555 1_555
C20 C19 1_555 1_555
H17 C20 1_555 1_555
H18 C20 1_555 1_555
C21 C19 1_555 1_555
H19 C21 1_555 1_555
H20 C21 1_555 1_555
C6 C7 1_555 1_555
C11 C12 1_555 1_555
C15 C16 1_555 1_555
C17 C18 1_555 1_555
C20 C21 1_555 1_555

#END
