
#######################################################################
#
#                 Cambridge Crystallographic Data Centre
#                                CCDC 
#
#######################################################################
#
# If this CIF has been generated from an entry in the Cambridge 
# Structural Database, then it will include bibliographic, chemical, 
# crystal, experimental, refinement or atomic coordinate data resulting 
# from the CCDC's data processing and validation procedures.
#
#######################################################################

data_BIFBUP
_chemical_formula_moiety         'C25 H22 Cl1 N3 O5'
_chemical_name_systematic        
'Diethyl 4-(2-amino-1-cyano-2-oxoethyl)-1-(4-chlorophenyl)-5-phenyl-1H-pyrrole-2,3-dicarboxylate'
_symmetry_cell_setting           triclinic
_symmetry_space_group_name_H-M   'P -1'
_symmetry_Int_Tables_number      2
_space_group_name_Hall           '-P 1'
loop_
_symmetry_equiv_pos_site_id
_symmetry_equiv_pos_as_xyz
1 x,y,z
2 -x,-y,-z
_cell_length_a                   10.8394(11)
_cell_length_b                   11.4488(12)
_cell_length_c                   11.4719(9)
_cell_angle_alpha                74.6670(10)
_cell_angle_beta                 81.908(2)
_cell_angle_gamma                63.4950(10)
_cell_volume                     1228.23
_cell_formula_units_Z            2
loop_
_atom_site_label
_atom_site_type_symbol
_atom_site_fract_x
_atom_site_fract_y
_atom_site_fract_z
Cl1 Cl 0.25084(14) 0.72581(13) -0.04586(8)
N1 N 0.2433(2) 0.4795(2) 0.47703(19)
N2 N 0.0476(3) 0.5161(3) 0.8447(2)
H1 H -0.0251 0.5364 0.8908
H2 H 0.0401 0.5386 0.7674
N3 N 0.5126(3) 0.2122(4) 0.8904(3)
O1 O 0.3044(2) 0.2135(2) 0.39453(18)
O2 O 0.0772(2) 0.3408(3) 0.4024(2)
O3 O 0.2321(2) 0.1950(2) 0.83381(17)
O4 O 0.2050(3) 0.1302(2) 0.67449(19)
O5 O 0.1920(2) 0.4143(2) 1.00171(17)
C1 C 0.2260(3) 0.3642(3) 0.5189(2)
C2 C 0.2379(3) 0.3272(3) 0.6430(2)
C3 C 0.2646(3) 0.4253(3) 0.6767(2)
C4 C 0.2652(3) 0.5196(3) 0.5748(2)
C5 C 0.2838(3) 0.6427(3) 0.5599(2)
C6 C 0.2075(4) 0.7320(3) 0.6325(3)
H3 H 0.1411 0.7164 0.6866
C7 C 0.2292(4) 0.8447(4) 0.6254(3)
H4 H 0.1785 0.9030 0.6755
C8 C 0.3249(4) 0.8696(4) 0.5448(3)
H5 H 0.3403 0.9442 0.5408
C9 C 0.3986(4) 0.7842(4) 0.4696(3)
H6 H 0.4620 0.8025 0.4135
C10 C 0.3787(3) 0.6716(3) 0.4771(3)
H7 H 0.4294 0.6142 0.4262
C11 C 0.2444(3) 0.5433(3) 0.3503(2)
C12 C 0.3471(4) 0.4733(4) 0.2751(3)
H8 H 0.4151 0.3887 0.3067
C13 C 0.3473(4) 0.5305(4) 0.1525(3)
H9 H 0.4144 0.4837 0.1010
C14 C 0.2495(4) 0.6545(4) 0.1083(3)
C15 C 0.1485(4) 0.7266(4) 0.1826(3)
H10 H 0.0830 0.8125 0.1507
C16 C 0.1456(4) 0.6692(4) 0.3059(3)
H11 H 0.0776 0.7158 0.3570
C17 C 0.1915(4) 0.3046(3) 0.4340(3)
C18 C 0.2892(4) 0.1602(4) 0.2978(3)
H12 H 0.2328 0.2326 0.2345
H13 H 0.2456 0.0999 0.3289
C19 C 0.4306(4) 0.0870(5) 0.2494(4)
H14 H 0.4669 0.1500 0.2077
H15 H 0.4267 0.0386 0.1943
H16 H 0.4891 0.0253 0.3150
C20 C 0.2237(3) 0.2072(3) 0.7160(3)
C21 C 0.2341(4) 0.0737(4) 0.9167(3)
H17 H 0.3285 0.0061 0.9288
H18 H 0.1840 0.0386 0.8832
C22 C 0.1697(5) 0.1055(5) 1.0328(3)
H19 H 0.2182 0.1426 1.0643
H20 H 0.1738 0.0252 1.0890
H21 H 0.0752 0.1694 1.0208
C23 C 0.1709(3) 0.4505(3) 0.8925(3)
C24 C 0.2934(3) 0.4254(3) 0.8021(2)
H22 H 0.3171 0.5008 0.7916
C25 C 0.4151(4) 0.3053(4) 0.8540(3)
loop_
_geom_bond_atom_site_label_1
_geom_bond_atom_site_label_2
_geom_bond_site_symmetry_1
_geom_bond_site_symmetry_2
Cl1 C14 1_555 1_555
N1 C1 1_555 1_555
N2 H1 1_555 1_555
H2 N2 1_555 1_555
N3 C25 1_555 1_555
O1 C17 1_555 1_555
O2 C17 1_555 1_555
O3 C20 1_555 1_555
O4 C20 1_555 1_555
O5 C23 1_555 1_555
C1 C2 1_555 1_555
C2 C3 1_555 1_555
C3 C4 1_555 1_555
C4 N1 1_555 1_555
C5 C4 1_555 1_555
C6 C5 1_555 1_555
H3 C6 1_555 1_555
C7 C6 1_555 1_555
H4 C7 1_555 1_555
C8 C7 1_555 1_555
H5 C8 1_555 1_555
C9 C8 1_555 1_555
H6 C9 1_555 1_555
C10 C5 1_555 1_555
H7 C10 1_555 1_555
C11 N1 1_555 1_555
C12 C11 1_555 1_555
H8 C12 1_555 1_555
C13 C12 1_555 1_555
H9 C13 1_555 1_555
C14 C13 1_555 1_555
C15 C14 1_555 1_555
H10 C15 1_555 1_555
C16 C11 1_555 1_555
H11 C16 1_555 1_555
C17 C1 1_555 1_555
C18 O1 1_555 1_555
H12 C18 1_555 1_555
H13 C18 1_555 1_555
C19 C18 1_555 1_555
H14 C19 1_555 1_555
H15 C19 1_555 1_555
H16 C19 1_555 1_555
C20 C2 1_555 1_555
C21 O3 1_555 1_555
H17 C21 1_555 1_555
H18 C21 1_555 1_555
C22 C21 1_555 1_555
H19 C22 1_555 1_555
H20 C22 1_555 1_555
H21 C22 1_555 1_555
C23 N2 1_555 1_555
C24 C3 1_555 1_555
H22 C24 1_555 1_555
C25 C24 1_555 1_555
C9 C10 1_555 1_555
C15 C16 1_555 1_555
C23 C24 1_555 1_555

#END
