
#######################################################################
#
#                 Cambridge Crystallographic Data Centre
#                                CCDC 
#
#######################################################################
#
# If this CIF has been generated from an entry in the Cambridge 
# Structural Database, then it will include bibliographic, chemical, 
# crystal, experimental, refinement or atomic coordinate data resulting 
# from the CCDC's data processing and validation procedures.
#
#######################################################################

data_BIFBID01
_chemical_formula_moiety         'C22 H24 N2 O3 S1'
_chemical_name_systematic        
2-methyl-N-(3-(2-oxo-4-phenyl-1,3-oxazolidin-3-yl)-1-phenylprop-2-yn-1-yl)propane-2-sulfinamide
_symmetry_cell_setting           orthorhombic
_symmetry_space_group_name_H-M   'P 21 21 21'
_symmetry_Int_Tables_number      19
_space_group_name_Hall           'P 2ac 2ab'
loop_
_symmetry_equiv_pos_site_id
_symmetry_equiv_pos_as_xyz
1 x,y,z
2 1/2-x,-y,1/2+z
3 -x,1/2+y,1/2-z
4 1/2+x,1/2-y,-z
_cell_length_a                   6.1432(8)
_cell_length_b                   16.245(2)
_cell_length_c                   20.511(3)
_cell_angle_alpha                90
_cell_angle_beta                 90
_cell_angle_gamma                90
_cell_volume                     2046.92
_cell_formula_units_Z            4
loop_
_atom_site_label
_atom_site_type_symbol
_atom_site_fract_x
_atom_site_fract_y
_atom_site_fract_z
S1 S 0.11567(14) 0.68781(5) 0.59131(4)
O1 O -0.0126(4) 0.70485(13) 0.53109(11)
O2 O 0.5375(4) 0.44963(14) 0.35666(11)
O3 O 0.2368(4) 0.37602(13) 0.33455(10)
N1 N 0.3807(4) 0.68260(15) 0.57521(12)
H1 H 0.419(5) 0.7154(15) 0.5412(10)
N2 N 0.2270(5) 0.46036(16) 0.41893(13)
C1 C 0.1203(6) 0.78398(18) 0.63917(15)
C2 C 0.2211(7) 0.7624(2) 0.70417(16)
H2 H 0.2191 0.8109 0.7326
H3 H 0.3718 0.7445 0.6975
H4 H 0.1377 0.7178 0.7245
C3 C -0.1195(6) 0.8081(2) 0.64615(18)
H5 H -0.1311 0.8577 0.6731
H6 H -0.1998 0.7630 0.6669
H7 H -0.1811 0.8190 0.6029
C4 C 0.2465(6) 0.85164(18) 0.60423(15)
H8 H 0.2218 0.9043 0.6263
H9 H 0.1965 0.8556 0.5590
H10 H 0.4022 0.8386 0.6049
C5 C 0.4699(6) 0.59846(19) 0.56441(15)
H11 H 0.6271 0.6057 0.5531
C6 C 0.4639(5) 0.54858(19) 0.62742(15)
C7 C 0.2892(6) 0.49785(19) 0.64296(16)
H12 H 0.1701 0.4929 0.6137
C8 C 0.2885(6) 0.4546(2) 0.70108(16)
H13 H 0.1679 0.4206 0.7117
C9 C 0.4609(6) 0.4606(2) 0.74367(17)
H14 H 0.4587 0.4310 0.7836
C10 C 0.6376(6) 0.5098(2) 0.72808(16)
H15 H 0.7585 0.5133 0.7568
C11 C 0.6367(6) 0.55408(19) 0.67027(15)
H16 H 0.7565 0.5887 0.6600
C12 C 0.3701(6) 0.55323(19) 0.50940(15)
C13 C 0.3049(5) 0.5111(2) 0.46642(16)
C14 C 0.3545(6) 0.43121(19) 0.36915(16)
C15 C 0.0278(6) 0.3612(2) 0.36486(16)
H17 H 0.0174 0.3034 0.3799
H18 H -0.0915 0.3718 0.3335
C16 C 0.0117(6) 0.4208(2) 0.42327(16)
H19 H -0.1049 0.4625 0.4149
C17 C -0.0257(5) 0.38029(19) 0.48875(15)
C18 C 0.1227(6) 0.3239(2) 0.51364(16)
H20 H 0.2476 0.3093 0.4889
C19 C 0.0890(6) 0.2890(2) 0.57435(16)
H21 H 0.1916 0.2508 0.5912
C20 C -0.0934(6) 0.3094(2) 0.61081(15)
H22 H -0.1162 0.2851 0.6524
C21 C -0.2413(6) 0.36518(19) 0.58626(18)
H23 H -0.3662 0.3797 0.6110
C22 C -0.2079(6) 0.4002(2) 0.52528(17)
H24 H -0.3110 0.4382 0.5085
loop_
_geom_bond_atom_site_label_1
_geom_bond_atom_site_label_2
_geom_bond_site_symmetry_1
_geom_bond_site_symmetry_2
S1 O1 1_555 1_555
O2 C14 1_555 1_555
O3 C14 1_555 1_555
N1 S1 1_555 1_555
H1 N1 1_555 1_555
N2 C13 1_555 1_555
C1 S1 1_555 1_555
C2 C1 1_555 1_555
H2 C2 1_555 1_555
H3 C2 1_555 1_555
H4 C2 1_555 1_555
C3 C1 1_555 1_555
H5 C3 1_555 1_555
H6 C3 1_555 1_555
H7 C3 1_555 1_555
C4 C1 1_555 1_555
H8 C4 1_555 1_555
H9 C4 1_555 1_555
H10 C4 1_555 1_555
C5 N1 1_555 1_555
H11 C5 1_555 1_555
C6 C5 1_555 1_555
C7 C6 1_555 1_555
H12 C7 1_555 1_555
C8 C7 1_555 1_555
H13 C8 1_555 1_555
C9 C8 1_555 1_555
H14 C9 1_555 1_555
C10 C9 1_555 1_555
H15 C10 1_555 1_555
C11 C6 1_555 1_555
H16 C11 1_555 1_555
C12 C5 1_555 1_555
C13 C12 1_555 1_555
C14 N2 1_555 1_555
C15 O3 1_555 1_555
H17 C15 1_555 1_555
H18 C15 1_555 1_555
C16 N2 1_555 1_555
H19 C16 1_555 1_555
C17 C16 1_555 1_555
C18 C17 1_555 1_555
H20 C18 1_555 1_555
C19 C18 1_555 1_555
H21 C19 1_555 1_555
C20 C19 1_555 1_555
H22 C20 1_555 1_555
C21 C20 1_555 1_555
H23 C21 1_555 1_555
C22 C17 1_555 1_555
H24 C22 1_555 1_555
C10 C11 1_555 1_555
C15 C16 1_555 1_555
C21 C22 1_555 1_555

#END
