
#######################################################################
#
#                 Cambridge Crystallographic Data Centre
#                                CCDC 
#
#######################################################################
#
# If this CIF has been generated from an entry in the Cambridge 
# Structural Database, then it will include bibliographic, chemical, 
# crystal, experimental, refinement or atomic coordinate data resulting 
# from the CCDC's data processing and validation procedures.
#
#######################################################################

data_BIFBAW
_chemical_formula_moiety         'C22 H17 N3'
_chemical_name_systematic        
4,4'-[(3,5-dimethylphenyl)azanediyl]dibenzonitrile
_symmetry_cell_setting           monoclinic
_symmetry_space_group_name_H-M   'P 21/n'
_symmetry_Int_Tables_number      14
_space_group_name_Hall           '-P 2yn'
loop_
_symmetry_equiv_pos_site_id
_symmetry_equiv_pos_as_xyz
1 x,y,z
2 1/2-x,1/2+y,1/2-z
3 -x,-y,-z
4 1/2+x,1/2-y,1/2+z
_cell_length_a                   8.0139(3)
_cell_length_b                   17.9041(7)
_cell_length_c                   12.7535(5)
_cell_angle_alpha                90
_cell_angle_beta                 107.0010(10)
_cell_angle_gamma                90
_cell_volume                     1749.93
_exptl_crystal_colour            yellow
_exptl_crystal_description       block
_cell_formula_units_Z            4
loop_
_atom_site_label
_atom_site_type_symbol
_atom_site_fract_x
_atom_site_fract_y
_atom_site_fract_z
N1 N 0.13989(13) 0.23591(6) 0.53766(9)
N2 N -0.30161(16) 0.55600(6) 0.55719(10)
C1 C 0.32052(15) 0.23012(7) 0.59455(10)
C2 C 0.04930(15) 0.30267(7) 0.54036(10)
C3 C -0.13239(15) 0.43492(6) 0.54578(10)
C4 C 0.05220(15) 0.17180(7) 0.48045(10)
C5 C 0.67260(16) 0.21924(7) 0.70584(10)
C6 C -0.09914(16) 0.32098(7) 0.45489(10)
H1 H -0.138517 0.288147 0.394136
C7 C -0.22659(16) 0.50243(7) 0.55066(10)
C8 C 0.12621(16) 0.13209(7) 0.41141(10)
H2 H 0.234010 0.148056 0.402054
C9 C -0.18897(16) 0.38619(7) 0.45788(10)
H3 H -0.290139 0.397848 0.399477
C10 C 0.01547(16) 0.41688(7) 0.63141(10)
H4 H 0.055027 0.450056 0.691734
C11 C -0.10608(16) 0.14901(7) 0.49293(11)
H5 H -0.156743 0.176279 0.539806
C12 C -0.11395(16) 0.04713(7) 0.37092(10)
H6 H -0.170142 0.003675 0.334385
C13 C 0.10459(15) 0.35150(7) 0.62933(10)
H7 H 0.204176 0.339470 0.688647
C14 C 0.04346(16) 0.06933(7) 0.35616(10)
C15 C -0.19130(16) 0.08677(7) 0.43764(10)
C16 C 0.61032(16) 0.27970(7) 0.63704(11)
H8 H 0.688639 0.317398 0.628355
C17 C 0.38308(17) 0.16962(7) 0.66254(11)
H9 H 0.304809 0.131790 0.670880
C18 C 0.43557(16) 0.28499(7) 0.58156(11)
H10 H 0.393452 0.326200 0.534302
C19 C 0.55857(17) 0.16405(8) 0.71823(11)
H11 H 0.600930 0.122547 0.764823
C20 C 0.85662(18) 0.21505(9) 0.76104(12)
N3 N 1.00404(18) 0.21369(11) 0.80053(14)
C21 C -0.3647(2) 0.06299(10) 0.45016(14)
H12 H -0.371556 0.077633 0.522831
H13 H -0.376439 0.008645 0.442202
H14 H -0.458950 0.087225 0.393609
C22 C 0.1188(2) 0.02720(10) 0.27804(14)
H15 H 0.048238 0.036920 0.202464
H16 H 0.118177 -0.026440 0.293209
H17 H 0.238928 0.043771 0.287728
loop_
_geom_bond_atom_site_label_1
_geom_bond_atom_site_label_2
_geom_bond_site_symmetry_1
_geom_bond_site_symmetry_2
N1 C1 1_555 1_555
N2 C7 1_555 1_555
C1 C17 1_555 1_555
C2 N1 1_555 1_555
C3 C7 1_555 1_555
C4 N1 1_555 1_555
C5 C16 1_555 1_555
C6 C2 1_555 1_555
H1 C6 1_555 1_555
C8 C4 1_555 1_555
H2 C8 1_555 1_555
C9 C3 1_555 1_555
H3 C9 1_555 1_555
C10 C3 1_555 1_555
H4 C10 1_555 1_555
C11 C4 1_555 1_555
H5 C11 1_555 1_555
C12 H6 1_555 1_555
C13 C2 1_555 1_555
H7 C13 1_555 1_555
C14 C8 1_555 1_555
C15 C11 1_555 1_555
C16 H8 1_555 1_555
C17 H9 1_555 1_555
C18 C1 1_555 1_555
H10 C18 1_555 1_555
C19 C5 1_555 1_555
H11 C19 1_555 1_555
C20 C5 1_555 1_555
N3 C20 1_555 1_555
C21 C15 1_555 1_555
H12 C21 1_555 1_555
H13 C21 1_555 1_555
H14 C21 1_555 1_555
C22 C14 1_555 1_555
H15 C22 1_555 1_555
H16 C22 1_555 1_555
H17 C22 1_555 1_555
C6 C9 1_555 1_555
C10 C13 1_555 1_555
C12 C14 1_555 1_555
C12 C15 1_555 1_555
C16 C18 1_555 1_555
C17 C19 1_555 1_555

#END
