
#######################################################################
#
#                 Cambridge Crystallographic Data Centre
#                                CCDC 
#
#######################################################################
#
# If this CIF has been generated from an entry in the Cambridge 
# Structural Database, then it will include bibliographic, chemical, 
# crystal, experimental, refinement or atomic coordinate data resulting 
# from the CCDC's data processing and validation procedures.
#
#######################################################################

data_BIFBEZ01
_chemical_formula_moiety         'C16 H20 N2 O3 S1'
_chemical_name_systematic        
2-methyl-N-(3-(2-oxo-1,3-oxazolidin-3-yl)-1-phenylprop-2-yn-1-yl)propane-2-sulfinamide
_symmetry_cell_setting           orthorhombic
_symmetry_space_group_name_H-M   'P 21 21 21'
_symmetry_Int_Tables_number      19
_space_group_name_Hall           'P 2ac 2ab'
loop_
_symmetry_equiv_pos_site_id
_symmetry_equiv_pos_as_xyz
1 x,y,z
2 1/2-x,-y,1/2+z
3 -x,1/2+y,1/2-z
4 1/2+x,1/2-y,-z
_cell_length_a                   5.9941(7)
_cell_length_b                   15.9821(19)
_cell_length_c                   16.971(2)
_cell_angle_alpha                90
_cell_angle_beta                 90
_cell_angle_gamma                90
_cell_volume                     1625.79
_exptl_crystal_colour            colorless
_exptl_crystal_description       Plate
_cell_formula_units_Z            4
loop_
_atom_site_label
_atom_site_type_symbol
_atom_site_fract_x
_atom_site_fract_y
_atom_site_fract_z
S1 S 1.01810(9) 0.31329(3) 0.74164(3)
O1 O 1.2250(3) 0.33121(10) 0.69591(9)
O2 O 0.0504(3) 0.57283(11) 0.83910(10)
O3 O 0.1553(3) 0.67559(10) 0.92148(10)
N1 N 0.8957(3) 0.40045(11) 0.77289(10)
H1 H 0.993(3) 0.4395(10) 0.7917(12)
N2 N 0.4178(3) 0.61054(11) 0.85391(11)
C1 C 1.1140(4) 0.27370(14) 0.83792(13)
C2 C 0.9075(5) 0.24984(17) 0.88450(16)
H2 H 0.9522 0.2249 0.9348
H3 H 0.8194 0.2093 0.8543
H4 H 0.8175 0.2999 0.8944
C3 C 1.2529(5) 0.33911(16) 0.87973(15)
H5 H 1.3237 0.3141 0.9261
H6 H 1.1568 0.3855 0.8963
H7 H 1.3682 0.3601 0.8439
C4 C 1.2527(4) 0.19689(15) 0.81796(15)
H8 H 1.3009 0.1695 0.8667
H9 H 1.3839 0.2138 0.7874
H10 H 1.1626 0.1578 0.7868
C5 C 0.7115(4) 0.43217(13) 0.72452(12)
H11 H 0.6047 0.3849 0.7163
C6 C 0.7752(4) 0.46567(13) 0.64340(12)
C7 C 0.9821(4) 0.49890(13) 0.62680(13)
H12 H 1.0949 0.4993 0.6662
C8 C 1.0264(5) 0.53199(15) 0.55238(14)
H13 H 1.1694 0.5547 0.5411
C9 C 0.8641(5) 0.53187(16) 0.49539(15)
H14 H 0.8941 0.5550 0.4449
C10 C 0.6582(5) 0.49823(16) 0.51136(14)
H15 H 0.5466 0.4978 0.4716
C11 C 0.6117(5) 0.46485(15) 0.58511(13)
H16 H 0.4690 0.4416 0.5957
C12 C 0.5945(4) 0.49683(13) 0.77005(12)
C13 C 0.5076(4) 0.54991(12) 0.80818(12)
C14 C 0.1940(4) 0.61504(14) 0.86799(13)
C15 C 0.3611(5) 0.7126(2) 0.9461(2)
H17 H 0.3823 0.7047 1.0034
H18 H 0.3605 0.7733 0.9347
C16 C 0.5452(4) 0.67027(14) 0.90135(14)
H19 H 0.6282 0.7103 0.8679
H20 H 0.6507 0.6415 0.9372
loop_
_geom_bond_atom_site_label_1
_geom_bond_atom_site_label_2
_geom_bond_site_symmetry_1
_geom_bond_site_symmetry_2
S1 O1 1_555 1_555
O2 C14 1_555 1_555
O3 C14 1_555 1_555
N1 S1 1_555 1_555
H1 N1 1_555 1_555
N2 C13 1_555 1_555
C1 S1 1_555 1_555
C2 C1 1_555 1_555
H2 C2 1_555 1_555
H3 C2 1_555 1_555
H4 C2 1_555 1_555
C3 C1 1_555 1_555
H5 C3 1_555 1_555
H6 C3 1_555 1_555
H7 C3 1_555 1_555
C4 C1 1_555 1_555
H8 C4 1_555 1_555
H9 C4 1_555 1_555
H10 C4 1_555 1_555
C5 N1 1_555 1_555
H11 C5 1_555 1_555
C6 C5 1_555 1_555
C7 C6 1_555 1_555
H12 C7 1_555 1_555
C8 C7 1_555 1_555
H13 C8 1_555 1_555
C9 C8 1_555 1_555
H14 C9 1_555 1_555
C10 C9 1_555 1_555
H15 C10 1_555 1_555
C11 C6 1_555 1_555
H16 C11 1_555 1_555
C12 C5 1_555 1_555
C13 C12 1_555 1_555
C14 N2 1_555 1_555
C15 O3 1_555 1_555
H17 C15 1_555 1_555
H18 C15 1_555 1_555
C16 N2 1_555 1_555
H19 C16 1_555 1_555
H20 C16 1_555 1_555
C10 C11 1_555 1_555
C15 C16 1_555 1_555

#END
