
#######################################################################
#
#                 Cambridge Crystallographic Data Centre
#                                CCDC 
#
#######################################################################
#
# If this CIF has been generated from an entry in the Cambridge 
# Structural Database, then it will include bibliographic, chemical, 
# crystal, experimental, refinement or atomic coordinate data resulting 
# from the CCDC's data processing and validation procedures.
#
#######################################################################

data_BIFBOJ
_chemical_formula_moiety         'C18 H16 N2 O3 S1'
_chemical_name_systematic        
3-(1-Oxido-3-phenyl-2,3-dihydro-1,2-thiazol-5-yl)-4-phenyl-1,3-oxazolidin-2-one
_symmetry_cell_setting           orthorhombic
_symmetry_space_group_name_H-M   'P 21 21 21'
_symmetry_Int_Tables_number      19
_space_group_name_Hall           'P 2ac 2ab'
loop_
_symmetry_equiv_pos_site_id
_symmetry_equiv_pos_as_xyz
1 x,y,z
2 1/2-x,-y,1/2+z
3 -x,1/2+y,1/2-z
4 1/2+x,1/2-y,-z
_cell_length_a                   8.5322(6)
_cell_length_b                   11.6406(9)
_cell_length_c                   16.2798(13)
_cell_angle_alpha                90
_cell_angle_beta                 90
_cell_angle_gamma                90
_cell_volume                     1616.91
_exptl_crystal_colour            colorless
_exptl_crystal_description       Needle
_cell_formula_units_Z            4
loop_
_atom_site_label
_atom_site_type_symbol
_atom_site_fract_x
_atom_site_fract_y
_atom_site_fract_z
S1 S 0.19623(4) 0.33265(3) 0.52394(2)
O1 O 0.27865(12) 0.27872(10) 0.45291(6)
O2 O 0.36335(16) 0.53566(11) 0.49135(9)
O3 O 0.60327(15) 0.56819(11) 0.54314(8)
N1 N 0.10801(16) 0.23806(14) 0.58179(9)
H1 H 0.0041(6) 0.2250(18) 0.5741(12)
N2 N 0.46997(15) 0.41972(11) 0.59127(7)
C1 C 0.19882(18) 0.18011(13) 0.64629(9)
H2 H 0.2298 0.1017 0.6271
C2 C 0.34982(16) 0.33999(13) 0.60050(8)
C3 C 0.34145(17) 0.25399(13) 0.65365(9)
H3 H 0.4204 0.2403 0.6936
C4 C 0.10394(16) 0.17030(13) 0.72478(9)
C5 C 0.10869(18) 0.25373(13) 0.78586(10)
H4 H 0.1726 0.3198 0.7786
C6 C 0.02155(19) 0.24200(14) 0.85724(10)
H5 H 0.0260 0.2996 0.8985
C7 C -0.07226(18) 0.14577(14) 0.86823(10)
H6 H -0.1329 0.1376 0.9168
C8 C -0.07704(18) 0.06195(14) 0.80809(10)
H7 H -0.1406 -0.0042 0.8158
C9 C 0.01020(19) 0.07366(14) 0.73659(10)
H8 H 0.0060 0.0156 0.6956
C10 C 0.46785(19) 0.50955(14) 0.53722(10)
C11 C 0.7066(2) 0.51236(17) 0.60115(10)
H9 H 0.7432 0.5680 0.6429
H10 H 0.7991 0.4804 0.5725
C12 C 0.61230(17) 0.41591(13) 0.64193(9)
H11 H 0.6670 0.3410 0.6330
C13 C 0.57740(17) 0.43029(13) 0.73261(9)
C14 C 0.65305(18) 0.36080(13) 0.78918(10)
H12 H 0.7309 0.3082 0.7712
C15 C 0.6154(2) 0.36782(15) 0.87224(10)
H13 H 0.6692 0.3212 0.9109
C16 C 0.5000(2) 0.44232(15) 0.89848(10)
H14 H 0.4722 0.4452 0.9550
C17 C 0.42485(19) 0.51277(15) 0.84255(10)
H15 H 0.3460 0.5645 0.8607
C18 C 0.46469(17) 0.50793(13) 0.75987(9)
H16 H 0.4148 0.5578 0.7218
loop_
_geom_bond_atom_site_label_1
_geom_bond_atom_site_label_2
_geom_bond_site_symmetry_1
_geom_bond_site_symmetry_2
S1 O1 1_555 1_555
O2 C10 1_555 1_555
O3 C10 1_555 1_555
N1 S1 1_555 1_555
H1 N1 1_555 1_555
N2 C2 1_555 1_555
C1 N1 1_555 1_555
H2 C1 1_555 1_555
C2 S1 1_555 1_555
C3 C1 1_555 1_555
H3 C3 1_555 1_555
C4 C1 1_555 1_555
C5 C4 1_555 1_555
H4 C5 1_555 1_555
C6 C5 1_555 1_555
H5 C6 1_555 1_555
C7 C6 1_555 1_555
H6 C7 1_555 1_555
C8 C7 1_555 1_555
H7 C8 1_555 1_555
C9 C4 1_555 1_555
H8 C9 1_555 1_555
C10 N2 1_555 1_555
C11 O3 1_555 1_555
H9 C11 1_555 1_555
H10 C11 1_555 1_555
C12 N2 1_555 1_555
H11 C12 1_555 1_555
C13 C12 1_555 1_555
C14 C13 1_555 1_555
H12 C14 1_555 1_555
C15 C14 1_555 1_555
H13 C15 1_555 1_555
C16 C15 1_555 1_555
H14 C16 1_555 1_555
C17 C16 1_555 1_555
H15 C17 1_555 1_555
C18 C13 1_555 1_555
H16 C18 1_555 1_555
C2 C3 1_555 1_555
C8 C9 1_555 1_555
C11 C12 1_555 1_555
C17 C18 1_555 1_555

#END
