
#######################################################################
#
#                 Cambridge Crystallographic Data Centre
#                                CCDC 
#
#######################################################################
#
# If this CIF has been generated from an entry in the Cambridge 
# Structural Database, then it will include bibliographic, chemical, 
# crystal, experimental, refinement or atomic coordinate data resulting 
# from the CCDC's data processing and validation procedures.
#
#######################################################################

data_BIFKUZ
_chemical_formula_moiety         'C21 H25 N1 S2'
_chemical_name_systematic        
2,2-dimethyl-1-{2-[4-(methylsulfanyl)phenyl]-3,4-dihydroquinolin-1(2H)-yl}propane-1-thione
_symmetry_cell_setting           orthorhombic
_symmetry_space_group_name_H-M   'P 21 21 21'
_symmetry_Int_Tables_number      19
_space_group_name_Hall           'P 2ac 2ab'
loop_
_symmetry_equiv_pos_site_id
_symmetry_equiv_pos_as_xyz
1 x,y,z
2 1/2-x,-y,1/2+z
3 -x,1/2+y,1/2-z
4 1/2+x,1/2-y,-z
_cell_length_a                   9.1337(8)
_cell_length_b                   11.6444(9)
_cell_length_c                   18.3772(14)
_cell_angle_alpha                90
_cell_angle_beta                 90
_cell_angle_gamma                90
_cell_volume                     1954.53
_exptl_crystal_colour            yellow
_exptl_crystal_description       plate
_cell_formula_units_Z            4
loop_
_atom_site_label
_atom_site_type_symbol
_atom_site_fract_x
_atom_site_fract_y
_atom_site_fract_z
N1 N 0.2714(4) 0.2737(4) 0.6107(2)
S1 S 0.08914(16) 0.43513(12) 0.65091(8)
S2 S 0.70974(15) 0.73182(12) 0.52398(7)
C1 C 0.3795(6) 0.1858(4) 0.6235(3)
C2 C 0.4705(6) 0.1878(5) 0.6831(3)
H1 H 0.4681 0.2501 0.7164
C3 C 0.5674(7) 0.0950(6) 0.6937(4)
H2 H 0.6286 0.0927 0.7354
C4 C 0.5731(7) 0.0067(6) 0.6426(4)
H3 H 0.6358 -0.0572 0.6503
C5 C 0.4869(7) 0.0124(5) 0.5806(4)
H4 H 0.4951 -0.0461 0.5448
C6 C 0.3901(6) 0.1011(4) 0.5699(3)
C7 C 0.2980(7) 0.1183(5) 0.5036(3)
H5 H 0.1937 0.1041 0.5151
H6 H 0.3284 0.0645 0.4648
C8 C 0.3195(6) 0.2428(5) 0.4786(3)
H7 H 0.2569 0.2572 0.4355
H8 H 0.4227 0.2537 0.4636
C9 C 0.2816(6) 0.3310(4) 0.5383(3)
H9 H 0.1819 0.3616 0.5268
C10 C 0.1653(5) 0.3054(4) 0.6588(3)
C11 C 0.1088(6) 0.2208(5) 0.7180(3)
C12 C 0.1405(7) 0.0931(5) 0.7033(3)
H10 H 0.1235 0.0762 0.6518
H11 H 0.0754 0.0456 0.7332
H12 H 0.2426 0.0761 0.7157
C13 C 0.1682(6) 0.2552(5) 0.7927(3)
H13 H 0.2752 0.2488 0.7927
H14 H 0.1275 0.204 0.8299
H15 H 0.14 0.3346 0.8034
C14 C -0.0591(6) 0.2322(6) 0.7221(3)
H16 H -0.0852 0.3119 0.7333
H17 H -0.0968 0.1816 0.7603
H18 H -0.1021 0.2104 0.6752
C15 C 0.3855(5) 0.4319(4) 0.5371(3)
C16 C 0.4635(6) 0.4693(5) 0.5975(3)
H19 H 0.4506 0.4318 0.6429
C17 C 0.5603(6) 0.5613(5) 0.5921(3)
H20 H 0.6136 0.585 0.6339
C18 C 0.5804(6) 0.6195(4) 0.5263(3)
C19 C 0.5000(5) 0.5829(4) 0.4662(3)
H21 H 0.5108 0.6213 0.4209
C20 C 0.4043(6) 0.4909(4) 0.4720(3)
H22 H 0.3501 0.4675 0.4305
C21 C 0.7040(7) 0.7766(6) 0.4311(3)
H23 H 0.7354 0.7132 0.3997
H24 H 0.7697 0.8423 0.4242
H25 H 0.6038 0.799 0.4184
loop_
_geom_bond_atom_site_label_1
_geom_bond_atom_site_label_2
_geom_bond_site_symmetry_1
_geom_bond_site_symmetry_2
N1 C1 1_555 1_555
S1 C10 1_555 1_555
S2 C18 1_555 1_555
C1 C2 1_555 1_555
C2 H1 1_555 1_555
C3 C2 1_555 1_555
H2 C3 1_555 1_555
C4 C3 1_555 1_555
H3 C4 1_555 1_555
C5 C4 1_555 1_555
H4 C5 1_555 1_555
C6 C1 1_555 1_555
C7 C6 1_555 1_555
H5 C7 1_555 1_555
H6 C7 1_555 1_555
C8 C7 1_555 1_555
H7 C8 1_555 1_555
H8 C8 1_555 1_555
C9 N1 1_555 1_555
H9 C9 1_555 1_555
C10 N1 1_555 1_555
C11 C10 1_555 1_555
C12 C11 1_555 1_555
H10 C12 1_555 1_555
H11 C12 1_555 1_555
H12 C12 1_555 1_555
C13 C11 1_555 1_555
H13 C13 1_555 1_555
H14 C13 1_555 1_555
H15 C13 1_555 1_555
C14 C11 1_555 1_555
H16 C14 1_555 1_555
H17 C14 1_555 1_555
H18 C14 1_555 1_555
C15 C9 1_555 1_555
C16 C15 1_555 1_555
H19 C16 1_555 1_555
C17 C16 1_555 1_555
H20 C17 1_555 1_555
C18 C17 1_555 1_555
C19 C18 1_555 1_555
H21 C19 1_555 1_555
C20 C15 1_555 1_555
H22 C20 1_555 1_555
C21 S2 1_555 1_555
H23 C21 1_555 1_555
H24 C21 1_555 1_555
H25 C21 1_555 1_555
C5 C6 1_555 1_555
C8 C9 1_555 1_555
C19 C20 1_555 1_555

#END
