
#######################################################################
#
#                 Cambridge Crystallographic Data Centre
#                                CCDC 
#
#######################################################################
#
# If this CIF has been generated from an entry in the Cambridge 
# Structural Database, then it will include bibliographic, chemical, 
# crystal, experimental, refinement or atomic coordinate data resulting 
# from the CCDC's data processing and validation procedures.
#
#######################################################################

data_BIFLEK
_chemical_formula_moiety         'C21 H26 N2 S1'
_chemical_name_systematic        
1-(2,4-diphenylpiperazin-1-yl)-2,2-dimethylpropane-1-thione
_symmetry_cell_setting           monoclinic
_symmetry_space_group_name_H-M   'P 21'
_symmetry_Int_Tables_number      4
_space_group_name_Hall           'P 2yb'
loop_
_symmetry_equiv_pos_site_id
_symmetry_equiv_pos_as_xyz
1 x,y,z
2 -x,1/2+y,-z
_cell_length_a                   6.0292(2)
_cell_length_b                   7.5853(3)
_cell_length_c                   20.2266(8)
_cell_angle_alpha                90
_cell_angle_beta                 91.437(2)
_cell_angle_gamma                90
_cell_volume                     924.738
_exptl_crystal_colour            'pale yellow'
_exptl_crystal_description       plate
_cell_formula_units_Z            2
loop_
_atom_site_label
_atom_site_type_symbol
_atom_site_fract_x
_atom_site_fract_y
_atom_site_fract_z
C1 C 0.6792(7) 0.5712(6) 0.2675(2)
H1 H 0.5926 0.6501 0.2969
C2 C 0.5147(7) 0.4917(6) 0.2177(2)
H2 H 0.3884 0.4412 0.2417
H3 H 0.456 0.5862 0.1884
C3 C 0.7137(8) 0.2163(6) 0.2192(2)
H4 H 0.7893 0.1288 0.1912
H5 H 0.5958 0.1545 0.2433
C4 C 0.8800(7) 0.2948(6) 0.2685(2)
H6 H 0.9424 0.2 0.297
H7 H 1.0035 0.3493 0.2445
C5 C 0.8641(7) 0.6827(6) 0.2393(2)
C6 C 1.0254(8) 0.7512(6) 0.2826(2)
H8 H 1.021 0.7229 0.3283
C7 C 1.1937(8) 0.8610(6) 0.2600(2)
H9 H 1.3012 0.9086 0.2902
C8 C 1.2021(8) 0.8999(6) 0.1929(3)
H10 H 1.3169 0.9731 0.177
C9 C 1.0436(8) 0.8321(6) 0.1494(3)
H11 H 1.0498 0.8592 0.1036
C10 C 0.8752(8) 0.7246(6) 0.1723(2)
H12 H 0.7666 0.6792 0.142
C11 C 0.4804(7) 0.2907(6) 0.1233(2)
C12 C 0.2674(7) 0.3546(6) 0.1098(2)
H13 H 0.206 0.4415 0.1377
C13 C 0.1435(8) 0.2919(7) 0.0555(2)
H14 H -0.0012 0.3373 0.0467
C14 C 0.2283(9) 0.1652(7) 0.0146(2)
H15 H 0.1436 0.1235 -0.0224
C15 C 0.4398(8) 0.0989(8) 0.0280(2)
H16 H 0.4988 0.0099 0.0005
C16 C 0.5643(8) 0.1615(6) 0.0812(2)
H17 H 0.7094 0.1162 0.0893
C17 C 0.7509(7) 0.4313(6) 0.3763(2)
C18 C 0.8515(7) 0.2775(6) 0.4177(2)
C19 C 1.1057(7) 0.2702(7) 0.4107(2)
H18 H 1.1688 0.3875 0.419
H19 H 1.1408 0.2322 0.3659
H20 H 1.169 0.1864 0.4428
C20 C 0.8100(8) 0.3060(7) 0.4916(2)
H21 H 0.8753 0.2084 0.5171
H22 H 0.65 0.3106 0.4987
H23 H 0.8784 0.4172 0.506
C21 C 0.7352(7) 0.1003(7) 0.3997(2)
H24 H 0.7669 0.0689 0.3539
H25 H 0.5747 0.1129 0.4045
H26 H 0.7909 0.0074 0.4295
N1 N 0.7739(6) 0.4290(5) 0.31001(18)
N2 N 0.6139(6) 0.3531(5) 0.17706(18)
S1 S 0.62067(19) 0.59598(17) 0.41327(6)
loop_
_geom_bond_atom_site_label_1
_geom_bond_atom_site_label_2
_geom_bond_site_symmetry_1
_geom_bond_site_symmetry_2
C1 H1 1_555 1_555
C2 C1 1_555 1_555
H2 C2 1_555 1_555
H3 C2 1_555 1_555
C3 H4 1_555 1_555
H5 C3 1_555 1_555
C4 C3 1_555 1_555
H6 C4 1_555 1_555
H7 C4 1_555 1_555
C5 C1 1_555 1_555
C6 C5 1_555 1_555
H8 C6 1_555 1_555
C7 C6 1_555 1_555
H9 C7 1_555 1_555
C8 C7 1_555 1_555
H10 C8 1_555 1_555
C9 C8 1_555 1_555
H11 C9 1_555 1_555
C10 C5 1_555 1_555
H12 C10 1_555 1_555
C11 C12 1_555 1_555
C12 H13 1_555 1_555
C13 C12 1_555 1_555
H14 C13 1_555 1_555
C14 C13 1_555 1_555
H15 C14 1_555 1_555
C15 C14 1_555 1_555
H16 C15 1_555 1_555
C16 C11 1_555 1_555
H17 C16 1_555 1_555
C17 C18 1_555 1_555
C18 C19 1_555 1_555
C19 H18 1_555 1_555
H19 C19 1_555 1_555
H20 C19 1_555 1_555
C20 C18 1_555 1_555
H21 C20 1_555 1_555
H22 C20 1_555 1_555
H23 C20 1_555 1_555
C21 C18 1_555 1_555
H24 C21 1_555 1_555
H25 C21 1_555 1_555
H26 C21 1_555 1_555
N1 C1 1_555 1_555
N2 C2 1_555 1_555
S1 C17 1_555 1_555
C3 N2 1_555 1_555
C4 N1 1_555 1_555
C9 C10 1_555 1_555
C11 N2 1_555 1_555
C15 C16 1_555 1_555
C17 N1 1_555 1_555

#END
