
#######################################################################
#
#                 Cambridge Crystallographic Data Centre
#                                CCDC 
#
#######################################################################
#
# If this CIF has been generated from an entry in the Cambridge 
# Structural Database, then it will include bibliographic, chemical, 
# crystal, experimental, refinement or atomic coordinate data resulting 
# from the CCDC's data processing and validation procedures.
#
#######################################################################

data_BIFLAG
_chemical_formula_moiety         'C17 H25 N1 S1'
_chemical_name_systematic        
2,2-dimethyl-1-(2-phenylazepan-1-yl)propane-1-thione
_symmetry_cell_setting           triclinic
_symmetry_space_group_name_H-M   'P 1'
_symmetry_Int_Tables_number      1
_space_group_name_Hall           'P 1'
loop_
_symmetry_equiv_pos_site_id
_symmetry_equiv_pos_as_xyz
1 x,y,z
_cell_length_a                   6.8637(3)
_cell_length_b                   7.8212(3)
_cell_length_c                   8.2480(3)
_cell_angle_alpha                102.4340(10)
_cell_angle_beta                 94.1030(10)
_cell_angle_gamma                112.0730(10)
_cell_volume                     394.968
_exptl_crystal_colour            colorless
_exptl_crystal_description       prism
_cell_formula_units_Z            1
loop_
_atom_site_label
_atom_site_type_symbol
_atom_site_fract_x
_atom_site_fract_y
_atom_site_fract_z
C1 C 0.5766(4) 0.4577(4) 0.5340(3)
H1 H 0.6609 0.4782 0.4407
C2 C 0.5874(4) 0.2825(4) 0.5850(3)
H2 H 0.7318 0.2852 0.5778
H3 H 0.5686 0.2951 0.7043
C3 C 0.4232(4) 0.0869(4) 0.4797(4)
H4 H 0.3967 0.0929 0.3619
H5 H 0.4838 -0.0097 0.4796
C4 C 0.2111(5) 0.0224(4) 0.5440(4)
H6 H 0.2398 0.0321 0.6658
H7 H 0.1258 -0.1139 0.4858
C5 C 0.0785(4) 0.1369(4) 0.5186(4)
H8 H 0.0219 0.1043 0.3971
H9 H -0.0446 0.0987 0.5784
C6 C 0.2046(4) 0.3527(3) 0.5817(3)
H10 H 0.1048 0.4172 0.5881
H11 H 0.2843 0.384 0.6965
C7 C 0.6766(4) 0.6397(3) 0.6784(3)
C8 C 0.5844(4) 0.7731(4) 0.7091(3)
H12 H 0.4556 0.7501 0.6401
C9 C 0.6801(5) 0.9392(4) 0.8399(3)
H13 H 0.6158 1.0286 0.8593
C10 C 0.8678(5) 0.9757(4) 0.9421(3)
H14 H 0.9328 1.0896 1.0309
C11 C 0.9593(5) 0.8446(5) 0.9131(4)
H15 H 1.0877 0.8683 0.9831
C12 C 0.8655(5) 0.6780(4) 0.7827(3)
H16 H 0.9307 0.5893 0.7645
C13 C 0.2898(4) 0.4668(3) 0.3307(3)
C14 C 0.4414(4) 0.5225(4) 0.2017(3)
C15 C 0.3294(5) 0.5664(5) 0.0571(4)
H17 H 0.2929 0.6749 0.1026
H18 H 0.199 0.4541 0.0014
H19 H 0.4251 0.598 -0.0247
C16 C 0.6463(4) 0.7054(4) 0.2769(3)
H20 H 0.7334 0.7331 0.1891
H21 H 0.7278 0.6861 0.3687
H22 H 0.6077 0.8131 0.3207
C17 C 0.4930(4) 0.3509(4) 0.1203(3)
H23 H 0.3602 0.241 0.0649
H24 H 0.5662 0.3181 0.2075
H25 H 0.5853 0.3847 0.0368
N1 N 0.3557(3) 0.4238(3) 0.4687(2)
S1 S 0.03920(7) 0.45079(7) 0.29252(6)
loop_
_geom_bond_atom_site_label_1
_geom_bond_atom_site_label_2
_geom_bond_site_symmetry_1
_geom_bond_site_symmetry_2
C1 H1 1_555 1_555
C2 C1 1_555 1_555
H2 C2 1_555 1_555
H3 C2 1_555 1_555
C3 C2 1_555 1_555
H4 C3 1_555 1_555
H5 C3 1_555 1_555
C4 C3 1_555 1_555
H6 C4 1_555 1_555
H7 C4 1_555 1_555
C5 C4 1_555 1_555
H8 C5 1_555 1_555
H9 C5 1_555 1_555
C6 C5 1_555 1_555
H10 C6 1_555 1_555
H11 C6 1_555 1_555
C7 C1 1_555 1_555
C8 C7 1_555 1_555
H12 C8 1_555 1_555
C9 C8 1_555 1_555
H13 C9 1_555 1_555
C10 C9 1_555 1_555
H14 C10 1_555 1_555
C11 C10 1_555 1_555
H15 C11 1_555 1_555
C12 C7 1_555 1_555
H16 C12 1_555 1_555
C13 C14 1_555 1_555
C14 C15 1_555 1_555
C15 H17 1_555 1_555
H18 C15 1_555 1_555
H19 C15 1_555 1_555
C16 C14 1_555 1_555
H20 C16 1_555 1_555
H21 C16 1_555 1_555
H22 C16 1_555 1_555
C17 C14 1_555 1_555
H23 C17 1_555 1_555
H24 C17 1_555 1_555
H25 C17 1_555 1_555
N1 C1 1_555 1_555
S1 C13 1_555 1_555
C6 N1 1_555 1_555
C11 C12 1_555 1_555
C13 N1 1_555 1_555

#END
