
#######################################################################
#
#                 Cambridge Crystallographic Data Centre
#                                CCDC 
#
#######################################################################
#
# If this CIF has been generated from an entry in the Cambridge 
# Structural Database, then it will include bibliographic, chemical, 
# crystal, experimental, refinement or atomic coordinate data resulting 
# from the CCDC's data processing and validation procedures.
#
#######################################################################

data_BIFNEL
_chemical_formula_moiety         'C18 H24 N2 O9 S1'
_chemical_name_systematic        
'Methyl (3-hydroxy-1-((4-nitrophenyl)sulfonyl)decahydropyrano[2,3-c][1,5]oxazocin-8-yl)acetate'
_symmetry_cell_setting           orthorhombic
_symmetry_space_group_name_H-M   'P 21 21 21'
_symmetry_Int_Tables_number      19
_space_group_name_Hall           'P 2ac 2ab'
loop_
_symmetry_equiv_pos_site_id
_symmetry_equiv_pos_as_xyz
1 x,y,z
2 1/2-x,-y,1/2+z
3 -x,1/2+y,1/2-z
4 1/2+x,1/2-y,-z
_cell_length_a                   6.9155(2)
_cell_length_b                   12.1618(3)
_cell_length_c                   23.7255(5)
_cell_angle_alpha                90
_cell_angle_beta                 90
_cell_angle_gamma                90
_cell_volume                     1995.43
_exptl_crystal_colour            colorless
_exptl_crystal_description       block
_cell_formula_units_Z            4
loop_
_atom_site_label
_atom_site_type_symbol
_atom_site_fract_x
_atom_site_fract_y
_atom_site_fract_z
S1 S 0.34099(6) 0.42354(3) 0.166956(17)
O1 O 0.27705(19) 0.34602(11) 0.20861(5)
O2 O 0.21190(18) 0.50659(11) 0.14682(5)
C1 C 0.5483(3) 0.48956(15) 0.19527(7)
C2 C 0.5745(3) 0.60186(15) 0.18692(7)
H1 H 0.4767 0.6449 0.1695
C3 C 0.7456(3) 0.64958(15) 0.20448(8)
H2 H 0.7676 0.7260 0.1993
C4 C 0.8845(3) 0.58394(16) 0.22979(7)
N1 N 1.0706(3) 0.63413(14) 0.24533(7)
O3 O 1.1731(2) 0.58633(15) 0.27892(6)
O4 O 1.1128(2) 0.72209(12) 0.22249(7)
C5 C 0.8574(3) 0.47283(15) 0.24001(7)
H3 H 0.9541 0.4306 0.2585
C6 C 0.6865(3) 0.42509(15) 0.22270(7)
H4 H 0.6630 0.3492 0.2294
N2 N 0.4214(2) 0.35393(13) 0.11282(6)
C7 C 0.4015(3) 0.39915(16) 0.05509(7)
H5 H 0.2760 0.4381 0.0525
H6 H 0.3977 0.3371 0.0281
C8 C 0.5624(3) 0.47854(16) 0.03691(8)
H7 H 0.5652 0.4806 -0.0052
C9 C 0.7640(3) 0.44811(17) 0.05755(8)
H8 H 0.8580 0.5028 0.0433
H9 H 0.7664 0.4510 0.0992
O5 O 0.5316(2) 0.58796(12) 0.05687(6)
H10 H 0.4490 0.6193 0.0365
O6 O 0.8212(2) 0.34153(12) 0.03960(5)
C10 C 0.8138(3) 0.25754(16) 0.08134(8)
H11 H 0.8325 0.2912 0.1189
H12 H 0.9217 0.2055 0.0749
C11 C 0.6243(3) 0.19418(15) 0.08114(7)
H13 H 0.5715 0.1923 0.0419
O7 O 0.67351(18) 0.08445(11) 0.09822(5)
C12 C 0.5178(3) 0.00774(16) 0.09418(8)
H14 H 0.4761 0.0008 0.0540
C13 C 0.3476(3) 0.04413(16) 0.13011(8)
H15 H 0.3828 0.0390 0.1705
H16 H 0.2363 -0.0053 0.1233
C14 C 0.2901(3) 0.16245(16) 0.11609(8)
H17 H 0.2387 0.1662 0.0772
H18 H 0.1878 0.1876 0.1423
C15 C 0.4667(3) 0.23607(15) 0.12147(7)
H19 H 0.5171 0.2278 0.1607
C16 C 0.5994(3) -0.10075(17) 0.11435(9)
H20 H 0.6519 -0.0913 0.1529
H21 H 0.4938 -0.1556 0.1163
C17 C 0.7572(3) -0.14379(15) 0.07629(9)
O8 O 0.7531(2) -0.13720(11) 0.02538(6)
O9 O 0.8971(2) -0.19200(12) 0.10544(6)
C18 C 1.0439(4) -0.2481(2) 0.07282(11)
H22 H 0.9817 -0.2956 0.0448
H23 H 1.1239 -0.2930 0.0980
H24 H 1.1253 -0.1938 0.0536
loop_
_geom_bond_atom_site_label_1
_geom_bond_atom_site_label_2
_geom_bond_site_symmetry_1
_geom_bond_site_symmetry_2
S1 O1 1_555 1_555
O2 S1 1_555 1_555
C1 S1 1_555 1_555
C2 C1 1_555 1_555
H1 C2 1_555 1_555
C3 C2 1_555 1_555
H2 C3 1_555 1_555
C4 C3 1_555 1_555
N1 C4 1_555 1_555
O3 N1 1_555 1_555
O4 N1 1_555 1_555
C5 C4 1_555 1_555
H3 C5 1_555 1_555
C6 C1 1_555 1_555
H4 C6 1_555 1_555
N2 S1 1_555 1_555
C7 N2 1_555 1_555
H5 C7 1_555 1_555
H6 C7 1_555 1_555
C8 C7 1_555 1_555
H7 C8 1_555 1_555
C9 C8 1_555 1_555
H8 C9 1_555 1_555
H9 C9 1_555 1_555
O5 C8 1_555 1_555
H10 O5 1_555 1_555
O6 C9 1_555 1_555
C10 O6 1_555 1_555
H11 C10 1_555 1_555
H12 C10 1_555 1_555
C11 C10 1_555 1_555
H13 C11 1_555 1_555
O7 C11 1_555 1_555
C12 O7 1_555 1_555
H14 C12 1_555 1_555
C13 C12 1_555 1_555
H15 C13 1_555 1_555
H16 C13 1_555 1_555
C14 C13 1_555 1_555
H17 C14 1_555 1_555
H18 C14 1_555 1_555
C15 N2 1_555 1_555
H19 C15 1_555 1_555
C16 C12 1_555 1_555
H20 C16 1_555 1_555
H21 C16 1_555 1_555
C17 C16 1_555 1_555
O8 C17 1_555 1_555
O9 C17 1_555 1_555
C18 O9 1_555 1_555
H22 C18 1_555 1_555
H23 C18 1_555 1_555
H24 C18 1_555 1_555
C5 C6 1_555 1_555
C11 C15 1_555 1_555
C14 C15 1_555 1_555

#END
