
#######################################################################
#
#                 Cambridge Crystallographic Data Centre
#                                CCDC 
#
#######################################################################
#
# If this CIF has been generated from an entry in the Cambridge 
# Structural Database, then it will include bibliographic, chemical, 
# crystal, experimental, refinement or atomic coordinate data resulting 
# from the CCDC's data processing and validation procedures.
#
#######################################################################

data_BIFNIP
_chemical_formula_moiety         'C17 H18 N2 O7'
_chemical_name_systematic        
'Methyl (5-methyl-8-nitro-6-oxo-2,4a,5,6,12,12a-hexahydropyrano[2,3-c][1,5]benzoxazocin-2-yl)acetate'
_symmetry_cell_setting           orthorhombic
_symmetry_space_group_name_H-M   'P 21 21 21'
_symmetry_Int_Tables_number      19
_space_group_name_Hall           'P 2ac 2ab'
loop_
_symmetry_equiv_pos_site_id
_symmetry_equiv_pos_as_xyz
1 x,y,z
2 1/2-x,-y,1/2+z
3 -x,1/2+y,1/2-z
4 1/2+x,1/2-y,-z
_cell_length_a                   6.83520(10)
_cell_length_b                   9.3359(2)
_cell_length_c                   25.6298(5)
_cell_angle_alpha                90
_cell_angle_beta                 90
_cell_angle_gamma                90
_cell_volume                     1635.51
_exptl_crystal_colour            colorless
_exptl_crystal_description       plate
_cell_formula_units_Z            4
loop_
_atom_site_label
_atom_site_type_symbol
_atom_site_fract_x
_atom_site_fract_y
_atom_site_fract_z
O1 O 0.27678(14) 0.61730(10) 0.18524(3)
O2 O 0.43598(14) 0.32256(10) 0.10300(3)
O3 O 0.63762(15) 0.67069(11) 0.02199(4)
O4 O 0.4112(2) 0.42088(12) -0.13902(4)
O5 O 0.36597(15) 0.19257(12) -0.13453(4)
O6 O -0.23579(16) 0.75020(10) 0.26607(4)
O7 O -0.32264(14) 0.51888(10) 0.27336(4)
N1 N 0.36014(16) 0.67580(12) 0.07068(4)
N2 N 0.39406(17) 0.30957(14) -0.11424(4)
C1 C 0.0899(2) 0.67415(15) 0.20045(5)
H1 H 0.1143 0.7607 0.2225
C2 C -0.0281(2) 0.72067(14) 0.15394(5)
H2 H -0.1427 0.7760 0.1597
C3 C 0.0202(2) 0.68805(14) 0.10516(5)
H3 H -0.0568 0.7236 0.0771
C4 C 0.19565(19) 0.59543(14) 0.09371(5)
H4 H 0.1543 0.5213 0.0678
C5 C 0.2591(2) 0.51708(14) 0.14339(5)
H5 H 0.1575 0.4443 0.1527
C6 C 0.4557(2) 0.44284(14) 0.13824(5)
H6 H 0.5542 0.5109 0.1245
H7 H 0.5001 0.4089 0.1729
C7 C 0.42794(18) 0.33569(14) 0.05017(5)
C8 C 0.40142(19) 0.20275(14) 0.02545(5)
H8 H 0.3909 0.1186 0.0461
C9 C 0.39027(19) 0.19180(15) -0.02816(5)
H9 H 0.3714 0.1017 -0.0447
C10 C 0.40764(19) 0.31693(15) -0.05729(5)
C11 C 0.43632(19) 0.44809(14) -0.03414(5)
H10 H 0.4500 0.5311 -0.0553
C12 C 0.44556(18) 0.46076(14) 0.02027(5)
C13 C 0.4894(2) 0.61168(14) 0.03884(5)
C14 C 0.4075(2) 0.81970(15) 0.08953(6)
H11 H 0.3020 0.8540 0.1122
H12 H 0.4217 0.8847 0.0598
H13 H 0.5303 0.8167 0.1092
C15 C -0.0204(2) 0.56474(14) 0.23398(5)
H14 H -0.0574 0.4821 0.2119
H15 H 0.0683 0.5291 0.2616
C16 C -0.2021(2) 0.62473(15) 0.25912(5)
C17 C -0.5011(2) 0.56276(16) 0.29926(5)
H16 H -0.4698 0.6006 0.3339
H17 H -0.5885 0.4801 0.3028
H18 H -0.5659 0.6373 0.2786
H19? H 0.5340 0.8496 0.0752
H20? H 0.4143 0.8189 0.1277
H21? H 0.3057 0.8869 0.0783
loop_
_geom_bond_atom_site_label_1
_geom_bond_atom_site_label_2
_geom_bond_site_symmetry_1
_geom_bond_site_symmetry_2
O1 C1 1_555 1_555
O2 C6 1_555 1_555
O3 C13 1_555 1_555
O4 N2 1_555 1_555
O5 N2 1_555 1_555
O6 C16 1_555 1_555
O7 C16 1_555 1_555
N1 C4 1_555 1_555
N2 C10 1_555 1_555
C1 H1 1_555 1_555
C2 C1 1_555 1_555
H2 C2 1_555 1_555
C3 C2 1_555 1_555
H3 C3 1_555 1_555
C4 C3 1_555 1_555
H4 C4 1_555 1_555
C5 O1 1_555 1_555
H5 C5 1_555 1_555
C6 C5 1_555 1_555
H6 C6 1_555 1_555
H7 C6 1_555 1_555
C7 O2 1_555 1_555
C8 C7 1_555 1_555
H8 C8 1_555 1_555
C9 C8 1_555 1_555
H9 C9 1_555 1_555
C10 C9 1_555 1_555
C11 C10 1_555 1_555
H10 C11 1_555 1_555
C12 C7 1_555 1_555
C13 N1 1_555 1_555
C14 N1 1_555 1_555
H11 C14 1_555 1_555
H12 C14 1_555 1_555
H13 C14 1_555 1_555
C15 C1 1_555 1_555
H14 C15 1_555 1_555
H15 C15 1_555 1_555
C16 C15 1_555 1_555
C17 O7 1_555 1_555
H16 C17 1_555 1_555
H17 C17 1_555 1_555
H18 C17 1_555 1_555
C4 C5 1_555 1_555
C11 C12 1_555 1_555
C12 C13 1_555 1_555

#END
