
#######################################################################
#
#                 Cambridge Crystallographic Data Centre
#                                CCDC 
#
#######################################################################
#
# If this CIF has been generated from an entry in the Cambridge 
# Structural Database, then it will include bibliographic, chemical, 
# crystal, experimental, refinement or atomic coordinate data resulting 
# from the CCDC's data processing and validation procedures.
#
#######################################################################

data_BIFRUF
_chemical_formula_moiety         'C26 H29 N1 O7'
_chemical_name_systematic        
'Ethyl 3a,6-dimethyl-2-((4-nitrobenzoyl)oxy)-4-oxo-2,3,3a,4,6,7,8,8a,9,10-decahydrobenzo[f]azulene-5-carboxylate'
_symmetry_cell_setting           monoclinic
_symmetry_space_group_name_H-M   'P 21/c'
_symmetry_Int_Tables_number      14
_space_group_name_Hall           '-P 2ybc'
loop_
_symmetry_equiv_pos_site_id
_symmetry_equiv_pos_as_xyz
1 x,y,z
2 -x,1/2+y,1/2-z
3 -x,-y,-z
4 x,1/2-y,1/2+z
_cell_length_a                   24.1779(17)
_cell_length_b                   7.16210(10)
_cell_length_c                   14.2437(2)
_cell_angle_alpha                90
_cell_angle_beta                 105.839(7)
_cell_angle_gamma                90
_cell_volume                     2372.86
_exptl_crystal_colour            colorless
_cell_formula_units_Z            4
loop_
_atom_site_label
_atom_site_type_symbol
_atom_site_fract_x
_atom_site_fract_y
_atom_site_fract_z
O1 O 0.36506(5) 0.57934(19) 0.74167(9)
O2 O 0.41073(6) 0.8116(2) 0.83875(9)
O3 O 0.47351(6) 0.1851(2) 1.22172(9)
O4 O 0.46875(6) -0.0395(2) 1.11799(10)
O5 O 0.19539(6) 0.8057(2) 0.65478(9)
O6 O 0.16702(6) 1.2104(2) 0.61697(9)
O7 O 0.08528(6) 1.1065(2) 0.64517(10)
N1 N 0.46368(7) 0.1256(3) 1.13820(11)
C1 C 0.40752(8) 0.3171(3) 0.88719(14)
C2 C 0.44464(8) 0.2596(3) 1.05759(13)
C3 C 0.43071(8) 0.5717(3) 1.00227(13)
C4 C 0.39595(8) 0.6496(3) 0.82741(13)
C5 C 0.41048(8) 0.5073(3) 0.90669(13)
C6 C 0.35389(8) 0.7105(3) 0.65917(13)
C7 C 0.11903(8) 1.1080(3) 0.59692(14)
C8 C 0.44748(8) 0.4472(3) 1.07863(13)
C9 C 0.42533(8) 0.1898(3) 0.96273(13)
C10 C 0.14718(9) 0.7844(3) 0.39461(14)
C11 C 0.32624(8) 0.6059(3) 0.56925(13)
C12 C 0.11169(8) 1.0034(3) 0.50287(13)
C13 C 0.20335(9) 0.8486(3) 0.57683(14)
C14 C 0.27839(9) 0.6856(3) 0.51556(14)
C15 C 0.31050(8) 0.8623(3) 0.66410(13)
C16 C 0.15258(8) 0.8869(3) 0.49030(13)
C17 C 0.26921(9) 1.0394(3) 0.50551(14)
C18 C 0.18020(9) 1.3242(3) 0.70453(15)
C19 C 0.05496(8) 1.0402(3) 0.42684(14)
C20 C 0.08383(9) 0.7653(4) 0.34017(16)
C21 C 0.05411(9) 0.9532(4) 0.32912(15)
C22 C 0.24361(9) 0.6161(3) 0.41750(14)
C23 C 0.26452(8) 0.8635(3) 0.56432(13)
C24 C 0.17904(9) 0.5977(3) 0.40605(15)
C25 C 0.24326(10) 1.3645(4) 0.73020(15)
C26 C 0.03948(10) 1.2464(4) 0.41735(17)
H1 H 0.3932 0.2740 0.8219
H2 H 0.4330 0.7022 1.0149
H3 H 0.3907 0.7678 0.6541
H4 H 0.4607 0.4900 1.1441
H5 H 0.4244 0.0593 0.9504
H6 H 0.1650 0.8662 0.3540
H7 H 0.3412 0.4927 0.5515
H8 H 0.3298 0.9854 0.6768
H9 H 0.2925 0.8353 0.7172
H10 H 0.3082 1.0487 0.4978
H11 H 0.2611 1.1498 0.5401
H12 H 0.2414 1.0320 0.4411
H13 H 0.1704 1.2564 0.7584
H14 H 0.1579 1.4420 0.6925
H15 H 0.0244 0.9762 0.4501
H16 H 0.0802 0.7111 0.2748
H17 H 0.0650 0.6795 0.3763
H18 H 0.0137 0.9379 0.2899
H19 H 0.0733 1.0387 0.2933
H20 H 0.2587 0.4925 0.4054
H21 H 0.2493 0.7026 0.3667
H22 H 0.1618 0.5194 0.3482
H23 H 0.1734 0.5323 0.4639
H24 H 0.2540 1.4422 0.7890
H25 H 0.2523 1.4308 0.6761
H26 H 0.2647 1.2468 0.7423
H27 H 0.0027 1.2628 0.3677
H28 H 0.0696 1.3157 0.3980
H29 H 0.0362 1.2936 0.4802
loop_
_geom_bond_atom_site_label_1
_geom_bond_atom_site_label_2
_geom_bond_site_symmetry_1
_geom_bond_site_symmetry_2
O1 C4 1_555 1_555
O2 C4 1_555 1_555
O3 N1 1_555 1_555
O4 N1 1_555 1_555
O5 C13 1_555 1_555
O6 C7 1_555 1_555
O7 C7 1_555 1_555
N1 C2 1_555 1_555
C1 C5 1_555 1_555
C2 C8 1_555 1_555
C3 C5 1_555 1_555
C4 C5 1_555 1_555
C6 O1 1_555 1_555
C7 C12 1_555 1_555
C8 C3 1_555 1_555
C9 C1 1_555 1_555
C10 C16 1_555 1_555
C11 C6 1_555 1_555
C12 C16 1_555 1_555
C13 C16 1_555 1_555
C14 C11 1_555 1_555
C15 C6 1_555 1_555
C17 C23 1_555 1_555
C18 O6 1_555 1_555
C19 C12 1_555 1_555
C20 C10 1_555 1_555
C21 C19 1_555 1_555
C22 C14 1_555 1_555
C23 C13 1_555 1_555
C24 C10 1_555 1_555
C25 C18 1_555 1_555
C26 C19 1_555 1_555
H1 C1 1_555 1_555
H2 C3 1_555 1_555
H3 C6 1_555 1_555
H4 C8 1_555 1_555
H5 C9 1_555 1_555
H6 C10 1_555 1_555
H7 C11 1_555 1_555
H8 C15 1_555 1_555
H9 C15 1_555 1_555
H10 C17 1_555 1_555
H11 C17 1_555 1_555
H12 C17 1_555 1_555
H13 C18 1_555 1_555
H14 C18 1_555 1_555
H15 C19 1_555 1_555
H16 C20 1_555 1_555
H17 C20 1_555 1_555
H18 C21 1_555 1_555
H19 C21 1_555 1_555
H20 C22 1_555 1_555
H21 C22 1_555 1_555
H22 C24 1_555 1_555
H23 C24 1_555 1_555
H24 C25 1_555 1_555
H25 C25 1_555 1_555
H26 C25 1_555 1_555
H27 C26 1_555 1_555
H28 C26 1_555 1_555
H29 C26 1_555 1_555
C2 C9 1_555 1_555
C14 C23 1_555 1_555
C15 C23 1_555 1_555
C20 C21 1_555 1_555
C22 C24 1_555 1_555

#END
