
#######################################################################
#
#                 Cambridge Crystallographic Data Centre
#                                CCDC 
#
#######################################################################
#
# If this CIF has been generated from an entry in the Cambridge 
# Structural Database, then it will include bibliographic, chemical, 
# crystal, experimental, refinement or atomic coordinate data resulting 
# from the CCDC's data processing and validation procedures.
#
#######################################################################

data_BIFRUG
_chemical_formula_moiety         'C22 H22 N4 O2'
_chemical_name_systematic        
2,2'-[ethane-1,2-diylbis(azanediylmethylene)]bis(quinolin-8-ol)
_symmetry_cell_setting           monoclinic
_symmetry_space_group_name_H-M   'P 21/c'
_symmetry_Int_Tables_number      14
_space_group_name_Hall           '-P 2ybc'
loop_
_symmetry_equiv_pos_site_id
_symmetry_equiv_pos_as_xyz
1 x,y,z
2 -x,1/2+y,1/2-z
3 -x,-y,-z
4 x,1/2-y,1/2+z
_cell_length_a                   24.582(2)
_cell_length_b                   8.1598(7)
_cell_length_c                   9.2725(8)
_cell_angle_alpha                90
_cell_angle_beta                 93.629(5)
_cell_angle_gamma                90
_cell_volume                     1856.19
_exptl_crystal_colour            colorless
_exptl_crystal_description       tablet
_cell_formula_units_Z            4
loop_
_atom_site_label
_atom_site_type_symbol
_atom_site_fract_x
_atom_site_fract_y
_atom_site_fract_z
O1 O 0.93118(8) 0.7776(2) 0.2257(2)
H1 H 0.9518(13) 0.768(4) 0.309(4)
N1 N 0.91809(8) 0.5033(2) 0.3997(3)
N2 N 0.99760(9) 0.2226(2) 0.5481(3)
H2 H 1.0133(11) 0.265(3) 0.465(3)
C1 C 0.88493(11) 0.6889(3) 0.2125(3)
C2 C 0.84474(11) 0.7326(3) 0.1097(3)
H3 H 0.850120 0.824951 0.049792
C3 C 0.79608(11) 0.6439(3) 0.0916(3)
H4 H 0.769255 0.676263 0.018930
C4 C 0.78641(11) 0.5112(3) 0.1767(3)
H5 H 0.752797 0.453805 0.164752
C5 C 0.82667(10) 0.4606(3) 0.2820(3)
C6 C 0.87696(10) 0.5473(3) 0.2993(3)
C7 C 0.82104(11) 0.3226(3) 0.3728(3)
H6 H 0.788697 0.258729 0.364037
C8 C 0.86158(10) 0.2815(3) 0.4720(3)
H7 H 0.857550 0.189577 0.533327
C9 C 0.91002(10) 0.3760(3) 0.4840(3)
C10 C 0.95534(10) 0.3361(3) 0.5965(3)
H8 H 0.973276 0.439721 0.628487
H9 H 0.939000 0.287344 0.681478
C11 C 0.97680(10) 0.0555(3) 0.5181(3)
H10 H 0.949014 0.058285 0.436020
H11 H 0.959370 0.012560 0.603738
O1B O 1.06882(8) -0.7776(2) 0.7743(2)
H1B H 1.0482(13) -0.768(4) 0.691(4)
N1B N 1.08191(8) -0.5033(2) 0.6003(3)
N2B N 1.00240(9) -0.2226(2) 0.4519(3)
H2B H 0.9867(11) -0.265(3) 0.535(3)
C1B C 1.11507(11) -0.6889(3) 0.7875(3)
C2B C 1.15526(11) -0.7326(3) 0.8903(3)
H3B H 1.149880 -0.824951 0.950208
C3B C 1.20392(11) -0.6439(3) 0.9084(3)
H4B H 1.230745 -0.676263 0.981070
C4B C 1.21359(11) -0.5112(3) 0.8233(3)
H5B H 1.247203 -0.453805 0.835248
C5B C 1.17333(10) -0.4606(3) 0.7180(3)
C6B C 1.12304(10) -0.5473(3) 0.7007(3)
C7B C 1.17896(11) -0.3226(3) 0.6272(3)
H6B H 1.211303 -0.258729 0.635963
C8B C 1.13842(10) -0.2815(3) 0.5280(3)
H7B H 1.142450 -0.189577 0.466673
C9B C 1.08998(10) -0.3760(3) 0.5160(3)
C10B C 1.04466(10) -0.3361(3) 0.4035(3)
H8B H 1.026724 -0.439721 0.371513
H9B H 1.061000 -0.287344 0.318522
C11B C 1.02320(10) -0.0555(3) 0.4819(3)
H10B H 1.050986 -0.058285 0.563980
H11B H 1.040630 -0.012560 0.396262
O2 O 0.57958(8) 1.2965(2) 0.2893(2)
H12 H 0.5552(17) 1.275(5) 0.359(5)
N3 N 0.58276(9) 0.9895(2) 0.4199(3)
N4 N 0.49090(9) 0.7284(2) 0.5054(3)
H13 H 0.4737(12) 0.802(3) 0.426(4)
C12 C 0.62026(11) 1.1908(3) 0.2662(3)
C13 C 0.65887(11) 1.2346(3) 0.1735(3)
H14 H 0.656331 1.337925 0.126428
C14 C 0.70221(12) 1.1290(3) 0.1469(4)
H15 H 0.728845 1.162982 0.083322
C15 C 0.70682(11) 0.9780(3) 0.2108(3)
H16 H 0.736878 0.909060 0.193778
C16 C 0.66659(10) 0.9261(3) 0.3020(3)
C17 C 0.62282(11) 1.0320(3) 0.3319(3)
C18 C 0.66609(11) 0.7685(3) 0.3651(4)
H17 H 0.693805 0.691855 0.346020
C19 C 0.62624(11) 0.7260(3) 0.4530(3)
H18 H 0.626004 0.620474 0.496188
C20 C 0.58492(11) 0.8420(3) 0.4793(3)
C21 C 0.54020(11) 0.8024(3) 0.5784(3)
H19 H 0.554889 0.726053 0.654195
H20 H 0.529566 0.904519 0.626929
C22 C 0.49892(12) 0.5652(3) 0.4424(3)
H21 H 0.533338 0.564144 0.392438
H22 H 0.468613 0.541295 0.370020
O2B O 0.42042(8) -0.2965(2) 0.7107(2)
H12B H 0.4448(17) -0.275(5) 0.641(5)
N3B N 0.41724(9) 0.0105(2) 0.5801(3)
N4B N 0.50910(9) 0.2716(2) 0.4946(3)
H13B H 0.5263(12) 0.198(3) 0.574(4)
C12B C 0.37974(11) -0.1908(3) 0.7338(3)
C13B C 0.34113(11) -0.2346(3) 0.8265(3)
H14B H 0.343669 -0.337925 0.873572
C14B C 0.29779(12) -0.1290(3) 0.8531(4)
H15B H 0.271155 -0.162982 0.916678
C15B C 0.29318(11) 0.0220(3) 0.7892(3)
H16B H 0.263122 0.090940 0.806222
C16B C 0.33341(10) 0.0739(3) 0.6980(3)
C17B C 0.37718(11) -0.0320(3) 0.6681(3)
C18B C 0.33391(11) 0.2315(3) 0.6349(4)
H17B H 0.306195 0.308145 0.653980
C19B C 0.37376(11) 0.2740(3) 0.5470(3)
H18B H 0.373996 0.379526 0.503812
C20B C 0.41508(11) 0.1580(3) 0.5207(3)
C21B C 0.45980(11) 0.1976(3) 0.4216(3)
H19B H 0.445111 0.273947 0.345805
H20B H 0.470434 0.095481 0.373071
C22B C 0.50108(12) 0.4348(3) 0.5576(3)
H21B H 0.466662 0.435856 0.607562
H22B H 0.531387 0.458705 0.629980
loop_
_geom_bond_atom_site_label_1
_geom_bond_atom_site_label_2
_geom_bond_site_symmetry_1
_geom_bond_site_symmetry_2
O1 H1 1_555 1_555
N1 C6 1_555 1_555
N2 H2 1_555 1_555
C1 O1 1_555 1_555
C2 C1 1_555 1_555
H3 C2 1_555 1_555
C3 C2 1_555 1_555
H4 C3 1_555 1_555
C4 C3 1_555 1_555
H5 C4 1_555 1_555
C5 C4 1_555 1_555
C6 C1 1_555 1_555
C7 C5 1_555 1_555
H6 C7 1_555 1_555
C8 C7 1_555 1_555
H7 C8 1_555 1_555
C9 N1 1_555 1_555
C10 N2 1_555 1_555
H8 C10 1_555 1_555
H9 C10 1_555 1_555
C11 N2 1_555 1_555
H10 C11 1_555 1_555
H11 C11 1_555 1_555
O2 H12 1_555 1_555
N3 C17 1_555 1_555
N4 H13 1_555 1_555
C12 O2 1_555 1_555
C13 C12 1_555 1_555
H14 C13 1_555 1_555
C14 C13 1_555 1_555
H15 C14 1_555 1_555
C15 C14 1_555 1_555
H16 C15 1_555 1_555
C16 C15 1_555 1_555
C17 C12 1_555 1_555
C18 C16 1_555 1_555
H17 C18 1_555 1_555
C19 C18 1_555 1_555
H18 C19 1_555 1_555
C20 N3 1_555 1_555
C21 N4 1_555 1_555
H19 C21 1_555 1_555
H20 C21 1_555 1_555
C22 N4 1_555 1_555
H21 C22 1_555 1_555
H22 C22 1_555 1_555
O1B H1B 1_555 1_555
N1B C6B 1_555 1_555
N2B H2B 1_555 1_555
C1B O1B 1_555 1_555
C2B C1B 1_555 1_555
H3B C2B 1_555 1_555
C3B C2B 1_555 1_555
H4B C3B 1_555 1_555
C4B C3B 1_555 1_555
H5B C4B 1_555 1_555
C5B C4B 1_555 1_555
C6B C1B 1_555 1_555
C7B C5B 1_555 1_555
H6B C7B 1_555 1_555
C8B C7B 1_555 1_555
H7B C8B 1_555 1_555
C9B N1B 1_555 1_555
C10B N2B 1_555 1_555
H8B C10B 1_555 1_555
H9B C10B 1_555 1_555
C11B C11 1_555 1_555
H10B C11B 1_555 1_555
H11B C11B 1_555 1_555
O2B H12B 1_555 1_555
N3B C17B 1_555 1_555
N4B H13B 1_555 1_555
C12B O2B 1_555 1_555
C13B C12B 1_555 1_555
H14B C13B 1_555 1_555
C14B C13B 1_555 1_555
H15B C14B 1_555 1_555
C15B C14B 1_555 1_555
H16B C15B 1_555 1_555
C16B C15B 1_555 1_555
C17B C12B 1_555 1_555
C18B C16B 1_555 1_555
H17B C18B 1_555 1_555
C19B C18B 1_555 1_555
H18B C19B 1_555 1_555
C20B N3B 1_555 1_555
C21B N4B 1_555 1_555
H19B C21B 1_555 1_555
H20B C21B 1_555 1_555
C22B C22 1_555 1_555
H21B C22B 1_555 1_555
H22B C22B 1_555 1_555
C5 C6 1_555 1_555
C8 C9 1_555 1_555
C9 C10 1_555 1_555
C16 C17 1_555 1_555
C19 C20 1_555 1_555
C20 C21 1_555 1_555
N2B C11B 1_555 1_555
C5B C6B 1_555 1_555
C8B C9B 1_555 1_555
C9B C10B 1_555 1_555
N4B C22B 1_555 1_555
C16B C17B 1_555 1_555
C19B C20B 1_555 1_555
C20B C21B 1_555 1_555

#END
