
#######################################################################
#
#                 Cambridge Crystallographic Data Centre
#                                CCDC 
#
#######################################################################
#
# If this CIF has been generated from an entry in the Cambridge 
# Structural Database, then it will include bibliographic, chemical, 
# crystal, experimental, refinement or atomic coordinate data resulting 
# from the CCDC's data processing and validation procedures.
#
#######################################################################

data_BIFVET
_chemical_formula_moiety         'C17 H18 O1 S1'
_chemical_name_systematic        Diphenyl(tetrahydrothiophen-2-yl)methanol
_symmetry_cell_setting           monoclinic
_symmetry_space_group_name_H-M   'C 2'
_symmetry_Int_Tables_number      5
_space_group_name_Hall           'C 2y'
loop_
_symmetry_equiv_pos_site_id
_symmetry_equiv_pos_as_xyz
1 x,y,z
2 -x,y,-z
3 1/2+x,1/2+y,z
4 1/2-x,1/2+y,-z
_cell_length_a                   21.2731(16)
_cell_length_b                   5.6491(5)
_cell_length_c                   12.1122(8)
_cell_angle_alpha                90
_cell_angle_beta                 98.130(2)
_cell_angle_gamma                90
_cell_volume                     1440.94
_exptl_crystal_colour            colorless
_exptl_crystal_description       prism
_cell_formula_units_Z            4
loop_
_atom_site_label
_atom_site_type_symbol
_atom_site_fract_x
_atom_site_fract_y
_atom_site_fract_z
S1 S 0.07067(3) 0.30529(16) 0.88428(6)
O1 O 0.11884(9) 0.7239(4) 0.75957(17)
C1 C 0.14155(13) 0.4974(6) 0.7287(2)
C2 C 0.09192(12) 0.3058(7) 0.74126(19)
H1 H 0.11 0.1512 0.7269
C3 C 0.02915(12) 0.3346(7) 0.6646(2)
H2 H 0.0183 0.501 0.6557
H3 H 0.0324 0.2687 0.5916
C4 C -0.02122(13) 0.2045(6) 0.7177(2)
H4 H -0.0144 0.0349 0.7156
H5 H -0.0632 0.2399 0.6788
C5 C -0.01463(13) 0.2919(9) 0.8377(2)
H6 H -0.0349 0.1832 0.8836
H7 H -0.0338 0.447 0.8414
C6 C 0.15038(13) 0.5150(6) 0.6060(2)
C7 C 0.18205(12) 0.3323(6) 0.5587(2)
H8 H 0.1971 0.2033 0.6024
C8 C 0.19143(13) 0.3404(6) 0.4476(2)
H9 H 0.2125 0.2178 0.4171
C9 C 0.16888(13) 0.5343(6) 0.3820(2)
H10 H 0.1753 0.5422 0.3077
C10 C 0.13736(13) 0.7126(6) 0.4277(2)
H11 H 0.1221 0.8407 0.3836
C11 C 0.12765(13) 0.7050(6) 0.5396(2)
H12 H 0.106 0.8272 0.5694
C12 C 0.20626(13) 0.4462(6) 0.7984(2)
C13 C 0.22137(12) 0.2377(6) 0.8564(2)
H13 H 0.1907 0.1201 0.856
C14 C 0.28192(13) 0.2012(6) 0.9154(2)
H14 H 0.2913 0.0608 0.9544
C15 C 0.32799(14) 0.3750(6) 0.9158(2)
H15 H 0.3684 0.3509 0.9545
C16 C 0.31363(14) 0.5842(6) 0.8586(2)
H16 H 0.3445 0.7006 0.8587
C17 C 0.25342(13) 0.6212(6) 0.8009(2)
H17 H 0.2441 0.7634 0.7635
H18 H 0.1063(13) 0.697(6) 0.822(2)
loop_
_geom_bond_atom_site_label_1
_geom_bond_atom_site_label_2
_geom_bond_site_symmetry_1
_geom_bond_site_symmetry_2
S1 C2 1_555 1_555
O1 C1 1_555 1_555
C1 C2 1_555 1_555
C2 H1 1_555 1_555
C3 C2 1_555 1_555
H2 C3 1_555 1_555
H3 C3 1_555 1_555
C4 C3 1_555 1_555
H4 C4 1_555 1_555
H5 C4 1_555 1_555
C5 S1 1_555 1_555
H6 C5 1_555 1_555
H7 C5 1_555 1_555
C6 C1 1_555 1_555
C7 C6 1_555 1_555
H8 C7 1_555 1_555
C8 C7 1_555 1_555
H9 C8 1_555 1_555
C9 C8 1_555 1_555
H10 C9 1_555 1_555
C10 C9 1_555 1_555
H11 C10 1_555 1_555
C11 C6 1_555 1_555
H12 C11 1_555 1_555
C12 C1 1_555 1_555
C13 C12 1_555 1_555
H13 C13 1_555 1_555
C14 C13 1_555 1_555
H14 C14 1_555 1_555
C15 C14 1_555 1_555
H15 C15 1_555 1_555
C16 C15 1_555 1_555
H16 C16 1_555 1_555
C17 C12 1_555 1_555
H17 C17 1_555 1_555
H18 O1 1_555 1_555
C4 C5 1_555 1_555
C10 C11 1_555 1_555
C16 C17 1_555 1_555

#END
