
#######################################################################
#
#                 Cambridge Crystallographic Data Centre
#                                CCDC 
#
#######################################################################
#
# If this CIF has been generated from an entry in the Cambridge 
# Structural Database, then it will include bibliographic, chemical, 
# crystal, experimental, refinement or atomic coordinate data resulting 
# from the CCDC's data processing and validation procedures.
#
#######################################################################

data_BIFZUM
_chemical_formula_moiety         'C26 H42 N6 2+,C10 N6 2-,C2 H3 N1'
_chemical_name_systematic        
'1,3,5,7-tetrakis(diethylamino)-2,6-diazoniaindacene hexacyanoisobutadiendiide acetonitrile solvate'
_symmetry_cell_setting           monoclinic
_symmetry_space_group_name_H-M   'C 2/m'
_symmetry_Int_Tables_number      12
_space_group_name_Hall           '-C 2y'
loop_
_symmetry_equiv_pos_site_id
_symmetry_equiv_pos_as_xyz
1 x,y,z
2 -x,y,-z
3 1/2+x,1/2+y,z
4 1/2-x,1/2+y,-z
5 -x,-y,-z
6 x,-y,z
7 1/2-x,1/2-y,-z
8 1/2+x,1/2-y,z
_cell_length_a                   18.279(2)
_cell_length_b                   16.079(1)
_cell_length_c                   12.978(1)
_cell_angle_alpha                90
_cell_angle_beta                 96.34(1)
_cell_angle_gamma                90
_cell_volume                     3791.01
_exptl_crystal_colour            red
_exptl_crystal_description       'hexagonal rod'
_cell_formula_units_Z            4
loop_
_atom_site_label
_atom_site_type_symbol
_atom_site_fract_x
_atom_site_fract_y
_atom_site_fract_z
C15 C 0.50000 0.50000 0.5000
C16 C 0.50000 0.4135(3) 0.5000
C17 C 0.4617(1) 0.3697(1) 0.4077(2)
N4 N 0.4327(1) 0.3163(1) 0.3726(2)
C18 C 0.4911(2) 0.5465(2) 0.4045(3)
C19 C 0.5123(2) 0.50000 0.3114(2)
N5 N 0.5297(2) 0.50000 0.2344(2)
C18E C 0.4911(2) 0.4535(2) 0.4045(3)
C16D C 0.50000 0.5865(3) 0.5000
C17D C 0.5383(1) 0.6303(1) 0.5923(2)
N4D N 0.5673(1) 0.6837(1) 0.6274(2)
C18A C 0.5089(2) 0.5465(2) 0.5955(3)
C17E C 0.4617(1) 0.6303(1) 0.4077(2)
N4E N 0.4327(1) 0.6837(1) 0.3726(2)
C17A C 0.5383(1) 0.3697(1) 0.5923(2)
N4A N 0.5673(1) 0.3163(1) 0.6274(2)
C18D C 0.5089(2) 0.4535(2) 0.5955(3)
C19A C 0.4877(2) 0.50000 0.6886(2)
N5A N 0.4703(2) 0.50000 0.7656(2)
N8 N 0.3334(2) 0.00000 0.3894(2)
C25 C 0.2906(2) 0.00000 0.3194(3)
C26 C 0.2371(2) 0.00000 0.2314(3)
H23 H 0.261 0.000 0.168
H24 H 0.206 0.049 0.232
H24E H 0.206 -0.049 0.232
C1 C 0.79522(9) 0.1628(1) 0.2018(1)
N1 N 0.7475(7) 0.2120(1) 0.2451(1)
C2 C 0.70856(9) 0.1628(1) 0.3026(1)
C3 C 0.72972(9) 0.0740(1) 0.2946(1)
C4 C 0.78653(8) 0.0738(1) 0.2304(1)
C5 C 0.8158(1) 0.00000 0.1973(2)
C6 C 0.6999(1) 0.00000 0.3270(2)
N2 N 0.83935(8) 0.19507(9) 0.1394(1)
C7 C 0.90042(9) 0.1500(1) 0.0986(2)
C8 C 0.8788(1) 0.1189(2) -0.0104(2)
C9 C 0.8327(1) 0.2846(1) 0.1131(2)
C10 C 0.8802(1) 0.3364(1) 0.1899(2)
N3 N 0.65852(8) 0.19553(9) 0.3562(1)
C11 C 0.6164(1) 0.1477(1) 0.4271(1)
C12 C 0.5435(1) 0.1182(2) 0.3718(2)
C13 C 0.6402(1) 0.2848(1) 0.3452(2)
C14 C 0.6874(1) 0.3364(2) 0.4240(2)
H1 H 0.854(2) 0.0000 0.155(2)
H2 H 0.665(2) 0.0000 0.373(2)
H3 H 0.917(1) 0.103(1) 0.153(2)
H4 H 0.942(1) 0.192(1) 0.099(2)
H5 H 0.839(1) 0.084(1) -0.005(2)
H6 H 0.870(1) 0.166(1) -0.051(2)
H7 H 0.926(1) 0.084(1) -0.031(2)
H8 H 0.782(1) 0.301(1) 0.106(2)
H9 H 0.851(1) 0.287(1) 0.046(2)
H10 H 0.862(1) 0.332(1) 0.268(2)
H11 H 0.936(1) 0.318(1) 0.185(2)
H12 H 0.878(1) 0.401(1) 0.173(2)
H13 H 0.653(1) 0.099(1) 0.459(2)
H14 H 0.615(1) 0.186(1) 0.491(2)
H15 H 0.549(1) 0.078(1) 0.304(2)
H16 H 0.518(1) 0.081(1) 0.417(2)
H17 H 0.505(1) 0.167(1) 0.350(2)
H18 H 0.587(1) 0.291(1) 0.355(2)
H19 H 0.648(1) 0.302(1) 0.268(2)
H20 H 0.685(1) 0.316(1) 0.501(2)
H21 H 0.747(1) 0.331(1) 0.412(2)
H22 H 0.676(1) 0.396(1) 0.422(2)
C4E C 0.78653(8) -0.0738(1) 0.2304(1)
C1E C 0.79522(9) -0.1628(1) 0.2018(1)
N1E N 0.7475(7) -0.2120(1) 0.2451(1)
C2E C 0.70856(9) -0.1628(1) 0.3026(1)
C3E C 0.72972(9) -0.0740(1) 0.2946(1)
N3E N 0.65852(8) -0.19553(9) 0.3562(1)
C11E C 0.6164(1) -0.1477(1) 0.4271(1)
C12E C 0.5435(1) -0.1182(2) 0.3718(2)
H15E H 0.549(1) -0.078(1) 0.304(2)
H16E H 0.518(1) -0.081(1) 0.417(2)
H17E H 0.505(1) -0.167(1) 0.350(2)
H13E H 0.653(1) -0.099(1) 0.459(2)
H14E H 0.615(1) -0.186(1) 0.491(2)
C13E C 0.6402(1) -0.2848(1) 0.3452(2)
C14E C 0.6874(1) -0.3364(2) 0.4240(2)
H20E H 0.685(1) -0.316(1) 0.501(2)
H21E H 0.747(1) -0.331(1) 0.412(2)
H22E H 0.676(1) -0.396(1) 0.422(2)
H18E H 0.587(1) -0.291(1) 0.355(2)
H19E H 0.648(1) -0.302(1) 0.268(2)
N2E N 0.83935(8) -0.19507(9) 0.1394(1)
C7E C 0.90042(9) -0.1500(1) 0.0986(2)
C8E C 0.8788(1) -0.1189(2) -0.0104(2)
H5E H 0.839(1) -0.084(1) -0.005(2)
H6E H 0.870(1) -0.166(1) -0.051(2)
H7E H 0.926(1) -0.084(1) -0.031(2)
H3E H 0.917(1) -0.103(1) 0.153(2)
H4E H 0.942(1) -0.192(1) 0.099(2)
C9E C 0.8327(1) -0.2846(1) 0.1131(2)
C10E C 0.8802(1) -0.3364(1) 0.1899(2)
H10E H 0.862(1) -0.332(1) 0.268(2)
H11E H 0.936(1) -0.318(1) 0.185(2)
H12E H 0.878(1) -0.401(1) 0.173(2)
H8E H 0.782(1) -0.301(1) 0.106(2)
H9E H 0.851(1) -0.287(1) 0.046(2)
C20? C 0.50000 0.00000 0.0000
C21? C 0.50000 0.0872(3) 0.0000
C22? C 0.5565(1) 0.1302(1) 0.0718(2)
N6? N 0.5748(1) 0.1840(1) 0.1172(2)
C23? C 0.5651(2) 0.0452(2) 0.0343(3)
C24? C 0.6356(2) 0.00000 0.0245(2)
N7? N 0.6930(2) 0.00000 0.0108(2)
loop_
_geom_bond_atom_site_label_1
_geom_bond_atom_site_label_2
_geom_bond_site_symmetry_1
_geom_bond_site_symmetry_2
C1 N1 1_555 1_555
N1 C2 1_555 1_555
C2 C3 1_555 1_555
C3 C4 1_555 1_555
C4 C1 1_555 1_555
C5 C4 1_555 1_555
C6 C3 1_555 1_555
N2 C1 1_555 1_555
C7 N2 1_555 1_555
C8 C7 1_555 1_555
C9 N2 1_555 1_555
C10 C9 1_555 1_555
N3 C2 1_555 1_555
C11 N3 1_555 1_555
C12 C11 1_555 1_555
C13 N3 1_555 1_555
C14 C13 1_555 1_555
C15 C16 1_555 1_555
C16 C17 1_555 1_555
C17 N4 1_555 1_555
C18 C15 1_555 1_555
C19 C18 1_555 1_555
N5 C19 1_555 1_555
N8 C25 1_555 1_555
C25 C26 1_555 1_555
C26 H23 1_555 1_555
H1 C5 1_555 1_555
H2 C6 1_555 1_555
H3 C7 1_555 1_555
H4 C7 1_555 1_555
H5 C8 1_555 1_555
H6 C8 1_555 1_555
H7 C8 1_555 1_555
H8 C9 1_555 1_555
H9 C9 1_555 1_555
H10 C10 1_555 1_555
H11 C10 1_555 1_555
H12 C10 1_555 1_555
H13 C11 1_555 1_555
H14 C11 1_555 1_555
H15 C12 1_555 1_555
H16 C12 1_555 1_555
H17 C12 1_555 1_555
H18 C13 1_555 1_555
H19 C13 1_555 1_555
H20 C14 1_555 1_555
H21 C14 1_555 1_555
H22 C14 1_555 1_555
H24 C26 1_555 1_555
C4E C5 1_555 1_555
C1E C4E 1_555 1_555
N1E C1E 1_555 1_555
C2E N1E 1_555 1_555
C3E C6 1_555 1_555
N3E C2E 1_555 1_555
C11E N3E 1_555 1_555
C12E C11E 1_555 1_555
H15E C12E 1_555 1_555
H16E C12E 1_555 1_555
H17E C12E 1_555 1_555
H13E C11E 1_555 1_555
H14E C11E 1_555 1_555
C13E N3E 1_555 1_555
C14E C13E 1_555 1_555
H20E C14E 1_555 1_555
H21E C14E 1_555 1_555
H22E C14E 1_555 1_555
H18E C13E 1_555 1_555
H19E C13E 1_555 1_555
N2E C1E 1_555 1_555
C7E N2E 1_555 1_555
C8E C7E 1_555 1_555
H5E C8E 1_555 1_555
H6E C8E 1_555 1_555
H7E C8E 1_555 1_555
H3E C7E 1_555 1_555
H4E C7E 1_555 1_555
C9E N2E 1_555 1_555
C10E C9E 1_555 1_555
H10E C10E 1_555 1_555
H11E C10E 1_555 1_555
H12E C10E 1_555 1_555
H8E C9E 1_555 1_555
H9E C9E 1_555 1_555
C18E C15 1_555 1_555
C16D C15 1_555 1_555
C17D C16D 1_555 1_555
N4D C17D 1_555 1_555
C18A C15 1_555 1_555
C17E C18 1_555 1_555
N4E C17E 1_555 1_555
C17A C16 1_555 1_555
N4A C17A 1_555 1_555
C18D C15 1_555 1_555
C19A C18A 1_555 1_555
N5A C19A 1_555 1_555
H24E C26 1_555 1_555
C16 C18E 1_555 1_555
C16 C18D 1_555 1_555
C17 C18E 1_555 1_555
C18 C16D 1_555 1_555
C18 C18E 1_555 1_555
C19 C18E 1_555 1_555
C4E C3E 1_555 1_555
C2E C3E 1_555 1_555
C16D C17E 1_555 1_555
C16D C18A 1_555 1_555
C17D C18A 1_555 1_555
C18A C18D 1_555 1_555
C17A C18D 1_555 1_555
C18D C19A 1_555 1_555

#END
