
#######################################################################
#
#                 Cambridge Crystallographic Data Centre
#                                CCDC 
#
#######################################################################
#
# If this CIF has been generated from an entry in the Cambridge 
# Structural Database, then it will include bibliographic, chemical, 
# crystal, experimental, refinement or atomic coordinate data resulting 
# from the CCDC's data processing and validation procedures.
#
#######################################################################

data_BIGBUP
_chemical_formula_moiety         'C26 H42 N6 2+,C12 N6 2-'
_chemical_name_systematic        
'1,3,5,7-tetrakis(diethylamino)-2,6-diazoniaindacene tris(dicyanomethylene)cyclopropandiide'
_symmetry_cell_setting           monoclinic
_symmetry_space_group_name_H-M   'C 2/c'
_symmetry_Int_Tables_number      15
_space_group_name_Hall           '-C 2yn'
loop_
_symmetry_equiv_pos_site_id
_symmetry_equiv_pos_as_xyz
1 x,y,z
2 -x,y,1/2-z
3 1/2+x,1/2+y,z
4 1/2-x,1/2+y,1/2-z
5 -x,-y,-z
6 x,-y,1/2+z
7 1/2-x,1/2-y,-z
8 1/2+x,1/2-y,1/2+z
_cell_length_a                   23.558(3)
_cell_length_b                   12.281(1)
_cell_length_c                   13.442(2)
_cell_angle_alpha                90
_cell_angle_beta                 107.64(1)
_cell_angle_gamma                90
_cell_volume                     3706.12
_exptl_crystal_colour            green
_exptl_crystal_description       rectangular
_cell_formula_units_Z            4
loop_
_atom_site_label
_atom_site_type_symbol
_atom_site_fract_x
_atom_site_fract_y
_atom_site_fract_z
N1 N -0.1443(2) 0.0791(3) 0.4585(3)
N2 N -0.1005(2) 0.2472(3) 0.5036(4)
N3 N -0.1636(2) -0.1001(3) 0.4209(3)
C1 C -0.1253(2) -0.0221(4) 0.4499(3)
C2 C -0.0957(2) 0.1433(4) 0.4878(4)
C3 C -0.0406(2) 0.0808(4) 0.4985(3)
C4 C -0.0595(2) -0.0264(4) 0.4750(3)
C5 C 0.0192(2) 0.1093(4) 0.5245(3)
C6 C -0.1613(3) 0.2972(6) 0.4810(7)
C7 C -0.1801(4) 0.3035(9) 0.5706(9)
C8 C -0.0501(5) 0.331(1) 0.5083(9)
C10 C -0.0173(6) 0.333(1) 0.627(1)
C12 C -0.2279(2) -0.0792(5) 0.3975(5)
C13 C -0.2542(3) -0.0382(8) 0.2906(7)
C14 C -0.1499(3) -0.2177(8) 0.3836(6)
C15 C -0.1394(3) -0.2764(9) 0.4725(6)
H1 H 0.039 0.188 0.527
H2 H -0.190 0.253 0.429
H3 H -0.160 0.370 0.455
H4 H -0.220 0.335 0.554
H5 H -0.182 0.229 0.599
H6 H -0.153 0.346 0.625
H7 H -0.234 -0.026 0.447
H8 H -0.248 -0.146 0.405
H9 H -0.296 -0.025 0.278
H10 H -0.235 0.030 0.283
H11 H -0.249 -0.091 0.242
H12 H -0.115 -0.217 0.358
H13 H -0.184 -0.246 0.328
H14 H -0.130 -0.351 0.459
H15 H -0.106 -0.244 0.525
H16 H -0.175 -0.274 0.495
C4D C 0.0595(2) 0.0264(4) 0.5250(3)
C1D C 0.1253(2) 0.0221(4) 0.5501(3)
N1D N 0.1443(2) -0.0791(3) 0.5415(3)
C2D C 0.0957(2) -0.1433(4) 0.5122(4)
N2D N 0.1005(2) -0.2472(3) 0.4964(4)
C6D C 0.1613(3) -0.2972(6) 0.5190(7)
C7D C 0.1801(4) -0.3035(9) 0.4294(9)
H4D H 0.220 -0.335 0.446
H5D H 0.182 -0.229 0.401
H6D H 0.153 -0.346 0.375
H2D H 0.190 -0.253 0.571
H3D H 0.160 -0.370 0.545
C8D C 0.0501(5) -0.331(1) 0.4917(9)
C10D C 0.0173(6) -0.333(1) 0.373(1)
C3D C 0.0406(2) -0.0808(4) 0.5015(3)
C5D C -0.0192(2) -0.1093(4) 0.4755(3)
H1D H -0.039 -0.188 0.473
N3D N 0.1636(2) 0.1001(3) 0.5791(3)
C12D C 0.2279(2) 0.0792(5) 0.6025(5)
C13D C 0.2542(3) 0.0382(8) 0.7094(7)
H9D H 0.296 0.025 0.722
H10D H 0.235 -0.030 0.717
H11D H 0.249 0.091 0.758
H7D H 0.234 0.026 0.553
H8D H 0.248 0.146 0.595
C14D C 0.1499(3) 0.2177(8) 0.6164(6)
C15D C 0.1394(3) 0.2764(9) 0.5275(6)
H14D H 0.130 0.351 0.541
H15D H 0.106 0.244 0.475
H16D H 0.175 0.274 0.505
H12D H 0.115 0.217 0.642
H13D H 0.184 0.246 0.672
N4 N -0.0959(3) 0.4715(5) 0.2249(8)
N5 N -0.0792(2) -0.1134(4) 0.2235(4)
N6 N -0.1841(2) 0.1908(5) 0.1892(4)
C16 C -0.0526(3) 0.4229(5) 0.2367(6)
C17 C 0.0000 0.3636(7) 0.2500
C18 C 0.0000 0.2497(6) 0.2500
C19 C -0.0304(2) 0.1535(4) 0.2402(3)
C20 C -0.0837(2) 0.0955(4) 0.2224(4)
C21 C -0.0819(2) -0.0197(4) 0.2220(4)
C22 C -0.1388(2) 0.1485(5) 0.2051(4)
C16A C 0.0526(3) 0.4229(5) 0.2633(6)
N4A N 0.0959(3) 0.4715(5) 0.2751(8)
C19A C 0.0304(2) 0.1535(4) 0.2598(3)
C20A C 0.0837(2) 0.0955(4) 0.2776(4)
C21A C 0.0819(2) -0.0197(4) 0.2780(4)
N5A N 0.0792(2) -0.1134(4) 0.2765(4)
C22A C 0.1388(2) 0.1485(5) 0.2949(4)
N6A N 0.1841(2) 0.1908(5) 0.3108(4)
C9? C -0.0504(4) 0.3136(9) 0.5739(8)
C11? C -0.0266(6) 0.381(1) 0.499(1)
loop_
_geom_bond_atom_site_label_1
_geom_bond_atom_site_label_2
_geom_bond_site_symmetry_1
_geom_bond_site_symmetry_2
N1 C1 1_555 1_555
N2 C2 1_555 1_555
N3 C1 1_555 1_555
N4 C16 1_555 1_555
N5 C21 1_555 1_555
N6 C22 1_555 1_555
C1 C4 1_555 1_555
C2 N1 1_555 1_555
C3 C2 1_555 1_555
C4 C3 1_555 1_555
C5 C3 1_555 1_555
C6 N2 1_555 1_555
C7 C6 1_555 1_555
C8 N2 1_555 1_555
C10 C8 1_555 1_555
C12 N3 1_555 1_555
C13 C12 1_555 1_555
C14 N3 1_555 1_555
C15 C14 1_555 1_555
C16 C17 1_555 1_555
C17 C18 1_555 1_555
C18 C19 1_555 1_555
C19 C20 1_555 1_555
C20 C21 1_555 1_555
C22 C20 1_555 1_555
H1 C5 1_555 1_555
H2 C6 1_555 1_555
H3 C6 1_555 1_555
H4 C7 1_555 1_555
H5 C7 1_555 1_555
H6 C7 1_555 1_555
H7 C12 1_555 1_555
H8 C12 1_555 1_555
H9 C13 1_555 1_555
H10 C13 1_555 1_555
H11 C13 1_555 1_555
H12 C14 1_555 1_555
H13 C14 1_555 1_555
H14 C15 1_555 1_555
H15 C15 1_555 1_555
H16 C15 1_555 1_555
C4D C5 1_555 1_555
C1D C4D 1_555 1_555
N1D C1D 1_555 1_555
C2D N1D 1_555 1_555
N2D C2D 1_555 1_555
C6D N2D 1_555 1_555
C7D C6D 1_555 1_555
H4D C7D 1_555 1_555
H5D C7D 1_555 1_555
H6D C7D 1_555 1_555
H2D C6D 1_555 1_555
H3D C6D 1_555 1_555
C8D N2D 1_555 1_555
C10D C8D 1_555 1_555
C3D C4D 1_555 1_555
C5D C4 1_555 1_555
H1D C5D 1_555 1_555
N3D C1D 1_555 1_555
C12D N3D 1_555 1_555
C13D C12D 1_555 1_555
H9D C13D 1_555 1_555
H10D C13D 1_555 1_555
H11D C13D 1_555 1_555
H7D C12D 1_555 1_555
H8D C12D 1_555 1_555
C14D N3D 1_555 1_555
C15D C14D 1_555 1_555
H14D C15D 1_555 1_555
H15D C15D 1_555 1_555
H16D C15D 1_555 1_555
H12D C14D 1_555 1_555
H13D C14D 1_555 1_555
C16A C17 1_555 1_555
N4A C16A 1_555 1_555
C19A C18 1_555 1_555
C20A C19A 1_555 1_555
C21A C20A 1_555 1_555
N5A C21A 1_555 1_555
C22A C20A 1_555 1_555
N6A C22A 1_555 1_555
C19 C19A 1_555 1_555
C2D C3D 1_555 1_555
C3D C5D 1_555 1_555

#END
