
#######################################################################
#
#                 Cambridge Crystallographic Data Centre
#                                CCDC 
#
#######################################################################
#
# If this CIF has been generated from an entry in the Cambridge 
# Structural Database, then it will include bibliographic, chemical, 
# crystal, experimental, refinement or atomic coordinate data resulting 
# from the CCDC's data processing and validation procedures.
#
#######################################################################

data_BIGDUQ
_chemical_formula_moiety         'C13 H12 O4'
_chemical_name_systematic        
'1,2,3,4,4a,5,8,8a-Octahydro-5,8-endo-oxa-1,4-exo-methanonaphthalene-4a,8a-dicarboxylic anhydride'
_symmetry_cell_setting           monoclinic
_symmetry_space_group_name_H-M   'P 21/c'
_symmetry_Int_Tables_number      14
_space_group_name_Hall           '-P 2ybc'
loop_
_symmetry_equiv_pos_site_id
_symmetry_equiv_pos_as_xyz
1 x,y,z
2 -x,1/2+y,1/2-z
3 -x,-y,-z
4 x,1/2-y,1/2+z
_cell_length_a                   11.472(2)
_cell_length_b                   7.635(2)
_cell_length_c                   12.260(1)
_cell_angle_alpha                90
_cell_angle_beta                 96.72(1)
_cell_angle_gamma                90
_cell_volume                     1066.46
_exptl_crystal_colour            white
_chemical_melting_point          145-6deg.C
_cell_formula_units_Z            4
loop_
_atom_site_label
_atom_site_type_symbol
_atom_site_fract_x
_atom_site_fract_y
_atom_site_fract_z
C1 C 0.07790 0.50540 0.26940
C2 C 0.07290 0.55890 0.15110
C3 C 0.14850 0.45800 0.10920
C4 C 0.20230 0.34460 0.19960
C5 C 0.28400 0.45060 0.28580
C6 C 0.37620 0.58600 0.25430
C7 C 0.44620 0.64700 0.36120
C8 C 0.35730 0.75920 0.41600
C9 C 0.24620 0.75200 0.33390
C10 C 0.19380 0.56510 0.33650
C11 C 0.30250 0.74970 0.22600
O1 O 0.10450 0.32050 0.26310
C12 C 0.19500 0.49430 0.45150
C13 C 0.32970 0.32700 0.37520
O2 O 0.27790 0.36080 0.47000
O3 O 0.13820 0.53470 0.52240
O4 O 0.39840 0.21080 0.37530
H1 H 0.01700 0.53000 0.30100
H2 H 0.02300 0.64200 0.11900
H3 H 0.16800 0.45900 0.03900
H4 H 0.23900 0.22900 0.19000
H5 H 0.42600 0.54000 0.19500
H6 H 0.48300 0.54300 0.40500
H7 H 0.51500 0.70500 0.35100
H8 H 0.34900 0.72200 0.48800
H9 H 0.38300 0.88100 0.42500
H10 H 0.19200 0.85200 0.34100
H11 H 0.24000 0.74600 0.16000
H12 H 0.35500 0.86000 0.22600
loop_
_geom_bond_atom_site_label_1
_geom_bond_atom_site_label_2
_geom_bond_site_symmetry_1
_geom_bond_site_symmetry_2
C1 C2 1_555 1_555
C2 C3 1_555 1_555
C3 C4 1_555 1_555
C4 C5 1_555 1_555
C5 C6 1_555 1_555
C6 C7 1_555 1_555
C7 C8 1_555 1_555
C8 C9 1_555 1_555
C9 C10 1_555 1_555
C10 C1 1_555 1_555
C11 C6 1_555 1_555
O1 C1 1_555 1_555
C12 C10 1_555 1_555
C13 C5 1_555 1_555
O2 C12 1_555 1_555
O3 C12 1_555 1_555
O4 C13 1_555 1_555
H1 C1 1_555 1_555
H2 C2 1_555 1_555
H3 C3 1_555 1_555
H4 C4 1_555 1_555
H5 C6 1_555 1_555
H6 C7 1_555 1_555
H7 C7 1_555 1_555
H8 C8 1_555 1_555
H9 C8 1_555 1_555
H10 C9 1_555 1_555
H11 C11 1_555 1_555
H12 C11 1_555 1_555
C4 O1 1_555 1_555
C5 C10 1_555 1_555
C9 C11 1_555 1_555
C13 O2 1_555 1_555

#END
