
#######################################################################
#
#                 Cambridge Crystallographic Data Centre
#                                CCDC 
#
#######################################################################
#
# If this CIF has been generated from an entry in the Cambridge 
# Structural Database, then it will include bibliographic, chemical, 
# crystal, experimental, refinement or atomic coordinate data resulting 
# from the CCDC's data processing and validation procedures.
#
#######################################################################

data_BIGHOR
_chemical_formula_moiety         'C20 H18 N2 S1'
_chemical_name_systematic        
3-[3-(benzylamino)-5-phenylthiophen-2-yl]propanenitrile
_symmetry_cell_setting           triclinic
_symmetry_space_group_name_H-M   'P -1'
_symmetry_Int_Tables_number      2
_space_group_name_Hall           '-P 1'
loop_
_symmetry_equiv_pos_site_id
_symmetry_equiv_pos_as_xyz
1 x,y,z
2 -x,-y,-z
_cell_length_a                   8.5514(10)
_cell_length_b                   9.1709(9)
_cell_length_c                   11.9633(13)
_cell_angle_alpha                106.600(9)
_cell_angle_beta                 107.693(10)
_cell_angle_gamma                91.964(9)
_cell_volume                     849.011
_exptl_crystal_colour            colorless
_exptl_crystal_description       prismatic
_cell_formula_units_Z            2
loop_
_atom_site_label
_atom_site_type_symbol
_atom_site_fract_x
_atom_site_fract_y
_atom_site_fract_z
S1 S 0.62420(7) 0.34781(7) 0.56477(5)
N1 N 0.4351(3) 0.1688(3) 0.7598(2)
N2 N -0.0710(3) -0.0049(3) 0.3278(3)
C1 C 0.7713(3) 0.3508(2) 0.70062(18)
C2 C 0.7018(3) 0.2874(2) 0.7669(2)
H1 H 0.7618 0.2784 0.8432
C3 C 0.5301(3) 0.2361(2) 0.7094(2)
C4 C 0.4697(3) 0.2629(2) 0.5985(2)
C5 C 0.2936(3) 0.2270(3) 0.5146(2)
H2 H 0.2779 0.2861 0.4574
H3 H 0.2212 0.2579 0.5633
C6 C 0.2458(3) 0.0581(3) 0.4422(2)
H4 H 0.3054 0.0308 0.3836
H5 H 0.2778 -0.0020 0.4984
C7 C 0.0675(4) 0.0206(3) 0.3758(2)
C8 C 0.9433(3) 0.4177(2) 0.7341(2)
C9 C 0.9921(3) 0.5029(3) 0.6691(2)
H6 H 0.9143 0.5167 0.6005
C10 C 1.1548(4) 0.5679(3) 0.7045(3)
H7 H 1.1851 0.6262 0.6605
C11 C 1.2712(3) 0.5471(3) 0.8039(3)
H8 H 1.3809 0.5900 0.8271
C12 C 1.2256(3) 0.4632(3) 0.8685(3)
H9 H 1.3042 0.4492 0.9366
C13 C 1.0637(3) 0.3989(3) 0.8338(2)
H10 H 1.0348 0.3413 0.8788
C14 C 0.5014(3) 0.1479(3) 0.8793(2)
H11 H 0.4105 0.1323 0.9090
H12 H 0.5716 0.2414 0.9362
C15 C 0.6004(3) 0.0155(3) 0.8810(2)
C16 C 0.7379(3) 0.0250(3) 0.9799(2)
H13 H 0.7732 0.1162 1.0450
C17 C 0.8249(3) -0.0982(4) 0.9846(3)
H14 H 0.9173 -0.0903 1.0528
C18 C 0.7752(4) -0.2314(4) 0.8890(3)
H15 H 0.8342 -0.3144 0.8912
C19 C 0.6386(5) -0.2427(3) 0.7902(3)
H16 H 0.6043 -0.3340 0.7251
C20 C 0.5514(4) -0.1209(3) 0.7858(2)
H17 H 0.4583 -0.1302 0.7178
H18 H 0.339(3) 0.146(3) 0.723(2)
loop_
_geom_bond_atom_site_label_1
_geom_bond_atom_site_label_2
_geom_bond_site_symmetry_1
_geom_bond_site_symmetry_2
S1 C1 1_555 1_555
N1 C3 1_555 1_555
N2 C7 1_555 1_555
C1 C2 1_555 1_555
C2 H1 1_555 1_555
C3 C2 1_555 1_555
C4 S1 1_555 1_555
C5 C4 1_555 1_555
H2 C5 1_555 1_555
H3 C5 1_555 1_555
C6 C5 1_555 1_555
H4 C6 1_555 1_555
H5 C6 1_555 1_555
C7 C6 1_555 1_555
C8 C1 1_555 1_555
C9 C8 1_555 1_555
H6 C9 1_555 1_555
C10 C9 1_555 1_555
H7 C10 1_555 1_555
C11 C10 1_555 1_555
H8 C11 1_555 1_555
C12 C11 1_555 1_555
H9 C12 1_555 1_555
C13 C8 1_555 1_555
H10 C13 1_555 1_555
C14 N1 1_555 1_555
H11 C14 1_555 1_555
H12 C14 1_555 1_555
C15 C14 1_555 1_555
C16 C15 1_555 1_555
H13 C16 1_555 1_555
C17 C16 1_555 1_555
H14 C17 1_555 1_555
C18 C17 1_555 1_555
H15 C18 1_555 1_555
C19 C18 1_555 1_555
H16 C19 1_555 1_555
C20 C15 1_555 1_555
H17 C20 1_555 1_555
H18 N1 1_555 1_555
C3 C4 1_555 1_555
C12 C13 1_555 1_555
C19 C20 1_555 1_555

#END
