
#######################################################################
#
#                 Cambridge Crystallographic Data Centre
#                                CCDC 
#
#######################################################################
#
# If this CIF has been generated from an entry in the Cambridge 
# Structural Database, then it will include bibliographic, chemical, 
# crystal, experimental, refinement or atomic coordinate data resulting 
# from the CCDC's data processing and validation procedures.
#
#######################################################################

data_BIGJIM
_chemical_formula_moiety         'C25 H23 N1 O4 S1'
_chemical_name_systematic        
N-(1,3-Diphenylpropadienyl)-2-methoxy-N-((4-methylphenyl)sulfonyl)acetamide
_symmetry_cell_setting           triclinic
_symmetry_space_group_name_H-M   'P -1'
_symmetry_Int_Tables_number      2
_space_group_name_Hall           '-P 1'
loop_
_symmetry_equiv_pos_site_id
_symmetry_equiv_pos_as_xyz
1 x,y,z
2 -x,-y,-z
_cell_length_a                   11.3247(7)
_cell_length_b                   12.8430(7)
_cell_length_c                   15.8094(9)
_cell_angle_alpha                90.059(3)
_cell_angle_beta                 90.014(4)
_cell_angle_gamma                98.644(3)
_cell_volume                     2273.25
_exptl_crystal_colour            colorless
_exptl_crystal_description       block
_cell_formula_units_Z            4
loop_
_atom_site_label
_atom_site_type_symbol
_atom_site_fract_x
_atom_site_fract_y
_atom_site_fract_z
S1 S 0.53366(7) 0.30882(7) 0.38728(5)
O1 O 0.6020(2) 0.2492(2) 0.33663(16)
O2 O 0.5500(2) 0.42066(18) 0.37818(15)
O3 O 0.4025(3) 0.0985(2) 0.38740(19)
O4 O 0.1734(5) 0.0327(4) 0.3719(4)
N1 N 0.3873(2) 0.2707(2) 0.36453(17)
C1 C 0.5881(5) 0.2121(4) 0.7569(3)
H1 H 0.5668 0.2692 0.7900
H2 H 0.6696 0.2044 0.7682
H3 H 0.5368 0.1482 0.7716
C2 C 0.5739(3) 0.2348(3) 0.6650(3)
C3 C 0.5995(4) 0.1651(3) 0.6033(3)
H4 H 0.6259 0.1029 0.6195
C4 C 0.5871(3) 0.1854(3) 0.5185(3)
H5 H 0.6046 0.1373 0.4781
C5 C 0.5482(3) 0.2780(3) 0.4941(2)
C6 C 0.5218(3) 0.3482(3) 0.5555(2)
H6 H 0.4956 0.4107 0.5397
C7 C 0.5342(3) 0.3254(3) 0.6392(2)
H7 H 0.5152 0.3727 0.6798
C8 C 0.3415(4) 0.1639(3) 0.3714(2)
C9 C 0.2068(5) 0.1384(4) 0.3596(4)
H8 H 0.1665 0.1779 0.4000
H9 H 0.1851 0.1577 0.3030
C10 C 0.1032(13) -0.0185(7) 0.3394(8)
H10 H 0.1025 -0.0897 0.3580
H11 H 0.1172 -0.0144 0.2795
H12 H 0.0275 0.0031 0.3518
C11 C 0.3121(3) 0.3522(3) 0.3523(2)
C12 C 0.2718(3) 0.3950(3) 0.4202(2)
C13 C 0.2333(3) 0.4384(3) 0.4880(2)
H13 H 0.2815 0.4971 0.5101
C14 C 0.1202(3) 0.4018(3) 0.5320(2)
C15 C 0.1072(4) 0.4335(4) 0.6155(3)
H14 H 0.1682 0.4788 0.6415
C16 C 0.0050(5) 0.3980(4) 0.6590(3)
H15 H -0.0023 0.4175 0.7152
C17 C -0.0851(5) 0.3353(5) 0.6210(4)
H16 H -0.1544 0.3115 0.6511
C18 C -0.0755(4) 0.3056(4) 0.5373(4)
H17 H -0.1387 0.2630 0.5110
C19 C 0.0277(4) 0.3394(4) 0.4934(3)
H18 H 0.0345 0.3196 0.4372
C20 C 0.2909(3) 0.3845(3) 0.2647(2)
C21 C 0.3218(4) 0.3292(4) 0.1958(3)
H19 H 0.3617 0.2717 0.2035
C22 C 0.2940(5) 0.3585(4) 0.1153(3)
H20 H 0.3143 0.3196 0.0693
C23 C 0.2373(5) 0.4435(4) 0.1018(3)
H21 H 0.2190 0.4629 0.0473
C24 C 0.2079(4) 0.4995(4) 0.1700(3)
H22 H 0.1702 0.5582 0.1618
C25 C 0.2334(4) 0.4699(3) 0.2503(2)
H23 H 0.2115 0.5083 0.2961
S2 S 1.03362(7) 0.80885(7) 0.11278(5)
O5 O 1.1023(2) 0.7493(2) 0.16322(16)
O6 O 1.0501(2) 0.92045(18) 0.12170(15)
O7 O 0.9033(3) 0.5985(2) 0.11304(19)
O8 O 0.6742(5) 0.5319(4) 0.1279(4)
N2 N 0.8872(2) 0.7706(2) 0.13539(17)
C26 C 1.0884(5) 0.7117(4) -0.2573(3)
H24 H 1.0668 0.7685 -0.2906
H25 H 1.0375 0.6475 -0.2719
H26 H 1.1700 0.7043 -0.2684
C27 C 1.0738(3) 0.7350(3) -0.1649(2)
C28 C 1.0999(4) 0.6653(3) -0.1033(3)
H27 H 1.1265 0.6032 -0.1196
C29 C 1.0875(3) 0.6856(3) -0.0180(3)
H28 H 1.1051 0.6379 0.0226
C30 C 1.0484(3) 0.7779(3) 0.0054(2)
C31 C 1.0217(3) 0.8480(3) -0.0551(2)
H29 H 0.9955 0.9103 -0.0391
C32 C 1.0340(3) 0.8252(3) -0.1393(2)
H30 H 1.0147 0.8723 -0.1798
C33 C 0.8413(3) 0.6637(3) 0.1284(2)
C34 C 0.7065(5) 0.6386(4) 0.1400(4)
H31 H 0.6845 0.6582 0.1965
H32 H 0.6662 0.6774 0.0993
C35 C 0.6049(12) 0.4825(7) 0.1634(8)
H33 H 0.5998 0.4109 0.1445
H34 H 0.5297 0.5065 0.1544
H35 H 0.6242 0.4864 0.2225
C36 C 0.8125(3) 0.8521(3) 0.1477(2)
C37 C 0.7907(3) 0.8842(3) 0.2353(2)
C38 C 0.8217(4) 0.8294(4) 0.3047(3)
H36 H 0.8619 0.7720 0.2973
C39 C 0.7935(6) 0.8593(4) 0.3849(3)
H37 H 0.8147 0.8213 0.4311
C40 C 0.7357(5) 0.9428(4) 0.3983(3)
H38 H 0.7158 0.9614 0.4527
C41 C 0.7071(4) 0.9993(4) 0.3296(3)
H39 H 0.6699 1.0584 0.3376
C42 C 0.7330(4) 0.9698(3) 0.2493(2)
H40 H 0.7112 1.0080 0.2034
C43 C 0.7721(3) 0.8950(3) 0.0801(2)
C44 C 0.7333(3) 0.9384(3) 0.0119(3)
H41 H 0.7818 0.9967 -0.0104
C45 C 0.6199(3) 0.9023(3) -0.0316(2)
C46 C 0.5277(4) 0.8396(4) 0.0060(3)
H42 H 0.5346 0.8196 0.0621
C47 C 0.4251(4) 0.8054(4) -0.0374(4)
H43 H 0.3622 0.7625 -0.0111
C48 C 0.4153(5) 0.8354(5) -0.1211(4)
H44 H 0.3461 0.8112 -0.1514
C49 C 0.5042(5) 0.8986(4) -0.1587(3)
H45 H 0.4958 0.9193 -0.2145
C50 C 0.6080(4) 0.9334(4) -0.1156(3)
H46 H 0.6699 0.9772 -0.1420
loop_
_geom_bond_atom_site_label_1
_geom_bond_atom_site_label_2
_geom_bond_site_symmetry_1
_geom_bond_site_symmetry_2
S1 O1 1_555 1_555
O2 S1 1_555 1_555
O3 C8 1_555 1_555
O4 C9 1_555 1_555
N1 S1 1_555 1_555
C1 H1 1_555 1_555
H2 C1 1_555 1_555
H3 C1 1_555 1_555
C2 C1 1_555 1_555
C3 C2 1_555 1_555
H4 C3 1_555 1_555
C4 C3 1_555 1_555
H5 C4 1_555 1_555
C5 S1 1_555 1_555
C6 C5 1_555 1_555
H6 C6 1_555 1_555
C7 C2 1_555 1_555
H7 C7 1_555 1_555
C8 N1 1_555 1_555
C9 C8 1_555 1_555
H8 C9 1_555 1_555
H9 C9 1_555 1_555
C10 O4 1_555 1_555
H10 C10 1_555 1_555
H11 C10 1_555 1_555
H12 C10 1_555 1_555
C11 N1 1_555 1_555
C12 C11 1_555 1_555
C13 C12 1_555 1_555
H13 C13 1_555 1_555
C14 C13 1_555 1_555
C15 C14 1_555 1_555
H14 C15 1_555 1_555
C16 C15 1_555 1_555
H15 C16 1_555 1_555
C17 C16 1_555 1_555
H16 C17 1_555 1_555
C18 C17 1_555 1_555
H17 C18 1_555 1_555
C19 C14 1_555 1_555
H18 C19 1_555 1_555
C20 C11 1_555 1_555
C21 C20 1_555 1_555
H19 C21 1_555 1_555
C22 C21 1_555 1_555
H20 C22 1_555 1_555
C23 C22 1_555 1_555
H21 C23 1_555 1_555
C24 C23 1_555 1_555
H22 C24 1_555 1_555
C25 C20 1_555 1_555
H23 C25 1_555 1_555
S2 O5 1_555 1_555
O6 S2 1_555 1_555
O7 C33 1_555 1_555
O8 C34 1_555 1_555
N2 S2 1_555 1_555
C26 H24 1_555 1_555
H25 C26 1_555 1_555
H26 C26 1_555 1_555
C27 C26 1_555 1_555
C28 C27 1_555 1_555
H27 C28 1_555 1_555
C29 C28 1_555 1_555
H28 C29 1_555 1_555
C30 S2 1_555 1_555
C31 C30 1_555 1_555
H29 C31 1_555 1_555
C32 C27 1_555 1_555
H30 C32 1_555 1_555
C33 N2 1_555 1_555
C34 C33 1_555 1_555
H31 C34 1_555 1_555
H32 C34 1_555 1_555
C35 O8 1_555 1_555
H33 C35 1_555 1_555
H34 C35 1_555 1_555
H35 C35 1_555 1_555
C36 N2 1_555 1_555
C37 C36 1_555 1_555
C38 C37 1_555 1_555
H36 C38 1_555 1_555
C39 C38 1_555 1_555
H37 C39 1_555 1_555
C40 C39 1_555 1_555
H38 C40 1_555 1_555
C41 C40 1_555 1_555
H39 C41 1_555 1_555
C42 C37 1_555 1_555
H40 C42 1_555 1_555
C43 C36 1_555 1_555
C44 C43 1_555 1_555
H41 C44 1_555 1_555
C45 C44 1_555 1_555
C46 C45 1_555 1_555
H42 C46 1_555 1_555
C47 C46 1_555 1_555
H43 C47 1_555 1_555
C48 C47 1_555 1_555
H44 C48 1_555 1_555
C49 C48 1_555 1_555
H45 C49 1_555 1_555
C50 C45 1_555 1_555
H46 C50 1_555 1_555
C4 C5 1_555 1_555
C6 C7 1_555 1_555
C18 C19 1_555 1_555
C24 C25 1_555 1_555
C29 C30 1_555 1_555
C31 C32 1_555 1_555
C41 C42 1_555 1_555
C49 C50 1_555 1_555

#END
