
#######################################################################
#
#                 Cambridge Crystallographic Data Centre
#                                CCDC 
#
#######################################################################
#
# If this CIF has been generated from an entry in the Cambridge 
# Structural Database, then it will include bibliographic, chemical, 
# crystal, experimental, refinement or atomic coordinate data resulting 
# from the CCDC's data processing and validation procedures.
#
#######################################################################

data_BIGJUX
_chemical_formula_moiety         'C74 H46'
_chemical_name_systematic        
9,10,11,20,21,22-Hexaphenyltetrabenzo(a,c,l,n)pentacene
_symmetry_cell_setting           monoclinic
_symmetry_space_group_name_H-M   'P 21/c'
_symmetry_Int_Tables_number      14
_space_group_name_Hall           '-P 2ybc'
loop_
_symmetry_equiv_pos_site_id
_symmetry_equiv_pos_as_xyz
1 x,y,z
2 -x,1/2+y,1/2-z
3 -x,-y,-z
4 x,1/2-y,1/2+z
_cell_length_a                   15.5738(5)
_cell_length_b                   17.2429(8)
_cell_length_c                   18.2439(8)
_cell_angle_alpha                90
_cell_angle_beta                 90.816(2)
_cell_angle_gamma                90
_cell_volume                     4898.67
_exptl_crystal_colour            orange
_exptl_crystal_description       needle
_chemical_melting_point          'above 743 K'
_cell_formula_units_Z            4
_exptl_crystal_recrystallization_method benzene/ethanol
loop_
_atom_site_label
_atom_site_type_symbol
_atom_site_fract_x
_atom_site_fract_y
_atom_site_fract_z
C1 C 0.1107(2) -0.0871(2) 0.3866(2)
H1 H 0.0892 -0.1112 0.3433
C2 C 0.0641(2) -0.0915(2) 0.4503(2)
H2 H 0.0108 -0.1183 0.4503
C3 C 0.0947(2) -0.0571(2) 0.5141(2)
H3 H 0.0626 -0.0603 0.5579
C4 C 0.1717(2) -0.0183(2) 0.5135(2)
H4 H 0.1924 0.0053 0.5574
C5 C 0.2204(2) -0.0127(2) 0.45018(15)
C6 C 0.3020(2) 0.0300(2) 0.44864(15)
C7 C 0.3536(2) 0.0395(2) 0.5118(2)
H5 H 0.3350 0.0185 0.5571
C8 C 0.4304(2) 0.0786(2) 0.5095(2)
H6 H 0.4643 0.0849 0.5528
C9 C 0.4581(2) 0.1087(2) 0.44353(15)
H7 H 0.5115 0.1353 0.4415
C10 C 0.4089(2) 0.1003(2) 0.3812(2)
H8 H 0.4286 0.1216 0.3365
C11 C 0.3296(2) 0.0608(2) 0.38171(14)
C12 C 0.2809(2) 0.0417(2) 0.31435(14)
C13 C 0.2805(2) 0.0834(2) 0.24934(14)
C14 C 0.2522(2) 0.0444(2) 0.18283(13)
C15 C 0.2267(2) 0.0825(2) 0.11725(14)
C16 C 0.2262(2) 0.03972(15) 0.05068(14)
C17 C 0.1843(2) 0.0610(2) -0.01771(14)
C18 C 0.2050(2) 0.0213(2) -0.08108(14)
C19 C 0.1503(2) 0.0185(2) -0.14842(15)
C20 C 0.0610(2) 0.0249(2) -0.1474(2)
H9 H 0.0339 0.0382 -0.1028
C21 C 0.0110(2) 0.0127(2) -0.2091(2)
H10 H -0.0497 0.0175 -0.2065
C22 C 0.0486(2) -0.0067(2) -0.2745(2)
H11 H 0.0142 -0.0153 -0.3171
C23 C 0.1363(2) -0.0135(2) -0.2777(2)
H12 H 0.1620 -0.0267 -0.3229
C24 C 0.1892(2) -0.0014(2) -0.21518(15)
C25 C 0.2824(2) -0.0108(2) -0.21731(14)
C26 C 0.3268(2) -0.0029(2) -0.2826(2)
H13 H 0.2957 0.0087 -0.3263
C27 C 0.4141(2) -0.0115(2) -0.2855(2)
H14 H 0.4429 -0.0059 -0.3308
C28 C 0.4598(2) -0.0282(2) -0.2222(2)
H15 H 0.5203 -0.0344 -0.2238
C29 C 0.4178(2) -0.0361(2) -0.1562(2)
H16 H 0.4502 -0.0475 -0.1130
C30 C 0.3288(2) -0.02767(15) -0.15196(15)
C31 C 0.2827(2) -0.02540(15) -0.08139(15)
C32 C 0.3099(2) -0.0579(2) -0.01596(14)
C33 C 0.2691(2) -0.03412(15) 0.05122(14)
C34 C 0.2713(2) -0.07746(15) 0.11713(14)
C35 C 0.2530(2) -0.0396(2) 0.18375(14)
C36 C 0.2312(2) -0.0761(2) 0.25272(14)
C37 C 0.2348(2) -0.0314(2) 0.31564(14)
C38 C 0.1896(2) -0.0475(2) 0.38495(14)
C39 C 0.3168(2) 0.1637(2) 0.24852(15)
C40 C 0.2881(2) 0.2185(2) 0.2990(2)
H17 H 0.2407 0.2066 0.3292
C41 C 0.3280(2) 0.2902(2) 0.3053(2)
H18 H 0.3072 0.3274 0.3391
C42 C 0.3975(2) 0.3072(2) 0.2628(2)
H19 H 0.4262 0.3555 0.2686
C43 C 0.4254(2) 0.2545(2) 0.2119(2)
H20 H 0.4729 0.2669 0.1820
C44 C 0.3848(2) 0.1834(2) 0.2040(2)
H21 H 0.4038 0.1479 0.1678
C45 C 0.2016(2) 0.16574(15) 0.12011(15)
C46 C 0.1394(2) 0.1909(2) 0.1687(2)
H22 H 0.1119 0.1542 0.1992
C47 C 0.1170(2) 0.2683(2) 0.1732(2)
H23 H 0.0747 0.2845 0.2070
C48 C 0.1556(2) 0.3212(2) 0.1292(2)
H24 H 0.1403 0.3744 0.1325
C49 C 0.2170(2) 0.2981(2) 0.0797(2)
H25 H 0.2434 0.3353 0.0488
C50 C 0.2402(2) 0.2202(2) 0.0752(2)
H26 H 0.2825 0.2043 0.0413
C51 C 0.1163(2) 0.1214(2) -0.01992(15)
C52 C 0.0452(2) 0.1183(2) 0.0236(2)
H27 H 0.0398 0.0777 0.0584
C53 C -0.0190(2) 0.1739(3) 0.0173(2)
H28 H -0.0677 0.1719 0.0479
C54 C -0.0109(3) 0.2326(2) -0.0345(2)
H29 H -0.0558 0.2695 -0.0403
C55 C 0.0610(3) 0.2384(2) -0.0775(2)
H30 H 0.0674 0.2797 -0.1114
C56 C 0.1222(2) 0.1827(2) -0.0695(2)
H31 H 0.1716 0.1857 -0.0993
C57 C 0.3871(2) -0.1090(2) -0.00900(14)
C58 C 0.3946(2) -0.1793(2) -0.0453(2)
H32 H 0.3495 -0.1969 -0.0768
C59 C 0.4679(2) -0.2239(2) -0.0357(2)
H33 H 0.4721 -0.2726 -0.0599
C60 C 0.5351(2) -0.1984(2) 0.0088(2)
H34 H 0.5849 -0.2296 0.0153
C61 C 0.5294(2) -0.1283(2) 0.0433(2)
H35 H 0.5760 -0.1096 0.0725
C62 C 0.4553(2) -0.0846(2) 0.0354(2)
H36 H 0.4508 -0.0367 0.0608
C63 C 0.2884(2) -0.16233(15) 0.11396(14)
C64 C 0.2405(2) -0.2078(2) 0.0651(2)
H37 H 0.1983 -0.1839 0.0346
C65 C 0.2531(2) -0.2871(2) 0.0601(2)
H38 H 0.2203 -0.3171 0.0263
C66 C 0.3140(2) -0.3221(2) 0.1050(2)
H39 H 0.3225 -0.3766 0.1025
C67 C 0.3626(2) -0.2779(2) 0.1536(2)
H40 H 0.4047 -0.3021 0.1840
C68 C 0.3502(2) -0.1984(2) 0.15795(15)
H41 H 0.3840 -0.1685 0.1912
C69 C 0.1990(2) -0.1572(2) 0.25795(14)
C70 C 0.1305(2) -0.1842(2) 0.2153(2)
H42 H 0.1086 -0.1533 0.1761
C71 C 0.0941(2) -0.2559(2) 0.2296(2)
H43 H 0.0471 -0.2737 0.2004
C72 C 0.1254(2) -0.3016(2) 0.2860(2)
H44 H 0.0986 -0.3497 0.2966
C73 C 0.1951(2) -0.2776(2) 0.3266(2)
H45 H 0.2181 -0.3101 0.3642
C74 C 0.2321(2) -0.2060(2) 0.3129(2)
H46 H 0.2806 -0.1898 0.3411
loop_
_geom_bond_atom_site_label_1
_geom_bond_atom_site_label_2
_geom_bond_site_symmetry_1
_geom_bond_site_symmetry_2
C1 H1 1_555 1_555
C2 C1 1_555 1_555
H2 C2 1_555 1_555
C3 C2 1_555 1_555
H3 C3 1_555 1_555
C4 C3 1_555 1_555
H4 C4 1_555 1_555
C5 C4 1_555 1_555
C6 C5 1_555 1_555
C7 C6 1_555 1_555
H5 C7 1_555 1_555
C8 C7 1_555 1_555
H6 C8 1_555 1_555
C9 C8 1_555 1_555
H7 C9 1_555 1_555
C10 C9 1_555 1_555
H8 C10 1_555 1_555
C11 C6 1_555 1_555
C12 C11 1_555 1_555
C13 C12 1_555 1_555
C14 C13 1_555 1_555
C15 C14 1_555 1_555
C16 C15 1_555 1_555
C17 C16 1_555 1_555
C18 C17 1_555 1_555
C19 C18 1_555 1_555
C20 C19 1_555 1_555
H9 C20 1_555 1_555
C21 C20 1_555 1_555
H10 C21 1_555 1_555
C22 C21 1_555 1_555
H11 C22 1_555 1_555
C23 C22 1_555 1_555
H12 C23 1_555 1_555
C24 C19 1_555 1_555
C25 C24 1_555 1_555
C26 C25 1_555 1_555
H13 C26 1_555 1_555
C27 C26 1_555 1_555
H14 C27 1_555 1_555
C28 C27 1_555 1_555
H15 C28 1_555 1_555
C29 C28 1_555 1_555
H16 C29 1_555 1_555
C30 C25 1_555 1_555
C31 C18 1_555 1_555
C32 C31 1_555 1_555
C33 C16 1_555 1_555
C34 C33 1_555 1_555
C35 C14 1_555 1_555
C36 C35 1_555 1_555
C37 C12 1_555 1_555
C38 C1 1_555 1_555
C39 C13 1_555 1_555
C40 C39 1_555 1_555
H17 C40 1_555 1_555
C41 C40 1_555 1_555
H18 C41 1_555 1_555
C42 C41 1_555 1_555
H19 C42 1_555 1_555
C43 C42 1_555 1_555
H20 C43 1_555 1_555
C44 C39 1_555 1_555
H21 C44 1_555 1_555
C45 C15 1_555 1_555
C46 C45 1_555 1_555
H22 C46 1_555 1_555
C47 C46 1_555 1_555
H23 C47 1_555 1_555
C48 C47 1_555 1_555
H24 C48 1_555 1_555
C49 C48 1_555 1_555
H25 C49 1_555 1_555
C50 C45 1_555 1_555
H26 C50 1_555 1_555
C51 C17 1_555 1_555
C52 C51 1_555 1_555
H27 C52 1_555 1_555
C53 C52 1_555 1_555
H28 C53 1_555 1_555
C54 C53 1_555 1_555
H29 C54 1_555 1_555
C55 C54 1_555 1_555
H30 C55 1_555 1_555
C56 C51 1_555 1_555
H31 C56 1_555 1_555
C57 C32 1_555 1_555
C58 C57 1_555 1_555
H32 C58 1_555 1_555
C59 C58 1_555 1_555
H33 C59 1_555 1_555
C60 C59 1_555 1_555
H34 C60 1_555 1_555
C61 C60 1_555 1_555
H35 C61 1_555 1_555
C62 C57 1_555 1_555
H36 C62 1_555 1_555
C63 C34 1_555 1_555
C64 C63 1_555 1_555
H37 C64 1_555 1_555
C65 C64 1_555 1_555
H38 C65 1_555 1_555
C66 C65 1_555 1_555
H39 C66 1_555 1_555
C67 C66 1_555 1_555
H40 C67 1_555 1_555
C68 C63 1_555 1_555
H41 C68 1_555 1_555
C69 C36 1_555 1_555
C70 C69 1_555 1_555
H42 C70 1_555 1_555
C71 C70 1_555 1_555
H43 C71 1_555 1_555
C72 C71 1_555 1_555
H44 C72 1_555 1_555
C73 C72 1_555 1_555
H45 C73 1_555 1_555
C74 C69 1_555 1_555
H46 C74 1_555 1_555
C5 C38 1_555 1_555
C10 C11 1_555 1_555
C23 C24 1_555 1_555
C29 C30 1_555 1_555
C30 C31 1_555 1_555
C32 C33 1_555 1_555
C34 C35 1_555 1_555
C36 C37 1_555 1_555
C37 C38 1_555 1_555
C43 C44 1_555 1_555
C49 C50 1_555 1_555
C55 C56 1_555 1_555
C61 C62 1_555 1_555
C67 C68 1_555 1_555
C73 C74 1_555 1_555

#END
