
#######################################################################
#
#                 Cambridge Crystallographic Data Centre
#                                CCDC 
#
#######################################################################
#
# If this CIF has been generated from an entry in the Cambridge 
# Structural Database, then it will include bibliographic, chemical, 
# crystal, experimental, refinement or atomic coordinate data resulting 
# from the CCDC's data processing and validation procedures.
#
#######################################################################

data_BIGLEL
_chemical_formula_moiety         'C28 H38 Ba1 O8 S2,C3 H6 O1'
_chemical_name_systematic        
'(18-crown-6)-bis(4-methylthiobenzoato)-barium acetone solvate'
_symmetry_cell_setting           triclinic
_symmetry_space_group_name_H-M   'P -1'
_symmetry_Int_Tables_number      2
_space_group_name_Hall           '-P 1'
loop_
_symmetry_equiv_pos_site_id
_symmetry_equiv_pos_as_xyz
1 x,y,z
2 -x,-y,-z
_cell_length_a                   13.490(2)
_cell_length_b                   16.0320(10)
_cell_length_c                   8.482(2)
_cell_angle_alpha                94.83(2)
_cell_angle_beta                 93.13(2)
_cell_angle_gamma                107.059(8)
_cell_volume                     1741.41
_exptl_crystal_colour            colorless
_exptl_crystal_description       prismatic
_cell_formula_units_Z            2
loop_
_atom_site_label
_atom_site_type_symbol
_atom_site_fract_x
_atom_site_fract_y
_atom_site_fract_z
Ba1 Ba 0.01697(2) 0.25889(2) 0.19429(2)
S1 S 0.12289(6) 0.12948(5) 0.39777(9)
S2 S -0.15168(7) 0.36817(6) 0.17322(11)
O1 O 0.21037(16) 0.23041(14) 0.1880(3)
O2 O -0.14785(16) 0.24401(14) -0.0426(2)
O3 O 0.17589(15) 0.41570(12) 0.1770(2)
O4 O 0.05797(16) 0.39988(13) 0.4387(2)
O5 O -0.07591(16) 0.23507(13) 0.4856(2)
O6 O -0.14345(15) 0.10529(12) 0.2193(2)
O7 O -0.01451(15) 0.11659(12) -0.0379(2)
O8 O 0.10964(15) 0.28951(12) -0.0922(2)
C1 C 0.2143(2) 0.17120(17) 0.2705(3)
C2 C 0.3058(2) 0.13532(17) 0.2542(3)
C3 C 0.3780(2) 0.16876(19) 0.1478(4)
H1 H 0.3684 0.2123 0.0844
C4 C 0.4643(2) 0.1391(2) 0.1333(4)
H2 H 0.5138 0.1639 0.0617
C5 C 0.4800(2) 0.0744(2) 0.2204(4)
C6 C 0.4062(3) 0.0399(2) 0.3235(4)
H3 H 0.4143 -0.0054 0.3835
C7 C 0.3205(2) 0.0700(2) 0.3412(4)
H4 H 0.2714 0.0456 0.4137
C8 C 0.5743(3) 0.0424(3) 0.2031(5)
H5 H 0.5542 -0.0133 0.1348
H6 H 0.6017 0.0338 0.3079
H7 H 0.6279 0.0861 0.1552
C9 C -0.1980(2) 0.29216(18) 0.0112(3)
C10 C -0.3029(2) 0.28272(17) -0.0714(3)
C11 C -0.3432(2) 0.2175(2) -0.1967(4)
H8 H -0.3047 0.1787 -0.2273
C12 C -0.4390(2) 0.2081(2) -0.2781(4)
H9 H -0.4647 0.1634 -0.3638
C13 C -0.4975(2) 0.2637(2) -0.2349(4)
C14 C -0.4576(2) 0.32821(19) -0.1099(4)
H10 H -0.4962 0.3670 -0.0795
C15 C -0.3622(2) 0.33761(17) -0.0275(3)
H11 H -0.3373 0.3818 0.0594
C16 C -0.6028(3) 0.2523(3) -0.3199(5)
H12 H -0.6553 0.2050 -0.2782
H13 H -0.6004 0.2376 -0.4339
H14 H -0.6209 0.3071 -0.3028
C17 C 0.1733(3) 0.49058(19) 0.2770(4)
H15 H 0.1160 0.5123 0.2376
H16 H 0.2396 0.5381 0.2775
C18 C 0.1567(3) 0.46451(19) 0.4419(4)
H17 H 0.2124 0.4404 0.4793
H18 H 0.1589 0.5164 0.5156
C19 C 0.0291(3) 0.3774(2) 0.5918(3)
H19 H 0.0305 0.4308 0.6606
H20 H 0.0792 0.3508 0.6411
C20 C -0.0779(3) 0.3137(2) 0.5766(4)
H21 H -0.1007 0.3005 0.6831
H22 H -0.1276 0.3391 0.5231
C21 C -0.1736(2) 0.1684(2) 0.4693(4)
H23 H -0.2264 0.1891 0.4122
H24 H -0.1968 0.1550 0.5755
C22 C -0.1629(2) 0.0875(2) 0.3788(4)
H25 H -0.1046 0.0706 0.4291
H26 H -0.2275 0.0384 0.3795
C23 C -0.1352(2) 0.03022(18) 0.1234(4)
H27 H -0.2006 -0.0185 0.1207
H28 H -0.0777 0.0107 0.1692
C24 C -0.1149(2) 0.05363(19) -0.0407(4)
H29 H -0.1178 0.0004 -0.1112
H30 H -0.1689 0.0784 -0.0826
C25 C 0.0077(2) 0.14441(19) -0.1912(3)
H31 H -0.0450 0.1712 -0.2305
H32 H 0.0053 0.0933 -0.2671
C26 C 0.1136(2) 0.20995(19) -0.1795(3)
H33 H 0.1649 0.1867 -0.1245
H34 H 0.1354 0.2217 -0.2871
C27 C 0.2091(2) 0.35496(19) -0.0738(4)
H35 H 0.2331 0.3692 -0.1793
H36 H 0.2608 0.3328 -0.0173
C28 C 0.1993(3) 0.43539(19) 0.0192(4)
H37 H 0.2652 0.4837 0.0227
H38 H 0.1432 0.4544 -0.0324
O9 O 0.6015(3) 0.5015(2) 0.2635(5)
C29 C 0.5430(3) 0.4392(3) 0.3125(5)
C30 C 0.5830(3) 0.3731(3) 0.3870(5)
H39 H 0.6571 0.3846 0.3711
H40 H 0.5443 0.3141 0.3380
H41 H 0.5741 0.3772 0.5010
C31 C 0.4282(3) 0.4235(3) 0.3016(6)
H42 H 0.4114 0.4708 0.2505
H43 H 0.4040 0.4221 0.4085
H44 H 0.3937 0.3672 0.2387
loop_
_geom_bond_atom_site_label_1
_geom_bond_atom_site_label_2
_geom_bond_site_symmetry_1
_geom_bond_site_symmetry_2
Ba1 S1 1_555 1_555
S1 C1 1_555 1_555
S2 Ba1 1_555 1_555
O1 Ba1 1_555 1_555
O2 Ba1 1_555 1_555
O3 Ba1 1_555 1_555
O4 Ba1 1_555 1_555
O5 Ba1 1_555 1_555
O6 Ba1 1_555 1_555
O7 Ba1 1_555 1_555
O8 Ba1 1_555 1_555
C1 O1 1_555 1_555
C2 C1 1_555 1_555
C3 C2 1_555 1_555
H1 C3 1_555 1_555
C4 C3 1_555 1_555
H2 C4 1_555 1_555
C5 C4 1_555 1_555
C6 C5 1_555 1_555
H3 C6 1_555 1_555
C7 C2 1_555 1_555
H4 C7 1_555 1_555
C8 C5 1_555 1_555
H5 C8 1_555 1_555
H6 C8 1_555 1_555
H7 C8 1_555 1_555
C9 S2 1_555 1_555
C10 C9 1_555 1_555
C11 C10 1_555 1_555
H8 C11 1_555 1_555
C12 C11 1_555 1_555
H9 C12 1_555 1_555
C13 C12 1_555 1_555
C14 C13 1_555 1_555
H10 C14 1_555 1_555
C15 C10 1_555 1_555
H11 C15 1_555 1_555
C16 C13 1_555 1_555
H12 C16 1_555 1_555
H13 C16 1_555 1_555
H14 C16 1_555 1_555
C17 O3 1_555 1_555
H15 C17 1_555 1_555
H16 C17 1_555 1_555
C18 O4 1_555 1_555
H17 C18 1_555 1_555
H18 C18 1_555 1_555
C19 O4 1_555 1_555
H19 C19 1_555 1_555
H20 C19 1_555 1_555
C20 O5 1_555 1_555
H21 C20 1_555 1_555
H22 C20 1_555 1_555
C21 O5 1_555 1_555
H23 C21 1_555 1_555
H24 C21 1_555 1_555
C22 O6 1_555 1_555
H25 C22 1_555 1_555
H26 C22 1_555 1_555
C23 O6 1_555 1_555
H27 C23 1_555 1_555
H28 C23 1_555 1_555
C24 O7 1_555 1_555
H29 C24 1_555 1_555
H30 C24 1_555 1_555
C25 O7 1_555 1_555
H31 C25 1_555 1_555
H32 C25 1_555 1_555
C26 O8 1_555 1_555
H33 C26 1_555 1_555
H34 C26 1_555 1_555
C27 O8 1_555 1_555
H35 C27 1_555 1_555
H36 C27 1_555 1_555
C28 O3 1_555 1_555
H37 C28 1_555 1_555
H38 C28 1_555 1_555
O9 C29 1_555 1_555
C29 C30 1_555 1_555
C30 H39 1_555 1_555
H40 C30 1_555 1_555
H41 C30 1_555 1_555
C31 C29 1_555 1_555
H42 C31 1_555 1_555
H43 C31 1_555 1_555
H44 C31 1_555 1_555
O2 C9 1_555 1_555
C6 C7 1_555 1_555
C14 C15 1_555 1_555
C17 C18 1_555 1_555
C19 C20 1_555 1_555
C21 C22 1_555 1_555
C23 C24 1_555 1_555
C25 C26 1_555 1_555
C27 C28 1_555 1_555

#END
