
#######################################################################
#
#                 Cambridge Crystallographic Data Centre
#                                CCDC 
#
#######################################################################
#
# If this CIF has been generated from an entry in the Cambridge 
# Structural Database, then it will include bibliographic, chemical, 
# crystal, experimental, refinement or atomic coordinate data resulting 
# from the CCDC's data processing and validation procedures.
#
#######################################################################

data_BIGXOG
_chemical_formula_moiety         'C17 H11 N1 O4'
_chemical_name_systematic        
2-Methoxy-7H-[1,3]dioxolo[4,5-j]pyrrolo[3,2,1-de]phenanthridin-7-one
_symmetry_cell_setting           orthorhombic
_symmetry_space_group_name_H-M   'P 21 21 21'
_symmetry_Int_Tables_number      19
_space_group_name_Hall           'P 2ac 2ab'
loop_
_symmetry_equiv_pos_site_id
_symmetry_equiv_pos_as_xyz
1 x,y,z
2 1/2+x,1/2-y,-z
3 -x,1/2+y,1/2-z
4 1/2-x,-y,1/2+z
_cell_length_a                   4.9959(1)
_cell_length_b                   15.4251(5)
_cell_length_c                   16.5839(6)
_cell_angle_alpha                90
_cell_angle_beta                 90
_cell_angle_gamma                90
_cell_volume                     1277.99
_exptl_crystal_colour            'light yellow'
_exptl_crystal_description       plate
_cell_formula_units_Z            4
loop_
_atom_site_label
_atom_site_type_symbol
_atom_site_fract_x
_atom_site_fract_y
_atom_site_fract_z
N1 N 0.1990(4) 0.17073(10) 0.68620(9)
C1 C 0.0086(5) 0.12235(13) 0.64379(12)
C2 C -0.1288(4) 0.17548(13) 0.59395(12)
C3 C -0.0280(4) 0.26290(12) 0.60480(11)
C4 C -0.0877(4) 0.34527(12) 0.57391(11)
C5 C 0.0598(4) 0.41534(13) 0.60312(11)
C6 C 0.2629(4) 0.40607(12) 0.66124(11)
C7 C 0.3245(4) 0.32434(11) 0.69225(11)
C8 C 0.5245(4) 0.30291(11) 0.75325(11)
C9 C 0.6920(4) 0.36696(12) 0.78743(11)
C10 C 0.8709(4) 0.34037(12) 0.84457(10)
O1 O 1.0512(3) 0.39065(9) 0.88628(8)
C11 C 1.1905(4) 0.33268(12) 0.93949(11)
O2 O 1.0822(3) 0.24747(9) 0.92887(8)
C12 C 0.8921(4) 0.25444(12) 0.86947(11)
C13 C 0.7358(4) 0.19027(12) 0.83739(11)
C14 C 0.5471(4) 0.21524(12) 0.77847(11)
C15 C 0.3793(4) 0.14508(12) 0.74508(11)
C16 C 0.1747(4) 0.25623(12) 0.66193(10)
O3 O 0.0262(3) 0.49947(9) 0.57733(9)
C17 C -0.1946(5) 0.51765(15) 0.52579(15)
O4 O 0.3915(3) 0.06945(9) 0.76675(10)
H1 H -0.0156 0.0621 0.6518
H2 H -0.2671 0.1580 0.5598
H3 H -0.2230 0.3522 0.5339
H4 H 0.3518 0.4579 0.6799
H5 H 0.6813 0.4260 0.7728
H6 H 1.1634 0.3499 0.9955
H7 H 1.3792 0.3311 0.9237
H8 H 0.7528 0.1301 0.8521
H9 H -0.2014 0.5799 0.5182
H10 H -0.3608 0.4966 0.5494
H11 H -0.1658 0.4881 0.4729
loop_
_geom_bond_atom_site_label_1
_geom_bond_atom_site_label_2
_geom_bond_site_symmetry_1
_geom_bond_site_symmetry_2
N1 C1 1_555 1_555
C1 C2 1_555 1_555
C2 C3 1_555 1_555
C3 C4 1_555 1_555
C4 C5 1_555 1_555
C5 C6 1_555 1_555
C6 C7 1_555 1_555
C7 C8 1_555 1_555
C8 C9 1_555 1_555
C9 C10 1_555 1_555
C10 O1 1_555 1_555
O1 C11 1_555 1_555
C11 O2 1_555 1_555
O2 C12 1_555 1_555
C12 C10 1_555 1_555
C13 C12 1_555 1_555
C14 C8 1_555 1_555
C15 N1 1_555 1_555
C16 N1 1_555 1_555
O3 C5 1_555 1_555
C17 O3 1_555 1_555
O4 C15 1_555 1_555
H1 C1 1_555 1_555
H2 C2 1_555 1_555
H3 C4 1_555 1_555
H4 C6 1_555 1_555
H5 C9 1_555 1_555
H6 C11 1_555 1_555
H7 C11 1_555 1_555
H8 C13 1_555 1_555
H9 C17 1_555 1_555
H10 C17 1_555 1_555
H11 C17 1_555 1_555
C3 C16 1_555 1_555
C7 C16 1_555 1_555
C13 C14 1_555 1_555
C14 C15 1_555 1_555

#END
