
#######################################################################
#
#                 Cambridge Crystallographic Data Centre
#                                CCDC 
#
#######################################################################
#
# If this CIF has been generated from an entry in the Cambridge 
# Structural Database, then it will include bibliographic, chemical, 
# crystal, experimental, refinement or atomic coordinate data resulting 
# from the CCDC's data processing and validation procedures.
#
#######################################################################

data_BIGXUM
_chemical_formula_moiety         'C18 H13 N1 O4'
_chemical_name_systematic        
2-Methoxy-5-methyl-7H-[1,3]dioxolo[4,5-j]pyrrolo[3,2,1-de]phenanthridin-7-one
_symmetry_cell_setting           orthorhombic
_symmetry_space_group_name_H-M   'P 21 21 21'
_symmetry_Int_Tables_number      19
_space_group_name_Hall           'P 2ac 2ab'
loop_
_symmetry_equiv_pos_site_id
_symmetry_equiv_pos_as_xyz
1 x,y,z
2 1/2+x,1/2-y,-z
3 -x,1/2+y,1/2-z
4 1/2-x,-y,1/2+z
_cell_length_a                   4.9832(3)
_cell_length_b                   16.4133(7)
_cell_length_c                   16.4878(7)
_cell_angle_alpha                90
_cell_angle_beta                 90
_cell_angle_gamma                90
_cell_volume                     1348.55
_exptl_crystal_colour            white
_exptl_crystal_description       needle
_cell_formula_units_Z            4
loop_
_atom_site_label
_atom_site_type_symbol
_atom_site_fract_x
_atom_site_fract_y
_atom_site_fract_z
N1 N 0.5398(5) 0.42452(13) 0.46053(13)
C1 C 0.7336(7) 0.37535(17) 0.42024(17)
C2 C 0.8688(7) 0.33242(18) 0.47745(17)
C3 C 0.7685(6) 0.35351(16) 0.55663(17)
C4 C 0.8272(7) 0.33152(18) 0.63674(17)
C5 C 0.6803(7) 0.36852(18) 0.69845(16)
C6 C 0.4767(6) 0.42590(16) 0.68336(17)
C7 C 0.4148(6) 0.44786(17) 0.60319(16)
C8 C 0.2154(6) 0.50663(16) 0.57661(17)
C9 C 0.0481(7) 0.54799(17) 0.63271(17)
C10 C -0.1318(7) 0.60263(17) 0.60126(16)
O1 O -0.3117(5) 0.65046(11) 0.64273(11)
C11 C -0.4521(7) 0.69744(18) 0.58267(16)
O2 O -0.3415(5) 0.67790(12) 0.50549(12)
C12 C -0.1510(6) 0.61823(16) 0.51843(17)
C13 C 0.0038(7) 0.57889(16) 0.46255(17)
C14 C 0.1902(7) 0.52227(16) 0.49302(17)
C15 C 0.3568(6) 0.48084(17) 0.43029(18)
C16 C 0.5649(6) 0.41038(17) 0.54369(16)
C17 C 0.7680(7) 0.37623(19) 0.33048(17)
O3 O 0.7207(5) 0.35272(14) 0.77964(12)
C18 C 0.9458(8) 0.3034(2) 0.80062(19)
O4 O 0.3352(5) 0.49395(13) 0.35732(11)
H1 H 1.0049 0.2952 0.4664
H2 H 0.9683 0.2934 0.6476
H3 H 0.3837 0.4506 0.7277
H4 H 0.0621 0.5395 0.6886
H5 H -0.4205 0.7557 0.5938
H6 H -0.6444 0.6831 0.5834
H7 H -0.0157 0.5881 0.4047
H8 H 0.9043 0.3350 0.3161
H9 H 0.8320 0.4284 0.3133
H10 H 0.6010 0.3632 0.3039
H11 H 0.9567 0.3027 0.8600
H12 H 1.1092 0.3265 0.7766
H13 H 0.9121 0.2487 0.7783
loop_
_geom_bond_atom_site_label_1
_geom_bond_atom_site_label_2
_geom_bond_site_symmetry_1
_geom_bond_site_symmetry_2
N1 C1 1_555 1_555
C1 C2 1_555 1_555
C2 C3 1_555 1_555
C3 C4 1_555 1_555
C4 C5 1_555 1_555
C5 C6 1_555 1_555
C6 C7 1_555 1_555
C7 C8 1_555 1_555
C8 C9 1_555 1_555
C9 C10 1_555 1_555
C10 O1 1_555 1_555
O1 C11 1_555 1_555
C11 O2 1_555 1_555
O2 C12 1_555 1_555
C12 C10 1_555 1_555
C13 C12 1_555 1_555
C14 C8 1_555 1_555
C15 N1 1_555 1_555
C16 N1 1_555 1_555
C17 C1 1_555 1_555
O3 C5 1_555 1_555
C18 O3 1_555 1_555
O4 C15 1_555 1_555
H1 C2 1_555 1_555
H2 C4 1_555 1_555
H3 C6 1_555 1_555
H4 C9 1_555 1_555
H5 C11 1_555 1_555
H6 C11 1_555 1_555
H7 C13 1_555 1_555
H8 C17 1_555 1_555
H9 C17 1_555 1_555
H10 C17 1_555 1_555
H11 C18 1_555 1_555
H12 C18 1_555 1_555
H13 C18 1_555 1_555
C3 C16 1_555 1_555
C7 C16 1_555 1_555
C13 C14 1_555 1_555
C14 C15 1_555 1_555

#END
