
#######################################################################
#
#                 Cambridge Crystallographic Data Centre
#                                CCDC 
#
#######################################################################
#
# If this CIF has been generated from an entry in the Cambridge 
# Structural Database, then it will include bibliographic, chemical, 
# crystal, experimental, refinement or atomic coordinate data resulting 
# from the CCDC's data processing and validation procedures.
#
#######################################################################

data_BIGYAT
_chemical_formula_moiety         'C30 H18 Br2 N2 O8'
_chemical_name_systematic        
2,2'-(5,5'-Bi-1,3-benzodioxole-6,6'-diyl)bis(4-bromo-6-methoxy-1,3-benzoxazole)
_symmetry_cell_setting           monoclinic
_symmetry_space_group_name_H-M   'C 2/c'
_symmetry_Int_Tables_number      15
_space_group_name_Hall           '-C 2yn'
loop_
_symmetry_equiv_pos_site_id
_symmetry_equiv_pos_as_xyz
1 x,y,z
2 1/2+x,1/2+y,z
3 -x,y,1/2-z
4 1/2-x,1/2+y,1/2-z
5 -x,-y,-z
6 1/2-x,1/2-y,-z
7 x,-y,1/2+z
8 1/2+x,1/2-y,1/2+z
_cell_length_a                   21.9693(7)
_cell_length_b                   9.6562(3)
_cell_length_c                   16.0510(5)
_cell_angle_alpha                90
_cell_angle_beta                 126.4796(15)
_cell_angle_gamma                90
_cell_volume                     2737.9
_exptl_crystal_colour            colorless
_exptl_crystal_description       needle
_cell_formula_units_Z            4
loop_
_atom_site_label
_atom_site_type_symbol
_atom_site_fract_x
_atom_site_fract_y
_atom_site_fract_z
Br1 Br 0.55405(2) 0.77939(4) 0.45976(3)
O1 O 0.71495(12) -0.1075(2) 0.43007(19)
O2 O 0.76166(12) 0.0666(3) 0.55358(18)
O3 O 0.44686(10) 0.3014(2) 0.32037(16)
O4 O 0.27377(13) 0.6547(3) 0.2833(2)
N1 N 0.54726(13) 0.4461(3) 0.39950(18)
C1 C 0.53969(15) 0.1004(3) 0.2987(2)
C2 C 0.58668(16) -0.0103(3) 0.3125(2)
C3 C 0.65981(16) -0.0109(3) 0.4007(2)
C4 C 0.7800(2) -0.0594(4) 0.5284(3)
C5 C 0.68739(15) 0.0915(3) 0.4734(2)
C6 C 0.64385(16) 0.2007(3) 0.4633(2)
C7 C 0.56774(15) 0.2034(3) 0.3743(2)
C8 C 0.52284(16) 0.3215(3) 0.3656(2)
C9 C 0.48362(16) 0.5176(3) 0.3765(2)
C10 C 0.47279(18) 0.6535(3) 0.3931(2)
C11 C 0.40132(19) 0.6941(3) 0.3601(3)
C12 C 0.34128(18) 0.5998(4) 0.3113(3)
C13 C 0.35000(17) 0.4638(3) 0.2941(2)
C14 C 0.42225(16) 0.4294(3) 0.3276(2)
C15 C 0.2091(2) 0.5659(5) 0.2282(3)
H1 H 0.5692 -0.0812 0.2630
H2 H 0.8210 -0.0475 0.5236
H3 H 0.7939 -0.1279 0.5810
H4 H 0.6625 0.2704 0.5129
H5 H 0.3929 0.7843 0.3709
H6 H 0.3108 0.4021 0.2635
H7 H 0.1659 0.6157 0.2130
H8 H 0.1999 0.5377 0.1642
H9 H 0.2172 0.4856 0.2692
Br1B Br 0.44595(2) 0.77939(4) 0.04024(3)
O1B O 0.28505(12) -0.1075(2) 0.06993(19)
O2B O 0.23834(12) 0.0666(3) -0.05358(18)
O3B O 0.55314(10) 0.3014(2) 0.17963(16)
O4B O 0.72623(13) 0.6547(3) 0.2167(2)
N1B N 0.45274(13) 0.4461(3) 0.10050(18)
C1B C 0.46031(15) 0.1004(3) 0.2013(2)
C2B C 0.41332(16) -0.0103(3) 0.1875(2)
C3B C 0.34019(16) -0.0109(3) 0.0993(2)
C4B C 0.2200(2) -0.0594(4) -0.0284(3)
C5B C 0.31261(15) 0.0915(3) 0.0266(2)
C6B C 0.35615(16) 0.2007(3) 0.0367(2)
C7B C 0.43226(15) 0.2034(3) 0.1257(2)
C8B C 0.47716(16) 0.3215(3) 0.1344(2)
C9B C 0.51638(16) 0.5176(3) 0.1235(2)
C10B C 0.52721(18) 0.6535(3) 0.1069(2)
C11B C 0.59868(19) 0.6941(3) 0.1399(3)
C12B C 0.65872(18) 0.5998(4) 0.1887(3)
C13B C 0.65000(17) 0.4638(3) 0.2059(2)
C14B C 0.57775(16) 0.4294(3) 0.1724(2)
C15B C 0.7909(2) 0.5659(5) 0.2718(3)
H1B H 0.4308 -0.0812 0.2370
H2B H 0.1790 -0.0475 -0.0236
H3B H 0.2061 -0.1279 -0.0810
H4B H 0.3375 0.2704 -0.0129
H5B H 0.6071 0.7843 0.1291
H6B H 0.6892 0.4021 0.2365
H7B H 0.8341 0.6157 0.2870
H8B H 0.8001 0.5377 0.3358
H9B H 0.7828 0.4856 0.2308
loop_
_geom_bond_atom_site_label_1
_geom_bond_atom_site_label_2
_geom_bond_site_symmetry_1
_geom_bond_site_symmetry_2
Br1 C10 1_555 1_555
O1 C3 1_555 1_555
O2 C4 1_555 1_555
O3 C8 1_555 1_555
O4 C12 1_555 1_555
N1 C8 1_555 1_555
C1 C2 1_555 1_555
C2 C3 1_555 1_555
C3 C5 1_555 1_555
C4 O1 1_555 1_555
C5 O2 1_555 1_555
C6 C5 1_555 1_555
C7 C1 1_555 1_555
C8 C7 1_555 1_555
C9 N1 1_555 1_555
C10 C9 1_555 1_555
C11 C10 1_555 1_555
C12 C11 1_555 1_555
C13 C12 1_555 1_555
C14 O3 1_555 1_555
C15 O4 1_555 1_555
H1 C2 1_555 1_555
H2 C4 1_555 1_555
H3 C4 1_555 1_555
H4 C6 1_555 1_555
H5 C11 1_555 1_555
H6 C13 1_555 1_555
H7 C15 1_555 1_555
H8 C15 1_555 1_555
H9 C15 1_555 1_555
Br1B C10B 1_555 1_555
O1B C3B 1_555 1_555
O2B C4B 1_555 1_555
O3B C8B 1_555 1_555
O4B C12B 1_555 1_555
N1B C8B 1_555 1_555
C1B C1 1_555 1_555
C2B C1B 1_555 1_555
C3B C2B 1_555 1_555
C4B O1B 1_555 1_555
C5B O2B 1_555 1_555
C6B C5B 1_555 1_555
C7B C1B 1_555 1_555
C8B C7B 1_555 1_555
C9B N1B 1_555 1_555
C10B C9B 1_555 1_555
C11B C10B 1_555 1_555
C12B C11B 1_555 1_555
C13B C12B 1_555 1_555
C14B O3B 1_555 1_555
C15B O4B 1_555 1_555
H1B C2B 1_555 1_555
H2B C4B 1_555 1_555
H3B C4B 1_555 1_555
H4B C6B 1_555 1_555
H5B C11B 1_555 1_555
H6B C13B 1_555 1_555
H7B C15B 1_555 1_555
H8B C15B 1_555 1_555
H9B C15B 1_555 1_555
C6 C7 1_555 1_555
C9 C14 1_555 1_555
C13 C14 1_555 1_555
C3B C5B 1_555 1_555
C6B C7B 1_555 1_555
C9B C14B 1_555 1_555
C13B C14B 1_555 1_555

#END
