
#######################################################################
#
#                 Cambridge Crystallographic Data Centre
#                                CCDC 
#
#######################################################################
#
# If this CIF has been generated from an entry in the Cambridge 
# Structural Database, then it will include bibliographic, chemical, 
# crystal, experimental, refinement or atomic coordinate data resulting 
# from the CCDC's data processing and validation procedures.
#
#######################################################################

data_BIGZAS10
_chemical_formula_moiety         'C40 H56 N4 O12,C6 H6 O2,4(H2 O1)'
_chemical_name_systematic        
'1,12,19,30-Tetraoxo-5,8,23,26,39,42,47,50-octaoxa-2,11,20,29-tetra-aza(12.12.8^2,11^.8^20,29^)(1,4)benzeno(2)phane hydroquinone tetrahydrate'
_symmetry_cell_setting           triclinic
_symmetry_space_group_name_H-M   'P -1'
_symmetry_Int_Tables_number      2
_space_group_name_Hall           '-P 1'
loop_
_symmetry_equiv_pos_site_id
_symmetry_equiv_pos_as_xyz
1 x,y,z
2 -x,-y,-z
_cell_length_a                   10.427(6)
_cell_length_b                   12.842(5)
_cell_length_c                   18.908(7)
_cell_angle_alpha                91.99(3)
_cell_angle_beta                 98.83(4)
_cell_angle_gamma                94.44(4)
_cell_volume                     2491.54
_chemical_melting_point          185-7deg.C
_cell_formula_units_Z            2
loop_
_atom_site_label
_atom_site_type_symbol
_atom_site_fract_x
_atom_site_fract_y
_atom_site_fract_z
C1 C 0.23000 0.10400 0.74300
O1 O 0.21100 0.01100 0.75700
N1 N 0.16300 0.14100 0.68200
C2 C 0.19400 0.24400 0.65300
C3 C 0.09000 0.32000 0.65500
O2 O -0.02900 0.28600 0.61000
C4 C -0.06400 0.35400 0.55200
C5 C -0.00200 0.33400 0.48800
O3 O 0.13200 0.37600 0.50400
C6 C 0.19600 0.35200 0.44500
C7 C 0.33100 0.40700 0.45700
N2 N 0.43100 0.35200 0.50400
C8 C 0.45400 0.37800 0.57500
O4 O 0.40100 0.44800 0.60100
C9 C 0.54400 0.31400 0.62300
C10 C 0.50900 0.20900 0.63100
C11 C 0.59100 0.15200 0.67900
C12 C 0.70500 0.20200 0.71700
C13 C 0.74000 0.30700 0.70700
C14 C 0.65700 0.36400 0.66100
C15 C 0.79600 0.13100 0.76000
O5 O 0.80100 0.04300 0.73400
N3 N 0.86800 0.16800 0.82300
C16 C 0.84700 0.26000 0.86700
C17 C 0.95500 0.34700 0.87500
O6 O 1.07500 0.31700 0.91400
C18 C 1.11300 0.36700 0.98500
C19 C 1.03600 0.32100 1.04000
O7 O 0.91200 0.35700 1.03100
C20 C 0.84400 0.32400 1.08700
C21 C 0.71400 0.37200 1.07900
N4 N 0.61300 0.31400 1.02500
C22 C 0.59000 0.35000 0.95800
O8 O 0.65100 0.42700 0.94100
C23 C 0.49600 0.28600 0.90300
C24 C 0.52400 0.18700 0.87800
C25 C 0.43700 0.13300 0.82400
C26 C 0.32500 0.17400 0.79300
C27 C 0.29600 0.27200 0.81900
C28 C 0.38200 0.32700 0.87300
C29 C 0.06300 0.06600 0.63700
C30 C 0.12400 -0.00900 0.59200
O9 O 0.17600 0.04800 0.53700
C31 C 0.29700 0.04600 0.44000
C32 C 0.25100 -0.01600 0.49900
O10 O 0.38400 0.13000 0.47400
C33 C 0.43800 0.19500 0.42500
C34 C 0.51400 0.28800 0.46700
C35 C 0.96100 0.09500 0.85600
C36 C 0.89700 0.00600 0.89400
O11 O 0.85300 0.04800 0.95600
C37 C 0.77900 -0.03300 0.98600
C38 C 0.73200 0.01600 1.04900
O12 O 0.64600 0.09300 1.02500
C39 C 0.59200 0.14300 1.08100
C40 C 0.52400 0.23400 1.05200
H1 H 0.28400 0.27900 0.68500
H2 H 0.20700 0.23200 0.59900
H3 H 0.12600 0.39600 0.63900
H4 H 0.07000 0.32900 0.71000
H5 H -0.17000 0.34300 0.53600
H6 H -0.03800 0.43400 0.57200
H7 H -0.05100 0.37400 0.44400
H8 H -0.00700 0.25200 0.47600
H9 H 0.20400 0.26800 0.44100
H10 H 0.14300 0.37700 0.39700
H11 H 0.32800 0.48200 0.48200
H12 H 0.36300 0.41300 0.40100
H13 H 0.42000 0.17200 0.60200
H14 H 0.56400 0.07100 0.68600
H15 H 0.82800 0.34600 0.73500
H16 H 0.67900 0.44600 0.65600
H17 H 0.75700 0.29100 0.84100
H18 H 0.83600 0.23500 0.91800
H19 H 0.92600 0.41400 0.90400
H20 H 0.97200 0.36800 0.82300
H21 H 1.21300 0.35500 1.00100
H22 H 1.09800 0.44800 0.98000
H23 H 1.09000 0.35100 1.09200
H24 H 1.03400 0.23900 1.03600
H25 H 0.82500 0.24300 1.08300
H26 H 0.89800 0.35200 1.13700
H27 H 0.72900 0.45000 1.06200
H28 H 0.68200 0.37200 1.13000
H29 H 0.61200 0.15400 0.90100
H30 H 0.45800 0.05700 0.80500
H31 H 0.20800 0.30400 0.79800
H32 H 0.36300 0.40300 0.89100
H33 H -0.00200 0.10900 0.60200
H34 H 0.01000 0.02100 0.67200
H35 H 0.05100 -0.06900 0.56600
H36 H 0.20000 -0.04400 0.62400
H37 H 0.21200 0.07400 0.41000
H38 H 0.34500 -0.00300 0.40700
H39 H 0.33500 -0.03900 0.53400
H40 H 0.19100 -0.08700 0.47700
H41 H 0.50200 0.15200 0.39600
H42 H 0.36200 0.22100 0.38600
H43 H 0.56000 0.33400 0.43100
H44 H 0.58700 0.25800 0.50700
H45 H 1.01000 0.06100 0.81500
H46 H 1.03600 0.13900 0.89500
H47 H 0.96900 -0.05000 0.91000
H48 H 0.81600 -0.03300 0.85800
H49 H 0.69600 -0.06200 0.94700
H50 H 0.83800 -0.09300 1.00300
H51 H 0.81300 0.05300 1.08500
H52 H 0.67900 -0.04300 1.07400
H53 H 0.52500 0.08900 1.10000
H54 H 0.67100 0.16900 1.12500
H55 H 0.48300 0.27100 1.09600
H56 H 0.44800 0.20800 1.01000
O13 O 0.28100 0.30000 0.22300
C41 C 0.16100 0.30700 0.24100
C42 C 0.08500 0.21800 0.25700
C43 C -0.03700 0.22600 0.27500
C44 C -0.09100 0.32100 0.28100
O14 O -0.21100 0.32600 0.29800
C45 C -0.01300 0.40800 0.26700
C46 C 0.10800 0.40400 0.24900
H57 H 0.12100 0.14200 0.25200
H58 H -0.09300 0.15500 0.28500
H59 H -0.04800 0.48500 0.26800
H60 H 0.16500 0.47500 0.24000
O15 O 0.65000 0.49300 0.26600
H61 H 0.62600 0.53200 0.30600
H62 H 0.69300 0.44300 0.26300
O16 O 0.38500 0.11300 0.23000
H63 H 0.35100 0.07600 0.24400
H64 H 0.36400 0.17400 0.23600
O17 O 0.64100 0.14300 0.28500
H65 H 0.66700 0.16000 0.25400
H66 H 0.62200 0.09300 0.29200
O18 O 0.42500 0.45300 0.17500
H67 H 0.35700 0.48300 0.18300
H68 H 0.41700 0.44200 0.14200
loop_
_geom_bond_atom_site_label_1
_geom_bond_atom_site_label_2
_geom_bond_site_symmetry_1
_geom_bond_site_symmetry_2
C1 O1 1_555 1_555
N1 C1 1_555 1_555
C2 N1 1_555 1_555
C3 C2 1_555 1_555
O2 C3 1_555 1_555
C4 O2 1_555 1_555
C5 C4 1_555 1_555
O3 C5 1_555 1_555
C6 O3 1_555 1_555
C7 C6 1_555 1_555
N2 C7 1_555 1_555
C8 N2 1_555 1_555
O4 C8 1_555 1_555
C9 C8 1_555 1_555
C10 C9 1_555 1_555
C11 C10 1_555 1_555
C12 C11 1_555 1_555
C13 C12 1_555 1_555
C14 C9 1_555 1_555
C15 C12 1_555 1_555
O5 C15 1_555 1_555
N3 C15 1_555 1_555
C16 N3 1_555 1_555
C17 C16 1_555 1_555
O6 C17 1_555 1_555
C18 O6 1_555 1_555
C19 C18 1_555 1_555
O7 C19 1_555 1_555
C20 O7 1_555 1_555
C21 C20 1_555 1_555
N4 C21 1_555 1_555
C22 N4 1_555 1_555
O8 C22 1_555 1_555
C23 C22 1_555 1_555
C24 C23 1_555 1_555
C25 C24 1_555 1_555
C26 C1 1_555 1_555
C27 C26 1_555 1_555
C28 C23 1_555 1_555
C29 N1 1_555 1_555
C30 C29 1_555 1_555
O9 C30 1_555 1_555
C31 C32 1_555 1_555
C32 O9 1_555 1_555
O10 C31 1_555 1_555
C33 O10 1_555 1_555
C34 N2 1_555 1_555
C35 N3 1_555 1_555
C36 C35 1_555 1_555
O11 C36 1_555 1_555
C37 O11 1_555 1_555
C38 C37 1_555 1_555
O12 C38 1_555 1_555
C39 O12 1_555 1_555
C40 N4 1_555 1_555
H1 C2 1_555 1_555
H2 C2 1_555 1_555
H3 C3 1_555 1_555
H4 C3 1_555 1_555
H5 C4 1_555 1_555
H6 C4 1_555 1_555
H7 C5 1_555 1_555
H8 C5 1_555 1_555
H9 C6 1_555 1_555
H10 C6 1_555 1_555
H11 C7 1_555 1_555
H12 C7 1_555 1_555
H13 C10 1_555 1_555
H14 C11 1_555 1_555
H15 C13 1_555 1_555
H16 C14 1_555 1_555
H17 C16 1_555 1_555
H18 C16 1_555 1_555
H19 C17 1_555 1_555
H20 C17 1_555 1_555
H21 C18 1_555 1_555
H22 C18 1_555 1_555
H23 C19 1_555 1_555
H24 C19 1_555 1_555
H25 C20 1_555 1_555
H26 C20 1_555 1_555
H27 C21 1_555 1_555
H28 C21 1_555 1_555
H29 C24 1_555 1_555
H30 C25 1_555 1_555
H31 C27 1_555 1_555
H32 C28 1_555 1_555
H33 C29 1_555 1_555
H34 C29 1_555 1_555
H35 C30 1_555 1_555
H36 C30 1_555 1_555
H37 C31 1_555 1_555
H38 C31 1_555 1_555
H39 C32 1_555 1_555
H40 C32 1_555 1_555
H41 C33 1_555 1_555
H42 C33 1_555 1_555
H43 C34 1_555 1_555
H44 C34 1_555 1_555
H45 C35 1_555 1_555
H46 C35 1_555 1_555
H47 C36 1_555 1_555
H48 C36 1_555 1_555
H49 C37 1_555 1_555
H50 C37 1_555 1_555
H51 C38 1_555 1_555
H52 C38 1_555 1_555
H53 C39 1_555 1_555
H54 C39 1_555 1_555
H55 C40 1_555 1_555
H56 C40 1_555 1_555
O13 C41 1_555 1_555
C41 C42 1_555 1_555
C42 C43 1_555 1_555
C43 C44 1_555 1_555
C44 O14 1_555 1_555
C45 C44 1_555 1_555
C46 C41 1_555 1_555
H57 C42 1_555 1_555
H58 C43 1_555 1_555
H59 C45 1_555 1_555
H60 C46 1_555 1_555
O15 H61 1_555 1_555
H62 O15 1_555 1_555
O16 H63 1_555 1_555
H64 O16 1_555 1_555
O17 H65 1_555 1_555
H66 O17 1_555 1_555
O18 H67 1_555 1_555
H68 O18 1_555 1_555
C13 C14 1_555 1_555
C25 C26 1_555 1_555
C27 C28 1_555 1_555
C33 C34 1_555 1_555
C39 C40 1_555 1_555
C45 C46 1_555 1_555

#END
