
#######################################################################
#
#                 Cambridge Crystallographic Data Centre
#                                CCDC 
#
#######################################################################
#
# If this CIF has been generated from an entry in the Cambridge 
# Structural Database, then it will include bibliographic, chemical, 
# crystal, experimental, refinement or atomic coordinate data resulting 
# from the CCDC's data processing and validation procedures.
#
#######################################################################

data_BIHBUS
_chemical_formula_moiety         'C17 H14 N2 O3'
_chemical_name_systematic        
1-methoxy-1'-methyl-3,3'-spirobi[indole]-2,2'(1H,1'H)-dione
_symmetry_cell_setting           monoclinic
_symmetry_space_group_name_H-M   'P 21/n'
_symmetry_Int_Tables_number      14
_space_group_name_Hall           '-P 2yn'
loop_
_symmetry_equiv_pos_site_id
_symmetry_equiv_pos_as_xyz
1 x,y,z
2 1/2-x,1/2+y,1/2-z
3 -x,-y,-z
4 1/2+x,1/2-y,1/2+z
_cell_length_a                   12.747(5)
_cell_length_b                   8.312(3)
_cell_length_c                   14.009(6)
_cell_angle_alpha                90
_cell_angle_beta                 111.970(8)
_cell_angle_gamma                90
_cell_volume                     1376.51
_exptl_crystal_colour            colorless
_exptl_crystal_description       Prism
_cell_formula_units_Z            4
_exptl_crystal_recrystallization_method dichloromethane/PE
loop_
_atom_site_label
_atom_site_type_symbol
_atom_site_fract_x
_atom_site_fract_y
_atom_site_fract_z
O1 O -0.03456(7) 1.15037(10) 0.15188(7)
O2 O -0.20152(7) 0.91476(11) 0.05482(6)
O3 O -0.04770(7) 1.10669(10) 0.39999(7)
N1 N -0.11846(8) 0.90636(12) 0.15221(7)
N2 N 0.14489(7) 1.11826(11) 0.44087(7)
C1 C 0.04156(8) 0.95908(13) 0.29756(8)
C2 C -0.03957(9) 1.02405(13) 0.19222(8)
C3 C -0.10071(9) 0.76782(13) 0.21337(8)
C4 C -0.00427(8) 0.79234(13) 0.30182(8)
C5 C 0.03229(9) 0.67303(14) 0.37506(8)
H1 H 0.0977 0.6878 0.4357
C6 C -0.02941(10) 0.52952(14) 0.35777(9)
H2 H -0.0047 0.4450 0.4068
C7 C -0.12599(11) 0.50896(14) 0.27020(10)
H3 H -0.1669 0.4109 0.2608
C8 C -0.16462(10) 0.62913(15) 0.19542(9)
H4 H -0.2312 0.6161 0.1356
C9 C 0.03657(9) 1.07001(13) 0.38473(8)
C10 C 0.22118(9) 1.06283(13) 0.39795(8)
C11 C 0.16471(9) 0.96869(13) 0.31195(8)
C12 C 0.22234(10) 0.90123(14) 0.25641(9)
H5 H 0.1841 0.8367 0.1977
C13 C 0.33860(10) 0.92977(15) 0.28829(9)
H6 H 0.3799 0.8846 0.2508
C14 C 0.39381(9) 1.02347(15) 0.37417(9)
H7 H 0.4728 1.0416 0.3945
C15 C 0.33647(9) 1.09196(14) 0.43155(9)
H8 H 0.3746 1.1555 0.4908
C16 C -0.15537(12) 0.86806(18) -0.01970(10)
H9 H -0.2148 0.8719 -0.0887
H10 H -0.1255 0.7583 -0.0051
H11 H -0.0942 0.9419 -0.0164
C17 C 0.17662(10) 1.21832(15) 0.53217(9)
H12 H 0.2507 1.1844 0.5814
H13 H 0.1201 1.2072 0.5637
H14 H 0.1805 1.3310 0.5131
loop_
_geom_bond_atom_site_label_1
_geom_bond_atom_site_label_2
_geom_bond_site_symmetry_1
_geom_bond_site_symmetry_2
O1 C2 1_555 1_555
O2 N1 1_555 1_555
O3 C9 1_555 1_555
N1 C2 1_555 1_555
N2 C9 1_555 1_555
C1 C2 1_555 1_555
C3 N1 1_555 1_555
C4 C1 1_555 1_555
C5 C4 1_555 1_555
H1 C5 1_555 1_555
C6 C5 1_555 1_555
H2 C6 1_555 1_555
C7 C6 1_555 1_555
H3 C7 1_555 1_555
C8 C3 1_555 1_555
H4 C8 1_555 1_555
C9 C1 1_555 1_555
C10 N2 1_555 1_555
C11 C1 1_555 1_555
C12 C11 1_555 1_555
H5 C12 1_555 1_555
C13 C12 1_555 1_555
H6 C13 1_555 1_555
C14 C13 1_555 1_555
H7 C14 1_555 1_555
C15 C10 1_555 1_555
H8 C15 1_555 1_555
C16 O2 1_555 1_555
H9 C16 1_555 1_555
H10 C16 1_555 1_555
H11 C16 1_555 1_555
C17 N2 1_555 1_555
H12 C17 1_555 1_555
H13 C17 1_555 1_555
H14 C17 1_555 1_555
C3 C4 1_555 1_555
C7 C8 1_555 1_555
C10 C11 1_555 1_555
C14 C15 1_555 1_555

#END
