
#######################################################################
#
#                 Cambridge Crystallographic Data Centre
#                                CCDC 
#
#######################################################################
#
# If this CIF has been generated from an entry in the Cambridge 
# Structural Database, then it will include bibliographic, chemical, 
# crystal, experimental, refinement or atomic coordinate data resulting 
# from the CCDC's data processing and validation procedures.
#
#######################################################################

data_BIHBOL
_chemical_formula_moiety         'C44 H45 N3 O3,C2 H3 N1'
_chemical_name_systematic        
"N-Benzyl-2'-(2,2-dimethylpropyl)-1'-(2-hydroxy-1,2-diphenylethyl)-2-oxo-4'-phenyl-1,2-dihydrospiro[indole-3,3'-pyrrolidine]-5'-carboxamide acetonitrile solvate"
_symmetry_cell_setting           orthorhombic
_symmetry_space_group_name_H-M   'P 21 21 21'
_symmetry_Int_Tables_number      19
_space_group_name_Hall           'P 2ac 2ab'
loop_
_symmetry_equiv_pos_site_id
_symmetry_equiv_pos_as_xyz
1 x,y,z
2 1/2+x,1/2-y,-z
3 -x,1/2+y,1/2-z
4 1/2-x,-y,1/2+z
_cell_length_a                   10.0622(6)
_cell_length_b                   15.0073(8)
_cell_length_c                   25.3394(17)
_cell_angle_alpha                90
_cell_angle_beta                 90
_cell_angle_gamma                90
_cell_volume                     3826.41
_exptl_crystal_colour            colorless
_exptl_crystal_description       rod
_cell_formula_units_Z            4
loop_
_atom_site_label
_atom_site_type_symbol
_atom_site_fract_x
_atom_site_fract_y
_atom_site_fract_z
O1 O 0.39634(12) 0.41713(9) 0.71885(5)
C1 C 0.48673(18) 0.40717(13) 0.68644(7)
N1 N 0.52920(15) 0.32785(11) 0.66808(6)
H1 H 0.4941 0.2763 0.6770
C2 C 0.63652(18) 0.33745(13) 0.63290(7)
C3 C 0.7043(2) 0.27246(14) 0.60567(8)
H2 H 0.6812 0.2113 0.6091
C4 C 0.8079(2) 0.29947(14) 0.57288(8)
H3 H 0.8576 0.2560 0.5541
C5 C 0.83960(19) 0.38879(15) 0.56724(8)
H4 H 0.9103 0.4057 0.5445
C6 C 0.76884(18) 0.45424(14) 0.59456(7)
H5 H 0.7897 0.5155 0.5901
C7 C 0.66807(17) 0.42819(13) 0.62814(7)
C8 C 0.57808(18) 0.48074(12) 0.66448(7)
C9 C 0.51378(18) 0.56526(13) 0.63849(7)
H6 H 0.5447 0.5684 0.6010
N2 N 0.56982(15) 0.64365(10) 0.66731(6)
C10 C 0.68114(18) 0.61651(13) 0.70064(7)
H7 H 0.7673 0.6212 0.6811
C11 C 0.64950(18) 0.51925(13) 0.71452(7)
H8 H 0.5814 0.5210 0.7432
C12 C 0.36078(18) 0.56994(14) 0.63845(7)
H9 H 0.3347 0.6332 0.6426
H10 H 0.3282 0.5377 0.6700
C13 C 0.28745(18) 0.53231(14) 0.58967(8)
C14 C 0.1399(2) 0.52375(16) 0.60381(9)
H11 H 0.0890 0.5090 0.5720
H12 H 0.1079 0.5803 0.6183
H13 H 0.1284 0.4765 0.6301
C15 C 0.3381(2) 0.44002(14) 0.57354(8)
H14 H 0.2906 0.4200 0.5419
H15 H 0.3226 0.3978 0.6024
H16 H 0.4335 0.4432 0.5660
C16 C 0.3013(2) 0.59696(15) 0.54315(8)
H17 H 0.2471 0.5759 0.5135
H18 H 0.3947 0.6000 0.5323
H19 H 0.2710 0.6563 0.5539
C17 C 0.73934(19) 0.40327(14) 0.77546(8)
H20 H 0.6517 0.3973 0.7889
C18 C 0.8407(2) 0.35106(15) 0.79621(8)
H21 H 0.8220 0.3093 0.8234
C19 C 0.9689(2) 0.35988(14) 0.77719(8)
H22 H 1.0387 0.3249 0.7916
C20 C 0.9950(2) 0.41981(14) 0.73706(8)
H23 H 1.0830 0.4259 0.7240
C21 C 0.89364(19) 0.47123(13) 0.71561(8)
H24 H 0.9123 0.5113 0.6875
C22 C 0.76434(18) 0.46406(13) 0.73529(7)
C23 C 0.58914(18) 0.72200(12) 0.63167(7)
H25 H 0.5076 0.7237 0.6091
O2 O 0.69946(12) 0.81433(9) 0.69699(5)
H26 H 0.6804 0.8448 0.7238
C24 C 0.58652(18) 0.80959(13) 0.66293(7)
H27 H 0.5053 0.8090 0.6856
C25 C 0.5787(2) 0.89137(13) 0.62767(7)
C26 C 0.45701(19) 0.92106(14) 0.60817(7)
H28 H 0.3785 0.8888 0.6165
C27 C 0.4481(2) 0.99676(14) 0.57691(8)
H29 H 0.3642 1.0161 0.5641
C28 C 0.5623(2) 1.04403(14) 0.56441(8)
H30 H 0.5568 1.0960 0.5431
C29 C 0.6839(2) 1.01531(14) 0.58305(8)
H31 H 0.7623 1.0474 0.5743
C30 C 0.6922(2) 0.93953(13) 0.61462(8)
H32 H 0.7764 0.9205 0.6274
C31 C 0.70478(18) 0.71223(12) 0.59289(7)
C32 C 0.83745(19) 0.72781(13) 0.60671(8)
H33 H 0.8584 0.7483 0.6412
C33 C 0.93887(19) 0.71365(14) 0.57045(8)
H34 H 1.0283 0.7253 0.5802
C34 C 0.9109(2) 0.68272(14) 0.52022(8)
H35 H 0.9809 0.6713 0.4960
C35 C 0.7800(2) 0.66861(13) 0.50559(8)
H36 H 0.7597 0.6481 0.4710
C36 C 0.67866(19) 0.68437(13) 0.54140(7)
H37 H 0.5891 0.6760 0.5306
O3 O 0.58650(13) 0.68486(9) 0.77866(5)
C37 C 0.68786(18) 0.66607(12) 0.75338(7)
N3 N 0.81098(15) 0.67856(11) 0.77236(6)
H38 H 0.8787 0.6613 0.7529
C38 C 0.8387(2) 0.71907(15) 0.82339(8)
H39 H 0.7613 0.7559 0.8337
H40 H 0.9158 0.7595 0.8195
C39 C 0.86781(18) 0.65382(15) 0.86775(8)
C40 C 0.9037(2) 0.56567(15) 0.85841(8)
H41 H 0.9067 0.5439 0.8232
C41 C 0.9352(2) 0.50922(15) 0.89997(8)
H42 H 0.9600 0.4493 0.8931
C42 C 0.9306(2) 0.53999(17) 0.95130(8)
H43 H 0.9520 0.5012 0.9797
C43 C 0.8949(2) 0.62732(17) 0.96120(8)
H44 H 0.8921 0.6487 0.9965
C44 C 0.86297(19) 0.68387(16) 0.91983(8)
H45 H 0.8376 0.7436 0.9270
N4 N 1.07789(19) 0.64537(13) 0.72488(9)
C45 C 1.1706(2) 0.62838(15) 0.74903(9)
C46 C 1.2884(2) 0.60561(18) 0.77862(9)
H46 H 1.2749(7) 0.6185(10) 0.81570(13)
H47 H 1.3078(10) 0.5427(3) 0.7745(5)
H48 H 1.3634(4) 0.6400(8) 0.7658(5)
loop_
_geom_bond_atom_site_label_1
_geom_bond_atom_site_label_2
_geom_bond_site_symmetry_1
_geom_bond_site_symmetry_2
O1 C1 1_555 1_555
C1 N1 1_555 1_555
N1 H1 1_555 1_555
C2 N1 1_555 1_555
C3 C2 1_555 1_555
H2 C3 1_555 1_555
C4 C3 1_555 1_555
H3 C4 1_555 1_555
C5 C4 1_555 1_555
H4 C5 1_555 1_555
C6 C5 1_555 1_555
H5 C6 1_555 1_555
C7 C2 1_555 1_555
C8 C1 1_555 1_555
C9 C8 1_555 1_555
H6 C9 1_555 1_555
N2 C9 1_555 1_555
C10 N2 1_555 1_555
H7 C10 1_555 1_555
C11 C8 1_555 1_555
H8 C11 1_555 1_555
C12 C9 1_555 1_555
H9 C12 1_555 1_555
H10 C12 1_555 1_555
C13 C12 1_555 1_555
C14 C13 1_555 1_555
H11 C14 1_555 1_555
H12 C14 1_555 1_555
H13 C14 1_555 1_555
C15 C13 1_555 1_555
H14 C15 1_555 1_555
H15 C15 1_555 1_555
H16 C15 1_555 1_555
C16 C13 1_555 1_555
H17 C16 1_555 1_555
H18 C16 1_555 1_555
H19 C16 1_555 1_555
C17 H20 1_555 1_555
C18 C17 1_555 1_555
H21 C18 1_555 1_555
C19 C18 1_555 1_555
H22 C19 1_555 1_555
C20 C19 1_555 1_555
H23 C20 1_555 1_555
C21 C20 1_555 1_555
H24 C21 1_555 1_555
C22 C11 1_555 1_555
C23 N2 1_555 1_555
H25 C23 1_555 1_555
O2 H26 1_555 1_555
C24 C23 1_555 1_555
H27 C24 1_555 1_555
C25 C24 1_555 1_555
C26 C25 1_555 1_555
H28 C26 1_555 1_555
C27 C26 1_555 1_555
H29 C27 1_555 1_555
C28 C27 1_555 1_555
H30 C28 1_555 1_555
C29 C28 1_555 1_555
H31 C29 1_555 1_555
C30 C25 1_555 1_555
H32 C30 1_555 1_555
C31 C23 1_555 1_555
C32 C31 1_555 1_555
H33 C32 1_555 1_555
C33 C32 1_555 1_555
H34 C33 1_555 1_555
C34 C33 1_555 1_555
H35 C34 1_555 1_555
C35 C34 1_555 1_555
H36 C35 1_555 1_555
C36 C31 1_555 1_555
H37 C36 1_555 1_555
O3 C37 1_555 1_555
C37 C10 1_555 1_555
N3 C37 1_555 1_555
H38 N3 1_555 1_555
C38 N3 1_555 1_555
H39 C38 1_555 1_555
H40 C38 1_555 1_555
C39 C38 1_555 1_555
C40 C39 1_555 1_555
H41 C40 1_555 1_555
C41 C40 1_555 1_555
H42 C41 1_555 1_555
C42 C41 1_555 1_555
H43 C42 1_555 1_555
C43 C42 1_555 1_555
H44 C43 1_555 1_555
C44 C39 1_555 1_555
H45 C44 1_555 1_555
N4 C45 1_555 1_555
C45 C46 1_555 1_555
C46 H46 1_555 1_555
H47 C46 1_555 1_555
H48 C46 1_555 1_555
C6 C7 1_555 1_555
C7 C8 1_555 1_555
C10 C11 1_555 1_555
C17 C22 1_555 1_555
C21 C22 1_555 1_555
O2 C24 1_555 1_555
C29 C30 1_555 1_555
C35 C36 1_555 1_555
C43 C44 1_555 1_555

#END
