
#######################################################################
#
#                 Cambridge Crystallographic Data Centre
#                                CCDC 
#
#######################################################################
#
# If this CIF has been generated from an entry in the Cambridge 
# Structural Database, then it will include bibliographic, chemical, 
# crystal, experimental, refinement or atomic coordinate data resulting 
# from the CCDC's data processing and validation procedures.
#
#######################################################################

data_BIHCAZ
_chemical_formula_moiety         'C26 H22 N4 O5 S2'
_chemical_name_systematic        
1-methyl-4'-[(4-methylphenyl)sulfonyl]-3'-(methylsulfanyl)-3a'-nitro-4',8b'-dihydro-3a'H-spiro[indole-3,1'-pyrrolo[3,4-b]indol]-2(1H)-one
_symmetry_cell_setting           triclinic
_symmetry_space_group_name_H-M   'P 1'
_symmetry_Int_Tables_number      1
_space_group_name_Hall           'P 1'
loop_
_symmetry_equiv_pos_site_id
_symmetry_equiv_pos_as_xyz
1 x,y,z
_cell_length_a                   9.3320(8)
_cell_length_b                   10.9097(10)
_cell_length_c                   12.6859(11)
_cell_angle_alpha                92.7650(10)
_cell_angle_beta                 96.9500(10)
_cell_angle_gamma                104.5850(10)
_cell_volume                     1236.57
_exptl_crystal_colour            colorless
_exptl_crystal_description       block
_cell_formula_units_Z            2
loop_
_atom_site_label
_atom_site_type_symbol
_atom_site_fract_x
_atom_site_fract_y
_atom_site_fract_z
S1 S 0.55626(5) 0.99005(4) 0.89100(3)
S2 S 0.23210(6) 0.72298(5) 0.77808(4)
O1 O 0.65850(18) 1.10348(15) 0.94249(12)
O2 O 0.29992(18) 1.12687(14) 0.79791(12)
O3 O 0.12216(16) 0.96887(15) 0.71732(14)
N1 N 0.31689(19) 0.77456(15) 0.58866(14)
O4 O 0.17078(17) 0.87457(16) 0.39517(13)
O5 O 0.41474(17) 0.94128(15) 0.92769(12)
N2 N 0.51567(17) 1.01697(15) 0.76420(12)
C1 C 0.6661(2) 0.85712(19) 0.56619(17)
H1 H 0.6704 0.8656 0.6415
N3 N 0.25388(19) 1.02493(16) 0.74556(13)
N4 N 0.3893(2) 0.84913(17) 0.34059(14)
C2 C 0.8586(3) 0.5619(2) 0.8664(2)
H2 H 0.7984 0.4873 0.8953
H3 H 0.9585 0.5878 0.9079
H4 H 0.8671 0.5407 0.7918
C3 C 0.7846(2) 0.6694(2) 0.87293(16)
C4 C 0.6493(3) 0.6524(2) 0.91343(17)
H5 H 0.6039 0.5723 0.9371
C5 C 0.5795(2) 0.7509(2) 0.91975(16)
H6 H 0.4868 0.7383 0.9470
C6 C 0.6474(2) 0.86763(19) 0.88566(15)
C7 C 0.37102(19) 0.96382(17) 0.70264(14)
C8 C 0.3892(2) 1.00467(17) 0.58875(14)
H7 H 0.3037 1.0376 0.5583
C9 C 0.3898(2) 0.87717(18) 0.52619(15)
C10 C 0.5377(2) 0.86029(17) 0.50056(15)
C11 C 0.7897(2) 0.8411(2) 0.51984(19)
H8 H 0.8795 0.8409 0.5638
C12 C 0.7812(2) 0.8256(2) 0.40974(19)
H9 H 0.8658 0.8146 0.3795
C13 C 0.6056(2) 1.11107(17) 0.70667(15)
C14 C 0.5327(2) 1.10722(17) 0.60434(15)
C15 C 0.3094(2) 0.81866(17) 0.68207(16)
C16 C 0.1564(3) 0.5756(2) 0.6966(2)
H10 H 0.0686 0.5816 0.6483
H11 H 0.1272 0.5062 0.7423
H12 H 0.2322 0.5588 0.6549
C17 C 0.2987(2) 0.86628(18) 0.41410(16)
C18 C 0.3411(3) 0.8394(2) 0.22689(17)
H13 H 0.2837 0.7521 0.2033
H14 H 0.4287 0.8620 0.1894
H15 H 0.2781 0.8976 0.2111
C19 C 0.5314(2) 0.84483(18) 0.39009(15)
C20 C 0.6514(2) 0.82577(19) 0.34263(17)
H16 H 0.6453 0.8133 0.2674
C21 C 0.5972(2) 1.18737(18) 0.53129(16)
H17 H 0.5474 1.1844 0.4610
C22 C 0.7361(2) 1.2719(2) 0.56336(19)
H18 H 0.7820 1.3276 0.5147
C23 C 0.8083(2) 1.27514(19) 0.6666(2)
H19 H 0.9033 1.3335 0.6871
C24 C 0.7452(2) 1.19529(18) 0.74088(17)
H20 H 0.7948 1.1981 0.8112
C25 C 0.7851(2) 0.8885(2) 0.84667(15)
H21 H 0.8323 0.9695 0.8255
C26 C 0.8509(2) 0.7884(2) 0.83979(16)
H22 H 0.9430 0.8008 0.8119
S3 S 0.13209(5) 0.30748(4) 0.02085(4)
S4 S 0.50635(5) 0.26125(5) 0.11054(4)
O6 O 0.55861(18) 0.57490(16) 0.14768(13)
O7 O 0.3464(2) 0.59171(15) 0.06589(14)
O8 O 0.26428(17) 0.32753(14) -0.02953(12)
O9 O 0.00455(18) 0.34554(15) -0.02592(12)
C27 C 0.0806(3) 0.1796(3) 0.5613(3)
H23 H 0.0144 0.1368 0.6069
N5 N 0.18622(18) 0.38661(15) 0.14116(13)
N6 N 0.45870(18) 0.31507(15) 0.30775(13)
O10 O 0.62272(19) 0.53069(16) 0.46520(15)
C28 C 0.2083(3) 0.2724(3) 0.6057(2)
H24 H 0.2310 0.2927 0.6806
C29 C 0.3011(3) 0.3342(2) 0.53633(17)
C30 C 0.2675(2) 0.30523(18) 0.42675(16)
C31 C 0.3875(2) 0.38922(17) 0.37372(15)
C32 C 0.3378(2) 0.48814(17) 0.30192(15)
H25 H 0.4099 0.5739 0.3174
C33 C 0.3411(2) 0.43122(17) 0.18781(15)
C34 C 0.0754(2) 0.14735(18) 0.04915(15)
C35 C 0.1518(2) 0.06136(19) 0.01690(15)
H26 H 0.2332 0.0874 -0.0224
C36 C 0.1069(2) -0.06373(18) 0.04318(15)
H27 H 0.1575 -0.1236 0.0203
C37 C -0.0111(2) -0.10315(18) 0.10253(15)
C38 C -0.0535(2) -0.2363(2) 0.13695(18)
H28 H -0.0150 -0.2357 0.2124
H29 H -0.0104 -0.2914 0.0942
H30 H -0.1626 -0.2684 0.1266
C39 C 0.4354(2) 0.33552(17) 0.20942(15)
C40 C 0.5982(2) 0.1662(2) 0.19384(18)
H31 H 0.6792 0.2221 0.2439
H32 H 0.6395 0.1116 0.1492
H33 H 0.5258 0.1133 0.2337
C41 C 0.1798(2) 0.49706(17) 0.29971(15)
C42 C 0.1161(2) 0.54988(18) 0.37802(17)
H34 H 0.1753 0.5915 0.4421
C43 C -0.0377(2) 0.54007(19) 0.35990(18)
H35 H -0.0840 0.5749 0.4124
C44 C -0.1226(2) 0.47971(19) 0.26561(19)
H36 H -0.2267 0.4740 0.2547
C45 C -0.0593(2) 0.42709(19) 0.18621(17)
H37 H -0.1180 0.3869 0.1215
C46 C 0.0930(2) 0.43580(17) 0.20561(15)
C47 C 0.5015(2) 0.45992(19) 0.47029(17)
N7 N 0.4380(2) 0.42883(19) 0.56085(14)
C48 C 0.1419(2) 0.2112(2) 0.3833(2)
H38 H 0.1201 0.1900 0.3085
C49 C 0.0474(3) 0.1480(2) 0.4529(3)
H39 H -0.0398 0.0832 0.4252
C50 C 0.5164(4) 0.4702(3) 0.6669(2)
H40 H 0.5400 0.3975 0.7008
H41 H 0.4532 0.5060 0.7091
H42 H 0.6093 0.5351 0.6627
N8 N 0.4227(2) 0.54119(16) 0.12578(14)
C51 C -0.0468(2) 0.10948(19) 0.10471(17)
H43 H -0.1015 0.1680 0.1233
C52 C -0.0870(2) -0.0145(2) 0.13231(17)
H44 H -0.1678 -0.0399 0.1723
loop_
_geom_bond_atom_site_label_1
_geom_bond_atom_site_label_2
_geom_bond_site_symmetry_1
_geom_bond_site_symmetry_2
S1 O1 1_555 1_555
S2 C15 1_555 1_555
O2 N3 1_555 1_555
O3 N3 1_555 1_555
N1 C9 1_555 1_555
O4 C17 1_555 1_555
O5 S1 1_555 1_555
N2 S1 1_555 1_555
C1 H1 1_555 1_555
N3 C7 1_555 1_555
N4 C17 1_555 1_555
C2 H2 1_555 1_555
H3 C2 1_555 1_555
H4 C2 1_555 1_555
C3 C2 1_555 1_555
C4 C3 1_555 1_555
H5 C4 1_555 1_555
C5 C4 1_555 1_555
H6 C5 1_555 1_555
C6 S1 1_555 1_555
C7 N2 1_555 1_555
C8 C7 1_555 1_555
H7 C8 1_555 1_555
C9 C8 1_555 1_555
C10 C1 1_555 1_555
C11 C1 1_555 1_555
H8 C11 1_555 1_555
C12 C11 1_555 1_555
H9 C12 1_555 1_555
C13 N2 1_555 1_555
C14 C8 1_555 1_555
C15 N1 1_555 1_555
C16 S2 1_555 1_555
H10 C16 1_555 1_555
H11 C16 1_555 1_555
H12 C16 1_555 1_555
C17 C9 1_555 1_555
C18 N4 1_555 1_555
H13 C18 1_555 1_555
H14 C18 1_555 1_555
H15 C18 1_555 1_555
C19 N4 1_555 1_555
C20 C12 1_555 1_555
H16 C20 1_555 1_555
C21 C14 1_555 1_555
H17 C21 1_555 1_555
C22 C21 1_555 1_555
H18 C22 1_555 1_555
C23 C22 1_555 1_555
H19 C23 1_555 1_555
C24 C13 1_555 1_555
H20 C24 1_555 1_555
C25 C6 1_555 1_555
H21 C25 1_555 1_555
C26 C3 1_555 1_555
H22 C26 1_555 1_555
S3 O8 1_555 1_555
S4 C39 1_555 1_555
O6 N8 1_555 1_555
O7 N8 1_555 1_555
O9 S3 1_555 1_555
C27 H23 1_555 1_555
N5 S3 1_555 1_555
N6 C31 1_555 1_555
O10 C47 1_555 1_555
C28 C27 1_555 1_555
H24 C28 1_555 1_555
C29 C28 1_555 1_555
C30 C29 1_555 1_555
C31 C30 1_555 1_555
C32 C31 1_555 1_555
H25 C32 1_555 1_555
C33 N5 1_555 1_555
C34 S3 1_555 1_555
C35 C34 1_555 1_555
H26 C35 1_555 1_555
C36 C35 1_555 1_555
H27 C36 1_555 1_555
C37 C36 1_555 1_555
C38 C37 1_555 1_555
H28 C38 1_555 1_555
H29 C38 1_555 1_555
H30 C38 1_555 1_555
C39 N6 1_555 1_555
C40 S4 1_555 1_555
H31 C40 1_555 1_555
H32 C40 1_555 1_555
H33 C40 1_555 1_555
C41 C32 1_555 1_555
C42 C41 1_555 1_555
H34 C42 1_555 1_555
C43 C42 1_555 1_555
H35 C43 1_555 1_555
C44 C43 1_555 1_555
H36 C44 1_555 1_555
C45 C44 1_555 1_555
H37 C45 1_555 1_555
C46 N5 1_555 1_555
C47 C31 1_555 1_555
N7 C29 1_555 1_555
C48 C30 1_555 1_555
H38 C48 1_555 1_555
C49 C27 1_555 1_555
H39 C49 1_555 1_555
C50 N7 1_555 1_555
H40 C50 1_555 1_555
H41 C50 1_555 1_555
H42 C50 1_555 1_555
N8 C33 1_555 1_555
C51 C34 1_555 1_555
H43 C51 1_555 1_555
C52 C37 1_555 1_555
H44 C52 1_555 1_555
C5 C6 1_555 1_555
C7 C15 1_555 1_555
C9 C10 1_555 1_555
C10 C19 1_555 1_555
C13 C14 1_555 1_555
C19 C20 1_555 1_555
C23 C24 1_555 1_555
C25 C26 1_555 1_555
C32 C33 1_555 1_555
C33 C39 1_555 1_555
C41 C46 1_555 1_555
C45 C46 1_555 1_555
C47 N7 1_555 1_555
C48 C49 1_555 1_555
C51 C52 1_555 1_555

#END
