
#######################################################################
#
#                 Cambridge Crystallographic Data Centre
#                                CCDC 
#
#######################################################################
#
# If this CIF has been generated from an entry in the Cambridge 
# Structural Database, then it will include bibliographic, chemical, 
# crystal, experimental, refinement or atomic coordinate data resulting 
# from the CCDC's data processing and validation procedures.
#
#######################################################################

data_BIHFAB
_chemical_formula_moiety         'C27 H21 Cl1 N2 O5'
_chemical_name_systematic        
'Ethyl 7-benzoyl-6-(4-chlorophenyl)-2,4-dioxo-3-phenyl-1,3-diazabicyclo[3.2.0]heptane-5-carboxylate'
_symmetry_cell_setting           monoclinic
_symmetry_space_group_name_H-M   'P 21/c'
_symmetry_Int_Tables_number      14
_space_group_name_Hall           '-P 2ybc'
loop_
_symmetry_equiv_pos_site_id
_symmetry_equiv_pos_as_xyz
1 x,y,z
2 -x,1/2+y,1/2-z
3 -x,-y,-z
4 x,1/2-y,1/2+z
_cell_length_a                   15.761(3)
_cell_length_b                   12.379(2)
_cell_length_c                   12.960(3)
_cell_angle_alpha                90
_cell_angle_beta                 102.904(4)
_cell_angle_gamma                90
_cell_volume                     2464.71
_cell_formula_units_Z            4
loop_
_atom_site_label
_atom_site_type_symbol
_atom_site_fract_x
_atom_site_fract_y
_atom_site_fract_z
Cl1 Cl 0.49101(9) 0.48312(11) 0.16663(13)
O1 O 0.85002(15) 1.07613(14) 0.26890(19)
O2 O 0.91141(11) 0.72737(12) 0.20855(13)
O3 O 0.77930(11) 0.69410(13) 0.48542(13)
O4 O 0.75182(12) 0.96833(17) 0.49755(16)
O5 O 0.89483(11) 0.94632(13) 0.50757(13)
N1 N 0.86305(12) 0.68561(14) 0.36020(14)
N2 N 0.85563(12) 0.85945(13) 0.30226(14)
C1 C 0.79754(15) 0.84947(16) 0.37683(18)
C2 C 0.71659(14) 0.87375(16) 0.28501(17)
H1 H 0.6833 0.9359 0.3011
C3 C 0.78404(14) 0.90680(16) 0.21955(18)
H2 H 0.7754 0.8695 0.1513
C4 C 0.79192(17) 1.02834(18) 0.2103(2)
C5 C 0.72445(18) 1.08498(18) 0.1303(2)
C6 C 0.6614(2) 1.0317(2) 0.0582(3)
H3 H 0.6594 0.9566 0.0590
C7 C 0.6007(3) 1.0883(3) -0.0156(3)
H4 H 0.5583 1.0515 -0.0643
C8 C 0.6034(3) 1.1983(4) -0.0163(4)
H5 H 0.5621 1.2366 -0.0652
C9 C 0.6661(3) 1.2528(3) 0.0539(4)
H6 H 0.6680 1.3278 0.0520
C10 C 0.7264(2) 1.1971(2) 0.1272(3)
H7 H 0.7688 1.2346 0.1753
C11 C 0.81215(17) 0.92990(18) 0.46777(19)
C12 C 0.91800(19) 1.0204(2) 0.5973(2)
H8 H 0.9763 1.0041 0.6374
H9 H 0.8781 1.0107 0.6437
C13 C 0.9143(2) 1.1346(2) 0.5602(3)
H10 H 0.9529 1.1438 0.5131
H11 H 0.9318 1.1818 0.6200
H12 H 0.8560 1.1518 0.5237
C14 C 0.80996(15) 0.73502(17) 0.41756(18)
C15 C 0.88125(15) 0.75513(17) 0.28123(18)
C16 C 0.88475(17) 0.57272(17) 0.36493(18)
C17 C 0.8207(2) 0.4973(2) 0.3656(2)
H13 H 0.7640 0.5186 0.3647
C18 C 0.8430(3) 0.3882(2) 0.3678(3)
H14 H 0.8009 0.3361 0.3697
C19 C 0.9263(3) 0.3572(2) 0.3671(2)
H15 H 0.9402 0.2842 0.3668
C20 C 0.9888(2) 0.4332(2) 0.3669(2)
H16 H 1.0454 0.4116 0.3672
C21 C 0.96886(18) 0.54189(19) 0.3663(2)
H17 H 1.0118 0.5936 0.3668
C22 C 0.65919(14) 0.77718(16) 0.25006(19)
C23 C 0.59888(16) 0.7481(2) 0.3087(2)
H18 H 0.5937 0.7899 0.3666
C24 C 0.54684(18) 0.6587(2) 0.2828(3)
H19 H 0.5063 0.6404 0.3222
C25 C 0.55541(19) 0.5971(2) 0.1985(3)
C26 C 0.61442(19) 0.6221(2) 0.1398(2)
H20 H 0.6199 0.5788 0.0830
C27 C 0.66594(17) 0.71261(19) 0.1657(2)
H21 H 0.7060 0.7303 0.1255
loop_
_geom_bond_atom_site_label_1
_geom_bond_atom_site_label_2
_geom_bond_site_symmetry_1
_geom_bond_site_symmetry_2
Cl1 C25 1_555 1_555
O1 C4 1_555 1_555
O2 C15 1_555 1_555
O3 C14 1_555 1_555
O4 C11 1_555 1_555
O5 C11 1_555 1_555
N1 C14 1_555 1_555
N2 C1 1_555 1_555
C1 C2 1_555 1_555
C2 H1 1_555 1_555
C3 N2 1_555 1_555
H2 C3 1_555 1_555
C4 C3 1_555 1_555
C5 C4 1_555 1_555
C6 C5 1_555 1_555
H3 C6 1_555 1_555
C7 C6 1_555 1_555
H4 C7 1_555 1_555
C8 C7 1_555 1_555
H5 C8 1_555 1_555
C9 C8 1_555 1_555
H6 C9 1_555 1_555
C10 C5 1_555 1_555
H7 C10 1_555 1_555
C11 C1 1_555 1_555
C12 O5 1_555 1_555
H8 C12 1_555 1_555
H9 C12 1_555 1_555
C13 C12 1_555 1_555
H10 C13 1_555 1_555
H11 C13 1_555 1_555
H12 C13 1_555 1_555
C14 C1 1_555 1_555
C15 N1 1_555 1_555
C16 N1 1_555 1_555
C17 C16 1_555 1_555
H13 C17 1_555 1_555
C18 C17 1_555 1_555
H14 C18 1_555 1_555
C19 C18 1_555 1_555
H15 C19 1_555 1_555
C20 C19 1_555 1_555
H16 C20 1_555 1_555
C21 C16 1_555 1_555
H17 C21 1_555 1_555
C22 C2 1_555 1_555
C23 C22 1_555 1_555
H18 C23 1_555 1_555
C24 C23 1_555 1_555
H19 C24 1_555 1_555
C25 C24 1_555 1_555
C26 C25 1_555 1_555
H20 C26 1_555 1_555
C27 C22 1_555 1_555
H21 C27 1_555 1_555
N2 C15 1_555 1_555
C2 C3 1_555 1_555
C9 C10 1_555 1_555
C20 C21 1_555 1_555
C26 C27 1_555 1_555

#END
