
#######################################################################
#
#                 Cambridge Crystallographic Data Centre
#                                CCDC 
#
#######################################################################
#
# If this CIF has been generated from an entry in the Cambridge 
# Structural Database, then it will include bibliographic, chemical, 
# crystal, experimental, refinement or atomic coordinate data resulting 
# from the CCDC's data processing and validation procedures.
#
#######################################################################

data_BIHFEF
_chemical_formula_moiety         'C27 H19 Cl1 N2 O5,H2 O1'
_chemical_name_systematic        
'ethyl 7-(4-chlorobenzoyl)-2,4-dioxo-3,6-diphenyl-1,3-diazabicyclo[3.2.0]hept-6-ene-5-carboxylate monohydrate'
_symmetry_cell_setting           triclinic
_symmetry_space_group_name_H-M   'P -1'
_symmetry_Int_Tables_number      2
_space_group_name_Hall           '-P 1'
loop_
_symmetry_equiv_pos_site_id
_symmetry_equiv_pos_as_xyz
1 x,y,z
2 -x,-y,-z
_cell_length_a                   10.0187(15)
_cell_length_b                   11.4254(16)
_cell_length_c                   13.785(3)
_cell_angle_alpha                105.439(4)
_cell_angle_beta                 93.916(4)
_cell_angle_gamma                115.678(3)
_cell_volume                     1339.81
_exptl_crystal_colour            colorless
_exptl_crystal_description       block
_cell_formula_units_Z            2
loop_
_atom_site_label
_atom_site_type_symbol
_atom_site_fract_x
_atom_site_fract_y
_atom_site_fract_z
C1 C 0.1411(3) 0.5964(2) 0.2148(2)
C2 C 0.0728(3) 0.5874(3) 0.2972(2)
H1 H 0.1218 0.6537 0.3618
C3 C -0.0691(4) 0.4794(3) 0.2838(3)
H2 H -0.1146 0.4711 0.3399
C4 C -0.1435(4) 0.3839(4) 0.1878(4)
H3 H -0.2415 0.3140 0.1781
C5 C -0.0736(5) 0.3923(4) 0.1082(3)
H4 H -0.1221 0.3250 0.0441
C6 C 0.0689(5) 0.4990(3) 0.1201(2)
H5 H 0.1153 0.5046 0.0642
C7 C 0.4190(3) 0.7289(2) 0.28588(17)
C8 C 0.3123(3) 0.8165(2) 0.18902(17)
C9 C 0.4810(3) 0.9078(2) 0.21455(17)
C10 C 0.5463(3) 1.0374(2) 0.30981(16)
C11 C 0.5987(3) 0.9754(2) 0.36246(17)
C12 C 0.5458(3) 0.9169(3) 0.11738(18)
C13 C 0.7758(4) 1.0148(4) 0.0599(2)
H6 H 0.7503 1.0672 0.0240
H7 H 0.7498 0.9257 0.0108
C14 C 0.9397(6) 1.0891(6) 0.1084(4)
H8 H 0.9680 1.0283 0.1302
H9 H 0.9595 1.1667 0.1670
H10 H 0.9976 1.1204 0.0595
C15 C 0.5436(3) 1.1659(2) 0.32096(19)
C16 C 0.6032(3) 1.2739(3) 0.4144(2)
H11 H 0.6501 1.2661 0.4712
C17 C 0.5923(4) 1.3920(3) 0.4223(3)
H12 H 0.6338 1.4642 0.4845
C18 C 0.5221(5) 1.4054(4) 0.3413(3)
H13 H 0.5134 1.4848 0.3485
C19 C 0.4629(5) 1.2982(4) 0.2465(3)
H14 H 0.4169 1.3077 0.1903
C20 C 0.4727(4) 1.1789(3) 0.2365(2)
H15 H 0.4322 1.1075 0.1739
C21 C 0.6782(3) 1.0106(2) 0.46802(18)
C22 C 0.7542(3) 0.9321(2) 0.49046(18)
C23 C 0.7973(3) 0.8531(3) 0.4163(2)
H16 H 0.7757 0.8464 0.3478
C24 C 0.8705(4) 0.7854(3) 0.4421(3)
H17 H 0.9003 0.7348 0.3922
C25 C 0.8992(3) 0.7935(3) 0.5432(3)
C26 C 0.8582(4) 0.8692(4) 0.6187(3)
H18 H 0.8777 0.8727 0.6867
C27 C 0.7882(3) 0.9393(3) 0.5924(2)
H19 H 0.7627 0.9929 0.6435
Cl1 Cl 0.99225(14) 0.70679(13) 0.57672(10)
N1 N 0.2875(2) 0.7094(2) 0.22665(15)
N2 N 0.5433(2) 0.84558(18) 0.27559(14)
O1 O 0.4275(2) 0.66005(18) 0.33530(15)
O2 O 0.2158(2) 0.83237(19) 0.14560(15)
O3 O 0.6802(3) 1.1051(2) 0.53570(14)
O4 O 0.4740(3) 0.8581(3) 0.03384(15)
O5 O 0.6935(2) 0.9982(2) 0.14326(14)
O6 O 0.711(3) 0.616(2) 0.1180(7)
O7? O 0.507(2) 0.5335(16) 0.0357(13)
loop_
_geom_bond_atom_site_label_1
_geom_bond_atom_site_label_2
_geom_bond_site_symmetry_1
_geom_bond_site_symmetry_2
C1 C2 1_555 1_555
C2 H1 1_555 1_555
C3 C2 1_555 1_555
H2 C3 1_555 1_555
C4 C3 1_555 1_555
H3 C4 1_555 1_555
C5 C4 1_555 1_555
H4 C5 1_555 1_555
C6 C1 1_555 1_555
H5 C6 1_555 1_555
C7 N1 1_555 1_555
C8 C9 1_555 1_555
C9 C10 1_555 1_555
C10 C11 1_555 1_555
C11 C21 1_555 1_555
C12 C9 1_555 1_555
C13 H6 1_555 1_555
H7 C13 1_555 1_555
C14 C13 1_555 1_555
H8 C14 1_555 1_555
H9 C14 1_555 1_555
H10 C14 1_555 1_555
C15 C10 1_555 1_555
C16 C15 1_555 1_555
H11 C16 1_555 1_555
C17 C16 1_555 1_555
H12 C17 1_555 1_555
C18 C17 1_555 1_555
H13 C18 1_555 1_555
C19 C18 1_555 1_555
H14 C19 1_555 1_555
C20 C15 1_555 1_555
H15 C20 1_555 1_555
C21 C22 1_555 1_555
C22 C23 1_555 1_555
C23 H16 1_555 1_555
C24 C23 1_555 1_555
H17 C24 1_555 1_555
C25 C24 1_555 1_555
C26 C25 1_555 1_555
H18 C26 1_555 1_555
C27 C22 1_555 1_555
H19 C27 1_555 1_555
Cl1 C25 1_555 1_555
N1 C1 1_555 1_555
N2 C7 1_555 1_555
O1 C7 1_555 1_555
O2 C8 1_555 1_555
O3 C21 1_555 1_555
O4 C12 1_555 1_555
O5 C12 1_555 1_555
C5 C6 1_555 1_555
C8 N1 1_555 1_555
C9 N2 1_555 1_555
C11 N2 1_555 1_555
C13 O5 1_555 1_555
C19 C20 1_555 1_555
C26 C27 1_555 1_555

#END
