
#######################################################################
#
#                 Cambridge Crystallographic Data Centre
#                                CCDC 
#
#######################################################################
#
# If this CIF has been generated from an entry in the Cambridge 
# Structural Database, then it will include bibliographic, chemical, 
# crystal, experimental, refinement or atomic coordinate data resulting 
# from the CCDC's data processing and validation procedures.
#
#######################################################################

data_BIHHOR
_chemical_formula_moiety         'C20 H20 N3 1+,C7 H7 O3 S1 1-'
_chemical_name_systematic        
'N-Methyl-2-(10-methylphenazin-5(10H)-yl)anilinium 4-methylbenzenesulfonate'
_symmetry_cell_setting           monoclinic
_symmetry_space_group_name_H-M   'P 21/n'
_symmetry_Int_Tables_number      14
_space_group_name_Hall           '-P 2yn'
loop_
_symmetry_equiv_pos_site_id
_symmetry_equiv_pos_as_xyz
1 x,y,z
2 1/2-x,1/2+y,1/2-z
3 -x,-y,-z
4 1/2+x,1/2-y,1/2+z
_cell_length_a                   12.9118(8)
_cell_length_b                   10.1696(7)
_cell_length_c                   17.7957(12)
_cell_angle_alpha                90
_cell_angle_beta                 92.7970(10)
_cell_angle_gamma                90
_cell_volume                     2333.93
_exptl_crystal_colour            yellow
_exptl_crystal_description       block
_cell_formula_units_Z            4
loop_
_atom_site_label
_atom_site_type_symbol
_atom_site_fract_x
_atom_site_fract_y
_atom_site_fract_z
C1 C 0.11226(11) 0.29377(14) 0.47582(8)
C2 C 0.04580(12) 0.20021(15) 0.44376(8)
H1 H 0.0665 0.1511 0.4016
C3 C -0.05145(12) 0.17699(16) 0.47255(9)
H2 H -0.0955 0.1106 0.4512
C4 C -0.08263(12) 0.25119(17) 0.53199(9)
H3 H -0.1495 0.2381 0.5507
C5 C -0.01670(12) 0.34520(16) 0.56472(9)
H4 H -0.0397 0.3969 0.6051
C6 C 0.08275(11) 0.36520(14) 0.53940(8)
C7 C 0.12525(14) 0.51617(17) 0.64451(9)
H5 H 0.1878 0.5452 0.6732
H6 H 0.0860 0.4559 0.6753
H7 H 0.0822 0.5927 0.6308
C8 C 0.23729(11) 0.49870(14) 0.53636(8)
C9 C 0.29281(12) 0.61010(15) 0.55979(9)
H8 H 0.2738 0.6555 0.6037
C10 C 0.37570(13) 0.65608(15) 0.52000(10)
H9 H 0.4138 0.7308 0.5376
C11 C 0.40247(13) 0.59339(16) 0.45510(10)
H10 H 0.4584 0.6252 0.4275
C12 C 0.34659(12) 0.48251(15) 0.43030(9)
H11 H 0.3643 0.4397 0.3852
C13 C 0.26558(11) 0.43424(14) 0.47074(8)
C14 C 0.23237(10) 0.26784(13) 0.37469(8)
C15 C 0.18116(11) 0.31755(14) 0.31025(8)
H12 H 0.1298 0.3837 0.3145
C16 C 0.20462(11) 0.27112(15) 0.23962(8)
H13 H 0.1678 0.3036 0.1960
C17 C 0.28167(12) 0.17752(15) 0.23271(8)
H14 H 0.2991 0.1482 0.1842
C18 C 0.33340(11) 0.12650(14) 0.29642(8)
H15 H 0.3862 0.0622 0.2920
C19 C 0.30671(11) 0.17103(14) 0.36677(8)
C20 C 0.28874(12) -0.01170(15) 0.45389(9)
H16 H 0.2207 0.0178 0.4693
H17 H 0.3243 -0.0595 0.4955
H18 H 0.2797 -0.0699 0.4102
N1 N 0.15462(10) 0.44885(12) 0.57649(7)
N2 N 0.21240(9) 0.31615(11) 0.44849(7)
N3 N 0.35232(9) 0.10527(12) 0.43363(7)
H19 H 0.3560 0.1634 0.4733
H20 H 0.4187 0.0786 0.4246
C21 C 0.28969(11) 0.04719(14) 0.66030(7)
C22 C 0.26677(12) -0.07900(14) 0.68486(8)
H21 H 0.3161 -0.1477 0.6814
C23 C 0.17114(12) -0.10352(15) 0.71451(9)
H22 H 0.1551 -0.1898 0.7308
C24 C 0.09839(12) -0.00362(16) 0.72069(9)
C25 C 0.12177(12) 0.12052(16) 0.69374(10)
H23 H 0.0718 0.1888 0.6961
C26 C 0.21681(11) 0.14700(15) 0.66338(9)
H24 H 0.2316 0.2323 0.6450
C27 C -0.00271(14) -0.0292(2) 0.75730(12)
H25 H -0.0148 -0.1242 0.7598
H26 H -0.0596 0.0124 0.7276
H27 H 0.0007 0.0075 0.8083
O1 O 0.40165(8) 0.19440(11) 0.57795(6)
O2 O 0.45183(8) -0.03447(11) 0.59449(6)
O3 O 0.47791(8) 0.11877(11) 0.69802(6)
S1 S 0.41525(3) 0.08578(4) 0.63095(2)
loop_
_geom_bond_atom_site_label_1
_geom_bond_atom_site_label_2
_geom_bond_site_symmetry_1
_geom_bond_site_symmetry_2
C1 C2 1_555 1_555
C2 H1 1_555 1_555
C3 C2 1_555 1_555
H2 C3 1_555 1_555
C4 C3 1_555 1_555
H3 C4 1_555 1_555
C5 C4 1_555 1_555
H4 C5 1_555 1_555
C6 C1 1_555 1_555
C7 H5 1_555 1_555
H6 C7 1_555 1_555
H7 C7 1_555 1_555
C8 C9 1_555 1_555
C9 H8 1_555 1_555
C10 C9 1_555 1_555
H9 C10 1_555 1_555
C11 C10 1_555 1_555
H10 C11 1_555 1_555
C12 C11 1_555 1_555
H11 C12 1_555 1_555
C13 C8 1_555 1_555
C14 C15 1_555 1_555
C15 H12 1_555 1_555
C16 C15 1_555 1_555
H13 C16 1_555 1_555
C17 C16 1_555 1_555
H14 C17 1_555 1_555
C18 C17 1_555 1_555
H15 C18 1_555 1_555
C19 C14 1_555 1_555
C20 H16 1_555 1_555
H17 C20 1_555 1_555
H18 C20 1_555 1_555
N1 C6 1_555 1_555
N2 C1 1_555 1_555
N3 C19 1_555 1_555
H19 N3 1_555 1_555
H20 N3 1_555 1_555
C21 C22 1_555 1_555
C22 H21 1_555 1_555
C23 C22 1_555 1_555
H22 C23 1_555 1_555
C24 C23 1_555 1_555
C25 C24 1_555 1_555
H23 C25 1_555 1_555
C26 C21 1_555 1_555
H24 C26 1_555 1_555
C27 C24 1_555 1_555
H25 C27 1_555 1_555
H26 C27 1_555 1_555
H27 C27 1_555 1_555
O1 S1 1_555 1_555
O2 S1 1_555 1_555
O3 S1 1_555 1_555
S1 C21 1_555 1_555
C5 C6 1_555 1_555
C7 N1 1_555 1_555
C8 N1 1_555 1_555
C12 C13 1_555 1_555
C13 N2 1_555 1_555
C14 N2 1_555 1_555
C18 C19 1_555 1_555
C20 N3 1_555 1_555
C25 C26 1_555 1_555

#END
