
#######################################################################
#
#                 Cambridge Crystallographic Data Centre
#                                CCDC 
#
#######################################################################
#
# If this CIF has been generated from an entry in the Cambridge 
# Structural Database, then it will include bibliographic, chemical, 
# crystal, experimental, refinement or atomic coordinate data resulting 
# from the CCDC's data processing and validation procedures.
#
#######################################################################

data_BIHJEK
_chemical_formula_moiety         'C32 H32 F1 N3 O4'
_chemical_name_systematic        
3-[1-(4-t-butylphenyl)-2-(3-methyl-4-nitro-1,2-oxazol-5-yl)ethyl]-3-[(4-fluorophenyl)methyl]-1-methyl-1,3-dihydro-2H-indol-2-one
_symmetry_cell_setting           monoclinic
_symmetry_space_group_name_H-M   'P 21/c'
_symmetry_Int_Tables_number      14
_space_group_name_Hall           '-P 2ybc'
loop_
_symmetry_equiv_pos_site_id
_symmetry_equiv_pos_as_xyz
1 x,y,z
2 -x,1/2+y,1/2-z
3 -x,-y,-z
4 x,1/2-y,1/2+z
_cell_length_a                   14.5967(14)
_cell_length_b                   7.1716(7)
_cell_length_c                   27.575(3)
_cell_angle_alpha                90
_cell_angle_beta                 104.530(2)
_cell_angle_gamma                90
_cell_volume                     2794.27
_exptl_crystal_colour            colorless
_exptl_crystal_description       block
_cell_formula_units_Z            4
loop_
_atom_site_label
_atom_site_type_symbol
_atom_site_fract_x
_atom_site_fract_y
_atom_site_fract_z
F1 F 1.42903(6) 1.12358(14) 0.40526(4)
O1 O 1.04054(6) 0.62090(12) 0.34195(4)
O2 O 0.70713(6) 0.93315(13) 0.22874(4)
O3 O 0.66046(9) 0.35110(17) 0.27095(6)
O4 O 0.80869(7) 0.40977(14) 0.27817(4)
C1 C 0.82026(8) 0.84948(17) 0.35478(4)
C2 C 0.98579(8) 0.94546(16) 0.34732(4)
N1 N 0.72486(8) 0.45547(16) 0.26684(4)
C3 C 0.52360(10) 0.6477(2) 0.40605(7)
H1 H 0.5151 0.7833 0.4049
H2 H 0.4795 0.5912 0.4234
H3 H 0.5110 0.5987 0.3718
C4 C 0.62583(9) 0.6004(2) 0.43440(5)
C5 C 0.69527(8) 0.68654(18) 0.40721(5)
C6 C 0.68837(9) 0.87430(19) 0.39309(5)
H4 H 0.6411 0.9496 0.4015
C7 C 0.74867(9) 0.95428(18) 0.36704(5)
H5 H 0.7410 1.0817 0.3575
C8 C 0.87897(8) 0.93002(17) 0.32140(4)
H6 H 0.8555 1.0598 0.3127
C9 C 1.04189(8) 1.03006(17) 0.31109(5)
H7 H 1.0350 0.9467 0.2818
H8 H 1.0138 1.1521 0.2987
C10 C 1.14606(8) 1.05661(17) 0.33556(5)
C11 C 1.20961(9) 0.90847(18) 0.33836(5)
H9 H 1.1873 0.7918 0.3237
C12 C 1.30471(9) 0.9295(2) 0.36213(6)
H10 H 1.3476 0.8283 0.3644
C13 C 1.33549(9) 1.1010(2) 0.38243(5)
C14 C 1.00339(8) 1.05988(17) 0.39473(4)
C15 C 0.97108(9) 1.23414(17) 0.40348(5)
H11 H 0.9276 1.2996 0.3777
C16 C 1.00376(10) 1.31236(19) 0.45110(5)
H12 H 0.9814 1.4314 0.4580
C17 C 1.06849(10) 1.2181(2) 0.48837(5)
H13 H 1.0909 1.2752 0.5202
C18 C 1.10149(9) 1.04101(19) 0.48017(5)
H14 H 1.1460 0.9763 0.5056
C19 C 1.06613(8) 0.96433(17) 0.43308(5)
N2 N 1.08435(7) 0.78696(15) 0.41563(4)
C20 C 1.03677(8) 0.76134(17) 0.36662(5)
C21 C 1.15616(9) 0.66118(19) 0.44362(5)
H15 H 1.1535 0.5432 0.4254
H16 H 1.1447 0.6375 0.4766
H17 H 1.2188 0.7178 0.4478
C22 C 0.64673(12) 0.6807(3) 0.48767(6)
H18 H 0.7121 0.6513 0.5055
H19 H 0.6032 0.6257 0.5056
H20 H 0.6382 0.8163 0.4860
C23 C 0.63408(10) 0.3876(2) 0.43778(6)
H21 H 0.6223 0.3350 0.4040
H22 H 0.5873 0.3385 0.4545
H23 H 0.6978 0.3532 0.4570
C24 C 0.76837(9) 0.58436(18) 0.39578(5)
H24 H 0.7764 0.4571 0.4055
C25 C 0.82996(9) 0.66433(17) 0.37046(5)
H25 H 0.8796 0.5911 0.3637
C26 C 0.86140(8) 0.81986(18) 0.27134(5)
H26 H 0.8874 0.8911 0.2471
H27 H 0.8949 0.6988 0.2774
C27 C 0.75893(9) 0.78654(18) 0.24982(5)
N3 N 0.61014(8) 0.87923(17) 0.21154(5)
C28 C 0.60672(9) 0.7033(2) 0.22357(5)
C29 C 0.69948(9) 0.63879(18) 0.24786(5)
C30 C 0.51469(10) 0.6015(2) 0.21037(6)
H28 H 0.4966 0.5674 0.2411
H29 H 0.5212 0.4884 0.1916
H30 H 0.4659 0.6820 0.1898
C31 C 1.18039(9) 1.22778(18) 0.35631(5)
H31 H 1.1380 1.3296 0.3544
C32 C 1.27585(10) 1.2519(2) 0.37971(5)
H32 H 1.2993 1.3691 0.3934
loop_
_geom_bond_atom_site_label_1
_geom_bond_atom_site_label_2
_geom_bond_site_symmetry_1
_geom_bond_site_symmetry_2
F1 C13 1_555 1_555
O1 C20 1_555 1_555
O2 C27 1_555 1_555
O3 N1 1_555 1_555
O4 N1 1_555 1_555
C1 C7 1_555 1_555
C2 C8 1_555 1_555
N1 C29 1_555 1_555
C3 H1 1_555 1_555
H2 C3 1_555 1_555
H3 C3 1_555 1_555
C4 C3 1_555 1_555
C5 C4 1_555 1_555
C6 C5 1_555 1_555
H4 C6 1_555 1_555
C7 C6 1_555 1_555
H5 C7 1_555 1_555
C8 C1 1_555 1_555
H6 C8 1_555 1_555
C9 C2 1_555 1_555
H7 C9 1_555 1_555
H8 C9 1_555 1_555
C10 C9 1_555 1_555
C11 C10 1_555 1_555
H9 C11 1_555 1_555
C12 C11 1_555 1_555
H10 C12 1_555 1_555
C13 C12 1_555 1_555
C14 C2 1_555 1_555
C15 C14 1_555 1_555
H11 C15 1_555 1_555
C16 C15 1_555 1_555
H12 C16 1_555 1_555
C17 C16 1_555 1_555
H13 C17 1_555 1_555
C18 C17 1_555 1_555
H14 C18 1_555 1_555
C19 C14 1_555 1_555
N2 C19 1_555 1_555
C20 C2 1_555 1_555
C21 N2 1_555 1_555
H15 C21 1_555 1_555
H16 C21 1_555 1_555
H17 C21 1_555 1_555
C22 C4 1_555 1_555
H18 C22 1_555 1_555
H19 C22 1_555 1_555
H20 C22 1_555 1_555
C23 C4 1_555 1_555
H21 C23 1_555 1_555
H22 C23 1_555 1_555
H23 C23 1_555 1_555
C24 C5 1_555 1_555
H24 C24 1_555 1_555
C25 C1 1_555 1_555
H25 C25 1_555 1_555
C26 C8 1_555 1_555
H26 C26 1_555 1_555
H27 C26 1_555 1_555
C27 C26 1_555 1_555
N3 O2 1_555 1_555
C28 N3 1_555 1_555
C29 C27 1_555 1_555
C30 C28 1_555 1_555
H28 C30 1_555 1_555
H29 C30 1_555 1_555
H30 C30 1_555 1_555
C31 C10 1_555 1_555
H31 C31 1_555 1_555
C32 C13 1_555 1_555
H32 C32 1_555 1_555
C18 C19 1_555 1_555
N2 C20 1_555 1_555
C24 C25 1_555 1_555
C28 C29 1_555 1_555
C31 C32 1_555 1_555

#END
