
#######################################################################
#
#                 Cambridge Crystallographic Data Centre
#                                CCDC 
#
#######################################################################
#
# If this CIF has been generated from an entry in the Cambridge 
# Structural Database, then it will include bibliographic, chemical, 
# crystal, experimental, refinement or atomic coordinate data resulting 
# from the CCDC's data processing and validation procedures.
#
#######################################################################

data_BIHJEJ
_chemical_formula_moiety         'C23 H25 F4 N3 O4 S1,H3 O4 P1'
_chemical_name_systematic        
'2-(4-((5-(Ethylsulfonyl)-1H-pyrrolo[2,3-c]pyridin-2-yl)methyl)-5,5,5-trifluoro-4-hydroxy-2-methylpentan-2-yl)-5-fluorobenzamide phosphoric acid solvate'
_symmetry_cell_setting           orthorhombic
_symmetry_space_group_name_H-M   'P 21 21 21'
_symmetry_Int_Tables_number      19
_space_group_name_Hall           'P 2ac 2ab'
loop_
_symmetry_equiv_pos_site_id
_symmetry_equiv_pos_as_xyz
1 x,y,z
2 1/2-x,-y,1/2+z
3 -x,1/2+y,1/2-z
4 1/2+x,1/2-y,-z
_cell_length_a                   8.3288(17)
_cell_length_b                   9.3506(19)
_cell_length_c                   33.517(7)
_cell_angle_alpha                90
_cell_angle_beta                 90
_cell_angle_gamma                90
_cell_volume                     2610.28
_cell_formula_units_Z            4
loop_
_atom_site_label
_atom_site_type_symbol
_atom_site_fract_x
_atom_site_fract_y
_atom_site_fract_z
S1 S 0.00343(7) 0.63906(7) 0.818953(16)
F1 F -0.9904(2) 0.83616(18) 0.98269(4)
F2 F -1.06270(18) 1.0493(2) 0.97012(4)
F3 F -1.38299(19) 1.2532(2) 0.83550(5)
O1 O 0.0079(2) 0.49915(19) 0.80119(5)
O2 O -0.8792(2) 0.9275(2) 0.91181(5)
H1 H -0.8400 0.9671 0.8923
F4 F -0.8802(2) 1.0099(2) 1.01433(4)
O3 O -0.7379(2) 1.0775(2) 0.85194(5)
O4 O 0.1314(2) 0.6779(2) 0.84535(5)
C1 C -0.1794(3) 0.6600(3) 0.84473(7)
N1 N -0.6005(3) 0.7469(2) 0.89720(6)
H2 H -0.6978 0.7251 0.8911
C2 C -0.0095(4) 0.7645(3) 0.77960(7)
H3 H 0.0902 0.7634 0.7646
H4 H -0.0951 0.7362 0.7616
N2 N -0.3085(2) 0.6041(2) 0.82581(6)
C3 C -0.3322(3) 0.7644(3) 0.89612(7)
C4 C -0.9666(3) 1.2242(3) 0.86530(7)
C5 C -0.3913(3) 0.8407(3) 0.92957(7)
H5 H -0.3301 0.8909 0.9481
C6 C -0.4672(3) 0.7074(3) 0.87629(7)
C7 C -1.2641(3) 1.2857(3) 0.89822(8)
H6 H -1.3635 1.3065 0.9095
C8 C -0.8265(3) 1.2673(3) 0.93357(8)
C9 C -1.1044(3) 1.2245(3) 0.84174(8)
H7 H -1.0973 1.2047 0.8146
C10 C -0.9351(3) 0.9692(3) 0.97843(8)
C11 C -0.6728(3) 0.8717(3) 0.96052(7)
H8 H -0.6145 0.9145 0.9825
H9 H -0.7256 0.7867 0.9706
C12 C -0.1825(3) 0.7390(3) 0.87927(7)
H10 H -0.0888 0.7739 0.8908
C13 C -0.4525(3) 0.6282(3) 0.84170(7)
H11 H -0.5437 0.5915 0.8294
C14 C -0.8154(3) 1.1877(3) 0.84330(7)
C15 C -0.5543(3) 0.8270(3) 0.92957(7)
C16 C -1.2503(3) 1.2541(3) 0.85865(8)
C17 C -0.7295(3) 1.1271(3) 0.94178(7)
H12 H -0.6524 1.1189 0.9202
H13 H -0.6677 1.1448 0.9658
N3 N -0.7745(3) 1.2737(3) 0.81412(6)
H14 H -0.6910 1.2553 0.7999
H15 H -0.8312 1.3485 0.8092
C18 C -0.9757(3) 1.2543(3) 0.90637(7)
C19 C -0.8037(3) 0.9784(3) 0.94681(7)
C20 C -0.8731(3) 1.3336(4) 0.97418(8)
H16 H -0.7786 1.3450 0.9903
H17 H -0.9476 1.2717 0.9876
H18 H -0.9221 1.4252 0.9699
C21 C -0.7098(3) 1.3744(3) 0.91478(8)
H19 H -0.6665 1.3349 0.8906
H20 H -0.6240 1.3939 0.9331
H21 H -0.7657 1.4616 0.9088
C22 C -1.1271(3) 1.2859(3) 0.92094(8)
H22 H -1.1365 1.3087 0.9478
C23 C -0.0411(4) 0.9143(3) 0.79421(8)
H23 H -0.1472 0.9195 0.8053
H24 H -0.0322 0.9800 0.7723
H25 H 0.0361 0.9388 0.8144
P1 P 0.47691(8) 0.93309(7) 0.761169(16)
O5 O 0.5366(2) 0.79332(19) 0.74676(5)
O6 O 0.4612(2) 0.9264(2) 0.80709(5)
H26 H 0.3988 0.9885 0.8147
O7 O 0.5968(2) 1.0503(2) 0.74872(5)
H27 H 0.5646 1.1282 0.7566
O8 O 0.3081(2) 0.9752(2) 0.74585(5)
H28 H 0.3156 1.0086 0.7233
loop_
_geom_bond_atom_site_label_1
_geom_bond_atom_site_label_2
_geom_bond_site_symmetry_1
_geom_bond_site_symmetry_2
S1 O1 1_555 1_555
F1 C10 1_555 1_555
F2 C10 1_555 1_555
F3 C16 1_555 1_555
O2 H1 1_555 1_555
F4 C10 1_555 1_555
O3 C14 1_555 1_555
O4 S1 1_555 1_555
C1 S1 1_555 1_555
N1 H2 1_555 1_555
C2 S1 1_555 1_555
H3 C2 1_555 1_555
H4 C2 1_555 1_555
N2 C1 1_555 1_555
C3 C5 1_555 1_555
C4 C9 1_555 1_555
C5 H5 1_555 1_555
C6 N1 1_555 1_555
C7 H6 1_555 1_555
C8 C17 1_555 1_555
C9 H7 1_555 1_555
C10 C19 1_555 1_555
C11 H8 1_555 1_555
H9 C11 1_555 1_555
C12 C1 1_555 1_555
H10 C12 1_555 1_555
C13 N2 1_555 1_555
H11 C13 1_555 1_555
C14 C4 1_555 1_555
C15 N1 1_555 1_555
C16 C7 1_555 1_555
C17 H12 1_555 1_555
H13 C17 1_555 1_555
N3 C14 1_555 1_555
H14 N3 1_555 1_555
H15 N3 1_555 1_555
C18 C4 1_555 1_555
C19 O2 1_555 1_555
C20 C8 1_555 1_555
H16 C20 1_555 1_555
H17 C20 1_555 1_555
H18 C20 1_555 1_555
C21 C8 1_555 1_555
H19 C21 1_555 1_555
H20 C21 1_555 1_555
H21 C21 1_555 1_555
C22 C7 1_555 1_555
H22 C22 1_555 1_555
C23 C2 1_555 1_555
H23 C23 1_555 1_555
H24 C23 1_555 1_555
H25 C23 1_555 1_555
P1 O5 1_555 1_555
O6 P1 1_555 1_555
H26 O6 1_555 1_555
O7 P1 1_555 1_555
H27 O7 1_555 1_555
O8 P1 1_555 1_555
H28 O8 1_555 1_555
C3 C6 1_555 1_555
C3 C12 1_555 1_555
C5 C15 1_555 1_555
C6 C13 1_555 1_555
C8 C18 1_555 1_555
C9 C16 1_555 1_555
C11 C15 1_555 1_555
C11 C19 1_555 1_555
C17 C19 1_555 1_555
C18 C22 1_555 1_555

#END
