
#######################################################################
#
#                 Cambridge Crystallographic Data Centre
#                                CCDC 
#
#######################################################################
#
# If this CIF has been generated from an entry in the Cambridge 
# Structural Database, then it will include bibliographic, chemical, 
# crystal, experimental, refinement or atomic coordinate data resulting 
# from the CCDC's data processing and validation procedures.
#
#######################################################################

data_BIHKOU
_chemical_formula_moiety         'C18 H20 Br1 N1 O1'
_chemical_name_systematic        
N-(2-Bromo-4,6-dimethylphenyl)-N-methyl-2-phenylpropanamide
_symmetry_cell_setting           orthorhombic
_symmetry_space_group_name_H-M   'P 21 21 21'
_symmetry_Int_Tables_number      19
_space_group_name_Hall           'P 2ac 2ab'
loop_
_symmetry_equiv_pos_site_id
_symmetry_equiv_pos_as_xyz
1 x,y,z
2 1/2-x,-y,1/2+z
3 -x,1/2+y,1/2-z
4 1/2+x,1/2-y,-z
_cell_length_a                   9.650(5)
_cell_length_b                   12.429(7)
_cell_length_c                   14.078(7)
_cell_angle_alpha                90
_cell_angle_beta                 90
_cell_angle_gamma                90
_cell_volume                     1688.51
_exptl_crystal_colour            colorless
_exptl_crystal_description       'rectangular prism'
_cell_formula_units_Z            4
loop_
_atom_site_label
_atom_site_type_symbol
_atom_site_fract_x
_atom_site_fract_y
_atom_site_fract_z
Br1 Br 0.66459(5) 0.76155(4) 1.01795(3)
N1 N 0.6227(3) 0.6451(3) 0.8272(2)
O1 O 0.5458(3) 0.7786(3) 0.7344(3)
C1 C 0.7600(3) 0.6379(3) 0.9735(2)
C2 C 0.8620(4) 0.5922(3) 1.0301(3)
H1 H 0.8840 0.6232 1.0891
C3 C 0.9308(3) 0.5017(3) 0.9997(3)
C4 C 0.8965(3) 0.4583(3) 0.9114(3)
H2 H 0.9429 0.3963 0.8903
C5 C 0.7966(3) 0.5038(3) 0.8540(2)
C6 C 0.7287(3) 0.5968(3) 0.8844(2)
C7 C 1.0395(5) 0.4499(4) 1.0609(4)
H3 H 1.0494 0.4904 1.1194
H4 H 1.1272 0.4492 1.0272
H5 H 1.0121 0.3767 1.0755
C8 C 0.7614(4) 0.4526(4) 0.7606(3)
H6 H 0.6898 0.4944 0.7293
H7 H 0.7280 0.3800 0.7714
H8 H 0.8434 0.4503 0.7209
C9 C 0.4832(4) 0.6012(5) 0.8399(3)
H9 H 0.4190 0.6390 0.7987
H10 H 0.4548 0.6101 0.9055
H11 H 0.4833 0.5253 0.8238
C10 C 0.6416(4) 0.7355(3) 0.7754(3)
C11 C 0.7895(4) 0.7797(3) 0.7679(3)
H12 H 0.8365 0.7703 0.8298
C12 C 1.0078(4) 0.6896(3) 0.7121(3)
H13 H 1.0433 0.6983 0.7738
C13 C 1.0898(6) 0.6457(4) 0.6434(5)
H14 H 1.1822 0.6276 0.6573
C14 C 1.0396(5) 0.6286(5) 0.5568(5)
H15 H 1.0955 0.5947 0.5111
C15 C 0.9079(6) 0.6595(5) 0.5329(4)
H16 H 0.8752 0.6499 0.4706
C16 C 0.8222(4) 0.7057(4) 0.6023(3)
H17 H 0.7309 0.7256 0.5869
C17 C 0.8717(3) 0.7218(3) 0.6925(2)
C18 C 0.7835(5) 0.9005(4) 0.7442(4)
H18 H 0.8769 0.9289 0.7399
H19 H 0.7333 0.9381 0.7938
H20 H 0.7364 0.9106 0.6839
loop_
_geom_bond_atom_site_label_1
_geom_bond_atom_site_label_2
_geom_bond_site_symmetry_1
_geom_bond_site_symmetry_2
Br1 C1 1_555 1_555
N1 C6 1_555 1_555
O1 C10 1_555 1_555
C1 C2 1_555 1_555
C2 H1 1_555 1_555
C3 C2 1_555 1_555
C4 C3 1_555 1_555
H2 C4 1_555 1_555
C5 C4 1_555 1_555
C6 C1 1_555 1_555
C7 C3 1_555 1_555
H3 C7 1_555 1_555
H4 C7 1_555 1_555
H5 C7 1_555 1_555
C8 C5 1_555 1_555
H6 C8 1_555 1_555
H7 C8 1_555 1_555
H8 C8 1_555 1_555
C9 N1 1_555 1_555
H9 C9 1_555 1_555
H10 C9 1_555 1_555
H11 C9 1_555 1_555
C10 N1 1_555 1_555
C11 C10 1_555 1_555
H12 C11 1_555 1_555
C12 H13 1_555 1_555
C13 C12 1_555 1_555
H14 C13 1_555 1_555
C14 C13 1_555 1_555
H15 C14 1_555 1_555
C15 C14 1_555 1_555
H16 C15 1_555 1_555
C16 C15 1_555 1_555
H17 C16 1_555 1_555
C17 C11 1_555 1_555
C18 C11 1_555 1_555
H18 C18 1_555 1_555
H19 C18 1_555 1_555
H20 C18 1_555 1_555
C5 C6 1_555 1_555
C12 C17 1_555 1_555
C16 C17 1_555 1_555

#END
