
#######################################################################
#
#                 Cambridge Crystallographic Data Centre
#                                CCDC 
#
#######################################################################
#
# If this CIF has been generated from an entry in the Cambridge 
# Structural Database, then it will include bibliographic, chemical, 
# crystal, experimental, refinement or atomic coordinate data resulting 
# from the CCDC's data processing and validation procedures.
#
#######################################################################

data_BIHKIP
_chemical_formula_moiety         'C34 H29 N3 O2,C1 H2 Cl2'
_chemical_name_systematic        
'3-[(1,3-dibenzyl-1,3-dihydro-2H-benzimidazol-2-ylidene)methyl]-4-[4-(dimethylamino)phenyl]cyclobut-3-ene-1,2-dione dichloromethane solvate'
_symmetry_cell_setting           triclinic
_symmetry_space_group_name_H-M   'P -1'
_symmetry_Int_Tables_number      2
_space_group_name_Hall           '-P 1'
loop_
_symmetry_equiv_pos_site_id
_symmetry_equiv_pos_as_xyz
1 x,y,z
2 -x,-y,-z
_cell_length_a                   8.369(7)
_cell_length_b                   12.321(11)
_cell_length_c                   15.807(14)
_cell_angle_alpha                98.586(11)
_cell_angle_beta                 92.651(12)
_cell_angle_gamma                108.095(11)
_cell_volume                     1524.5
_cell_formula_units_Z            2
loop_
_atom_site_label
_atom_site_type_symbol
_atom_site_fract_x
_atom_site_fract_y
_atom_site_fract_z
N1 N 0.2405(10) 0.6380(6) 0.3359(4)
N2 N -0.0621(6) 0.8426(4) 0.8681(3)
N3 N 0.1721(5) 0.8323(4) 0.9274(3)
O1 O 0.6822(6) 1.0270(4) 0.6982(3)
O2 O 0.4933(5) 1.0251(4) 0.8717(3)
C1 C 0.1135(13) 0.5282(9) 0.3143(6)
H1 H 0.0651 0.5054 0.3654
H2 H 0.1625 0.4719 0.2886
H3 H 0.0271 0.5330 0.2743
C2 C 0.3262(15) 0.6867(9) 0.2682(5)
H4 H 0.4081 0.7607 0.2912
H5 H 0.2462 0.6965 0.2270
H6 H 0.3823 0.6359 0.2407
C3 C 0.2789(11) 0.6990(7) 0.4203(5)
C4 C 0.4160(10) 0.7969(6) 0.4417(4)
H7 H 0.4851 0.8233 0.3997
C5 C 0.4527(9) 0.8565(6) 0.5240(4)
H8 H 0.5473 0.9224 0.5370
C6 C 0.3514(8) 0.8208(5) 0.5894(4)
C7 C 0.2112(9) 0.7225(6) 0.5649(4)
H9 H 0.1389 0.6972 0.6060
C8 C 0.1748(10) 0.6608(7) 0.4821(5)
H10 H 0.0811 0.5943 0.4683
C9 C 0.3947(7) 0.8833(5) 0.6751(4)
C10 C 0.5440(8) 0.9729(5) 0.7179(4)
C11 C 0.4589(7) 0.9719(5) 0.7994(4)
C12 C 0.3093(7) 0.8801(5) 0.7505(3)
C13 C 0.1469(7) 0.8271(5) 0.7697(4)
H11 H 0.0680 0.7823 0.7244
C14 C 0.0916(7) 0.8358(4) 0.8529(3)
C15 C 0.3245(7) 0.7990(5) 0.9380(4)
H12 H 0.4006 0.8522 0.9850
H13 H 0.3819 0.8050 0.8861
C16 C 0.2844(7) 0.6773(5) 0.9559(3)
C17 C 0.3620(8) 0.6556(6) 1.0261(4)
H14 H 0.4366 0.7169 1.0646
C18 C 0.3310(10) 0.5431(6) 1.0407(5)
H15 H 0.3831 0.5288 1.0891
C19 C 0.2233(11) 0.4533(6) 0.9833(6)
H16 H 0.2030 0.3774 0.9921
C20 C 0.1459(11) 0.4751(6) 0.9132(7)
H17 H 0.0716 0.4141 0.8744
C21 C 0.1773(10) 0.5867(6) 0.8997(5)
H18 H 0.1245 0.6007 0.8513
C22 C 0.0706(7) 0.8434(4) 0.9924(4)
C23 C 0.0976(8) 0.8458(5) 1.0800(4)
H19 H 0.1962 0.8394 1.1051
C24 C -0.0308(9) 0.8582(5) 1.1270(4)
H20 H -0.0176 0.8611 1.1861
C25 C -0.1765(8) 0.8666(6) 1.0917(5)
H21 H -0.2594 0.8748 1.1269
C26 C -0.2038(8) 0.8630(5) 1.0038(4)
H22 H -0.3025 0.8697 0.9791
C27 C -0.0776(7) 0.8491(4) 0.9558(4)
C28 C -0.1817(7) 0.8592(5) 0.8046(4)
H23 H -0.1203 0.9037 0.7639
H24 H -0.2489 0.9023 0.8334
C29 C -0.299(3) 0.740(3) 0.756(2)
C30 C -0.392(4) 0.653(3) 0.7983(19)
H25 H -0.3770 0.6623 0.8579
C31 C -0.507(4) 0.553(3) 0.751(2)
H26 H -0.5686 0.4947 0.7789
C32 C -0.529(4) 0.540(3) 0.662(2)
H27 H -0.6053 0.4724 0.6303
C33 C -0.436(5) 0.627(3) 0.620(2)
H28 H -0.4504 0.6177 0.5605
C34 C -0.321(4) 0.727(3) 0.667(2)
H29 H -0.2588 0.7853 0.6394
Cl1 Cl 0.8499(4) 0.7296(3) 0.3438(3)
Cl2 Cl 0.8994(4) 0.9723(3) 0.3791(2)
C41 C 0.9821(11) 0.8633(7) 0.3924(6)
H35 H 1.0898 0.8785 0.3682
H36 H 1.0023 0.8633 0.4533
C35? C -0.292(3) 0.757(2) 0.7462(18)
C36? C -0.405(4) 0.670(2) 0.7812(18)
H30? H -0.4130 0.6801 0.8402
C37? C -0.507(4) 0.570(2) 0.728(2)
H31? H -0.5830 0.5124 0.7515
C38? C -0.495(4) 0.556(2) 0.640(2)
H32? H -0.5635 0.4884 0.6044
C39? C -0.382(5) 0.642(3) 0.6049(16)
H33? H -0.3740 0.6321 0.5459
C40? C -0.280(4) 0.742(3) 0.6580(19)
H34? H -0.2041 0.7998 0.6346
loop_
_geom_bond_atom_site_label_1
_geom_bond_atom_site_label_2
_geom_bond_site_symmetry_1
_geom_bond_site_symmetry_2
N1 C1 1_555 1_555
N2 C14 1_555 1_555
N3 C14 1_555 1_555
O1 C10 1_555 1_555
O2 C11 1_555 1_555
C1 H1 1_555 1_555
H2 C1 1_555 1_555
H3 C1 1_555 1_555
C2 N1 1_555 1_555
H4 C2 1_555 1_555
H5 C2 1_555 1_555
H6 C2 1_555 1_555
C3 N1 1_555 1_555
C4 C3 1_555 1_555
H7 C4 1_555 1_555
C5 C4 1_555 1_555
H8 C5 1_555 1_555
C6 C5 1_555 1_555
C7 C6 1_555 1_555
H9 C7 1_555 1_555
C8 C3 1_555 1_555
H10 C8 1_555 1_555
C9 C6 1_555 1_555
C10 C9 1_555 1_555
C11 C10 1_555 1_555
C12 C9 1_555 1_555
C13 C12 1_555 1_555
H11 C13 1_555 1_555
C14 C13 1_555 1_555
C15 N3 1_555 1_555
H12 C15 1_555 1_555
H13 C15 1_555 1_555
C16 C15 1_555 1_555
C17 C16 1_555 1_555
H14 C17 1_555 1_555
C18 C17 1_555 1_555
H15 C18 1_555 1_555
C19 C18 1_555 1_555
H16 C19 1_555 1_555
C20 C19 1_555 1_555
H17 C20 1_555 1_555
C21 C16 1_555 1_555
H18 C21 1_555 1_555
C22 N3 1_555 1_555
C23 C22 1_555 1_555
H19 C23 1_555 1_555
C24 C23 1_555 1_555
H20 C24 1_555 1_555
C25 C24 1_555 1_555
H21 C25 1_555 1_555
C26 C25 1_555 1_555
H22 C26 1_555 1_555
C27 N2 1_555 1_555
C28 N2 1_555 1_555
H23 C28 1_555 1_555
H24 C28 1_555 1_555
C29 C28 1_555 1_555
C30 C29 1_555 1_555
H25 C30 1_555 1_555
C31 C30 1_555 1_555
H26 C31 1_555 1_555
C32 C31 1_555 1_555
H27 C32 1_555 1_555
C33 C32 1_555 1_555
H28 C33 1_555 1_555
C34 C29 1_555 1_555
H29 C34 1_555 1_555
Cl1 C41 1_555 1_555
Cl2 C41 1_555 1_555
C41 H35 1_555 1_555
H36 C41 1_555 1_555
C7 C8 1_555 1_555
C11 C12 1_555 1_555
C20 C21 1_555 1_555
C22 C27 1_555 1_555
C26 C27 1_555 1_555
C33 C34 1_555 1_555

#END
