
#######################################################################
#
#                 Cambridge Crystallographic Data Centre
#                                CCDC 
#
#######################################################################
#
# If this CIF has been generated from an entry in the Cambridge 
# Structural Database, then it will include bibliographic, chemical, 
# crystal, experimental, refinement or atomic coordinate data resulting 
# from the CCDC's data processing and validation procedures.
#
#######################################################################

data_BIHKUB
_chemical_formula_moiety         'C34 H29 N3 O2,2(C1 H4 O1)'
_chemical_name_systematic        
'3-[(1,3-dibenzyl-1,3-dihydro-2H-benzimidazol-2-ylidene)methyl]-4-[4-(dimethylamino)phenyl]cyclobut-3-ene-1,2-dione methanol solvate'
_symmetry_cell_setting           triclinic
_symmetry_space_group_name_H-M   'P -1'
_symmetry_Int_Tables_number      2
_space_group_name_Hall           '-P 1'
loop_
_symmetry_equiv_pos_site_id
_symmetry_equiv_pos_as_xyz
1 x,y,z
2 -x,-y,-z
_cell_length_a                   8.837(2)
_cell_length_b                   11.209(3)
_cell_length_c                   17.499(4)
_cell_angle_alpha                92.710(4)
_cell_angle_beta                 102.278(3)
_cell_angle_gamma                106.964(3)
_cell_volume                     1608.88
_cell_formula_units_Z            2
loop_
_atom_site_label
_atom_site_type_symbol
_atom_site_fract_x
_atom_site_fract_y
_atom_site_fract_z
O1 O 0.7766(4) 1.2401(2) 0.27127(15)
O2 O 0.5323(4) 1.0170(2) 0.13555(16)
N1 N 1.3506(5) 1.0812(5) 0.5493(2)
N2 N 0.5045(3) 0.6412(2) 0.12136(16)
N3 N 0.5989(3) 0.7880(2) 0.05048(15)
C1 C 1.3879(6) 0.9713(7) 0.5761(3)
H1 H 1.3280 0.9000 0.5377
H2 H 1.3581 0.9566 0.6253
H3 H 1.5025 0.9840 0.5831
C2 C 1.4259(8) 1.1970(7) 0.6012(3)
H4 H 1.3910 1.2629 0.5775
H5 H 1.5422 1.2182 0.6103
H6 H 1.3948 1.1869 0.6504
C3 C 1.2291(6) 1.0715(6) 0.4827(3)
C4 C 1.1776(6) 1.1733(5) 0.4610(3)
H7 H 1.2262 1.2501 0.4923
C5 C 1.0565(5) 1.1643(4) 0.3944(2)
H8 H 1.0264 1.2352 0.3818
C6 C 0.9786(4) 1.0516(4) 0.3459(2)
C7 C 1.0314(5) 0.9497(4) 0.3685(2)
H9 H 0.9831 0.8727 0.3374
C8 C 1.1516(5) 0.9584(5) 0.4348(2)
H10 H 1.1814 0.8875 0.4477
C9 C 0.8491(4) 1.0428(3) 0.2783(2)
C10 C 0.7670(5) 1.1299(3) 0.2509(2)
C11 C 0.6548(5) 1.0301(3) 0.1871(2)
C12 C 0.7506(4) 0.9451(3) 0.21656(19)
C13 C 0.7318(4) 0.8229(3) 0.1940(2)
H11 H 0.7960 0.7824 0.2249
C14 C 0.6164(4) 0.7545(3) 0.1242(2)
C15 C 0.7075(4) 0.8965(3) 0.0243(2)
H12 H 0.7700 0.9580 0.0693
H13 H 0.6432 0.9359 -0.0120
C16 C 0.819(2) 0.855(2) -0.0149(9)
C17 C 0.788(2) 0.8635(19) -0.0954(9)
H14 H 0.7037 0.8931 -0.1192
C18 C 0.883(2) 0.8275(15) -0.1404(6)
H15 H 0.8619 0.8330 -0.1943
C19 C 1.009(2) 0.7832(12) -0.1049(10)
H16 H 1.0725 0.7592 -0.1350
C20 C 1.040(2) 0.7750(15) -0.0244(11)
H17 H 1.1248 0.7454 -0.0006
C21 C 0.946(2) 0.8109(19) 0.0206(6)
H18 H 0.9666 0.8054 0.0745
C22 C 0.4714(4) 0.6960(3) 0.00019(19)
C23 C 0.4046(4) 0.6863(3) -0.0800(2)
H19 H 0.4458 0.7479 -0.1106
C24 C 0.2748(4) 0.5815(3) -0.1123(2)
H20 H 0.2276 0.5714 -0.1660
C25 C 0.2127(5) 0.4902(3) -0.0663(2)
H21 H 0.1234 0.4214 -0.0900
C26 C 0.2786(5) 0.4981(3) 0.0129(2)
H22 H 0.2369 0.4365 0.0433
C27 C 0.4114(4) 0.6032(3) 0.0450(2)
C28 C 0.4699(4) 0.5768(3) 0.1887(2)
H23 H 0.5658 0.6050 0.2321
H24 H 0.4467 0.4873 0.1752
C29 C 0.3270(4) 0.5997(3) 0.21536(19)
C30 C 0.2894(5) 0.7102(4) 0.2072(2)
H25 H 0.3493 0.7718 0.1820
C31 C 0.1640(5) 0.7306(4) 0.2359(2)
H26 H 0.1399 0.8056 0.2303
C32 C 0.0752(5) 0.6396(5) 0.2725(3)
H27 H -0.0083 0.6534 0.2926
C33 C 0.1089(6) 0.5285(5) 0.2798(3)
H28 H 0.0468 0.4661 0.3036
C34 C 0.2349(5) 0.5094(4) 0.2517(2)
H29 H 0.2583 0.4341 0.2573
O3 O 0.5361(9) 0.3312(7) 0.2854(3)
C35 C 0.4424(15) 0.2491(15) 0.3283(8)
H30 H 0.4944 0.2684 0.3834
H31 H 0.4330 0.1641 0.3112
H32 H 0.3358 0.2588 0.3195
H33 H 0.680(4) 0.438(3) 0.318(2)
O4 O 0.780(2) 0.5343(14) 0.4022(10)
C36 C 0.753(4) 0.449(2) 0.4679(15)
H34 H 0.7761 0.3732 0.4558
H35 H 0.6417 0.4299 0.4718
H36 H 0.8239 0.4924 0.5171
H37 H 0.741(3) 0.561(2) 0.3558(12)
C37? C 0.825(3) 0.861(2) -0.0225(11)
C38? C 0.812(2) 0.847(2) -0.1032(10)
H38? H 0.7258 0.8624 -0.1376
C39? C 0.929(3) 0.8113(19) -0.1325(10)
H39? H 0.9200 0.8022 -0.1865
C40? C 1.058(3) 0.7888(17) -0.0811(16)
H40? H 1.1359 0.7646 -0.1007
C41? C 1.071(3) 0.802(2) -0.0004(15)
H41? H 1.1575 0.7873 0.0340
C42? C 0.955(3) 0.838(3) 0.0289(9)
H42? H 0.9633 0.8475 0.0829
loop_
_geom_bond_atom_site_label_1
_geom_bond_atom_site_label_2
_geom_bond_site_symmetry_1
_geom_bond_site_symmetry_2
O1 C10 1_555 1_555
O2 C11 1_555 1_555
N1 C1 1_555 1_555
N2 C14 1_555 1_555
N3 C14 1_555 1_555
C1 H1 1_555 1_555
H2 C1 1_555 1_555
H3 C1 1_555 1_555
C2 N1 1_555 1_555
H4 C2 1_555 1_555
H5 C2 1_555 1_555
H6 C2 1_555 1_555
C3 N1 1_555 1_555
C4 C3 1_555 1_555
H7 C4 1_555 1_555
C5 C4 1_555 1_555
H8 C5 1_555 1_555
C6 C5 1_555 1_555
C7 C6 1_555 1_555
H9 C7 1_555 1_555
C8 C3 1_555 1_555
H10 C8 1_555 1_555
C9 C6 1_555 1_555
C10 C9 1_555 1_555
C11 C10 1_555 1_555
C12 C9 1_555 1_555
C13 C12 1_555 1_555
H11 C13 1_555 1_555
C14 C13 1_555 1_555
C15 N3 1_555 1_555
H12 C15 1_555 1_555
H13 C15 1_555 1_555
C16 C15 1_555 1_555
C17 C16 1_555 1_555
H14 C17 1_555 1_555
C18 C17 1_555 1_555
H15 C18 1_555 1_555
C19 C18 1_555 1_555
H16 C19 1_555 1_555
C20 C19 1_555 1_555
H17 C20 1_555 1_555
C21 C16 1_555 1_555
H18 C21 1_555 1_555
C22 N3 1_555 1_555
C23 C22 1_555 1_555
H19 C23 1_555 1_555
C24 C23 1_555 1_555
H20 C24 1_555 1_555
C25 C24 1_555 1_555
H21 C25 1_555 1_555
C26 C25 1_555 1_555
H22 C26 1_555 1_555
C27 N2 1_555 1_555
C28 N2 1_555 1_555
H23 C28 1_555 1_555
H24 C28 1_555 1_555
C29 C28 1_555 1_555
C30 C29 1_555 1_555
H25 C30 1_555 1_555
C31 C30 1_555 1_555
H26 C31 1_555 1_555
C32 C31 1_555 1_555
H27 C32 1_555 1_555
C33 C32 1_555 1_555
H28 C33 1_555 1_555
C34 C29 1_555 1_555
H29 C34 1_555 1_555
O3 C35 1_555 1_555
C35 H30 1_555 1_555
H31 C35 1_555 1_555
H32 C35 1_555 1_555
H33 O3 1_555 1_555
O4 C36 1_555 1_555
C36 H34 1_555 1_555
H35 C36 1_555 1_555
H36 C36 1_555 1_555
H37 O4 1_555 1_555
C7 C8 1_555 1_555
C11 C12 1_555 1_555
C20 C21 1_555 1_555
C22 C27 1_555 1_555
C26 C27 1_555 1_555
C33 C34 1_555 1_555

#END
