
#######################################################################
#
#                 Cambridge Crystallographic Data Centre
#                                CCDC 
#
#######################################################################
#
# If this CIF has been generated from an entry in the Cambridge 
# Structural Database, then it will include bibliographic, chemical, 
# crystal, experimental, refinement or atomic coordinate data resulting 
# from the CCDC's data processing and validation procedures.
#
#######################################################################

data_BIHLAH
_chemical_formula_moiety         'C11 H13 N5'
_chemical_name_systematic        2,6-bis(4,5-dihydro-1H-imidazol-2-yl)pyridine
_symmetry_cell_setting           monoclinic
_symmetry_space_group_name_H-M   'C 2/c'
_symmetry_Int_Tables_number      15
_space_group_name_Hall           '-C 2yn'
loop_
_symmetry_equiv_pos_site_id
_symmetry_equiv_pos_as_xyz
1 x,y,z
2 -x,y,1/2-z
3 1/2+x,1/2+y,z
4 1/2-x,1/2+y,1/2-z
5 -x,-y,-z
6 x,-y,1/2+z
7 1/2-x,1/2-y,-z
8 1/2+x,1/2-y,1/2+z
_cell_length_a                   7.5759(3)
_cell_length_b                   6.6953(3)
_cell_length_c                   19.3769(10)
_cell_angle_alpha                90
_cell_angle_beta                 96.532(5)
_cell_angle_gamma                90
_cell_volume                     976.473
_exptl_crystal_colour            colorless
_exptl_crystal_description       plate
_cell_formula_units_Z            4
loop_
_atom_site_label
_atom_site_type_symbol
_atom_site_fract_x
_atom_site_fract_y
_atom_site_fract_z
N1 N 0.5000 0.6140(3) 0.7500
N2 N 0.74977(18) 0.6832(2) 0.60502(7)
C1 C 0.57300(17) 0.7199(2) 0.70137(7)
C2 C 0.5000 1.0333(3) 0.7500
H1 H 0.5000 1.1752 0.7500
N3 N 0.59896(18) 0.4086(2) 0.63393(7)
C3 C 0.58110(18) 0.9274(2) 0.70093(8)
H2 H 0.6413 0.9954 0.6675
C4 C 0.64383(19) 0.6056(2) 0.64493(8)
C5 C 0.7900(2) 0.5232(2) 0.55650(9)
H3 H 0.9151 0.4793 0.5666
H4 H 0.7702 0.5708 0.5079
C6 C 0.6625(2) 0.3504(2) 0.56805(8)
H5 H 0.5637 0.3425 0.5301
H6 H 0.7256 0.2207 0.5722
H7 H 0.488(3) 0.368(3) 0.6416(12)
N2A N 0.25023(18) 0.6832(2) 0.89498(7)
C1A C 0.42700(17) 0.7199(2) 0.79863(7)
N3A N 0.40104(18) 0.4086(2) 0.86607(7)
C3A C 0.41890(18) 0.9274(2) 0.79907(8)
H2A H 0.3587 0.9954 0.8325
C4A C 0.35617(19) 0.6056(2) 0.85507(8)
C5A C 0.2100(2) 0.5232(2) 0.94350(9)
H3A H 0.0849 0.4793 0.9334
H4A H 0.2298 0.5708 0.9921
C6A C 0.3375(2) 0.3504(2) 0.93195(8)
H5A H 0.4363 0.3425 0.9699
H6A H 0.2744 0.2207 0.9278
H7A H 0.512(3) 0.368(3) 0.8584(12)
loop_
_geom_bond_atom_site_label_1
_geom_bond_atom_site_label_2
_geom_bond_site_symmetry_1
_geom_bond_site_symmetry_2
N1 C1 1_555 1_555
N2 C4 1_555 1_555
C1 C3 1_555 1_555
C2 H1 1_555 1_555
N3 C4 1_555 1_555
C3 C2 1_555 1_555
H2 C3 1_555 1_555
C4 C1 1_555 1_555
C5 N2 1_555 1_555
H3 C5 1_555 1_555
H4 C5 1_555 1_555
C6 N3 1_555 1_555
H5 C6 1_555 1_555
H6 C6 1_555 1_555
H7 N3 1_555 1_555
N2A C4A 1_555 1_555
C1A N1 1_555 1_555
N3A C4A 1_555 1_555
C3A C2 1_555 1_555
H2A C3A 1_555 1_555
C4A C1A 1_555 1_555
C5A N2A 1_555 1_555
H3A C5A 1_555 1_555
H4A C5A 1_555 1_555
C6A N3A 1_555 1_555
H5A C6A 1_555 1_555
H6A C6A 1_555 1_555
H7A N3A 1_555 1_555
C5 C6 1_555 1_555
C1A C3A 1_555 1_555
C5A C6A 1_555 1_555

#END
