
#######################################################################
#
#                 Cambridge Crystallographic Data Centre
#                                CCDC 
#
#######################################################################
#
# If this CIF has been generated from an entry in the Cambridge 
# Structural Database, then it will include bibliographic, chemical, 
# crystal, experimental, refinement or atomic coordinate data resulting 
# from the CCDC's data processing and validation procedures.
#
#######################################################################

data_BIHRUG
_chemical_name_common            N,N-bis(4-Succinidophenyl)aniline
_chemical_formula_moiety         'C26 H21 N3 O4'
_chemical_name_systematic        
bis(4-(2,5-Dioxopyrrolidinyl)phenyl)phenylamine
_symmetry_cell_setting           triclinic
_symmetry_space_group_name_H-M   'P -1'
_symmetry_Int_Tables_number      2
_space_group_name_Hall           '-P 1'
loop_
_symmetry_equiv_pos_site_id
_symmetry_equiv_pos_as_xyz
1 x,y,z
2 -x,-y,-z
_cell_length_a                   9.9786(5)
_cell_length_b                   11.2659(6)
_cell_length_c                   11.7260(7)
_cell_angle_alpha                66.493(4)
_cell_angle_beta                 64.985(3)
_cell_angle_gamma                85.724(3)
_cell_volume                     1088.38
_exptl_crystal_colour            colorless
_exptl_crystal_description       block
_chemical_melting_point          310deg.C
_cell_formula_units_Z            2
_exptl_crystal_recrystallization_method chloroform
loop_
_atom_site_label
_atom_site_type_symbol
_atom_site_fract_x
_atom_site_fract_y
_atom_site_fract_z
C1 C 0.2239(4) 0.4423(3) 1.0200(3)
C2 C 0.0743(4) 0.4138(4) 1.1093(4)
H1 H 0.0190 0.4802 1.1258
C3 C 0.0062(4) 0.2879(4) 1.1741(4)
H2 H -0.0949 0.2702 1.2328
C4 C 0.0865(5) 0.1883(4) 1.1527(4)
H3 H 0.0405 0.1032 1.1983
C5 C 0.2353(5) 0.2150(3) 1.0635(4)
H4 H 0.2896 0.1478 1.0482
C6 C 0.3052(4) 0.3416(3) 0.9961(3)
H5 H 0.4057 0.3591 0.9354
C7 C 0.2850(3) 0.6392(3) 1.0377(3)
C8 C 0.3034(3) 0.7759(3) 0.9835(3)
H6 H 0.3157 0.8240 0.8936
C9 C 0.3033(4) 0.8391(3) 1.0623(3)
H7 H 0.3209 0.9295 1.0235
C10 C 0.2777(3) 0.7709(3) 1.1977(3)
C11 C 0.2538(4) 0.6358(3) 1.2542(4)
H8 H 0.2354 0.5885 1.3459
C12 C 0.2573(4) 0.5720(3) 1.1749(3)
H9 H 0.2406 0.4815 1.2142
C13 C 0.4079(4) 0.8774(3) 1.2782(4)
C14 C 0.3674(4) 0.9402(4) 1.3761(4)
H10 H 0.4128 1.0298 1.3288
H11 H 0.3999 0.8937 1.4478
C15 C 0.1989(4) 0.9342(4) 1.4366(4)
H12 H 0.1555 0.8866 1.5359
H13 H 0.1683 1.0212 1.4150
C16 C 0.1517(4) 0.8654(3) 1.3722(3)
C17 C 0.4008(3) 0.6201(3) 0.8147(3)
C18 C 0.3740(4) 0.5928(3) 0.7206(3)
H14 H 0.2845 0.5461 0.7489
C19 C 0.4780(4) 0.6337(3) 0.5859(3)
H15 H 0.4583 0.6148 0.5238
C20 C 0.6116(3) 0.7029(3) 0.5423(3)
C21 C 0.6398(3) 0.7312(3) 0.6346(3)
H16 H 0.7292 0.7787 0.6052
C22 C 0.5365(3) 0.6895(3) 0.7702(3)
H17 H 0.5572 0.7077 0.8322
C23 C 0.7948(4) 0.6597(3) 0.3447(3)
C24 C 0.8984(4) 0.7376(4) 0.1976(3)
H18 H 0.8731 0.7156 0.1365
H19 H 1.0005 0.7216 0.1808
C25 C 0.8781(4) 0.8792(3) 0.1751(3)
H20 H 0.9720 0.9276 0.1447
H21 H 0.8404 0.9200 0.1062
C26 C 0.7689(4) 0.8763(3) 0.3109(3)
N1 N 0.2942(3) 0.5732(2) 0.9548(3)
N2 N 0.2800(3) 0.8362(2) 1.2795(3)
N3 N 0.7196(3) 0.7451(2) 0.4021(2)
O1 O 0.5318(3) 0.8601(3) 1.2071(3)
O2 O 0.0276(3) 0.8378(3) 1.3916(3)
O3 O 0.7750(3) 0.5419(2) 0.4049(3)
O4 O 0.7242(3) 0.9676(2) 0.3424(3)
loop_
_geom_bond_atom_site_label_1
_geom_bond_atom_site_label_2
_geom_bond_site_symmetry_1
_geom_bond_site_symmetry_2
C1 C2 1_555 1_555
C2 H1 1_555 1_555
C3 C2 1_555 1_555
H2 C3 1_555 1_555
C4 C3 1_555 1_555
H3 C4 1_555 1_555
C5 C4 1_555 1_555
H4 C5 1_555 1_555
C6 C1 1_555 1_555
H5 C6 1_555 1_555
C7 C8 1_555 1_555
C8 H6 1_555 1_555
C9 C8 1_555 1_555
H7 C9 1_555 1_555
C10 C9 1_555 1_555
C11 C10 1_555 1_555
H8 C11 1_555 1_555
C12 C7 1_555 1_555
H9 C12 1_555 1_555
C13 C14 1_555 1_555
C14 H10 1_555 1_555
H11 C14 1_555 1_555
C15 C14 1_555 1_555
H12 C15 1_555 1_555
H13 C15 1_555 1_555
C16 C15 1_555 1_555
C17 C18 1_555 1_555
C18 H14 1_555 1_555
C19 C18 1_555 1_555
H15 C19 1_555 1_555
C20 C19 1_555 1_555
C21 C20 1_555 1_555
H16 C21 1_555 1_555
C22 C17 1_555 1_555
H17 C22 1_555 1_555
C23 C24 1_555 1_555
C24 H18 1_555 1_555
H19 C24 1_555 1_555
C25 C24 1_555 1_555
H20 C25 1_555 1_555
H21 C25 1_555 1_555
C26 C25 1_555 1_555
N1 C1 1_555 1_555
N2 C10 1_555 1_555
N3 C20 1_555 1_555
O1 C13 1_555 1_555
O2 C16 1_555 1_555
O3 C23 1_555 1_555
O4 C26 1_555 1_555
C5 C6 1_555 1_555
C7 N1 1_555 1_555
C11 C12 1_555 1_555
C13 N2 1_555 1_555
C16 N2 1_555 1_555
C17 N1 1_555 1_555
C21 C22 1_555 1_555
C23 N3 1_555 1_555
C26 N3 1_555 1_555

#END
