
#######################################################################
#
#                 Cambridge Crystallographic Data Centre
#                                CCDC 
#
#######################################################################
#
# If this CIF has been generated from an entry in the Cambridge 
# Structural Database, then it will include bibliographic, chemical, 
# crystal, experimental, refinement or atomic coordinate data resulting 
# from the CCDC's data processing and validation procedures.
#
#######################################################################

data_BIHSAN
_chemical_name_common            N,N-bis(4-Maleimidophenyl)aniline
_chemical_formula_moiety         'C26 H17 N3 O4'
_chemical_name_systematic        
bis(4-(2,5-Dioxo-2,5-dihydropyrrolyl)phenyl)phenylamine
_symmetry_cell_setting           triclinic
_symmetry_space_group_name_H-M   'P -1'
_symmetry_Int_Tables_number      2
_space_group_name_Hall           '-P 1'
loop_
_symmetry_equiv_pos_site_id
_symmetry_equiv_pos_as_xyz
1 x,y,z
2 -x,-y,-z
_cell_length_a                   9.7993(2)
_cell_length_b                   11.1782(2)
_cell_length_c                   11.5440(3)
_cell_angle_alpha                65.8541(9)
_cell_angle_beta                 66.0412(9)
_cell_angle_gamma                84.3268(9)
_cell_volume                     1051.02
_exptl_crystal_colour            yellow
_exptl_crystal_description       column
_chemical_melting_point          257-258deg.C
_cell_formula_units_Z            2
_exptl_crystal_recrystallization_method 'ethyl acetate'
loop_
_atom_site_label
_atom_site_type_symbol
_atom_site_fract_x
_atom_site_fract_y
_atom_site_fract_z
O1 O 0.21629(14) 0.44189(12) 0.61193(13)
O2 O 0.29199(13) 0.02027(10) 0.65263(11)
O3 O 0.98852(14) 0.16294(14) -0.41577(14)
O4 O 0.48078(14) 0.12675(14) -0.20875(14)
N1 N 0.71320(13) 0.42741(10) 0.04168(11)
N2 N 0.28824(13) 0.24427(11) 0.59536(11)
N3 N 0.73646(13) 0.16184(12) -0.28801(13)
C1 C 0.60569(15) 0.37839(12) 0.18199(14)
C2 C 0.47324(15) 0.30805(13) 0.22358(15)
H1 H 0.4544 0.2899 0.1594
C3 C 0.36906(16) 0.26464(13) 0.35898(14)
H2 H 0.2805 0.2176 0.3857
C4 C 0.39615(15) 0.29087(13) 0.45457(14)
C5 C 0.52734(16) 0.36132(14) 0.41488(15)
H3 H 0.5452 0.3799 0.4792
C6 C 0.63189(16) 0.40404(13) 0.27947(14)
H4 H 0.7207 0.4504 0.2533
C7 C 0.20702(17) 0.32309(17) 0.66268(16)
C8 C 0.11045(18) 0.23149(18) 0.80482(16)
H5 H 0.0446 0.2559 0.8748
C9 C 0.13297(19) 0.11030(18) 0.81600(16)
H6 H 0.0856 0.0350 0.8955
C10 C 0.24506(17) 0.11202(16) 0.68292(15)
C11 C 0.72732(15) 0.36046(12) -0.04337(14)
C12 C 0.71036(16) 0.22365(13) 0.01218(15)
H7 H 0.6965 0.1755 0.1041
C13 C 0.71396(16) 0.15897(14) -0.06854(15)
H8 H 0.6991 0.0677 -0.0297
C14 C 0.73934(16) 0.22877(14) -0.20608(15)
C15 C 0.76299(17) 0.36374(14) -0.26387(16)
H9 H 0.7829 0.4111 -0.3574
C16 C 0.75713(17) 0.42870(13) -0.18337(15)
H10 H 0.7734 0.5199 -0.2234
C17 C 0.85987(19) 0.13716(16) -0.38835(17)
C18 C 0.79949(19) 0.07299(16) -0.44889(17)
H11 H 0.8566 0.0442 -0.5180
C19 C 0.65340(19) 0.06300(15) -0.39015(17)
H12 H 0.5898 0.0270 -0.4114
C20 C 0.60562(19) 0.11812(15) -0.28447(17)
C21 C 0.77784(16) 0.55979(13) -0.02067(14)
C22 C 0.69282(18) 0.65804(14) 0.01045(16)
H13 H 0.5934 0.6377 0.0737
C23 C 0.7552(2) 0.78536(15) -0.05199(17)
H14 H 0.6973 0.8507 -0.0312
C24 C 0.9021(2) 0.81668(16) -0.14458(19)
H15 H 0.9434 0.9030 -0.1868
C25 C 0.9880(2) 0.71966(17) -0.17471(18)
H16 H 1.0878 0.7404 -0.2370
C26 C 0.92598(18) 0.59125(15) -0.11244(17)
H17 H 0.9846 0.5259 -0.1327
loop_
_geom_bond_atom_site_label_1
_geom_bond_atom_site_label_2
_geom_bond_site_symmetry_1
_geom_bond_site_symmetry_2
O1 C7 1_555 1_555
O2 C10 1_555 1_555
O3 C17 1_555 1_555
O4 C20 1_555 1_555
N1 C1 1_555 1_555
N2 C4 1_555 1_555
N3 C14 1_555 1_555
C1 C2 1_555 1_555
C2 H1 1_555 1_555
C3 C2 1_555 1_555
H2 C3 1_555 1_555
C4 C3 1_555 1_555
C5 C4 1_555 1_555
H3 C5 1_555 1_555
C6 C1 1_555 1_555
H4 C6 1_555 1_555
C7 N2 1_555 1_555
C8 C7 1_555 1_555
H5 C8 1_555 1_555
C9 C8 1_555 1_555
H6 C9 1_555 1_555
C10 N2 1_555 1_555
C11 N1 1_555 1_555
C12 C11 1_555 1_555
H7 C12 1_555 1_555
C13 C12 1_555 1_555
H8 C13 1_555 1_555
C14 C13 1_555 1_555
C15 C14 1_555 1_555
H9 C15 1_555 1_555
C16 C11 1_555 1_555
H10 C16 1_555 1_555
C17 N3 1_555 1_555
C18 C17 1_555 1_555
H11 C18 1_555 1_555
C19 C18 1_555 1_555
H12 C19 1_555 1_555
C20 N3 1_555 1_555
C21 N1 1_555 1_555
C22 C21 1_555 1_555
H13 C22 1_555 1_555
C23 C22 1_555 1_555
H14 C23 1_555 1_555
C24 C23 1_555 1_555
H15 C24 1_555 1_555
C25 C24 1_555 1_555
H16 C25 1_555 1_555
C26 C21 1_555 1_555
H17 C26 1_555 1_555
C5 C6 1_555 1_555
C9 C10 1_555 1_555
C15 C16 1_555 1_555
C19 C20 1_555 1_555
C25 C26 1_555 1_555

#END
