
#######################################################################
#
#                 Cambridge Crystallographic Data Centre
#                                CCDC 
#
#######################################################################
#
# If this CIF has been generated from an entry in the Cambridge 
# Structural Database, then it will include bibliographic, chemical, 
# crystal, experimental, refinement or atomic coordinate data resulting 
# from the CCDC's data processing and validation procedures.
#
#######################################################################

data_BIHWAR
_chemical_formula_moiety         'C20 H16 N6,4(H2 O1)'
_chemical_name_systematic        
'1,4-bis(1H-Benzotriazol-1-ylmethyl)benzene tetrahydrate'
_symmetry_cell_setting           monoclinic
_symmetry_space_group_name_H-M   'P 21/n'
_symmetry_Int_Tables_number      14
_space_group_name_Hall           '-P 2yn'
loop_
_symmetry_equiv_pos_site_id
_symmetry_equiv_pos_as_xyz
1 x,y,z
2 1/2+x,1/2-y,1/2+z
3 -x,-y,-z
4 1/2-x,1/2+y,1/2-z
_cell_length_a                   4.8087(17)
_cell_length_b                   12.043(4)
_cell_length_c                   18.481(6)
_cell_angle_alpha                90
_cell_angle_beta                 91.160(8)
_cell_angle_gamma                90
_cell_volume                     1070.04
_exptl_crystal_colour            colorless
_exptl_crystal_description       prism
_chemical_melting_point          '444-445 K'
_cell_formula_units_Z            2
_exptl_crystal_recrystallization_method acetone/ethanol
loop_
_atom_site_label
_atom_site_type_symbol
_atom_site_fract_x
_atom_site_fract_y
_atom_site_fract_z
O1 O 0.1978(6) 0.3778(2) 0.50601(15)
H1 H 0.217(9) 0.436(2) 0.4804(19)
H2 H 0.067(7) 0.391(3) 0.536(2)
O2 O 0.2088(6) 0.0750(3) 0.07344(14)
H3 H 0.033(3) 0.087(4) 0.070(2)
H4 H 0.251(8) 0.087(4) 0.1175(9)
N1 N 0.2336(5) 0.14415(18) 0.33501(12)
N2 N 0.1633(7) 0.0853(3) 0.27423(18)
N3 N 0.3022(6) 0.1165(2) 0.21710(14)
C1 C 0.4755(6) 0.2014(3) 0.24211(15)
C2 C 0.6654(7) 0.2657(3) 0.20446(18)
H5 H 0.6944 0.2545 0.1554
C3 C 0.8076(7) 0.3458(3) 0.2424(2)
H6 H 0.9364 0.3896 0.2187
C4 C 0.7640(7) 0.3630(3) 0.3149(2)
H7 H 0.8648 0.4183 0.3388
C5 C 0.5760(6) 0.3012(3) 0.35340(17)
H8 H 0.5467 0.3134 0.4023
C6 C 0.4338(6) 0.2200(2) 0.31489(14)
C7 C 0.1210(6) 0.1262(3) 0.40741(15)
H9 H -0.0543 0.0867 0.4029
H10 H 0.0846 0.1975 0.4297
C8 C 0.3181(6) 0.0607(2) 0.45562(14)
C9 C 0.3647(6) -0.0515(2) 0.44349(14)
H11 H 0.2734 -0.0870 0.4051
C10 C 0.4570(7) 0.1103(2) 0.51281(15)
H12 H 0.4288 0.1854 0.5219
C10B C 0.5430(7) -0.1103(2) 0.48719(15)
C8B C 0.6819(6) -0.0607(2) 0.54438(14)
C7B C 0.8790(6) -0.1262(3) 0.59259(15)
N1B N 0.7664(5) -0.14415(18) 0.66499(12)
N2B N 0.8367(7) -0.0853(3) 0.72577(18)
N3B N 0.6978(6) -0.1165(2) 0.78290(14)
C1B C 0.5245(6) -0.2014(3) 0.75789(15)
C2B C 0.3346(7) -0.2657(3) 0.79554(18)
H5B H 0.3056 -0.2545 0.8446
C3B C 0.1924(7) -0.3458(3) 0.7576(2)
H6B H 0.0636 -0.3896 0.7813
C4B C 0.2360(7) -0.3630(3) 0.6851(2)
H7B H 0.1352 -0.4183 0.6612
C5B C 0.4240(6) -0.3012(3) 0.64660(17)
H8B H 0.4533 -0.3134 0.5977
C6B C 0.5662(6) -0.2200(2) 0.68511(14)
H9B H 1.0543 -0.0867 0.5971
H10B H 0.9154 -0.1975 0.5703
C9B C 0.6353(6) 0.0515(2) 0.55651(14)
H11B H 0.7266 0.0870 0.5949
H12B H 0.5712 -0.1854 0.4781
loop_
_geom_bond_atom_site_label_1
_geom_bond_atom_site_label_2
_geom_bond_site_symmetry_1
_geom_bond_site_symmetry_2
O1 H1 1_555 1_555
H2 O1 1_555 1_555
O2 H3 1_555 1_555
H4 O2 1_555 1_555
N1 N2 1_555 1_555
N2 N3 1_555 1_555
N3 C1 1_555 1_555
C1 C2 1_555 1_555
C2 H5 1_555 1_555
C3 C2 1_555 1_555
H6 C3 1_555 1_555
C4 C3 1_555 1_555
H7 C4 1_555 1_555
C5 C4 1_555 1_555
H8 C5 1_555 1_555
C6 N1 1_555 1_555
C7 N1 1_555 1_555
H9 C7 1_555 1_555
H10 C7 1_555 1_555
C8 C7 1_555 1_555
C9 C8 1_555 1_555
H11 C9 1_555 1_555
C10 C8 1_555 1_555
H12 C10 1_555 1_555
C10B C9 1_555 1_555
C8B C10B 1_555 1_555
C7B C8B 1_555 1_555
N1B C7B 1_555 1_555
N2B N1B 1_555 1_555
N3B N2B 1_555 1_555
C1B N3B 1_555 1_555
C2B C1B 1_555 1_555
H5B C2B 1_555 1_555
C3B C2B 1_555 1_555
H6B C3B 1_555 1_555
C4B C3B 1_555 1_555
H7B C4B 1_555 1_555
C5B C4B 1_555 1_555
H8B C5B 1_555 1_555
C6B N1B 1_555 1_555
H9B C7B 1_555 1_555
H10B C7B 1_555 1_555
C9B C10 1_555 1_555
H11B C9B 1_555 1_555
H12B C10B 1_555 1_555
C1 C6 1_555 1_555
C5 C6 1_555 1_555
C8B C9B 1_555 1_555
C1B C6B 1_555 1_555
C5B C6B 1_555 1_555

#END
