
#######################################################################
#
#                 Cambridge Crystallographic Data Centre
#                                CCDC 
#
#######################################################################
#
# If this CIF has been generated from an entry in the Cambridge 
# Structural Database, then it will include bibliographic, chemical, 
# crystal, experimental, refinement or atomic coordinate data resulting 
# from the CCDC's data processing and validation procedures.
#
#######################################################################

data_BIHWEX
_chemical_formula_moiety         'C17 H23 N1 O3'
_chemical_name_systematic        
'8-methyl-8-azabicyclo[3.2.1]octan-3-yl 3-hydroxy-2-phenylpropanoate'
_symmetry_cell_setting           tetragonal
_symmetry_space_group_name_H-M   'P 43 21 2'
_symmetry_Int_Tables_number      96
_space_group_name_Hall           'P 4nw 2abw'
loop_
_symmetry_equiv_pos_site_id
_symmetry_equiv_pos_as_xyz
1 x,y,z
2 -x,-y,1/2+z
3 1/2-y,1/2+x,3/4+z
4 1/2+y,1/2-x,1/4+z
5 1/2-x,1/2+y,3/4-z
6 1/2+x,1/2-y,1/4-z
7 y,x,-z
8 -y,-x,1/2-z
_cell_length_a                   9.40160(10)
_cell_length_b                   9.40160(10)
_cell_length_c                   34.7460(10)
_cell_angle_alpha                90
_cell_angle_beta                 90
_cell_angle_gamma                90
_cell_volume                     3071.2
_exptl_crystal_colour            colorless
_exptl_crystal_description       prism
_cell_formula_units_Z            8
loop_
_atom_site_label
_atom_site_type_symbol
_atom_site_fract_x
_atom_site_fract_y
_atom_site_fract_z
C1 C 0.62971(16) 0.30628(17) 0.63729(4)
H1 H 0.658492 0.245733 0.614946
C2 C 0.46773(16) 0.31268(16) 0.63921(4)
H2 H 0.432286 0.226570 0.652508
H3 H 0.429225 0.311804 0.612688
C3 C 0.41189(16) 0.44417(17) 0.66013(4)
H4 H 0.305556 0.445999 0.659607
C4 C 0.46662(16) 0.45773(17) 0.70183(4)
H5 H 0.484986 0.362878 0.713156
H6 H 0.397013 0.508821 0.718135
C5 C 0.60607(17) 0.54360(18) 0.69795(4)
H7 H 0.688339 0.488296 0.707567
H8 H 0.600216 0.634345 0.712320
C6 C 0.61848(17) 0.57054(17) 0.65418(4)
H9 H 0.664007 0.664871 0.649173
C7 C 0.69865(16) 0.45297(17) 0.63321(4)
H10 H 0.796935 0.448385 0.643359
H11 H 0.704500 0.477458 0.605545
C8 C 0.3936(2) 0.70029(19) 0.64961(5)
H12 H 0.294333 0.692153 0.641255
H13 H 0.438221 0.781536 0.636716
H14 H 0.396788 0.714467 0.677536
C9 C 0.67997(16) 0.09975(16) 0.67459(4)
C10 C 0.72725(16) 0.04591(16) 0.71356(4)
H15 H 0.778654 0.125127 0.726799
C11 C 0.83191(17) -0.07721(17) 0.70860(4)
H16 H 0.853883 -0.118808 0.734087
H17 H 0.787717 -0.152210 0.692568
C12 C 0.60002(17) 0.00558(15) 0.73837(4)
C13 C 0.46503(17) -0.01942(17) 0.72344(4)
H18 H 0.449870 -0.012702 0.696470
C14 C 0.35217(18) -0.05406(19) 0.74744(5)
H19 H 0.260576 -0.070955 0.736842
C15 C 0.37284(19) -0.06404(18) 0.78679(5)
H20 H 0.295488 -0.086816 0.803266
C16 C 0.5068(2) -0.04065(17) 0.80197(5)
H21 H 0.521467 -0.048266 0.828940
C17 C 0.61966(19) -0.00616(16) 0.77809(4)
H22 H 0.711235 0.009626 0.788825
N1 N 0.47049(14) 0.56950(13) 0.63959(3)
O1 O 0.68431(11) 0.24240(11) 0.67286(3)
O2 O 0.64191(12) 0.02430(11) 0.64839(3)
O3 O 0.95990(12) -0.03044(13) 0.69091(3)
H23 H 0.957(3) -0.049(3) 0.6631(8)
loop_
_geom_bond_atom_site_label_1
_geom_bond_atom_site_label_2
_geom_bond_site_symmetry_1
_geom_bond_site_symmetry_2
C1 H1 1_555 1_555
C2 C1 1_555 1_555
H2 C2 1_555 1_555
H3 C2 1_555 1_555
C3 C2 1_555 1_555
H4 C3 1_555 1_555
C4 C3 1_555 1_555
H5 C4 1_555 1_555
H6 C4 1_555 1_555
C5 C4 1_555 1_555
H7 C5 1_555 1_555
H8 C5 1_555 1_555
C6 C5 1_555 1_555
H9 C6 1_555 1_555
C7 C1 1_555 1_555
H10 C7 1_555 1_555
H11 C7 1_555 1_555
C8 H12 1_555 1_555
H13 C8 1_555 1_555
H14 C8 1_555 1_555
C9 C10 1_555 1_555
C10 H15 1_555 1_555
C11 C10 1_555 1_555
H16 C11 1_555 1_555
H17 C11 1_555 1_555
C12 C10 1_555 1_555
C13 C12 1_555 1_555
H18 C13 1_555 1_555
C14 C13 1_555 1_555
H19 C14 1_555 1_555
C15 C14 1_555 1_555
H20 C15 1_555 1_555
C16 C15 1_555 1_555
H21 C16 1_555 1_555
C17 C12 1_555 1_555
H22 C17 1_555 1_555
N1 C3 1_555 1_555
O1 C1 1_555 1_555
O2 C9 1_555 1_555
O3 C11 1_555 1_555
H23 O3 1_555 1_555
C6 C7 1_555 1_555
C6 N1 1_555 1_555
C8 N1 1_555 1_555
C9 O1 1_555 1_555
C16 C17 1_555 1_555

#END
