
#######################################################################
#
#                 Cambridge Crystallographic Data Centre
#                                CCDC 
#
#######################################################################
#
# If this CIF has been generated from an entry in the Cambridge 
# Structural Database, then it will include bibliographic, chemical, 
# crystal, experimental, refinement or atomic coordinate data resulting 
# from the CCDC's data processing and validation procedures.
#
#######################################################################

data_BIHWAT
_chemical_formula_moiety         'C18 H25 N1 O3'
_chemical_name_systematic        
'9-methyl-9-azabicyclo[3.3.1]nonan-3-yl 3-hydroxy-2-phenylpropanoate'
_symmetry_cell_setting           triclinic
_symmetry_space_group_name_H-M   'P -1'
_symmetry_Int_Tables_number      2
_space_group_name_Hall           '-P 1'
loop_
_symmetry_equiv_pos_site_id
_symmetry_equiv_pos_as_xyz
1 x,y,z
2 -x,-y,-z
_cell_length_a                   8.145(2)
_cell_length_b                   10.350(3)
_cell_length_c                   10.824(3)
_cell_angle_alpha                100.403(8)
_cell_angle_beta                 105.477(7)
_cell_angle_gamma                108.860(9)
_cell_volume                     795.755
_exptl_crystal_colour            colorless
_exptl_crystal_description       plate
_cell_formula_units_Z            2
loop_
_atom_site_label
_atom_site_type_symbol
_atom_site_fract_x
_atom_site_fract_y
_atom_site_fract_z
C1 C 0.3515(2) 0.68624(16) 0.00001(14)
H1 H 0.321220 0.581633 -0.032351
C2 C 0.1992(2) 0.71093(18) 0.04339(15)
H2 H 0.241976 0.813233 0.091630
H3 H 0.172651 0.655106 0.106068
C3 C 0.0192(2) 0.66673(18) -0.07797(16)
H4 H -0.082423 0.590958 -0.065222
C4 C -0.0379(3) 0.7926(2) -0.08898(19)
H5 H -0.160534 0.757911 -0.160462
H6 H -0.049390 0.834243 -0.003411
C5 C 0.1028(3) 0.9079(2) -0.1207(2)
H7 H 0.051989 0.979469 -0.141679
H8 H 0.217304 0.957210 -0.040873
C6 C 0.1498(3) 0.84568(19) -0.23873(18)
H9 H 0.256835 0.919941 -0.245748
H10 H 0.043199 0.817083 -0.322492
C7 C 0.1966(2) 0.71527(17) -0.22404(15)
H11 H 0.209408 0.672146 -0.309579
C8 C 0.3817(2) 0.75617(17) -0.10857(15)
H12 H 0.467127 0.725883 -0.144992
H13 H 0.440142 0.861187 -0.069020
C9 C 0.5664(2) 0.67676(16) 0.19283(15)
C10 C 0.7440(2) 0.76449(16) 0.31219(14)
H14 H 0.814050 0.852159 0.291992
C11 C 0.6973(2) 0.80957(17) 0.43555(14)
C12 C 0.7615(2) 0.95384(18) 0.50339(16)
H15 H 0.832268 1.023247 0.470979
C13 C 0.7236(3) 0.99764(19) 0.61776(18)
H16 H 0.769007 1.096412 0.663616
C14 C 0.6193(2) 0.89709(19) 0.66481(17)
H17 H 0.591966 0.926714 0.742518
C15 C 0.5549(2) 0.75288(18) 0.59826(16)
H18 H 0.484202 0.683904 0.631084
C16 C 0.5930(2) 0.70888(17) 0.48430(15)
H19 H 0.548081 0.609973 0.439159
C17 C -0.1236(2) 0.53794(18) -0.31856(16)
H20 H -0.169792 0.610836 -0.339164
H21 H -0.216584 0.465167 -0.299004
H22 H -0.099050 0.493222 -0.395702
C18 C 0.8619(2) 0.67667(17) 0.33220(15)
H23 H 0.972855 0.728404 0.414297
H24 H 0.789908 0.584116 0.342067
N1 N 0.04834(17) 0.60475(14) -0.20142(12)
O1 O 0.52535(15) 0.75564(12) 0.11390(10)
O2 O 0.47301(16) 0.55261(12) 0.17428(11)
O3 O 0.91540(16) 0.65367(13) 0.21855(11)
H25 H 0.916(3) 0.564(3) 0.204(2)
loop_
_geom_bond_atom_site_label_1
_geom_bond_atom_site_label_2
_geom_bond_site_symmetry_1
_geom_bond_site_symmetry_2
C1 H1 1_555 1_555
C2 C1 1_555 1_555
H2 C2 1_555 1_555
H3 C2 1_555 1_555
C3 C2 1_555 1_555
H4 C3 1_555 1_555
C4 C3 1_555 1_555
H5 C4 1_555 1_555
H6 C4 1_555 1_555
C5 C4 1_555 1_555
H7 C5 1_555 1_555
H8 C5 1_555 1_555
C6 C5 1_555 1_555
H9 C6 1_555 1_555
H10 C6 1_555 1_555
C7 C6 1_555 1_555
H11 C7 1_555 1_555
C8 C1 1_555 1_555
H12 C8 1_555 1_555
H13 C8 1_555 1_555
C9 C10 1_555 1_555
C10 H14 1_555 1_555
C11 C10 1_555 1_555
C12 C11 1_555 1_555
H15 C12 1_555 1_555
C13 C12 1_555 1_555
H16 C13 1_555 1_555
C14 C13 1_555 1_555
H17 C14 1_555 1_555
C15 C14 1_555 1_555
H18 C15 1_555 1_555
C16 C11 1_555 1_555
H19 C16 1_555 1_555
C17 H20 1_555 1_555
H21 C17 1_555 1_555
H22 C17 1_555 1_555
C18 C10 1_555 1_555
H23 C18 1_555 1_555
H24 C18 1_555 1_555
N1 C3 1_555 1_555
O1 C1 1_555 1_555
O2 C9 1_555 1_555
O3 C18 1_555 1_555
H25 O3 1_555 1_555
C7 C8 1_555 1_555
C7 N1 1_555 1_555
C9 O1 1_555 1_555
C15 C16 1_555 1_555
C17 N1 1_555 1_555

#END
