
#######################################################################
#
#                 Cambridge Crystallographic Data Centre
#                                CCDC 
#
#######################################################################
#
# If this CIF has been generated from an entry in the Cambridge 
# Structural Database, then it will include bibliographic, chemical, 
# crystal, experimental, refinement or atomic coordinate data resulting 
# from the CCDC's data processing and validation procedures.
#
#######################################################################

data_BIHWUL
_chemical_formula_moiety         'C18 H15 N3 O6'
_chemical_name_systematic        
'Methyl 2-((3-(4-nitrophenyl)-1,2,4-oxadiazol-5-yl)methoxy)phenylacetate'
_symmetry_cell_setting           monoclinic
_symmetry_space_group_name_H-M   'P 21/c'
_symmetry_Int_Tables_number      14
_space_group_name_Hall           '-P 2ybc'
loop_
_symmetry_equiv_pos_site_id
_symmetry_equiv_pos_as_xyz
1 x,y,z
2 x,1/2-y,1/2+z
3 -x,-y,-z
4 -x,1/2+y,1/2-z
_cell_length_a                   10.436(2)
_cell_length_b                   5.1800(10)
_cell_length_c                   31.560(6)
_cell_angle_alpha                90
_cell_angle_beta                 92.94(3)
_cell_angle_gamma                90
_cell_volume                     1703.84
_exptl_crystal_colour            colorless
_exptl_crystal_description       block
_cell_formula_units_Z            4
_exptl_crystal_recrystallization_method ethanol
loop_
_atom_site_label
_atom_site_type_symbol
_atom_site_fract_x
_atom_site_fract_y
_atom_site_fract_z
O1 O 0.84628(19) 0.6125(4) 0.12967(7)
O2 O 0.70557(19) 0.8610(5) 0.07352(7)
N1 N 0.8581(2) 1.1119(5) 0.05118(8)
C1 C 0.7260(3) 1.3605(6) -0.00326(9)
C2 C 0.9133(3) 0.4403(6) 0.15609(9)
C3 C 0.7424(3) 1.1664(6) 0.03026(9)
C4 C 0.8292(3) 0.9271(6) 0.07650(9)
N2 N 0.6477(2) 1.0247(6) 0.04221(9)
O3 O 0.5025(2) 0.4918(5) 0.18144(8)
C5 C 0.6151(3) 1.3727(6) -0.02973(10)
H1 H 0.5486 1.2568 -0.0260
N3 N 0.6892(3) 1.9260(6) -0.09934(9)
O4 O 0.7809(3) 2.0676(5) -0.10452(8)
C6 C 0.7028(3) 1.7253(6) -0.06630(9)
C7 C 1.0454(3) 0.4380(6) 0.16205(10)
H2 H 1.0954 0.5559 0.1480
C8 C 0.6036(3) 1.5550(6) -0.06136(10)
H3 H 0.5299 1.5631 -0.0791
C9 C 0.8140(3) 1.7139(7) -0.04129(11)
H4 H 0.8813 1.8268 -0.0458
C10 C 0.6261(3) 0.4767(6) 0.19407(11)
C11 C 0.9195(3) 0.7808(6) 0.10547(9)
H5 H 0.9792 0.6831 0.0892
H6 H 0.9681 0.8987 0.1240
C12 C 0.8243(3) 1.5324(6) -0.00947(10)
H7 H 0.8985 1.5255 0.0081
O5 O 0.5850(3) 1.9493(6) -0.11819(9)
C13 C 0.8363(3) 0.2648(6) 0.17690(9)
O6 O 0.6738(2) 0.6052(5) 0.22190(8)
C14 C 1.0286(4) 0.0824(7) 0.21026(11)
H8 H 1.0673 -0.0377 0.2287
C15 C 0.6928(3) 0.2712(7) 0.16946(11)
H9 H 0.6586 0.1041 0.1769
H10 H 0.6728 0.2982 0.1394
C16 C 0.8969(4) 0.0875(6) 0.20358(9)
H11 H 0.8477 -0.0322 0.2175
C17 C 1.1021(3) 0.2563(6) 0.18936(10)
H12 H 1.1909 0.2522 0.1936
C18 C 0.4246(4) 0.6683(9) 0.20420(13)
H13 H 0.3379 0.6621 0.1925
H14 H 0.4575 0.8403 0.2016
H15 H 0.4264 0.6201 0.2336
loop_
_geom_bond_atom_site_label_1
_geom_bond_atom_site_label_2
_geom_bond_site_symmetry_1
_geom_bond_site_symmetry_2
O1 C2 1_555 1_555
O2 C4 1_555 1_555
N1 C3 1_555 1_555
C1 C3 1_555 1_555
C2 C7 1_555 1_555
C3 N2 1_555 1_555
C4 N1 1_555 1_555
N2 O2 1_555 1_555
O3 C10 1_555 1_555
C5 C1 1_555 1_555
H1 C5 1_555 1_555
N3 O4 1_555 1_555
C6 N3 1_555 1_555
C7 H2 1_555 1_555
C8 C5 1_555 1_555
H3 C8 1_555 1_555
C9 C6 1_555 1_555
H4 C9 1_555 1_555
C10 O6 1_555 1_555
C11 O1 1_555 1_555
H5 C11 1_555 1_555
H6 C11 1_555 1_555
C12 C1 1_555 1_555
H7 C12 1_555 1_555
O5 N3 1_555 1_555
C13 C2 1_555 1_555
C14 H8 1_555 1_555
C15 C10 1_555 1_555
H9 C15 1_555 1_555
H10 C15 1_555 1_555
C16 C13 1_555 1_555
H11 C16 1_555 1_555
C17 C7 1_555 1_555
H12 C17 1_555 1_555
C18 O3 1_555 1_555
H13 C18 1_555 1_555
H14 C18 1_555 1_555
H15 C18 1_555 1_555
C4 C11 1_555 1_555
C6 C8 1_555 1_555
C9 C12 1_555 1_555
C13 C15 1_555 1_555
C14 C17 1_555 1_555
C14 C16 1_555 1_555

#END
