
#######################################################################
#
#                 Cambridge Crystallographic Data Centre
#                                CCDC 
#
#######################################################################
#
# If this CIF has been generated from an entry in the Cambridge 
# Structural Database, then it will include bibliographic, chemical, 
# crystal, experimental, refinement or atomic coordinate data resulting 
# from the CCDC's data processing and validation procedures.
#
#######################################################################

data_BIHZUO
_chemical_formula_moiety         'C25 H30 O5 S2'
_chemical_name_systematic        
'6-Deoxy-1,2:3,4-di-O-isopropylidene-\a-D-galacto-heptodialdo-1,5-pyranose diphenyl dithioacetal'
_symmetry_cell_setting           orthorhombic
_symmetry_space_group_name_H-M   'P 21 21 21'
_symmetry_Int_Tables_number      19
_space_group_name_Hall           'P 2ac 2ab'
loop_
_symmetry_equiv_pos_site_id
_symmetry_equiv_pos_as_xyz
1 x,y,z
2 1/2-x,-y,1/2+z
3 -x,1/2+y,1/2-z
4 1/2+x,1/2-y,-z
_cell_length_a                   9.0880(4)
_cell_length_b                   10.2194(5)
_cell_length_c                   26.5100(13)
_cell_angle_alpha                90
_cell_angle_beta                 90
_cell_angle_gamma                90
_cell_volume                     2462.09
_exptl_crystal_colour            colorless
_exptl_crystal_description       block
_cell_formula_units_Z            4
_exptl_crystal_recrystallization_method methanol
loop_
_atom_site_label
_atom_site_type_symbol
_atom_site_fract_x
_atom_site_fract_y
_atom_site_fract_z
C1 C 0.2855(2) 0.0913(2) 0.90422(8)
C2 C 0.3619(2) 0.1739(2) 0.94474(8)
C3 C 0.3155(2) 0.3162(2) 0.94497(9)
C4 C 0.1481(2) 0.3371(2) 0.93886(8)
C5 C 0.0691(2) 0.2135(2) 0.92124(8)
C6 C -0.0801(2) 0.2428(2) 0.89773(9)
C7 C -0.1529(2) 0.1220(2) 0.87451(8)
C8 C 0.2935(3) -0.0212(2) 0.98137(8)
C9 C 0.1698(3) -0.0708(3) 1.01396(11)
H1 H 0.0787 -0.0250 1.0051
H2 H 0.1932 -0.0547 1.0495
H3 H 0.1571 -0.1650 1.0085
C10 C 0.4364(3) -0.0950(2) 0.98963(9)
H4 H 0.4686 -0.0836 1.0246
H5 H 0.5120 -0.0608 0.9668
H6 H 0.4209 -0.1882 0.9828
C11 C 0.2817(3) 0.4792(2) 0.88708(9)
C12 C 0.2881(3) 0.4923(3) 0.83038(10)
H7 H 0.2233 0.5637 0.8196
H8 H 0.2557 0.4103 0.8148
H9 H 0.3893 0.5114 0.8200
C13 C 0.3182(3) 0.6051(2) 0.91528(10)
H10 H 0.3118 0.5895 0.9517
H11 H 0.2480 0.6735 0.9057
H12 H 0.4182 0.6331 0.9066
C14 C -0.2175(3) -0.1405(2) 0.89023(8)
C15 C -0.0970(3) -0.2232(3) 0.89085(10)
C16 C -0.1023(3) -0.3406(3) 0.86469(11)
C17 C -0.2251(4) -0.3737(3) 0.83709(11)
C18 C -0.3448(3) -0.2901(3) 0.83609(12)
C19 C -0.3426(3) -0.1743(3) 0.86321(10)
C20 C -0.2557(3) 0.2568(2) 0.78830(9)
C21 C -0.3627(3) 0.3295(3) 0.76297(11)
H13 H -0.452(4) 0.325(4) 0.7744(13)
C22 C -0.3231(4) 0.4058(4) 0.72231(13)
H14 H -0.393(4) 0.458(4) 0.7080(16)
C23 C -0.1784(4) 0.4126(4) 0.70638(13)
H15 H -0.156(5) 0.466(4) 0.6792(15)
C24 C -0.0713(3) 0.3412(3) 0.73113(10)
H16 H 0.027(4) 0.345(4) 0.7183(13)
C25 C -0.1101(3) 0.2621(3) 0.77187(9)
H17 H -0.035(4) 0.209(3) 0.7876(12)
H18 H 0.344(4) 0.072(3) 0.8784(12)
H19 H 0.468(3) 0.164(3) 0.9422(12)
H20 H 0.351(3) 0.354(3) 0.9757(12)
H21 H 0.105(3) 0.370(3) 0.9693(12)
H22 H 0.062(3) 0.159(3) 0.9477(12)
H23 H -0.084(3) 0.074(3) 0.8543(11)
H24 H -0.015(4) -0.201(3) 0.9084(12)
H25 H -0.025(4) -0.398(3) 0.8649(11)
H26 H -0.227(4) -0.443(3) 0.8178(11)
H27 H -0.422(4) -0.309(3) 0.8179(12)
H28 H -0.425(4) -0.119(3) 0.8636(11)
H29 H -0.065(3) 0.302(3) 0.8692(12)
H30 H -0.141(3) 0.283(3) 0.9224(12)
O1 O 0.15783(17) 0.14869(15) 0.88402(6)
O2 O 0.25195(18) -0.02785(15) 0.92904(6)
O3 O 0.31337(19) 0.11639(15) 0.99096(6)
O4 O 0.37766(19) 0.37605(16) 0.90170(7)
O5 O 0.13749(18) 0.43632(16) 0.90108(7)
S1 S -0.31891(6) 0.16211(6) 0.83969(2)
S2 S -0.20971(6) 0.00966(6) 0.92426(2)
loop_
_geom_bond_atom_site_label_1
_geom_bond_atom_site_label_2
_geom_bond_site_symmetry_1
_geom_bond_site_symmetry_2
C1 C2 1_555 1_555
C2 C3 1_555 1_555
C3 C4 1_555 1_555
C4 C5 1_555 1_555
C5 C6 1_555 1_555
C6 C7 1_555 1_555
C7 H23 1_555 1_555
C8 C9 1_555 1_555
C9 H1 1_555 1_555
H2 C9 1_555 1_555
H3 C9 1_555 1_555
C10 C8 1_555 1_555
H4 C10 1_555 1_555
H5 C10 1_555 1_555
H6 C10 1_555 1_555
C11 C12 1_555 1_555
C12 H7 1_555 1_555
H8 C12 1_555 1_555
H9 C12 1_555 1_555
C13 C11 1_555 1_555
H10 C13 1_555 1_555
H11 C13 1_555 1_555
H12 C13 1_555 1_555
C14 C15 1_555 1_555
C15 C16 1_555 1_555
C16 C17 1_555 1_555
C17 C18 1_555 1_555
C18 C19 1_555 1_555
C19 C14 1_555 1_555
C20 C21 1_555 1_555
C21 H13 1_555 1_555
C22 C21 1_555 1_555
H14 C22 1_555 1_555
C23 C22 1_555 1_555
H15 C23 1_555 1_555
C24 C23 1_555 1_555
H16 C24 1_555 1_555
C25 C20 1_555 1_555
H17 C25 1_555 1_555
H18 C1 1_555 1_555
H19 C2 1_555 1_555
H20 C3 1_555 1_555
H21 C4 1_555 1_555
H22 C5 1_555 1_555
H24 C15 1_555 1_555
H25 C16 1_555 1_555
H26 C17 1_555 1_555
H27 C18 1_555 1_555
H28 C19 1_555 1_555
H29 C6 1_555 1_555
H30 C6 1_555 1_555
O1 C1 1_555 1_555
O2 C1 1_555 1_555
O3 C2 1_555 1_555
O4 C3 1_555 1_555
O5 C4 1_555 1_555
S1 C7 1_555 1_555
S2 C7 1_555 1_555
C5 O1 1_555 1_555
C8 O2 1_555 1_555
C8 O3 1_555 1_555
C11 O5 1_555 1_555
C11 O4 1_555 1_555
C14 S2 1_555 1_555
C20 S1 1_555 1_555
C24 C25 1_555 1_555

#END
