
#######################################################################
#
#                 Cambridge Crystallographic Data Centre
#                                CCDC 
#
#######################################################################
#
# If this CIF has been generated from an entry in the Cambridge 
# Structural Database, then it will include bibliographic, chemical, 
# crystal, experimental, refinement or atomic coordinate data resulting 
# from the CCDC's data processing and validation procedures.
#
#######################################################################

data_BIJBIH
_chemical_formula_moiety         'C33 H28 Br1 N3 O4'
_chemical_name_systematic        
'Methyl 4-(1-(4-bromophenyl)-6,6-dimethyl-4-oxo-2-phenyl-4,5,6,7-tetrahydro-1H-indol-7-yl)-5-hydroxy-1-phenyl-1H-pyrazole-3-carboxylate'
_symmetry_cell_setting           triclinic
_symmetry_space_group_name_H-M   'P -1'
_symmetry_Int_Tables_number      2
_space_group_name_Hall           '-P 1'
loop_
_symmetry_equiv_pos_site_id
_symmetry_equiv_pos_as_xyz
1 x,y,z
2 -x,-y,-z
_cell_length_a                   9.1630(10)
_cell_length_b                   12.8841(14)
_cell_length_c                   25.570(2)
_cell_angle_alpha                100.533(2)
_cell_angle_beta                 97.6530(10)
_cell_angle_gamma                94.3680(10)
_cell_volume                     2925.73
_exptl_crystal_colour            'pale red'
_exptl_crystal_description       block
_cell_formula_units_Z            4
loop_
_atom_site_label
_atom_site_type_symbol
_atom_site_fract_x
_atom_site_fract_y
_atom_site_fract_z
Br1 Br -0.10251(6) 0.61263(4) 0.37096(2)
N1 N 0.1813(3) 0.2364(2) 0.26167(12)
N2 N 0.0181(3) 0.1311(2) 0.41585(12)
N3 N 0.0529(4) 0.2301(2) 0.44682(12)
O1 O 0.4191(3) -0.0634(2) 0.24915(10)
O2 O 0.1029(3) 0.01616(17) 0.34467(9)
H1 H 0.0537 0.0181 0.3157
O3 O 0.1575(3) 0.4299(2) 0.48623(11)
O4 O 0.3516(3) 0.4177(2) 0.44241(11)
C1 C 0.1499(5) 0.1796(3) 0.20833(16)
C2 C 0.2270(4) 0.0932(3) 0.20603(15)
H2 H 0.2277 0.0416 0.1755
C3 C 0.3059(4) 0.0946(3) 0.25756(16)
C4 C 0.3969(4) 0.0211(3) 0.27772(16)
C5 C 0.4570(4) 0.0482(3) 0.33715(14)
H3 H 0.5523 0.0206 0.3424
H4 H 0.3911 0.0113 0.3560
C6 C 0.4770(4) 0.1665(3) 0.36376(15)
C7 C 0.3314(4) 0.2187(3) 0.35068(14)
H5 H 0.3592 0.2955 0.3575
C8 C 0.2758(4) 0.1856(3) 0.29145(15)
C9 C 0.1117(5) 0.3268(3) 0.28475(14)
C10 C 0.1945(4) 0.4224(3) 0.30376(15)
H6 H 0.2933 0.4305 0.2991
C11 C 0.1304(5) 0.5075(3) 0.33007(15)
H7 H 0.1871 0.5719 0.3446
C12 C -0.0166(5) 0.4955(3) 0.33436(15)
C13 C -0.1017(5) 0.4011(3) 0.31295(16)
H8 H -0.2025 0.3948 0.3151
C14 C -0.0369(5) 0.3155(3) 0.28820(14)
H9 H -0.0933 0.2510 0.2740
C15 C 0.0561(5) 0.2148(4) 0.16528(16)
C16 C -0.0412(5) 0.1405(4) 0.12882(18)
H10 H -0.0515 0.0707 0.1338
C17 C -0.1246(5) 0.1680(5) 0.08460(19)
H11 H -0.1883 0.1168 0.0599
C18 C -0.1116(6) 0.2705(5) 0.0779(2)
H12 H -0.1671 0.2896 0.0486
C19 C -0.0172(6) 0.3454(4) 0.1141(2)
H13 H -0.0097 0.4154 0.1093
C20 C 0.0677(5) 0.3187(4) 0.15806(17)
H14 H 0.1318 0.3703 0.1824
C21 C 0.6012(4) 0.2246(3) 0.34243(14)
H15 H 0.6143 0.2980 0.3598
H16 H 0.5757 0.2191 0.3043
H17 H 0.6915 0.1932 0.3498
C22 C 0.5197(4) 0.1766(3) 0.42453(13)
H18 H 0.6126 0.1484 0.4318
H19 H 0.4446 0.1378 0.4382
H20 H 0.5286 0.2501 0.4417
C23 C 0.1114(4) 0.1117(3) 0.37791(15)
C24 C 0.2096(4) 0.2008(3) 0.38377(14)
C25 C 0.1680(5) 0.2707(3) 0.42733(15)
C26 C 0.2374(5) 0.3804(3) 0.45209(17)
C27 C 0.2149(5) 0.5369(3) 0.51341(16)
H21 H 0.3141 0.5367 0.5310
H22 H 0.1535 0.5625 0.5396
H23 H 0.2150 0.5824 0.4876
C28 C -0.0894(4) 0.0596(3) 0.43138(16)
C29 C -0.1603(5) -0.0282(3) 0.39564(15)
H24 H -0.1423 -0.0415 0.3602
C30 C -0.2585(5) -0.0965(3) 0.41299(17)
H25 H -0.3055 -0.1565 0.3890
C31 C -0.2880(5) -0.0775(3) 0.46490(18)
H26 H -0.3536 -0.1244 0.4762
C32 C -0.2191(5) 0.0118(3) 0.49982(17)
H27 H -0.2401 0.0261 0.5348
C33 C -0.1184(4) 0.0810(3) 0.48370(16)
H28 H -0.0712 0.1409 0.5078
Br2 Br 0.17877(6) 0.42279(4) -0.01459(2)
N4 N 0.5662(4) 0.8020(3) 0.12700(12)
N5 N 0.5255(3) 0.6567(3) 0.28617(13)
N6 N 0.5212(4) 0.5527(2) 0.26227(13)
O5 O 0.9182(3) 1.0099(2) 0.25489(10)
O6 O 0.6284(3) 0.82660(18) 0.28194(8)
H29 H 0.5596 0.8570 0.2702
O7 O 0.5585(4) 0.3722(2) 0.20170(13)
O8 O 0.6545(4) 0.4522(2) 0.14163(11)
C34 C 0.5500(5) 0.9093(3) 0.12518(16)
C35 C 0.6619(5) 0.9686(3) 0.16097(15)
H30 H 0.6776 1.0423 0.1684
C36 C 0.7507(4) 0.8997(3) 0.18523(15)
C37 C 0.8732(5) 0.9198(3) 0.22873(16)
C38 C 0.9432(4) 0.8238(3) 0.24235(13)
H31 H 0.9090 0.8084 0.2747
H32 H 1.0494 0.8423 0.2508
C39 C 0.9132(4) 0.7213(3) 0.19884(15)
C40 C 0.7424(4) 0.6972(3) 0.17847(14)
H33 H 0.7276 0.6417 0.1459
C41 C 0.6872(4) 0.7968(3) 0.16342(15)
C42 C 0.4756(5) 0.7115(3) 0.09391(17)
C43 C 0.3874(5) 0.6463(3) 0.11628(16)
H34 H 0.3859 0.6604 0.1532
C44 C 0.3001(5) 0.5592(3) 0.08390(19)
H35 H 0.2415 0.5143 0.0991
C45 C 0.3011(5) 0.5399(4) 0.0290(2)
C46 C 0.3876(5) 0.6040(4) 0.00671(17)
H36 H 0.3880 0.5901 -0.0303
C47 C 0.4755(4) 0.6903(3) 0.03888(16)
H37 H 0.5348 0.7343 0.0234
C48 C 0.4270(5) 0.9452(3) 0.09257(16)
C49 C 0.4542(5) 1.0361(4) 0.07238(17)
H38 H 0.5504 1.0685 0.0764
C50 C 0.3375(7) 1.0792(4) 0.04604(19)
H39 H 0.3571 1.1399 0.0322
C51 C 0.1974(6) 1.0350(4) 0.04023(19)
H40 H 0.1204 1.0662 0.0237
C52 C 0.1684(5) 0.9430(4) 0.05898(17)
H41 H 0.0722 0.9102 0.0537
C53 C 0.2827(5) 0.8994(3) 0.08569(16)
H42 H 0.2620 0.8385 0.0992
C54 C 0.9941(4) 0.7363(3) 0.15088(14)
H43 H 1.0984 0.7521 0.1632
H44 H 0.9573 0.7939 0.1357
H45 H 0.9766 0.6724 0.1240
C55 C 0.9723(4) 0.6292(3) 0.22224(14)
H46 H 1.0774 0.6435 0.2330
H47 H 0.9508 0.5650 0.1955
H48 H 0.9257 0.6210 0.2529
C56 C 0.6026(4) 0.7221(3) 0.26124(15)
C57 C 0.6533(4) 0.6599(3) 0.21899(14)
C58 C 0.5986(4) 0.5557(3) 0.22116(15)
C59 C 0.6079(5) 0.4563(4) 0.18324(19)
C60 C 0.5581(6) 0.2704(3) 0.16688(19)
H49 H 0.4984 0.2694 0.1329
H50 H 0.5181 0.2155 0.1833
H51 H 0.6576 0.2588 0.1613
C61 C 0.4589(5) 0.6845(3) 0.33375(17)
C62 C 0.4963(4) 0.6381(3) 0.37730(17)
H52 H 0.5628 0.5870 0.3756
C63 C 0.4349(5) 0.6677(3) 0.42346(16)
H53 H 0.4600 0.6365 0.4530
C64 C 0.3366(5) 0.7431(3) 0.42581(17)
H54 H 0.2970 0.7639 0.4573
C65 C 0.2963(5) 0.7884(3) 0.38179(18)
H55 H 0.2274 0.8378 0.3833
C66 C 0.3584(4) 0.7602(3) 0.33528(15)
H56 H 0.3333 0.7914 0.3057
loop_
_geom_bond_atom_site_label_1
_geom_bond_atom_site_label_2
_geom_bond_site_symmetry_1
_geom_bond_site_symmetry_2
Br1 C12 1_555 1_555
N1 C1 1_555 1_555
N2 N3 1_555 1_555
N3 C25 1_555 1_555
O1 C4 1_555 1_555
O2 H1 1_555 1_555
O3 C26 1_555 1_555
O4 C26 1_555 1_555
C1 C2 1_555 1_555
C2 H2 1_555 1_555
C3 C2 1_555 1_555
C4 C3 1_555 1_555
C5 C4 1_555 1_555
H3 C5 1_555 1_555
H4 C5 1_555 1_555
C6 C5 1_555 1_555
C7 C6 1_555 1_555
H5 C7 1_555 1_555
C8 N1 1_555 1_555
C9 N1 1_555 1_555
C10 C9 1_555 1_555
H6 C10 1_555 1_555
C11 C10 1_555 1_555
H7 C11 1_555 1_555
C12 C11 1_555 1_555
C13 C12 1_555 1_555
H8 C13 1_555 1_555
C14 C9 1_555 1_555
H9 C14 1_555 1_555
C15 C1 1_555 1_555
C16 C15 1_555 1_555
H10 C16 1_555 1_555
C17 C16 1_555 1_555
H11 C17 1_555 1_555
C18 C17 1_555 1_555
H12 C18 1_555 1_555
C19 C18 1_555 1_555
H13 C19 1_555 1_555
C20 C15 1_555 1_555
H14 C20 1_555 1_555
C21 C6 1_555 1_555
H15 C21 1_555 1_555
H16 C21 1_555 1_555
H17 C21 1_555 1_555
C22 C6 1_555 1_555
H18 C22 1_555 1_555
H19 C22 1_555 1_555
H20 C22 1_555 1_555
C23 N2 1_555 1_555
C24 C7 1_555 1_555
C25 C24 1_555 1_555
C26 C25 1_555 1_555
C27 O3 1_555 1_555
H21 C27 1_555 1_555
H22 C27 1_555 1_555
H23 C27 1_555 1_555
C28 N2 1_555 1_555
C29 C28 1_555 1_555
H24 C29 1_555 1_555
C30 C29 1_555 1_555
H25 C30 1_555 1_555
C31 C30 1_555 1_555
H26 C31 1_555 1_555
C32 C31 1_555 1_555
H27 C32 1_555 1_555
C33 C28 1_555 1_555
H28 C33 1_555 1_555
Br2 C45 1_555 1_555
N4 C34 1_555 1_555
N5 N6 1_555 1_555
N6 C58 1_555 1_555
O5 C37 1_555 1_555
O6 H29 1_555 1_555
O7 C59 1_555 1_555
O8 C59 1_555 1_555
C34 C35 1_555 1_555
C35 H30 1_555 1_555
C36 C35 1_555 1_555
C37 C36 1_555 1_555
C38 C37 1_555 1_555
H31 C38 1_555 1_555
H32 C38 1_555 1_555
C39 C38 1_555 1_555
C40 C39 1_555 1_555
H33 C40 1_555 1_555
C41 N4 1_555 1_555
C42 N4 1_555 1_555
C43 C42 1_555 1_555
H34 C43 1_555 1_555
C44 C43 1_555 1_555
H35 C44 1_555 1_555
C45 C44 1_555 1_555
C46 C45 1_555 1_555
H36 C46 1_555 1_555
C47 C42 1_555 1_555
H37 C47 1_555 1_555
C48 C34 1_555 1_555
C49 C48 1_555 1_555
H38 C49 1_555 1_555
C50 C49 1_555 1_555
H39 C50 1_555 1_555
C51 C50 1_555 1_555
H40 C51 1_555 1_555
C52 C51 1_555 1_555
H41 C52 1_555 1_555
C53 C48 1_555 1_555
H42 C53 1_555 1_555
C54 C39 1_555 1_555
H43 C54 1_555 1_555
H44 C54 1_555 1_555
H45 C54 1_555 1_555
C55 C39 1_555 1_555
H46 C55 1_555 1_555
H47 C55 1_555 1_555
H48 C55 1_555 1_555
C56 N5 1_555 1_555
C57 C40 1_555 1_555
C58 C57 1_555 1_555
C59 C58 1_555 1_555
C60 O7 1_555 1_555
H49 C60 1_555 1_555
H50 C60 1_555 1_555
H51 C60 1_555 1_555
C61 N5 1_555 1_555
C62 C61 1_555 1_555
H52 C62 1_555 1_555
C63 C62 1_555 1_555
H53 C63 1_555 1_555
C64 C63 1_555 1_555
H54 C64 1_555 1_555
C65 C64 1_555 1_555
H55 C65 1_555 1_555
C66 C61 1_555 1_555
H56 C66 1_555 1_555
O2 C23 1_555 1_555
C3 C8 1_555 1_555
C7 C8 1_555 1_555
C13 C14 1_555 1_555
C19 C20 1_555 1_555
C23 C24 1_555 1_555
C32 C33 1_555 1_555
O6 C56 1_555 1_555
C36 C41 1_555 1_555
C40 C41 1_555 1_555
C46 C47 1_555 1_555
C52 C53 1_555 1_555
C56 C57 1_555 1_555
C65 C66 1_555 1_555

#END
