
#######################################################################
#
#                 Cambridge Crystallographic Data Centre
#                                CCDC 
#
#######################################################################
#
# If this CIF has been generated from an entry in the Cambridge 
# Structural Database, then it will include bibliographic, chemical, 
# crystal, experimental, refinement or atomic coordinate data resulting 
# from the CCDC's data processing and validation procedures.
#
#######################################################################

data_BIJCUT
_chemical_formula_moiety         'C18 H23 Cl1 O11'
_chemical_name_systematic        
'1,4:3,6-Dianhydro-\b-D-fructofuranosyl 2,3,6-tri-O-acetyl-4-chloro-4-deoxy-\a-D-galactopyranoside'
_symmetry_cell_setting           orthorhombic
_symmetry_space_group_name_H-M   'P 21 21 21'
_symmetry_Int_Tables_number      19
_space_group_name_Hall           'P 2ac 2ab'
loop_
_symmetry_equiv_pos_site_id
_symmetry_equiv_pos_as_xyz
1 x,y,z
2 1/2-x,-y,1/2+z
3 -x,1/2+y,1/2-z
4 1/2+x,1/2-y,-z
_cell_length_a                   9.972(2)
_cell_length_b                   12.694(3)
_cell_length_c                   16.855(3)
_cell_angle_alpha                90
_cell_angle_beta                 90
_cell_angle_gamma                90
_cell_volume                     2133.58
_exptl_crystal_colour            colorless
_exptl_crystal_description       prismatic
_chemical_melting_point          '130-131 deg.C'
_cell_formula_units_Z            4
_exptl_crystal_recrystallization_method 'absolute ethanol'
loop_
_atom_site_label
_atom_site_type_symbol
_atom_site_fract_x
_atom_site_fract_y
_atom_site_fract_z
Cl1 Cl 0.14331(15) 0.73508(14) 0.77229(9)
O1 O 0.1769(3) 0.5449(3) 0.64824(19)
O2 O -0.0019(3) 0.5117(3) 0.5610(2)
O3 O -0.1848(3) 0.5320(3) 0.6798(2)
O4 O -0.1947(4) 0.4900(4) 0.8088(3)
O5 O -0.1381(3) 0.7433(3) 0.70872(19)
O6 O -0.1453(5) 0.8694(4) 0.6158(3)
O7 O 0.4175(3) 0.6121(3) 0.5846(3)
O8 O 0.5565(6) 0.7402(5) 0.5575(4)
O9 O 0.0667(5) 0.3726(4) 0.3817(3)
O10 O -0.0326(3) 0.3359(3) 0.5276(2)
O11 O 0.2240(4) 0.3294(4) 0.5701(2)
C1 C 0.0446(4) 0.5047(4) 0.6406(3)
H1 H 0.0415 0.4314 0.6587
C2 C 0.0054(7) 0.4563(6) 0.4249(3)
H2 H -0.0908 0.4574 0.4166
H3 H 0.0425 0.5240 0.4096
C3 C 0.0393(5) 0.4303(5) 0.5103(3)
C4 C -0.0512(5) 0.5714(4) 0.6895(3)
H4 H -0.0258 0.5675 0.7456
C5 C -0.0452(5) 0.6857(4) 0.6619(3)
H5 H -0.0731 0.6891 0.6062
C6 C 0.1825(5) 0.3893(5) 0.5037(4)
H6 H 0.2476 0.4426 0.4869
C7 C 0.0979(4) 0.7247(5) 0.6685(3)
H7 H 0.1030 0.7949 0.6447
C8 C 0.1415(7) 0.3153(6) 0.4393(4)
H8 H 0.2162 0.2749 0.4168
C9 C 0.1931(5) 0.6514(4) 0.6234(3)
H9 H 0.1720 0.6558 0.5667
C10 C 0.0523(6) 0.2508(6) 0.4984(4)
H10 H 0.0060 0.1893 0.4764
C11 C 0.3368(5) 0.6789(5) 0.6346(4)
H11 H 0.3515 0.7522 0.6208
H12 H 0.3619 0.6691 0.6897
C12 C 0.1523(7) 0.2294(5) 0.5632(4)
H13 H 0.1077 0.2115 0.6126
H14 H 0.2127 0.1727 0.5487
C13 C -0.2465(5) 0.4949(5) 0.7443(4)
C14 C -0.3845(5) 0.4594(6) 0.7264(4)
H15 H -0.4254 0.4325 0.7738
H16 H -0.3817 0.4050 0.6869
H17 H -0.4360 0.5178 0.7068
C15 C -0.1870(5) 0.8318(6) 0.6767(4)
C16 C -0.2995(6) 0.8770(5) 0.7256(4)
H18 H -0.3316 0.9405 0.7011
H19 H -0.2673 0.8926 0.7779
H20 H -0.3712 0.8268 0.7288
C17 C 0.5253(7) 0.6531(6) 0.5518(4)
C18 C 0.6061(6) 0.5697(7) 0.5073(4)
H21 H 0.6844 0.6016 0.4845
H22 H 0.5519 0.5398 0.4660
H23 H 0.6328 0.5153 0.5436
loop_
_geom_bond_atom_site_label_1
_geom_bond_atom_site_label_2
_geom_bond_site_symmetry_1
_geom_bond_site_symmetry_2
Cl1 C7 1_555 1_555
O1 C1 1_555 1_555
O2 C1 1_555 1_555
O3 C4 1_555 1_555
O4 C13 1_555 1_555
O5 C5 1_555 1_555
O6 C15 1_555 1_555
O7 C11 1_555 1_555
O8 C17 1_555 1_555
O9 C2 1_555 1_555
O10 C3 1_555 1_555
O11 C6 1_555 1_555
C1 H1 1_555 1_555
C2 H2 1_555 1_555
H3 C2 1_555 1_555
C3 O2 1_555 1_555
C4 C1 1_555 1_555
H4 C4 1_555 1_555
C5 C4 1_555 1_555
H5 C5 1_555 1_555
C6 C3 1_555 1_555
H6 C6 1_555 1_555
C7 C5 1_555 1_555
H7 C7 1_555 1_555
C8 O9 1_555 1_555
H8 C8 1_555 1_555
C9 O1 1_555 1_555
H9 C9 1_555 1_555
C10 O10 1_555 1_555
H10 C10 1_555 1_555
C11 C9 1_555 1_555
H11 C11 1_555 1_555
H12 C11 1_555 1_555
C12 O11 1_555 1_555
H13 C12 1_555 1_555
H14 C12 1_555 1_555
C13 O3 1_555 1_555
C14 C13 1_555 1_555
H15 C14 1_555 1_555
H16 C14 1_555 1_555
H17 C14 1_555 1_555
C15 O5 1_555 1_555
C16 C15 1_555 1_555
H18 C16 1_555 1_555
H19 C16 1_555 1_555
H20 C16 1_555 1_555
C17 O7 1_555 1_555
C18 C17 1_555 1_555
H21 C18 1_555 1_555
H22 C18 1_555 1_555
H23 C18 1_555 1_555
C2 C3 1_555 1_555
C6 C8 1_555 1_555
C7 C9 1_555 1_555
C8 C10 1_555 1_555
C10 C12 1_555 1_555

#END
