
#######################################################################
#
#                 Cambridge Crystallographic Data Centre
#                                CCDC 
#
#######################################################################
#
# If this CIF has been generated from an entry in the Cambridge 
# Structural Database, then it will include bibliographic, chemical, 
# crystal, experimental, refinement or atomic coordinate data resulting 
# from the CCDC's data processing and validation procedures.
#
#######################################################################

data_BIJCEE
_chemical_formula_moiety         'C17 H16 O4'
_chemical_name_systematic        '2-((Mesityloxy)carbonyl)benzoic acid'
_symmetry_cell_setting           orthorhombic
_symmetry_space_group_name_H-M   'P b c a'
_symmetry_Int_Tables_number      61
_space_group_name_Hall           '-P 2ac 2ab'
loop_
_symmetry_equiv_pos_site_id
_symmetry_equiv_pos_as_xyz
1 x,y,z
2 1/2-x,-y,1/2+z
3 1/2+x,1/2-y,-z
4 -x,1/2+y,1/2-z
5 -x,-y,-z
6 1/2+x,y,1/2-z
7 1/2-x,1/2+y,z
8 x,1/2-y,1/2+z
_cell_length_a                   15.679(2)
_cell_length_b                   16.276(2)
_cell_length_c                   23.581(3)
_cell_angle_alpha                90
_cell_angle_beta                 90
_cell_angle_gamma                90
_cell_volume                     6017.67
_exptl_crystal_colour            colorless
_exptl_crystal_description       prisms
_cell_formula_units_Z            16
loop_
_atom_site_label
_atom_site_type_symbol
_atom_site_fract_x
_atom_site_fract_y
_atom_site_fract_z
O1 O 0.02529(7) 0.89929(6) 0.58013(5)
O2 O 0.08433(6) 0.77602(6) 0.59265(4)
O3 O 0.09251(5) 0.71862(5) 0.47700(4)
O4 O 0.04140(5) 0.59532(5) 0.50445(4)
C1 C 0.02650(8) 0.81894(8) 0.57484(5)
C2 C -0.05109(7) 0.78440(7) 0.54760(5)
C3 C -0.12967(8) 0.82090(8) 0.55817(6)
H1 H -0.1325 0.8705 0.5794
C4 C -0.20398(8) 0.78525(9) 0.53791(7)
H2 H -0.2575 0.8107 0.5449
C5 C -0.20022(8) 0.71276(9) 0.50756(7)
H3 H -0.2513 0.6884 0.4939
C6 C -0.12205(8) 0.67519(8) 0.49685(6)
H4 H -0.1200 0.6250 0.4763
C7 C -0.04710(7) 0.71109(7) 0.51625(5)
C8 C 0.03681(7) 0.67768(7) 0.49768(5)
C9 C 0.11834(7) 0.55810(7) 0.48568(5)
C10 C 0.18390(8) 0.54890(7) 0.52471(6)
C11 C 0.25776(8) 0.50971(8) 0.50557(6)
H5 H 0.3036 0.5016 0.5313
C12 C 0.26646(9) 0.48219(8) 0.45008(6)
C13 C 0.19865(9) 0.49370(8) 0.41284(6)
H6 H 0.2040 0.4754 0.3748
C14 C 0.12301(8) 0.53141(8) 0.42986(6)
C15 C 0.17655(9) 0.58201(9) 0.58415(6)
H7 H 0.1702 0.6419 0.5828
H8 H 0.2281 0.5679 0.6056
H9 H 0.1266 0.5578 0.6027
C16 C 0.34777(11) 0.44061(10) 0.43074(8)
H10 H 0.3347 0.3850 0.4175
H11 H 0.3880 0.4377 0.4625
H12 H 0.3733 0.4723 0.3997
C17 C 0.04908(10) 0.54279(10) 0.38976(6)
H13 H -0.0013 0.5149 0.4050
H14 H 0.0636 0.5193 0.3527
H15 H 0.0370 0.6015 0.3855
H16 H 0.0724(15) 0.9143(14) 0.5998(10)
O5 O 0.28061(7) 0.32309(6) 0.65347(5)
O6 O 0.34109(7) 0.44491(6) 0.63862(5)
O7 O 0.39039(6) 0.51410(6) 0.74521(5)
O8 O 0.33069(5) 0.62820(5) 0.70885(4)
C18 C 0.28752(8) 0.40255(7) 0.66199(5)
C19 C 0.22358(7) 0.43887(7) 0.70096(5)
C20 C 0.14370(8) 0.40278(8) 0.70747(6)
H20 H 0.1321 0.3509 0.6907
C21 C 0.08096(8) 0.44285(9) 0.73852(6)
H21 H 0.0266 0.4180 0.7432
C22 C 0.09710(8) 0.51861(9) 0.76272(6)
H22 H 0.0534 0.5463 0.7831
C23 C 0.17732(8) 0.55433(8) 0.75730(6)
H23 H 0.1885 0.6060 0.7745
C24 C 0.24099(7) 0.51484(7) 0.72690(5)
C25 C 0.32921(7) 0.54983(7) 0.72753(5)
C26 C 0.41141(7) 0.66800(7) 0.70854(5)
C27 C 0.45227(8) 0.67623(7) 0.65671(5)
C28 C 0.53010(8) 0.71814(8) 0.65613(6)
H24 H 0.5593 0.7249 0.6211
C29 C 0.56597(8) 0.75012(8) 0.70527(6)
C30 C 0.52221(9) 0.73987(9) 0.75604(6)
H25 H 0.5465 0.7611 0.7899
C31 C 0.44373(9) 0.69941(8) 0.75892(6)
C32 C 0.41543(10) 0.64107(9) 0.60305(6)
H26 H 0.4034 0.5825 0.6085
H27 H 0.4565 0.6478 0.5720
H28 H 0.3625 0.6700 0.5936
C33 C 0.65046(10) 0.79510(10) 0.70346(8)
H29 H 0.6412 0.8534 0.7117
H30 H 0.6757 0.7893 0.6657
H31 H 0.6891 0.7716 0.7318
C34 C 0.39712(12) 0.69018(12) 0.81443(7)
H32 H 0.3473 0.6546 0.8091
H33 H 0.3784 0.7443 0.8277
H34 H 0.4353 0.6656 0.8426
H35 H 0.3254(14) 0.3080(13) 0.6277(9)
H17? H 0.3959 0.4783 0.4357
H18? H 0.3427 0.4256 0.3906
H19? H 0.3574 0.3910 0.4534
H36? H 0.4267 0.7218 0.8439
H37? H 0.3957 0.6321 0.8252
H38? H 0.3387 0.7107 0.8103
loop_
_geom_bond_atom_site_label_1
_geom_bond_atom_site_label_2
_geom_bond_site_symmetry_1
_geom_bond_site_symmetry_2
O1 C1 1_555 1_555
O2 C1 1_555 1_555
O3 C8 1_555 1_555
O4 C8 1_555 1_555
C1 C2 1_555 1_555
C2 C3 1_555 1_555
C3 H1 1_555 1_555
C4 C3 1_555 1_555
H2 C4 1_555 1_555
C5 C4 1_555 1_555
H3 C5 1_555 1_555
C6 C5 1_555 1_555
H4 C6 1_555 1_555
C7 C2 1_555 1_555
C8 C7 1_555 1_555
C9 O4 1_555 1_555
C10 C9 1_555 1_555
C11 C10 1_555 1_555
H5 C11 1_555 1_555
C12 C11 1_555 1_555
C13 C12 1_555 1_555
H6 C13 1_555 1_555
C14 C9 1_555 1_555
C15 C10 1_555 1_555
H7 C15 1_555 1_555
H8 C15 1_555 1_555
H9 C15 1_555 1_555
C16 C12 1_555 1_555
H10 C16 1_555 1_555
H11 C16 1_555 1_555
H12 C16 1_555 1_555
C17 C14 1_555 1_555
H13 C17 1_555 1_555
H14 C17 1_555 1_555
H15 C17 1_555 1_555
H16 O1 1_555 1_555
O5 C18 1_555 1_555
O6 C18 1_555 1_555
O7 C25 1_555 1_555
O8 C25 1_555 1_555
C18 C19 1_555 1_555
C19 C20 1_555 1_555
C20 H20 1_555 1_555
C21 C20 1_555 1_555
H21 C21 1_555 1_555
C22 C21 1_555 1_555
H22 C22 1_555 1_555
C23 C22 1_555 1_555
H23 C23 1_555 1_555
C24 C19 1_555 1_555
C25 C24 1_555 1_555
C26 O8 1_555 1_555
C27 C26 1_555 1_555
C28 C27 1_555 1_555
H24 C28 1_555 1_555
C29 C28 1_555 1_555
C30 C29 1_555 1_555
H25 C30 1_555 1_555
C31 C26 1_555 1_555
C32 C27 1_555 1_555
H26 C32 1_555 1_555
H27 C32 1_555 1_555
H28 C32 1_555 1_555
C33 C29 1_555 1_555
H29 C33 1_555 1_555
H30 C33 1_555 1_555
H31 C33 1_555 1_555
C34 C31 1_555 1_555
H32 C34 1_555 1_555
H33 C34 1_555 1_555
H34 C34 1_555 1_555
H35 O5 1_555 1_555
C6 C7 1_555 1_555
C13 C14 1_555 1_555
C23 C24 1_555 1_555
C30 C31 1_555 1_555

#END
