
#######################################################################
#
#                 Cambridge Crystallographic Data Centre
#                                CCDC 
#
#######################################################################
#
# If this CIF has been generated from an entry in the Cambridge 
# Structural Database, then it will include bibliographic, chemical, 
# crystal, experimental, refinement or atomic coordinate data resulting 
# from the CCDC's data processing and validation procedures.
#
#######################################################################

data_BIJDOP
_chemical_formula_moiety         'C29 H24 O2 S1'
_chemical_name_systematic        
'6-Methyl-1,3-diphenyl-1H-inden-2-yl 4-methylphenyl sulfone'
_symmetry_cell_setting           monoclinic
_symmetry_space_group_name_H-M   'P 21/n'
_symmetry_Int_Tables_number      14
_space_group_name_Hall           '-P 2yn'
loop_
_symmetry_equiv_pos_site_id
_symmetry_equiv_pos_as_xyz
1 x,y,z
2 1/2-x,1/2+y,1/2-z
3 -x,-y,-z
4 1/2+x,1/2-y,1/2+z
_cell_length_a                   10.6483(7)
_cell_length_b                   10.6901(7)
_cell_length_c                   20.2974(13)
_cell_angle_alpha                90
_cell_angle_beta                 92.7010(10)
_cell_angle_gamma                90
_cell_volume                     2307.91
_cell_formula_units_Z            4
loop_
_atom_site_label
_atom_site_type_symbol
_atom_site_fract_x
_atom_site_fract_y
_atom_site_fract_z
C1 C 0.5929(2) 0.0945(2) -0.13482(9)
H1 H 0.6694 0.1100 -0.1566
H2 H 0.5298 0.1531 -0.1502
H3 H 0.5646 0.0109 -0.1444
O1 O 0.69296(11) 0.04772(12) 0.19035(6)
S1 S 0.70195(3) 0.16651(4) 0.157794(18)
C2 C 0.61624(14) 0.10936(19) -0.06127(8)
O2 O 0.62624(10) 0.26877(13) 0.17905(6)
C3 C 0.65809(15) 0.01057(17) -0.02203(8)
H4 H 0.6683 -0.0678 -0.0409
C4 C 0.68514(14) 0.02631(16) 0.04489(8)
H5 H 0.7151 -0.0403 0.0706
C5 C 0.66699(13) 0.14257(15) 0.07312(7)
C6 C 0.62236(14) 0.24169(16) 0.03530(8)
H6 H 0.6086 0.3191 0.0546
C7 C 0.59833(15) 0.22432(18) -0.03171(8)
H7 H 0.5695 0.2913 -0.0574
C8 C 0.85850(13) 0.21860(14) 0.16354(6)
C9 C 0.96327(13) 0.14906(13) 0.15666(6)
C10 C 1.07247(13) 0.23323(13) 0.16382(7)
C11 C 1.03103(13) 0.35422(13) 0.17542(7)
C12 C 0.88900(13) 0.35659(13) 0.17462(7)
H8 H 0.8616 0.3825 0.2180
C13 C 0.83275(13) 0.44394(13) 0.12185(7)
C14 C 0.74901(16) 0.53662(17) 0.13765(9)
H9 H 0.7258 0.5458 0.1810
C15 C 0.69959(19) 0.6159(2) 0.08923(12)
H10 H 0.6434 0.6782 0.1003
C16 C 0.7325(2) 0.6034(2) 0.02513(11)
H11 H 0.6981 0.6564 -0.0073
C17 C 0.81647(19) 0.5123(2) 0.00892(9)
H12 H 0.8392 0.5037 -0.0345
C18 C 0.86716(16) 0.43347(16) 0.05677(8)
H13 H 0.9249 0.3727 0.0455
C19 C 0.97870(13) 0.01423(13) 0.14171(7)
C20 C 0.94157(16) -0.08083(15) 0.18324(8)
H14 H 0.9041 -0.0611 0.2224
C21 C 0.96014(19) -0.20399(16) 0.16659(9)
H15 H 0.9351 -0.2669 0.1948
C22 C 1.01532(18) -0.23555(16) 0.10878(9)
H16 H 1.0260 -0.3191 0.0976
C23 C 1.05437(16) -0.14232(15) 0.06785(8)
H17 H 1.0923 -0.1628 0.0289
C24 C 1.03756(14) -0.01853(14) 0.08433(7)
H18 H 1.0659 0.0439 0.0568
C25 C 1.20023(14) 0.20821(16) 0.16095(8)
H19 H 1.2287 0.1271 0.1544
C26 C 1.28413(15) 0.30696(17) 0.16807(8)
H20 H 1.3697 0.2912 0.1660
C27 C 1.24406(15) 0.42819(16) 0.17819(8)
C28 C 1.11611(15) 0.45176(15) 0.18323(7)
H21 H 1.0881 0.5323 0.1918
C29 C 1.3373(2) 0.5349(2) 0.18196(11)
H22 H 1.3745 0.5403 0.2259
H23 H 1.2948 0.6118 0.1710
H24 H 1.4019 0.5203 0.1514
loop_
_geom_bond_atom_site_label_1
_geom_bond_atom_site_label_2
_geom_bond_site_symmetry_1
_geom_bond_site_symmetry_2
C1 H1 1_555 1_555
H2 C1 1_555 1_555
H3 C1 1_555 1_555
O1 S1 1_555 1_555
S1 O2 1_555 1_555
C2 C1 1_555 1_555
C3 C2 1_555 1_555
H4 C3 1_555 1_555
C4 C3 1_555 1_555
H5 C4 1_555 1_555
C5 S1 1_555 1_555
C6 C5 1_555 1_555
H6 C6 1_555 1_555
C7 C2 1_555 1_555
H7 C7 1_555 1_555
C8 S1 1_555 1_555
C9 C8 1_555 1_555
C10 C9 1_555 1_555
C11 C10 1_555 1_555
C12 C8 1_555 1_555
H8 C12 1_555 1_555
C13 C12 1_555 1_555
C14 C13 1_555 1_555
H9 C14 1_555 1_555
C15 C14 1_555 1_555
H10 C15 1_555 1_555
C16 C15 1_555 1_555
H11 C16 1_555 1_555
C17 C16 1_555 1_555
H12 C17 1_555 1_555
C18 C13 1_555 1_555
H13 C18 1_555 1_555
C19 C9 1_555 1_555
C20 C19 1_555 1_555
H14 C20 1_555 1_555
C21 C20 1_555 1_555
H15 C21 1_555 1_555
C22 C21 1_555 1_555
H16 C22 1_555 1_555
C23 C22 1_555 1_555
H17 C23 1_555 1_555
C24 C19 1_555 1_555
H18 C24 1_555 1_555
C25 C10 1_555 1_555
H19 C25 1_555 1_555
C26 C25 1_555 1_555
H20 C26 1_555 1_555
C27 C26 1_555 1_555
C28 C11 1_555 1_555
H21 C28 1_555 1_555
C29 C27 1_555 1_555
H22 C29 1_555 1_555
H23 C29 1_555 1_555
H24 C29 1_555 1_555
C4 C5 1_555 1_555
C6 C7 1_555 1_555
C11 C12 1_555 1_555
C17 C18 1_555 1_555
C23 C24 1_555 1_555
C27 C28 1_555 1_555

#END
