
#######################################################################
#
#                 Cambridge Crystallographic Data Centre
#                                CCDC 
#
#######################################################################
#
# If this CIF has been generated from an entry in the Cambridge 
# Structural Database, then it will include bibliographic, chemical, 
# crystal, experimental, refinement or atomic coordinate data resulting 
# from the CCDC's data processing and validation procedures.
#
#######################################################################

data_BIJFUX
_chemical_formula_moiety         'C12 H16 N6 O4 S1'
_chemical_name_systematic        
'(5-(2-(((t-Butoxycarbonyl)amino)methyl)-1,3-thiazol-4-yl)-1H-tetrazol-1-yl)acetic acid'
_symmetry_cell_setting           orthorhombic
_symmetry_space_group_name_H-M   'P c a 21'
_symmetry_Int_Tables_number      29
_space_group_name_Hall           'P 2c -2ac'
loop_
_symmetry_equiv_pos_site_id
_symmetry_equiv_pos_as_xyz
1 x,y,z
2 -x,-y,1/2+z
3 1/2-x,y,1/2+z
4 1/2+x,-y,z
_cell_length_a                   12.5389(12)
_cell_length_b                   5.1068(4)
_cell_length_c                   25.120(2)
_cell_angle_alpha                90
_cell_angle_beta                 90
_cell_angle_gamma                90
_cell_volume                     1608.53
_exptl_crystal_colour            'light colorless'
_exptl_crystal_description       block
_cell_formula_units_Z            4
loop_
_atom_site_label
_atom_site_type_symbol
_atom_site_fract_x
_atom_site_fract_y
_atom_site_fract_z
S1 S -0.42944(8) -0.16240(19) -0.19500(4)
O1 O -0.6860(2) -0.3163(5) -0.22750(10)
N1 N -0.5179(2) -0.2734(5) -0.10615(11)
O2 O -0.6392(2) -0.8052(5) -0.02383(12)
H1 H -0.6995 -0.8663 -0.0211
O3 O -0.7116(2) 0.0019(5) -0.28946(10)
N2 N -0.3285(2) -0.8029(6) -0.07588(13)
N3 N -0.6431(2) 0.1058(5) -0.21159(11)
H2 H -0.6322 0.2580 -0.2252
N4 N -0.4411(2) -0.6349(5) -0.02059(12)
C1 C -0.5288(3) -0.1266(7) -0.14796(15)
N5 N -0.3962(2) -0.8415(6) 0.00421(13)
C2 C -0.3997(3) -0.6144(7) -0.06960(14)
C3 C -0.3701(3) -0.3924(7) -0.15576(15)
H3 H -0.3078 -0.4821 -0.1641
C4 C -0.6201(3) 0.0598(7) -0.15592(14)
H4 H -0.6832 -0.0108 -0.1388
H5 H -0.6032 0.2252 -0.1389
C5 C -0.4274(3) -0.4246(7) -0.11055(15)
O4 O -0.7026(2) -0.5053(6) 0.03102(13)
C6 C -0.6491(5) -0.3454(10) -0.34811(18)
H6 H -0.5870 -0.2366 -0.3513
H7 H -0.6630 -0.4294 -0.3816
H8 H -0.6371 -0.4758 -0.3213
C7 C -0.7430(5) -0.1803(7) -0.33284(17)
C8 C -0.5215(3) -0.4817(7) 0.00764(14)
H9 H -0.5243 -0.3079 -0.0078
H10 H -0.4996 -0.4630 0.0445
N6 N -0.3290(2) -0.9375(6) -0.02971(14)
C9 C -0.6816(3) -0.0889(7) -0.24223(15)
C10 C -0.6311(3) -0.5977(7) 0.00631(14)
C11 C -0.7711(7) 0.0073(10) -0.37782(18)
H11 H -0.8283 0.1198 -0.3667
H12 H -0.7930 -0.0910 -0.4085
H13 H -0.7098 0.1113 -0.3866
C12 C -0.8389(4) -0.3387(11) -0.3170(2)
H14 H -0.8191 -0.4619 -0.2899
H15 H -0.8657 -0.4313 -0.3474
H16 H -0.8933 -0.2241 -0.3035
loop_
_geom_bond_atom_site_label_1
_geom_bond_atom_site_label_2
_geom_bond_site_symmetry_1
_geom_bond_site_symmetry_2
S1 C1 1_555 1_555
O1 C9 1_555 1_555
N1 C1 1_555 1_555
O2 H1 1_555 1_555
O3 C7 1_555 1_555
N2 C2 1_555 1_555
N3 H2 1_555 1_555
N4 N5 1_555 1_555
C1 C4 1_555 1_555
N5 N6 1_555 1_555
C2 N4 1_555 1_555
C3 S1 1_555 1_555
H3 C3 1_555 1_555
C4 N3 1_555 1_555
H4 C4 1_555 1_555
H5 C4 1_555 1_555
C5 N1 1_555 1_555
O4 C10 1_555 1_555
C6 H6 1_555 1_555
H7 C6 1_555 1_555
H8 C6 1_555 1_555
C7 C6 1_555 1_555
C8 N4 1_555 1_555
H9 C8 1_555 1_555
H10 C8 1_555 1_555
N6 N2 1_555 1_555
C9 O3 1_555 1_555
C10 O2 1_555 1_555
C11 C7 1_555 1_555
H11 C11 1_555 1_555
H12 C11 1_555 1_555
H13 C11 1_555 1_555
C12 C7 1_555 1_555
H14 C12 1_555 1_555
H15 C12 1_555 1_555
H16 C12 1_555 1_555
N3 C9 1_555 1_555
C2 C5 1_555 1_555
C3 C5 1_555 1_555
C8 C10 1_555 1_555

#END
