
#######################################################################
#
#                 Cambridge Crystallographic Data Centre
#                                CCDC 
#
#######################################################################
#
# If this CIF has been generated from an entry in the Cambridge 
# Structural Database, then it will include bibliographic, chemical, 
# crystal, experimental, refinement or atomic coordinate data resulting 
# from the CCDC's data processing and validation procedures.
#
#######################################################################

data_BIJFAC02
_chemical_formula_moiety         'C18 H12 N2 S1'
_chemical_name_systematic        4,7-diphenyl-2,1,3-benzothiadiazole
_symmetry_cell_setting           triclinic
_symmetry_space_group_name_H-M   'P -1'
_symmetry_Int_Tables_number      2
_space_group_name_Hall           '-P 1'
loop_
_symmetry_equiv_pos_site_id
_symmetry_equiv_pos_as_xyz
1 x,y,z
2 -x,-y,-z
_cell_length_a                   9.5322(6)
_cell_length_b                   11.9854(9)
_cell_length_c                   13.8700(10)
_cell_angle_alpha                109.931(7)
_cell_angle_beta                 94.006(6)
_cell_angle_gamma                112.019(7)
_cell_volume                     1345.05
_exptl_crystal_colour            colorless
_exptl_crystal_description       plate
_cell_formula_units_Z            4
loop_
_atom_site_label
_atom_site_type_symbol
_atom_site_fract_x
_atom_site_fract_y
_atom_site_fract_z
S1 S 0.26843(5) 0.46650(4) 0.63660(3)
N1 N 0.28257(16) 0.38010(14) 0.52309(11)
N2 N 0.35036(17) 0.42160(14) 0.71291(11)
C1 C 0.35578(19) 0.30940(15) 0.54084(13)
C2 C 0.39469(19) 0.33356(16) 0.65063(13)
C3 C 0.46959(19) 0.26437(16) 0.68448(13)
C4 C 0.5019(2) 0.17735(17) 0.60570(13)
H1 H 0.5521 0.1302 0.6245
C5 C 0.4643(2) 0.15417(16) 0.49787(13)
H2 H 0.4911 0.0927 0.4481
C6 C 0.39067(19) 0.21671(16) 0.46171(13)
C7 C 0.50736(19) 0.28151(16) 0.79524(13)
C8 C 0.5743(2) 0.40520(17) 0.87773(14)
H3 H 0.5924 0.4808 0.8632
C9 C 0.6148(2) 0.41930(17) 0.98092(13)
H4 H 0.6611 0.5042 1.0362
C10 C 0.5877(2) 0.30973(18) 1.00322(13)
H5 H 0.6150 0.3194 1.0737
C11 C 0.5205(2) 0.18567(18) 0.92210(14)
H6 H 0.5020 0.1104 0.9372
C12 C 0.4806(2) 0.17145(17) 0.81914(14)
H7 H 0.4345 0.0863 0.7642
C13 C 0.35073(19) 0.18743(17) 0.34809(13)
C14 C 0.36442(19) 0.28557(16) 0.31119(13)
H8 H 0.3958 0.3732 0.3601
C15 C 0.3326(2) 0.25609(18) 0.20417(14)
H9 H 0.3448 0.3238 0.1802
C16 C 0.2827(2) 0.12747(18) 0.13164(14)
H10 H 0.2598 0.1074 0.0583
C17 C 0.2665(2) 0.02861(17) 0.16678(13)
H11 H 0.2319 -0.0593 0.1177
C18 C 0.3013(2) 0.05923(17) 0.27437(13)
H12 H 0.2913 -0.0084 0.2981
S2 S 0.86588(5) 0.52194(4) 0.65681(3)
N3 N 0.84304(17) 0.41703(14) 0.54085(11)
N4 N 0.91018(17) 0.45457(14) 0.72973(11)
C19 C 0.87008(19) 0.32005(16) 0.55454(13)
C20 C 0.90815(19) 0.34134(16) 0.66379(13)
C21 C 0.94517(19) 0.25042(16) 0.69379(13)
C22 C 0.9371(2) 0.14226(17) 0.61175(13)
H13 H 0.9574 0.0781 0.6279
C23 C 0.9002(2) 0.12119(17) 0.50443(13)
H14 H 0.8972 0.0439 0.4523
C24 C 0.86838(19) 0.20742(16) 0.47208(13)
C25 C 0.99166(19) 0.26979(16) 0.80449(13)
C26 C 0.92637(19) 0.32551(16) 0.88376(13)
H15 H 0.8525 0.3560 0.8680
C27 C 0.9689(2) 0.33660(16) 0.98562(13)
H16 H 0.9244 0.3753 1.0391
C28 C 1.0757(2) 0.29172(17) 1.01019(13)
H17 H 1.1025 0.2979 1.0797
C29 C 1.1428(2) 0.23775(17) 0.93233(14)
H18 H 1.2170 0.2080 0.9488
C30 C 1.1019(2) 0.22714(17) 0.83064(13)
H19 H 1.1490 0.1906 0.7780
C31 C 0.83925(19) 0.18597(15) 0.35980(13)
C32 C 0.72682(19) 0.21576(16) 0.31694(13)
H20 H 0.6690 0.2513 0.3609
C33 C 0.6994(2) 0.19379(17) 0.21139(13)
H21 H 0.6218 0.2129 0.1831
C34 C 0.7848(2) 0.14386(17) 0.14649(13)
H22 H 0.7670 0.1304 0.0743
C35 C 0.8963(2) 0.11367(17) 0.18755(13)
H23 H 0.9542 0.0786 0.1433
C36 C 0.9233(2) 0.13479(16) 0.29376(13)
H24 H 0.9998 0.1141 0.3215
loop_
_geom_bond_atom_site_label_1
_geom_bond_atom_site_label_2
_geom_bond_site_symmetry_1
_geom_bond_site_symmetry_2
S1 N1 1_555 1_555
N1 C1 1_555 1_555
N2 S1 1_555 1_555
C1 C2 1_555 1_555
C2 N2 1_555 1_555
C3 C2 1_555 1_555
C4 C3 1_555 1_555
H1 C4 1_555 1_555
C5 C4 1_555 1_555
H2 C5 1_555 1_555
C6 C1 1_555 1_555
C7 C3 1_555 1_555
C8 C7 1_555 1_555
H3 C8 1_555 1_555
C9 C8 1_555 1_555
H4 C9 1_555 1_555
C10 C9 1_555 1_555
H5 C10 1_555 1_555
C11 C10 1_555 1_555
H6 C11 1_555 1_555
C12 C7 1_555 1_555
H7 C12 1_555 1_555
C13 C6 1_555 1_555
C14 C13 1_555 1_555
H8 C14 1_555 1_555
C15 C14 1_555 1_555
H9 C15 1_555 1_555
C16 C15 1_555 1_555
H10 C16 1_555 1_555
C17 C16 1_555 1_555
H11 C17 1_555 1_555
C18 C13 1_555 1_555
H12 C18 1_555 1_555
S2 N3 1_555 1_555
N3 C19 1_555 1_555
N4 S2 1_555 1_555
C19 C20 1_555 1_555
C20 N4 1_555 1_555
C21 C20 1_555 1_555
C22 C21 1_555 1_555
H13 C22 1_555 1_555
C23 C22 1_555 1_555
H14 C23 1_555 1_555
C24 C19 1_555 1_555
C25 C21 1_555 1_555
C26 C25 1_555 1_555
H15 C26 1_555 1_555
C27 C26 1_555 1_555
H16 C27 1_555 1_555
C28 C27 1_555 1_555
H17 C28 1_555 1_555
C29 C28 1_555 1_555
H18 C29 1_555 1_555
C30 C25 1_555 1_555
H19 C30 1_555 1_555
C31 C24 1_555 1_555
C32 C31 1_555 1_555
H20 C32 1_555 1_555
C33 C32 1_555 1_555
H21 C33 1_555 1_555
C34 C33 1_555 1_555
H22 C34 1_555 1_555
C35 C34 1_555 1_555
H23 C35 1_555 1_555
C36 C31 1_555 1_555
H24 C36 1_555 1_555
C5 C6 1_555 1_555
C11 C12 1_555 1_555
C17 C18 1_555 1_555
C23 C24 1_555 1_555
C29 C30 1_555 1_555
C35 C36 1_555 1_555

#END
