
#######################################################################
#
#                 Cambridge Crystallographic Data Centre
#                                CCDC 
#
#######################################################################
#
# If this CIF has been generated from an entry in the Cambridge 
# Structural Database, then it will include bibliographic, chemical, 
# crystal, experimental, refinement or atomic coordinate data resulting 
# from the CCDC's data processing and validation procedures.
#
#######################################################################

data_BIJFOR
_chemical_formula_moiety         'C12 H16 N6 O4 S1,1.5(H2 O1)'
_chemical_name_systematic        
'(5-(2-(((t-Butoxycarbonyl)amino)methyl)-1,3-thiazol-4-yl)-2H-tetrazol-2-yl)acetic acid sesquihydrate'
_symmetry_cell_setting           monoclinic
_symmetry_space_group_name_H-M   'P 21/n'
_symmetry_Int_Tables_number      14
_space_group_name_Hall           '-P 2yn'
loop_
_symmetry_equiv_pos_site_id
_symmetry_equiv_pos_as_xyz
1 x,y,z
2 1/2-x,1/2+y,1/2-z
3 -x,-y,-z
4 1/2+x,1/2-y,1/2+z
_cell_length_a                   16.6055(6)
_cell_length_b                   5.06349(16)
_cell_length_c                   21.8439(6)
_cell_angle_alpha                90
_cell_angle_beta                 95.059(3)
_cell_angle_gamma                90
_cell_volume                     1829.52
_exptl_crystal_colour            'light colorless'
_exptl_crystal_description       needle
_cell_formula_units_Z            4
loop_
_atom_site_label
_atom_site_type_symbol
_atom_site_fract_x
_atom_site_fract_y
_atom_site_fract_z
S1 S 0.33846(5) 0.47247(17) 0.43100(3)
O1 O 0.31803(13) -0.4777(4) 0.79077(9)
H1 H 0.3238 -0.3940 0.8230
N1 N 0.16091(17) 0.6470(5) 0.39268(10)
N2 N 0.34491(13) -0.3184(4) 0.63433(9)
O2 O 0.13518(15) 0.2138(4) 0.38092(9)
O3 O 0.11554(12) 0.5012(3) 0.30109(8)
C1 C 0.35531(15) -0.0466(5) 0.56550(11)
O4 O 0.37199(13) -0.1206(4) 0.75022(10)
N3 N 0.26256(13) 0.2830(4) 0.51747(9)
N4 N 0.42501(14) -0.1845(5) 0.57189(11)
C2 C 0.13658(16) 0.4350(5) 0.35922(12)
N5 N 0.30299(13) -0.1280(4) 0.60443(9)
C3 C 0.33935(14) -0.3299(5) 0.74545(11)
N6 N 0.41736(14) -0.3563(5) 0.61622(11)
C4 C 0.25511(18) 0.4530(5) 0.47269(11)
C5 C 0.33718(16) 0.1579(5) 0.51978(11)
C6 C 0.09399(15) 0.2950(5) 0.25418(12)
C7 C 0.16659(17) 0.1216(5) 0.24770(14)
H2 H 0.2125 0.2299 0.2412
H3 H 0.1556 0.0051 0.2133
H4 H 0.1778 0.0194 0.2845
C8 C 0.1818(2) 0.6202(6) 0.45806(12)
C9 C 0.31462(17) -0.4636(6) 0.68489(12)
C10 C 0.02075(17) 0.1410(6) 0.27059(17)
H5 H 0.0357 0.0294 0.3053
H6 H 0.0008 0.0342 0.2362
H7 H -0.0207 0.2616 0.2807
C11 C 0.38540(19) 0.2365(7) 0.47648(13)
H8 H 0.4369 0.1707 0.4722
C12 C 0.0733(3) 0.4544(7) 0.19674(17)
H9 H 0.250(2) -0.471(6) 0.6777(14)
H10 H 0.3376(18) -0.623(7) 0.6851(14)
H11 H 0.137(2) 0.529(7) 0.4762(17)
H12 H 0.187(2) 0.797(8) 0.4743(19)
H13 H 0.1497(16) 0.789(6) 0.3786(13)
H14 H 0.058(3) 0.329(9) 0.166(2)
H15 H 0.117(3) 0.545(9) 0.1862(19)
H16 H 0.035(3) 0.573(10) 0.203(2)
O5 O 0.13605(15) 0.2176(7) 0.59920(11)
H17 H 0.1516 0.1259 0.5699
H18 H 0.1712 0.3352 0.6095
O6 O 0.0471(3) 0.7165(10) 0.5744(2)
H19 H 0.0656 0.6970 0.6117
H20 H 0.0167 0.8517 0.5712
loop_
_geom_bond_atom_site_label_1
_geom_bond_atom_site_label_2
_geom_bond_site_symmetry_1
_geom_bond_site_symmetry_2
S1 C4 1_555 1_555
O1 H1 1_555 1_555
N1 C2 1_555 1_555
N2 N5 1_555 1_555
O2 C2 1_555 1_555
O3 C2 1_555 1_555
C1 N4 1_555 1_555
O4 C3 1_555 1_555
N3 C4 1_555 1_555
N4 N6 1_555 1_555
N5 C1 1_555 1_555
C3 O1 1_555 1_555
N6 N2 1_555 1_555
C4 C8 1_555 1_555
C5 C1 1_555 1_555
C6 O3 1_555 1_555
C7 C6 1_555 1_555
H2 C7 1_555 1_555
H3 C7 1_555 1_555
H4 C7 1_555 1_555
C8 N1 1_555 1_555
C9 N2 1_555 1_555
C10 C6 1_555 1_555
H5 C10 1_555 1_555
H6 C10 1_555 1_555
H7 C10 1_555 1_555
C11 S1 1_555 1_555
H8 C11 1_555 1_555
C12 C6 1_555 1_555
H9 C9 1_555 1_555
H10 C9 1_555 1_555
H11 C8 1_555 1_555
H12 C8 1_555 1_555
H13 N1 1_555 1_555
H14 C12 1_555 1_555
H15 C12 1_555 1_555
H16 C12 1_555 1_555
O5 H17 1_555 1_555
H18 O5 1_555 1_555
O6 H19 1_555 1_555
H20 O6 1_555 1_555
N3 C5 1_555 1_555
C3 C9 1_555 1_555
C5 C11 1_555 1_555

#END
