
#######################################################################
#
#                 Cambridge Crystallographic Data Centre
#                                CCDC 
#
#######################################################################
#
# If this CIF has been generated from an entry in the Cambridge 
# Structural Database, then it will include bibliographic, chemical, 
# crystal, experimental, refinement or atomic coordinate data resulting 
# from the CCDC's data processing and validation procedures.
#
#######################################################################

data_BIJGIN
_chemical_formula_moiety         '2(H3 B1 O3),3(C1 H2 O2),3(H2 O1)'
_chemical_name_systematic        'tris(formic acid) bis(boric acid) trihydrate'
_symmetry_cell_setting           monoclinic
_symmetry_space_group_name_H-M   'P n'
_symmetry_Int_Tables_number      7
_space_group_name_Hall           'P -2yac'
loop_
_symmetry_equiv_pos_site_id
_symmetry_equiv_pos_as_xyz
1 x,y,z
2 1/2+x,-y,1/2+z
_cell_length_a                   10.6446(8)
_cell_length_b                   3.6614(3)
_cell_length_c                   18.5768(13)
_cell_angle_alpha                90
_cell_angle_beta                 90.475(2)
_cell_angle_gamma                90
_cell_volume                     723.99
_exptl_crystal_description       'rod like'
_cell_formula_units_Z            2
loop_
_atom_site_label
_atom_site_type_symbol
_atom_site_fract_x
_atom_site_fract_y
_atom_site_fract_z
O1 O -0.4215(5) -0.4881(15) -0.4755(3)
H1 H -0.366294 -0.538644 -0.444508
O2 O -0.5491(5) -0.5425(17) -0.3726(3)
H2 H -0.613712 -0.431088 -0.359139
O3 O -0.6422(5) -0.5099(19) -0.4879(3)
H3 H -0.620760 -0.518199 -0.531250
B1 B -0.5378(8) -0.511(2) -0.4451(5)
O4 O -0.5754(5) -0.3671(18) -0.6224(3)
O5 O -0.7507(6) -0.5097(19) -0.6835(4)
H4 H -0.789576 -0.584713 -0.727175
C1 C -0.6395(8) -0.412(3) -0.6780(5)
H5 H -0.597666 -0.365825 -0.721999
O6 O -0.7945(6) -0.4905(18) -0.2207(3)
H6 H -0.845473 -0.454543 -0.178908
O7 O -0.7897(5) -0.4370(18) -0.3403(3)
C2 C -0.8355(8) -0.382(2) -0.2802(5)
H7 H -0.910381 -0.241146 -0.279216
O8 O -0.2497(5) -0.6011(19) -0.3728(4)
O9 O -0.0745(6) -0.565(2) -0.4362(3)
H8 H 0.010064 -0.530083 -0.444492
C3 C -0.1372(8) -0.673(2) -0.3840(5)
H9 H -0.095589 -0.824202 -0.349688
O10 O -1.0520(5) -0.3861(18) -0.6866(3)
H10 H -1.128257 -0.404117 -0.698088
O11 O -0.9234(5) -0.4357(17) -0.5824(3)
H11 H -0.829768 -0.500666 -0.591780
O12 O -1.1436(5) -0.3977(17) -0.5709(3)
H12 H -1.122003 -0.442957 -0.528273
B2 B -1.0401(8) -0.398(2) -0.6137(5)
O13 O -0.8946(6) -0.9367(18) -0.7799(4)
H13 H -0.947483 -0.848606 -0.811375
H14 H -0.841837 -1.080855 -0.801411
O14 O 0.1416(7) -0.9817(19) -0.4591(4)
H15 H 0.210856 -0.856902 -0.462714
H16 H 0.124610 -1.112713 -0.497021
O15 O -0.3596(7) 0.0617(18) -0.6006(4)
H17 H -0.383651 0.172178 -0.561609
H18 H -0.279974 0.010759 -0.597298
loop_
_geom_bond_atom_site_label_1
_geom_bond_atom_site_label_2
_geom_bond_site_symmetry_1
_geom_bond_site_symmetry_2
O1 H1 1_555 1_555
O2 H2 1_555 1_555
O3 H3 1_555 1_555
B1 O1 1_555 1_555
O4 C1 1_555 1_555
O5 H4 1_555 1_555
C1 O5 1_555 1_555
H5 C1 1_555 1_555
O6 H6 1_555 1_555
O7 C2 1_555 1_555
C2 O6 1_555 1_555
H7 C2 1_555 1_555
O8 C3 1_555 1_555
O9 H8 1_555 1_555
C3 O9 1_555 1_555
H9 C3 1_555 1_555
O10 H10 1_555 1_555
O11 H11 1_555 1_555
O12 H12 1_555 1_555
B2 O10 1_555 1_555
O13 H13 1_555 1_555
H14 O13 1_555 1_555
O14 H15 1_555 1_555
H16 O14 1_555 1_555
O15 H17 1_555 1_555
H18 O15 1_555 1_555
O2 B1 1_555 1_555
O3 B1 1_555 1_555
O11 B2 1_555 1_555
O12 B2 1_555 1_555

#END
