
#######################################################################
#
#                 Cambridge Crystallographic Data Centre
#                                CCDC 
#
#######################################################################
#
# If this CIF has been generated from an entry in the Cambridge 
# Structural Database, then it will include bibliographic, chemical, 
# crystal, experimental, refinement or atomic coordinate data resulting 
# from the CCDC's data processing and validation procedures.
#
#######################################################################

data_BIJHIO
_chemical_formula_moiety         'C24 H24 B1 F10 N1'
_chemical_name_systematic        
hydrido[bis(pentafluorophenyl)][1-(2,2,6,6-tetramethylpiperidin-1-ium-1-yl)prop-1-en-2-yl]borate
_symmetry_cell_setting           monoclinic
_symmetry_space_group_name_H-M   'P 21/c'
_symmetry_Int_Tables_number      14
_space_group_name_Hall           '-P 2ybc'
loop_
_symmetry_equiv_pos_site_id
_symmetry_equiv_pos_as_xyz
1 x,y,z
2 -x,1/2+y,1/2-z
3 -x,-y,-z
4 x,1/2-y,1/2+z
_cell_length_a                   12.8034(2)
_cell_length_b                   11.3378(2)
_cell_length_c                   18.2647(4)
_cell_angle_alpha                90
_cell_angle_beta                 105.982(1)
_cell_angle_gamma                90
_cell_volume                     2548.87
_exptl_crystal_colour            colorless
_exptl_crystal_description       plate
_cell_formula_units_Z            4
loop_
_atom_site_label
_atom_site_type_symbol
_atom_site_fract_x
_atom_site_fract_y
_atom_site_fract_z
N1 N 0.81100(17) 0.0677(2) 0.15392(13)
H1 H 0.770(2) 0.014(2) 0.1720(15)
C1 C 0.9280(2) 0.0166(3) 0.18456(18)
C2 C 0.9344(2) -0.1014(3) 0.14626(18)
H2 H 1.0101 -0.1280 0.1607
H3 H 0.8918 -0.1595 0.1655
C3 C 0.8935(3) -0.0979(3) 0.06039(19)
H4 H 0.9377 -0.0432 0.0400
H5 H 0.8991 -0.1765 0.0394
C4 C 0.7767(3) -0.0579(3) 0.03799(18)
H6 H 0.7337 -0.1145 0.0582
H7 H 0.7494 -0.0595 -0.0177
C5 C 0.7585(2) 0.0646(3) 0.06574(16)
C6 C 1.0138(2) 0.1026(4) 0.1728(2)
H8 H 1.0856 0.0739 0.1995
H9 H 1.0024 0.1795 0.1927
H10 H 1.0079 0.1091 0.1189
C7 C 0.9450(3) -0.0037(4) 0.26954(19)
H11 H 0.8864 -0.0520 0.2772
H12 H 0.9457 0.0716 0.2949
H13 H 1.0137 -0.0436 0.2906
C8 C 0.8047(3) 0.1595(4) 0.0246(2)
H14 H 0.7727 0.1520 -0.0299
H15 H 0.8828 0.1503 0.0362
H16 H 0.7878 0.2367 0.0412
C9 C 0.6370(2) 0.0861(3) 0.05326(18)
H17 H 0.6259 0.1644 0.0710
H18 H 0.6081 0.0279 0.0814
H19 H 0.5999 0.0794 -0.0006
C10 C 0.7969(2) 0.1827(3) 0.18722(18)
H20 H 0.8310 0.2488 0.1729
C11 C 0.7388(2) 0.1983(3) 0.23615(18)
C12 C 0.7272(3) 0.3257(3) 0.2585(2)
H21 H 0.7715 0.3760 0.2362
H22 H 0.7509 0.3330 0.3135
H23 H 0.6517 0.3495 0.2401
B1 B 0.6754(2) 0.0938(3) 0.26761(19)
H24 H 0.6686(19) 0.017(2) 0.2272(14)
C13 C 0.7393(14) 0.0514(15) 0.3539(6)
F1 F 0.6134(9) -0.1073(11) 0.3357(7)
C14 C 0.7022(11) -0.0492(12) 0.3805(6)
F2 F 0.6985(10) -0.1939(7) 0.4733(5)
C15 C 0.7422(10) -0.0957(9) 0.4525(5)
F3 F 0.8696(9) -0.0851(9) 0.5718(4)
C16 C 0.8287(9) -0.0400(10) 0.5010(4)
F4 F 0.9554(7) 0.1124(10) 0.5274(5)
C17 C 0.8709(8) 0.0597(10) 0.4782(5)
F5 F 0.8740(9) 0.2016(10) 0.3871(7)
C18 C 0.8281(9) 0.1025(11) 0.4060(5)
C19 C 0.5514(2) 0.1340(3) 0.26568(15)
F6 F 0.46720(12) 0.02600(17) 0.15368(9)
C20 C 0.4591(2) 0.0971(3) 0.21142(16)
F7 F 0.26835(13) 0.08864(19) 0.15620(10)
C21 C 0.3552(2) 0.1268(3) 0.21173(17)
F8 F 0.23807(13) 0.22895(19) 0.26942(12)
C22 C 0.3391(2) 0.1971(3) 0.26874(18)
F9 F 0.41208(14) 0.30352(17) 0.38129(10)
C23 C 0.4269(2) 0.2366(3) 0.32432(17)
F10 F 0.61219(13) 0.24614(17) 0.37909(10)
C24 C 0.5294(2) 0.2047(3) 0.32132(16)
C25? C 0.724(2) 0.034(2) 0.3530(10)
F11? F 0.5849(15) -0.110(2) 0.3228(11)
C26? C 0.6728(18) -0.0621(18) 0.3736(9)
F12? F 0.6508(14) -0.2114(13) 0.4598(9)
C27? C 0.7039(14) -0.1165(15) 0.4438(8)
F13? F 0.8218(15) -0.1194(14) 0.5710(7)
C28? C 0.7900(15) -0.0741(15) 0.4998(7)
F14? F 0.9287(12) 0.0716(15) 0.5374(7)
C29? C 0.8456(13) 0.0215(17) 0.4840(7)
F15? F 0.8687(16) 0.1677(15) 0.4012(9)
C30? C 0.8106(17) 0.0730(19) 0.4130(8)
loop_
_geom_bond_atom_site_label_1
_geom_bond_atom_site_label_2
_geom_bond_site_symmetry_1
_geom_bond_site_symmetry_2
N1 H1 1_555 1_555
C1 N1 1_555 1_555
C2 C1 1_555 1_555
H2 C2 1_555 1_555
H3 C2 1_555 1_555
C3 C2 1_555 1_555
H4 C3 1_555 1_555
H5 C3 1_555 1_555
C4 C3 1_555 1_555
H6 C4 1_555 1_555
H7 C4 1_555 1_555
C5 N1 1_555 1_555
C6 C1 1_555 1_555
H8 C6 1_555 1_555
H9 C6 1_555 1_555
H10 C6 1_555 1_555
C7 C1 1_555 1_555
H11 C7 1_555 1_555
H12 C7 1_555 1_555
H13 C7 1_555 1_555
C8 C5 1_555 1_555
H14 C8 1_555 1_555
H15 C8 1_555 1_555
H16 C8 1_555 1_555
C9 C5 1_555 1_555
H17 C9 1_555 1_555
H18 C9 1_555 1_555
H19 C9 1_555 1_555
C10 N1 1_555 1_555
H20 C10 1_555 1_555
C11 C10 1_555 1_555
C12 C11 1_555 1_555
H21 C12 1_555 1_555
H22 C12 1_555 1_555
H23 C12 1_555 1_555
B1 C11 1_555 1_555
H24 B1 1_555 1_555
C13 B1 1_555 1_555
F1 C14 1_555 1_555
C14 C13 1_555 1_555
F2 C15 1_555 1_555
C15 C14 1_555 1_555
F3 C16 1_555 1_555
C16 C15 1_555 1_555
F4 C17 1_555 1_555
C17 C16 1_555 1_555
F5 C18 1_555 1_555
C18 C13 1_555 1_555
C19 B1 1_555 1_555
F6 C20 1_555 1_555
C20 C19 1_555 1_555
F7 C21 1_555 1_555
C21 C20 1_555 1_555
F8 C22 1_555 1_555
C22 C21 1_555 1_555
F9 C23 1_555 1_555
C23 C22 1_555 1_555
F10 C24 1_555 1_555
C24 C19 1_555 1_555
C4 C5 1_555 1_555
C17 C18 1_555 1_555
C23 C24 1_555 1_555

#END
