
#######################################################################
#
#                 Cambridge Crystallographic Data Centre
#                                CCDC 
#
#######################################################################
#
# If this CIF has been generated from an entry in the Cambridge 
# Structural Database, then it will include bibliographic, chemical, 
# crystal, experimental, refinement or atomic coordinate data resulting 
# from the CCDC's data processing and validation procedures.
#
#######################################################################

data_BIJHAG
_chemical_formula_moiety         'C29 H18 F6 N2'
_chemical_name_systematic        
2-[3,5-bis(trifluoromethyl)phenyl]-3-[4-(diphenylamino)phenyl]prop-2-enenitrile
_symmetry_cell_setting           monoclinic
_symmetry_space_group_name_H-M   'P 21'
_symmetry_Int_Tables_number      4
_space_group_name_Hall           'P 2yb'
loop_
_symmetry_equiv_pos_site_id
_symmetry_equiv_pos_as_xyz
1 x,y,z
2 -x,1/2+y,-z
_cell_length_a                   8.9164(6)
_cell_length_b                   16.6045(10)
_cell_length_c                   16.3908(11)
_cell_angle_alpha                90
_cell_angle_beta                 101.409(3)
_cell_angle_gamma                90
_cell_volume                     2378.75
_exptl_crystal_colour            brown
_exptl_crystal_description       block
_cell_formula_units_Z            4
loop_
_atom_site_label
_atom_site_type_symbol
_atom_site_fract_x
_atom_site_fract_y
_atom_site_fract_z
F1 F -1.7311(7) -0.5915(4) -1.3309(5)
F2 F -1.7310(5) -0.6499(6) -1.2158(3)
F3 F -1.7542(6) -0.7162(4) -1.3275(4)
N1 N -0.6170(5) -0.6475(3) -0.7654(3)
C1 C -0.6812(6) -0.6551(4) -0.6926(3)
N2 N -1.3243(7) -0.7064(5) -0.9868(4)
C2 C -1.2179(9) -0.6735(6) -1.4087(4)
C3 C -1.2900(7) -0.6729(4) -1.3334(3)
C4 C -1.1984(7) -0.6788(4) -1.2546(3)
H1 H -1.0932 -0.6848 -1.2493
C5 C -1.2617(7) -0.6757(4) -1.1832(4)
C6 C -1.1652(7) -0.6781(4) -1.0981(3)
C7 C -1.0137(7) -0.6681(4) -1.0799(3)
H2 H -0.9661 -0.6645 -1.1254
C8 C -0.9140(7) -0.6621(4) -0.9998(3)
C9 C -0.7598(7) -0.6839(5) -0.9898(4)
H3 H -0.7223 -0.7022 -1.0355
C10 C -0.6619(7) -0.6788(4) -0.9131(4)
H4 H -0.5604 -0.6945 -0.9082
C11 C -0.7121(6) -0.6508(4) -0.8435(3)
C12 C -0.7742(7) -0.7208(4) -0.6841(3)
H5 H -0.7939 -0.7598 -0.7256
C13 C -0.8369(7) -0.7278(4) -0.6139(4)
H6 H -0.8999 -0.7712 -0.6081
C14 C -0.8050(8) -0.6694(5) -0.5518(4)
H7 H -0.8445 -0.6748 -0.5036
C15 C -1.6822(8) -0.6547(5) -1.2855(4)
C16 C -1.5113(7) -0.6631(4) -1.2736(4)
C17 C -1.4204(7) -0.6659(4) -1.1954(4)
H8 H -1.4659 -0.6612 -1.1492
C18 C -1.4459(8) -0.6658(4) -1.3427(4)
H9 H -1.5070 -0.6629 -1.3956
C19 C -0.9618(7) -0.6324(4) -0.9295(3)
H10 H -1.0627 -0.6158 -0.9342
C20 C -0.8647(7) -0.6272(4) -0.8539(4)
H11 H -0.9011 -0.6074 -0.8084
C21 C -0.7182(8) -0.6057(5) -0.5609(4)
H12 H -0.6999 -0.5664 -0.5198
C22 C -0.6558(7) -0.5981(4) -0.6311(4)
H13 H -0.5955 -0.5536 -0.6367
C23 C -0.4573(6) -0.6289(4) -0.7528(3)
C24 C -0.3588(7) -0.6605(5) -0.6857(4)
H14 H -0.3956 -0.6974 -0.6518
C25 C -0.2075(8) -0.6390(5) -0.6672(5)
H15 H -0.1436 -0.6591 -0.6197
C26 C -0.1513(8) -0.5878(6) -0.7191(5)
H16 H -0.0479 -0.5748 -0.7084
C27 C -0.2477(10) -0.5555(5) -0.7875(5)
H17 H -0.2092 -0.5199 -0.8220
C28 C -0.4023(7) -0.5757(4) -0.8051(4)
H18 H -0.4675 -0.5538 -0.8511
C29 C -1.2518(7) -0.6941(4) -1.0336(4)
F4 F -1.0987(13) -0.6413(10) -1.4029(5)
F5 F -1.177(2) -0.7409(7) -1.4224(9)
F6 F -1.2962(10) -0.6649(16) -1.4721(4)
F7 F -0.0024(8) -0.4877(5) -0.5022(6)
F8 F 0.0186(6) -0.3649(4) -0.4920(4)
F9 F 0.0008(5) -0.4204(5) -0.6087(3)
N3 N -0.3979(7) -0.3489(4) -0.8357(4)
C30 C -0.2919(7) -0.4137(4) -0.4831(3)
H19 H -0.2329 -0.4216 -0.4302
C31 C -0.4463(6) -0.4037(4) -0.4939(3)
C32 C -0.4725(7) -0.3669(4) -0.7906(4)
C33 C -0.0537(8) -0.4200(6) -0.5404(4)
C34 C -0.2243(6) -0.4118(4) -0.5524(3)
C35 C -0.3116(6) -0.4022(4) -0.6311(3)
H20 H -0.2646 -0.4021 -0.6770
C36 C -0.4673(6) -0.3927(3) -0.6424(3)
C37 C -0.5598(6) -0.3851(3) -0.7277(3)
C38 C -0.7152(7) -0.3970(4) -0.7494(3)
H21 H -0.7645 -0.4051 -0.7052
C39 C -0.8120(6) -0.3985(4) -0.8303(3)
C40 C -0.9693(7) -0.3846(4) -0.8393(4)
H22 H -1.0077 -0.3736 -0.7917
C41 C -1.0700(6) -0.3861(4) -0.9143(3)
H23 H -1.1729 -0.3744 -0.9174
C42 C -1.0146(7) -0.4059(4) -0.9866(3)
N4 N -1.1097(6) -0.4097(4) -1.0647(3)
C43 C -1.2652(7) -0.4289(4) -1.0770(3)
C44 C -1.3660(9) -0.3898(6) -1.1418(5)
H24 H -1.3300 -0.3494 -1.1723
C45 C -1.5208(8) -0.4120(8) -1.1605(5)
H25 H -1.5870 -0.3873 -1.2043
C46 C -1.5747(8) -0.4700(6) -1.1142(5)
H26 H -1.6766 -0.4859 -1.1278
C47 C -0.5359(6) -0.3926(3) -0.5728(3)
H27 H -0.6409 -0.3851 -0.5792
C48 C -1.4785(9) -0.5043(5) -1.0481(4)
H28 H -1.5171 -0.5400 -1.0137
C49 C -1.3257(8) -0.4865(4) -1.0322(4)
H29 H -1.2608 -0.5141 -0.9900
C50 C -1.0447(6) -0.4018(4) -1.1373(3)
C51 C -1.0673(9) -0.4607(5) -1.1972(4)
H30 H -1.1268 -0.5057 -1.1919
C52 C -0.9988(10) -0.4517(7) -1.2664(5)
H31 H -1.0135 -0.4913 -1.3073
C53 C -0.9126(9) -0.3875(7) -1.2754(4)
H32 H -0.8660 -0.3830 -1.3212
C54 C -0.8944(9) -0.3288(5) -1.2159(5)
H33 H -0.8362 -0.2836 -1.2221
C55 C -0.9594(8) -0.3349(4) -1.1475(4)
H34 H -0.9461 -0.2940 -1.1080
C56 C -0.8598(7) -0.4217(5) -0.9788(3)
H35 H -0.8217 -0.4355 -1.0258
C57 C -0.7605(7) -0.4172(4) -0.9023(4)
H36 H -0.6569 -0.4270 -0.8993
C58 C -0.5211(7) -0.4032(5) -0.4202(4)
F10 F -0.6537(8) -0.4250(9) -0.4324(3)
F11 F -0.508(2) -0.3475(7) -0.3810(8)
F12 F -0.4624(12) -0.4534(10) -0.3668(6)
loop_
_geom_bond_atom_site_label_1
_geom_bond_atom_site_label_2
_geom_bond_site_symmetry_1
_geom_bond_site_symmetry_2
F1 C15 1_555 1_555
F2 C15 1_555 1_555
F3 C15 1_555 1_555
N1 C1 1_555 1_555
C1 C12 1_555 1_555
N2 C29 1_555 1_555
C2 C3 1_555 1_555
C3 C4 1_555 1_555
C4 H1 1_555 1_555
C5 C4 1_555 1_555
C6 C5 1_555 1_555
C7 C6 1_555 1_555
H2 C7 1_555 1_555
C8 C7 1_555 1_555
C9 C8 1_555 1_555
H3 C9 1_555 1_555
C10 C9 1_555 1_555
H4 C10 1_555 1_555
C11 N1 1_555 1_555
C12 H5 1_555 1_555
C13 C12 1_555 1_555
H6 C13 1_555 1_555
C14 C13 1_555 1_555
H7 C14 1_555 1_555
C15 C16 1_555 1_555
C16 C17 1_555 1_555
C17 C5 1_555 1_555
H8 C17 1_555 1_555
C18 C3 1_555 1_555
H9 C18 1_555 1_555
C19 C8 1_555 1_555
H10 C19 1_555 1_555
C20 C11 1_555 1_555
H11 C20 1_555 1_555
C21 C14 1_555 1_555
H12 C21 1_555 1_555
C22 C1 1_555 1_555
H13 C22 1_555 1_555
C23 N1 1_555 1_555
C24 C23 1_555 1_555
H14 C24 1_555 1_555
C25 C24 1_555 1_555
H15 C25 1_555 1_555
C26 C25 1_555 1_555
H16 C26 1_555 1_555
C27 C26 1_555 1_555
H17 C27 1_555 1_555
C28 C23 1_555 1_555
H18 C28 1_555 1_555
C29 C6 1_555 1_555
F4 C2 1_555 1_555
F5 C2 1_555 1_555
F6 C2 1_555 1_555
F7 C33 1_555 1_555
F8 C33 1_555 1_555
F9 C33 1_555 1_555
N3 C32 1_555 1_555
C30 H19 1_555 1_555
C31 C30 1_555 1_555
C32 C37 1_555 1_555
C33 C34 1_555 1_555
C34 C30 1_555 1_555
C35 C34 1_555 1_555
H20 C35 1_555 1_555
C36 C35 1_555 1_555
C37 C36 1_555 1_555
C38 C37 1_555 1_555
H21 C38 1_555 1_555
C39 C38 1_555 1_555
C40 C39 1_555 1_555
H22 C40 1_555 1_555
C41 C40 1_555 1_555
H23 C41 1_555 1_555
C42 C41 1_555 1_555
N4 C42 1_555 1_555
C43 N4 1_555 1_555
C44 C43 1_555 1_555
H24 C44 1_555 1_555
C45 C44 1_555 1_555
H25 C45 1_555 1_555
C46 C45 1_555 1_555
H26 C46 1_555 1_555
C47 C31 1_555 1_555
H27 C47 1_555 1_555
C48 C46 1_555 1_555
H28 C48 1_555 1_555
C49 C43 1_555 1_555
H29 C49 1_555 1_555
C50 N4 1_555 1_555
C51 C50 1_555 1_555
H30 C51 1_555 1_555
C52 C51 1_555 1_555
H31 C52 1_555 1_555
C53 C52 1_555 1_555
H32 C53 1_555 1_555
C54 C53 1_555 1_555
H33 C54 1_555 1_555
C55 C50 1_555 1_555
H34 C55 1_555 1_555
C56 C42 1_555 1_555
H35 C56 1_555 1_555
C57 C39 1_555 1_555
H36 C57 1_555 1_555
C58 C31 1_555 1_555
F10 C58 1_555 1_555
F11 C58 1_555 1_555
F12 C58 1_555 1_555
C10 C11 1_555 1_555
C16 C18 1_555 1_555
C19 C20 1_555 1_555
C21 C22 1_555 1_555
C27 C28 1_555 1_555
C36 C47 1_555 1_555
C48 C49 1_555 1_555
C54 C55 1_555 1_555
C56 C57 1_555 1_555

#END
