
#######################################################################
#
#                 Cambridge Crystallographic Data Centre
#                                CCDC 
#
#######################################################################
#
# If this CIF has been generated from an entry in the Cambridge 
# Structural Database, then it will include bibliographic, chemical, 
# crystal, experimental, refinement or atomic coordinate data resulting 
# from the CCDC's data processing and validation procedures.
#
#######################################################################

data_BIJJEM
_chemical_formula_moiety         'C29 H23 B1 F15 N1 Si1'
_chemical_name_systematic        
(2-[bis(propan-2-yl)iminio]-1-(trimethylsilyl)ethenyl)(tris(pentafluorophenyl))borate
_symmetry_cell_setting           monoclinic
_symmetry_space_group_name_H-M   'P 21/n'
_symmetry_Int_Tables_number      14
_space_group_name_Hall           '-P 2yn'
loop_
_symmetry_equiv_pos_site_id
_symmetry_equiv_pos_as_xyz
1 x,y,z
2 1/2-x,1/2+y,1/2-z
3 -x,-y,-z
4 1/2+x,1/2-y,1/2+z
_cell_length_a                   12.6697(4)
_cell_length_b                   17.9299(6)
_cell_length_c                   13.6897(4)
_cell_angle_alpha                90
_cell_angle_beta                 100.9250(10)
_cell_angle_gamma                90
_cell_volume                     3053.48
_exptl_crystal_colour            colorless
_exptl_crystal_description       plate
_cell_formula_units_Z            4
loop_
_atom_site_label
_atom_site_type_symbol
_atom_site_fract_x
_atom_site_fract_y
_atom_site_fract_z
N1 N 0.11515(10) 0.19388(7) 0.50803(9)
C1 C 0.20995(11) 0.24319(8) 0.37307(11)
C2 C 0.16240(11) 0.21963(8) 0.44092(11)
C3 C -0.00417(12) 0.20407(9) 0.50045(12)
H1 H -0.0265 0.1764 0.5566
C4 C -0.06516(14) 0.17217(12) 0.40384(14)
H2 H -0.0469 0.2001 0.3478
H3 H -0.1426 0.1761 0.4025
H4 H -0.0456 0.1197 0.3986
C5 C -0.02843(14) 0.28602(10) 0.51139(14)
H5 H 0.0112 0.3043 0.5754
H6 H -0.1057 0.2926 0.5086
H7 H -0.0064 0.3142 0.4572
C6 C 0.17816(14) 0.15296(10) 0.59643(12)
H8 H 0.2555 0.1531 0.5902
C7 C 0.14100(17) 0.07230(11) 0.59543(15)
H9 H 0.0669 0.0705 0.6065
H10 H 0.1878 0.0445 0.6483
H11 H 0.1443 0.0498 0.5308
C8 C 0.16918(16) 0.19224(12) 0.69267(13)
H12 H 0.191 0.2445 0.6892
H13 H 0.2161 0.1676 0.7485
H14 H 0.0946 0.19 0.7025
Si1 Si 0.21592(3) 0.16727(2) 0.27453(3)
C9 C 0.08463(16) 0.16493(11) 0.18605(13)
H15 H 0.0709 0.2137 0.1537
H16 H 0.0271 0.1533 0.2224
H17 H 0.0869 0.1266 0.1355
C10 C 0.24125(16) 0.07664(9) 0.34040(13)
H18 H 0.2578 0.0386 0.2941
H19 H 0.1771 0.0617 0.3659
H20 H 0.3022 0.0818 0.396
C11 C 0.32404(18) 0.18580(11) 0.20374(17)
H21 H 0.3935 0.1876 0.2497
H22 H 0.3107 0.2337 0.1691
H23 H 0.3252 0.1459 0.155
B1 B 0.25307(13) 0.33131(9) 0.36558(13)
C12 C 0.38512(11) 0.33826(8) 0.38739(10)
F1 F 0.42843(7) 0.21157(5) 0.42882(7)
C13 C 0.46030(12) 0.28226(8) 0.41541(11)
F2 F 0.63914(7) 0.23663(5) 0.45716(8)
C14 C 0.57020(12) 0.29372(8) 0.43257(11)
F3 F 0.71695(7) 0.37588(5) 0.44292(7)
C15 C 0.61038(11) 0.36443(9) 0.42567(11)
F4 F 0.57720(7) 0.49235(5) 0.39538(8)
C16 C 0.53957(12) 0.42278(8) 0.40185(11)
F5 F 0.36591(7) 0.46818(5) 0.35799(7)
C17 C 0.43102(12) 0.40855(8) 0.38358(11)
C18 C 0.21787(11) 0.38275(8) 0.45439(11)
F6 F 0.31477(7) 0.30050(5) 0.57544(6)
C19 C 0.25347(11) 0.36274(9) 0.55339(12)
F7 F 0.27180(9) 0.37955(7) 0.72755(7)
C20 C 0.23325(13) 0.40271(10) 0.63406(12)
F8 F 0.15437(9) 0.50801(7) 0.69516(9)
C21 C 0.17483(13) 0.46777(10) 0.61801(14)
F9 F 0.08430(7) 0.55544(5) 0.50522(8)
C22 C 0.13993(12) 0.49138(9) 0.52247(14)
F10 F 0.12747(7) 0.48065(5) 0.35301(7)
C23 C 0.16217(11) 0.45006(8) 0.44372(12)
C24 C 0.19833(11) 0.35860(8) 0.25174(11)
F11 F 0.02428(7) 0.34770(5) 0.29040(7)
C25 C 0.08696(12) 0.36498(8) 0.22366(12)
F12 F -0.07417(7) 0.39577(5) 0.11255(7)
C26 C 0.03371(12) 0.38910(8) 0.13198(12)
F13 F 0.04179(8) 0.43039(5) -0.03057(7)
C27 C 0.09142(13) 0.40727(8) 0.05953(11)
F14 F 0.25984(8) 0.41660(5) 0.01179(7)
C28 C 0.20127(12) 0.40012(8) 0.08137(11)
F15 F 0.36050(7) 0.37154(5) 0.18686(6)
C29 C 0.25165(11) 0.37645(8) 0.17494(11)
loop_
_geom_bond_atom_site_label_1
_geom_bond_atom_site_label_2
_geom_bond_site_symmetry_1
_geom_bond_site_symmetry_2
N1 C2 1_555 1_555
C1 C2 1_555 1_555
C3 N1 1_555 1_555
H1 C3 1_555 1_555
C4 C3 1_555 1_555
H2 C4 1_555 1_555
H3 C4 1_555 1_555
H4 C4 1_555 1_555
C5 C3 1_555 1_555
H5 C5 1_555 1_555
H6 C5 1_555 1_555
H7 C5 1_555 1_555
C6 N1 1_555 1_555
H8 C6 1_555 1_555
C7 C6 1_555 1_555
H9 C7 1_555 1_555
H10 C7 1_555 1_555
H11 C7 1_555 1_555
C8 C6 1_555 1_555
H12 C8 1_555 1_555
H13 C8 1_555 1_555
H14 C8 1_555 1_555
Si1 C1 1_555 1_555
C9 Si1 1_555 1_555
H15 C9 1_555 1_555
H16 C9 1_555 1_555
H17 C9 1_555 1_555
C10 Si1 1_555 1_555
H18 C10 1_555 1_555
H19 C10 1_555 1_555
H20 C10 1_555 1_555
C11 Si1 1_555 1_555
H21 C11 1_555 1_555
H22 C11 1_555 1_555
H23 C11 1_555 1_555
B1 C1 1_555 1_555
C12 B1 1_555 1_555
F1 C13 1_555 1_555
C13 C12 1_555 1_555
F2 C14 1_555 1_555
C14 C13 1_555 1_555
F3 C15 1_555 1_555
C15 C14 1_555 1_555
F4 C16 1_555 1_555
C16 C15 1_555 1_555
F5 C17 1_555 1_555
C17 C12 1_555 1_555
C18 B1 1_555 1_555
F6 C19 1_555 1_555
C19 C18 1_555 1_555
F7 C20 1_555 1_555
C20 C19 1_555 1_555
F8 C21 1_555 1_555
C21 C20 1_555 1_555
F9 C22 1_555 1_555
C22 C21 1_555 1_555
F10 C23 1_555 1_555
C23 C18 1_555 1_555
C24 B1 1_555 1_555
F11 C25 1_555 1_555
C25 C24 1_555 1_555
F12 C26 1_555 1_555
C26 C25 1_555 1_555
F13 C27 1_555 1_555
C27 C26 1_555 1_555
F14 C28 1_555 1_555
C28 C27 1_555 1_555
F15 C29 1_555 1_555
C29 C24 1_555 1_555
C16 C17 1_555 1_555
C22 C23 1_555 1_555
C28 C29 1_555 1_555

#END
