
#######################################################################
#
#                 Cambridge Crystallographic Data Centre
#                                CCDC 
#
#######################################################################
#
# If this CIF has been generated from an entry in the Cambridge 
# Structural Database, then it will include bibliographic, chemical, 
# crystal, experimental, refinement or atomic coordinate data resulting 
# from the CCDC's data processing and validation procedures.
#
#######################################################################

data_BIJKAJ
_chemical_name_common            
{3-[bis(propan-2-yl)amino]-N,N'-bis(propan-2-yl)-2-(trimethylsilyl)prop-2-enimidamidato}[bis(pentafluorophenyl)]boron
_chemical_formula_moiety         'C30 H38 B1 F10 N3 Si1'
_chemical_name_systematic        
N-{2-[2,2-bis(pentafluorophenyl)-1,3-bis(propan-2-yl)-1,2-dihydro-1,3,2-diazaboret-4-yl]-2-(trimethylsilyl)ethenyl}-N-(propan-2-yl)propan-2-amine
_symmetry_cell_setting           monoclinic
_symmetry_space_group_name_H-M   'P 21/n'
_symmetry_Int_Tables_number      14
_space_group_name_Hall           '-P 2yn'
loop_
_symmetry_equiv_pos_site_id
_symmetry_equiv_pos_as_xyz
1 x,y,z
2 1/2-x,1/2+y,1/2-z
3 -x,-y,-z
4 1/2+x,1/2-y,1/2+z
_cell_length_a                   13.5304(5)
_cell_length_b                   17.4187(6)
_cell_length_c                   14.8740(5)
_cell_angle_alpha                90
_cell_angle_beta                 106.5560(10)
_cell_angle_gamma                90
_cell_volume                     3360.2
_exptl_crystal_colour            colorless
_exptl_crystal_description       plate
_cell_formula_units_Z            4
loop_
_atom_site_label
_atom_site_type_symbol
_atom_site_fract_x
_atom_site_fract_y
_atom_site_fract_z
B1 B 0.67696(15) 0.36940(11) 0.33124(15)
C1 C 0.60141(13) 0.22552(10) 0.46362(12)
N1 N 0.57941(11) 0.34430(8) 0.36181(10)
Si1 Si 0.60618(4) 0.12100(3) 0.43328(4)
C2 C 0.57100(13) 0.26389(10) 0.53220(13)
H1 H 0.5733 0.3181 0.526
N2 N 0.71941(11) 0.28914(8) 0.37907(10)
C3 C 0.63142(13) 0.28170(10) 0.40270(12)
N3 N 0.53878(12) 0.24214(8) 0.60599(11)
C4 C 0.46690(13) 0.35307(10) 0.32882(13)
H2 H 0.4376 0.3336 0.3791
C5 C 0.43813(15) 0.43724(11) 0.31252(16)
H3 H 0.4676 0.4661 0.3705
H4 H 0.3629 0.4425 0.2936
H5 H 0.4654 0.4575 0.2629
C6 C 0.42101(16) 0.30584(13) 0.24082(16)
H6 H 0.4446 0.3264 0.1891
H7 H 0.3456 0.3084 0.2242
H8 H 0.4433 0.2523 0.2524
C7 C 0.81843(13) 0.25506(10) 0.43132(13)
H9 H 0.8037 0.2024 0.4509
C8 C 0.87149(15) 0.29964(11) 0.52026(13)
H10 H 0.8912 0.3506 0.5033
H11 H 0.9332 0.2718 0.5557
H12 H 0.8241 0.3052 0.5589
C9 C 0.88744(14) 0.24618(11) 0.36722(14)
H13 H 0.8522 0.2148 0.3128
H14 H 0.952 0.2211 0.4016
H15 H 0.9026 0.2969 0.3459
C10 C 0.51608(17) 0.30329(11) 0.66723(14)
H16 H 0.4934 0.277 0.7178
C11 C 0.6126(2) 0.34938(13) 0.71540(15)
H17 H 0.6666 0.3145 0.7508
H18 H 0.5962 0.3867 0.7584
H19 H 0.6369 0.3765 0.668
C12 C 0.4271(2) 0.35424(13) 0.61382(17)
H20 H 0.4479 0.3834 0.5658
H21 H 0.4089 0.3899 0.6576
H22 H 0.3673 0.3222 0.5837
C13 C 0.52086(14) 0.16223(10) 0.62838(13)
H23 H 0.5412 0.129 0.5818
C14 C 0.40678(15) 0.14774(12) 0.61670(15)
H24 H 0.3844 0.1785 0.6625
H25 H 0.396 0.0932 0.6269
H26 H 0.3666 0.1622 0.5532
C15 C 0.58832(16) 0.13906(12) 0.72560(14)
H27 H 0.6609 0.1485 0.7298
H28 H 0.5784 0.0844 0.7359
H29 H 0.5689 0.1694 0.7734
C16 C 0.64703(16) 0.11028(11) 0.32408(14)
H30 H 0.6031 0.1423 0.2744
H31 H 0.6404 0.0564 0.3042
H32 H 0.719 0.1265 0.3364
C17 C 0.69925(15) 0.06498(11) 0.52829(14)
H33 H 0.7679 0.0882 0.5419
H34 H 0.7023 0.0119 0.5076
H35 H 0.6762 0.0656 0.5851
C18 C 0.47340(15) 0.07786(11) 0.40239(15)
H36 H 0.4461 0.0812 0.4566
H37 H 0.4769 0.0239 0.3849
H38 H 0.428 0.106 0.3495
C19 C 0.74252(13) 0.44105(10) 0.39036(12)
C20 C 0.82976(14) 0.46863(10) 0.36910(12)
F1 F 0.86054(8) 0.43556(6) 0.29881(7)
C21 C 0.89065(13) 0.52813(10) 0.41553(13)
F2 F 0.97477(8) 0.55051(6) 0.39121(8)
C22 C 0.86600(14) 0.56297(10) 0.48946(13)
F3 F 0.92559(9) 0.61941(6) 0.53767(8)
C23 C 0.78109(15) 0.53786(11) 0.51409(13)
F4 F 0.75618(9) 0.57164(7) 0.58635(8)
C24 C 0.72211(14) 0.47816(10) 0.46555(13)
F5 F 0.64108(8) 0.45743(6) 0.49669(8)
C25 C 0.65685(13) 0.37987(10) 0.21835(12)
C26 C 0.63417(13) 0.45138(10) 0.17568(12)
F6 F 0.62538(8) 0.51382(6) 0.22760(7)
C27 C 0.61887(13) 0.46524(10) 0.08153(13)
F7 F 0.59729(8) 0.53644(6) 0.04632(7)
C28 C 0.62553(14) 0.40518(11) 0.02348(13)
F8 F 0.61088(9) 0.41706(7) -0.06874(7)
C29 C 0.64671(14) 0.33276(11) 0.06097(13)
F9 F 0.65539(9) 0.27378(6) 0.00509(8)
C30 C 0.66092(13) 0.32134(10) 0.15580(13)
F10 F 0.68115(8) 0.24829(6) 0.18588(7)
loop_
_geom_bond_atom_site_label_1
_geom_bond_atom_site_label_2
_geom_bond_site_symmetry_1
_geom_bond_site_symmetry_2
B1 N1 1_555 1_555
C1 Si1 1_555 1_555
N1 C3 1_555 1_555
Si1 C16 1_555 1_555
C2 C1 1_555 1_555
H1 C2 1_555 1_555
N2 B1 1_555 1_555
C3 C1 1_555 1_555
N3 C2 1_555 1_555
C4 N1 1_555 1_555
H2 C4 1_555 1_555
C5 C4 1_555 1_555
H3 C5 1_555 1_555
H4 C5 1_555 1_555
H5 C5 1_555 1_555
C6 C4 1_555 1_555
H6 C6 1_555 1_555
H7 C6 1_555 1_555
H8 C6 1_555 1_555
C7 N2 1_555 1_555
H9 C7 1_555 1_555
C8 C7 1_555 1_555
H10 C8 1_555 1_555
H11 C8 1_555 1_555
H12 C8 1_555 1_555
C9 C7 1_555 1_555
H13 C9 1_555 1_555
H14 C9 1_555 1_555
H15 C9 1_555 1_555
C10 N3 1_555 1_555
H16 C10 1_555 1_555
C11 C10 1_555 1_555
H17 C11 1_555 1_555
H18 C11 1_555 1_555
H19 C11 1_555 1_555
C12 C10 1_555 1_555
H20 C12 1_555 1_555
H21 C12 1_555 1_555
H22 C12 1_555 1_555
C13 N3 1_555 1_555
H23 C13 1_555 1_555
C14 C13 1_555 1_555
H24 C14 1_555 1_555
H25 C14 1_555 1_555
H26 C14 1_555 1_555
C15 C13 1_555 1_555
H27 C15 1_555 1_555
H28 C15 1_555 1_555
H29 C15 1_555 1_555
C16 H30 1_555 1_555
H31 C16 1_555 1_555
H32 C16 1_555 1_555
C17 Si1 1_555 1_555
H33 C17 1_555 1_555
H34 C17 1_555 1_555
H35 C17 1_555 1_555
C18 Si1 1_555 1_555
H36 C18 1_555 1_555
H37 C18 1_555 1_555
H38 C18 1_555 1_555
C19 B1 1_555 1_555
C20 C19 1_555 1_555
F1 C20 1_555 1_555
C21 C20 1_555 1_555
F2 C21 1_555 1_555
C22 C21 1_555 1_555
F3 C22 1_555 1_555
C23 C22 1_555 1_555
F4 C23 1_555 1_555
C24 C19 1_555 1_555
F5 C24 1_555 1_555
C25 B1 1_555 1_555
C26 C25 1_555 1_555
F6 C26 1_555 1_555
C27 C26 1_555 1_555
F7 C27 1_555 1_555
C28 C27 1_555 1_555
F8 C28 1_555 1_555
C29 C28 1_555 1_555
F9 C29 1_555 1_555
C30 C25 1_555 1_555
F10 C30 1_555 1_555
N2 C3 1_555 1_555
C23 C24 1_555 1_555
C29 C30 1_555 1_555

#END
