
#######################################################################
#
#                 Cambridge Crystallographic Data Centre
#                                CCDC 
#
#######################################################################
#
# If this CIF has been generated from an entry in the Cambridge 
# Structural Database, then it will include bibliographic, chemical, 
# crystal, experimental, refinement or atomic coordinate data resulting 
# from the CCDC's data processing and validation procedures.
#
#######################################################################

data_BIJMUF
_chemical_formula_moiety         'C36 H26 N2 O2'
_chemical_name_systematic        
{(1,2-diphenylethene-1,2-diyl)bis[(1H-pyrrole-5,2-diyl)]}bis(phenylmethanone)
_symmetry_cell_setting           monoclinic
_symmetry_space_group_name_H-M   'P 2/n'
_symmetry_Int_Tables_number      13
_space_group_name_Hall           '-P 2yac'
loop_
_symmetry_equiv_pos_site_id
_symmetry_equiv_pos_as_xyz
1 x,y,z
2 1/2-x,y,1/2-z
3 -x,-y,-z
4 1/2+x,-y,1/2+z
_cell_length_a                   12.5676(14)
_cell_length_b                   5.7449(7)
_cell_length_c                   18.506(2)
_cell_angle_alpha                90
_cell_angle_beta                 90.262(11)
_cell_angle_gamma                90
_cell_volume                     1336.11
_exptl_crystal_colour            'dark yellow'
_exptl_crystal_description       needle
_cell_formula_units_Z            2
loop_
_atom_site_label
_atom_site_type_symbol
_atom_site_fract_x
_atom_site_fract_y
_atom_site_fract_z
O1 O 0.42913(15) 0.3062(4) 0.76373(10)
N1 N 0.51401(16) 0.2214(4) 0.63162(11)
H1 H 0.4557 0.1479 0.6400
C1 C 0.6544(2) 0.4472(5) 0.64669(13)
H2 H 0.7043 0.5484 0.6667
C2 C 0.62993(19) 0.0766(4) 0.44855(13)
C3 C 0.5622(2) 0.3722(4) 0.67941(13)
C4 C 0.6600(2) 0.3454(5) 0.57882(13)
H3 H 0.7141 0.3681 0.5454
C5 C 0.54500(19) 0.0641(4) 0.50510(13)
C6 C 0.7047(2) -0.1015(5) 0.44226(14)
H4 H 0.7017 -0.2286 0.4733
C7 C 0.5712(2) 0.2039(4) 0.56891(13)
C8 C 0.5544(2) 0.5914(5) 0.79925(14)
C9 C 0.6015(2) 0.7998(5) 0.77744(15)
H5 H 0.6076 0.8337 0.7285
C10 C 0.5098(2) 0.4158(5) 0.74794(14)
C11 C 0.7836(2) -0.0913(5) 0.39019(15)
H6 H 0.8325 -0.2120 0.3860
C12 C 0.5444(2) 0.5468(5) 0.87337(15)
H7 H 0.5118 0.4104 0.8888
C13 C 0.6366(2) 0.2665(5) 0.40223(14)
H8 H 0.5870 0.3861 0.4057
C14 C 0.6390(2) 0.9553(5) 0.82820(15)
H9 H 0.6710 1.0929 0.8132
C15 C 0.6298(2) 0.9093(5) 0.90075(16)
H10 H 0.6552 1.0158 0.9345
C16 C 0.7894(2) 0.0993(6) 0.34446(15)
H11 H 0.8422 0.1063 0.3095
C17 C 0.5826(2) 0.7041(6) 0.92364(16)
H12 H 0.5766 0.6725 0.9727
C18 C 0.7166(2) 0.2797(5) 0.35069(16)
H13 H 0.7213 0.4088 0.3206
O1B O 0.57087(15) -0.3062(4) 0.23627(10)
N1B N 0.48599(16) -0.2214(4) 0.36838(11)
H1B H 0.5443 -0.1479 0.3600
C1B C 0.3456(2) -0.4472(5) 0.35331(13)
H2B H 0.2957 -0.5484 0.3333
C2B C 0.37007(19) -0.0766(4) 0.55145(13)
C3B C 0.4378(2) -0.3722(4) 0.32059(13)
C4B C 0.3400(2) -0.3454(5) 0.42118(13)
H3B H 0.2859 -0.3681 0.4546
C5B C 0.45500(19) -0.0641(4) 0.49490(13)
C6B C 0.2953(2) 0.1015(5) 0.55774(14)
H4B H 0.2983 0.2286 0.5267
C7B C 0.4288(2) -0.2039(4) 0.43109(13)
C8B C 0.4456(2) -0.5914(5) 0.20075(14)
C9B C 0.3985(2) -0.7998(5) 0.22256(15)
H5B H 0.3924 -0.8337 0.2715
C10B C 0.4902(2) -0.4158(5) 0.25206(14)
C11B C 0.2164(2) 0.0913(5) 0.60981(15)
H6B H 0.1675 0.2120 0.6140
C12B C 0.4556(2) -0.5468(5) 0.12663(15)
H7B H 0.4882 -0.4104 0.1112
C13B C 0.3634(2) -0.2665(5) 0.59777(14)
H8B H 0.4130 -0.3861 0.5943
C14B C 0.3610(2) -0.9553(5) 0.17180(15)
H9B H 0.3290 -1.0929 0.1868
C15B C 0.3702(2) -0.9093(5) 0.09925(16)
H10B H 0.3448 -1.0158 0.0655
C16B C 0.2106(2) -0.0993(6) 0.65554(15)
H11B H 0.1578 -0.1063 0.6905
C17B C 0.4174(2) -0.7041(6) 0.07636(16)
H12B H 0.4234 -0.6725 0.0273
C18B C 0.2834(2) -0.2797(5) 0.64931(16)
H13B H 0.2787 -0.4088 0.6794
loop_
_geom_bond_atom_site_label_1
_geom_bond_atom_site_label_2
_geom_bond_site_symmetry_1
_geom_bond_site_symmetry_2
O1 C10 1_555 1_555
N1 H1 1_555 1_555
C1 H2 1_555 1_555
C2 C5 1_555 1_555
C3 N1 1_555 1_555
C4 C1 1_555 1_555
H3 C4 1_555 1_555
C5 C7 1_555 1_555
C6 C2 1_555 1_555
H4 C6 1_555 1_555
C7 N1 1_555 1_555
C8 C9 1_555 1_555
C9 H5 1_555 1_555
C10 C3 1_555 1_555
C11 C6 1_555 1_555
H6 C11 1_555 1_555
C12 C8 1_555 1_555
H7 C12 1_555 1_555
C13 C2 1_555 1_555
H8 C13 1_555 1_555
C14 C9 1_555 1_555
H9 C14 1_555 1_555
C15 C14 1_555 1_555
H10 C15 1_555 1_555
C16 C11 1_555 1_555
H11 C16 1_555 1_555
C17 C12 1_555 1_555
H12 C17 1_555 1_555
C18 C13 1_555 1_555
H13 C18 1_555 1_555
O1B C10B 1_555 1_555
N1B H1B 1_555 1_555
C1B H2B 1_555 1_555
C2B C5B 1_555 1_555
C3B N1B 1_555 1_555
C4B C1B 1_555 1_555
H3B C4B 1_555 1_555
C5B C5 1_555 1_555
C6B C2B 1_555 1_555
H4B C6B 1_555 1_555
C7B N1B 1_555 1_555
C8B C9B 1_555 1_555
C9B H5B 1_555 1_555
C10B C3B 1_555 1_555
C11B C6B 1_555 1_555
H6B C11B 1_555 1_555
C12B C8B 1_555 1_555
H7B C12B 1_555 1_555
C13B C2B 1_555 1_555
H8B C13B 1_555 1_555
C14B C9B 1_555 1_555
H9B C14B 1_555 1_555
C15B C14B 1_555 1_555
H10B C15B 1_555 1_555
C16B C11B 1_555 1_555
H11B C16B 1_555 1_555
C17B C12B 1_555 1_555
H12B C17B 1_555 1_555
C18B C13B 1_555 1_555
H13B C18B 1_555 1_555
C1 C3 1_555 1_555
C4 C7 1_555 1_555
C8 C10 1_555 1_555
C15 C17 1_555 1_555
C16 C18 1_555 1_555
C1B C3B 1_555 1_555
C4B C7B 1_555 1_555
C5B C7B 1_555 1_555
C8B C10B 1_555 1_555
C15B C17B 1_555 1_555
C16B C18B 1_555 1_555

#END
