
#######################################################################
#
#                 Cambridge Crystallographic Data Centre
#                                CCDC 
#
#######################################################################
#
# If this CIF has been generated from an entry in the Cambridge 
# Structural Database, then it will include bibliographic, chemical, 
# crystal, experimental, refinement or atomic coordinate data resulting 
# from the CCDC's data processing and validation procedures.
#
#######################################################################

data_BIJVEV
_chemical_formula_moiety         'C18 H14 O2'
_chemical_name_systematic        3,3'-Bi-indan-1-one
_symmetry_cell_setting           orthorhombic
_symmetry_space_group_name_H-M   'P 21 21 2'
_symmetry_Int_Tables_number      18
_space_group_name_Hall           'P 2 2ab'
loop_
_symmetry_equiv_pos_site_id
_symmetry_equiv_pos_as_xyz
1 x,y,z
2 -x,-y,z
3 1/2+x,1/2-y,-z
4 1/2-x,1/2+y,-z
_cell_length_a                   5.745(2)
_cell_length_b                   19.313(8)
_cell_length_c                   6.040(2)
_cell_angle_alpha                90
_cell_angle_beta                 90
_cell_angle_gamma                90
_cell_volume                     670.157
_exptl_crystal_colour            'pale pink'
_chemical_melting_point          191-192deg.C
_cell_formula_units_Z            2
loop_
_atom_site_label
_atom_site_type_symbol
_atom_site_fract_x
_atom_site_fract_y
_atom_site_fract_z
C1 C 0.55930 0.03590 0.57670
C2 C 0.70660 0.05021 0.78570
C3 C 0.59700 0.11166 0.90170
C4 C 0.40240 0.13578 0.76350
C5 C 0.25340 0.19197 0.79900
C6 C 0.08530 0.20581 0.64420
C7 C 0.06370 0.16448 0.45670
C8 C 0.21000 0.10840 0.42270
C9 C 0.38140 0.09419 0.57760
O1 O 0.66030 0.13579 1.07660
H1 H 0.66000 0.03980 0.45000
H2 H 0.71400 0.01270 0.88600
H3 H 0.85800 0.06170 0.74300
H4 H 0.26400 0.22040 0.92500
H5 H -0.01200 0.24470 0.66000
H6 H -0.05200 0.17210 0.35900
H7 H 0.18700 0.07930 0.28400
C1A C 0.44070 -0.03590 0.57670
C2A C 0.29340 -0.05021 0.78570
C3A C 0.40300 -0.11166 0.90170
C4A C 0.59760 -0.13578 0.76350
C5A C 0.74660 -0.19197 0.79900
C6A C 0.91470 -0.20581 0.64420
C7A C 0.93630 -0.16448 0.45670
C8A C 0.79000 -0.10840 0.42270
C9A C 0.61860 -0.09419 0.57760
H1A H 0.34000 -0.03980 0.45000
H7A H 0.81300 -0.07930 0.28400
H6A H 1.05200 -0.17210 0.35900
H5A H 1.01200 -0.24470 0.66000
H4A H 0.73600 -0.22040 0.92500
O1A O 0.33970 -0.13579 1.07660
H2A H 0.28600 -0.01270 0.88600
H3A H 0.14200 -0.06170 0.74300
loop_
_geom_bond_atom_site_label_1
_geom_bond_atom_site_label_2
_geom_bond_site_symmetry_1
_geom_bond_site_symmetry_2
C1 C2 1_555 1_555
C2 C3 1_555 1_555
C3 C4 1_555 1_555
C4 C5 1_555 1_555
C5 C6 1_555 1_555
C6 C7 1_555 1_555
C7 C8 1_555 1_555
C8 C9 1_555 1_555
C9 C1 1_555 1_555
O1 C3 1_555 1_555
H1 C1 1_555 1_555
H2 C2 1_555 1_555
H3 C2 1_555 1_555
H4 C5 1_555 1_555
H5 C6 1_555 1_555
H6 C7 1_555 1_555
H7 C8 1_555 1_555
C1A C1 1_555 1_555
C2A C1A 1_555 1_555
C3A C2A 1_555 1_555
C4A C3A 1_555 1_555
C5A C4A 1_555 1_555
C6A C5A 1_555 1_555
C7A C6A 1_555 1_555
C8A C7A 1_555 1_555
C9A C1A 1_555 1_555
H1A C1A 1_555 1_555
H7A C8A 1_555 1_555
H6A C7A 1_555 1_555
H5A C6A 1_555 1_555
H4A C5A 1_555 1_555
O1A C3A 1_555 1_555
H2A C2A 1_555 1_555
H3A C2A 1_555 1_555
C4 C9 1_555 1_555
C4A C9A 1_555 1_555
C8A C9A 1_555 1_555

#END
