
#######################################################################
#
#                 Cambridge Crystallographic Data Centre
#                                CCDC 
#
#######################################################################
#
# If this CIF has been generated from an entry in the Cambridge 
# Structural Database, then it will include bibliographic, chemical, 
# crystal, experimental, refinement or atomic coordinate data resulting 
# from the CCDC's data processing and validation procedures.
#
#######################################################################

data_BIJVEY
_chemical_formula_moiety         'C4 H3 F3 O2'
_chemical_name_systematic        '1,2,2-trifluorocyclopropane-1-carboxylic acid'
_symmetry_cell_setting           monoclinic
_symmetry_space_group_name_H-M   'P 21/n'
_symmetry_Int_Tables_number      14
_space_group_name_Hall           '-P 2yn'
loop_
_symmetry_equiv_pos_site_id
_symmetry_equiv_pos_as_xyz
1 x,y,z
2 1/2-x,1/2+y,1/2-z
3 -x,-y,-z
4 1/2+x,1/2-y,1/2+z
_cell_length_a                   5.165(2)
_cell_length_b                   11.201(5)
_cell_length_c                   8.564(4)
_cell_angle_alpha                90
_cell_angle_beta                 101.626(12)
_cell_angle_gamma                90
_cell_volume                     485.29
_exptl_crystal_colour            colorless
_exptl_crystal_description       prism
_cell_formula_units_Z            4
_exptl_crystal_recrystallization_method 'Ethyl acetate'
loop_
_atom_site_label
_atom_site_type_symbol
_atom_site_fract_x
_atom_site_fract_y
_atom_site_fract_z
F1 F 0.2399(3) 0.01249(13) 0.23277(18)
F2 F 0.2735(3) -0.10454(14) -0.03731(17)
F3 F 0.6743(3) -0.16834(14) 0.05936(17)
O1 O 0.8503(3) -0.11873(15) 0.4004(2)
O2 O 0.6961(3) 0.06829(15) 0.4059(2)
H1 H 0.868(3) 0.091(3) 0.464(3)
C1 C 0.4328(4) -0.0721(2) 0.2448(3)
C2 C 0.4409(4) -0.1398(2) 0.0959(3)
C3 C 0.3423(5) -0.2024(2) 0.2206(3)
H2 H 0.456379 -0.264653 0.281264
H3 H 0.150261 -0.218819 0.202892
C4 C 0.6799(4) -0.0412(2) 0.3600(3)
loop_
_geom_bond_atom_site_label_1
_geom_bond_atom_site_label_2
_geom_bond_site_symmetry_1
_geom_bond_site_symmetry_2
F1 C1 1_555 1_555
F2 C2 1_555 1_555
F3 C2 1_555 1_555
O1 C4 1_555 1_555
O2 H1 1_555 1_555
C1 C2 1_555 1_555
C2 C3 1_555 1_555
C3 C1 1_555 1_555
H2 C3 1_555 1_555
H3 C3 1_555 1_555
C4 O2 1_555 1_555
C1 C4 1_555 1_555

#END
