
#######################################################################
#
#                 Cambridge Crystallographic Data Centre
#                                CCDC 
#
#######################################################################
#
# If this CIF has been generated from an entry in the Cambridge 
# Structural Database, then it will include bibliographic, chemical, 
# crystal, experimental, refinement or atomic coordinate data resulting 
# from the CCDC's data processing and validation procedures.
#
#######################################################################

data_BIJVUO
_chemical_formula_moiety         'C16 H12 Br1 F2 N1 O2'
_chemical_name_systematic        
3-(4-bromophenoxy)-2,2-difluoro-N-phenylcyclopropane-1-carboxamide
_symmetry_cell_setting           monoclinic
_symmetry_space_group_name_H-M   'P 21/n'
_symmetry_Int_Tables_number      14
_space_group_name_Hall           '-P 2yn'
loop_
_symmetry_equiv_pos_site_id
_symmetry_equiv_pos_as_xyz
1 x,y,z
2 1/2-x,1/2+y,1/2-z
3 -x,-y,-z
4 1/2+x,1/2-y,1/2+z
_cell_length_a                   4.7918(2)
_cell_length_b                   9.3365(6)
_cell_length_c                   33.8797(16)
_cell_angle_alpha                90
_cell_angle_beta                 92.292(5)
_cell_angle_gamma                90
_cell_volume                     1514.52
_exptl_crystal_colour            colorless
_exptl_crystal_description       plate
_cell_formula_units_Z            4
_exptl_crystal_recrystallization_method Methanol/dichloromethane/chloroform
loop_
_atom_site_label
_atom_site_type_symbol
_atom_site_fract_x
_atom_site_fract_y
_atom_site_fract_z
Br1 Br 0.82486(18) 0.70105(11) 0.96809(2)
F1 F 1.2801(7) 0.9464(4) 0.78230(11)
F2 F 0.8738(7) 0.9723(4) 0.75078(11)
O1 O 0.7558(7) 0.7441(5) 0.69097(12)
O2 O 1.1622(7) 0.6579(4) 0.79913(11)
N1 N 1.1773(8) 0.7288(5) 0.66331(13)
H1 H 1.369(6) 0.700(7) 0.6686(18)
C1 C 1.1634(10) 0.7670(6) 0.73249(15)
H2 H 1.366806 0.742724 0.733327
C2 C 1.0782(11) 0.8787(6) 0.76056(16)
C3 C 1.0074(10) 0.7309(6) 0.76965(15)
H3 H 0.806621 0.703220 0.765754
C4 C 1.0115(10) 0.7456(6) 0.69362(16)
C5 C 1.0863(10) 0.6995(6) 0.62350(16)
C6 C 1.2189(13) 0.5953(8) 0.60281(18)
H4 H 1.363704 0.540400 0.615397
C7 C 1.1428(15) 0.5699(9) 0.5638(2)
H5 H 1.234879 0.497303 0.549625
C8 C 0.9349(16) 0.6488(9) 0.5455(2)
H6 H 0.885748 0.632366 0.518393
C9 C 0.7980(14) 0.7512(8) 0.5661(2)
H7 H 0.650670 0.804211 0.553412
C10 C 0.8722(12) 0.7781(7) 0.60508(18)
H8 H 0.777718 0.849882 0.619271
C11 C 1.0744(11) 0.6733(5) 0.83714(16)
C12 C 0.8646(12) 0.7698(7) 0.84776(18)
H9 H 0.773427 0.829143 0.828464
C13 C 0.7939(13) 0.7762(8) 0.88693(19)
H10 H 0.653822 0.841099 0.894758
C14 C 0.9255(14) 0.6892(8) 0.91453(17)
C15 C 1.1340(14) 0.5960(7) 0.90411(18)
H11 H 1.226610 0.537975 0.923584
C16 C 1.2064(13) 0.5880(7) 0.86532(18)
H12 H 1.348007 0.523228 0.857911
loop_
_geom_bond_atom_site_label_1
_geom_bond_atom_site_label_2
_geom_bond_site_symmetry_1
_geom_bond_site_symmetry_2
Br1 C14 1_555 1_555
F1 C2 1_555 1_555
F2 C2 1_555 1_555
O1 C4 1_555 1_555
O2 C3 1_555 1_555
N1 H1 1_555 1_555
C1 H2 1_555 1_555
C2 C1 1_555 1_555
C3 C1 1_555 1_555
H3 C3 1_555 1_555
C4 N1 1_555 1_555
C5 N1 1_555 1_555
C6 C5 1_555 1_555
H4 C6 1_555 1_555
C7 C6 1_555 1_555
H5 C7 1_555 1_555
C8 C7 1_555 1_555
H6 C8 1_555 1_555
C9 C8 1_555 1_555
H7 C9 1_555 1_555
C10 C5 1_555 1_555
H8 C10 1_555 1_555
C11 O2 1_555 1_555
C12 C11 1_555 1_555
H9 C12 1_555 1_555
C13 C12 1_555 1_555
H10 C13 1_555 1_555
C14 C13 1_555 1_555
C15 C14 1_555 1_555
H11 C15 1_555 1_555
C16 C11 1_555 1_555
H12 C16 1_555 1_555
C1 C4 1_555 1_555
C2 C3 1_555 1_555
C9 C10 1_555 1_555
C15 C16 1_555 1_555

#END
