
#######################################################################
#
#                 Cambridge Crystallographic Data Centre
#                                CCDC 
#
#######################################################################
#
# If this CIF has been generated from an entry in the Cambridge 
# Structural Database, then it will include bibliographic, chemical, 
# crystal, experimental, refinement or atomic coordinate data resulting 
# from the CCDC's data processing and validation procedures.
#
#######################################################################

data_BIKGEK
_chemical_formula_moiety         'C36 H29 Cl1 N2 O3 S1'
_chemical_name_systematic        
"3'-({5-chloro-3-methyl-1-[(4-methylphenyl)sulfonyl]-2,3-dihydro-1H-pyrrolo[2,3-b]pyridin-3-yl}methyl)-2'-phenyl-4H-spiro[cyclohexa-2,5-diene-1,1'-inden]-4-one unknown solvate"
_symmetry_cell_setting           triclinic
_symmetry_space_group_name_H-M   'P -1'
_symmetry_Int_Tables_number      2
_space_group_name_Hall           '-P 1'
loop_
_symmetry_equiv_pos_site_id
_symmetry_equiv_pos_as_xyz
1 x,y,z
2 -x,-y,-z
_cell_length_a                   10.6142(4)
_cell_length_b                   10.9358(5)
_cell_length_c                   15.5922(7)
_cell_angle_alpha                79.650(2)
_cell_angle_beta                 72.0280(10)
_cell_angle_gamma                79.8130(10)
_cell_volume                     1679.22
_exptl_crystal_description       prism
_cell_formula_units_Z            2
loop_
_atom_site_label
_atom_site_type_symbol
_atom_site_fract_x
_atom_site_fract_y
_atom_site_fract_z
S1 S 0.70019(7) 0.83970(6) 0.59999(5)
Cl1 Cl 0.73226(11) 0.24471(9) 0.48010(6)
O1 O 0.7425(2) 0.9009(2) 0.65749(15)
O2 O 0.5626(2) 0.8480(2) 0.60738(17)
O3 O 0.0164(2) 0.6135(3) 0.8646(2)
N1 N 0.6700(2) 0.5996(2) 0.52613(16)
N2 N 0.7575(2) 0.6914(2) 0.62163(16)
C1 C 0.6169(2) 0.6450(2) 0.85494(16)
C2 C 0.9227(4) 0.9814(3) 0.3110(2)
C3 C 0.1356(3) 0.6030(3) 0.8578(2)
C4 C 0.9872(3) 0.9433(3) 0.3768(2)
H1 H 1.0784 0.9474 0.3617
C5 C 0.7358(3) 0.3781(3) 0.52449(19)
C6 C 0.6697(3) 0.4907(3) 0.49696(19)
H2 H 0.6219 0.4921 0.4558
C7 C 0.4166(3) 0.7841(3) 0.9125(2)
H3 H 0.3249 0.8063 0.9233
C8 C 0.9210(3) 0.8990(3) 0.4649(2)
H4 H 0.9662 0.8754 0.5090
C9 C 0.4605(3) 0.3762(3) 0.7137(2)
H5 H 0.4193 0.4523 0.6915
C10 C 0.7855(3) 0.8902(2) 0.4865(2)
C11 C 0.8067(3) 0.3717(3) 0.58686(18)
H6 H 0.8507 0.2960 0.6074
C12 C 0.2289(3) 0.6616(3) 0.7764(2)
H7 H 0.1965 0.7066 0.7294
C13 C 0.1921(3) 0.5329(3) 0.92893(19)
H8 H 0.1362 0.4937 0.9812
C14 C 0.6926(3) 0.7171(3) 0.88010(18)
H9 H 0.7842 0.6949 0.8699
C15 C 0.8727(3) 0.6511(3) 0.6596(2)
H10 H 0.8595 0.6896 0.7137
H11 H 0.9550 0.6730 0.6152
C16 C 0.8762(2) 0.5084(2) 0.68279(18)
C17 C 0.7399(2) 0.5906(2) 0.58404(17)
C18 C 0.3211(2) 0.5237(2) 0.92094(18)
H12 H 0.3523 0.4760 0.9677
C19 C 0.5309(2) 0.3749(2) 0.77598(17)
C20 C 0.5439(2) 0.4907(2) 0.80598(16)
C21 C 0.7970(2) 0.4674(2) 0.78279(17)
H13 H 0.7968 0.3773 0.7912
H14 H 0.8443 0.4849 0.8225
C22 C 0.3578(2) 0.6520(2) 0.76838(18)
H15 H 0.4131 0.6884 0.7146
C23 C 0.8093(2) 0.4810(2) 0.61700(17)
C24 C 0.4197(2) 0.5854(2) 0.84141(16)
C25 C 0.6545(2) 0.5285(2) 0.81286(15)
C26 C 0.4804(2) 0.6790(2) 0.87231(17)
C27 C 1.0199(3) 0.4424(3) 0.6668(2)
H16 H 1.0687 0.4617 0.6040
H17 H 1.0188 0.3534 0.6816
H18 H 1.0621 0.4707 0.7046
C28 C 0.5888(3) 0.2584(3) 0.8092(2)
H19 H 0.6339 0.2530 0.8525
C29 C 0.6274(3) 0.8229(3) 0.9208(2)
H20 H 0.6766 0.8721 0.9376
C30 C 0.7189(3) 0.9268(3) 0.4218(2)
H21 H 0.6281 0.9213 0.4363
C31 C 0.4926(3) 0.8564(3) 0.9367(2)
H22 H 0.4514 0.9279 0.9638
C32 C 0.4504(3) 0.2678(3) 0.6840(3)
H23 H 0.4026 0.2715 0.6425
C33 C 0.5789(4) 0.1503(3) 0.7773(3)
H24 H 0.6199 0.0735 0.7986
C34 C 0.7884(4) 0.9718(4) 0.3347(3)
H25 H 0.7432 0.9965 0.2907
C35 C 0.5105(4) 0.1549(3) 0.7156(3)
H26 H 0.5047 0.0818 0.6952
C36 C 0.9998(5) 1.0309(5) 0.2158(3)
H27 H 1.0508 1.0935 0.2186
H28 H 0.9384 1.0672 0.1811
H29 H 1.0589 0.9633 0.1871
loop_
_geom_bond_atom_site_label_1
_geom_bond_atom_site_label_2
_geom_bond_site_symmetry_1
_geom_bond_site_symmetry_2
S1 O1 1_555 1_555
Cl1 C5 1_555 1_555
O2 S1 1_555 1_555
O3 C3 1_555 1_555
N1 C6 1_555 1_555
N2 S1 1_555 1_555
C1 C14 1_555 1_555
C2 C4 1_555 1_555
C3 C12 1_555 1_555
C4 H1 1_555 1_555
C5 C6 1_555 1_555
C6 H2 1_555 1_555
C7 H3 1_555 1_555
C8 C4 1_555 1_555
H4 C8 1_555 1_555
C9 H5 1_555 1_555
C10 S1 1_555 1_555
C11 C5 1_555 1_555
H6 C11 1_555 1_555
C12 H7 1_555 1_555
C13 C3 1_555 1_555
H8 C13 1_555 1_555
C14 H9 1_555 1_555
C15 N2 1_555 1_555
H10 C15 1_555 1_555
H11 C15 1_555 1_555
C16 C15 1_555 1_555
C17 N1 1_555 1_555
C18 C13 1_555 1_555
H12 C18 1_555 1_555
C19 C9 1_555 1_555
C20 C19 1_555 1_555
C21 C16 1_555 1_555
H13 C21 1_555 1_555
H14 C21 1_555 1_555
C22 C12 1_555 1_555
H15 C22 1_555 1_555
C23 C11 1_555 1_555
C24 C18 1_555 1_555
C25 C1 1_555 1_555
C26 C1 1_555 1_555
C27 C16 1_555 1_555
H16 C27 1_555 1_555
H17 C27 1_555 1_555
H18 C27 1_555 1_555
C28 C19 1_555 1_555
H19 C28 1_555 1_555
C29 C14 1_555 1_555
H20 C29 1_555 1_555
C30 C10 1_555 1_555
H21 C30 1_555 1_555
C31 C7 1_555 1_555
H22 C31 1_555 1_555
C32 C9 1_555 1_555
H23 C32 1_555 1_555
C33 C28 1_555 1_555
H24 C33 1_555 1_555
C34 C2 1_555 1_555
H25 C34 1_555 1_555
C35 C32 1_555 1_555
H26 C35 1_555 1_555
C36 C2 1_555 1_555
H27 C36 1_555 1_555
H28 C36 1_555 1_555
H29 C36 1_555 1_555
N2 C17 1_555 1_555
C7 C26 1_555 1_555
C8 C10 1_555 1_555
C16 C23 1_555 1_555
C17 C23 1_555 1_555
C20 C24 1_555 1_555
C20 C25 1_555 1_555
C21 C25 1_555 1_555
C22 C24 1_555 1_555
C24 C26 1_555 1_555
C29 C31 1_555 1_555
C30 C34 1_555 1_555
C33 C35 1_555 1_555

#END
