
#######################################################################
#
#                 Cambridge Crystallographic Data Centre
#                                CCDC 
#
#######################################################################
#
# If this CIF has been generated from an entry in the Cambridge 
# Structural Database, then it will include bibliographic, chemical, 
# crystal, experimental, refinement or atomic coordinate data resulting 
# from the CCDC's data processing and validation procedures.
#
#######################################################################

data_BIKGIN
_chemical_formula_moiety         'C41 H38 O1'
_chemical_name_systematic        
1,1',1'',1''',1''''-(5-Methoxycyclopenta-1,3-diene-1,2,3,4,5-pentayl)pentakis(3-methylbenzene)
_symmetry_cell_setting           monoclinic
_symmetry_space_group_name_H-M   'P 21/c'
_symmetry_Int_Tables_number      14
_space_group_name_Hall           '-P 2ybc'
loop_
_symmetry_equiv_pos_site_id
_symmetry_equiv_pos_as_xyz
1 x,y,z
2 -x,1/2+y,1/2-z
3 -x,-y,-z
4 x,1/2-y,1/2+z
_cell_length_a                   19.9360(9)
_cell_length_b                   7.9365(3)
_cell_length_c                   25.6157(14)
_cell_angle_alpha                90
_cell_angle_beta                 127.958(3)
_cell_angle_gamma                90
_cell_volume                     3195.61
_cell_formula_units_Z            4
loop_
_atom_site_label
_atom_site_type_symbol
_atom_site_fract_x
_atom_site_fract_y
_atom_site_fract_z
O1 O 0.16257(12) 0.4714(3) 0.15299(10)
C1 C 0.18144(15) 0.6378(4) 0.17901(13)
C2 C 0.21042(16) 0.6431(3) 0.24970(13)
C3 C 0.28406(17) 0.7303(3) 0.28771(14)
C4 C 0.31147(16) 0.7807(3) 0.24750(13)
C5 C 0.25529(15) 0.7238(4) 0.18524(13)
C6 C 0.2313(2) 0.3568(5) 0.19206(19)
H1 H 0.2153 0.2484 0.1709
H2 H 0.2452 0.3468 0.2351
H3 H 0.2800 0.3977 0.1966
C7 C 0.10010(18) 0.7411(4) 0.13007(16)
C8 C 0.0927(2) 0.9007(5) 0.1457(2)
H4 H 0.1363 0.9469 0.1865
C9 C 0.0169(3) 0.9981(5) 0.0989(2)
C10 C -0.0433(2) 0.9213(7) 0.0403(2)
H5 H -0.0922 0.9828 0.0095
C11 C -0.0385(3) 0.7643(7) 0.0229(3)
C12 C 0.03430(19) 0.6751(6) 0.06867(17)
H6 H 0.0397 0.5664 0.0581
C13 C 0.0090(3) 1.1653(7) 0.1176(3)
H7 H 0.0070 1.2475 0.0891
H8 H 0.0571 1.1875 0.1626
H9 H -0.0422 1.1716 0.1133
C14 C 0.1639(2) 0.5558(4) 0.26985(15)
C15 C 0.0768(2) 0.5330(4) 0.22592(18)
H10 H 0.0472 0.5713 0.1826
C16 C 0.0321(3) 0.4543(5) 0.2446(2)
C17 C 0.0770(4) 0.3958(6) 0.3086(3)
H11 H 0.0483 0.3455 0.3225
C18 C 0.1636(4) 0.4116(7) 0.3518(2)
H12 H 0.1935 0.3677 0.3943
C19 C 0.2068(3) 0.4917(6) 0.33293(19)
H13 H 0.2656 0.5026 0.3631
C20 C -0.0614(3) 0.4346(7) 0.1974(3)
H14 H -0.0818 0.4753 0.1546
H15 H -0.0872 0.4980 0.2127
H16 H -0.0759 0.3177 0.1941
C21 C 0.33377(19) 0.7747(4) 0.35847(14)
C22 C 0.4176(2) 0.7227(4) 0.40376(16)
H17 H 0.4426 0.6605 0.3891
C23 C 0.4649(3) 0.7615(5) 0.47047(18)
C24 C 0.4258(4) 0.8564(6) 0.4905(2)
H18 H 0.4560 0.8814 0.5352
C25 C 0.3442(4) 0.9143(7) 0.4463(3)
C26 C 0.2990(3) 0.8722(6) 0.3811(2)
H19 H 0.2433 0.9101 0.3511
C27 C 0.5589(4) 0.7056(9) 0.5162(3)
H20 H 0.5820 0.7129 0.4926
H21 H 0.5627 0.5915 0.5302
H22 H 0.5906 0.7779 0.5543
C28 C 0.38993(16) 0.8813(4) 0.27613(13)
C29 C 0.39631(18) 1.0448(4) 0.29741(13)
H23 H 0.3508 1.0911 0.2939
C30 C 0.4689(2) 1.1427(4) 0.32397(15)
C31 C 0.5363(2) 1.0697(6) 0.33094(18)
H24 H 0.5858 1.1318 0.3494
C32 C 0.5323(2) 0.9065(6) 0.31117(19)
H25 H 0.5788 0.8599 0.3163
C33 C 0.45971(19) 0.8114(5) 0.28374(16)
H26 H 0.4573 0.7012 0.2704
C34 C 0.4721(3) 1.3242(6) 0.3428(2)
H27 H 0.5181 1.3393 0.3890
H28 H 0.4194 1.3535 0.3342
H29 H 0.4807 1.3953 0.3171
C35 C 0.25342(16) 0.7527(4) 0.12753(14)
C36 C 0.2827(2) 0.9028(5) 0.12002(16)
H30 H 0.3039 0.9861 0.1521
C37 C 0.2811(2) 0.9312(6) 0.06555(18)
C38 C 0.2494(2) 0.8061(7) 0.01833(18)
H31 H 0.2492 0.8222 -0.0177
C39 C 0.2182(3) 0.6592(7) 0.02364(19)
C40 C 0.2202(2) 0.6328(5) 0.07788(16)
H32 H 0.1988 0.5326 0.0812
C41 C 0.3094(5) 1.0910(10) 0.0569(3)
H33 H 0.3563 1.1338 0.0994
H34 H 0.2634 1.1705 0.0357
H35 H 0.3271 1.0737 0.0299
C42? C 0.3183(13) 1.087(3) 0.4631(9)
H36? H 0.3514 1.1773 0.4647
H37? H 0.2589 1.1099 0.4297
H38? H 0.3300 1.0764 0.5053
C43? C 0.1846(15) 0.563(3) -0.0262(11)
H39? H 0.2094 0.5790 -0.0482
H40? H 0.1931 0.4483 -0.0112
H41? H 0.1247 0.5862 -0.0565
C44? C -0.1110(10) 0.813(3) -0.0311(9)
H42? H -0.1051 0.9249 -0.0423
H43? H -0.1532 0.8143 -0.0242
H44? H -0.1283 0.7374 -0.0665
loop_
_geom_bond_atom_site_label_1
_geom_bond_atom_site_label_2
_geom_bond_site_symmetry_1
_geom_bond_site_symmetry_2
O1 C1 1_555 1_555
C1 C2 1_555 1_555
C2 C3 1_555 1_555
C3 C4 1_555 1_555
C4 C5 1_555 1_555
C5 C1 1_555 1_555
C6 O1 1_555 1_555
H1 C6 1_555 1_555
H2 C6 1_555 1_555
H3 C6 1_555 1_555
C7 C1 1_555 1_555
C8 C7 1_555 1_555
H4 C8 1_555 1_555
C9 C8 1_555 1_555
C10 C9 1_555 1_555
H5 C10 1_555 1_555
C11 C10 1_555 1_555
C12 C7 1_555 1_555
H6 C12 1_555 1_555
C13 C9 1_555 1_555
H7 C13 1_555 1_555
H8 C13 1_555 1_555
H9 C13 1_555 1_555
C14 C2 1_555 1_555
C15 C14 1_555 1_555
H10 C15 1_555 1_555
C16 C15 1_555 1_555
C17 C16 1_555 1_555
H11 C17 1_555 1_555
C18 C17 1_555 1_555
H12 C18 1_555 1_555
C19 C14 1_555 1_555
H13 C19 1_555 1_555
C20 C16 1_555 1_555
H14 C20 1_555 1_555
H15 C20 1_555 1_555
H16 C20 1_555 1_555
C21 C3 1_555 1_555
C22 C21 1_555 1_555
H17 C22 1_555 1_555
C23 C22 1_555 1_555
C24 C23 1_555 1_555
H18 C24 1_555 1_555
C25 C24 1_555 1_555
C26 C21 1_555 1_555
H19 C26 1_555 1_555
C27 C23 1_555 1_555
H20 C27 1_555 1_555
H21 C27 1_555 1_555
H22 C27 1_555 1_555
C28 C4 1_555 1_555
C29 C28 1_555 1_555
H23 C29 1_555 1_555
C30 C29 1_555 1_555
C31 C30 1_555 1_555
H24 C31 1_555 1_555
C32 C31 1_555 1_555
H25 C32 1_555 1_555
C33 C28 1_555 1_555
H26 C33 1_555 1_555
C34 C30 1_555 1_555
H27 C34 1_555 1_555
H28 C34 1_555 1_555
H29 C34 1_555 1_555
C35 C5 1_555 1_555
C36 C35 1_555 1_555
H30 C36 1_555 1_555
C37 C36 1_555 1_555
C38 C37 1_555 1_555
H31 C38 1_555 1_555
C39 C38 1_555 1_555
C40 C35 1_555 1_555
H32 C40 1_555 1_555
C41 C37 1_555 1_555
H33 C41 1_555 1_555
H34 C41 1_555 1_555
H35 C41 1_555 1_555
C11 C12 1_555 1_555
C18 C19 1_555 1_555
C25 C26 1_555 1_555
C32 C33 1_555 1_555
C39 C40 1_555 1_555

#END
