
#######################################################################
#
#                 Cambridge Crystallographic Data Centre
#                                CCDC 
#
#######################################################################
#
# If this CIF has been generated from an entry in the Cambridge 
# Structural Database, then it will include bibliographic, chemical, 
# crystal, experimental, refinement or atomic coordinate data resulting 
# from the CCDC's data processing and validation procedures.
#
#######################################################################

data_BIKGOT01
_chemical_formula_moiety         'C28 H20 O1'
_chemical_name_systematic        tetraphenylfuran
_symmetry_cell_setting           monoclinic
_symmetry_space_group_name_H-M   'C 2/c'
_symmetry_Int_Tables_number      15
_space_group_name_Hall           '-C 2yn'
loop_
_symmetry_equiv_pos_site_id
_symmetry_equiv_pos_as_xyz
1 x,y,z
2 -x,y,1/2-z
3 1/2+x,1/2+y,z
4 1/2-x,1/2+y,1/2-z
5 -x,-y,-z
6 x,-y,1/2+z
7 1/2-x,1/2-y,-z
8 1/2+x,1/2-y,1/2+z
_cell_length_a                   25.743(5)
_cell_length_b                   8.1689(14)
_cell_length_c                   21.716(4)
_cell_angle_alpha                90
_cell_angle_beta                 117.418(3)
_cell_angle_gamma                90
_cell_volume                     4053.73
_cell_formula_units_Z            8
loop_
_atom_site_label
_atom_site_type_symbol
_atom_site_fract_x
_atom_site_fract_y
_atom_site_fract_z
O1 O 0.22649(8) 0.9919(2) 0.47029(9)
C1 C 0.38425(14) 1.0349(4) 0.53336(16)
H1 H 0.3965 1.0655 0.5792
C2 C 0.42339(14) 1.0383(4) 0.50624(18)
H2 H 0.4618 1.0712 0.5340
C3 C 0.40589(15) 0.9933(4) 0.43859(17)
H3 H 0.4324 0.9961 0.4205
C4 C 0.34921(15) 0.9443(4) 0.39773(17)
H4 H 0.3373 0.9131 0.3520
C5 C 0.31011(13) 0.9413(4) 0.42444(15)
H5 H 0.2717 0.9086 0.3962
C6 C 0.32663(12) 0.9860(3) 0.49250(14)
C7 C 0.28436(12) 0.9866(3) 0.51984(14)
C8 C 0.28716(12) 0.9864(3) 0.58408(14)
C9 C 0.34073(12) 0.9763(3) 0.65143(14)
C10 C 0.37656(13) 0.8389(4) 0.66841(15)
H6 H 0.3669 0.7530 0.6369
C11 C 0.42610(14) 0.8283(5) 0.73122(18)
H7 H 0.4495 0.7352 0.7421
C12 C 0.44106(16) 0.9548(6) 0.77782(19)
H8 H 0.4751 0.9488 0.8197
C13 C 0.40581(16) 1.0903(5) 0.76262(17)
H9 H 0.4156 1.1749 0.7947
C14 C 0.35580(14) 1.1014(4) 0.69983(15)
H10 H 0.3320 1.1935 0.6899
C15 C 0.22809(12) 0.9952(3) 0.57422(13)
C16 C 0.20967(11) 1.0061(3) 0.62937(13)
C17 C 0.23517(12) 0.9078(4) 0.68831(14)
H11 H 0.2643 0.8339 0.6931
C18 C 0.21789(13) 0.9182(4) 0.73968(15)
H12 H 0.2351 0.8509 0.7785
C19 C 0.17528(14) 1.0282(4) 0.73357(16)
H13 H 0.1634 1.0353 0.7680
C20 C 0.15039(13) 1.1275(4) 0.67603(16)
H14 H 0.1216 1.2021 0.6718
C21 C 0.16741(12) 1.1181(4) 0.62487(14)
H15 H 0.1505 1.1874 0.5867
C22 C 0.19252(12) 0.9963(3) 0.50405(14)
C23 C 0.12941(12) 1.0008(3) 0.45858(14)
C24 C 0.09027(14) 0.9250(4) 0.47735(16)
H16 H 0.1042 0.8689 0.5192
C25 C 0.03099(15) 0.9331(5) 0.4341(2)
H17 H 0.0051 0.8826 0.4470
C26 C 0.00981(16) 1.0148(5) 0.3722(2)
H18 H -0.0303 1.0203 0.3433
C27 C 0.04804(18) 1.0881(5) 0.35323(18)
H19 H 0.0338 1.1436 0.3112
C28 C 0.10729(14) 1.0806(4) 0.39572(15)
H20 H 0.1328 1.1300 0.3819
loop_
_geom_bond_atom_site_label_1
_geom_bond_atom_site_label_2
_geom_bond_site_symmetry_1
_geom_bond_site_symmetry_2
O1 C7 1_555 1_555
C1 H1 1_555 1_555
C2 C1 1_555 1_555
H2 C2 1_555 1_555
C3 C2 1_555 1_555
H3 C3 1_555 1_555
C4 C3 1_555 1_555
H4 C4 1_555 1_555
C5 C4 1_555 1_555
H5 C5 1_555 1_555
C6 C1 1_555 1_555
C7 C6 1_555 1_555
C8 C7 1_555 1_555
C9 C8 1_555 1_555
C10 C9 1_555 1_555
H6 C10 1_555 1_555
C11 C10 1_555 1_555
H7 C11 1_555 1_555
C12 C11 1_555 1_555
H8 C12 1_555 1_555
C13 C12 1_555 1_555
H9 C13 1_555 1_555
C14 C9 1_555 1_555
H10 C14 1_555 1_555
C15 C8 1_555 1_555
C16 C15 1_555 1_555
C17 C16 1_555 1_555
H11 C17 1_555 1_555
C18 C17 1_555 1_555
H12 C18 1_555 1_555
C19 C18 1_555 1_555
H13 C19 1_555 1_555
C20 C19 1_555 1_555
H14 C20 1_555 1_555
C21 C16 1_555 1_555
H15 C21 1_555 1_555
C22 O1 1_555 1_555
C23 C22 1_555 1_555
C24 C23 1_555 1_555
H16 C24 1_555 1_555
C25 C24 1_555 1_555
H17 C25 1_555 1_555
C26 C25 1_555 1_555
H18 C26 1_555 1_555
C27 C26 1_555 1_555
H19 C27 1_555 1_555
C28 C23 1_555 1_555
H20 C28 1_555 1_555
C5 C6 1_555 1_555
C13 C14 1_555 1_555
C15 C22 1_555 1_555
C20 C21 1_555 1_555
C27 C28 1_555 1_555

#END
