
#######################################################################
#
#                 Cambridge Crystallographic Data Centre
#                                CCDC 
#
#######################################################################
#
# If this CIF has been generated from an entry in the Cambridge 
# Structural Database, then it will include bibliographic, chemical, 
# crystal, experimental, refinement or atomic coordinate data resulting 
# from the CCDC's data processing and validation procedures.
#
#######################################################################

data_BIKKUE
_chemical_formula_moiety         'C16 H14 N2 O3'
_chemical_name_systematic        
1-(4-methylphenyl)-3-nitro-2-(phenylamino)prop-2-en-1-one
_symmetry_cell_setting           monoclinic
_symmetry_space_group_name_H-M   'P 21/n'
_symmetry_Int_Tables_number      14
_space_group_name_Hall           '-P 2yn'
loop_
_symmetry_equiv_pos_site_id
_symmetry_equiv_pos_as_xyz
1 x,y,z
2 1/2-x,1/2+y,1/2-z
3 -x,-y,-z
4 1/2+x,1/2-y,1/2+z
_cell_length_a                   15.941(7)
_cell_length_b                   5.809(3)
_cell_length_c                   17.198(8)
_cell_angle_alpha                90
_cell_angle_beta                 114.521(7)
_cell_angle_gamma                90
_cell_volume                     1448.92
_exptl_crystal_colour            yellow
_cell_formula_units_Z            4
loop_
_atom_site_label
_atom_site_type_symbol
_atom_site_fract_x
_atom_site_fract_y
_atom_site_fract_z
C1 C 0.67815(15) 0.2790(4) 0.27749(16)
H1 H 0.7190 0.1666 0.3104
C2 C 0.65405(14) 0.4584(4) 0.31623(14)
H2 H 0.6786 0.4669 0.3755
C3 C 0.59316(13) 0.6274(4) 0.26723(12)
H3 H 0.5783 0.7507 0.2937
N1 N 0.49006(10) 0.7796(3) 0.12651(9)
H4 H 0.4955 0.8249 0.0812
O1 O 0.41991(11) 1.0916(3) -0.00268(9)
O2 O 0.31216(12) 1.3245(3) -0.00399(9)
O3 O 0.37064(10) 0.5525(2) 0.19474(9)
C4 C 0.55458(12) 0.6113(3) 0.17857(11)
C5 C 0.43705(15) 1.2115(4) 0.37637(13)
H5 H 0.4691 1.3493 0.3937
C6 C 0.38879(14) 1.1252(4) 0.42140(12)
C7 C 0.36482(13) 1.0505(3) 0.09962(11)
H6 H 0.3222 1.1008 0.1198
N2 N 0.36557(11) 1.1624(3) 0.02789(9)
C8 C 0.34261(15) 0.9177(4) 0.39460(13)
H7 H 0.3102 0.8568 0.4240
C9 C 0.57954(14) 0.4329(3) 0.13980(13)
H8 H 0.5551 0.4238 0.0805
C10 C 0.42187(12) 0.8722(3) 0.14267(10)
C11 C 0.39428(12) 0.7540(3) 0.20761(11)
C12 C 0.39178(12) 0.8883(3) 0.28009(11)
C13 C 0.43837(13) 1.0967(3) 0.30628(12)
H9 H 0.4704 1.1587 0.2767
C14 C 0.38605(19) 1.2531(4) 0.49703(14)
H10 H 0.3293 1.2193 0.5016
H11 H 0.3901 1.4156 0.4891
H12 H 0.4371 1.2054 0.5484
C15 C 0.34360(13) 0.7993(4) 0.32525(12)
H13 H 0.3122 0.6604 0.3086
C16 C 0.64122(15) 0.2666(4) 0.18929(15)
H14 H 0.6578 0.1462 0.1629
loop_
_geom_bond_atom_site_label_1
_geom_bond_atom_site_label_2
_geom_bond_site_symmetry_1
_geom_bond_site_symmetry_2
C1 H1 1_555 1_555
C2 C1 1_555 1_555
H2 C2 1_555 1_555
C3 C2 1_555 1_555
H3 C3 1_555 1_555
N1 H4 1_555 1_555
O1 N2 1_555 1_555
O2 N2 1_555 1_555
O3 C11 1_555 1_555
C4 C3 1_555 1_555
C5 H5 1_555 1_555
C6 C5 1_555 1_555
C7 H6 1_555 1_555
N2 C7 1_555 1_555
C8 C6 1_555 1_555
H7 C8 1_555 1_555
C9 C4 1_555 1_555
H8 C9 1_555 1_555
C10 N1 1_555 1_555
C11 C10 1_555 1_555
C12 C11 1_555 1_555
C13 C5 1_555 1_555
H9 C13 1_555 1_555
C14 C6 1_555 1_555
H10 C14 1_555 1_555
H11 C14 1_555 1_555
H12 C14 1_555 1_555
C15 C8 1_555 1_555
H13 C15 1_555 1_555
C16 C1 1_555 1_555
H14 C16 1_555 1_555
N1 C4 1_555 1_555
C7 C10 1_555 1_555
C9 C16 1_555 1_555
C12 C13 1_555 1_555
C12 C15 1_555 1_555

#END
