
#######################################################################
#
#                 Cambridge Crystallographic Data Centre
#                                CCDC 
#
#######################################################################
#
# If this CIF has been generated from an entry in the Cambridge 
# Structural Database, then it will include bibliographic, chemical, 
# crystal, experimental, refinement or atomic coordinate data resulting 
# from the CCDC's data processing and validation procedures.
#
#######################################################################

data_BIKPIX
_chemical_formula_moiety         'C31 H37 B2 N1 O6,C1 H2 Cl2'
_chemical_name_systematic        
'4-{[3,7-bis(4,4,5,5-tetramethyl-1,3,2-dioxaborolan-2-yl)-10H-phenoxazin-10-yl]methyl}phenol dichloromethane solvate'
_symmetry_cell_setting           monoclinic
_symmetry_space_group_name_H-M   'P 21/c'
_symmetry_Int_Tables_number      14
_space_group_name_Hall           '-P 2ybc'
loop_
_symmetry_equiv_pos_site_id
_symmetry_equiv_pos_as_xyz
1 x,y,z
2 -x,1/2+y,1/2-z
3 -x,-y,-z
4 x,1/2-y,1/2+z
_cell_length_a                   21.0386(6)
_cell_length_b                   12.0671(3)
_cell_length_c                   12.7442(4)
_cell_angle_alpha                90
_cell_angle_beta                 91.250(3)
_cell_angle_gamma                90
_cell_volume                     3234.66
_exptl_crystal_colour            colorless
_exptl_crystal_description       plate
_cell_formula_units_Z            4
_exptl_crystal_recrystallization_method dichloromethane
loop_
_atom_site_label
_atom_site_type_symbol
_atom_site_fract_x
_atom_site_fract_y
_atom_site_fract_z
N1 N 0.20002(7) 0.70244(13) 0.50582(13)
C1 C 0.25867(9) 0.70592(15) 0.55991(14)
C2 C 0.26866(9) 0.76741(16) 0.65136(15)
H1 H 0.234906 0.809872 0.679081
C3 C 0.32798(10) 0.76686(17) 0.70234(16)
H2 H 0.334085 0.810630 0.763699
C4 C 0.37858(9) 0.70410(17) 0.66609(15)
B1 B 0.44245(11) 0.69687(19) 0.72836(18)
O1 O 0.4580(4) 0.7627(7) 0.8160(8)
O2 O 0.4906(3) 0.6211(5) 0.7100(5)
C5 C 0.4964(4) 0.6574(6) 0.9614(6)
H3 H 0.534634 0.630510 0.998471
H4 H 0.469601 0.594257 0.940723
H5 H 0.472621 0.706387 1.007699
C6 C 0.5551(3) 0.8210(6) 0.9000(6)
H6 H 0.595398 0.794008 0.930394
H7 H 0.531425 0.860454 0.953823
H8 H 0.563687 0.871401 0.841733
C7 C 0.5749(4) 0.5388(5) 0.8154(4)
H9 H 0.613125 0.556977 0.857239
H10 H 0.586521 0.491663 0.756201
H11 H 0.544652 0.499356 0.859290
C8 C 0.5912(5) 0.7074(10) 0.7085(8)
H12 H 0.629247 0.723969 0.751468
H13 H 0.572260 0.776781 0.682916
H14 H 0.602965 0.661317 0.648699
C9 C 0.51614(10) 0.72372(19) 0.85995(19)
C10 C 0.54407(10) 0.64657(19) 0.77355(18)
C11 C 0.36819(9) 0.64269(16) 0.57388(15)
H15 H 0.401582 0.598872 0.546831
C12 C 0.31021(9) 0.64529(15) 0.52230(14)
O3 O 0.30521(6) 0.58554(13) 0.42961(11)
C13 C 0.24500(8) 0.56886(15) 0.38776(14)
C14 C 0.23995(9) 0.49481(15) 0.30657(14)
H16 H 0.277097 0.458776 0.282733
C15 C 0.18104(9) 0.47104(15) 0.25783(14)
B2 B 0.17914(10) 0.38274(17) 0.17037(17)
O4 O 0.23292(7) 0.34333(12) 0.12620(12)
O5 O 0.12468(6) 0.33268(12) 0.13123(11)
C16 C 0.21545(10) 0.24689(17) 0.06275(18)
C17 C 0.22924(13) 0.1455(2) 0.1295(2)
H17 H 0.203090 0.147621 0.192180
H18 H 0.274306 0.144872 0.150623
H19 H 0.219238 0.078564 0.088921
C18 C 0.25592(13) 0.2477(2) -0.0343(2)
H20 H 0.252988 0.320495 -0.068174
H21 H 0.240630 0.190569 -0.083386
H22 H 0.300294 0.232513 -0.014195
C19 C 0.14300(10) 0.26664(17) 0.04001(16)
C20 C 0.10250(12) 0.1630(2) 0.0362(2)
H23 H 0.058231 0.183098 0.020075
H24 H 0.105047 0.125432 0.104327
H25 H 0.118022 0.113201 -0.018397
C21 C 0.12955(12) 0.3389(2) -0.05550(19)
H26 H 0.084574 0.360126 -0.057475
H27 H 0.139402 0.297559 -0.119299
H28 H 0.155993 0.405696 -0.051359
C22 C 0.12777(9) 0.52692(16) 0.29533(15)
H29 H 0.087150 0.512460 0.264304
C23 C 0.13301(9) 0.60284(16) 0.37668(15)
H30 H 0.096057 0.639802 0.400067
C24 C 0.19179(9) 0.62575(15) 0.42471(14)
C25 C 0.14730(9) 0.77193(16) 0.53789(15)
H31 H 0.120139 0.788500 0.475436
H32 H 0.164549 0.843094 0.564655
C26 C 0.10633(9) 0.72075(16) 0.62157(15)
C27 C 0.12595(10) 0.62893(17) 0.67868(18)
H33 H 0.165211 0.594490 0.662936
C28 C 0.08941(10) 0.58616(19) 0.75848(18)
H34 H 0.103736 0.523117 0.796886
C29 C 0.03194(9) 0.63561(18) 0.78209(16)
C30 C 0.01128(9) 0.72743(19) 0.72500(18)
H35 H -0.028206 0.761378 0.740200
C31 C 0.04854(9) 0.76930(18) 0.64573(17)
H36 H 0.034302 0.832342 0.607253
O6 O -0.00144(8) 0.59092(16) 0.86262(13)
H37 H -0.0370(16) 0.619(3) 0.862(2)
C36 C 0.32003(15) 0.9283(3) 0.4247(3)
H50 H 0.317944 0.946232 0.500371
H51 H 0.340882 0.855203 0.418006
Cl1 Cl 0.36533(3) 1.02809(6) 0.36250(7)
Cl2 Cl 0.24296(3) 0.92080(6) 0.37144(6)
O7? O 0.4478(5) 0.7335(9) 0.8253(10)
O8? O 0.4950(3) 0.6562(7) 0.6831(6)
C32? C 0.5225(6) 0.6854(13) 0.9637(7)
H38? H 0.500463 0.736211 1.010720
H39? H 0.567631 0.682041 0.984007
H40? H 0.503731 0.611334 0.968905
C33? C 0.5419(4) 0.8443(6) 0.8445(11)
H41? H 0.587506 0.846241 0.861858
H42? H 0.519396 0.895185 0.890781
H43? H 0.534928 0.866978 0.771348
C34? C 0.5434(5) 0.5241(6) 0.8025(7)
H44? H 0.574094 0.510659 0.860096
H45? H 0.555003 0.479796 0.741418
H46? H 0.500768 0.503182 0.824705
C35? C 0.6064(5) 0.6780(11) 0.7241(10)
H47? H 0.640764 0.674094 0.777065
H48? H 0.603389 0.753618 0.696387
H49? H 0.615297 0.626549 0.666716
loop_
_geom_bond_atom_site_label_1
_geom_bond_atom_site_label_2
_geom_bond_site_symmetry_1
_geom_bond_site_symmetry_2
N1 C1 1_555 1_555
C1 C2 1_555 1_555
C2 H1 1_555 1_555
C3 C2 1_555 1_555
H2 C3 1_555 1_555
C4 C3 1_555 1_555
B1 C4 1_555 1_555
O1 B1 1_555 1_555
O2 B1 1_555 1_555
C5 H3 1_555 1_555
H4 C5 1_555 1_555
H5 C5 1_555 1_555
C6 H6 1_555 1_555
H7 C6 1_555 1_555
H8 C6 1_555 1_555
C7 H9 1_555 1_555
H10 C7 1_555 1_555
H11 C7 1_555 1_555
C8 H12 1_555 1_555
H13 C8 1_555 1_555
H14 C8 1_555 1_555
C9 O1 1_555 1_555
C10 O2 1_555 1_555
C11 C4 1_555 1_555
H15 C11 1_555 1_555
C12 C1 1_555 1_555
O3 C12 1_555 1_555
C13 O3 1_555 1_555
C14 C13 1_555 1_555
H16 C14 1_555 1_555
C15 C14 1_555 1_555
B2 C15 1_555 1_555
O4 B2 1_555 1_555
O5 B2 1_555 1_555
C16 O4 1_555 1_555
C17 C16 1_555 1_555
H17 C17 1_555 1_555
H18 C17 1_555 1_555
H19 C17 1_555 1_555
C18 C16 1_555 1_555
H20 C18 1_555 1_555
H21 C18 1_555 1_555
H22 C18 1_555 1_555
C19 O5 1_555 1_555
C20 C19 1_555 1_555
H23 C20 1_555 1_555
H24 C20 1_555 1_555
H25 C20 1_555 1_555
C21 C19 1_555 1_555
H26 C21 1_555 1_555
H27 C21 1_555 1_555
H28 C21 1_555 1_555
C22 C15 1_555 1_555
H29 C22 1_555 1_555
C23 C22 1_555 1_555
H30 C23 1_555 1_555
C24 N1 1_555 1_555
C25 N1 1_555 1_555
H31 C25 1_555 1_555
H32 C25 1_555 1_555
C26 C25 1_555 1_555
C27 C26 1_555 1_555
H33 C27 1_555 1_555
C28 C27 1_555 1_555
H34 C28 1_555 1_555
C29 C28 1_555 1_555
C30 C29 1_555 1_555
H35 C30 1_555 1_555
C31 C26 1_555 1_555
H36 C31 1_555 1_555
O6 C29 1_555 1_555
H37 O6 1_555 1_555
C36 H50 1_555 1_555
H51 C36 1_555 1_555
Cl1 C36 1_555 1_555
Cl2 C36 1_555 1_555
C5 C9 1_555 1_555
C6 C9 1_555 1_555
C7 C10 1_555 1_555
C8 C10 1_555 1_555
C9 C10 1_555 1_555
C11 C12 1_555 1_555
C13 C24 1_555 1_555
C16 C19 1_555 1_555
C23 C24 1_555 1_555
C30 C31 1_555 1_555

#END
