
#######################################################################
#
#                 Cambridge Crystallographic Data Centre
#                                CCDC 
#
#######################################################################
#
# If this CIF has been generated from an entry in the Cambridge 
# Structural Database, then it will include bibliographic, chemical, 
# crystal, experimental, refinement or atomic coordinate data resulting 
# from the CCDC's data processing and validation procedures.
#
#######################################################################

data_BIKYOM
_chemical_formula_moiety         'C40 H27 N3'
_chemical_name_systematic        
2,7,12,13-tetraphenyl-17,18,19-triazatetracyclo[12.2.1.1^3,6^.1^8,11^]nonadeca-1,3(19),4,6,8,10,12,14(17),15-nonaene
_symmetry_cell_setting           monoclinic
_symmetry_space_group_name_H-M   'I 2/a'
_symmetry_Int_Tables_number      15
_space_group_name_Hall           '-I 2ya'
loop_
_symmetry_equiv_pos_site_id
_symmetry_equiv_pos_as_xyz
1 x,y,z
2 1/2-x,y,-z
3 1/2+x,1/2+y,1/2+z
4 -x,1/2+y,1/2-z
5 -x,-y,-z
6 1/2+x,-y,z
7 1/2-x,1/2-y,1/2-z
8 x,1/2-y,1/2+z
_cell_length_a                   40.424(4)
_cell_length_b                   6.9876(5)
_cell_length_c                   44.765(4)
_cell_angle_alpha                90
_cell_angle_beta                 110.991(10)
_cell_angle_gamma                90
_cell_volume                     11805.5
_exptl_crystal_colour            red
_exptl_crystal_description       trapezium
_chemical_melting_point          '425 K'
_cell_formula_units_Z            16
_exptl_crystal_recrystallization_method 'Vapour deposition'
loop_
_atom_site_label
_atom_site_type_symbol
_atom_site_fract_x
_atom_site_fract_y
_atom_site_fract_z
N1 N 0.86740(10) 0.7578(5) 0.67343(8)
N2 N 0.82775(10) 0.5589(5) 0.62655(8)
N3 N 0.87346(10) 0.7914(5) 0.61914(8)
H1 H 0.8687 0.7409 0.6347
C1 C 0.85227(13) 0.7853(6) 0.71783(11)
H2 H 0.8421 0.7608 0.7331
C2 C 0.88334(12) 0.9140(6) 0.68977(10)
C3 C 0.81819(12) 0.2426(6) 0.63378(11)
H3 H 0.8138 0.1311 0.6431
C4 C 0.84793(12) 0.6741(6) 0.68964(10)
C5 C 0.82299(11) 0.4343(6) 0.64753(10)
C6 C 0.92722(12) 1.1727(6) 0.70694(10)
C7 C 0.91037(11) 1.0532(6) 0.65078(10)
C8 C 0.89351(12) 0.9487(6) 0.62159(10)
C9 C 0.82850(12) 0.4601(6) 0.60083(11)
C10 C 0.87412(13) 0.9334(7) 0.71781(11)
H4 H 0.8817 1.0296 0.7331
C11 C 0.89433(13) 0.9882(7) 0.59063(11)
H5 H 0.9059 1.0902 0.5853
C12 C 0.86160(12) 0.7229(6) 0.58815(10)
C13 C 0.82143(12) 0.2588(6) 0.60467(11)
H6 H 0.8195 0.1608 0.5901
C14 C 0.93703(12) 1.1987(6) 0.64777(11)
C15 C 0.81825(13) 0.3799(6) 0.70116(12)
C16 C 0.82912(12) 0.4990(6) 0.67902(11)
C17 C 0.84220(12) 0.5502(6) 0.57941(10)
C18 C 0.90655(12) 1.0393(6) 0.68037(10)
C19 C 0.91967(13) 1.3674(6) 0.70561(11)
H7 H 0.9027 1.4195 0.6874
C20 C 0.80546(15) 0.3740(7) 0.53036(11)
H8 H 0.7860 0.3920 0.5365
C21 C 0.98679(15) 1.4634(8) 0.64408(12)
H9 H 1.0035 1.5522 0.6431
C22 C 0.87520(14) 0.8503(7) 0.57020(11)
H10 H 0.8716 0.8405 0.5485
C23 C 0.86687(14) 0.4251(7) 0.53927(11)
H11 H 0.8888 0.4770 0.5513
C24 C 0.97048(14) 1.2160(8) 0.76055(12)
H12 H 0.9874 1.1648 0.7789
C25 C 0.83839(14) 0.4522(7) 0.54899(11)
C26 C 0.80161(16) 0.2719(7) 0.50334(12)
H13 H 0.7796 0.2212 0.4912
C27 C 0.97242(13) 1.1508(7) 0.65686(12)
H14 H 0.9795 1.0271 0.6640
C28 C 0.95134(15) 1.5133(7) 0.63393(12)
H15 H 0.9441 1.6354 0.6260
C29 C 0.86309(16) 0.3212(8) 0.51178(12)
H16 H 0.8823 0.3037 0.5053
C30 C 0.96275(14) 1.4095(8) 0.75873(13)
H17 H 0.9745 1.4899 0.7758
C31 C 0.93742(14) 1.4828(7) 0.73126(12)
H18 H 0.9323 1.6129 0.7301
C32 C 0.83924(15) 0.3631(7) 0.73354(12)
H19 H 0.8603 0.4318 0.7418
C33 C 0.95259(13) 1.0986(7) 0.73452(11)
H20 H 0.9577 0.9685 0.7356
C34 C 0.92687(14) 1.3808(7) 0.63562(12)
H21 H 0.9030 1.4141 0.6285
C35 C 0.83023(18) 0.2439(7) 0.49408(13)
H22 H 0.8276 0.1726 0.4758
C36 C 0.82882(19) 0.2450(8) 0.75322(14)
H23 H 0.8428 0.2341 0.7748
C37 C 0.78681(15) 0.2745(7) 0.68923(14)
H24 H 0.7724 0.2840 0.6678
C38 C 0.99740(14) 1.2805(8) 0.65573(13)
H25 H 1.0212 1.2463 0.6627
C39 C 0.77730(18) 0.1569(8) 0.70941(19)
H26 H 0.7566 0.0855 0.7014
C40 C 0.7976(2) 0.1430(8) 0.74078(19)
H27 H 0.7905 0.0641 0.7541
N4 N 0.61029(10) 0.4868(5) 0.55470(8)
N5 N 0.59123(10) 0.2810(5) 0.59344(8)
N6 N 0.65577(10) 0.2806(5) 0.59798(8)
H28 H 0.6345 0.3217 0.5938
C41 C 0.71175(13) 0.2497(7) 0.59908(10)
H29 H 0.7326 0.2700 0.5953
C42 C 0.70585(13) 0.1089(7) 0.61775(10)
H30 H 0.7221 0.0165 0.6291
C43 C 0.62487(13) 0.7998(7) 0.54862(10)
H31 H 0.6379 0.9049 0.5464
C44 C 0.67980(12) 0.3611(6) 0.58632(10)
C45 C 0.69620(13) 0.7103(6) 0.53185(11)
H32 H 0.6748 0.6892 0.5152
C46 C 0.66997(12) 0.1290(6) 0.61681(10)
C47 C 0.58223(13) 0.6011(7) 0.55109(10)
C48 C 0.67677(12) -0.1240(6) 0.65634(10)
C49 C 0.70134(13) 0.6378(6) 0.56210(11)
C50 C 0.68961(12) -0.0875(7) 0.68886(10)
H33 H 0.6824 0.0219 0.6967
C51 C 0.72410(13) -0.3745(7) 0.69872(12)
H34 H 0.7404 -0.4565 0.7128
C52 C 0.60622(12) -0.1323(6) 0.65070(10)
C53 C 0.59307(13) -0.2088(8) 0.69782(12)
H35 H 0.5900 -0.1696 0.7165
C54 C 0.65226(13) 0.0141(6) 0.63314(10)
C55 C 0.59050(13) 0.7991(7) 0.54652(11)
H36 H 0.5754 0.9038 0.5429
C56 C 0.63719(13) 0.6020(7) 0.55503(10)
C57 C 0.60044(13) -0.0744(7) 0.67816(11)
H37 H 0.6015 0.0548 0.6834
C58 C 0.73341(13) 0.6742(7) 0.58701(12)
H38 H 0.7374 0.6254 0.6073
C59 C 0.67266(13) 0.5284(6) 0.56727(10)
C60 C 0.58742(13) 0.1264(7) 0.61040(11)
C61 C 0.55011(13) 0.0993(7) 0.60494(11)
H39 H 0.5403 0.0030 0.6135
C62 C 0.75955(14) 0.7839(7) 0.58140(12)
H40 H 0.7806 0.8111 0.5982
C63 C 0.61633(13) 0.0125(6) 0.63035(10)
C64 C 0.72272(15) 0.8137(7) 0.52643(13)
H41 H 0.7193 0.8580 0.5060
C65 C 0.53225(14) 0.2419(7) 0.58496(12)
H42 H 0.5079 0.2614 0.5774
C66 C 0.55807(12) 0.3579(7) 0.57756(11)
C67 C 0.71333(13) -0.2138(7) 0.71003(11)
H43 H 0.7218 -0.1885 0.7319
C68 C 0.59033(13) -0.3985(8) 0.68978(12)
H44 H 0.5853 -0.4883 0.7029
C69 C 0.51998(13) 0.6364(7) 0.55012(12)
C70 C 0.60332(14) -0.3249(7) 0.64295(11)
H45 H 0.6069 -0.3664 0.6246
C71 C 0.55345(13) 0.5266(7) 0.55876(11)
C72 C 0.59509(15) -0.4553(7) 0.66232(12)
H46 H 0.5927 -0.5840 0.6566
C73 C 0.75424(15) 0.8515(7) 0.55128(13)
H47 H 0.7718 0.9228 0.5476
C74 C 0.71084(16) -0.4156(8) 0.66649(12)
H48 H 0.7175 -0.5271 0.6588
C75 C 0.50315(13) 0.6656(7) 0.57197(14)
H49 H 0.5129 0.6122 0.5923
C76 C 0.68756(15) -0.2894(7) 0.64584(12)
H50 H 0.6788 -0.3168 0.6241
C77 C 0.50509(15) 0.7174(8) 0.51969(13)
H51 H 0.5160 0.7008 0.5047
C78 C 0.45794(17) 0.8515(9) 0.5337(2)
H52 H 0.4374 0.9243 0.5282
C79 C 0.47397(17) 0.8230(9) 0.51182(17)
H53 H 0.4639 0.8748 0.4914
C80 C 0.47249(16) 0.7713(9) 0.56434(18)
H54 H 0.4616 0.7892 0.5793
loop_
_geom_bond_atom_site_label_1
_geom_bond_atom_site_label_2
_geom_bond_site_symmetry_1
_geom_bond_site_symmetry_2
N1 C2 1_555 1_555
N2 C5 1_555 1_555
N3 H1 1_555 1_555
C1 H2 1_555 1_555
C2 C10 1_555 1_555
C3 H3 1_555 1_555
C4 N1 1_555 1_555
C5 C3 1_555 1_555
C6 C18 1_555 1_555
C7 C8 1_555 1_555
C8 N3 1_555 1_555
C9 N2 1_555 1_555
C10 C1 1_555 1_555
H4 C10 1_555 1_555
C11 C8 1_555 1_555
H5 C11 1_555 1_555
C12 N3 1_555 1_555
C13 C3 1_555 1_555
H6 C13 1_555 1_555
C14 C7 1_555 1_555
C15 C16 1_555 1_555
C16 C4 1_555 1_555
C17 C9 1_555 1_555
C18 C2 1_555 1_555
C19 C6 1_555 1_555
H7 C19 1_555 1_555
C20 H8 1_555 1_555
C21 H9 1_555 1_555
C22 C11 1_555 1_555
H10 C22 1_555 1_555
C23 H11 1_555 1_555
C24 H12 1_555 1_555
C25 C17 1_555 1_555
C26 C20 1_555 1_555
H13 C26 1_555 1_555
C27 C14 1_555 1_555
H14 C27 1_555 1_555
C28 C21 1_555 1_555
H15 C28 1_555 1_555
C29 C23 1_555 1_555
H16 C29 1_555 1_555
C30 C24 1_555 1_555
H17 C30 1_555 1_555
C31 C19 1_555 1_555
H18 C31 1_555 1_555
C32 C15 1_555 1_555
H19 C32 1_555 1_555
C33 C6 1_555 1_555
H20 C33 1_555 1_555
C34 C14 1_555 1_555
H21 C34 1_555 1_555
C35 C26 1_555 1_555
H22 C35 1_555 1_555
C36 C32 1_555 1_555
H23 C36 1_555 1_555
C37 C15 1_555 1_555
H24 C37 1_555 1_555
C38 C21 1_555 1_555
H25 C38 1_555 1_555
C39 C37 1_555 1_555
H26 C39 1_555 1_555
C40 C36 1_555 1_555
H27 C40 1_555 1_555
N4 C47 1_555 1_555
N5 C60 1_555 1_555
N6 H28 1_555 1_555
C41 H29 1_555 1_555
C42 C41 1_555 1_555
H30 C42 1_555 1_555
C43 H31 1_555 1_555
C44 N6 1_555 1_555
C45 H32 1_555 1_555
C46 N6 1_555 1_555
C47 C55 1_555 1_555
C48 C50 1_555 1_555
C49 C45 1_555 1_555
C50 H33 1_555 1_555
C51 H34 1_555 1_555
C52 C57 1_555 1_555
C53 H35 1_555 1_555
C54 C46 1_555 1_555
C55 C43 1_555 1_555
H36 C55 1_555 1_555
C56 N4 1_555 1_555
C57 C53 1_555 1_555
H37 C57 1_555 1_555
C58 C49 1_555 1_555
H38 C58 1_555 1_555
C59 C44 1_555 1_555
C60 C61 1_555 1_555
C61 H39 1_555 1_555
C62 C58 1_555 1_555
H40 C62 1_555 1_555
C63 C52 1_555 1_555
C64 C45 1_555 1_555
H41 C64 1_555 1_555
C65 C61 1_555 1_555
H42 C65 1_555 1_555
C66 N5 1_555 1_555
C67 C50 1_555 1_555
H43 C67 1_555 1_555
C68 C53 1_555 1_555
H44 C68 1_555 1_555
C69 C71 1_555 1_555
C70 C52 1_555 1_555
H45 C70 1_555 1_555
C71 C47 1_555 1_555
C72 C68 1_555 1_555
H46 C72 1_555 1_555
C73 C62 1_555 1_555
H47 C73 1_555 1_555
C74 C51 1_555 1_555
H48 C74 1_555 1_555
C75 C69 1_555 1_555
H49 C75 1_555 1_555
C76 C48 1_555 1_555
H50 C76 1_555 1_555
C77 C69 1_555 1_555
H51 C77 1_555 1_555
C78 H52 1_555 1_555
C79 C77 1_555 1_555
H53 C79 1_555 1_555
C80 C75 1_555 1_555
H54 C80 1_555 1_555
C1 C4 1_555 1_555
C5 C16 1_555 1_555
C7 C18 1_555 1_555
C9 C13 1_555 1_555
C12 C17 1_555 1_555
C12 C22 1_555 1_555
C20 C25 1_555 1_555
C23 C25 1_555 1_555
C24 C33 1_555 1_555
C27 C38 1_555 1_555
C28 C34 1_555 1_555
C29 C35 1_555 1_555
C30 C31 1_555 1_555
C39 C40 1_555 1_555
C41 C44 1_555 1_555
C42 C46 1_555 1_555
C43 C56 1_555 1_555
C48 C54 1_555 1_555
C49 C59 1_555 1_555
C51 C67 1_555 1_555
C54 C63 1_555 1_555
C56 C59 1_555 1_555
C60 C63 1_555 1_555
C64 C73 1_555 1_555
C65 C66 1_555 1_555
C66 C71 1_555 1_555
C70 C72 1_555 1_555
C74 C76 1_555 1_555
C78 C79 1_555 1_555
C78 C80 1_555 1_555

#END
