
#######################################################################
#
#                 Cambridge Crystallographic Data Centre
#                                CCDC 
#
#######################################################################
#
# If this CIF has been generated from an entry in the Cambridge 
# Structural Database, then it will include bibliographic, chemical, 
# crystal, experimental, refinement or atomic coordinate data resulting 
# from the CCDC's data processing and validation procedures.
#
#######################################################################

data_BIKZON
_chemical_formula_moiety         'C33 H41 N5 O8'
_chemical_name_systematic        
N-(((9H-fluoren-9-yl)methoxy)carbonyl)threonylprolylprolylthreoninamide
_symmetry_cell_setting           monoclinic
_symmetry_space_group_name_H-M   'P 21'
_symmetry_Int_Tables_number      4
_space_group_name_Hall           'P 2yb'
loop_
_symmetry_equiv_pos_site_id
_symmetry_equiv_pos_as_xyz
1 x,y,z
2 -x,1/2+y,-z
_cell_length_a                   10.23724(8)
_cell_length_b                   11.38161(9)
_cell_length_c                   13.96504(12)
_cell_angle_alpha                90
_cell_angle_beta                 107.4386(9)
_cell_angle_gamma                90
_cell_volume                     1552.37
_exptl_crystal_colour            colorless
_exptl_crystal_description       'rectangular prism'
_cell_formula_units_Z            2
loop_
_atom_site_label
_atom_site_type_symbol
_atom_site_fract_x
_atom_site_fract_y
_atom_site_fract_z
O1 O 0.4531(2) 0.2983(2) -0.03820(17)
H1 H 0.4403 0.2281 -0.0249
O2 O 0.2138(2) 0.4171(2) 0.14032(17)
O3 O 0.1952(2) 0.6993(2) 0.11555(16)
O4 O 0.1397(2) 0.9268(2) 0.22838(17)
O5 O 0.2662(2) 1.0988(2) -0.02150(18)
O6 O 0.2139(2) 1.1396(2) 0.19060(17)
H2 H 0.2163 1.0727 0.2164
O7 O 0.6783(3) 0.2733(4) 0.2411(2)
O8 O 0.5540(3) 0.1104(3) 0.2524(3)
N1 N 0.4488(3) 0.2608(2) 0.16274(19)
H3 H 0.3768 0.2146 0.1513
N2 N 0.3854(3) 0.5377(2) 0.2210(2)
N3 N 0.0735(3) 0.6908(3) 0.22561(19)
N4 N 0.0126(3) 0.9382(2) 0.06406(19)
H4 H -0.0558 0.9057 0.0176
N5 N 0.2640(3) 0.9098(3) 0.0301(2)
H5 H 0.341(4) 0.888(4) 0.015(3)
H6 H 0.215(4) 0.853(4) 0.053(3)
C1 C 0.3729(4) 0.4952(3) -0.0397(3)
H7 H 0.4673 0.5220 -0.0283
H8 H 0.3251 0.5495 -0.0072
H9 H 0.3256 0.4928 -0.1120
C2 C 0.3738(3) 0.3734(3) 0.0042(2)
H10 H 0.2778 0.3430 -0.0139
C3 C 0.4332(3) 0.3774(3) 0.1186(2)
H11 H 0.5243 0.4175 0.1371
C4 C 0.3352(3) 0.4472(3) 0.1609(2)
C5 C 0.5227(3) 0.5920(3) 0.2426(3)
H12 H 0.5482 0.6039 0.1803
H13 H 0.5935 0.5432 0.2898
C6 C 0.5041(3) 0.7092(3) 0.2901(3)
H14 H 0.5912 0.7355 0.3385
H15 H 0.4715 0.7706 0.2382
C7 C 0.3973(3) 0.6838(3) 0.3431(3)
H16 H 0.3494 0.7566 0.3521
H17 H 0.4397 0.6473 0.4095
C8 C 0.2982(3) 0.5977(3) 0.2715(2)
H18 H 0.2599 0.5404 0.3103
C9 C 0.1840(3) 0.6644(3) 0.1967(2)
C10 C 0.0484(3) 0.6593(3) 0.3206(3)
H19 H 0.1055 0.7069 0.3770
H20 H 0.0666 0.5749 0.3362
C11 C -0.1029(4) 0.6877(4) 0.2994(3)
H21 H -0.1254 0.7042 0.3622
H22 H -0.1611 0.6224 0.2634
C12 C -0.1213(4) 0.7973(3) 0.2334(3)
H23 H -0.0937 0.8688 0.2750
H24 H -0.2178 0.8058 0.1916
C13 C -0.0269(3) 0.7768(3) 0.1673(2)
H25 H -0.0794 0.7440 0.1004
C14 C 0.0494(3) 0.8880(3) 0.1553(2)
C15 C 0.0764(3) 1.0425(3) 0.0348(2)
H26 H 0.0114 1.0691 -0.0304
C16 C 0.2126(3) 1.0176(3) 0.0124(2)
C17 C 0.0944(3) 1.1493(3) 0.1059(2)
H27 H 0.1088 1.2191 0.0668
C18 C -0.0323(3) 1.1750(3) 0.1371(3)
H28 H -0.0461 1.1119 0.1809
H29 H -0.1122 1.1798 0.0773
H30 H -0.0206 1.2498 0.1733
C19 C 0.5706(4) 0.2218(4) 0.2206(3)
C20 C 0.8069(4) -0.0373(5) 0.4699(3)
C21 C 0.9437(4) -0.0288(5) 0.4730(3)
H31 H 0.9704 0.0195 0.4266
C22 C 1.0399(4) -0.0923(5) 0.5452(3)
H32 H 1.1338 -0.0863 0.5487
C23 C 1.0022(4) -0.1646(4) 0.6124(3)
H33 H 1.0702 -0.2080 0.6608
C24 C 0.8654(4) -0.1742(3) 0.6096(3)
H34 H 0.8389 -0.2231 0.6557
C25 C 0.7691(3) -0.1102(3) 0.5376(2)
C26 C 0.6216(3) -0.0967(3) 0.5209(2)
C27 C 0.5383(3) -0.1433(3) 0.5729(2)
H35 H 0.5740 -0.1960 0.6272
C28 C 0.4009(3) -0.1112(3) 0.5440(3)
H36 H 0.3423 -0.1418 0.5794
C29 C 0.3481(3) -0.0349(3) 0.4637(3)
H37 H 0.2536 -0.0152 0.4441
C30 C 0.4316(4) 0.0124(4) 0.4125(3)
H38 H 0.3956 0.0646 0.3579
C31 C 0.5689(4) -0.0175(4) 0.4421(3)
C32 C 0.6629(5) 0.0354(5) 0.2997(4)
H39 H 0.7470 0.0594 0.2839
H40 H 0.6407 -0.0466 0.2770
C33 C 0.6831(5) 0.0457(9) 0.4118(5)
H41 H 0.6960 0.1288 0.4360
C34? C 0.6995(8) 0.1062(9) 0.3549(7)
H42? H 0.7843 0.1195 0.3362
H43? H 0.6951 0.1618 0.4083
C35? C 0.6836(9) -0.0179(15) 0.3818(9)
H44? H 0.6688 -0.0762 0.3260
loop_
_geom_bond_atom_site_label_1
_geom_bond_atom_site_label_2
_geom_bond_site_symmetry_1
_geom_bond_site_symmetry_2
O1 H1 1_555 1_555
O2 C4 1_555 1_555
O3 C9 1_555 1_555
O4 C14 1_555 1_555
O5 C16 1_555 1_555
O6 H2 1_555 1_555
O7 C19 1_555 1_555
O8 C19 1_555 1_555
N1 H3 1_555 1_555
N2 C4 1_555 1_555
N3 C9 1_555 1_555
N4 H4 1_555 1_555
N5 H5 1_555 1_555
H6 N5 1_555 1_555
C1 H7 1_555 1_555
H8 C1 1_555 1_555
H9 C1 1_555 1_555
C2 O1 1_555 1_555
H10 C2 1_555 1_555
C3 N1 1_555 1_555
H11 C3 1_555 1_555
C4 C3 1_555 1_555
C5 N2 1_555 1_555
H12 C5 1_555 1_555
H13 C5 1_555 1_555
C6 C5 1_555 1_555
H14 C6 1_555 1_555
H15 C6 1_555 1_555
C7 C6 1_555 1_555
H16 C7 1_555 1_555
H17 C7 1_555 1_555
C8 N2 1_555 1_555
H18 C8 1_555 1_555
C9 C8 1_555 1_555
C10 N3 1_555 1_555
H19 C10 1_555 1_555
H20 C10 1_555 1_555
C11 C10 1_555 1_555
H21 C11 1_555 1_555
H22 C11 1_555 1_555
C12 C11 1_555 1_555
H23 C12 1_555 1_555
H24 C12 1_555 1_555
C13 N3 1_555 1_555
H25 C13 1_555 1_555
C14 N4 1_555 1_555
C15 N4 1_555 1_555
H26 C15 1_555 1_555
C16 N5 1_555 1_555
C17 O6 1_555 1_555
H27 C17 1_555 1_555
C18 C17 1_555 1_555
H28 C18 1_555 1_555
H29 C18 1_555 1_555
H30 C18 1_555 1_555
C19 N1 1_555 1_555
C20 C21 1_555 1_555
C21 H31 1_555 1_555
C22 C21 1_555 1_555
H32 C22 1_555 1_555
C23 C22 1_555 1_555
H33 C23 1_555 1_555
C24 C23 1_555 1_555
H34 C24 1_555 1_555
C25 C20 1_555 1_555
C26 C25 1_555 1_555
C27 C26 1_555 1_555
H35 C27 1_555 1_555
C28 C27 1_555 1_555
H36 C28 1_555 1_555
C29 C28 1_555 1_555
H37 C29 1_555 1_555
C30 C29 1_555 1_555
H38 C30 1_555 1_555
C31 C26 1_555 1_555
C32 O8 1_555 1_555
H39 C32 1_555 1_555
H40 C32 1_555 1_555
C33 C20 1_555 1_555
H41 C33 1_555 1_555
C1 C2 1_555 1_555
C2 C3 1_555 1_555
C7 C8 1_555 1_555
C12 C13 1_555 1_555
C13 C14 1_555 1_555
C15 C16 1_555 1_555
C15 C17 1_555 1_555
C24 C25 1_555 1_555
C30 C31 1_555 1_555
C31 C33 1_555 1_555
C32 C33 1_555 1_555

#END
