
#######################################################################
#
#                 Cambridge Crystallographic Data Centre
#                                CCDC 
#
#######################################################################
#
# If this CIF has been generated from an entry in the Cambridge 
# Structural Database, then it will include bibliographic, chemical, 
# crystal, experimental, refinement or atomic coordinate data resulting 
# from the CCDC's data processing and validation procedures.
#
#######################################################################

data_BILBUV
_chemical_formula_moiety         'C18 H15 Br1 N1 O3 P1'
_chemical_name_systematic        'Diphenyl (3-bromophenyl)phosphoramidate'
_symmetry_cell_setting           triclinic
_symmetry_space_group_name_H-M   'P -1'
_symmetry_Int_Tables_number      2
_space_group_name_Hall           '-P 1'
loop_
_symmetry_equiv_pos_site_id
_symmetry_equiv_pos_as_xyz
1 x,y,z
2 -x,-y,-z
_cell_length_a                   10.1842(2)
_cell_length_b                   10.2741(2)
_cell_length_c                   10.7121(3)
_cell_angle_alpha                108.3036(8)
_cell_angle_beta                 94.3109(10)
_cell_angle_gamma                118.0843(9)
_cell_volume                     904.952
_exptl_crystal_colour            colorless
_exptl_crystal_description       prism
_cell_formula_units_Z            2
loop_
_atom_site_label
_atom_site_type_symbol
_atom_site_fract_x
_atom_site_fract_y
_atom_site_fract_z
C1 C 1.1855(3) 0.7708(3) 0.7538(3)
C2 C 1.1072(4) 0.6164(4) 0.7455(4)
H1 H 1.0011 0.551 0.7068
C3 C 1.1886(5) 0.5588(5) 0.7956(5)
H2 H 1.1372 0.4543 0.7913
C4 C 1.3449(5) 0.6561(5) 0.8516(4)
H3 H 1.3991 0.6175 0.886
C5 C 1.4220(4) 0.8095(5) 0.8576(4)
H4 H 1.5283 0.8744 0.8951
C6 C 1.3416(4) 0.8688(4) 0.8075(3)
H5 H 1.3931 0.9727 0.8106
C7 C 0.8986(3) 1.0471(3) 0.6995(3)
C8 C 0.8648(4) 1.0803(4) 0.5919(3)
H6 H 0.8919 1.0468 0.5121
C9 C 0.7902(5) 1.1637(5) 0.6026(4)
H7 H 0.7665 1.1863 0.5295
C10 C 0.7506(5) 1.2137(5) 0.7194(4)
H8 H 0.7012 1.2712 0.7262
C11 C 0.7836(6) 1.1790(6) 0.8259(4)
H9 H 0.7557 1.2123 0.9053
C12 C 0.8580(5) 1.0951(5) 0.8176(4)
H10 H 0.8803 1.0714 0.8905
C13 C 0.7601(3) 0.6365(3) 0.7361(3)
C14 C 0.7427(3) 0.5713(4) 0.5969(3)
H11 H 0.8159 0.6283 0.5577
C15 C 0.6151(4) 0.4201(4) 0.5164(3)
H12 H 0.6039 0.3766 0.4232
C16 C 0.5052(4) 0.3336(4) 0.5718(3)
H13 H 0.4205 0.2323 0.5174
C17 C 0.5239(3) 0.4012(3) 0.7105(3)
C18 C 0.6495(3) 0.5509(3) 0.7936(3)
H14 H 0.66 0.5938 0.8868
N1 N 0.8881(2) 0.7876(3) 0.8259(2)
O1 O 1.1424(2) 1.0553(2) 0.91797(18)
O2 O 1.1029(2) 0.8281(2) 0.69854(18)
O3 O 0.9737(2) 0.9605(2) 0.67965(19)
P1 P 1.03410(7) 0.91819(7) 0.79212(7)
Br1 Br 0.37725(4) 0.28278(4) 0.79178(4)
H15 H 0.882(4) 0.829(4) 0.9082(13)
loop_
_geom_bond_atom_site_label_1
_geom_bond_atom_site_label_2
_geom_bond_site_symmetry_1
_geom_bond_site_symmetry_2
C1 C2 1_555 1_555
C2 H1 1_555 1_555
C3 C2 1_555 1_555
H2 C3 1_555 1_555
C4 C3 1_555 1_555
H3 C4 1_555 1_555
C5 C4 1_555 1_555
H4 C5 1_555 1_555
C6 C1 1_555 1_555
H5 C6 1_555 1_555
C7 C8 1_555 1_555
C8 H6 1_555 1_555
C9 C8 1_555 1_555
H7 C9 1_555 1_555
C10 C9 1_555 1_555
H8 C10 1_555 1_555
C11 C10 1_555 1_555
H9 C11 1_555 1_555
C12 C7 1_555 1_555
H10 C12 1_555 1_555
C13 C14 1_555 1_555
C14 H11 1_555 1_555
C15 C14 1_555 1_555
H12 C15 1_555 1_555
C16 C15 1_555 1_555
H13 C16 1_555 1_555
C17 C16 1_555 1_555
C18 C13 1_555 1_555
H14 C18 1_555 1_555
N1 C13 1_555 1_555
O1 P1 1_555 1_555
O2 C1 1_555 1_555
O3 C7 1_555 1_555
P1 N1 1_555 1_555
Br1 C17 1_555 1_555
H15 N1 1_555 1_555
C5 C6 1_555 1_555
C11 C12 1_555 1_555
C17 C18 1_555 1_555
O2 P1 1_555 1_555
O3 P1 1_555 1_555

#END
