
#######################################################################
#
#                 Cambridge Crystallographic Data Centre
#                                CCDC 
#
#######################################################################
#
# If this CIF has been generated from an entry in the Cambridge 
# Structural Database, then it will include bibliographic, chemical, 
# crystal, experimental, refinement or atomic coordinate data resulting 
# from the CCDC's data processing and validation procedures.
#
#######################################################################

data_BILCOO01
_chemical_formula_moiety         'C14 H14 O2 S2'
_chemical_name_systematic        'S-(p-Tolyl) p-toluenethiosulfonate'
_symmetry_cell_setting           monoclinic
_symmetry_space_group_name_H-M   'P 21/c'
_symmetry_Int_Tables_number      14
_space_group_name_Hall           '-P 2ybc'
loop_
_symmetry_equiv_pos_site_id
_symmetry_equiv_pos_as_xyz
1 x,y,z
2 -x,1/2+y,1/2-z
3 -x,-y,-z
4 x,1/2-y,1/2+z
_cell_length_a                   13.1835(11)
_cell_length_b                   6.5050(4)
_cell_length_c                   15.2171(9)
_cell_angle_alpha                90
_cell_angle_beta                 92.217(4)
_cell_angle_gamma                90
_cell_volume                     1304.02
_exptl_crystal_colour            colorless
_exptl_crystal_description       lath
_chemical_melting_point          356-357K
_cell_formula_units_Z            4
_exptl_crystal_recrystallization_method ethanol
loop_
_atom_site_label
_atom_site_type_symbol
_atom_site_fract_x
_atom_site_fract_y
_atom_site_fract_z
S1 S 0.22172(4) 0.25543(9) 0.63560(4)
S2 S 0.37885(5) 0.25166(9) 0.66447(4)
O1 O 0.21343(14) 0.3765(3) 0.55591(10)
O2 O 0.18324(13) 0.0511(3) 0.63586(11)
C1 C 0.16805(17) 0.3932(4) 0.72206(14)
C2 C 0.13586(17) 0.5946(4) 0.70731(15)
C3 C 0.09846(18) 0.7063(4) 0.77633(16)
C4 C 0.09586(17) 0.6222(4) 0.86083(15)
C5 C 0.12682(18) 0.4195(4) 0.87332(15)
C6 C 0.16187(18) 0.3030(4) 0.80478(15)
C7 C 0.0638(2) 0.7514(4) 0.93730(18)
C8 C 0.38350(17) 0.0886(4) 0.75802(14)
C9 C 0.36020(18) -0.1190(4) 0.74939(15)
C10 C 0.35424(18) -0.2400(4) 0.82388(16)
C11 C 0.37296(17) -0.1587(4) 0.90763(15)
C12 C 0.39986(18) 0.0471(4) 0.91482(15)
C13 C 0.40537(18) 0.1708(4) 0.84125(15)
C14 C 0.3631(2) -0.2916(5) 0.98831(17)
H1 H 0.1395 0.6546 0.6506
H2 H 0.0742 0.8421 0.7662
H3 H 0.1238 0.3598 0.9301
H4 H 0.1814 0.1638 0.8139
H5 H 0.0567 0.6637 0.9890
H6 H -0.0013 0.8176 0.9223
H7 H 0.1153 0.8570 0.9503
H8 H 0.3484 -0.1775 0.6927
H9 H 0.3371 -0.3812 0.8177
H10 H 0.4148 0.1041 0.9713
H11 H 0.4240 0.3113 0.8474
H12 H 0.3514 -0.2041 1.0394
H13 H 0.4258 -0.3705 0.9988
H14 H 0.3059 -0.3862 0.9791
O3? O 0.393(2) 0.4675(9) 0.6771(14)
O4? O 0.409(2) 0.144(3) 0.5880(10)
H15? H 0.0571 0.8952 0.9187
H16? H 0.1151 0.7413 0.9854
H17? H -0.0015 0.7019 0.9574
H18? H 0.3706 -0.4364 0.9721
H19? H 0.2963 -0.2701 1.0127
H20? H 0.4161 -0.2543 1.0324
loop_
_geom_bond_atom_site_label_1
_geom_bond_atom_site_label_2
_geom_bond_site_symmetry_1
_geom_bond_site_symmetry_2
S1 S2 1_555 1_555
S2 C8 1_555 1_555
O1 S1 1_555 1_555
O2 S1 1_555 1_555
C1 S1 1_555 1_555
C2 C1 1_555 1_555
C3 C2 1_555 1_555
C4 C3 1_555 1_555
C5 C4 1_555 1_555
C6 C1 1_555 1_555
C7 C4 1_555 1_555
C8 C9 1_555 1_555
C9 C10 1_555 1_555
C10 C11 1_555 1_555
C11 C12 1_555 1_555
C12 C13 1_555 1_555
C13 C8 1_555 1_555
C14 C11 1_555 1_555
H1 C2 1_555 1_555
H2 C3 1_555 1_555
H3 C5 1_555 1_555
H4 C6 1_555 1_555
H5 C7 1_555 1_555
H6 C7 1_555 1_555
H7 C7 1_555 1_555
H8 C9 1_555 1_555
H9 C10 1_555 1_555
H10 C12 1_555 1_555
H11 C13 1_555 1_555
H12 C14 1_555 1_555
H13 C14 1_555 1_555
H14 C14 1_555 1_555
C5 C6 1_555 1_555

#END
