
#######################################################################
#
#                 Cambridge Crystallographic Data Centre
#                                CCDC 
#
#######################################################################
#
# If this CIF has been generated from an entry in the Cambridge 
# Structural Database, then it will include bibliographic, chemical, 
# crystal, experimental, refinement or atomic coordinate data resulting 
# from the CCDC's data processing and validation procedures.
#
#######################################################################

data_BILCOO14
_chemical_formula_moiety         'C14 H14 O2 S2'
_chemical_name_systematic        
'S-(4-methylphenyl) 4-methylbenzene-1-sulfonothioate'
_symmetry_cell_setting           monoclinic
_symmetry_space_group_name_H-M   'P 21/c'
_symmetry_Int_Tables_number      14
_space_group_name_Hall           '-P 2ybc'
loop_
_symmetry_equiv_pos_site_id
_symmetry_equiv_pos_as_xyz
1 x,y,z
2 -x,1/2+y,1/2-z
3 -x,-y,-z
4 x,1/2-y,1/2+z
_cell_length_a                   13.3232(9)
_cell_length_b                   6.6293(4)
_cell_length_c                   15.1741(9)
_cell_angle_alpha                90
_cell_angle_beta                 91.993(6)
_cell_angle_gamma                90
_cell_volume                     1339.42
_exptl_crystal_colour            colorless
_exptl_crystal_description       block
_cell_formula_units_Z            4
loop_
_atom_site_label
_atom_site_type_symbol
_atom_site_fract_x
_atom_site_fract_y
_atom_site_fract_z
S1 S 0.12487(5) 0.75134(11) 0.83629(5)
S2 S 0.27936(5) 0.75591(10) 0.86415(4)
O1 O 0.31718(15) 0.5566(3) 0.86289(14)
O2 O 0.28780(16) 0.8725(3) 0.94390(12)
C1 C 0.33192(18) 0.8948(4) 0.77837(16)
C2 C 0.3619(2) 1.0918(4) 0.79259(18)
H1 H 0.3573 1.1492 0.8482
C3 C 0.3984(2) 1.2025(4) 0.7246(2)
H2 H 0.4207 1.3335 0.7350
C4 C 0.40241(19) 1.1215(5) 0.64061(19)
C5 C 0.3737(2) 0.9215(5) 0.62785(18)
H3 H 0.3781 0.8645 0.5721
C6 C 0.33913(19) 0.8063(4) 0.69572(18)
H4 H 0.3209 0.6723 0.6866
C7 C 0.4352(3) 1.2485(6) 0.5650(2)
H5 H 0.4525 1.1627 0.5169
H6 H 0.4926 1.3273 0.5834
H7 H 0.3814 1.3367 0.5463
C8 C 0.11911(17) 0.5888(4) 0.74354(16)
C9 C 0.0988(2) 0.6684(4) 0.66037(17)
H8 H 0.0833 0.8044 0.6537
C10 C 0.1020(2) 0.5453(4) 0.58819(18)
H9 H 0.0881 0.5995 0.5326
C11 C 0.12525(18) 0.3419(5) 0.59565(18)
C12 C 0.1420(2) 0.2651(4) 0.67904(19)
H10 H 0.1561 0.1285 0.6858
C13 C 0.1383(2) 0.3852(4) 0.75269(17)
H11 H 0.1488 0.3295 0.8085
C14 C 0.1331(3) 0.2101(6) 0.5161(2)
H12 H 0.1363 0.2928 0.4643
H13 H 0.0752 0.1240 0.5111
H14 H 0.1927 0.1291 0.5219
loop_
_geom_bond_atom_site_label_1
_geom_bond_atom_site_label_2
_geom_bond_site_symmetry_1
_geom_bond_site_symmetry_2
S1 S2 1_555 1_555
S2 O1 1_555 1_555
O2 S2 1_555 1_555
C1 S2 1_555 1_555
C2 C1 1_555 1_555
H1 C2 1_555 1_555
C3 C2 1_555 1_555
H2 C3 1_555 1_555
C4 C3 1_555 1_555
C5 C4 1_555 1_555
H3 C5 1_555 1_555
C6 C1 1_555 1_555
H4 C6 1_555 1_555
C7 C4 1_555 1_555
H5 C7 1_555 1_555
H6 C7 1_555 1_555
H7 C7 1_555 1_555
C8 S1 1_555 1_555
C9 C8 1_555 1_555
H8 C9 1_555 1_555
C10 C9 1_555 1_555
H9 C10 1_555 1_555
C11 C10 1_555 1_555
C12 C11 1_555 1_555
H10 C12 1_555 1_555
C13 C8 1_555 1_555
H11 C13 1_555 1_555
C14 C11 1_555 1_555
H12 C14 1_555 1_555
H13 C14 1_555 1_555
H14 C14 1_555 1_555
C5 C6 1_555 1_555
C12 C13 1_555 1_555

#END
