
#######################################################################
#
#                 Cambridge Crystallographic Data Centre
#                                CCDC 
#
#######################################################################
#
# If this CIF has been generated from an entry in the Cambridge 
# Structural Database, then it will include bibliographic, chemical, 
# crystal, experimental, refinement or atomic coordinate data resulting 
# from the CCDC's data processing and validation procedures.
#
#######################################################################

data_BILCAC
_chemical_formula_moiety         'C16 H18 N1 O4 P1'
_chemical_name_systematic        'Diphenyl morpholin-4-ylphosphonate'
_symmetry_cell_setting           monoclinic
_symmetry_space_group_name_H-M   'P 21'
_symmetry_Int_Tables_number      4
_space_group_name_Hall           'P 2yb'
loop_
_symmetry_equiv_pos_site_id
_symmetry_equiv_pos_as_xyz
1 x,y,z
2 -x,1/2+y,-z
_cell_length_a                   6.4231(2)
_cell_length_b                   9.1119(3)
_cell_length_c                   13.6799(4)
_cell_angle_alpha                90
_cell_angle_beta                 94.137(2)
_cell_angle_gamma                90
_cell_volume                     798.553
_exptl_crystal_colour            colorless
_exptl_crystal_description       block
_cell_formula_units_Z            2
loop_
_atom_site_label
_atom_site_type_symbol
_atom_site_fract_x
_atom_site_fract_y
_atom_site_fract_z
C1 C 0.2228(4) 0.9014(3) 0.61709(17)
C2 C 0.3714(4) 0.9299(3) 0.55152(17)
H1 H 0.5003 0.8831 0.5571
C3 C 0.3229(5) 1.0303(4) 0.47717(19)
H2 H 0.4214 1.0514 0.4326
C4 C 0.1348(5) 1.0983(4) 0.4683(2)
H3 H 0.1052 1.1655 0.418
C5 C -0.0135(6) 1.0677(4) 0.5342(2)
H4 H -0.1433 1.1132 0.5274
C6 C 0.0308(4) 0.9699(3) 0.6100(2)
H5 H -0.0668 0.9506 0.6553
C7 C 0.4687(4) 0.5295(3) 0.78227(16)
C8 C 0.6680(5) 0.4773(4) 0.7972(2)
H6 H 0.7693 0.5311 0.8337
C9 C 0.7168(6) 0.3428(4) 0.7570(3)
H7 H 0.8515 0.3057 0.7672
C10 C 0.5693(8) 0.2648(4) 0.7029(3)
H8 H 0.6034 0.1747 0.6765
C11 C 0.3728(6) 0.3181(5) 0.6875(2)
H9 H 0.273 0.2643 0.6502
C12 C 0.3185(5) 0.4529(4) 0.7271(2)
H10 H 0.1839 0.4898 0.7162
C13 C 0.4307(4) 1.0351(3) 0.9151(2)
H11 H 0.5444 1.0718 0.879
H12 H 0.4897 0.9932 0.9761
C14 C 0.2880(6) 1.1571(4) 0.9359(3)
H13 H 0.3635 1.2292 0.9768
H14 H 0.2406 1.2046 0.8749
C15 C 0.1249(5) 0.8751(4) 0.9017(3)
H15 H 0.1623 0.8189 0.9606
H16 H 0.0433 0.8123 0.8563
C16 C -0.0010(5) 1.0032(5) 0.9265(3)
H17 H -0.0564 1.0496 0.8663
H18 H -0.1183 0.9699 0.9614
N1 N 0.3152(3) 0.9220(3) 0.85728(16)
O1 O 0.2603(3) 0.79354(19) 0.68948(11)
O2 O 0.6307(3) 0.8671(2) 0.75590(12)
O3 O 0.4142(3) 0.6600(2) 0.82887(11)
O4 O 0.1120(4) 1.1077(3) 0.98403(16)
P1 P 0.42539(9) 0.81767(7) 0.78057(4)
loop_
_geom_bond_atom_site_label_1
_geom_bond_atom_site_label_2
_geom_bond_site_symmetry_1
_geom_bond_site_symmetry_2
C1 C2 1_555 1_555
C2 H1 1_555 1_555
C3 C2 1_555 1_555
H2 C3 1_555 1_555
C4 C3 1_555 1_555
H3 C4 1_555 1_555
C5 C4 1_555 1_555
H4 C5 1_555 1_555
C6 C1 1_555 1_555
H5 C6 1_555 1_555
C7 C8 1_555 1_555
C8 H6 1_555 1_555
C9 C8 1_555 1_555
H7 C9 1_555 1_555
C10 C9 1_555 1_555
H8 C10 1_555 1_555
C11 C10 1_555 1_555
H9 C11 1_555 1_555
C12 C7 1_555 1_555
H10 C12 1_555 1_555
C13 H11 1_555 1_555
H12 C13 1_555 1_555
C14 C13 1_555 1_555
H13 C14 1_555 1_555
H14 C14 1_555 1_555
C15 H15 1_555 1_555
H16 C15 1_555 1_555
C16 C15 1_555 1_555
H17 C16 1_555 1_555
H18 C16 1_555 1_555
N1 C13 1_555 1_555
O1 C1 1_555 1_555
O2 P1 1_555 1_555
O3 C7 1_555 1_555
O4 C14 1_555 1_555
P1 N1 1_555 1_555
C5 C6 1_555 1_555
C11 C12 1_555 1_555
C15 N1 1_555 1_555
C16 O4 1_555 1_555
O1 P1 1_555 1_555
O3 P1 1_555 1_555

#END
