
#######################################################################
#
#                 Cambridge Crystallographic Data Centre
#                                CCDC 
#
#######################################################################
#
# If this CIF has been generated from an entry in the Cambridge 
# Structural Database, then it will include bibliographic, chemical, 
# crystal, experimental, refinement or atomic coordinate data resulting 
# from the CCDC's data processing and validation procedures.
#
#######################################################################

data_BILGOV01
_chemical_formula_moiety         'H4 N1 1+,C7 H16 N2 2+,3(I1 1-)'
_chemical_name_systematic        
'ammonium (R)-3-ammonio-1-azoniabicyclo[2.2.2]octane tris(iodide)'
_symmetry_cell_setting           trigonal
_symmetry_space_group_name_H-M   'P 31 2 1'
_symmetry_Int_Tables_number      152
_space_group_name_Hall           'P 31 2"'
loop_
_symmetry_equiv_pos_site_id
_symmetry_equiv_pos_as_xyz
1 x,y,z
2 -y,x-y,1/3+z
3 -x+y,-x,2/3+z
4 y,x,-z
5 -x,-x+y,1/3-z
6 x-y,-y,2/3-z
_cell_length_a                   10.1114(8)
_cell_length_b                   10.1114(8)
_cell_length_c                   25.215(3)
_cell_angle_alpha                90
_cell_angle_beta                 90
_cell_angle_gamma                120
_cell_volume                     2232.61
_exptl_crystal_colour            colorless
_exptl_crystal_description       block
_cell_formula_units_Z            6
loop_
_atom_site_label
_atom_site_type_symbol
_atom_site_fract_x
_atom_site_fract_y
_atom_site_fract_z
N1 N 0.5225(10) 0.1132(9) 0.1404(3)
H1 H 0.5245 0.0970 0.1750
H2 H 0.5911 0.2097 0.1329
H3 H 0.4299 0.0952 0.1313
N2 N 0.7118(10) 0.0677(10) 0.0281(3)
H4 H 0.7120 0.0846 -0.0102
C1 C 0.8362(12) 0.2098(11) 0.0535(3)
H5 H 0.8156 0.2930 0.0490
H6 H 0.9333 0.2385 0.0367
C2 C 0.7138(12) 0.0253(12) 0.1269(4)
H7 H 0.7147 0.0087 0.1652
C3 C 0.7285(13) -0.0966(13) 0.0964(4)
H8 H 0.8178 -0.1000 0.1086
H9 H 0.6392 -0.1958 0.1027
C4 C 0.7432(13) -0.0599(12) 0.0376(4)
H10 H 0.8454 -0.0304 0.0255
H11 H 0.6712 -0.1494 0.0177
C5 C 0.5596(11) 0.0080(11) 0.1101(3)
H12 H 0.4801 -0.0969 0.1182
C6 C 0.8441(11) 0.1806(13) 0.1120(4)
H13 H 0.9405 0.1858 0.1197
H14 H 0.8386 0.2585 0.1327
C7 C 0.5583(12) 0.0294(13) 0.0505(3)
H15 H 0.4787 -0.0636 0.0343
H16 H 0.5375 0.1112 0.0428
I1 I 0.66315(9) 0.48762(8) 0.08777(2)
I2 I 0.23164(8) 0.57816(8) 0.07849(2)
I3 I 0.16675(9) 1.00673(8) 0.08324(2)
N3 N 0.3392(12) 0.3392(12) 0.0000
N4 N 0.0000 0.6703(12) 0.1667
H17? H 0.2421 0.2805 -0.0125
H18? H 0.3375 0.3374 0.0360
H19? H 0.3800 0.4339 -0.0083
H20? H 0.3977 0.2948 -0.0118
H21? H 0.0797 0.6781 0.1858
H22? H -0.0499 0.5725 0.1547
H23? H 0.0468 0.7411 0.1416
loop_
_geom_bond_atom_site_label_1
_geom_bond_atom_site_label_2
_geom_bond_site_symmetry_1
_geom_bond_site_symmetry_2
N1 H1 1_555 1_555
H2 N1 1_555 1_555
H3 N1 1_555 1_555
N2 H4 1_555 1_555
C1 N2 1_555 1_555
H5 C1 1_555 1_555
H6 C1 1_555 1_555
C2 H7 1_555 1_555
C3 C2 1_555 1_555
H8 C3 1_555 1_555
H9 C3 1_555 1_555
C4 N2 1_555 1_555
H10 C4 1_555 1_555
H11 C4 1_555 1_555
C5 N1 1_555 1_555
H12 C5 1_555 1_555
C6 C1 1_555 1_555
H13 C6 1_555 1_555
H14 C6 1_555 1_555
C7 N2 1_555 1_555
H15 C7 1_555 1_555
H16 C7 1_555 1_555
C2 C5 1_555 1_555
C2 C6 1_555 1_555
C3 C4 1_555 1_555
C5 C7 1_555 1_555

#END
