
#######################################################################
#
#                 Cambridge Crystallographic Data Centre
#                                CCDC 
#
#######################################################################
#
# If this CIF has been generated from an entry in the Cambridge 
# Structural Database, then it will include bibliographic, chemical, 
# crystal, experimental, refinement or atomic coordinate data resulting 
# from the CCDC's data processing and validation procedures.
#
#######################################################################

data_BILHUC
_chemical_formula_moiety         'H4 N1 1+,C4 H12 N2 2+,3(Cl1 1-)'
_chemical_name_systematic        
'ammonium rac-3-ammoniopyrrolidin-1-ium trichloride'
_symmetry_cell_setting           monoclinic
_symmetry_space_group_name_H-M   'I a'
_symmetry_Int_Tables_number      9
_space_group_name_Hall           'I -2ya'
loop_
_symmetry_equiv_pos_site_id
_symmetry_equiv_pos_as_xyz
1 x,y,z
2 1/2+x,-y,z
3 1/2+x,1/2+y,1/2+z
4 x,1/2-y,1/2+z
_cell_length_a                   8.849(8)
_cell_length_b                   9.186(7)
_cell_length_c                   12.474(16)
_cell_angle_alpha                90
_cell_angle_beta                 90.140(10)
_cell_angle_gamma                90
_cell_volume                     1013.97
_exptl_crystal_colour            colorless
_exptl_crystal_description       block
_cell_formula_units_Z            4
loop_
_atom_site_label
_atom_site_type_symbol
_atom_site_fract_x
_atom_site_fract_y
_atom_site_fract_z
Cl1 Cl 1.38187(13) 0.03824(13) 0.01563(10)
Cl2 Cl 0.88239(12) -0.48234(12) 0.13454(10)
Cl3 Cl 1.14917(15) -0.18500(12) 0.36433(10)
N1 N 1.1726(5) -0.2229(4) 0.1116(3)
H1 H 1.1264 -0.1348 0.1047
H2 H 1.2185 -0.2267 0.1754
H3 H 1.0995 -0.2897 0.1092
H4 H 1.2386 -0.2373 0.0608
N2 N 1.2554(5) 0.1383(5) 0.4014(3)
H5 H 1.3334 0.1765 0.4368
H6 H 1.2519 0.0434 0.4157
N3 N 1.1007(5) 0.4427(4) 0.3288(4)
H7 H 1.0609 0.4937 0.3824
H8 H 1.2011 0.4466 0.3328
H9 H 1.0703 0.4800 0.2665
C1 C 1.1105(7) 0.2103(6) 0.4369(4)
H10 H 1.0390 0.1385 0.4629
H11 H 1.1300 0.2804 0.4935
C2 C 1.0496(6) 0.2861(5) 0.3367(4)
H12 H 0.9391 0.2805 0.3346
C3 C 1.2742(6) 0.1613(6) 0.2853(4)
H13 H 1.3116 0.0739 0.2509
H14 H 1.3441 0.2405 0.2715
C4 C 1.1176(6) 0.1987(6) 0.2452(4)
H15 H 1.1224 0.2562 0.1800
H16 H 1.0592 0.1113 0.2313
loop_
_geom_bond_atom_site_label_1
_geom_bond_atom_site_label_2
_geom_bond_site_symmetry_1
_geom_bond_site_symmetry_2
N1 H1 1_555 1_555
H2 N1 1_555 1_555
H3 N1 1_555 1_555
H4 N1 1_555 1_555
N2 H5 1_555 1_555
H6 N2 1_555 1_555
N3 H7 1_555 1_555
H8 N3 1_555 1_555
H9 N3 1_555 1_555
C1 N2 1_555 1_555
H10 C1 1_555 1_555
H11 C1 1_555 1_555
C2 N3 1_555 1_555
H12 C2 1_555 1_555
C3 N2 1_555 1_555
H13 C3 1_555 1_555
H14 C3 1_555 1_555
C4 C2 1_555 1_555
H15 C4 1_555 1_555
H16 C4 1_555 1_555
C1 C2 1_555 1_555
C3 C4 1_555 1_555

#END
