
#######################################################################
#
#                 Cambridge Crystallographic Data Centre
#                                CCDC 
#
#######################################################################
#
# If this CIF has been generated from an entry in the Cambridge 
# Structural Database, then it will include bibliographic, chemical, 
# crystal, experimental, refinement or atomic coordinate data resulting 
# from the CCDC's data processing and validation procedures.
#
#######################################################################

data_BILHAI
_chemical_formula_moiety         'H4 N1 1+,C4 H12 N2 2+,3(Br1 1-)'
_chemical_name_systematic        
'ammonium (R)-3-ammoniopyrrolidin-1-ium tribromide'
_symmetry_cell_setting           monoclinic
_symmetry_space_group_name_H-M   'P 21'
_symmetry_Int_Tables_number      4
_space_group_name_Hall           'P 2yb'
loop_
_symmetry_equiv_pos_site_id
_symmetry_equiv_pos_as_xyz
1 x,y,z
2 -x,1/2+y,-z
_cell_length_a                   9.446(4)
_cell_length_b                   9.413(4)
_cell_length_c                   12.886(5)
_cell_angle_alpha                90
_cell_angle_beta                 91.726(7)
_cell_angle_gamma                90
_cell_volume                     1145.24
_exptl_crystal_colour            colorless
_exptl_crystal_description       block
_cell_formula_units_Z            4
loop_
_atom_site_label
_atom_site_type_symbol
_atom_site_fract_x
_atom_site_fract_y
_atom_site_fract_z
N1 N -0.7737(9) 1.3106(13) 1.2466(7)
H1 H -0.8484 1.3635 1.2252
H2 H -0.7816 1.2769 1.3116
H3 H -0.6906 1.3568 1.2431
H4 H -0.7565 1.2369 1.2043
N2 N -0.2772(10) 0.8036(12) 1.2491(7)
H5 H -0.1910 0.7631 1.2487
H6 H -0.2948 0.8428 1.1863
H7 H -0.2732 0.8777 1.2933
H8 H -0.3421 0.7341 1.2541
Br1 Br -0.50750(13) 1.0760(2) 1.27293(11)
Br2 Br -0.81493(15) 1.31663(15) 1.50247(10)
Br3 Br -0.68327(14) 1.34567(15) 1.00290(10)
Br4 Br -0.55399(12) 1.59196(15) 1.32516(8)
Br5 Br -1.04802(12) 1.09459(15) 1.17688(8)
Br6 Br -0.99794(12) 1.58548(18) 1.21494(9)
N3 N 0.4374(10) 0.8871(11) 0.4790(7)
H9 H 0.4899 0.9230 0.5312
H10 H 0.4487 0.7933 0.4771
H11 H 0.4645 0.9247 0.4194
N4 N 0.1380(11) 0.7227(11) 0.4434(8)
H12 H 0.1697 0.6533 0.4033
H13 H 0.0438 0.7219 0.4396
C1 C 0.1889(14) 0.7003(13) 0.5534(9)
H14 H 0.1138 0.6620 0.5948
H15 H 0.2686 0.6354 0.5565
C2 C 0.2319(13) 0.8439(15) 0.5912(9)
H16 H 0.3069 0.8369 0.6441
H17 H 0.1522 0.8935 0.6201
C3 C 0.2843(13) 0.9213(12) 0.4946(8)
H18 H 0.2706 1.0241 0.5010
C4 C 0.1922(13) 0.8622(14) 0.4077(9)
H19 H 0.1141 0.9262 0.3917
H20 H 0.2468 0.8501 0.3457
N5 N -0.0614(10) 0.3221(12) 0.9680(7)
H21 H -0.0283 0.2603 0.9224
H22 H -0.0107 0.4018 0.9661
H23 H -0.0548 0.2850 1.0315
N6 N -0.3619(11) 0.2295(10) 1.0574(8)
H24 H -0.4559 0.2216 1.0559
H25 H -0.3258 0.1582 1.0950
C5 C -0.3085(14) 0.2228(13) 0.9494(9)
H26 H -0.3863 0.2255 0.8986
H27 H -0.2540 0.1368 0.9392
C6 C -0.2148(13) 0.3549(13) 0.9407(8)
H28 H -0.2223 0.3920 0.8697
C7 C -0.2794(14) 0.4570(13) 1.0121(10)
H29 H -0.3625 0.5011 0.9799
H30 H -0.2123 0.5305 1.0328
C8 C -0.3193(13) 0.3669(15) 1.1046(9)
H31 H -0.2392 0.3550 1.1528
H32 H -0.3971 0.4095 1.1410
loop_
_geom_bond_atom_site_label_1
_geom_bond_atom_site_label_2
_geom_bond_site_symmetry_1
_geom_bond_site_symmetry_2
N1 H1 1_555 1_555
H2 N1 1_555 1_555
H3 N1 1_555 1_555
H4 N1 1_555 1_555
N2 H5 1_555 1_555
H6 N2 1_555 1_555
H7 N2 1_555 1_555
H8 N2 1_555 1_555
N3 H9 1_555 1_555
H10 N3 1_555 1_555
H11 N3 1_555 1_555
N4 H12 1_555 1_555
H13 N4 1_555 1_555
C1 N4 1_555 1_555
H14 C1 1_555 1_555
H15 C1 1_555 1_555
C2 C1 1_555 1_555
H16 C2 1_555 1_555
H17 C2 1_555 1_555
C3 N3 1_555 1_555
H18 C3 1_555 1_555
C4 N4 1_555 1_555
H19 C4 1_555 1_555
H20 C4 1_555 1_555
N5 H21 1_555 1_555
H22 N5 1_555 1_555
H23 N5 1_555 1_555
N6 H24 1_555 1_555
H25 N6 1_555 1_555
C5 N6 1_555 1_555
H26 C5 1_555 1_555
H27 C5 1_555 1_555
C6 N5 1_555 1_555
H28 C6 1_555 1_555
C7 C6 1_555 1_555
H29 C7 1_555 1_555
H30 C7 1_555 1_555
C8 N6 1_555 1_555
H31 C8 1_555 1_555
H32 C8 1_555 1_555
C2 C3 1_555 1_555
C3 C4 1_555 1_555
C5 C6 1_555 1_555
C7 C8 1_555 1_555

#END
