
#######################################################################
#
#                 Cambridge Crystallographic Data Centre
#                                CCDC 
#
#######################################################################
#
# If this CIF has been generated from an entry in the Cambridge 
# Structural Database, then it will include bibliographic, chemical, 
# crystal, experimental, refinement or atomic coordinate data resulting 
# from the CCDC's data processing and validation procedures.
#
#######################################################################

data_BILJAK
_chemical_formula_moiety         'H4 N1 1+,C4 H12 N2 2+,3(Cl1 1-)'
_chemical_name_systematic        
'ammonium rac-3-ammoniopyrrolidin-1-ium trichloride'
_symmetry_cell_setting           cubic
_symmetry_space_group_name_H-M   'P m -3 m'
_symmetry_Int_Tables_number      221
_space_group_name_Hall           '-P 4 2 3'
loop_
_symmetry_equiv_pos_site_id
_symmetry_equiv_pos_as_xyz
1 x,y,z
2 -x,-y,z
3 -x,y,-z
4 x,-y,-z
5 z,x,y
6 z,-x,-y
7 -z,-x,y
8 -z,x,-y
9 y,z,x
10 -y,z,-x
11 y,-z,-x
12 -y,-z,x
13 y,x,-z
14 -y,-x,-z
15 y,-x,z
16 -y,x,z
17 x,z,-y
18 -x,z,y
19 -x,-z,-y
20 x,-z,y
21 z,y,-x
22 z,-y,x
23 -z,y,x
24 -z,-y,-x
25 -x,-y,-z
26 x,y,-z
27 x,-y,z
28 -x,y,z
29 -z,-x,-y
30 -z,x,y
31 z,x,-y
32 z,-x,y
33 -y,-z,-x
34 y,-z,x
35 -y,z,x
36 y,z,-x
37 -y,-x,z
38 y,x,z
39 -y,x,-z
40 y,-x,-z
41 -x,-z,y
42 x,-z,-y
43 x,z,y
44 -x,z,-y
45 -z,-y,x
46 -z,y,-x
47 z,-y,-x
48 z,y,x
_cell_length_a                   6.491(4)
_cell_length_b                   6.491(4)
_cell_length_c                   6.491(4)
_cell_angle_alpha                90
_cell_angle_beta                 90
_cell_angle_gamma                90
_cell_volume                     273.486
_exptl_crystal_colour            colorless
_exptl_crystal_description       block
_cell_formula_units_Z            1
loop_
_atom_site_label
_atom_site_type_symbol
_atom_site_fract_x
_atom_site_fract_y
_atom_site_fract_z
Cl1 Cl -1.0000 0.0000 -0.5000
N2 N 0.5000 0.5000 1.306(9)
N2D N 0.306(9) 0.5000 1.5000
N2F N 0.694(9) 0.5000 1.5000
N2H N 0.5000 0.306(9) 1.5000
N2J N 0.5000 0.694(9) 1.5000
N2B N 0.5000 0.5000 1.694(9)
N1 N -1.0000 0.0000 0.0000
loop_
_geom_bond_atom_site_label_1
_geom_bond_atom_site_label_2
_geom_bond_site_symmetry_1
_geom_bond_site_symmetry_2
N2 N2D 1_555 1_555
N2D N2H 1_555 1_555
N2F N2 1_555 1_555
N2H N2 1_555 1_555
N2J N2 1_555 1_555
N2B N2D 1_555 1_555
N2D N2J 1_555 1_555
N2F N2H 1_555 1_555
N2F N2J 1_555 1_555
N2F N2B 1_555 1_555
N2H N2B 1_555 1_555
N2J N2B 1_555 1_555

#END
