
#######################################################################
#
#                 Cambridge Crystallographic Data Centre
#                                CCDC 
#
#######################################################################
#
# If this CIF has been generated from an entry in the Cambridge 
# Structural Database, then it will include bibliographic, chemical, 
# crystal, experimental, refinement or atomic coordinate data resulting 
# from the CCDC's data processing and validation procedures.
#
#######################################################################

data_BILKEP
_chemical_formula_moiety         'H4 N1 1+,C7 H16 N2 2+,3(Br1 1-)'
_chemical_name_systematic        
'ammonium rac-3-ammonio-1-azoniabicyclo[2.2.2]octane tribromide'
_symmetry_cell_setting           monoclinic
_symmetry_space_group_name_H-M   'P 21'
_symmetry_Int_Tables_number      4
_space_group_name_Hall           'P 2yb'
loop_
_symmetry_equiv_pos_site_id
_symmetry_equiv_pos_as_xyz
1 x,y,z
2 -x,1/2+y,-z
_cell_length_a                   6.593(4)
_cell_length_b                   10.319(6)
_cell_length_c                   9.668(5)
_cell_angle_alpha                90
_cell_angle_beta                 90.111(9)
_cell_angle_gamma                90
_cell_volume                     657.743
_exptl_crystal_colour            colorless
_exptl_crystal_description       block
_cell_formula_units_Z            2
loop_
_atom_site_label
_atom_site_type_symbol
_atom_site_fract_x
_atom_site_fract_y
_atom_site_fract_z
Br1 Br 1.99023(16) 0.28070(15) 0.18218(9)
Br2 Br 1.55098(15) 0.04420(13) -0.00340(12)
Br3 Br 1.46167(16) 0.05172(8) 0.52043(11)
N1 N 0.4895(13) 0.2892(13) 0.2477(7)
H1 H 0.6005 0.2811 0.1944
H2 H 0.3781 0.2811 0.1944
H3 H 0.4896 0.2304 0.3164
H4 H 0.4896 0.3655 0.2928
N2 N 2.1685(13) -0.2909(8) 0.3165(9)
H5 H 2.2724 -0.3579 0.3286
N3 N 2.0826(13) -0.0214(8) 0.0868(9)
H6 H 2.2025 0.0082 0.0589
H7 H 2.0443 -0.0869 0.0328
H8 H 1.9911 0.0418 0.0818
C1 C 1.8975(16) -0.1192(11) 0.2857(11)
H9 H 1.7914 -0.0535 0.2742
C2 C 1.997(2) -0.3460(13) 0.2310(13)
H10 H 2.0484 -0.3742 0.1421
H11 H 1.9394 -0.4205 0.2778
C3 C 2.0990(18) -0.0674(10) 0.2327(10)
H12 H 2.1425 0.0049 0.2914
C4 C 2.0911(19) -0.2516(11) 0.4557(10)
H13 H 2.2015 -0.2167 0.5108
H14 H 2.0368 -0.3267 0.5034
C5 C 1.9264(18) -0.1500(10) 0.4386(10)
H15 H 1.9642 -0.0719 0.4882
H16 H 1.8002 -0.1819 0.4772
C6 C 2.2597(16) -0.1786(10) 0.2422(12)
H17 H 2.3009 -0.2047 0.1501
H18 H 2.3788 -0.1483 0.2916
C7 C 1.8362(16) -0.2450(10) 0.2100(12)
H19 H 1.7078 -0.2762 0.2458
H20 H 1.8196 -0.2277 0.1120
loop_
_geom_bond_atom_site_label_1
_geom_bond_atom_site_label_2
_geom_bond_site_symmetry_1
_geom_bond_site_symmetry_2
N1 H1 1_555 1_555
H2 N1 1_555 1_555
H3 N1 1_555 1_555
H4 N1 1_555 1_555
N2 H5 1_555 1_555
N3 H6 1_555 1_555
H7 N3 1_555 1_555
H8 N3 1_555 1_555
C1 H9 1_555 1_555
C2 N2 1_555 1_555
H10 C2 1_555 1_555
H11 C2 1_555 1_555
C3 N3 1_555 1_555
H12 C3 1_555 1_555
C4 N2 1_555 1_555
H13 C4 1_555 1_555
H14 C4 1_555 1_555
C5 C1 1_555 1_555
H15 C5 1_555 1_555
H16 C5 1_555 1_555
C6 N2 1_555 1_555
H17 C6 1_555 1_555
H18 C6 1_555 1_555
C7 C1 1_555 1_555
H19 C7 1_555 1_555
H20 C7 1_555 1_555
C1 C3 1_555 1_555
C2 C7 1_555 1_555
C3 C6 1_555 1_555
C4 C5 1_555 1_555

#END
