
#######################################################################
#
#                 Cambridge Crystallographic Data Centre
#                                CCDC 
#
#######################################################################
#
# If this CIF has been generated from an entry in the Cambridge 
# Structural Database, then it will include bibliographic, chemical, 
# crystal, experimental, refinement or atomic coordinate data resulting 
# from the CCDC's data processing and validation procedures.
#
#######################################################################

data_BILLIU
_chemical_formula_moiety         'H4 N1 1+,C7 H16 N2 2+,3(Cl1 1-)'
_chemical_name_systematic        
'ammonium (S)-3-ammonio-1-azoniabicyclo[2.2.2]octane trichloride'
_symmetry_cell_setting           monoclinic
_symmetry_space_group_name_H-M   'P 21'
_symmetry_Int_Tables_number      4
_space_group_name_Hall           'P 2yb'
loop_
_symmetry_equiv_pos_site_id
_symmetry_equiv_pos_as_xyz
1 x,y,z
2 -x,1/2+y,-z
_cell_length_a                   6.3831(16)
_cell_length_b                   10.1194(19)
_cell_length_c                   9.498(3)
_cell_angle_alpha                90
_cell_angle_beta                 90.75(2)
_cell_angle_gamma                90
_cell_volume                     613.453
_exptl_crystal_colour            colorless
_exptl_crystal_description       block
_cell_formula_units_Z            2
loop_
_atom_site_label
_atom_site_type_symbol
_atom_site_fract_x
_atom_site_fract_y
_atom_site_fract_z
Cl1 Cl 1.9860(2) 0.28119(15) 0.17202(13)
Cl2 Cl 1.5506(2) 0.04890(17) 0.01000(16)
Cl3 Cl 1.4579(2) 0.04793(15) 0.52847(15)
N1 N 0.4841(7) 0.3089(9) 0.2290(6)
H1 H 0.5951 0.3007 0.1757
H2 H 0.3727 0.3007 0.1757
H3 H 0.4842 0.2501 0.2978
H4 H 0.4842 0.3852 0.2741
N2 N 2.1861(7) -0.2901(4) 0.3281(4)
H5 H 2.2993 -0.3538 0.3451
N3 N 2.0851(7) -0.0184(5) 0.0859(4)
H6 H 2.2086 0.0134 0.0595
H7 H 2.0483 -0.0851 0.0297
H8 H 1.9890 0.0451 0.0799
C1 C 1.8916(9) -0.1228(6) 0.2860(6)
H9 H 1.7786 -0.0588 0.2698
C2 C 2.0171(9) -0.3568(6) 0.2414(7)
H10 H 1.9584 -0.4299 0.2940
H11 H 2.0763 -0.3917 0.1555
C3 C 2.1012(9) -0.0669(5) 0.2359(6)
H12 H 2.1409 0.0075 0.2967
C4 C 2.1026(9) -0.2469(7) 0.4675(5)
H13 H 2.2118 -0.2019 0.5209
H14 H 2.0587 -0.3235 0.5209
C5 C 1.9160(9) -0.1536(6) 0.4444(6)
H15 H 1.9386 -0.0723 0.4965
H16 H 1.7891 -0.1947 0.4785
C6 C 2.2731(8) -0.1750(5) 0.2481(6)
H17 H 2.3149 -0.2031 0.1549
H18 H 2.3954 -0.1400 0.2970
C7 C 1.8442(9) -0.2562(6) 0.2051(6)
H19 H 1.7090 -0.2906 0.2327
H20 H 1.8402 -0.2403 0.1044
loop_
_geom_bond_atom_site_label_1
_geom_bond_atom_site_label_2
_geom_bond_site_symmetry_1
_geom_bond_site_symmetry_2
N1 H1 1_555 1_555
H2 N1 1_555 1_555
H3 N1 1_555 1_555
H4 N1 1_555 1_555
N2 H5 1_555 1_555
N3 H6 1_555 1_555
H7 N3 1_555 1_555
H8 N3 1_555 1_555
C1 H9 1_555 1_555
C2 N2 1_555 1_555
H10 C2 1_555 1_555
H11 C2 1_555 1_555
C3 N3 1_555 1_555
H12 C3 1_555 1_555
C4 N2 1_555 1_555
H13 C4 1_555 1_555
H14 C4 1_555 1_555
C5 C1 1_555 1_555
H15 C5 1_555 1_555
H16 C5 1_555 1_555
C6 N2 1_555 1_555
H17 C6 1_555 1_555
H18 C6 1_555 1_555
C7 C1 1_555 1_555
H19 C7 1_555 1_555
H20 C7 1_555 1_555
C1 C3 1_555 1_555
C2 C7 1_555 1_555
C3 C6 1_555 1_555
C4 C5 1_555 1_555

#END
