
#######################################################################
#
#                 Cambridge Crystallographic Data Centre
#                                CCDC 
#
#######################################################################
#
# If this CIF has been generated from an entry in the Cambridge 
# Structural Database, then it will include bibliographic, chemical, 
# crystal, experimental, refinement or atomic coordinate data resulting 
# from the CCDC's data processing and validation procedures.
#
#######################################################################

data_BILMER
_chemical_formula_moiety         'H4 N1 1+,C7 H16 N2 2+,3(Br1 1-)'
_chemical_name_systematic        
'ammonium (R)-3-ammonio-1-azoniabicyclo[2.2.2]octane tribromide'
_symmetry_cell_setting           monoclinic
_symmetry_space_group_name_H-M   'P 21'
_symmetry_Int_Tables_number      4
_space_group_name_Hall           'P 2yb'
loop_
_symmetry_equiv_pos_site_id
_symmetry_equiv_pos_as_xyz
1 x,y,z
2 -x,1/2+y,-z
_cell_length_a                   6.578(4)
_cell_length_b                   10.305(6)
_cell_length_c                   9.673(5)
_cell_angle_alpha                90
_cell_angle_beta                 90.234(9)
_cell_angle_gamma                90
_cell_volume                     655.691
_exptl_crystal_colour            colorless
_exptl_crystal_description       block
_cell_formula_units_Z            2
loop_
_atom_site_label
_atom_site_type_symbol
_atom_site_fract_x
_atom_site_fract_y
_atom_site_fract_z
Br1 Br -0.99020(10) 0.71912(8) 0.81816(8)
Br2 Br -0.55130(10) 0.95573(9) 1.00343(9)
Br3 Br -0.46107(10) 0.94830(7) 0.47897(8)
N1 N 0.5094(6) 0.7093(8) 0.7524(5)
H1 H 0.3983 0.7175 0.8058
H2 H 0.6207 0.7175 0.8058
H3 H 0.5092 0.7682 0.6837
H4 H 0.5092 0.6330 0.7074
N2 N -1.1681(9) 1.2910(5) 0.6854(6)
H5 H -1.2719 1.3583 0.6731
N3 N -1.0824(8) 1.0203(5) 0.9134(6)
H6 H -1.2025 0.9910 0.9418
H7 H -0.9917 0.9563 0.9167
H8 H -1.0418 1.0848 0.9682
C1 C -0.8961(10) 1.1205(7) 0.7144(8)
H9 H -0.7906 1.0543 0.7261
C2 C -0.9972(10) 1.3468(8) 0.7664(10)
H10 H -1.0465 1.3774 0.8549
H11 H -0.9399 1.4200 0.7171
C3 C -1.1012(11) 1.0690(7) 0.7673(7)
H12 H -1.1441 0.9968 0.7080
C4 C -1.0922(10) 1.2507(8) 0.5444(7)
H13 H -1.2039 1.2152 0.4906
H14 H -1.0399 1.3259 0.4959
C5 C -0.9274(10) 1.1506(7) 0.5587(8)
H15 H -0.8020 1.1831 0.5192
H16 H -0.9657 1.0722 0.5097
C6 C -1.2611(9) 1.1798(6) 0.7547(8)
H17 H -1.3777 1.1499 0.7020
H18 H -1.3072 1.2051 0.8460
C7 C -0.8346(10) 1.2440(7) 0.7889(8)
H19 H -0.7055 1.2748 0.7537
H20 H -0.8190 1.2269 0.8870
loop_
_geom_bond_atom_site_label_1
_geom_bond_atom_site_label_2
_geom_bond_site_symmetry_1
_geom_bond_site_symmetry_2
N1 H1 1_555 1_555
H2 N1 1_555 1_555
H3 N1 1_555 1_555
H4 N1 1_555 1_555
N2 H5 1_555 1_555
N3 H6 1_555 1_555
H7 N3 1_555 1_555
H8 N3 1_555 1_555
C1 H9 1_555 1_555
C2 N2 1_555 1_555
H10 C2 1_555 1_555
H11 C2 1_555 1_555
C3 N3 1_555 1_555
H12 C3 1_555 1_555
C4 N2 1_555 1_555
H13 C4 1_555 1_555
H14 C4 1_555 1_555
C5 C1 1_555 1_555
H15 C5 1_555 1_555
H16 C5 1_555 1_555
C6 N2 1_555 1_555
H17 C6 1_555 1_555
H18 C6 1_555 1_555
C7 C1 1_555 1_555
H19 C7 1_555 1_555
H20 C7 1_555 1_555
C1 C3 1_555 1_555
C2 C7 1_555 1_555
C3 C6 1_555 1_555
C4 C5 1_555 1_555

#END
