
#######################################################################
#
#                 Cambridge Crystallographic Data Centre
#                                CCDC 
#
#######################################################################
#
# If this CIF has been generated from an entry in the Cambridge 
# Structural Database, then it will include bibliographic, chemical, 
# crystal, experimental, refinement or atomic coordinate data resulting 
# from the CCDC's data processing and validation procedures.
#
#######################################################################

data_BILNUI
_chemical_formula_moiety         'H4 N1 1+,C6 H14 N2 O1 2+,3(Br1 1-)'
_chemical_name_systematic        
'ammonium 1-hydroxy-1,4-diazoniabicyclo[2.2.2]octane tribromide'
_symmetry_cell_setting           rhombohedral
_symmetry_space_group_name_H-M   'R 3'
_symmetry_Int_Tables_number      146
_space_group_name_Hall           'P 3*'
loop_
_symmetry_equiv_pos_site_id
_symmetry_equiv_pos_as_xyz
1 x,y,z
2 z,x,y
3 y,z,x
_cell_length_a                   6.761(3)
_cell_length_b                   6.761(3)
_cell_length_c                   6.761(3)
_cell_angle_alpha                88.153(5)
_cell_angle_beta                 88.153(5)
_cell_angle_gamma                88.153(5)
_cell_volume                     308.581
_exptl_crystal_colour            colorless
_exptl_crystal_description       block
_cell_formula_units_Z            1
loop_
_atom_site_label
_atom_site_type_symbol
_atom_site_fract_x
_atom_site_fract_y
_atom_site_fract_z
Br1 Br 0.0825(5) 0.0127(5) -0.5003(5)
N1 N 0.0013(13) 0.0013(13) 0.0013(13)
H1 H -0.0243 -0.0474 0.1255
H2 H -0.0732 -0.0732 -0.0732
H1A H 0.1255 -0.0243 -0.0474
H1B H -0.0474 0.1255 -0.0243
N2 N 0.4148(14) 0.4148(14) 0.4148(14)
H3 H 0.3337 0.3337 0.3337
C1 C 0.489(2) 0.584(2) 0.2910(18)
H4 H 0.3800 0.6487 0.2215
H5 H 0.5862 0.5368 0.1938
C2 C 0.582(2) 0.730(2) 0.428(2)
H6 H 0.7063 0.7761 0.3708
H7 H 0.4937 0.8430 0.4507
O1 O 0.7337(14) 0.7337(14) 0.7337(14)
N3 N 0.6159(14) 0.6159(14) 0.6159(14)
C1A C 0.2910(18) 0.489(2) 0.584(2)
H4A H 0.2215 0.3800 0.6487
H5A H 0.1938 0.5862 0.5368
C2A C 0.428(2) 0.582(2) 0.730(2)
H6A H 0.3708 0.7063 0.7761
H7A H 0.4507 0.4937 0.8430
C1B C 0.584(2) 0.2910(18) 0.489(2)
H4B H 0.6487 0.2215 0.3800
H5B H 0.5368 0.1938 0.5862
C2B C 0.730(2) 0.428(2) 0.582(2)
H6B H 0.7761 0.3708 0.7063
H7B H 0.8430 0.4507 0.4937
H8? H 0.7554 0.6747 0.8390
loop_
_geom_bond_atom_site_label_1
_geom_bond_atom_site_label_2
_geom_bond_site_symmetry_1
_geom_bond_site_symmetry_2
N1 H1 1_555 1_555
H2 N1 1_555 1_555
N2 H3 1_555 1_555
C1 N2 1_555 1_555
H4 C1 1_555 1_555
H5 C1 1_555 1_555
C2 C1 1_555 1_555
H6 C2 1_555 1_555
H7 C2 1_555 1_555
O1 N3 1_555 1_555
N3 C2 1_555 1_555
H1A N1 1_555 1_555
H1B N1 1_555 1_555
C1A N2 1_555 1_555
H4A C1A 1_555 1_555
H5A C1A 1_555 1_555
C2A N3 1_555 1_555
H6A C2A 1_555 1_555
H7A C2A 1_555 1_555
C1B N2 1_555 1_555
H4B C1B 1_555 1_555
H5B C1B 1_555 1_555
C2B N3 1_555 1_555
H6B C2B 1_555 1_555
H7B C2B 1_555 1_555
C1A C2A 1_555 1_555
C1B C2B 1_555 1_555

#END
