
#######################################################################
#
#                 Cambridge Crystallographic Data Centre
#                                CCDC 
#
#######################################################################
#
# If this CIF has been generated from an entry in the Cambridge 
# Structural Database, then it will include bibliographic, chemical, 
# crystal, experimental, refinement or atomic coordinate data resulting 
# from the CCDC's data processing and validation procedures.
#
#######################################################################

data_BILNES
_chemical_formula_moiety         'C7 H16 N2 2+,H4 N1 1+,3(Br1 1-)'
_chemical_name_systematic        
'ammonium 1-methyl-1,4-diazoniabicyclo[2.2.2]octane tribromide'
_symmetry_cell_setting           rhombohedral
_symmetry_space_group_name_H-M   'R 3'
_symmetry_Int_Tables_number      146
_space_group_name_Hall           'P 3*'
loop_
_symmetry_equiv_pos_site_id
_symmetry_equiv_pos_as_xyz
1 x,y,z
2 z,x,y
3 y,z,x
_cell_length_a                   7.1947(17)
_cell_length_b                   7.1947(17)
_cell_length_c                   7.1947(17)
_cell_angle_alpha                84.867(3)
_cell_angle_beta                 84.867(3)
_cell_angle_gamma                84.867(3)
_cell_volume                     368.195
_exptl_crystal_colour            colorless
_exptl_crystal_description       block
_cell_formula_units_Z            1
loop_
_atom_site_label
_atom_site_type_symbol
_atom_site_fract_x
_atom_site_fract_y
_atom_site_fract_z
Br1 Br 0.9960(5) 1.0654(5) 1.4986(5)
N1 N 0.997(3) 0.997(3) 0.997(3)
H1 H 1.1176 0.9658 0.9740
H2 H 0.9316 0.9322 0.9322
H1A H 0.9740 1.1176 0.9658
H1B H 0.9658 0.9740 1.1176
N2 N 0.3747(19) 0.3747(19) 1.3747(19)
H3 H 0.3090 0.3085 1.3085
N3 N 0.5705(14) 0.5705(14) 1.5705(14)
C1 C 0.377(2) 0.669(3) 1.542(2)
H4 H 0.3892 0.7818 1.4583
H5 H 0.3170 0.7055 1.6612
C2 C 0.249(2) 0.526(3) 1.452(3)
H6 H 0.1608 0.4738 1.5484
H7 H 0.1794 0.5928 1.3543
C3 C 0.6883(17) 0.6883(17) 1.6883(17)
H8 H 0.6230 0.7049 1.8099
C1A C 0.542(2) 0.377(2) 1.669(3)
H4A H 0.4583 0.3892 1.7818
H5A H 0.6612 0.3170 1.7055
C2A C 0.452(3) 0.249(2) 1.526(3)
H6A H 0.5484 0.1608 1.4738
H7A H 0.3543 0.1794 1.5928
H8A H 0.8099 0.6230 1.7049
C1B C 0.669(3) 0.542(2) 1.377(2)
H4B H 0.7818 0.4583 1.3892
H5B H 0.7055 0.6612 1.3170
C2B C 0.526(3) 0.452(3) 1.249(2)
H6B H 0.4738 0.5484 1.1608
H7B H 0.5928 0.3543 1.1794
H8B H 0.7049 0.8099 1.6230
loop_
_geom_bond_atom_site_label_1
_geom_bond_atom_site_label_2
_geom_bond_site_symmetry_1
_geom_bond_site_symmetry_2
N1 H1 1_555 1_555
H2 N1 1_555 1_555
N2 H3 1_555 1_555
N3 C1 1_555 1_555
C1 H4 1_555 1_555
H5 C1 1_555 1_555
C2 N2 1_555 1_555
H6 C2 1_555 1_555
H7 C2 1_555 1_555
C3 N3 1_555 1_555
H8 C3 1_555 1_555
H1A N1 1_555 1_555
H1B N1 1_555 1_555
C1A N3 1_555 1_555
H4A C1A 1_555 1_555
H5A C1A 1_555 1_555
C2A N2 1_555 1_555
H6A C2A 1_555 1_555
H7A C2A 1_555 1_555
H8A C3 1_555 1_555
C1B N3 1_555 1_555
H4B C1B 1_555 1_555
H5B C1B 1_555 1_555
C2B N2 1_555 1_555
H6B C2B 1_555 1_555
H7B C2B 1_555 1_555
H8B C3 1_555 1_555
C1 C2 1_555 1_555
C1A C2A 1_555 1_555
C1B C2B 1_555 1_555

#END
