
#######################################################################
#
#                 Cambridge Crystallographic Data Centre
#                                CCDC 
#
#######################################################################
#
# If this CIF has been generated from an entry in the Cambridge 
# Structural Database, then it will include bibliographic, chemical, 
# crystal, experimental, refinement or atomic coordinate data resulting 
# from the CCDC's data processing and validation procedures.
#
#######################################################################

data_BILPIX
_chemical_formula_moiety         'C24 H14 F6 S4'
_chemical_name_systematic        
2-(3,3,4,4,5,5-Hexafluoro-2-(2-methyl-1-benzothiophen-3-yl)cyclopent-1-en-1-yl)-3,5-dimethylbisthieno[3,2-b:2',3'-d]thiophene
_symmetry_cell_setting           triclinic
_symmetry_space_group_name_H-M   'P -1'
_symmetry_Int_Tables_number      2
_space_group_name_Hall           '-P 1'
loop_
_symmetry_equiv_pos_site_id
_symmetry_equiv_pos_as_xyz
1 x,y,z
2 -x,-y,-z
_cell_length_a                   10.366(2)
_cell_length_b                   10.672(2)
_cell_length_c                   11.754(2)
_cell_angle_alpha                64.91(3)
_cell_angle_beta                 74.35(3)
_cell_angle_gamma                79.23(3)
_cell_volume                     1130.03
_exptl_crystal_colour            'pale yellow'
_exptl_crystal_description       block
_cell_formula_units_Z            2
_chemical_properties_physical    light-sensitive
_exptl_crystal_preparation       photochromic
loop_
_atom_site_label
_atom_site_type_symbol
_atom_site_fract_x
_atom_site_fract_y
_atom_site_fract_z
S1 S 0.88127(7) 0.90815(7) 0.77238(7)
S2 S 0.85425(6) 0.79961(6) 0.28621(5)
S3 S 1.24903(6) 0.69459(6) 0.33656(6)
S4 S 1.14686(7) 0.90623(7) -0.02189(6)
F1 F 0.49341(15) 0.6394(2) 0.82980(14)
F2 F 0.46586(16) 0.84342(18) 0.68074(17)
F3 F 0.48930(15) 0.51324(15) 0.68581(14)
F4 F 0.36137(14) 0.69856(18) 0.60341(15)
F5 F 0.61949(15) 0.59401(17) 0.44960(14)
F6 F 0.55386(15) 0.81111(17) 0.40905(14)
C1 C 0.8483(2) 0.7431(3) 0.8876(2)
C2 C 0.8808(3) 0.6804(3) 1.0085(3)
H1 H 0.9244 0.7289 1.0371
C3 C 0.8483(3) 0.5472(3) 1.0848(3)
H2 H 0.8680 0.5038 1.1681
C4 C 0.7870(3) 0.4743(3) 1.0429(2)
H3 H 0.7692 0.3805 1.0961
C5 C 0.7519(2) 0.5365(3) 0.9248(2)
H4 H 0.7086 0.4866 0.8974
C6 C 0.7807(2) 0.6740(2) 0.8457(2)
C7 C 0.7559(2) 0.7608(2) 0.7190(2)
C8 C 0.8048(2) 0.8871(3) 0.6680(2)
C9 C 0.7982(3) 1.0034(3) 0.5403(3)
H5 H 0.8822 0.9996 0.4783
H6 H 0.7853 1.0924 0.5493
H7 H 0.7227 0.9943 0.5098
C10 C 0.6784(2) 0.7220(2) 0.6525(2)
C11 C 0.5296(2) 0.7140(3) 0.7023(2)
C12 C 0.4859(2) 0.6518(3) 0.6243(2)
C13 C 0.5958(2) 0.6908(3) 0.4998(2)
C14 C 0.7167(2) 0.7093(2) 0.5383(2)
C15 C 0.8481(2) 0.7199(2) 0.4521(2)
C16 C 0.9743(2) 0.6787(2) 0.4802(2)
C17 C 1.0077(2) 0.6019(2) 0.6105(2)
H8 H 1.0228 0.6686 0.6418
H9 H 1.0891 0.5394 0.6044
H10 H 0.9328 0.5476 0.6704
C18 C 1.0749(2) 0.7159(2) 0.3651(2)
C19 C 1.0264(2) 0.7818(2) 0.2523(2)
C20 C 1.1323(2) 0.8173(2) 0.1412(2)
C21 C 1.2576(2) 0.7779(2) 0.1718(2)
C22 C 1.3681(3) 0.8199(3) 0.0642(3)
C23 C 1.5133(3) 0.7926(3) 0.0712(3)
H11 H 1.5255 0.8147 0.1402
H12 H 1.5674 0.8507 -0.0109
H13 H 1.5421 0.6945 0.0888
C24 C 1.3200(3) 0.8894(3) -0.0457(3)
H14 H 1.3771 0.9255 -0.1285
loop_
_geom_bond_atom_site_label_1
_geom_bond_atom_site_label_2
_geom_bond_site_symmetry_1
_geom_bond_site_symmetry_2
S1 C1 1_555 1_555
S2 C15 1_555 1_555
S3 C18 1_555 1_555
S4 C20 1_555 1_555
F1 C11 1_555 1_555
F2 C11 1_555 1_555
F3 C12 1_555 1_555
F4 C12 1_555 1_555
F5 C13 1_555 1_555
F6 C13 1_555 1_555
C1 C2 1_555 1_555
C2 H1 1_555 1_555
C3 C2 1_555 1_555
H2 C3 1_555 1_555
C4 C3 1_555 1_555
H3 C4 1_555 1_555
C5 C4 1_555 1_555
H4 C5 1_555 1_555
C6 C1 1_555 1_555
C7 C6 1_555 1_555
C8 S1 1_555 1_555
C9 C8 1_555 1_555
H5 C9 1_555 1_555
H6 C9 1_555 1_555
H7 C9 1_555 1_555
C10 C7 1_555 1_555
C11 C10 1_555 1_555
C12 C11 1_555 1_555
C13 C12 1_555 1_555
C14 C10 1_555 1_555
C15 C14 1_555 1_555
C16 C15 1_555 1_555
C17 C16 1_555 1_555
H8 C17 1_555 1_555
H9 C17 1_555 1_555
H10 C17 1_555 1_555
C18 C16 1_555 1_555
C19 S2 1_555 1_555
C20 C19 1_555 1_555
C21 S3 1_555 1_555
C22 C21 1_555 1_555
C23 C22 1_555 1_555
H11 C23 1_555 1_555
H12 C23 1_555 1_555
H13 C23 1_555 1_555
C24 S4 1_555 1_555
H14 C24 1_555 1_555
C5 C6 1_555 1_555
C7 C8 1_555 1_555
C13 C14 1_555 1_555
C18 C19 1_555 1_555
C20 C21 1_555 1_555
C22 C24 1_555 1_555

#END
