
#######################################################################
#
#                 Cambridge Crystallographic Data Centre
#                                CCDC 
#
#######################################################################
#
# If this CIF has been generated from an entry in the Cambridge 
# Structural Database, then it will include bibliographic, chemical, 
# crystal, experimental, refinement or atomic coordinate data resulting 
# from the CCDC's data processing and validation procedures.
#
#######################################################################

data_BILPEU
_chemical_formula_moiety         'C7 H16 N2 2+,H4 N1 1+,3(I1 1-)'
_chemical_name_systematic        
'ammonium 1-methyl-1,4-diazoniabicyclo[2.2.2]octane tris(iodide)'
_symmetry_cell_setting           cubic
_symmetry_space_group_name_H-M   'P 4 3 2'
_symmetry_Int_Tables_number      207
_space_group_name_Hall           'P 4 2 3'
loop_
_symmetry_equiv_pos_site_id
_symmetry_equiv_pos_as_xyz
1 x,y,z
2 -x,-y,z
3 -x,y,-z
4 x,-y,-z
5 z,x,y
6 z,-x,-y
7 -z,-x,y
8 -z,x,-y
9 y,z,x
10 -y,z,-x
11 y,-z,-x
12 -y,-z,x
13 y,x,-z
14 -y,-x,-z
15 y,-x,z
16 -y,x,z
17 x,z,-y
18 -x,z,y
19 -x,-z,-y
20 x,-z,y
21 z,y,-x
22 z,-y,x
23 -z,y,x
24 -z,-y,-x
_cell_length_a                   7.516(13)
_cell_length_b                   7.516(13)
_cell_length_c                   7.516(13)
_cell_angle_alpha                90
_cell_angle_beta                 90
_cell_angle_gamma                90
_cell_volume                     424.581
_exptl_crystal_colour            'light yellow'
_exptl_crystal_description       block
_cell_formula_units_Z            1
loop_
_atom_site_label
_atom_site_type_symbol
_atom_site_fract_x
_atom_site_fract_y
_atom_site_fract_z
I1 I 0.0000 -0.5000 0.0000
C1 C 0.362(7) -0.638(7) -0.5000
C1D C 0.5000 -0.638(7) -0.638(7)
C1G C 0.5000 -0.638(7) -0.362(7)
C1H C 0.362(7) -0.5000 -0.638(7)
C1J C 0.362(7) -0.5000 -0.362(7)
C1B C 0.638(7) -0.638(7) -0.5000
C1C C 0.362(7) -0.362(7) -0.5000
C1E C 0.5000 -0.362(7) -0.362(7)
C1F C 0.5000 -0.362(7) -0.638(7)
C1I C 0.638(7) -0.5000 -0.362(7)
C1K C 0.638(7) -0.5000 -0.638(7)
C1A C 0.638(7) -0.362(7) -0.5000
N1 N 0.0000 0.0000 0.0000
loop_
_geom_bond_atom_site_label_1
_geom_bond_atom_site_label_2
_geom_bond_site_symmetry_1
_geom_bond_site_symmetry_2
C1 C1D 1_555 1_555
C1D C1H 1_555 1_555
C1G C1 1_555 1_555
C1H C1 1_555 1_555
C1J C1 1_555 1_555
C1B C1D 1_555 1_555
C1C C1H 1_555 1_555
C1E C1J 1_555 1_555
C1F C1H 1_555 1_555
C1I C1G 1_555 1_555
C1K C1D 1_555 1_555
C1A C1E 1_555 1_555
C1G C1J 1_555 1_555
C1G C1B 1_555 1_555
C1J C1C 1_555 1_555
C1B C1I 1_555 1_555
C1B C1K 1_555 1_555
C1C C1E 1_555 1_555
C1C C1F 1_555 1_555
C1E C1I 1_555 1_555
C1F C1K 1_555 1_555
C1F C1A 1_555 1_555
C1I C1A 1_555 1_555
C1K C1A 1_555 1_555

#END
