
#######################################################################
#
#                 Cambridge Crystallographic Data Centre
#                                CCDC 
#
#######################################################################
#
# If this CIF has been generated from an entry in the Cambridge 
# Structural Database, then it will include bibliographic, chemical, 
# crystal, experimental, refinement or atomic coordinate data resulting 
# from the CCDC's data processing and validation procedures.
#
#######################################################################

data_BILPAQ
_chemical_formula_moiety         'H4 N1 1+,C6 H14 N2 2+,3(I1 1-)'
_chemical_name_systematic        
'ammonium 1,4-diazoniabicyclo[2.2.2]octane tris(iodide)'
_symmetry_cell_setting           hexagonal
_symmetry_space_group_name_H-M   'P -6 2 c'
_symmetry_Int_Tables_number      190
_space_group_name_Hall           "P -6c -2'c"
loop_
_symmetry_equiv_pos_site_id
_symmetry_equiv_pos_as_xyz
1 x,y,z
2 -x+y,-x,1/2-z
3 -y,x-y,z
4 x,y,1/2-z
5 -x+y,-x,z
6 -y,x-y,1/2-z
7 y,x,1/2+z
8 x-y,-y,-z
9 -x,-x+y,1/2+z
10 y,x,-z
11 x-y,-y,1/2+z
12 -x,-x+y,-z
_cell_length_a                   9.749(2)
_cell_length_b                   9.749(2)
_cell_length_c                   8.188(8)
_cell_angle_alpha                90
_cell_angle_beta                 90
_cell_angle_gamma                120
_cell_volume                     673.951
_exptl_crystal_colour            colorless
_exptl_crystal_description       block
_cell_formula_units_Z            2
loop_
_atom_site_label
_atom_site_type_symbol
_atom_site_fract_x
_atom_site_fract_y
_atom_site_fract_z
N1 N 0.6667 0.3333 0.9020(13)
H1 H 0.6667 0.3333 1.0119
C1 C 0.6447(15) 0.4652(13) 0.8446(10)
H2 H 0.7299 0.5653 0.8851
H3 H 0.5452 0.4516 0.8851
C1B C 0.5348(13) 0.1795(20) 0.8446(10)
H2B H 0.4347 0.1646 0.8851
H3B H 0.5484 0.0936 0.8851
N1A N 0.6666 0.3333 0.5980(13)
H1A H 0.6666 0.3333 0.4881
C1C C 0.6447(15) 0.4652(13) 0.6554(10)
H2C H 0.7299 0.5653 0.6149
H3C H 0.5452 0.4516 0.6149
C1D C 0.8205(20) 0.3553(15) 0.8446(10)
H2D H 0.8354 0.2701 0.8851
H3D H 0.9064 0.4548 0.8851
C1E C 0.5348(13) 0.1795(20) 0.6554(10)
H2E H 0.4347 0.1646 0.6149
H3E H 0.5484 0.0936 0.6149
C1A C 0.8205(20) 0.3553(15) 0.6554(10)
H2A H 0.8354 0.2701 0.6149
H3A H 0.9064 0.4548 0.6149
I1 I 0.64424(11) 0.84845(10) 0.7500
N2 N 1.0000 1.0000 1.0000
H4? H 1.1002 1.0616 1.0342
H5? H 1.0000 1.0000 0.8901
loop_
_geom_bond_atom_site_label_1
_geom_bond_atom_site_label_2
_geom_bond_site_symmetry_1
_geom_bond_site_symmetry_2
N1 H1 1_555 1_555
C1 N1 1_555 1_555
H2 C1 1_555 1_555
H3 C1 1_555 1_555
C1B N1 1_555 1_555
H2B C1B 1_555 1_555
H3B C1B 1_555 1_555
N1A H1A 1_555 1_555
C1C C1 1_555 1_555
H2C C1C 1_555 1_555
H3C C1C 1_555 1_555
C1D N1 1_555 1_555
H2D C1D 1_555 1_555
H3D C1D 1_555 1_555
C1E C1B 1_555 1_555
H2E C1E 1_555 1_555
H3E C1E 1_555 1_555
C1A N1A 1_555 1_555
H2A C1A 1_555 1_555
H3A C1A 1_555 1_555
N1A C1C 1_555 1_555
N1A C1E 1_555 1_555
C1D C1A 1_555 1_555

#END
