
#######################################################################
#
#                 Cambridge Crystallographic Data Centre
#                                CCDC 
#
#######################################################################
#
# If this CIF has been generated from an entry in the Cambridge 
# Structural Database, then it will include bibliographic, chemical, 
# crystal, experimental, refinement or atomic coordinate data resulting 
# from the CCDC's data processing and validation procedures.
#
#######################################################################

data_BILPOE
_chemical_formula_moiety         'H4 N1 1+,C6 H14 N2 O1 2+,3(Cl1 1-)'
_chemical_name_systematic        
'ammonium 1-hydroxy-1,4-diazoniabicyclo[2.2.2]octane trichloride'
_symmetry_cell_setting           cubic
_symmetry_space_group_name_H-M   'P -4 3 m'
_symmetry_Int_Tables_number      215
_space_group_name_Hall           'P -4 2 3'
loop_
_symmetry_equiv_pos_site_id
_symmetry_equiv_pos_as_xyz
1 x,y,z
2 -x,-y,z
3 -x,y,-z
4 x,-y,-z
5 z,x,y
6 z,-x,-y
7 -z,-x,y
8 -z,x,-y
9 y,z,x
10 -y,z,-x
11 y,-z,-x
12 -y,-z,x
13 y,x,z
14 -y,-x,z
15 y,-x,-z
16 -y,x,-z
17 x,z,y
18 -x,z,-y
19 -x,-z,y
20 x,-z,-y
21 z,y,x
22 z,-y,-x
23 -z,y,-x
24 -z,-y,x
_cell_length_a                   6.700(7)
_cell_length_b                   6.700(7)
_cell_length_c                   6.700(7)
_cell_angle_alpha                90
_cell_angle_beta                 90
_cell_angle_gamma                90
_cell_volume                     300.763
_exptl_crystal_colour            colorless
_exptl_crystal_description       block
_cell_formula_units_Z            1
loop_
_atom_site_label
_atom_site_type_symbol
_atom_site_fract_x
_atom_site_fract_y
_atom_site_fract_z
C1 C 0.730(7) 1.549(6) 1.451(6)
C2 C 0.640(3) 1.439(2) 1.640(3)
C1C C 0.730(7) 1.451(6) 1.549(6)
C2C C 0.640(3) 1.561(2) 1.360(3)
C1D C 0.451(6) 1.730(7) 1.549(6)
C2D C 0.640(3) 1.640(3) 1.439(2)
C1E C 0.451(6) 1.270(7) 1.451(6)
C2E C 0.640(3) 1.360(3) 1.561(2)
C1F C 0.549(6) 1.270(7) 1.549(6)
C2F C 0.360(3) 1.360(3) 1.439(2)
C1G C 0.549(6) 1.730(7) 1.451(6)
C2G C 0.360(3) 1.640(3) 1.561(2)
C1H C 0.549(6) 1.451(6) 1.730(7)
C2H C 0.439(2) 1.640(3) 1.640(3)
C1I C 0.451(6) 1.451(6) 1.270(7)
C2I C 0.561(2) 1.640(3) 1.360(3)
C1J C 0.549(6) 1.549(6) 1.270(7)
C2J C 0.439(2) 1.360(3) 1.360(3)
C1K C 0.451(6) 1.549(6) 1.730(7)
C2K C 0.561(2) 1.360(3) 1.640(3)
C2B C 0.360(3) 1.439(2) 1.360(3)
C2A C 0.360(3) 1.561(2) 1.640(3)
C1A C 0.270(7) 1.451(6) 1.451(6)
C1B C 0.270(7) 1.549(6) 1.549(6)
Cl1 Cl 0.5000 1.0000 1.0000
N1 N 1.0000 2.0000 1.0000
loop_
_geom_bond_atom_site_label_1
_geom_bond_atom_site_label_2
_geom_bond_site_symmetry_1
_geom_bond_site_symmetry_2
C1 C2 1_555 1_555
C2 C1C 1_555 1_555
C1C C1 1_555 1_555
C2C C1 1_555 1_555
C1D C2D 1_555 1_555
C2D C1 1_555 1_555
C1E C2E 1_555 1_555
C2E C1 1_555 1_555
C1F C2 1_555 1_555
C2F C1E 1_555 1_555
C1G C1 1_555 1_555
C2G C1D 1_555 1_555
C1H C2 1_555 1_555
C2H C1D 1_555 1_555
C1I C2C 1_555 1_555
C2I C1 1_555 1_555
C1J C1 1_555 1_555
C2J C1E 1_555 1_555
C1K C2 1_555 1_555
C2K C2 1_555 1_555
C2B C1E 1_555 1_555
C2A C1D 1_555 1_555
C1A C1E 1_555 1_555
C1B C1D 1_555 1_555
C2 C2E 1_555 1_555
C1C C2C 1_555 1_555
C1C C2D 1_555 1_555
C1C C2E 1_555 1_555
C1C C1F 1_555 1_555
C1C C1H 1_555 1_555
C1C C2K 1_555 1_555
C2C C2D 1_555 1_555
C2C C1G 1_555 1_555
C2C C2I 1_555 1_555
C2C C1J 1_555 1_555
C1D C1G 1_555 1_555
C1D C2I 1_555 1_555
C1D C1K 1_555 1_555
C2D C1G 1_555 1_555
C2D C2I 1_555 1_555
C2D C1J 1_555 1_555
C1E C1F 1_555 1_555
C1E C1I 1_555 1_555
C1E C2K 1_555 1_555
C2E C1F 1_555 1_555
C2E C1H 1_555 1_555
C2E C2K 1_555 1_555
C1F C2F 1_555 1_555
C1F C1H 1_555 1_555
C1F C2J 1_555 1_555
C1F C2K 1_555 1_555
C2F C1I 1_555 1_555
C2F C2J 1_555 1_555
C2F C2B 1_555 1_555
C2F C1A 1_555 1_555
C2F C1B 1_555 1_555
C1G C2G 1_555 1_555
C1G C2H 1_555 1_555
C1G C2I 1_555 1_555
C1G C1J 1_555 1_555
C2G C2H 1_555 1_555
C2G C1K 1_555 1_555
C2G C2A 1_555 1_555
C2G C1A 1_555 1_555
C2G C1B 1_555 1_555
C1H C2H 1_555 1_555
C1H C1K 1_555 1_555
C1H C2K 1_555 1_555
C1H C2A 1_555 1_555
C2H C1K 1_555 1_555
C2H C2A 1_555 1_555
C2H C1B 1_555 1_555
C1I C2I 1_555 1_555
C1I C1J 1_555 1_555
C1I C2J 1_555 1_555
C1I C2B 1_555 1_555
C1I C1A 1_555 1_555
C2I C1J 1_555 1_555
C1J C2J 1_555 1_555
C1J C2B 1_555 1_555
C2J C2B 1_555 1_555
C2J C1A 1_555 1_555
C1K C2K 1_555 1_555
C1K C2A 1_555 1_555
C1K C1B 1_555 1_555
C2B C1A 1_555 1_555
C2B C1B 1_555 1_555
C2A C1A 1_555 1_555
C2A C1B 1_555 1_555
C1A C1B 1_555 1_555

#END
