
#######################################################################
#
#                 Cambridge Crystallographic Data Centre
#                                CCDC 
#
#######################################################################
#
# If this CIF has been generated from an entry in the Cambridge 
# Structural Database, then it will include bibliographic, chemical, 
# crystal, experimental, refinement or atomic coordinate data resulting 
# from the CCDC's data processing and validation procedures.
#
#######################################################################

data_BILQOE
_chemical_formula_moiety         'C35 H22 O1'
_chemical_name_systematic        
7-((4-Methoxyphenyl)ethynyl)-12-phenylindeno[2,1-a]phenalene
_symmetry_cell_setting           monoclinic
_symmetry_space_group_name_H-M   'P 21/c'
_symmetry_Int_Tables_number      14
_space_group_name_Hall           '-P 2ybc'
loop_
_symmetry_equiv_pos_site_id
_symmetry_equiv_pos_as_xyz
1 x,y,z
2 -x,1/2+y,1/2-z
3 -x,-y,-z
4 x,1/2-y,1/2+z
_cell_length_a                   12.732(4)
_cell_length_b                   10.714(3)
_cell_length_c                   20.469(5)
_cell_angle_alpha                90
_cell_angle_beta                 120.277(13)
_cell_angle_gamma                90
_cell_volume                     2411.33
_exptl_crystal_colour            brown
_exptl_crystal_description       Block
_cell_formula_units_Z            4
loop_
_atom_site_label
_atom_site_type_symbol
_atom_site_fract_x
_atom_site_fract_y
_atom_site_fract_z
O1 O 0.9843(2) 0.7173(2) 0.99858(12)
C1 C 1.0957(3) 0.6534(4) 1.03795(18)
H1 H 1.1497 0.6827 1.0213
H2 H 1.0821 0.5655 1.0282
H3 H 1.1315 0.6684 1.0912
C2 C 0.7392(3) 0.7700(3) 0.80930(18)
H4 H 0.6652 0.8120 0.7862
C3 C 0.8090(3) 0.7725(3) 0.88565(18)
H5 H 0.7823 0.8159 0.9139
C4 C 0.9199(3) 0.7110(3) 0.92217(17)
C5 C 0.9562(3) 0.6480(3) 0.87850(17)
H6 H 1.0303 0.6061 0.9017
C6 C 0.8848(3) 0.6459(3) 0.80104(16)
H7 H 0.9115 0.6024 0.7728
C7 C 0.7746(3) 0.7067(3) 0.76434(16)
C8 C 0.7015(3) 0.7038(3) 0.68341(18)
C9 C 0.6433(3) 0.7001(3) 0.61653(18)
C10 C 0.5740(3) 0.6862(3) 0.53426(17)
C11 C 0.6108(2) 0.5916(3) 0.49799(17)
C12 C 0.7124(3) 0.5167(3) 0.54247(19)
H8 H 0.7542 0.5255 0.5948
C13 C 0.7513(3) 0.4290(3) 0.5090(2)
H9 H 0.8186 0.3792 0.5390
C14 C 0.6909(3) 0.4161(3) 0.4323(2)
H10 H 0.7181 0.3575 0.4107
C15 C 0.5898(3) 0.4882(3) 0.38575(19)
C16 C 0.5259(3) 0.4755(3) 0.3051(2)
H11 H 0.5510 0.4164 0.2826
C17 C 0.4296(3) 0.5490(4) 0.2617(2)
H12 H 0.3901 0.5413 0.2093
C18 C 0.3884(3) 0.6359(3) 0.29390(17)
H13 H 0.3224 0.6860 0.2624
C19 C 0.4424(2) 0.6501(3) 0.37089(16)
C20 C 0.5478(2) 0.5772(3) 0.41848(16)
C21 C 0.4050(2) 0.7407(3) 0.40829(14)
C22 C 0.4785(2) 0.7586(3) 0.49087(15)
C23 C 0.4231(2) 0.8647(3) 0.51023(15)
C24 C 0.4529(3) 0.9289(3) 0.57525(17)
H14 H 0.5186 0.9033 0.6212
C25 C 0.3851(3) 1.0319(3) 0.57242(19)
H15 H 0.4063 1.0760 0.6165
C26 C 0.2871(3) 1.0694(3) 0.5053(2)
H16 H 0.2423 1.1386 0.5045
C27 C 0.2535(3) 1.0051(3) 0.43811(19)
H17 H 0.1866 1.0302 0.3926
C28 C 0.3224(2) 0.9033(3) 0.44119(16)
C29 C 0.3086(2) 0.8237(3) 0.37874(14)
C30 C 0.2059(2) 0.8330(3) 0.30151(16)
C31 C 0.1229(3) 0.7360(3) 0.2690(2)
H18 H 0.1324 0.6645 0.2972
C32 C 0.0278(3) 0.7434(5) 0.1964(2)
H19 H -0.0259 0.6768 0.1751
C33 C 0.0120(4) 0.8508(6) 0.1548(2)
H20 H -0.0525 0.8566 0.1053
C34 C 0.0898(4) 0.9466(5) 0.1859(2)
H21 H 0.0785 1.0190 0.1580
C35 C 0.1847(3) 0.9382(3) 0.2576(2)
H22 H 0.2374 1.0057 0.2779
loop_
_geom_bond_atom_site_label_1
_geom_bond_atom_site_label_2
_geom_bond_site_symmetry_1
_geom_bond_site_symmetry_2
O1 C1 1_555 1_555
C1 H1 1_555 1_555
H2 C1 1_555 1_555
H3 C1 1_555 1_555
C2 H4 1_555 1_555
C3 C2 1_555 1_555
H5 C3 1_555 1_555
C4 O1 1_555 1_555
C5 C4 1_555 1_555
H6 C5 1_555 1_555
C6 C5 1_555 1_555
H7 C6 1_555 1_555
C7 C2 1_555 1_555
C8 C7 1_555 1_555
C9 C8 1_555 1_555
C10 C9 1_555 1_555
C11 C10 1_555 1_555
C12 C11 1_555 1_555
H8 C12 1_555 1_555
C13 C12 1_555 1_555
H9 C13 1_555 1_555
C14 C13 1_555 1_555
H10 C14 1_555 1_555
C15 C14 1_555 1_555
C16 C15 1_555 1_555
H11 C16 1_555 1_555
C17 C16 1_555 1_555
H12 C17 1_555 1_555
C18 C17 1_555 1_555
H13 C18 1_555 1_555
C19 C18 1_555 1_555
C20 C11 1_555 1_555
C21 C19 1_555 1_555
C22 C10 1_555 1_555
C23 C22 1_555 1_555
C24 C23 1_555 1_555
H14 C24 1_555 1_555
C25 C24 1_555 1_555
H15 C25 1_555 1_555
C26 C25 1_555 1_555
H16 C26 1_555 1_555
C27 C26 1_555 1_555
H17 C27 1_555 1_555
C28 C23 1_555 1_555
C29 C21 1_555 1_555
C30 C29 1_555 1_555
C31 C30 1_555 1_555
H18 C31 1_555 1_555
C32 C31 1_555 1_555
H19 C32 1_555 1_555
C33 C32 1_555 1_555
H20 C33 1_555 1_555
C34 C33 1_555 1_555
H21 C34 1_555 1_555
C35 C30 1_555 1_555
H22 C35 1_555 1_555
C3 C4 1_555 1_555
C6 C7 1_555 1_555
C15 C20 1_555 1_555
C19 C20 1_555 1_555
C21 C22 1_555 1_555
C27 C28 1_555 1_555
C28 C29 1_555 1_555
C34 C35 1_555 1_555

#END
