
#######################################################################
#
#                 Cambridge Crystallographic Data Centre
#                                CCDC 
#
#######################################################################
#
# If this CIF has been generated from an entry in the Cambridge 
# Structural Database, then it will include bibliographic, chemical, 
# crystal, experimental, refinement or atomic coordinate data resulting 
# from the CCDC's data processing and validation procedures.
#
#######################################################################

data_BILQUK
_chemical_formula_moiety         'C35 H22'
_chemical_name_systematic        
7-((4-Methylphenyl)ethynyl)-12-phenylindeno[2,1-a]phenalene
_symmetry_cell_setting           triclinic
_symmetry_space_group_name_H-M   'P -1'
_symmetry_Int_Tables_number      2
_space_group_name_Hall           '-P 1'
loop_
_symmetry_equiv_pos_site_id
_symmetry_equiv_pos_as_xyz
1 x,y,z
2 -x,-y,-z
_cell_length_a                   10.091(3)
_cell_length_b                   10.600(3)
_cell_length_c                   12.795(4)
_cell_angle_alpha                71.816(5)
_cell_angle_beta                 89.732(5)
_cell_angle_gamma                67.788(4)
_cell_volume                     1193.74
_exptl_crystal_colour            'brown red'
_exptl_crystal_description       Block
_cell_formula_units_Z            2
loop_
_atom_site_label
_atom_site_type_symbol
_atom_site_fract_x
_atom_site_fract_y
_atom_site_fract_z
C1 C 0.2384(6) -0.7703(5) 0.1253(5)
H1 H 0.2277 -0.7454 0.0460
H2 H 0.1671 -0.8064 0.1548
H3 H 0.3331 -0.8434 0.1561
C2 C 0.2185(4) -0.6384(4) 0.1549(4)
C3 C 0.2453(4) -0.6493(4) 0.2642(3)
H4 H 0.2799 -0.7397 0.3194
C4 C 0.2213(4) -0.5274(4) 0.2920(3)
H5 H 0.2395 -0.5367 0.3658
C5 C 0.1704(3) -0.3908(3) 0.2113(3)
C6 C 0.1477(5) -0.3810(4) 0.1018(3)
H6 H 0.1168 -0.2913 0.0461
C7 C 0.1706(5) -0.5025(5) 0.0749(4)
H7 H 0.1534 -0.4932 0.0010
C8 C 0.1415(4) -0.2652(4) 0.2428(3)
C9 C 0.1134(4) -0.1644(4) 0.2734(3)
C10 C 0.0806(3) -0.0456(3) 0.3141(3)
C11 C 0.1828(3) -0.0548(3) 0.4005(3)
C12 C 0.1512(3) 0.0607(3) 0.4424(2)
C13 C 0.0215(3) 0.1888(3) 0.4036(2)
C14 C -0.0743(3) 0.1998(3) 0.3132(2)
C15 C -0.0416(3) 0.0760(3) 0.2752(3)
C16 C -0.1619(4) 0.1150(4) 0.1904(3)
C17 C -0.2581(3) 0.2548(3) 0.1789(3)
C18 C -0.2008(3) 0.3087(3) 0.2535(3)
C19 C -0.3848(4) 0.3208(4) 0.1069(3)
H8 H -0.4503 0.4130 0.1012
C20 C -0.4125(5) 0.2465(4) 0.0429(3)
H9 H -0.4973 0.2895 -0.0061
C21 C -0.3151(5) 0.1098(5) 0.0516(3)
H10 H -0.3342 0.0618 0.0077
C22 C -0.1897(5) 0.0436(4) 0.1247(3)
H11 H -0.1242 -0.0484 0.1300
C23 C -0.2668(3) 0.4613(3) 0.2469(3)
C24 C -0.1860(4) 0.5466(3) 0.2206(3)
H12 H -0.0887 0.5041 0.2137
C25 C -0.2478(4) 0.6912(4) 0.2049(3)
H13 H -0.1919 0.7456 0.1877
C26 C -0.3913(5) 0.7573(5) 0.2142(4)
H14 H -0.4326 0.8559 0.2030
C27 C -0.4725(4) 0.6769(5) 0.2401(4)
H15 H -0.5696 0.7210 0.2470
C28 C -0.4116(4) 0.5296(5) 0.2561(3)
H16 H -0.4686 0.4762 0.2731
C29 C 0.3098(4) -0.1769(4) 0.4426(3)
H17 H 0.3298 -0.2536 0.4160
C30 C 0.4084(4) -0.1869(5) 0.5244(3)
H18 H 0.4945 -0.2683 0.5499
C31 C 0.3785(4) -0.0782(5) 0.5664(3)
H19 H 0.4441 -0.0868 0.6216
C32 C 0.2505(4) 0.0476(4) 0.5286(3)
C33 C 0.2170(4) 0.1600(4) 0.5730(3)
H20 H 0.2824 0.1530 0.6277
C34 C 0.0910(4) 0.2789(4) 0.5376(3)
H21 H 0.0699 0.3515 0.5689
C35 C -0.0065(4) 0.2914(4) 0.4543(3)
H22 H -0.0935 0.3720 0.4323
loop_
_geom_bond_atom_site_label_1
_geom_bond_atom_site_label_2
_geom_bond_site_symmetry_1
_geom_bond_site_symmetry_2
C1 H1 1_555 1_555
H2 C1 1_555 1_555
H3 C1 1_555 1_555
C2 C1 1_555 1_555
C3 C2 1_555 1_555
H4 C3 1_555 1_555
C4 C3 1_555 1_555
H5 C4 1_555 1_555
C5 C4 1_555 1_555
C6 C5 1_555 1_555
H6 C6 1_555 1_555
C7 C2 1_555 1_555
H7 C7 1_555 1_555
C8 C5 1_555 1_555
C9 C8 1_555 1_555
C10 C9 1_555 1_555
C11 C10 1_555 1_555
C12 C11 1_555 1_555
C13 C12 1_555 1_555
C14 C13 1_555 1_555
C15 C10 1_555 1_555
C16 C15 1_555 1_555
C17 C16 1_555 1_555
C18 C14 1_555 1_555
C19 C17 1_555 1_555
H8 C19 1_555 1_555
C20 C19 1_555 1_555
H9 C20 1_555 1_555
C21 C20 1_555 1_555
H10 C21 1_555 1_555
C22 C16 1_555 1_555
H11 C22 1_555 1_555
C23 C18 1_555 1_555
C24 C23 1_555 1_555
H12 C24 1_555 1_555
C25 C24 1_555 1_555
H13 C25 1_555 1_555
C26 C25 1_555 1_555
H14 C26 1_555 1_555
C27 C26 1_555 1_555
H15 C27 1_555 1_555
C28 C23 1_555 1_555
H16 C28 1_555 1_555
C29 C11 1_555 1_555
H17 C29 1_555 1_555
C30 C29 1_555 1_555
H18 C30 1_555 1_555
C31 C30 1_555 1_555
H19 C31 1_555 1_555
C32 C12 1_555 1_555
C33 C32 1_555 1_555
H20 C33 1_555 1_555
C34 C33 1_555 1_555
H21 C34 1_555 1_555
C35 C13 1_555 1_555
H22 C35 1_555 1_555
C6 C7 1_555 1_555
C14 C15 1_555 1_555
C17 C18 1_555 1_555
C21 C22 1_555 1_555
C27 C28 1_555 1_555
C31 C32 1_555 1_555
C34 C35 1_555 1_555

#END
