
#######################################################################
#
#                 Cambridge Crystallographic Data Centre
#                                CCDC 
#
#######################################################################
#
# If this CIF has been generated from an entry in the Cambridge 
# Structural Database, then it will include bibliographic, chemical, 
# crystal, experimental, refinement or atomic coordinate data resulting 
# from the CCDC's data processing and validation procedures.
#
#######################################################################

data_BILQIY
_chemical_formula_moiety         'C33 H19 N1'
_chemical_name_systematic        
2-((12-Phenylindeno[2,1-a]phenalen-7-yl)ethynyl)pyridine
_symmetry_cell_setting           monoclinic
_symmetry_space_group_name_H-M   'P 21/c'
_symmetry_Int_Tables_number      14
_space_group_name_Hall           '-P 2ybc'
loop_
_symmetry_equiv_pos_site_id
_symmetry_equiv_pos_as_xyz
1 x,y,z
2 -x,1/2+y,1/2-z
3 -x,-y,-z
4 x,1/2-y,1/2+z
_cell_length_a                   13.017(3)
_cell_length_b                   17.357(3)
_cell_length_c                   10.216(2)
_cell_angle_alpha                90
_cell_angle_beta                 106.654(4)
_cell_angle_gamma                90
_cell_volume                     2211.34
_exptl_crystal_colour            brown
_exptl_crystal_description       Prism
_cell_formula_units_Z            4
loop_
_atom_site_label
_atom_site_type_symbol
_atom_site_fract_x
_atom_site_fract_y
_atom_site_fract_z
N1 N 0.94777(18) 0.85819(15) 1.0964(2)
C1 C 1.0399(2) 0.8319(3) 1.1810(4)
H1 H 1.1041 0.8496 1.1694
C2 C 1.0439(4) 0.7825(3) 1.2788(4)
H2 H 1.1106 0.7671 1.3343
C3 C 0.9542(5) 0.7528(3) 1.3027(4)
H3 H 0.9580 0.7172 1.3719
C4 C 0.8533(3) 0.77937(19) 1.2153(3)
H4 H 0.7887 0.7615 1.2255
C5 C 0.85575(19) 0.83190(15) 1.1164(2)
C6 C 0.75748(19) 0.86236(14) 1.0282(2)
C7 C 0.67533(18) 0.89059(14) 0.9612(2)
C8 C 0.57849(16) 0.92698(12) 0.88243(19)
C9 C 0.58390(17) 0.98260(12) 0.77663(19)
C10 C 0.67916(18) 0.99797(14) 0.7474(2)
H5 H 0.7409 0.9713 0.7937
C11 C 0.6843(2) 1.05315(16) 0.6489(3)
H6 H 0.7487 1.0619 0.6292
C12 C 0.5958(2) 1.09373(15) 0.5826(2)
H7 H 0.6005 1.1308 0.5187
C13 C 0.49643(18) 1.08071(13) 0.6088(2)
C14 C 0.4043(2) 1.12473(14) 0.5448(2)
H8 H 0.4080 1.1621 0.4812
C15 C 0.3103(2) 1.11315(14) 0.5751(2)
H9 H 0.2516 1.1444 0.5351
C16 C 0.30075(17) 1.05504(13) 0.6653(2)
H10 H 0.2354 1.0475 0.6834
C17 C 0.38771(16) 1.00825(12) 0.72874(19)
C18 C 0.48863(16) 1.02319(11) 0.70463(19)
C19 C 0.38254(16) 0.94614(11) 0.82292(18)
C20 C 0.48226(16) 0.91060(11) 0.90451(18)
C21 C 0.45344(16) 0.85592(11) 0.99829(19)
C22 C 0.51366(19) 0.80867(12) 1.1016(2)
H11 H 0.5880 0.8078 1.1218
C23 C 0.4621(2) 0.76287(14) 1.1743(2)
H12 H 0.5021 0.7309 1.2432
C24 C 0.3515(2) 0.76447(14) 1.1448(2)
H13 H 0.3180 0.7339 1.1952
C25 C 0.28943(19) 0.81110(14) 1.0407(2)
H14 H 0.2151 0.8113 1.0202
C26 C 0.34110(16) 0.85711(12) 0.96852(19)
C27 C 0.29737(16) 0.91268(12) 0.85674(19)
C28 C 0.18098(17) 0.92245(12) 0.7930(2)
C29 C 0.13429(19) 0.90579(14) 0.6554(2)
H15 H 0.1772 0.8889 0.6024
C30 C 0.0257(2) 0.91388(17) 0.5967(3)
H16 H -0.0038 0.9030 0.5044
C31 C -0.0394(2) 0.93798(18) 0.6734(3)
H17 H -0.1128 0.9435 0.6334
C32 C 0.0047(2) 0.95370(17) 0.8089(3)
H18 H -0.0391 0.9696 0.8615
C33 C 0.11350(18) 0.94626(15) 0.8685(2)
H19 H 0.1422 0.9574 0.9609
loop_
_geom_bond_atom_site_label_1
_geom_bond_atom_site_label_2
_geom_bond_site_symmetry_1
_geom_bond_site_symmetry_2
N1 C1 1_555 1_555
C1 H1 1_555 1_555
C2 C1 1_555 1_555
H2 C2 1_555 1_555
C3 C2 1_555 1_555
H3 C3 1_555 1_555
C4 C3 1_555 1_555
H4 C4 1_555 1_555
C5 N1 1_555 1_555
C6 C5 1_555 1_555
C7 C6 1_555 1_555
C8 C7 1_555 1_555
C9 C8 1_555 1_555
C10 C9 1_555 1_555
H5 C10 1_555 1_555
C11 C10 1_555 1_555
H6 C11 1_555 1_555
C12 C11 1_555 1_555
H7 C12 1_555 1_555
C13 C12 1_555 1_555
C14 C13 1_555 1_555
H8 C14 1_555 1_555
C15 C14 1_555 1_555
H9 C15 1_555 1_555
C16 C15 1_555 1_555
H10 C16 1_555 1_555
C17 C16 1_555 1_555
C18 C9 1_555 1_555
C19 C17 1_555 1_555
C20 C8 1_555 1_555
C21 C20 1_555 1_555
C22 C21 1_555 1_555
H11 C22 1_555 1_555
C23 C22 1_555 1_555
H12 C23 1_555 1_555
C24 C23 1_555 1_555
H13 C24 1_555 1_555
C25 C24 1_555 1_555
H14 C25 1_555 1_555
C26 C21 1_555 1_555
C27 C19 1_555 1_555
C28 C27 1_555 1_555
C29 C28 1_555 1_555
H15 C29 1_555 1_555
C30 C29 1_555 1_555
H16 C30 1_555 1_555
C31 C30 1_555 1_555
H17 C31 1_555 1_555
C32 C31 1_555 1_555
H18 C32 1_555 1_555
C33 C28 1_555 1_555
H19 C33 1_555 1_555
C4 C5 1_555 1_555
C13 C18 1_555 1_555
C17 C18 1_555 1_555
C19 C20 1_555 1_555
C25 C26 1_555 1_555
C26 C27 1_555 1_555
C32 C33 1_555 1_555

#END
