
#######################################################################
#
#                 Cambridge Crystallographic Data Centre
#                                CCDC 
#
#######################################################################
#
# If this CIF has been generated from an entry in the Cambridge 
# Structural Database, then it will include bibliographic, chemical, 
# crystal, experimental, refinement or atomic coordinate data resulting 
# from the CCDC's data processing and validation procedures.
#
#######################################################################

data_BILROF
_chemical_formula_moiety         'C23 H31 N5 O5'
_chemical_name_systematic        
2-Amino-3-((4-(1,4,7,10,13-pentaoxa-16-azacyclooctadecan-16-yl)benzylidene)amino)but-2-enedinitrile
_symmetry_cell_setting           monoclinic
_symmetry_space_group_name_H-M   'P 21/c'
_symmetry_Int_Tables_number      14
_space_group_name_Hall           '-P 2ybc'
loop_
_symmetry_equiv_pos_site_id
_symmetry_equiv_pos_as_xyz
1 x,y,z
2 -x,1/2+y,1/2-z
3 -x,-y,-z
4 x,1/2-y,1/2+z
_cell_length_a                   10.362(5)
_cell_length_b                   18.502(5)
_cell_length_c                   13.007(5)
_cell_angle_alpha                90
_cell_angle_beta                 97.346(5)
_cell_angle_gamma                90
_cell_volume                     2473.2
_cell_formula_units_Z            4
loop_
_atom_site_label
_atom_site_type_symbol
_atom_site_fract_x
_atom_site_fract_y
_atom_site_fract_z
O1 O 0.81460(19) -0.20284(10) 0.34639(16)
O2 O 1.16269(18) -0.04778(10) 0.26606(17)
O3 O 1.08160(18) -0.18559(10) 0.31546(15)
N1 N 0.3467(2) 0.36347(11) 0.41278(16)
C1 C 0.6652(3) 0.15228(14) 0.3968(2)
O4 O 0.6843(2) -0.07435(11) 0.38402(18)
C2 C 0.5278(2) 0.28052(13) 0.4321(2)
C3 C 0.6514(3) 0.26654(15) 0.4837(2)
H1 H 0.6898 0.3003 0.5310
C4 C 0.1752(2) 0.44960(13) 0.3926(2)
N2 N 0.7318(2) 0.08988(13) 0.38081(19)
C5 C 0.4611(3) 0.34557(14) 0.4564(2)
H2 H 0.5031 0.3764 0.5064
C6 C 0.2897(2) 0.42642(13) 0.4451(2)
C7 C 0.1218(3) 0.51693(16) 0.4251(2)
C8 C 0.7184(3) 0.20467(15) 0.4669(2)
H3 H 0.8008 0.1975 0.5030
C9 C 0.5406(3) 0.16679(15) 0.3432(2)
H4 H 0.5024 0.1335 0.2951
N3 N 0.1123(2) 0.41698(12) 0.3088(2)
H5 H 0.1442 0.3786 0.2846
H6 H 0.0401 0.4344 0.2792
C10 C 0.3489(3) 0.46575(16) 0.5333(2)
C11 C 0.4748(3) 0.22896(14) 0.3607(2)
H7 H 0.3929 0.2369 0.3242
C12 C 1.0098(3) -0.25038(15) 0.2994(3)
H8 H 1.0681 -0.2915 0.3087
H9 H 0.9650 -0.2517 0.2292
C13 C 1.2471(3) -0.10763(17) 0.2719(3)
H10 H 1.2918 -0.1122 0.3418
H11 H 1.3119 -0.1008 0.2251
N4 N 0.4033(3) 0.49259(18) 0.6051(2)
C14 C 0.8545(3) 0.07166(15) 0.4424(3)
H12 H 0.8613 0.0194 0.4460
H13 H 0.8516 0.0891 0.5124
C15 C 0.9133(3) -0.25419(15) 0.3750(3)
H14 H 0.8760 -0.3023 0.3747
H15 H 0.9558 -0.2440 0.4443
C16 C 0.7235(3) -0.19836(17) 0.4184(3)
H16 H 0.7676 -0.1852 0.4861
H17 H 0.6822 -0.2450 0.4242
C17 C 1.2223(3) 0.01548(17) 0.3127(3)
H18 H 1.3014 0.0260 0.2829
H19 H 1.2454 0.0077 0.3865
C18 C 0.6869(4) 0.03983(17) 0.2984(3)
H20 H 0.7622 0.0195 0.2716
H21 H 0.6375 0.0666 0.2425
N5 N 0.0834(3) 0.57086(15) 0.4492(2)
C19 C 0.6236(3) -0.14318(17) 0.3830(3)
H22 H 0.5832 -0.1545 0.3134
H23 H 0.5564 -0.1429 0.4286
C20 C 1.1705(3) -0.17453(16) 0.2429(3)
H24 H 1.1237 -0.1695 0.1738
H25 H 1.2286 -0.2157 0.2431
C21 C 1.1336(3) 0.07564(17) 0.2958(4)
H26 H 1.1736 0.1178 0.3309
H27 H 1.1192 0.0863 0.2222
C22 C 0.6041(3) -0.02113(18) 0.3287(3)
H28 H 0.5416 -0.0029 0.3719
H29 H 0.5565 -0.0425 0.2671
C23 C 0.9770(4) 0.10057(18) 0.4054(4)
H30 H 0.9623 0.1502 0.3828
H31 H 1.0465 0.1007 0.4630
O5 O 1.0132(3) 0.06353(15) 0.3307(3)
loop_
_geom_bond_atom_site_label_1
_geom_bond_atom_site_label_2
_geom_bond_site_symmetry_1
_geom_bond_site_symmetry_2
O1 C15 1_555 1_555
O2 C13 1_555 1_555
O3 C12 1_555 1_555
N1 C5 1_555 1_555
C1 N2 1_555 1_555
O4 C19 1_555 1_555
C2 C3 1_555 1_555
C3 H1 1_555 1_555
C4 C6 1_555 1_555
N2 C14 1_555 1_555
C5 C2 1_555 1_555
H2 C5 1_555 1_555
C6 N1 1_555 1_555
C7 C4 1_555 1_555
C8 C1 1_555 1_555
H3 C8 1_555 1_555
C9 C1 1_555 1_555
H4 C9 1_555 1_555
N3 C4 1_555 1_555
H5 N3 1_555 1_555
H6 N3 1_555 1_555
C10 C6 1_555 1_555
C11 C2 1_555 1_555
H7 C11 1_555 1_555
C12 H8 1_555 1_555
H9 C12 1_555 1_555
C13 H10 1_555 1_555
H11 C13 1_555 1_555
N4 C10 1_555 1_555
C14 H12 1_555 1_555
H13 C14 1_555 1_555
C15 C12 1_555 1_555
H14 C15 1_555 1_555
H15 C15 1_555 1_555
C16 O1 1_555 1_555
H16 C16 1_555 1_555
H17 C16 1_555 1_555
C17 O2 1_555 1_555
H18 C17 1_555 1_555
H19 C17 1_555 1_555
C18 N2 1_555 1_555
H20 C18 1_555 1_555
H21 C18 1_555 1_555
N5 C7 1_555 1_555
C19 C16 1_555 1_555
H22 C19 1_555 1_555
H23 C19 1_555 1_555
C20 O3 1_555 1_555
H24 C20 1_555 1_555
H25 C20 1_555 1_555
C21 C17 1_555 1_555
H26 C21 1_555 1_555
H27 C21 1_555 1_555
C22 O4 1_555 1_555
H28 C22 1_555 1_555
H29 C22 1_555 1_555
C23 C14 1_555 1_555
H30 C23 1_555 1_555
H31 C23 1_555 1_555
O5 C21 1_555 1_555
C3 C8 1_555 1_555
C9 C11 1_555 1_555
C13 C20 1_555 1_555
C18 C22 1_555 1_555
C23 O5 1_555 1_555

#END
