
#######################################################################
#
#                 Cambridge Crystallographic Data Centre
#                                CCDC 
#
#######################################################################
#
# If this CIF has been generated from an entry in the Cambridge 
# Structural Database, then it will include bibliographic, chemical, 
# crystal, experimental, refinement or atomic coordinate data resulting 
# from the CCDC's data processing and validation procedures.
#
#######################################################################

data_BILXUP
_chemical_formula_moiety         'C6 H4 S4,C8 H8 N2 O4'
_chemical_name_systematic        
"2,2'-bis(1,3-Dithiole) dimethyl-dicyanofumarate"
_symmetry_cell_setting           monoclinic
_symmetry_space_group_name_H-M   'P 21/c'
_symmetry_Int_Tables_number      14
_space_group_name_Hall           '-P 2ybc'
loop_
_symmetry_equiv_pos_site_id
_symmetry_equiv_pos_as_xyz
1 x,y,z
2 -x,1/2+y,1/2-z
3 -x,-y,-z
4 x,1/2-y,1/2+z
_cell_length_a                   11.075(2)
_cell_length_b                   11.615(3)
_cell_length_c                   6.623(4)
_cell_angle_alpha                90
_cell_angle_beta                 95.7(16)
_cell_angle_gamma                90
_cell_volume                     847.745
_exptl_crystal_colour            'dark green'
_cell_formula_units_Z            2
loop_
_atom_site_label
_atom_site_type_symbol
_atom_site_fract_x
_atom_site_fract_y
_atom_site_fract_z
S1 S -0.09700 0.15600 0.53700
S2 S 0.15400 0.11600 0.51600
C5 C -0.01000 0.27500 0.54400
C6 C 0.10500 0.25400 0.52400
C7 C 0.00900 0.05700 0.50600
H1 H -0.04300 0.35100 0.56000
H2 H 0.163 0.315 0.522
C7B C -0.00900 -0.05700 0.49400
S1B S 0.09700 -0.15600 0.46300
C5B C 0.01000 -0.27500 0.45600
C6B C -0.10500 -0.25400 0.47600
S2B S -0.15400 -0.11600 0.48400
H2B H -0.163 -0.315 0.478
H1B H 0.04300 -0.35100 0.44000
O1 O -0.41100 0.74600 0.49100
O2 O -0.60500 0.69200 0.46400
N1 N -0.23200 0.52700 0.53900
C1 C -0.33400 0.52900 0.52500
C2 C -0.46500 0.86200 0.46000
C3 C -0.50100 0.66800 0.48300
C4 C -0.46100 0.54500 0.50300
H3 H -0.40300 0.92000 0.46800
H4 H -0.52900 0.88000 0.56600
H5 H -0.49600 0.86900 0.33300
C4B C -0.53900 0.45500 0.49700
C1B C -0.66600 0.47100 0.47500
N1B N -0.76800 0.47300 0.46100
C3B C -0.49900 0.33200 0.51700
O1B O -0.58900 0.25400 0.50900
C2B C -0.53500 0.13800 0.54000
H3B H -0.59700 0.08000 0.53200
H4B H -0.47100 0.12000 0.43400
H5B H -0.50400 0.13100 0.66700
O2B O -0.39500 0.30800 0.53600
loop_
_geom_bond_atom_site_label_1
_geom_bond_atom_site_label_2
_geom_bond_site_symmetry_1
_geom_bond_site_symmetry_2
S1 C5 1_555 1_555
S2 C6 1_555 1_555
O1 C2 1_555 1_555
O2 C3 1_555 1_555
N1 C1 1_555 1_555
C1 C4 1_555 1_555
C2 H3 1_555 1_555
C3 O1 1_555 1_555
C4 C3 1_555 1_555
C5 C6 1_555 1_555
C6 H2 1_555 1_555
C7 S1 1_555 1_555
H1 C5 1_555 1_555
H4 C2 1_555 1_555
H5 C2 1_555 1_555
C7B C7 1_555 1_555
S1B C7B 1_555 1_555
C5B S1B 1_555 1_555
C6B C5B 1_555 1_555
S2B C7B 1_555 1_555
H2B C6B 1_555 1_555
H1B C5B 1_555 1_555
C4B C4 1_555 1_555
C1B C4B 1_555 1_555
N1B C1B 1_555 1_555
C3B C4B 1_555 1_555
O1B C3B 1_555 1_555
C2B O1B 1_555 1_555
H3B C2B 1_555 1_555
H4B C2B 1_555 1_555
H5B C2B 1_555 1_555
O2B C3B 1_555 1_555
S2 C7 1_555 1_555
C6B S2B 1_555 1_555

#END
