
#######################################################################
#
#                 Cambridge Crystallographic Data Centre
#                                CCDC 
#
#######################################################################
#
# If this CIF has been generated from an entry in the Cambridge 
# Structural Database, then it will include bibliographic, chemical, 
# crystal, experimental, refinement or atomic coordinate data resulting 
# from the CCDC's data processing and validation procedures.
#
#######################################################################

data_BIMBIL
_chemical_formula_moiety         'C42 H29 N1 O7'
_chemical_name_systematic        
"3'-(diethylamino)-11'-hydroxy-3H,3''H-dispiro[2-benzofuran-1,8'-xantheno[4,3-c]xanthene-16',1''-[2]benzofuran]-3,3''-dione unknown solvate"
_symmetry_cell_setting           monoclinic
_symmetry_space_group_name_H-M   'P 2/n'
_symmetry_Int_Tables_number      13
_space_group_name_Hall           '-P 2yac'
loop_
_symmetry_equiv_pos_site_id
_symmetry_equiv_pos_as_xyz
1 x,y,z
2 1/2-x,y,1/2-z
3 -x,-y,-z
4 1/2+x,-y,1/2+z
_cell_length_a                   12.6280(4)
_cell_length_b                   12.0003(3)
_cell_length_c                   26.2562(8)
_cell_angle_alpha                90
_cell_angle_beta                 96.197(3)
_cell_angle_gamma                90
_cell_volume                     3955.61
_exptl_crystal_colour            white
_exptl_crystal_description       block
_cell_formula_units_Z            4
loop_
_atom_site_label
_atom_site_type_symbol
_atom_site_fract_x
_atom_site_fract_y
_atom_site_fract_z
O1 O 0.40633(16) 0.49673(17) 0.43648(8)
O2 O 0.35047(18) 0.25793(19) 0.52898(8)
O3 O 0.3866(2) 0.1611(2) 0.26923(8)
O4 O 0.61561(19) 0.3400(3) 0.21309(10)
O5 O 0.3655(3) -0.0861(3) 0.12762(12)
H1 H 0.3179 -0.1133 0.1426
C1 C 0.3821(2) 0.3941(2) 0.41714(11)
O6 O 0.3180(3) 0.1156(3) 0.57974(13)
C2 C 0.4196(2) 0.2591(3) 0.29233(12)
C3 C 0.3683(2) 0.5277(3) 0.48199(11)
C4 C 0.3251(2) 0.3152(2) 0.44037(11)
C5 C 0.2894(2) 0.3365(2) 0.49278(11)
C6 C 0.3901(2) 0.2745(3) 0.34282(11)
C7 C 0.4187(2) 0.3743(3) 0.36809(11)
C8 C 0.3139(2) 0.4535(3) 0.51031(11)
C9 C 0.3022(3) 0.2132(3) 0.41483(12)
H2 H 0.2655 0.1583 0.4308
C10 C 0.4116(3) 0.1396(3) 0.22014(12)
C11 C 0.4554(3) 0.4244(3) 0.18188(12)
C12 C 0.1756(2) 0.3033(3) 0.49691(12)
C13 C 0.3863(2) 0.6370(3) 0.49582(12)
H3 H 0.4231 0.6836 0.4756
C14 C 0.3324(3) 0.1930(3) 0.36749(12)
H4 H 0.3152 0.1255 0.3513
C15 C 0.4753(2) 0.3404(3) 0.26877(12)
C16 C 0.4796(3) 0.4548(3) 0.34452(12)
H5 H 0.5005 0.5203 0.3617
C17 C 0.2811(3) 0.4949(3) 0.55551(12)
H6 H 0.2459 0.4475 0.5761
O7 O 0.7295(2) 0.4604(4) 0.18341(13)
C18 C 0.4997(3) 0.3266(3) 0.21423(12)
C19 C 0.5072(3) 0.4360(3) 0.29677(12)
H7 H 0.5488 0.4885 0.2821
C20 C 0.3487(3) 0.6784(3) 0.54087(13)
C21 C 0.2988(3) 0.6030(3) 0.57082(13)
H8 H 0.2771 0.6265 0.6018
C22 C 0.3773(3) 0.0377(3) 0.20039(13)
H9 H 0.3415 -0.0117 0.2198
C23 C 0.4655(3) 0.2158(3) 0.19311(13)
C24 C 0.3515(3) 0.4575(3) 0.16937(14)
H10 H 0.2956 0.4156 0.1797
C25 C 0.5374(3) 0.4877(4) 0.16744(14)
C26 C 0.1731(3) 0.2151(3) 0.53104(15)
C27 C 0.2856(4) 0.1873(3) 0.54979(14)
C28 C 0.0821(3) 0.3495(4) 0.47481(16)
H11 H 0.0822 0.4091 0.4522
C29 C 0.4120(3) 0.8668(3) 0.52366(15)
H12 H 0.4677 0.8231 0.5105
H13 H 0.4447 0.9272 0.5442
C30 C 0.6393(3) 0.4344(5) 0.18757(15)
C31 C 0.4846(3) 0.1858(4) 0.14288(14)
H14 H 0.5194 0.2358 0.1233
C32 C 0.3976(4) 0.0100(4) 0.15012(15)
C33 C 0.4533(4) 0.0855(4) 0.12265(14)
H15 H 0.4691 0.0669 0.0899
C34 C 0.3318(4) 0.5523(4) 0.14170(16)
H16 H 0.2618 0.5736 0.1319
C35 C -0.0130(3) 0.3035(6) 0.4877(2)
H17 H -0.0778 0.3337 0.4742
C36 C 0.4133(5) 0.6171(4) 0.12803(18)
H18 H 0.3977 0.6838 0.1108
C37 C 0.5176(5) 0.5857(5) 0.13917(19)
H19 H 0.5729 0.6278 0.1284
C38 C 0.3364(4) 0.9118(4) 0.48025(19)
H20 H 0.3762 0.9482 0.4559
H21 H 0.2889 0.9643 0.4934
H22 H 0.2960 0.8516 0.4638
C39 C 0.0805(5) 0.1686(5) 0.5427(2)
H23 H 0.0814 0.1086 0.5652
C40 C -0.0112(5) 0.2106(6) 0.5214(2)
H24 H -0.0750 0.1788 0.5286
C41 C 0.2785(7) 0.8401(7) 0.5937(3)
H25 H 0.2123 0.7986 0.5914
H26 H 0.2613 0.9174 0.5857
C42 C 0.3336(7) 0.8324(7) 0.6484(3)
H27 H 0.3730 0.7640 0.6524
H28 H 0.2809 0.8342 0.6722
H29 H 0.3813 0.8943 0.6549
N1 N 0.3465(9) 0.7954(8) 0.5549(4)
N2? N 0.3819(10) 0.7784(7) 0.5572(4)
C43? C 0.3563(12) 0.8193(13) 0.6070(5)
C44? C 0.4615(12) 0.8339(13) 0.6416(6)
H30? H 0.4747 0.8410 0.5088
H31? H 0.4344 0.9296 0.5455
loop_
_geom_bond_atom_site_label_1
_geom_bond_atom_site_label_2
_geom_bond_site_symmetry_1
_geom_bond_site_symmetry_2
O1 C1 1_555 1_555
O2 C5 1_555 1_555
O3 C2 1_555 1_555
O4 C18 1_555 1_555
O5 H1 1_555 1_555
C1 C4 1_555 1_555
O6 C27 1_555 1_555
C2 C6 1_555 1_555
C3 O1 1_555 1_555
C4 C5 1_555 1_555
C5 C8 1_555 1_555
C6 C7 1_555 1_555
C7 C1 1_555 1_555
C8 C3 1_555 1_555
C9 C4 1_555 1_555
H2 C9 1_555 1_555
C10 O3 1_555 1_555
C11 C18 1_555 1_555
C12 C5 1_555 1_555
C13 C3 1_555 1_555
H3 C13 1_555 1_555
C14 C6 1_555 1_555
H4 C14 1_555 1_555
C15 C2 1_555 1_555
C16 C7 1_555 1_555
H5 C16 1_555 1_555
C17 C8 1_555 1_555
H6 C17 1_555 1_555
O7 C30 1_555 1_555
C18 C15 1_555 1_555
C19 C15 1_555 1_555
H7 C19 1_555 1_555
C20 C13 1_555 1_555
C21 C17 1_555 1_555
H8 C21 1_555 1_555
C22 C10 1_555 1_555
H9 C22 1_555 1_555
C23 C10 1_555 1_555
C24 C11 1_555 1_555
H10 C24 1_555 1_555
C25 C11 1_555 1_555
C26 C12 1_555 1_555
C27 O2 1_555 1_555
C28 C12 1_555 1_555
H11 C28 1_555 1_555
C29 H12 1_555 1_555
H13 C29 1_555 1_555
C30 O4 1_555 1_555
C31 C23 1_555 1_555
H14 C31 1_555 1_555
C32 O5 1_555 1_555
C33 C31 1_555 1_555
H15 C33 1_555 1_555
C34 C24 1_555 1_555
H16 C34 1_555 1_555
C35 C28 1_555 1_555
H17 C35 1_555 1_555
C36 C34 1_555 1_555
H18 C36 1_555 1_555
C37 C25 1_555 1_555
H19 C37 1_555 1_555
C38 C29 1_555 1_555
H20 C38 1_555 1_555
H21 C38 1_555 1_555
H22 C38 1_555 1_555
C39 C26 1_555 1_555
H23 C39 1_555 1_555
C40 C35 1_555 1_555
H24 C40 1_555 1_555
C41 H25 1_555 1_555
H26 C41 1_555 1_555
C42 C41 1_555 1_555
H27 C42 1_555 1_555
H28 C42 1_555 1_555
H29 C42 1_555 1_555
N1 C20 1_555 1_555
C9 C14 1_555 1_555
C16 C19 1_555 1_555
C18 C23 1_555 1_555
C20 C21 1_555 1_555
C22 C32 1_555 1_555
C25 C30 1_555 1_555
C26 C27 1_555 1_555
C29 N1 1_555 1_555
C32 C33 1_555 1_555
C36 C37 1_555 1_555
C39 C40 1_555 1_555
C41 N1 1_555 1_555

#END
