
#######################################################################
#
#                 Cambridge Crystallographic Data Centre
#                                CCDC 
#
#######################################################################
#
# If this CIF has been generated from an entry in the Cambridge 
# Structural Database, then it will include bibliographic, chemical, 
# crystal, experimental, refinement or atomic coordinate data resulting 
# from the CCDC's data processing and validation procedures.
#
#######################################################################

data_BIMLOZ01
_chemical_formula_moiety         'C12 H12 S8 1+,C12 H12 S8,F6 P1 1-'
_chemical_name_systematic        
'bis(\b-meso-dimethylbisethylenedithio-tetrathiafulvalene) hexafluorophosphate'
_symmetry_cell_setting           triclinic
_symmetry_space_group_name_H-M   'P -1'
_symmetry_Int_Tables_number      2
_space_group_name_Hall           '-P 1'
loop_
_symmetry_equiv_pos_site_id
_symmetry_equiv_pos_as_xyz
1 x,y,z
2 -x,-y,-z
_cell_length_a                   13.294(3)
_cell_length_b                   16.663(4)
_cell_length_c                   9.006(2)
_cell_angle_alpha                97.787(7)
_cell_angle_beta                 111.12(1)
_cell_angle_gamma                68.101(9)
_cell_volume                     1726.7
_exptl_crystal_colour            black
_exptl_crystal_description       needle
_cell_formula_units_Z            2
loop_
_atom_site_label
_atom_site_type_symbol
_atom_site_fract_x
_atom_site_fract_y
_atom_site_fract_z
S1 S 0.7052(3) 0.3013(2) 0.4259(3)
S2 S 0.5052(4) 0.2891(2) 0.5893(3)
S3 S 0.5149(4) 0.4524(2) 0.2585(3)
S4 S 0.3463(4) 0.4402(2) 0.3855(3)
S5 S 0.3127(4) 0.6177(2) 0.0422(3)
S6 S 0.1504(3) 0.5986(2) 0.1743(3)
S7 S 0.1446(3) 0.7715(2) -0.1531(3)
S8 S -0.0440(3) 0.7531(2) 0.0204(3)
C1 C 0.730(1) 0.2333(7) 0.587(1)
C2 C 0.635(1) 0.2030(7) 0.572(1)
C3 C 0.561(1) 0.3678(6) 0.391(1)
C4 C 0.483(1) 0.3627(6) 0.450(1)
C5 C 0.376(1) 0.4937(6) 0.261(1)
C6 C 0.289(1) 0.5610(7) 0.166(1)
C7 C 0.172(1) 0.6932(6) -0.018(1)
C8 C 0.098(1) 0.6860(6) 0.044(1)
C9 C 0.032(1) 0.8593(6) -0.098(1)
C10 C -0.070(1) 0.8328(6) -0.124(1)
C11 C 0.080(1) 0.8940(6) 0.067(1)
C12 C -0.177(2) 0.9086(8) -0.115(1)
H1 H 0.7444 0.2652 0.6838
H2 H 0.7966 0.1836 0.5928
H3 H 0.6614 0.1620 0.6541
H4 H 0.6147 0.1760 0.4715
H5 H 0.0053 0.9052 -0.1702
H6 H -0.0888 0.8083 -0.2277
H7 H 0.0760 0.8627 0.1441
H8 H 0.1578 0.8874 0.0871
H9 H 0.0361 0.9536 0.0725
H10 H -0.1804 0.9122 -0.0101
H11 H -0.1733 0.9608 -0.1391
H12 H -0.2447 0.9002 -0.1887
S9 S 1.2042(4) 0.3047(2) 0.4226(3)
S10 S 1.0051(4) 0.2883(2) 0.5824(3)
S11 S 1.0109(4) 0.4532(2) 0.2490(3)
S12 S 0.8417(4) 0.4377(2) 0.3732(3)
S13 S 0.8072(4) 0.6154(2) 0.0279(3)
S14 S 0.6437(3) 0.5955(2) 0.1594(3)
S15 S 0.6395(3) 0.7724(2) -0.1593(3)
S16 S 0.4529(3) 0.7538(2) 0.0170(3)
C13 C 1.231(1) 0.2405(7) 0.589(1)
C14 C 1.138(1) 0.2060(7) 0.574(1)
C15 C 1.060(1) 0.3691(6) 0.384(1)
C16 C 0.983(1) 0.3630(6) 0.443(1)
C17 C 0.869(1) 0.4910(6) 0.247(1)
C18 C 0.783(1) 0.5586(6) 0.154(1)
C19 C 0.666(1) 0.6924(6) -0.028(1)
C20 C 0.593(1) 0.6857(6) 0.037(1)
C21 C 0.530(1) 0.8604(6) -0.099(1)
C22 C 0.425(1) 0.8356(6) -0.124(1)
C23 C 0.582(1) 0.8935(6) 0.067(1)
C24 C 0.323(1) 0.9122(7) -0.106(1)
H13 H 1.2409 0.2754 0.6823
H14 H 1.3008 0.1925 0.6008
H15 H 1.1660 0.1665 0.6591
H16 H 1.1222 0.1764 0.4755
H17 H 0.5039 0.9068 -0.1700
H18 H 0.4037 0.8129 -0.2282
H19 H 0.5396 0.9532 0.0749
H20 H 0.6599 0.8861 0.0846
H21 H 0.5792 0.8620 0.1450
H22 H 0.2536 0.9055 -0.1784
H23 H 0.3276 0.9642 -0.1293
H24 H 0.3223 0.9144 -0.0004
P1 P 0.0000 1.0000 -0.5000
F1 F 0.0983(9) 0.9919(4) -0.5727(7)
F2 F -0.0623(9) 0.9536(5) -0.6564(8)
F3 F 0.0763(8) 0.9073(4) -0.4167(7)
F1A F -0.0983(9) 1.0081(4) -0.4273(7)
F2A F 0.0623(9) 1.0464(5) -0.3436(8)
F3A F -0.0763(8) 1.0927(4) -0.5833(7)
P2 P 0.5000 1.0000 -0.5000
F4 F 0.6001(9) 0.9916(5) -0.5696(7)
F5 F 0.4357(9) 0.9580(5) -0.6615(7)
F6 F 0.5728(8) 0.9048(4) -0.4240(7)
F4A F 0.3999(9) 1.0084(5) -0.4304(7)
F5A F 0.5643(9) 1.0420(5) -0.3385(7)
F6A F 0.4272(8) 1.0952(4) -0.5760(7)
loop_
_geom_bond_atom_site_label_1
_geom_bond_atom_site_label_2
_geom_bond_site_symmetry_1
_geom_bond_site_symmetry_2
S1 C1 1_555 1_555
S2 C2 1_555 1_555
S3 C3 1_555 1_555
S4 C4 1_555 1_555
S5 C6 1_555 1_555
S6 C6 1_555 1_555
S7 C7 1_555 1_555
S8 C8 1_555 1_555
S9 C13 1_555 1_555
S10 C14 1_555 1_555
S11 C15 1_555 1_555
S12 C16 1_555 1_555
S13 C18 1_555 1_555
S14 C18 1_555 1_555
S15 C19 1_555 1_555
S16 C20 1_555 1_555
P1 F1 1_555 1_555
P2 F4 1_555 1_555
F2 P1 1_555 1_555
F3 P1 1_555 1_555
F5 P2 1_555 1_555
F6 P2 1_555 1_555
C1 C2 1_555 1_555
C2 H3 1_555 1_555
C3 S1 1_555 1_555
C4 S2 1_555 1_555
C5 S3 1_555 1_555
C6 C5 1_555 1_555
C7 S5 1_555 1_555
C8 S6 1_555 1_555
C9 S7 1_555 1_555
C10 S8 1_555 1_555
C11 C9 1_555 1_555
C12 C10 1_555 1_555
C13 C14 1_555 1_555
C14 H15 1_555 1_555
C15 S9 1_555 1_555
C16 S10 1_555 1_555
C17 S11 1_555 1_555
C18 C17 1_555 1_555
C19 S13 1_555 1_555
C20 S14 1_555 1_555
C21 S15 1_555 1_555
C22 S16 1_555 1_555
C23 C21 1_555 1_555
C24 C22 1_555 1_555
H1 C1 1_555 1_555
H2 C1 1_555 1_555
H4 C2 1_555 1_555
H5 C9 1_555 1_555
H6 C10 1_555 1_555
H7 C11 1_555 1_555
H8 C11 1_555 1_555
H9 C11 1_555 1_555
H10 C12 1_555 1_555
H11 C12 1_555 1_555
H12 C12 1_555 1_555
H13 C13 1_555 1_555
H14 C13 1_555 1_555
H16 C14 1_555 1_555
H17 C21 1_555 1_555
H18 C22 1_555 1_555
H19 C23 1_555 1_555
H20 C23 1_555 1_555
H21 C23 1_555 1_555
H22 C24 1_555 1_555
H23 C24 1_555 1_555
H24 C24 1_555 1_555
F1A P1 1_555 1_555
F2A P1 1_555 1_555
F3A P1 1_555 1_555
F4A P2 1_555 1_555
F5A P2 1_555 1_555
F6A P2 1_555 1_555
S4 C5 1_555 1_555
S12 C17 1_555 1_555
C3 C4 1_555 1_555
C7 C8 1_555 1_555
C9 C10 1_555 1_555
C15 C16 1_555 1_555
C19 C20 1_555 1_555
C21 C22 1_555 1_555

#END
