
#######################################################################
#
#                 Cambridge Crystallographic Data Centre
#                                CCDC 
#
#######################################################################
#
# If this CIF has been generated from an entry in the Cambridge 
# Structural Database, then it will include bibliographic, chemical, 
# crystal, experimental, refinement or atomic coordinate data resulting 
# from the CCDC's data processing and validation procedures.
#
#######################################################################

data_BIMPAR
_chemical_formula_moiety         'C20 H19 N1 O3'
_chemical_name_systematic        
'benzyl (1,3-dimethyl-2-oxo-1,2-dihydronaphthalen-1-yl)carbamate'
_symmetry_cell_setting           monoclinic
_symmetry_space_group_name_H-M   'P 21/c'
_symmetry_Int_Tables_number      14
_space_group_name_Hall           '-P 2ybc'
loop_
_symmetry_equiv_pos_site_id
_symmetry_equiv_pos_as_xyz
1 x,y,z
2 -x,1/2+y,1/2-z
3 -x,-y,-z
4 x,1/2-y,1/2+z
_cell_length_a                   10.6429(11)
_cell_length_b                   9.9400(10)
_cell_length_c                   16.1345(17)
_cell_angle_alpha                90
_cell_angle_beta                 91.160(6)
_cell_angle_gamma                90
_cell_volume                     1706.53
_exptl_crystal_colour            colorless
_exptl_crystal_description       block
_cell_formula_units_Z            4
loop_
_atom_site_label
_atom_site_type_symbol
_atom_site_fract_x
_atom_site_fract_y
_atom_site_fract_z
O1 O 0.45216(12) 0.52838(14) 0.62044(8)
O2 O 0.17489(11) 0.57120(13) 0.53336(7)
O3 O 0.23519(11) 0.47241(12) 0.41423(7)
N1 N 0.35811(13) 0.62696(14) 0.47242(8)
H1 H 0.404718 0.616151 0.430010
C1 C 0.39521(15) 0.71997(17) 0.53762(10)
C2 C 0.41527(16) 0.64483(19) 0.61996(10)
C3 C 0.39973(18) 0.7192(2) 0.69746(11)
C4 C 0.33963(19) 0.8367(2) 0.69463(12)
H2 H 0.332121 0.883771 0.744107
C5 C 0.28524(18) 0.89675(18) 0.62074(12)
C6 C 0.2091(2) 1.0101(2) 0.62515(16)
H3 H 0.196550 1.050909 0.676207
C7 C 0.1524(2) 1.0624(2) 0.55574(19)
H4 H 0.101428 1.138027 0.559832
C8 C 0.1704(2) 1.0040(2) 0.48006(17)
H5 H 0.131499 1.039820 0.432878
C9 C 0.24671(19) 0.8913(2) 0.47369(13)
H6 H 0.259096 0.852178 0.422146
C10 C 0.30436(16) 0.83700(17) 0.54357(11)
C11 C 0.52553(16) 0.77733(19) 0.51572(11)
H7 H 0.584351 0.704790 0.510287
H8 H 0.554038 0.837006 0.558934
H9 H 0.519081 0.825772 0.464333
C12 C 0.4474(2) 0.6540(3) 0.77620(12)
H10 H 0.399276 0.574436 0.786821
H11 H 0.439124 0.715778 0.821525
H12 H 0.534257 0.630367 0.770493
C13 C 0.24977(16) 0.55741(17) 0.47881(10)
C14 C 0.12695(17) 0.38593(19) 0.41709(11)
H13 H 0.051101 0.439585 0.420539
H14 H 0.132542 0.328531 0.465642
C15 C 0.12227(17) 0.30177(17) 0.34019(11)
C16 C 0.0084(2) 0.2716(2) 0.30400(15)
H15 H -0.064905 0.305400 0.326549
C17 C 0.0015(3) 0.1914(3) 0.23423(18)
H16 H -0.076242 0.171734 0.209812
C18 C 0.1087(3) 0.1406(3) 0.20095(17)
H17 H 0.103793 0.085834 0.154278
C19 C 0.2221(3) 0.1704(2) 0.23612(15)
H18 H 0.295195 0.136522 0.213306
C20 C 0.2292(2) 0.2505(2) 0.30536(12)
H19 H 0.307353 0.270412 0.329107
loop_
_geom_bond_atom_site_label_1
_geom_bond_atom_site_label_2
_geom_bond_site_symmetry_1
_geom_bond_site_symmetry_2
O1 C2 1_555 1_555
O2 C13 1_555 1_555
O3 C13 1_555 1_555
N1 H1 1_555 1_555
C1 N1 1_555 1_555
C2 C1 1_555 1_555
C3 C2 1_555 1_555
C4 C3 1_555 1_555
H2 C4 1_555 1_555
C5 C4 1_555 1_555
C6 C5 1_555 1_555
H3 C6 1_555 1_555
C7 C6 1_555 1_555
H4 C7 1_555 1_555
C8 C7 1_555 1_555
H5 C8 1_555 1_555
C9 C8 1_555 1_555
H6 C9 1_555 1_555
C10 C1 1_555 1_555
C11 C1 1_555 1_555
H7 C11 1_555 1_555
H8 C11 1_555 1_555
H9 C11 1_555 1_555
C12 C3 1_555 1_555
H10 C12 1_555 1_555
H11 C12 1_555 1_555
H12 C12 1_555 1_555
C13 N1 1_555 1_555
C14 O3 1_555 1_555
H13 C14 1_555 1_555
H14 C14 1_555 1_555
C15 C14 1_555 1_555
C16 C15 1_555 1_555
H15 C16 1_555 1_555
C17 C16 1_555 1_555
H16 C17 1_555 1_555
C18 C17 1_555 1_555
H17 C18 1_555 1_555
C19 C18 1_555 1_555
H18 C19 1_555 1_555
C20 C15 1_555 1_555
H19 C20 1_555 1_555
C5 C10 1_555 1_555
C9 C10 1_555 1_555
C19 C20 1_555 1_555

#END
