
#######################################################################
#
#                 Cambridge Crystallographic Data Centre
#                                CCDC 
#
#######################################################################
#
# If this CIF has been generated from an entry in the Cambridge 
# Structural Database, then it will include bibliographic, chemical, 
# crystal, experimental, refinement or atomic coordinate data resulting 
# from the CCDC's data processing and validation procedures.
#
#######################################################################

data_BINDOS
_chemical_formula_moiety         'C17 H15 Cl3 O6'
_chemical_name_systematic        
'1,3,4-trichloro-7,7-dimethoxy-2-(2-carboxyphenyl)bicyclo[2.2.1]hept-2-ene-6-carboxylic acid'
_symmetry_cell_setting           monoclinic
_symmetry_space_group_name_H-M   'P 21/c'
_symmetry_Int_Tables_number      14
_space_group_name_Hall           '-P 2ybc'
loop_
_symmetry_equiv_pos_site_id
_symmetry_equiv_pos_as_xyz
1 x,y,z
2 -x,1/2+y,1/2-z
3 -x,-y,-z
4 x,1/2-y,1/2+z
_cell_length_a                   8.504(2)
_cell_length_b                   10.413(3)
_cell_length_c                   20.426(4)
_cell_angle_alpha                90
_cell_angle_beta                 95.79(2)
_cell_angle_gamma                90
_cell_volume                     1799.54
_exptl_crystal_colour            colorless
_chemical_melting_point          264-265deg.C(dec.)
_cell_formula_units_Z            4
_exptl_crystal_recrystallization_method EtOAc
loop_
_atom_site_label
_atom_site_type_symbol
_atom_site_fract_x
_atom_site_fract_y
_atom_site_fract_z
Cl1 Cl 0.0310(1) 0.3263(1) 0.3405(1)
Cl2 Cl -0.5995(1) 0.2257(1) 0.3409(1)
Cl3 Cl -0.4923(1) 0.0874(1) 0.2086(1)
O1 O -0.5308(2) 0.1661(2) 0.5244(1)
O2 O -0.0772(2) -0.0738(2) 0.4248(1)
O3 O -0.3682(2) 0.0757(2) 0.4587(1)
O4 O -0.0101(2) 0.1281(2) 0.4518(1)
O5 O -0.2394(2) 0.3468(1) 0.2333(1)
O6 O -0.1282(2) 0.1498(2) 0.2103(1)
C1 C -0.1381(3) 0.2267(2) 0.3274(1)
C2 C -0.2819(3) 0.2679(2) 0.3622(1)
C3 C -0.4046(3) 0.2164(2) 0.3266(1)
C4 C -0.3481(3) 0.1358(2) 0.2725(1)
C5 C -0.2577(3) 0.0194(2) 0.3055(1)
C6 C -0.1061(3) 0.0817(2) 0.3402(1)
C7 C -0.2098(3) 0.2213(2) 0.2536(1)
C8 C -0.2813(3) 0.3449(2) 0.4230(1)
C9 C -0.2205(3) 0.4688(2) 0.4234(1)
C10 C -0.2202(3) 0.5478(3) 0.4779(1)
C11 C -0.2852(3) 0.5053(3) 0.5329(1)
C12 C -0.3515(3) 0.3856(2) 0.5330(1)
C13 C -0.3494(3) 0.3033(2) 0.4792(1)
C14 C -0.4156(3) 0.1707(2) 0.4853(1)
C15 C -0.3186(3) 0.3652(2) 0.1688(1)
C16 C 0.0139(3) 0.2021(3) 0.1895(1)
C17 C -0.0623(3) 0.0475(3) 0.4115(1)
loop_
_geom_bond_atom_site_label_1
_geom_bond_atom_site_label_2
_geom_bond_site_symmetry_1
_geom_bond_site_symmetry_2
Cl1 C1 1_555 1_555
Cl2 C3 1_555 1_555
Cl3 C4 1_555 1_555
O1 C14 1_555 1_555
O2 C17 1_555 1_555
O3 C14 1_555 1_555
O4 C17 1_555 1_555
O5 C7 1_555 1_555
O6 C7 1_555 1_555
C1 C2 1_555 1_555
C2 C3 1_555 1_555
C3 C4 1_555 1_555
C4 C5 1_555 1_555
C5 C6 1_555 1_555
C6 C1 1_555 1_555
C7 C1 1_555 1_555
C8 C2 1_555 1_555
C9 C8 1_555 1_555
C10 C9 1_555 1_555
C11 C10 1_555 1_555
C12 C11 1_555 1_555
C13 C8 1_555 1_555
C14 C13 1_555 1_555
C15 O5 1_555 1_555
C16 O6 1_555 1_555
C17 C6 1_555 1_555
C4 C7 1_555 1_555
C12 C13 1_555 1_555

#END
