
#######################################################################
#
#                 Cambridge Crystallographic Data Centre
#                                CCDC 
#
#######################################################################
#
# If this CIF has been generated from an entry in the Cambridge 
# Structural Database, then it will include bibliographic, chemical, 
# crystal, experimental, refinement or atomic coordinate data resulting 
# from the CCDC's data processing and validation procedures.
#
#######################################################################

data_BINHEO
_chemical_formula_moiety         'C30 H25 N3 O4 S1'
_chemical_name_systematic        
N-benzyl-4-{5-[(2-nitrophenyl)methyl]-4-oxo-2,3,4,5-tetrahydro-1,5-benzothiazepin-2-yl}benzamide
_symmetry_cell_setting           triclinic
_symmetry_space_group_name_H-M   'P 1'
_symmetry_Int_Tables_number      1
_space_group_name_Hall           'P 1'
loop_
_symmetry_equiv_pos_site_id
_symmetry_equiv_pos_as_xyz
1 x,y,z
_cell_length_a                   6.014(3)
_cell_length_b                   8.236(4)
_cell_length_c                   26.340(13)
_cell_angle_alpha                94.127(6)
_cell_angle_beta                 93.176(6)
_cell_angle_gamma                95.222(7)
_cell_volume                     1293.35
_exptl_crystal_colour            colorless
_exptl_crystal_description       block
_cell_formula_units_Z            2
loop_
_atom_site_label
_atom_site_type_symbol
_atom_site_fract_x
_atom_site_fract_y
_atom_site_fract_z
S1 S 0.5386(3) 0.2011(2) 0.27322(7)
N1 N 1.0216(8) 0.1861(7) 0.31826(18)
N2 N 0.3284(10) 0.2386(7) -0.0166(2)
H1 H 0.453(8) 0.322(6) -0.009(2)
N3 N 1.2135(10) 0.1458(8) 0.4780(3)
O1 O 1.1264(9) 0.4315(7) 0.28993(19)
O2 O 0.1458(11) 0.0120(8) 0.0080(2)
O3 O 1.2917(11) 0.0530(9) 0.4475(2)
O4 O 1.2713(10) 0.1565(9) 0.5228(2)
C1 C 0.8837(11) 0.0370(8) 0.3129(2)
C2 C 0.6664(11) 0.0269(9) 0.2906(2)
C3 C 0.5343(15) -0.1245(12) 0.2870(3)
H2 H 0.3914 -0.1333 0.2710
C4 C 0.613(2) -0.2563(12) 0.3065(4)
H3 H 0.5211 -0.3539 0.3057
C5 C 0.830(2) -0.2460(11) 0.3277(3)
H4 H 0.8857 -0.3387 0.3397
C6 C 0.9627(14) -0.1036(10) 0.3312(2)
H5 H 1.1077 -0.0991 0.3458
C7 C 1.0328(10) 0.2935(9) 0.2817(2)
C8 C 0.9378(10) 0.2335(8) 0.2291(2)
H6 H 0.9423 0.1160 0.2243
H7 H 1.0282 0.2836 0.2040
C9 C 0.6986(11) 0.2748(8) 0.2212(2)
H8 H 0.7049 0.3944 0.2252
C10 C 0.5956(10) 0.2250(8) 0.1677(2)
C11 C 0.6834(12) 0.3007(9) 0.1278(3)
H9 H 0.8100 0.3747 0.1338
C12 C 0.5900(13) 0.2701(9) 0.0799(3)
H10 H 0.6550 0.3231 0.0536
C13 C 0.4017(11) 0.1628(8) 0.0687(2)
C14 C 0.3188(13) 0.0814(9) 0.1086(3)
H11 H 0.1947 0.0050 0.1024
C15 C 0.4157(12) 0.1106(8) 0.1574(2)
H12 H 0.3586 0.0524 0.1835
C16 C 0.2825(12) 0.1300(8) 0.0175(2)
C17 C 0.2272(13) 0.2198(10) -0.0684(3)
H13 H 0.1922 0.3262 -0.0783
H14 H 0.0874 0.1508 -0.0688
C18 C 0.3704(11) 0.1477(8) -0.1069(2)
C19 C 0.5571(13) 0.0702(9) -0.0952(3)
H15 H 0.6011 0.0609 -0.0612
C20 C 0.6798(15) 0.0061(12) -0.1327(4)
H16 H 0.8082 -0.0432 -0.1240
C21 C 0.6147(17) 0.0141(11) -0.1833(4)
H17 H 0.6973 -0.0305 -0.2087
C22 C 0.4311(18) 0.0867(12) -0.1956(3)
H18 H 0.3857 0.0914 -0.2297
C23 C 0.3071(14) 0.1552(9) -0.1579(3)
H19 H 0.1809 0.2064 -0.1671
C24 C 1.1431(11) 0.2366(10) 0.3678(2)
H20 H 1.2421 0.3344 0.3642
H21 H 1.2351 0.1511 0.3769
C25 C 0.9925(10) 0.2705(8) 0.4101(2)
C26 C 1.0305(11) 0.2356(7) 0.4611(2)
C27 C 0.8955(13) 0.2873(9) 0.4985(3)
H22 H 0.9279 0.2660 0.5322
C28 C 0.7175(14) 0.3682(9) 0.4867(3)
H23 H 0.6245 0.3989 0.5120
C29 C 0.6729(12) 0.4053(9) 0.4379(3)
H24 H 0.5530 0.4645 0.4298
C30 C 0.8091(11) 0.3533(8) 0.4002(3)
H25 H 0.7743 0.3757 0.3668
S2 S 1.2217(4) 0.4447(3) 0.73994(8)
N4 N 1.0504(10) 0.6352(7) 0.65176(19)
N5 N 0.8231(10) 0.7466(7) 1.00167(19)
H26 H 0.946(11) 0.820(8) 0.997(2)
N6 N 1.1998(11) 0.6513(7) 0.4894(3)
O5 O 1.2665(12) 0.8636(8) 0.6804(2)
O6 O 0.6195(11) 0.5141(7) 0.9754(2)
O7 O 1.3317(11) 0.5861(8) 0.5158(2)
O8 O 1.2072(11) 0.6483(8) 0.4432(2)
C31 C 0.9146(13) 0.4923(8) 0.6619(2)
C32 C 0.9749(14) 0.3939(9) 0.7003(2)
C33 C 0.837(2) 0.2568(10) 0.7063(3)
H27 H 0.8656 0.1982 0.7344
C34 C 0.662(2) 0.2019(11) 0.6739(4)
H28 H 0.5834 0.1010 0.6771
C35 C 0.6024(16) 0.2977(13) 0.6360(4)
H29 H 0.4766 0.2646 0.6143
C36 C 0.7257(14) 0.4411(10) 0.6298(3)
H30 H 0.6833 0.5053 0.6040
C37 C 1.1327(15) 0.7497(10) 0.6895(3)
C38 C 1.0381(14) 0.7394(9) 0.7406(3)
H31 H 0.8841 0.6916 0.7362
H32 H 1.0389 0.8487 0.7570
C39 C 1.1705(13) 0.6377(9) 0.7741(2)
H33 H 1.3176 0.6991 0.7814
C40 C 1.0708(12) 0.6203(9) 0.8252(2)
C41 C 1.1830(14) 0.6993(9) 0.8679(3)
H34 H 1.3234 0.7547 0.8655
C42 C 1.0886(12) 0.6972(9) 0.9148(2)
H35 H 1.1667 0.7510 0.9435
C43 C 0.8804(12) 0.6165(8) 0.9193(2)
C44 C 0.7734(13) 0.5336(9) 0.8759(3)
H36 H 0.6354 0.4747 0.8783
C45 C 0.8652(14) 0.5361(9) 0.8299(3)
H37 H 0.7883 0.4805 0.8013
C46 C 0.7652(12) 0.6183(9) 0.9678(2)
C47 C 0.7348(13) 0.7643(10) 1.0512(3)
H38 H 0.5929 0.6978 1.0505
H39 H 0.7059 0.8774 1.0582
C48 C 0.8864(12) 0.7163(8) 1.0942(2)
C49 C 1.0682(13) 0.6344(9) 1.0866(3)
H40 H 1.1050 0.6053 1.0535
C50 C 1.2007(15) 0.5932(11) 1.1278(4)
H41 H 1.3229 0.5344 1.1219
C51 C 1.1556(18) 0.6362(12) 1.1751(4)
H42 H 1.2493 0.6108 1.2021
C52 C 0.971(2) 0.7185(12) 1.1849(3)
H43 H 0.9375 0.7456 1.2183
C53 C 0.8366(15) 0.7603(10) 1.1443(3)
H44 H 0.7132 0.8177 1.1504
C54 C 1.1368(12) 0.6438(8) 0.6018(2)
H45 H 1.1426 0.5335 0.5866
H46 H 1.2885 0.6961 0.6055
C55 C 0.9990(11) 0.7368(7) 0.5660(2)
C56 C 1.0244(11) 0.7357(7) 0.5132(2)
C57 C 0.8873(14) 0.8106(8) 0.4810(3)
H47 H 0.9077 0.8045 0.4462
C58 C 0.7210(15) 0.8941(10) 0.5000(4)
H48 H 0.6251 0.9432 0.4782
C59 C 0.6960(15) 0.9050(9) 0.5516(4)
H49 H 0.5878 0.9662 0.5652
C60 C 0.8318(14) 0.8251(9) 0.5832(3)
H50 H 0.8092 0.8313 0.6179
loop_
_geom_bond_atom_site_label_1
_geom_bond_atom_site_label_2
_geom_bond_site_symmetry_1
_geom_bond_site_symmetry_2
S1 C2 1_555 1_555
N1 C1 1_555 1_555
N2 H1 1_555 1_555
N3 O3 1_555 1_555
O1 C7 1_555 1_555
O2 C16 1_555 1_555
O4 N3 1_555 1_555
C1 C2 1_555 1_555
C2 C3 1_555 1_555
C3 H2 1_555 1_555
C4 C3 1_555 1_555
H3 C4 1_555 1_555
C5 C4 1_555 1_555
H4 C5 1_555 1_555
C6 C1 1_555 1_555
H5 C6 1_555 1_555
C7 N1 1_555 1_555
C8 C7 1_555 1_555
H6 C8 1_555 1_555
H7 C8 1_555 1_555
C9 S1 1_555 1_555
H8 C9 1_555 1_555
C10 C9 1_555 1_555
C11 C10 1_555 1_555
H9 C11 1_555 1_555
C12 C11 1_555 1_555
H10 C12 1_555 1_555
C13 C12 1_555 1_555
C14 C13 1_555 1_555
H11 C14 1_555 1_555
C15 C10 1_555 1_555
H12 C15 1_555 1_555
C16 N2 1_555 1_555
C17 N2 1_555 1_555
H13 C17 1_555 1_555
H14 C17 1_555 1_555
C18 C17 1_555 1_555
C19 C18 1_555 1_555
H15 C19 1_555 1_555
C20 C19 1_555 1_555
H16 C20 1_555 1_555
C21 C20 1_555 1_555
H17 C21 1_555 1_555
C22 C21 1_555 1_555
H18 C22 1_555 1_555
C23 C18 1_555 1_555
H19 C23 1_555 1_555
C24 N1 1_555 1_555
H20 C24 1_555 1_555
H21 C24 1_555 1_555
C25 C24 1_555 1_555
C26 N3 1_555 1_555
C27 C26 1_555 1_555
H22 C27 1_555 1_555
C28 C27 1_555 1_555
H23 C28 1_555 1_555
C29 C28 1_555 1_555
H24 C29 1_555 1_555
C30 C25 1_555 1_555
H25 C30 1_555 1_555
S2 C32 1_555 1_555
N4 C31 1_555 1_555
N5 H26 1_555 1_555
N6 O7 1_555 1_555
O5 C37 1_555 1_555
O6 C46 1_555 1_555
O8 N6 1_555 1_555
C31 C32 1_555 1_555
C32 C33 1_555 1_555
C33 H27 1_555 1_555
C34 C33 1_555 1_555
H28 C34 1_555 1_555
C35 C34 1_555 1_555
H29 C35 1_555 1_555
C36 C31 1_555 1_555
H30 C36 1_555 1_555
C37 N4 1_555 1_555
C38 C37 1_555 1_555
H31 C38 1_555 1_555
H32 C38 1_555 1_555
C39 S2 1_555 1_555
H33 C39 1_555 1_555
C40 C39 1_555 1_555
C41 C40 1_555 1_555
H34 C41 1_555 1_555
C42 C41 1_555 1_555
H35 C42 1_555 1_555
C43 C42 1_555 1_555
C44 C43 1_555 1_555
H36 C44 1_555 1_555
C45 C40 1_555 1_555
H37 C45 1_555 1_555
C46 N5 1_555 1_555
C47 N5 1_555 1_555
H38 C47 1_555 1_555
H39 C47 1_555 1_555
C48 C47 1_555 1_555
C49 C48 1_555 1_555
H40 C49 1_555 1_555
C50 C49 1_555 1_555
H41 C50 1_555 1_555
C51 C50 1_555 1_555
H42 C51 1_555 1_555
C52 C51 1_555 1_555
H43 C52 1_555 1_555
C53 C48 1_555 1_555
H44 C53 1_555 1_555
C54 N4 1_555 1_555
H45 C54 1_555 1_555
H46 C54 1_555 1_555
C55 C54 1_555 1_555
C56 N6 1_555 1_555
C57 C56 1_555 1_555
H47 C57 1_555 1_555
C58 C57 1_555 1_555
H48 C58 1_555 1_555
C59 C58 1_555 1_555
H49 C59 1_555 1_555
C60 C55 1_555 1_555
H50 C60 1_555 1_555
C5 C6 1_555 1_555
C8 C9 1_555 1_555
C13 C16 1_555 1_555
C14 C15 1_555 1_555
C22 C23 1_555 1_555
C25 C26 1_555 1_555
C29 C30 1_555 1_555
C35 C36 1_555 1_555
C38 C39 1_555 1_555
C43 C46 1_555 1_555
C44 C45 1_555 1_555
C52 C53 1_555 1_555
C55 C56 1_555 1_555
C59 C60 1_555 1_555

#END
