
#######################################################################
#
#                 Cambridge Crystallographic Data Centre
#                                CCDC 
#
#######################################################################
#
# If this CIF has been generated from an entry in the Cambridge 
# Structural Database, then it will include bibliographic, chemical, 
# crystal, experimental, refinement or atomic coordinate data resulting 
# from the CCDC's data processing and validation procedures.
#
#######################################################################

data_BINJUG
_chemical_formula_moiety         'C25 H14 N4 O1 S1'
_chemical_name_systematic        
7-(10-phenyl-10H-phenoxazin-3-yl)-2,1,3-benzothiadiazole-4-carbonitrile
_symmetry_cell_setting           monoclinic
_symmetry_space_group_name_H-M   'P 21/c'
_symmetry_Int_Tables_number      14
_space_group_name_Hall           '-P 2ybc'
loop_
_symmetry_equiv_pos_site_id
_symmetry_equiv_pos_as_xyz
1 x,y,z
2 -x,1/2+y,1/2-z
3 -x,-y,-z
4 x,1/2-y,1/2+z
_cell_length_a                   17.804(2)
_cell_length_b                   9.2170(11)
_cell_length_c                   12.5258(17)
_cell_angle_alpha                90
_cell_angle_beta                 107.795(4)
_cell_angle_gamma                90
_cell_volume                     1957.14
_exptl_crystal_colour            red
_exptl_crystal_description       needle
_cell_formula_units_Z            4
loop_
_atom_site_label
_atom_site_type_symbol
_atom_site_fract_x
_atom_site_fract_y
_atom_site_fract_z
C1 C 0.51663(12) 0.1436(2) 0.61895(17)
C2 C 0.49514(12) 0.0293(2) 0.68040(17)
C3 C 0.42271(13) -0.0316(2) 0.63686(18)
H1 H 0.4081 -0.1079 0.6748
C4 C 0.36887(12) 0.0181(2) 0.53517(18)
H2 H 0.3201 -0.0277 0.5089
C5 C 0.38476(12) 0.1300(2) 0.47353(16)
C6 C 0.46224(12) 0.1929(2) 0.51582(17)
C7 C 0.32596(11) 0.1864(2) 0.37158(17)
C8 C 0.27276(12) 0.0958(2) 0.29606(18)
H3 H 0.2742 -0.0035 0.3095
C9 C 0.21773(12) 0.1511(2) 0.20125(18)
H4 H 0.1838 0.0883 0.1510
C10 C 0.21271(12) 0.2992(2) 0.18043(17)
C11 C 0.26403(12) 0.3899(2) 0.25906(17)
C12 C 0.32004(12) 0.3353(2) 0.35107(17)
H5 H 0.3546 0.3983 0.4005
C13 C 0.13392(14) 0.1960(3) -0.0725(2)
H6 H 0.1865 0.2039 -0.0702
C14 C 0.08287(17) 0.1070(3) -0.1512(2)
H7 H 0.1011 0.0549 -0.2019
C15 C 0.00543(18) 0.0961(4) -0.1541(2)
H8 H -0.0287 0.0354 -0.2061
C16 C -0.02168(16) 0.1742(4) -0.0806(3)
H9 H -0.0745 0.1679 -0.0838
C17 C 0.02897(14) 0.2624(3) -0.0018(2)
H10 H 0.0106 0.3149 0.0485
C18 C 0.10647(12) 0.2723(3) 0.00184(18)
C19 C 0.17493(12) 0.5056(2) 0.05790(18)
C20 C 0.14507(13) 0.5636(3) -0.04921(19)
H11 H 0.1117 0.5082 -0.1062
C21 C 0.16468(15) 0.7036(3) -0.0717(2)
H12 H 0.1435 0.7415 -0.1435
C22 C 0.21518(14) 0.7874(3) 0.0108(2)
H13 H 0.2285 0.8807 -0.0052
C23 C 0.24582(13) 0.7306(2) 0.1182(2)
H14 H 0.2799 0.7859 0.1747
C24 C 0.22560(12) 0.5925(2) 0.14044(18)
C25 C 0.55102(13) -0.0183(2) 0.78371(19)
N1 N 0.58612(10) 0.21294(18) 0.64725(15)
N2 N 0.49276(10) 0.29788(18) 0.46640(15)
N3 N 0.15834(10) 0.3635(2) 0.08604(15)
N4 N 0.59701(12) -0.0533(2) 0.86556(17)
O1 O 0.25727(9) 0.54036(15) 0.24927(12)
S1 S 0.58039(3) 0.32728(6) 0.54786(5)
loop_
_geom_bond_atom_site_label_1
_geom_bond_atom_site_label_2
_geom_bond_site_symmetry_1
_geom_bond_site_symmetry_2
C1 C2 1_555 1_555
C2 C3 1_555 1_555
C3 H1 1_555 1_555
C4 C3 1_555 1_555
H2 C4 1_555 1_555
C5 C4 1_555 1_555
C6 C1 1_555 1_555
C7 C5 1_555 1_555
C8 C7 1_555 1_555
H3 C8 1_555 1_555
C9 C8 1_555 1_555
H4 C9 1_555 1_555
C10 C9 1_555 1_555
C11 C10 1_555 1_555
C12 C7 1_555 1_555
H5 C12 1_555 1_555
C13 H6 1_555 1_555
C14 C13 1_555 1_555
H7 C14 1_555 1_555
C15 C14 1_555 1_555
H8 C15 1_555 1_555
C16 C15 1_555 1_555
H9 C16 1_555 1_555
C17 C16 1_555 1_555
H10 C17 1_555 1_555
C18 C13 1_555 1_555
C19 C20 1_555 1_555
C20 H11 1_555 1_555
C21 C20 1_555 1_555
H12 C21 1_555 1_555
C22 C21 1_555 1_555
H13 C22 1_555 1_555
C23 C22 1_555 1_555
H14 C23 1_555 1_555
C24 C19 1_555 1_555
C25 C2 1_555 1_555
N1 C1 1_555 1_555
N2 C6 1_555 1_555
N3 C10 1_555 1_555
N4 C25 1_555 1_555
O1 C11 1_555 1_555
S1 N1 1_555 1_555
C5 C6 1_555 1_555
C11 C12 1_555 1_555
C17 C18 1_555 1_555
C18 N3 1_555 1_555
C19 N3 1_555 1_555
C23 C24 1_555 1_555
C24 O1 1_555 1_555
N2 S1 1_555 1_555

#END
