
#######################################################################
#
#                 Cambridge Crystallographic Data Centre
#                                CCDC 
#
#######################################################################
#
# If this CIF has been generated from an entry in the Cambridge 
# Structural Database, then it will include bibliographic, chemical, 
# crystal, experimental, refinement or atomic coordinate data resulting 
# from the CCDC's data processing and validation procedures.
#
#######################################################################

data_BINJEQ
_chemical_formula_moiety         'C59 H52 N4 O2 S1,C2 H3 N1'
_chemical_name_systematic        
"3',6'-bis(diethylamino)-2-[({5-[4-(triphenylethenyl)phenyl]thiophen-2-yl}methylidene)amino]spiro[isoindole-1,9'-xanthen]-3(2H)-one acetonitrile solvate"
_symmetry_cell_setting           triclinic
_symmetry_space_group_name_H-M   'P -1'
_symmetry_Int_Tables_number      2
_space_group_name_Hall           '-P 1'
loop_
_symmetry_equiv_pos_site_id
_symmetry_equiv_pos_as_xyz
1 x,y,z
2 -x,-y,-z
_cell_length_a                   13.5619(9)
_cell_length_b                   13.7951(10)
_cell_length_c                   15.3779(11)
_cell_angle_alpha                110.309(2)
_cell_angle_beta                 101.188(2)
_cell_angle_gamma                97.849(2)
_cell_volume                     2581.06
_exptl_crystal_colour            yellow
_exptl_crystal_description       cuboid
_cell_formula_units_Z            2
_exptl_crystal_recrystallization_method acetonitrile
loop_
_atom_site_label
_atom_site_type_symbol
_atom_site_fract_x
_atom_site_fract_y
_atom_site_fract_z
S1 S 0.53204(6) 0.48495(6) 0.65531(5)
O1 O 0.82925(15) 0.62528(13) 0.84737(13)
O2 O 0.51759(14) 0.89538(16) 0.88572(14)
N1 N 0.60386(17) 0.70500(16) 0.80815(15)
N2 N 0.64858(15) 0.80369(16) 0.87888(15)
C1 C 0.81934(18) 0.79912(19) 0.84757(17)
C2 C 0.78288(19) 0.93713(19) 0.98991(17)
C3 C 0.6074(2) 0.8903(2) 0.91232(18)
C4 C 0.8075(2) 0.6548(2) 0.93597(18)
C5 C 0.6936(2) 0.9744(2) 0.98382(18)
C6 C 0.77894(19) 0.7489(2) 0.97758(18)
N3 N 0.9552(2) 0.7218(2) 0.61396(18)
C7 C 0.84259(19) 0.8702(2) 0.80454(19)
H1 H 0.8283 0.9370 0.8287
C8 C 0.84474(19) 0.70216(19) 0.80977(18)
C9 C 0.76189(18) 0.82122(19) 0.92428(17)
C10 C 0.8884(2) 0.6752(2) 0.73297(18)
H2 H 0.9035 0.6086 0.7099
C11 C 0.5140(2) 0.6891(2) 0.75374(19)
H3 H 0.4773 0.7425 0.7649
C12 C 0.4442(2) 0.2983(2) 0.49411(18)
C13 C 0.4363(2) 0.4056(2) 0.55229(18)
C14 C 0.8751(2) 1.0031(2) 1.04929(19)
H4 H 0.9355 0.9782 1.0541
C15 C 0.5865(2) -0.0177(2) 0.3204(2)
C16 C 0.4224(2) -0.1876(2) 0.1878(2)
C17 C 0.9100(2) 0.7464(2) 0.68954(19)
C18 C 0.8157(2) 0.5826(2) 0.9792(2)
H5 H 0.8347 0.5199 0.9481
C19 C 0.4631(2) 0.0948(2) 0.37918(19)
C20 C 0.3881(2) 0.1427(2) 0.34842(19)
H6 H 0.3424 0.1068 0.2881
C21 C 0.3789(2) 0.2417(2) 0.40394(19)
H7 H 0.3274 0.2710 0.3802
C22 C 0.4770(2) -0.0097(2) 0.3173(2)
C23 C 0.4700(2) 0.5884(2) 0.67523(19)
C24 C 0.8856(2) 0.8458(2) 0.72823(19)
H8 H 0.8988 0.8957 0.7016
C25 C 0.6929(2) 1.0774(2) 1.03857(19)
H9 H 0.6319 1.1012 1.0359
C26 C 0.2894(2) -0.1024(2) 0.2629(2)
C27 C 0.3996(2) -0.0939(2) 0.2607(2)
C28 C 0.8755(2) 1.1076(2) 1.1015(2)
H10 H 0.9373 1.1543 1.1402
C29 C 0.7613(2) 0.7693(2) 1.0675(2)
H11 H 0.7431 0.8326 1.0983
C30 C 0.3805(2) 0.5615(2) 0.6048(2)
H12 H 0.3364 0.6071 0.6029
C31 C 0.7848(2) 1.1435(2) 1.0970(2)
H13 H 0.7863 1.2135 1.1341
C32 C 0.3620(2) 0.4584(2) 0.5360(2)
H14 H 0.3041 0.4289 0.4839
N4 N 0.8018(3) 0.5310(2) 1.1124(2)
C33 C 0.7960(2) 0.6021(2) 1.0687(2)
C34 C 0.4627(2) -0.1764(3) 0.1148(2)
H15 H 0.4760 -0.1101 0.1113
C35 C 0.2111(3) -0.1454(2) 0.1776(3)
H16 H 0.2281 -0.1662 0.1190
C36 C 0.4034(2) -0.2869(2) 0.1915(2)
H17 H 0.3752 -0.2966 0.2391
C37 C 0.9919(3) 0.6246(2) 0.5820(2)
H18 H 0.9977 0.6086 0.5168
H19 H 0.9415 0.5669 0.5811
C38 C 0.7697(3) 0.6997(3) 1.1128(2)
H20 H 0.7579 0.7171 1.1734
C39 C 0.5211(3) 0.2516(3) 0.5250(2)
H21 H 0.5670 0.2877 0.5852
C40 C 0.6270(3) -0.0888(3) 0.3532(2)
H22 H 0.5861 -0.1307 0.3746
C41 C 0.6495(3) 0.0438(3) 0.2897(3)
H23 H 0.6242 0.0933 0.2687
C42 C 0.2608(3) -0.0739(2) 0.3490(3)
H24 H 0.3117 -0.0454 0.4068
C43 C 0.5311(3) 0.1530(2) 0.4684(2)
H25 H 0.5847 0.1250 0.4906
C44 C 0.8130(3) 0.4235(3) 1.0624(3)
H26 H 0.7827 0.4020 0.9942
H27 H 0.7749 0.3758 1.0842
C45 C 0.4264(3) -0.3730(3) 0.1237(3)
H28 H 0.4147 -0.4396 0.1268
C46 C 0.4832(3) -0.2618(3) 0.0474(3)
H29 H 0.5087 -0.2533 -0.0021
C47 C 0.4664(3) -0.3582(3) 0.0529(3)
H30 H 0.4821 -0.4151 0.0081
C48 C 0.7875(3) -0.0382(4) 0.3227(3)
H31 H 0.8548 -0.0455 0.3234
C49 C 0.0830(3) -0.1287(3) 0.2661(5)
H32 H 0.0141 -0.1378 0.2672
C50 C 0.7269(3) -0.0988(3) 0.3547(3)
H33 H 0.7532 -0.1467 0.3775
C51 C 0.1083(3) -0.1573(3) 0.1792(4)
H34 H 0.0567 -0.1844 0.1220
C52 C 0.1585(4) -0.0871(3) 0.3503(4)
H35 H 0.1409 -0.0676 0.4086
C53 C 0.9873(3) 0.7986(3) 0.5751(3)
H36 H 1.0080 0.8688 0.6258
H37 H 1.0467 0.7831 0.5507
C54 C 1.0942(3) 0.6305(3) 0.6444(3)
H38 H 1.1145 0.5643 0.6199
H39 H 1.1449 0.6864 0.6444
H40 H 1.0887 0.6447 0.7087
C55 C 0.7492(3) 0.0332(3) 0.2896(3)
H41 H 0.7901 0.0740 0.2673
C56 C 0.9208(3) 0.4125(4) 1.0773(3)
H42 H 0.9230 0.3404 1.0427
H43 H 0.9588 0.4582 1.0544
H44 H 0.9510 0.4320 1.1445
C57 C 0.7966(4) 0.5619(4) 1.2153(3)
H45 H 0.8335 0.5206 1.2443
H46 H 0.8292 0.6363 1.2513
C58 C 0.6896(4) 0.5433(5) 1.2194(4)
H47 H 0.6870 0.5632 1.2851
H48 H 0.6535 0.5849 1.1914
H49 H 0.6577 0.4695 1.1844
C59 C 0.9060(5) 0.7977(5) 0.4986(3)
H50 H 0.9299 0.8495 0.4745
H51 H 0.8863 0.7287 0.4478
H52 H 0.8476 0.8143 0.5228
C60 C 0.8274(6) 0.3683(4) 0.7251(5)
H53 H 0.7536 0.3511 0.7115
H54 H 0.8551 0.3174 0.7460
H55 H 0.8537 0.4378 0.7748
C61 C 0.8556(6) 0.3665(4) 0.6435(5)
N5 N 0.8964(11) 0.3708(6) 0.5964(8)
loop_
_geom_bond_atom_site_label_1
_geom_bond_atom_site_label_2
_geom_bond_site_symmetry_1
_geom_bond_site_symmetry_2
S1 C13 1_555 1_555
O1 C4 1_555 1_555
O2 C3 1_555 1_555
N1 N2 1_555 1_555
N2 C3 1_555 1_555
C1 C7 1_555 1_555
C2 C5 1_555 1_555
C3 C5 1_555 1_555
C4 C6 1_555 1_555
C5 C25 1_555 1_555
C6 C9 1_555 1_555
N3 C17 1_555 1_555
C7 H1 1_555 1_555
C8 O1 1_555 1_555
C9 N2 1_555 1_555
C10 C8 1_555 1_555
H2 C10 1_555 1_555
C11 N1 1_555 1_555
H3 C11 1_555 1_555
C12 C13 1_555 1_555
C13 C32 1_555 1_555
C14 C2 1_555 1_555
H4 C14 1_555 1_555
C15 C22 1_555 1_555
C16 C27 1_555 1_555
C17 C10 1_555 1_555
C18 C4 1_555 1_555
H5 C18 1_555 1_555
C19 C20 1_555 1_555
C20 H6 1_555 1_555
C21 C12 1_555 1_555
H7 C21 1_555 1_555
C22 C19 1_555 1_555
C23 S1 1_555 1_555
C24 C7 1_555 1_555
H8 C24 1_555 1_555
C25 H9 1_555 1_555
C26 C27 1_555 1_555
C27 C22 1_555 1_555
C28 C14 1_555 1_555
H10 C28 1_555 1_555
C29 C6 1_555 1_555
H11 C29 1_555 1_555
C30 C23 1_555 1_555
H12 C30 1_555 1_555
C31 C25 1_555 1_555
H13 C31 1_555 1_555
C32 C30 1_555 1_555
H14 C32 1_555 1_555
N4 C33 1_555 1_555
C33 C18 1_555 1_555
C34 C16 1_555 1_555
H15 C34 1_555 1_555
C35 C26 1_555 1_555
H16 C35 1_555 1_555
C36 C16 1_555 1_555
H17 C36 1_555 1_555
C37 N3 1_555 1_555
H18 C37 1_555 1_555
H19 C37 1_555 1_555
C38 C29 1_555 1_555
H20 C38 1_555 1_555
C39 C12 1_555 1_555
H21 C39 1_555 1_555
C40 C15 1_555 1_555
H22 C40 1_555 1_555
C41 C15 1_555 1_555
H23 C41 1_555 1_555
C42 C26 1_555 1_555
H24 C42 1_555 1_555
C43 C19 1_555 1_555
H25 C43 1_555 1_555
C44 N4 1_555 1_555
H26 C44 1_555 1_555
H27 C44 1_555 1_555
C45 C36 1_555 1_555
H28 C45 1_555 1_555
C46 C34 1_555 1_555
H29 C46 1_555 1_555
C47 C45 1_555 1_555
H30 C47 1_555 1_555
C48 H31 1_555 1_555
C49 H32 1_555 1_555
C50 C40 1_555 1_555
H33 C50 1_555 1_555
C51 C35 1_555 1_555
H34 C51 1_555 1_555
C52 C42 1_555 1_555
H35 C52 1_555 1_555
C53 N3 1_555 1_555
H36 C53 1_555 1_555
H37 C53 1_555 1_555
C54 C37 1_555 1_555
H38 C54 1_555 1_555
H39 C54 1_555 1_555
H40 C54 1_555 1_555
C55 C41 1_555 1_555
H41 C55 1_555 1_555
C56 C44 1_555 1_555
H42 C56 1_555 1_555
H43 C56 1_555 1_555
H44 C56 1_555 1_555
C57 N4 1_555 1_555
H45 C57 1_555 1_555
H46 C57 1_555 1_555
C58 C57 1_555 1_555
H47 C58 1_555 1_555
H48 C58 1_555 1_555
H49 C58 1_555 1_555
C59 C53 1_555 1_555
H50 C59 1_555 1_555
H51 C59 1_555 1_555
H52 C59 1_555 1_555
C60 H53 1_555 1_555
H54 C60 1_555 1_555
H55 C60 1_555 1_555
C61 C60 1_555 1_555
N5 C61 1_555 1_555
C1 C8 1_555 1_555
C1 C9 1_555 1_555
C2 C9 1_555 1_555
C11 C23 1_555 1_555
C17 C24 1_555 1_555
C20 C21 1_555 1_555
C28 C31 1_555 1_555
C33 C38 1_555 1_555
C39 C43 1_555 1_555
C46 C47 1_555 1_555
C48 C50 1_555 1_555
C48 C55 1_555 1_555
C49 C51 1_555 1_555
C49 C52 1_555 1_555

#END
