
#######################################################################
#
#                 Cambridge Crystallographic Data Centre
#                                CCDC 
#
#######################################################################
#
# If this CIF has been generated from an entry in the Cambridge 
# Structural Database, then it will include bibliographic, chemical, 
# crystal, experimental, refinement or atomic coordinate data resulting 
# from the CCDC's data processing and validation procedures.
#
#######################################################################

data_BINKAN
_chemical_formula_moiety         'C27 H20 N4 O2 S1,0.125(C2 H6 O2),0.25(H2 O1)'
_chemical_name_systematic        
'7-{4-[bis(4-methoxyphenyl)amino]phenyl}-2,1,3-benzothiadiazole-4-carbonitrile ethane-1,2-diol hydrate'
_symmetry_cell_setting           triclinic
_symmetry_space_group_name_H-M   'P -1'
_symmetry_Int_Tables_number      2
_space_group_name_Hall           '-P 1'
loop_
_symmetry_equiv_pos_site_id
_symmetry_equiv_pos_as_xyz
1 x,y,z
2 -x,-y,-z
_cell_length_a                   11.8289(11)
_cell_length_b                   20.0485(17)
_cell_length_c                   21.3871(18)
_cell_angle_alpha                105.379(3)
_cell_angle_beta                 102.037(4)
_cell_angle_gamma                99.001(4)
_cell_volume                     4660.7
_exptl_crystal_colour            red
_exptl_crystal_description       prism
_cell_formula_units_Z            8
loop_
_atom_site_label
_atom_site_type_symbol
_atom_site_fract_x
_atom_site_fract_y
_atom_site_fract_z
C1 C 0.9467(6) 0.5248(4) 0.4915(3)
O1 O 0.9311(5) 0.5311(3) 0.4410(3)
C1A C 1.0533(6) 0.4752(4) 0.5085(3)
O1A O 1.0689(5) 0.4689(3) 0.5590(3)
C2 C 1.6222(3) 1.06948(17) 0.86426(17)
C3 C 1.6406(3) 1.07327(17) 0.80110(18)
C4 C 1.5533(3) 1.03593(17) 0.74505(18)
H1 H 1.5627 1.0389 0.7037
C5 C 1.4486(3) 0.99278(17) 0.74680(16)
H2 H 1.3916 0.9685 0.7066
C6 C 1.4274(3) 0.98503(16) 0.80552(15)
C7 C 1.5169(3) 1.02599(16) 0.86622(16)
C8 C 1.3192(3) 0.93807(16) 0.80564(15)
C9 C 1.2603(3) 0.95289(16) 0.85604(15)
H3 H 1.2928 0.9936 0.8927
C10 C 1.1560(3) 0.90957(17) 0.85353(16)
H4 H 1.1174 0.9226 0.8870
C11 C 1.1077(3) 0.84602(16) 0.80084(15)
C12 C 1.1670(3) 0.83032(17) 0.75029(15)
H5 H 1.1367 0.7886 0.7146
C13 C 1.2685(3) 0.87524(17) 0.75260(15)
H6 H 1.3049 0.8637 0.7179
C14 C 1.0296(3) 0.80832(17) 0.91562(16)
H7 H 1.1106 0.8259 0.9241
C15 C 0.9830(3) 0.79953(18) 0.96795(16)
H8 H 1.0322 0.8133 1.0114
C16 C 0.8641(3) 0.77044(18) 0.95587(17)
C17 C 0.7930(3) 0.75134(18) 0.89156(17)
H9 H 0.7131 0.7304 0.8828
C18 C 0.8379(3) 0.76272(17) 0.83978(16)
H10 H 0.7874 0.7511 0.7970
C19 C 0.9580(3) 0.79145(16) 0.85096(15)
C20 C 0.9384(3) 0.75465(16) 0.72928(15)
C21 C 0.9368(3) 0.68298(17) 0.70976(16)
H11 H 0.9724 0.6625 0.7407
C22 C 0.8824(3) 0.64205(18) 0.64442(17)
H12 H 0.8819 0.5939 0.6312
C23 C 0.8282(3) 0.67206(19) 0.59795(16)
C24 C 0.8287(3) 0.74297(18) 0.61734(16)
H13 H 0.7926 0.7634 0.5865
C25 C 0.8836(3) 0.78415(17) 0.68347(16)
H14 H 0.8832 0.8322 0.6969
C26 C 0.7309(4) 0.6566(3) 0.48384(19)
H15 H 0.6979 0.6196 0.4418
H16 H 0.7933 0.6906 0.4795
H17 H 0.6700 0.6798 0.4961
C27 C 0.8801(4) 0.7770(2) 1.07051(19)
H18 H 0.8315 0.7660 1.0988
H19 H 0.9159 0.8269 1.0864
H20 H 0.9411 0.7505 1.0717
C28 C 1.7486(4) 1.11346(19) 0.7971(2)
N1 N 1.6968(3) 1.10431(15) 0.92536(15)
N2 N 1.5136(2) 1.02698(15) 0.92934(13)
N3 N 1.0024(2) 0.79938(14) 0.79549(12)
N4 N 1.8338(3) 1.14377(19) 0.79136(19)
O2 O 0.7774(3) 0.62687(14) 0.53440(12)
O3 O 0.8092(2) 0.75871(15) 1.00367(12)
S1 S 1.63341(9) 1.08036(5) 0.97832(5)
C29 C 1.1289(3) 1.05523(17) 0.69274(17)
C30 C 1.1426(3) 1.06581(17) 0.76289(16)
C31 C 1.0487(3) 1.03513(17) 0.78115(17)
H21 H 1.0546 1.0420 0.8266
C32 C 0.9436(3) 0.99355(17) 0.73399(16)
H22 H 0.8836 0.9731 0.7496
C33 C 0.9246(3) 0.98139(16) 0.66556(15)
C34 C 1.0213(3) 1.01436(17) 0.64541(16)
C35 C 0.8146(3) 0.93517(17) 0.61783(15)
C36 C 0.7084(3) 0.92778(18) 0.63662(16)
H23 H 0.7066 0.9556 0.6786
C37 C 0.6067(3) 0.88099(18) 0.59533(16)
H24 H 0.5373 0.8783 0.6093
C38 C 0.6060(3) 0.83687(17) 0.53201(16)
C39 C 0.7100(3) 0.84605(18) 0.51147(16)
H25 H 0.7114 0.8191 0.4690
C40 C 0.8105(3) 0.89422(18) 0.55292(16)
H26 H 0.8782 0.8999 0.5374
C41 C 0.4712(3) 0.73205(19) 0.57913(17)
H27 H 0.5528 0.7392 0.5956
C42 C 0.3967(3) 0.70311(19) 0.61157(17)
H28 H 0.4283 0.6924 0.6503
C43 C 0.2755(3) 0.69009(18) 0.58667(17)
C44 C 0.2311(3) 0.70485(19) 0.52758(17)
H29 H 0.1496 0.6937 0.5088
C45 C 0.3047(3) 0.73533(18) 0.49652(17)
H30 H 0.2726 0.7458 0.4577
C46 C 0.4265(3) 0.75085(18) 0.52214(15)
C47 C 0.4816(3) 0.76338(18) 0.42009(16)
C48 C 0.4429(3) 0.69267(18) 0.38244(17)
H31 H 0.4311 0.6583 0.4038
C49 C 0.4216(3) 0.67256(19) 0.31354(18)
H32 H 0.3917 0.6250 0.2885
C50 C 0.4444(3) 0.7225(2) 0.28144(16)
C51 C 0.4830(3) 0.79322(19) 0.31856(17)
H33 H 0.4978 0.8274 0.2974
C52 C 0.4997(3) 0.81317(19) 0.38716(17)
H34 H 0.5235 0.8611 0.4118
C53 C 0.4645(5) 0.7458(2) 0.1801(2)
H35 H 0.4470 0.7219 0.1327
H36 H 0.5485 0.7642 0.1978
H37 H 0.4245 0.7842 0.1875
C54 C 0.2383(4) 0.6463(3) 0.6751(2)
H38 H 0.1731 0.6286 0.6909
H39 H 0.2885 0.6880 0.7091
H40 H 0.2831 0.6106 0.6654
C55 C 1.2496(4) 1.10693(19) 0.81177(19)
N5 N 1.2102(3) 1.08286(15) 0.66561(14)
N6 N 1.0219(3) 1.01223(15) 0.58162(14)
N7 N 0.5044(3) 0.78509(15) 0.49177(13)
N8 N 1.3338(3) 1.14009(18) 0.85237(17)
O4 O 0.4250(3) 0.69677(14) 0.21313(12)
O5 O 0.1942(2) 0.66371(15) 0.61575(13)
S2 S 1.14935(9) 1.05786(5) 0.58606(5)
C56 C 0.6976(3) 0.89826(17) 0.85714(15)
C57 C 0.7811(3) 0.93758(16) 0.91916(16)
C58 C 0.7592(3) 0.92598(17) 0.97637(16)
H41 H 0.8135 0.9502 1.0176
C59 C 0.6564(3) 0.87824(17) 0.97406(16)
H42 H 0.6448 0.8731 1.0144
C60 C 0.5728(3) 0.83906(16) 0.91601(15)
C61 C 0.5950(3) 0.84953(16) 0.85536(15)
C62 C 0.4690(3) 0.78779(16) 0.91528(15)
C63 C 0.4741(3) 0.75349(17) 0.96430(16)
H43 H 0.5453 0.7618 0.9965
C64 C 0.3767(3) 0.70788(18) 0.96619(16)
H44 H 0.3832 0.6859 0.9996
C65 C 0.2683(3) 0.69378(17) 0.91918(16)
C66 C 0.2626(3) 0.72734(17) 0.86958(16)
H45 H 0.1916 0.7186 0.8371
C67 C 0.3604(3) 0.77302(17) 0.86813(15)
H46 H 0.3540 0.7949 0.8346
C68 C 0.1682(3) 0.69801(18) 1.03906(17)
H47 H 0.1856 0.7433 1.0349
C69 C 0.1531(3) 0.69033(19) 1.09965(17)
H48 H 0.1612 0.7303 1.1358
C70 C 0.1263(3) 0.62359(19) 1.10620(17)
C71 C 0.1181(4) 0.5657(2) 1.0527(2)
H49 H 0.1019 0.5205 1.0570
C72 C 0.1332(4) 0.57337(19) 0.99256(18)
H50 H 0.1268 0.5333 0.9568
C73 C 0.1577(3) 0.63966(18) 0.98495(16)
C74 C 0.0778(3) 0.60661(17) 0.86267(16)
C75 C -0.0396(3) 0.60474(19) 0.86055(17)
H51 H -0.0599 0.6326 0.8969
C76 C -0.1269(3) 0.5621(2) 0.80510(18)
H52 H -0.2060 0.5607 0.8048
C77 C -0.0996(3) 0.52114(17) 0.74974(17)
C78 C 0.0171(4) 0.52444(19) 0.75093(19)
H53 H 0.0375 0.4980 0.7138
C79 C 0.1045(3) 0.5668(2) 0.80687(19)
H54 H 0.1836 0.5686 0.8070
C80 C -0.1675(4) 0.4373(2) 0.6401(2)
H55 H -0.2402 0.4129 0.6063
H56 H -0.1273 0.4032 0.6534
H57 H -0.1179 0.4657 0.6222
C81 C 0.1094(4) 0.6684(3) 1.2176(2)
H58 H 0.0932 0.6518 1.2537
H59 H 0.0508 0.6936 1.2042
H60 H 0.1866 0.6996 1.2324
C82 C 0.8848(3) 0.98528(19) 0.92016(16)
N9 N 0.7085(3) 0.90095(15) 0.79599(13)
N10 N 0.5297(3) 0.81391(15) 0.79209(13)
N11 N 0.1689(3) 0.64802(15) 0.92190(13)
N12 N 0.9675(3) 1.02286(18) 0.91942(15)
O6 O -0.1929(2) 0.48156(15) 0.69665(13)
O7 O 0.1056(3) 0.60981(15) 1.16235(13)
S3 S 0.59546(9) 0.84335(5) 0.74295(4)
C83 C -0.1943(3) 0.11772(17) 0.47972(16)
C84 C -0.2763(3) 0.08098(17) 0.50595(16)
C85 C -0.2524(3) 0.09603(18) 0.57439(17)
H61 H -0.3034 0.0717 0.5928
C86 C -0.1524(3) 0.14742(18) 0.61716(17)
H62 H -0.1402 0.1558 0.6632
C87 C -0.0717(3) 0.18603(17) 0.59545(15)
C88 C -0.0927(3) 0.16930(17) 0.52344(15)
C89 C 0.0300(3) 0.24241(17) 0.64161(15)
C90 C 0.0652(3) 0.30595(17) 0.62933(16)
H63 H 0.0278 0.3120 0.5891
C91 C 0.1539(3) 0.36013(18) 0.67496(16)
H64 H 0.1751 0.4021 0.6652
C92 C 0.2126(3) 0.35293(18) 0.73595(16)
C93 C 0.1792(3) 0.28824(18) 0.74769(16)
H65 H 0.2191 0.2811 0.7869
C94 C 0.0883(3) 0.23494(18) 0.70245(16)
H66 H 0.0654 0.1933 0.7125
C95 C 0.3639(3) 0.46490(19) 0.76890(16)
C96 C 0.4091(3) 0.4538(2) 0.71321(17)
H67 H 0.3959 0.4079 0.6844
C97 C 0.4739(3) 0.5098(2) 0.69952(17)
H68 H 0.5038 0.5013 0.6619
C98 C 0.4935(3) 0.57782(19) 0.74176(17)
C99 C 0.4492(3) 0.58981(19) 0.79782(17)
H69 H 0.4620 0.6358 0.8264
C100 C 0.3866(3) 0.53394(18) 0.81128(16)
H70 H 0.3587 0.5426 0.8496
C101 C 0.3232(3) 0.40957(17) 0.85315(15)
C102 C 0.4361(3) 0.41094(18) 0.88828(16)
H71 H 0.4968 0.4099 0.8668
C103 C 0.4594(3) 0.41388(18) 0.95463(17)
H72 H 0.5358 0.4152 0.9780
C104 C 0.3695(3) 0.41495(18) 0.98661(16)
C105 C 0.2566(3) 0.41328(19) 0.95210(17)
H73 H 0.1956 0.4134 0.9734
C106 C 0.2345(3) 0.41136(19) 0.88532(17)
H74 H 0.1586 0.4113 0.8621
C107 C 0.3152(4) 0.4292(3) 1.0891(2)
H75 H 0.3474 0.4314 1.1348
H76 H 0.2471 0.3903 1.0688
H77 H 0.2922 0.4728 1.0879
C108 C 0.6211(4) 0.6255(2) 0.6842(2)
H78 H 0.6616 0.6703 0.6828
H79 H 0.5672 0.5999 0.6411
H80 H 0.6779 0.5984 0.6953
C109 C -0.3794(3) 0.03070(18) 0.46104(18)
N13 N -0.2028(3) 0.10876(14) 0.41388(13)
N14 N -0.0239(2) 0.19760(14) 0.49034(13)
N15 N 0.3001(3) 0.40738(15) 0.78375(13)
N16 N -0.4614(3) -0.00890(17) 0.42306(17)
O8 O 0.4021(2) 0.41880(15) 1.05305(11)
O9 O 0.5574(2) 0.63731(14) 0.73328(13)
S4 S -0.08803(8) 0.16195(5) 0.41145(4)
O10 O 0.4434(6) 0.5300(3) 0.4877(3)
loop_
_geom_bond_atom_site_label_1
_geom_bond_atom_site_label_2
_geom_bond_site_symmetry_1
_geom_bond_site_symmetry_2
C1 O1 1_555 1_555
C2 C3 1_555 1_555
C3 C4 1_555 1_555
C4 H1 1_555 1_555
C5 C4 1_555 1_555
H2 C5 1_555 1_555
C6 C5 1_555 1_555
C7 C2 1_555 1_555
C8 C6 1_555 1_555
C9 C8 1_555 1_555
H3 C9 1_555 1_555
C10 C9 1_555 1_555
H4 C10 1_555 1_555
C11 C10 1_555 1_555
C12 C11 1_555 1_555
H5 C12 1_555 1_555
C13 C8 1_555 1_555
H6 C13 1_555 1_555
C14 H7 1_555 1_555
C15 C14 1_555 1_555
H8 C15 1_555 1_555
C16 C15 1_555 1_555
C17 C16 1_555 1_555
H9 C17 1_555 1_555
C18 C17 1_555 1_555
H10 C18 1_555 1_555
C19 C14 1_555 1_555
C20 C21 1_555 1_555
C21 H11 1_555 1_555
C22 C21 1_555 1_555
H12 C22 1_555 1_555
C23 C22 1_555 1_555
C24 C23 1_555 1_555
H13 C24 1_555 1_555
C25 C20 1_555 1_555
H14 C25 1_555 1_555
C26 H15 1_555 1_555
H16 C26 1_555 1_555
H17 C26 1_555 1_555
C27 H18 1_555 1_555
H19 C27 1_555 1_555
H20 C27 1_555 1_555
C28 C3 1_555 1_555
N1 C2 1_555 1_555
N2 C7 1_555 1_555
N3 C11 1_555 1_555
N4 C28 1_555 1_555
O2 C23 1_555 1_555
O3 C16 1_555 1_555
S1 N1 1_555 1_555
C29 C30 1_555 1_555
C30 C31 1_555 1_555
C31 H21 1_555 1_555
C32 C31 1_555 1_555
H22 C32 1_555 1_555
C33 C32 1_555 1_555
C34 C29 1_555 1_555
C35 C33 1_555 1_555
C36 C35 1_555 1_555
H23 C36 1_555 1_555
C37 C36 1_555 1_555
H24 C37 1_555 1_555
C38 C37 1_555 1_555
C39 C38 1_555 1_555
H25 C39 1_555 1_555
C40 C35 1_555 1_555
H26 C40 1_555 1_555
C41 H27 1_555 1_555
C42 C41 1_555 1_555
H28 C42 1_555 1_555
C43 C42 1_555 1_555
C44 C43 1_555 1_555
H29 C44 1_555 1_555
C45 C44 1_555 1_555
H30 C45 1_555 1_555
C46 C41 1_555 1_555
C47 C48 1_555 1_555
C48 H31 1_555 1_555
C49 C48 1_555 1_555
H32 C49 1_555 1_555
C50 C49 1_555 1_555
C51 C50 1_555 1_555
H33 C51 1_555 1_555
C52 C47 1_555 1_555
H34 C52 1_555 1_555
C53 H35 1_555 1_555
H36 C53 1_555 1_555
H37 C53 1_555 1_555
C54 H38 1_555 1_555
H39 C54 1_555 1_555
H40 C54 1_555 1_555
C55 C30 1_555 1_555
N5 C29 1_555 1_555
N6 C34 1_555 1_555
N7 C38 1_555 1_555
N8 C55 1_555 1_555
O4 C50 1_555 1_555
O5 C43 1_555 1_555
S2 N5 1_555 1_555
C56 C57 1_555 1_555
C57 C58 1_555 1_555
C58 H41 1_555 1_555
C59 C58 1_555 1_555
H42 C59 1_555 1_555
C60 C59 1_555 1_555
C61 C56 1_555 1_555
C62 C60 1_555 1_555
C63 C62 1_555 1_555
H43 C63 1_555 1_555
C64 C63 1_555 1_555
H44 C64 1_555 1_555
C65 C64 1_555 1_555
C66 C65 1_555 1_555
H45 C66 1_555 1_555
C67 C62 1_555 1_555
H46 C67 1_555 1_555
C68 H47 1_555 1_555
C69 C68 1_555 1_555
H48 C69 1_555 1_555
C70 C69 1_555 1_555
C71 C70 1_555 1_555
H49 C71 1_555 1_555
C72 C71 1_555 1_555
H50 C72 1_555 1_555
C73 C68 1_555 1_555
C74 C75 1_555 1_555
C75 H51 1_555 1_555
C76 C75 1_555 1_555
H52 C76 1_555 1_555
C77 C76 1_555 1_555
C78 C77 1_555 1_555
H53 C78 1_555 1_555
C79 C74 1_555 1_555
H54 C79 1_555 1_555
C80 H55 1_555 1_555
H56 C80 1_555 1_555
H57 C80 1_555 1_555
C81 H58 1_555 1_555
H59 C81 1_555 1_555
H60 C81 1_555 1_555
C82 C57 1_555 1_555
N9 C56 1_555 1_555
N10 C61 1_555 1_555
N11 C65 1_555 1_555
N12 C82 1_555 1_555
O6 C77 1_555 1_555
O7 C70 1_555 1_555
S3 N9 1_555 1_555
C83 C84 1_555 1_555
C84 C85 1_555 1_555
C85 H61 1_555 1_555
C86 C85 1_555 1_555
H62 C86 1_555 1_555
C87 C86 1_555 1_555
C88 C83 1_555 1_555
C89 C87 1_555 1_555
C90 C89 1_555 1_555
H63 C90 1_555 1_555
C91 C90 1_555 1_555
H64 C91 1_555 1_555
C92 C91 1_555 1_555
C93 C92 1_555 1_555
H65 C93 1_555 1_555
C94 C89 1_555 1_555
H66 C94 1_555 1_555
C95 C96 1_555 1_555
C96 H67 1_555 1_555
C97 C96 1_555 1_555
H68 C97 1_555 1_555
C98 C97 1_555 1_555
C99 C98 1_555 1_555
H69 C99 1_555 1_555
C100 C95 1_555 1_555
H70 C100 1_555 1_555
C101 C102 1_555 1_555
C102 H71 1_555 1_555
C103 C102 1_555 1_555
H72 C103 1_555 1_555
C104 C103 1_555 1_555
C105 C104 1_555 1_555
H73 C105 1_555 1_555
C106 C101 1_555 1_555
H74 C106 1_555 1_555
C107 H75 1_555 1_555
H76 C107 1_555 1_555
H77 C107 1_555 1_555
C108 H78 1_555 1_555
H79 C108 1_555 1_555
H80 C108 1_555 1_555
C109 C84 1_555 1_555
N13 C83 1_555 1_555
N14 C88 1_555 1_555
N15 C92 1_555 1_555
N16 C109 1_555 1_555
O8 C104 1_555 1_555
O9 C98 1_555 1_555
S4 N13 1_555 1_555
C1A C1 1_555 1_555
O1A C1A 1_555 1_555
C6 C7 1_555 1_555
C12 C13 1_555 1_555
C18 C19 1_555 1_555
C19 N3 1_555 1_555
C20 N3 1_555 1_555
C24 C25 1_555 1_555
C26 O2 1_555 1_555
C27 O3 1_555 1_555
N2 S1 1_555 1_555
C33 C34 1_555 1_555
C39 C40 1_555 1_555
C45 C46 1_555 1_555
C46 N7 1_555 1_555
C47 N7 1_555 1_555
C51 C52 1_555 1_555
C53 O4 1_555 1_555
C54 O5 1_555 1_555
N6 S2 1_555 1_555
C60 C61 1_555 1_555
C66 C67 1_555 1_555
C72 C73 1_555 1_555
C73 N11 1_555 1_555
C74 N11 1_555 1_555
C78 C79 1_555 1_555
C80 O6 1_555 1_555
C81 O7 1_555 1_555
N10 S3 1_555 1_555
C87 C88 1_555 1_555
C93 C94 1_555 1_555
C95 N15 1_555 1_555
C99 C100 1_555 1_555
C101 N15 1_555 1_555
C105 C106 1_555 1_555
C107 O8 1_555 1_555
C108 O9 1_555 1_555
N14 S4 1_555 1_555

#END
