
#######################################################################
#
#                 Cambridge Crystallographic Data Centre
#                                CCDC 
#
#######################################################################
#
# If this CIF has been generated from an entry in the Cambridge 
# Structural Database, then it will include bibliographic, chemical, 
# crystal, experimental, refinement or atomic coordinate data resulting 
# from the CCDC's data processing and validation procedures.
#
#######################################################################

data_BINQUN
_chemical_formula_moiety         'C21 H19 N3,C4 H8 O2'
_chemical_name_systematic        
"6-butyl-7,12-dihydropyrido[3,2-b:5,4-b']diindole ethyl acetate solvate"
_symmetry_cell_setting           monoclinic
_symmetry_space_group_name_H-M   'P 21/c'
_symmetry_Int_Tables_number      14
_space_group_name_Hall           '-P 2ybc'
loop_
_symmetry_equiv_pos_site_id
_symmetry_equiv_pos_as_xyz
1 x,y,z
2 -x,1/2+y,1/2-z
3 -x,-y,-z
4 x,1/2-y,1/2+z
_cell_length_a                   10.389(3)
_cell_length_b                   19.5500(10)
_cell_length_c                   12.0030(9)
_cell_angle_alpha                90
_cell_angle_beta                 114.82(2)
_cell_angle_gamma                90
_cell_volume                     2212.69
_exptl_crystal_colour            'light yellow'
_exptl_crystal_description       block
_cell_formula_units_Z            4
loop_
_atom_site_label
_atom_site_type_symbol
_atom_site_fract_x
_atom_site_fract_y
_atom_site_fract_z
N1 N 0.4080(3) 0.08042(13) 0.0260(2)
H1 H 0.3637 0.0580 -0.0410
N2 N 0.6309(3) 0.21465(13) -0.0132(2)
N3 N 0.7189(3) 0.24516(12) 0.3020(2)
H2 H 0.7141 0.2372 0.3706
C1 C 0.4004(4) 0.06812(17) 0.1363(3)
C2 C 0.3282(4) 0.01704(18) 0.1669(4)
H3 H 0.2737 -0.0150 0.1091
C3 C 0.3396(5) 0.0153(2) 0.2836(4)
H4 H 0.2916 -0.0185 0.3055
C4 C 0.4206(4) 0.06238(19) 0.3710(4)
H5 H 0.4255 0.0597 0.4501
C5 C 0.4938(4) 0.11304(17) 0.3430(3)
H6 H 0.5470 0.1450 0.4015
C6 C 0.4860(3) 0.11509(15) 0.2244(3)
C7 C 0.5493(3) 0.15751(15) 0.1623(3)
C8 C 0.4983(3) 0.13458(15) 0.0409(3)
C9 C 0.5377(4) 0.16419(16) -0.0462(3)
C10 C 0.6843(3) 0.23710(15) 0.1034(3)
C11 C 0.6447(3) 0.21108(15) 0.1937(3)
C12 C 0.8021(3) 0.29413(16) 0.2825(3)
C13 C 0.7863(3) 0.28953(15) 0.1609(3)
C14 C 0.8665(4) 0.33233(17) 0.1222(3)
H7 H 0.8577 0.3304 0.0419
C15 C 0.9588(4) 0.37742(18) 0.2049(4)
H8 H 1.0142 0.4057 0.1804
C16 C 0.9710(4) 0.38160(19) 0.3245(4)
H9 H 1.0328 0.4133 0.3783
C17 C 0.8938(4) 0.34000(17) 0.3640(3)
H10 H 0.9029 0.3425 0.4444
C18 C 0.4713(4) 0.14420(17) -0.1796(3)
H11 H 0.4312 0.0987 -0.1877
H12 H 0.5438 0.1430 -0.2105
C19 C 0.3553(4) 0.19422(19) -0.2561(3)
H13 H 0.2733 0.1871 -0.2385
H14 H 0.3889 0.2405 -0.2312
C20 C 0.3100(5) 0.1877(2) -0.3920(4)
H15 H 0.2690 0.1428 -0.4187
H16 H 0.3925 0.1918 -0.4098
C21 C 0.2030(6) 0.2416(3) -0.4626(4)
H17 H 0.1769 0.2360 -0.5488
H18 H 0.2438 0.2862 -0.4372
H19 H 0.1203 0.2371 -0.4466
C22 C 0.7852(5) 0.0084(2) 0.3941(4)
H20 H 0.7136 -0.0265 0.3702
H21 H 0.7529 0.0478 0.4229
H22 H 0.8708 -0.0086 0.4585
C23 C 0.8135(5) 0.0279(2) 0.2865(5)
C24 C 0.9490(8) 0.0932(3) 0.2095(6)
H23 H 0.9843 0.0530 0.1839
H24 H 0.8655 0.1093 0.1399
C25 C 1.0497(8) 0.1426(4) 0.2454(6)
H25 H 1.0740 0.1536 0.1787
H26 H 1.1325 0.1265 0.3139
H27 H 1.0139 0.1827 0.2690
O1 O 0.9100(4) 0.07467(17) 0.3123(3)
O2 O 0.7559(3) 0.00319(15) 0.1850(3)
loop_
_geom_bond_atom_site_label_1
_geom_bond_atom_site_label_2
_geom_bond_site_symmetry_1
_geom_bond_site_symmetry_2
N1 H1 1_555 1_555
N2 C9 1_555 1_555
N3 H2 1_555 1_555
C1 N1 1_555 1_555
C2 C1 1_555 1_555
H3 C2 1_555 1_555
C3 C2 1_555 1_555
H4 C3 1_555 1_555
C4 C3 1_555 1_555
H5 C4 1_555 1_555
C5 C4 1_555 1_555
H6 C5 1_555 1_555
C6 C1 1_555 1_555
C7 C6 1_555 1_555
C8 N1 1_555 1_555
C9 C8 1_555 1_555
C10 N2 1_555 1_555
C11 N3 1_555 1_555
C12 N3 1_555 1_555
C13 C10 1_555 1_555
C14 C13 1_555 1_555
H7 C14 1_555 1_555
C15 C14 1_555 1_555
H8 C15 1_555 1_555
C16 C15 1_555 1_555
H9 C16 1_555 1_555
C17 C12 1_555 1_555
H10 C17 1_555 1_555
C18 C9 1_555 1_555
H11 C18 1_555 1_555
H12 C18 1_555 1_555
C19 C18 1_555 1_555
H13 C19 1_555 1_555
H14 C19 1_555 1_555
C20 C19 1_555 1_555
H15 C20 1_555 1_555
H16 C20 1_555 1_555
C21 C20 1_555 1_555
H17 C21 1_555 1_555
H18 C21 1_555 1_555
H19 C21 1_555 1_555
C22 H20 1_555 1_555
H21 C22 1_555 1_555
H22 C22 1_555 1_555
C23 C22 1_555 1_555
C24 H23 1_555 1_555
H24 C24 1_555 1_555
C25 C24 1_555 1_555
H25 C25 1_555 1_555
H26 C25 1_555 1_555
H27 C25 1_555 1_555
O1 C23 1_555 1_555
O2 C23 1_555 1_555
C5 C6 1_555 1_555
C7 C8 1_555 1_555
C7 C11 1_555 1_555
C10 C11 1_555 1_555
C12 C13 1_555 1_555
C16 C17 1_555 1_555
C24 O1 1_555 1_555

#END
