
#######################################################################
#
#                 Cambridge Crystallographic Data Centre
#                                CCDC 
#
#######################################################################
#
# If this CIF has been generated from an entry in the Cambridge 
# Structural Database, then it will include bibliographic, chemical, 
# crystal, experimental, refinement or atomic coordinate data resulting 
# from the CCDC's data processing and validation procedures.
#
#######################################################################

data_BIPDIP
_chemical_formula_moiety         'C26 H20 Br1 N3 O2,C3 H8 O1'
_chemical_name_systematic        
"8-(2-Bromophenyl)-1,3-diphenyl-1,4a,5,7,7a,8-hexahydro-6H-pyrrolo[2',3':5,6]pyrano[3,2-c]pyrazol-6-one propan-2-ol solvate"
_symmetry_cell_setting           monoclinic
_symmetry_space_group_name_H-M   'P 21/c'
_symmetry_Int_Tables_number      14
_space_group_name_Hall           '-P 2ybc'
loop_
_symmetry_equiv_pos_site_id
_symmetry_equiv_pos_as_xyz
1 x,y,z
2 -x,1/2+y,1/2-z
3 -x,-y,-z
4 x,1/2-y,1/2+z
_cell_length_a                   11.978(7)
_cell_length_b                   21.654(13)
_cell_length_c                   10.197(6)
_cell_angle_alpha                90
_cell_angle_beta                 95.785(6)
_cell_angle_gamma                90
_cell_volume                     2631.34
_exptl_crystal_colour            colorless
_exptl_crystal_description       block
_cell_formula_units_Z            4
loop_
_atom_site_label
_atom_site_type_symbol
_atom_site_fract_x
_atom_site_fract_y
_atom_site_fract_z
Br1 Br 0.91945(5) 1.08952(3) 0.92015(8)
O1 O 0.6317(2) 0.95930(13) 0.4942(3)
N1 N 0.6765(3) 0.8841(2) 0.8012(4)
N2 N 0.8627(3) 1.01109(17) 0.5534(4)
N3 N 0.6096(3) 0.84424(16) 0.7305(4)
C1 C 0.7578(3) 0.99657(18) 0.7517(4)
H1 H 0.8342 0.9871 0.7904
O2 O 0.9125(3) 1.01071(17) 0.3421(3)
C2 C 0.5883(3) 0.87007(16) 0.6085(3)
C3 C 0.5216(4) 0.8428(2) 0.3837(5)
H2 H 0.5837 0.8620 0.3536
C4 C 0.7029(4) 1.03779(19) 0.8480(4)
C5 C 0.6404(3) 0.9251(2) 0.6053(4)
C6 C 0.7142(3) 0.8678(2) 0.9396(4)
C7 C 0.7636(4) 1.0798(2) 0.9305(5)
C8 C 0.7792(4) 0.9070(2) 1.0224(5)
H3 H 0.8030 0.9443 0.9898
C9 C 0.7662(3) 1.0310(2) 0.6211(4)
H4 H 0.7747 1.0751 0.6407
C10 C 0.5090(4) 0.84157(19) 0.5162(4)
C11 C 0.6978(3) 0.93709(19) 0.7240(4)
C12 C 0.3380(4) 0.7855(2) 0.4713(6)
H5 H 0.2757 0.7664 0.5010
C13 C 0.6688(4) 1.0231(2) 0.5124(5)
H6 H 0.6062 1.0510 0.5247
C14 C 0.4179(4) 0.8124(2) 0.5594(5)
H7 H 0.4102 0.8107 0.6492
C15 C 0.8435(4) 1.0183(2) 0.4215(5)
C16 C 0.6819(4) 0.8121(2) 0.9902(5)
H8 H 0.6390 0.7846 0.9362
C17 C 0.4413(5) 0.8154(2) 0.2957(5)
H9 H 0.4493 0.8161 0.2059
C18 C 0.8094(4) 0.8919(3) 1.1514(5)
H10 H 0.8520 0.9192 1.2063
C19 C 0.7229(4) 1.0380(2) 0.3885(5)
H11 H 0.6878 1.0151 0.3136
H12 H 0.7181 1.0818 0.3689
C20 C 0.7125(5) 0.7971(3) 1.1187(5)
H13 H 0.6894 0.7597 1.1516
C21 C 0.5881(4) 1.0351(2) 0.8587(5)
H14 H 0.5444 1.0079 0.8050
C22 C 0.5375(4) 1.0713(2) 0.9454(5)
H15 H 0.4602 1.0694 0.9480
C23 C 0.7762(5) 0.8361(3) 1.1994(5)
H16 H 0.7973 0.8252 1.2865
C24 C 0.6007(5) 1.1102(2) 1.0284(5)
H17 H 0.5669 1.1333 1.0904
C25 C 0.3505(5) 0.7872(2) 0.3399(6)
H18 H 0.2967 0.7689 0.2800
C26 C 0.7133(5) 1.1153(3) 1.0203(5)
H19 H 0.7560 1.1425 1.0752
O3 O 1.1359(6) 0.8170(4) 0.6790(7)
C27 C 1.0373(8) 0.8184(5) 0.6562(12)
H20 H 1.0276 0.7734 0.6539
C28 C 0.9845(15) 0.8289(10) 0.5238(15)
H21 H 1.0162 0.8651 0.4877
H22 H 0.9053 0.8347 0.5264
H23 H 0.9971 0.7938 0.4695
C29 C 0.9643(11) 0.8284(8) 0.7445(15)
H24 H 0.9639 0.7935 0.8026
H25 H 0.8906 0.8341 0.6997
H26 H 0.9859 0.8647 0.7947
loop_
_geom_bond_atom_site_label_1
_geom_bond_atom_site_label_2
_geom_bond_site_symmetry_1
_geom_bond_site_symmetry_2
Br1 C7 1_555 1_555
O1 C5 1_555 1_555
N1 N3 1_555 1_555
N2 C9 1_555 1_555
N3 C2 1_555 1_555
C1 H1 1_555 1_555
O2 C15 1_555 1_555
C2 C5 1_555 1_555
C3 H2 1_555 1_555
C4 C1 1_555 1_555
C5 C11 1_555 1_555
C6 N1 1_555 1_555
C7 C4 1_555 1_555
C8 C6 1_555 1_555
H3 C8 1_555 1_555
C9 C1 1_555 1_555
H4 C9 1_555 1_555
C10 C2 1_555 1_555
C11 N1 1_555 1_555
C12 H5 1_555 1_555
C13 O1 1_555 1_555
H6 C13 1_555 1_555
C14 C10 1_555 1_555
H7 C14 1_555 1_555
C15 N2 1_555 1_555
C16 C6 1_555 1_555
H8 C16 1_555 1_555
C17 C3 1_555 1_555
H9 C17 1_555 1_555
C18 C8 1_555 1_555
H10 C18 1_555 1_555
C19 C13 1_555 1_555
H11 C19 1_555 1_555
H12 C19 1_555 1_555
C20 C16 1_555 1_555
H13 C20 1_555 1_555
C21 C4 1_555 1_555
H14 C21 1_555 1_555
C22 C21 1_555 1_555
H15 C22 1_555 1_555
C23 C18 1_555 1_555
H16 C23 1_555 1_555
C24 C22 1_555 1_555
H17 C24 1_555 1_555
C25 C12 1_555 1_555
H18 C25 1_555 1_555
C26 C7 1_555 1_555
H19 C26 1_555 1_555
O3 C27 1_555 1_555
C27 H20 1_555 1_555
C28 C27 1_555 1_555
H21 C28 1_555 1_555
H22 C28 1_555 1_555
H23 C28 1_555 1_555
C29 C27 1_555 1_555
H24 C29 1_555 1_555
H25 C29 1_555 1_555
H26 C29 1_555 1_555
C1 C11 1_555 1_555
C3 C10 1_555 1_555
C9 C13 1_555 1_555
C12 C14 1_555 1_555
C15 C19 1_555 1_555
C17 C25 1_555 1_555
C20 C23 1_555 1_555
C24 C26 1_555 1_555

#END
