
#######################################################################
#
#                 Cambridge Crystallographic Data Centre
#                                CCDC 
#
#######################################################################
#
# If this CIF has been generated from an entry in the Cambridge 
# Structural Database, then it will include bibliographic, chemical, 
# crystal, experimental, refinement or atomic coordinate data resulting 
# from the CCDC's data processing and validation procedures.
#
#######################################################################

data_BIPHUD10
_chemical_formula_moiety         
'C8 H18 N1 O1 1+,C12 H2 Br2 N4 1-,C12 H2 Br2 N4'
_chemical_name_systematic        
'4,4-Diethylmorpholinium bis(2,5-dibromo-7,7,8,8-tetracyanoquinodimethane)'
_symmetry_cell_setting           orthorhombic
_symmetry_space_group_name_H-M   'P c a 21'
_symmetry_Int_Tables_number      29
_space_group_name_Hall           'P 2c -2ac'
loop_
_symmetry_equiv_pos_site_id
_symmetry_equiv_pos_as_xyz
1 x,y,z
2 1/2-x,y,1/2+z
3 1/2+x,-y,z
4 -x,-y,1/2+z
_cell_length_a                   14.116(3)
_cell_length_b                   8.137(6)
_cell_length_c                   28.757(17)
_cell_angle_alpha                90
_cell_angle_beta                 90
_cell_angle_gamma                90
_cell_volume                     3303.08
_exptl_crystal_colour            'dark violet'
_cell_formula_units_Z            4
loop_
_atom_site_label
_atom_site_type_symbol
_atom_site_fract_x
_atom_site_fract_y
_atom_site_fract_z
Br1 Br 0.87928 0.16110 0.56149
Br2 Br 0.80112 0.82420 0.68637
C1 C 0.86130 0.35400 0.59700
C2 C 0.83240 0.33100 0.64280
C3 C 0.81120 0.47100 0.67280
C4 C 0.77980 0.43800 0.71930
C5 C 0.74920 0.55200 0.75210
C6 C 0.77530 0.26400 0.73420
N1 N 0.71770 0.62100 0.78340
N2 N 0.77310 0.14020 0.74810
C7 C 0.82390 0.63390 0.65200
C8 C 0.85680 0.64800 0.60830
C9 C 0.87800 0.51300 0.57860
C10 C 0.90720 0.55200 0.53210
C11 C 0.92100 0.71500 0.51920
C12 C 0.93470 0.43800 0.49540
N3 N 0.93270 0.84800 0.50870
N4 N 0.95430 0.37200 0.46270
H1 H 0.82660 0.22100 0.65500
H2 H 0.86690 0.75600 0.59630
Br3 Br 0.57583 0.17580 0.65250
Br4 Br 0.65433 0.83860 0.52705
C13 C 0.59620 0.36770 0.61740
C14 C 0.62300 0.34800 0.57270
C15 C 0.64170 0.48400 0.54240
C16 C 0.67190 0.45000 0.49820
C17 C 0.67350 0.28400 0.48220
C18 C 0.70700 0.56100 0.46220
N5 N 0.67330 0.14800 0.46840
N6 N 0.73650 0.63000 0.43150
C19 C 0.62900 0.64500 0.56210
C20 C 0.60000 0.67100 0.60650
C21 C 0.57880 0.53290 0.63750
C22 C 0.54890 0.56800 0.68190
C23 C 0.52550 0.45520 0.71990
C24 C 0.53490 0.73600 0.69700
N7 N 0.50470 0.38700 0.75250
N8 N 0.52580 0.86560 0.70760
H3 H 0.62950 0.23900 0.56070
H4 H 0.59350 0.78100 0.61780
N9 N 0.52440 -0.04780 0.85290
C25 C 0.48520 -0.19600 0.82350
C26 C 0.43200 -0.31400 0.85110
C27 C 0.44440 0.04200 0.87710
C28 C 0.38110 0.13700 0.84180
C29 C 0.58420 0.05900 0.81990
C30 C 0.63330 0.18800 0.84600
O1 O 0.69870 0.11290 0.87670
C31 C 0.64630 0.01600 0.91070
C32 C 0.59110 -0.12100 0.88850
H5 H 0.53790 -0.25100 0.80940
H6 H 0.44430 -0.15400 0.79970
H7 H 0.41800 -0.41600 0.83570
H8 H 0.37500 -0.26800 0.86370
H9 H 0.47600 -0.33500 0.87590
H10 H 0.40620 -0.03600 0.89360
H11 H 0.47070 0.12000 0.89880
H12 H 0.33710 0.21300 0.85520
H13 H 0.34700 0.04600 0.82870
H14 H 0.41690 0.19000 0.81790
H15 H 0.54370 0.10800 0.79690
H16 H 0.63040 -0.00900 0.80480
H17 H 0.58770 0.25000 0.86350
H18 H 0.66600 0.26000 0.82500
H19 H 0.69040 -0.03000 0.93250
H20 H 0.60300 0.08700 0.92690
H21 H 0.63390 -0.19600 0.87330
H22 H 0.55570 -0.18000 0.91170
loop_
_geom_bond_atom_site_label_1
_geom_bond_atom_site_label_2
_geom_bond_site_symmetry_1
_geom_bond_site_symmetry_2
Br1 C1 1_555 1_555
Br2 C7 1_555 1_555
Br3 C13 1_555 1_555
Br4 C19 1_555 1_555
C1 C2 1_555 1_555
C2 C3 1_555 1_555
C3 C4 1_555 1_555
C4 C5 1_555 1_555
C5 N1 1_555 1_555
C6 C4 1_555 1_555
N2 C6 1_555 1_555
C7 C3 1_555 1_555
C8 C7 1_555 1_555
C9 C1 1_555 1_555
C10 C9 1_555 1_555
C11 C10 1_555 1_555
C12 C10 1_555 1_555
N3 C11 1_555 1_555
N4 C12 1_555 1_555
C13 C14 1_555 1_555
C14 C15 1_555 1_555
C15 C16 1_555 1_555
C16 C17 1_555 1_555
C17 N5 1_555 1_555
C18 C16 1_555 1_555
N6 C18 1_555 1_555
C19 C15 1_555 1_555
C20 C19 1_555 1_555
C21 C13 1_555 1_555
C22 C21 1_555 1_555
C23 C22 1_555 1_555
C24 C22 1_555 1_555
N7 C23 1_555 1_555
N8 C24 1_555 1_555
N9 C25 1_555 1_555
C25 C26 1_555 1_555
C26 H7 1_555 1_555
C27 N9 1_555 1_555
C28 C27 1_555 1_555
C29 N9 1_555 1_555
C30 C29 1_555 1_555
O1 C30 1_555 1_555
C31 O1 1_555 1_555
C32 N9 1_555 1_555
H1 C2 1_555 1_555
H2 C8 1_555 1_555
H3 C14 1_555 1_555
H4 C20 1_555 1_555
H5 C25 1_555 1_555
H6 C25 1_555 1_555
H8 C26 1_555 1_555
H9 C26 1_555 1_555
H10 C27 1_555 1_555
H11 C27 1_555 1_555
H12 C28 1_555 1_555
H13 C28 1_555 1_555
H14 C28 1_555 1_555
H15 C29 1_555 1_555
H16 C29 1_555 1_555
H17 C30 1_555 1_555
H18 C30 1_555 1_555
H19 C31 1_555 1_555
H20 C31 1_555 1_555
H21 C32 1_555 1_555
H22 C32 1_555 1_555
C8 C9 1_555 1_555
C20 C21 1_555 1_555
C31 C32 1_555 1_555

#END
