
#######################################################################
#
#                 Cambridge Crystallographic Data Centre
#                                CCDC 
#
#######################################################################
#
# If this CIF has been generated from an entry in the Cambridge 
# Structural Database, then it will include bibliographic, chemical, 
# crystal, experimental, refinement or atomic coordinate data resulting 
# from the CCDC's data processing and validation procedures.
#
#######################################################################

data_BIPJAL10
_chemical_formula_moiety         'C8 H18 N1 O1 1+,C12 H2 Cl2 N4 1-'
_chemical_name_systematic        
'4,4-Diethylmorpholinium 2,5-dichloro-7,7,8,8-tetracyanoquinodimethanide'
_symmetry_cell_setting           monoclinic
_symmetry_space_group_name_H-M   'P 21/n'
_symmetry_Int_Tables_number      14
_space_group_name_Hall           '-P 2yn'
loop_
_symmetry_equiv_pos_site_id
_symmetry_equiv_pos_as_xyz
1 x,y,z
2 1/2-x,1/2+y,1/2-z
3 -x,-y,-z
4 1/2+x,1/2-y,1/2+z
_cell_length_a                   13.608(12)
_cell_length_b                   14.312(5)
_cell_length_c                   21.649(11)
_cell_angle_alpha                90
_cell_angle_beta                 106.03(5)
_cell_angle_gamma                90
_cell_volume                     4052.37
_exptl_crystal_colour            'dark violet'
_cell_formula_units_Z            8
loop_
_atom_site_label
_atom_site_type_symbol
_atom_site_fract_x
_atom_site_fract_y
_atom_site_fract_z
Cl1 Cl 0.64550 0.38870 0.12140
Cl2 Cl 0.59030 0.47570 -0.16850
C1 C 0.63580 0.41640 0.04030
C2 C 0.62980 0.34300 -0.00080
C3 C 0.61870 0.35520 -0.06650
C4 C 0.60910 0.44910 -0.08760
C5 C 0.61560 0.52310 -0.04660
C6 C 0.63100 0.51180 0.02080
C7 C 0.60940 0.27240 -0.10590
C8 C 0.60820 0.18280 -0.08110
N1 N 0.60280 0.10720 -0.06430
C9 C 0.60230 0.27310 -0.17220
N2 N 0.59240 0.26310 -0.22630
C10 C 0.63870 0.59280 0.05990
C11 C 0.62640 0.68440 0.03340
C12 C 0.65190 0.59200 0.12660
N3 N 0.61520 0.75980 0.01540
N4 N 0.66180 0.60340 0.18100
H1 H 0.63320 0.28060 0.01600
H2 H 0.60930 0.58520 -0.06400
Cl3 Cl 0.15800 0.56230 0.12660
Cl4 Cl 0.07760 0.60290 -0.16900
C13 C 0.13870 0.58280 0.04450
C14 C 0.13190 0.49660 0.01270
C15 C 0.11830 0.49300 -0.05390
C16 C 0.10510 0.57810 -0.08600
C17 C 0.10850 0.66250 -0.05620
C18 C 0.12860 0.66790 0.01140
C19 C 0.13610 0.75780 0.04190
C20 C 0.13670 0.77060 0.10530
C21 C 0.13340 0.84200 0.00930
C22 C 0.11390 0.40070 -0.08380
C23 C 0.12220 0.31750 -0.05110
C24 C 0.09620 0.39140 -0.15060
N5 N 0.14050 0.78330 0.15790
N6 N 0.13140 0.91310 -0.01560
N7 N 0.12930 0.24770 -0.02520
N8 N 0.07930 0.38010 -0.20550
N9 N 0.74760 0.97220 0.14800
C25 C 0.70650 0.94030 0.20200
C26 C 0.66000 0.84220 0.19090
C27 C 0.82530 0.90390 0.13670
C28 C 0.90990 0.87830 0.19490
C29 C 0.80090 1.06650 0.16510
C30 C 0.72130 1.14270 0.16180
C31 C 0.59280 1.06000 0.08460
C32 C 0.66800 0.98330 0.08360
O1 O 0.64470 1.14700 0.10110
H3 H 0.76140 0.93990 0.24100
H4 H 0.65470 0.98330 0.20620
H5 H 0.62920 0.84190 0.22580
H6 H 0.71880 0.80210 0.20110
H7 H 0.61150 0.82030 0.15260
H8 H 0.85560 0.93100 0.10570
H9 H 0.78990 0.84760 0.11940
H10 H 0.95600 0.83680 0.18200
H11 H 0.88900 0.85080 0.22970
H12 H 0.94380 0.93660 0.20870
H13 H 0.83940 1.08050 0.13520
H14 H 0.84610 1.06380 0.20780
H15 H 0.75570 1.20180 0.16940
H16 H 0.68800 1.13100 0.19470
H17 H 0.55680 1.04530 0.11580
H18 H 0.54490 1.06510 0.04280
H19 H 0.63140 0.92550 0.07290
H20 H 0.70230 0.99770 0.05150
C33 C 0.21470 0.22250 0.15560
N10 N 0.25750 0.12450 0.14920
C34 C 0.33550 0.13590 0.11170
C35 C 0.42560 0.20090 0.14090
O2 O 0.37500 0.29280 0.14040
C36 C 0.29920 0.29060 0.17750
C37 C 0.17190 0.06480 0.10940
C38 C 0.08870 0.04340 0.13890
C39 C 0.30040 0.08380 0.21440
C40 C 0.34460 -0.01200 0.21480
H21 H 0.17550 0.22040 0.18630
H22 H 0.17140 0.24180 0.11460
H23 H 0.36280 0.07520 0.10730
H24 H 0.30060 0.15990 0.07000
H25 H 0.33470 0.27590 0.22120
H26 H 0.26960 0.35170 0.17550
H27 H 0.20090 0.00670 0.10090
H28 H 0.14250 0.09680 0.06960
H29 H 0.03610 0.01480 0.10530
H30 H 0.06150 0.09730 0.15470
H31 H 0.11300 -0.00050 0.17330
H32 H 0.35350 0.12460 0.23820
H33 H 0.24660 0.08070 0.23520
H34 H 0.36280 -0.02080 0.26060
H35 H 0.40330 -0.02300 0.19950
H36 H 0.29120 -0.05500 0.19460
loop_
_geom_bond_atom_site_label_1
_geom_bond_atom_site_label_2
_geom_bond_site_symmetry_1
_geom_bond_site_symmetry_2
Cl1 C1 1_555 1_555
Cl2 C4 1_555 1_555
Cl3 C13 1_555 1_555
Cl4 C16 1_555 1_555
C1 C2 1_555 1_555
C2 C3 1_555 1_555
C3 C4 1_555 1_555
C4 C5 1_555 1_555
C5 C6 1_555 1_555
C6 C1 1_555 1_555
C7 C3 1_555 1_555
C8 C7 1_555 1_555
N1 C8 1_555 1_555
C9 C7 1_555 1_555
N2 C9 1_555 1_555
C10 C6 1_555 1_555
C11 C10 1_555 1_555
C12 C10 1_555 1_555
N3 C11 1_555 1_555
N4 C12 1_555 1_555
C13 C14 1_555 1_555
C14 C15 1_555 1_555
C15 C16 1_555 1_555
C16 C17 1_555 1_555
C17 C18 1_555 1_555
C18 C13 1_555 1_555
C19 C18 1_555 1_555
C20 C19 1_555 1_555
C21 C19 1_555 1_555
C22 C15 1_555 1_555
C23 C22 1_555 1_555
C24 C22 1_555 1_555
N5 C20 1_555 1_555
N6 C21 1_555 1_555
N7 C23 1_555 1_555
N8 C24 1_555 1_555
N9 C25 1_555 1_555
C25 C26 1_555 1_555
C26 H5 1_555 1_555
C27 N9 1_555 1_555
C28 C27 1_555 1_555
C29 N9 1_555 1_555
C30 C29 1_555 1_555
C31 C32 1_555 1_555
C32 N9 1_555 1_555
O1 C30 1_555 1_555
C33 N10 1_555 1_555
N10 C34 1_555 1_555
C34 C35 1_555 1_555
C35 O2 1_555 1_555
O2 C36 1_555 1_555
C36 C33 1_555 1_555
C37 N10 1_555 1_555
C38 C37 1_555 1_555
C39 N10 1_555 1_555
C40 C39 1_555 1_555
H1 C2 1_555 1_555
H2 C5 1_555 1_555
H3 C25 1_555 1_555
H4 C25 1_555 1_555
H6 C26 1_555 1_555
H7 C26 1_555 1_555
H8 C27 1_555 1_555
H9 C27 1_555 1_555
H10 C28 1_555 1_555
H11 C28 1_555 1_555
H12 C28 1_555 1_555
H13 C29 1_555 1_555
H14 C29 1_555 1_555
H15 C30 1_555 1_555
H16 C30 1_555 1_555
H17 C31 1_555 1_555
H18 C31 1_555 1_555
H19 C32 1_555 1_555
H20 C32 1_555 1_555
H21 C33 1_555 1_555
H22 C33 1_555 1_555
H23 C34 1_555 1_555
H24 C34 1_555 1_555
H25 C36 1_555 1_555
H26 C36 1_555 1_555
H27 C37 1_555 1_555
H28 C37 1_555 1_555
H29 C38 1_555 1_555
H30 C38 1_555 1_555
H31 C38 1_555 1_555
H32 C39 1_555 1_555
H33 C39 1_555 1_555
H34 C40 1_555 1_555
H35 C40 1_555 1_555
H36 C40 1_555 1_555
C31 O1 1_555 1_555

#END
