
#######################################################################
#
#                 Cambridge Crystallographic Data Centre
#                                CCDC 
#
#######################################################################
#
# If this CIF has been generated from an entry in the Cambridge 
# Structural Database, then it will include bibliographic, chemical, 
# crystal, experimental, refinement or atomic coordinate data resulting 
# from the CCDC's data processing and validation procedures.
#
#######################################################################

data_BIPKUJ
_chemical_formula_moiety         'C16 H12 F3 N1 O2,0.5(C2 H6 O1 S1)'
_chemical_name_systematic        
'7-phenyl-4-(trifluoromethyl)-7,8-dihydroquinoline-2,5(1H,6H)-dione dimethyl sulfoxide solvate'
_symmetry_cell_setting           triclinic
_symmetry_space_group_name_H-M   'P -1'
_symmetry_Int_Tables_number      2
_space_group_name_Hall           '-P 1'
loop_
_symmetry_equiv_pos_site_id
_symmetry_equiv_pos_as_xyz
1 x,y,z
2 -x,-y,-z
_cell_length_a                   9.0274(4)
_cell_length_b                   12.8372(5)
_cell_length_c                   15.1428(6)
_cell_angle_alpha                80.836(3)
_cell_angle_beta                 75.449(4)
_cell_angle_gamma                70.099(4)
_cell_volume                     1591.87
_exptl_crystal_colour            colorless
_exptl_crystal_description       Block
_cell_formula_units_Z            4
loop_
_atom_site_label
_atom_site_type_symbol
_atom_site_fract_x
_atom_site_fract_y
_atom_site_fract_z
C1 C 0.9786(4) 0.8140(2) 0.59604(19)
C2 C 0.9193(3) 0.9033(2) 0.64916(19)
C3 C 1.0994(5) 0.7825(3) 0.7574(2)
H1 H 1.137(5) 0.788(3) 0.795(3)
C4 C 0.9850(4) 0.8916(3) 0.7326(2)
C5 C 1.1001(5) 0.7065(2) 0.6172(2)
C6 C 1.5110(6) 0.3949(4) 0.7597(4)
H2 H 1.5873 0.3285 0.7741
C7 C 1.5447(5) 0.4568(3) 0.6801(4)
H3 H 1.6440 0.4320 0.6402
C8 C 1.4319(4) 0.5570(3) 0.6576(3)
H4 H 1.4558 0.5988 0.6030
C9 C 1.2854(5) 0.5933(3) 0.7166(3)
C10 C 1.1896(11) 0.7181(7) 0.6823(6)
H5 H 1.2704 0.7528 0.6477
N1 N 0.9271(3) 0.82108(18) 0.51816(16)
H6 H 0.9656 0.7635 0.4872
C11 C 0.8019(3) 0.9999(2) 0.6192(2)
C12 C 0.7548(4) 1.0034(2) 0.5410(2)
H7 H 0.6780 1.0673 0.5231
C13 C 0.8184(4) 0.9127(2) 0.4845(2)
O1 O 0.9478(4) 0.9674(2) 0.77977(19)
O2 O 0.7854(3) 0.91108(16) 0.41065(14)
C14 C 0.7213(5) 1.1004(3) 0.6727(3)
F1 F 0.8214(3) 1.15214(15) 0.67874(15)
F2 F 0.5909(19) 1.163(3) 0.649(2)
F3 F 0.6480(3) 1.0784(2) 0.75677(17)
C15 C 1.3672(7) 0.4299(4) 0.8176(3)
H8 H 1.3444 0.3877 0.8720
C16 C 1.2537(6) 0.5278(4) 0.7965(3)
H9 H 1.1541 0.5504 0.8365
N2 N 0.5841(3) 0.07901(17) 0.31560(15)
H11 H 0.6357 0.0263 0.3499
F5 F 0.4323(3) 0.37623(14) 0.07816(15)
F6 F 0.2247(2) 0.32099(17) 0.11598(15)
O3 O 0.4832(3) 0.17788(17) 0.01777(15)
C18 C 0.5304(3) 0.1422(2) 0.16731(19)
F7 F 0.2540(3) 0.42948(15) 0.19737(14)
C19 C 0.6099(3) 0.0627(2) 0.22644(18)
O4 O 0.4688(3) 0.18339(18) 0.43651(15)
C20 C 0.7319(3) -0.0458(2) 0.19906(18)
H12 H 0.6810 -0.1037 0.2148
H13 H 0.8170 -0.0647 0.2327
C21 C 0.5575(3) 0.1154(2) 0.0720(2)
C22 C 0.4229(3) 0.2441(2) 0.2052(2)
C23 C 0.3983(3) 0.2571(2) 0.2950(2)
H14 H 0.3249 0.3226 0.3179
C24 C 0.8046(3) -0.0409(2) 0.09654(19)
H15 H 0.8645 0.0126 0.0846
C25 C 0.6719(4) 0.0054(2) 0.0456(2)
H16 H 0.7191 0.0118 -0.0193
H17 H 0.6120 -0.0469 0.0551
C26 C 0.9257(4) -0.1519(2) 0.07065(18)
C27 C 1.1564(4) -0.3539(3) 0.0272(2)
H18 H 1.2339 -0.4216 0.0124
C28 C 1.0807(4) -0.1754(3) 0.0803(2)
H19 H 1.1085 -0.1225 0.1023
C29 C 0.4805(3) 0.1745(2) 0.3559(2)
C30 C 0.3349(4) 0.3416(3) 0.1481(3)
C31 C 0.8887(4) -0.2316(3) 0.0386(2)
H20 H 0.7847 -0.2172 0.0304
C32 C 1.1966(4) -0.2751(3) 0.0585(2)
H21 H 1.3015 -0.2887 0.0649
C33 C 1.0029(5) -0.3330(3) 0.0180(2)
H22 H 0.9747 -0.3870 -0.0022
S1 S -0.02824(10) 0.57745(5) 0.38195(5)
O5 O 0.0425(3) 0.61830(15) 0.44369(14)
C34 C -0.2363(4) 0.6162(3) 0.4264(3)
H23 H -0.2577 0.5734 0.4834
H24 H -0.2892 0.6026 0.3838
H25 H -0.2760 0.6938 0.4364
C35 C -0.0244(6) 0.6691(3) 0.2822(2)
H26 H -0.0731 0.7443 0.2986
H27 H -0.0833 0.6544 0.2434
H28 H 0.0852 0.6583 0.2501
C17? C 1.1237(15) 0.6779(9) 0.7064(7)
H10? H 1.0406 0.6447 0.7398
F4? F 0.635(7) 1.1859(18) 0.619(3)
loop_
_geom_bond_atom_site_label_1
_geom_bond_atom_site_label_2
_geom_bond_site_symmetry_1
_geom_bond_site_symmetry_2
C1 C2 1_555 1_555
C2 C4 1_555 1_555
C3 H1 1_555 1_555
C4 C3 1_555 1_555
C5 C1 1_555 1_555
C6 H2 1_555 1_555
C7 C6 1_555 1_555
H3 C7 1_555 1_555
C8 C7 1_555 1_555
H4 C8 1_555 1_555
C9 C8 1_555 1_555
C10 C3 1_555 1_555
H5 C10 1_555 1_555
N1 C1 1_555 1_555
H6 N1 1_555 1_555
C11 C2 1_555 1_555
C12 C11 1_555 1_555
H7 C12 1_555 1_555
C13 N1 1_555 1_555
O1 C4 1_555 1_555
O2 C13 1_555 1_555
C14 C11 1_555 1_555
F1 C14 1_555 1_555
F2 C14 1_555 1_555
F3 C14 1_555 1_555
C15 C6 1_555 1_555
H8 C15 1_555 1_555
C16 C9 1_555 1_555
H9 C16 1_555 1_555
N2 H11 1_555 1_555
F5 C30 1_555 1_555
F6 C30 1_555 1_555
O3 C21 1_555 1_555
C18 C19 1_555 1_555
F7 C30 1_555 1_555
C19 N2 1_555 1_555
O4 C29 1_555 1_555
C20 C19 1_555 1_555
H12 C20 1_555 1_555
H13 C20 1_555 1_555
C21 C18 1_555 1_555
C22 C18 1_555 1_555
C23 C22 1_555 1_555
H14 C23 1_555 1_555
C24 C20 1_555 1_555
H15 C24 1_555 1_555
C25 C21 1_555 1_555
H16 C25 1_555 1_555
H17 C25 1_555 1_555
C26 C24 1_555 1_555
C27 H18 1_555 1_555
C28 C26 1_555 1_555
H19 C28 1_555 1_555
C29 N2 1_555 1_555
C30 C22 1_555 1_555
C31 C26 1_555 1_555
H20 C31 1_555 1_555
C32 C27 1_555 1_555
H21 C32 1_555 1_555
C33 C27 1_555 1_555
H22 C33 1_555 1_555
S1 O5 1_555 1_555
C34 S1 1_555 1_555
H23 C34 1_555 1_555
H24 C34 1_555 1_555
H25 C34 1_555 1_555
C35 S1 1_555 1_555
H26 C35 1_555 1_555
H27 C35 1_555 1_555
H28 C35 1_555 1_555
C5 C10 1_555 1_555
C9 C10 1_555 1_555
C12 C13 1_555 1_555
C15 C16 1_555 1_555
C23 C29 1_555 1_555
C24 C25 1_555 1_555
C28 C32 1_555 1_555
C31 C33 1_555 1_555

#END
