
#######################################################################
#
#                 Cambridge Crystallographic Data Centre
#                                CCDC 
#
#######################################################################
#
# If this CIF has been generated from an entry in the Cambridge 
# Structural Database, then it will include bibliographic, chemical, 
# crystal, experimental, refinement or atomic coordinate data resulting 
# from the CCDC's data processing and validation procedures.
#
#######################################################################

data_BIPXAC
_chemical_formula_moiety         'C26 H22 N4 O2 S2'
_chemical_name_systematic        
2,2'-disulfanediylbis{N-[(pyridin-2-yl)methyl]benzamide}
_symmetry_cell_setting           monoclinic
_symmetry_space_group_name_H-M   'P 21/n'
_symmetry_Int_Tables_number      14
_space_group_name_Hall           '-P 2yn'
loop_
_symmetry_equiv_pos_site_id
_symmetry_equiv_pos_as_xyz
1 x,y,z
2 1/2-x,1/2+y,1/2-z
3 -x,-y,-z
4 1/2+x,1/2-y,1/2+z
_cell_length_a                   7.838(2)
_cell_length_b                   19.043(6)
_cell_length_c                   15.788(5)
_cell_angle_alpha                90
_cell_angle_beta                 96.21(2)
_cell_angle_gamma                90
_cell_volume                     2342.67
_exptl_crystal_colour            yellow
_exptl_crystal_description       block
_cell_formula_units_Z            4
loop_
_atom_site_label
_atom_site_type_symbol
_atom_site_fract_x
_atom_site_fract_y
_atom_site_fract_z
S1 S 0.16035(17) 0.10235(6) 0.36534(8)
S2 S 0.15599(15) -0.00474(6) 0.35500(8)
C1 C 0.1595(6) 0.2576(2) 0.3169(3)
C2 C 0.0819(6) 0.2092(2) 0.2496(3)
C3 C 0.0751(6) 0.1363(2) 0.2644(3)
C4 C 0.0040(7) 0.0928(3) 0.1994(3)
H1 H 0.0020 0.0445 0.2081
C5 C 0.0117(6) 0.2343(3) 0.1711(3)
H2 H 0.0144 0.2823 0.1609
C6 C -0.0631(7) 0.1201(3) 0.1228(3)
H3 H -0.1104 0.0901 0.0800
C7 C -0.0616(7) 0.1910(3) 0.1081(3)
H4 H -0.1095 0.2093 0.0563
O1 O 0.1659(4) 0.24285(17) 0.3929(2)
N1 N 0.2226(5) 0.31868(19) 0.2904(2)
H5 H 0.2121 0.3277 0.2367
C8 C 0.3082(7) 0.3701(2) 0.3490(3)
H6 H 0.4115 0.3859 0.3261
H7 H 0.3431 0.3469 0.4028
C9 C 0.2024(8) 0.4329(3) 0.3658(3)
C10 C 0.0502(9) 0.4498(3) 0.3218(4)
H8 H 0.0016 0.4203 0.2789
N2 N 0.2794(7) 0.4737(3) 0.4278(3)
C11 C -0.0802(6) -0.0969(2) 0.4124(3)
C12 C -0.0511(6) -0.0285(2) 0.3835(3)
C13 C 0.0636(7) -0.1485(2) 0.4213(3)
C14 C -0.2442(7) -0.1157(3) 0.4306(3)
H9 H -0.2640 -0.1612 0.4486
C15 C -0.1862(7) 0.0185(3) 0.3777(3)
H10 H -0.1686 0.0645 0.3607
C16 C -0.3464(7) -0.0017(3) 0.3967(3)
H11 H -0.4353 0.0309 0.3917
C17 C -0.3776(7) -0.0682(3) 0.4225(3)
H12 H -0.4867 -0.0813 0.4344
O2 O 0.1828(4) -0.14609(16) 0.3770(2)
N3 N 0.0540(6) -0.1995(2) 0.4804(2)
H13 H -0.0322 -0.1991 0.5098
C18 C 0.2664(7) -0.2492(3) 0.5858(4)
C19 C 0.1797(8) -0.2542(3) 0.4967(4)
H14 H 0.2648 -0.2502 0.4567
H15 H 0.1244 -0.2996 0.4884
C20 C 0.3544(9) -0.1917(3) 0.6102(5)
H16 H 0.3670 -0.1555 0.5718
N4 N 0.2472(8) -0.3041(3) 0.6388(4)
C21 C 0.4093(9) -0.2383(4) 0.7482(5)
H17 H 0.4580 -0.2337 0.8043
C22 C 0.3204(10) -0.2972(5) 0.7213(5)
H18 H 0.3092 -0.3334 0.7598
C23 C 0.4243(9) -0.1870(4) 0.6907(6)
H19 H 0.4857 -0.1467 0.7079
C24 C 0.0399(12) 0.5528(4) 0.4027(6)
H20 H -0.0133 0.5942 0.4164
C25 C -0.0321(10) 0.5103(4) 0.3403(5)
H21 H -0.1367 0.5221 0.3101
C26 C 0.1914(12) 0.5331(4) 0.4446(5)
H22 H 0.2396 0.5621 0.4881
loop_
_geom_bond_atom_site_label_1
_geom_bond_atom_site_label_2
_geom_bond_site_symmetry_1
_geom_bond_site_symmetry_2
S1 S2 1_555 1_555
S2 C12 1_555 1_555
C1 C2 1_555 1_555
C2 C3 1_555 1_555
C3 S1 1_555 1_555
C4 C3 1_555 1_555
H1 C4 1_555 1_555
C5 C2 1_555 1_555
H2 C5 1_555 1_555
C6 C4 1_555 1_555
H3 C6 1_555 1_555
C7 C5 1_555 1_555
H4 C7 1_555 1_555
O1 C1 1_555 1_555
N1 C1 1_555 1_555
H5 N1 1_555 1_555
C8 N1 1_555 1_555
H6 C8 1_555 1_555
H7 C8 1_555 1_555
C9 C8 1_555 1_555
C10 C9 1_555 1_555
H8 C10 1_555 1_555
N2 C9 1_555 1_555
C11 C12 1_555 1_555
C12 C15 1_555 1_555
C13 C11 1_555 1_555
C14 C11 1_555 1_555
H9 C14 1_555 1_555
C15 H10 1_555 1_555
C16 C15 1_555 1_555
H11 C16 1_555 1_555
C17 C14 1_555 1_555
H12 C17 1_555 1_555
O2 C13 1_555 1_555
N3 C13 1_555 1_555
H13 N3 1_555 1_555
C18 C19 1_555 1_555
C19 N3 1_555 1_555
H14 C19 1_555 1_555
H15 C19 1_555 1_555
C20 C18 1_555 1_555
H16 C20 1_555 1_555
N4 C18 1_555 1_555
C21 H17 1_555 1_555
C22 N4 1_555 1_555
H18 C22 1_555 1_555
C23 C20 1_555 1_555
H19 C23 1_555 1_555
C24 H20 1_555 1_555
C25 C10 1_555 1_555
H21 C25 1_555 1_555
C26 N2 1_555 1_555
H22 C26 1_555 1_555
C6 C7 1_555 1_555
C16 C17 1_555 1_555
C21 C22 1_555 1_555
C21 C23 1_555 1_555
C24 C25 1_555 1_555
C24 C26 1_555 1_555

#END
