
#######################################################################
#
#                 Cambridge Crystallographic Data Centre
#                                CCDC 
#
#######################################################################
#
# If this CIF has been generated from an entry in the Cambridge 
# Structural Database, then it will include bibliographic, chemical, 
# crystal, experimental, refinement or atomic coordinate data resulting 
# from the CCDC's data processing and validation procedures.
#
#######################################################################

data_BIQDEN
_chemical_compound_source        'Rhododendron latoucheae'
_chemical_formula_moiety         'C30 H48 O3'
_chemical_name_systematic        3,23-dihydroxyurs-9(11)-en-12-one
_symmetry_cell_setting           orthorhombic
_symmetry_space_group_name_H-M   'P 21 21 21'
_symmetry_Int_Tables_number      19
_space_group_name_Hall           'P 2ac 2ab'
loop_
_symmetry_equiv_pos_site_id
_symmetry_equiv_pos_as_xyz
1 x,y,z
2 1/2-x,-y,1/2+z
3 1/2+x,1/2-y,-z
4 -x,1/2+y,1/2-z
_cell_length_a                   8.0886(12)
_cell_length_b                   11.7456(9)
_cell_length_c                   27.755(2)
_cell_angle_alpha                90
_cell_angle_beta                 90
_cell_angle_gamma                90
_cell_volume                     2636.88
_cell_formula_units_Z            4
loop_
_atom_site_label
_atom_site_type_symbol
_atom_site_fract_x
_atom_site_fract_y
_atom_site_fract_z
O1 O -0.9685(2) -0.90172(15) -0.18297(6)
O2 O -1.0286(2) -1.34529(16) -0.47586(6)
H1 H -1.0873 -1.3329 -0.5003
O3 O -0.7514(2) -1.23155(19) -0.45687(7)
H2 H -0.8116 -1.2764 -0.4727
C1 C -1.4577(3) -1.0206(2) -0.13920(8)
C2 C -1.4783(3) -1.1092(2) -0.22383(8)
H3 H -1.5417 -1.0451 -0.2378
H4 H -1.5131 -1.1797 -0.2406
C3 C -1.0944(3) -1.13778(19) -0.37254(7)
H5 H -1.0818 -1.2054 -0.3509
C4 C -1.1788(3) -1.11491(19) -0.11580(8)
H6 H -1.2186 -1.1884 -0.1298
C5 C -1.2652(3) -1.01633(19) -0.14346(8)
H7 H -1.2301 -0.9446 -0.1270
C6 C -1.0769(3) -1.02847(18) -0.29464(8)
C7 C -0.9833(3) -0.99372(19) -0.25760(8)
H8 H -0.8674 -0.9882 -0.2625
C8 C -0.9902(3) -1.1128(2) -0.12003(8)
H9 H -0.9480 -1.0409 -0.1070
H10 H -0.9585 -1.1194 -0.1540
H11 H -0.9434 -1.1766 -0.1018
C9 C -1.2809(3) -1.1141(2) -0.37370(8)
H12 H -1.3017 -1.0373 -0.3871
H13 H -1.3368 -1.1707 -0.3946
C10 C -1.2640(3) -1.04161(19) -0.28632(8)
C11 C -1.2244(3) -0.99929(19) -0.19780(7)
H14 H -1.2901 -0.9300 -0.2063
C12 C -1.5359(3) -0.9080(2) -0.15561(9)
H15 H -1.5197 -0.8986 -0.1904
H16 H -1.4834 -0.8445 -0.1385
H17 H -1.6545 -0.9089 -0.1484
C13 C -1.2329(3) -1.1112(2) -0.06225(8)
H18 H -1.2060 -1.0339 -0.0493
C14 C -1.0038(3) -1.03914(18) -0.34580(7)
C15 C -0.8352(3) -1.1985(2) -0.41357(8)
H19 H -0.8250 -1.2626 -0.3901
C16 C -1.2913(3) -1.08929(19) -0.23338(7)
C17 C -1.1022(3) -1.2917(2) -0.43452(8)
H20 H -1.0925 -1.3435 -0.4065
H21 H -1.2214 -1.2796 -0.4408
C18 C -1.0217(3) -0.9211(2) -0.36994(8)
H22 H -1.1372 -0.9091 -0.3793
H23 H -0.9513 -0.9178 -0.3986
H24 H -0.9879 -0.8617 -0.3472
C19 C -1.5224(3) -1.1198(2) -0.17020(8)
H25 H -1.4761 -1.1920 -0.1576
H26 H -1.6441 -1.1238 -0.1669
C20 C -1.0489(3) -0.96350(18) -0.20973(8)
C21 C -1.2006(3) -1.20508(19) -0.22739(8)
H27 H -1.2093 -1.2488 -0.2574
H28 H -1.2515 -1.2481 -0.2010
H29 H -1.0838 -1.1913 -0.2200
C22 C -1.3491(3) -1.1216(2) -0.32254(8)
H30 H -1.3374 -1.2010 -0.3110
H31 H -1.4687 -1.1036 -0.3233
C23 C -1.3420(3) -0.9217(2) -0.29349(8)
H32 H -1.3459 -0.9037 -0.3279
H33 H -1.2748 -0.8646 -0.2767
H34 H -1.4544 -0.9212 -0.2803
C24 C -0.8177(3) -1.0677(2) -0.34317(8)
H35 H -0.7573 -1.0016 -0.3297
H36 H -0.8012 -1.1330 -0.3211
C25 C -1.0516(3) -1.0930(2) -0.46341(8)
H37 H -0.9855 -1.0241 -0.4584
H38 H -1.1691 -1.0727 -0.4645
H39 H -1.0197 -1.1288 -0.4939
C26 C -0.7458(3) -1.0971(3) -0.39268(8)
H40 H -0.7577 -1.0310 -0.4146
H41 H -0.6266 -1.1146 -0.3895
C27 C -1.0214(3) -1.17635(19) -0.42183(8)
C28 C -1.4201(4) -1.1272(2) -0.05923(9)
H42 H -1.4502 -1.2022 -0.0729
H43 H -1.4547 -1.1262 -0.0250
C29 C -1.5100(3) -1.0348(2) -0.08619(8)
H44 H -1.4918 -0.9617 -0.0693
H45 H -1.6300 -1.0513 -0.0852
C30 C -1.1462(4) -1.1994(3) -0.03048(10)
H46 H -1.0276 -1.1824 -0.0291
H47 H -1.1626 -1.2756 -0.0441
H48 H -1.1927 -1.1967 0.0021
loop_
_geom_bond_atom_site_label_1
_geom_bond_atom_site_label_2
_geom_bond_site_symmetry_1
_geom_bond_site_symmetry_2
O1 C20 1_555 1_555
O2 H1 1_555 1_555
O3 H2 1_555 1_555
C1 C5 1_555 1_555
C2 H3 1_555 1_555
H4 C2 1_555 1_555
C3 H5 1_555 1_555
C4 H6 1_555 1_555
C5 C4 1_555 1_555
H7 C5 1_555 1_555
C6 C7 1_555 1_555
C7 H8 1_555 1_555
C8 C4 1_555 1_555
H9 C8 1_555 1_555
H10 C8 1_555 1_555
H11 C8 1_555 1_555
C9 C3 1_555 1_555
H12 C9 1_555 1_555
H13 C9 1_555 1_555
C10 C6 1_555 1_555
C11 C5 1_555 1_555
H14 C11 1_555 1_555
C12 C1 1_555 1_555
H15 C12 1_555 1_555
H16 C12 1_555 1_555
H17 C12 1_555 1_555
C13 C4 1_555 1_555
H18 C13 1_555 1_555
C14 C3 1_555 1_555
C15 O3 1_555 1_555
H19 C15 1_555 1_555
C16 C2 1_555 1_555
C17 O2 1_555 1_555
H20 C17 1_555 1_555
H21 C17 1_555 1_555
C18 C14 1_555 1_555
H22 C18 1_555 1_555
H23 C18 1_555 1_555
H24 C18 1_555 1_555
C19 C1 1_555 1_555
H25 C19 1_555 1_555
H26 C19 1_555 1_555
C20 C7 1_555 1_555
C21 C16 1_555 1_555
H27 C21 1_555 1_555
H28 C21 1_555 1_555
H29 C21 1_555 1_555
C22 C9 1_555 1_555
H30 C22 1_555 1_555
H31 C22 1_555 1_555
C23 C10 1_555 1_555
H32 C23 1_555 1_555
H33 C23 1_555 1_555
H34 C23 1_555 1_555
C24 C14 1_555 1_555
H35 C24 1_555 1_555
H36 C24 1_555 1_555
C25 H37 1_555 1_555
H38 C25 1_555 1_555
H39 C25 1_555 1_555
C26 C15 1_555 1_555
H40 C26 1_555 1_555
H41 C26 1_555 1_555
C27 C3 1_555 1_555
C28 C13 1_555 1_555
H42 C28 1_555 1_555
H43 C28 1_555 1_555
C29 C1 1_555 1_555
H44 C29 1_555 1_555
H45 C29 1_555 1_555
C30 C13 1_555 1_555
H46 C30 1_555 1_555
H47 C30 1_555 1_555
H48 C30 1_555 1_555
C2 C19 1_555 1_555
C6 C14 1_555 1_555
C10 C16 1_555 1_555
C10 C22 1_555 1_555
C11 C16 1_555 1_555
C11 C20 1_555 1_555
C15 C27 1_555 1_555
C17 C27 1_555 1_555
C24 C26 1_555 1_555
C25 C27 1_555 1_555
C28 C29 1_555 1_555

#END
