
#######################################################################
#
#                 Cambridge Crystallographic Data Centre
#                                CCDC 
#
#######################################################################
#
# If this CIF has been generated from an entry in the Cambridge 
# Structural Database, then it will include bibliographic, chemical, 
# crystal, experimental, refinement or atomic coordinate data resulting 
# from the CCDC's data processing and validation procedures.
#
#######################################################################

data_BIQLEV
_chemical_formula_moiety         'C37 H50 O6,C2 H3 N1'
_chemical_name_systematic        
"7-hydroxy-2,2,4a,13,13,15a-hexamethyl-11,20-dioxo-1,2,2a,3,4,4a,8,8a,9,10,11,11a,12,13,13a,14,15,15a,17,17a,18,19,20,20a-tetracosahydrobiscyclobuta[5,6]cyclonona[1,2-e:1,2-e']benzo[1,2-b:3,4-b']dipyran-6-carbaldehyde acetonitrile solvate"
_symmetry_cell_setting           orthorhombic
_symmetry_space_group_name_H-M   'P 21 21 21'
_symmetry_Int_Tables_number      19
_space_group_name_Hall           'P 2ac 2ab'
loop_
_symmetry_equiv_pos_site_id
_symmetry_equiv_pos_as_xyz
1 x,y,z
2 1/2-x,-y,1/2+z
3 -x,1/2+y,1/2-z
4 1/2+x,1/2-y,-z
_cell_length_a                   13.9171(3)
_cell_length_b                   18.5603(4)
_cell_length_c                   27.1890(5)
_cell_angle_alpha                90
_cell_angle_beta                 90
_cell_angle_gamma                90
_cell_volume                     7023.07
_exptl_crystal_colour            'white / colorless'
_exptl_crystal_description       block
_cell_formula_units_Z            8
_exptl_crystal_preparation       'solvent MeCN'
loop_
_atom_site_label
_atom_site_type_symbol
_atom_site_fract_x
_atom_site_fract_y
_atom_site_fract_z
O1 O 0.64822(12) 0.48883(9) 0.49019(6)
O2 O 0.85847(12) 0.34700(10) 0.39282(6)
H1 H 0.821193 0.362792 0.371044
O3 O 0.89725(12) 0.35701(9) 0.56649(6)
O4 O 0.71174(13) 0.41406(10) 0.35636(6)
O5 O 1.27549(15) 0.38805(12) 0.50084(7)
O6 O 0.68303(16) 0.64924(12) 0.66602(7)
C1 C 0.72257(16) 0.44124(12) 0.48870(8)
C2 C 0.83066(16) 0.37214(12) 0.43732(8)
C3 C 0.74927(16) 0.41700(12) 0.44127(8)
C4 C 0.77035(16) 0.41914(12) 0.53023(8)
C5 C 0.73589(17) 0.44051(13) 0.58051(8)
H2 H 0.791778 0.455775 0.600486
H3 H 0.706902 0.397962 0.596696
C6 C 1.03786(16) 0.31716(12) 0.51819(8)
H4 H 1.060676 0.368206 0.516737
C7 C 0.69366(19) 0.43524(14) 0.39867(9)
H5 H 0.639346 0.465553 0.403110
C8 C 0.88331(16) 0.35102(12) 0.47828(8)
C9 C 0.85145(16) 0.37449(12) 0.52407(8)
C10 C 0.66163(17) 0.50194(12) 0.57964(8)
H6 H 0.697521 0.548156 0.575209
C11 C 1.13698(18) 0.44398(13) 0.59175(9)
H7 H 1.109546 0.454449 0.558514
C12 C 0.6131(2) 0.63884(15) 0.64028(9)
C13 C 0.97125(17) 0.30492(13) 0.47424(8)
H8 H 1.005823 0.316611 0.443431
H9 H 0.952199 0.253562 0.472904
C14 C 1.24747(17) 0.36243(15) 0.53944(10)
C15 C 1.03331(18) 0.32980(14) 0.61367(9)
H10 H 1.093728 0.301690 0.614886
H11 H 0.993445 0.313501 0.641700
C16 C 1.21633(18) 0.28432(14) 0.54228(10)
H12 H 1.203816 0.271774 0.577086
H13 H 1.269533 0.253410 0.530494
C17 C 0.98062(17) 0.30793(12) 0.56653(9)
C18 C 0.61517(19) 0.50363(14) 0.63096(9)
H14 H 0.667113 0.497514 0.655481
H15 H 0.572827 0.460951 0.633676
C19 C 0.52739(19) 0.55935(14) 0.52528(9)
H16 H 0.482319 0.545466 0.498747
H17 H 0.488338 0.568191 0.555105
C20 C 0.59204(17) 0.49400(13) 0.53575(9)
C21 C 1.23764(18) 0.40745(14) 0.58517(9)
H18 H 1.255363 0.379015 0.615068
C22 C 1.05967(19) 0.40880(15) 0.62328(10)
H19 H 1.000307 0.437727 0.619740
H20 H 1.080158 0.412751 0.658046
C23 C 1.19084(19) 0.51316(15) 0.61093(10)
C24 C 0.5560(2) 0.56999(14) 0.64619(10)
H21 H 0.497246 0.572690 0.625712
H22 H 0.535859 0.564850 0.680946
C25 C 0.9412(2) 0.23168(14) 0.57276(10)
H23 H 0.901499 0.229446 0.602483
H24 H 0.994745 0.197658 0.575735
H25 H 0.902111 0.219019 0.544056
C26 C 0.53055(19) 0.42625(14) 0.53887(10)
H26 H 0.493070 0.421052 0.508564
H27 H 0.486858 0.430009 0.567019
H28 H 0.572177 0.384100 0.543039
C27 C 1.12630(17) 0.26808(13) 0.51199(9)
H29 H 1.106116 0.218188 0.519670
H30 H 1.144807 0.269005 0.476840
C28 C 0.5735(2) 0.63108(13) 0.51051(9)
H31 H 0.617352 0.621389 0.482616
H32 H 0.521724 0.662714 0.497955
C29 C 0.6294(2) 0.67349(14) 0.54861(9)
H33 H 0.693034 0.649573 0.553652
C30 C 0.6466(2) 0.75646(15) 0.54116(10)
C31 C 1.2829(2) 0.48292(16) 0.58683(11)
H34 H 1.296280 0.503380 0.553909
H35 H 1.340355 0.485968 0.608187
C32 C 1.2003(2) 0.51639(18) 0.66669(11)
H36 H 1.136886 0.524659 0.681344
H37 H 1.243525 0.555871 0.675775
H38 H 1.226462 0.470719 0.678829
C33 C 0.5850(2) 0.69086(14) 0.60023(10)
H39 H 0.513628 0.696555 0.598240
C34 C 0.5649(3) 0.79406(15) 0.51437(12)
H40 H 0.567487 0.782013 0.479304
H41 H 0.571100 0.846313 0.518475
H42 H 0.503299 0.778105 0.528068
C35 C 0.7429(3) 0.77617(17) 0.51921(12)
H43 H 0.794125 0.751525 0.537332
H44 H 0.752309 0.828398 0.521441
H45 H 0.744673 0.761373 0.484620
C36 C 0.6366(3) 0.76460(15) 0.59784(11)
H46 H 0.698862 0.765521 0.615411
H47 H 0.595607 0.805621 0.607939
C37 C 1.1558(3) 0.58469(17) 0.59051(13)
H48 H 1.150639 0.581427 0.554628
H49 H 1.201503 0.622774 0.599236
H50 H 1.092670 0.596016 0.604476
O7 O 0.50516(11) 0.04276(9) 0.69051(6)
O8 O 0.27888(12) -0.11134(9) 0.61586(6)
O9 O 0.39133(14) -0.08495(10) 0.48162(6)
O10 O 0.52796(13) -0.00774(9) 0.51936(6)
H51 H 0.494075 -0.026189 0.497111
O11 O 0.57821(14) 0.29786(10) 0.60982(6)
O12 O 0.04362(15) -0.01489(11) 0.77020(7)
C38 C 0.47786(16) 0.00792(12) 0.64893(8)
C39 C 0.48518(17) -0.01797(12) 0.56336(8)
C40 C 0.35944(16) -0.06969(12) 0.61415(8)
C41 C 0.39529(16) -0.03550(12) 0.65500(8)
C42 C 0.40220(17) -0.06149(12) 0.56697(8)
C43 C 0.46565(17) 0.23371(12) 0.70648(8)
H52 H 0.447797 0.209390 0.674958
C44 C 0.52499(16) 0.01620(12) 0.60420(8)
C45 C 0.49131(17) 0.17634(13) 0.74399(8)
H53 H 0.437043 0.141927 0.745547
H54 H 0.495428 0.200072 0.776527
C46 C 0.60963(17) 0.06576(13) 0.59990(8)
H55 H 0.607692 0.090662 0.567710
H56 H 0.669758 0.037354 0.601486
C47 C 0.60228(18) 0.28295(12) 0.65165(9)
C48 C 0.60895(16) 0.12190(12) 0.64151(8)
H57 H 0.551680 0.153530 0.636309
C49 C 0.69600(18) 0.24427(14) 0.66139(9)
H58 H 0.704607 0.238421 0.697313
H59 H 0.749865 0.273920 0.648907
C50 C 0.59557(16) 0.08354(12) 0.69158(8)
C51 C 0.38754(18) 0.29164(13) 0.71856(9)
C52 C 0.04723(18) -0.07471(14) 0.75174(9)
C53 C 0.34766(17) -0.04229(14) 0.70429(8)
H60 H 0.339319 0.006389 0.718550
H61 H 0.390164 -0.070010 0.726520
C54 C 0.58383(17) 0.13239(13) 0.73674(8)
H62 H 0.638084 0.166882 0.736546
H63 H 0.591883 0.101705 0.766244
C55 C 0.24889(17) -0.07981(13) 0.70176(8)
H64 H 0.200705 -0.043249 0.690738
C56 C 0.24977(17) -0.14127(13) 0.66347(9)
C57 C 0.35958(18) -0.09260(14) 0.52395(9)
H65 H 0.303330 -0.120952 0.528105
C58 C 0.69904(17) 0.16965(13) 0.63663(9)
H66 H 0.754256 0.142761 0.650427
H67 H 0.711937 0.176860 0.601166
C59 C 0.67542(18) 0.02970(14) 0.70197(10)
H68 H 0.660011 0.002423 0.731809
H69 H 0.736163 0.055511 0.706676
H70 H 0.681548 -0.003521 0.674134
C60 C 0.22447(17) -0.10062(14) 0.75533(9)
H71 H 0.270368 -0.138567 0.765477
H72 H 0.237530 -0.057966 0.776146
C61 C 0.07507(17) -0.12820(15) 0.62670(9)
H73 H 0.105577 -0.101971 0.599109
H74 H 0.026088 -0.160624 0.612302
C62 C 0.3203(2) -0.20148(15) 0.67671(10)
H75 H 0.326701 -0.234565 0.648806
H76 H 0.296306 -0.227899 0.705389
H77 H 0.383209 -0.180533 0.684406
C63 C -0.01759(17) -0.09547(15) 0.71023(9)
H78 H -0.034919 -0.147727 0.711463
C64 C 0.53658(18) 0.29698(13) 0.69458(9)
H79 H 0.573855 0.311479 0.724429
C65 C 0.15229(17) -0.17535(13) 0.65092(10)
H80 H 0.164491 -0.216797 0.628866
H81 H 0.124915 -0.194945 0.681753
C66 C 0.02321(17) -0.07335(14) 0.65846(9)
H82 H 0.065526 -0.030234 0.662601
C67 C 0.12316(18) -0.12746(15) 0.76812(9)
H83 H 0.111913 -0.174513 0.751964
H84 H 0.118248 -0.134654 0.804108
C68 C 0.3842(2) 0.31400(15) 0.77253(9)
H85 H 0.357086 0.274655 0.792168
H86 H 0.343880 0.356992 0.776055
H87 H 0.449361 0.324701 0.784019
C69 C -0.10587(19) -0.04786(16) 0.69948(10)
H88 H -0.102645 0.000262 0.715108
H89 H -0.167845 -0.071698 0.706863
C70 C -0.08047(18) -0.04713(14) 0.64392(10)
C71 C 0.28683(19) 0.27416(17) 0.70050(11)
H90 H 0.288681 0.264152 0.665119
H91 H 0.244407 0.315305 0.706731
H92 H 0.262477 0.231766 0.717994
C72 C 0.44755(19) 0.34556(14) 0.68747(10)
H93 H 0.426158 0.349470 0.652850
H94 H 0.453947 0.393767 0.702704
C73 C -0.1388(2) -0.10300(18) 0.61560(12)
H95 H -0.113948 -0.106883 0.581976
H96 H -0.206326 -0.088183 0.614620
H97 H -0.133487 -0.149841 0.632021
C74 C -0.0837(2) 0.02541(16) 0.61787(11)
H98 H -0.049546 0.061382 0.637650
H99 H -0.150672 0.040347 0.613591
H100 H -0.052793 0.021198 0.585600
C75 C 0.4455(3) 0.33454(18) 0.26967(13)
N1 N 0.3665(3) 0.3272(2) 0.26235(14)
C76 C 0.5472(3) 0.3447(2) 0.27956(17)
H101 H 0.567588 0.391735 0.266940
H102 H 0.584087 0.306569 0.263314
H103 H 0.558408 0.342686 0.315119
C77 C 0.8897(2) 0.59333(18) 0.63971(11)
H104 H 0.891172 0.586714 0.603959
H105 H 0.824357 0.585062 0.651850
H106 H 0.933755 0.558971 0.655249
C78 C 0.9191(3) 0.6658(2) 0.65160(15)
N2 N 0.9410(4) 0.7228(2) 0.66269(19)
loop_
_geom_bond_atom_site_label_1
_geom_bond_atom_site_label_2
_geom_bond_site_symmetry_1
_geom_bond_site_symmetry_2
O1 C1 1_555 1_555
O2 H1 1_555 1_555
O3 C9 1_555 1_555
O4 C7 1_555 1_555
O5 C14 1_555 1_555
O6 C12 1_555 1_555
C1 C3 1_555 1_555
C2 O2 1_555 1_555
C3 C2 1_555 1_555
C4 C1 1_555 1_555
C5 C4 1_555 1_555
H2 C5 1_555 1_555
H3 C5 1_555 1_555
C6 H4 1_555 1_555
C7 C3 1_555 1_555
H5 C7 1_555 1_555
C8 C2 1_555 1_555
C9 C4 1_555 1_555
C10 C5 1_555 1_555
H6 C10 1_555 1_555
C11 H7 1_555 1_555
C12 C24 1_555 1_555
C13 C6 1_555 1_555
H8 C13 1_555 1_555
H9 C13 1_555 1_555
C14 C16 1_555 1_555
C15 H10 1_555 1_555
H11 C15 1_555 1_555
C16 H12 1_555 1_555
H13 C16 1_555 1_555
C17 O3 1_555 1_555
C18 C10 1_555 1_555
H14 C18 1_555 1_555
H15 C18 1_555 1_555
C19 H16 1_555 1_555
H17 C19 1_555 1_555
C20 O1 1_555 1_555
C21 C11 1_555 1_555
H18 C21 1_555 1_555
C22 C11 1_555 1_555
H19 C22 1_555 1_555
H20 C22 1_555 1_555
C23 C11 1_555 1_555
C24 C18 1_555 1_555
H21 C24 1_555 1_555
H22 C24 1_555 1_555
C25 C17 1_555 1_555
H23 C25 1_555 1_555
H24 C25 1_555 1_555
H25 C25 1_555 1_555
C26 C20 1_555 1_555
H26 C26 1_555 1_555
H27 C26 1_555 1_555
H28 C26 1_555 1_555
C27 C6 1_555 1_555
H29 C27 1_555 1_555
H30 C27 1_555 1_555
C28 C19 1_555 1_555
H31 C28 1_555 1_555
H32 C28 1_555 1_555
C29 C28 1_555 1_555
H33 C29 1_555 1_555
C30 C29 1_555 1_555
C31 C21 1_555 1_555
H34 C31 1_555 1_555
H35 C31 1_555 1_555
C32 C23 1_555 1_555
H36 C32 1_555 1_555
H37 C32 1_555 1_555
H38 C32 1_555 1_555
C33 C12 1_555 1_555
H39 C33 1_555 1_555
C34 C30 1_555 1_555
H40 C34 1_555 1_555
H41 C34 1_555 1_555
H42 C34 1_555 1_555
C35 C30 1_555 1_555
H43 C35 1_555 1_555
H44 C35 1_555 1_555
H45 C35 1_555 1_555
C36 C30 1_555 1_555
H46 C36 1_555 1_555
H47 C36 1_555 1_555
C37 C23 1_555 1_555
H48 C37 1_555 1_555
H49 C37 1_555 1_555
H50 C37 1_555 1_555
O7 C38 1_555 1_555
O8 C40 1_555 1_555
O9 C57 1_555 1_555
O10 H51 1_555 1_555
O11 C47 1_555 1_555
O12 C52 1_555 1_555
C38 C41 1_555 1_555
C39 O10 1_555 1_555
C40 C41 1_555 1_555
C41 C53 1_555 1_555
C42 C39 1_555 1_555
C43 H52 1_555 1_555
C44 C38 1_555 1_555
C45 C43 1_555 1_555
H53 C45 1_555 1_555
H54 C45 1_555 1_555
C46 C44 1_555 1_555
H55 C46 1_555 1_555
H56 C46 1_555 1_555
C47 C49 1_555 1_555
C48 C46 1_555 1_555
H57 C48 1_555 1_555
C49 H58 1_555 1_555
H59 C49 1_555 1_555
C50 O7 1_555 1_555
C51 C43 1_555 1_555
C52 C63 1_555 1_555
C53 H60 1_555 1_555
H61 C53 1_555 1_555
C54 C45 1_555 1_555
H62 C54 1_555 1_555
H63 C54 1_555 1_555
C55 C53 1_555 1_555
H64 C55 1_555 1_555
C56 O8 1_555 1_555
C57 C42 1_555 1_555
H65 C57 1_555 1_555
C58 C48 1_555 1_555
H66 C58 1_555 1_555
H67 C58 1_555 1_555
C59 C50 1_555 1_555
H68 C59 1_555 1_555
H69 C59 1_555 1_555
H70 C59 1_555 1_555
C60 C55 1_555 1_555
H71 C60 1_555 1_555
H72 C60 1_555 1_555
C61 H73 1_555 1_555
H74 C61 1_555 1_555
C62 C56 1_555 1_555
H75 C62 1_555 1_555
H76 C62 1_555 1_555
H77 C62 1_555 1_555
C63 H78 1_555 1_555
C64 C43 1_555 1_555
H79 C64 1_555 1_555
C65 C56 1_555 1_555
H80 C65 1_555 1_555
H81 C65 1_555 1_555
C66 C61 1_555 1_555
H82 C66 1_555 1_555
C67 C52 1_555 1_555
H83 C67 1_555 1_555
H84 C67 1_555 1_555
C68 C51 1_555 1_555
H85 C68 1_555 1_555
H86 C68 1_555 1_555
H87 C68 1_555 1_555
C69 C63 1_555 1_555
H88 C69 1_555 1_555
H89 C69 1_555 1_555
C70 C66 1_555 1_555
C71 C51 1_555 1_555
H90 C71 1_555 1_555
H91 C71 1_555 1_555
H92 C71 1_555 1_555
C72 C51 1_555 1_555
H93 C72 1_555 1_555
H94 C72 1_555 1_555
C73 C70 1_555 1_555
H95 C73 1_555 1_555
H96 C73 1_555 1_555
H97 C73 1_555 1_555
C74 C70 1_555 1_555
H98 C74 1_555 1_555
H99 C74 1_555 1_555
H100 C74 1_555 1_555
C75 N1 1_555 1_555
C76 C75 1_555 1_555
H101 C76 1_555 1_555
H102 C76 1_555 1_555
H103 C76 1_555 1_555
C77 H104 1_555 1_555
H105 C77 1_555 1_555
H106 C77 1_555 1_555
C78 C77 1_555 1_555
N2 C78 1_555 1_555
C6 C17 1_555 1_555
C8 C9 1_555 1_555
C8 C13 1_555 1_555
C10 C20 1_555 1_555
C14 C21 1_555 1_555
C15 C17 1_555 1_555
C15 C22 1_555 1_555
C16 C27 1_555 1_555
C19 C20 1_555 1_555
C23 C31 1_555 1_555
C29 C33 1_555 1_555
C33 C36 1_555 1_555
C39 C44 1_555 1_555
C40 C42 1_555 1_555
C47 C64 1_555 1_555
C48 C50 1_555 1_555
C49 C58 1_555 1_555
C50 C54 1_555 1_555
C55 C56 1_555 1_555
C60 C67 1_555 1_555
C61 C65 1_555 1_555
C63 C66 1_555 1_555
C64 C72 1_555 1_555
C69 C70 1_555 1_555

#END
