
#######################################################################
#
#                 Cambridge Crystallographic Data Centre
#                                CCDC 
#
#######################################################################
#
# If this CIF has been generated from an entry in the Cambridge 
# Structural Database, then it will include bibliographic, chemical, 
# crystal, experimental, refinement or atomic coordinate data resulting 
# from the CCDC's data processing and validation procedures.
#
#######################################################################

data_BIRHOC
_chemical_formula_moiety         'C43 H37 B1 N2,C6 H14'
_chemical_name_systematic        
2-{4-[bis(2,4,6-trimethylphenyl)boranyl]phenyl}-1-(pyridin-2-yl)indolizino[3,4,5-ab]isoindole
_symmetry_cell_setting           triclinic
_symmetry_space_group_name_H-M   'P -1'
_symmetry_Int_Tables_number      2
_space_group_name_Hall           '-P 1'
loop_
_symmetry_equiv_pos_site_id
_symmetry_equiv_pos_as_xyz
1 x,y,z
2 -x,-y,-z
_cell_length_a                   8.489(3)
_cell_length_b                   12.387(7)
_cell_length_c                   17.400(6)
_cell_angle_alpha                98.386(18)
_cell_angle_beta                 100.888(15)
_cell_angle_gamma                91.61(3)
_cell_volume                     1774.6
_exptl_crystal_colour            orange
_exptl_crystal_description       Block
_cell_formula_units_Z            2
loop_
_atom_site_label
_atom_site_type_symbol
_atom_site_fract_x
_atom_site_fract_y
_atom_site_fract_z
B1 B 0.1230(4) 0.7181(2) 0.59888(16)
N1 N 0.7265(3) 0.3645(2) 0.85010(12)
N2 N 0.2891(3) 0.1950(2) 0.84098(13)
C1 C 0.2192(3) 0.62876(19) 0.63954(14)
C2 C 0.1597(3) 0.57112(19) 0.69305(13)
H1 H 0.0530 0.5813 0.7008
C3 C 0.2509(3) 0.5005(2) 0.73457(14)
H2 H 0.2065 0.4644 0.7708
C4 C 0.4076(3) 0.4809(2) 0.72433(14)
C5 C 0.4676(3) 0.5353(2) 0.66992(14)
H3 H 0.5727 0.5223 0.6607
C6 C 0.3768(3) 0.6076(2) 0.62932(14)
H4 H 0.4219 0.6440 0.5935
C7 C 0.5118(3) 0.4127(2) 0.77195(14)
C8 C 0.6768(3) 0.4436(2) 0.80427(14)
C9 C 0.7929(4) 0.5270(2) 0.80842(16)
H5 H 0.7688 0.5855 0.7792
C10 C 0.9439(4) 0.5243(3) 0.85532(17)
H6 H 1.0219 0.5816 0.8572
C11 C 0.9859(4) 0.4402(3) 0.90020(18)
H7 H 1.0907 0.4409 0.9315
C12 C 0.8748(4) 0.3575(3) 0.89846(15)
C13 C 0.8497(4) 0.2593(3) 0.93328(16)
C14 C 0.9538(5) 0.2101(3) 0.98852(17)
H8 H 1.0601 0.2401 1.0096
C15 C 0.8986(6) 0.1182(3) 1.01109(19)
H9 H 0.9685 0.0833 1.0480
C16 C 0.7426(5) 0.0732(3) 0.98187(19)
H10 H 0.7087 0.0091 0.9997
C17 C 0.6359(4) 0.1200(3) 0.92745(16)
H11 H 0.5302 0.0884 0.9073
C18 C 0.6883(4) 0.2146(2) 0.90319(15)
C19 C 0.6110(3) 0.2871(2) 0.85058(14)
C20 C 0.4734(3) 0.3153(2) 0.80111(14)
C21 C 0.3178(3) 0.2510(2) 0.78371(14)
C22 C 0.2106(3) 0.2456(2) 0.71219(15)
H12 H 0.2355 0.2832 0.6718
C23 C 0.0678(4) 0.1848(2) 0.70089(18)
H13 H -0.0085 0.1813 0.6529
C24 C 0.0365(4) 0.1294(2) 0.7596(2)
H14 H -0.0618 0.0873 0.7532
C25 C 0.1503(4) 0.1360(3) 0.8279(2)
H15 H 0.1290 0.0965 0.8680
C26 C -0.0251(3) 0.76318(19) 0.63404(13)
C27 C -0.0115(3) 0.8045(2) 0.71509(14)
C28 C 0.1476(3) 0.8205(2) 0.77197(15)
H16 H 0.1741 0.8988 0.7895
H17 H 0.2313 0.7886 0.7455
H18 H 0.1409 0.7846 0.8179
C29 C -0.1467(3) 0.8378(2) 0.74468(15)
H19 H -0.1351 0.8640 0.7997
C30 C -0.2968(3) 0.8341(2) 0.69694(16)
C31 C -0.4420(4) 0.8666(3) 0.73117(18)
H20 H -0.4784 0.8069 0.7560
H21 H -0.5283 0.8819 0.6888
H22 H -0.4137 0.9322 0.7710
C32 C -0.3092(3) 0.7984(2) 0.61661(15)
H23 H -0.4106 0.7982 0.5822
C33 C -0.1780(3) 0.7631(2) 0.58497(14)
C34 C -0.2036(4) 0.7251(2) 0.49673(15)
H24 H -0.3184 0.7237 0.4736
H25 H -0.1649 0.6515 0.4868
H26 H -0.1441 0.7754 0.4725
C35 C 0.1838(3) 0.76197(19) 0.52830(13)
C36 C 0.2243(3) 0.6908(2) 0.46459(13)
C37 C 0.1814(4) 0.5697(2) 0.45018(16)
H27 H 0.1215 0.5482 0.3959
H28 H 0.1149 0.5523 0.4875
H29 H 0.2799 0.5299 0.4578
C38 C 0.2999(3) 0.7318(2) 0.40970(14)
H30 H 0.3273 0.6823 0.3678
C39 C 0.3363(3) 0.8422(2) 0.41404(14)
C40 C 0.4188(4) 0.8857(2) 0.35489(17)
H31 H 0.5300 0.8636 0.3622
H32 H 0.4184 0.9657 0.3627
H33 H 0.3620 0.8562 0.3012
C41 C 0.2886(3) 0.9130(2) 0.47399(14)
H34 H 0.3092 0.9895 0.4771
C42 C 0.2116(3) 0.8750(2) 0.52943(13)
C43 C 0.1597(3) 0.9603(2) 0.59119(15)
H35 H 0.1924 1.0337 0.5831
H36 H 0.2108 0.9482 0.6444
H37 H 0.0427 0.9539 0.5857
loop_
_geom_bond_atom_site_label_1
_geom_bond_atom_site_label_2
_geom_bond_site_symmetry_1
_geom_bond_site_symmetry_2
B1 C1 1_555 1_555
N1 C8 1_555 1_555
N2 C21 1_555 1_555
C1 C2 1_555 1_555
C2 H1 1_555 1_555
C3 C2 1_555 1_555
H2 C3 1_555 1_555
C4 C3 1_555 1_555
C5 C4 1_555 1_555
H3 C5 1_555 1_555
C6 C1 1_555 1_555
H4 C6 1_555 1_555
C7 C4 1_555 1_555
C8 C7 1_555 1_555
C9 C8 1_555 1_555
H5 C9 1_555 1_555
C10 C9 1_555 1_555
H6 C10 1_555 1_555
C11 C10 1_555 1_555
H7 C11 1_555 1_555
C12 N1 1_555 1_555
C13 C12 1_555 1_555
C14 C13 1_555 1_555
H8 C14 1_555 1_555
C15 C14 1_555 1_555
H9 C15 1_555 1_555
C16 C15 1_555 1_555
H10 C16 1_555 1_555
C17 C16 1_555 1_555
H11 C17 1_555 1_555
C18 C13 1_555 1_555
C19 N1 1_555 1_555
C20 C7 1_555 1_555
C21 C20 1_555 1_555
C22 C21 1_555 1_555
H12 C22 1_555 1_555
C23 C22 1_555 1_555
H13 C23 1_555 1_555
C24 C23 1_555 1_555
H14 C24 1_555 1_555
C25 N2 1_555 1_555
H15 C25 1_555 1_555
C26 B1 1_555 1_555
C27 C26 1_555 1_555
C28 C27 1_555 1_555
H16 C28 1_555 1_555
H17 C28 1_555 1_555
H18 C28 1_555 1_555
C29 C27 1_555 1_555
H19 C29 1_555 1_555
C30 C29 1_555 1_555
C31 C30 1_555 1_555
H20 C31 1_555 1_555
H21 C31 1_555 1_555
H22 C31 1_555 1_555
C32 C30 1_555 1_555
H23 C32 1_555 1_555
C33 C26 1_555 1_555
C34 C33 1_555 1_555
H24 C34 1_555 1_555
H25 C34 1_555 1_555
H26 C34 1_555 1_555
C35 B1 1_555 1_555
C36 C35 1_555 1_555
C37 C36 1_555 1_555
H27 C37 1_555 1_555
H28 C37 1_555 1_555
H29 C37 1_555 1_555
C38 C36 1_555 1_555
H30 C38 1_555 1_555
C39 C38 1_555 1_555
C40 C39 1_555 1_555
H31 C40 1_555 1_555
H32 C40 1_555 1_555
H33 C40 1_555 1_555
C41 C39 1_555 1_555
H34 C41 1_555 1_555
C42 C35 1_555 1_555
C43 C42 1_555 1_555
H35 C43 1_555 1_555
H36 C43 1_555 1_555
H37 C43 1_555 1_555
C5 C6 1_555 1_555
C11 C12 1_555 1_555
C17 C18 1_555 1_555
C18 C19 1_555 1_555
C19 C20 1_555 1_555
C24 C25 1_555 1_555
C32 C33 1_555 1_555
C41 C42 1_555 1_555

#END
