
#######################################################################
#
#                 Cambridge Crystallographic Data Centre
#                                CCDC 
#
#######################################################################
#
# If this CIF has been generated from an entry in the Cambridge 
# Structural Database, then it will include bibliographic, chemical, 
# crystal, experimental, refinement or atomic coordinate data resulting 
# from the CCDC's data processing and validation procedures.
#
#######################################################################

data_BIRJUK
_chemical_formula_moiety         'C45 H37 B1 N2 S1'
_chemical_name_systematic        
1-(1,3-benzothiazol-2-yl)-2-{2-[bis(2,4,6-trimethylphenyl)boranyl]phenyl}indolizino[3,4,5-ab]isoindole
_symmetry_cell_setting           triclinic
_symmetry_space_group_name_H-M   'P -1'
_symmetry_Int_Tables_number      2
_space_group_name_Hall           '-P 1'
loop_
_symmetry_equiv_pos_site_id
_symmetry_equiv_pos_as_xyz
1 x,y,z
2 -x,-y,-z
_cell_length_a                   11.145(10)
_cell_length_b                   12.992(13)
_cell_length_c                   14.196(13)
_cell_angle_alpha                64.16(3)
_cell_angle_beta                 75.45(3)
_cell_angle_gamma                73.97(3)
_cell_volume                     1757.6
_exptl_crystal_colour            orange
_exptl_crystal_description       Block
_cell_formula_units_Z            2
loop_
_atom_site_label
_atom_site_type_symbol
_atom_site_fract_x
_atom_site_fract_y
_atom_site_fract_z
S1 S 0.21558(7) 0.61647(6) 0.25049(6)
N1 N 0.4284(2) 0.34569(19) 0.07541(16)
N2 N 0.4470(2) 0.5067(2) 0.28129(18)
C1 C 0.0919(2) 0.3424(2) 0.3260(2)
C2 C -0.0352(2) 0.3532(3) 0.3750(2)
H1 H -0.0549 0.3038 0.4473
C3 C -0.1329(3) 0.4332(3) 0.3218(2)
H2 H -0.2178 0.4362 0.3566
C4 C -0.1051(3) 0.5075(3) 0.2185(3)
H3 H -0.1708 0.5633 0.1819
C5 C 0.0196(3) 0.5016(2) 0.1670(2)
H4 H 0.0379 0.5535 0.0955
C6 C 0.1184(2) 0.4195(2) 0.2198(2)
C7 C 0.2508(2) 0.4132(2) 0.1620(2)
C8 C 0.2985(2) 0.3585(2) 0.0887(2)
C9 C 0.2580(3) 0.3144(2) 0.0298(2)
H5 H 0.1704 0.3213 0.0316
C10 C 0.3475(3) 0.2603(3) -0.0313(2)
H6 H 0.3185 0.2323 -0.0716
C11 C 0.4800(3) 0.2450(3) -0.0360(2)
H7 H 0.5381 0.2066 -0.0777
C12 C 0.5222(3) 0.2869(2) 0.0210(2)
C13 C 0.6375(3) 0.2911(2) 0.0479(2)
C14 C 0.7642(3) 0.2397(3) 0.0247(2)
H8 H 0.7864 0.1974 -0.0194
C15 C 0.8556(3) 0.2521(3) 0.0673(2)
H9 H 0.9412 0.2169 0.0530
C16 C 0.8241(3) 0.3161(3) 0.1315(2)
H10 H 0.8892 0.3242 0.1585
C17 C 0.7004(3) 0.3676(2) 0.1562(2)
H11 H 0.6804 0.4102 0.1999
C18 C 0.6053(2) 0.3553(2) 0.1150(2)
C19 C 0.4682(2) 0.3886(2) 0.1318(2)
C20 C 0.3563(2) 0.4365(2) 0.1845(2)
C21 C 0.3514(2) 0.5091(2) 0.2412(2)
C22 C 0.4148(3) 0.5914(2) 0.3245(2)
C23 C 0.4940(3) 0.6118(3) 0.3740(3)
H12 H 0.5772 0.5673 0.3800
C24 C 0.4503(4) 0.6979(3) 0.4145(3)
H13 H 0.5049 0.7128 0.4470
C25 C 0.3269(3) 0.7629(3) 0.4081(3)
H14 H 0.2981 0.8193 0.4384
C26 C 0.2460(3) 0.7461(3) 0.3581(2)
H15 H 0.1630 0.7912 0.3522
C27 C 0.2918(3) 0.6589(2) 0.3161(2)
C28 C 0.1638(2) 0.1936(2) 0.5175(2)
C29 C 0.1450(2) 0.2754(2) 0.5645(2)
C30 C 0.1699(3) 0.3995(3) 0.4998(2)
H16 H 0.1177 0.4395 0.4431
H17 H 0.2593 0.3963 0.4688
H18 H 0.1487 0.4421 0.5461
C31 C 0.1089(2) 0.2435(3) 0.6733(2)
H19 H 0.0974 0.2991 0.7029
C32 C 0.0891(2) 0.1298(3) 0.7400(2)
C33 C 0.0451(3) 0.0982(3) 0.8567(2)
H20 H 0.0546 0.1590 0.8761
H21 H 0.0960 0.0237 0.8967
H22 H -0.0439 0.0914 0.8734
C34 C 0.1125(2) 0.0479(3) 0.6950(2)
H23 H 0.1021 -0.0297 0.7398
C35 C 0.1503(2) 0.0765(2) 0.5869(2)
C36 C 0.1743(3) -0.0216(2) 0.5486(2)
H24 H 0.1149 -0.0026 0.5003
H25 H 0.1624 -0.0945 0.6095
H26 H 0.2610 -0.0306 0.5115
C37 C 0.2960(2) 0.1586(2) 0.33703(19)
C38 C 0.2662(2) 0.1075(2) 0.2768(2)
C39 C 0.1319(3) 0.1162(3) 0.2662(2)
H27 H 0.1319 0.0754 0.2221
H28 H 0.0925 0.1983 0.2330
H29 H 0.0841 0.0804 0.3364
C40 C 0.3629(3) 0.0412(2) 0.2303(2)
H30 H 0.3413 0.0070 0.1914
C41 C 0.4894(3) 0.0236(3) 0.2389(2)
C42 C 0.5905(3) -0.0474(3) 0.1844(3)
H31 H 0.6634 -0.0088 0.1509
H32 H 0.5560 -0.0534 0.1303
H33 H 0.6171 -0.1256 0.2369
C43 C 0.5177(2) 0.0732(2) 0.2978(2)
H34 H 0.6034 0.0625 0.3046
C44 C 0.4249(2) 0.1383(2) 0.3477(2)
C45 C 0.4650(2) 0.1877(3) 0.4117(2)
H35 H 0.5565 0.1843 0.3943
H36 H 0.4430 0.1418 0.4874
H37 H 0.4214 0.2689 0.3946
B1 B 0.1885(3) 0.2328(3) 0.3934(2)
loop_
_geom_bond_atom_site_label_1
_geom_bond_atom_site_label_2
_geom_bond_site_symmetry_1
_geom_bond_site_symmetry_2
S1 C21 1_555 1_555
N1 C8 1_555 1_555
N2 C21 1_555 1_555
C1 C2 1_555 1_555
C2 H1 1_555 1_555
C3 C2 1_555 1_555
H2 C3 1_555 1_555
C4 C3 1_555 1_555
H3 C4 1_555 1_555
C5 C4 1_555 1_555
H4 C5 1_555 1_555
C6 C1 1_555 1_555
C7 C6 1_555 1_555
C8 C7 1_555 1_555
C9 C8 1_555 1_555
H5 C9 1_555 1_555
C10 C9 1_555 1_555
H6 C10 1_555 1_555
C11 C10 1_555 1_555
H7 C11 1_555 1_555
C12 N1 1_555 1_555
C13 C12 1_555 1_555
C14 C13 1_555 1_555
H8 C14 1_555 1_555
C15 C14 1_555 1_555
H9 C15 1_555 1_555
C16 C15 1_555 1_555
H10 C16 1_555 1_555
C17 C16 1_555 1_555
H11 C17 1_555 1_555
C18 C13 1_555 1_555
C19 N1 1_555 1_555
C20 C7 1_555 1_555
C21 C20 1_555 1_555
C22 N2 1_555 1_555
C23 C22 1_555 1_555
H12 C23 1_555 1_555
C24 C23 1_555 1_555
H13 C24 1_555 1_555
C25 C24 1_555 1_555
H14 C25 1_555 1_555
C26 C25 1_555 1_555
H15 C26 1_555 1_555
C27 S1 1_555 1_555
C28 C29 1_555 1_555
C29 C30 1_555 1_555
C30 H16 1_555 1_555
H17 C30 1_555 1_555
H18 C30 1_555 1_555
C31 C29 1_555 1_555
H19 C31 1_555 1_555
C32 C31 1_555 1_555
C33 C32 1_555 1_555
H20 C33 1_555 1_555
H21 C33 1_555 1_555
H22 C33 1_555 1_555
C34 C32 1_555 1_555
H23 C34 1_555 1_555
C35 C28 1_555 1_555
C36 C35 1_555 1_555
H24 C36 1_555 1_555
H25 C36 1_555 1_555
H26 C36 1_555 1_555
C37 C38 1_555 1_555
C38 C39 1_555 1_555
C39 H27 1_555 1_555
H28 C39 1_555 1_555
H29 C39 1_555 1_555
C40 C38 1_555 1_555
H30 C40 1_555 1_555
C41 C40 1_555 1_555
C42 C41 1_555 1_555
H31 C42 1_555 1_555
H32 C42 1_555 1_555
H33 C42 1_555 1_555
C43 C41 1_555 1_555
H34 C43 1_555 1_555
C44 C37 1_555 1_555
C45 C44 1_555 1_555
H35 C45 1_555 1_555
H36 C45 1_555 1_555
H37 C45 1_555 1_555
B1 C1 1_555 1_555
C5 C6 1_555 1_555
C11 C12 1_555 1_555
C17 C18 1_555 1_555
C18 C19 1_555 1_555
C19 C20 1_555 1_555
C22 C27 1_555 1_555
C26 C27 1_555 1_555
C28 B1 1_555 1_555
C34 C35 1_555 1_555
C37 B1 1_555 1_555
C43 C44 1_555 1_555

#END
