
#######################################################################
#
#                 Cambridge Crystallographic Data Centre
#                                CCDC 
#
#######################################################################
#
# If this CIF has been generated from an entry in the Cambridge 
# Structural Database, then it will include bibliographic, chemical, 
# crystal, experimental, refinement or atomic coordinate data resulting 
# from the CCDC's data processing and validation procedures.
#
#######################################################################

data_BIRJOE
_chemical_formula_moiety         'C47 H39 B1 N2,C6 H14'
_chemical_name_systematic        
"12,12-bis(2,4,6-trimethylphenyl)-12H-11\l^5^,12\l^5^-isoindolo[1',2',3':3,4,5]indolizino[2,1-d]isoquinolino[2,1-b][2,1]benzazaborepine n-hexane solvate"
_symmetry_cell_setting           triclinic
_symmetry_space_group_name_H-M   'P -1'
_symmetry_Int_Tables_number      2
_space_group_name_Hall           '-P 1'
loop_
_symmetry_equiv_pos_site_id
_symmetry_equiv_pos_as_xyz
1 x,y,z
2 -x,-y,-z
_cell_length_a                   13.873(19)
_cell_length_b                   16.28(2)
_cell_length_c                   17.74(3)
_cell_angle_alpha                86.66(4)
_cell_angle_beta                 80.14(4)
_cell_angle_gamma                72.27(4)
_cell_volume                     3759.87
_exptl_crystal_colour            red
_exptl_crystal_description       Block
_cell_formula_units_Z            4
loop_
_atom_site_label
_atom_site_type_symbol
_atom_site_fract_x
_atom_site_fract_y
_atom_site_fract_z
N3 N 0.7668(2) 1.06836(19) 0.11970(16)
N4 N 0.6936(2) 1.13147(18) 0.37285(16)
B2 B 0.7795(3) 0.9633(3) 0.1499(2)
C48 C 0.6624(3) 0.9609(2) 0.1845(2)
C49 C 0.6199(3) 0.9001(2) 0.1587(2)
H40 H 0.6580 0.8646 0.1165
C50 C 0.5264(3) 0.8900(3) 0.1916(2)
H41 H 0.5028 0.8466 0.1741
C51 C 0.4676(3) 0.9445(3) 0.2508(2)
H42 H 0.4016 0.9406 0.2724
C52 C 0.5055(3) 1.0051(2) 0.2784(2)
H43 H 0.4652 1.0416 0.3193
C53 C 0.6012(3) 1.0128(2) 0.2470(2)
C54 C 0.6419(2) 1.0714(2) 0.28436(19)
C55 C 0.6372(2) 1.0772(2) 0.3639(2)
C56 C 0.6016(3) 1.0419(2) 0.4331(2)
H44 H 0.5600 1.0049 0.4338
C57 C 0.6276(3) 1.0614(3) 0.5006(2)
H45 H 0.6018 1.0376 0.5470
C58 C 0.6896(3) 1.1143(3) 0.5039(2)
H46 H 0.7061 1.1253 0.5514
C59 C 0.7264(3) 1.1502(2) 0.4371(2)
C60 C 0.7943(3) 1.2014(2) 0.4087(2)
C61 C 0.8508(3) 1.2386(3) 0.4462(2)
H47 H 0.8476 1.2328 0.5001
C62 C 0.9110(3) 1.2834(3) 0.4046(3)
H48 H 0.9500 1.3090 0.4296
C63 C 0.9153(3) 1.2917(3) 0.3255(3)
H49 H 0.9572 1.3233 0.2976
C64 C 0.8606(3) 1.2556(2) 0.2864(2)
H50 H 0.8646 1.2623 0.2325
C65 C 0.7990(3) 1.2089(2) 0.3279(2)
C66 C 0.7338(3) 1.1620(2) 0.3061(2)
C67 C 0.7013(2) 1.1242(2) 0.24896(19)
C68 C 0.7264(2) 1.1376(2) 0.1667(2)
C69 C 0.7125(2) 1.2237(2) 0.1376(2)
C70 C 0.6623(2) 1.2977(2) 0.1846(2)
H51 H 0.6369 1.2905 0.2370
C71 C 0.6505(3) 1.3791(3) 0.1547(2)
H52 H 0.6194 1.4276 0.1872
C72 C 0.6834(3) 1.3918(3) 0.0772(3)
H53 H 0.6737 1.4485 0.0570
C73 C 0.7298(3) 1.3218(3) 0.0305(2)
H54 H 0.7520 1.3305 -0.0222
C74 C 0.7450(3) 1.2369(3) 0.0598(2)
C75 C 0.7939(3) 1.1631(3) 0.0144(2)
H55 H 0.8208 1.1696 -0.0378
C76 C 0.8032(3) 1.0829(3) 0.0443(2)
H56 H 0.8362 1.0345 0.0119
C77 C 0.8274(3) 0.8998(2) 0.0737(2)
C78 C 0.9195(3) 0.8303(2) 0.0671(2)
C79 C 0.9910(3) 0.8093(2) 0.1265(2)
H57 H 1.0529 0.7626 0.1076
H58 H 0.9561 0.7910 0.1744
H59 H 1.0100 0.8606 0.1358
C80 C 0.9516(3) 0.7765(3) 0.0033(2)
H60 H 1.0160 0.7332 0.0004
C81 C 0.8983(3) 0.7814(3) -0.0546(2)
C82 C 0.9340(4) 0.7190(3) -0.1221(3)
H61 H 0.9397 0.7515 -0.1701
H62 H 0.8842 0.6874 -0.1224
H63 H 1.0010 0.6781 -0.1171
C83 C 0.8093(3) 0.8492(3) -0.0510(2)
H64 H 0.7707 0.8579 -0.0917
C84 C 0.7742(3) 0.9057(2) 0.0111(2)
C85 C 0.6767(3) 0.9756(2) 0.0033(2)
H65 H 0.6870 1.0084 -0.0439
H66 H 0.6575 1.0143 0.0473
H67 H 0.6219 0.9497 0.0015
C86 C 0.8471(2) 0.9499(2) 0.21973(19)
C87 C 0.9197(3) 0.9943(2) 0.2248(2)
C88 C 0.9617(3) 1.0446(2) 0.1589(2)
H68 H 0.9659 1.0169 0.1104
H69 H 1.0302 1.0453 0.1653
H70 H 0.9160 1.1039 0.1588
C89 C 0.9629(3) 0.9896(3) 0.2907(2)
H71 H 1.0087 1.0220 0.2933
C90 C 0.9410(3) 0.9388(3) 0.3525(2)
C91 C 0.9891(3) 0.9365(3) 0.4229(2)
H72 H 1.0629 0.9275 0.4078
H73 H 0.9778 0.8892 0.4565
H74 H 0.9578 0.9913 0.4501
C92 C 0.8785(3) 0.8896(3) 0.3445(2)
H75 H 0.8662 0.8515 0.3851
C93 C 0.8331(2) 0.8926(2) 0.2816(2)
C94 C 0.7737(3) 0.8270(2) 0.2788(2)
H76 H 0.7799 0.8101 0.2256
H77 H 0.7012 0.8534 0.2997
H78 H 0.8022 0.7760 0.3092
N1 N 0.6511(2) 0.55328(19) 0.79284(17)
N2 N 0.6179(2) 0.74785(18) 0.60178(17)
B1 B 0.6724(3) 0.4794(3) 0.7226(2)
C1 C 0.5593(3) 0.4936(2) 0.6976(2)
C2 C 0.5129(3) 0.4270(2) 0.6983(2)
H1 H 0.5465 0.3721 0.7179
C3 C 0.4220(3) 0.4373(3) 0.6720(2)
H2 H 0.3937 0.3907 0.6744
C4 C 0.3734(3) 0.5144(3) 0.6429(2)
H3 H 0.3099 0.5229 0.6257
C5 C 0.4170(3) 0.5811(3) 0.6383(2)
H4 H 0.3835 0.6345 0.6162
C6 C 0.5079(3) 0.5723(2) 0.6650(2)
C7 C 0.5529(2) 0.6442(2) 0.65406(19)
C8 C 0.5636(3) 0.6928(2) 0.5860(2)
C9 C 0.5470(3) 0.6956(3) 0.5101(2)
H5 H 0.5104 0.6609 0.4940
C10 C 0.5858(3) 0.7508(3) 0.4584(2)
H6 H 0.5718 0.7545 0.4076
C11 C 0.6440(3) 0.8008(2) 0.4779(2)
H7 H 0.6706 0.8353 0.4399
C12 C 0.6630(3) 0.8005(2) 0.5517(2)
C13 C 0.7196(3) 0.8309(2) 0.5984(2)
C14 C 0.7822(3) 0.8853(3) 0.5819(3)
H8 H 0.7923 0.9089 0.5320
C15 C 0.8287(3) 0.9042(3) 0.6378(3)
H9 H 0.8704 0.9415 0.6269
C16 C 0.8149(3) 0.8688(3) 0.7109(3)
H10 H 0.8472 0.8831 0.7492
C17 C 0.7557(3) 0.8135(2) 0.7295(2)
H11 H 0.7489 0.7891 0.7793
C18 C 0.7061(3) 0.7940(2) 0.6736(2)
C19 C 0.6409(2) 0.7398(2) 0.6729(2)
C20 C 0.5997(3) 0.6734(2) 0.7069(2)
C21 C 0.6128(2) 0.6401(2) 0.7833(2)
C22 C 0.5911(3) 0.6991(2) 0.8464(2)
C23 C 0.5418(3) 0.7889(2) 0.8385(2)
H12 H 0.5221 0.8113 0.7909
C24 C 0.5222(3) 0.8434(3) 0.8991(2)
H13 H 0.4922 0.9035 0.8920
C25 C 0.5449(3) 0.8132(3) 0.9701(3)
H14 H 0.5287 0.8518 1.0118
C26 C 0.5916(3) 0.7262(3) 0.9801(2)
H15 H 0.6078 0.7050 1.0289
C27 C 0.6156(3) 0.6682(3) 0.9179(2)
C28 C 0.6631(3) 0.5790(3) 0.9238(2)
H16 H 0.6852 0.5552 0.9704
C29 C 0.6776(3) 0.5266(3) 0.8632(2)
H17 H 0.7086 0.4667 0.8702
C30 C 0.7087(3) 0.3808(2) 0.7602(2)
C31 C 0.6437(3) 0.3500(2) 0.8187(2)
C32 C 0.5461(3) 0.4079(2) 0.8654(2)
H18 H 0.5314 0.4667 0.8445
H19 H 0.5557 0.4086 0.9188
H20 H 0.4886 0.3856 0.8629
C33 C 0.6636(3) 0.2628(2) 0.8392(2)
H21 H 0.6180 0.2463 0.8792
C34 C 0.7474(3) 0.1999(2) 0.8029(2)
C35 C 0.7641(3) 0.1050(2) 0.8210(2)
H22 H 0.7696 0.0740 0.7739
H23 H 0.7060 0.0979 0.8580
H24 H 0.8274 0.0817 0.8427
C36 C 0.8145(3) 0.2291(2) 0.7502(2)
H25 H 0.8752 0.1879 0.7266
C37 C 0.7992(3) 0.3159(2) 0.7292(2)
C38 C 0.8864(3) 0.3337(3) 0.6734(2)
H26 H 0.8662 0.3463 0.6227
H27 H 0.9472 0.2830 0.6704
H28 H 0.9023 0.3834 0.6910
C39 C 0.7492(3) 0.5063(2) 0.6516(2)
C40 C 0.7443(3) 0.4889(2) 0.5748(2)
C41 C 0.6882(3) 0.4271(3) 0.5537(2)
H29 H 0.6174 0.4597 0.5490
H30 H 0.6882 0.3830 0.5939
H31 H 0.7234 0.3991 0.5049
C42 C 0.7963(3) 0.5246(3) 0.5127(2)
H32 H 0.7909 0.5121 0.4623
C43 C 0.8549(3) 0.5771(3) 0.5222(3)
C44 C 0.9072(4) 0.6169(3) 0.4548(3)
H33 H 0.9484 0.5716 0.4183
H34 H 0.9517 0.6457 0.4724
H35 H 0.8553 0.6591 0.4297
C45 C 0.8680(3) 0.5877(3) 0.5954(3)
H36 H 0.9117 0.6203 0.6033
C46 C 0.8190(3) 0.5519(2) 0.6597(2)
C47 C 0.8520(3) 0.5618(3) 0.7356(3)
H37 H 0.9234 0.5626 0.7263
H38 H 0.8460 0.5131 0.7694
H39 H 0.8079 0.6158 0.7599
loop_
_geom_bond_atom_site_label_1
_geom_bond_atom_site_label_2
_geom_bond_site_symmetry_1
_geom_bond_site_symmetry_2
N1 B1 1_555 1_555
N2 C8 1_555 1_555
B1 C1 1_555 1_555
C1 C2 1_555 1_555
C2 H1 1_555 1_555
C3 C2 1_555 1_555
H2 C3 1_555 1_555
C4 C3 1_555 1_555
H3 C4 1_555 1_555
C5 C4 1_555 1_555
H4 C5 1_555 1_555
C6 C1 1_555 1_555
C7 C6 1_555 1_555
C8 C7 1_555 1_555
C9 C8 1_555 1_555
H5 C9 1_555 1_555
C10 C9 1_555 1_555
H6 C10 1_555 1_555
C11 C10 1_555 1_555
H7 C11 1_555 1_555
C12 N2 1_555 1_555
C13 C12 1_555 1_555
C14 C13 1_555 1_555
H8 C14 1_555 1_555
C15 C14 1_555 1_555
H9 C15 1_555 1_555
C16 C15 1_555 1_555
H10 C16 1_555 1_555
C17 C16 1_555 1_555
H11 C17 1_555 1_555
C18 C13 1_555 1_555
C19 N2 1_555 1_555
C20 C7 1_555 1_555
C21 N1 1_555 1_555
C22 C21 1_555 1_555
C23 C22 1_555 1_555
H12 C23 1_555 1_555
C24 C23 1_555 1_555
H13 C24 1_555 1_555
C25 C24 1_555 1_555
H14 C25 1_555 1_555
C26 C25 1_555 1_555
H15 C26 1_555 1_555
C27 C22 1_555 1_555
C28 C27 1_555 1_555
H16 C28 1_555 1_555
C29 N1 1_555 1_555
H17 C29 1_555 1_555
C30 B1 1_555 1_555
C31 C30 1_555 1_555
C32 C31 1_555 1_555
H18 C32 1_555 1_555
H19 C32 1_555 1_555
H20 C32 1_555 1_555
C33 C31 1_555 1_555
H21 C33 1_555 1_555
C34 C33 1_555 1_555
C35 C34 1_555 1_555
H22 C35 1_555 1_555
H23 C35 1_555 1_555
H24 C35 1_555 1_555
C36 C34 1_555 1_555
H25 C36 1_555 1_555
C37 C30 1_555 1_555
C38 C37 1_555 1_555
H26 C38 1_555 1_555
H27 C38 1_555 1_555
H28 C38 1_555 1_555
C39 B1 1_555 1_555
C40 C39 1_555 1_555
C41 C40 1_555 1_555
H29 C41 1_555 1_555
H30 C41 1_555 1_555
H31 C41 1_555 1_555
C42 C40 1_555 1_555
H32 C42 1_555 1_555
C43 C42 1_555 1_555
C44 C43 1_555 1_555
H33 C44 1_555 1_555
H34 C44 1_555 1_555
H35 C44 1_555 1_555
C45 C43 1_555 1_555
H36 C45 1_555 1_555
C46 C39 1_555 1_555
C47 C46 1_555 1_555
H37 C47 1_555 1_555
H38 C47 1_555 1_555
H39 C47 1_555 1_555
N3 B2 1_555 1_555
N4 C55 1_555 1_555
B2 C48 1_555 1_555
C48 C49 1_555 1_555
C49 H40 1_555 1_555
C50 C49 1_555 1_555
H41 C50 1_555 1_555
C51 C50 1_555 1_555
H42 C51 1_555 1_555
C52 C51 1_555 1_555
H43 C52 1_555 1_555
C53 C48 1_555 1_555
C54 C53 1_555 1_555
C55 C54 1_555 1_555
C56 C55 1_555 1_555
H44 C56 1_555 1_555
C57 C56 1_555 1_555
H45 C57 1_555 1_555
C58 C57 1_555 1_555
H46 C58 1_555 1_555
C59 N4 1_555 1_555
C60 C59 1_555 1_555
C61 C60 1_555 1_555
H47 C61 1_555 1_555
C62 C61 1_555 1_555
H48 C62 1_555 1_555
C63 C62 1_555 1_555
H49 C63 1_555 1_555
C64 C63 1_555 1_555
H50 C64 1_555 1_555
C65 C60 1_555 1_555
C66 N4 1_555 1_555
C67 C54 1_555 1_555
C68 N3 1_555 1_555
C69 C68 1_555 1_555
C70 C69 1_555 1_555
H51 C70 1_555 1_555
C71 C70 1_555 1_555
H52 C71 1_555 1_555
C72 C71 1_555 1_555
H53 C72 1_555 1_555
C73 C72 1_555 1_555
H54 C73 1_555 1_555
C74 C69 1_555 1_555
C75 C74 1_555 1_555
H55 C75 1_555 1_555
C76 N3 1_555 1_555
H56 C76 1_555 1_555
C77 B2 1_555 1_555
C78 C77 1_555 1_555
C79 C78 1_555 1_555
H57 C79 1_555 1_555
H58 C79 1_555 1_555
H59 C79 1_555 1_555
C80 C78 1_555 1_555
H60 C80 1_555 1_555
C81 C80 1_555 1_555
C82 C81 1_555 1_555
H61 C82 1_555 1_555
H62 C82 1_555 1_555
H63 C82 1_555 1_555
C83 C81 1_555 1_555
H64 C83 1_555 1_555
C84 C77 1_555 1_555
C85 C84 1_555 1_555
H65 C85 1_555 1_555
H66 C85 1_555 1_555
H67 C85 1_555 1_555
C86 B2 1_555 1_555
C87 C86 1_555 1_555
C88 C87 1_555 1_555
H68 C88 1_555 1_555
H69 C88 1_555 1_555
H70 C88 1_555 1_555
C89 C87 1_555 1_555
H71 C89 1_555 1_555
C90 C89 1_555 1_555
C91 C90 1_555 1_555
H72 C91 1_555 1_555
H73 C91 1_555 1_555
H74 C91 1_555 1_555
C92 C90 1_555 1_555
H75 C92 1_555 1_555
C93 C86 1_555 1_555
C94 C93 1_555 1_555
H76 C94 1_555 1_555
H77 C94 1_555 1_555
H78 C94 1_555 1_555
C5 C6 1_555 1_555
C11 C12 1_555 1_555
C17 C18 1_555 1_555
C18 C19 1_555 1_555
C19 C20 1_555 1_555
C20 C21 1_555 1_555
C26 C27 1_555 1_555
C28 C29 1_555 1_555
C36 C37 1_555 1_555
C45 C46 1_555 1_555
C52 C53 1_555 1_555
C58 C59 1_555 1_555
C64 C65 1_555 1_555
C65 C66 1_555 1_555
C66 C67 1_555 1_555
C67 C68 1_555 1_555
C73 C74 1_555 1_555
C75 C76 1_555 1_555
C83 C84 1_555 1_555
C92 C93 1_555 1_555

#END
