
#######################################################################
#
#                 Cambridge Crystallographic Data Centre
#                                CCDC 
#
#######################################################################
#
# If this CIF has been generated from an entry in the Cambridge 
# Structural Database, then it will include bibliographic, chemical, 
# crystal, experimental, refinement or atomic coordinate data resulting 
# from the CCDC's data processing and validation procedures.
#
#######################################################################

data_BIRJEU
_chemical_formula_moiety         'C43 H37 B1 N2'
_chemical_name_systematic        
5,5-bis(2,4,6-trimethylphenyl)-5H-6\l^5^,5\l^5^-isoindolo[1',2',3':3,4,5]indolizino[1,2-d]pyrido[1,2-b][2,1]benzazaborepine
_symmetry_cell_setting           triclinic
_symmetry_space_group_name_H-M   'P -1'
_symmetry_Int_Tables_number      2
_space_group_name_Hall           '-P 1'
loop_
_symmetry_equiv_pos_site_id
_symmetry_equiv_pos_as_xyz
1 x,y,z
2 -x,-y,-z
_cell_length_a                   9.296(6)
_cell_length_b                   18.788(10)
_cell_length_c                   19.886(11)
_cell_angle_alpha                111.16(2)
_cell_angle_beta                 90.63(2)
_cell_angle_gamma                97.62(2)
_cell_volume                     3203.86
_exptl_crystal_colour            red
_exptl_crystal_description       Block
_cell_formula_units_Z            4
loop_
_atom_site_label
_atom_site_type_symbol
_atom_site_fract_x
_atom_site_fract_y
_atom_site_fract_z
N1 N 0.9838(2) 0.65333(12) 0.97007(11)
N2 N 0.9546(2) 0.91330(13) 1.07051(14)
B1 B 0.8171(3) 0.64075(16) 0.92639(15)
C1 C 0.8409(3) 0.68285(15) 0.86666(14)
C2 C 0.7925(3) 0.64284(16) 0.79451(14)
H1 H 0.7575 0.5892 0.7792
C3 C 0.7934(3) 0.67839(19) 0.74393(16)
H2 H 0.7576 0.6498 0.6954
C4 C 0.8478(3) 0.75651(18) 0.76581(18)
H3 H 0.8522 0.7811 0.7316
C5 C 0.8952(3) 0.79840(18) 0.83676(17)
H4 H 0.9312 0.8518 0.8509
C6 C 0.8911(3) 0.76372(16) 0.88804(16)
C7 C 0.9303(3) 0.81402(15) 0.96400(15)
C8 C 1.0068(3) 0.79572(15) 1.01510(15)
C9 C 1.0640(3) 0.72512(15) 1.00555(14)
C10 C 1.2018(3) 0.73183(16) 1.03761(15)
H5 H 1.2574 0.7815 1.0598
C11 C 1.2579(3) 0.66873(17) 1.03778(15)
H6 H 1.3523 0.6735 1.0591
C12 C 1.1727(3) 0.59665(16) 1.00565(15)
H7 H 1.2066 0.5516 1.0068
C13 C 1.0401(3) 0.59156(15) 0.97253(14)
H8 H 0.9845 0.5419 0.9500
C14 C 0.8989(3) 0.89098(16) 1.00161(16)
C15 C 0.8189(3) 0.95073(17) 1.00083(18)
C16 C 0.7377(3) 0.96239(19) 0.9486(2)
H9 H 0.7271 0.9256 0.9006
C17 C 0.6721(4) 1.0271(2) 0.9659(2)
H10 H 0.6162 1.0350 0.9295
C18 C 0.6863(4) 1.0826(2) 1.0371(3)
H11 H 0.6394 1.1270 1.0478
C19 C 0.7669(4) 1.0735(2) 1.0912(2)
H12 H 0.7767 1.1106 1.1391
C20 C 0.8327(3) 1.00800(17) 1.07268(18)
C21 C 0.9215(3) 0.98216(16) 1.11894(19)
C22 C 0.9725(4) 1.0037(2) 1.1905(2)
H13 H 0.9561 1.0511 1.2261
C23 C 1.0498(4) 0.9520(2) 1.20786(19)
H14 H 1.0871 0.9663 1.2563
C24 C 1.0738(3) 0.88211(17) 1.15844(17)
H15 H 1.1237 0.8487 1.1732
C25 C 1.0226(3) 0.86003(16) 1.08388(16)
C26 C 0.7191(2) 0.69081(14) 0.99111(13)
C27 C 0.7392(3) 0.69801(15) 1.06440(14)
C28 C 0.6839(3) 0.75505(17) 1.12028(15)
H16 H 0.7001 0.7581 1.1686
C29 C 0.6064(3) 0.80717(16) 1.10762(16)
C30 C 0.5715(3) 0.79451(15) 1.03616(16)
H17 H 0.5114 0.8269 1.0258
C31 C 0.6205(3) 0.73611(14) 0.97800(14)
C32 C 0.5557(3) 0.72389(18) 0.90383(16)
H18 H 0.4521 0.7288 0.9066
H19 H 0.5673 0.6722 0.8702
H20 H 0.6059 0.7627 0.8866
C33 C 0.8149(3) 0.64327(18) 1.08698(16)
H21 H 0.7708 0.6371 1.1294
H22 H 0.9182 0.6641 1.0989
H23 H 0.8048 0.5930 1.0473
C34 C 0.5566(4) 0.87291(19) 1.16892(19)
H24 H 0.5854 0.8698 1.2152
H25 H 0.4505 0.8691 1.1641
H26 H 0.6016 0.9223 1.1670
C35 C 0.7666(3) 0.54622(14) 0.88435(13)
C36 C 0.8554(3) 0.49985(15) 0.83388(13)
C37 C 0.8160(3) 0.42009(15) 0.79914(14)
H27 H 0.8804 0.3921 0.7665
C38 C 0.6881(3) 0.38007(15) 0.80994(14)
C39 C 0.5978(3) 0.42453(14) 0.85674(13)
H28 H 0.5078 0.3996 0.8652
C40 C 0.6326(3) 0.50501(14) 0.89252(13)
C41 C 0.5144(3) 0.54394(15) 0.93640(15)
H29 H 0.4288 0.5055 0.9316
H30 H 0.4880 0.5832 0.9188
H31 H 0.5496 0.5684 0.9873
C42 C 0.9988(3) 0.53169(16) 0.81208(15)
H32 H 0.9927 0.5206 0.7600
H33 H 1.0773 0.5074 0.8240
H34 H 1.0188 0.5876 0.8382
C43 C 0.6461(3) 0.29346(16) 0.77097(17)
H35 H 0.6598 0.2799 0.7193
H36 H 0.5439 0.2785 0.7778
H37 H 0.7075 0.2662 0.7907
N3 N 0.5513(2) 0.36115(11) 0.59061(11)
N4 N 0.5453(2) 0.10179(12) 0.45961(11)
B2 B 0.3660(3) 0.33984(17) 0.57068(16)
C44 C 0.3049(2) 0.28622(14) 0.61712(13)
C45 C 0.1930(3) 0.30637(16) 0.66362(14)
H38 H 0.1594 0.3542 0.6716
C46 C 0.1750(3) 0.19011(16) 0.68880(14)
H39 H 0.1321 0.1584 0.7133
C47 C 0.1290(3) 0.25970(16) 0.69859(14)
H40 H 0.0529 0.2758 0.7295
C48 C 0.2832(3) 0.16731(16) 0.64325(14)
H41 H 0.3154 0.1193 0.6359
C49 C 0.3466(2) 0.21399(14) 0.60742(13)
C50 C 0.4487(3) 0.18201(14) 0.55306(13)
C51 C 0.5736(2) 0.22344(14) 0.53801(13)
C52 C 0.6358(3) 0.30438(14) 0.57323(13)
C53 C 0.7865(3) 0.32340(16) 0.58548(14)
H42 H 0.8446 0.2832 0.5749
C54 C 0.8533(3) 0.39930(16) 0.61267(14)
H43 H 0.9562 0.4115 0.6200
C55 C 0.7676(3) 0.45663(16) 0.62880(14)
H44 H 0.8095 0.5094 0.6474
C56 C 0.6200(3) 0.43571(15) 0.61740(14)
H45 H 0.5613 0.4757 0.6289
C57 C 0.4324(3) 0.10470(15) 0.50281(14)
C58 C 0.3422(3) 0.02965(15) 0.46821(14)
C59 C 0.2113(3) -0.00401(16) 0.48445(16)
H46 H 0.1640 0.0229 0.5262
C60 C 0.1504(3) -0.07795(17) 0.43842(17)
H47 H 0.0605 -0.1006 0.4493
C61 C 0.2171(3) -0.11952(17) 0.37721(18)
H48 H 0.1731 -0.1700 0.3474
C62 C 0.3461(3) -0.08783(16) 0.35976(17)
H49 H 0.3922 -0.1159 0.3180
C63 C 0.4086(3) -0.01332(16) 0.40459(15)
C64 C 0.5405(3) 0.03554(15) 0.39950(14)
C65 C 0.6481(3) 0.03619(17) 0.35391(16)
H50 H 0.6554 -0.0080 0.3121
C66 C 0.7488(3) 0.10434(18) 0.37026(16)
H51 H 0.8254 0.1042 0.3390
C67 C 0.7424(3) 0.17171(17) 0.42963(15)
H52 H 0.8101 0.2168 0.4371
C68 C 0.6345(3) 0.17162(14) 0.47780(14)
C69 C 0.3541(3) 0.28845(15) 0.48173(13)
C70 C 0.2575(3) 0.21807(16) 0.44742(14)
C71 C 0.2766(3) 0.16717(18) 0.37752(16)
H53 H 0.2131 0.1196 0.3580
C72 C 0.3845(4) 0.1838(2) 0.33620(16)
C73 C 0.4640(3) 0.2570(2) 0.36541(16)
H54 H 0.5319 0.2728 0.3364
C74 C 0.4500(3) 0.30895(17) 0.43536(15)
C75 C 0.1246(3) 0.19373(19) 0.48105(17)
H55 H 0.0478 0.1652 0.4432
H56 H 0.0904 0.2396 0.5153
H57 H 0.1493 0.1606 0.5066
C76 C 0.4084(4) 0.1267(2) 0.26162(18)
H58 H 0.4198 0.1536 0.2275
H59 H 0.3245 0.0858 0.2452
H60 H 0.4964 0.1040 0.2642
C77 C 0.5367(3) 0.38948(19) 0.45667(17)
H61 H 0.5370 0.4060 0.4152
H62 H 0.6369 0.3886 0.4719
H63 H 0.4919 0.4257 0.4967
C78 C 0.3032(3) 0.42289(15) 0.60086(14)
C79 C 0.2139(3) 0.44711(17) 0.55709(16)
C80 C 0.1659(3) 0.51863(18) 0.58584(19)
H64 H 0.1072 0.5332 0.5550
C81 C 0.1980(3) 0.56988(18) 0.65618(19)
C82 C 0.2796(3) 0.54633(17) 0.70060(17)
H65 H 0.3026 0.5794 0.7495
C83 C 0.3293(3) 0.47446(16) 0.67482(15)
C84 C 0.4116(3) 0.45855(17) 0.73315(15)
H66 H 0.4935 0.4999 0.7543
H67 H 0.4482 0.4091 0.7118
H68 H 0.3462 0.4564 0.7709
C85 C 0.1639(4) 0.3989(2) 0.47844(18)
H69 H 0.0959 0.4250 0.4609
H70 H 0.1155 0.3480 0.4750
H71 H 0.2484 0.3929 0.4489
C86 C 0.1498(4) 0.6483(2) 0.6844(2)
H72 H 0.1750 0.6750 0.6510
H73 H 0.1987 0.6786 0.7320
H74 H 0.0442 0.6424 0.6885
loop_
_geom_bond_atom_site_label_1
_geom_bond_atom_site_label_2
_geom_bond_site_symmetry_1
_geom_bond_site_symmetry_2
N1 B1 1_555 1_555
N2 C14 1_555 1_555
B1 C1 1_555 1_555
C1 C2 1_555 1_555
C2 H1 1_555 1_555
C3 C2 1_555 1_555
H2 C3 1_555 1_555
C4 C3 1_555 1_555
H3 C4 1_555 1_555
C5 C4 1_555 1_555
H4 C5 1_555 1_555
C6 C1 1_555 1_555
C7 C6 1_555 1_555
C8 C7 1_555 1_555
C9 N1 1_555 1_555
C10 C9 1_555 1_555
H5 C10 1_555 1_555
C11 C10 1_555 1_555
H6 C11 1_555 1_555
C12 C11 1_555 1_555
H7 C12 1_555 1_555
C13 N1 1_555 1_555
H8 C13 1_555 1_555
C14 C7 1_555 1_555
C15 C14 1_555 1_555
C16 C15 1_555 1_555
H9 C16 1_555 1_555
C17 C16 1_555 1_555
H10 C17 1_555 1_555
C18 C17 1_555 1_555
H11 C18 1_555 1_555
C19 C18 1_555 1_555
H12 C19 1_555 1_555
C20 C15 1_555 1_555
C21 N2 1_555 1_555
C22 C21 1_555 1_555
H13 C22 1_555 1_555
C23 C22 1_555 1_555
H14 C23 1_555 1_555
C24 C23 1_555 1_555
H15 C24 1_555 1_555
C25 N2 1_555 1_555
C26 B1 1_555 1_555
C27 C26 1_555 1_555
C28 C27 1_555 1_555
H16 C28 1_555 1_555
C29 C28 1_555 1_555
C30 C29 1_555 1_555
H17 C30 1_555 1_555
C31 C26 1_555 1_555
C32 C31 1_555 1_555
H18 C32 1_555 1_555
H19 C32 1_555 1_555
H20 C32 1_555 1_555
C33 C27 1_555 1_555
H21 C33 1_555 1_555
H22 C33 1_555 1_555
H23 C33 1_555 1_555
C34 C29 1_555 1_555
H24 C34 1_555 1_555
H25 C34 1_555 1_555
H26 C34 1_555 1_555
C35 B1 1_555 1_555
C36 C35 1_555 1_555
C37 C36 1_555 1_555
H27 C37 1_555 1_555
C38 C37 1_555 1_555
C39 C38 1_555 1_555
H28 C39 1_555 1_555
C40 C35 1_555 1_555
C41 C40 1_555 1_555
H29 C41 1_555 1_555
H30 C41 1_555 1_555
H31 C41 1_555 1_555
C42 C36 1_555 1_555
H32 C42 1_555 1_555
H33 C42 1_555 1_555
H34 C42 1_555 1_555
C43 C38 1_555 1_555
H35 C43 1_555 1_555
H36 C43 1_555 1_555
H37 C43 1_555 1_555
N3 B2 1_555 1_555
N4 C57 1_555 1_555
B2 C44 1_555 1_555
C44 C45 1_555 1_555
C45 H38 1_555 1_555
C46 H39 1_555 1_555
C47 C45 1_555 1_555
H40 C47 1_555 1_555
C48 C46 1_555 1_555
H41 C48 1_555 1_555
C49 C44 1_555 1_555
C50 C49 1_555 1_555
C51 C50 1_555 1_555
C52 N3 1_555 1_555
C53 C52 1_555 1_555
H42 C53 1_555 1_555
C54 C53 1_555 1_555
H43 C54 1_555 1_555
C55 C54 1_555 1_555
H44 C55 1_555 1_555
C56 N3 1_555 1_555
H45 C56 1_555 1_555
C57 C50 1_555 1_555
C58 C57 1_555 1_555
C59 C58 1_555 1_555
H46 C59 1_555 1_555
C60 C59 1_555 1_555
H47 C60 1_555 1_555
C61 C60 1_555 1_555
H48 C61 1_555 1_555
C62 C61 1_555 1_555
H49 C62 1_555 1_555
C63 C58 1_555 1_555
C64 N4 1_555 1_555
C65 C64 1_555 1_555
H50 C65 1_555 1_555
C66 C65 1_555 1_555
H51 C66 1_555 1_555
C67 C66 1_555 1_555
H52 C67 1_555 1_555
C68 N4 1_555 1_555
C69 B2 1_555 1_555
C70 C69 1_555 1_555
C71 C70 1_555 1_555
H53 C71 1_555 1_555
C72 C71 1_555 1_555
C73 C72 1_555 1_555
H54 C73 1_555 1_555
C74 C69 1_555 1_555
C75 C70 1_555 1_555
H55 C75 1_555 1_555
H56 C75 1_555 1_555
H57 C75 1_555 1_555
C76 C72 1_555 1_555
H58 C76 1_555 1_555
H59 C76 1_555 1_555
H60 C76 1_555 1_555
C77 C74 1_555 1_555
H61 C77 1_555 1_555
H62 C77 1_555 1_555
H63 C77 1_555 1_555
C78 B2 1_555 1_555
C79 C78 1_555 1_555
C80 C79 1_555 1_555
H64 C80 1_555 1_555
C81 C80 1_555 1_555
C82 C81 1_555 1_555
H65 C82 1_555 1_555
C83 C78 1_555 1_555
C84 C83 1_555 1_555
H66 C84 1_555 1_555
H67 C84 1_555 1_555
H68 C84 1_555 1_555
C85 C79 1_555 1_555
H69 C85 1_555 1_555
H70 C85 1_555 1_555
H71 C85 1_555 1_555
C86 C81 1_555 1_555
H72 C86 1_555 1_555
H73 C86 1_555 1_555
H74 C86 1_555 1_555
C5 C6 1_555 1_555
C8 C9 1_555 1_555
C8 C25 1_555 1_555
C12 C13 1_555 1_555
C19 C20 1_555 1_555
C20 C21 1_555 1_555
C24 C25 1_555 1_555
C30 C31 1_555 1_555
C39 C40 1_555 1_555
C46 C47 1_555 1_555
C48 C49 1_555 1_555
C51 C52 1_555 1_555
C51 C68 1_555 1_555
C55 C56 1_555 1_555
C62 C63 1_555 1_555
C63 C64 1_555 1_555
C67 C68 1_555 1_555
C73 C74 1_555 1_555
C82 C83 1_555 1_555

#END
