
#######################################################################
#
#                 Cambridge Crystallographic Data Centre
#                                CCDC 
#
#######################################################################
#
# If this CIF has been generated from an entry in the Cambridge 
# Structural Database, then it will include bibliographic, chemical, 
# crystal, experimental, refinement or atomic coordinate data resulting 
# from the CCDC's data processing and validation procedures.
#
#######################################################################

data_BIRLAS
_chemical_formula_moiety         'C41 H35 B1 N2 S1'
_chemical_name_systematic        
5,5-bis(2,4,6-trimethylphenyl)-5H-4\l^5^,5\l^5^-isoindolo[1',2',3':3,4,5]indolizino[2,1-d][1,3]thiazolo[3,2-b][2,1]benzazaborepine
_symmetry_cell_setting           monoclinic
_symmetry_space_group_name_H-M   'P 21/c'
_symmetry_Int_Tables_number      14
_space_group_name_Hall           '-P 2ybc'
loop_
_symmetry_equiv_pos_site_id
_symmetry_equiv_pos_as_xyz
1 x,y,z
2 -x,1/2+y,1/2-z
3 -x,-y,-z
4 x,1/2-y,1/2+z
_cell_length_a                   13.384(3)
_cell_length_b                   12.918(3)
_cell_length_c                   22.321(7)
_cell_angle_alpha                90
_cell_angle_beta                 125.50(2)
_cell_angle_gamma                90
_cell_volume                     3141.82
_exptl_crystal_colour            red
_exptl_crystal_description       Cubic
_cell_formula_units_Z            4
loop_
_atom_site_label
_atom_site_type_symbol
_atom_site_fract_x
_atom_site_fract_y
_atom_site_fract_z
B1 B 0.78848(18) 0.16648(16) 0.52219(11)
C1 C 0.79167(16) 0.24127(14) 0.58307(10)
N1 N 0.91603(13) 0.19751(11) 0.52758(8)
S1 S 1.06610(4) 0.29490(4) 0.51318(3)
C2 C 0.77848(17) 0.19928(15) 0.63609(10)
H1 H 0.7756 0.1261 0.6391
N2 N 0.73932(13) 0.51148(11) 0.43185(8)
C3 C 0.76948(19) 0.25903(17) 0.68426(11)
H2 H 0.7592 0.2269 0.7186
C4 C 0.77554(18) 0.36522(16) 0.68220(11)
H3 H 0.7701 0.4068 0.7153
C5 C 0.78959(17) 0.41059(15) 0.63167(10)
H4 H 0.7952 0.4838 0.6306
C6 C 0.79576(15) 0.34995(14) 0.58161(10)
C7 C 0.79438(16) 0.40469(13) 0.52357(10)
C8 C 0.85953(16) 0.38027(13) 0.49333(10)
C9 C 0.93820(16) 0.29117(13) 0.51283(10)
C10 C 1.00353(16) 0.12707(14) 0.53884(11)
H5 H 1.0020 0.0563 0.5499
C11 C 1.09022(18) 0.16589(15) 0.53307(12)
H6 H 1.1559 0.1272 0.5392
C12 C 0.82540(16) 0.45030(13) 0.43572(10)
C13 C 0.82430(17) 0.47937(14) 0.37291(11)
C14 C 0.8936(2) 0.44959(16) 0.34750(12)
H7 H 0.9570 0.3996 0.3736
C15 C 0.8687(2) 0.49362(18) 0.28414(14)
H8 H 0.9162 0.4739 0.2669
C16 C 0.7754(2) 0.56664(19) 0.24457(14)
H9 H 0.7592 0.5945 0.2004
C17 C 0.7068(2) 0.59857(18) 0.26860(13)
H10 H 0.6438 0.6487 0.2418
C18 C 0.73123(18) 0.55605(15) 0.33313(11)
C19 C 0.67564(17) 0.57509(14) 0.37143(11)
C20 C 0.58193(19) 0.62992(16) 0.36472(12)
H11 H 0.5346 0.6771 0.3252
C21 C 0.55682(19) 0.61549(16) 0.41690(12)
H12 H 0.4928 0.6550 0.4123
C22 C 0.62061(17) 0.54658(15) 0.47470(11)
H13 H 0.5996 0.5383 0.5084
C23 C 0.71683(16) 0.48901(13) 0.48298(10)
C24 C 0.67593(16) 0.20321(13) 0.43731(10)
C25 C 0.56898(17) 0.25335(15) 0.42165(11)
C26 C 0.4939(2) 0.30988(16) 0.35691(13)
H14 H 0.4240 0.3439 0.3486
C27 C 0.5168(2) 0.31849(18) 0.30473(12)
C28 C 0.6112(2) 0.25982(19) 0.31550(12)
H15 H 0.6254 0.2598 0.2785
C29 C 0.68689(18) 0.20047(16) 0.37815(11)
C30 C 0.7767(2) 0.1297(2) 0.37721(13)
H16 H 0.7374 0.1007 0.3278
H17 H 0.8013 0.0734 0.4126
H18 H 0.8494 0.1695 0.3906
C31 C 0.4365(3) 0.3852(2) 0.23730(15)
H19 H 0.4048 0.4437 0.2496
H20 H 0.3677 0.3439 0.1982
H21 H 0.4848 0.4113 0.2204
C32 C 0.5265(2) 0.2460(2) 0.47090(13)
H22 H 0.5559 0.3064 0.5035
H23 H 0.5594 0.1828 0.5005
H24 H 0.4366 0.2441 0.4407
C33 C 0.80426(16) 0.04464(14) 0.54756(10)
C34 C 0.90858(17) 0.01237(14) 0.61739(11)
C35 C 0.92081(18) -0.08909(15) 0.64186(11)
H25 H 0.9923 -0.1077 0.6886
C36 C 0.83269(19) -0.16353(15) 0.60056(12)
C37 C 0.73018(18) -0.13361(15) 0.53315(12)
H26 H 0.6682 -0.1835 0.5038
C38 C 0.71366(17) -0.03269(14) 0.50614(11)
C39 C 0.59366(19) -0.01375(16) 0.43228(12)
H27 H 0.5479 -0.0789 0.4134
H28 H 0.6102 0.0130 0.3977
H29 H 0.5450 0.0369 0.4378
C40 C 0.8463(2) -0.27273(16) 0.62925(15)
H30 H 0.9318 -0.2846 0.6708
H31 H 0.8230 -0.3224 0.5900
H32 H 0.7928 -0.2817 0.6456
C41 C 1.01425(17) 0.08283(15) 0.67266(11)
H33 H 1.0260 0.0787 0.7202
H34 H 0.9952 0.1544 0.6548
H35 H 1.0895 0.0608 0.6785
loop_
_geom_bond_atom_site_label_1
_geom_bond_atom_site_label_2
_geom_bond_site_symmetry_1
_geom_bond_site_symmetry_2
B1 C1 1_555 1_555
C1 C2 1_555 1_555
N1 B1 1_555 1_555
S1 C9 1_555 1_555
C2 H1 1_555 1_555
N2 C12 1_555 1_555
C3 C2 1_555 1_555
H2 C3 1_555 1_555
C4 C3 1_555 1_555
H3 C4 1_555 1_555
C5 C4 1_555 1_555
H4 C5 1_555 1_555
C6 C1 1_555 1_555
C7 C6 1_555 1_555
C8 C7 1_555 1_555
C9 N1 1_555 1_555
C10 N1 1_555 1_555
H5 C10 1_555 1_555
C11 S1 1_555 1_555
H6 C11 1_555 1_555
C12 C8 1_555 1_555
C13 C12 1_555 1_555
C14 C13 1_555 1_555
H7 C14 1_555 1_555
C15 C14 1_555 1_555
H8 C15 1_555 1_555
C16 C15 1_555 1_555
H9 C16 1_555 1_555
C17 C16 1_555 1_555
H10 C17 1_555 1_555
C18 C13 1_555 1_555
C19 N2 1_555 1_555
C20 C19 1_555 1_555
H11 C20 1_555 1_555
C21 C20 1_555 1_555
H12 C21 1_555 1_555
C22 C21 1_555 1_555
H13 C22 1_555 1_555
C23 N2 1_555 1_555
C24 B1 1_555 1_555
C25 C24 1_555 1_555
C26 C25 1_555 1_555
H14 C26 1_555 1_555
C27 C26 1_555 1_555
C28 C27 1_555 1_555
H15 C28 1_555 1_555
C29 C24 1_555 1_555
C30 C29 1_555 1_555
H16 C30 1_555 1_555
H17 C30 1_555 1_555
H18 C30 1_555 1_555
C31 C27 1_555 1_555
H19 C31 1_555 1_555
H20 C31 1_555 1_555
H21 C31 1_555 1_555
C32 C25 1_555 1_555
H22 C32 1_555 1_555
H23 C32 1_555 1_555
H24 C32 1_555 1_555
C33 B1 1_555 1_555
C34 C33 1_555 1_555
C35 C34 1_555 1_555
H25 C35 1_555 1_555
C36 C35 1_555 1_555
C37 C36 1_555 1_555
H26 C37 1_555 1_555
C38 C33 1_555 1_555
C39 C38 1_555 1_555
H27 C39 1_555 1_555
H28 C39 1_555 1_555
H29 C39 1_555 1_555
C40 C36 1_555 1_555
H30 C40 1_555 1_555
H31 C40 1_555 1_555
H32 C40 1_555 1_555
C41 C34 1_555 1_555
H33 C41 1_555 1_555
H34 C41 1_555 1_555
H35 C41 1_555 1_555
C5 C6 1_555 1_555
C7 C23 1_555 1_555
C8 C9 1_555 1_555
C10 C11 1_555 1_555
C17 C18 1_555 1_555
C18 C19 1_555 1_555
C22 C23 1_555 1_555
C28 C29 1_555 1_555
C37 C38 1_555 1_555

#END
