
#######################################################################
#
#                 Cambridge Crystallographic Data Centre
#                                CCDC 
#
#######################################################################
#
# If this CIF has been generated from an entry in the Cambridge 
# Structural Database, then it will include bibliographic, chemical, 
# crystal, experimental, refinement or atomic coordinate data resulting 
# from the CCDC's data processing and validation procedures.
#
#######################################################################

data_BIRPUQ
_chemical_formula_moiety         'C22 H28 O4'
_chemical_name_systematic        
2,3,6,7-tetramethoxy-9,9,10,10-tetramethyl-9,10-dihydroanthracene
_symmetry_cell_setting           monoclinic
_symmetry_space_group_name_H-M   'C 2/c'
_symmetry_Int_Tables_number      15
_space_group_name_Hall           '-C 2yn'
loop_
_symmetry_equiv_pos_site_id
_symmetry_equiv_pos_as_xyz
1 x,y,z
2 -x,y,1/2-z
3 1/2+x,1/2+y,z
4 1/2-x,1/2+y,1/2-z
5 -x,-y,-z
6 x,-y,1/2+z
7 1/2-x,1/2-y,-z
8 1/2+x,1/2-y,1/2+z
_cell_length_a                   28.9533(18)
_cell_length_b                   12.1295(5)
_cell_length_c                   24.9285(15)
_cell_angle_alpha                90
_cell_angle_beta                 113.233(7)
_cell_angle_gamma                90
_cell_volume                     8044.69
_exptl_crystal_colour            colorless
_exptl_crystal_description       block
_cell_formula_units_Z            16
loop_
_atom_site_label
_atom_site_type_symbol
_atom_site_fract_x
_atom_site_fract_y
_atom_site_fract_z
O1 O 0.45631(4) 0.66575(8) 0.63497(5)
O2 O 0.45095(4) 0.87748(8) 0.61884(4)
O3 O 0.79510(4) 0.88175(8) 0.62567(4)
O4 O 0.79810(4) 0.66769(8) 0.63260(5)
C1 C 0.57914(5) 0.82768(11) 0.62202(5)
C2 C 0.58226(5) 0.71443(11) 0.63069(6)
C3 C 0.54082(5) 0.65907(11) 0.63517(6)
H1 H 0.5427 0.5816 0.6412
C4 C 0.49777(5) 0.71388(12) 0.63101(6)
C5 C 0.49477(5) 0.82879(11) 0.62208(6)
C6 C 0.53480(5) 0.88303(11) 0.61742(6)
H2 H 0.5325 0.9604 0.6109
C7 C 0.62820(5) 0.64594(11) 0.63647(6)
C8 C 0.61182(6) 0.55553(12) 0.58869(7)
H3 H 0.5987 0.5903 0.5501
H4 H 0.5855 0.5098 0.5929
H5 H 0.6408 0.5093 0.5929
C9 C 0.64975(5) 0.59179(12) 0.69779(7)
H6 H 0.6790 0.5465 0.7018
H7 H 0.6239 0.5453 0.7025
H8 H 0.6600 0.6494 0.7278
C10 C 0.45790(7) 0.55002(15) 0.64345(11)
H9 H 0.4615 0.5132 0.6103
H10 H 0.4267 0.5256 0.6464
H11 H 0.4866 0.5312 0.6795
C11 C 0.44740(5) 0.99447(12) 0.61149(7)
H12 H 0.4512 1.0143 0.5753
H13 H 0.4740 1.0298 0.6447
H14 H 0.4145 1.0195 0.6094
C12 C 0.66993(5) 0.71518(11) 0.63045(6)
C13 C 0.66720(5) 0.82874(11) 0.62301(6)
C14 C 0.70918(5) 0.88530(11) 0.62117(6)
H15 H 0.7074 0.9631 0.6165
C15 C 0.75257(5) 0.83172(11) 0.62587(6)
C16 C 0.75458(5) 0.71572(11) 0.63093(6)
C17 C 0.71415(5) 0.66021(11) 0.63392(6)
H16 H 0.7160 0.5824 0.6385
C18 C 0.62057(5) 0.89630(11) 0.61502(6)
C19 C 0.59932(5) 0.94372(12) 0.55220(6)
H17 H 0.5888 0.8830 0.5240
H18 H 0.6254 0.9872 0.5461
H19 H 0.5703 0.9909 0.5468
C20 C 0.63523(6) 0.99138(12) 0.65995(7)
H20 H 0.6055 1.0363 0.6542
H21 H 0.6609 1.0374 0.6546
H22 H 0.6486 0.9608 0.6995
C21 C 0.79752(6) 0.99891(12) 0.63119(8)
H23 H 0.7722 1.0322 0.5961
H24 H 0.8310 1.0243 0.6359
H25 H 0.7909 1.0207 0.6654
C22 C 0.79989(6) 0.54995(12) 0.63453(7)
H26 H 0.7716 0.5201 0.6009
H27 H 0.7977 0.5243 0.6707
H28 H 0.8316 0.5247 0.6332
O5 O 0.52236(4) 0.72481(10) 0.46412(4)
O6 O 0.61249(4) 0.72244(10) 0.46796(4)
C23 C 0.54166(5) 0.73134(11) 0.30650(6)
C24 C 0.49306(5) 0.73167(11) 0.30435(6)
C25 C 0.48589(5) 0.72988(12) 0.35742(6)
H29 H 0.4527 0.7308 0.3561
C26 C 0.52590(5) 0.72681(12) 0.41093(6)
C27 C 0.57538(5) 0.72567(12) 0.41316(6)
C28 C 0.58272(5) 0.72832(11) 0.36171(6)
H30 H 0.6160 0.7281 0.3633
C29 C 0.44606(5) 0.73766(12) 0.24766(6)
C30 C 0.41023(6) 0.64236(15) 0.24624(6)
H31 H 0.4266 0.5717 0.2462
H32 H 0.3793 0.6482 0.2109
H33 H 0.4020 0.6467 0.2807
C31 C 0.41940(6) 0.84836(15) 0.24609(7)
H34 H 0.4108 0.8539 0.2803
H35 H 0.3886 0.8524 0.2105
H36 H 0.4418 0.9092 0.2465
C32 C 0.47365(6) 0.73500(16) 0.46491(7)
H37 H 0.4583 0.8044 0.4462
H38 H 0.4765 0.7346 0.5054
H39 H 0.4527 0.6730 0.4437
C33 C 0.66304(6) 0.73147(18) 0.47295(7)
H40 H 0.6709 0.6693 0.4529
H41 H 0.6858 0.7307 0.5143
H42 H 0.6672 0.8007 0.4551
O5A O 0.47764(4) 0.72481(10) 0.03588(4)
O6A O 0.38751(4) 0.72244(10) 0.03204(4)
C23A C 0.45834(5) 0.73134(11) 0.19350(6)
C24A C 0.50694(5) 0.73167(11) 0.19565(6)
C25A C 0.51411(5) 0.72988(12) 0.14258(6)
H29A H 0.5473 0.7308 0.1439
C26A C 0.47410(5) 0.72681(12) 0.08907(6)
C27A C 0.42462(5) 0.72567(12) 0.08684(6)
C28A C 0.41728(5) 0.72832(11) 0.13829(6)
H30A H 0.3840 0.7281 0.1367
C29A C 0.55394(5) 0.73766(12) 0.25234(6)
C30A C 0.58977(6) 0.64236(15) 0.25376(6)
H31A H 0.5734 0.5717 0.2538
H32A H 0.6207 0.6482 0.2891
H33A H 0.5980 0.6467 0.2193
C31A C 0.58060(6) 0.84836(15) 0.25391(7)
H34A H 0.5892 0.8539 0.2197
H35A H 0.6114 0.8524 0.2895
H36A H 0.5582 0.9092 0.2535
C32A C 0.52635(6) 0.73500(16) 0.03509(7)
H37A H 0.5417 0.8044 0.0538
H38A H 0.5235 0.7346 -0.0054
H39A H 0.5473 0.6730 0.0563
C33A C 0.33696(6) 0.73147(18) 0.02705(7)
H40A H 0.3291 0.6693 0.0471
H41A H 0.3142 0.7307 -0.0143
H42A H 0.3328 0.8007 0.0449
O7 O 0.64163(4) 0.81059(9) 0.78343(4)
O8 O 0.73251(4) 0.80993(10) 0.78963(4)
C34 C 0.75821(5) 0.76520(11) 0.94698(6)
C35 C 0.70926(5) 0.76216(11) 0.94335(6)
C36 C 0.66905(5) 0.77577(11) 0.88809(6)
H43 H 0.6354 0.7735 0.8855
C37 C 0.67764(5) 0.79228(11) 0.83787(6)
C38 C 0.72758(5) 0.79273(12) 0.84150(6)
C39 C 0.76670(5) 0.77963(11) 0.89514(6)
H44 H 0.8002 0.7803 0.8974
C40 C 0.69541(5) 0.74475(11) 0.99595(6)
C41 C 0.66337(6) 0.84340(14) 1.00031(6)
H45 H 0.6823 0.9119 1.0039
H46 H 0.6553 0.8344 1.0347
H47 H 0.6322 0.8465 0.9651
C42 C 0.66393(6) 0.63827(14) 0.98661(6)
H48 H 0.6541 0.6276 1.0196
H49 H 0.6840 0.5751 0.9838
H50 H 0.6337 0.6445 0.9505
C43 C 0.59064(6) 0.80713(17) 0.77705(7)
H51 H 0.5686 0.8241 0.7365
H52 H 0.5853 0.8616 0.8031
H53 H 0.5828 0.7333 0.7871
C44 C 0.78110(6) 0.79439(15) 0.78911(7)
H54 H 0.7795 0.8072 0.7496
H55 H 0.7924 0.7188 0.8011
H56 H 0.8048 0.8465 0.8162
O7F O 0.85837(4) 0.68941(9) 1.21657(4)
O8F O 0.76749(4) 0.69007(10) 1.21037(4)
C34F C 0.74179(5) 0.73480(11) 1.05302(6)
C35F C 0.79074(5) 0.73784(11) 1.05665(6)
C36F C 0.83095(5) 0.72423(11) 1.11191(6)
H43F H 0.8646 0.7265 1.1145
C37F C 0.82236(5) 0.70772(11) 1.16213(6)
C38F C 0.77242(5) 0.70727(12) 1.15850(6)
C39F C 0.73330(5) 0.72037(11) 1.10486(6)
H44F H 0.6998 0.7197 1.1026
C40F C 0.80459(5) 0.75525(11) 1.00405(6)
C41F C 0.83663(6) 0.65660(14) 0.99969(6)
H45F H 0.8177 0.5881 0.9961
H46F H 0.8447 0.6656 0.9653
H47F H 0.8678 0.6535 1.0349
C42F C 0.83607(6) 0.86173(14) 1.01339(6)
H48F H 0.8459 0.8724 0.9804
H49F H 0.8160 0.9249 1.0162
H50F H 0.8663 0.8555 1.0495
C43F C 0.90936(6) 0.69287(17) 1.22295(7)
H51F H 0.9314 0.6759 1.2635
H52F H 0.9147 0.6384 1.1969
H53F H 0.9172 0.7667 1.2129
C44F C 0.71890(6) 0.70561(15) 1.21089(7)
H54F H 0.7205 0.6928 1.2504
H55F H 0.7076 0.7812 1.1989
H56F H 0.6952 0.6535 1.1838
loop_
_geom_bond_atom_site_label_1
_geom_bond_atom_site_label_2
_geom_bond_site_symmetry_1
_geom_bond_site_symmetry_2
O1 C4 1_555 1_555
O2 C5 1_555 1_555
O3 C15 1_555 1_555
O4 C16 1_555 1_555
C1 C2 1_555 1_555
C2 C3 1_555 1_555
C3 H1 1_555 1_555
C4 C3 1_555 1_555
C5 C4 1_555 1_555
C6 C1 1_555 1_555
H2 C6 1_555 1_555
C7 C2 1_555 1_555
C8 C7 1_555 1_555
H3 C8 1_555 1_555
H4 C8 1_555 1_555
H5 C8 1_555 1_555
C9 C7 1_555 1_555
H6 C9 1_555 1_555
H7 C9 1_555 1_555
H8 C9 1_555 1_555
C10 O1 1_555 1_555
H9 C10 1_555 1_555
H10 C10 1_555 1_555
H11 C10 1_555 1_555
C11 O2 1_555 1_555
H12 C11 1_555 1_555
H13 C11 1_555 1_555
H14 C11 1_555 1_555
C12 C7 1_555 1_555
C13 C12 1_555 1_555
C14 C13 1_555 1_555
H15 C14 1_555 1_555
C15 C14 1_555 1_555
C16 C15 1_555 1_555
C17 C12 1_555 1_555
H16 C17 1_555 1_555
C18 C1 1_555 1_555
C19 C18 1_555 1_555
H17 C19 1_555 1_555
H18 C19 1_555 1_555
H19 C19 1_555 1_555
C20 C18 1_555 1_555
H20 C20 1_555 1_555
H21 C20 1_555 1_555
H22 C20 1_555 1_555
C21 O3 1_555 1_555
H23 C21 1_555 1_555
H24 C21 1_555 1_555
H25 C21 1_555 1_555
C22 O4 1_555 1_555
H26 C22 1_555 1_555
H27 C22 1_555 1_555
H28 C22 1_555 1_555
O5 C26 1_555 1_555
O6 C27 1_555 1_555
C23 C24 1_555 1_555
C24 C25 1_555 1_555
C25 H29 1_555 1_555
C26 C25 1_555 1_555
C27 C26 1_555 1_555
C28 C23 1_555 1_555
H30 C28 1_555 1_555
C29 C24 1_555 1_555
C30 C29 1_555 1_555
H31 C30 1_555 1_555
H32 C30 1_555 1_555
H33 C30 1_555 1_555
C31 C29 1_555 1_555
H34 C31 1_555 1_555
H35 C31 1_555 1_555
H36 C31 1_555 1_555
C32 O5 1_555 1_555
H37 C32 1_555 1_555
H38 C32 1_555 1_555
H39 C32 1_555 1_555
C33 O6 1_555 1_555
H40 C33 1_555 1_555
H41 C33 1_555 1_555
H42 C33 1_555 1_555
O7 C37 1_555 1_555
O8 C38 1_555 1_555
C34 C35 1_555 1_555
C35 C36 1_555 1_555
C36 H43 1_555 1_555
C37 C36 1_555 1_555
C38 C37 1_555 1_555
C39 C34 1_555 1_555
H44 C39 1_555 1_555
C40 C35 1_555 1_555
C41 C40 1_555 1_555
H45 C41 1_555 1_555
H46 C41 1_555 1_555
H47 C41 1_555 1_555
C42 C40 1_555 1_555
H48 C42 1_555 1_555
H49 C42 1_555 1_555
H50 C42 1_555 1_555
C43 O7 1_555 1_555
H51 C43 1_555 1_555
H52 C43 1_555 1_555
H53 C43 1_555 1_555
C44 O8 1_555 1_555
H54 C44 1_555 1_555
H55 C44 1_555 1_555
H56 C44 1_555 1_555
O5A C26A 1_555 1_555
O6A C27A 1_555 1_555
C23A C29 1_555 1_555
C24A C23A 1_555 1_555
C25A C24A 1_555 1_555
H29A C25A 1_555 1_555
C26A C25A 1_555 1_555
C27A C26A 1_555 1_555
C28A C23A 1_555 1_555
H30A C28A 1_555 1_555
C29A C23 1_555 1_555
C30A C29A 1_555 1_555
H31A C30A 1_555 1_555
H32A C30A 1_555 1_555
H33A C30A 1_555 1_555
C31A C29A 1_555 1_555
H34A C31A 1_555 1_555
H35A C31A 1_555 1_555
H36A C31A 1_555 1_555
C32A O5A 1_555 1_555
H37A C32A 1_555 1_555
H38A C32A 1_555 1_555
H39A C32A 1_555 1_555
C33A O6A 1_555 1_555
H40A C33A 1_555 1_555
H41A C33A 1_555 1_555
H42A C33A 1_555 1_555
O7F C37F 1_555 1_555
O8F C38F 1_555 1_555
C34F C40 1_555 1_555
C35F C34F 1_555 1_555
C36F C35F 1_555 1_555
H43F C36F 1_555 1_555
C37F C36F 1_555 1_555
C38F C37F 1_555 1_555
C39F C34F 1_555 1_555
H44F C39F 1_555 1_555
C40F C34 1_555 1_555
C41F C40F 1_555 1_555
H45F C41F 1_555 1_555
H46F C41F 1_555 1_555
H47F C41F 1_555 1_555
C42F C40F 1_555 1_555
H48F C42F 1_555 1_555
H49F C42F 1_555 1_555
H50F C42F 1_555 1_555
C43F O7F 1_555 1_555
H51F C43F 1_555 1_555
H52F C43F 1_555 1_555
H53F C43F 1_555 1_555
C44F O8F 1_555 1_555
H54F C44F 1_555 1_555
H55F C44F 1_555 1_555
H56F C44F 1_555 1_555
C5 C6 1_555 1_555
C13 C18 1_555 1_555
C16 C17 1_555 1_555
C27 C28 1_555 1_555
C38 C39 1_555 1_555
C24A C29A 1_555 1_555
C27A C28A 1_555 1_555
C35F C40F 1_555 1_555
C38F C39F 1_555 1_555

#END
