
#######################################################################
#
#                 Cambridge Crystallographic Data Centre
#                                CCDC 
#
#######################################################################
#
# If this CIF has been generated from an entry in the Cambridge 
# Structural Database, then it will include bibliographic, chemical, 
# crystal, experimental, refinement or atomic coordinate data resulting 
# from the CCDC's data processing and validation procedures.
#
#######################################################################

data_BIRQIF
_chemical_formula_moiety         'C12 H8 Cl2 N2 O1 S2'
_chemical_name_systematic        
N-[(2,4-dichlorophenyl)carbamothioyl]thiophene-2-carboxamide
_symmetry_cell_setting           orthorhombic
_symmetry_space_group_name_H-M   'P 21 21 21'
_symmetry_Int_Tables_number      19
_space_group_name_Hall           'P 2ac 2ab'
loop_
_symmetry_equiv_pos_site_id
_symmetry_equiv_pos_as_xyz
1 x,y,z
2 1/2-x,-y,1/2+z
3 -x,1/2+y,1/2-z
4 1/2+x,1/2-y,-z
_cell_length_a                   3.9537(2)
_cell_length_b                   10.9953(6)
_cell_length_c                   30.0239(16)
_cell_angle_alpha                90
_cell_angle_beta                 90
_cell_angle_gamma                90
_cell_volume                     1305.2
_exptl_crystal_colour            colorless
_exptl_crystal_description       needle
_cell_formula_units_Z            4
loop_
_atom_site_label
_atom_site_type_symbol
_atom_site_fract_x
_atom_site_fract_y
_atom_site_fract_z
Cl1 Cl 1.0842(2) 0.29762(7) 0.58122(2)
Cl2 Cl 0.9821(2) 0.49348(8) 0.41821(2)
S1 S 1.0030(2) 0.73604(7) 0.62328(2)
S2 S 0.1706(2) 0.43181(7) 0.77728(2)
O1 O 0.4113(7) 0.4184(2) 0.68300(7)
N1 N 0.6688(8) 0.6050(2) 0.68169(8)
H1 H 0.7281 0.6652 0.6993
N2 N 0.7075(8) 0.5180(2) 0.61175(8)
H2 H 0.6112 0.4545 0.6243
C1 C 0.3506(9) 0.5464(3) 0.74571(10)
C2 C 0.3425(11) 0.6552(3) 0.76786(11)
H3 H 0.4274 0.7291 0.7559
C3 C 0.1932(12) 0.6449(3) 0.81061(12)
H4 H 0.1670 0.7114 0.8305
C4 C 0.0915(9) 0.5299(3) 0.82006(10)
H5 H -0.0117 0.5067 0.8473
C5 C 0.4760(9) 0.5159(3) 0.70112(10)
C6 C 0.7841(8) 0.6136(3) 0.63791(9)
C7 C 0.7719(8) 0.5130(3) 0.56529(10)
C8 C 0.9406(8) 0.4143(3) 0.54705(9)
C9 C 1.0021(8) 0.4058(3) 0.50166(9)
H6 H 1.1166 0.3375 0.4895
C10 C 0.8919(9) 0.4998(3) 0.47464(9)
C11 C 0.7159(9) 0.5988(3) 0.49153(10)
H7 H 0.6378 0.6614 0.4723
C12 C 0.6562(9) 0.6048(3) 0.53703(10)
H8 H 0.5356 0.6720 0.5490
loop_
_geom_bond_atom_site_label_1
_geom_bond_atom_site_label_2
_geom_bond_site_symmetry_1
_geom_bond_site_symmetry_2
Cl1 C8 1_555 1_555
Cl2 C10 1_555 1_555
S1 C6 1_555 1_555
S2 C1 1_555 1_555
O1 C5 1_555 1_555
N1 H1 1_555 1_555
N2 H2 1_555 1_555
C1 C2 1_555 1_555
C2 H3 1_555 1_555
C3 C2 1_555 1_555
H4 C3 1_555 1_555
C4 S2 1_555 1_555
H5 C4 1_555 1_555
C5 N1 1_555 1_555
C6 N1 1_555 1_555
C7 N2 1_555 1_555
C8 C7 1_555 1_555
C9 C8 1_555 1_555
H6 C9 1_555 1_555
C10 C9 1_555 1_555
C11 C10 1_555 1_555
H7 C11 1_555 1_555
C12 C7 1_555 1_555
H8 C12 1_555 1_555
N2 C6 1_555 1_555
C1 C5 1_555 1_555
C3 C4 1_555 1_555
C11 C12 1_555 1_555

#END
