
#######################################################################
#
#                 Cambridge Crystallographic Data Centre
#                                CCDC 
#
#######################################################################
#
# If this CIF has been generated from an entry in the Cambridge 
# Structural Database, then it will include bibliographic, chemical, 
# crystal, experimental, refinement or atomic coordinate data resulting 
# from the CCDC's data processing and validation procedures.
#
#######################################################################

data_BIRTEE
_chemical_formula_moiety         'C56 H54 O8,4(C1 H2 Cl2)'
_chemical_name_systematic        
'10,21-di-t-butyl-2,3,6,7,13,14,17,18-octamethoxyhexabenzo[a,c,fg,j,l,op]tetracene dichloromethane solvate'
_symmetry_cell_setting           triclinic
_symmetry_space_group_name_H-M   'P -1'
_symmetry_Int_Tables_number      2
_space_group_name_Hall           '-P 1'
loop_
_symmetry_equiv_pos_site_id
_symmetry_equiv_pos_as_xyz
1 x,y,z
2 -x,-y,-z
_cell_length_a                   7.2423(2)
_cell_length_b                   13.4771(3)
_cell_length_c                   16.3116(5)
_cell_angle_alpha                110.150(2)
_cell_angle_beta                 97.962(2)
_cell_angle_gamma                101.905(2)
_cell_volume                     1423.93
_exptl_crystal_colour            yellow
_exptl_crystal_description       prism
_cell_formula_units_Z            1
loop_
_atom_site_label
_atom_site_type_symbol
_atom_site_fract_x
_atom_site_fract_y
_atom_site_fract_z
O1 O 0.69567(18) 1.05198(9) 0.78112(7)
O2 O 0.77971(17) 1.16533(9) 0.68514(7)
O3 O 0.70085(18) 0.67199(9) 0.15102(7)
O4 O 0.78041(18) 0.88387(9) 0.21878(8)
C1 C 0.4508(2) 0.52265(13) 0.53378(10)
C2 C 0.3630(2) 0.45856(13) 0.57843(10)
C3 C 0.2367(2) 0.49858(13) 0.63107(10)
H1 H 0.1698 0.4541 0.6578
C4 C 0.2061(2) 0.60137(13) 0.64556(10)
C5 C 0.3164(2) 0.66897(13) 0.61161(10)
H2 H 0.3052 0.7417 0.6255
C6 C 0.4428(2) 0.63341(13) 0.55779(10)
C7 C 0.5526(2) 0.70261(13) 0.51862(10)
C8 C 0.6142(2) 0.65231(13) 0.44133(10)
C9 C 0.0612(2) 0.64226(13) 0.70017(11)
C10 C 0.1737(3) 0.72110(17) 0.79505(12)
H3 H 0.0831 0.7489 0.8303
H4 H 0.2671 0.7828 0.7917
H5 H 0.2428 0.6820 0.8237
C11 C -0.0516(3) 0.70264(15) 0.65632(12)
H6 H -0.1171 0.6537 0.5944
H7 H 0.0385 0.7679 0.6565
H8 H -0.1480 0.7249 0.6901
C12 C -0.0877(3) 0.54719(15) 0.70567(14)
H9 H -0.1502 0.4927 0.6450
H10 H -0.1859 0.5753 0.7351
H11 H -0.0222 0.5127 0.7404
C13 C 0.6062(2) 0.82234(13) 0.55984(11)
C14 C 0.6147(2) 0.87932(13) 0.65211(11)
H12 H 0.5769 0.8384 0.6871
C15 C 0.6760(2) 0.99179(13) 0.69208(10)
C16 C 0.7290(2) 1.05409(13) 0.64038(11)
C17 C 0.7331(2) 1.00061(13) 0.55281(10)
H13 H 0.7752 1.0426 0.5192
C18 C 0.6763(2) 0.88451(13) 0.51087(10)
C19 C 0.6801(3) 0.99327(14) 0.83913(11)
H14 H 0.7056 1.0455 0.9013
H15 H 0.7748 0.9502 0.8336
H16 H 0.5491 0.9438 0.8223
C20 C 0.8246(2) 1.23088(13) 0.63402(11)
H17 H 0.8477 1.3086 0.6719
H18 H 0.7157 1.2095 0.5828
H19 H 0.9411 1.2194 0.6123
C21 C 0.6585(2) 0.71321(13) 0.38480(11)
C22 C 0.6563(2) 0.65965(13) 0.29260(10)
H20 H 0.6254 0.5817 0.2671
C23 C 0.6974(2) 0.71704(13) 0.23948(10)
C24 C 0.7379(2) 0.83320(13) 0.27620(11)
C25 C 0.7286(2) 0.88587(13) 0.36312(11)
H21 H 0.7502 0.9634 0.3865
C26 C 0.6877(2) 0.82805(13) 0.41906(10)
C27 C 0.6818(3) 0.55648(14) 0.11360(11)
H22 H 0.7024 0.5355 0.0525
H23 H 0.5516 0.5160 0.1121
H24 H 0.7785 0.5389 0.1506
C28 C 0.8310(3) 1.00101(13) 0.25609(12)
H25 H 0.8665 1.0290 0.2107
H26 H 0.9411 1.0291 0.3078
H27 H 0.7200 1.0255 0.2753
O1A O 0.30433(18) -0.05198(9) 0.21888(7)
O2A O 0.22029(17) -0.16533(9) 0.31486(7)
O3A O 0.29915(18) 0.32801(9) 0.84898(7)
O4A O 0.21959(18) 0.11613(9) 0.78122(8)
C1A C 0.5492(2) 0.47735(13) 0.46622(10)
C2A C 0.6370(2) 0.54144(13) 0.42157(10)
C3A C 0.7633(2) 0.50142(13) 0.36893(10)
H1A H 0.8302 0.5459 0.3422
C4A C 0.7939(2) 0.39863(13) 0.35444(10)
C5A C 0.6836(2) 0.33103(13) 0.38839(10)
H2A H 0.6948 0.2583 0.3745
C6A C 0.5572(2) 0.36659(13) 0.44221(10)
C7A C 0.4474(2) 0.29739(13) 0.48138(10)
C8A C 0.3858(2) 0.34769(13) 0.55867(10)
C9A C 0.9388(2) 0.35774(13) 0.29983(11)
C10A C 0.8263(3) 0.27890(17) 0.20495(12)
H3A H 0.9169 0.2511 0.1697
H4A H 0.7329 0.2172 0.2083
H5A H 0.7572 0.3180 0.1763
C11A C 1.0516(3) 0.29736(15) 0.34368(12)
H6A H 1.1171 0.3463 0.4056
H7A H 0.9615 0.2321 0.3435
H8A H 1.1480 0.2751 0.3099
C12A C 1.0877(3) 0.45281(15) 0.29433(14)
H9A H 1.1502 0.5073 0.3550
H10A H 1.1859 0.4247 0.2649
H11A H 1.0222 0.4873 0.2596
C13A C 0.3938(2) 0.17766(13) 0.44016(11)
C14A C 0.3853(2) 0.12068(13) 0.34789(11)
H12A H 0.4231 0.1616 0.3129
C15A C 0.3240(2) 0.00821(13) 0.30792(10)
C16A C 0.2710(2) -0.05409(13) 0.35962(11)
C17A C 0.2669(2) -0.00061(13) 0.44719(10)
H13A H 0.2248 -0.0426 0.4808
C18A C 0.3237(2) 0.11549(13) 0.48913(10)
C19A C 0.3199(3) 0.00673(14) 0.16087(11)
H14A H 0.2944 -0.0455 0.0987
H15A H 0.2252 0.0498 0.1664
H16A H 0.4509 0.0562 0.1777
C20A C 0.1754(2) -0.23088(13) 0.36598(11)
H17A H 0.1523 -0.3086 0.3281
H18A H 0.2843 -0.2095 0.4172
H19A H 0.0589 -0.2194 0.3877
C21A C 0.3415(2) 0.28679(13) 0.61520(11)
C22A C 0.3437(2) 0.34035(13) 0.70740(10)
H20A H 0.3746 0.4183 0.7329
C23A C 0.3026(2) 0.28296(13) 0.76052(10)
C24A C 0.2621(2) 0.16680(13) 0.72380(11)
C25A C 0.2714(2) 0.11413(13) 0.63688(11)
H21A H 0.2498 0.0366 0.6135
C26A C 0.3123(2) 0.17195(13) 0.58094(10)
C27A C 0.3182(3) 0.44352(14) 0.88640(11)
H22A H 0.2976 0.4645 0.9475
H23A H 0.4484 0.4840 0.8879
H24A H 0.2215 0.4611 0.8494
C28A C 0.1690(3) -0.00101(13) 0.74391(12)
H25A H 0.1335 -0.0290 0.7893
H26A H 0.0589 -0.0291 0.6922
H27A H 0.2800 -0.0255 0.7247
Cl1 Cl 0.18612(6) 0.56815(3) 0.12108(3)
Cl2 Cl 0.21066(9) 0.70225(4) 0.01309(3)
C29 C 0.2157(3) 0.70182(15) 0.12167(12)
H28 H 0.3409 0.7503 0.1624
H29 H 0.1109 0.7314 0.1449
Cl3 Cl 0.69059(9) 0.70704(5) 0.89731(4)
Cl4 Cl 0.6767(4) 0.92043(15) 1.01702(8)
C30 C 0.7406(4) 0.7985(2) 1.00956(16)
H30 H 0.8804 0.8166 1.0366
H31 H 0.6669 0.7631 1.0436
Cl5? Cl 0.786(3) 0.9357(7) 1.0218(5)
H32? H 0.6290 0.7802 1.0356
H33? H 0.8548 0.7887 1.0437
loop_
_geom_bond_atom_site_label_1
_geom_bond_atom_site_label_2
_geom_bond_site_symmetry_1
_geom_bond_site_symmetry_2
O1 C15 1_555 1_555
O2 C16 1_555 1_555
O3 C23 1_555 1_555
O4 C24 1_555 1_555
C1 C2 1_555 1_555
C2 C3 1_555 1_555
C3 H1 1_555 1_555
C4 C3 1_555 1_555
C5 C4 1_555 1_555
H2 C5 1_555 1_555
C6 C1 1_555 1_555
C7 C6 1_555 1_555
C8 C7 1_555 1_555
C9 C4 1_555 1_555
C10 C9 1_555 1_555
H3 C10 1_555 1_555
H4 C10 1_555 1_555
H5 C10 1_555 1_555
C11 C9 1_555 1_555
H6 C11 1_555 1_555
H7 C11 1_555 1_555
H8 C11 1_555 1_555
C12 C9 1_555 1_555
H9 C12 1_555 1_555
H10 C12 1_555 1_555
H11 C12 1_555 1_555
C13 C7 1_555 1_555
C14 C13 1_555 1_555
H12 C14 1_555 1_555
C15 C14 1_555 1_555
C16 C15 1_555 1_555
C17 C16 1_555 1_555
H13 C17 1_555 1_555
C18 C13 1_555 1_555
C19 O1 1_555 1_555
H14 C19 1_555 1_555
H15 C19 1_555 1_555
H16 C19 1_555 1_555
C20 O2 1_555 1_555
H17 C20 1_555 1_555
H18 C20 1_555 1_555
H19 C20 1_555 1_555
C21 C8 1_555 1_555
C22 C21 1_555 1_555
H20 C22 1_555 1_555
C23 C22 1_555 1_555
C24 C23 1_555 1_555
C25 C24 1_555 1_555
H21 C25 1_555 1_555
C26 C18 1_555 1_555
C27 O3 1_555 1_555
H22 C27 1_555 1_555
H23 C27 1_555 1_555
H24 C27 1_555 1_555
C28 O4 1_555 1_555
H25 C28 1_555 1_555
H26 C28 1_555 1_555
H27 C28 1_555 1_555
Cl1 C29 1_555 1_555
Cl2 C29 1_555 1_555
C29 H28 1_555 1_555
H29 C29 1_555 1_555
Cl3 C30 1_555 1_555
Cl4 C30 1_555 1_555
C30 H30 1_555 1_555
H31 C30 1_555 1_555
O1A C15A 1_555 1_555
O2A C16A 1_555 1_555
O3A C23A 1_555 1_555
O4A C24A 1_555 1_555
C1A C1 1_555 1_555
C2A C8 1_555 1_555
C3A C2A 1_555 1_555
H1A C3A 1_555 1_555
C4A C3A 1_555 1_555
C5A C4A 1_555 1_555
H2A C5A 1_555 1_555
C6A C1A 1_555 1_555
C7A C6A 1_555 1_555
C8A C2 1_555 1_555
C9A C4A 1_555 1_555
C10A C9A 1_555 1_555
H3A C10A 1_555 1_555
H4A C10A 1_555 1_555
H5A C10A 1_555 1_555
C11A C9A 1_555 1_555
H6A C11A 1_555 1_555
H7A C11A 1_555 1_555
H8A C11A 1_555 1_555
C12A C9A 1_555 1_555
H9A C12A 1_555 1_555
H10A C12A 1_555 1_555
H11A C12A 1_555 1_555
C13A C7A 1_555 1_555
C14A C13A 1_555 1_555
H12A C14A 1_555 1_555
C15A C14A 1_555 1_555
C16A C15A 1_555 1_555
C17A C16A 1_555 1_555
H13A C17A 1_555 1_555
C18A C13A 1_555 1_555
C19A O1A 1_555 1_555
H14A C19A 1_555 1_555
H15A C19A 1_555 1_555
H16A C19A 1_555 1_555
C20A O2A 1_555 1_555
H17A C20A 1_555 1_555
H18A C20A 1_555 1_555
H19A C20A 1_555 1_555
C21A C8A 1_555 1_555
C22A C21A 1_555 1_555
H20A C22A 1_555 1_555
C23A C22A 1_555 1_555
C24A C23A 1_555 1_555
C25A C24A 1_555 1_555
H21A C25A 1_555 1_555
C26A C18A 1_555 1_555
C27A O3A 1_555 1_555
H22A C27A 1_555 1_555
H23A C27A 1_555 1_555
H24A C27A 1_555 1_555
C28A O4A 1_555 1_555
H25A C28A 1_555 1_555
H26A C28A 1_555 1_555
H27A C28A 1_555 1_555
C5 C6 1_555 1_555
C17 C18 1_555 1_555
C21 C26 1_555 1_555
C25 C26 1_555 1_555
C1A C2A 1_555 1_555
C5A C6A 1_555 1_555
C7A C8A 1_555 1_555
C17A C18A 1_555 1_555
C21A C26A 1_555 1_555
C25A C26A 1_555 1_555

#END
