
#######################################################################
#
#                 Cambridge Crystallographic Data Centre
#                                CCDC 
#
#######################################################################
#
# If this CIF has been generated from an entry in the Cambridge 
# Structural Database, then it will include bibliographic, chemical, 
# crystal, experimental, refinement or atomic coordinate data resulting 
# from the CCDC's data processing and validation procedures.
#
#######################################################################

data_BIRTOO
_chemical_formula_moiety         'C48 H38'
_chemical_name_systematic        
10,21-di-t-butylhexabenzo[a,c,fg,j,l,op]tetracene
_symmetry_cell_setting           monoclinic
_symmetry_space_group_name_H-M   'C 2'
_symmetry_Int_Tables_number      5
_space_group_name_Hall           'C 2y'
loop_
_symmetry_equiv_pos_site_id
_symmetry_equiv_pos_as_xyz
1 x,y,z
2 -x,y,-z
3 1/2+x,1/2+y,z
4 1/2-x,1/2+y,-z
_cell_length_a                   31.8593(16)
_cell_length_b                   8.0078(4)
_cell_length_c                   51.818(3)
_cell_angle_alpha                90
_cell_angle_beta                 97.150(3)
_cell_angle_gamma                90
_cell_volume                     13117.2
_exptl_crystal_colour            yellow
_exptl_crystal_description       plate
_cell_formula_units_Z            16
loop_
_atom_site_label
_atom_site_type_symbol
_atom_site_fract_x
_atom_site_fract_y
_atom_site_fract_z
C1 C 0.20696(12) 0.1402(5) 0.07546(7)
C2 C 0.25064(12) 0.1622(5) 0.07519(7)
C3 C 0.27857(12) 0.0837(5) 0.09449(7)
H1 H 0.3081 0.0945 0.0939
C4 C 0.26490(12) -0.0086(5) 0.11426(7)
C5 C 0.22169(13) -0.0130(5) 0.11604(7)
H2 H 0.2120 -0.0692 0.1303
C6 C 0.19209(13) 0.0627(5) 0.09747(7)
C7 C 0.14656(13) 0.0546(5) 0.09875(7)
C8 C 0.11852(12) 0.0788(5) 0.07606(7)
C9 C 0.29695(13) -0.1006(5) 0.13386(8)
C10 C 0.27637(14) -0.1776(6) 0.15632(8)
H3 H 0.2551 -0.2599 0.1494
H4 H 0.2628 -0.0896 0.1654
H5 H 0.2981 -0.2327 0.1685
C11 C 0.33140(13) 0.0235(7) 0.14574(8)
H6 H 0.3524 -0.0361 0.1578
H7 H 0.3183 0.1115 0.1552
H8 H 0.3453 0.0737 0.1318
C12 C 0.31735(16) -0.2392(7) 0.11962(9)
H9 H 0.2955 -0.3174 0.1121
H10 H 0.3380 -0.2987 0.1319
H11 H 0.3316 -0.1907 0.1057
C13 C 0.17749(11) 0.1925(5) 0.05433(7)
C14 C 0.13357(11) 0.1705(5) 0.05461(7)
C15 C 0.10571(12) 0.2503(5) 0.03593(7)
H12 H 0.0762 0.2421 0.0368
C16 C 0.12007(12) 0.3437(5) 0.01552(7)
C17 C 0.16313(12) 0.3451(5) 0.01384(7)
H13 H 0.1730 0.4009 -0.0004
C18 C 0.19241(12) 0.2681(5) 0.03215(7)
C19 C 0.23735(11) 0.2750(5) 0.03079(7)
C20 C 0.26567(12) 0.2531(5) 0.05374(7)
C21 C 0.08799(12) 0.4346(6) -0.00376(7)
C22 C 0.05186(13) 0.3144(7) -0.01431(9)
H14 H 0.0632 0.2260 -0.0246
H15 H 0.0300 0.3766 -0.0253
H16 H 0.0395 0.2645 0.0003
C23 C 0.06789(16) 0.5776(8) 0.01116(9)
H17 H 0.0468 0.6369 -0.0008
H18 H 0.0900 0.6558 0.0182
H19 H 0.0543 0.5297 0.0254
C24 C 0.10700(15) 0.5070(7) -0.02652(9)
H20 H 0.1197 0.4173 -0.0358
H21 H 0.1288 0.5885 -0.0202
H22 H 0.0848 0.5623 -0.0383
C25 C 0.12963(13) 0.0283(5) 0.12317(8)
C26 C 0.15198(15) 0.0705(5) 0.14748(8)
H23 H 0.1805 0.1061 0.1482
C27 C 0.13395(17) 0.0620(6) 0.17024(9)
H24 H 0.1497 0.0924 0.1863
C28 C 0.09199(17) 0.0079(6) 0.16928(10)
H25 H 0.0794 -0.0030 0.1849
C29 C 0.06935(15) -0.0290(6) 0.14615(10)
H26 H 0.0408 -0.0642 0.1459
C30 C 0.08613(13) -0.0176(5) 0.12250(8)
C31 C 0.07677(12) 0.0031(5) 0.07451(8)
C32 C 0.05256(13) -0.0361(6) 0.05055(9)
H27 H 0.0633 -0.0069 0.0349
C33 C 0.01433(13) -0.1142(6) 0.04916(10)
H28 H -0.0014 -0.1358 0.0327
C34 C -0.00176(14) -0.1628(6) 0.07202(11)
H29 H -0.0286 -0.2158 0.0713
C35 C 0.02200(13) -0.1322(6) 0.09554(11)
H30 H 0.0115 -0.1671 0.1111
C36 C 0.06100(13) -0.0515(5) 0.09729(10)
C37 C 0.25569(12) 0.2954(5) 0.00669(7)
C38 C 0.23297(13) 0.2519(5) -0.01751(7)
H31 H 0.2041 0.2201 -0.0183
C39 C 0.25179(14) 0.2545(5) -0.04001(8)
H32 H 0.2358 0.2231 -0.0560
C40 C 0.29369(14) 0.3023(6) -0.03983(8)
H33 H 0.3061 0.3067 -0.0556
C41 C 0.31712(13) 0.3434(5) -0.01635(8)
H34 H 0.3460 0.3739 -0.0159
C42 C 0.29867(12) 0.3407(5) 0.00681(7)
C43 C 0.30796(11) 0.3265(5) 0.05484(7)
C44 C 0.33172(12) 0.3684(6) 0.07867(8)
H35 H 0.3211 0.3404 0.0945
C45 C 0.36999(13) 0.4492(7) 0.07960(8)
H36 H 0.3853 0.4759 0.0960
C46 C 0.38654(13) 0.4922(7) 0.05701(9)
H37 H 0.4134 0.5448 0.0577
C47 C 0.36291(13) 0.4566(6) 0.03332(8)
H38 H 0.3735 0.4878 0.0177
C48 C 0.32405(12) 0.3764(5) 0.03195(7)
C49 C 0.07489(11) -0.3409(5) 0.19935(7)
C50 C 0.11938(12) -0.3604(5) 0.20219(7)
C51 C 0.14378(13) -0.2843(5) 0.22323(7)
H39 H 0.1737 -0.2921 0.2246
C52 C 0.12497(13) -0.1958(6) 0.24253(8)
C53 C 0.08108(12) -0.1994(5) 0.24101(7)
H40 H 0.0681 -0.1490 0.2546
C54 C 0.05537(12) -0.2738(5) 0.22048(7)
C55 C 0.01002(12) -0.2721(5) 0.21826(7)
C56 C -0.01398(12) -0.2881(5) 0.19395(7)
C57 C 0.15261(13) -0.0975(6) 0.26302(8)
C58 C 0.12940(15) -0.0614(8) 0.28669(9)
H41 H 0.1205 -0.1670 0.2939
H42 H 0.1045 0.0077 0.2813
H43 H 0.1484 -0.0021 0.2999
C59 C 0.19340(14) -0.1901(8) 0.27237(9)
H44 H 0.1866 -0.2974 0.2800
H45 H 0.2105 -0.1229 0.2855
H46 H 0.2093 -0.2096 0.2576
C60 C 0.16349(18) 0.0697(8) 0.25068(9)
H47 H 0.1807 0.0485 0.2366
H48 H 0.1794 0.1402 0.2639
H49 H 0.1373 0.1267 0.2437
C61 C 0.05032(12) -0.3899(5) 0.17593(7)
C62 C 0.00560(11) -0.3705(5) 0.17314(7)
C63 C -0.01850(11) -0.4452(5) 0.15183(7)
H50 H -0.0485 -0.4376 0.1504
C64 C -0.00015(11) -0.5298(4) 0.13279(7)
C65 C 0.04404(11) -0.5286(5) 0.13407(7)
H51 H 0.0570 -0.5788 0.1205
C66 C 0.06951(11) -0.4549(5) 0.15499(7)
C67 C 0.11630(12) -0.4612(5) 0.15671(7)
C68 C 0.13875(11) -0.4432(5) 0.18140(7)
C69 C -0.02839(12) -0.6276(5) 0.11135(7)
C70 C -0.00521(14) -0.6640(6) 0.08758(8)
H52 H 0.0196 -0.7342 0.0929
H53 H 0.0039 -0.5586 0.0804
H54 H -0.0244 -0.7224 0.0743
C71 C -0.06881(13) -0.5287(7) 0.10155(8)
H55 H -0.0860 -0.5147 0.1158
H56 H -0.0851 -0.5898 0.0873
H57 H -0.0610 -0.4188 0.0953
C72 C -0.04007(15) -0.7919(6) 0.12349(9)
H58 H -0.0569 -0.7691 0.1377
H59 H -0.0142 -0.8517 0.1303
H60 H -0.0566 -0.8606 0.1103
C73 C -0.01343(13) -0.2586(5) 0.24086(8)
C74 C 0.00437(13) -0.3049(6) 0.26589(8)
H61 H 0.0334 -0.3362 0.2686
C75 C -0.01823(14) -0.3070(6) 0.28653(9)
H62 H -0.0048 -0.3375 0.3033
C76 C -0.06092(14) -0.2645(6) 0.28318(9)
H63 H -0.0766 -0.2654 0.2976
C77 C -0.07997(13) -0.2219(6) 0.25934(9)
H64 H -0.1091 -0.1925 0.2572
C78 C -0.05735(12) -0.2202(5) 0.23725(8)
C79 C -0.05663(12) -0.2166(5) 0.18944(8)
C80 C -0.07495(12) -0.1651(5) 0.16521(8)
H65 H -0.0606 -0.1864 0.1506
C81 C -0.11335(13) -0.0840(5) 0.16153(9)
H66 H -0.1250 -0.0493 0.1446
C82 C -0.13511(14) -0.0531(6) 0.18307(9)
H67 H -0.1621 -0.0008 0.1807
C83 C -0.11730(13) -0.0988(6) 0.20766(9)
H68 H -0.1319 -0.0753 0.2221
C84 C -0.07841(12) -0.1784(5) 0.21157(8)
C85 C 0.13917(12) -0.4741(5) 0.13432(7)
C86 C 0.12055(12) -0.4257(5) 0.10882(7)
H69 H 0.0916 -0.3946 0.1062
C87 C 0.14346(12) -0.4233(5) 0.08828(7)
H70 H 0.1305 -0.3892 0.0716
C88 C 0.18623(13) -0.4711(5) 0.09168(7)
H71 H 0.2020 -0.4727 0.0773
C89 C 0.20518(12) -0.5161(5) 0.11639(7)
H72 H 0.2342 -0.5476 0.1188
C90 C 0.18252(12) -0.5159(5) 0.13760(7)
C91 C 0.18134(11) -0.5159(5) 0.18521(7)
C92 C 0.19983(12) -0.5673(5) 0.21060(7)
H73 H 0.1856 -0.5443 0.2252
C93 C 0.23774(13) -0.6490(6) 0.21393(8)
H74 H 0.2497 -0.6813 0.2309
C94 C 0.25908(12) -0.6856(6) 0.19289(8)
H75 H 0.2857 -0.7404 0.1955
C95 C 0.24140(12) -0.6419(5) 0.16837(8)
H76 H 0.2557 -0.6694 0.1539
C96 C 0.20217(11) -0.5565(5) 0.16415(7)
C97 C 0.32957(14) 0.0950(6) 0.45018(9)
C98 C 0.37444(14) 0.0708(6) 0.45140(8)
C99 C 0.39970(17) 0.1483(8) 0.47158(10)
H77 H 0.4295 0.1435 0.4718
C100 C 0.38313(18) 0.2332(7) 0.49157(9)
C101 C 0.33912(18) 0.2383(8) 0.49141(10)
H78 H 0.3275 0.2955 0.5049
C102 C 0.31175(18) 0.1601(7) 0.47154(10)
C103 C 0.26571(17) 0.1700(7) 0.47029(11)
C104 C 0.24123(16) 0.1509(7) 0.44728(11)
C105 C 0.4125(2) 0.3305(9) 0.51187(11)
C106 C 0.3894(2) 0.3888(11) 0.53460(12)
H79 H 0.3785 0.2914 0.5431
H80 H 0.3658 0.4620 0.5280
H81 H 0.4091 0.4501 0.5472
C107 C 0.44940(19) 0.2228(12) 0.52247(11)
H82 H 0.4390 0.1229 0.5306
H83 H 0.4680 0.2858 0.5355
H84 H 0.4653 0.1896 0.5083
C108 C 0.4298(3) 0.4834(11) 0.49795(14)
H85 H 0.4070 0.5653 0.4939
H86 H 0.4400 0.4466 0.4818
H87 H 0.4530 0.5346 0.5094
C109 C 0.30278(15) 0.0386(6) 0.42763(9)
C110 C 0.25781(14) 0.0607(7) 0.42637(10)
C111 C 0.23287(14) -0.0206(7) 0.40590(11)
H88 H 0.2030 -0.0143 0.4054
C112 C 0.24846(15) -0.1071(7) 0.38682(10)
C113 C 0.29235(14) -0.1088(6) 0.38662(9)
H89 H 0.3038 -0.1639 0.3728
C114 C 0.31997(14) -0.0305(6) 0.40639(9)
C115 C 0.36696(14) -0.0321(6) 0.40661(9)
C116 C 0.39106(14) -0.0129(6) 0.42977(9)
C117 C 0.21881(18) -0.2107(8) 0.36658(12)
C118 C 0.24047(19) -0.2594(9) 0.34311(12)
H90 H 0.2508 -0.1587 0.3352
H91 H 0.2202 -0.3172 0.3304
H92 H 0.2644 -0.3335 0.3487
C119 C 0.18025(17) -0.1049(11) 0.35731(12)
H93 H 0.1894 0.0046 0.3517
H94 H 0.1631 -0.0903 0.3716
H95 H 0.1634 -0.1608 0.3427
C120 C 0.2053(2) -0.3657(10) 0.38055(13)
H96 H 0.1859 -0.4323 0.3685
H97 H 0.1910 -0.3319 0.3954
H98 H 0.2303 -0.4326 0.3867
C121 C 0.2440(2) 0.1936(8) 0.49382(12)
C122 C 0.2631(3) 0.1444(9) 0.51823(12)
H99 H 0.2915 0.1052 0.5203
C123 C 0.2406(3) 0.1525(10) 0.53967(16)
H100 H 0.2543 0.1231 0.5564
C124 C 0.1996(4) 0.2017(10) 0.53698(19)
H101 H 0.1847 0.2059 0.5517
C125 C 0.1799(3) 0.2447(10) 0.51338(18)
H102 H 0.1514 0.2816 0.5120
C126 C 0.2003(2) 0.2368(8) 0.49056(16)
C127 C 0.19835(17) 0.2208(8) 0.44326(13)
C128 C 0.17846(16) 0.2682(9) 0.41937(15)
H103 H 0.1919 0.2431 0.4045
C129 C 0.13975(18) 0.3509(10) 0.41570(18)
H104 H 0.1264 0.3761 0.3987
C130 C 0.1215(2) 0.3952(11) 0.4374(2)
H105 H 0.0953 0.4535 0.4353
C131 C 0.1399(2) 0.3579(10) 0.46141(19)
H106 H 0.1259 0.3883 0.4759
C132 C 0.1800(2) 0.2732(9) 0.46599(16)
C133 C 0.38635(15) -0.0500(6) 0.38233(8)
C134 C 0.36459(16) -0.0049(7) 0.35788(9)
H107 H 0.3355 0.0240 0.3565
C135 C 0.3852(2) -0.0021(7) 0.33581(10)
H108 H 0.3704 0.0296 0.3195
C136 C 0.4277(2) -0.0462(8) 0.33784(11)
H109 H 0.4418 -0.0492 0.3228
C137 C 0.44907(18) -0.0853(8) 0.36161(11)
H110 H 0.4782 -0.1126 0.3626
C138 C 0.42993(15) -0.0869(7) 0.38459(9)
C139 C 0.43407(14) -0.0793(7) 0.43260(9)
C140 C 0.45565(16) -0.1313(8) 0.45735(10)
H111 H 0.4428 -0.1104 0.4726
C141 C 0.49373(16) -0.2092(9) 0.45953(10)
H112 H 0.5078 -0.2383 0.4762
C142 C 0.51199(15) -0.2459(8) 0.43729(11)
H113 H 0.5388 -0.2994 0.4388
C143 C 0.49216(14) -0.2067(8) 0.41345(11)
H114 H 0.5053 -0.2350 0.3986
C144 C 0.45206(14) -0.1241(7) 0.40990(10)
C145 C 0.45004(14) -0.4358(6) 0.32157(8)
C146 C 0.49392(14) -0.4084(6) 0.32040(8)
C147 C 0.52245(14) -0.4877(7) 0.33927(8)
H115 H 0.5518 -0.4780 0.3379
C148 C 0.51056(14) -0.5775(7) 0.35933(8)
C149 C 0.46749(15) -0.5871(7) 0.36192(9)
H116 H 0.4587 -0.6457 0.3763
C150 C 0.43679(15) -0.5114(6) 0.34368(8)
C151 C 0.39088(15) -0.5226(6) 0.34573(9)
C152 C 0.36286(13) -0.4994(6) 0.32393(8)
C153 C 0.54452(17) -0.6717(8) 0.37805(10)
C154 C 0.52490(19) -0.7460(10) 0.40115(11)
H117 H 0.5126 -0.6562 0.4106
H118 H 0.5469 -0.8034 0.4128
H119 H 0.5027 -0.8258 0.3947
C155 C 0.57818(16) -0.5466(10) 0.38961(10)
H120 H 0.5646 -0.4558 0.3981
H121 H 0.5929 -0.5006 0.3757
H122 H 0.5986 -0.6034 0.4024
C156 C 0.5631(2) -0.8124(10) 0.36330(12)
H123 H 0.5407 -0.8915 0.3570
H124 H 0.5850 -0.8704 0.3749
H125 H 0.5756 -0.7660 0.3485
C157 C 0.42001(12) -0.3784(5) 0.30060(8)
C158 C 0.37584(12) -0.4051(5) 0.30164(8)
C159 C 0.34721(13) -0.3264(6) 0.28327(8)
H126 H 0.3178 -0.3359 0.2846
C160 C 0.36033(13) -0.2322(6) 0.26259(8)
C161 C 0.40361(13) -0.2237(6) 0.26079(8)
H127 H 0.4130 -0.1624 0.2469
C162 C 0.43334(14) -0.3017(6) 0.27864(8)
C163 C 0.47860(13) -0.2885(6) 0.27672(8)
C164 C 0.50681(13) -0.3124(6) 0.29911(9)
C165 C 0.32762(14) -0.1399(6) 0.24397(9)
C166 C 0.29316(14) -0.2628(7) 0.23255(9)
H128 H 0.3058 -0.3492 0.2226
H129 H 0.2715 -0.2025 0.2211
H130 H 0.2802 -0.3151 0.2467
C167 C 0.30708(16) -0.0024(7) 0.25953(10)
H131 H 0.2948 -0.0539 0.2740
H132 H 0.2848 0.0546 0.2480
H133 H 0.3287 0.0787 0.2663
C168 C 0.34673(15) -0.0589(7) 0.22138(9)
H134 H 0.3593 -0.1454 0.2114
H135 H 0.3686 0.0211 0.2282
H136 H 0.3245 -0.0007 0.2101
C169 C 0.37572(16) -0.5481(6) 0.37121(9)
C170 C 0.39924(17) -0.5041(7) 0.39488(9)
H137 H 0.4275 -0.4666 0.3949
C171 C 0.3829(2) -0.5130(8) 0.41804(10)
H138 H 0.3995 -0.4825 0.4339
C172 C 0.3413(2) -0.5682(8) 0.41787(11)
H139 H 0.3296 -0.5789 0.4338
C173 C 0.31748(18) -0.6065(7) 0.39526(10)
H140 H 0.2892 -0.6426 0.3958
C174 C 0.33255(16) -0.5954(7) 0.37080(10)
C175 C 0.32089(14) -0.5735(6) 0.32258(9)
C176 C 0.29608(15) -0.6150(7) 0.29882(10)
H141 H 0.3064 -0.5872 0.2829
C177 C 0.25778(15) -0.6938(8) 0.29794(11)
H142 H 0.2412 -0.7156 0.2818
C178 C 0.24343(16) -0.7418(8) 0.32148(12)
H143 H 0.2166 -0.7939 0.3211
C179 C 0.26757(15) -0.7146(7) 0.34482(12)
H144 H 0.2579 -0.7544 0.3603
C180 C 0.30680(14) -0.6280(6) 0.34645(10)
C181 C 0.49582(15) -0.2615(5) 0.25225(9)
C182 C 0.47174(16) -0.3038(6) 0.22832(9)
H145 H 0.4434 -0.3412 0.2281
C183 C 0.4890(2) -0.2913(6) 0.20516(10)
H146 H 0.4722 -0.3201 0.1893
C184 C 0.52970(19) -0.2386(6) 0.20451(10)
H147 H 0.5410 -0.2278 0.1885
C185 C 0.55392(18) -0.2015(6) 0.22778(11)
H148 H 0.5824 -0.1673 0.2276
C186 C 0.53769(14) -0.2128(6) 0.25183(9)
C187 C 0.54946(13) -0.2354(6) 0.29970(10)
C188 C 0.57450(14) -0.1982(7) 0.32356(10)
H149 H 0.5648 -0.2296 0.3395
C189 C 0.61300(17) -0.1167(9) 0.32399(13)
H150 H 0.6295 -0.0939 0.3402
C190 C 0.62709(17) -0.0697(8) 0.30162(14)
H151 H 0.6540 -0.0180 0.3021
C191 C 0.60279(16) -0.0958(7) 0.27803(13)
H152 H 0.6124 -0.0552 0.2626
C192 C 0.56380(13) -0.1822(6) 0.27654(10)
loop_
_geom_bond_atom_site_label_1
_geom_bond_atom_site_label_2
_geom_bond_site_symmetry_1
_geom_bond_site_symmetry_2
C1 C2 1_555 1_555
C2 C3 1_555 1_555
C3 H1 1_555 1_555
C4 C3 1_555 1_555
C5 C4 1_555 1_555
H2 C5 1_555 1_555
C6 C1 1_555 1_555
C7 C6 1_555 1_555
C8 C7 1_555 1_555
C9 C4 1_555 1_555
C10 C9 1_555 1_555
H3 C10 1_555 1_555
H4 C10 1_555 1_555
H5 C10 1_555 1_555
C11 C9 1_555 1_555
H6 C11 1_555 1_555
H7 C11 1_555 1_555
H8 C11 1_555 1_555
C12 C9 1_555 1_555
H9 C12 1_555 1_555
H10 C12 1_555 1_555
H11 C12 1_555 1_555
C13 C1 1_555 1_555
C14 C8 1_555 1_555
C15 C14 1_555 1_555
H12 C15 1_555 1_555
C16 C15 1_555 1_555
C17 C16 1_555 1_555
H13 C17 1_555 1_555
C18 C13 1_555 1_555
C19 C18 1_555 1_555
C20 C2 1_555 1_555
C21 C16 1_555 1_555
C22 C21 1_555 1_555
H14 C22 1_555 1_555
H15 C22 1_555 1_555
H16 C22 1_555 1_555
C23 C21 1_555 1_555
H17 C23 1_555 1_555
H18 C23 1_555 1_555
H19 C23 1_555 1_555
C24 C21 1_555 1_555
H20 C24 1_555 1_555
H21 C24 1_555 1_555
H22 C24 1_555 1_555
C25 C7 1_555 1_555
C26 C25 1_555 1_555
H23 C26 1_555 1_555
C27 C26 1_555 1_555
H24 C27 1_555 1_555
C28 C27 1_555 1_555
H25 C28 1_555 1_555
C29 C28 1_555 1_555
H26 C29 1_555 1_555
C30 C25 1_555 1_555
C31 C8 1_555 1_555
C32 C31 1_555 1_555
H27 C32 1_555 1_555
C33 C32 1_555 1_555
H28 C33 1_555 1_555
C34 C33 1_555 1_555
H29 C34 1_555 1_555
C35 C34 1_555 1_555
H30 C35 1_555 1_555
C36 C30 1_555 1_555
C37 C19 1_555 1_555
C38 C37 1_555 1_555
H31 C38 1_555 1_555
C39 C38 1_555 1_555
H32 C39 1_555 1_555
C40 C39 1_555 1_555
H33 C40 1_555 1_555
C41 C40 1_555 1_555
H34 C41 1_555 1_555
C42 C37 1_555 1_555
C43 C20 1_555 1_555
C44 C43 1_555 1_555
H35 C44 1_555 1_555
C45 C44 1_555 1_555
H36 C45 1_555 1_555
C46 C45 1_555 1_555
H37 C46 1_555 1_555
C47 C46 1_555 1_555
H38 C47 1_555 1_555
C48 C42 1_555 1_555
C49 C50 1_555 1_555
C50 C51 1_555 1_555
C51 H39 1_555 1_555
C52 C51 1_555 1_555
C53 C52 1_555 1_555
H40 C53 1_555 1_555
C54 C49 1_555 1_555
C55 C54 1_555 1_555
C56 C55 1_555 1_555
C57 C52 1_555 1_555
C58 C57 1_555 1_555
H41 C58 1_555 1_555
H42 C58 1_555 1_555
H43 C58 1_555 1_555
C59 C57 1_555 1_555
H44 C59 1_555 1_555
H45 C59 1_555 1_555
H46 C59 1_555 1_555
C60 C57 1_555 1_555
H47 C60 1_555 1_555
H48 C60 1_555 1_555
H49 C60 1_555 1_555
C61 C49 1_555 1_555
C62 C56 1_555 1_555
C63 C62 1_555 1_555
H50 C63 1_555 1_555
C64 C63 1_555 1_555
C65 C64 1_555 1_555
H51 C65 1_555 1_555
C66 C61 1_555 1_555
C67 C66 1_555 1_555
C68 C50 1_555 1_555
C69 C64 1_555 1_555
C70 C69 1_555 1_555
H52 C70 1_555 1_555
H53 C70 1_555 1_555
H54 C70 1_555 1_555
C71 C69 1_555 1_555
H55 C71 1_555 1_555
H56 C71 1_555 1_555
H57 C71 1_555 1_555
C72 C69 1_555 1_555
H58 C72 1_555 1_555
H59 C72 1_555 1_555
H60 C72 1_555 1_555
C73 C55 1_555 1_555
C74 C73 1_555 1_555
H61 C74 1_555 1_555
C75 C74 1_555 1_555
H62 C75 1_555 1_555
C76 C75 1_555 1_555
H63 C76 1_555 1_555
C77 C76 1_555 1_555
H64 C77 1_555 1_555
C78 C73 1_555 1_555
C79 C56 1_555 1_555
C80 C79 1_555 1_555
H65 C80 1_555 1_555
C81 C80 1_555 1_555
H66 C81 1_555 1_555
C82 C81 1_555 1_555
H67 C82 1_555 1_555
C83 C82 1_555 1_555
H68 C83 1_555 1_555
C84 C78 1_555 1_555
C85 C67 1_555 1_555
C86 C85 1_555 1_555
H69 C86 1_555 1_555
C87 C86 1_555 1_555
H70 C87 1_555 1_555
C88 C87 1_555 1_555
H71 C88 1_555 1_555
C89 C88 1_555 1_555
H72 C89 1_555 1_555
C90 C85 1_555 1_555
C91 C68 1_555 1_555
C92 C91 1_555 1_555
H73 C92 1_555 1_555
C93 C92 1_555 1_555
H74 C93 1_555 1_555
C94 C93 1_555 1_555
H75 C94 1_555 1_555
C95 C94 1_555 1_555
H76 C95 1_555 1_555
C96 C90 1_555 1_555
C97 C98 1_555 1_555
C98 C99 1_555 1_555
C99 H77 1_555 1_555
C100 C99 1_555 1_555
C101 C100 1_555 1_555
H78 C101 1_555 1_555
C102 C97 1_555 1_555
C103 C102 1_555 1_555
C104 C103 1_555 1_555
C105 C100 1_555 1_555
C106 C105 1_555 1_555
H79 C106 1_555 1_555
H80 C106 1_555 1_555
H81 C106 1_555 1_555
C107 C105 1_555 1_555
H82 C107 1_555 1_555
H83 C107 1_555 1_555
H84 C107 1_555 1_555
C108 C105 1_555 1_555
H85 C108 1_555 1_555
H86 C108 1_555 1_555
H87 C108 1_555 1_555
C109 C97 1_555 1_555
C110 C104 1_555 1_555
C111 C110 1_555 1_555
H88 C111 1_555 1_555
C112 C111 1_555 1_555
C113 C112 1_555 1_555
H89 C113 1_555 1_555
C114 C109 1_555 1_555
C115 C114 1_555 1_555
C116 C98 1_555 1_555
C117 C112 1_555 1_555
C118 C117 1_555 1_555
H90 C118 1_555 1_555
H91 C118 1_555 1_555
H92 C118 1_555 1_555
C119 C117 1_555 1_555
H93 C119 1_555 1_555
H94 C119 1_555 1_555
H95 C119 1_555 1_555
C120 C117 1_555 1_555
H96 C120 1_555 1_555
H97 C120 1_555 1_555
H98 C120 1_555 1_555
C121 C103 1_555 1_555
C122 C121 1_555 1_555
H99 C122 1_555 1_555
C123 C122 1_555 1_555
H100 C123 1_555 1_555
C124 C123 1_555 1_555
H101 C124 1_555 1_555
C125 C124 1_555 1_555
H102 C125 1_555 1_555
C126 C121 1_555 1_555
C127 C104 1_555 1_555
C128 C127 1_555 1_555
H103 C128 1_555 1_555
C129 C128 1_555 1_555
H104 C129 1_555 1_555
C130 C129 1_555 1_555
H105 C130 1_555 1_555
C131 C130 1_555 1_555
H106 C131 1_555 1_555
C132 C126 1_555 1_555
C133 C115 1_555 1_555
C134 C133 1_555 1_555
H107 C134 1_555 1_555
C135 C134 1_555 1_555
H108 C135 1_555 1_555
C136 C135 1_555 1_555
H109 C136 1_555 1_555
C137 C136 1_555 1_555
H110 C137 1_555 1_555
C138 C133 1_555 1_555
C139 C116 1_555 1_555
C140 C139 1_555 1_555
H111 C140 1_555 1_555
C141 C140 1_555 1_555
H112 C141 1_555 1_555
C142 C141 1_555 1_555
H113 C142 1_555 1_555
C143 C142 1_555 1_555
H114 C143 1_555 1_555
C144 C138 1_555 1_555
C145 C146 1_555 1_555
C146 C147 1_555 1_555
C147 H115 1_555 1_555
C148 C147 1_555 1_555
C149 C148 1_555 1_555
H116 C149 1_555 1_555
C150 C145 1_555 1_555
C151 C150 1_555 1_555
C152 C151 1_555 1_555
C153 C148 1_555 1_555
C154 C153 1_555 1_555
H117 C154 1_555 1_555
H118 C154 1_555 1_555
H119 C154 1_555 1_555
C155 C153 1_555 1_555
H120 C155 1_555 1_555
H121 C155 1_555 1_555
H122 C155 1_555 1_555
C156 C153 1_555 1_555
H123 C156 1_555 1_555
H124 C156 1_555 1_555
H125 C156 1_555 1_555
C157 C145 1_555 1_555
C158 C152 1_555 1_555
C159 C158 1_555 1_555
H126 C159 1_555 1_555
C160 C159 1_555 1_555
C161 C160 1_555 1_555
H127 C161 1_555 1_555
C162 C157 1_555 1_555
C163 C162 1_555 1_555
C164 C146 1_555 1_555
C165 C160 1_555 1_555
C166 C165 1_555 1_555
H128 C166 1_555 1_555
H129 C166 1_555 1_555
H130 C166 1_555 1_555
C167 C165 1_555 1_555
H131 C167 1_555 1_555
H132 C167 1_555 1_555
H133 C167 1_555 1_555
C168 C165 1_555 1_555
H134 C168 1_555 1_555
H135 C168 1_555 1_555
H136 C168 1_555 1_555
C169 C151 1_555 1_555
C170 C169 1_555 1_555
H137 C170 1_555 1_555
C171 C170 1_555 1_555
H138 C171 1_555 1_555
C172 C171 1_555 1_555
H139 C172 1_555 1_555
C173 C172 1_555 1_555
H140 C173 1_555 1_555
C174 C169 1_555 1_555
C175 C152 1_555 1_555
C176 C175 1_555 1_555
H141 C176 1_555 1_555
C177 C176 1_555 1_555
H142 C177 1_555 1_555
C178 C177 1_555 1_555
H143 C178 1_555 1_555
C179 C178 1_555 1_555
H144 C179 1_555 1_555
C180 C174 1_555 1_555
C181 C163 1_555 1_555
C182 C181 1_555 1_555
H145 C182 1_555 1_555
C183 C182 1_555 1_555
H146 C183 1_555 1_555
C184 C183 1_555 1_555
H147 C184 1_555 1_555
C185 C184 1_555 1_555
H148 C185 1_555 1_555
C186 C181 1_555 1_555
C187 C164 1_555 1_555
C188 C187 1_555 1_555
H149 C188 1_555 1_555
C189 C188 1_555 1_555
H150 C189 1_555 1_555
C190 C189 1_555 1_555
H151 C190 1_555 1_555
C191 C190 1_555 1_555
H152 C191 1_555 1_555
C192 C186 1_555 1_555
C5 C6 1_555 1_555
C13 C14 1_555 1_555
C17 C18 1_555 1_555
C19 C20 1_555 1_555
C29 C30 1_555 1_555
C31 C36 1_555 1_555
C35 C36 1_555 1_555
C41 C42 1_555 1_555
C43 C48 1_555 1_555
C47 C48 1_555 1_555
C53 C54 1_555 1_555
C61 C62 1_555 1_555
C65 C66 1_555 1_555
C67 C68 1_555 1_555
C77 C78 1_555 1_555
C79 C84 1_555 1_555
C83 C84 1_555 1_555
C89 C90 1_555 1_555
C91 C96 1_555 1_555
C95 C96 1_555 1_555
C101 C102 1_555 1_555
C109 C110 1_555 1_555
C113 C114 1_555 1_555
C115 C116 1_555 1_555
C125 C126 1_555 1_555
C127 C132 1_555 1_555
C131 C132 1_555 1_555
C137 C138 1_555 1_555
C139 C144 1_555 1_555
C143 C144 1_555 1_555
C149 C150 1_555 1_555
C157 C158 1_555 1_555
C161 C162 1_555 1_555
C163 C164 1_555 1_555
C173 C174 1_555 1_555
C175 C180 1_555 1_555
C179 C180 1_555 1_555
C185 C186 1_555 1_555
C187 C192 1_555 1_555
C191 C192 1_555 1_555

#END
