
#######################################################################
#
#                 Cambridge Crystallographic Data Centre
#                                CCDC 
#
#######################################################################
#
# If this CIF has been generated from an entry in the Cambridge 
# Structural Database, then it will include bibliographic, chemical, 
# crystal, experimental, refinement or atomic coordinate data resulting 
# from the CCDC's data processing and validation procedures.
#
#######################################################################

data_BIRXIM
_chemical_name_common            'beta-truxinic acid'
_chemical_formula_moiety         'C18 H16 O4'
_chemical_name_systematic        
'(1R,2S,3R,4S)-rel-3,4-diphenyl-cyclobutane-1,2- dicarboxylic acid'
_symmetry_cell_setting           monoclinic
_symmetry_space_group_name_H-M   'P 21/c'
_symmetry_Int_Tables_number      14
_space_group_name_Hall           '-P 2ybc'
loop_
_symmetry_equiv_pos_site_id
_symmetry_equiv_pos_as_xyz
1 x,y,z
2 -x,1/2+y,1/2-z
3 -x,-y,-z
4 x,1/2-y,1/2+z
_cell_length_a                   16.2829(11)
_cell_length_b                   5.5494(3)
_cell_length_c                   16.4604(10)
_cell_angle_alpha                90
_cell_angle_beta                 113.418(4)
_cell_angle_gamma                90
_cell_volume                     1364.85
_exptl_crystal_colour            colorless
_exptl_crystal_description       Plate
_cell_formula_units_Z            4
loop_
_atom_site_label
_atom_site_type_symbol
_atom_site_fract_x
_atom_site_fract_y
_atom_site_fract_z
O1 O 0.41804(6) 0.79748(16) 0.21236(6)
H1 H 0.4414(11) 0.740(3) 0.1708(12)
O2 O 0.35847(6) 0.42675(16) 0.19554(6)
O3 O 0.49787(6) 1.11761(16) 0.38608(6)
O4 O 0.54991(6) 0.73989(17) 0.39348(6)
H2 H 0.5873(12) 0.811(3) 0.3766(11)
C1 C 0.16664(8) 0.7988(2) 0.53425(8)
H3 H 0.1291 0.7646 0.5646
C2 C 0.23234(9) 0.6375(2) 0.53675(9)
H4 H 0.2399 0.4916 0.5691
C3 C 0.28750(8) 0.6870(2) 0.49226(8)
H5 H 0.3322 0.5739 0.4945
C4 C 0.27802(8) 0.9000(2) 0.44455(8)
C5 C 0.33544(8) 0.9687(2) 0.39547(8)
H6 H 0.3617 1.1332 0.4128
C6 C 0.28987(8) 0.9397(2) 0.29101(8)
H7 H 0.3182 1.0581 0.2643
C7 C 0.19022(8) 0.9530(2) 0.24051(8)
C8 C 0.15384(8) 1.1508(2) 0.18556(8)
H8 H 0.1923 1.2752 0.1818
C9 C 0.06235(9) 1.1685(2) 0.13630(9)
H9 H 0.0386 1.3049 0.0995
C10 C 0.00552(8) 0.9875(2) 0.14064(9)
H10 H -0.0570 0.9984 0.1063
C11 C 0.21120(8) 1.0608(2) 0.44259(8)
H11 H 0.2033 1.2069 0.4103
C12 C 0.15626(9) 1.0117(2) 0.48668(8)
H12 H 0.1113 1.1239 0.4844
C13 C 0.40697(8) 0.7853(2) 0.39532(8)
H13 H 0.4211 0.6599 0.4426
C14 C 0.33971(8) 0.6954(2) 0.30162(8)
H14 H 0.3017 0.5630 0.3093
C15 C 0.13204(9) 0.7738(2) 0.24550(8)
H15 H 0.1553 0.6394 0.2835
C16 C 0.04049(9) 0.7902(2) 0.19544(8)
H16 H 0.0018 0.6661 0.1987
C17 C 0.37301(8) 0.6245(2) 0.23151(8)
C18 C 0.48896(8) 0.9009(2) 0.39139(8)
loop_
_geom_bond_atom_site_label_1
_geom_bond_atom_site_label_2
_geom_bond_site_symmetry_1
_geom_bond_site_symmetry_2
O1 H1 1_555 1_555
O2 C17 1_555 1_555
O3 C18 1_555 1_555
O4 H2 1_555 1_555
C1 H3 1_555 1_555
C2 C1 1_555 1_555
H4 C2 1_555 1_555
C3 C2 1_555 1_555
H5 C3 1_555 1_555
C4 C3 1_555 1_555
C5 C4 1_555 1_555
H6 C5 1_555 1_555
C6 C5 1_555 1_555
H7 C6 1_555 1_555
C7 C6 1_555 1_555
C8 C7 1_555 1_555
H8 C8 1_555 1_555
C9 C8 1_555 1_555
H9 C9 1_555 1_555
C10 C9 1_555 1_555
H10 C10 1_555 1_555
C11 C4 1_555 1_555
H11 C11 1_555 1_555
C12 C1 1_555 1_555
H12 C12 1_555 1_555
C13 C5 1_555 1_555
H13 C13 1_555 1_555
C14 C6 1_555 1_555
H14 C14 1_555 1_555
C15 C7 1_555 1_555
H15 C15 1_555 1_555
C16 C10 1_555 1_555
H16 C16 1_555 1_555
C17 O1 1_555 1_555
C18 O4 1_555 1_555
C11 C12 1_555 1_555
C13 C14 1_555 1_555
C13 C18 1_555 1_555
C14 C17 1_555 1_555
C15 C16 1_555 1_555

#END
