
#######################################################################
#
#                 Cambridge Crystallographic Data Centre
#                                CCDC 
#
#######################################################################
#
# If this CIF has been generated from an entry in the Cambridge 
# Structural Database, then it will include bibliographic, chemical, 
# crystal, experimental, refinement or atomic coordinate data resulting 
# from the CCDC's data processing and validation procedures.
#
#######################################################################

data_BISDEP
_chemical_formula_moiety         'C31 H31 N1 O4 S1'
_chemical_name_systematic        
"t-butyl 2-([1,1'-biphenyl]-4-yl)-3-[3-(methylsulfanyl)propanoyl]-2'-oxospiro[cyclopropane-1,3'-indole]-1'(2'H)-carboxylate"
_symmetry_cell_setting           monoclinic
_symmetry_space_group_name_H-M   'P 21/c'
_symmetry_Int_Tables_number      14
_space_group_name_Hall           '-P 2ybc'
loop_
_symmetry_equiv_pos_site_id
_symmetry_equiv_pos_as_xyz
1 x,y,z
2 -x,1/2+y,1/2-z
3 -x,-y,-z
4 x,1/2-y,1/2+z
_cell_length_a                   12.28948(18)
_cell_length_b                   9.62551(18)
_cell_length_c                   22.9368(4)
_cell_angle_alpha                90
_cell_angle_beta                 102.0456(15)
_cell_angle_gamma                90
_cell_volume                     2653.51
_exptl_crystal_colour            colorless
_exptl_crystal_description       block
_cell_formula_units_Z            4
loop_
_atom_site_label
_atom_site_type_symbol
_atom_site_fract_x
_atom_site_fract_y
_atom_site_fract_z
S1 S 0.00118(4) 0.31904(6) 0.21852(2)
O1 O 0.36378(9) 0.99941(12) 0.41712(5)
O2 O 0.34397(8) 0.75195(12) 0.45648(5)
O3 O 0.21005(10) 1.13397(13) 0.39077(6)
O4 O -0.01040(10) 0.43857(15) 0.40882(6)
N1 N 0.20191(10) 0.91939(13) 0.43262(5)
C1 C 0.15216(11) 0.69327(15) 0.45280(6)
C2 C 0.24744(12) 0.78579(16) 0.44873(6)
C3 C 0.16825(11) 0.56873(15) 0.49512(6)
H1 H 0.0989 0.5396 0.5062
C4 C 0.26842(11) 0.54177(15) 0.54336(6)
C5 C 0.08433(12) 0.91718(16) 0.42997(6)
C6 C 0.16757(12) 0.54403(16) 0.43079(6)
H2 H 0.2409 0.5254 0.4220
C7 C 0.05182(11) 0.78210(16) 0.44066(6)
C8 C 0.25742(12) 1.03016(17) 0.41129(7)
C9 C -0.05871(12) 0.75487(17) 0.44204(7)
H3 H -0.0814 0.6653 0.4490
C10 C 0.07340(12) 0.46762(16) 0.39196(7)
C11 C 0.44900(12) 0.47409(16) 0.63730(7)
C12 C 0.54754(12) 0.44262(17) 0.68548(7)
C13 C 0.27182(12) 0.58890(17) 0.60114(7)
H4 H 0.2140 0.6433 0.6090
C14 C 0.35571(13) 0.46008(18) 0.53358(7)
H5 H 0.3547 0.4269 0.4954
C15 C 0.44202(13) 1.09443(17) 0.39572(7)
C16 C 0.09018(13) 0.43005(17) 0.33076(7)
H6 H 0.1601 0.3807 0.3345
H7 H 0.0951 0.5146 0.3084
C17 C 0.36083(13) 0.55534(18) 0.64727(7)
H8 H 0.3615 0.5878 0.6855
C18 C -0.10045(13) 0.99749(19) 0.42308(7)
H9 H -0.1523 1.0692 0.4174
C19 C 0.44459(13) 0.42669(18) 0.57951(7)
H10 H 0.5021 0.3718 0.5716
C20 C 0.61100(14) 0.32343(19) 0.68277(8)
H11 H 0.5896 0.2612 0.6515
C21 C -0.13469(12) 0.8638(2) 0.43282(7)
H12 H -0.2090 0.8468 0.4332
C22 C 0.00995(13) 1.02672(17) 0.42169(6)
H13 H 0.0328 1.1166 0.4154
C23 C 0.70611(14) 0.2963(2) 0.72634(9)
H14 H 0.7478 0.2168 0.7238
C24 C 0.58129(14) 0.53274(19) 0.73341(7)
H15 H 0.5400 0.6124 0.7364
C25 C 0.73848(14) 0.3875(2) 0.77330(8)
H16 H 0.8020 0.3697 0.8023
C26 C -0.00320(14) 0.34033(19) 0.29634(7)
H17 H -0.0739 0.3817 0.2991
H18 H 0.0006 0.2494 0.3149
C27 C 0.67617(14) 0.5048(2) 0.77694(8)
H19 H 0.6975 0.5658 0.8087
C28 C 0.40915(16) 1.1048(2) 0.32851(8)
H20 H 0.4023 1.0132 0.3116
H21 H 0.4651 1.1555 0.3138
H22 H 0.3392 1.1524 0.3175
C29 C 0.55223(14) 1.0195(2) 0.41546(9)
H23 H 0.5689 1.0107 0.4581
H24 H 0.6101 1.0716 0.4031
H25 H 0.5474 0.9288 0.3977
C30 C 0.44427(15) 1.23359(19) 0.42648(9)
H26 H 0.3758 1.2819 0.4115
H27 H 0.5054 1.2877 0.4188
H28 H 0.4531 1.2196 0.4686
C31 C 0.12069(19) 0.2090(3) 0.22543(9)
H29 H 0.1248 0.1728 0.1870
H30 H 0.1147 0.1336 0.2520
H31 H 0.1866 0.2618 0.2411
loop_
_geom_bond_atom_site_label_1
_geom_bond_atom_site_label_2
_geom_bond_site_symmetry_1
_geom_bond_site_symmetry_2
S1 C26 1_555 1_555
O1 C8 1_555 1_555
O2 C2 1_555 1_555
O3 C8 1_555 1_555
O4 C10 1_555 1_555
N1 C2 1_555 1_555
C1 C2 1_555 1_555
C3 C1 1_555 1_555
H1 C3 1_555 1_555
C4 C3 1_555 1_555
C5 N1 1_555 1_555
C6 C1 1_555 1_555
H2 C6 1_555 1_555
C7 C1 1_555 1_555
C8 N1 1_555 1_555
C9 C7 1_555 1_555
H3 C9 1_555 1_555
C10 C6 1_555 1_555
C11 C12 1_555 1_555
C12 C20 1_555 1_555
C13 C4 1_555 1_555
H4 C13 1_555 1_555
C14 C4 1_555 1_555
H5 C14 1_555 1_555
C15 O1 1_555 1_555
C16 C10 1_555 1_555
H6 C16 1_555 1_555
H7 C16 1_555 1_555
C17 C11 1_555 1_555
H8 C17 1_555 1_555
C18 H9 1_555 1_555
C19 C11 1_555 1_555
H10 C19 1_555 1_555
C20 H11 1_555 1_555
C21 C9 1_555 1_555
H12 C21 1_555 1_555
C22 C5 1_555 1_555
H13 C22 1_555 1_555
C23 C20 1_555 1_555
H14 C23 1_555 1_555
C24 C12 1_555 1_555
H15 C24 1_555 1_555
C25 C23 1_555 1_555
H16 C25 1_555 1_555
C26 C16 1_555 1_555
H17 C26 1_555 1_555
H18 C26 1_555 1_555
C27 C24 1_555 1_555
H19 C27 1_555 1_555
C28 C15 1_555 1_555
H20 C28 1_555 1_555
H21 C28 1_555 1_555
H22 C28 1_555 1_555
C29 C15 1_555 1_555
H23 C29 1_555 1_555
H24 C29 1_555 1_555
H25 C29 1_555 1_555
C30 C15 1_555 1_555
H26 C30 1_555 1_555
H27 C30 1_555 1_555
H28 C30 1_555 1_555
C31 S1 1_555 1_555
H29 C31 1_555 1_555
H30 C31 1_555 1_555
H31 C31 1_555 1_555
C3 C6 1_555 1_555
C5 C7 1_555 1_555
C13 C17 1_555 1_555
C14 C19 1_555 1_555
C18 C21 1_555 1_555
C18 C22 1_555 1_555
C25 C27 1_555 1_555

#END
