
#######################################################################
#
#                 Cambridge Crystallographic Data Centre
#                                CCDC 
#
#######################################################################
#
# If this CIF has been generated from an entry in the Cambridge 
# Structural Database, then it will include bibliographic, chemical, 
# crystal, experimental, refinement or atomic coordinate data resulting 
# from the CCDC's data processing and validation procedures.
#
#######################################################################

data_BISDAL
_chemical_formula_moiety         'C21 H24 Br1 N1 O8 S1,C4 H8 O2'
_chemical_name_systematic        
"1'-t-butyl 2-methyl 6'-bromo-3-[3-(methylsulfonyl)propanoyl]-2'-oxospiro[cyclopropane-1,3'-indole]-1',2(2'H)-dicarboxylate ethyl acetate solvate"
_symmetry_cell_setting           orthorhombic
_symmetry_space_group_name_H-M   'P 21 21 21'
_symmetry_Int_Tables_number      19
_space_group_name_Hall           'P 2ac 2ab'
loop_
_symmetry_equiv_pos_site_id
_symmetry_equiv_pos_as_xyz
1 x,y,z
2 1/2-x,-y,1/2+z
3 -x,1/2+y,1/2-z
4 1/2+x,1/2-y,-z
_cell_length_a                   9.3481(2)
_cell_length_b                   15.6244(3)
_cell_length_c                   19.5758(5)
_cell_angle_alpha                90
_cell_angle_beta                 90
_cell_angle_gamma                90
_cell_volume                     2859.21
_exptl_crystal_colour            'light colorless'
_exptl_crystal_description       plate
_cell_formula_units_Z            4
loop_
_atom_site_label
_atom_site_type_symbol
_atom_site_fract_x
_atom_site_fract_y
_atom_site_fract_z
Br1 Br 0.11364(7) 0.84974(3) 0.45989(3)
S1 S -0.17934(13) 0.25840(8) 0.32591(6)
O1 O 0.6691(3) 0.5989(2) 0.34894(18)
O2 O 0.5780(4) 0.4397(2) 0.54577(19)
O3 O 0.5431(4) 0.4512(2) 0.38350(18)
N1 N 0.4419(4) 0.5876(2) 0.38316(18)
O4 O 0.5143(4) 0.7026(3) 0.3207(2)
O5 O 0.5348(4) 0.3101(2) 0.5010(2)
O6 O 0.0417(4) 0.4029(3) 0.4959(2)
O7 O -0.1159(5) 0.1763(3) 0.3367(3)
O8 O -0.1545(6) 0.2987(4) 0.2623(2)
C1 C 0.5451(5) 0.6362(3) 0.3473(2)
C2 C 0.4539(4) 0.5012(3) 0.4021(2)
C3 C 0.3508(5) 0.4167(3) 0.5044(2)
H1 H 0.2939 0.4257 0.5459
C4 C 0.2776(5) 0.7100(3) 0.4135(2)
H2 H 0.3193 0.7497 0.3841
C5 C 0.3217(4) 0.6256(3) 0.4155(2)
C6 C 0.4962(5) 0.3811(3) 0.5159(2)
C7 C 0.2532(4) 0.5653(2) 0.4571(2)
C8 C 0.1082(5) 0.3806(3) 0.4473(2)
C9 C 0.0417(5) 0.3392(3) 0.3856(3)
H3 H 0.0866 0.2841 0.3781
H4 H 0.0605 0.3745 0.3459
C10 C 0.1451(5) 0.5910(3) 0.5003(2)
H5 H 0.1013 0.5515 0.5291
C11 C 0.1679(5) 0.7321(3) 0.4575(2)
C12 C 0.2672(5) 0.3924(3) 0.4425(2)
H6 H 0.3164 0.3544 0.4103
C13 C 0.1021(5) 0.6758(3) 0.5008(3)
H7 H 0.0297 0.6941 0.5299
C14 C 0.3307(4) 0.4832(3) 0.4491(2)
C15 C 0.7981(5) 0.6402(4) 0.3180(3)
C16 C -0.1183(5) 0.3265(3) 0.3924(2)
H8 H -0.1665 0.3814 0.3896
H9 H -0.1400 0.3012 0.4364
C17 C 0.9144(6) 0.5768(5) 0.3364(5)
H10 H 0.9177 0.5697 0.3851
H11 H 1.0051 0.5977 0.3205
H12 H 0.8943 0.5226 0.3153
C18 C -0.3656(6) 0.2495(4) 0.3396(3)
H13 H -0.4093 0.2226 0.3008
H14 H -0.4058 0.3054 0.3459
H15 H -0.3828 0.2155 0.3797
C19 C 0.7780(8) 0.6480(7) 0.2428(4)
H16 H 0.7357 0.5965 0.2255
H17 H 0.8690 0.6571 0.2213
H18 H 0.7162 0.6956 0.2332
C20 C 0.7247(7) 0.4168(6) 0.5593(4)
H19 H 0.7768 0.4147 0.5170
H20 H 0.7279 0.3617 0.5809
H21 H 0.7670 0.4588 0.5888
C21 C 0.8276(8) 0.7235(5) 0.3536(5)
H22 H 0.7597 0.7656 0.3388
H23 H 0.9226 0.7424 0.3426
H24 H 0.8195 0.7156 0.4021
O9 O 0.3271(6) 0.4829(5) 0.1725(3)
O10 O 0.2444(8) 0.4615(5) 0.2777(3)
C22 C 0.2241(8) 0.4655(5) 0.2180(3)
C23 C 0.0842(8) 0.4562(5) 0.1843(4)
H25 H 0.0458 0.5118 0.1744
H26 H 0.0199 0.4260 0.2141
H27 H 0.0955 0.4246 0.1426
C24 C 0.5568(13) 0.4228(7) 0.1836(7)
H28 H 0.5586 0.4112 0.1355
H29 H 0.5165 0.3747 0.2074
H30 H 0.6525 0.4326 0.1996
C25 C 0.4708(10) 0.4979(8) 0.1964(6)
H31 H 0.4694 0.5103 0.2450
H32 H 0.5115 0.5468 0.1729
loop_
_geom_bond_atom_site_label_1
_geom_bond_atom_site_label_2
_geom_bond_site_symmetry_1
_geom_bond_site_symmetry_2
Br1 C11 1_555 1_555
S1 O7 1_555 1_555
O1 C1 1_555 1_555
O2 C6 1_555 1_555
O3 C2 1_555 1_555
N1 C1 1_555 1_555
O4 C1 1_555 1_555
O5 C6 1_555 1_555
O6 C8 1_555 1_555
O8 S1 1_555 1_555
C2 N1 1_555 1_555
C3 H1 1_555 1_555
C4 H2 1_555 1_555
C5 N1 1_555 1_555
C6 C3 1_555 1_555
C7 C5 1_555 1_555
C8 C9 1_555 1_555
C9 H3 1_555 1_555
H4 C9 1_555 1_555
C10 C7 1_555 1_555
H5 C10 1_555 1_555
C11 C4 1_555 1_555
C12 C3 1_555 1_555
H6 C12 1_555 1_555
C13 C10 1_555 1_555
H7 C13 1_555 1_555
C14 C2 1_555 1_555
C15 O1 1_555 1_555
C16 S1 1_555 1_555
H8 C16 1_555 1_555
H9 C16 1_555 1_555
C17 C15 1_555 1_555
H10 C17 1_555 1_555
H11 C17 1_555 1_555
H12 C17 1_555 1_555
C18 S1 1_555 1_555
H13 C18 1_555 1_555
H14 C18 1_555 1_555
H15 C18 1_555 1_555
C19 C15 1_555 1_555
H16 C19 1_555 1_555
H17 C19 1_555 1_555
H18 C19 1_555 1_555
C20 O2 1_555 1_555
H19 C20 1_555 1_555
H20 C20 1_555 1_555
H21 C20 1_555 1_555
C21 C15 1_555 1_555
H22 C21 1_555 1_555
H23 C21 1_555 1_555
H24 C21 1_555 1_555
O9 C22 1_555 1_555
O10 C22 1_555 1_555
C22 C23 1_555 1_555
C23 H25 1_555 1_555
H26 C23 1_555 1_555
H27 C23 1_555 1_555
C24 H28 1_555 1_555
H29 C24 1_555 1_555
H30 C24 1_555 1_555
C25 O9 1_555 1_555
H31 C25 1_555 1_555
H32 C25 1_555 1_555
C3 C14 1_555 1_555
C4 C5 1_555 1_555
C7 C14 1_555 1_555
C8 C12 1_555 1_555
C9 C16 1_555 1_555
C11 C13 1_555 1_555
C12 C14 1_555 1_555
C24 C25 1_555 1_555

#END
