
#######################################################################
#
#                 Cambridge Crystallographic Data Centre
#                                CCDC 
#
#######################################################################
#
# If this CIF has been generated from an entry in the Cambridge 
# Structural Database, then it will include bibliographic, chemical, 
# crystal, experimental, refinement or atomic coordinate data resulting 
# from the CCDC's data processing and validation procedures.
#
#######################################################################

data_BISDOZ
_chemical_formula_moiety         'C25 H26 Br1 N1 O4 S1'
_chemical_name_systematic        
"t-butyl 2-(3-bromophenyl)-3-[3-(methylsulfanyl)propanoyl]-2'-oxospiro[cyclopropane-1,3'-indole]-1'(2'H)-carboxylate"
_symmetry_cell_setting           orthorhombic
_symmetry_space_group_name_H-M   'P 21 21 21'
_symmetry_Int_Tables_number      19
_space_group_name_Hall           'P 2ac 2ab'
loop_
_symmetry_equiv_pos_site_id
_symmetry_equiv_pos_as_xyz
1 x,y,z
2 1/2-x,-y,1/2+z
3 -x,1/2+y,1/2-z
4 1/2+x,1/2-y,-z
_cell_length_a                   8.7244(3)
_cell_length_b                   13.2203(3)
_cell_length_c                   21.3674(7)
_cell_angle_alpha                90
_cell_angle_beta                 90
_cell_angle_gamma                90
_cell_volume                     2464.5
_exptl_crystal_colour            'light colorless'
_exptl_crystal_description       plate
_cell_formula_units_Z            4
loop_
_atom_site_label
_atom_site_type_symbol
_atom_site_fract_x
_atom_site_fract_y
_atom_site_fract_z
Br1 Br 0.83393(14) 0.69592(7) 0.14022(5)
S1 S -0.01460(17) 0.21213(14) 0.13249(9)
O1 O 0.5801(6) 0.1206(3) 0.2609(2)
O2 O 0.6090(7) 0.0112(3) 0.3672(2)
O3 O 0.5062(5) 0.2314(4) 0.1333(2)
O4 O 0.5650(8) 0.1011(3) 0.4539(2)
N1 N 0.5870(6) 0.1829(3) 0.3633(2)
C1 C 0.5728(6) 0.3542(4) 0.3425(3)
C2 C 0.5841(6) 0.3007(4) 0.2818(2)
C3 C 0.5231(6) 0.3420(4) 0.2206(2)
H1 H 0.4853 0.4117 0.2230
C4 C 0.5894(7) 0.0895(4) 0.3937(3)
C5 C 0.5572(7) 0.4554(4) 0.3558(3)
H2 H 0.5518 0.5025 0.3235
C6 C 0.7966(7) 0.4210(5) 0.2309(3)
C7 C 0.2676(7) 0.2768(5) 0.1790(3)
H3 H 0.2304 0.3447 0.1708
H4 H 0.2393 0.2593 0.2216
C8 C 0.5823(6) 0.1903(4) 0.2972(2)
C9 C 0.5495(8) 0.4867(5) 0.4175(3)
H5 H 0.5404 0.5550 0.4272
C10 C 0.5764(6) 0.2824(4) 0.3899(3)
C11 C 0.4396(7) 0.2763(4) 0.1736(3)
C12 C 0.5555(9) 0.4150(6) 0.4647(3)
H6 H 0.5503 0.4362 0.5061
C13 C 0.6909(6) 0.3321(4) 0.2273(3)
H7 H 0.7339 0.2745 0.2044
C14 C 0.7691(7) 0.5050(5) 0.1953(3)
H8 H 0.6775 0.5111 0.1733
C15 C 0.5690(8) 0.3130(5) 0.4521(3)
H9 H 0.5730 0.2659 0.4844
C16 C 0.5495(10) 0.0120(5) 0.4965(3)
C17 C 0.9334(7) 0.4129(6) 0.2643(3)
H10 H 0.9535 0.3557 0.2883
C18 C 0.8775(8) 0.5805(5) 0.1922(3)
C19 C 0.1908(8) 0.2045(6) 0.1346(4)
H11 H 0.2196 0.1361 0.1462
H12 H 0.2298 0.2168 0.0928
C20 C 1.0132(8) 0.5759(6) 0.2239(4)
H13 H 1.0854 0.6274 0.2207
C21 C 1.0394(8) 0.4914(7) 0.2612(4)
H14 H 1.1292 0.4873 0.2846
C22 C 0.4129(10) -0.0492(7) 0.4776(4)
H15 H 0.3325 -0.0047 0.4640
H16 H 0.3779 -0.0882 0.5127
H17 H 0.4407 -0.0938 0.4440
C23 C 0.6944(11) -0.0514(9) 0.4941(5)
H18 H 0.7019 -0.0838 0.4540
H19 H 0.6909 -0.1018 0.5264
H20 H 0.7819 -0.0086 0.5004
C24 C 0.524(2) 0.0640(8) 0.5589(4)
H21 H 0.6179 0.0944 0.5727
H22 H 0.4906 0.0152 0.5893
H23 H 0.4468 0.1153 0.5543
C25 C -0.0418(13) 0.3182(10) 0.0835(5)
H24 H 0.0027 0.3051 0.0432
H25 H 0.0065 0.3763 0.1019
H26 H -0.1496 0.3309 0.0787
loop_
_geom_bond_atom_site_label_1
_geom_bond_atom_site_label_2
_geom_bond_site_symmetry_1
_geom_bond_site_symmetry_2
Br1 C18 1_555 1_555
S1 C19 1_555 1_555
O1 C8 1_555 1_555
O2 C4 1_555 1_555
O3 C11 1_555 1_555
O4 C4 1_555 1_555
N1 C4 1_555 1_555
C1 C2 1_555 1_555
C2 C3 1_555 1_555
C3 H1 1_555 1_555
C5 C1 1_555 1_555
H2 C5 1_555 1_555
C6 C13 1_555 1_555
C7 H3 1_555 1_555
H4 C7 1_555 1_555
C8 N1 1_555 1_555
C9 C5 1_555 1_555
H5 C9 1_555 1_555
C10 N1 1_555 1_555
C11 C3 1_555 1_555
C12 C9 1_555 1_555
H6 C12 1_555 1_555
C13 C2 1_555 1_555
H7 C13 1_555 1_555
C14 C6 1_555 1_555
H8 C14 1_555 1_555
C15 C10 1_555 1_555
H9 C15 1_555 1_555
C16 O4 1_555 1_555
C17 C6 1_555 1_555
H10 C17 1_555 1_555
C18 C14 1_555 1_555
C19 C7 1_555 1_555
H11 C19 1_555 1_555
H12 C19 1_555 1_555
C20 C18 1_555 1_555
H13 C20 1_555 1_555
C21 C17 1_555 1_555
H14 C21 1_555 1_555
C22 C16 1_555 1_555
H15 C22 1_555 1_555
H16 C22 1_555 1_555
H17 C22 1_555 1_555
C23 C16 1_555 1_555
H18 C23 1_555 1_555
H19 C23 1_555 1_555
H20 C23 1_555 1_555
C24 C16 1_555 1_555
H21 C24 1_555 1_555
H22 C24 1_555 1_555
H23 C24 1_555 1_555
C25 S1 1_555 1_555
H24 C25 1_555 1_555
H25 C25 1_555 1_555
H26 C25 1_555 1_555
C1 C10 1_555 1_555
C2 C8 1_555 1_555
C3 C13 1_555 1_555
C7 C11 1_555 1_555
C12 C15 1_555 1_555
C20 C21 1_555 1_555

#END
