
#######################################################################
#
#                 Cambridge Crystallographic Data Centre
#                                CCDC 
#
#######################################################################
#
# If this CIF has been generated from an entry in the Cambridge 
# Structural Database, then it will include bibliographic, chemical, 
# crystal, experimental, refinement or atomic coordinate data resulting 
# from the CCDC's data processing and validation procedures.
#
#######################################################################

data_BISJIY
_chemical_formula_moiety         'C16 H22 B10 N2 O2,0.5(H2 O1),0.5(C7 H8)'
_chemical_name_systematic        
"N,N'-diphenyl-1,2-dicarba-closo-dodecaborane-1,2-dicarboxamide toluene solvate hemihydrate"
_symmetry_cell_setting           monoclinic
_symmetry_space_group_name_H-M   'P 21/n'
_symmetry_Int_Tables_number      14
_space_group_name_Hall           '-P 2yn'
loop_
_symmetry_equiv_pos_site_id
_symmetry_equiv_pos_as_xyz
1 x,y,z
2 1/2-x,1/2+y,1/2-z
3 -x,-y,-z
4 1/2+x,1/2-y,1/2+z
_cell_length_a                   11.9758(6)
_cell_length_b                   17.4738(7)
_cell_length_c                   23.230(2)
_cell_angle_alpha                90
_cell_angle_beta                 93.939(6)
_cell_angle_gamma                90
_cell_volume                     4849.69
_cell_formula_units_Z            8
loop_
_atom_site_label
_atom_site_type_symbol
_atom_site_fract_x
_atom_site_fract_y
_atom_site_fract_z
O3 O 0.48797(15) 0.39706(10) 0.24838(7)
O4 O 0.72700(16) 0.35033(10) 0.29629(8)
N3 N 0.39205(16) 0.28506(11) 0.25035(8)
H23 H 0.3658(19) 0.2511(11) 0.2727(9)
N4 N 0.70225(17) 0.47488(11) 0.32105(9)
H24 H 0.668(2) 0.5063(12) 0.3424(10)
C17 C 0.47347(18) 0.33898(12) 0.34010(9)
C18 C 0.59523(18) 0.37592(12) 0.36572(9)
C19 C 0.45233(19) 0.34288(12) 0.27450(9)
C20 C 0.35848(19) 0.27984(13) 0.18989(9)
C21 C 0.4229(2) 0.30881(19) 0.14823(11)
H25 H 0.4902 0.3334 0.1585
C22 C 0.3858(3) 0.3007(2) 0.09039(12)
H26 H 0.4281 0.3209 0.0619
C23 C 0.2875(3) 0.2631(2) 0.07478(12)
H27 H 0.2644 0.2568 0.0360
C24 C 0.2240(3) 0.23512(19) 0.11673(12)
H28 H 0.1570 0.2101 0.1064
C25 C 0.2586(2) 0.24376(16) 0.17438(11)
H29 H 0.2145 0.2252 0.2027
C26 C 0.68100(18) 0.39968(13) 0.32287(10)
C27 C 0.7831(2) 0.50970(14) 0.28697(11)
C28 C 0.8083(2) 0.48032(16) 0.23420(12)
H30 H 0.7717 0.4369 0.2194
C29 C 0.8884(3) 0.51590(18) 0.20351(15)
H31 H 0.9058 0.4959 0.1681
C30 C 0.9424(3) 0.58000(19) 0.22432(18)
H32 H 0.9972 0.6028 0.2036
C31 C 0.9156(3) 0.61060(19) 0.27579(18)
H33 H 0.9512 0.6549 0.2896
C32 C 0.8352(2) 0.57583(16) 0.30768(15)
H34 H 0.8167 0.5969 0.3425
B11 B 0.5744(2) 0.27674(15) 0.36969(11)
H35 H 0.6185 0.2336 0.3453
B12 B 0.4310(2) 0.26748(16) 0.38356(12)
H36 H 0.3822 0.2172 0.3683
B13 B 0.3694(2) 0.36062(16) 0.38410(12)
H37 H 0.2815 0.3702 0.3690
B14 B 0.4747(2) 0.42990(14) 0.37153(11)
H38 H 0.4560 0.4838 0.3483
B15 B 0.6415(3) 0.32991(16) 0.42774(12)
H39 H 0.7303 0.3205 0.4411
B16 B 0.5365(3) 0.26166(17) 0.44106(12)
H40 H 0.5565 0.2077 0.4638
B17 B 0.4090(3) 0.31310(19) 0.45025(12)
H41 H 0.3463 0.2923 0.4790
B18 B 0.4361(3) 0.41299(18) 0.44248(12)
H42 H 0.3912 0.4566 0.4660
B19 B 0.5801(2) 0.42322(16) 0.42932(11)
H43 H 0.6293 0.4735 0.4441
B20 B 0.5397(3) 0.35123(18) 0.47770(12)
H44 H 0.5619 0.3549 0.5244
O5 O 0.6055(2) 0.60599(13) 0.38329(11)
H45 H 0.561(3) 0.630(2) 0.3594(13)
H46 H 0.617(4) 0.630(2) 0.4146(10)
O1 O 0.25055(14) 0.64644(10) 0.21020(8)
O2 O 0.47868(15) 0.66444(11) 0.28143(7)
N1 N 0.32404(17) 0.52841(11) 0.22632(10)
H1 H 0.3766(17) 0.4972(13) 0.2181(12)
N2 N 0.61162(17) 0.75036(12) 0.25949(9)
H2 H 0.6515(19) 0.7677(14) 0.2332(9)
C1 C 0.52661(19) 0.66957(13) 0.18380(9)
C2 C 0.41634(19) 0.61524(12) 0.16359(10)
C3 C 0.32287(19) 0.59894(13) 0.20399(10)
C4 C 0.2400(2) 0.50106(14) 0.26225(11)
C5 C 0.1776(2) 0.43756(16) 0.24507(13)
H3 H 0.1896 0.4131 0.2105
C6 C 0.0967(3) 0.4106(2) 0.28018(18)
H4 H 0.0546 0.3677 0.2692
C7 C 0.0790(3) 0.4470(2) 0.33065(19)
H5 H 0.0243 0.4290 0.3538
C8 C 0.1408(3) 0.5094(2) 0.34739(16)
H6 H 0.1279 0.5339 0.3818
C9 C 0.2228(3) 0.53679(17) 0.31355(13)
H7 H 0.2658 0.5790 0.3254
C10 C 0.53643(19) 0.69508(13) 0.24699(10)
C11 C 0.6366(2) 0.77982(13) 0.31655(10)
C12 C 0.5527(3) 0.80279(17) 0.35032(12)
H8 H 0.4782 0.7997 0.3363
C13 C 0.5803(3) 0.83074(19) 0.40583(14)
H9 H 0.5238 0.8451 0.4292
C14 C 0.6891(4) 0.8371(2) 0.42586(14)
H10 H 0.7071 0.8559 0.4628
C15 C 0.7717(3) 0.8158(2) 0.39192(15)
H11 H 0.8461 0.8212 0.4056
C16 C 0.7469(2) 0.78621(17) 0.33737(12)
H12 H 0.8041 0.7708 0.3149
B1 B 0.5459(2) 0.57192(15) 0.17448(13)
H13 H 0.5685 0.5312 0.2095
B2 B 0.6423(3) 0.64114(17) 0.15045(13)
H14 H 0.7286 0.6447 0.1698
B3 B 0.5650(3) 0.72459(17) 0.12799(12)
H15 H 0.6018 0.7821 0.1328
B4 B 0.4215(3) 0.70874(16) 0.13835(12)
H16 H 0.3652 0.7550 0.1503
B5 B 0.4520(3) 0.54765(17) 0.11444(13)
H17 H 0.4146 0.4903 0.1102
B6 B 0.5956(3) 0.56404(19) 0.10467(15)
H18 H 0.6520 0.5174 0.0938
B7 B 0.6076(3) 0.65854(19) 0.07584(14)
H19 H 0.6720 0.6730 0.0461
B8 B 0.4714(3) 0.69998(19) 0.06875(13)
H20 H 0.4475 0.7413 0.0344
B9 B 0.3747(3) 0.63125(17) 0.09259(13)
H21 H 0.2875 0.6277 0.0745
B10 B 0.4896(3) 0.6008(2) 0.05375(14)
H22 H 0.4774 0.5779 0.0097
C33? C 0.5618(5) 0.0177(4) 0.5028(3)
C34? C 0.4948(5) -0.0245(4) 0.5377(2)
H47? H 0.5215 -0.0380 0.5749
C35? C 0.5218(5) 0.0379(4) 0.4473(3)
H48? H 0.5666 0.0660 0.4239
C36? C 0.4149(6) 0.0159(4) 0.4267(2)
H49? H 0.3882 0.0294 0.3895
C37? C 0.3479(4) -0.0263(4) 0.4616(3)
H50? H 0.2764 -0.0410 0.4478
C38? C 0.3879(5) -0.0464(4) 0.5171(3)
H51? H 0.3431 -0.0746 0.5404
C39? C 0.6775(6) 0.0385(6) 0.5205(4)
H52? H 0.6956 0.0214 0.5593
H53? H 0.6858 0.0931 0.5187
H54? H 0.7271 0.0148 0.4951
C40? C 0.0555(6) 0.4622(3) 0.5079(5)
C41? C 0.1040(6) 0.5345(4) 0.5101(4)
H55? H 0.1797 0.5399 0.5213
C42? C 0.0395(8) 0.5987(3) 0.4956(4)
H56? H 0.0720 0.6470 0.4971
C43? C -0.0736(7) 0.5906(4) 0.4789(4)
H57? H -0.1168 0.6335 0.4692
C44? C -0.1221(6) 0.5183(5) 0.4768(4)
H58? H -0.1978 0.5128 0.4656
C45? C -0.0576(6) 0.4541(4) 0.4913(5)
H59? H -0.0901 0.4057 0.4898
C46? C 0.1356(8) 0.3967(5) 0.5143(6)
H60? H 0.0949 0.3493 0.5119
H61? H 0.1771 0.3999 0.5511
H62? H 0.1864 0.3987 0.4842
loop_
_geom_bond_atom_site_label_1
_geom_bond_atom_site_label_2
_geom_bond_site_symmetry_1
_geom_bond_site_symmetry_2
O1 C3 1_555 1_555
O2 C10 1_555 1_555
N1 H1 1_555 1_555
N2 H2 1_555 1_555
C1 C2 1_555 1_555
C2 C3 1_555 1_555
C3 N1 1_555 1_555
C4 N1 1_555 1_555
C5 C4 1_555 1_555
H3 C5 1_555 1_555
C6 C5 1_555 1_555
H4 C6 1_555 1_555
C7 C6 1_555 1_555
H5 C7 1_555 1_555
C8 C7 1_555 1_555
H6 C8 1_555 1_555
C9 C4 1_555 1_555
H7 C9 1_555 1_555
C10 N2 1_555 1_555
C11 N2 1_555 1_555
C12 C11 1_555 1_555
H8 C12 1_555 1_555
C13 C12 1_555 1_555
H9 C13 1_555 1_555
C14 C13 1_555 1_555
H10 C14 1_555 1_555
C15 C14 1_555 1_555
H11 C15 1_555 1_555
C16 C11 1_555 1_555
H12 C16 1_555 1_555
B1 C1 1_555 1_555
H13 B1 1_555 1_555
B2 C1 1_555 1_555
H14 B2 1_555 1_555
B3 C1 1_555 1_555
H15 B3 1_555 1_555
B4 C1 1_555 1_555
H16 B4 1_555 1_555
B5 C2 1_555 1_555
H17 B5 1_555 1_555
B6 B1 1_555 1_555
H18 B6 1_555 1_555
B7 B2 1_555 1_555
H19 B7 1_555 1_555
B8 B3 1_555 1_555
H20 B8 1_555 1_555
B9 C2 1_555 1_555
H21 B9 1_555 1_555
B10 B5 1_555 1_555
H22 B10 1_555 1_555
O3 C19 1_555 1_555
O4 C26 1_555 1_555
N3 H23 1_555 1_555
N4 H24 1_555 1_555
C17 C18 1_555 1_555
C18 C26 1_555 1_555
C19 N3 1_555 1_555
C20 N3 1_555 1_555
C21 C20 1_555 1_555
H25 C21 1_555 1_555
C22 C21 1_555 1_555
H26 C22 1_555 1_555
C23 C22 1_555 1_555
H27 C23 1_555 1_555
C24 C23 1_555 1_555
H28 C24 1_555 1_555
C25 C20 1_555 1_555
H29 C25 1_555 1_555
C26 N4 1_555 1_555
C27 N4 1_555 1_555
C28 C27 1_555 1_555
H30 C28 1_555 1_555
C29 C28 1_555 1_555
H31 C29 1_555 1_555
C30 C29 1_555 1_555
H32 C30 1_555 1_555
C31 C30 1_555 1_555
H33 C31 1_555 1_555
C32 C27 1_555 1_555
H34 C32 1_555 1_555
B11 C17 1_555 1_555
H35 B11 1_555 1_555
B12 C17 1_555 1_555
H36 B12 1_555 1_555
B13 C17 1_555 1_555
H37 B13 1_555 1_555
B14 C17 1_555 1_555
H38 B14 1_555 1_555
B15 C18 1_555 1_555
H39 B15 1_555 1_555
B16 B11 1_555 1_555
H40 B16 1_555 1_555
B17 B12 1_555 1_555
H41 B17 1_555 1_555
B18 B13 1_555 1_555
H42 B18 1_555 1_555
B19 C18 1_555 1_555
H43 B19 1_555 1_555
B20 B15 1_555 1_555
H44 B20 1_555 1_555
O5 H45 1_555 1_555
H46 O5 1_555 1_555
C1 C10 1_555 1_555
C2 B1 1_555 1_555
C2 B4 1_555 1_555
C8 C9 1_555 1_555
C15 C16 1_555 1_555
B1 B2 1_555 1_555
B1 B5 1_555 1_555
B2 B3 1_555 1_555
B2 B6 1_555 1_555
B3 B4 1_555 1_555
B3 B7 1_555 1_555
B4 B8 1_555 1_555
B4 B9 1_555 1_555
B5 B6 1_555 1_555
B5 B9 1_555 1_555
B6 B7 1_555 1_555
B6 B10 1_555 1_555
B7 B8 1_555 1_555
B7 B10 1_555 1_555
B8 B9 1_555 1_555
B8 B10 1_555 1_555
B9 B10 1_555 1_555
C17 C19 1_555 1_555
C18 B11 1_555 1_555
C18 B14 1_555 1_555
C24 C25 1_555 1_555
C31 C32 1_555 1_555
B11 B12 1_555 1_555
B11 B15 1_555 1_555
B12 B13 1_555 1_555
B12 B16 1_555 1_555
B13 B14 1_555 1_555
B13 B17 1_555 1_555
B14 B18 1_555 1_555
B14 B19 1_555 1_555
B15 B16 1_555 1_555
B15 B19 1_555 1_555
B16 B17 1_555 1_555
B16 B20 1_555 1_555
B17 B18 1_555 1_555
B17 B20 1_555 1_555
B18 B19 1_555 1_555
B18 B20 1_555 1_555
B19 B20 1_555 1_555

#END
