
#######################################################################
#
#                 Cambridge Crystallographic Data Centre
#                                CCDC 
#
#######################################################################
#
# If this CIF has been generated from an entry in the Cambridge 
# Structural Database, then it will include bibliographic, chemical, 
# crystal, experimental, refinement or atomic coordinate data resulting 
# from the CCDC's data processing and validation procedures.
#
#######################################################################

data_BISKET
_chemical_formula_moiety         'C12 H10 N2 O1'
_chemical_name_systematic        N-Nitrosodiphenylamine
_symmetry_cell_setting           monoclinic
_symmetry_space_group_name_H-M   'C 2/c'
_symmetry_Int_Tables_number      15
_space_group_name_Hall           '-C 2yn'
loop_
_symmetry_equiv_pos_site_id
_symmetry_equiv_pos_as_xyz
1 x,y,z
2 1/2+x,1/2+y,z
3 -x,y,1/2-z
4 1/2-x,1/2+y,1/2-z
5 -x,-y,-z
6 1/2-x,1/2-y,-z
7 x,-y,1/2+z
8 1/2+x,1/2-y,1/2+z
_cell_length_a                   16.283(20)
_cell_length_b                   8.827(10)
_cell_length_c                   16.508(20)
_cell_angle_alpha                90
_cell_angle_beta                 117.53(15)
_cell_angle_gamma                90
_cell_volume                     2104.03
_exptl_crystal_colour            brown
_cell_formula_units_Z            8
loop_
_atom_site_label
_atom_site_type_symbol
_atom_site_fract_x
_atom_site_fract_y
_atom_site_fract_z
C1 C 0.29860 0.19770 0.34240
C2 C 0.23660 0.13770 0.37180
C3 C 0.14930 0.10370 0.30710
C4 C 0.12330 0.11210 0.21330
C5 C 0.18140 0.17540 0.17880
C6 C 0.27240 0.21140 0.25290
C7 C 0.47200 0.17690 0.40700
C8 C 0.54330 0.27250 0.41590
C9 C 0.62060 0.20280 0.41530
C10 C 0.61990 0.05730 0.39020
C11 C 0.54490 -0.04050 0.37420
C12 C 0.46650 0.03290 0.37740
N1 N 0.39200 0.24010 0.41080
N2 N 0.41100 0.34420 0.47650
O1 O 0.34410 0.39730 0.47930
H1 H 0.25780 0.11930 0.44350
H2 H 0.09850 0.06940 0.32830
H3 H 0.05640 0.06850 0.16530
H4 H 0.16070 0.19410 0.10730
H5 H 0.32360 0.25310 0.23400
H6 H 0.53960 0.39360 0.42300
H7 H 0.68300 0.26850 0.43570
H8 H 0.67780 0.01430 0.38210
H9 H 0.54580 -0.16000 0.36070
H10 H 0.40250 -0.02900 0.35570
loop_
_geom_bond_atom_site_label_1
_geom_bond_atom_site_label_2
_geom_bond_site_symmetry_1
_geom_bond_site_symmetry_2
C1 C2 1_555 1_555
C2 C3 1_555 1_555
C3 C4 1_555 1_555
C4 C5 1_555 1_555
C5 C6 1_555 1_555
C6 C1 1_555 1_555
C7 C8 1_555 1_555
C8 C9 1_555 1_555
C9 C10 1_555 1_555
C10 C11 1_555 1_555
C11 C12 1_555 1_555
C12 C7 1_555 1_555
N1 C1 1_555 1_555
N2 N1 1_555 1_555
O1 N2 1_555 1_555
H1 C2 1_555 1_555
H2 C3 1_555 1_555
H3 C4 1_555 1_555
H4 C5 1_555 1_555
H5 C6 1_555 1_555
H6 C8 1_555 1_555
H7 C9 1_555 1_555
H8 C10 1_555 1_555
H9 C11 1_555 1_555
H10 C12 1_555 1_555
C7 N1 1_555 1_555

#END
