
#######################################################################
#
#                 Cambridge Crystallographic Data Centre
#                                CCDC 
#
#######################################################################
#
# If this CIF has been generated from an entry in the Cambridge 
# Structural Database, then it will include bibliographic, chemical, 
# crystal, experimental, refinement or atomic coordinate data resulting 
# from the CCDC's data processing and validation procedures.
#
#######################################################################

data_BISLIA
_chemical_formula_moiety         'C43 H32 Cl2 N4 O4,H2 O1'
_chemical_name_systematic        
'2,7-bis(4-chlorophenyl)-6-(2-hydroxybenzoyl)-3,8a-bis(pyridin-2-yl)-1-(pyridin-2-ylcarbonyl)hexahydroindolizin-5(1H)-one monohydrate'
_symmetry_cell_setting           triclinic
_symmetry_space_group_name_H-M   'P -1'
_symmetry_Int_Tables_number      2
_space_group_name_Hall           '-P 1'
loop_
_symmetry_equiv_pos_site_id
_symmetry_equiv_pos_as_xyz
1 x,y,z
2 -x,-y,-z
_cell_length_a                   11.4634(16)
_cell_length_b                   13.4376(19)
_cell_length_c                   13.962(2)
_cell_angle_alpha                112.753(2)
_cell_angle_beta                 99.306(2)
_cell_angle_gamma                101.604(2)
_cell_volume                     1873.28
_exptl_crystal_colour            colorless
_exptl_crystal_description       block
_cell_formula_units_Z            2
loop_
_atom_site_label
_atom_site_type_symbol
_atom_site_fract_x
_atom_site_fract_y
_atom_site_fract_z
C1 C 0.8442(3) 0.8291(2) 0.9588(2)
C2 C 0.9533(3) 0.8085(2) 1.0185(2)
H1 H 0.9326 0.7274 0.9984
C3 C 1.0715(3) 0.8401(2) 0.9844(2)
H2 H 1.1102 0.9211 1.0289
C4 C 1.0425(2) 0.8225(2) 0.8660(2)
H3 H 1.0469 0.8948 0.8648
H4 H 1.1055 0.7949 0.8343
C5 C 0.9156(2) 0.7400(2) 0.7963(2)
C6 C 0.8747(2) 0.7528(2) 0.6897(2)
H5 H 0.9051 0.8326 0.7059
C7 C 0.7343(2) 0.7215(2) 0.6672(2)
H6 H 0.7024 0.6404 0.6454
C8 C 0.7175(2) 0.7862(2) 0.7804(2)
H7 H 0.7299 0.8658 0.7958
C9 C 0.9753(3) 0.8686(2) 1.1399(2)
C10 C 0.9101(3) 0.8137(2) 1.1971(2)
C11 C 0.8145(3) 0.7132(3) 1.1429(3)
H8 H 0.7883 0.6808 1.0681
C12 C 0.7582(3) 0.6611(4) 1.1978(4)
H9 H 0.6950 0.5938 1.1602
C13 C 0.7957(4) 0.7090(4) 1.3092(3)
H10 H 0.7575 0.6735 1.3462
C14 C 0.8877(4) 0.8073(3) 1.3650(3)
H11 H 0.9119 0.8388 1.4399
C15 C 0.9466(3) 0.8615(3) 1.3104(3)
C16 C 1.1643(3) 0.7805(3) 1.0102(2)
C17 C 1.1290(5) 0.6682(4) 0.9935(3)
H12 H 1.0454 0.6291 0.9693
C18 C 1.2133(7) 0.6133(6) 1.0114(4)
H13 H 1.1869 0.5377 0.9972
C19 C 1.3299(8) 0.6679(8) 1.0482(4)
C20 C 1.3753(5) 0.7778(9) 1.0677(4)
H14 H 1.4597 0.8140 1.0933
C21 C 1.2871(4) 0.8371(5) 1.0469(4)
H15 H 1.3145 0.9119 1.0586
C22 C 0.9121(3) 0.6180(2) 0.7730(2)
C23 C 0.8208(3) 0.5455(2) 0.7877(2)
H16 H 0.7548 0.5680 0.8108
C24 C 0.8300(4) 0.4379(3) 0.7671(3)
H17 H 0.7707 0.3876 0.7776
C25 C 0.9276(4) 0.4068(3) 0.7312(3)
H18 H 0.9368 0.3359 0.7182
C26 C 1.0107(3) 0.4829(3) 0.7151(3)
H19 H 1.0749 0.4605 0.6881
C27 C 0.5911(3) 0.7382(3) 0.7897(2)
C28 C 0.5058(3) 0.7983(4) 0.7960(4)
H20 H 0.5270 0.8707 0.8004
C29 C 0.3880(4) 0.7479(6) 0.7957(4)
H21 H 0.3277 0.7851 0.7976
C30 C 0.3611(4) 0.6421(6) 0.7925(4)
H22 H 0.2837 0.6073 0.7953
C31 C 0.4497(5) 0.5911(5) 0.7854(5)
H23 H 0.4302 0.5182 0.7800
C32 C 0.9230(3) 0.6856(3) 0.5981(2)
C33 C 1.2364(4) 0.7257(6) 0.5459(4)
H24 H 1.2886 0.6843 0.5175
C34 C 1.2720(5) 0.8398(7) 0.5836(6)
H25 H 1.3466 0.8766 0.5779
C35 C 1.1974(5) 0.8989(6) 0.6296(7)
H26 H 1.2246 0.9772 0.6590
C36 C 1.0855(4) 0.8493(3) 0.6348(4)
H27 H 1.0353 0.8919 0.6656
C37 C 1.0496(3) 0.7379(3) 0.5945(3)
C38 C 0.6671(2) 0.7500(2) 0.5833(2)
C39 C 0.6869(3) 0.8596(3) 0.5961(3)
H28 H 0.7446 0.9175 0.6570
C40 C 0.6226(4) 0.8855(3) 0.5203(3)
H29 H 0.6371 0.9598 0.5302
C41 C 0.5372(3) 0.8001(3) 0.4305(3)
C42 C 0.5159(3) 0.6905(3) 0.4149(3)
H30 H 0.4584 0.6330 0.3537
C43 C 0.5807(3) 0.6659(3) 0.4910(2)
H31 H 0.5662 0.5912 0.4803
Cl1 Cl 1.4405(3) 0.6028(3) 1.07360(16)
Cl2 Cl 0.45540(14) 0.83344(11) 0.33663(10)
N1 N 0.82016(19) 0.77576(18) 0.85029(17)
N2 N 0.5650(3) 0.6367(3) 0.7854(3)
N3 N 1.0060(2) 0.5871(2) 0.7355(2)
N4 N 1.1212(4) 0.6710(4) 0.5497(3)
O1 O 0.7806(2) 0.88440(19) 1.00449(17)
O2 O 1.0518(3) 0.96213(18) 1.18932(18)
O3 O 1.0365(3) 0.9572(2) 1.3711(2)
H32 H 1.0629 0.9841 1.3325
O4 O 0.8602(2) 0.5943(2) 0.52754(19)
O5 O 0.6132(19) 0.9833(16) 0.106(3)
H33 H 0.5993 0.9463 0.1428
H34 H 0.5522 0.9444 0.0512
loop_
_geom_bond_atom_site_label_1
_geom_bond_atom_site_label_2
_geom_bond_site_symmetry_1
_geom_bond_site_symmetry_2
C1 C2 1_555 1_555
C2 H1 1_555 1_555
C3 C2 1_555 1_555
H2 C3 1_555 1_555
C4 C3 1_555 1_555
H3 C4 1_555 1_555
H4 C4 1_555 1_555
C5 C4 1_555 1_555
C6 C5 1_555 1_555
H5 C6 1_555 1_555
C7 C6 1_555 1_555
H6 C7 1_555 1_555
C8 C7 1_555 1_555
H7 C8 1_555 1_555
C9 C2 1_555 1_555
C10 C9 1_555 1_555
C11 C10 1_555 1_555
H8 C11 1_555 1_555
C12 C11 1_555 1_555
H9 C12 1_555 1_555
C13 C12 1_555 1_555
H10 C13 1_555 1_555
C14 C13 1_555 1_555
H11 C14 1_555 1_555
C15 C10 1_555 1_555
C16 C3 1_555 1_555
C17 C16 1_555 1_555
H12 C17 1_555 1_555
C18 C17 1_555 1_555
H13 C18 1_555 1_555
C19 C18 1_555 1_555
C20 C19 1_555 1_555
H14 C20 1_555 1_555
C21 C16 1_555 1_555
H15 C21 1_555 1_555
C22 C5 1_555 1_555
C23 C22 1_555 1_555
H16 C23 1_555 1_555
C24 C23 1_555 1_555
H17 C24 1_555 1_555
C25 C24 1_555 1_555
H18 C25 1_555 1_555
C26 C25 1_555 1_555
H19 C26 1_555 1_555
C27 C8 1_555 1_555
C28 C27 1_555 1_555
H20 C28 1_555 1_555
C29 C28 1_555 1_555
H21 C29 1_555 1_555
C30 C29 1_555 1_555
H22 C30 1_555 1_555
C31 C30 1_555 1_555
H23 C31 1_555 1_555
C32 C6 1_555 1_555
C33 H24 1_555 1_555
C34 C33 1_555 1_555
H25 C34 1_555 1_555
C35 C34 1_555 1_555
H26 C35 1_555 1_555
C36 C35 1_555 1_555
H27 C36 1_555 1_555
C37 C32 1_555 1_555
C38 C7 1_555 1_555
C39 C38 1_555 1_555
H28 C39 1_555 1_555
C40 C39 1_555 1_555
H29 C40 1_555 1_555
C41 C40 1_555 1_555
C42 C41 1_555 1_555
H30 C42 1_555 1_555
C43 C38 1_555 1_555
H31 C43 1_555 1_555
Cl1 C19 1_555 1_555
Cl2 C41 1_555 1_555
N1 C1 1_555 1_555
N2 C27 1_555 1_555
N3 C22 1_555 1_555
N4 C33 1_555 1_555
O1 C1 1_555 1_555
O2 C9 1_555 1_555
O3 C15 1_555 1_555
H32 O3 1_555 1_555
O4 C32 1_555 1_555
O5 H33 1_555 1_555
H34 O5 1_555 1_555
C5 N1 1_555 1_555
C8 N1 1_555 1_555
C14 C15 1_555 1_555
C20 C21 1_555 1_555
C26 N3 1_555 1_555
C31 N2 1_555 1_555
C36 C37 1_555 1_555
C37 N4 1_555 1_555
C42 C43 1_555 1_555

#END
