
#######################################################################
#
#                 Cambridge Crystallographic Data Centre
#                                CCDC 
#
#######################################################################
#
# If this CIF has been generated from an entry in the Cambridge 
# Structural Database, then it will include bibliographic, chemical, 
# crystal, experimental, refinement or atomic coordinate data resulting 
# from the CCDC's data processing and validation procedures.
#
#######################################################################

data_BISPUR
_chemical_formula_moiety         'C15 H11 N1 O1'
_chemical_name_systematic        2-phenyl-1H-indole-3-carbaldehyde
_symmetry_cell_setting           orthorhombic
_symmetry_space_group_name_H-M   'P b c n'
_symmetry_Int_Tables_number      60
_space_group_name_Hall           '-P 2n 2ab'
loop_
_symmetry_equiv_pos_site_id
_symmetry_equiv_pos_as_xyz
1 x,y,z
2 1/2-x,1/2-y,1/2+z
3 -x,y,1/2-z
4 1/2+x,1/2-y,-z
5 -x,-y,-z
6 1/2+x,1/2+y,1/2-z
7 x,-y,1/2+z
8 1/2-x,1/2+y,z
_cell_length_a                   22.6720(20)
_cell_length_b                   14.2171(16)
_cell_length_c                   6.8368(6)
_cell_angle_alpha                90
_cell_angle_beta                 90
_cell_angle_gamma                90
_cell_volume                     2203.71
_exptl_crystal_description       parallelepiped
_cell_formula_units_Z            8
loop_
_atom_site_label
_atom_site_type_symbol
_atom_site_fract_x
_atom_site_fract_y
_atom_site_fract_z
O1 O 0.28829(6) 0.13223(9) 0.03071(18)
N1 N 0.25898(6) 0.45232(10) 0.0327(2)
H1 H 0.2434 0.5089 0.0247
C1 C 0.25308(8) 0.19758(12) 0.0163(2)
H2 H 0.2132 0.1823 -0.0126
C2 C 0.26761(7) 0.29512(11) 0.0399(2)
C3 C 0.32560(7) 0.33497(12) 0.0618(2)
C4 C 0.38227(8) 0.29703(14) 0.0832(2)
H3 H 0.3883 0.2309 0.0885
C5 C 0.42910(8) 0.35892(16) 0.0964(3)
H4 H 0.4679 0.3345 0.1094
C6 C 0.42104(8) 0.45622(16) 0.0913(3)
H5 H 0.4544 0.4964 0.1023
C7 C 0.36591(8) 0.49515(14) 0.0707(3)
H6 H 0.3604 0.5614 0.0674
C8 C 0.31858(7) 0.43347(12) 0.0549(2)
C9 C 0.22817(7) 0.37060(11) 0.0252(2)
C10 C 0.16352(7) 0.37047(11) 0.0105(2)
C11 C 0.13409(7) 0.43766(12) -0.1021(2)
H7 H 0.1559 0.4844 -0.1702
C12 C 0.07331(8) 0.43627(13) -0.1145(3)
H8 H 0.0535 0.4822 -0.1911
C13 C 0.04096(8) 0.36842(13) -0.0162(3)
H9 H -0.0008 0.3672 -0.0270
C14 C 0.06981(8) 0.30244(14) 0.0978(3)
H10 H 0.0478 0.2560 0.1659
C15 C 0.13066(7) 0.30388(12) 0.1128(2)
H11 H 0.1501 0.2592 0.1934
loop_
_geom_bond_atom_site_label_1
_geom_bond_atom_site_label_2
_geom_bond_site_symmetry_1
_geom_bond_site_symmetry_2
O1 C1 1_555 1_555
N1 H1 1_555 1_555
C1 H2 1_555 1_555
C2 C1 1_555 1_555
C3 C2 1_555 1_555
C4 C3 1_555 1_555
H3 C4 1_555 1_555
C5 C4 1_555 1_555
H4 C5 1_555 1_555
C6 C5 1_555 1_555
H5 C6 1_555 1_555
C7 C6 1_555 1_555
H6 C7 1_555 1_555
C8 N1 1_555 1_555
C9 N1 1_555 1_555
C10 C9 1_555 1_555
C11 C10 1_555 1_555
H7 C11 1_555 1_555
C12 C11 1_555 1_555
H8 C12 1_555 1_555
C13 C12 1_555 1_555
H9 C13 1_555 1_555
C14 C13 1_555 1_555
H10 C14 1_555 1_555
C15 C10 1_555 1_555
H11 C15 1_555 1_555
C2 C9 1_555 1_555
C3 C8 1_555 1_555
C7 C8 1_555 1_555
C14 C15 1_555 1_555

#END
