
#######################################################################
#
#                 Cambridge Crystallographic Data Centre
#                                CCDC 
#
#######################################################################
#
# If this CIF has been generated from an entry in the Cambridge 
# Structural Database, then it will include bibliographic, chemical, 
# crystal, experimental, refinement or atomic coordinate data resulting 
# from the CCDC's data processing and validation procedures.
#
#######################################################################

data_BISVUX
_chemical_compound_source        
'cultures of the endophytic fungus Penicillium purpurogenum IMM003'
_chemical_name_common            'purpurolide C'
_chemical_formula_moiety         'C16 H20 O6'
_chemical_name_systematic        
3'-hydroxy-5'-methoxy-2,5''-dimethyl-4''H-dispiro[bicyclo[3.1.1]hept-2-ene-6,4'-oxolane-2',2''-[3,6]dioxabicyclo[3.1.0]hexan]-4''-one
_chemical_properties_biological  
'tested for pancreatic lipase inhibitory activity and antibacterial activity'
_symmetry_cell_setting           monoclinic
_symmetry_space_group_name_H-M   'P 21'
_symmetry_Int_Tables_number      4
_space_group_name_Hall           'P 2yb'
loop_
_symmetry_equiv_pos_site_id
_symmetry_equiv_pos_as_xyz
1 x,y,z
2 -x,1/2+y,-z
_cell_length_a                   6.03273(16)
_cell_length_b                   8.0300(2)
_cell_length_c                   15.7237(5)
_cell_angle_alpha                90
_cell_angle_beta                 95.125(3)
_cell_angle_gamma                90
_cell_volume                     758.655
_exptl_crystal_colour            colorless
_exptl_crystal_description       block
_cell_formula_units_Z            2
loop_
_atom_site_label
_atom_site_type_symbol
_atom_site_fract_x
_atom_site_fract_y
_atom_site_fract_z
O1 O 0.7070(5) 0.7243(4) 0.3022(2)
O2 O 0.1937(5) 0.5492(4) 0.3660(2)
H1 H 0.067638 0.535495 0.342966
O3 O 0.6514(5) 0.4396(3) 0.31457(19)
O4 O 0.5884(5) 0.7819(4) 0.4634(2)
O5 O 0.9874(5) 0.8987(4) 0.3415(2)
O6 O 0.3577(5) 0.2497(4) 0.29757(19)
C1 C 0.3329(7) 0.6122(5) 0.3057(3)
H2 H 0.295251 0.728080 0.291128
C2 C 0.8554(7) 0.7967(5) 0.3610(3)
C3 C 0.5791(7) 0.5965(5) 0.3407(3)
C4 C 0.6331(7) 0.6156(5) 0.4353(3)
H3 H 0.622958 0.520358 0.473774
C5 C 0.4861(7) 0.3645(5) 0.2557(3)
H4 H 0.553406 0.312503 0.207812
C6 C 0.8157(7) 0.7347(5) 0.4486(3)
C7 C 0.9925(7) 0.7456(6) 0.5205(3)
H5 H 1.030936 0.860183 0.531053
H6 H 1.121651 0.685577 0.506102
H7 H 0.939203 0.697901 0.570841
C8 C 0.3280(7) 0.5044(5) 0.2252(3)
C9 C 0.1040(8) 0.6290(6) 0.1334(3)
H8 H 0.053042 0.723856 0.164436
H9 H 0.036001 0.626447 0.075103
C10 C 0.1229(8) 0.3181(6) 0.1200(3)
C11 C 0.2793(8) 0.3353(6) 0.0669(3)
H10 H 0.299405 0.252814 0.026773
C12 C 0.3628(8) 0.6053(6) 0.1418(3)
H11 H 0.451213 0.707362 0.149776
C13 C -0.0180(8) 0.1664(7) 0.1253(3)
H12 H 0.027431 0.083609 0.086386
H13 H -0.171190 0.194860 0.110426
H14 H -0.001091 0.123257 0.182422
C14 C 0.0946(7) 0.4601(5) 0.1816(3)
H15 H -0.025026 0.447945 0.219436
C15 C 0.4263(8) 0.4892(6) 0.0711(3)
H16 H 0.409325 0.547042 0.016744
H17 H 0.580987 0.456459 0.082109
C16 C 0.4798(8) 0.1025(6) 0.3238(3)
H18 H 0.537226 0.051695 0.275041
H19 H 0.383033 0.025605 0.349072
H20 H 0.600997 0.131663 0.364855
loop_
_geom_bond_atom_site_label_1
_geom_bond_atom_site_label_2
_geom_bond_site_symmetry_1
_geom_bond_site_symmetry_2
O1 C2 1_555 1_555
O2 H1 1_555 1_555
O3 C3 1_555 1_555
O4 C4 1_555 1_555
O5 C2 1_555 1_555
O6 C5 1_555 1_555
C1 O2 1_555 1_555
H2 C1 1_555 1_555
C2 C6 1_555 1_555
C3 O1 1_555 1_555
C4 C3 1_555 1_555
H3 C4 1_555 1_555
C5 O3 1_555 1_555
H4 C5 1_555 1_555
C6 O4 1_555 1_555
C7 C6 1_555 1_555
H5 C7 1_555 1_555
H6 C7 1_555 1_555
H7 C7 1_555 1_555
C8 C1 1_555 1_555
C9 H8 1_555 1_555
H9 C9 1_555 1_555
C10 C11 1_555 1_555
C11 H10 1_555 1_555
C12 C8 1_555 1_555
H11 C12 1_555 1_555
C13 C10 1_555 1_555
H12 C13 1_555 1_555
H13 C13 1_555 1_555
H14 C13 1_555 1_555
C14 C8 1_555 1_555
H15 C14 1_555 1_555
C15 C11 1_555 1_555
H16 C15 1_555 1_555
H17 C15 1_555 1_555
C16 O6 1_555 1_555
H18 C16 1_555 1_555
H19 C16 1_555 1_555
H20 C16 1_555 1_555
C1 C3 1_555 1_555
C4 C6 1_555 1_555
C5 C8 1_555 1_555
C9 C12 1_555 1_555
C9 C14 1_555 1_555
C10 C14 1_555 1_555
C12 C15 1_555 1_555

#END
