
#######################################################################
#
#                 Cambridge Crystallographic Data Centre
#                                CCDC 
#
#######################################################################
#
# If this CIF has been generated from an entry in the Cambridge 
# Structural Database, then it will include bibliographic, chemical, 
# crystal, experimental, refinement or atomic coordinate data resulting 
# from the CCDC's data processing and validation procedures.
#
#######################################################################

data_BISXIN
_chemical_formula_moiety         'C18 H18 I1 N1 O8 S1,C1 H2 Cl2'
_chemical_name_systematic        
'6-iodo-3-[(4-methylphenyl)sulfonyl]-2-oxo-2,3,3a,4,5,7a-hexahydro-1,3-benzoxazole-4,5-diyl diacetate dichloromethane solvate'
_symmetry_cell_setting           monoclinic
_symmetry_space_group_name_H-M   'C 2'
_symmetry_Int_Tables_number      5
_space_group_name_Hall           'C 2y'
loop_
_symmetry_equiv_pos_site_id
_symmetry_equiv_pos_as_xyz
1 x,y,z
2 -x,y,-z
3 1/2+x,1/2+y,z
4 1/2-x,1/2+y,-z
_cell_length_a                   25.1349(5)
_cell_length_b                   8.03077(13)
_cell_length_c                   12.0325(2)
_cell_angle_alpha                90
_cell_angle_beta                 97.6645(16)
_cell_angle_gamma                90
_cell_volume                     2407.09
_exptl_crystal_colour            colorless
_exptl_crystal_description       needle
_cell_formula_units_Z            4
loop_
_atom_site_label
_atom_site_type_symbol
_atom_site_fract_x
_atom_site_fract_y
_atom_site_fract_z
C1 C 0.39095(19) 0.3013(6) 0.3599(4)
C2 C 0.43720(19) 0.4103(6) 0.3407(4)
H1 H 0.468123 0.384851 0.396759
C3 C 0.45245(18) 0.3838(6) 0.2236(4)
H2 H 0.478084 0.468862 0.206416
C4 C 0.40503(18) 0.3742(5) 0.1305(4)
H3 H 0.417766 0.347254 0.059057
C5 C 0.36381(18) 0.2434(5) 0.1572(4)
H4 H 0.370884 0.135766 0.123794
C6 C 0.3594(2) 0.2237(6) 0.2808(5)
H5 H 0.333091 0.153247 0.301643
C7 C 0.31673(18) 0.4759(6) 0.0913(4)
C8 C 0.36980(18) 0.7308(6) -0.0633(4)
C9 C 0.32349(19) 0.8193(6) -0.1021(4)
H6 H 0.303100 0.868905 -0.052169
C10 C 0.3085(2) 0.8318(7) -0.2160(5)
H7 H 0.278042 0.892653 -0.243023
C11 C 0.3383(2) 0.7548(7) -0.2919(4)
C12 C 0.3845(2) 0.6694(7) -0.2511(5)
H8 H 0.404733 0.619631 -0.301310
C13 C 0.4013(2) 0.6563(6) -0.1371(5)
H9 H 0.432696 0.599697 -0.110237
C14 C 0.3200(3) 0.7677(12) -0.4158(5)
H10 H 0.283567 0.729341 -0.431754
H11 H 0.342663 0.700460 -0.455725
H12 H 0.321948 0.881686 -0.439011
C15 C 0.51909(18) 0.1985(6) 0.1697(5)
C16 C 0.5400(2) 0.0252(7) 0.1822(6)
H13 H 0.516635 -0.047972 0.135105
H14 H 0.541426 -0.009122 0.258922
H15 H 0.575357 0.020914 0.160494
C17 C 0.4602(2) 0.6956(6) 0.3740(4)
C18 C 0.4377(2) 0.8644(7) 0.3922(5)
H16 H 0.402619 0.873925 0.350190
H17 H 0.460846 0.947971 0.367486
H18 H 0.435392 0.879656 0.470480
I1 I 0.37738(2) 0.27876(5) 0.52869(3)
N1 N 0.37016(15) 0.5230(5) 0.1171(3)
O1 O 0.31223(13) 0.3105(4) 0.1061(3)
O2 O 0.27908(14) 0.5642(5) 0.0587(3)
O3 O 0.36023(15) 0.8306(4) 0.1377(3)
O4 O 0.44687(13) 0.7078(5) 0.1042(3)
O5 O 0.47702(13) 0.2201(4) 0.2282(3)
O6 O 0.53510(17) 0.3063(5) 0.1141(4)
O7 O 0.42036(13) 0.5806(4) 0.3549(3)
O8 O 0.50694(15) 0.6612(5) 0.3763(3)
S1 S 0.38959(4) 0.71333(14) 0.08119(10)
C19 C 0.2693(2) 0.3686(8) 0.8147(5)
H19 H 0.247210 0.314714 0.864395
H20 H 0.272310 0.485420 0.835023
Cl1 Cl 0.23847(8) 0.3505(4) 0.67714(15)
Cl2 Cl 0.33380(5) 0.2774(3) 0.83295(12)
loop_
_geom_bond_atom_site_label_1
_geom_bond_atom_site_label_2
_geom_bond_site_symmetry_1
_geom_bond_site_symmetry_2
C1 C2 1_555 1_555
C2 H1 1_555 1_555
C3 C2 1_555 1_555
H2 C3 1_555 1_555
C4 C3 1_555 1_555
H3 C4 1_555 1_555
C5 C4 1_555 1_555
H4 C5 1_555 1_555
C6 C1 1_555 1_555
H5 C6 1_555 1_555
C7 N1 1_555 1_555
C8 C9 1_555 1_555
C9 H6 1_555 1_555
C10 C9 1_555 1_555
H7 C10 1_555 1_555
C11 C10 1_555 1_555
C12 C11 1_555 1_555
H8 C12 1_555 1_555
C13 C8 1_555 1_555
H9 C13 1_555 1_555
C14 C11 1_555 1_555
H10 C14 1_555 1_555
H11 C14 1_555 1_555
H12 C14 1_555 1_555
C15 C16 1_555 1_555
C16 H13 1_555 1_555
H14 C16 1_555 1_555
H15 C16 1_555 1_555
C17 C18 1_555 1_555
C18 H16 1_555 1_555
H17 C18 1_555 1_555
H18 C18 1_555 1_555
I1 C1 1_555 1_555
N1 C4 1_555 1_555
O1 C5 1_555 1_555
O2 C7 1_555 1_555
O3 S1 1_555 1_555
O4 S1 1_555 1_555
O5 C3 1_555 1_555
O6 C15 1_555 1_555
O7 C2 1_555 1_555
O8 C17 1_555 1_555
S1 C8 1_555 1_555
C19 H19 1_555 1_555
H20 C19 1_555 1_555
Cl1 C19 1_555 1_555
Cl2 C19 1_555 1_555
C5 C6 1_555 1_555
C7 O1 1_555 1_555
C12 C13 1_555 1_555
C15 O5 1_555 1_555
C17 O7 1_555 1_555
N1 S1 1_555 1_555

#END
