
#######################################################################
#
#                 Cambridge Crystallographic Data Centre
#                                CCDC 
#
#######################################################################
#
# If this CIF has been generated from an entry in the Cambridge 
# Structural Database, then it will include bibliographic, chemical, 
# crystal, experimental, refinement or atomic coordinate data resulting 
# from the CCDC's data processing and validation procedures.
#
#######################################################################

data_BISXEJ
_chemical_formula_moiety         'C18 H33 N1 O5 Si1'
_chemical_name_systematic        
N-[5-{[t-butyl(dimethyl)silyl]oxy}-7-(hydroxymethyl)-2,2-dimethyl-3a,4,5,7a-tetrahydro-2H-1,3-benzodioxol-4-yl]acetamide
_symmetry_cell_setting           triclinic
_symmetry_space_group_name_H-M   'P 1'
_symmetry_Int_Tables_number      1
_space_group_name_Hall           'P 1'
loop_
_symmetry_equiv_pos_site_id
_symmetry_equiv_pos_as_xyz
1 x,y,z
_cell_length_a                   7.2377(6)
_cell_length_b                   8.2340(6)
_cell_length_c                   9.9721(10)
_cell_angle_alpha                99.215(7)
_cell_angle_beta                 108.174(8)
_cell_angle_gamma                105.551(7)
_cell_volume                     524.328
_exptl_crystal_colour            colorless
_exptl_crystal_description       prism
_cell_formula_units_Z            1
loop_
_atom_site_label
_atom_site_type_symbol
_atom_site_fract_x
_atom_site_fract_y
_atom_site_fract_z
C1 C 0.5490(5) 0.3045(4) 0.4782(4)
H1 H 0.5716 0.2460 0.5534
C2 C 0.6278(5) 0.5012(4) 0.5231(4)
H2 H 0.7617 0.5421 0.6089
C3 C 0.6672(5) 0.5704(4) 0.3983(4)
H3 H 0.7897 0.5428 0.3889
C4 C 0.4905(5) 0.4833(4) 0.2511(4)
H4 H 0.5371 0.5183 0.1723
C5 C 0.4035(5) 0.2830(4) 0.2138(4)
H5 H 0.4536 0.2313 0.1401
C6 C 0.4503(5) 0.2072(4) 0.3411(4)
O1 O 0.3182(3) 0.5360(3) 0.2486(3)
O2 O 0.1837(4) 0.2425(3) 0.1487(3)
C7 C 0.1394(5) 0.4003(4) 0.1443(4)
C8 C 0.0984(6) 0.4280(5) -0.0077(4)
H6 H -0.0200 0.3296 -0.0791
H7 H 0.2207 0.4354 -0.0324
H8 H 0.0680 0.5369 -0.0096
C9 C -0.0382(6) 0.3952(6) 0.1934(5)
H9 H -0.0646 0.5061 0.1950
H10 H -0.0037 0.3774 0.2918
H11 H -0.1620 0.2988 0.1253
C10 C 0.3754(5) 0.0092(4) 0.3003(4)
H12 H 0.2238 -0.0355 0.2464
H13 H 0.4395 -0.0329 0.2338
O3 O 0.4221(3) -0.0594(3) 0.4226(3)
H14 H 0.316(6) -0.103(5) 0.436(3)
N1 N 0.7222(4) 0.7593(3) 0.4304(3)
H15 H 0.633(5) 0.814(4) 0.438(3)
C11 C 0.9063(5) 0.8609(5) 0.4398(4)
C12 C 0.9432(6) 1.0549(5) 0.4726(6)
H16 H 0.9832 1.1010 0.3972
H17 H 1.0542 1.1139 0.5686
H18 H 0.8163 1.0756 0.4731
O4 O 1.0382(4) 0.8015(3) 0.4238(3)
O5 O 0.4849(3) 0.5680(3) 0.5657(2)
Si1 Si 0.46510(12) 0.59443(10) 0.72700(10)
C13 C 0.6446(6) 0.8148(5) 0.8529(4)
C14 C 0.8662(6) 0.8482(5) 0.8577(5)
H19 H 0.9141 0.7544 0.8877
H20 H 0.9575 0.9606 0.9281
H21 H 0.8684 0.8511 0.7603
C15 C 0.5713(7) 0.9588(5) 0.7972(5)
H22 H 0.5615 0.9473 0.6956
H23 H 0.6704 1.0737 0.8584
H24 H 0.4353 0.9472 0.8019
C16 C 0.6495(8) 0.8297(6) 1.0081(5)
H25 H 0.5092 0.8090 1.0072
H26 H 0.7390 0.9472 1.0701
H27 H 0.7033 0.7427 1.0470
C17 C 0.1916(6) 0.5777(5) 0.6860(5)
H28 H 0.1524 0.6447 0.6156
H29 H 0.1749 0.6249 0.7764
H30 H 0.1028 0.4548 0.6442
C18 C 0.5257(6) 0.4200(4) 0.8123(4)
H31 H 0.4243 0.3057 0.7515
H32 H 0.5200 0.4408 0.9102
H33 H 0.6645 0.4217 0.8199
loop_
_geom_bond_atom_site_label_1
_geom_bond_atom_site_label_2
_geom_bond_site_symmetry_1
_geom_bond_site_symmetry_2
C1 H1 1_555 1_555
C2 C1 1_555 1_555
H2 C2 1_555 1_555
C3 C2 1_555 1_555
H3 C3 1_555 1_555
C4 C3 1_555 1_555
H4 C4 1_555 1_555
C5 C4 1_555 1_555
H5 C5 1_555 1_555
C6 C1 1_555 1_555
O1 C4 1_555 1_555
O2 C5 1_555 1_555
C7 O1 1_555 1_555
C8 C7 1_555 1_555
H6 C8 1_555 1_555
H7 C8 1_555 1_555
H8 C8 1_555 1_555
C9 C7 1_555 1_555
H9 C9 1_555 1_555
H10 C9 1_555 1_555
H11 C9 1_555 1_555
C10 C6 1_555 1_555
H12 C10 1_555 1_555
H13 C10 1_555 1_555
O3 C10 1_555 1_555
H14 O3 1_555 1_555
N1 C3 1_555 1_555
H15 N1 1_555 1_555
C11 N1 1_555 1_555
C12 C11 1_555 1_555
H16 C12 1_555 1_555
H17 C12 1_555 1_555
H18 C12 1_555 1_555
O4 C11 1_555 1_555
O5 C2 1_555 1_555
Si1 O5 1_555 1_555
C13 Si1 1_555 1_555
C14 C13 1_555 1_555
H19 C14 1_555 1_555
H20 C14 1_555 1_555
H21 C14 1_555 1_555
C15 C13 1_555 1_555
H22 C15 1_555 1_555
H23 C15 1_555 1_555
H24 C15 1_555 1_555
C16 C13 1_555 1_555
H25 C16 1_555 1_555
H26 C16 1_555 1_555
H27 C16 1_555 1_555
C17 Si1 1_555 1_555
H28 C17 1_555 1_555
H29 C17 1_555 1_555
H30 C17 1_555 1_555
C18 Si1 1_555 1_555
H31 C18 1_555 1_555
H32 C18 1_555 1_555
H33 C18 1_555 1_555
C5 C6 1_555 1_555
O2 C7 1_555 1_555

#END
