
#######################################################################
#
#                 Cambridge Crystallographic Data Centre
#                                CCDC 
#
#######################################################################
#
# If this CIF has been generated from an entry in the Cambridge 
# Structural Database, then it will include bibliographic, chemical, 
# crystal, experimental, refinement or atomic coordinate data resulting 
# from the CCDC's data processing and validation procedures.
#
#######################################################################

data_BISYOU
_chemical_formula_moiety         'C56 H56 S2,3.6(C1 H1 Cl3),0.4(C1 H4 O1)'
_chemical_name_systematic        
"9,18-di-t-butyl-2,11-dihexyldibenzo[3,4:9,10]thieno[2',3':7,8]coroneno[1,2-b]thiophene chloroform methanol solvate"
_symmetry_cell_setting           triclinic
_symmetry_space_group_name_H-M   'P -1'
_symmetry_Int_Tables_number      2
_space_group_name_Hall           '-P 1'
loop_
_symmetry_equiv_pos_site_id
_symmetry_equiv_pos_as_xyz
1 x,y,z
2 -x,-y,-z
_cell_length_a                   8.593(2)
_cell_length_b                   9.614(2)
_cell_length_c                   17.545(4)
_cell_angle_alpha                95.437(18)
_cell_angle_beta                 92.011(19)
_cell_angle_gamma                95.643(19)
_cell_volume                     1434.49
_exptl_crystal_colour            'bright yellow'
_exptl_crystal_description       plate
_cell_formula_units_Z            1
loop_
_atom_site_label
_atom_site_type_symbol
_atom_site_fract_x
_atom_site_fract_y
_atom_site_fract_z
C1 C 0.8825(5) 0.3062(4) 0.8743(3)
C2 C 0.9246(5) 0.1639(5) 0.8704(3)
C3 C 0.8391(5) 0.0508(5) 0.8242(3)
H1 H 0.751133 0.068547 0.793618
C4 C 0.8808(5) -0.0837(5) 0.8227(3)
H2 H 0.822049 -0.157710 0.791152
C5 C 1.0101(5) -0.1117(5) 0.8677(3)
H3 H 1.041087 -0.204157 0.865370
C6 C 1.0911(5) -0.0066(4) 0.9147(3)
H4 H 1.176637 -0.027272 0.946019
C7 C 1.0505(5) 0.1329(5) 0.9179(2)
C8 C 1.1295(5) 0.2426(4) 0.9720(2)
C9 C 1.2733(5) 0.2278(4) 1.0095(3)
H5 H 1.322747 0.145860 0.994755
C10 C 1.3475(5) 0.3217(4) 1.0655(3)
C11 C 1.2603(5) 0.4348(4) 1.0945(3)
C12 C 1.1280(5) 0.4667(4) 1.0487(2)
C13 C 1.0647(5) 0.3705(4) 0.9862(2)
C14 C 0.9381(5) 0.4034(4) 0.9359(2)
C15 C 1.5210(5) 0.3055(5) 1.0866(3)
C16 C 1.6194(5) 0.4492(5) 1.1049(3)
H6 H 1.729899 0.434549 1.112422
H7 H 1.583347 0.497563 1.151767
H8 H 1.607141 0.506578 1.062248
C17 C 1.5369(5) 0.2096(5) 1.1517(3)
H9 H 1.647726 0.199221 1.162023
H10 H 1.480317 0.117097 1.136191
H11 H 1.492609 0.251567 1.198095
C18 C 1.5994(5) 0.2368(5) 1.0164(3)
H12 H 1.712585 0.241468 1.027272
H13 H 1.579214 0.287183 0.971640
H14 H 1.556163 0.138421 1.005885
C19 C 0.7839(5) 0.3558(5) 0.8168(3)
C20 C 0.7555(5) 0.2994(5) 0.7382(3)
H15 H 0.792710 0.214475 0.717704
C21 C 0.6708(6) 0.3783(5) 0.6962(3)
S1 S 0.62091(14) 0.52463(12) 0.75108(7)
C22 C 0.7156(5) 0.4800(5) 0.8333(3)
C23 C 0.6206(6) 0.3542(6) 0.6126(3)
H16 H 0.538186 0.415909 0.602189
H17 H 0.574474 0.255716 0.600840
C24 C 0.7533(6) 0.3825(7) 0.5600(3)
H18 H 0.833407 0.317678 0.568621
H19 H 0.802734 0.479611 0.573399
C25 C 0.7014(7) 0.3649(6) 0.4759(3)
H20 H 0.623004 0.431307 0.467313
H21 H 0.649246 0.268565 0.463098
C26 C 0.8330(7) 0.3891(8) 0.4216(3)
H22 H 0.892682 0.480960 0.438388
H23 H 0.905054 0.315808 0.426250
C27 C 0.7833(7) 0.3878(8) 0.3393(3)
H24 H 0.718301 0.466117 0.333760
H25 H 0.716927 0.299069 0.323268
C28 C 0.9181(7) 0.4014(8) 0.2855(3)
H26 H 0.876481 0.406599 0.233279
H27 H 0.977180 0.319386 0.286590
H28 H 0.987303 0.486831 0.302176
C1A C 1.1175(5) 0.6938(4) 1.1257(3)
C2A C 1.0754(5) 0.8361(5) 1.1296(3)
C3A C 1.1609(5) 0.9492(5) 1.1758(3)
H1A H 1.248867 0.931453 1.206382
C4A C 1.1192(5) 1.0837(5) 1.1773(3)
H2A H 1.177951 1.157710 1.208848
C5A C 0.9899(5) 1.1117(5) 1.1323(3)
H3A H 0.958913 1.204157 1.134630
C6A C 0.9089(5) 1.0066(4) 1.0853(3)
H4A H 0.823363 1.027272 1.053981
C7A C 0.9495(5) 0.8671(5) 1.0821(2)
C8A C 0.8705(5) 0.7574(4) 1.0280(2)
C9A C 0.7267(5) 0.7722(4) 0.9905(3)
H5A H 0.677253 0.854140 1.005245
C10A C 0.6525(5) 0.6783(4) 0.9345(3)
C11A C 0.7397(5) 0.5652(4) 0.9055(3)
C12A C 0.8720(5) 0.5333(4) 0.9513(2)
C13A C 0.9353(5) 0.6295(4) 1.0138(2)
C14A C 1.0619(5) 0.5966(4) 1.0641(2)
C15A C 0.4790(5) 0.6945(5) 0.9134(3)
C16A C 0.3806(5) 0.5508(5) 0.8951(3)
H6A H 0.270101 0.565451 0.887578
H7A H 0.416653 0.502437 0.848233
H8A H 0.392859 0.493422 0.937752
C17A C 0.4631(5) 0.7904(5) 0.8483(3)
H9A H 0.352274 0.800779 0.837977
H10A H 0.519683 0.882903 0.863809
H11A H 0.507391 0.748433 0.801905
C18A C 0.4006(5) 0.7632(5) 0.9836(3)
H12A H 0.287415 0.758532 0.972728
H13A H 0.420786 0.712817 1.028360
H14A H 0.443837 0.861579 0.994115
C19A C 1.2161(5) 0.6442(5) 1.1832(3)
C20A C 1.2445(5) 0.7006(5) 1.2618(3)
H15A H 1.207290 0.785525 1.282296
C21A C 1.3292(6) 0.6217(5) 1.3038(3)
S1A S 1.37909(14) 0.47537(12) 1.24892(7)
C22A C 1.2844(5) 0.5200(5) 1.1667(3)
C23A C 1.3794(6) 0.6458(6) 1.3874(3)
H16A H 1.461814 0.584091 1.397811
H17A H 1.425526 0.744284 1.399160
C24A C 1.2467(6) 0.6175(7) 1.4400(3)
H18A H 1.166593 0.682322 1.431379
H19A H 1.197266 0.520389 1.426601
C25A C 1.2986(7) 0.6351(6) 1.5241(3)
H20A H 1.376996 0.568693 1.532687
H21A H 1.350754 0.731435 1.536902
C26A C 1.1670(7) 0.6109(8) 1.5784(3)
H22A H 1.107318 0.519040 1.561612
H23A H 1.094946 0.684192 1.573750
C27A C 1.2167(7) 0.6122(8) 1.6607(3)
H24A H 1.281699 0.533883 1.666240
H25A H 1.283073 0.700931 1.676732
C28A C 1.0819(7) 0.5986(8) 1.7145(3)
H26A H 1.123519 0.593401 1.766721
H27A H 1.022820 0.680614 1.713410
H28A H 1.012697 0.513169 1.697824
O1 O 0.0797(17) 0.0046(16) 0.4311(9)
C29 C 0.021(3) 0.054(3) 0.3976(18)
C30 C -0.2669(10) -0.1162(7) 0.2493(4)
H29 H -0.181240 -0.055168 0.228157
Cl1 Cl -0.3537(4) -0.0180(2) 0.32306(14)
Cl2 Cl -0.1894(2) -0.2629(2) 0.28302(14)
Cl3 Cl -0.41147(19) -0.17282(18) 0.17661(11)
C31? C -0.184(2) -0.0929(15) 0.2837(11)
H30? H -0.117268 -0.086501 0.238258
Cl4? Cl -0.2101(10) 0.0759(9) 0.3239(4)
Cl5? Cl -0.0878(10) -0.1767(10) 0.3534(5)
Cl6? Cl -0.3685(11) -0.1755(11) 0.2545(7)
C32? C 0.2286(16) 0.1258(12) 0.4466(6)
H31? H 0.127324 0.068581 0.430259
Cl7? Cl 0.2985(5) 0.2233(4) 0.3731(2)
Cl8? Cl 0.3676(8) 0.0195(5) 0.4789(3)
Cl9? Cl 0.2036(8) 0.2505(7) 0.5210(4)
Cl10? Cl 0.0622(7) 0.0136(7) 0.3933(4)
C33? C 0.2087(12) 0.1576(13) 0.3998(7)
H32? H 0.172337 0.236185 0.372543
Cl11? Cl 0.3746(4) 0.0991(4) 0.3592(2)
Cl12? Cl 0.2509(8) 0.2118(8) 0.4965(4)
loop_
_geom_bond_atom_site_label_1
_geom_bond_atom_site_label_2
_geom_bond_site_symmetry_1
_geom_bond_site_symmetry_2
C1 C2 1_555 1_555
C2 C3 1_555 1_555
C3 H1 1_555 1_555
C4 C3 1_555 1_555
H2 C4 1_555 1_555
C5 C4 1_555 1_555
H3 C5 1_555 1_555
C6 C5 1_555 1_555
H4 C6 1_555 1_555
C7 C2 1_555 1_555
C8 C7 1_555 1_555
C9 C8 1_555 1_555
H5 C9 1_555 1_555
C10 C9 1_555 1_555
C11 C10 1_555 1_555
C12 C11 1_555 1_555
C13 C8 1_555 1_555
C14 C1 1_555 1_555
C15 C10 1_555 1_555
C16 C15 1_555 1_555
H6 C16 1_555 1_555
H7 C16 1_555 1_555
H8 C16 1_555 1_555
C17 C15 1_555 1_555
H9 C17 1_555 1_555
H10 C17 1_555 1_555
H11 C17 1_555 1_555
C18 C15 1_555 1_555
H12 C18 1_555 1_555
H13 C18 1_555 1_555
H14 C18 1_555 1_555
C19 C1 1_555 1_555
C20 C19 1_555 1_555
H15 C20 1_555 1_555
C21 C20 1_555 1_555
S1 C21 1_555 1_555
C22 C19 1_555 1_555
C23 C21 1_555 1_555
H16 C23 1_555 1_555
H17 C23 1_555 1_555
C24 C23 1_555 1_555
H18 C24 1_555 1_555
H19 C24 1_555 1_555
C25 C24 1_555 1_555
H20 C25 1_555 1_555
H21 C25 1_555 1_555
C26 C25 1_555 1_555
H22 C26 1_555 1_555
H23 C26 1_555 1_555
C27 C26 1_555 1_555
H24 C27 1_555 1_555
H25 C27 1_555 1_555
C28 C27 1_555 1_555
H26 C28 1_555 1_555
H27 C28 1_555 1_555
H28 C28 1_555 1_555
O1 C29 1_555 1_555
C30 H29 1_555 1_555
Cl1 C30 1_555 1_555
Cl2 C30 1_555 1_555
Cl3 C30 1_555 1_555
C1A C2A 1_555 1_555
C2A C3A 1_555 1_555
C3A H1A 1_555 1_555
C4A C3A 1_555 1_555
H2A C4A 1_555 1_555
C5A C4A 1_555 1_555
H3A C5A 1_555 1_555
C6A C5A 1_555 1_555
H4A C6A 1_555 1_555
C7A C2A 1_555 1_555
C8A C7A 1_555 1_555
C9A C8A 1_555 1_555
H5A C9A 1_555 1_555
C10A C9A 1_555 1_555
C11A C22 1_555 1_555
C12A C14 1_555 1_555
C13A C8A 1_555 1_555
C14A C12 1_555 1_555
C15A C10A 1_555 1_555
C16A C15A 1_555 1_555
H6A C16A 1_555 1_555
H7A C16A 1_555 1_555
H8A C16A 1_555 1_555
C17A C15A 1_555 1_555
H9A C17A 1_555 1_555
H10A C17A 1_555 1_555
H11A C17A 1_555 1_555
C18A C15A 1_555 1_555
H12A C18A 1_555 1_555
H13A C18A 1_555 1_555
H14A C18A 1_555 1_555
C19A C1A 1_555 1_555
C20A C19A 1_555 1_555
H15A C20A 1_555 1_555
C21A C20A 1_555 1_555
S1A C21A 1_555 1_555
C22A C11 1_555 1_555
C23A C21A 1_555 1_555
H16A C23A 1_555 1_555
H17A C23A 1_555 1_555
C24A C23A 1_555 1_555
H18A C24A 1_555 1_555
H19A C24A 1_555 1_555
C25A C24A 1_555 1_555
H20A C25A 1_555 1_555
H21A C25A 1_555 1_555
C26A C25A 1_555 1_555
H22A C26A 1_555 1_555
H23A C26A 1_555 1_555
C27A C26A 1_555 1_555
H24A C27A 1_555 1_555
H25A C27A 1_555 1_555
C28A C27A 1_555 1_555
H26A C28A 1_555 1_555
H27A C28A 1_555 1_555
H28A C28A 1_555 1_555
C6 C7 1_555 1_555
C12 C13 1_555 1_555
C13 C14 1_555 1_555
S1 C22 1_555 1_555
C1A C14A 1_555 1_555
C6A C7A 1_555 1_555
C10A C11A 1_555 1_555
C11A C12A 1_555 1_555
C12A C13A 1_555 1_555
C13A C14A 1_555 1_555
C19A C22A 1_555 1_555
S1A C22A 1_555 1_555

#END
