
#######################################################################
#
#                 Cambridge Crystallographic Data Centre
#                                CCDC 
#
#######################################################################
#
# If this CIF has been generated from an entry in the Cambridge 
# Structural Database, then it will include bibliographic, chemical, 
# crystal, experimental, refinement or atomic coordinate data resulting 
# from the CCDC's data processing and validation procedures.
#
#######################################################################

data_BISYAG
_chemical_formula_moiety         'C36 H30 Br2'
_chemical_name_systematic        
8,16-dibromo-2,10-di-t-butyldibenzo[fg,qr]pentacene
_symmetry_cell_setting           monoclinic
_symmetry_space_group_name_H-M   'C 2/c'
_symmetry_Int_Tables_number      15
_space_group_name_Hall           '-C 2yn'
loop_
_symmetry_equiv_pos_site_id
_symmetry_equiv_pos_as_xyz
1 x,y,z
2 -x,y,1/2-z
3 1/2+x,1/2+y,z
4 1/2-x,1/2+y,1/2-z
5 -x,-y,-z
6 x,-y,1/2+z
7 1/2-x,1/2-y,-z
8 1/2+x,1/2-y,1/2+z
_cell_length_a                   24.934(2)
_cell_length_b                   7.0804(7)
_cell_length_c                   15.9870(14)
_cell_angle_alpha                90
_cell_angle_beta                 95.876(2)
_cell_angle_gamma                90
_cell_volume                     2807.56
_exptl_crystal_colour            yellow
_exptl_crystal_description       irregular
_cell_formula_units_Z            4
loop_
_atom_site_label
_atom_site_type_symbol
_atom_site_fract_x
_atom_site_fract_y
_atom_site_fract_z
Br1 Br 0.36802(2) 0.12774(6) 0.36315(2)
C1 C 0.44016(13) 0.2224(5) 0.3834(2)
C2 C 0.46397(13) 0.2158(5) 0.4693(2)
C3 C 0.43557(14) 0.1555(5) 0.5367(2)
H1 H 0.399640 0.110759 0.525283
C4 C 0.45894(15) 0.1604(5) 0.6181(2)
H2 H 0.439120 0.119452 0.662467
C5 C 0.51122(15) 0.2246(5) 0.6360(2)
H3 H 0.527249 0.228152 0.692463
C6 C 0.53998(14) 0.2832(5) 0.5718(2)
H4 H 0.575750 0.328381 0.584689
C7 C 0.51768(13) 0.2779(4) 0.4876(2)
C8 C 0.54910(13) 0.3271(4) 0.4189(2)
C9 C 0.60361(13) 0.3811(5) 0.4321(2)
H5 H 0.620402 0.387861 0.488137
C10 C 0.63344(14) 0.4245(5) 0.3672(2)
C11 C 0.60900(13) 0.3974(5) 0.2849(2)
H6 H 0.629307 0.424554 0.239184
C12 C 0.55670(13) 0.3330(4) 0.2675(2)
C13 C 0.52439(12) 0.3154(4) 0.3357(2)
C14 C 0.46724(13) 0.2863(5) 0.31831(19)
C15 C 0.69143(14) 0.4957(6) 0.3803(2)
C16 C 0.69425(16) 0.6959(6) 0.3429(3)
H7 H 0.731663 0.740294 0.349602
H8 H 0.671762 0.781816 0.372375
H9 H 0.681102 0.692658 0.283030
C17 C 0.72769(15) 0.3596(7) 0.3366(3)
H10 H 0.765437 0.398070 0.348765
H11 H 0.717627 0.363028 0.275726
H12 H 0.723109 0.231072 0.357427
C18 C 0.71290(15) 0.5050(6) 0.4733(2)
H13 H 0.750524 0.547202 0.478510
H14 H 0.710746 0.379503 0.498533
H15 H 0.691181 0.594316 0.502329
Br1A Br 0.63198(2) 0.12774(6) 0.13685(2)
C1A C 0.55984(13) 0.2224(5) 0.1166(2)
C2A C 0.53603(13) 0.2158(5) 0.0307(2)
C3A C 0.56443(14) 0.1555(5) -0.0367(2)
H1A H 0.600360 0.110759 -0.025283
C4A C 0.54106(15) 0.1604(5) -0.1181(2)
H2A H 0.560880 0.119452 -0.162467
C5A C 0.48878(15) 0.2246(5) -0.1360(2)
H3A H 0.472751 0.228152 -0.192463
C6A C 0.46002(14) 0.2832(5) -0.0718(2)
H4A H 0.424250 0.328381 -0.084689
C7A C 0.48232(13) 0.2779(4) 0.0124(2)
C8A C 0.45090(13) 0.3271(4) 0.0811(2)
C9A C 0.39639(13) 0.3811(5) 0.0679(2)
H5A H 0.379598 0.387861 0.011863
C10A C 0.36656(14) 0.4245(5) 0.1328(2)
C11A C 0.39100(13) 0.3974(5) 0.2151(2)
H6A H 0.370693 0.424554 0.260816
C12A C 0.44330(13) 0.3330(4) 0.2325(2)
C13A C 0.47561(12) 0.3154(4) 0.1643(2)
C14A C 0.53276(13) 0.2863(5) 0.18169(19)
C15A C 0.30857(14) 0.4957(6) 0.1197(2)
C16A C 0.30575(16) 0.6959(6) 0.1571(3)
H7A H 0.268337 0.740294 0.150398
H8A H 0.328238 0.781816 0.127625
H9A H 0.318898 0.692658 0.216970
C17A C 0.27231(15) 0.3596(7) 0.1634(3)
H10A H 0.234563 0.398070 0.151235
H11A H 0.282373 0.363028 0.224274
H12A H 0.276891 0.231072 0.142573
C18A C 0.28710(15) 0.5050(6) 0.0267(2)
H13A H 0.249476 0.547202 0.021490
H14A H 0.289254 0.379503 0.001467
H15A H 0.308819 0.594316 -0.002329
loop_
_geom_bond_atom_site_label_1
_geom_bond_atom_site_label_2
_geom_bond_site_symmetry_1
_geom_bond_site_symmetry_2
Br1 C1 1_555 1_555
C1 C2 1_555 1_555
C2 C3 1_555 1_555
C3 H1 1_555 1_555
C4 C3 1_555 1_555
H2 C4 1_555 1_555
C5 C4 1_555 1_555
H3 C5 1_555 1_555
C6 C5 1_555 1_555
H4 C6 1_555 1_555
C7 C2 1_555 1_555
C8 C7 1_555 1_555
C9 C8 1_555 1_555
H5 C9 1_555 1_555
C10 C9 1_555 1_555
C11 C10 1_555 1_555
H6 C11 1_555 1_555
C12 C11 1_555 1_555
C13 C8 1_555 1_555
C14 C1 1_555 1_555
C15 C10 1_555 1_555
C16 C15 1_555 1_555
H7 C16 1_555 1_555
H8 C16 1_555 1_555
H9 C16 1_555 1_555
C17 C15 1_555 1_555
H10 C17 1_555 1_555
H11 C17 1_555 1_555
H12 C17 1_555 1_555
C18 C15 1_555 1_555
H13 C18 1_555 1_555
H14 C18 1_555 1_555
H15 C18 1_555 1_555
Br1A C1A 1_555 1_555
C1A C2A 1_555 1_555
C2A C3A 1_555 1_555
C3A H1A 1_555 1_555
C4A C3A 1_555 1_555
H2A C4A 1_555 1_555
C5A C4A 1_555 1_555
H3A C5A 1_555 1_555
C6A C5A 1_555 1_555
H4A C6A 1_555 1_555
C7A C2A 1_555 1_555
C8A C7A 1_555 1_555
C9A C8A 1_555 1_555
H5A C9A 1_555 1_555
C10A C9A 1_555 1_555
C11A C10A 1_555 1_555
H6A C11A 1_555 1_555
C12A C14 1_555 1_555
C13A C8A 1_555 1_555
C14A C12 1_555 1_555
C15A C10A 1_555 1_555
C16A C15A 1_555 1_555
H7A C16A 1_555 1_555
H8A C16A 1_555 1_555
H9A C16A 1_555 1_555
C17A C15A 1_555 1_555
H10A C17A 1_555 1_555
H11A C17A 1_555 1_555
H12A C17A 1_555 1_555
C18A C15A 1_555 1_555
H13A C18A 1_555 1_555
H14A C18A 1_555 1_555
H15A C18A 1_555 1_555
C6 C7 1_555 1_555
C12 C13 1_555 1_555
C13 C14 1_555 1_555
C1A C14A 1_555 1_555
C6A C7A 1_555 1_555
C11A C12A 1_555 1_555
C12A C13A 1_555 1_555
C13A C14A 1_555 1_555

#END
