
#######################################################################
#
#                 Cambridge Crystallographic Data Centre
#                                CCDC 
#
#######################################################################
#
# If this CIF has been generated from an entry in the Cambridge 
# Structural Database, then it will include bibliographic, chemical, 
# crystal, experimental, refinement or atomic coordinate data resulting 
# from the CCDC's data processing and validation procedures.
#
#######################################################################

data_BISYEK
_chemical_formula_moiety         'C34 H28 Br2 N2'
_chemical_name_systematic        
8,16-dibromo-2,10-di-t-butylanthra[10,4-gh:9,8-g'h']diquinoline
_symmetry_cell_setting           triclinic
_symmetry_space_group_name_H-M   'P -1'
_symmetry_Int_Tables_number      2
_space_group_name_Hall           '-P 1'
loop_
_symmetry_equiv_pos_site_id
_symmetry_equiv_pos_as_xyz
1 x,y,z
2 -x,-y,-z
_cell_length_a                   10.5646(6)
_cell_length_b                   10.9729(6)
_cell_length_c                   12.8405(7)
_cell_angle_alpha                81.585(4)
_cell_angle_beta                 67.912(4)
_cell_angle_gamma                76.681(4)
_cell_volume                     1339.23
_exptl_crystal_colour            yellow
_exptl_crystal_description       brick
_cell_formula_units_Z            2
loop_
_atom_site_label
_atom_site_type_symbol
_atom_site_fract_x
_atom_site_fract_y
_atom_site_fract_z
Br1 Br 0.27340(8) 0.46699(8) 0.84538(6)
Br2 Br 0.78659(9) 0.95908(8) 0.59765(7)
C1 C 0.3659(7) 0.5479(7) 0.7030(6)
C2 C 0.2884(7) 0.5796(7) 0.6281(6)
C3 C 0.1627(7) 0.5398(8) 0.6475(6)
H1 H 0.123281 0.489267 0.713519
C4 C 0.0981(8) 0.5751(8) 0.5693(7)
H2 H 0.013969 0.548824 0.580628
C5 C 0.1573(8) 0.6495(9) 0.4740(7)
H3 H 0.111311 0.673168 0.421110
N1 N 0.2748(6) 0.6895(6) 0.4523(5)
C6 C 0.3410(7) 0.6523(7) 0.5278(6)
C7 C 0.4676(7) 0.6986(7) 0.5049(6)
C8 C 0.5209(7) 0.7737(7) 0.4061(6)
H4 H 0.472542 0.794060 0.354744
C9 C 0.6410(7) 0.8185(7) 0.3815(6)
C10 C 0.7049(8) 0.7932(7) 0.4627(6)
H5 H 0.788436 0.822728 0.446701
C11 C 0.6516(7) 0.7272(8) 0.5649(6)
C12 C 0.5383(7) 0.6670(7) 0.5817(6)
C13 C 0.4929(7) 0.5792(7) 0.6776(6)
C14 C 0.7002(7) 0.9023(7) 0.2755(6)
C15 C 0.8549(8) 0.8519(9) 0.2174(7)
H6 H 0.903561 0.848744 0.269640
H7 H 0.867942 0.767296 0.194203
H8 H 0.892694 0.907232 0.150898
C16 C 0.6767(9) 1.0352(7) 0.3125(7)
H9 H 0.576783 1.066140 0.349652
H10 H 0.724624 1.033039 0.365088
H11 H 0.713665 1.091191 0.246298
C17 C 0.6276(9) 0.9060(9) 0.1921(7)
H12 H 0.527757 0.938270 0.227929
H13 H 0.666621 0.961085 0.125790
H14 H 0.641869 0.821150 0.169095
C18 C 0.7803(8) 0.7951(7) 0.6731(6)
C19 C 0.8469(8) 0.7672(7) 0.7561(6)
C20 C 0.9260(8) 0.8468(8) 0.7714(7)
H15 H 0.937818 0.923019 0.726353
C21 C 0.9858(8) 0.8114(8) 0.8531(7)
H16 H 1.039096 0.862997 0.865414
C22 C 0.9660(8) 0.6981(7) 0.9171(7)
H17 H 1.005132 0.676033 0.974406
N2 N 0.8967(6) 0.6200(6) 0.9033(5)
C23 C 0.8383(7) 0.6545(7) 0.8228(6)
C24 C 0.7603(7) 0.5682(7) 0.8087(6)
C25 C 0.7550(7) 0.4532(7) 0.8717(7)
H18 H 0.807160 0.429649 0.920160
C26 C 0.6754(7) 0.3729(7) 0.8648(6)
C27 C 0.5930(7) 0.4150(7) 0.7981(6)
H19 H 0.537130 0.361267 0.792886
C28 C 0.5892(7) 0.5308(7) 0.7399(6)
C29 C 0.6867(7) 0.6055(7) 0.7339(6)
C30 C 0.7078(7) 0.7140(7) 0.6563(6)
C31 C 0.6719(7) 0.2425(7) 0.9262(6)
C32 C 0.7684(8) 0.2127(8) 0.9951(7)
H20 H 0.863976 0.216447 0.944696
H21 H 0.737751 0.274253 1.051910
H22 H 0.764827 0.128328 1.032392
C33 C 0.5237(7) 0.2361(8) 1.0060(7)
H23 H 0.521562 0.152595 1.045251
H24 H 0.492689 0.299624 1.061233
H25 H 0.461669 0.252090 0.962776
C34 C 0.7206(8) 0.1441(8) 0.8389(7)
H26 H 0.815756 0.148540 0.787898
H27 H 0.718515 0.060269 0.877525
H28 H 0.658634 0.160713 0.795614
loop_
_geom_bond_atom_site_label_1
_geom_bond_atom_site_label_2
_geom_bond_site_symmetry_1
_geom_bond_site_symmetry_2
Br1 C1 1_555 1_555
Br2 C18 1_555 1_555
C1 C2 1_555 1_555
C2 C3 1_555 1_555
C3 H1 1_555 1_555
C4 C3 1_555 1_555
H2 C4 1_555 1_555
C5 C4 1_555 1_555
H3 C5 1_555 1_555
N1 C5 1_555 1_555
C6 C2 1_555 1_555
C7 C6 1_555 1_555
C8 C7 1_555 1_555
H4 C8 1_555 1_555
C9 C8 1_555 1_555
C10 C9 1_555 1_555
H5 C10 1_555 1_555
C11 C10 1_555 1_555
C12 C7 1_555 1_555
C13 C1 1_555 1_555
C14 C9 1_555 1_555
C15 C14 1_555 1_555
H6 C15 1_555 1_555
H7 C15 1_555 1_555
H8 C15 1_555 1_555
C16 C14 1_555 1_555
H9 C16 1_555 1_555
H10 C16 1_555 1_555
H11 C16 1_555 1_555
C17 C14 1_555 1_555
H12 C17 1_555 1_555
H13 C17 1_555 1_555
H14 C17 1_555 1_555
C18 C19 1_555 1_555
C19 C20 1_555 1_555
C20 H15 1_555 1_555
C21 C20 1_555 1_555
H16 C21 1_555 1_555
C22 C21 1_555 1_555
H17 C22 1_555 1_555
N2 C22 1_555 1_555
C23 C19 1_555 1_555
C24 C23 1_555 1_555
C25 C24 1_555 1_555
H18 C25 1_555 1_555
C26 C25 1_555 1_555
C27 C26 1_555 1_555
H19 C27 1_555 1_555
C28 C13 1_555 1_555
C29 C24 1_555 1_555
C30 C11 1_555 1_555
C31 C26 1_555 1_555
C32 C31 1_555 1_555
H20 C32 1_555 1_555
H21 C32 1_555 1_555
H22 C32 1_555 1_555
C33 C31 1_555 1_555
H23 C33 1_555 1_555
H24 C33 1_555 1_555
H25 C33 1_555 1_555
C34 C31 1_555 1_555
H26 C34 1_555 1_555
H27 C34 1_555 1_555
H28 C34 1_555 1_555
N1 C6 1_555 1_555
C11 C12 1_555 1_555
C12 C13 1_555 1_555
C18 C30 1_555 1_555
N2 C23 1_555 1_555
C27 C28 1_555 1_555
C28 C29 1_555 1_555
C29 C30 1_555 1_555

#END
