
#######################################################################
#
#                 Cambridge Crystallographic Data Centre
#                                CCDC 
#
#######################################################################
#
# If this CIF has been generated from an entry in the Cambridge 
# Structural Database, then it will include bibliographic, chemical, 
# crystal, experimental, refinement or atomic coordinate data resulting 
# from the CCDC's data processing and validation procedures.
#
#######################################################################

data_BISZAH
_chemical_formula_moiety         'C60 H68 S4'
_chemical_name_systematic        
5,8,13,16-tetra-t-butyl-2,10-dihexylcoroneno[1,2-b:11,12-b':5,6-b'':7,8-b''']tetrakisthiophene
_symmetry_cell_setting           rhombohedral
_symmetry_space_group_name_H-M   'R -3'
_symmetry_Int_Tables_number      148
_space_group_name_Hall           '-R 3'
loop_
_symmetry_equiv_pos_site_id
_symmetry_equiv_pos_as_xyz
1 x,y,z
2 -y,x-y,z
3 -x+y,-x,z
4 2/3+x,1/3+y,1/3+z
5 2/3-y,1/3+x-y,1/3+z
6 2/3-x+y,1/3-x,1/3+z
7 1/3+x,2/3+y,2/3+z
8 1/3-y,2/3+x-y,2/3+z
9 1/3-x+y,2/3-x,2/3+z
10 -x,-y,-z
11 y,-x+y,-z
12 x-y,x,-z
13 1/3-x,2/3-y,2/3-z
14 1/3+y,2/3-x+y,2/3-z
15 1/3+x-y,2/3+x,2/3-z
16 2/3-x,1/3-y,1/3-z
17 2/3+y,1/3-x+y,1/3-z
18 2/3+x-y,1/3+x,1/3-z
_cell_length_a                   32.442(3)
_cell_length_b                   32.442(3)
_cell_length_c                   11.8741(18)
_cell_angle_alpha                90
_cell_angle_beta                 90
_cell_angle_gamma                120
_cell_volume                     10823
_exptl_crystal_colour            yellow
_exptl_crystal_description       brick
_cell_formula_units_Z            9
loop_
_atom_site_label
_atom_site_type_symbol
_atom_site_fract_x
_atom_site_fract_y
_atom_site_fract_z
C1 C 0.48062(10) 0.55928(10) 0.2492(3)
S1 S 0.48813(3) 0.59724(3) 0.36061(6)
C2 C 0.47066(11) 0.55309(11) 0.4606(3)
C3 C 0.45895(10) 0.51058(11) 0.4123(3)
H1 H 0.448023 0.481950 0.453883
C4 C 0.46481(10) 0.51341(10) 0.2921(3)
C5 C 0.45940(10) 0.47589(10) 0.2195(2)
C6 C 0.43753(10) 0.42706(10) 0.2538(2)
S2 S 0.40573(3) 0.40113(2) 0.37653(6)
C7 C 0.39696(11) 0.34523(11) 0.3398(3)
C8 C 0.41685(11) 0.34686(10) 0.2390(3)
H2 H 0.415900 0.319869 0.205189
C9 C 0.43960(10) 0.39306(10) 0.1875(3)
C10 C 0.46296(10) 0.40635(10) 0.0814(2)
C11 C 0.47034(11) 0.37384(10) 0.0202(3)
H3 H 0.458482 0.342966 0.051374
C12 C 0.49339(10) 0.38309(10) -0.0812(3)
C13 C 0.50619(10) 0.42822(10) -0.1337(2)
C14 C 0.50295(10) 0.46392(10) -0.0687(2)
C15 C 0.48176(10) 0.45328(10) 0.0410(2)
C16 C 0.47917(10) 0.48832(10) 0.1105(2)
C17 C 0.46817(12) 0.56447(12) 0.5805(3)
H4 H 0.494181 0.597271 0.595875
H5 H 0.473532 0.542602 0.628336
C18 C 0.42081(13) 0.56060(14) 0.6138(3)
H6 H 0.414486 0.580946 0.562804
H7 H 0.395026 0.527300 0.602821
C19 C 0.41927(16) 0.57504(16) 0.7343(4)
H8 H 0.445846 0.607814 0.747027
H9 H 0.423483 0.553526 0.786073
C20 C 0.37150(17) 0.57294(19) 0.7606(4)
H10 H 0.365116 0.590165 0.700506
H11 H 0.345727 0.539268 0.757975
C21 C 0.36934(18) 0.5932(2) 0.8709(4)
H12 H 0.374320 0.575074 0.931150
H13 H 0.395996 0.626467 0.874867
C22 C 0.32475(19) 0.5931(2) 0.8942(5)
H14 H 0.327447 0.608995 0.966273
H15 H 0.298357 0.560238 0.897796
H16 H 0.318748 0.610118 0.833920
C23 C 0.37086(12) 0.30296(11) 0.4196(3)
C24 C 0.35899(12) 0.25710(11) 0.3580(3)
H17 H 0.342922 0.230096 0.409776
H18 H 0.388417 0.259085 0.330494
H19 H 0.338017 0.252624 0.294142
C25 C 0.32476(11) 0.29951(11) 0.4643(3)
H20 H 0.309330 0.272791 0.517066
H21 H 0.303235 0.294410 0.401246
H22 H 0.332338 0.329132 0.503156
C26 C 0.40348(13) 0.30926(13) 0.5197(3)
H23 H 0.389468 0.279865 0.564121
H24 H 0.406975 0.335546 0.567186
H25 H 0.434793 0.316404 0.491835
C27 C 0.50449(12) 0.34418(11) -0.1214(3)
C28 C 0.55546(12) 0.36584(12) -0.1671(3)
H26 H 0.560551 0.340403 -0.195757
H27 H 0.578212 0.382886 -0.106517
H28 H 0.560122 0.388059 -0.228268
C29 C 0.46542(13) 0.30913(11) -0.2022(3)
H29 H 0.473481 0.285375 -0.228437
H30 H 0.463144 0.326621 -0.266968
H31 H 0.434829 0.293123 -0.162644
C30 C 0.50434(14) 0.31385(13) -0.0198(3)
H32 H 0.515710 0.292438 -0.044503
H33 H 0.471900 0.295047 0.009651
H34 H 0.525330 0.334945 0.039391
C1I C 0.51938(10) 0.44072(10) -0.2492(3)
S1I S 0.51187(3) 0.40276(3) -0.36061(6)
C2I C 0.52934(11) 0.44691(11) -0.4606(3)
C3I C 0.54105(10) 0.48942(11) -0.4123(3)
H1I H 0.551977 0.518050 -0.453883
C4I C 0.53519(10) 0.48659(10) -0.2921(3)
C5I C 0.54060(10) 0.52411(10) -0.2195(2)
C6I C 0.56247(10) 0.57294(10) -0.2538(2)
S2I S 0.59427(3) 0.59887(2) -0.37653(6)
C7I C 0.60304(11) 0.65477(11) -0.3398(3)
C8I C 0.58315(11) 0.65314(10) -0.2390(3)
H2I H 0.584100 0.680131 -0.205189
C9I C 0.56040(10) 0.60694(10) -0.1875(3)
C10I C 0.53704(10) 0.59365(10) -0.0814(2)
C11I C 0.52966(11) 0.62616(10) -0.0202(3)
H3I H 0.541518 0.657034 -0.051374
C12I C 0.50661(10) 0.61691(10) 0.0812(3)
C13I C 0.49381(10) 0.57178(10) 0.1337(2)
C14I C 0.49705(10) 0.53608(10) 0.0687(2)
C15I C 0.51824(10) 0.54672(10) -0.0410(2)
C16I C 0.52083(10) 0.51168(10) -0.1105(2)
C17I C 0.53183(12) 0.43553(12) -0.5805(3)
H4I H 0.505819 0.402729 -0.595875
H5I H 0.526468 0.457398 -0.628336
C18I C 0.57919(13) 0.43940(14) -0.6138(3)
H6I H 0.585514 0.419054 -0.562804
H7I H 0.604974 0.472700 -0.602821
C19I C 0.58073(16) 0.42496(16) -0.7343(4)
H8I H 0.554154 0.392186 -0.747027
H9I H 0.576517 0.446474 -0.786073
C20I C 0.62850(17) 0.42706(19) -0.7606(4)
H10I H 0.634884 0.409835 -0.700506
H11I H 0.654273 0.460732 -0.757975
C21I C 0.63066(18) 0.4068(2) -0.8709(4)
H12I H 0.625680 0.424926 -0.931150
H13I H 0.604004 0.373533 -0.874867
C22I C 0.67525(19) 0.4069(2) -0.8942(5)
H14I H 0.672553 0.391005 -0.966273
H15I H 0.701643 0.439762 -0.897796
H16I H 0.681252 0.389882 -0.833920
C23I C 0.62914(12) 0.69704(11) -0.4196(3)
C24I C 0.64101(12) 0.74290(11) -0.3580(3)
H17I H 0.657078 0.769904 -0.409776
H18I H 0.611583 0.740915 -0.330494
H19I H 0.661983 0.747376 -0.294142
C25I C 0.67524(11) 0.70049(11) -0.4643(3)
H20I H 0.690670 0.727209 -0.517066
H21I H 0.696765 0.705590 -0.401246
H22I H 0.667662 0.670868 -0.503156
C26I C 0.59652(13) 0.69074(13) -0.5197(3)
H23I H 0.610532 0.720135 -0.564121
H24I H 0.593025 0.664454 -0.567186
H25I H 0.565207 0.683596 -0.491835
C27I C 0.49551(12) 0.65582(11) 0.1214(3)
C28I C 0.44454(12) 0.63416(12) 0.1671(3)
H26I H 0.439449 0.659597 0.195757
H27I H 0.421788 0.617114 0.106517
H28I H 0.439878 0.611941 0.228268
C29I C 0.53458(13) 0.69087(11) 0.2022(3)
H29I H 0.526519 0.714625 0.228437
H30I H 0.536856 0.673379 0.266968
H31I H 0.565171 0.706877 0.162644
C30I C 0.49566(14) 0.68615(13) 0.0198(3)
H32I H 0.484290 0.707562 0.044503
H33I H 0.528100 0.704953 -0.009651
H34I H 0.474670 0.665055 -0.039391
loop_
_geom_bond_atom_site_label_1
_geom_bond_atom_site_label_2
_geom_bond_site_symmetry_1
_geom_bond_site_symmetry_2
C1 S1 1_555 1_555
S1 C2 1_555 1_555
C2 C3 1_555 1_555
C3 H1 1_555 1_555
C4 C1 1_555 1_555
C5 C4 1_555 1_555
C6 C5 1_555 1_555
S2 C6 1_555 1_555
C7 S2 1_555 1_555
C8 C7 1_555 1_555
H2 C8 1_555 1_555
C9 C6 1_555 1_555
C10 C9 1_555 1_555
C11 C10 1_555 1_555
H3 C11 1_555 1_555
C12 C11 1_555 1_555
C13 C12 1_555 1_555
C14 C13 1_555 1_555
C15 C10 1_555 1_555
C16 C5 1_555 1_555
C17 C2 1_555 1_555
H4 C17 1_555 1_555
H5 C17 1_555 1_555
C18 C17 1_555 1_555
H6 C18 1_555 1_555
H7 C18 1_555 1_555
C19 C18 1_555 1_555
H8 C19 1_555 1_555
H9 C19 1_555 1_555
C20 C19 1_555 1_555
H10 C20 1_555 1_555
H11 C20 1_555 1_555
C21 C20 1_555 1_555
H12 C21 1_555 1_555
H13 C21 1_555 1_555
C22 C21 1_555 1_555
H14 C22 1_555 1_555
H15 C22 1_555 1_555
H16 C22 1_555 1_555
C23 C7 1_555 1_555
C24 C23 1_555 1_555
H17 C24 1_555 1_555
H18 C24 1_555 1_555
H19 C24 1_555 1_555
C25 C23 1_555 1_555
H20 C25 1_555 1_555
H21 C25 1_555 1_555
H22 C25 1_555 1_555
C26 C23 1_555 1_555
H23 C26 1_555 1_555
H24 C26 1_555 1_555
H25 C26 1_555 1_555
C27 C12 1_555 1_555
C28 C27 1_555 1_555
H26 C28 1_555 1_555
H27 C28 1_555 1_555
H28 C28 1_555 1_555
C29 C27 1_555 1_555
H29 C29 1_555 1_555
H30 C29 1_555 1_555
H31 C29 1_555 1_555
C30 C27 1_555 1_555
H32 C30 1_555 1_555
H33 C30 1_555 1_555
H34 C30 1_555 1_555
C1I C13 1_555 1_555
S1I C1I 1_555 1_555
C2I S1I 1_555 1_555
C3I C2I 1_555 1_555
H1I C3I 1_555 1_555
C4I C1I 1_555 1_555
C5I C4I 1_555 1_555
C6I C5I 1_555 1_555
S2I C6I 1_555 1_555
C7I S2I 1_555 1_555
C8I C7I 1_555 1_555
H2I C8I 1_555 1_555
C9I C6I 1_555 1_555
C10I C9I 1_555 1_555
C11I C10I 1_555 1_555
H3I C11I 1_555 1_555
C12I C11I 1_555 1_555
C13I C1 1_555 1_555
C14I C16 1_555 1_555
C15I C10I 1_555 1_555
C16I C14 1_555 1_555
C17I C2I 1_555 1_555
H4I C17I 1_555 1_555
H5I C17I 1_555 1_555
C18I C17I 1_555 1_555
H6I C18I 1_555 1_555
H7I C18I 1_555 1_555
C19I C18I 1_555 1_555
H8I C19I 1_555 1_555
H9I C19I 1_555 1_555
C20I C19I 1_555 1_555
H10I C20I 1_555 1_555
H11I C20I 1_555 1_555
C21I C20I 1_555 1_555
H12I C21I 1_555 1_555
H13I C21I 1_555 1_555
C22I C21I 1_555 1_555
H14I C22I 1_555 1_555
H15I C22I 1_555 1_555
H16I C22I 1_555 1_555
C23I C7I 1_555 1_555
C24I C23I 1_555 1_555
H17I C24I 1_555 1_555
H18I C24I 1_555 1_555
H19I C24I 1_555 1_555
C25I C23I 1_555 1_555
H20I C25I 1_555 1_555
H21I C25I 1_555 1_555
H22I C25I 1_555 1_555
C26I C23I 1_555 1_555
H23I C26I 1_555 1_555
H24I C26I 1_555 1_555
H25I C26I 1_555 1_555
C27I C12I 1_555 1_555
C28I C27I 1_555 1_555
H26I C28I 1_555 1_555
H27I C28I 1_555 1_555
H28I C28I 1_555 1_555
C29I C27I 1_555 1_555
H29I C29I 1_555 1_555
H30I C29I 1_555 1_555
H31I C29I 1_555 1_555
C30I C27I 1_555 1_555
H32I C30I 1_555 1_555
H33I C30I 1_555 1_555
H34I C30I 1_555 1_555
C3 C4 1_555 1_555
C8 C9 1_555 1_555
C14 C15 1_555 1_555
C15 C16 1_555 1_555
C3I C4I 1_555 1_555
C5I C16I 1_555 1_555
C8I C9I 1_555 1_555
C12I C13I 1_555 1_555
C13I C14I 1_555 1_555
C14I C15I 1_555 1_555
C15I C16I 1_555 1_555

#END
