
#######################################################################
#
#                 Cambridge Crystallographic Data Centre
#                                CCDC 
#
#######################################################################
#
# If this CIF has been generated from an entry in the Cambridge 
# Structural Database, then it will include bibliographic, chemical, 
# crystal, experimental, refinement or atomic coordinate data resulting 
# from the CCDC's data processing and validation procedures.
#
#######################################################################

data_BITHUK
_chemical_formula_moiety         'C26 H23 N1 O2 S1'
_chemical_name_systematic        
2-[(4-methylphenyl)sulfonyl]-4a-phenyl-2,4a,4b,5-tetrahydro-1H-indeno[1',2':1,3]cyclopropa[1,2-c]pyridine
_symmetry_cell_setting           monoclinic
_symmetry_space_group_name_H-M   'P 21'
_symmetry_Int_Tables_number      4
_space_group_name_Hall           'P 2yb'
loop_
_symmetry_equiv_pos_site_id
_symmetry_equiv_pos_as_xyz
1 x,y,z
2 -x,1/2+y,-z
_cell_length_a                   7.0036(4)
_cell_length_b                   9.2311(5)
_cell_length_c                   17.0669(9)
_cell_angle_alpha                90
_cell_angle_beta                 99.000(2)
_cell_angle_gamma                90
_cell_volume                     1089.81
_exptl_crystal_colour            colorless
_exptl_crystal_description       block
_cell_formula_units_Z            2
loop_
_atom_site_label
_atom_site_type_symbol
_atom_site_fract_x
_atom_site_fract_y
_atom_site_fract_z
S1 S 0.67394(14) 0.98343(12) 0.15464(6)
O1 O 0.8164(4) 1.0374(4) 0.1115(2)
O2 O 0.7128(5) 0.8646(4) 0.20793(19)
N1 N 0.6162(4) 1.1201(4) 0.20888(18)
C1 C 0.3753(6) 1.2636(4) 0.44235(19)
C2 C 0.2663(8) 1.2605(6) 0.5037(2)
H1 H 0.3056 1.3122 0.5502
C3 C 0.0990(9) 1.1796(7) 0.4946(3)
H2 H 0.0272 1.1765 0.5360
C4 C 0.0343(7) 1.1034(5) 0.4265(3)
H3 H -0.0784 1.0487 0.4223
C5 C 0.1404(6) 1.1092(4) 0.3634(2)
H4 H 0.0974 1.0612 0.3161
C6 C 0.3105(5) 1.1878(4) 0.3733(2)
C7 C 0.4442(4) 1.2111(3) 0.31448(18)
C8 C 0.4693(5) 1.0879(4) 0.2596(2)
H5 H 0.5072 1.0017 0.2906
H6 H 0.3467 1.0682 0.2263
C9 C 0.6114(5) 1.2608(5) 0.1765(2)
H7 H 0.6600 1.2748 0.1294
C10 C 0.5418(5) 1.3722(4) 0.2096(2)
H8 H 0.5414 1.4614 0.1842
C11 C 0.4630(4) 1.3650(3) 0.28560(18)
C12 C 0.6058(5) 1.3071(4) 0.3556(2)
H9 H 0.7389 1.2868 0.3479
C13 C 0.5650(6) 1.3359(5) 0.4393(2)
H10 H 0.6656 1.2948 0.4785
H11 H 0.5567 1.4391 0.4489
C14 C 0.3247(4) 1.4822(3) 0.29687(16)
C15 C 0.1262(4) 1.4666(4) 0.27654(18)
H12 H 0.0755 1.3775 0.2583
C16 C 0.0021(5) 1.5813(4) 0.2830(2)
H13 H -0.1305 1.5699 0.2680
C17 C 0.0764(5) 1.7123(4) 0.3116(2)
H14 H -0.0063 1.7897 0.3159
C18 C 0.2708(6) 1.7291(4) 0.3338(2)
H15 H 0.3200 1.8173 0.3542
C19 C 0.3940(5) 1.6159(4) 0.3260(2)
H16 H 0.5264 1.6290 0.3406
C20 C 0.4636(6) 0.9427(4) 0.0887(2)
C21 C 0.3372(7) 0.8382(5) 0.1080(2)
H17 H 0.3695 0.7832 0.1538
C22 C 0.1642(6) 0.8158(5) 0.0596(3)
H18 H 0.0784 0.7475 0.0740
C23 C 0.1156(7) 0.8914(6) -0.0089(3)
C24 C 0.2426(7) 0.9935(6) -0.0286(2)
H19 H 0.2096 1.0457 -0.0753
C25 C 0.4190(6) 1.0214(5) 0.0190(2)
H20 H 0.5039 1.0904 0.0045
C26 C -0.0763(7) 0.8652(8) -0.0613(3)
H21 H -0.0878 0.9282 -0.1065
H22 H -0.1795 0.8846 -0.0318
H23 H -0.0834 0.7662 -0.0787
loop_
_geom_bond_atom_site_label_1
_geom_bond_atom_site_label_2
_geom_bond_site_symmetry_1
_geom_bond_site_symmetry_2
S1 O1 1_555 1_555
O2 S1 1_555 1_555
N1 S1 1_555 1_555
C1 C2 1_555 1_555
C2 H1 1_555 1_555
C3 C2 1_555 1_555
H2 C3 1_555 1_555
C4 C3 1_555 1_555
H3 C4 1_555 1_555
C5 C4 1_555 1_555
H4 C5 1_555 1_555
C6 C1 1_555 1_555
C7 C6 1_555 1_555
C8 N1 1_555 1_555
H5 C8 1_555 1_555
H6 C8 1_555 1_555
C9 N1 1_555 1_555
H7 C9 1_555 1_555
C10 C9 1_555 1_555
H8 C10 1_555 1_555
C11 C7 1_555 1_555
C12 C7 1_555 1_555
H9 C12 1_555 1_555
C13 C1 1_555 1_555
H10 C13 1_555 1_555
H11 C13 1_555 1_555
C14 C11 1_555 1_555
C15 C14 1_555 1_555
H12 C15 1_555 1_555
C16 C15 1_555 1_555
H13 C16 1_555 1_555
C17 C16 1_555 1_555
H14 C17 1_555 1_555
C18 C17 1_555 1_555
H15 C18 1_555 1_555
C19 C14 1_555 1_555
H16 C19 1_555 1_555
C20 S1 1_555 1_555
C21 C20 1_555 1_555
H17 C21 1_555 1_555
C22 C21 1_555 1_555
H18 C22 1_555 1_555
C23 C22 1_555 1_555
C24 C23 1_555 1_555
H19 C24 1_555 1_555
C25 C20 1_555 1_555
H20 C25 1_555 1_555
C26 C23 1_555 1_555
H21 C26 1_555 1_555
H22 C26 1_555 1_555
H23 C26 1_555 1_555
C5 C6 1_555 1_555
C7 C8 1_555 1_555
C10 C11 1_555 1_555
C11 C12 1_555 1_555
C12 C13 1_555 1_555
C18 C19 1_555 1_555
C24 C25 1_555 1_555

#END
