
#######################################################################
#
#                 Cambridge Crystallographic Data Centre
#                                CCDC 
#
#######################################################################
#
# If this CIF has been generated from an entry in the Cambridge 
# Structural Database, then it will include bibliographic, chemical, 
# crystal, experimental, refinement or atomic coordinate data resulting 
# from the CCDC's data processing and validation procedures.
#
#######################################################################

data_BITJIA
_chemical_formula_moiety         'C16 H19 N1 O2'
_chemical_name_systematic        
'2-(3,6-dihydropyridin-1(2H)-yl)-5-phenylpent-4-enoic acid'
_symmetry_cell_setting           orthorhombic
_symmetry_space_group_name_H-M   'P 21 21 21'
_symmetry_Int_Tables_number      19
_space_group_name_Hall           'P 2ac 2ab'
loop_
_symmetry_equiv_pos_site_id
_symmetry_equiv_pos_as_xyz
1 x,y,z
2 1/2-x,-y,1/2+z
3 1/2+x,1/2-y,-z
4 -x,1/2+y,1/2-z
_cell_length_a                   5.478(2)
_cell_length_b                   9.837(2)
_cell_length_c                   25.781(5)
_cell_angle_alpha                90
_cell_angle_beta                 90
_cell_angle_gamma                90
_cell_volume                     1389.26
_exptl_crystal_colour            colorless
_exptl_crystal_description       block
_cell_formula_units_Z            4
loop_
_atom_site_label
_atom_site_type_symbol
_atom_site_fract_x
_atom_site_fract_y
_atom_site_fract_z
O1 O -0.3429(4) 0.6120(2) 0.50022(10)
O2 O -0.4171(3) 0.3903(2) 0.50947(8)
H1 H -0.5547 0.4173 0.5195
N1 N 0.1385(4) 0.4664(2) 0.53792(9)
C1 C 0.1513(6) 0.6044(3) 0.56188(11)
H2 H -0.0110 0.6338 0.5719
H3 H 0.2153 0.6690 0.5369
C2 C 0.3139(6) 0.5997(3) 0.60865(12)
H4 H 0.4000 0.6770 0.6185
C3 C 0.3369(6) 0.4819(4) 0.63717(13)
H5 H 0.4293 0.4837 0.6674
C4 C 0.2245(7) 0.3576(4) 0.62204(13)
H6 H 0.2551 0.2767 0.6395
C5 C 0.0548(6) 0.3636(3) 0.57669(11)
H7 H 0.0467 0.2749 0.5604
H8 H -0.1078 0.3870 0.5886
C6 C -0.0109(5) 0.4575(3) 0.48845(10)
H9 H -0.0046 0.3632 0.4762
C7 C -0.2810(5) 0.4923(3) 0.50027(11)
C8 C 0.0958(5) 0.5477(3) 0.44597(11)
H10 H 0.0811 0.6424 0.4559
H11 H 0.2676 0.5271 0.4414
C9 C -0.0385(5) 0.5234(3) 0.39615(11)
H12 H -0.1987 0.5541 0.3941
C10 C 0.0523(6) 0.4617(3) 0.35484(11)
H13 H 0.2149 0.4349 0.3564
C11 C -0.0816(6) 0.4317(3) 0.30633(11)
C12 C -0.2896(6) 0.5053(4) 0.29160(13)
H14 H -0.3425 0.5776 0.3119
C13 C -0.4165(7) 0.4715(4) 0.24723(13)
H15 H -0.5529 0.5220 0.2377
C14 C -0.3425(7) 0.3632(4) 0.21670(13)
H16 H -0.4301 0.3402 0.1871
C15 C -0.1381(7) 0.2893(4) 0.23054(12)
H17 H -0.0884 0.2159 0.2104
C16 C -0.0066(6) 0.3251(3) 0.27469(12)
H18 H 0.1338 0.2769 0.2832
loop_
_geom_bond_atom_site_label_1
_geom_bond_atom_site_label_2
_geom_bond_site_symmetry_1
_geom_bond_site_symmetry_2
O1 C7 1_555 1_555
O2 H1 1_555 1_555
N1 C1 1_555 1_555
C1 H2 1_555 1_555
H3 C1 1_555 1_555
C2 C1 1_555 1_555
H4 C2 1_555 1_555
C3 C2 1_555 1_555
H5 C3 1_555 1_555
C4 C3 1_555 1_555
H6 C4 1_555 1_555
C5 N1 1_555 1_555
H7 C5 1_555 1_555
H8 C5 1_555 1_555
C6 N1 1_555 1_555
H9 C6 1_555 1_555
C7 O2 1_555 1_555
C8 C6 1_555 1_555
H10 C8 1_555 1_555
H11 C8 1_555 1_555
C9 C8 1_555 1_555
H12 C9 1_555 1_555
C10 C9 1_555 1_555
H13 C10 1_555 1_555
C11 C10 1_555 1_555
C12 C11 1_555 1_555
H14 C12 1_555 1_555
C13 C12 1_555 1_555
H15 C13 1_555 1_555
C14 C13 1_555 1_555
H16 C14 1_555 1_555
C15 C14 1_555 1_555
H17 C15 1_555 1_555
C16 C11 1_555 1_555
H18 C16 1_555 1_555
C4 C5 1_555 1_555
C6 C7 1_555 1_555
C15 C16 1_555 1_555

#END
