
#######################################################################
#
#                 Cambridge Crystallographic Data Centre
#                                CCDC 
#
#######################################################################
#
# If this CIF has been generated from an entry in the Cambridge 
# Structural Database, then it will include bibliographic, chemical, 
# crystal, experimental, refinement or atomic coordinate data resulting 
# from the CCDC's data processing and validation procedures.
#
#######################################################################

data_BITLOH
_chemical_formula_moiety         'C17 H11 N3 O2'
_chemical_name_systematic        
2-((2-Oxo-1,2-dihydro-3H-indol-3-ylidene)methyl)quinazolin-4(3H)-one
_symmetry_cell_setting           monoclinic
_symmetry_space_group_name_H-M   'P 21/c'
_symmetry_Int_Tables_number      14
_space_group_name_Hall           '-P 2ybc'
loop_
_symmetry_equiv_pos_site_id
_symmetry_equiv_pos_as_xyz
1 x,y,z
2 -x,1/2+y,1/2-z
3 -x,-y,-z
4 x,1/2-y,1/2+z
_cell_length_a                   12.3125(3)
_cell_length_b                   8.03448(15)
_cell_length_c                   13.5299(3)
_cell_angle_alpha                90
_cell_angle_beta                 105.179(8)
_cell_angle_gamma                90
_cell_volume                     1291.74
_exptl_crystal_colour            orange
_exptl_crystal_description       platelet
_cell_formula_units_Z            4
loop_
_atom_site_label
_atom_site_type_symbol
_atom_site_fract_x
_atom_site_fract_y
_atom_site_fract_z
O1 O 0.28613(10) -0.07177(15) 0.77635(9)
O2 O 0.02308(9) 0.18941(14) 0.69642(9)
N1 N 0.18482(12) 0.04722(16) 0.62901(11)
N2 N 0.22666(12) 0.02337(17) 0.46910(11)
N3 N -0.12459(12) 0.35358(17) 0.61205(11)
C1 C 0.50638(15) -0.2699(3) 0.60884(14)
C2 C 0.47697(15) -0.2392(3) 0.50353(14)
C3 C 0.38550(14) -0.1426(3) 0.45834(14)
C4 C 0.31905(14) -0.0735(2) 0.51784(13)
C5 C 0.34678(14) -0.1080(3) 0.62323(13)
C6 C 0.44123(14) -0.2060(2) 0.66819(14)
C7 C 0.27352(14) -0.0456(2) 0.68369(13)
C8 C 0.16437(14) 0.0799(2) 0.52647(13)
C9 C 0.06857(14) 0.1843(2) 0.47606(13)
C10 C -0.01196(14) 0.2597(2) 0.51204(12)
C11 C -0.10255(14) 0.3639(2) 0.44988(13)
C12 C -0.16877(14) 0.4168(2) 0.51336(13)
C13 C -0.03156(14) 0.2598(2) 0.61768(13)
C14 C -0.26128(15) 0.5197(3) 0.47909(14)
C15 C -0.28620(15) 0.5694(2) 0.37699(14)
C16 C -0.22089(15) 0.5205(2) 0.31281(14)
C17 C -0.12789(14) 0.4164(2) 0.34875(13)
H1 H 0.5711 -0.3346 0.6393
H2 H 0.1380 0.0885 0.6619
H3 H 0.5211 -0.2861 0.4625
H4 H -0.1535 0.3723 0.6640
H5 H 0.3671 -0.1225 0.3867
H6 H 0.4601 -0.2281 0.7396
H7 H 0.0615 0.2027 0.4053
H8 H -0.3056 0.5547 0.5231
H9 H -0.3497 0.6387 0.3506
H10 H -0.2394 0.5581 0.2438
H11 H -0.0831 0.3824 0.3049
loop_
_geom_bond_atom_site_label_1
_geom_bond_atom_site_label_2
_geom_bond_site_symmetry_1
_geom_bond_site_symmetry_2
O1 C7 1_555 1_555
O2 C13 1_555 1_555
N1 C7 1_555 1_555
N2 C4 1_555 1_555
N3 C12 1_555 1_555
C1 C2 1_555 1_555
C2 C3 1_555 1_555
C3 C4 1_555 1_555
C4 C5 1_555 1_555
C5 C6 1_555 1_555
C6 C1 1_555 1_555
C7 C5 1_555 1_555
C8 N1 1_555 1_555
C9 C8 1_555 1_555
C10 C9 1_555 1_555
C11 C10 1_555 1_555
C12 C11 1_555 1_555
C13 N3 1_555 1_555
C14 C12 1_555 1_555
C15 C14 1_555 1_555
C16 C15 1_555 1_555
C17 C11 1_555 1_555
H1 C1 1_555 1_555
H2 N1 1_555 1_555
H3 C2 1_555 1_555
H4 N3 1_555 1_555
H5 C3 1_555 1_555
H6 C6 1_555 1_555
H7 C9 1_555 1_555
H8 C14 1_555 1_555
H9 C15 1_555 1_555
H10 C16 1_555 1_555
H11 C17 1_555 1_555
N2 C8 1_555 1_555
C10 C13 1_555 1_555
C16 C17 1_555 1_555

#END
