
#######################################################################
#
#                 Cambridge Crystallographic Data Centre
#                                CCDC 
#
#######################################################################
#
# If this CIF has been generated from an entry in the Cambridge 
# Structural Database, then it will include bibliographic, chemical, 
# crystal, experimental, refinement or atomic coordinate data resulting 
# from the CCDC's data processing and validation procedures.
#
#######################################################################

data_BITMAU
_chemical_formula_moiety         'C18 H13 N3 O2'
_chemical_name_systematic        
3-((4-Methoxycinnolin-3-yl)methylene)-1,3-dihydro-2H-indol-2-one
_symmetry_cell_setting           monoclinic
_symmetry_space_group_name_H-M   'P 21/c'
_symmetry_Int_Tables_number      14
_space_group_name_Hall           '-P 2ybc'
loop_
_symmetry_equiv_pos_site_id
_symmetry_equiv_pos_as_xyz
1 x,y,z
2 -x,1/2+y,1/2-z
3 -x,-y,-z
4 x,1/2-y,1/2+z
_cell_length_a                   14.7873(3)
_cell_length_b                   14.5879(4)
_cell_length_c                   13.3767(3)
_cell_angle_alpha                90
_cell_angle_beta                 91.9210(10)
_cell_angle_gamma                90
_cell_volume                     2883.94
_exptl_crystal_colour            red
_exptl_crystal_description       prismatic
_cell_formula_units_Z            8
loop_
_atom_site_label
_atom_site_type_symbol
_atom_site_fract_x
_atom_site_fract_y
_atom_site_fract_z
C1 C 1.03283(13) 0.80580(11) 1.29223(13)
H1 H 1.0351 0.7959 1.3625
C2 C 1.10300(12) 0.77234(10) 1.23451(13)
H2 H 1.1519 0.7402 1.2663
C3 C 1.10232(10) 0.78503(9) 1.13388(12)
H3 H 1.1501 0.7618 1.0955
C4 C 1.02938(9) 0.83340(8) 1.08683(10)
C5 C 0.95820(9) 0.86749(8) 1.14458(10)
C6 C 0.96109(11) 0.85242(11) 1.24933(11)
H4 H 0.9138 0.8744 1.2893
C7 C 0.88895(8) 0.91418(8) 1.09163(9)
C8 C 0.89438(8) 0.92316(7) 0.98867(9)
C9 C 0.82547(8) 0.97426(7) 0.93275(9)
H5 H 0.7802 0.9993 0.9734
C10 C 0.81277(7) 0.99335(7) 0.83459(9)
C11 C 0.73629(7) 1.05781(8) 0.80816(9)
C12 C 0.80605(8) 1.02277(8) 0.66526(9)
C13 C 0.82577(9) 1.01895(9) 0.56553(10)
H6 H 0.7930 1.0544 0.5170
C14 C 0.89547(10) 0.96122(10) 0.53868(10)
H7 H 0.9106 0.9569 0.4704
C15 C 0.94346(10) 0.90970(10) 0.60983(10)
H8 H 0.9908 0.8706 0.5894
C16 C 0.92328(8) 0.91445(9) 0.71045(9)
H9 H 0.9563 0.8789 0.7586
C17 C 0.85412(7) 0.97190(8) 0.73951(9)
C18 C 0.82904(11) 1.03463(12) 1.18734(12)
H10 H 0.8821 1.0316 1.2332
H11 H 0.7755 1.0504 1.2249
H12 H 0.8388 1.0815 1.1363
N1 N 0.96535(7) 0.88737(7) 0.93828(8)
N2 N 1.03098(7) 0.84408(7) 0.98586(8)
N3 N 0.73823(6) 1.07413(7) 0.70922(8)
H13 H 0.7016 1.1121 0.6766
O1 O 0.81552(6) 0.94673(7) 1.13959(7)
O2 O 0.68271(6) 1.09068(6) 0.86704(7)
C19 C 0.41463(8) 0.35321(8) 0.61165(9)
H14 H 0.3516 0.3646 0.6152
C20 C 0.47305(9) 0.42521(8) 0.60653(9)
H15 H 0.4500 0.4860 0.6064
C21 C 0.56690(9) 0.41118(8) 0.60143(9)
H16 H 0.6065 0.4621 0.5960
C22 C 0.60090(8) 0.32447(8) 0.60427(9)
H17 H 0.6643 0.3150 0.6018
C23 C 0.54214(8) 0.24871(8) 0.61096(8)
C24 C 0.44669(8) 0.26094(7) 0.61172(7)
C25 C 0.39534(7) 0.17913(8) 0.61547(7)
C26 C 0.44241(7) 0.09514(7) 0.62049(7)
C27 C 0.39334(7) 0.00894(8) 0.62350(7)
H18 H 0.3294 0.0156 0.6224
C28 C 0.42203(7) -0.07920(8) 0.62760(7)
C29 C 0.34829(8) -0.15094(8) 0.62997(8)
C30 C 0.50726(7) -0.13083(8) 0.63143(7)
C31 C 0.59870(8) -0.10840(8) 0.63083(8)
H19 H 0.6169 -0.0461 0.6263
C32 C 0.66339(8) -0.17760(8) 0.63690(9)
H20 H 0.7258 -0.1621 0.6367
C33 C 0.63802(8) -0.26932(8) 0.64331(8)
H21 H 0.6832 -0.3156 0.6482
C34 C 0.54720(8) -0.29370(8) 0.64256(8)
H22 H 0.5294 -0.3562 0.6458
C35 C 0.48367(8) -0.22464(7) 0.63697(7)
C36 C 0.24172(8) 0.24148(9) 0.59410(11)
H23 H 0.2377 0.2831 0.6513
H24 H 0.1822 0.2145 0.5790
H25 H 0.2617 0.2757 0.5358
N4 N 0.58295(7) 0.16481(6) 0.61810(7)
N5 N 0.53364(7) 0.09082(6) 0.62358(7)
N6 N 0.39011(6) -0.23368(6) 0.63592(7)
H26 H 0.3615 -0.2865 0.6388
O3 O 0.30525(5) 0.17031(5) 0.61784(7)
O4 O 0.26642(6) -0.13827(6) 0.62750(7)
loop_
_geom_bond_atom_site_label_1
_geom_bond_atom_site_label_2
_geom_bond_site_symmetry_1
_geom_bond_site_symmetry_2
C1 H1 1_555 1_555
C2 C1 1_555 1_555
H2 C2 1_555 1_555
C3 C2 1_555 1_555
H3 C3 1_555 1_555
C4 C3 1_555 1_555
C5 C4 1_555 1_555
C6 C1 1_555 1_555
H4 C6 1_555 1_555
C7 C5 1_555 1_555
C8 C7 1_555 1_555
C9 C8 1_555 1_555
H5 C9 1_555 1_555
C10 C9 1_555 1_555
C11 C10 1_555 1_555
C12 C13 1_555 1_555
C13 H6 1_555 1_555
C14 C13 1_555 1_555
H7 C14 1_555 1_555
C15 C14 1_555 1_555
H8 C15 1_555 1_555
C16 C15 1_555 1_555
H9 C16 1_555 1_555
C17 C10 1_555 1_555
C18 H10 1_555 1_555
H11 C18 1_555 1_555
H12 C18 1_555 1_555
N1 C8 1_555 1_555
N2 C4 1_555 1_555
N3 C11 1_555 1_555
H13 N3 1_555 1_555
O1 C7 1_555 1_555
O2 C11 1_555 1_555
C19 H14 1_555 1_555
C20 C19 1_555 1_555
H15 C20 1_555 1_555
C21 C20 1_555 1_555
H16 C21 1_555 1_555
C22 C21 1_555 1_555
H17 C22 1_555 1_555
C23 C22 1_555 1_555
C24 C19 1_555 1_555
C25 C24 1_555 1_555
C26 C25 1_555 1_555
C27 C26 1_555 1_555
H18 C27 1_555 1_555
C28 C27 1_555 1_555
C29 C28 1_555 1_555
C30 C28 1_555 1_555
C31 C30 1_555 1_555
H19 C31 1_555 1_555
C32 C31 1_555 1_555
H20 C32 1_555 1_555
C33 C32 1_555 1_555
H21 C33 1_555 1_555
C34 C33 1_555 1_555
H22 C34 1_555 1_555
C35 C30 1_555 1_555
C36 H23 1_555 1_555
H24 C36 1_555 1_555
H25 C36 1_555 1_555
N4 C23 1_555 1_555
N5 C26 1_555 1_555
N6 C29 1_555 1_555
H26 N6 1_555 1_555
O3 C25 1_555 1_555
O4 C29 1_555 1_555
C5 C6 1_555 1_555
C12 C17 1_555 1_555
C12 N3 1_555 1_555
C16 C17 1_555 1_555
C18 O1 1_555 1_555
N1 N2 1_555 1_555
C23 C24 1_555 1_555
C34 C35 1_555 1_555
C35 N6 1_555 1_555
C36 O3 1_555 1_555
N4 N5 1_555 1_555

#END
