
#######################################################################
#
#                 Cambridge Crystallographic Data Centre
#                                CCDC 
#
#######################################################################
#
# If this CIF has been generated from an entry in the Cambridge 
# Structural Database, then it will include bibliographic, chemical, 
# crystal, experimental, refinement or atomic coordinate data resulting 
# from the CCDC's data processing and validation procedures.
#
#######################################################################

data_BITMEY
_chemical_formula_moiety         'C19 H12 Cl1 N3 O2'
_chemical_name_systematic        
1-Acetyl-3-((4-chlorocinnolin-3-yl)methylene)-1,3-dihydro-2H-indol-2-one
_symmetry_cell_setting           monoclinic
_symmetry_space_group_name_H-M   'P 21/c'
_symmetry_Int_Tables_number      14
_space_group_name_Hall           '-P 2ybc'
loop_
_symmetry_equiv_pos_site_id
_symmetry_equiv_pos_as_xyz
1 x,y,z
2 -x,1/2+y,1/2-z
3 -x,-y,-z
4 x,1/2-y,1/2+z
_cell_length_a                   15.761(2)
_cell_length_b                   7.1827(10)
_cell_length_c                   14.776(2)
_cell_angle_alpha                90
_cell_angle_beta                 112.879(2)
_cell_angle_gamma                90
_cell_volume                     1541.14
_exptl_crystal_colour            yellow
_exptl_crystal_description       prismatic
_cell_formula_units_Z            4
loop_
_atom_site_label
_atom_site_type_symbol
_atom_site_fract_x
_atom_site_fract_y
_atom_site_fract_z
C1 C 0.80328(14) 0.5058(3) 0.22643(15)
C2 C 0.72512(13) 0.5735(2) 0.13779(14)
C3 C 0.75674(13) 0.5660(2) 0.05689(14)
C4 C 0.71528(14) 0.6096(3) -0.04249(15)
H1 H 0.6554 0.6557 -0.0685
C5 C 0.76341(15) 0.5843(3) -0.10276(16)
H2 H 0.7361 0.6151 -0.1690
C6 C 0.85203(15) 0.5132(3) -0.06445(16)
H3 H 0.8832 0.4951 -0.1058
C7 C 0.89513(14) 0.4685(3) 0.03393(16)
H4 H 0.9545 0.4197 0.0590
C8 C 0.84748(13) 0.4984(2) 0.09459(15)
C9 C 0.96767(14) 0.4213(3) 0.26050(17)
C10 C 0.99039(15) 0.4164(3) 0.36848(17)
H5 H 1.0535 0.3796 0.4024
H6 H 0.9510 0.3285 0.3821
H7 H 0.9813 0.5378 0.3904
C11 C 0.64776(13) 0.6211(2) 0.15217(14)
H8 H 0.6525 0.6039 0.2164
C12 C 0.55976(13) 0.6931(2) 0.08696(14)
C13 C 0.48941(13) 0.7370(2) 0.11892(14)
C14 C 0.40632(12) 0.8087(2) 0.05179(14)
C15 C 0.32901(13) 0.8617(2) 0.07357(15)
H9 H 0.3315 0.8504 0.1373
C16 C 0.25191(14) 0.9285(3) 0.00133(15)
H10 H 0.2023 0.9646 0.0166
C17 C 0.24503(14) 0.9447(2) -0.09648(16)
H11 H 0.1910 0.9889 -0.1450
C18 C 0.31790(13) 0.8952(3) -0.11971(15)
H12 H 0.3135 0.9058 -0.1841
C19 C 0.39949(13) 0.8283(2) -0.04618(14)
Cl1 Cl 0.50188(3) 0.70388(6) 0.23878(3)
N1 N 0.87772(11) 0.4658(2) 0.19792(12)
N2 N 0.47026(12) 0.7835(2) -0.07354(13)
N3 N 0.54707(11) 0.7194(2) -0.00881(12)
O1 O 0.80510(10) 0.4858(2) 0.30833(11)
O2 O 1.02578(11) 0.3906(3) 0.22743(13)
loop_
_geom_bond_atom_site_label_1
_geom_bond_atom_site_label_2
_geom_bond_site_symmetry_1
_geom_bond_site_symmetry_2
C1 C2 1_555 1_555
C2 C3 1_555 1_555
C3 C4 1_555 1_555
C4 H1 1_555 1_555
C5 C4 1_555 1_555
H2 C5 1_555 1_555
C6 C5 1_555 1_555
H3 C6 1_555 1_555
C7 C6 1_555 1_555
H4 C7 1_555 1_555
C8 C3 1_555 1_555
C9 C10 1_555 1_555
C10 H5 1_555 1_555
H6 C10 1_555 1_555
H7 C10 1_555 1_555
C11 C2 1_555 1_555
H8 C11 1_555 1_555
C12 C11 1_555 1_555
C13 C12 1_555 1_555
C14 C13 1_555 1_555
C15 C14 1_555 1_555
H9 C15 1_555 1_555
C16 C15 1_555 1_555
H10 C16 1_555 1_555
C17 C16 1_555 1_555
H11 C17 1_555 1_555
C18 C17 1_555 1_555
H12 C18 1_555 1_555
C19 C14 1_555 1_555
Cl1 C13 1_555 1_555
N1 C1 1_555 1_555
N2 C19 1_555 1_555
N3 C12 1_555 1_555
O1 C1 1_555 1_555
O2 C9 1_555 1_555
C7 C8 1_555 1_555
C8 N1 1_555 1_555
C9 N1 1_555 1_555
C18 C19 1_555 1_555
N2 N3 1_555 1_555

#END
