
#######################################################################
#
#                 Cambridge Crystallographic Data Centre
#                                CCDC 
#
#######################################################################
#
# If this CIF has been generated from an entry in the Cambridge 
# Structural Database, then it will include bibliographic, chemical, 
# crystal, experimental, refinement or atomic coordinate data resulting 
# from the CCDC's data processing and validation procedures.
#
#######################################################################

data_BITSEC
_chemical_compound_source        'Abrus precatorius L'
_chemical_name_common            'Abruslactone A'
_chemical_formula_moiety         'C30 H46 O3'
_chemical_name_systematic        
'3\b,22\a-Dihydroxy-olean-12-en-29\a-oic acid \g-lactone'
_symmetry_cell_setting           orthorhombic
_symmetry_space_group_name_H-M   'P 21 21 21'
_symmetry_Int_Tables_number      19
_space_group_name_Hall           'P 2ac 2ab'
loop_
_symmetry_equiv_pos_site_id
_symmetry_equiv_pos_as_xyz
1 x,y,z
2 1/2+x,1/2-y,-z
3 -x,1/2+y,1/2-z
4 1/2-x,-y,1/2+z
_cell_length_a                   7.321(1)
_cell_length_b                   12.820(3)
_cell_length_c                   26.864(5)
_cell_angle_alpha                90
_cell_angle_beta                 90
_cell_angle_gamma                90
_cell_volume                     2521.33
_cell_formula_units_Z            4
loop_
_atom_site_label
_atom_site_type_symbol
_atom_site_fract_x
_atom_site_fract_y
_atom_site_fract_z
C1 C -0.22940 -0.05950 -0.02610
C2 C -0.26020 -0.11340 -0.07590
C3 C -0.14080 -0.06900 -0.11640
C4 C 0.06290 -0.07200 -0.10400
C5 C 0.08860 -0.01970 -0.05220
C6 C 0.28590 -0.00830 -0.03640
C7 C 0.30460 0.07080 0.00570
C8 C 0.19100 0.04460 0.05200
C9 C -0.00740 0.01730 0.03540
C10 C -0.02920 -0.06200 -0.00890
C11 C -0.12570 -0.00900 0.08070
C12 C -0.07190 0.04540 0.12780
C13 C 0.06550 0.11180 0.13340
C14 C 0.18210 0.14200 0.08790
C15 C 0.37540 0.17630 0.10350
C16 C 0.38110 0.24480 0.14920
C17 C 0.29650 0.19370 0.19510
C18 C 0.09660 0.16320 0.18410
C19 C -0.03800 0.25290 0.19310
C20 C 0.00110 0.31350 0.24240
C21 C 0.13790 0.25380 0.27400
C22 C 0.30490 0.26520 0.24100
C23 C 0.16290 -0.00670 -0.14310
C24 C 0.13570 -0.18370 -0.10760
C25 C 0.01700 -0.17530 0.00600
C26 C 0.27990 -0.04890 0.07880
C27 C 0.08960 0.23870 0.06400
C28 C 0.40620 0.09490 0.20900
C29 C 0.11600 0.40560 0.22790
C30 C -0.17460 0.34600 0.26830
O1 O -0.17550 -0.12190 -0.16280
O2 O 0.29490 0.37540 0.22650
O3 O 0.07340 0.49250 0.21700
loop_
_geom_bond_atom_site_label_1
_geom_bond_atom_site_label_2
_geom_bond_site_symmetry_1
_geom_bond_site_symmetry_2
C1 C2 1_555 1_555
C2 C3 1_555 1_555
C3 C4 1_555 1_555
C4 C5 1_555 1_555
C5 C6 1_555 1_555
C6 C7 1_555 1_555
C7 C8 1_555 1_555
C8 C9 1_555 1_555
C9 C10 1_555 1_555
C10 C1 1_555 1_555
C11 C9 1_555 1_555
C12 C11 1_555 1_555
C13 C12 1_555 1_555
C14 C8 1_555 1_555
C15 C14 1_555 1_555
C16 C15 1_555 1_555
C17 C16 1_555 1_555
C18 C13 1_555 1_555
C19 C18 1_555 1_555
C20 C19 1_555 1_555
C21 C20 1_555 1_555
C22 C17 1_555 1_555
C23 C4 1_555 1_555
C24 C4 1_555 1_555
C25 C10 1_555 1_555
C26 C8 1_555 1_555
C27 C14 1_555 1_555
C28 C17 1_555 1_555
C29 C20 1_555 1_555
C30 C20 1_555 1_555
O1 C3 1_555 1_555
O2 C22 1_555 1_555
O3 C29 1_555 1_555
C5 C10 1_555 1_555
C13 C14 1_555 1_555
C17 C18 1_555 1_555
C21 C22 1_555 1_555
C29 O2 1_555 1_555

#END
