
#######################################################################
#
#                 Cambridge Crystallographic Data Centre
#                                CCDC 
#
#######################################################################
#
# If this CIF has been generated from an entry in the Cambridge 
# Structural Database, then it will include bibliographic, chemical, 
# crystal, experimental, refinement or atomic coordinate data resulting 
# from the CCDC's data processing and validation procedures.
#
#######################################################################

data_BITSUU
_chemical_formula_moiety         'C39 H28 N4'
_chemical_name_systematic        
N,N-Diphenyl-4'-(2,2':6',2''-terpyridin-4'-yl)biphenyl-4-amine
_symmetry_cell_setting           orthorhombic
_symmetry_space_group_name_H-M   'P 21 21 21'
_symmetry_Int_Tables_number      19
_space_group_name_Hall           'P 2ac 2ab'
loop_
_symmetry_equiv_pos_site_id
_symmetry_equiv_pos_as_xyz
1 x,y,z
2 1/2-x,-y,1/2+z
3 -x,1/2+y,1/2-z
4 1/2+x,1/2-y,-z
_cell_length_a                   11.214(13)
_cell_length_b                   14.804(17)
_cell_length_c                   35.01(4)
_cell_angle_alpha                90
_cell_angle_beta                 90
_cell_angle_gamma                90
_cell_volume                     5812.08
_exptl_crystal_colour            colorless
_exptl_crystal_description       block
_cell_formula_units_Z            8
loop_
_atom_site_label
_atom_site_type_symbol
_atom_site_fract_x
_atom_site_fract_y
_atom_site_fract_z
N1 N 0.4031(3) 0.4097(2) 0.11531(8)
C1 C 0.5177(3) 0.4907(3) 0.06923(9)
C2 C 0.6041(3) 0.4477(2) 0.13209(9)
H1 H 0.6774 0.4715 0.1248
C3 C 0.5100(3) 0.4464(3) 0.10694(9)
C4 C 0.4791(3) 0.3731(3) 0.17633(9)
H2 H 0.4660 0.3473 0.2002
N2 N 1.1477(3) 0.4840(2) 0.38668(8)
C5 C 0.3909(3) 0.3713(3) 0.14949(9)
C6 C 1.0755(3) 0.4728(3) 0.35432(10)
C7 C 1.1819(3) 0.5720(3) 0.39790(9)
C8 C 0.9117(4) 0.5230(3) 0.31588(10)
H3 H 0.8506 0.5643 0.3119
N3 N 0.2622(3) 0.2930(2) 0.19251(9)
C9 C 1.0203(3) 0.3948(3) 0.29712(10)
H4 H 1.0343 0.3481 0.2799
C10 C 0.8800(3) 0.4200(3) 0.22193(9)
H5 H 0.9608 0.4112 0.2171
N4 N 0.6245(3) 0.4920(3) 0.05298(9)
C11 C 0.5880(3) 0.4129(3) 0.16836(9)
C12 C 0.2735(3) 0.3304(3) 0.15781(10)
C13 C 1.1794(4) 0.4087(3) 0.40917(9)
C14 C 0.5436(4) 0.5744(3) 0.00141(11)
H6 H 0.5555 0.6031 -0.0219
C15 C 0.7994(3) 0.4108(3) 0.19225(10)
H7 H 0.8267 0.3968 0.1679
C16 C 0.9852(4) 0.5325(3) 0.34720(10)
H8 H 0.9731 0.5806 0.3638
C17 C 0.9274(3) 0.4535(3) 0.29054(9)
C18 C 0.8440(3) 0.4416(3) 0.25824(9)
C19 C 0.6792(3) 0.4224(3) 0.19848(9)
C20 C 1.0931(3) 0.4038(3) 0.32862(10)
H9 H 1.1548 0.3629 0.3325
C21 C 0.1826(3) 0.3300(3) 0.13158(11)
H10 H 0.1938 0.3545 0.1074
C22 C 0.4212(3) 0.5296(3) 0.05246(11)
H11 H 0.3471 0.5270 0.0644
C23 C 0.1564(4) 0.2578(3) 0.20132(13)
H12 H 0.1465 0.2329 0.2255
C24 C 0.0752(4) 0.2932(3) 0.14153(13)
H13 H 0.0119 0.2933 0.1244
C25 C 1.2646(5) 0.7163(3) 0.38241(17)
H14 H 1.2981 0.7546 0.3643
C26 C 0.0624(4) 0.2562(3) 0.17698(14)
H15 H -0.0096 0.2303 0.1843
C27 C 0.4328(4) 0.5726(3) 0.01823(12)
H16 H 0.3676 0.5999 0.0066
C28 C 1.3198(6) 0.3342(6) 0.44898(15)
H17 H 1.3938 0.3330 0.4610
C29 C 1.2894(4) 0.4073(4) 0.42712(11)
H18 H 1.3420 0.4555 0.4244
C30 C 0.7234(3) 0.4564(3) 0.26382(10)
H19 H 0.6963 0.4733 0.2879
C31 C 0.6430(3) 0.4466(3) 0.23455(10)
H20 H 0.5625 0.4567 0.2392
C32 C 1.1664(5) 0.6013(4) 0.43440(11)
H21 H 1.1339 0.5630 0.4527
C33 C 1.2310(4) 0.6304(3) 0.37220(12)
H22 H 1.2420 0.6116 0.3471
C34 C 1.1023(5) 0.3382(3) 0.41427(11)
H23 H 1.0274 0.3392 0.4029
C35 C 0.6338(4) 0.5336(4) 0.01958(11)
H24 H 0.7084 0.5345 0.0079
C36 C 1.2493(5) 0.7450(4) 0.41811(19)
H25 H 1.2729 0.8030 0.4250
C37 C 1.2450(9) 0.2644(5) 0.45349(15)
H26 H 1.2675 0.2150 0.4683
C38 C 1.1362(7) 0.2658(4) 0.43638(13)
H27 H 1.0843 0.2174 0.4396
C39 C 1.1997(7) 0.6898(5) 0.44425(16)
H28 H 1.1873 0.7105 0.4690
N5 N -0.1134(3) 0.5940(2) 0.12453(8)
C40 C -0.0051(3) 0.5609(3) 0.11619(9)
N6 N 0.6419(3) 0.5124(2) 0.39135(8)
C41 C 0.0723(3) 0.6024(3) 0.17737(10)
C42 C 0.0875(3) 0.5638(2) 0.14166(9)
H29 H 0.1612 0.5397 0.1349
N7 N 0.1163(3) 0.5179(3) 0.06308(9)
C43 C -0.0382(3) 0.6397(3) 0.18515(10)
H30 H -0.0515 0.6685 0.2084
C44 C 0.5683(3) 0.5264(3) 0.35951(9)
C45 C -0.1287(3) 0.6345(3) 0.15859(10)
C46 C 0.4172(3) 0.5563(3) 0.29688(9)
C47 C 0.4135(3) 0.4767(3) 0.31743(10)
H31 H 0.3601 0.4318 0.3102
C48 C 0.6793(4) 0.5842(3) 0.41486(9)
C49 C 0.0071(3) 0.5177(3) 0.07859(10)
C50 C 0.4867(3) 0.4619(3) 0.34823(9)
H32 H 0.4812 0.4079 0.3617
C51 C 0.4998(4) 0.6217(3) 0.30841(10)
H33 H 0.5037 0.6764 0.2954
N8 N -0.2662(3) 0.6990(3) 0.20300(10)
C52 C 0.3327(3) 0.5717(3) 0.26550(9)
C53 C -0.2494(3) 0.6703(3) 0.16684(11)
C54 C 0.5751(4) 0.6064(3) 0.33860(10)
H34 H 0.6314 0.6499 0.3452
C55 C 0.6787(4) 0.4228(3) 0.40035(10)
C56 C -0.3363(4) 0.6725(3) 0.13960(12)
H35 H -0.3202 0.6541 0.1147
C57 C 0.1649(3) 0.5961(3) 0.20691(9)
C58 C 0.2159(4) 0.5148(3) 0.21375(11)
H36 H 0.1953 0.4657 0.1986
C59 C -0.0879(3) 0.4789(3) 0.06077(11)
H37 H -0.1634 0.4811 0.0717
C60 C 0.7923(4) 0.5850(4) 0.42970(11)
H38 H 0.8442 0.5374 0.4247
C61 C 0.7343(4) 0.3702(3) 0.37334(12)
H39 H 0.7476 0.3927 0.3489
C62 C -0.4484(4) 0.7024(4) 0.14963(16)
H40 H -0.5095 0.7037 0.1317
C63 C 0.2977(4) 0.5032(3) 0.24271(11)
H41 H 0.3298 0.4461 0.2467
C64 C 0.1955(4) 0.6695(3) 0.23111(11)
H42 H 0.1595 0.7256 0.2278
C65 C -0.0700(4) 0.4360(3) 0.02594(12)
H43 H -0.1331 0.4072 0.0138
C66 C 0.1271(4) 0.4778(4) 0.02917(12)
H44 H 0.2020 0.4784 0.0178
C67 C 0.0380(4) 0.4363(3) 0.01005(11)
H45 H 0.0516 0.4088 -0.0134
C68 C 0.2793(4) 0.6572(3) 0.25963(11)
H46 H 0.3007 0.7056 0.2751
C69 C 0.6027(5) 0.6557(3) 0.42238(10)
H47 H 0.5253 0.6554 0.4129
C70 C 0.7521(5) 0.2503(4) 0.41750(19)
H48 H 0.7779 0.1922 0.4232
C71 C 0.7572(7) 0.7261(5) 0.45878(14)
H49 H 0.7845 0.7742 0.4735
C72 C -0.3754(5) 0.7280(4) 0.21150(14)
H50 H -0.3897 0.7482 0.2362
C73 C 0.6437(7) 0.7281(4) 0.44444(13)
H51 H 0.5942 0.7772 0.4493
C74 C -0.4683(5) 0.7298(4) 0.18590(17)
H52 H -0.5435 0.7496 0.1934
C75 C 0.6586(5) 0.3871(3) 0.43573(11)
H53 H 0.6192 0.4210 0.4542
C76 C 0.6966(6) 0.3010(4) 0.44400(16)
H54 H 0.6837 0.2775 0.4683
C77 C 0.7694(4) 0.2858(3) 0.38239(17)
H55 H 0.8068 0.2509 0.3638
C78 C 0.8291(6) 0.6566(5) 0.45203(14)
H56 H 0.9053 0.6561 0.4625
loop_
_geom_bond_atom_site_label_1
_geom_bond_atom_site_label_2
_geom_bond_site_symmetry_1
_geom_bond_site_symmetry_2
N1 C3 1_555 1_555
C1 C3 1_555 1_555
C2 H1 1_555 1_555
C3 C2 1_555 1_555
C4 H2 1_555 1_555
N2 C6 1_555 1_555
C5 N1 1_555 1_555
C6 C16 1_555 1_555
C7 N2 1_555 1_555
C8 H3 1_555 1_555
N3 C12 1_555 1_555
C9 H4 1_555 1_555
C10 H5 1_555 1_555
N4 C1 1_555 1_555
C11 C2 1_555 1_555
C12 C5 1_555 1_555
C13 N2 1_555 1_555
C14 H6 1_555 1_555
C15 C10 1_555 1_555
H7 C15 1_555 1_555
C16 C8 1_555 1_555
H8 C16 1_555 1_555
C17 C8 1_555 1_555
C18 C10 1_555 1_555
C19 C11 1_555 1_555
C20 C6 1_555 1_555
H9 C20 1_555 1_555
C21 C12 1_555 1_555
H10 C21 1_555 1_555
C22 C1 1_555 1_555
H11 C22 1_555 1_555
C23 N3 1_555 1_555
H12 C23 1_555 1_555
C24 C21 1_555 1_555
H13 C24 1_555 1_555
C25 H14 1_555 1_555
C26 C23 1_555 1_555
H15 C26 1_555 1_555
C27 C14 1_555 1_555
H16 C27 1_555 1_555
C28 H17 1_555 1_555
C29 C13 1_555 1_555
H18 C29 1_555 1_555
C30 C18 1_555 1_555
H19 C30 1_555 1_555
C31 C19 1_555 1_555
H20 C31 1_555 1_555
C32 C7 1_555 1_555
H21 C32 1_555 1_555
C33 C7 1_555 1_555
H22 C33 1_555 1_555
C34 C13 1_555 1_555
H23 C34 1_555 1_555
C35 N4 1_555 1_555
H24 C35 1_555 1_555
C36 C25 1_555 1_555
H25 C36 1_555 1_555
C37 C28 1_555 1_555
H26 C37 1_555 1_555
C38 C34 1_555 1_555
H27 C38 1_555 1_555
C39 C32 1_555 1_555
H28 C39 1_555 1_555
N5 C40 1_555 1_555
C40 C42 1_555 1_555
N6 C44 1_555 1_555
C41 C42 1_555 1_555
C42 H29 1_555 1_555
N7 C49 1_555 1_555
C43 C41 1_555 1_555
H30 C43 1_555 1_555
C44 C50 1_555 1_555
C45 N5 1_555 1_555
C46 C47 1_555 1_555
C47 H31 1_555 1_555
C48 N6 1_555 1_555
C49 C40 1_555 1_555
C50 C47 1_555 1_555
H32 C50 1_555 1_555
C51 C46 1_555 1_555
H33 C51 1_555 1_555
N8 C53 1_555 1_555
C52 C46 1_555 1_555
C53 C45 1_555 1_555
C54 C44 1_555 1_555
H34 C54 1_555 1_555
C55 N6 1_555 1_555
C56 C53 1_555 1_555
H35 C56 1_555 1_555
C57 C41 1_555 1_555
C58 C57 1_555 1_555
H36 C58 1_555 1_555
C59 C49 1_555 1_555
H37 C59 1_555 1_555
C60 C48 1_555 1_555
H38 C60 1_555 1_555
C61 C55 1_555 1_555
H39 C61 1_555 1_555
C62 C56 1_555 1_555
H40 C62 1_555 1_555
C63 C52 1_555 1_555
H41 C63 1_555 1_555
C64 C57 1_555 1_555
H42 C64 1_555 1_555
C65 C59 1_555 1_555
H43 C65 1_555 1_555
C66 N7 1_555 1_555
H44 C66 1_555 1_555
C67 C65 1_555 1_555
H45 C67 1_555 1_555
C68 C52 1_555 1_555
H46 C68 1_555 1_555
C69 C48 1_555 1_555
H47 C69 1_555 1_555
C70 H48 1_555 1_555
C71 H49 1_555 1_555
C72 N8 1_555 1_555
H50 C72 1_555 1_555
C73 C69 1_555 1_555
H51 C73 1_555 1_555
C74 C62 1_555 1_555
H52 C74 1_555 1_555
C75 C55 1_555 1_555
H53 C75 1_555 1_555
C76 C70 1_555 1_555
H54 C76 1_555 1_555
C77 C61 1_555 1_555
H55 C77 1_555 1_555
C78 C60 1_555 1_555
H56 C78 1_555 1_555
C4 C5 1_555 1_555
C4 C11 1_555 1_555
C9 C17 1_555 1_555
C9 C20 1_555 1_555
C14 C35 1_555 1_555
C15 C19 1_555 1_555
C17 C18 1_555 1_555
C22 C27 1_555 1_555
C24 C26 1_555 1_555
C25 C33 1_555 1_555
C28 C29 1_555 1_555
C30 C31 1_555 1_555
C36 C39 1_555 1_555
C37 C38 1_555 1_555
C43 C45 1_555 1_555
C51 C54 1_555 1_555
C58 C63 1_555 1_555
C64 C68 1_555 1_555
C66 C67 1_555 1_555
C70 C77 1_555 1_555
C71 C73 1_555 1_555
C71 C78 1_555 1_555
C72 C74 1_555 1_555
C75 C76 1_555 1_555

#END
