
#######################################################################
#
#                 Cambridge Crystallographic Data Centre
#                                CCDC 
#
#######################################################################
#
# If this CIF has been generated from an entry in the Cambridge 
# Structural Database, then it will include bibliographic, chemical, 
# crystal, experimental, refinement or atomic coordinate data resulting 
# from the CCDC's data processing and validation procedures.
#
#######################################################################

data_BITTAB
_chemical_formula_moiety         'C37 H35 N3 O3 S1'
_chemical_name_systematic        
(9-Butyl-9H-carbazol-3-yl)(2,4-dihydroxy-2,4-bis(pyridin-2-yl)-6-(2-thienyl)cyclohexyl)methanone
_symmetry_cell_setting           monoclinic
_symmetry_space_group_name_H-M   'P 21/c'
_symmetry_Int_Tables_number      14
_space_group_name_Hall           '-P 2ybc'
loop_
_symmetry_equiv_pos_site_id
_symmetry_equiv_pos_as_xyz
1 x,y,z
2 -x,1/2+y,1/2-z
3 -x,-y,-z
4 x,1/2-y,1/2+z
_cell_length_a                   11.954(5)
_cell_length_b                   23.865(5)
_cell_length_c                   11.800(5)
_cell_angle_alpha                90
_cell_angle_beta                 110.071(5)
_cell_angle_gamma                90
_cell_volume                     3161.89
_cell_formula_units_Z            4
loop_
_atom_site_label
_atom_site_type_symbol
_atom_site_fract_x
_atom_site_fract_y
_atom_site_fract_z
C1 C 1.0077(4) 0.2412(2) 1.1383(3)
H1 H 1.0032 0.2445 1.2151
C2 C 1.1050(4) 0.2580(3) 1.1032(4)
H2 H 1.1754 0.2743 1.1530
C3 C 1.0760(4) 0.2456(3) 0.9787(4)
H3 H 1.1240 0.2524 0.9326
S1 S 0.9607(4) 0.2212(3) 0.9368(3)
C4 C 0.9185(3) 0.2185(2) 1.0354(4)
O1 O 0.6389(6) 0.1018(2) 1.0546(4)
H4 H 0.6259 0.1284 1.0921
O2 O 0.7330(5) 0.2870(2) 1.1640(4)
C5 C 0.6989(6) 0.2415(3) 0.9771(6)
H5 H 0.6965 0.2528 0.8965
C6 C 0.7284(6) 0.2925(3) 1.0608(6)
C7 C 0.5720(6) 0.2194(3) 0.9699(6)
C8 C 0.6350(7) 0.1201(3) 0.9374(6)
O3 O 0.5683(6) 0.2040(2) 1.0836(5)
H6 H 0.6207 0.2207 1.1365
C9 C 0.7556(7) 0.1430(3) 0.9451(6)
H7 H 0.7540 0.1521 0.8645
H8 H 0.8151 0.1140 0.9769
C10 C 0.7924(6) 0.1955(3) 1.0254(6)
H9 H 0.7946 0.1855 1.1066
C11 C 0.7515(6) 0.3485(3) 1.0162(6)
C12 C 0.4823(7) 0.2659(3) 0.9139(8)
C13 C 0.7424(6) 0.3587(3) 0.8984(6)
H10 H 0.7187 0.3299 0.8420
C14 C 0.5994(7) 0.0713(3) 0.8549(7)
C15 C 0.7853(6) 0.3910(3) 1.1025(7)
H11 H 0.7914 0.3844 1.1821
C16 C 0.8037(6) 0.4543(3) 0.9456(7)
C17 C 0.8096(6) 0.4436(3) 1.0657(8)
N1 N 0.4644(7) 0.2788(3) 0.7983(7)
C18 C 0.5429(7) 0.1671(3) 0.8927(6)
H12 H 0.5365 0.1770 0.8110
H13 H 0.4659 0.1532 0.8902
N2 N 0.8378(6) 0.5073(3) 0.9361(7)
C19 C 0.8506(7) 0.4958(4) 1.1308(9)
N3 N 0.5816(7) 0.0809(3) 0.7397(7)
C20 C 0.7688(7) 0.4124(4) 0.8614(7)
H14 H 0.7624 0.4189 0.7818
C21 C 0.9522(10) 0.5986(5) 1.2076(16)
H15 H 0.9853 0.6336 1.2336
C22 C 0.5458(10) 0.0398(5) 0.6595(9)
H16 H 0.5365 0.0468 0.5793
C23 C 0.5816(8) 0.0200(4) 0.8897(7)
H17 H 0.5986 0.0125 0.9713
C24 C 0.9326(10) 0.5622(5) 1.2909(13)
H18 H 0.9546 0.5716 1.3721
C25 C 0.8788(8) 0.5112(4) 1.2476(9)
H19 H 0.8617 0.4867 1.3008
C26 C 0.4227(9) 0.2938(5) 0.9795(10)
H20 H 0.4328 0.2847 1.0590
C27 C 0.9242(8) 0.5845(4) 1.0882(13)
H21 H 0.9402 0.6092 1.0347
C28 C 0.8551(8) 0.5313(4) 0.8292(10)
H22 H 0.8654 0.5007 0.7796
H23 H 0.9288 0.5525 0.8556
C29 C 0.5222(9) -0.0125(4) 0.6927(8)
H24 H 0.4952 -0.0407 0.6354
C30 C 0.8722(7) 0.5334(4) 1.0488(12)
C31 C 0.3988(9) 0.3179(4) 0.7492(11)
H25 H 0.3934 0.3266 0.6707
C32 C 0.5381(10) -0.0223(4) 0.8059(10)
H26 H 0.5204 -0.0573 0.8299
C33 C 0.3346(9) 0.3490(5) 0.7984(12)
H27 H 0.2847 0.3774 0.7553
C34 C 0.3455(10) 0.3371(5) 0.9160(16)
H28 H 0.3021 0.3576 0.9538
C35 C 0.7576(11) 0.5691(6) 0.7508(17)
H29 H 0.7207 0.5876 0.8021
H30 H 0.6973 0.5457 0.6948
C36 C 0.7951(18) 0.6148(8) 0.6768(19)
H31 H 0.7350 0.6437 0.6469
H32 H 0.8712 0.6318 0.7217
C37 C 0.803(3) 0.5766(9) 0.5780(19)
H33 H 0.8240 0.5981 0.5196
H34 H 0.7267 0.5591 0.5394
H35 H 0.8619 0.5484 0.6119
loop_
_geom_bond_atom_site_label_1
_geom_bond_atom_site_label_2
_geom_bond_site_symmetry_1
_geom_bond_site_symmetry_2
C1 H1 1_555 1_555
C2 C1 1_555 1_555
H2 C2 1_555 1_555
C3 C2 1_555 1_555
H3 C3 1_555 1_555
S1 C3 1_555 1_555
C4 C1 1_555 1_555
O1 H4 1_555 1_555
O2 C6 1_555 1_555
C5 H5 1_555 1_555
C6 C5 1_555 1_555
C7 C5 1_555 1_555
C8 O1 1_555 1_555
O3 C7 1_555 1_555
H6 O3 1_555 1_555
C9 C8 1_555 1_555
H7 C9 1_555 1_555
H8 C9 1_555 1_555
C10 C4 1_555 1_555
H9 C10 1_555 1_555
C11 C6 1_555 1_555
C12 C7 1_555 1_555
C13 C11 1_555 1_555
H10 C13 1_555 1_555
C14 C8 1_555 1_555
C15 C11 1_555 1_555
H11 C15 1_555 1_555
C16 C17 1_555 1_555
C17 C15 1_555 1_555
N1 C12 1_555 1_555
C18 C7 1_555 1_555
H12 C18 1_555 1_555
H13 C18 1_555 1_555
N2 C16 1_555 1_555
C19 C17 1_555 1_555
N3 C14 1_555 1_555
C20 C13 1_555 1_555
H14 C20 1_555 1_555
C21 H15 1_555 1_555
C22 N3 1_555 1_555
H16 C22 1_555 1_555
C23 C14 1_555 1_555
H17 C23 1_555 1_555
C24 C21 1_555 1_555
H18 C24 1_555 1_555
C25 C19 1_555 1_555
H19 C25 1_555 1_555
C26 C12 1_555 1_555
H20 C26 1_555 1_555
C27 C21 1_555 1_555
H21 C27 1_555 1_555
C28 N2 1_555 1_555
H22 C28 1_555 1_555
H23 C28 1_555 1_555
C29 C22 1_555 1_555
H24 C29 1_555 1_555
C30 N2 1_555 1_555
C31 N1 1_555 1_555
H25 C31 1_555 1_555
C32 C23 1_555 1_555
H26 C32 1_555 1_555
C33 C31 1_555 1_555
H27 C33 1_555 1_555
C34 C26 1_555 1_555
H28 C34 1_555 1_555
C35 C28 1_555 1_555
H29 C35 1_555 1_555
H30 C35 1_555 1_555
C36 C35 1_555 1_555
H31 C36 1_555 1_555
H32 C36 1_555 1_555
C37 C36 1_555 1_555
H33 C37 1_555 1_555
H34 C37 1_555 1_555
H35 C37 1_555 1_555
S1 C4 1_555 1_555
C5 C10 1_555 1_555
C8 C18 1_555 1_555
C9 C10 1_555 1_555
C16 C20 1_555 1_555
C19 C30 1_555 1_555
C24 C25 1_555 1_555
C27 C30 1_555 1_555
C29 C32 1_555 1_555
C33 C34 1_555 1_555

#END
