
#######################################################################
#
#                 Cambridge Crystallographic Data Centre
#                                CCDC 
#
#######################################################################
#
# If this CIF has been generated from an entry in the Cambridge 
# Structural Database, then it will include bibliographic, chemical, 
# crystal, experimental, refinement or atomic coordinate data resulting 
# from the CCDC's data processing and validation procedures.
#
#######################################################################

data_BITTOP
_chemical_formula_moiety         'C26 H18 F6 O1 S1'
_chemical_name_systematic        
2-Ethyl-3-(3,3,4,4,5,5-hexafluoro-2-(2-methyl-5-phenyl-3-thienyl)cyclopent-1-en-1-yl)-1-benzofuran
_symmetry_cell_setting           orthorhombic
_symmetry_space_group_name_H-M   'P b c a'
_symmetry_Int_Tables_number      61
_space_group_name_Hall           '-P 2ac 2ab'
loop_
_symmetry_equiv_pos_site_id
_symmetry_equiv_pos_as_xyz
1 x,y,z
2 1/2-x,-y,1/2+z
3 -x,1/2+y,1/2-z
4 1/2+x,1/2-y,-z
5 -x,-y,-z
6 1/2+x,y,1/2-z
7 x,1/2-y,1/2+z
8 1/2-x,1/2+y,z
_cell_length_a                   10.3270(14)
_cell_length_b                   19.115(3)
_cell_length_c                   23.068(3)
_cell_angle_alpha                90
_cell_angle_beta                 90
_cell_angle_gamma                90
_cell_volume                     4553.64
_exptl_crystal_colour            pink
_exptl_crystal_description       block
_cell_formula_units_Z            8
loop_
_atom_site_label
_atom_site_type_symbol
_atom_site_fract_x
_atom_site_fract_y
_atom_site_fract_z
F1 F 0.3114(3) 0.26278(18) 0.32049(16)
F2 F 0.1469(4) 0.27228(17) 0.37865(16)
F3 F 0.1680(3) 0.23948(17) 0.23438(13)
F4 F 0.0185(3) 0.28771(14) 0.28558(16)
F5 F 0.0235(4) 0.13399(16) 0.23396(13)
F6 F -0.0888(4) 0.1693(2) 0.3067(2)
C1 C 0.2043(2) 0.15862(12) 0.35497(10)
C2 C 0.1969(3) 0.23281(14) 0.33506(13)
C3 C 0.0942(3) 0.23514(15) 0.28879(14)
C4 C 0.0386(3) 0.16305(16) 0.28677(13)
C5 C 0.1160(2) 0.11960(13) 0.32771(10)
C6 C 0.2706(2) 0.09861(12) 0.44751(10)
C7 C 0.2990(2) 0.13817(12) 0.39966(10)
C8 C 0.4298(2) 0.16114(12) 0.39908(11)
H1 H 0.4639 0.1889 0.3697
C9 C 0.5010(2) 0.13889(12) 0.44536(10)
C10 C 0.6355(2) 0.15562(13) 0.46075(11)
C11 C 0.6984(3) 0.12313(18) 0.50636(13)
H2 H 0.6561 0.0881 0.5270
C12 C 0.8227(3) 0.1417(2) 0.52184(15)
H3 H 0.8634 0.1189 0.5524
C13 C 0.8860(3) 0.19289(17) 0.49287(16)
H4 H 0.9688 0.2061 0.5042
C14 C 0.8282(3) 0.22469(17) 0.44743(19)
H5 H 0.8723 0.2592 0.4270
C15 C 0.7035(3) 0.20626(15) 0.43109(16)
H6 H 0.6652 0.2285 0.3996
C16 C 0.1450(3) 0.06663(16) 0.46661(12)
H7 H 0.0742 0.0917 0.4494
H8 H 0.1384 0.0692 0.5081
H9 H 0.1420 0.0186 0.4546
C17 C 0.1768(3) -0.00624(13) 0.31535(11)
C18 C 0.0922(2) 0.04423(12) 0.33068(10)
C19 C -0.0269(2) 0.00919(13) 0.34668(10)
C20 C -0.1479(3) 0.02977(15) 0.36695(11)
H10 H -0.1671 0.0768 0.3729
C21 C -0.2388(3) -0.02135(18) 0.37806(13)
H11 H -0.3201 -0.0084 0.3917
C22 C -0.2116(3) -0.09136(19) 0.36938(13)
H12 H -0.2758 -0.1245 0.3763
C23 C -0.0912(3) -0.11314(16) 0.35069(12)
H13 H -0.0715 -0.1602 0.3457
C24 C -0.0018(3) -0.06117(13) 0.33990(10)
C25 C 0.3113(3) -0.00507(16) 0.29305(13)
H14 H 0.3359 0.0431 0.2859
H15 H 0.3136 -0.0295 0.2562
C26 C 0.4097(3) -0.03764(19) 0.33298(16)
H16 H 0.4111 -0.0125 0.3690
H17 H 0.4937 -0.0356 0.3153
H18 H 0.3869 -0.0856 0.3401
O1 O 0.12286(18) -0.07167(8) 0.32084(8)
S1 S 0.40498(7) 0.08933(4) 0.49054(3)
F7? F 0.3031(7) 0.2471(4) 0.3023(3)
F8? F 0.1995(9) 0.2810(4) 0.3783(3)
F9? F 0.1026(7) 0.2742(4) 0.2480(3)
F10? F -0.0130(6) 0.2681(3) 0.3251(3)
F11? F 0.0879(7) 0.1475(4) 0.2313(3)
F12? F -0.0829(7) 0.1549(6) 0.2845(5)
loop_
_geom_bond_atom_site_label_1
_geom_bond_atom_site_label_2
_geom_bond_site_symmetry_1
_geom_bond_site_symmetry_2
F1 C2 1_555 1_555
F2 C2 1_555 1_555
F3 C3 1_555 1_555
F4 C3 1_555 1_555
F5 C4 1_555 1_555
F6 C4 1_555 1_555
C1 C2 1_555 1_555
C2 C3 1_555 1_555
C3 C4 1_555 1_555
C4 C5 1_555 1_555
C5 C1 1_555 1_555
C6 C7 1_555 1_555
C7 C1 1_555 1_555
C8 C7 1_555 1_555
H1 C8 1_555 1_555
C9 C8 1_555 1_555
C10 C9 1_555 1_555
C11 C10 1_555 1_555
H2 C11 1_555 1_555
C12 C11 1_555 1_555
H3 C12 1_555 1_555
C13 C12 1_555 1_555
H4 C13 1_555 1_555
C14 C13 1_555 1_555
H5 C14 1_555 1_555
C15 C10 1_555 1_555
H6 C15 1_555 1_555
C16 C6 1_555 1_555
H7 C16 1_555 1_555
H8 C16 1_555 1_555
H9 C16 1_555 1_555
C17 C18 1_555 1_555
C18 C5 1_555 1_555
C19 C18 1_555 1_555
C20 C19 1_555 1_555
H10 C20 1_555 1_555
C21 C20 1_555 1_555
H11 C21 1_555 1_555
C22 C21 1_555 1_555
H12 C22 1_555 1_555
C23 C22 1_555 1_555
H13 C23 1_555 1_555
C24 C19 1_555 1_555
C25 C17 1_555 1_555
H14 C25 1_555 1_555
H15 C25 1_555 1_555
C26 C25 1_555 1_555
H16 C26 1_555 1_555
H17 C26 1_555 1_555
H18 C26 1_555 1_555
O1 C17 1_555 1_555
S1 C6 1_555 1_555
C9 S1 1_555 1_555
C14 C15 1_555 1_555
C23 C24 1_555 1_555
C24 O1 1_555 1_555

#END
