
#######################################################################
#
#                 Cambridge Crystallographic Data Centre
#                                CCDC 
#
#######################################################################
#
# If this CIF has been generated from an entry in the Cambridge 
# Structural Database, then it will include bibliographic, chemical, 
# crystal, experimental, refinement or atomic coordinate data resulting 
# from the CCDC's data processing and validation procedures.
#
#######################################################################

data_BITTIJ
_chemical_formula_moiety         'C27 H17 F6 N1 O1 S1'
_chemical_name_systematic        
4-(4-(2-(2-Ethyl-1-benzofuran-3-yl)-3,3,4,4,5,5-hexafluorocyclopent-1-en-1-yl)-5-methyl-2-thienyl)benzonitrile
_symmetry_cell_setting           monoclinic
_symmetry_space_group_name_H-M   'P 21/c'
_symmetry_Int_Tables_number      14
_space_group_name_Hall           '-P 2ybc'
loop_
_symmetry_equiv_pos_site_id
_symmetry_equiv_pos_as_xyz
1 x,y,z
2 -x,1/2+y,1/2-z
3 -x,-y,-z
4 x,1/2-y,1/2+z
_cell_length_a                   10.806(5)
_cell_length_b                   21.700(10)
_cell_length_c                   10.203(5)
_cell_angle_alpha                90
_cell_angle_beta                 96.485(6)
_cell_angle_gamma                90
_cell_volume                     2377.19
_exptl_crystal_colour            colorless
_exptl_crystal_description       block
_cell_formula_units_Z            4
loop_
_atom_site_label
_atom_site_type_symbol
_atom_site_fract_x
_atom_site_fract_y
_atom_site_fract_z
F1 F 0.7373(14) 0.8652(7) 0.3483(13)
F2 F 0.8563(14) 0.9449(6) 0.3767(13)
F3 F 0.5656(6) 0.9194(3) 0.4521(8)
F4 F 0.6577(7) 1.0037(2) 0.4110(6)
F5 F 0.5957(6) 0.9531(3) 0.6904(7)
F6 F 0.7459(7) 1.0132(3) 0.6530(9)
C1 C 0.8429(4) 0.88460(18) 0.5632(4)
C2 C 0.7771(5) 0.9086(2) 0.4374(5)
C3 C 0.6805(5) 0.9522(2) 0.4767(5)
C4 C 0.6965(5) 0.9543(2) 0.6234(5)
C5 C 0.7987(4) 0.90992(18) 0.6675(4)
C6 C 1.1131(4) 0.79072(18) 0.4827(4)
C7 C 1.0385(4) 0.84140(18) 0.4788(4)
H1 H 1.0506 0.8757 0.4271
C8 C 0.9404(4) 0.83747(17) 0.5604(4)
C9 C 0.9424(4) 0.78264(17) 0.6277(4)
C10 C 0.8574(4) 0.7586(2) 0.7206(5)
H2 H 0.8928 0.7664 0.8096
H3 H 0.8463 0.7151 0.7076
H4 H 0.7782 0.7789 0.7045
C11 C 1.2164(4) 0.77760(19) 0.4066(4)
C12 C 1.2452(4) 0.7173(2) 0.3745(4)
H5 H 1.2027 0.6847 0.4084
C13 C 1.3351(5) 0.7052(2) 0.2936(5)
H6 H 1.3534 0.6647 0.2731
C14 C 1.3990(4) 0.7532(2) 0.2424(5)
C15 C 1.3757(5) 0.8130(2) 0.2774(5)
H7 H 1.4211 0.8452 0.2464
C16 C 1.2854(4) 0.8250(2) 0.3581(5)
H8 H 1.2698 0.8655 0.3809
C17 C 1.4898(5) 0.7401(3) 0.1529(6)
C18 C 0.7901(4) 0.89046(19) 0.9115(5)
C19 C 0.8494(4) 0.90567(17) 0.8064(4)
C20 C 0.9760(4) 0.92011(17) 0.8568(4)
C21 C 1.0821(4) 0.93932(18) 0.8034(5)
H9 H 1.0808 0.9442 0.7127
C22 C 1.1879(5) 0.9509(2) 0.8849(5)
H10 H 1.2592 0.9635 0.8491
C23 C 1.1916(5) 0.9441(2) 1.0207(6)
H11 H 1.2653 0.9523 1.0741
C24 C 1.0891(5) 0.92568(19) 1.0771(5)
H12 H 1.0909 0.9214 1.1680
C25 C 0.9826(4) 0.91368(17) 0.9929(4)
C26 C 0.6645(5) 0.8666(2) 0.9277(5)
H13 H 0.6734 0.8268 0.9707
H14 H 0.6197 0.8603 0.8409
C27 C 0.5870(6) 0.9078(3) 1.0064(6)
H15 H 0.6329 0.9170 1.0902
H16 H 0.5110 0.8871 1.0200
H17 H 0.5679 0.9454 0.9589
N1 N 1.5597(4) 0.7296(2) 0.0803(5)
O1 O 0.8693(3) 0.89448(12) 1.0270(3)
S1 S 1.06103(11) 0.73678(5) 0.58742(11)
F7? F 0.705(2) 0.8620(11) 0.378(2)
F8? F 0.850(2) 0.9255(11) 0.345(2)
F9? F 0.5744(9) 0.9565(6) 0.4007(12)
F10? F 0.7399(9) 1.0095(4) 0.4533(10)
F11? F 0.5847(8) 0.9215(5) 0.6364(11)
F12? F 0.6816(14) 1.0061(5) 0.6864(16)
loop_
_geom_bond_atom_site_label_1
_geom_bond_atom_site_label_2
_geom_bond_site_symmetry_1
_geom_bond_site_symmetry_2
F1 C2 1_555 1_555
F2 C2 1_555 1_555
F3 C3 1_555 1_555
F4 C3 1_555 1_555
F5 C4 1_555 1_555
F6 C4 1_555 1_555
C1 C2 1_555 1_555
C2 C3 1_555 1_555
C3 C4 1_555 1_555
C4 C5 1_555 1_555
C5 C1 1_555 1_555
C6 C7 1_555 1_555
C7 H1 1_555 1_555
C8 C1 1_555 1_555
C9 C8 1_555 1_555
C10 C9 1_555 1_555
H2 C10 1_555 1_555
H3 C10 1_555 1_555
H4 C10 1_555 1_555
C11 C6 1_555 1_555
C12 C11 1_555 1_555
H5 C12 1_555 1_555
C13 C12 1_555 1_555
H6 C13 1_555 1_555
C14 C13 1_555 1_555
C15 C14 1_555 1_555
H7 C15 1_555 1_555
C16 C11 1_555 1_555
H8 C16 1_555 1_555
C17 C14 1_555 1_555
C18 C19 1_555 1_555
C19 C5 1_555 1_555
C20 C19 1_555 1_555
C21 C20 1_555 1_555
H9 C21 1_555 1_555
C22 C21 1_555 1_555
H10 C22 1_555 1_555
C23 C22 1_555 1_555
H11 C23 1_555 1_555
C24 C23 1_555 1_555
H12 C24 1_555 1_555
C25 C20 1_555 1_555
C26 C18 1_555 1_555
H13 C26 1_555 1_555
H14 C26 1_555 1_555
C27 C26 1_555 1_555
H15 C27 1_555 1_555
H16 C27 1_555 1_555
H17 C27 1_555 1_555
N1 C17 1_555 1_555
O1 C18 1_555 1_555
S1 C6 1_555 1_555
C7 C8 1_555 1_555
C9 S1 1_555 1_555
C15 C16 1_555 1_555
C24 C25 1_555 1_555
C25 O1 1_555 1_555

#END
