
#######################################################################
#
#                 Cambridge Crystallographic Data Centre
#                                CCDC 
#
#######################################################################
#
# If this CIF has been generated from an entry in the Cambridge 
# Structural Database, then it will include bibliographic, chemical, 
# crystal, experimental, refinement or atomic coordinate data resulting 
# from the CCDC's data processing and validation procedures.
#
#######################################################################

data_BIVBAL
_chemical_formula_moiety         'C15 H15 N1 O3 S2'
_chemical_name_systematic        
4-(bis(Ethylsulfanyl)methylene)-1-phenylpyrrolidine-2,3,5-trione
_symmetry_cell_setting           orthorhombic
_symmetry_space_group_name_H-M   'P b c a'
_symmetry_Int_Tables_number      61
_space_group_name_Hall           '-P 2ac 2ab'
loop_
_symmetry_equiv_pos_site_id
_symmetry_equiv_pos_as_xyz
1 x,y,z
2 1/2-x,-y,1/2+z
3 -x,1/2+y,1/2-z
4 1/2+x,1/2-y,-z
5 -x,-y,-z
6 1/2+x,y,1/2-z
7 x,1/2-y,1/2+z
8 1/2-x,1/2+y,z
_cell_length_a                   15.6780(5)
_cell_length_b                   10.1087(2)
_cell_length_c                   19.3903(5)
_cell_angle_alpha                90
_cell_angle_beta                 90
_cell_angle_gamma                90
_cell_volume                     3073.06
_exptl_crystal_colour            yellow
_exptl_crystal_description       block
_cell_formula_units_Z            8
loop_
_atom_site_label
_atom_site_type_symbol
_atom_site_fract_x
_atom_site_fract_y
_atom_site_fract_z
S1 S 0.20530(3) 0.73627(5) 1.01829(3)
S2 S 0.18110(4) 0.95374(5) 1.11631(3)
O1 O 0.19785(9) 0.90690(14) 0.87571(7)
N1 N 0.09945(10) 1.07703(14) 0.87926(8)
O2 O 0.00806(9) 1.24044(13) 0.91861(7)
C1 C 0.05676(12) 1.15061(18) 0.92844(9)
O3 O 0.05675(9) 1.13929(14) 1.05240(7)
C2 C 0.13824(12) 0.98260(17) 0.98449(9)
C3 C 0.08355(12) 1.09416(18) 0.99858(9)
C4 C 0.17137(11) 0.89586(18) 1.03331(9)
C5 C 0.15105(12) 0.97602(17) 0.90965(10)
C6 C 0.09001(11) 1.09518(18) 0.80636(9)
C7 C 0.09920(14) 1.21936(19) 0.77794(11)
H1 H 0.1132 1.2914 0.8056
C8 C 0.06977(13) 0.98836(19) 0.76547(11)
H2 H 0.0636 0.9047 0.7849
C9 C 0.13805(14) 0.67212(19) 0.94995(11)
H3 H 0.0863 0.7242 0.9466
H4 H 0.1678 0.6772 0.9062
C10 C 0.08731(14) 1.2354(2) 0.70764(11)
H5 H 0.0928 1.3189 0.6881
C11 C 0.06749(15) 1.1294(2) 0.66660(11)
H6 H 0.0601 1.1409 0.6194
C12 C 0.05866(15) 1.0064(2) 0.69527(11)
H7 H 0.0451 0.9345 0.6674
C13 C 0.18972(15) 0.8113(2) 1.17187(11)
H8 H 0.1466 0.7464 1.1600
H9 H 0.2454 0.7707 1.1668
C14 C 0.11631(15) 0.5302(2) 0.96616(15)
H10 H 0.1679 0.4800 0.9709
H11 H 0.0826 0.4939 0.9294
H12 H 0.0846 0.5264 1.0084
C15 C 0.17714(18) 0.8586(3) 1.24528(12)
H13 H 0.2170 0.9281 1.2552
H14 H 0.1863 0.7863 1.2765
H15 H 0.1201 0.8913 1.2507
loop_
_geom_bond_atom_site_label_1
_geom_bond_atom_site_label_2
_geom_bond_site_symmetry_1
_geom_bond_site_symmetry_2
S1 C4 1_555 1_555
S2 C4 1_555 1_555
O1 C5 1_555 1_555
N1 C1 1_555 1_555
O2 C1 1_555 1_555
C1 C3 1_555 1_555
O3 C3 1_555 1_555
C2 C3 1_555 1_555
C4 C2 1_555 1_555
C5 N1 1_555 1_555
C6 N1 1_555 1_555
C7 C6 1_555 1_555
H1 C7 1_555 1_555
C8 C6 1_555 1_555
H2 C8 1_555 1_555
C9 S1 1_555 1_555
H3 C9 1_555 1_555
H4 C9 1_555 1_555
C10 C7 1_555 1_555
H5 C10 1_555 1_555
C11 C10 1_555 1_555
H6 C11 1_555 1_555
C12 C8 1_555 1_555
H7 C12 1_555 1_555
C13 S2 1_555 1_555
H8 C13 1_555 1_555
H9 C13 1_555 1_555
C14 C9 1_555 1_555
H10 C14 1_555 1_555
H11 C14 1_555 1_555
H12 C14 1_555 1_555
C15 C13 1_555 1_555
H13 C15 1_555 1_555
H14 C15 1_555 1_555
H15 C15 1_555 1_555
C2 C5 1_555 1_555
C11 C12 1_555 1_555

#END
