
#######################################################################
#
#                 Cambridge Crystallographic Data Centre
#                                CCDC 
#
#######################################################################
#
# If this CIF has been generated from an entry in the Cambridge 
# Structural Database, then it will include bibliographic, chemical, 
# crystal, experimental, refinement or atomic coordinate data resulting 
# from the CCDC's data processing and validation procedures.
#
#######################################################################

data_BIVGUL
_chemical_formula_moiety         'C25 H22 Br1 N3 O1'
_chemical_name_systematic        
2^4^-[4-(4-bromobutoxy)phenyl]-1^2^,2^2^:2^6^,3^2^-terpyridine
_symmetry_cell_setting           monoclinic
_symmetry_space_group_name_H-M   'P 21/n'
_symmetry_Int_Tables_number      14
_space_group_name_Hall           '-P 2yn'
loop_
_symmetry_equiv_pos_site_id
_symmetry_equiv_pos_as_xyz
1 x,y,z
2 1/2-x,1/2+y,1/2-z
3 -x,-y,-z
4 1/2+x,1/2-y,1/2+z
_cell_length_a                   6.2345(5)
_cell_length_b                   35.276(3)
_cell_length_c                   9.6339(8)
_cell_angle_alpha                90
_cell_angle_beta                 92.794(7)
_cell_angle_gamma                90
_cell_volume                     2116.25
_exptl_crystal_colour            colorless
_exptl_crystal_description       plate
_cell_formula_units_Z            4
loop_
_atom_site_label
_atom_site_type_symbol
_atom_site_fract_x
_atom_site_fract_y
_atom_site_fract_z
Br1 Br 1.79952(10) 0.43028(2) 0.16193(7)
O1 O 1.0587(5) 0.54552(9) 0.3730(3)
N1 N -0.0616(6) 0.68067(9) 0.2948(4)
N2 N 0.1390(6) 0.70943(11) 0.6309(4)
N3 N -0.0855(7) 0.64180(12) -0.0487(4)
C1 C 0.0006(7) 0.66002(11) 0.1868(4)
C2 C 0.5091(7) 0.61216(11) 0.3242(4)
C3 C -0.0090(7) 0.70194(11) 0.5292(4)
C4 C 0.2507(7) 0.65772(11) 0.4227(4)
H1 H 0.333596 0.657916 0.505627
C5 C 0.3145(7) 0.63605(11) 0.3139(4)
C6 C -0.2190(7) 0.71422(12) 0.5334(5)
H2 H -0.318112 0.708308 0.461404
C7 C 0.0638(7) 0.67947(11) 0.4114(4)
C8 C 0.1838(7) 0.63796(11) 0.1924(4)
H3 H 0.220300 0.624253 0.114576
C9 C -0.1470(7) 0.66095(12) 0.0608(4)
C10 C 0.6282(7) 0.60796(12) 0.4491(5)
H4 H 0.583284 0.620561 0.527386
C11 C 0.8796(7) 0.56678(12) 0.3483(5)
C12 C 0.8084(8) 0.58604(12) 0.4611(5)
H5 H 0.883708 0.584105 0.546566
C13 C 0.5865(7) 0.59294(12) 0.2127(5)
H6 H 0.512367 0.595024 0.126850
C14 C -0.3422(8) 0.67938(13) 0.0623(5)
H7 H -0.379561 0.692892 0.140414
C15 C 0.7687(7) 0.57074(12) 0.2223(5)
H8 H 0.816254 0.558519 0.143992
C16 C -0.2798(8) 0.73510(13) 0.6441(5)
H9 H -0.420254 0.743714 0.648407
C17 C 1.1486(7) 0.52578(13) 0.2614(5)
H10 H 1.195703 0.543478 0.192145
H11 H 1.043336 0.508781 0.217609
C18 C 1.4511(8) 0.48029(13) 0.2184(5)
H12 H 1.353229 0.461699 0.176633
H13 H 1.499955 0.496556 0.145161
C19 C 1.3353(8) 0.50384(13) 0.3229(5)
H14 H 1.284797 0.487163 0.394444
H15 H 1.436791 0.521431 0.367216
C20 C -0.1299(9) 0.74315(13) 0.7487(5)
H16 H -0.166118 0.757347 0.825418
C21 C -0.4807(8) 0.67752(14) -0.0531(5)
H17 H -0.613195 0.689649 -0.054232
C22 C 1.6392(9) 0.46056(14) 0.2882(5)
H18 H 1.588611 0.444325 0.361013
H19 H 1.734205 0.479349 0.331589
C23 C 0.0743(9) 0.72977(14) 0.7374(5)
H20 H 0.174919 0.735271 0.808993
C24 C -0.4203(9) 0.65770(15) -0.1648(5)
H21 H -0.511177 0.655639 -0.243898
C25 C -0.2234(10) 0.64082(17) -0.1591(6)
H22 H -0.182421 0.627731 -0.237284
loop_
_geom_bond_atom_site_label_1
_geom_bond_atom_site_label_2
_geom_bond_site_symmetry_1
_geom_bond_site_symmetry_2
Br1 C22 1_555 1_555
O1 C11 1_555 1_555
N1 C1 1_555 1_555
N2 C3 1_555 1_555
N3 C9 1_555 1_555
C1 C8 1_555 1_555
C2 C5 1_555 1_555
C3 C6 1_555 1_555
C4 H1 1_555 1_555
C5 C4 1_555 1_555
C6 H2 1_555 1_555
C7 N1 1_555 1_555
C8 C5 1_555 1_555
H3 C8 1_555 1_555
C9 C1 1_555 1_555
C10 C2 1_555 1_555
H4 C10 1_555 1_555
C11 C12 1_555 1_555
C12 C10 1_555 1_555
H5 C12 1_555 1_555
C13 C2 1_555 1_555
H6 C13 1_555 1_555
C14 C9 1_555 1_555
H7 C14 1_555 1_555
C15 C11 1_555 1_555
H8 C15 1_555 1_555
C16 C6 1_555 1_555
H9 C16 1_555 1_555
C17 O1 1_555 1_555
H10 C17 1_555 1_555
H11 C17 1_555 1_555
C18 H12 1_555 1_555
H13 C18 1_555 1_555
C19 C17 1_555 1_555
H14 C19 1_555 1_555
H15 C19 1_555 1_555
C20 C16 1_555 1_555
H16 C20 1_555 1_555
C21 C14 1_555 1_555
H17 C21 1_555 1_555
C22 C18 1_555 1_555
H18 C22 1_555 1_555
H19 C22 1_555 1_555
C23 N2 1_555 1_555
H20 C23 1_555 1_555
C24 C21 1_555 1_555
H21 C24 1_555 1_555
C25 N3 1_555 1_555
H22 C25 1_555 1_555
C3 C7 1_555 1_555
C4 C7 1_555 1_555
C13 C15 1_555 1_555
C18 C19 1_555 1_555
C20 C23 1_555 1_555
C24 C25 1_555 1_555

#END
