
#######################################################################
#
#                 Cambridge Crystallographic Data Centre
#                                CCDC 
#
#######################################################################
#
# If this CIF has been generated from an entry in the Cambridge 
# Structural Database, then it will include bibliographic, chemical, 
# crystal, experimental, refinement or atomic coordinate data resulting 
# from the CCDC's data processing and validation procedures.
#
#######################################################################

data_BIVHOG
_chemical_formula_moiety         'C8 H8 N8 O12'
_chemical_name_systematic        
2,4,4,6,8,8-hexanitro-2,6-diazatricyclo[3.3.1.1^3,7^]decane
_symmetry_cell_setting           monoclinic
_symmetry_space_group_name_H-M   'P 21/c'
_symmetry_Int_Tables_number      14
_space_group_name_Hall           '-P 2ybc'
loop_
_symmetry_equiv_pos_site_id
_symmetry_equiv_pos_as_xyz
1 x,y,z
2 -x,1/2+y,1/2-z
3 -x,-y,-z
4 x,1/2-y,1/2+z
_cell_length_a                   8.0321(15)
_cell_length_b                   12.359(2)
_cell_length_c                   14.386(3)
_cell_angle_alpha                90
_cell_angle_beta                 104.253(2)
_cell_angle_gamma                90
_cell_volume                     1384.12
_exptl_crystal_description       block
_cell_formula_units_Z            4
loop_
_atom_site_label
_atom_site_type_symbol
_atom_site_fract_x
_atom_site_fract_y
_atom_site_fract_z
C1 C 0.32510(18) 0.51060(12) 0.14922(10)
C2 C 0.16862(17) 0.58283(12) 0.14525(10)
H1 H 0.114509 0.605839 0.077944
C3 C 0.03954(18) 0.52237(12) 0.18894(10)
H2 H -0.061583 0.568831 0.187189
H3 H -0.000190 0.456024 0.151459
C4 C 0.12675(18) 0.49249(11) 0.29273(10)
H4 H 0.047317 0.450060 0.322490
C5 C 0.41469(18) 0.48163(11) 0.25300(10)
H5 H 0.513430 0.431458 0.255649
C6 C 0.47400(17) 0.58569(12) 0.30868(10)
H6 H 0.555570 0.624724 0.279114
H7 H 0.533698 0.568020 0.375724
C7 C 0.31765(17) 0.65754(11) 0.30732(10)
H8 H 0.352677 0.727214 0.341972
C8 C 0.18978(17) 0.59490(11) 0.35114(10)
N1 N 0.23092(15) 0.67647(9) 0.20632(8)
N2 N 0.28459(15) 0.43134(9) 0.29528(9)
N3 N 0.29170(15) 0.32219(10) 0.31516(8)
N4 N 0.27170(15) 0.40893(10) 0.08750(9)
N5 N 0.45109(16) 0.56283(10) 0.09798(9)
N6 N 0.19422(15) 0.77937(10) 0.17094(9)
O1 O 0.16362(14) 0.28060(9) 0.33099(9)
N7 N 0.03784(15) 0.66593(10) 0.35947(8)
N8 N 0.27203(16) 0.56414(10) 0.45571(9)
O2 O 0.59902(14) 0.53176(10) 0.12262(9)
O3 O 0.39299(15) 0.62731(10) 0.03481(8)
O4 O 0.12546(14) 0.78818(9) 0.08588(8)
O5 O 0.23385(13) 0.85433(8) 0.22818(8)
O6 O 0.06818(15) 0.76155(9) 0.37564(8)
O7 O -0.09964(14) 0.62144(9) 0.35087(9)
O8 O 0.39154(14) 0.61955(10) 0.49871(8)
O9 O 0.21028(16) 0.48745(10) 0.48779(8)
O10 O 0.42685(13) 0.27618(8) 0.31684(8)
O11 O 0.34744(15) 0.32542(9) 0.11446(8)
O12 O 0.15939(14) 0.42146(9) 0.01432(8)
loop_
_geom_bond_atom_site_label_1
_geom_bond_atom_site_label_2
_geom_bond_site_symmetry_1
_geom_bond_site_symmetry_2
C1 C2 1_555 1_555
C2 H1 1_555 1_555
C3 C2 1_555 1_555
H2 C3 1_555 1_555
H3 C3 1_555 1_555
C4 C3 1_555 1_555
H4 C4 1_555 1_555
C5 C1 1_555 1_555
H5 C5 1_555 1_555
C6 C5 1_555 1_555
H6 C6 1_555 1_555
H7 C6 1_555 1_555
C7 C6 1_555 1_555
H8 C7 1_555 1_555
C8 C4 1_555 1_555
N1 C2 1_555 1_555
N2 C4 1_555 1_555
N3 N2 1_555 1_555
N4 C1 1_555 1_555
N5 C1 1_555 1_555
N6 N1 1_555 1_555
O1 N3 1_555 1_555
N7 C8 1_555 1_555
N8 C8 1_555 1_555
O2 N5 1_555 1_555
O3 N5 1_555 1_555
O4 N6 1_555 1_555
O5 N6 1_555 1_555
O6 N7 1_555 1_555
O7 N7 1_555 1_555
O8 N8 1_555 1_555
O9 N8 1_555 1_555
O10 N3 1_555 1_555
O11 N4 1_555 1_555
O12 N4 1_555 1_555
C5 N2 1_555 1_555
C7 C8 1_555 1_555
C7 N1 1_555 1_555

#END
