
#######################################################################
#
#                 Cambridge Crystallographic Data Centre
#                                CCDC 
#
#######################################################################
#
# If this CIF has been generated from an entry in the Cambridge 
# Structural Database, then it will include bibliographic, chemical, 
# crystal, experimental, refinement or atomic coordinate data resulting 
# from the CCDC's data processing and validation procedures.
#
#######################################################################

data_BIVRUU
_chemical_formula_moiety         'C30 H42 O2'
_chemical_name_systematic        3,3',5,5'-Tetra-t-butylstilbene-4,4'-quinone
_symmetry_cell_setting           triclinic
_symmetry_space_group_name_H-M   'P -1'
_symmetry_Int_Tables_number      2
_space_group_name_Hall           '-P 1'
loop_
_symmetry_equiv_pos_site_id
_symmetry_equiv_pos_as_xyz
1 x,y,z
2 -x,-y,-z
_cell_length_a                   6.367(3)
_cell_length_b                   10.011(5)
_cell_length_c                   10.807(6)
_cell_angle_alpha                83.686(18)
_cell_angle_beta                 76.908(16)
_cell_angle_gamma                75.926(17)
_cell_volume                     649.695
_exptl_crystal_colour            orange-red
_cell_formula_units_Z            1
loop_
_atom_site_label
_atom_site_type_symbol
_atom_site_fract_x
_atom_site_fract_y
_atom_site_fract_z
O1 O 0.1289(4) 0.5894(2) 0.3690(2)
C1 C 0.3088(5) 0.5753(3) 0.2786(3)
C2 C 0.3481(5) 0.6956(3) 0.1969(3)
C3 C 0.5401(5) 0.6787(3) 0.1059(3)
H1 H 0.5682 0.7562 0.0513
C4 C 0.6970(5) 0.5534(3) 0.0892(3)
C5 C 0.6498(5) 0.4369(3) 0.1675(3)
H2 H 0.7526 0.3507 0.1549
C6 C 0.4629(5) 0.4434(3) 0.2602(3)
C7 C 0.1800(5) 0.8345(3) 0.2131(3)
C8 C 0.2569(6) 0.9470(3) 0.1177(4)
H3 H 0.3977 0.9596 0.1313
H4 H 0.1453 1.0339 0.1301
H5 H 0.2767 0.9194 0.0308
C9 C 0.1503(6) 0.8850(3) 0.3470(3)
H6 H 0.1072 0.8141 0.4112
H7 H 0.0348 0.9702 0.3576
H8 H 0.2901 0.9027 0.3572
C10 C -0.0424(5) 0.8209(4) 0.1896(4)
H9 H -0.0252 0.8018 0.1003
H10 H -0.1530 0.9071 0.2085
H11 H -0.0911 0.7450 0.2448
C11 C 0.8990(5) 0.5450(4) -0.0062(4)
H12 H 0.8949 0.6036 -0.0813
C12 C 0.4152(5) 0.3151(3) 0.3450(3)
C13 C 0.5966(6) 0.1861(3) 0.3064(4)
H13 H 0.7401 0.2014 0.3128
H14 H 0.6013 0.1675 0.2186
H15 H 0.5646 0.1071 0.3633
C14 C 0.1965(6) 0.2851(4) 0.3304(3)
H16 H 0.1678 0.2044 0.3857
H17 H 0.2073 0.2668 0.2417
H18 H 0.0751 0.3652 0.3545
C15 C 0.4123(6) 0.3343(4) 0.4840(3)
H19 H 0.5563 0.3481 0.4909
H20 H 0.3822 0.2521 0.5365
H21 H 0.2964 0.4151 0.5136
O1A O 1.8711(4) 0.4106(2) -0.3690(2)
C1A C 1.6912(5) 0.4247(3) -0.2786(3)
C2A C 1.6519(5) 0.3044(3) -0.1969(3)
C3A C 1.4599(5) 0.3213(3) -0.1059(3)
H1A H 1.4318 0.2438 -0.0513
C4A C 1.3030(5) 0.4466(3) -0.0892(3)
C5A C 1.3502(5) 0.5631(3) -0.1675(3)
H2A H 1.2474 0.6493 -0.1549
C6A C 1.5371(5) 0.5566(3) -0.2602(3)
C7A C 1.8200(5) 0.1655(3) -0.2131(3)
C8A C 1.7431(6) 0.0530(3) -0.1177(4)
H3A H 1.6023 0.0404 -0.1313
H4A H 1.8547 -0.0339 -0.1301
H5A H 1.7233 0.0806 -0.0308
C9A C 1.8497(6) 0.1150(3) -0.3470(3)
H6A H 1.8928 0.1859 -0.4112
H7A H 1.9652 0.0298 -0.3576
H8A H 1.7099 0.0973 -0.3572
C10A C 2.0424(5) 0.1791(4) -0.1896(4)
H9A H 2.0252 0.1982 -0.1003
H10A H 2.1530 0.0929 -0.2085
H11A H 2.0911 0.2550 -0.2448
C11A C 1.1010(5) 0.4550(4) 0.0062(4)
H12A H 1.1051 0.3964 0.0813
C12A C 1.5848(5) 0.6849(3) -0.3450(3)
C13A C 1.4034(6) 0.8139(3) -0.3064(4)
H13A H 1.2599 0.7986 -0.3128
H14A H 1.3987 0.8325 -0.2186
H15A H 1.4354 0.8929 -0.3633
C14A C 1.8035(6) 0.7149(4) -0.3304(3)
H16A H 1.8322 0.7956 -0.3857
H17A H 1.7927 0.7332 -0.2417
H18A H 1.9249 0.6348 -0.3545
C15A C 1.5877(6) 0.6657(4) -0.4840(3)
H19A H 1.4437 0.6519 -0.4909
H20A H 1.6178 0.7479 -0.5365
H21A H 1.7036 0.5849 -0.5136
loop_
_geom_bond_atom_site_label_1
_geom_bond_atom_site_label_2
_geom_bond_site_symmetry_1
_geom_bond_site_symmetry_2
O1 C1 1_555 1_555
C1 C2 1_555 1_555
C2 C3 1_555 1_555
C3 H1 1_555 1_555
C4 C3 1_555 1_555
C5 C4 1_555 1_555
H2 C5 1_555 1_555
C6 C1 1_555 1_555
C7 C2 1_555 1_555
C8 C7 1_555 1_555
H3 C8 1_555 1_555
H4 C8 1_555 1_555
H5 C8 1_555 1_555
C9 C7 1_555 1_555
H6 C9 1_555 1_555
H7 C9 1_555 1_555
H8 C9 1_555 1_555
C10 C7 1_555 1_555
H9 C10 1_555 1_555
H10 C10 1_555 1_555
H11 C10 1_555 1_555
C11 C4 1_555 1_555
H12 C11 1_555 1_555
C12 C6 1_555 1_555
C13 C12 1_555 1_555
H13 C13 1_555 1_555
H14 C13 1_555 1_555
H15 C13 1_555 1_555
C14 C12 1_555 1_555
H16 C14 1_555 1_555
H17 C14 1_555 1_555
H18 C14 1_555 1_555
C15 C12 1_555 1_555
H19 C15 1_555 1_555
H20 C15 1_555 1_555
H21 C15 1_555 1_555
O1A C1A 1_555 1_555
C1A C2A 1_555 1_555
C2A C3A 1_555 1_555
C3A H1A 1_555 1_555
C4A C3A 1_555 1_555
C5A C4A 1_555 1_555
H2A C5A 1_555 1_555
C6A C1A 1_555 1_555
C7A C2A 1_555 1_555
C8A C7A 1_555 1_555
H3A C8A 1_555 1_555
H4A C8A 1_555 1_555
H5A C8A 1_555 1_555
C9A C7A 1_555 1_555
H6A C9A 1_555 1_555
H7A C9A 1_555 1_555
H8A C9A 1_555 1_555
C10A C7A 1_555 1_555
H9A C10A 1_555 1_555
H10A C10A 1_555 1_555
H11A C10A 1_555 1_555
C11A C11 1_555 1_555
H12A C11A 1_555 1_555
C12A C6A 1_555 1_555
C13A C12A 1_555 1_555
H13A C13A 1_555 1_555
H14A C13A 1_555 1_555
H15A C13A 1_555 1_555
C14A C12A 1_555 1_555
H16A C14A 1_555 1_555
H17A C14A 1_555 1_555
H18A C14A 1_555 1_555
C15A C12A 1_555 1_555
H19A C15A 1_555 1_555
H20A C15A 1_555 1_555
H21A C15A 1_555 1_555
C5 C6 1_555 1_555
C4A C11A 1_555 1_555
C5A C6A 1_555 1_555

#END
