
#######################################################################
#
#                 Cambridge Crystallographic Data Centre
#                                CCDC 
#
#######################################################################
#
# If this CIF has been generated from an entry in the Cambridge 
# Structural Database, then it will include bibliographic, chemical, 
# crystal, experimental, refinement or atomic coordinate data resulting 
# from the CCDC's data processing and validation procedures.
#
#######################################################################

data_BIVSIJ
_chemical_formula_moiety         'C12 H10 N2,C13 H10 O3'
_chemical_name_systematic        
"4,4'-Dihydroxybenzophenone 1,2-bis(4-pyridyl)ethene"
_symmetry_cell_setting           monoclinic
_symmetry_space_group_name_H-M   'P 2/c'
_symmetry_Int_Tables_number      13
_space_group_name_Hall           '-P 2yc'
loop_
_symmetry_equiv_pos_site_id
_symmetry_equiv_pos_as_xyz
1 x,y,z
2 -x,y,1/2-z
3 -x,-y,-z
4 x,-y,1/2+z
_cell_length_a                   18.9100(16)
_cell_length_b                   5.9777(6)
_cell_length_c                   17.2465(17)
_cell_angle_alpha                90
_cell_angle_beta                 96.236(4)
_cell_angle_gamma                90
_cell_volume                     1937.98
_exptl_crystal_colour            yellow
_exptl_crystal_description       prismatic
_cell_formula_units_Z            4
loop_
_atom_site_label
_atom_site_type_symbol
_atom_site_fract_x
_atom_site_fract_y
_atom_site_fract_z
O1 O 0.25824(5) 0.68587(16) 0.36289(6)
O2 O 0.5000 1.2719(2) 0.2500
C1 C 0.40292(6) 1.0713(2) 0.33378(8)
C2 C 0.34336(6) 0.9846(2) 0.36271(7)
H2 H 0.3179(8) 1.072(3) 0.3998(9)
C3 C 0.31819(6) 0.7738(2) 0.33842(7)
C4 C 0.35483(6) 0.6480(2) 0.28738(7)
H3 H 0.3363(8) 0.505(3) 0.2699(9)
C5 C 0.41590(6) 0.7348(2) 0.26029(7)
H4 H 0.4402(7) 0.645(3) 0.2243(8)
C6 C 0.44042(6) 0.9487(2) 0.28230(7)
C7 C 0.5000 1.0662(3) 0.2500
H19 H 0.4196(8) 1.217(3) 0.3499(9)
H20 H 0.2335(11) 0.804(4) 0.3861(12)
O1A O 0.74176(5) 0.68587(16) 0.13711(6)
C1A C 0.59708(6) 1.0713(2) 0.16622(8)
C2A C 0.65664(6) 0.9846(2) 0.13729(7)
H2A H 0.6821(8) 1.072(3) 0.1002(9)
C3A C 0.68181(6) 0.7738(2) 0.16158(7)
C4A C 0.64517(6) 0.6480(2) 0.21262(7)
H3A H 0.6637(8) 0.505(3) 0.2301(9)
C5A C 0.58410(6) 0.7348(2) 0.23971(7)
H4A H 0.5598(7) 0.645(3) 0.2757(8)
C6A C 0.55958(6) 0.9487(2) 0.21770(7)
H19A H 0.5804(8) 1.217(3) 0.1501(9)
H20A H 0.7665(11) 0.804(4) 0.1139(12)
C15 C 0.30037(7) 0.7584(2) 0.05883(8)
H9 H 0.2503(8) 0.723(3) 0.0601(9)
C16 C 0.34461(6) 0.6048(2) 0.02814(8)
H10 H 0.3243(8) 0.461(3) 0.0083(9)
C17 C 0.41678(6) 0.6554(2) 0.02740(7)
C18 C 0.43994(6) 0.8626(2) 0.05773(7)
H11 H 0.4905(8) 0.910(3) 0.0588(9)
C19 C 0.39176(7) 1.0071(2) 0.08593(8)
H12 H 0.4059(7) 1.151(3) 0.1074(8)
C20 C 0.46435(6) 0.4944(2) -0.00471(7)
H13 H 0.4413(8) 0.378(3) -0.0361(9)
N1 N 0.32251(6) 0.95824(19) 0.08693(6)
C15B C 0.69963(7) 0.2416(2) -0.05883(8)
H9B H 0.7497(8) 0.277(3) -0.0601(9)
C16B C 0.65539(6) 0.3952(2) -0.02814(8)
H10B H 0.6757(8) 0.539(3) -0.0083(9)
C17B C 0.58322(6) 0.3446(2) -0.02740(7)
C18B C 0.56006(6) 0.1374(2) -0.05773(7)
H11B H 0.5095(8) 0.090(3) -0.0588(9)
C19B C 0.60824(7) -0.0071(2) -0.08593(8)
H12B H 0.5941(7) -0.151(3) -0.1074(8)
C20B C 0.53565(6) 0.5056(2) 0.00471(7)
H13B H 0.5587(8) 0.622(3) 0.0361(9)
N1B N 0.67749(6) 0.04176(19) -0.08693(6)
C21 C 0.16343(8) 1.2139(2) 0.38719(8)
H14 H 0.1909(9) 1.250(3) 0.3449(10)
C22 C 0.11423(9) 1.3644(3) 0.40920(11)
H15 H 0.1085(10) 1.504(3) 0.3805(12)
C23 C 0.07386(8) 1.3106(3) 0.46961(13)
C24 C 0.08796(8) 1.1055(3) 0.50588(10)
H16 H 0.0632(10) 1.061(3) 0.5476(12)
C25 C 0.13791(7) 0.9628(3) 0.47992(8)
H17 H 0.1490(9) 0.818(3) 0.5033(10)
H18 H -0.0084(9) 1.365(3) 0.5669(11)
C27 C 0.01659(14) 1.4110(4) 0.51588(16)
N2 N 0.17545(5) 1.01353(18) 0.42074(6)
C21B C -0.16343(8) 1.7861(2) 0.61281(8)
H14B H -0.1909(9) 1.750(3) 0.6551(10)
C22B C -0.11423(9) 1.6356(3) 0.59080(11)
H15B H -0.1085(10) 1.496(3) 0.6195(12)
C23B C -0.07386(8) 1.6894(3) 0.53039(13)
C24B C -0.08796(8) 1.8945(3) 0.49412(10)
H16B H -0.0632(10) 1.939(3) 0.4524(12)
C25B C -0.13791(7) 2.0372(3) 0.52008(8)
H17B H -0.1490(9) 2.182(3) 0.4967(10)
H18B H 0.0084(9) 1.635(3) 0.4331(11)
C27B C -0.01659(14) 1.5890(4) 0.48412(16)
N2B N -0.17545(5) 1.98647(18) 0.57926(6)
O3? O 0.23740(5) 0.28203(16) 0.13526(6)
O4? O 0.00873(18) -0.3204(3) 0.27159(14)
H1? H 0.2687(11) 0.165(4) 0.1245(12)
C8? C 0.05974(6) 0.2167(2) 0.19365(7)
H5? H 0.0170(7) 0.306(2) 0.1902(8)
C9? C 0.11896(7) 0.3098(2) 0.16501(8)
H6? H 0.1173(8) 0.458(3) 0.1415(9)
C10? C 0.18197(6) 0.1871(2) 0.16644(7)
C11? C 0.18574(7) -0.0274(2) 0.19884(7)
H7? H 0.2307(8) -0.115(3) 0.2017(9)
C12? C 0.12636(7) -0.1186(2) 0.22673(8)
H8? H 0.1289(8) -0.268(3) 0.2482(10)
C13? C 0.06222(7) 0.0004(2) 0.22429(7)
C14? C 0.0000 -0.1170(3) 0.2500
C26? C 0.02207(12) 1.5039(4) 0.47167(14)
loop_
_geom_bond_atom_site_label_1
_geom_bond_atom_site_label_2
_geom_bond_site_symmetry_1
_geom_bond_site_symmetry_2
O1 C3 1_555 1_555
O2 C7 1_555 1_555
C1 C2 1_555 1_555
C2 H2 1_555 1_555
C3 C2 1_555 1_555
C4 C3 1_555 1_555
H3 C4 1_555 1_555
C5 C4 1_555 1_555
H4 C5 1_555 1_555
C6 C1 1_555 1_555
C7 C6 1_555 1_555
C15 H9 1_555 1_555
C16 C15 1_555 1_555
H10 C16 1_555 1_555
C17 C16 1_555 1_555
C18 C17 1_555 1_555
H11 C18 1_555 1_555
C19 C18 1_555 1_555
H12 C19 1_555 1_555
C20 C17 1_555 1_555
H13 C20 1_555 1_555
C21 H14 1_555 1_555
C22 C21 1_555 1_555
H15 C22 1_555 1_555
C23 C22 1_555 1_555
C24 C23 1_555 1_555
H16 C24 1_555 1_555
C25 C24 1_555 1_555
H17 C25 1_555 1_555
H18 C27 1_555 1_555
C27 C23 1_555 1_555
N1 C15 1_555 1_555
N2 C21 1_555 1_555
H19 C1 1_555 1_555
H20 O1 1_555 1_555
O1A C3A 1_555 1_555
C1A C2A 1_555 1_555
C2A H2A 1_555 1_555
C3A C2A 1_555 1_555
C4A C3A 1_555 1_555
H3A C4A 1_555 1_555
C5A C4A 1_555 1_555
H4A C5A 1_555 1_555
C6A C7 1_555 1_555
C15B H9B 1_555 1_555
C16B C15B 1_555 1_555
H10B C16B 1_555 1_555
C17B C16B 1_555 1_555
C18B C17B 1_555 1_555
H11B C18B 1_555 1_555
C19B C18B 1_555 1_555
H12B C19B 1_555 1_555
C20B C20 1_555 1_555
H13B C20B 1_555 1_555
C21B H14B 1_555 1_555
C22B C21B 1_555 1_555
H15B C22B 1_555 1_555
C23B C22B 1_555 1_555
C24B C23B 1_555 1_555
H16B C24B 1_555 1_555
C25B C24B 1_555 1_555
H17B C25B 1_555 1_555
H18B C27B 1_555 1_555
C27B C27 1_555 1_555
N1B C15B 1_555 1_555
N2B C21B 1_555 1_555
H19A C1A 1_555 1_555
H20A O1A 1_555 1_555
C5 C6 1_555 1_555
C19 N1 1_555 1_555
C25 N2 1_555 1_555
C1A C6A 1_555 1_555
C5A C6A 1_555 1_555
C17B C20B 1_555 1_555
C19B N1B 1_555 1_555
C23B C27B 1_555 1_555
C25B N2B 1_555 1_555

#END
