
#######################################################################
#
#                 Cambridge Crystallographic Data Centre
#                                CCDC 
#
#######################################################################
#
# If this CIF has been generated from an entry in the Cambridge 
# Structural Database, then it will include bibliographic, chemical, 
# crystal, experimental, refinement or atomic coordinate data resulting 
# from the CCDC's data processing and validation procedures.
#
#######################################################################

data_BIVXUC
_chemical_formula_moiety         'C9 H5 Cl1 F3 N1 O2'
_chemical_name_systematic        
'N-[(trifluoroacetyl)oxy]benzenecarboximidoyl chloride'
_symmetry_cell_setting           monoclinic
_symmetry_space_group_name_H-M   'P 21/c'
_symmetry_Int_Tables_number      14
_space_group_name_Hall           '-P 2ybc'
loop_
_symmetry_equiv_pos_site_id
_symmetry_equiv_pos_as_xyz
1 x,y,z
2 -x,1/2+y,1/2-z
3 -x,-y,-z
4 x,1/2-y,1/2+z
_cell_length_a                   10.4838(9)
_cell_length_b                   13.5396(11)
_cell_length_c                   7.2164(7)
_cell_angle_alpha                90
_cell_angle_beta                 102.445(3)
_cell_angle_gamma                90
_cell_volume                     1000.27
_cell_formula_units_Z            4
loop_
_atom_site_label
_atom_site_type_symbol
_atom_site_fract_x
_atom_site_fract_y
_atom_site_fract_z
C1 C 0.5953(7) 0.5977(6) 0.4175(12)
H1 H 0.5080 0.5799 0.4026
C2 C 0.6880(7) 0.5266(6) 0.4125(12)
H2 H 0.6630 0.4608 0.3926
C3 C 0.8174(8) 0.5521(7) 0.4369(13)
H3 H 0.8798 0.5035 0.4346
C4 C 0.8549(8) 0.6486(7) 0.4644(15)
H4 H 0.9426 0.6655 0.4806
C5 C 0.7619(8) 0.7220(6) 0.4684(13)
H5 H 0.7873 0.7877 0.4869
C6 C 0.6316(7) 0.6964(5) 0.4446(10)
C7 C 0.5318(7) 0.7718(5) 0.4573(11)
C8 C 0.2281(7) 0.7967(6) 0.5484(12)
C9 C 0.1400(7) 0.8853(5) 0.5518(12)
Cl1 Cl 0.56785(18) 0.89290(13) 0.4205(3)
F1 F 0.0587(7) 0.8703(5) 0.6600(11)
F2 F 0.0628(9) 0.8964(7) 0.3837(14)
F3 F 0.2003(8) 0.9661(6) 0.5976(12)
N1 N 0.4251(6) 0.7433(4) 0.4982(10)
O1 O 0.3398(5) 0.8257(4) 0.5029(8)
O2 O 0.1966(5) 0.7146(4) 0.5810(10)
loop_
_geom_bond_atom_site_label_1
_geom_bond_atom_site_label_2
_geom_bond_site_symmetry_1
_geom_bond_site_symmetry_2
C1 H1 1_555 1_555
C2 C1 1_555 1_555
H2 C2 1_555 1_555
C3 C2 1_555 1_555
H3 C3 1_555 1_555
C4 C3 1_555 1_555
H4 C4 1_555 1_555
C5 C4 1_555 1_555
H5 C5 1_555 1_555
C6 C1 1_555 1_555
C7 C6 1_555 1_555
C8 C9 1_555 1_555
C9 F1 1_555 1_555
Cl1 C7 1_555 1_555
F2 C9 1_555 1_555
F3 C9 1_555 1_555
N1 C7 1_555 1_555
O1 C8 1_555 1_555
O2 C8 1_555 1_555
C5 C6 1_555 1_555
N1 O1 1_555 1_555

#END
