
#######################################################################
#
#                 Cambridge Crystallographic Data Centre
#                                CCDC 
#
#######################################################################
#
# If this CIF has been generated from an entry in the Cambridge 
# Structural Database, then it will include bibliographic, chemical, 
# crystal, experimental, refinement or atomic coordinate data resulting 
# from the CCDC's data processing and validation procedures.
#
#######################################################################

data_BIWJAV
_chemical_formula_moiety         'C19 H12 N2'
_chemical_name_systematic        9-phenyl-9H-carbazole-3-carbonitrile
_symmetry_cell_setting           monoclinic
_symmetry_space_group_name_H-M   'C 2/c'
_symmetry_Int_Tables_number      15
_space_group_name_Hall           '-C 2yn'
loop_
_symmetry_equiv_pos_site_id
_symmetry_equiv_pos_as_xyz
1 x,y,z
2 -x,y,1/2-z
3 1/2+x,1/2+y,z
4 1/2-x,1/2+y,1/2-z
5 -x,-y,-z
6 x,-y,1/2+z
7 1/2-x,1/2-y,-z
8 1/2+x,1/2-y,1/2+z
_cell_length_a                   13.7052(16)
_cell_length_b                   10.6020(12)
_cell_length_c                   18.854(2)
_cell_angle_alpha                90
_cell_angle_beta                 91.917(2)
_cell_angle_gamma                90
_cell_volume                     2738
_exptl_crystal_colour            colorless
_exptl_crystal_description       block
_cell_formula_units_Z            8
loop_
_atom_site_label
_atom_site_type_symbol
_atom_site_fract_x
_atom_site_fract_y
_atom_site_fract_z
C1 C -0.05964(9) 1.25439(12) 0.04115(6)
C2 C -0.10158(9) 1.13504(12) 0.04372(7)
H1 H -0.1614 1.1190 0.0207
C3 C -0.05299(9) 1.04089(11) 0.08096(6)
C4 C -0.07266(9) 0.90864(12) 0.09349(7)
C5 C -0.14945(10) 0.82858(14) 0.07405(7)
H2 H -0.2030 0.8583 0.0474
C6 C -0.14429(12) 0.70478(14) 0.09505(9)
H3 H -0.1947 0.6499 0.0819
C7 C -0.06524(12) 0.66001(14) 0.13551(9)
H4 H -0.0639 0.5756 0.1489
C8 C 0.01139(11) 0.73738(13) 0.15643(8)
H5 H 0.0638 0.7074 0.1841
C9 C 0.00659(9) 0.86190(11) 0.13418(7)
C10 C 0.03769(9) 1.06796(11) 0.11550(6)
C11 C 0.07975(10) 1.18734(12) 0.11297(7)
H6 H 0.1394 1.2040 0.1361
C12 C 0.03058(10) 1.27963(12) 0.07535(7)
H7 H 0.0575 1.3599 0.0725
C13 C -0.11012(10) 1.35343(13) 0.00294(8)
C14 C 0.16327(10) 0.94893(12) 0.18780(7)
C15 C 0.17611(12) 1.01646(14) 0.24977(8)
H8 H 0.1265 1.0681 0.2656
C16 C 0.26317(13) 1.00693(17) 0.28816(8)
H9 H 0.2724 1.0527 0.3299
C17 C 0.33634(13) 0.93037(17) 0.26510(9)
H10 H 0.3952 0.9249 0.2910
C18 C 0.32256(12) 0.86178(15) 0.20376(9)
H11 H 0.3718 0.8089 0.1885
C19 C 0.23633(11) 0.87101(13) 0.16483(8)
H12 H 0.2273 0.8249 0.1232
N1 N 0.07337(8) 0.95929(10) 0.14757(6)
N2 N -0.15149(11) 1.43160(13) -0.02692(8)
loop_
_geom_bond_atom_site_label_1
_geom_bond_atom_site_label_2
_geom_bond_site_symmetry_1
_geom_bond_site_symmetry_2
C1 C2 1_555 1_555
C2 H1 1_555 1_555
C3 C2 1_555 1_555
C4 C3 1_555 1_555
C5 C4 1_555 1_555
H2 C5 1_555 1_555
C6 C5 1_555 1_555
H3 C6 1_555 1_555
C7 C6 1_555 1_555
H4 C7 1_555 1_555
C8 C7 1_555 1_555
H5 C8 1_555 1_555
C9 C4 1_555 1_555
C10 C3 1_555 1_555
C11 C10 1_555 1_555
H6 C11 1_555 1_555
C12 C1 1_555 1_555
H7 C12 1_555 1_555
C13 C1 1_555 1_555
C14 C15 1_555 1_555
C15 H8 1_555 1_555
C16 C15 1_555 1_555
H9 C16 1_555 1_555
C17 C16 1_555 1_555
H10 C17 1_555 1_555
C18 C17 1_555 1_555
H11 C18 1_555 1_555
C19 C14 1_555 1_555
H12 C19 1_555 1_555
N1 C9 1_555 1_555
N2 C13 1_555 1_555
C8 C9 1_555 1_555
C10 N1 1_555 1_555
C11 C12 1_555 1_555
C14 N1 1_555 1_555
C18 C19 1_555 1_555

#END
