
#######################################################################
#
#                 Cambridge Crystallographic Data Centre
#                                CCDC 
#
#######################################################################
#
# If this CIF has been generated from an entry in the Cambridge 
# Structural Database, then it will include bibliographic, chemical, 
# crystal, experimental, refinement or atomic coordinate data resulting 
# from the CCDC's data processing and validation procedures.
#
#######################################################################

data_BIXBIT11
_chemical_formula_moiety         'C10 H12 Se4 1+,C10 H12 Se4,B1 F4 1-'
_chemical_name_systematic        
'bis(Tetramethyl-tetraselenafulvalenium) tetrafluoroborate'
_symmetry_cell_setting           triclinic
_symmetry_space_group_name_H-M   'P -1'
_symmetry_Int_Tables_number      2
_space_group_name_Hall           '-P 1'
loop_
_symmetry_equiv_pos_site_id
_symmetry_equiv_pos_as_xyz
1 x,y,z
2 -x,-y,-z
_cell_length_a                   7.123(1)
_cell_length_b                   7.637(1)
_cell_length_c                   13.131(2)
_cell_angle_alpha                85.38(1)
_cell_angle_beta                 87.67(1)
_cell_angle_gamma                69.54(1)
_cell_volume                     667.01
_cell_formula_units_Z            1
loop_
_atom_site_label
_atom_site_type_symbol
_atom_site_fract_x
_atom_site_fract_y
_atom_site_fract_z
B1 B 0.5000 0.0000 0.0000
F1 F 0.6977(13) -0.1200(11) -0.0330(6)
F2 F 0.5352(14) 0.1384(11) 0.0477(6)
F1A F 0.3023(13) 0.1200(11) 0.0330(6)
F2A F 0.4648(14) -0.1384(11) -0.0477(6)
Se1 Se 0.80310(8) 0.34274(7) 0.61703(4)
Se2 Se 0.65841(8) 0.75407(7) 0.51339(4)
Se3 Se 0.72492(8) 0.57901(7) 0.27818(4)
Se4 Se 0.87974(8) 0.16638(7) 0.38260(4)
C1 C 0.7525(8) 0.4954(7) 0.4951(4)
C2 C 0.7240(8) 0.5479(7) 0.7024(4)
C3 C 0.6620(8) 0.7227(7) 0.6569(4)
C4 C 0.7387(10) 0.4885(10) 0.8129(5)
C5 C 0.5911(10) 0.9011(9) 0.7064(5)
C6 C 0.7816(8) 0.4254(7) 0.4004(4)
C7 C 0.8100(8) 0.3737(7) 0.1941(4)
C8 C 0.8749(8) 0.2003(8) 0.2379(4)
C9 C 0.7955(10) 0.4237(9) 0.0808(4)
C10 C 0.9506(10) 0.0240(8) 0.1828(5)
loop_
_geom_bond_atom_site_label_1
_geom_bond_atom_site_label_2
_geom_bond_site_symmetry_1
_geom_bond_site_symmetry_2
Se1 C1 1_555 1_555
Se2 C1 1_555 1_555
Se3 C6 1_555 1_555
Se4 C6 1_555 1_555
C1 C6 1_555 1_555
C2 Se1 1_555 1_555
C3 Se2 1_555 1_555
C4 C2 1_555 1_555
C5 C3 1_555 1_555
C7 Se3 1_555 1_555
C8 Se4 1_555 1_555
C9 C7 1_555 1_555
C10 C8 1_555 1_555
B1 F1 1_555 1_555
F2 B1 1_555 1_555
F1A B1 1_555 1_555
F2A B1 1_555 1_555
C2 C3 1_555 1_555
C7 C8 1_555 1_555

#END
