
#######################################################################
#
#                 Cambridge Crystallographic Data Centre
#                                CCDC 
#
#######################################################################
#
# If this CIF has been generated from an entry in the Cambridge 
# Structural Database, then it will include bibliographic, chemical, 
# crystal, experimental, refinement or atomic coordinate data resulting 
# from the CCDC's data processing and validation procedures.
#
#######################################################################

data_BIXGIY07
_chemical_name_common            'DrugBank: DB09218'
_chemical_formula_moiety         'C13 H11 Cl1 N2 O2'
_chemical_name_systematic        '2-(2-Methyl-3-chloroanilino)nicotinic acid'
_chemical_properties_biological  'analgesic and antiinflammatory agent'
_symmetry_cell_setting           monoclinic
_symmetry_space_group_name_H-M   'P 21/c'
_symmetry_Int_Tables_number      14
_space_group_name_Hall           '-P 2ybc'
loop_
_symmetry_equiv_pos_site_id
_symmetry_equiv_pos_as_xyz
1 x,y,z
2 -x,1/2+y,1/2-z
3 -x,-y,-z
4 x,1/2-y,1/2+z
_cell_length_a                   7.4792(1)
_cell_length_b                   14.1615(3)
_cell_length_c                   11.5824(2)
_cell_angle_alpha                90
_cell_angle_beta                 101.5499(8)
_cell_angle_gamma                90
_cell_volume                     1201.93
_exptl_crystal_colour            colorless
_exptl_crystal_description       block
_cell_formula_units_Z            4
loop_
_atom_site_label
_atom_site_type_symbol
_atom_site_fract_x
_atom_site_fract_y
_atom_site_fract_z
N1 N 0.5157(3) 0.42048(14) 0.20825(15)
C1 C 0.5476(2) 0.50744(14) 0.25612(17)
C2 C 0.4499(5) 0.5881(2) 0.2021(5)
C3 C 0.3195(4) 0.5748(2) 0.0999(4)
H1 H 0.251019 0.627099 0.063260
C4 C 0.2889(10) 0.4854(3) 0.0511(7)
H2 H 0.200375 0.475354 -0.018983
C5 C 0.3908(7) 0.4115(3) 0.1074(7)
H3 H 0.371726 0.350549 0.073008
C6 C 0.4831(8) 0.6829(2) 0.2562(5)
O1 O 0.3852(6) 0.7506(2) 0.1954(3)
H4 H 0.410710 0.802507 0.229831
O2 O 0.5893(3) 0.69709(14) 0.34936(14)
N2 N 0.6753(2) 0.51622(11) 0.35667(14)
H5 H 0.692052 0.572792 0.388450
C7 C 0.7849(2) 0.44118(13) 0.41516(16)
C8 C 0.9192(3) 0.39934(14) 0.36355(16)
C9 C 1.0177(3) 0.32548(15) 0.42663(17)
C10 C 0.9937(3) 0.29689(14) 0.53671(17)
H6 H 1.064459 0.246801 0.577065
C11 C 0.8648(3) 0.34262(15) 0.58684(18)
H7 H 0.848815 0.325384 0.663395
C12 C 0.7589(3) 0.41362(18) 0.5254(2)
H8 H 0.667751 0.443590 0.559002
C13 C 0.9552(3) 0.43196(18) 0.24698(19)
H9 H 0.886888 0.392310 0.183913
H10 H 1.086013 0.427039 0.247302
H11 H 0.916244 0.497804 0.233628
Cl1 Cl 1.17685(8) 0.26439(5) 0.36368(5)
N3? N 0.525(7) 0.423(2) 0.182(4)
C14? C 0.566(4) 0.512(2) 0.222(3)
C15? C 0.430(9) 0.585(3) 0.199(9)
C16? C 0.291(10) 0.572(4) 0.101(8)
H12? H 0.212057 0.623145 0.071366
C17? C 0.27(2) 0.485(6) 0.046(13)
H13? H 0.185135 0.476165 -0.027608
C18? C 0.369(14) 0.411(4) 0.102(13)
H14? H 0.326578 0.348012 0.083923
C19? C 0.473(13) 0.682(3) 0.246(10)
O3? O 0.369(12) 0.744(4) 0.177(7)
H15? H 0.265521 0.746178 0.193777
O4? O 0.610(6) 0.703(3) 0.318(3)
N4? N 0.727(3) 0.5255(16) 0.297(2)
H16? H 0.758546 0.583511 0.319710
C20? C 0.851(3) 0.4501(16) 0.3428(19)
C21? C 0.843(3) 0.4062(15) 0.4477(18)
C22? C 0.973(3) 0.3327(16) 0.4821(18)
C23? C 1.097(3) 0.3075(18) 0.416(2)
H17? H 1.180917 0.258061 0.443036
C24? C 1.103(4) 0.352(2) 0.311(2)
H18? H 1.189534 0.335083 0.265052
C25? C 0.977(4) 0.424(2) 0.276(2)
H19? H 0.977072 0.456340 0.204495
C26? C 0.719(7) 0.434(4) 0.529(4)
H20? H 0.739147 0.392029 0.597511
H21? H 0.745373 0.499371 0.555301
H22? H 0.591651 0.429388 0.487355
Cl2? Cl 0.9647(15) 0.2774(9) 0.6147(9)
loop_
_geom_bond_atom_site_label_1
_geom_bond_atom_site_label_2
_geom_bond_site_symmetry_1
_geom_bond_site_symmetry_2
N1 C1 1_555 1_555
C1 C2 1_555 1_555
C2 C3 1_555 1_555
C3 H1 1_555 1_555
C4 C3 1_555 1_555
H2 C4 1_555 1_555
C5 N1 1_555 1_555
H3 C5 1_555 1_555
C6 C2 1_555 1_555
O1 C6 1_555 1_555
H4 O1 1_555 1_555
O2 C6 1_555 1_555
N2 C1 1_555 1_555
H5 N2 1_555 1_555
C7 N2 1_555 1_555
C8 C7 1_555 1_555
C9 C8 1_555 1_555
C10 C9 1_555 1_555
H6 C10 1_555 1_555
C11 C10 1_555 1_555
H7 C11 1_555 1_555
C12 C7 1_555 1_555
H8 C12 1_555 1_555
C13 C8 1_555 1_555
H9 C13 1_555 1_555
H10 C13 1_555 1_555
H11 C13 1_555 1_555
Cl1 C9 1_555 1_555
C4 C5 1_555 1_555
C11 C12 1_555 1_555

#END
