
#######################################################################
#
#                 Cambridge Crystallographic Data Centre
#                                CCDC 
#
#######################################################################
#
# If this CIF has been generated from an entry in the Cambridge 
# Structural Database, then it will include bibliographic, chemical, 
# crystal, experimental, refinement or atomic coordinate data resulting 
# from the CCDC's data processing and validation procedures.
#
#######################################################################

data_BIXGIY05
_chemical_name_common            'DrugBank: DB09218'
_chemical_formula_moiety         'C13 H11 Cl1 N2 O2'
_chemical_name_systematic        '2-(2-Methyl-3-chloroanilino)nicotinic acid'
_chemical_properties_biological  'analgesic and antiinflammatory agent'
_symmetry_cell_setting           triclinic
_symmetry_space_group_name_H-M   'P -1'
_symmetry_Int_Tables_number      2
_space_group_name_Hall           '-P 1'
loop_
_symmetry_equiv_pos_site_id
_symmetry_equiv_pos_as_xyz
1 x,y,z
2 -x,-y,-z
_cell_length_a                   7.1074(2)
_cell_length_b                   7.6026(2)
_cell_length_c                   10.7885(3)
_cell_angle_alpha                78.5665(10)
_cell_angle_beta                 80.1915(11)
_cell_angle_gamma                87.9426(11)
_cell_volume                     563.032
_exptl_crystal_colour            colorless
_exptl_crystal_description       block
_cell_formula_units_Z            2
loop_
_atom_site_label
_atom_site_type_symbol
_atom_site_fract_x
_atom_site_fract_y
_atom_site_fract_z
C1 C 0.2773(3) 0.5136(3) 0.40680(19)
C2 C 0.2313(3) 0.6886(3) 0.34012(19)
C3 C 0.2681(3) 0.7220(3) 0.20711(19)
H1 H 0.242615 0.837373 0.160169
C4 C 0.3413(3) 0.5890(3) 0.1429(2)
H2 H 0.367352 0.610459 0.051832
C5 C 0.3756(3) 0.4233(3) 0.21505(19)
H3 H 0.421950 0.330282 0.170575
C6 C 0.1445(3) 0.8294(3) 0.40781(19)
C7 C 0.2738(3) 0.3216(3) 0.62827(18)
C8 C 0.2202(3) 0.3375(3) 0.75787(19)
C9 C 0.2379(3) 0.1841(3) 0.8501(2)
C10 C 0.3082(3) 0.0229(3) 0.8198(2)
H4 H 0.319754 -0.078616 0.885511
C11 C 0.3613(3) 0.0127(3) 0.6922(2)
H5 H 0.410143 -0.097019 0.670115
C12 C 0.3444(3) 0.1599(3) 0.5959(2)
H6 H 0.380479 0.150957 0.508395
C13 C 0.1483(3) 0.5134(3) 0.7934(2)
H7 H 0.125446 0.500354 0.886971
H8 H 0.028935 0.546814 0.760707
H9 H 0.244028 0.606955 0.755662
N1 N 0.3482(2) 0.3848(2) 0.34320(16)
N2 N 0.2471(2) 0.4779(2) 0.53788(16)
H10 H 0.202687 0.569879 0.572351
O1 O 0.0952(2) 0.80509(18) 0.52556(13)
O2 O 0.1190(2) 0.98455(18) 0.33274(14)
H11 H 0.056(3) 1.053(3) 0.381(2)
Cl1 Cl 0.17004(8) 0.18849(7) 1.01300(5)
loop_
_geom_bond_atom_site_label_1
_geom_bond_atom_site_label_2
_geom_bond_site_symmetry_1
_geom_bond_site_symmetry_2
C1 C2 1_555 1_555
C2 C3 1_555 1_555
C3 H1 1_555 1_555
C4 C3 1_555 1_555
H2 C4 1_555 1_555
C5 C4 1_555 1_555
H3 C5 1_555 1_555
C6 C2 1_555 1_555
C7 C8 1_555 1_555
C8 C9 1_555 1_555
C9 C10 1_555 1_555
C10 H4 1_555 1_555
C11 C10 1_555 1_555
H5 C11 1_555 1_555
C12 C7 1_555 1_555
H6 C12 1_555 1_555
C13 C8 1_555 1_555
H7 C13 1_555 1_555
H8 C13 1_555 1_555
H9 C13 1_555 1_555
N1 C1 1_555 1_555
N2 C1 1_555 1_555
H10 N2 1_555 1_555
O1 C6 1_555 1_555
O2 C6 1_555 1_555
H11 O2 1_555 1_555
Cl1 C9 1_555 1_555
C5 N1 1_555 1_555
C7 N2 1_555 1_555
C11 C12 1_555 1_555

#END
