
#######################################################################
#
#                 Cambridge Crystallographic Data Centre
#                                CCDC 
#
#######################################################################
#
# If this CIF has been generated from an entry in the Cambridge 
# Structural Database, then it will include bibliographic, chemical, 
# crystal, experimental, refinement or atomic coordinate data resulting 
# from the CCDC's data processing and validation procedures.
#
#######################################################################

data_BIXGIB
_chemical_formula_moiety         'C33 H26 Br1 N3 O5,C7 H8'
_chemical_name_systematic        
'ethyl 1-(4-bromophenyl)-2-(4-methoxyphenyl)-3,5-dioxo-6-phenyl-2,3,5,6-tetrahydro-1H-pyrimido[1,6-a]quinoxaline-4-carboxylate toluene solvate'
_symmetry_cell_setting           triclinic
_symmetry_space_group_name_H-M   'P -1'
_symmetry_Int_Tables_number      2
_space_group_name_Hall           '-P 1'
loop_
_symmetry_equiv_pos_site_id
_symmetry_equiv_pos_as_xyz
1 x,y,z
2 -x,-y,-z
_cell_length_a                   10.534(2)
_cell_length_b                   11.3633(14)
_cell_length_c                   15.2530(17)
_cell_angle_alpha                74.566(10)
_cell_angle_beta                 87.497(13)
_cell_angle_gamma                77.768(14)
_cell_volume                     1719.85
_exptl_crystal_colour            yellow
_exptl_crystal_description       prism
_cell_formula_units_Z            2
_exptl_crystal_recrystallization_method 
'Re-crystallisation from solvent: toluene'
loop_
_atom_site_label
_atom_site_type_symbol
_atom_site_fract_x
_atom_site_fract_y
_atom_site_fract_z
Br1 Br 0.12197(5) 0.25447(6) 0.07831(4)
O1 O 0.6949(2) 0.2032(2) 0.51636(17)
O2 O 0.2472(3) 0.4643(2) 0.52495(18)
O3 O -0.1401(4) 0.8756(4) 0.2360(3)
O4 O 0.4870(3) 0.2906(2) 0.64285(17)
O5 O 0.4413(3) 0.1596(2) 0.56837(17)
N1 N 0.7744(3) 0.3001(3) 0.38283(19)
N2 N 0.5272(3) 0.4438(2) 0.33335(19)
N3 N 0.3106(3) 0.5295(3) 0.37904(19)
C1 C 0.7556(3) 0.3918(3) 0.2990(2)
C2 C 0.8584(4) 0.4120(4) 0.2415(3)
H1 H 0.941510 0.365639 0.259008
C3 C 0.8399(4) 0.4987(4) 0.1597(3)
H2 H 0.910352 0.512924 0.122384
C4 C 0.7162(4) 0.5657(4) 0.1322(3)
H3 H 0.702800 0.622576 0.075245
C5 C 0.6133(4) 0.5482(4) 0.1889(3)
H4 H 0.530648 0.594801 0.170315
C6 C 0.6299(3) 0.4623(3) 0.2736(2)
C7 C 0.5466(3) 0.3643(3) 0.4191(2)
C8 C 0.6776(3) 0.2823(3) 0.4437(2)
C9 C 0.4503(3) 0.3604(3) 0.4822(2)
C10 C 0.3277(3) 0.4534(3) 0.4650(3)
C11 C 0.3945(3) 0.5089(3) 0.3026(2)
H5 H 0.400173 0.591321 0.263334
C12 C 0.3328(3) 0.4436(3) 0.2461(2)
C13 C 0.3162(4) 0.3229(4) 0.2816(3)
H6 H 0.347035 0.279071 0.339892
C14 C 0.2544(4) 0.2669(4) 0.2313(3)
H7 H 0.243789 0.185304 0.255146
C15 C 0.2086(4) 0.3330(4) 0.1454(3)
C16 C 0.2221(4) 0.4517(5) 0.1091(3)
H8 H 0.190346 0.495007 0.050960
C17 C 0.2842(4) 0.5083(4) 0.1600(3)
H9 H 0.293221 0.590340 0.135858
C18 C 0.1898(3) 0.6178(3) 0.3494(2)
C19 C 0.0751(4) 0.5787(4) 0.3501(3)
H10 H 0.072984 0.495048 0.375409
C20 C -0.0382(4) 0.6625(5) 0.3137(3)
H11 H -0.116229 0.636012 0.315156
C21 C -0.0325(4) 0.7850(4) 0.2754(3)
C22 C 0.0801(4) 0.8253(4) 0.2758(3)
H12 H 0.081478 0.909108 0.250453
C23 C 0.1938(4) 0.7423(3) 0.3138(3)
H13 H 0.270400 0.770105 0.315161
C24 C -0.2263(8) 0.8464(8) 0.1893(6)
H14 H -0.182592 0.808389 0.144020
H15 H -0.287700 0.920618 0.160148
H16 H -0.271155 0.788931 0.229792
C25 C 0.4647(3) 0.2696(3) 0.5732(3)
C26 C 0.4707(5) 0.0584(4) 0.6499(3)
H17 H 0.435746 0.086675 0.702375
H18 H 0.564060 0.030747 0.658133
C27 C 0.4137(6) -0.0450(5) 0.6423(4)
H19 H 0.451347 -0.074997 0.591799
H20 H 0.321604 -0.016681 0.632687
H21 H 0.430787 -0.111151 0.697234
C28 C 0.9054(3) 0.2290(3) 0.4091(2)
C29 C 0.9788(4) 0.2710(4) 0.4621(3)
H22 H 0.943504 0.340936 0.482675
C30 C 1.1058(4) 0.2080(4) 0.4847(3)
H23 H 1.156965 0.236483 0.519347
C31 C 1.1557(4) 0.1026(4) 0.4553(3)
H24 H 1.240868 0.060111 0.470254
C32 C 1.0806(4) 0.0604(4) 0.4043(3)
H25 H 1.114336 -0.011762 0.386138
C33 C 0.9551(4) 0.1243(3) 0.3797(3)
H26 H 0.904836 0.096868 0.343767
C41 C 0.243(2) 0.866(2) 0.0470(14)
H35 H 0.193287 0.903020 0.088523
C42 C 0.185(2) 0.826(3) -0.0107(18)
H36 H 0.095866 0.830955 -0.007897
C43 C 0.261(3) 0.772(3) -0.080(2)
H37 H 0.223666 0.751816 -0.126615
C44 C 0.380(3) 0.756(4) -0.070(2)
H38 H 0.429649 0.708470 -0.104605
C45 C 0.447(2) 0.797(3) -0.017(2)
H39 H 0.537102 0.786700 -0.021806
C46 C 0.380(2) 0.855(4) 0.046(2)
C47 C 0.447(3) 0.895(3) 0.1059(18)
H40 H 0.419280 0.983655 0.096269
H41 H 0.538865 0.875306 0.094860
H42 H 0.430344 0.853740 0.167489
C34? C 0.228(2) 0.864(3) 0.006(3)
H27? H 0.150687 0.910919 0.021928
C35? C 0.225(3) 0.798(4) -0.053(3)
H28? H 0.146472 0.783455 -0.068316
C36? C 0.348(4) 0.748(4) -0.095(3)
H29? H 0.351821 0.704462 -0.138697
C37? C 0.445(3) 0.770(4) -0.064(2)
H30? H 0.522602 0.743406 -0.091687
C38? C 0.459(2) 0.824(4) 0.001(3)
H31? H 0.540080 0.833677 0.016078
C39? C 0.346(3) 0.866(6) 0.046(3)
C40? C 0.356(4) 0.925(3) 0.113(2)
H32? H 0.270227 0.955681 0.133190
H33? H 0.398157 0.993632 0.089716
H34? H 0.405150 0.866796 0.163911
loop_
_geom_bond_atom_site_label_1
_geom_bond_atom_site_label_2
_geom_bond_site_symmetry_1
_geom_bond_site_symmetry_2
Br1 C15 1_555 1_555
O1 C8 1_555 1_555
O2 C10 1_555 1_555
O3 C21 1_555 1_555
O4 C25 1_555 1_555
O5 C25 1_555 1_555
N1 C1 1_555 1_555
N2 C6 1_555 1_555
N3 C10 1_555 1_555
C1 C2 1_555 1_555
C2 H1 1_555 1_555
C3 C2 1_555 1_555
H2 C3 1_555 1_555
C4 C3 1_555 1_555
H3 C4 1_555 1_555
C5 C4 1_555 1_555
H4 C5 1_555 1_555
C6 C1 1_555 1_555
C7 N2 1_555 1_555
C8 N1 1_555 1_555
C9 C7 1_555 1_555
C10 C9 1_555 1_555
C11 N2 1_555 1_555
H5 C11 1_555 1_555
C12 C11 1_555 1_555
C13 C12 1_555 1_555
H6 C13 1_555 1_555
C14 C13 1_555 1_555
H7 C14 1_555 1_555
C15 C14 1_555 1_555
C16 C15 1_555 1_555
H8 C16 1_555 1_555
C17 C12 1_555 1_555
H9 C17 1_555 1_555
C18 N3 1_555 1_555
C19 C18 1_555 1_555
H10 C19 1_555 1_555
C20 C19 1_555 1_555
H11 C20 1_555 1_555
C21 C20 1_555 1_555
C22 C21 1_555 1_555
H12 C22 1_555 1_555
C23 C18 1_555 1_555
H13 C23 1_555 1_555
C24 O3 1_555 1_555
H14 C24 1_555 1_555
H15 C24 1_555 1_555
H16 C24 1_555 1_555
C25 C9 1_555 1_555
C26 O5 1_555 1_555
H17 C26 1_555 1_555
H18 C26 1_555 1_555
C27 C26 1_555 1_555
H19 C27 1_555 1_555
H20 C27 1_555 1_555
H21 C27 1_555 1_555
C28 N1 1_555 1_555
C29 C28 1_555 1_555
H22 C29 1_555 1_555
C30 C29 1_555 1_555
H23 C30 1_555 1_555
C31 C30 1_555 1_555
H24 C31 1_555 1_555
C32 C31 1_555 1_555
H25 C32 1_555 1_555
C33 C28 1_555 1_555
H26 C33 1_555 1_555
C41 H35 1_555 1_555
C42 C41 1_555 1_555
H36 C42 1_555 1_555
C43 C42 1_555 1_555
H37 C43 1_555 1_555
C44 C43 1_555 1_555
H38 C44 1_555 1_555
C45 C44 1_555 1_555
H39 C45 1_555 1_555
C46 C41 1_555 1_555
C47 C46 1_555 1_555
H40 C47 1_555 1_555
H41 C47 1_555 1_555
H42 C47 1_555 1_555
N3 C11 1_555 1_555
C5 C6 1_555 1_555
C7 C8 1_555 1_555
C16 C17 1_555 1_555
C22 C23 1_555 1_555
C32 C33 1_555 1_555
C45 C46 1_555 1_555

#END
