
#######################################################################
#
#                 Cambridge Crystallographic Data Centre
#                                CCDC 
#
#######################################################################
#
# If this CIF has been generated from an entry in the Cambridge 
# Structural Database, then it will include bibliographic, chemical, 
# crystal, experimental, refinement or atomic coordinate data resulting 
# from the CCDC's data processing and validation procedures.
#
#######################################################################

data_BIXGEX
_chemical_formula_moiety         'C37 H25 Br1 N4 O5,C7 H8'
_chemical_name_systematic        
'2-benzyl-1-(4-bromophenyl)-4-(4-nitrobenzene-1-carbonyl)-6-phenyl-1H-pyrimido[1,6-a]quinoxaline-3,5(2H,6H)-dione toluene solvate'
_symmetry_cell_setting           monoclinic
_symmetry_space_group_name_H-M   'P 21/c'
_symmetry_Int_Tables_number      14
_space_group_name_Hall           '-P 2ybc'
loop_
_symmetry_equiv_pos_site_id
_symmetry_equiv_pos_as_xyz
1 x,y,z
2 -x,1/2+y,1/2-z
3 -x,-y,-z
4 x,1/2-y,1/2+z
_cell_length_a                   8.968(2)
_cell_length_b                   28.983(7)
_cell_length_c                   14.708(4)
_cell_angle_alpha                90
_cell_angle_beta                 103.63(3)
_cell_angle_gamma                90
_cell_volume                     3715.24
_exptl_crystal_colour            yellow
_exptl_crystal_description       plate
_cell_formula_units_Z            4
loop_
_atom_site_label
_atom_site_type_symbol
_atom_site_fract_x
_atom_site_fract_y
_atom_site_fract_z
Br1 Br 0.95504(6) 0.44592(2) 0.04147(4)
C1 C 0.8522(4) 0.19795(12) 0.2251(2)
C2 C 0.9648(4) 0.16847(13) 0.2744(3)
H1 H 1.003935 0.145179 0.243252
C3 C 1.0180(4) 0.17388(15) 0.3694(3)
H2 H 1.092890 0.154022 0.402502
C4 C 0.9616(4) 0.20829(14) 0.4157(3)
H3 H 1.000356 0.212103 0.479706
C5 C 0.8483(4) 0.23717(13) 0.3685(2)
H4 H 0.809992 0.260224 0.400663
C6 C 0.7905(3) 0.23208(12) 0.2726(2)
C7 C 0.6043(3) 0.25153(11) 0.1298(2)
C8 C 0.6769(4) 0.21811(12) 0.0774(2)
C9 C 0.4770(3) 0.27512(12) 0.0861(2)
C10 C 0.3920(4) 0.30216(13) 0.1415(2)
C11 C 0.6368(3) 0.30649(12) 0.2536(2)
H5 H 0.674130 0.308431 0.321689
C12 C 0.7213(4) 0.34246(12) 0.2075(2)
C13 C 0.8585(4) 0.33141(13) 0.1835(3)
H6 H 0.903006 0.302717 0.200166
C14 C 0.9294(4) 0.36192(14) 0.1357(3)
H7 H 1.018742 0.353578 0.118137
C15 C 0.8665(4) 0.40488(14) 0.1145(3)
C16 C 0.7362(5) 0.41752(14) 0.1419(3)
H8 H 0.695873 0.447006 0.129039
C17 C 0.6662(5) 0.38656(13) 0.1883(3)
H9 H 0.578822 0.395552 0.207483
C18 C 0.3876(4) 0.32590(13) 0.3008(2)
H10 H 0.438587 0.311480 0.359449
H11 H 0.285221 0.312940 0.282461
C19 C 0.3729(4) 0.37696(13) 0.3184(2)
C20 C 0.3016(4) 0.40723(15) 0.2495(3)
H12 H 0.265627 0.396713 0.188513
C21 C 0.2832(5) 0.45332(17) 0.2704(4)
H13 H 0.235735 0.473463 0.223169
C22 C 0.3340(6) 0.46929(18) 0.3595(4)
H14 H 0.321379 0.500135 0.373460
C23 C 0.4031(6) 0.43960(19) 0.4274(4)
H15 H 0.438255 0.450206 0.488369
C24 C 0.4223(5) 0.39374(16) 0.4074(3)
H16 H 0.469567 0.373901 0.455193
C25 C 0.4005(4) 0.26943(13) -0.0158(2)
C26 C 0.4492(4) 0.30031(13) -0.0852(2)
C27 C 0.3702(4) 0.29914(15) -0.1777(2)
H17 H 0.288223 0.278920 -0.196372
C28 C 0.4112(5) 0.32754(17) -0.2430(3)
H18 H 0.357239 0.326839 -0.305238
C29 C 0.5335(5) 0.35693(16) -0.2140(3)
C30 C 0.6150(5) 0.35936(15) -0.1233(3)
H19 H 0.696622 0.379771 -0.105263
C31 C 0.5720(4) 0.33038(14) -0.0588(3)
H20 H 0.626668 0.331151 0.003288
C32 C 0.8806(4) 0.16479(13) 0.0727(3)
C33 C 0.8189(5) 0.12369(15) 0.0381(3)
H21 H 0.730118 0.112856 0.053161
C34 C 0.8892(6) 0.09794(18) -0.0199(4)
H22 H 0.846993 0.070086 -0.044952
C35 C 1.0225(6) 0.1144(2) -0.0397(4)
H23 H 1.070268 0.097495 -0.078559
C36 C 1.0845(5) 0.15501(19) -0.0031(4)
H24 H 1.176083 0.165190 -0.015539
C37 C 1.0131(4) 0.18132(15) 0.0523(3)
H25 H 1.053588 0.209669 0.075532
N1 N 0.8002(3) 0.19391(10) 0.12635(19)
N2 N 0.6725(3) 0.26021(10) 0.22188(18)
N3 N 0.4715(3) 0.31299(10) 0.22935(18)
N4 N 0.5782(6) 0.38732(17) -0.2842(3)
O1 O 0.6316(3) 0.21450(9) -0.00741(16)
O2 O 0.2561(3) 0.31215(10) 0.11255(18)
O3 O 0.2937(3) 0.24317(10) -0.03976(18)
O4 O 0.6829(5) 0.41426(14) -0.2585(3)
O5 O 0.5076(5) 0.38367(16) -0.3652(3)
C38 C 0.6551(15) 0.5576(7) 0.0431(10)
H26 H 0.678793 0.588923 0.030403
H27 H 0.545833 0.553472 0.027807
H28 H 0.700280 0.537070 0.005958
C39 C 0.7150(9) 0.5478(3) 0.1396(5)
C40 C 0.6151(6) 0.5331(3) 0.1929(6)
H29 H 0.511015 0.529854 0.165376
C41 C 0.6706(9) 0.5230(3) 0.2872(6)
H30 H 0.603761 0.513146 0.322840
C42 C 0.8261(10) 0.5278(4) 0.3283(5)
H31 H 0.863313 0.521132 0.391390
C43 C 0.9261(7) 0.5426(3) 0.2750(6)
H32 H 1.030120 0.545825 0.302478
C44 C 0.8705(8) 0.5526(3) 0.1807(6)
H33 H 0.937377 0.562533 0.145014
C45? C 0.882(5) 0.5219(19) 0.334(2)
H34? H 0.819706 0.508558 0.372021
H35? H 0.932063 0.549009 0.364210
H36? H 0.957834 0.499941 0.325744
C46? C 0.636(3) 0.5182(7) 0.2355(13)
H37? H 0.612414 0.503736 0.286725
C47? C 0.784(2) 0.5346(7) 0.2414(12)
C48? C 0.8192(19) 0.5562(8) 0.1648(17)
H38? H 0.917963 0.567226 0.168747
C49? C 0.707(3) 0.5615(9) 0.0823(14)
H39? H 0.730771 0.575921 0.031026
C50? C 0.559(2) 0.5450(8) 0.0764(13)
H40? H 0.484400 0.548524 0.021153
C51? C 0.5240(18) 0.5234(7) 0.1530(17)
H41? H 0.425219 0.512431 0.149002
loop_
_geom_bond_atom_site_label_1
_geom_bond_atom_site_label_2
_geom_bond_site_symmetry_1
_geom_bond_site_symmetry_2
Br1 C15 1_555 1_555
C1 C2 1_555 1_555
C2 H1 1_555 1_555
C3 C2 1_555 1_555
H2 C3 1_555 1_555
C4 C3 1_555 1_555
H3 C4 1_555 1_555
C5 C4 1_555 1_555
H4 C5 1_555 1_555
C6 C1 1_555 1_555
C7 C8 1_555 1_555
C8 N1 1_555 1_555
C9 C7 1_555 1_555
C10 C9 1_555 1_555
C11 H5 1_555 1_555
C12 C11 1_555 1_555
C13 C12 1_555 1_555
H6 C13 1_555 1_555
C14 C13 1_555 1_555
H7 C14 1_555 1_555
C15 C14 1_555 1_555
C16 C15 1_555 1_555
H8 C16 1_555 1_555
C17 C12 1_555 1_555
H9 C17 1_555 1_555
C18 H10 1_555 1_555
H11 C18 1_555 1_555
C19 C18 1_555 1_555
C20 C19 1_555 1_555
H12 C20 1_555 1_555
C21 C20 1_555 1_555
H13 C21 1_555 1_555
C22 C21 1_555 1_555
H14 C22 1_555 1_555
C23 C22 1_555 1_555
H15 C23 1_555 1_555
C24 C19 1_555 1_555
H16 C24 1_555 1_555
C25 C9 1_555 1_555
C26 C25 1_555 1_555
C27 C26 1_555 1_555
H17 C27 1_555 1_555
C28 C27 1_555 1_555
H18 C28 1_555 1_555
C29 C28 1_555 1_555
C30 C29 1_555 1_555
H19 C30 1_555 1_555
C31 C26 1_555 1_555
H20 C31 1_555 1_555
C32 C33 1_555 1_555
C33 H21 1_555 1_555
C34 C33 1_555 1_555
H22 C34 1_555 1_555
C35 C34 1_555 1_555
H23 C35 1_555 1_555
C36 C35 1_555 1_555
H24 C36 1_555 1_555
C37 C32 1_555 1_555
H25 C37 1_555 1_555
N1 C1 1_555 1_555
N2 C6 1_555 1_555
N3 C10 1_555 1_555
N4 C29 1_555 1_555
O1 C8 1_555 1_555
O2 C10 1_555 1_555
O3 C25 1_555 1_555
O4 N4 1_555 1_555
O5 N4 1_555 1_555
C38 H26 1_555 1_555
H27 C38 1_555 1_555
H28 C38 1_555 1_555
C39 C38 1_555 1_555
C40 C39 1_555 1_555
H29 C40 1_555 1_555
C41 C40 1_555 1_555
H30 C41 1_555 1_555
C42 C41 1_555 1_555
H31 C42 1_555 1_555
C43 C42 1_555 1_555
H32 C43 1_555 1_555
C44 C39 1_555 1_555
H33 C44 1_555 1_555
C5 C6 1_555 1_555
C7 N2 1_555 1_555
C11 N2 1_555 1_555
C11 N3 1_555 1_555
C16 C17 1_555 1_555
C18 N3 1_555 1_555
C23 C24 1_555 1_555
C30 C31 1_555 1_555
C32 N1 1_555 1_555
C36 C37 1_555 1_555
C43 C44 1_555 1_555

#END
