
#######################################################################
#
#                 Cambridge Crystallographic Data Centre
#                                CCDC 
#
#######################################################################
#
# If this CIF has been generated from an entry in the Cambridge 
# Structural Database, then it will include bibliographic, chemical, 
# crystal, experimental, refinement or atomic coordinate data resulting 
# from the CCDC's data processing and validation procedures.
#
#######################################################################

data_BIXKUP
_chemical_formula_moiety         'C12 H12 O3'
_chemical_name_systematic        Spiro(1,3-dioxane-2,2'-inden)-1'(3'H)-one
_symmetry_cell_setting           monoclinic
_symmetry_space_group_name_H-M   'P 21/n'
_symmetry_Int_Tables_number      14
_space_group_name_Hall           '-P 2yn'
loop_
_symmetry_equiv_pos_site_id
_symmetry_equiv_pos_as_xyz
1 x,y,z
2 1/2-x,1/2+y,1/2-z
3 -x,-y,-z
4 1/2+x,1/2-y,1/2+z
_cell_length_a                   9.514(2)
_cell_length_b                   9.530(2)
_cell_length_c                   11.236(3)
_cell_angle_alpha                90
_cell_angle_beta                 93.011(4)
_cell_angle_gamma                90
_cell_volume                     1017.34
_exptl_crystal_colour            colorless
_exptl_crystal_description       prism
_chemical_melting_point          '50 deg.C'
_cell_formula_units_Z            4
loop_
_atom_site_label
_atom_site_type_symbol
_atom_site_fract_x
_atom_site_fract_y
_atom_site_fract_z
C1 C 0.4455(3) 0.6728(3) 0.3008(2)
C2 C 0.3646(3) 0.6814(3) 0.4169(2)
C3 C 0.4715(3) 0.7403(3) 0.5082(2)
H1 H 0.4285 0.8098 0.5579
H2 H 0.5114 0.6663 0.5587
C4 C 0.5826(3) 0.8063(3) 0.4358(2)
C5 C 0.6901(3) 0.8964(3) 0.4717(3)
H3 H 0.7001 0.9267 0.5503
C6 C 0.7821(3) 0.9406(3) 0.3893(3)
H4 H 0.8553 1.0007 0.4131
C7 C 0.7681(3) 0.8978(3) 0.2723(3)
H5 H 0.8310 0.9303 0.2179
C8 C 0.6623(3) 0.8077(3) 0.2351(3)
H6 H 0.6536 0.7770 0.1565
C9 C 0.5686(3) 0.7637(3) 0.3180(2)
C10 C 0.1954(3) 0.4979(3) 0.3850(3)
H7 H 0.1597 0.4148 0.4230
H8 H 0.2260 0.4713 0.3072
C11 C 0.0807(3) 0.6057(4) 0.3710(3)
H9 H 0.0411 0.6235 0.4474
H10 H 0.0061 0.5715 0.3163
C12 C 0.1415(3) 0.7389(3) 0.3234(3)
H11 H 0.1728 0.7230 0.2438
H12 H 0.0699 0.8115 0.3189
O1 O 0.4123(2) 0.6037(2) 0.21335(19)
O2 O 0.3131(2) 0.5533(2) 0.45623(19)
O3 O 0.25783(18) 0.78342(18) 0.40035(16)
loop_
_geom_bond_atom_site_label_1
_geom_bond_atom_site_label_2
_geom_bond_site_symmetry_1
_geom_bond_site_symmetry_2
C1 C2 1_555 1_555
C2 C3 1_555 1_555
C3 H1 1_555 1_555
H2 C3 1_555 1_555
C4 C3 1_555 1_555
C5 C4 1_555 1_555
H3 C5 1_555 1_555
C6 C5 1_555 1_555
H4 C6 1_555 1_555
C7 C6 1_555 1_555
H5 C7 1_555 1_555
C8 C7 1_555 1_555
H6 C8 1_555 1_555
C9 C1 1_555 1_555
C10 H7 1_555 1_555
H8 C10 1_555 1_555
C11 C10 1_555 1_555
H9 C11 1_555 1_555
H10 C11 1_555 1_555
C12 C11 1_555 1_555
H11 C12 1_555 1_555
H12 C12 1_555 1_555
O1 C1 1_555 1_555
O2 C2 1_555 1_555
O3 C2 1_555 1_555
C4 C9 1_555 1_555
C8 C9 1_555 1_555
C10 O2 1_555 1_555
C12 O3 1_555 1_555

#END
