
#######################################################################
#
#                 Cambridge Crystallographic Data Centre
#                                CCDC 
#
#######################################################################
#
# If this CIF has been generated from an entry in the Cambridge 
# Structural Database, then it will include bibliographic, chemical, 
# crystal, experimental, refinement or atomic coordinate data resulting 
# from the CCDC's data processing and validation procedures.
#
#######################################################################

data_BIXKEZ
_chemical_name_common            
11,12-Benzo-2,5,7,10-tetrathia(4.4.3)propellane
_chemical_formula_moiety         'C13 H14 S4'
_chemical_name_systematic        
10,13,14,17-Tetrathiatetracyclo(7.4.4.0^1,9^.0^2,7^)heptadeca-2,4,6-triene
_symmetry_cell_setting           monoclinic
_symmetry_space_group_name_H-M   'P 21/n'
_symmetry_Int_Tables_number      14
_space_group_name_Hall           '-P 2yn'
loop_
_symmetry_equiv_pos_site_id
_symmetry_equiv_pos_as_xyz
1 x,y,z
2 1/2-x,1/2+y,1/2-z
3 -x,-y,-z
4 1/2+x,1/2-y,1/2+z
_cell_length_a                   7.720(2)
_cell_length_b                   13.166(4)
_cell_length_c                   13.780(4)
_cell_angle_alpha                90
_cell_angle_beta                 104.551(5)
_cell_angle_gamma                90
_cell_volume                     1355.69
_exptl_crystal_colour            colorless
_exptl_crystal_description       prism
_chemical_melting_point          '186-190 deg.C'
_cell_formula_units_Z            4
loop_
_atom_site_label
_atom_site_type_symbol
_atom_site_fract_x
_atom_site_fract_y
_atom_site_fract_z
C1 C 0.4507(5) 0.8407(3) 0.2566(3)
C2 C 0.4188(5) 0.9512(3) 0.2169(3)
C3 C 0.4076(6) 1.0119(3) 0.3108(3)
H1 H 0.5253 1.0337 0.3487
H2 H 0.3313 1.0711 0.2929
C4 C 0.3279(5) 0.9366(3) 0.3692(3)
C5 C 0.2431(6) 0.9524(4) 0.4445(3)
H3 H 0.2296 1.0179 0.4668
C6 C 0.1780(6) 0.8703(4) 0.4868(3)
H4 H 0.1224 0.8806 0.5386
C7 C 0.1948(6) 0.7740(4) 0.4530(3)
H5 H 0.1483 0.7195 0.4812
C8 C 0.2803(6) 0.7565(3) 0.3773(3)
H6 H 0.2933 0.6909 0.3551
C9 C 0.3454(5) 0.8387(3) 0.3358(3)
C10 C 0.1932(7) 0.7624(4) 0.0892(3)
H7 H 0.1627 0.7106 0.0376
H8 H 0.1063 0.7591 0.1291
C11 C 0.1842(7) 0.8652(4) 0.0407(3)
H9 H 0.0734 0.8710 -0.0112
H10 H 0.2828 0.8724 0.0092
C12 C 0.8150(6) 0.8684(5) 0.2446(4)
H11 H 0.9411 0.8571 0.2749
H12 H 0.7827 0.8298 0.1827
C13 C 0.7845(7) 0.9790(5) 0.2212(5)
H13 H 0.8715 1.0028 0.1864
H14 H 0.8027 1.0168 0.2834
S1 S 0.41394(16) 0.73734(9) 0.16824(8)
S2 S 0.19525(14) 0.96548(9) 0.13132(8)
S3 S 0.68490(15) 0.82228(12) 0.32930(9)
S4 S 0.56329(16) 1.00363(11) 0.14521(9)
loop_
_geom_bond_atom_site_label_1
_geom_bond_atom_site_label_2
_geom_bond_site_symmetry_1
_geom_bond_site_symmetry_2
C1 C2 1_555 1_555
C2 C3 1_555 1_555
C3 H1 1_555 1_555
H2 C3 1_555 1_555
C4 C3 1_555 1_555
C5 C4 1_555 1_555
H3 C5 1_555 1_555
C6 C5 1_555 1_555
H4 C6 1_555 1_555
C7 C6 1_555 1_555
H5 C7 1_555 1_555
C8 C7 1_555 1_555
H6 C8 1_555 1_555
C9 C1 1_555 1_555
C10 H7 1_555 1_555
H8 C10 1_555 1_555
C11 C10 1_555 1_555
H9 C11 1_555 1_555
H10 C11 1_555 1_555
C12 H11 1_555 1_555
H12 C12 1_555 1_555
C13 C12 1_555 1_555
H13 C13 1_555 1_555
H14 C13 1_555 1_555
S1 C1 1_555 1_555
S2 C2 1_555 1_555
S3 C1 1_555 1_555
S4 C2 1_555 1_555
C4 C9 1_555 1_555
C8 C9 1_555 1_555
C10 S1 1_555 1_555
C11 S2 1_555 1_555
C12 S3 1_555 1_555
C13 S4 1_555 1_555

#END
