
#######################################################################
#
#                 Cambridge Crystallographic Data Centre
#                                CCDC 
#
#######################################################################
#
# If this CIF has been generated from an entry in the Cambridge 
# Structural Database, then it will include bibliographic, chemical, 
# crystal, experimental, refinement or atomic coordinate data resulting 
# from the CCDC's data processing and validation procedures.
#
#######################################################################

data_BIXKID
_chemical_name_common            
11,12-Benzo-2,5,7,10-tetraoxa(4.4.3)propellane
_chemical_formula_moiety         'C13 H14 O4'
_chemical_name_systematic        
10,13,14,17-Tetraoxatetracyclo(7.4.4.0^1,9^.0^2,7^)heptadeca-2,4,6-triene
_symmetry_cell_setting           monoclinic
_symmetry_space_group_name_H-M   'P 21/c'
_symmetry_Int_Tables_number      14
_space_group_name_Hall           '-P 2ybc'
loop_
_symmetry_equiv_pos_site_id
_symmetry_equiv_pos_as_xyz
1 x,y,z
2 -x,1/2+y,1/2-z
3 -x,-y,-z
4 x,1/2-y,1/2+z
_cell_length_a                   20.910(3)
_cell_length_b                   6.9417(8)
_cell_length_c                   16.2710(19)
_cell_angle_alpha                90
_cell_angle_beta                 112.527(2)
_cell_angle_gamma                90
_cell_volume                     2181.55
_exptl_crystal_colour            colorless
_exptl_crystal_description       prism
_chemical_melting_point          '119 deg.C'
_cell_formula_units_Z            8
loop_
_atom_site_label
_atom_site_type_symbol
_atom_site_fract_x
_atom_site_fract_y
_atom_site_fract_z
C1 C 0.38388(11) 0.1075(3) 0.57695(15)
C2 C 0.43521(10) -0.0368(3) 0.64268(14)
C3 C 0.40033(11) -0.2328(3) 0.61484(14)
H1 H 0.4343 -0.3352 0.6271
H2 H 0.3694 -0.2606 0.6450
C4 C 0.36073(10) -0.2076(3) 0.51586(14)
C5 C 0.33360(10) -0.3447(3) 0.44991(15)
H3 H 0.3401 -0.4752 0.4635
C6 C 0.29649(11) -0.2850(3) 0.36317(15)
H4 H 0.2775 -0.3766 0.3187
C7 C 0.28724(11) -0.0902(3) 0.34175(15)
H5 H 0.2627 -0.0524 0.2832
C8 C 0.31464(11) 0.0478(3) 0.40778(15)
H6 H 0.3086 0.1783 0.3940
C9 C 0.35096(10) -0.0119(3) 0.49420(14)
C10 C 0.35814(12) 0.2316(3) 0.69605(15)
H7 H 0.3206 0.2728 0.7131
H8 H 0.3880 0.3414 0.7006
C11 C 0.39833(11) 0.0751(3) 0.75662(15)
H9 H 0.4162 0.1213 0.8175
H10 H 0.3680 -0.0333 0.7527
C12 C 0.47828(11) 0.2571(3) 0.55361(15)
H11 H 0.4988 0.3818 0.5522
H12 H 0.4694 0.1932 0.4973
C13 C 0.52728(11) 0.1391(3) 0.62781(16)
H13 H 0.5708 0.1247 0.6201
H14 H 0.5365 0.2032 0.6842
O1 O 0.33057(7) 0.1613(2) 0.60582(10)
O2 O 0.45467(7) 0.01343(19) 0.73359(9)
O3 O 0.41429(7) 0.28285(19) 0.56576(10)
O4 O 0.49722(7) -0.04744(19) 0.62799(10)
C14 C 0.10849(10) 0.1518(3) 0.18114(14)
C15 C 0.06271(10) 0.0009(3) 0.20477(14)
C16 C 0.10153(11) -0.1897(3) 0.21399(15)
H15 H 0.1332 -0.2109 0.2750
H16 H 0.0696 -0.2973 0.1950
C17 C 0.14007(10) -0.1636(3) 0.15352(14)
C18 C 0.17338(10) -0.3009(3) 0.12219(15)
H17 H 0.1701 -0.4310 0.1335
C19 C 0.21172(11) -0.2404(3) 0.07362(15)
H18 H 0.2344 -0.3310 0.0524
C20 C 0.21656(10) -0.0465(3) 0.05636(15)
H19 H 0.2430 -0.0083 0.0245
C21 C 0.18240(10) 0.0908(3) 0.08621(14)
H20 H 0.1851 0.2207 0.0741
C22 C 0.14415(10) 0.0300(3) 0.13449(14)
C23 C 0.00695(11) 0.2723(3) 0.06399(15)
H21 H 0.0144 0.2027 0.0167
H22 H -0.0171 0.3912 0.0394
C24 C -0.03628(11) 0.1533(3) 0.09950(15)
H23 H -0.0438 0.2223 0.1469
H24 H -0.0810 0.1277 0.0526
C25 C 0.13544(12) 0.2940(3) 0.32291(15)
H25 H 0.1013 0.3942 0.2970
H26 H 0.1729 0.3481 0.3736
C26 C 0.10315(11) 0.1293(3) 0.35241(15)
H27 H 0.1374 0.0293 0.3781
H28 H 0.0870 0.1731 0.3978
O5 O 0.07261(7) 0.31538(19) 0.13384(10)
O6 O -0.00089(7) -0.02540(19) 0.13299(10)
O7 O 0.16167(7) 0.2259(2) 0.25798(10)
O8 O 0.04638(7) 0.0527(2) 0.27885(10)
loop_
_geom_bond_atom_site_label_1
_geom_bond_atom_site_label_2
_geom_bond_site_symmetry_1
_geom_bond_site_symmetry_2
C1 C2 1_555 1_555
C2 C3 1_555 1_555
C3 H1 1_555 1_555
H2 C3 1_555 1_555
C4 C3 1_555 1_555
C5 C4 1_555 1_555
H3 C5 1_555 1_555
C6 C5 1_555 1_555
H4 C6 1_555 1_555
C7 C6 1_555 1_555
H5 C7 1_555 1_555
C8 C7 1_555 1_555
H6 C8 1_555 1_555
C9 C1 1_555 1_555
C10 H7 1_555 1_555
H8 C10 1_555 1_555
C11 C10 1_555 1_555
H9 C11 1_555 1_555
H10 C11 1_555 1_555
C12 H11 1_555 1_555
H12 C12 1_555 1_555
C13 C12 1_555 1_555
H13 C13 1_555 1_555
H14 C13 1_555 1_555
C14 C15 1_555 1_555
C15 C16 1_555 1_555
C16 H15 1_555 1_555
H16 C16 1_555 1_555
C17 C16 1_555 1_555
C18 C17 1_555 1_555
H17 C18 1_555 1_555
C19 C18 1_555 1_555
H18 C19 1_555 1_555
C20 C19 1_555 1_555
H19 C20 1_555 1_555
C21 C20 1_555 1_555
H20 C21 1_555 1_555
C22 C14 1_555 1_555
C23 H21 1_555 1_555
H22 C23 1_555 1_555
C24 C23 1_555 1_555
H23 C24 1_555 1_555
H24 C24 1_555 1_555
C25 H25 1_555 1_555
H26 C25 1_555 1_555
C26 C25 1_555 1_555
H27 C26 1_555 1_555
H28 C26 1_555 1_555
O1 C1 1_555 1_555
O2 C2 1_555 1_555
O3 C1 1_555 1_555
O4 C2 1_555 1_555
O5 C14 1_555 1_555
O6 C15 1_555 1_555
O7 C14 1_555 1_555
O8 C15 1_555 1_555
C4 C9 1_555 1_555
C8 C9 1_555 1_555
C10 O1 1_555 1_555
C11 O2 1_555 1_555
C12 O3 1_555 1_555
C13 O4 1_555 1_555
C17 C22 1_555 1_555
C21 C22 1_555 1_555
C23 O5 1_555 1_555
C24 O6 1_555 1_555
C25 O7 1_555 1_555
C26 O8 1_555 1_555

#END
