
#######################################################################
#
#                 Cambridge Crystallographic Data Centre
#                                CCDC 
#
#######################################################################
#
# If this CIF has been generated from an entry in the Cambridge 
# Structural Database, then it will include bibliographic, chemical, 
# crystal, experimental, refinement or atomic coordinate data resulting 
# from the CCDC's data processing and validation procedures.
#
#######################################################################

data_BIXLOK
_chemical_formula_moiety         'C11 H10 O3'
_chemical_name_systematic        Spiro(1,3-dioxolane-2,1'-inden)-2'(3'H)-one
_symmetry_cell_setting           monoclinic
_symmetry_space_group_name_H-M   'P 21/n'
_symmetry_Int_Tables_number      14
_space_group_name_Hall           '-P 2yn'
loop_
_symmetry_equiv_pos_site_id
_symmetry_equiv_pos_as_xyz
1 x,y,z
2 1/2-x,1/2+y,1/2-z
3 -x,-y,-z
4 1/2+x,1/2-y,1/2+z
_cell_length_a                   9.6825(11)
_cell_length_b                   6.9722(8)
_cell_length_c                   13.4076(15)
_cell_angle_alpha                90
_cell_angle_beta                 105.949(2)
_cell_angle_gamma                90
_cell_volume                     870.283
_exptl_crystal_colour            yellow
_exptl_crystal_description       plate
_chemical_melting_point          '87 deg.C'
_cell_formula_units_Z            4
loop_
_atom_site_label
_atom_site_type_symbol
_atom_site_fract_x
_atom_site_fract_y
_atom_site_fract_z
C1 C 0.26955(19) 0.2651(2) 0.54923(14)
C2 C 0.1927(2) 0.2523(2) 0.43072(14)
C3 C 0.0313(2) 0.2453(3) 0.41385(14)
H1 H -0.008(2) 0.126(3) 0.3793(16)
H2 H -0.013(2) 0.355(4) 0.3733(17)
C4 C 0.01474(19) 0.2533(2) 0.52228(14)
C5 C -0.1125(2) 0.2522(2) 0.55231(15)
H3 H -0.203(3) 0.245(3) 0.5017(18)
C6 C -0.1041(2) 0.2617(3) 0.65709(16)
H4 H -0.190(3) 0.259(3) 0.680(2)
C7 C 0.0280(2) 0.2720(3) 0.73161(15)
H5 H 0.031(3) 0.282(3) 0.803(2)
C8 C 0.1547(2) 0.2733(3) 0.70225(14)
H6 H 0.251(3) 0.282(3) 0.757(2)
C9 C 0.14630(19) 0.2635(2) 0.59686(14)
C10 C 0.5050(2) 0.1753(3) 0.58892(17)
H7 H 0.564(3) 0.093(4) 0.6381(18)
H8 H 0.526(2) 0.173(3) 0.5188(19)
C11 C 0.4988(2) 0.3789(3) 0.62203(15)
H9 H 0.561(3) 0.466(4) 0.5992(18)
H10 H 0.514(2) 0.391(3) 0.6989(19)
O1 O 0.36215(13) 0.10684(18) 0.58178(10)
O2 O 0.35431(13) 0.43381(19) 0.57009(10)
O3 O 0.25575(16) 0.2461(2) 0.36459(11)
loop_
_geom_bond_atom_site_label_1
_geom_bond_atom_site_label_2
_geom_bond_site_symmetry_1
_geom_bond_site_symmetry_2
C1 C2 1_555 1_555
C2 C3 1_555 1_555
C3 H1 1_555 1_555
H2 C3 1_555 1_555
C4 C3 1_555 1_555
C5 C4 1_555 1_555
H3 C5 1_555 1_555
C6 C5 1_555 1_555
H4 C6 1_555 1_555
C7 C6 1_555 1_555
H5 C7 1_555 1_555
C8 C7 1_555 1_555
H6 C8 1_555 1_555
C9 C1 1_555 1_555
C10 H7 1_555 1_555
H8 C10 1_555 1_555
C11 C10 1_555 1_555
H9 C11 1_555 1_555
H10 C11 1_555 1_555
O1 C1 1_555 1_555
O2 C1 1_555 1_555
O3 C2 1_555 1_555
C4 C9 1_555 1_555
C8 C9 1_555 1_555
C10 O1 1_555 1_555
C11 O2 1_555 1_555

#END
