
#######################################################################
#
#                 Cambridge Crystallographic Data Centre
#                                CCDC 
#
#######################################################################
#
# If this CIF has been generated from an entry in the Cambridge 
# Structural Database, then it will include bibliographic, chemical, 
# crystal, experimental, refinement or atomic coordinate data resulting 
# from the CCDC's data processing and validation procedures.
#
#######################################################################

data_BIXMUT
_chemical_formula_moiety         'C22 H27 B1 N4 O2 S1'
_chemical_name_systematic        
(1-cyano-3-{[(4-methylphenyl)sulfonyl]amino}-1-phenylpropan-2-yl)(1,3-dimethyl-1H-imidazol-3-ium-2-yl)dihydridoborate
_symmetry_cell_setting           monoclinic
_symmetry_space_group_name_H-M   'P 21/n'
_symmetry_Int_Tables_number      14
_space_group_name_Hall           '-P 2yn'
loop_
_symmetry_equiv_pos_site_id
_symmetry_equiv_pos_as_xyz
1 x,y,z
2 1/2-x,1/2+y,1/2-z
3 -x,-y,-z
4 1/2+x,1/2-y,1/2+z
_cell_length_a                   13.7338(5)
_cell_length_b                   10.3561(4)
_cell_length_c                   15.9835(6)
_cell_angle_alpha                90
_cell_angle_beta                 97.053(4)
_cell_angle_gamma                90
_cell_volume                     2256.11
_exptl_crystal_description       block
_cell_formula_units_Z            4
loop_
_atom_site_label
_atom_site_type_symbol
_atom_site_fract_x
_atom_site_fract_y
_atom_site_fract_z
S1 S 0.48061(3) 0.28694(4) 0.48618(2)
O1 O 0.41975(8) 0.39455(11) 0.50173(8)
O2 O 0.43560(9) 0.16797(11) 0.45763(8)
N1 N 0.54794(10) 0.33348(14) 0.41555(8)
N2 N 0.86292(10) 0.38851(16) 0.45828(10)
N3 N 0.90669(11) 0.34575(17) 0.33772(11)
C1 C 0.55938(11) 0.25470(15) 0.57964(10)
C2 C 0.61466(12) 0.35670(17) 0.15102(10)
C3 C 0.61635(12) 0.24151(16) 0.38328(10)
H1 H 0.5823 0.1614 0.3676
H2 H 0.6697 0.2225 0.4272
C4 C 0.57498(12) 0.32432(17) 0.23345(10)
H3 H 0.5370 0.3986 0.2492
C5 C 0.83040(12) 0.38826(17) 0.37547(11)
C6 C 0.65778(11) 0.29801(16) 0.30653(10)
H4 H 0.7011 0.2326 0.2867
C7 C 0.59361(14) 0.13093(17) 0.59622(12)
H5 H 0.5744 0.0643 0.5588
C8 C 0.67324(13) 0.26910(19) 0.11463(12)
H6 H 0.6852 0.1882 0.1391
C9 C 0.58783(14) 0.35385(16) 0.63544(11)
H7 H 0.5647 0.4373 0.6245
C10 C 0.65646(15) 0.10675(19) 0.66859(13)
H8 H 0.6788 0.0230 0.6798
C11 C 0.68721(14) 0.20440(19) 0.72507(12)
C12 C 0.65093(15) 0.32743(18) 0.70753(12)
H9 H 0.6695 0.3940 0.7452
C13 C 0.50766(14) 0.2132(2) 0.21925(12)
C14 C 0.71398(15) 0.3004(2) 0.04274(13)
H10 H 0.7535 0.2410 0.0192
N4 N 0.45728(16) 0.1261(2) 0.20758(13)
C15 C 0.95876(14) 0.3464(2) 0.47210(15)
H11 H 0.9971 0.3381 0.5240
C16 C 0.59593(17) 0.4742(2) 0.11258(13)
H12 H 0.5557 0.5335 0.1354
C17 C 0.98566(14) 0.3197(2) 0.39699(16)
H13 H 1.0466 0.2892 0.3864
C18 C 0.69648(19) 0.4187(3) 0.00597(15)
H14 H 0.7251 0.4405 -0.0419
B1 B 0.72432(13) 0.42848(19) 0.32886(12)
H15 H 0.7318 0.4751 0.2774
H16 H 0.6917 0.4848 0.3651
C19 C 0.80600(16) 0.4260(3) 0.52545(13)
H17 H 0.7578 0.4890 0.5045
H18 H 0.8489 0.4622 0.5714
H19 H 0.7737 0.3514 0.5447
C20 C 0.75653(18) 0.1782(2) 0.80381(14)
H20 H 0.7379 0.0995 0.8293
H21 H 0.7537 0.2483 0.8427
H22 H 0.8222 0.1701 0.7896
C21 C 0.90583(17) 0.3288(3) 0.24731(16)
H23 H 0.8851 0.2426 0.2319
H24 H 0.9706 0.3429 0.2324
H25 H 0.8612 0.3896 0.2179
C22 C 0.6368(2) 0.5048(2) 0.03984(16)
H26 H 0.6235 0.5844 0.0140
H27 H 0.5697(13) 0.4046(19) 0.4272(11)
loop_
_geom_bond_atom_site_label_1
_geom_bond_atom_site_label_2
_geom_bond_site_symmetry_1
_geom_bond_site_symmetry_2
S1 O1 1_555 1_555
O2 S1 1_555 1_555
N1 S1 1_555 1_555
N2 C5 1_555 1_555
N3 C5 1_555 1_555
C1 S1 1_555 1_555
C2 C4 1_555 1_555
C3 N1 1_555 1_555
H1 C3 1_555 1_555
H2 C3 1_555 1_555
C4 H3 1_555 1_555
C5 B1 1_555 1_555
C6 C3 1_555 1_555
H4 C6 1_555 1_555
C7 C1 1_555 1_555
H5 C7 1_555 1_555
C8 C2 1_555 1_555
H6 C8 1_555 1_555
C9 C1 1_555 1_555
H7 C9 1_555 1_555
C10 C7 1_555 1_555
H8 C10 1_555 1_555
C11 C10 1_555 1_555
C12 C9 1_555 1_555
H9 C12 1_555 1_555
C13 C4 1_555 1_555
C14 C8 1_555 1_555
H10 C14 1_555 1_555
N4 C13 1_555 1_555
C15 N2 1_555 1_555
H11 C15 1_555 1_555
C16 C2 1_555 1_555
H12 C16 1_555 1_555
C17 N3 1_555 1_555
H13 C17 1_555 1_555
C18 C14 1_555 1_555
H14 C18 1_555 1_555
B1 C6 1_555 1_555
H15 B1 1_555 1_555
H16 B1 1_555 1_555
C19 N2 1_555 1_555
H17 C19 1_555 1_555
H18 C19 1_555 1_555
H19 C19 1_555 1_555
C20 C11 1_555 1_555
H20 C20 1_555 1_555
H21 C20 1_555 1_555
H22 C20 1_555 1_555
C21 N3 1_555 1_555
H23 C21 1_555 1_555
H24 C21 1_555 1_555
H25 C21 1_555 1_555
C22 C16 1_555 1_555
H26 C22 1_555 1_555
H27 N1 1_555 1_555
C4 C6 1_555 1_555
C11 C12 1_555 1_555
C15 C17 1_555 1_555
C18 C22 1_555 1_555

#END
