
#######################################################################
#
#                 Cambridge Crystallographic Data Centre
#                                CCDC 
#
#######################################################################
#
# If this CIF has been generated from an entry in the Cambridge 
# Structural Database, then it will include bibliographic, chemical, 
# crystal, experimental, refinement or atomic coordinate data resulting 
# from the CCDC's data processing and validation procedures.
#
#######################################################################

data_BIXNUU
_chemical_formula_moiety         'C129 H126 N8'
_chemical_name_systematic        
'1,4,14,17,20,30,35,45-octa-aza-4,13,20,29,35,44-hexa-ene-7,10,23,26,38,41-hexa-yne-9,25,40(2,7)tris(9,9-dibutyl-fluorena)cyclo(15.15.15)heptatetracontaphane unknown solvate'
_symmetry_cell_setting           monoclinic
_symmetry_space_group_name_H-M   'P 21/c'
_symmetry_Int_Tables_number      14
_space_group_name_Hall           '-P 2ybc'
loop_
_symmetry_equiv_pos_site_id
_symmetry_equiv_pos_as_xyz
1 x,y,z
2 -x,1/2+y,1/2-z
3 -x,-y,-z
4 x,1/2-y,1/2+z
_cell_length_a                   13.4695(5)
_cell_length_b                   20.9306(7)
_cell_length_c                   39.4664(14)
_cell_angle_alpha                90
_cell_angle_beta                 92.379(2)
_cell_angle_gamma                90
_cell_volume                     11117
_exptl_crystal_colour            colorless
_exptl_crystal_description       block
_cell_formula_units_Z            4
_chemical_properties_physical    Efflorescent
loop_
_atom_site_label
_atom_site_type_symbol
_atom_site_fract_x
_atom_site_fract_y
_atom_site_fract_z
N1 N -0.0595(3) 0.3768(2) 0.37441(10)
N2 N 0.5683(5) 0.1988(6) 0.99754(16)
N3 N 0.1211(7) 0.4515(4) 0.4027(2)
N4 N 0.5215(6) 0.4024(4) 1.03012(16)
N5 N 0.8174(6) 0.3329(6) 0.9882(2)
N6 N 0.6753(5) 0.2991(5) 1.04473(13)
C1 C 0.4438(3) 0.2869(2) 0.64097(11)
H1 H 0.471371 0.326658 0.648222
C2 C 0.4105(3) 0.12769(19) 0.68073(10)
C3 C 0.0529(7) 0.3683(4) 0.6175(2)
C4 C 0.2961(4) 0.3197(3) 0.8015(2)
H2 H 0.349276 0.297579 0.812878
C5 C 0.4426(3) 0.2360(2) 0.66299(10)
C6 C 0.4043(3) 0.1767(2) 0.65210(10)
C7 C 0.3800(5) 0.4544(3) 0.54284(18)
C8 C 0.4695(3) 0.2310(2) 0.69897(10)
C9 C 0.4886(3) 0.0761(2) 0.67429(11)
H3 H 0.491237 0.046676 0.693936
H4 H 0.465481 0.051049 0.654205
C10 C 0.2389(5) 0.3639(3) 0.82019(17)
C11 C 0.4094(5) 0.4565(3) 0.57183(18)
C12 C 0.2664(5) 0.3799(3) 0.8546(2)
C13 C 0.4582(3) 0.1552(2) 0.74429(11)
H5 H 0.441439 0.113788 0.752032
C14 C -0.0050(6) 0.2677(3) 0.35930(15)
H6 H -0.032070 0.223729 0.358085
H7 H 0.028190 0.275810 0.337797
C15 C 0.3622(7) 0.4019(3) 0.9127(2)
C16 C 0.5214(3) 0.2614(2) 0.75534(11)
H8 H 0.547637 0.292451 0.770830
C17 C 0.4635(7) 0.4160(4) 0.9095(2)
H9 H 0.491119 0.421056 0.887890
C18 C 0.5101(3) 0.2767(2) 0.72129(11)
H10 H 0.529479 0.317466 0.713269
C19 C 0.1836(8) 0.4584(7) 0.4118(2)
H11 H 0.230324 0.478130 0.397750
C20 C 0.8437(7) 0.2979(8) 1.02062(19)
H12 H 0.914482 0.305450 1.027097
H13 H 0.834339 0.251418 1.017024
C21 C 0.4462(3) 0.1699(2) 0.71047(10)
C22 C 0.7735(14) 0.3863(7) 0.9230(3)
H14 H 0.797618 0.414188 0.940427
C23 C 0.1889(4) 0.5815(3) 0.73671(15)
H15 H 0.175313 0.596713 0.759817
H16 H 0.140570 0.602385 0.720698
C24 C 0.7022(3) 0.3617(2) 0.66805(12)
H17 H 0.683946 0.347203 0.690842
H18 H 0.644918 0.353154 0.652165
C25 C 0.4950(3) 0.2010(2) 0.76746(11)
C26 C 0.7209(3) 0.4329(2) 0.66922(11)
H19 H 0.740804 0.446800 0.646498
H20 H 0.777849 0.441057 0.685301
C27 C 0.7125(5) 0.3813(4) 0.86647(17)
C28 C 0.6597(3) 0.5466(2) 0.67756(12)
H21 H 0.676456 0.555852 0.653864
H22 H 0.599293 0.571496 0.682212
C29 C 0.1257(4) 0.1037(3) 0.69448(16)
H23 H 0.131421 0.079040 0.715888
H24 H 0.114686 0.072992 0.675616
C30 C 0.6328(3) 0.4752(2) 0.67966(11)
C31 C 0.0690(6) 0.4642(4) 0.36966(16)
H25 H 0.118454 0.479001 0.353511
H26 H 0.021164 0.499484 0.372603
C32 C 0.5382(3) 0.4650(2) 0.65774(12)
C33 C 0.3105(3) 0.0947(2) 0.68628(11)
H27 H 0.317630 0.068326 0.707061
H28 H 0.296205 0.065352 0.667025
C34 C 0.3649(3) 0.2222(2) 0.59715(11)
C35 C 0.4825(10) 0.2406(4) 0.88677(16)
H29 H 0.463776 0.277546 0.874027
C36 C 0.3018(6) 0.3906(3) 0.8813(2)
C37 C 0.7436(4) 0.5720(2) 0.70052(12)
H30 H 0.725627 0.566993 0.724444
H31 H 0.804158 0.546326 0.697149
C38 C 0.6639(8) 0.2316(7) 1.0496(2)
H32 H 0.666056 0.222360 1.074212
H33 H 0.720533 0.209214 1.039653
C39 C 0.5932(3) 0.0988(2) 0.66852(11)
H34 H 0.591735 0.127537 0.648597
H35 H 0.617191 0.123904 0.688469
C40 C 0.7273(10) 0.2931(6) 0.9054(2)
H36 H 0.716852 0.248977 0.909647
C41 C 0.6475(3) 0.4505(2) 0.74548(12)
H37 H 0.717663 0.455493 0.746937
C42 C 0.7792(6) 0.3201(7) 1.04918(17)
H38 H 0.807344 0.303243 1.070976
H39 H 0.781083 0.367287 1.050378
C43 C 0.2205(3) 0.1391(3) 0.68971(13)
H40 H 0.233289 0.167919 0.709309
H41 H 0.212954 0.165927 0.669105
C44 C 0.4048(3) 0.2801(2) 0.60842(11)
H42 H 0.405232 0.315506 0.593368
C45 C 0.3665(3) 0.1693(2) 0.61905(11)
H43 H 0.341989 0.129015 0.611371
C46 C 0.5960(3) 0.4590(2) 0.71471(11)
C47 C 0.5466(7) 0.4128(5) 1.0035(3)
H44 H 0.614320 0.424368 1.001431
C48 C 0.5680(6) 0.2054(4) 1.03377(15)
H45 H 0.554856 0.163115 1.043854
H46 H 0.512806 0.234181 1.039544
C49 C 0.0247(9) 0.3737(5) 0.5885(2)
C50 C 0.5018(3) 0.1899(2) 0.80324(12)
C51 C 0.4923(3) 0.4510(2) 0.71310(13)
C52 C 0.2770(4) 0.3085(3) 0.76828(19)
H47 H 0.315509 0.278487 0.756452
C53 C 0.5059(4) 0.1874(2) 0.87035(11)
C54 C 0.5212(5) 0.1949(3) 0.94091(13)
C55 C 0.4581(3) 0.4550(2) 0.67779(13)
C56 C 0.0920(5) 0.3603(3) 0.65178(16)
C57 C 0.4930(4) 0.4282(2) 0.77195(15)
H48 H 0.457901 0.417700 0.791582
C58 C 0.7686(4) 0.0672(3) 0.65679(16)
H49 H 0.810694 0.030048 0.652619
H50 H 0.794945 0.090258 0.676804
H51 H 0.767867 0.095549 0.637037
C59 C 0.5255(4) 0.4663(2) 0.62287(13)
H52 H 0.580703 0.472981 0.609087
C60 C 0.5355(5) 0.1405(3) 0.92445(15)
H53 H 0.551491 0.102854 0.936981
C61 C 0.7660(4) 0.6414(2) 0.69381(13)
H54 H 0.705374 0.666992 0.697279
H55 H 0.783279 0.646349 0.669813
C62 C 0.6164(5) 0.3360(4) 1.06960(14)
H56 H 0.553464 0.312892 1.073109
H57 H 0.654257 0.337132 1.091625
C63 C 0.6454(4) 0.4208(2) 0.80624(14)
C64 C 0.7728(5) 0.2518(3) 0.65744(15)
H58 H 0.718477 0.241051 0.641137
H59 H 0.755074 0.238431 0.680212
H60 H 0.833461 0.229727 0.651182
C65 C 0.0624(3) 0.4132(3) 0.74497(12)
C66 C 0.4787(7) 0.4098(4) 0.96936(19)
C67 C 0.3495(4) 0.4484(2) 0.62851(18)
H61 H 0.285044 0.442707 0.618227
C68 C 0.3868(6) 0.3978(4) 0.9733(2)
H62 H 0.360170 0.391605 0.994935
C69 C 0.5047(3) 0.1870(2) 0.83381(13)
C70 C 0.2910(5) 0.6014(3) 0.7283(2)
H63 H 0.304906 0.587019 0.705354
H64 H 0.339277 0.582333 0.744580
H65 H 0.296159 0.648107 0.729433
C71 C 0.1725(4) 0.3417(2) 0.71596(15)
C72 C 0.4412(4) 0.4367(2) 0.74195(15)
H66 H 0.370864 0.433015 0.740771
C73 C 0.0928(3) 0.3832(2) 0.71096(14)
C74 C 0.3235(6) 0.3941(4) 0.9406(3)
H67 H 0.254253 0.385907 0.941407
C75 C 0.4310(4) 0.4578(2) 0.60815(15)
C76 C 0.1240(5) 0.2368(3) 0.44102(10)
C77 C 0.0838(3) 0.1998(2) 0.46627(13)
H68 H 0.022373 0.178329 0.462034
C78 C 0.1334(3) 0.1942(2) 0.49772(11)
H69 H 0.105890 0.168891 0.514979
C79 C 0.2232(3) 0.2256(2) 0.50392(9)
C80 C 0.2635(4) 0.2626(3) 0.47866(13)
H70 H 0.324898 0.284069 0.482901
C81 C 0.2139(5) 0.2682(3) 0.44721(11)
H71 H 0.241383 0.293508 0.429955
C82 C 0.2016(3) 0.3408(2) 0.75187(16)
C83 C 0.0524(4) 0.3925(3) 0.67915(14)
H72 H -0.002344 0.420626 0.675591
C84 C 0.3620(4) 0.4474(2) 0.66332(16)
H73 H 0.306771 0.441686 0.677210
C85 C -0.1673(5) 0.3087(5) 0.7641(3)
H74 H -0.187089 0.339250 0.781736
H75 H -0.210233 0.317111 0.743639
C86 C 0.1578(4) 0.3958(3) 0.80307(15)
H76 H 0.116268 0.424213 0.814790
C87 C 0.5931(6) 0.4006(5) 1.05944(18)
H77 H 0.654936 0.422731 1.053468
H78 H 0.564871 0.423669 1.078702
C88 C 0.1417(3) 0.3839(3) 0.76903(14)
C89 C 0.7892(7) 0.2973(6) 0.9631(2)
H79 H 0.783261 0.252301 0.965220
C90 C 0.8514(4) 0.6681(3) 0.71669(13)
H80 H 0.869813 0.710640 0.708689
H81 H 0.908919 0.639536 0.715910
H82 H 0.829955 0.671116 0.740064
C91 C 0.7662(6) 0.3313(7) 0.9302(2)
C92 C -0.0429(3) 0.3946(3) 0.75377(13)
H83 H -0.057391 0.413778 0.775973
H84 H -0.089973 0.413439 0.736602
C93 C 0.7026(9) 0.3189(6) 0.8736(2)
H85 H 0.677659 0.291137 0.856153
C94 C 0.3177(4) 0.2191(2) 0.56413(13)
C95 C 0.5220(7) 0.4223(5) 0.9396(2)
H86 H 0.589675 0.434949 0.939169
C96 C 0.2104(4) 0.3100(3) 0.6885(2)
H87 H 0.264853 0.281559 0.691822
C97 C 0.4845(12) 0.2438(4) 0.92216(18)
H88 H 0.459776 0.280649 0.933035
C98 C 0.6659(4) 0.0454(2) 0.66272(14)
H89 H 0.667606 0.016826 0.682723
H90 H 0.641524 0.020082 0.642894
C99 C 0.7501(14) 0.4139(6) 0.8914(3)
H91 H 0.762404 0.458184 0.888276
C100 C 0.5959(4) 0.4345(2) 0.77467(12)
C101 C -0.1872(7) 0.2535(6) 0.7743(4)
H92 H -0.208611 0.226854 0.754984
H93 H -0.240594 0.255940 0.790411
H94 H -0.127880 0.234778 0.785602
C102 C 0.6773(5) 0.4056(3) 0.83338(15)
C103 C 0.0713(4) 0.4869(2) 0.74403(12)
H95 H 0.021529 0.503706 0.727163
H96 H 0.054904 0.504033 0.766486
C104 C 0.1734(4) 0.5114(3) 0.73522(14)
H97 H 0.223396 0.491002 0.750826
H98 H 0.186917 0.496812 0.711991
C105 C 0.0363(4) 0.1490(4) 0.69564(19)
H99 H 0.034066 0.176209 0.675429
H100 H 0.042864 0.175703 0.715991
H101 H -0.025005 0.123880 0.696233
C106 C 0.7901(4) 0.3232(3) 0.65714(14)
H102 H 0.848181 0.333170 0.672412
H103 H 0.806463 0.336323 0.633932
C107 C 0.2756(5) 0.2220(3) 0.53629(15)
C108 C 0.5306(7) 0.2017(5) 0.97800(17)
H104 H 0.467329 0.215906 0.984633
C109 C 0.5275(6) 0.1376(3) 0.88957(14)
H105 H 0.538063 0.097666 0.878876
C110 C 0.1699(5) 0.3195(3) 0.65677(18)
H106 H 0.196065 0.297557 0.638036
C111 C -0.0617(4) 0.3243(3) 0.75551(18)
H107 H -0.015596 0.305196 0.772877
H108 H -0.047567 0.304775 0.733378
N7 N 0.0704(19) 0.2699(8) 0.3869(3)
N8 N -0.1650(13) 0.4053(11) 0.4402(6)
C112 C 0.049(2) 0.2380(9) 0.4137(4)
H109 H -0.012711 0.216436 0.415314
C113 C 0.0105(9) 0.4043(8) 0.3533(3)
H110 H -0.024186 0.418213 0.331977
H111 H 0.059423 0.371235 0.347489
C114 C -0.100(2) 0.406(2) 0.4547(5)
H112 H -0.045016 0.404744 0.440304
C115 C -0.0956(11) 0.3159(7) 0.3614(4)
H113 H -0.127569 0.321785 0.338539
H114 H -0.145674 0.298271 0.376484
C116 C 0.3245(9) 0.4372(5) 0.45216(17)
H115 H 0.360108 0.433314 0.431986
C117 C 0.2213(9) 0.4394(4) 0.45039(17)
C118 C 0.1691(7) 0.4451(4) 0.4799(2)
H116 H 0.098563 0.446579 0.478705
C119 C 0.2202(7) 0.4485(4) 0.51119(19)
H117 H 0.184556 0.452314 0.531365
C120 C 0.3234(7) 0.4462(4) 0.51296(16)
C121 C 0.3756(6) 0.4406(5) 0.4834(2)
H118 H 0.446104 0.439049 0.484648
C122 C -0.2022(15) 0.4138(9) 0.4081(6)
H119 H -0.245590 0.451938 0.408319
H120 H -0.245841 0.376749 0.402708
C123 C -0.0624(10) 0.4618(5) 0.5082(3)
H121 H -0.086993 0.502134 0.500656
C124 C -0.0224(11) 0.4551(5) 0.5411(3)
H122 H -0.019553 0.490773 0.555928
C125 C 0.0136(9) 0.3961(5) 0.55213(18)
C126 C 0.0095(9) 0.3438(4) 0.53037(19)
H123 H 0.034045 0.303535 0.537934
C127 C -0.0306(9) 0.3506(5) 0.49754(18)
H124 H -0.033394 0.314895 0.482663
C128 C -0.0665(7) 0.4096(6) 0.4865(2)
C129 C -0.1398(11) 0.4210(9) 0.3812(3)
H125 H -0.109195 0.463859 0.383737
H126 H -0.183209 0.422564 0.360333
H127? H 0.048011 0.248774 0.345824
H128? H -0.067843 0.246576 0.351746
H129? H 0.224909 0.453513 0.393033
H130? H 0.102166 0.439559 0.351955
H131? H 0.076422 0.510122 0.364239
C130? C -0.1635(10) 0.3606(10) 0.3737(3)
H132? H -0.193520 0.378656 0.352442
H133? H -0.167867 0.313525 0.371504
H134? H 0.073070 0.324930 0.534183
H135? H 0.009663 0.340269 0.479104
N9? N -0.159(2) 0.3595(14) 0.4369(6)
N10? N 0.0174(11) 0.2468(8) 0.3977(6)
C131? C -0.169(2) 0.3966(6) 0.5173(5)
H136? H -0.231120 0.417979 0.514366
C132? C -0.0389(12) 0.4480(7) 0.3680(3)
H137? H -0.067559 0.459866 0.345400
H138? H -0.072905 0.473736 0.385130
C133? C -0.1276(17) 0.3934(7) 0.5488(4)
H139? H -0.161139 0.412852 0.566854
C134? C -0.130(3) 0.3725(10) 0.4903(6)
C135? C 0.2539(8) 0.4731(6) 0.4402(2)
C136? C 0.2943(8) 0.5280(5) 0.4550(2)
H140? H 0.287366 0.567955 0.443721
C137? C 0.3450(8) 0.5245(5) 0.4864(3)
H141? H 0.372578 0.561985 0.496513
C138? C 0.3551(8) 0.4661(6) 0.5029(2)
C139? C 0.3147(8) 0.4112(4) 0.4881(3)
H142? H 0.321698 0.371247 0.499357
C140? C 0.2641(7) 0.4147(5) 0.4567(3)
H143? H 0.236486 0.377217 0.446564
C141? C -0.0408(19) 0.3636(8) 0.5559(3)
C142? C 0.1020(14) 0.2526(12) 0.4006(6)
H144? H 0.147789 0.263663 0.383945
C143? C -0.2034(15) 0.3860(11) 0.4548(7)
H145? H -0.263604 0.409286 0.451537
C144? C -0.2267(16) 0.3785(11) 0.4004(5)
H146? H -0.289943 0.354347 0.398875
H147? H -0.241693 0.424795 0.399532
C145? C -0.0141(8) 0.3386(5) 0.3487(2)
H148? H 0.052825 0.355726 0.344570
H149? H -0.054560 0.341715 0.327244
loop_
_geom_bond_atom_site_label_1
_geom_bond_atom_site_label_2
_geom_bond_site_symmetry_1
_geom_bond_site_symmetry_2
N1 C113 1_555 1_555
N2 C48 1_555 1_555
N3 C19 1_555 1_555
N4 C47 1_555 1_555
N5 C20 1_555 1_555
N6 C38 1_555 1_555
C1 H1 1_555 1_555
C2 C6 1_555 1_555
C3 C49 1_555 1_555
C4 H2 1_555 1_555
C5 C1 1_555 1_555
C6 C5 1_555 1_555
C7 C11 1_555 1_555
C8 C5 1_555 1_555
C9 C2 1_555 1_555
H3 C9 1_555 1_555
H4 C9 1_555 1_555
C10 C4 1_555 1_555
C11 C75 1_555 1_555
C12 C10 1_555 1_555
C13 H5 1_555 1_555
C14 H6 1_555 1_555
H7 C14 1_555 1_555
C15 C17 1_555 1_555
C16 H8 1_555 1_555
C17 H9 1_555 1_555
C18 C8 1_555 1_555
H10 C18 1_555 1_555
C19 H11 1_555 1_555
C20 H12 1_555 1_555
H13 C20 1_555 1_555
C21 C2 1_555 1_555
C22 H14 1_555 1_555
C23 H15 1_555 1_555
H16 C23 1_555 1_555
C24 H17 1_555 1_555
H18 C24 1_555 1_555
C25 C13 1_555 1_555
C26 C24 1_555 1_555
H19 C26 1_555 1_555
H20 C26 1_555 1_555
C27 C93 1_555 1_555
C28 H21 1_555 1_555
H22 C28 1_555 1_555
C29 H23 1_555 1_555
H24 C29 1_555 1_555
C30 C26 1_555 1_555
C31 N3 1_555 1_555
H25 C31 1_555 1_555
H26 C31 1_555 1_555
C32 C30 1_555 1_555
C33 C2 1_555 1_555
H27 C33 1_555 1_555
H28 C33 1_555 1_555
C34 C44 1_555 1_555
C35 H29 1_555 1_555
C36 C12 1_555 1_555
C37 C28 1_555 1_555
H30 C37 1_555 1_555
H31 C37 1_555 1_555
C38 H32 1_555 1_555
H33 C38 1_555 1_555
C39 C9 1_555 1_555
H34 C39 1_555 1_555
H35 C39 1_555 1_555
C40 H36 1_555 1_555
C41 H37 1_555 1_555
C42 N6 1_555 1_555
H38 C42 1_555 1_555
H39 C42 1_555 1_555
C43 C29 1_555 1_555
H40 C43 1_555 1_555
H41 C43 1_555 1_555
C44 C1 1_555 1_555
H42 C44 1_555 1_555
C45 C6 1_555 1_555
H43 C45 1_555 1_555
C46 C30 1_555 1_555
C47 H44 1_555 1_555
C48 C38 1_555 1_555
H45 C48 1_555 1_555
H46 C48 1_555 1_555
C49 C125 1_555 1_555
C50 C25 1_555 1_555
C51 C46 1_555 1_555
C52 C4 1_555 1_555
H47 C52 1_555 1_555
C53 C35 1_555 1_555
C54 C60 1_555 1_555
C55 C32 1_555 1_555
C56 C3 1_555 1_555
C57 H48 1_555 1_555
C58 H49 1_555 1_555
H50 C58 1_555 1_555
H51 C58 1_555 1_555
C59 C32 1_555 1_555
H52 C59 1_555 1_555
C60 H53 1_555 1_555
C61 C37 1_555 1_555
H54 C61 1_555 1_555
H55 C61 1_555 1_555
C62 N6 1_555 1_555
H56 C62 1_555 1_555
H57 C62 1_555 1_555
C63 C100 1_555 1_555
C64 H58 1_555 1_555
H59 C64 1_555 1_555
H60 C64 1_555 1_555
C65 C73 1_555 1_555
C66 C47 1_555 1_555
C67 H61 1_555 1_555
C68 C66 1_555 1_555
H62 C68 1_555 1_555
C69 C50 1_555 1_555
C70 C23 1_555 1_555
H63 C70 1_555 1_555
H64 C70 1_555 1_555
H65 C70 1_555 1_555
C71 C73 1_555 1_555
C72 C51 1_555 1_555
H66 C72 1_555 1_555
C73 C83 1_555 1_555
C74 C15 1_555 1_555
H67 C74 1_555 1_555
C75 C59 1_555 1_555
C76 C77 1_555 1_555
C77 H68 1_555 1_555
C78 C77 1_555 1_555
H69 C78 1_555 1_555
C79 C78 1_555 1_555
C80 C79 1_555 1_555
H70 C80 1_555 1_555
C81 C76 1_555 1_555
H71 C81 1_555 1_555
C82 C52 1_555 1_555
C83 C56 1_555 1_555
H72 C83 1_555 1_555
C84 C55 1_555 1_555
H73 C84 1_555 1_555
C85 H74 1_555 1_555
H75 C85 1_555 1_555
C86 C10 1_555 1_555
H76 C86 1_555 1_555
C87 N4 1_555 1_555
H77 C87 1_555 1_555
H78 C87 1_555 1_555
C88 C65 1_555 1_555
C89 N5 1_555 1_555
H79 C89 1_555 1_555
C90 C61 1_555 1_555
H80 C90 1_555 1_555
H81 C90 1_555 1_555
H82 C90 1_555 1_555
C91 C22 1_555 1_555
C92 C65 1_555 1_555
H83 C92 1_555 1_555
H84 C92 1_555 1_555
C93 C40 1_555 1_555
H85 C93 1_555 1_555
C94 C34 1_555 1_555
C95 C17 1_555 1_555
H86 C95 1_555 1_555
C96 C71 1_555 1_555
H87 C96 1_555 1_555
C97 C35 1_555 1_555
H88 C97 1_555 1_555
C98 C39 1_555 1_555
H89 C98 1_555 1_555
H90 C98 1_555 1_555
C99 C22 1_555 1_555
H91 C99 1_555 1_555
C100 C41 1_555 1_555
C101 C85 1_555 1_555
H92 C101 1_555 1_555
H93 C101 1_555 1_555
H94 C101 1_555 1_555
C102 C27 1_555 1_555
C103 C65 1_555 1_555
H95 C103 1_555 1_555
H96 C103 1_555 1_555
C104 C23 1_555 1_555
H97 C104 1_555 1_555
H98 C104 1_555 1_555
C105 C29 1_555 1_555
H99 C105 1_555 1_555
H100 C105 1_555 1_555
H101 C105 1_555 1_555
C106 C24 1_555 1_555
H102 C106 1_555 1_555
H103 C106 1_555 1_555
C107 C79 1_555 1_555
C108 N2 1_555 1_555
H104 C108 1_555 1_555
C109 C53 1_555 1_555
H105 C109 1_555 1_555
C110 C56 1_555 1_555
H106 C110 1_555 1_555
C111 C85 1_555 1_555
H107 C111 1_555 1_555
H108 C111 1_555 1_555
N7 C14 1_555 1_555
N8 C114 1_555 1_555
C112 C76 1_555 1_555
H109 C112 1_555 1_555
C113 C31 1_555 1_555
H110 C113 1_555 1_555
H111 C113 1_555 1_555
C114 H112 1_555 1_555
C115 N1 1_555 1_555
H113 C115 1_555 1_555
H114 C115 1_555 1_555
C116 H115 1_555 1_555
C117 C19 1_555 1_555
C118 C117 1_555 1_555
H116 C118 1_555 1_555
C119 C118 1_555 1_555
H117 C119 1_555 1_555
C120 C7 1_555 1_555
C121 C116 1_555 1_555
H118 C121 1_555 1_555
C122 N8 1_555 1_555
H119 C122 1_555 1_555
H120 C122 1_555 1_555
C123 H121 1_555 1_555
C124 C123 1_555 1_555
H122 C124 1_555 1_555
C125 C124 1_555 1_555
C126 C125 1_555 1_555
H123 C126 1_555 1_555
C127 C126 1_555 1_555
H124 C127 1_555 1_555
C128 C114 1_555 1_555
C129 N1 1_555 1_555
H125 C129 1_555 1_555
H126 C129 1_555 1_555
C8 C21 1_555 1_555
C13 C21 1_555 1_555
C14 C115 1_555 1_555
C15 C36 1_555 1_555
C16 C18 1_555 1_555
C16 C25 1_555 1_555
C20 C42 1_555 1_555
C27 C99 1_555 1_555
C28 C30 1_555 1_555
C33 C43 1_555 1_555
C34 C45 1_555 1_555
C40 C91 1_555 1_555
C41 C46 1_555 1_555
C51 C55 1_555 1_555
C53 C69 1_555 1_555
C54 C97 1_555 1_555
C54 C108 1_555 1_555
C57 C72 1_555 1_555
C57 C100 1_555 1_555
C58 C98 1_555 1_555
C60 C109 1_555 1_555
C62 C87 1_555 1_555
C63 C102 1_555 1_555
C64 C106 1_555 1_555
C66 C95 1_555 1_555
C67 C75 1_555 1_555
C67 C84 1_555 1_555
C68 C74 1_555 1_555
C71 C82 1_555 1_555
C80 C81 1_555 1_555
C82 C88 1_555 1_555
C86 C88 1_555 1_555
C89 C91 1_555 1_555
C92 C111 1_555 1_555
C94 C107 1_555 1_555
C96 C110 1_555 1_555
C103 C104 1_555 1_555
N7 C112 1_555 1_555
C116 C117 1_555 1_555
C119 C120 1_555 1_555
C120 C121 1_555 1_555
C122 C129 1_555 1_555
C123 C128 1_555 1_555
C127 C128 1_555 1_555

#END
