
#######################################################################
#
#                 Cambridge Crystallographic Data Centre
#                                CCDC 
#
#######################################################################
#
# If this CIF has been generated from an entry in the Cambridge 
# Structural Database, then it will include bibliographic, chemical, 
# crystal, experimental, refinement or atomic coordinate data resulting 
# from the CCDC's data processing and validation procedures.
#
#######################################################################

data_BIXPUW
_chemical_formula_moiety         'C14 H15 N1 O2'
_chemical_name_systematic        
2a-ethyl-1-methyl-2a,5-dihydrobenzo[cd]indole-2,4(1H,3H)-dione
_symmetry_cell_setting           monoclinic
_symmetry_space_group_name_H-M   'P 21'
_symmetry_Int_Tables_number      4
_space_group_name_Hall           'P 2yb'
loop_
_symmetry_equiv_pos_site_id
_symmetry_equiv_pos_as_xyz
1 x,y,z
2 -x,1/2+y,-z
_cell_length_a                   7.2780(4)
_cell_length_b                   9.7955(5)
_cell_length_c                   8.5642(5)
_cell_angle_alpha                90
_cell_angle_beta                 105.325(6)
_cell_angle_gamma                90
_cell_volume                     588.846
_exptl_crystal_colour            white
_exptl_crystal_description       block
_cell_formula_units_Z            2
loop_
_atom_site_label
_atom_site_type_symbol
_atom_site_fract_x
_atom_site_fract_y
_atom_site_fract_z
C1 C 0.1812(5) 0.8672(3) 0.1292(4)
C2 C 0.2221(6) 0.8787(3) 0.3142(5)
H1 H 0.3399 0.9290 0.3548
H2 H 0.1208 0.9312 0.3397
C3 C 0.2388(5) 0.7448(3) 0.4011(4)
C4 C 0.2029(5) 0.7224(4) 0.5519(4)
H3 H 0.1741 0.7958 0.6102
C5 C 0.2099(5) 0.5930(4) 0.6141(4)
H4 H 0.1927 0.5812 0.7171
C6 C 0.2417(5) 0.4786(4) 0.5286(4)
H5 H 0.2409 0.3909 0.5702
C7 C 0.2746(4) 0.5013(3) 0.3793(3)
C8 C 0.2844(4) 0.6326(3) 0.3229(3)
C9 C 0.3132(5) 0.6305(3) 0.1574(3)
C10 C 0.1664(6) 0.7268(3) 0.0524(4)
H6 H 0.1880 0.7337 -0.0543
H7 H 0.0394 0.6905 0.0402
C11 C 0.5157(5) 0.6728(4) 0.1504(4)
H8 H 0.5249 0.6608 0.0403
H9 H 0.5322 0.7693 0.1758
C12 C 0.6774(5) 0.5954(5) 0.2630(5)
H10 H 0.6663 0.6021 0.3719
H11 H 0.7968 0.6338 0.2572
H12 H 0.6718 0.5012 0.2312
C13 C 0.2892(5) 0.4780(4) 0.1167(4)
C14 C 0.2775(6) 0.2626(4) 0.2697(5)
H13 H 0.2787 0.2218 0.1681
H14 H 0.1619 0.2382 0.2967
H15 H 0.3849 0.2303 0.3526
N1 N 0.2881(4) 0.4091(3) 0.2572(3)
O1 O 0.1612(5) 0.9688(3) 0.0481(4)
O2 O 0.2839(4) 0.4233(3) -0.0119(3)
loop_
_geom_bond_atom_site_label_1
_geom_bond_atom_site_label_2
_geom_bond_site_symmetry_1
_geom_bond_site_symmetry_2
C1 C2 1_555 1_555
C2 H1 1_555 1_555
H2 C2 1_555 1_555
C3 C2 1_555 1_555
C4 C3 1_555 1_555
H3 C4 1_555 1_555
C5 C4 1_555 1_555
H4 C5 1_555 1_555
C6 C5 1_555 1_555
H5 C6 1_555 1_555
C7 C6 1_555 1_555
C8 C3 1_555 1_555
C9 C8 1_555 1_555
C10 C1 1_555 1_555
H6 C10 1_555 1_555
H7 C10 1_555 1_555
C11 C9 1_555 1_555
H8 C11 1_555 1_555
H9 C11 1_555 1_555
C12 C11 1_555 1_555
H10 C12 1_555 1_555
H11 C12 1_555 1_555
H12 C12 1_555 1_555
C13 C9 1_555 1_555
C14 H13 1_555 1_555
H14 C14 1_555 1_555
H15 C14 1_555 1_555
N1 C7 1_555 1_555
O1 C1 1_555 1_555
O2 C13 1_555 1_555
C7 C8 1_555 1_555
C9 C10 1_555 1_555
C13 N1 1_555 1_555
C14 N1 1_555 1_555

#END
