
#######################################################################
#
#                 Cambridge Crystallographic Data Centre
#                                CCDC 
#
#######################################################################
#
# If this CIF has been generated from an entry in the Cambridge 
# Structural Database, then it will include bibliographic, chemical, 
# crystal, experimental, refinement or atomic coordinate data resulting 
# from the CCDC's data processing and validation procedures.
#
#######################################################################

data_BIXQAD
_chemical_formula_moiety         'C17 H12 F3 N1 O2'
_chemical_name_systematic        
2,4-diphenyl-2-(trifluoromethyl)-2,3-dihydro-6H-1,3-oxazin-6-one
_symmetry_cell_setting           monoclinic
_symmetry_space_group_name_H-M   'P 21/c'
_symmetry_Int_Tables_number      14
_space_group_name_Hall           '-P 2ybc'
loop_
_symmetry_equiv_pos_site_id
_symmetry_equiv_pos_as_xyz
1 x,y,z
2 -x,1/2+y,1/2-z
3 -x,-y,-z
4 x,1/2-y,1/2+z
_cell_length_a                   8.9252(2)
_cell_length_b                   19.7109(5)
_cell_length_c                   16.4090(5)
_cell_angle_alpha                90
_cell_angle_beta                 94.499(2)
_cell_angle_gamma                90
_cell_volume                     2877.84
_exptl_crystal_colour            colorless
_exptl_crystal_description       block
_cell_formula_units_Z            8
loop_
_atom_site_label
_atom_site_type_symbol
_atom_site_fract_x
_atom_site_fract_y
_atom_site_fract_z
F1 F 0.22045(10) 0.70627(4) 0.71812(6)
F2 F 0.33930(10) 0.80065(4) 0.73965(6)
F3 F 0.32099(11) 0.75634(5) 0.61947(6)
O1 O 0.59705(11) 0.74649(5) 0.69084(6)
O2 O 0.84067(12) 0.75848(5) 0.68066(7)
N1 N 0.47905(14) 0.63913(6) 0.67683(8)
H1 H 0.3942 0.6202 0.6628
C1 C 0.51120(15) 0.69438(7) 0.81347(9)
C2 C 0.60460(16) 0.53875(7) 0.63124(9)
C3 C 0.60963(16) 0.61039(7) 0.65840(9)
C4 C 0.73671(16) 0.71848(7) 0.68040(9)
C5 C 0.43232(17) 0.64426(7) 0.85230(9)
H2 H 0.3717 0.6138 0.8215
C6 C 0.60353(17) 0.73886(7) 0.85981(10)
H3 H 0.6566 0.7722 0.8342
C7 C 0.48629(16) 0.70267(7) 0.72084(9)
C8 C 0.44452(18) 0.63995(8) 0.93697(10)
H4 H 0.3911 0.6069 0.9629
C9 C 0.74019(17) 0.64706(7) 0.66573(9)
H5 H 0.8317 0.6254 0.6611
C10 C 0.68083(16) 0.51817(7) 0.56434(9)
H6 H 0.7333 0.5499 0.5357
C11 C 0.33963(17) 0.74211(7) 0.69893(10)
C12 C 0.52530(17) 0.49104(7) 0.67331(9)
H7 H 0.4732 0.5044 0.7175
C13 C 0.53620(18) 0.68481(8) 0.98308(10)
H8 H 0.5435 0.6821 1.0398
C14 C 0.67861(17) 0.45062(8) 0.54032(10)
H9 H 0.7292 0.4371 0.4956
C15 C 0.60073(18) 0.40323(8) 0.58323(11)
H10 H 0.6001 0.3579 0.5676
C16 C 0.61662(18) 0.73355(8) 0.94450(10)
H11 H 0.6798 0.7629 0.9754
C17 C 0.52392(19) 0.42349(8) 0.64930(10)
H12 H 0.4712 0.3917 0.6777
F4 F 0.18740(10) 0.38676(4) 0.91574(5)
F5 F 0.37409(10) 0.41455(5) 0.84689(6)
F6 F 0.26413(11) 0.49050(5) 0.91515(6)
O3 O 0.20075(11) 0.50495(5) 0.75526(6)
O4 O 0.18119(12) 0.57349(5) 0.64827(7)
N2 N 0.12165(13) 0.39102(6) 0.74258(7)
H13 H 0.1486 0.3516 0.7606
C18 C 0.06915(15) 0.40083(7) 0.66343(9)
C19 C 0.02130(15) 0.34081(7) 0.61420(9)
C20 C -0.02206(16) 0.47107(7) 0.82250(9)
C21 C 0.14650(16) 0.51864(7) 0.67579(9)
C22 C -0.02829(17) 0.28239(7) 0.65173(9)
H14 H -0.0326 0.2812 0.7082
C23 C 0.06575(16) 0.46545(7) 0.63281(9)
H15 H 0.0105 0.4748 0.5837
C24 C 0.13002(16) 0.44990(7) 0.79473(9)
C25 C -0.12654(16) 0.42132(7) 0.83781(9)
H16 H -0.1056 0.3760 0.8279
C26 C 0.24044(17) 0.43516(8) 0.86934(9)
C27 C 0.02445(17) 0.34179(8) 0.52919(9)
H17 H 0.0558 0.3807 0.5034
C28 C -0.07123(18) 0.22597(8) 0.60486(10)
H18 H -0.1042 0.1871 0.6301
C29 C -0.26214(17) 0.43923(8) 0.86792(10)
H19 H -0.3322 0.4059 0.8778
C30 C -0.06539(18) 0.22718(8) 0.52102(11)
H20 H -0.0929 0.1890 0.4901
C31 C -0.05395(19) 0.53862(8) 0.83783(10)
H21 H 0.0156 0.5721 0.8278
C32 C -0.01866(18) 0.28527(9) 0.48305(10)
H22 H -0.0162 0.2864 0.4265
C33 C -0.29334(19) 0.50664(9) 0.88330(10)
H23 H -0.3840 0.5185 0.9037
C34 C -0.1898(2) 0.55619(8) 0.86827(11)
H24 H -0.2110 0.6015 0.8785
loop_
_geom_bond_atom_site_label_1
_geom_bond_atom_site_label_2
_geom_bond_site_symmetry_1
_geom_bond_site_symmetry_2
F1 C11 1_555 1_555
F2 C11 1_555 1_555
F3 C11 1_555 1_555
O1 C4 1_555 1_555
O2 C4 1_555 1_555
N1 H1 1_555 1_555
C1 C5 1_555 1_555
C2 C3 1_555 1_555
C3 N1 1_555 1_555
C4 C9 1_555 1_555
C5 H2 1_555 1_555
C6 C1 1_555 1_555
H3 C6 1_555 1_555
C7 O1 1_555 1_555
C8 C5 1_555 1_555
H4 C8 1_555 1_555
C9 C3 1_555 1_555
H5 C9 1_555 1_555
C10 C2 1_555 1_555
H6 C10 1_555 1_555
C11 C7 1_555 1_555
C12 C2 1_555 1_555
H7 C12 1_555 1_555
C13 C8 1_555 1_555
H8 C13 1_555 1_555
C14 C10 1_555 1_555
H9 C14 1_555 1_555
C15 C14 1_555 1_555
H10 C15 1_555 1_555
C16 C6 1_555 1_555
H11 C16 1_555 1_555
C17 C12 1_555 1_555
H12 C17 1_555 1_555
F4 C26 1_555 1_555
F5 C26 1_555 1_555
F6 C26 1_555 1_555
O3 C21 1_555 1_555
O4 C21 1_555 1_555
N2 H13 1_555 1_555
C18 N2 1_555 1_555
C19 C18 1_555 1_555
C20 C24 1_555 1_555
C21 C23 1_555 1_555
C22 C19 1_555 1_555
H14 C22 1_555 1_555
C23 C18 1_555 1_555
H15 C23 1_555 1_555
C24 O3 1_555 1_555
C25 C20 1_555 1_555
H16 C25 1_555 1_555
C26 C24 1_555 1_555
C27 C19 1_555 1_555
H17 C27 1_555 1_555
C28 C22 1_555 1_555
H18 C28 1_555 1_555
C29 C25 1_555 1_555
H19 C29 1_555 1_555
C30 C28 1_555 1_555
H20 C30 1_555 1_555
C31 C20 1_555 1_555
H21 C31 1_555 1_555
C32 C27 1_555 1_555
H22 C32 1_555 1_555
C33 C29 1_555 1_555
H23 C33 1_555 1_555
C34 C31 1_555 1_555
H24 C34 1_555 1_555
N1 C7 1_555 1_555
C1 C7 1_555 1_555
C13 C16 1_555 1_555
C15 C17 1_555 1_555
N2 C24 1_555 1_555
C30 C32 1_555 1_555
C33 C34 1_555 1_555

#END
