
#######################################################################
#
#                 Cambridge Crystallographic Data Centre
#                                CCDC 
#
#######################################################################
#
# If this CIF has been generated from an entry in the Cambridge 
# Structural Database, then it will include bibliographic, chemical, 
# crystal, experimental, refinement or atomic coordinate data resulting 
# from the CCDC's data processing and validation procedures.
#
#######################################################################

data_BIXQIL
_chemical_formula_moiety         'C23 H17 Br1 O1'
_chemical_name_systematic        
3-bromo-2-phenyl-4,5-dihydro-3H,4'H-spiro[acenaphthylene-1,1'-cyclohexa[2,5]dien]-4'-one
_symmetry_cell_setting           monoclinic
_symmetry_space_group_name_H-M   'P 21/n'
_symmetry_Int_Tables_number      14
_space_group_name_Hall           '-P 2yn'
loop_
_symmetry_equiv_pos_site_id
_symmetry_equiv_pos_as_xyz
1 x,y,z
2 1/2-x,1/2+y,1/2-z
3 -x,-y,-z
4 1/2+x,1/2-y,1/2+z
_cell_length_a                   10.0190(14)
_cell_length_b                   9.9903(15)
_cell_length_c                   18.150(3)
_cell_angle_alpha                90
_cell_angle_beta                 99.875(2)
_cell_angle_gamma                90
_cell_volume                     1789.77
_exptl_crystal_colour            colorless
_exptl_crystal_description       block
_cell_formula_units_Z            4
loop_
_atom_site_label
_atom_site_type_symbol
_atom_site_fract_x
_atom_site_fract_y
_atom_site_fract_z
Br1 Br 0.55174(4) 0.66725(4) 0.06383(2)
O1 O 0.2755(4) 0.5247(4) 0.49088(17)
C1 C 0.4758(3) 0.8182(3) 0.11698(19)
H1 H 0.3855 0.8422 0.0903
C2 C 0.5706(4) 0.9386(4) 0.1198(2)
H2 H 0.5286 1.0145 0.1401
H3 H 0.5811 0.9612 0.0691
C3 C 0.7116(4) 0.9166(4) 0.1666(2)
H4 H 0.7631 0.8566 0.1402
H5 H 0.7593 1.0014 0.1733
C4 C 0.7024(3) 0.8581(4) 0.2420(2)
C5 C 0.8022(4) 0.8669(4) 0.3061(2)
H6 H 0.8835 0.9099 0.3032
C6 C 0.7825(4) 0.8133(4) 0.3733(2)
H7 H 0.8513 0.8198 0.4147
C7 C 0.6618(4) 0.7495(4) 0.38101(19)
H8 H 0.6491 0.7137 0.4266
C8 C 0.5620(3) 0.7414(3) 0.31861(17)
C9 C 0.5845(3) 0.7926(3) 0.25113(17)
C10 C 0.4667(3) 0.7705(3) 0.19357(17)
C11 C 0.3663(3) 0.7096(3) 0.22372(17)
C12 C 0.4173(3) 0.6857(3) 0.30831(17)
C13 C 0.3425(3) 0.7663(3) 0.35843(19)
H9 H 0.3243 0.8559 0.3469
C14 C 0.3016(4) 0.7152(4) 0.4181(2)
H10 H 0.2619 0.7715 0.4490
C15 C 0.3170(4) 0.5730(4) 0.4370(2)
C16 C 0.3794(4) 0.4895(4) 0.3867(2)
H11 H 0.3901 0.3985 0.3966
C17 C 0.4213(3) 0.5399(3) 0.32729(18)
H12 H 0.4554 0.4811 0.2954
C18 C 0.2311(3) 0.6686(3) 0.18538(18)
C19 C 0.1211(3) 0.6620(4) 0.2226(2)
H13 H 0.1344 0.6776 0.2738
C20 C -0.0078(4) 0.6329(4) 0.1850(2)
H14 H -0.0799 0.6291 0.2111
C21 C -0.0293(4) 0.6095(4) 0.1095(2)
H15 H -0.1164 0.5921 0.0841
C22 C 0.0775(4) 0.6117(4) 0.0713(2)
H16 H 0.0629 0.5950 0.0201
C23 C 0.2075(3) 0.6388(3) 0.10883(19)
H17 H 0.2798 0.6371 0.0828
loop_
_geom_bond_atom_site_label_1
_geom_bond_atom_site_label_2
_geom_bond_site_symmetry_1
_geom_bond_site_symmetry_2
Br1 C1 1_555 1_555
O1 C15 1_555 1_555
C1 H1 1_555 1_555
C2 C1 1_555 1_555
H2 C2 1_555 1_555
H3 C2 1_555 1_555
C3 C2 1_555 1_555
H4 C3 1_555 1_555
H5 C3 1_555 1_555
C4 C3 1_555 1_555
C5 C4 1_555 1_555
H6 C5 1_555 1_555
C6 C5 1_555 1_555
H7 C6 1_555 1_555
C7 C6 1_555 1_555
H8 C7 1_555 1_555
C8 C7 1_555 1_555
C9 C4 1_555 1_555
C10 C1 1_555 1_555
C11 C10 1_555 1_555
C12 C8 1_555 1_555
C13 C12 1_555 1_555
H9 C13 1_555 1_555
C14 C13 1_555 1_555
H10 C14 1_555 1_555
C15 C14 1_555 1_555
C16 C15 1_555 1_555
H11 C16 1_555 1_555
C17 C12 1_555 1_555
H12 C17 1_555 1_555
C18 C11 1_555 1_555
C19 C18 1_555 1_555
H13 C19 1_555 1_555
C20 C19 1_555 1_555
H14 C20 1_555 1_555
C21 C20 1_555 1_555
H15 C21 1_555 1_555
C22 C21 1_555 1_555
H16 C22 1_555 1_555
C23 C18 1_555 1_555
H17 C23 1_555 1_555
C8 C9 1_555 1_555
C9 C10 1_555 1_555
C11 C12 1_555 1_555
C16 C17 1_555 1_555
C22 C23 1_555 1_555

#END
