
#######################################################################
#
#                 Cambridge Crystallographic Data Centre
#                                CCDC 
#
#######################################################################
#
# If this CIF has been generated from an entry in the Cambridge 
# Structural Database, then it will include bibliographic, chemical, 
# crystal, experimental, refinement or atomic coordinate data resulting 
# from the CCDC's data processing and validation procedures.
#
#######################################################################

data_BIXXIQ
_chemical_name_common            
'Piperazine-1,4-diium bis(2-carboxy-6-nitrobenzoate)'
_chemical_formula_moiety         'C4 H12 N2 2+,2(C8 H4 N1 O6 1-)'
_chemical_name_systematic        
'Piperazine-1,4-diium bis(hydrogen-3-nitrophthalate)'
_symmetry_cell_setting           monoclinic
_symmetry_space_group_name_H-M   'P 21/c'
_symmetry_Int_Tables_number      14
_space_group_name_Hall           '-P 2ybc'
loop_
_symmetry_equiv_pos_site_id
_symmetry_equiv_pos_as_xyz
1 x,y,z
2 -x,1/2+y,1/2-z
3 -x,-y,-z
4 x,1/2-y,1/2+z
_cell_length_a                   13.176(3)
_cell_length_b                   11.096(2)
_cell_length_c                   7.5950(15)
_cell_angle_alpha                90
_cell_angle_beta                 97.14(3)
_cell_angle_gamma                90
_cell_volume                     1101.79
_exptl_crystal_colour            'pale yellow'
_exptl_crystal_description       block
_cell_formula_units_Z            2
loop_
_atom_site_label
_atom_site_type_symbol
_atom_site_fract_x
_atom_site_fract_y
_atom_site_fract_z
C1 C 0.17824(10) 0.58781(11) -0.18796(17)
C2 C 0.21057(9) 0.49178(11) -0.07504(15)
C3 C 0.14036(10) 0.40030(12) -0.06125(17)
C4 C 0.04162(11) 0.40195(14) -0.1498(2)
H1 H -0.0035 0.3394 -0.1349
C5 C 0.01151(11) 0.49698(14) -0.2595(2)
H2 H -0.0544 0.4996 -0.3195
C6 C 0.07960(11) 0.58838(13) -0.2799(2)
H3 H 0.0596 0.6518 -0.3564
C7 C 0.31786(9) 0.48778(11) 0.02643(16)
C8 C 0.24991(10) 0.68873(12) -0.21489(18)
N1 N 0.16966(10) 0.29538(12) 0.05164(17)
O1 O 0.23579(11) 0.30705(12) 0.17680(19)
O2 O 0.12609(14) 0.20061(12) 0.0141(2)
O3 O 0.33216(8) 0.55523(9) 0.16342(13)
O4 O 0.38197(8) 0.42169(9) -0.02641(14)
O5 O 0.20405(8) 0.78836(10) -0.27052(18)
H4 H 0.253(2) 0.848(2) -0.293(3)
O6 O 0.34210(8) 0.67825(10) -0.18719(17)
C9 C 0.48365(14) 0.38187(15) 0.4236(2)
H5 H 0.5421 0.3373 0.4805
H6 H 0.4427 0.3277 0.3437
C10 C 0.42113(12) 0.42808(16) 0.5614(2)
H7 H 0.4010 0.3613 0.6319
H8 H 0.3595 0.4662 0.5038
N2 N 0.51925(10) 0.48410(14) 0.32221(16)
H9 H 0.5563(16) 0.4554(19) 0.246(3)
H10 H 0.4614(17) 0.527(2) 0.263(3)
C9B C 0.51635(14) 0.61813(15) 0.5764(2)
H5B H 0.4579 0.6627 0.5195
H6B H 0.5573 0.6723 0.6563
C10B C 0.57887(12) 0.57192(16) 0.4386(2)
H7B H 0.5990 0.6387 0.3681
H8B H 0.6405 0.5338 0.4962
N2B N 0.48075(10) 0.51590(14) 0.67779(16)
H9B H 0.4437(16) 0.5446(19) 0.754(3)
H10B H 0.5386(17) 0.473(2) 0.737(3)
loop_
_geom_bond_atom_site_label_1
_geom_bond_atom_site_label_2
_geom_bond_site_symmetry_1
_geom_bond_site_symmetry_2
C1 C2 1_555 1_555
C2 C3 1_555 1_555
C3 C4 1_555 1_555
C4 H1 1_555 1_555
C5 C4 1_555 1_555
H2 C5 1_555 1_555
C6 C1 1_555 1_555
H3 C6 1_555 1_555
C7 C2 1_555 1_555
C8 C1 1_555 1_555
N1 C3 1_555 1_555
O1 N1 1_555 1_555
O2 N1 1_555 1_555
O3 C7 1_555 1_555
O4 C7 1_555 1_555
O5 C8 1_555 1_555
H4 O5 1_555 1_555
O6 C8 1_555 1_555
C9 H5 1_555 1_555
H6 C9 1_555 1_555
C10 C9 1_555 1_555
H7 C10 1_555 1_555
H8 C10 1_555 1_555
N2 C9 1_555 1_555
H9 N2 1_555 1_555
H10 N2 1_555 1_555
C9B H5B 1_555 1_555
H6B C9B 1_555 1_555
C10B N2 1_555 1_555
H7B C10B 1_555 1_555
H8B C10B 1_555 1_555
N2B C10 1_555 1_555
H9B N2B 1_555 1_555
H10B N2B 1_555 1_555
C5 C6 1_555 1_555
C9B C10B 1_555 1_555
C9B N2B 1_555 1_555

#END
