
#######################################################################
#
#                 Cambridge Crystallographic Data Centre
#                                CCDC 
#
#######################################################################
#
# If this CIF has been generated from an entry in the Cambridge 
# Structural Database, then it will include bibliographic, chemical, 
# crystal, experimental, refinement or atomic coordinate data resulting 
# from the CCDC's data processing and validation procedures.
#
#######################################################################

data_BIXXUE
_chemical_formula_moiety         'C24 H29 N3'
_chemical_name_systematic        
1-(3,5-dimethyl-1H-pyrazol-1-yl)-N-[2,6-bis(propan-2-yl)phenyl]-1-phenylmethanimine
_symmetry_cell_setting           triclinic
_symmetry_space_group_name_H-M   'P -1'
_symmetry_Int_Tables_number      2
_space_group_name_Hall           '-P 1'
loop_
_symmetry_equiv_pos_site_id
_symmetry_equiv_pos_as_xyz
1 x,y,z
2 -x,-y,-z
_cell_length_a                   9.6621(9)
_cell_length_b                   10.4624(10)
_cell_length_c                   12.2030(11)
_cell_angle_alpha                69.765(2)
_cell_angle_beta                 89.328(2)
_cell_angle_gamma                65.5770(10)
_cell_volume                     1041.36
_exptl_crystal_colour            yellow
_exptl_crystal_description       block
_cell_formula_units_Z            2
loop_
_atom_site_label
_atom_site_type_symbol
_atom_site_fract_x
_atom_site_fract_y
_atom_site_fract_z
N1 N 0.33726(17) 0.28272(17) 0.06464(13)
N2 N 0.28247(17) 0.37968(18) -0.05166(13)
N3 N 0.50596(18) 0.22206(17) 0.22433(14)
C1 C 0.3501(2) 0.1401(2) 0.08288(17)
C2 C 0.3029(2) 0.1473(2) -0.02501(18)
H1 H 0.2981 0.0693 -0.0424
C3 C 0.2626(2) 0.2969(2) -0.10519(17)
C4 C 0.3970(3) 0.0143(2) 0.20041(19)
H2 H 0.3974 -0.0736 0.1916
H3 H 0.3257 0.0441 0.2523
H4 H 0.4983 -0.0090 0.2332
C5 C 0.2076(3) 0.3632(3) -0.23502(19)
H5 H 0.1887 0.4677 -0.2660
H6 H 0.1142 0.3558 -0.2493
H7 H 0.2846 0.3088 -0.2733
C6 C 0.39831(19) 0.3280(2) 0.14194(15)
C7 C 0.3271(2) 0.4938(2) 0.11720(16)
C8 C 0.4223(2) 0.5621(2) 0.12111(17)
H8 H 0.5286 0.5059 0.1345
C9 C 0.3592(2) 0.7138(2) 0.1051(2)
H9 H 0.4230 0.7600 0.1059
C10 C 0.2011(2) 0.7967(2) 0.0879(2)
H10 H 0.1586 0.8976 0.0800
C11 C 0.1064(2) 0.7289(2) 0.08241(19)
H11 H 0.0001 0.7853 0.0692
C12 C 0.1679(2) 0.5781(2) 0.09634(17)
H12 H 0.1037 0.5334 0.0918
C13 C 0.5662(2) 0.2440(2) 0.31873(16)
C14 C 0.7236(2) 0.2118(2) 0.32978(18)
C15 C 0.7886(3) 0.2149(3) 0.4292(2)
H13 H 0.8918 0.1950 0.4376
C16 C 0.7028(3) 0.2469(3) 0.5157(2)
H14 H 0.7487 0.2474 0.5821
C17 C 0.5491(3) 0.2782(3) 0.50376(19)
H15 H 0.4924 0.3006 0.5623
C18 C 0.4766(2) 0.2771(2) 0.40604(17)
C19 C 0.3096(2) 0.3046(2) 0.40040(18)
H16 H 0.2750 0.3132 0.3219
C20 C 0.2081(3) 0.4540(3) 0.4152(2)
H17 H 0.2213 0.5356 0.3567
H18 H 0.2374 0.4473 0.4926
H19 H 0.1023 0.4724 0.4057
C21 C 0.2909(3) 0.1724(3) 0.4916(2)
H20 H 0.3549 0.0806 0.4805
H21 H 0.1853 0.1898 0.4823
H22 H 0.3206 0.1637 0.5696
C22 C 0.8177(2) 0.1730(2) 0.23502(19)
H23 H 0.7527 0.2392 0.1581
C23 C 0.8604(3) 0.0089(3) 0.2494(2)
H24 H 0.7688 -0.0060 0.2497
H25 H 0.9283 -0.0589 0.3226
H26 H 0.9109 -0.0110 0.1849
C24 C 0.9633(3) 0.1974(3) 0.2333(2)
H27 H 0.9363 0.3005 0.2232
H28 H 1.0137 0.1766 0.1690
H29 H 1.0314 0.1306 0.3065
loop_
_geom_bond_atom_site_label_1
_geom_bond_atom_site_label_2
_geom_bond_site_symmetry_1
_geom_bond_site_symmetry_2
N1 N2 1_555 1_555
N2 C3 1_555 1_555
N3 C6 1_555 1_555
C1 N1 1_555 1_555
C2 C1 1_555 1_555
H1 C2 1_555 1_555
C3 C2 1_555 1_555
C4 C1 1_555 1_555
H2 C4 1_555 1_555
H3 C4 1_555 1_555
H4 C4 1_555 1_555
C5 C3 1_555 1_555
H5 C5 1_555 1_555
H6 C5 1_555 1_555
H7 C5 1_555 1_555
C6 N1 1_555 1_555
C7 C6 1_555 1_555
C8 C7 1_555 1_555
H8 C8 1_555 1_555
C9 C8 1_555 1_555
H9 C9 1_555 1_555
C10 C9 1_555 1_555
H10 C10 1_555 1_555
C11 C10 1_555 1_555
H11 C11 1_555 1_555
C12 C7 1_555 1_555
H12 C12 1_555 1_555
C13 N3 1_555 1_555
C14 C13 1_555 1_555
C15 C14 1_555 1_555
H13 C15 1_555 1_555
C16 C15 1_555 1_555
H14 C16 1_555 1_555
C17 C16 1_555 1_555
H15 C17 1_555 1_555
C18 C13 1_555 1_555
C19 C18 1_555 1_555
H16 C19 1_555 1_555
C20 C19 1_555 1_555
H17 C20 1_555 1_555
H18 C20 1_555 1_555
H19 C20 1_555 1_555
C21 C19 1_555 1_555
H20 C21 1_555 1_555
H21 C21 1_555 1_555
H22 C21 1_555 1_555
C22 C14 1_555 1_555
H23 C22 1_555 1_555
C23 C22 1_555 1_555
H24 C23 1_555 1_555
H25 C23 1_555 1_555
H26 C23 1_555 1_555
C24 C22 1_555 1_555
H27 C24 1_555 1_555
H28 C24 1_555 1_555
H29 C24 1_555 1_555
C11 C12 1_555 1_555
C17 C18 1_555 1_555

#END
