
#######################################################################
#
#                 Cambridge Crystallographic Data Centre
#                                CCDC 
#
#######################################################################
#
# If this CIF has been generated from an entry in the Cambridge 
# Structural Database, then it will include bibliographic, chemical, 
# crystal, experimental, refinement or atomic coordinate data resulting 
# from the CCDC's data processing and validation procedures.
#
#######################################################################

data_BIXYAJ
_chemical_formula_moiety         'C75 H68 N24 O3,0.7(C1 H1 Cl3),C1 H4 O1'
_chemical_name_systematic        
'4,6-bis(1-methyl-2-((6-((2-methyl-2-(6-(1-methyl-2-(pyridin-2-ylmethylidene)hydrazinyl)-2-phenylpyrimidin-4-yl)hydrazinylidene)methyl)-2-phenylpyrimidin-4-yl)methylidene)hydrazinyl)-2-(3,4,5-trimethoxyphenyl)pyrimidine chloroform methanol solvate'
_symmetry_cell_setting           triclinic
_symmetry_space_group_name_H-M   'P -1'
_symmetry_Int_Tables_number      2
_space_group_name_Hall           '-P 1'
loop_
_symmetry_equiv_pos_site_id
_symmetry_equiv_pos_as_xyz
1 x,y,z
2 -x,-y,-z
_cell_length_a                   10.42510(10)
_cell_length_b                   12.02160(10)
_cell_length_c                   30.0920(5)
_cell_angle_alpha                91.460(5)
_cell_angle_beta                 91.446(5)
_cell_angle_gamma                102.661(5)
_cell_volume                     3676.59
_exptl_crystal_colour            yellow
_exptl_crystal_description       prism
_cell_formula_units_Z            2
loop_
_atom_site_label
_atom_site_type_symbol
_atom_site_fract_x
_atom_site_fract_y
_atom_site_fract_z
C1 C 0.0417(3) 0.3284(2) 0.17851(11)
C2 C 0.1162(4) 0.3416(3) 0.10714(14)
H1 H 0.1066 0.3632 0.0773
C3 C 0.2208(4) 0.2937(3) 0.11831(17)
H2 H 0.2823 0.2833 0.0967
C4 C 0.2344(3) 0.2614(3) 0.16096(15)
H3 H 0.3059 0.2283 0.1693
C5 C 0.1440(3) 0.2770(2) 0.19206(13)
H4 H 0.1509 0.2534 0.2218
C6 C -0.0523(3) 0.3556(2) 0.21034(11)
H5 H -0.1205 0.3913 0.2008
C7 C -0.2210(3) 0.4236(2) 0.27015(11)
H6 H -0.1788 0.4987 0.2594
H7 H -0.2717 0.4331 0.2964
H8 H -0.2800 0.3809 0.2467
C8 C -0.0938(2) 0.3365(2) 0.32532(10)
C9 C -0.1253(2) 0.3643(2) 0.39894(11)
C10 C 0.0111(2) 0.2484(2) 0.38001(10)
C11 C -0.0078(2) 0.2658(2) 0.33565(11)
H9 H 0.0351 0.2318 0.3132
C12 C -0.1865(3) 0.4203(2) 0.43501(11)
C13 C -0.2895(3) 0.4736(3) 0.42461(12)
H10 H -0.3215 0.4727 0.3947
C14 C -0.3448(4) 0.5278(3) 0.45783(14)
H11 H -0.4149 0.5638 0.4507
C15 C -0.2985(4) 0.5298(3) 0.50129(14)
H12 H -0.3350 0.5688 0.5239
C16 C -0.1999(4) 0.4754(4) 0.51158(14)
H13 H -0.1685 0.4757 0.5415
C17 C -0.1457(4) 0.4199(3) 0.47848(13)
H14 H -0.0787 0.3809 0.4862
C18 C 0.1179(3) 0.1600(3) 0.44141(12)
H15 H 0.0782 0.0812 0.4487
H16 H 0.0798 0.2125 0.4597
H17 H 0.2131 0.1750 0.4474
C19 C 0.2128(3) 0.0490(2) 0.37091(10)
H18 H 0.2390 0.0381 0.4007
C20 C 0.2550(2) -0.0126(2) 0.33325(10)
C21 C 0.3755(2) -0.1389(2) 0.30875(10)
C22 C 0.2625(2) -0.0602(2) 0.25652(10)
C23 C 0.2156(2) 0.0006(2) 0.28998(10)
H19 H 0.1582 0.0496 0.2833
C24 C 0.4662(2) -0.2154(2) 0.31896(10)
C25 C 0.5241(2) -0.2141(2) 0.36078(11)
H20 H 0.5021 -0.1673 0.3840
C26 C 0.6150(3) -0.2813(2) 0.36892(11)
H21 H 0.6541 -0.2808 0.3978
C27 C 0.6485(3) -0.3486(2) 0.33519(12)
H22 H 0.7129 -0.3920 0.3405
C28 C 0.5884(3) -0.3526(2) 0.29400(12)
H23 H 0.6100 -0.4005 0.2710
C29 C 0.4962(3) -0.2873(2) 0.28542(11)
H24 H 0.4538 -0.2915 0.2569
C30 C 0.2261(2) -0.0542(2) 0.20983(10)
H25 H 0.2750 -0.0800 0.1870
C31 C 0.1607(3) -0.0272(3) 0.12070(11)
H26 H 0.2517 0.0163 0.1244
H27 H 0.1213 -0.0051 0.0933
H28 H 0.1596 -0.1089 0.1189
C32 C -0.0313(2) 0.0347(2) 0.15402(10)
C33 C -0.1786(2) 0.0932(2) 0.10861(10)
C34 C -0.2204(2) 0.0820(2) 0.18222(10)
C35 C -0.1044(2) 0.0468(2) 0.19090(9)
H29 H -0.0771 0.0320 0.2201
C36 C -0.2136(2) 0.1239(2) 0.06319(10)
C37 C -0.3420(3) 0.1298(3) 0.05191(11)
H30 H -0.4092 0.1116 0.0730
C38 C -0.3712(3) 0.1623(3) 0.00983(12)
C39 C -0.2726(3) 0.1910(3) -0.02126(11)
C40 C -0.1442(3) 0.1842(2) -0.00961(10)
C41 C -0.1157(3) 0.1487(2) 0.03223(10)
H31 H -0.0290 0.1414 0.0397
C42 C -0.5993(3) 0.1366(4) 0.02508(14)
H32 H -0.6024 0.0587 0.0346
H33 H -0.6830 0.1398 0.0102
H34 H -0.5840 0.1890 0.0511
C43 C -0.2760(4) 0.3428(3) -0.06824(14)
H35 H -0.3213 0.3777 -0.0454
H36 H -0.3071 0.3599 -0.0978
H37 H -0.1810 0.3737 -0.0649
C44 C 0.0768(3) 0.2007(3) -0.03150(13)
H38 H 0.1134 0.2486 -0.0054
H39 H 0.1323 0.2233 -0.0570
H40 H 0.0739 0.1206 -0.0253
C45 C -0.4279(3) 0.1273(3) 0.20932(11)
H41 H -0.4987 0.0713 0.2223
H42 H -0.4454 0.1300 0.1773
H43 H -0.4238 0.2027 0.2232
C46 C -0.3287(2) 0.0826(2) 0.29196(10)
H44 H -0.4048 0.1135 0.2892
C47 C -0.2845(2) 0.0516(2) 0.33563(10)
C48 C -0.3035(2) 0.0657(2) 0.41082(10)
C49 C -0.1681(2) -0.0449(2) 0.38416(10)
C50 C -0.1953(2) -0.0180(2) 0.34118(10)
H45 H -0.1550 -0.0457 0.3165
C51 C -0.3611(3) 0.1129(2) 0.44977(10)
C52 C -0.4506(3) 0.1822(3) 0.44299(11)
H46 H -0.4758 0.1982 0.4137
C53 C -0.5027(3) 0.2274(3) 0.47946(13)
H47 H -0.5631 0.2751 0.4749
C54 C -0.4682(4) 0.2044(3) 0.52203(12)
H48 H -0.5038 0.2369 0.5467
C55 C -0.3817(3) 0.1338(3) 0.52899(12)
H49 H -0.3591 0.1163 0.5584
C56 C -0.3279(3) 0.0888(3) 0.49287(11)
H50 H -0.2677 0.0410 0.4977
C57 C -0.0866(3) -0.1261(2) 0.39569(10)
H51 H -0.0658 -0.1382 0.4258
C58 C 0.0555(4) -0.2859(3) 0.41878(12)
H52 H 0.1041 -0.2167 0.4347
H53 H 0.1089 -0.3436 0.4186
H54 H -0.0269 -0.3155 0.4337
C59 C 0.0662(2) -0.3139(2) 0.33650(10)
C60 C 0.1877(2) -0.4340(2) 0.30951(11)
C61 C 0.0786(2) -0.3473(2) 0.25977(10)
C62 C 0.0263(2) -0.2933(2) 0.29408(10)
H55 H -0.0331 -0.2452 0.2886
C63 C 0.2729(2) -0.5171(2) 0.31839(11)
C64 C 0.3108(3) -0.5379(3) 0.36095(12)
H56 H 0.2837 -0.4983 0.3855
C65 C 0.3881(3) -0.6162(3) 0.36833(13)
H57 H 0.4136 -0.6299 0.3979
C66 C 0.4285(3) -0.6745(3) 0.33316(13)
H58 H 0.4813 -0.7284 0.3383
C67 C 0.3918(3) -0.6539(3) 0.29070(13)
H59 H 0.4198 -0.6933 0.2663
C68 C 0.3139(3) -0.5757(2) 0.28297(12)
H60 H 0.2886 -0.5623 0.2534
C69 C 0.1230(3) -0.3617(3) 0.17918(11)
H61 H 0.0688 -0.4230 0.1604
H62 H 0.1998 -0.3870 0.1911
H63 H 0.1522 -0.2942 0.1614
C70 C -0.1067(3) -0.2820(2) 0.16896(11)
H64 H -0.0589 -0.3002 0.1444
C71 C -0.2289(3) -0.2420(2) 0.16154(11)
C72 C -0.4140(3) -0.1709(2) 0.18566(12)
H65 H -0.4639 -0.1466 0.2085
C73 C -0.4545(3) -0.1715(3) 0.14197(13)
H66 H -0.5322 -0.1467 0.1340
C74 C -0.3812(3) -0.2084(3) 0.11002(13)
H67 H -0.4111 -0.2097 0.0799
C75 C -0.2983(3) -0.2065(2) 0.19618(11)
H68 H -0.2677 -0.2065 0.2262
N1 N 0.0266(3) 0.3593(2) 0.13671(10)
N2 N -0.0409(2) 0.33064(18) 0.25102(9)
N3 N -0.1204(2) 0.36110(18) 0.28189(9)
N4 N -0.1542(2) 0.38494(18) 0.35706(9)
N5 N -0.0442(2) 0.29786(18) 0.41264(9)
N6 N 0.0921(2) 0.17661(19) 0.39474(9)
N7 N 0.1385(2) 0.11866(18) 0.36178(8)
N8 N 0.3347(2) -0.08416(17) 0.34355(8)
N9 N 0.3458(2) -0.12887(17) 0.26598(9)
N10 N 0.1256(2) -0.01298(18) 0.20065(8)
N11 N 0.0859(2) -0.00345(18) 0.15845(8)
N12 N -0.0660(2) 0.05707(18) 0.11263(8)
N13 N -0.2591(2) 0.10648(18) 0.14158(8)
N14 N -0.3033(2) 0.09444(18) 0.21701(8)
N15 N -0.2638(2) 0.06756(17) 0.25759(8)
N16 N -0.3401(2) 0.09286(17) 0.37040(8)
N17 N -0.2200(2) -0.00269(18) 0.41986(8)
N18 N -0.0444(2) -0.18029(18) 0.36393(8)
N19 N 0.0266(2) -0.25933(19) 0.37359(9)
N20 N 0.1445(2) -0.38667(18) 0.34555(9)
N21 N 0.1614(2) -0.41627(18) 0.26710(9)
N22 N 0.0459(2) -0.3334(2) 0.21578(9)
N23 N -0.0653(2) -0.29216(18) 0.20856(9)
N24 N -0.2690(2) -0.2431(2) 0.11883(10)
O1 O -0.4939(2) 0.1693(2) -0.00534(9)
O2 O -0.3031(2) 0.22240(19) -0.06336(8)
O3 O -0.05375(19) 0.21502(19) -0.04148(7)
C76 C -0.4017(5) 0.4721(4) 0.1219(2)
H69 H -0.3152 0.5280 0.1215
Cl1 Cl -0.37062(16) 0.33727(11) 0.13075(6)
Cl2 Cl -0.49040(17) 0.51263(13) 0.16443(7)
Cl3 Cl -0.48161(17) 0.47289(15) 0.06959(7)
C77 C -0.1361(7) 0.4721(5) 0.0477(2)
H70 H -0.1910 0.5190 0.0339
H71 H -0.1836 0.3921 0.0467
H72 H -0.0544 0.4795 0.0315
O4 O -0.1072(4) 0.5080(3) 0.09085(17)
C78? C -0.2018(10) 0.4360(9) 0.1100(5)
H73? H -0.2792 0.4167 0.0898
H74? H -0.2250 0.4712 0.1375
H75? H -0.1717 0.3665 0.1169
loop_
_geom_bond_atom_site_label_1
_geom_bond_atom_site_label_2
_geom_bond_site_symmetry_1
_geom_bond_site_symmetry_2
C1 C5 1_555 1_555
C2 H1 1_555 1_555
C3 C2 1_555 1_555
H2 C3 1_555 1_555
C4 C3 1_555 1_555
H3 C4 1_555 1_555
C5 C4 1_555 1_555
H4 C5 1_555 1_555
C6 C1 1_555 1_555
H5 C6 1_555 1_555
C7 H6 1_555 1_555
H7 C7 1_555 1_555
H8 C7 1_555 1_555
C8 C11 1_555 1_555
C9 C12 1_555 1_555
C10 C11 1_555 1_555
C11 H9 1_555 1_555
C12 C13 1_555 1_555
C13 H10 1_555 1_555
C14 C13 1_555 1_555
H11 C14 1_555 1_555
C15 C14 1_555 1_555
H12 C15 1_555 1_555
C16 C15 1_555 1_555
H13 C16 1_555 1_555
C17 C12 1_555 1_555
H14 C17 1_555 1_555
C18 H15 1_555 1_555
H16 C18 1_555 1_555
H17 C18 1_555 1_555
C19 H18 1_555 1_555
C20 C19 1_555 1_555
C21 C24 1_555 1_555
C22 C23 1_555 1_555
C23 C20 1_555 1_555
H19 C23 1_555 1_555
C24 C25 1_555 1_555
C25 H20 1_555 1_555
C26 C25 1_555 1_555
H21 C26 1_555 1_555
C27 C26 1_555 1_555
H22 C27 1_555 1_555
C28 C27 1_555 1_555
H23 C28 1_555 1_555
C29 C24 1_555 1_555
H24 C29 1_555 1_555
C30 C22 1_555 1_555
H25 C30 1_555 1_555
C31 H26 1_555 1_555
H27 C31 1_555 1_555
H28 C31 1_555 1_555
C32 C35 1_555 1_555
C33 C36 1_555 1_555
C34 C35 1_555 1_555
C35 H29 1_555 1_555
C36 C37 1_555 1_555
C37 H30 1_555 1_555
C38 C37 1_555 1_555
C39 C38 1_555 1_555
C40 C39 1_555 1_555
C41 C36 1_555 1_555
H31 C41 1_555 1_555
C42 H32 1_555 1_555
H33 C42 1_555 1_555
H34 C42 1_555 1_555
C43 H35 1_555 1_555
H36 C43 1_555 1_555
H37 C43 1_555 1_555
C44 H38 1_555 1_555
H39 C44 1_555 1_555
H40 C44 1_555 1_555
C45 H41 1_555 1_555
H42 C45 1_555 1_555
H43 C45 1_555 1_555
C46 H44 1_555 1_555
C47 C46 1_555 1_555
C48 C51 1_555 1_555
C49 C50 1_555 1_555
C50 C47 1_555 1_555
H45 C50 1_555 1_555
C51 C52 1_555 1_555
C52 H46 1_555 1_555
C53 C52 1_555 1_555
H47 C53 1_555 1_555
C54 C53 1_555 1_555
H48 C54 1_555 1_555
C55 C54 1_555 1_555
H49 C55 1_555 1_555
C56 C51 1_555 1_555
H50 C56 1_555 1_555
C57 C49 1_555 1_555
H51 C57 1_555 1_555
C58 H52 1_555 1_555
H53 C58 1_555 1_555
H54 C58 1_555 1_555
C59 C62 1_555 1_555
C60 C63 1_555 1_555
C61 C62 1_555 1_555
C62 H55 1_555 1_555
C63 C64 1_555 1_555
C64 H56 1_555 1_555
C65 C64 1_555 1_555
H57 C65 1_555 1_555
C66 C65 1_555 1_555
H58 C66 1_555 1_555
C67 C66 1_555 1_555
H59 C67 1_555 1_555
C68 C63 1_555 1_555
H60 C68 1_555 1_555
C69 H61 1_555 1_555
H62 C69 1_555 1_555
H63 C69 1_555 1_555
C70 H64 1_555 1_555
C71 C70 1_555 1_555
C72 H65 1_555 1_555
C73 C72 1_555 1_555
H66 C73 1_555 1_555
C74 C73 1_555 1_555
H67 C74 1_555 1_555
C75 C71 1_555 1_555
H68 C75 1_555 1_555
N1 C1 1_555 1_555
N2 C6 1_555 1_555
N3 C7 1_555 1_555
N4 C8 1_555 1_555
N5 C9 1_555 1_555
N6 C10 1_555 1_555
N7 C19 1_555 1_555
N8 C20 1_555 1_555
N9 C21 1_555 1_555
N10 C30 1_555 1_555
N11 C31 1_555 1_555
N12 C32 1_555 1_555
N13 C33 1_555 1_555
N14 C34 1_555 1_555
N15 C46 1_555 1_555
N16 C47 1_555 1_555
N17 C48 1_555 1_555
N18 C57 1_555 1_555
N19 C58 1_555 1_555
N20 C59 1_555 1_555
N21 C60 1_555 1_555
N22 C61 1_555 1_555
N23 C70 1_555 1_555
N24 C71 1_555 1_555
O1 C38 1_555 1_555
O2 C39 1_555 1_555
O3 C40 1_555 1_555
C76 H69 1_555 1_555
Cl1 C76 1_555 1_555
Cl2 C76 1_555 1_555
Cl3 C76 1_555 1_555
C77 H70 1_555 1_555
H71 C77 1_555 1_555
H72 C77 1_555 1_555
O4 C77 1_555 1_555
C2 N1 1_555 1_555
C8 N3 1_555 1_555
C9 N4 1_555 1_555
C10 N5 1_555 1_555
C16 C17 1_555 1_555
C18 N6 1_555 1_555
C21 N8 1_555 1_555
C22 N9 1_555 1_555
C28 C29 1_555 1_555
C32 N11 1_555 1_555
C33 N12 1_555 1_555
C34 N13 1_555 1_555
C40 C41 1_555 1_555
C42 O1 1_555 1_555
C43 O2 1_555 1_555
C44 O3 1_555 1_555
C45 N14 1_555 1_555
C48 N16 1_555 1_555
C49 N17 1_555 1_555
C55 C56 1_555 1_555
C59 N19 1_555 1_555
C60 N20 1_555 1_555
C61 N21 1_555 1_555
C67 C68 1_555 1_555
C69 N22 1_555 1_555
C72 C75 1_555 1_555
C74 N24 1_555 1_555
N2 N3 1_555 1_555
N6 N7 1_555 1_555
N10 N11 1_555 1_555
N14 N15 1_555 1_555
N18 N19 1_555 1_555
N22 N23 1_555 1_555

#END
