
#######################################################################
#
#                 Cambridge Crystallographic Data Centre
#                                CCDC 
#
#######################################################################
#
# If this CIF has been generated from an entry in the Cambridge 
# Structural Database, then it will include bibliographic, chemical, 
# crystal, experimental, refinement or atomic coordinate data resulting 
# from the CCDC's data processing and validation procedures.
#
#######################################################################

data_BIYBET
_chemical_formula_moiety         'C25 H23 N1 O3 S2'
_chemical_name_systematic        
4-(1,3-benzothiazol-2-yl)-5-[(4-methylphenyl)sulfonyl]-1-phenylpentan-1-one
_symmetry_cell_setting           monoclinic
_symmetry_space_group_name_H-M   'P 21/c'
_symmetry_Int_Tables_number      14
_space_group_name_Hall           '-P 2ybc'
loop_
_symmetry_equiv_pos_site_id
_symmetry_equiv_pos_as_xyz
1 x,y,z
2 -x,1/2+y,1/2-z
3 -x,-y,-z
4 x,1/2-y,1/2+z
_cell_length_a                   15.9912(12)
_cell_length_b                   5.7502(5)
_cell_length_c                   24.108(2)
_cell_angle_alpha                90
_cell_angle_beta                 98.048(2)
_cell_angle_gamma                90
_cell_volume                     2194.96
_exptl_crystal_description       block
_cell_formula_units_Z            4
loop_
_atom_site_label
_atom_site_type_symbol
_atom_site_fract_x
_atom_site_fract_y
_atom_site_fract_z
N1 N 0.27376(13) 0.3410(4) 0.36658(9)
O1 O 0.22864(14) 0.7568(5) 0.53832(10)
O2 O 0.46097(13) -0.1817(4) 0.42586(8)
O3 O 0.56892(11) 0.1040(4) 0.40771(8)
S1 S 0.21987(5) -0.05908(15) 0.39472(3)
S2 S 0.48146(5) 0.04258(16) 0.40544(3)
C1 C 0.28417(16) 0.1837(5) 0.40529(11)
C2 C 0.21206(17) 0.2703(6) 0.32329(11)
C3 C 0.17560(17) 0.0551(6) 0.33166(11)
C4 C 0.11240(19) -0.0360(6) 0.29155(14)
H1 H 0.0870 -0.1779 0.2972
C5 C 0.0892(2) 0.0895(9) 0.24400(16)
H2 H 0.0477 0.0310 0.2167
C6 C 0.1259(2) 0.3024(9) 0.23538(14)
H3 H 0.1086 0.3839 0.2025
C7 C 0.18732(19) 0.3948(6) 0.27463(13)
H4 H 0.2117 0.5378 0.2687
C8 C 0.43505(16) 0.2582(5) 0.44342(11)
H5 H 0.4722 0.2853 0.4782
H6 H 0.4326 0.4016 0.4220
C9 C 0.34662(16) 0.2082(5) 0.45768(10)
H7 H 0.3481 0.0626 0.4789
C10 C 0.31985(17) 0.4074(5) 0.49422(11)
H8 H 0.3622 0.4269 0.5268
H9 H 0.3167 0.5512 0.4730
C11 C 0.23500(17) 0.3595(6) 0.51313(11)
H10 H 0.1960 0.3064 0.4812
H11 H 0.2416 0.2347 0.5405
C12 C 0.1973(2) 0.5661(7) 0.53842(12)
C13 C 0.11579(19) 0.5318(6) 0.56158(11)
C14 C 0.0672(2) 0.3357(6) 0.55233(12)
H12 H 0.0870 0.2115 0.5332
C15 C -0.0106(2) 0.3185(7) 0.57088(13)
H13 H -0.0432 0.1850 0.5638
C16 C -0.0393(2) 0.5015(8) 0.59997(14)
H14 H -0.0917 0.4921 0.6125
C17 C 0.0087(2) 0.6950(8) 0.61038(13)
H15 H -0.0106 0.8169 0.6305
C18 C 0.0860(2) 0.7130(6) 0.59138(12)
H16 H 0.1182 0.8472 0.5986
C19 C 0.43441(17) 0.0654(6) 0.33510(11)
C20 C 0.38469(17) -0.1102(6) 0.31021(12)
H17 H 0.3735 -0.2411 0.3306
C21 C 0.35130(18) -0.0897(6) 0.25426(13)
H18 H 0.3183 -0.2099 0.2371
C22 C 0.3655(2) 0.1030(7) 0.22338(12)
C23 C 0.41563(19) 0.2778(6) 0.24925(13)
H19 H 0.4262 0.4095 0.2290
C24 C 0.45028(17) 0.2600(6) 0.30488(12)
H20 H 0.4841 0.3788 0.3218
C25 C 0.3268(2) 0.1221(8) 0.16258(12)
H21 H 0.3501 0.0039 0.1411
H22 H 0.3390 0.2726 0.1484
H23 H 0.2667 0.1021 0.1596
loop_
_geom_bond_atom_site_label_1
_geom_bond_atom_site_label_2
_geom_bond_site_symmetry_1
_geom_bond_site_symmetry_2
N1 C1 1_555 1_555
O1 C12 1_555 1_555
O2 S2 1_555 1_555
O3 S2 1_555 1_555
S1 C1 1_555 1_555
S2 C8 1_555 1_555
C1 C9 1_555 1_555
C2 N1 1_555 1_555
C3 S1 1_555 1_555
C4 C3 1_555 1_555
H1 C4 1_555 1_555
C5 C4 1_555 1_555
H2 C5 1_555 1_555
C6 C5 1_555 1_555
H3 C6 1_555 1_555
C7 C2 1_555 1_555
H4 C7 1_555 1_555
C8 H5 1_555 1_555
H6 C8 1_555 1_555
C9 C8 1_555 1_555
H7 C9 1_555 1_555
C10 C9 1_555 1_555
H8 C10 1_555 1_555
H9 C10 1_555 1_555
C11 C10 1_555 1_555
H10 C11 1_555 1_555
H11 C11 1_555 1_555
C12 C11 1_555 1_555
C13 C12 1_555 1_555
C14 C13 1_555 1_555
H12 C14 1_555 1_555
C15 C14 1_555 1_555
H13 C15 1_555 1_555
C16 C15 1_555 1_555
H14 C16 1_555 1_555
C17 C16 1_555 1_555
H15 C17 1_555 1_555
C18 C13 1_555 1_555
H16 C18 1_555 1_555
C19 S2 1_555 1_555
C20 C19 1_555 1_555
H17 C20 1_555 1_555
C21 C20 1_555 1_555
H18 C21 1_555 1_555
C22 C21 1_555 1_555
C23 C22 1_555 1_555
H19 C23 1_555 1_555
C24 C19 1_555 1_555
H20 C24 1_555 1_555
C25 C22 1_555 1_555
H21 C25 1_555 1_555
H22 C25 1_555 1_555
H23 C25 1_555 1_555
C2 C3 1_555 1_555
C6 C7 1_555 1_555
C17 C18 1_555 1_555
C23 C24 1_555 1_555

#END
