
#######################################################################
#
#                 Cambridge Crystallographic Data Centre
#                                CCDC 
#
#######################################################################
#
# If this CIF has been generated from an entry in the Cambridge 
# Structural Database, then it will include bibliographic, chemical, 
# crystal, experimental, refinement or atomic coordinate data resulting 
# from the CCDC's data processing and validation procedures.
#
#######################################################################

data_BIYBUI
_chemical_formula_moiety         'C31 H47 N4 1+,C1 F3 O3 S1 1-'
_chemical_name_systematic        
'1,3-bis(2,6-diisopropylphenyl)-4,5-bis(dimethylamino)-1H-imidazol-3-ium trifluoromethanesulfonate'
_symmetry_cell_setting           orthorhombic
_symmetry_space_group_name_H-M   'P 21 21 21'
_symmetry_Int_Tables_number      19
_space_group_name_Hall           'P 2ac 2ab'
loop_
_symmetry_equiv_pos_site_id
_symmetry_equiv_pos_as_xyz
1 x,y,z
2 1/2-x,-y,1/2+z
3 1/2+x,1/2-y,-z
4 -x,1/2+y,1/2-z
_cell_length_a                   9.6304(3)
_cell_length_b                   17.9708(5)
_cell_length_c                   19.6340(5)
_cell_angle_alpha                90
_cell_angle_beta                 90
_cell_angle_gamma                90
_cell_volume                     3397.98
_exptl_crystal_colour            colorless
_exptl_crystal_description       block
_cell_formula_units_Z            4
loop_
_atom_site_label
_atom_site_type_symbol
_atom_site_fract_x
_atom_site_fract_y
_atom_site_fract_z
C1 C 1.5769(2) -0.00070(10) 0.36032(9)
H1 H 1.5309 0.0083 0.3195
C2 C 1.6628(2) -0.05769(11) 0.45196(9)
C3 C 1.6989(2) 0.01579(11) 0.45569(9)
C4 C 1.5867(3) -0.14782(14) 0.53607(12)
H2 H 1.5952 -0.1241 0.5797
H3 H 1.5978 -0.2006 0.5414
H4 H 1.4967 -0.1375 0.5173
C5 C 1.8342(3) -0.12947(15) 0.51314(13)
H5 H 1.8967 -0.1103 0.4793
H6 H 1.8522 -0.1815 0.52
H7 H 1.8479 -0.1032 0.5552
C6 C 1.7210(3) 0.04533(18) 0.57495(11)
H8 H 1.6219 0.0399 0.5764
H9 H 1.7483 0.0867 0.6028
H10 H 1.7639 0.0007 0.5917
C7 C 1.9142(3) 0.07005(14) 0.49663(12)
H11 H 1.9625 0.0246 0.5066
H12 H 1.9446 0.1083 0.5273
H13 H 1.9334 0.0848 0.4506
C8 C 1.5273(2) -0.13569(10) 0.36800(9)
C9 C 1.6164(2) -0.18593(11) 0.33559(9)
C10 C 1.5598(3) -0.25406(12) 0.31635(11)
H14 H 1.6159 -0.2895 0.2955
C11 C 1.4219(3) -0.26974(12) 0.32778(11)
H15 H 1.386 -0.3155 0.3145
C12 C 1.3362(3) -0.21843(12) 0.35876(11)
H16 H 1.2427 -0.2296 0.3649
C13 C 1.3874(2) -0.14988(11) 0.38110(9)
C14 C 1.7673(2) -0.16823(13) 0.31988(12)
H17 H 1.7909 -0.1214 0.3427
C15 C 1.8645(3) -0.22869(16) 0.34679(15)
H18 H 1.8528 -0.2334 0.3952
H19 H 1.9589 -0.2154 0.3369
H20 H 1.8428 -0.2752 0.3252
C16 C 1.7861(3) -0.15690(19) 0.24310(14)
H21 H 1.8801 -0.1423 0.2339
H22 H 1.7239 -0.1187 0.2276
H23 H 1.766 -0.2026 0.2197
C17 C 1.2926(2) -0.09506(13) 0.41733(11)
H24 H 1.3513 -0.0573 0.4389
C18 C 1.2064(3) -0.13220(16) 0.47342(13)
H25 H 1.1383 -0.1643 0.4531
H26 H 1.1606 -0.0947 0.500
H27 H 1.2663 -0.1609 0.5023
C19 C 1.1975(3) -0.05551(16) 0.36688(14)
H28 H 1.2527 -0.0301 0.3335
H29 H 1.1408 -0.0201 0.3907
H30 H 1.1391 -0.0914 0.3447
C20 C 1.6584(2) 0.12766(11) 0.37842(9)
C21 C 1.7645(2) 0.14778(11) 0.33383(10)
C22 C 1.7698(3) 0.22251(12) 0.31472(11)
H31 H 1.8398 0.2386 0.2856
C23 C 1.6734(3) 0.27283(12) 0.33815(12)
H32 H 1.6771 0.322 0.3235
C24 C 1.5719(3) 0.25129(12) 0.38281(12)
H33 H 1.5084 0.2863 0.3986
C25 C 1.5620(2) 0.17762(12) 0.40516(10)
C26 C 1.8677(2) 0.09174(13) 0.30549(10)
H34 H 1.8663 0.048 0.3353
C27 C 2.0165(3) 0.12167(17) 0.30436(15)
H35 H 2.0238 0.1604 0.2709
H36 H 2.0794 0.0821 0.2931
H37 H 2.0396 0.1413 0.3484
C28 C 1.8250(3) 0.06623(17) 0.23398(12)
H38 H 1.7324 0.0465 0.2354
H39 H 1.8878 0.0284 0.2184
H40 H 1.828 0.1078 0.2033
C29 C 1.4495(3) 0.15418(14) 0.45527(13)
H41 H 1.4683 0.1025 0.4682
C30 C 1.4542(5) 0.2005(2) 0.52007(17)
H42 H 1.4288 0.2509 0.5098
H43 H 1.5464 0.1995 0.5386
H44 H 1.3902 0.1804 0.5527
C31 C 1.3072(4) 0.1559(3) 0.4217(2)
H45 H 1.2394 0.1356 0.4524
H46 H 1.3093 0.1268 0.3807
H47 H 1.2831 0.2063 0.4108
N1 N 1.58511(17) -0.06598(9) 0.39170(7)
N2 N 1.64527(17) 0.04969(9) 0.39682(8)
N3 N 1.69310(18) -0.11959(10) 0.49053(9)
N4 N 1.7650(2) 0.05845(10) 0.50483(8)
C32 C 1.2307(3) -0.00358(15) 0.14688(13)
S1 S 1.40361(6) 0.01723(3) 0.17895(3)
O1 O 1.4633(2) -0.05447(12) 0.19040(15)
O2 O 1.3775(2) 0.05857(12) 0.24009(8)
O3 O 1.4628(2) 0.05969(11) 0.12490(9)
F1 F 1.15791(17) -0.04555(10) 0.18950(10)
F2 F 1.15903(19) 0.05864(12) 0.13645(10)
F3 F 1.2365(2) -0.03975(13) 0.08810(9)
loop_
_geom_bond_atom_site_label_1
_geom_bond_atom_site_label_2
_geom_bond_site_symmetry_1
_geom_bond_site_symmetry_2
C1 H1 1_555 1_555
C2 C3 1_555 1_555
C3 N2 1_555 1_555
C4 H2 1_555 1_555
H3 C4 1_555 1_555
H4 C4 1_555 1_555
C5 H5 1_555 1_555
H6 C5 1_555 1_555
H7 C5 1_555 1_555
C6 H8 1_555 1_555
H9 C6 1_555 1_555
H10 C6 1_555 1_555
C7 H11 1_555 1_555
H12 C7 1_555 1_555
H13 C7 1_555 1_555
C8 C9 1_555 1_555
C9 C10 1_555 1_555
C10 H14 1_555 1_555
C11 C10 1_555 1_555
H15 C11 1_555 1_555
C12 C11 1_555 1_555
H16 C12 1_555 1_555
C13 C8 1_555 1_555
C14 C9 1_555 1_555
H17 C14 1_555 1_555
C15 C14 1_555 1_555
H18 C15 1_555 1_555
H19 C15 1_555 1_555
H20 C15 1_555 1_555
C16 C14 1_555 1_555
H21 C16 1_555 1_555
H22 C16 1_555 1_555
H23 C16 1_555 1_555
C17 C13 1_555 1_555
H24 C17 1_555 1_555
C18 C17 1_555 1_555
H25 C18 1_555 1_555
H26 C18 1_555 1_555
H27 C18 1_555 1_555
C19 C17 1_555 1_555
H28 C19 1_555 1_555
H29 C19 1_555 1_555
H30 C19 1_555 1_555
C20 C21 1_555 1_555
C21 C22 1_555 1_555
C22 H31 1_555 1_555
C23 C22 1_555 1_555
H32 C23 1_555 1_555
C24 C23 1_555 1_555
H33 C24 1_555 1_555
C25 C20 1_555 1_555
C26 C21 1_555 1_555
H34 C26 1_555 1_555
C27 C26 1_555 1_555
H35 C27 1_555 1_555
H36 C27 1_555 1_555
H37 C27 1_555 1_555
C28 C26 1_555 1_555
H38 C28 1_555 1_555
H39 C28 1_555 1_555
H40 C28 1_555 1_555
C29 C25 1_555 1_555
H41 C29 1_555 1_555
C30 C29 1_555 1_555
H42 C30 1_555 1_555
H43 C30 1_555 1_555
H44 C30 1_555 1_555
C31 C29 1_555 1_555
H45 C31 1_555 1_555
H46 C31 1_555 1_555
H47 C31 1_555 1_555
N1 C1 1_555 1_555
N2 C1 1_555 1_555
N3 C2 1_555 1_555
N4 C3 1_555 1_555
C32 S1 1_555 1_555
S1 O1 1_555 1_555
O2 S1 1_555 1_555
O3 S1 1_555 1_555
F1 C32 1_555 1_555
F2 C32 1_555 1_555
F3 C32 1_555 1_555
C2 N1 1_555 1_555
C4 N3 1_555 1_555
C5 N3 1_555 1_555
C6 N4 1_555 1_555
C7 N4 1_555 1_555
C8 N1 1_555 1_555
C12 C13 1_555 1_555
C20 N2 1_555 1_555
C24 C25 1_555 1_555

#END
