
#######################################################################
#
#                 Cambridge Crystallographic Data Centre
#                                CCDC 
#
#######################################################################
#
# If this CIF has been generated from an entry in the Cambridge 
# Structural Database, then it will include bibliographic, chemical, 
# crystal, experimental, refinement or atomic coordinate data resulting 
# from the CCDC's data processing and validation procedures.
#
#######################################################################

data_BIYBUJ
_chemical_formula_moiety         'C17 H22 N2 O2'
_chemical_name_systematic        
3-t-butyl-2,10-dimethyl-2,3,10,10a-tetrahydroimidazo[1,5-b]isoquinoline-1,5-dione
_symmetry_cell_setting           monoclinic
_symmetry_space_group_name_H-M   'P 21'
_symmetry_Int_Tables_number      4
_space_group_name_Hall           'P 2yb'
loop_
_symmetry_equiv_pos_site_id
_symmetry_equiv_pos_as_xyz
1 x,y,z
2 -x,1/2+y,-z
_cell_length_a                   6.0280(4)
_cell_length_b                   9.2114(6)
_cell_length_c                   13.8180(8)
_cell_angle_alpha                90
_cell_angle_beta                 94.810(3)
_cell_angle_gamma                90
_cell_volume                     764.561
_exptl_crystal_colour            white
_exptl_crystal_description       block
_cell_formula_units_Z            2
loop_
_atom_site_label
_atom_site_type_symbol
_atom_site_fract_x
_atom_site_fract_y
_atom_site_fract_z
C1 C 0.5254(2) 0.67919(15) 0.77878(9)
H1 H 0.4066 0.7301 0.7367
C2 C 0.8670(2) 0.81818(15) 0.80937(9)
H2 H 1.0240 0.7851 0.8248
C3 C 0.5433(2) 0.74380(15) 0.88065(10)
C4 C 0.4791(2) 0.51642(15) 0.78002(10)
H3 H 0.3198 0.5000 0.7922
C5 C 0.5202(2) 0.45700(15) 0.68112(9)
C6 C 0.3876(3) 0.35031(17) 0.63422(11)
H4 H 0.2540 0.3206 0.6603
C7 C 0.4502(3) 0.28721(17) 0.54945(10)
H5 H 0.3578 0.2155 0.5173
C8 C 0.6468(3) 0.32794(17) 0.51123(10)
H6 H 0.6918 0.2813 0.4547
C9 C 0.7770(3) 0.43684(16) 0.55583(10)
H7 H 0.9103 0.4663 0.5293
C10 C 0.7118(2) 0.50320(15) 0.63995(9)
C11 C 0.8514(2) 0.62299(15) 0.68573(9)
C12 C 0.8649(2) 0.97353(17) 0.76579(10)
C13 C 1.0062(3) 1.07488(18) 0.83438(11)
H8 H 1.0357 1.1652 0.8003
H9 H 1.1476 1.0273 0.8553
H10 H 0.9255 1.0968 0.8913
C14 C 0.6278(3) 1.03180(18) 0.74959(13)
H11 H 0.6312 1.1313 0.7247
H12 H 0.5584 1.0312 0.8112
H13 H 0.5414 0.9703 0.7024
C15 C 0.9686(3) 0.97037(18) 0.66816(11)
H14 H 0.8807 0.9065 0.6230
H15 H 1.1215 0.9338 0.6779
H16 H 0.9698 1.0687 0.6412
C16 C 0.8262(3) 0.86190(18) 0.99144(10)
H17 H 0.7758 0.9621 0.9990
H18 H 0.9893 0.8591 0.9976
H19 H 0.7690 0.8010 1.0419
C17 C 0.6300(3) 0.43688(17) 0.85827(10)
H20 H 0.5963 0.3328 0.8559
H21 H 0.6037 0.4752 0.9225
H22 H 0.7863 0.4520 0.8463
N1 N 0.74518(19) 0.71166(12) 0.74587(8)
N2 N 0.74379(19) 0.80782(13) 0.89631(8)
O1 O 0.40072(18) 0.73341(12) 0.93826(7)
O2 O 1.04570(17) 0.64217(12) 0.66864(7)
loop_
_geom_bond_atom_site_label_1
_geom_bond_atom_site_label_2
_geom_bond_site_symmetry_1
_geom_bond_site_symmetry_2
C1 H1 1_555 1_555
C2 H2 1_555 1_555
C3 C1 1_555 1_555
C4 C1 1_555 1_555
H3 C4 1_555 1_555
C5 C4 1_555 1_555
C6 C5 1_555 1_555
H4 C6 1_555 1_555
C7 C6 1_555 1_555
H5 C7 1_555 1_555
C8 C7 1_555 1_555
H6 C8 1_555 1_555
C9 C8 1_555 1_555
H7 C9 1_555 1_555
C10 C5 1_555 1_555
C11 C10 1_555 1_555
C12 C2 1_555 1_555
C13 C12 1_555 1_555
H8 C13 1_555 1_555
H9 C13 1_555 1_555
H10 C13 1_555 1_555
C14 C12 1_555 1_555
H11 C14 1_555 1_555
H12 C14 1_555 1_555
H13 C14 1_555 1_555
C15 C12 1_555 1_555
H14 C15 1_555 1_555
H15 C15 1_555 1_555
H16 C15 1_555 1_555
C16 H17 1_555 1_555
H18 C16 1_555 1_555
H19 C16 1_555 1_555
C17 C4 1_555 1_555
H20 C17 1_555 1_555
H21 C17 1_555 1_555
H22 C17 1_555 1_555
N1 C1 1_555 1_555
N2 C2 1_555 1_555
O1 C3 1_555 1_555
O2 C11 1_555 1_555
C2 N1 1_555 1_555
C3 N2 1_555 1_555
C9 C10 1_555 1_555
C11 N1 1_555 1_555
C16 N2 1_555 1_555

#END
