
#######################################################################
#
#                 Cambridge Crystallographic Data Centre
#                                CCDC 
#
#######################################################################
#
# If this CIF has been generated from an entry in the Cambridge 
# Structural Database, then it will include bibliographic, chemical, 
# crystal, experimental, refinement or atomic coordinate data resulting 
# from the CCDC's data processing and validation procedures.
#
#######################################################################

data_BIYCUK
_chemical_formula_moiety         'C24 H28 N2 O2'
_chemical_name_systematic        
10a-benzyl-3-t-butyl-2,10-dimethyl-2,3,10,10a-tetrahydroimidazo[1,5-b]isoquinoline-1,5-dione
_symmetry_cell_setting           monoclinic
_symmetry_space_group_name_H-M   'P 21'
_symmetry_Int_Tables_number      4
_space_group_name_Hall           'P 2yb'
loop_
_symmetry_equiv_pos_site_id
_symmetry_equiv_pos_as_xyz
1 x,y,z
2 -x,1/2+y,-z
_cell_length_a                   10.8751(6)
_cell_length_b                   16.2763(9)
_cell_length_c                   11.6964(6)
_cell_angle_alpha                90
_cell_angle_beta                 94.299(4)
_cell_angle_gamma                90
_cell_volume                     2064.51
_exptl_crystal_colour            colorless
_exptl_crystal_description       block
_cell_formula_units_Z            4
loop_
_atom_site_label
_atom_site_type_symbol
_atom_site_fract_x
_atom_site_fract_y
_atom_site_fract_z
O1 O 0.1456(4) 0.4504(2) 0.4070(3)
O2 O -0.1191(3) 0.7460(2) 0.4884(3)
N1 N 0.0255(4) 0.5489(3) 0.3146(4)
N2 N 0.0137(4) 0.6418(2) 0.4551(3)
C1 C -0.0194(5) 0.6326(3) 0.3318(4)
H1 H -0.111246 0.633661 0.317444
C2 C 0.0889(5) 0.5161(3) 0.4048(4)
C3 C 0.0634(4) 0.5661(3) 0.5080(4)
C4 C 0.1706(5) 0.5881(3) 0.5964(4)
H2 H 0.194619 0.537569 0.641224
C5 C 0.1229(4) 0.6516(3) 0.6783(4)
C6 C 0.1758(5) 0.6607(3) 0.7896(4)
H3 H 0.242958 0.626409 0.815314
C7 C 0.1330(5) 0.7188(3) 0.8640(4)
H4 H 0.170831 0.724376 0.939506
C8 C 0.0340(5) 0.7688(3) 0.8269(4)
H5 H 0.003171 0.808010 0.877732
C9 C -0.0193(5) 0.7616(3) 0.7168(4)
H6 H -0.084909 0.797141 0.691175
C10 C 0.0226(5) 0.7024(3) 0.6427(4)
C11 C -0.0361(5) 0.6994(3) 0.5236(4)
C12 C -0.0106(6) 0.5032(4) 0.2100(5)
H7 H -0.099286 0.510047 0.190637
H8 H 0.008052 0.444794 0.222016
H9 H 0.035116 0.524089 0.146993
C13 C 0.0384(5) 0.6965(3) 0.2523(4)
C14 C -0.0432(6) 0.7017(4) 0.1393(5)
H10 H -0.045235 0.647984 0.101270
H11 H -0.009319 0.742764 0.089075
H12 H -0.127047 0.717548 0.155534
C15 C 0.1700(6) 0.6704(4) 0.2266(5)
H13 H 0.219554 0.660958 0.298914
H14 H 0.207982 0.714050 0.183447
H15 H 0.166105 0.619770 0.181260
C16 C 0.0470(7) 0.7821(3) 0.3056(5)
H16 H -0.035696 0.801149 0.320519
H17 H 0.083531 0.820069 0.252622
H18 H 0.098821 0.779911 0.377771
C17 C 0.2846(5) 0.6213(3) 0.5435(5)
H19 H 0.312629 0.581223 0.488501
H20 H 0.350318 0.630721 0.604066
H21 H 0.264163 0.673104 0.503928
C18 C -0.0352(5) 0.5161(3) 0.5688(4)
H22 H 0.004942 0.466641 0.603707
H23 H -0.063974 0.550000 0.631830
C19 C -0.1462(5) 0.4892(3) 0.4933(4)
C20 C -0.2469(5) 0.5407(3) 0.4706(5)
H24 H -0.246216 0.594604 0.501790
C21 C -0.3493(5) 0.5132(4) 0.4019(5)
H25 H -0.418260 0.548409 0.386957
C22 C -0.3511(5) 0.4342(4) 0.3549(5)
H26 H -0.421367 0.415474 0.309069
C23 C -0.2504(5) 0.3836(4) 0.3755(5)
H27 H -0.250782 0.330087 0.343117
C24 C -0.1483(5) 0.4106(3) 0.4434(4)
H28 H -0.078929 0.375503 0.456319
O3 O 0.4267(3) 0.5601(2) 0.8340(3)
O4 O 0.5969(3) 0.2424(2) 0.9843(3)
N3 N 0.5211(4) 0.4436(3) 0.7728(4)
N4 N 0.5009(4) 0.3599(2) 0.9228(4)
C25 C 0.5367(5) 0.3572(3) 0.8045(4)
H29 H 0.625789 0.341887 0.804525
C26 C 0.4631(5) 0.4888(3) 0.8484(5)
C27 C 0.4692(4) 0.4433(3) 0.9610(4)
C28 C 0.3573(5) 0.4389(3) 1.0311(4)
H30 H 0.347298 0.493556 1.068266
C29 C 0.3826(4) 0.3756(3) 1.1248(4)
C30 C 0.3243(5) 0.3801(3) 1.2267(5)
H31 H 0.269697 0.424459 1.238009
C31 C 0.3441(5) 0.3214(4) 1.3117(5)
H32 H 0.302742 0.324989 1.380255
C32 C 0.4252(5) 0.2569(3) 1.2956(5)
H33 H 0.439270 0.216217 1.353422
C33 C 0.4856(5) 0.2519(3) 1.1956(5)
H34 H 0.540940 0.207797 1.185254
C34 C 0.4657(5) 0.3108(3) 1.1106(5)
C35 C 0.5285(5) 0.3006(3) 1.0026(4)
C36 C 0.5659(5) 0.4791(4) 0.6687(5)
H35 H 0.646232 0.455083 0.655190
H36 H 0.574569 0.538669 0.678063
H37 H 0.507057 0.467215 0.603246
C37 C 0.4584(5) 0.2996(4) 0.7209(5)
C38 C 0.3341(5) 0.3397(4) 0.6823(6)
H38 H 0.291425 0.355476 0.749879
H39 H 0.283188 0.300551 0.636078
H40 H 0.348465 0.388680 0.636429
C39 C 0.4319(7) 0.2169(4) 0.7779(6)
H41 H 0.509708 0.188030 0.797280
H42 H 0.379147 0.183350 0.724740
H43 H 0.389880 0.226770 0.847844
C40 C 0.5293(6) 0.2819(4) 0.6164(5)
H44 H 0.546092 0.333634 0.577622
H45 H 0.480071 0.245958 0.563653
H46 H 0.607382 0.254775 0.640621
C41 C 0.2350(5) 0.4179(4) 0.9609(5)
H47 H 0.223688 0.454947 0.894897
H48 H 0.165971 0.424376 1.009395
H49 H 0.237808 0.360949 0.933818
C42 C 0.5764(4) 0.4857(3) 1.0367(4)
H50 H 0.547912 0.540751 1.059253
H51 H 0.592461 0.453169 1.107744
C43 C 0.6954(4) 0.4956(3) 0.9816(4)
C44 C 0.7812(5) 0.4317(3) 0.9816(4)
H52 H 0.763420 0.380946 1.016950
C45 C 0.8913(5) 0.4408(4) 0.9310(5)
H53 H 0.947856 0.396274 0.931075
C46 C 0.9193(5) 0.5146(4) 0.8804(5)
H54 H 0.995840 0.521348 0.847383
C47 C 0.8359(5) 0.5783(4) 0.8780(5)
H55 H 0.854323 0.628689 0.841884
C48 C 0.7250(5) 0.5693(3) 0.9282(5)
H56 H 0.668284 0.613707 0.926213
loop_
_geom_bond_atom_site_label_1
_geom_bond_atom_site_label_2
_geom_bond_site_symmetry_1
_geom_bond_site_symmetry_2
O1 C2 1_555 1_555
O2 C11 1_555 1_555
N1 C1 1_555 1_555
N2 C1 1_555 1_555
C1 H1 1_555 1_555
C2 N1 1_555 1_555
C3 N2 1_555 1_555
C4 C3 1_555 1_555
H2 C4 1_555 1_555
C5 C4 1_555 1_555
C6 C5 1_555 1_555
H3 C6 1_555 1_555
C7 C6 1_555 1_555
H4 C7 1_555 1_555
C8 C7 1_555 1_555
H5 C8 1_555 1_555
C9 C8 1_555 1_555
H6 C9 1_555 1_555
C10 C5 1_555 1_555
C11 N2 1_555 1_555
C12 N1 1_555 1_555
H7 C12 1_555 1_555
H8 C12 1_555 1_555
H9 C12 1_555 1_555
C13 C1 1_555 1_555
C14 C13 1_555 1_555
H10 C14 1_555 1_555
H11 C14 1_555 1_555
H12 C14 1_555 1_555
C15 C13 1_555 1_555
H13 C15 1_555 1_555
H14 C15 1_555 1_555
H15 C15 1_555 1_555
C16 C13 1_555 1_555
H16 C16 1_555 1_555
H17 C16 1_555 1_555
H18 C16 1_555 1_555
C17 C4 1_555 1_555
H19 C17 1_555 1_555
H20 C17 1_555 1_555
H21 C17 1_555 1_555
C18 C3 1_555 1_555
H22 C18 1_555 1_555
H23 C18 1_555 1_555
C19 C18 1_555 1_555
C20 C19 1_555 1_555
H24 C20 1_555 1_555
C21 C20 1_555 1_555
H25 C21 1_555 1_555
C22 C21 1_555 1_555
H26 C22 1_555 1_555
C23 C22 1_555 1_555
H27 C23 1_555 1_555
C24 C19 1_555 1_555
H28 C24 1_555 1_555
O3 C26 1_555 1_555
O4 C35 1_555 1_555
N3 C25 1_555 1_555
N4 C25 1_555 1_555
C25 H29 1_555 1_555
C26 N3 1_555 1_555
C27 N4 1_555 1_555
C28 C27 1_555 1_555
H30 C28 1_555 1_555
C29 C28 1_555 1_555
C30 C29 1_555 1_555
H31 C30 1_555 1_555
C31 C30 1_555 1_555
H32 C31 1_555 1_555
C32 C31 1_555 1_555
H33 C32 1_555 1_555
C33 C32 1_555 1_555
H34 C33 1_555 1_555
C34 C29 1_555 1_555
C35 N4 1_555 1_555
C36 N3 1_555 1_555
H35 C36 1_555 1_555
H36 C36 1_555 1_555
H37 C36 1_555 1_555
C37 C25 1_555 1_555
C38 C37 1_555 1_555
H38 C38 1_555 1_555
H39 C38 1_555 1_555
H40 C38 1_555 1_555
C39 C37 1_555 1_555
H41 C39 1_555 1_555
H42 C39 1_555 1_555
H43 C39 1_555 1_555
C40 C37 1_555 1_555
H44 C40 1_555 1_555
H45 C40 1_555 1_555
H46 C40 1_555 1_555
C41 C28 1_555 1_555
H47 C41 1_555 1_555
H48 C41 1_555 1_555
H49 C41 1_555 1_555
C42 C27 1_555 1_555
H50 C42 1_555 1_555
H51 C42 1_555 1_555
C43 C42 1_555 1_555
C44 C43 1_555 1_555
H52 C44 1_555 1_555
C45 C44 1_555 1_555
H53 C45 1_555 1_555
C46 C45 1_555 1_555
H54 C46 1_555 1_555
C47 C46 1_555 1_555
H55 C47 1_555 1_555
C48 C43 1_555 1_555
H56 C48 1_555 1_555
C2 C3 1_555 1_555
C9 C10 1_555 1_555
C10 C11 1_555 1_555
C23 C24 1_555 1_555
C26 C27 1_555 1_555
C33 C34 1_555 1_555
C34 C35 1_555 1_555
C47 C48 1_555 1_555

#END
