
#######################################################################
#
#                 Cambridge Crystallographic Data Centre
#                                CCDC 
#
#######################################################################
#
# If this CIF has been generated from an entry in the Cambridge 
# Structural Database, then it will include bibliographic, chemical, 
# crystal, experimental, refinement or atomic coordinate data resulting 
# from the CCDC's data processing and validation procedures.
#
#######################################################################

data_BIYCES
_chemical_formula_moiety         'C23 H17 Br2 N1 O3'
_chemical_name_systematic        
(4S,5R)-5-(4-bromophenyl)-1-(4-bromophenylcarbonyl)-4-hydroxy-4-phenylpyrrolidin-2-one
_symmetry_cell_setting           monoclinic
_symmetry_space_group_name_H-M   'P 21'
_symmetry_Int_Tables_number      4
_space_group_name_Hall           'P 2yb'
loop_
_symmetry_equiv_pos_site_id
_symmetry_equiv_pos_as_xyz
1 x,y,z
2 -x,1/2+y,-z
_cell_length_a                   14.0078(3)
_cell_length_b                   5.54060(10)
_cell_length_c                   14.8626(3)
_cell_angle_alpha                90
_cell_angle_beta                 117.0080(10)
_cell_angle_gamma                90
_cell_volume                     1027.71
_exptl_crystal_colour            colorless
_exptl_crystal_description       flat
_chemical_melting_point          '268-271 deg.C'
_cell_formula_units_Z            2
_exptl_crystal_recrystallization_method dichloromethane/hexanes
loop_
_atom_site_label
_atom_site_type_symbol
_atom_site_fract_x
_atom_site_fract_y
_atom_site_fract_z
O1 O 0.4215(2) -0.0724(5) 0.9126(2)
Br1 Br 0.67975(3) 0.05678(10) 0.47016(3)
Br2 Br -0.03876(3) 0.10801(8) 0.59249(3)
O2 O 0.4757(2) 0.5253(5) 0.7831(2)
C1 C 0.2557(3) 0.4433(8) 0.7486(3)
H1 H 0.2812 0.5915 0.7796
C2 C 0.2877(3) 0.0539(8) 0.6952(3)
H2 H 0.3352 -0.0613 0.6936
C3 C 0.9274(4) 0.2864(8) 1.1345(3)
H3 H 0.9413 0.4263 1.1730
C4 C 0.6627(3) 0.1022(8) 0.5890(3)
C5 C 0.8234(3) 0.2286(8) 1.0656(3)
H4 H 0.7674 0.3297 1.0586
C6 C 0.4423(3) 0.3278(7) 0.7904(3)
O3 O 0.6898(2) -0.2566(5) 0.8808(2)
H5 H 0.6297 -0.3162 0.8529
C7 C 0.5046(3) -0.0168(7) 0.9107(3)
C8 C 0.6277(3) 0.1661(7) 0.8588(3)
H6 H 0.657(4) 0.321(8) 0.892(3)
C9 C 0.3268(3) 0.2710(7) 0.7460(3)
C10 C 0.6871(3) -0.0459(7) 0.9334(3)
C11 C 0.7262(4) 0.2647(8) 0.6625(3)
H7 H 0.7775 0.3563 0.6545
C12 C 0.1100(3) 0.1785(8) 0.6538(3)
C13 C 0.6354(3) 0.1531(7) 0.7609(3)
C14 C 0.1786(3) 0.0085(7) 0.6472(3)
H8 H 0.1521 -0.1337 0.6111
C15 C 0.5708(3) -0.0052(7) 0.6847(3)
H9 H 0.5179 -0.0927 0.6918
C16 C 0.7118(3) 0.2881(8) 0.7486(3)
H10 H 0.7542 0.3961 0.7988
C17 C 0.8015(3) 0.0198(8) 1.0065(3)
N1 N 0.5148(2) 0.1409(6) 0.8411(2)
C18 C 0.8866(3) -0.1274(8) 1.0183(3)
H11 H 0.8739 -0.2664 0.9794
C19 C 0.6158(3) -0.0879(8) 0.9855(3)
H12 H 0.6177 -0.2563 1.0041
H13 H 0.6400 0.0099 1.0460
C20 C 0.5842(3) -0.0342(8) 0.5984(3)
H14 H 0.5418 -0.1420 0.5481
C21 C 1.0105(3) 0.1339(10) 1.1454(3)
H15 H 1.0803 0.1702 1.1925
C22 C 0.9904(4) -0.0689(9) 1.0876(4)
H16 H 1.0468 -0.1687 1.0948
C23 C 0.1458(3) 0.3932(8) 0.7044(3)
H17 H 0.0981 0.5029 0.7091
loop_
_geom_bond_atom_site_label_1
_geom_bond_atom_site_label_2
_geom_bond_site_symmetry_1
_geom_bond_site_symmetry_2
O1 C7 1_555 1_555
Br1 C4 1_555 1_555
Br2 C12 1_555 1_555
O2 C6 1_555 1_555
C1 H1 1_555 1_555
C2 H2 1_555 1_555
C3 H3 1_555 1_555
C4 C11 1_555 1_555
C5 C3 1_555 1_555
H4 C5 1_555 1_555
C6 C9 1_555 1_555
O3 H5 1_555 1_555
C7 N1 1_555 1_555
C8 H6 1_555 1_555
C9 C1 1_555 1_555
C10 O3 1_555 1_555
C11 H7 1_555 1_555
C12 C14 1_555 1_555
C13 C8 1_555 1_555
C14 C2 1_555 1_555
H8 C14 1_555 1_555
C15 C13 1_555 1_555
H9 C15 1_555 1_555
C16 C11 1_555 1_555
H10 C16 1_555 1_555
C17 C5 1_555 1_555
N1 C6 1_555 1_555
C18 C17 1_555 1_555
H11 C18 1_555 1_555
C19 C7 1_555 1_555
H12 C19 1_555 1_555
H13 C19 1_555 1_555
C20 C4 1_555 1_555
H14 C20 1_555 1_555
C21 C3 1_555 1_555
H15 C21 1_555 1_555
C22 C18 1_555 1_555
H16 C22 1_555 1_555
C23 C1 1_555 1_555
H17 C23 1_555 1_555
C2 C9 1_555 1_555
C8 C10 1_555 1_555
C8 N1 1_555 1_555
C10 C17 1_555 1_555
C10 C19 1_555 1_555
C12 C23 1_555 1_555
C13 C16 1_555 1_555
C15 C20 1_555 1_555
C21 C22 1_555 1_555

#END
