
#######################################################################
#
#                 Cambridge Crystallographic Data Centre
#                                CCDC 
#
#######################################################################
#
# If this CIF has been generated from an entry in the Cambridge 
# Structural Database, then it will include bibliographic, chemical, 
# crystal, experimental, refinement or atomic coordinate data resulting 
# from the CCDC's data processing and validation procedures.
#
#######################################################################

data_BIYDEV
_chemical_formula_moiety         'C25 H23 N1 O4 S1'
_chemical_name_systematic        
'methyl 3-[(4-methylphenyl)sulfonyl]-2-phenyl-2,3-dihydro-1H-1-benzazepine-2-carboxylate'
_symmetry_cell_setting           orthorhombic
_symmetry_space_group_name_H-M   'P b c a'
_symmetry_Int_Tables_number      61
_space_group_name_Hall           '-P 2ac 2ab'
loop_
_symmetry_equiv_pos_site_id
_symmetry_equiv_pos_as_xyz
1 x,y,z
2 1/2-x,-y,1/2+z
3 -x,1/2+y,1/2-z
4 1/2+x,1/2-y,-z
5 -x,-y,-z
6 1/2+x,y,1/2-z
7 x,1/2-y,1/2+z
8 1/2-x,1/2+y,z
_cell_length_a                   17.461(5)
_cell_length_b                   12.478(3)
_cell_length_c                   19.639(5)
_cell_angle_alpha                90
_cell_angle_beta                 90
_cell_angle_gamma                90
_cell_volume                     4278.91
_exptl_crystal_colour            colorless
_exptl_crystal_description       plate
_cell_formula_units_Z            8
loop_
_atom_site_label
_atom_site_type_symbol
_atom_site_fract_x
_atom_site_fract_y
_atom_site_fract_z
S1 S 0.21423(3) 0.38156(6) 0.59312(4)
O1 O 0.18980(11) 0.27184(16) 0.59978(10)
O2 O 0.15813(10) 0.46536(18) 0.60139(11)
O3 O 0.21298(9) 0.29035(14) 0.75892(9)
O4 O 0.26515(10) 0.13809(16) 0.71992(9)
N1 N 0.35862(11) 0.23984(16) 0.63591(10)
H1 H 0.3353 0.1793 0.6261
C1 C 0.25704(15) 0.4014(2) 0.51222(14)
C2 C 0.25170(17) 0.5015(2) 0.48209(16)
H2 H 0.2224 0.5564 0.5032
C3 C 0.28868(19) 0.5215(3) 0.42170(17)
H3 H 0.2839 0.5901 0.4012
C4 C 0.33281(17) 0.4436(3) 0.39001(15)
C5 C 0.33551(18) 0.3432(3) 0.42010(16)
H4 H 0.3639 0.2877 0.3986
C6 C 0.29793(17) 0.3217(2) 0.48049(15)
H5 H 0.3004 0.2521 0.5000
C7 C 0.3779(2) 0.4709(3) 0.32657(17)
H6 H 0.4169 0.5247 0.3376
H7 H 0.3432 0.4994 0.2918
H8 H 0.4029 0.4061 0.3092
C8 C 0.28788(13) 0.4092(2) 0.65743(13)
H9 H 0.2609 0.4455 0.6959
C9 C 0.34554(14) 0.4885(2) 0.63137(13)
H10 H 0.3319 0.5621 0.6346
C10 C 0.41402(14) 0.4669(2) 0.60418(13)
H11 H 0.4435 0.5289 0.5942
C11 C 0.45238(13) 0.3667(2) 0.58682(12)
C12 C 0.52122(14) 0.3755(2) 0.54988(13)
H12 H 0.5415 0.4450 0.5419
C13 C 0.56052(16) 0.2888(3) 0.52472(15)
H13 H 0.6065 0.2983 0.4996
C14 C 0.53183(16) 0.1877(3) 0.53663(15)
H14 H 0.5579 0.1269 0.5189
C15 C 0.46552(15) 0.1737(2) 0.57411(14)
H15 H 0.4469 0.1034 0.5824
C16 C 0.42545(13) 0.2626(2) 0.60003(12)
C17 C 0.32385(12) 0.3063(2) 0.68785(13)
C18 C 0.37958(13) 0.3379(2) 0.74599(13)
C19 C 0.44698(15) 0.2807(3) 0.75643(15)
H16 H 0.4598 0.2232 0.7269
C20 C 0.49558(17) 0.3072(3) 0.80991(17)
H17 H 0.5418 0.2681 0.8162
C21 C 0.47774(19) 0.3886(3) 0.85356(18)
H18 H 0.5115 0.4062 0.8898
C22 C 0.4108(2) 0.4454(3) 0.84492(17)
H19 H 0.3981 0.5020 0.8752
C23 C 0.36192(17) 0.4190(3) 0.79153(15)
H20 H 0.3154 0.4575 0.7862
C24 C 0.26366(13) 0.2339(2) 0.72220(13)
C25 C 0.15977(17) 0.2265(3) 0.79870(16)
H21 H 0.1313 0.1785 0.7684
H22 H 0.1239 0.2740 0.8224
H23 H 0.1882 0.1840 0.8322
loop_
_geom_bond_atom_site_label_1
_geom_bond_atom_site_label_2
_geom_bond_site_symmetry_1
_geom_bond_site_symmetry_2
S1 O1 1_555 1_555
O2 S1 1_555 1_555
O3 C24 1_555 1_555
O4 C24 1_555 1_555
N1 H1 1_555 1_555
C1 S1 1_555 1_555
C2 C1 1_555 1_555
H2 C2 1_555 1_555
C3 C2 1_555 1_555
H3 C3 1_555 1_555
C4 C3 1_555 1_555
C5 C4 1_555 1_555
H4 C5 1_555 1_555
C6 C1 1_555 1_555
H5 C6 1_555 1_555
C7 C4 1_555 1_555
H6 C7 1_555 1_555
H7 C7 1_555 1_555
H8 C7 1_555 1_555
C8 S1 1_555 1_555
H9 C8 1_555 1_555
C9 C8 1_555 1_555
H10 C9 1_555 1_555
C10 C9 1_555 1_555
H11 C10 1_555 1_555
C11 C10 1_555 1_555
C12 C11 1_555 1_555
H12 C12 1_555 1_555
C13 C12 1_555 1_555
H13 C13 1_555 1_555
C14 C13 1_555 1_555
H14 C14 1_555 1_555
C15 C14 1_555 1_555
H15 C15 1_555 1_555
C16 N1 1_555 1_555
C17 N1 1_555 1_555
C18 C17 1_555 1_555
C19 C18 1_555 1_555
H16 C19 1_555 1_555
C20 C19 1_555 1_555
H17 C20 1_555 1_555
C21 C20 1_555 1_555
H18 C21 1_555 1_555
C22 C21 1_555 1_555
H19 C22 1_555 1_555
C23 C18 1_555 1_555
H20 C23 1_555 1_555
C24 C17 1_555 1_555
C25 O3 1_555 1_555
H21 C25 1_555 1_555
H22 C25 1_555 1_555
H23 C25 1_555 1_555
C5 C6 1_555 1_555
C8 C17 1_555 1_555
C11 C16 1_555 1_555
C15 C16 1_555 1_555
C22 C23 1_555 1_555

#END
