
#######################################################################
#
#                 Cambridge Crystallographic Data Centre
#                                CCDC 
#
#######################################################################
#
# If this CIF has been generated from an entry in the Cambridge 
# Structural Database, then it will include bibliographic, chemical, 
# crystal, experimental, refinement or atomic coordinate data resulting 
# from the CCDC's data processing and validation procedures.
#
#######################################################################

data_BIYNUU
_chemical_formula_moiety         'C30 H31 N3 O7'
_chemical_name_systematic        
'ethyl 3-cyano-2,4,6-tris(4-methoxyphenyl)-5-nitropiperidine-3-carboxylate'
_symmetry_cell_setting           monoclinic
_symmetry_space_group_name_H-M   'P 21/n'
_symmetry_Int_Tables_number      14
_space_group_name_Hall           '-P 2yn'
loop_
_symmetry_equiv_pos_site_id
_symmetry_equiv_pos_as_xyz
1 x,y,z
2 1/2-x,1/2+y,1/2-z
3 -x,-y,-z
4 1/2+x,1/2-y,1/2+z
_cell_length_a                   15.855(4)
_cell_length_b                   9.453(3)
_cell_length_c                   19.618(5)
_cell_angle_alpha                90
_cell_angle_beta                 102.669(5)
_cell_angle_gamma                90
_cell_volume                     2868.71
_cell_formula_units_Z            4
loop_
_atom_site_label
_atom_site_type_symbol
_atom_site_fract_x
_atom_site_fract_y
_atom_site_fract_z
C1 C 0.41674(17) 0.5929(3) 0.20751(14)
C2 C 0.41775(15) 0.5063(3) 0.14087(13)
C3 C 0.34896(17) 0.3908(3) 0.13176(13)
C4 C 0.25940(16) 0.4674(3) 0.12019(13)
C5 C 0.25778(17) 0.5676(3) 0.18429(13)
C6 C 0.48648(17) 0.7050(3) 0.22225(14)
C7 C 0.56011(19) 0.6849(3) 0.27319(16)
H1 H 0.5669 0.6011 0.2987
C8 C 0.62487(19) 0.7871(4) 0.28759(17)
H2 H 0.6744 0.7714 0.3222
C9 C 0.6152(2) 0.9099(4) 0.25067(17)
C10 C 0.54182(19) 0.9334(3) 0.19926(15)
H3 H 0.5349 1.0177 0.1742
C11 C 0.47909(18) 0.8306(4) 0.18553(14)
H4 H 0.4301 0.8462 0.1504
C12 C 0.75437(19) 0.9970(4) 0.30858(19)
H5 H 0.7452 0.9836 0.3549
H6 H 0.7911 1.0776 0.3080
H7 H 0.7813 0.9143 0.2945
C13 C 0.35275(16) 0.2839(3) 0.07432(13)
C14 C 0.33819(18) 0.1423(4) 0.08544(15)
C15 C 0.33909(19) 0.0383(3) 0.03470(17)
C16 C 0.35760(18) 0.0812(4) -0.02799(17)
C17 C 0.3741(2) 0.2208(4) -0.04014(16)
C18 C 0.37128(18) 0.3231(3) 0.01028(15)
C19 C 0.3599(3) -0.1564(4) -0.07017(19)
H8 H 0.4070 -0.1811 -0.0322
H9 H 0.3661 -0.2054 -0.1117
H10 H 0.3062 -0.1829 -0.0587
C20 C 0.18994(18) 0.3556(3) 0.11766(17)
C21 C 0.0584(3) 0.2547(4) 0.0534(2)
H11 H 0.0565 0.1972 0.0122
H12 H 0.0696 0.1927 0.0938
C22 C -0.0222(3) 0.3221(6) 0.0483(3)
H13 H -0.0203 0.3795 0.0889
H14 H -0.0667 0.2520 0.0451
H15 H -0.0344 0.3807 0.0073
C23 C 0.17474(17) 0.6519(3) 0.17331(13)
C24 C 0.10249(19) 0.5954(4) 0.19308(15)
C25 C 0.02428(19) 0.6687(4) 0.17749(15)
H16 H -0.0240 0.6295 0.1900
C26 C 0.0169(2) 0.7960(4) 0.14449(16)
C27 C 0.0899(2) 0.8560(3) 0.12779(16)
H17 H 0.0866 0.9451 0.1073
C28 C 0.16728(19) 0.7833(4) 0.14162(15)
H18 H 0.2154 0.8235 0.1294
C29 C -0.13628(19) 0.8102(4) 0.1340(2)
H19 H -0.1455 0.7251 0.1066
H20 H -0.1836 0.8740 0.1182
H21 H -0.1326 0.7875 0.1823
H22 H 0.423(2) 0.514(4) 0.250(2)
H23 H 0.418(2) 0.576(4) 0.098(2)
H24 H 0.354(2) 0.331(4) 0.174(2)
H25 H 0.260(2) 0.486(4) 0.225(2)
H26 H 0.326(2) 0.108(5) 0.128(2)
H27 H 0.325(2) -0.057(5) 0.045(2)
H28 H 0.391(2) 0.248(5) -0.084(2)
H29 H 0.382(2) 0.426(5) 0.004(2)
H30 H 0.105(2) 0.492(4) 0.2187(19)
H31 H 0.329(2) 0.732(5) 0.228(2)
N1 N 0.33162(14) 0.6634(3) 0.19268(11)
N2 N 0.50554(15) 0.4382(3) 0.14900(13)
O1 O 0.67345(14) 1.0202(2) 0.26150(11)
O2 O 0.52592(11) 0.3467(2) 0.19338(10)
O3 O 0.55128(12) 0.4784(2) 0.11058(10)
O4 O 0.36050(15) -0.0096(3) -0.08176(11)
O5 O 0.19065(12) 0.2735(2) 0.16481(11)
O6 O 0.12922(13) 0.3596(2) 0.06004(11)
O7 O -0.05710(14) 0.8759(2) 0.12646(11)
C30 C 0.24403(16) 0.5510(3) 0.05513(16)
N3 N 0.23819(15) 0.6174(3) 0.00613(14)
loop_
_geom_bond_atom_site_label_1
_geom_bond_atom_site_label_2
_geom_bond_site_symmetry_1
_geom_bond_site_symmetry_2
C1 C2 1_555 1_555
C2 C3 1_555 1_555
C3 C4 1_555 1_555
C4 C5 1_555 1_555
C5 C23 1_555 1_555
C6 C1 1_555 1_555
C7 C6 1_555 1_555
H1 C7 1_555 1_555
C8 C7 1_555 1_555
H2 C8 1_555 1_555
C9 C8 1_555 1_555
C10 C9 1_555 1_555
H3 C10 1_555 1_555
C11 C6 1_555 1_555
H4 C11 1_555 1_555
C12 H5 1_555 1_555
H6 C12 1_555 1_555
H7 C12 1_555 1_555
C13 C3 1_555 1_555
C14 C13 1_555 1_555
C15 C14 1_555 1_555
C16 C15 1_555 1_555
C17 C16 1_555 1_555
C18 C13 1_555 1_555
C19 H8 1_555 1_555
H9 C19 1_555 1_555
H10 C19 1_555 1_555
C20 C4 1_555 1_555
C21 H11 1_555 1_555
H12 C21 1_555 1_555
C22 C21 1_555 1_555
H13 C22 1_555 1_555
H14 C22 1_555 1_555
H15 C22 1_555 1_555
C23 C24 1_555 1_555
C24 C25 1_555 1_555
C25 H16 1_555 1_555
C26 C25 1_555 1_555
C27 C26 1_555 1_555
H17 C27 1_555 1_555
C28 C23 1_555 1_555
H18 C28 1_555 1_555
C29 H19 1_555 1_555
H20 C29 1_555 1_555
H21 C29 1_555 1_555
H22 C1 1_555 1_555
H23 C2 1_555 1_555
H24 C3 1_555 1_555
H25 C5 1_555 1_555
H26 C14 1_555 1_555
H27 C15 1_555 1_555
H28 C17 1_555 1_555
H29 C18 1_555 1_555
H30 C24 1_555 1_555
H31 N1 1_555 1_555
N1 C1 1_555 1_555
N2 C2 1_555 1_555
O1 C9 1_555 1_555
O2 N2 1_555 1_555
O3 N2 1_555 1_555
O4 C16 1_555 1_555
O5 C20 1_555 1_555
O6 C20 1_555 1_555
O7 C26 1_555 1_555
C30 C4 1_555 1_555
N3 C30 1_555 1_555
C5 N1 1_555 1_555
C10 C11 1_555 1_555
C12 O1 1_555 1_555
C17 C18 1_555 1_555
C19 O4 1_555 1_555
C21 O6 1_555 1_555
C27 C28 1_555 1_555
C29 O7 1_555 1_555

#END
