
#######################################################################
#
#                 Cambridge Crystallographic Data Centre
#                                CCDC 
#
#######################################################################
#
# If this CIF has been generated from an entry in the Cambridge 
# Structural Database, then it will include bibliographic, chemical, 
# crystal, experimental, refinement or atomic coordinate data resulting 
# from the CCDC's data processing and validation procedures.
#
#######################################################################

data_BIYPEG
_chemical_formula_moiety         'C30 H31 N3 O7'
_chemical_name_systematic        
'ethyl 3-cyano-2,4,6-tris(3-methoxyphenyl)-5-nitropiperidine-3-carboxylate'
_symmetry_cell_setting           monoclinic
_symmetry_space_group_name_H-M   'P 21/c'
_symmetry_Int_Tables_number      14
_space_group_name_Hall           '-P 2ybc'
loop_
_symmetry_equiv_pos_site_id
_symmetry_equiv_pos_as_xyz
1 x,y,z
2 -x,1/2+y,1/2-z
3 -x,-y,-z
4 x,1/2-y,1/2+z
_cell_length_a                   13.6475(17)
_cell_length_b                   17.409(2)
_cell_length_c                   12.1547(14)
_cell_angle_alpha                90
_cell_angle_beta                 103.603(4)
_cell_angle_gamma                90
_cell_volume                     2806.82
_exptl_crystal_colour            colorless
_exptl_crystal_description       block
_cell_formula_units_Z            4
loop_
_atom_site_label
_atom_site_type_symbol
_atom_site_fract_x
_atom_site_fract_y
_atom_site_fract_z
C1 C 0.37308(17) 0.73745(13) 0.52512(19)
H1 H 0.3669 0.7408 0.6037
C2 C 0.27902(17) 0.69454(14) 0.45812(18)
H2 H 0.2683 0.6518 0.5064
C3 C 0.18270(17) 0.74349(14) 0.43798(19)
H3 H 0.1708 0.7488 0.5140
C4 C 0.19649(17) 0.82781(13) 0.40280(18)
C5 C 0.28805(17) 0.86094(13) 0.49321(18)
H4 H 0.2755 0.8521 0.5684
C6 C 0.46970(18) 0.69521(14) 0.5269(2)
C7 C 0.52871(19) 0.71346(15) 0.4532(2)
H5 H 0.5091 0.7524 0.4002
C8 C 0.6176(2) 0.6734(2) 0.4581(3)
C9 C 0.6457(3) 0.6150(2) 0.5358(3)
H6 H 0.7049 0.5878 0.5386
C10 C 0.5874(3) 0.5973(2) 0.6076(3)
H7 H 0.6071 0.5581 0.6601
C11 C 0.4994(2) 0.63650(18) 0.6045(3)
H8 H 0.4598 0.6236 0.6544
C12 C 0.6536(3) 0.7395(2) 0.3031(3)
H9 H 0.6430 0.7887 0.3342
H10 H 0.5923 0.7229 0.2522
H11 H 0.7059 0.7437 0.2626
C13 C 0.30426(18) 0.94610(13) 0.48044(19)
C14 C 0.36674(18) 0.97396(13) 0.41394(19)
H12 H 0.3988 0.9401 0.3747
C15 C 0.38072(18) 1.05220(14) 0.4067(2)
C16 C 0.3309(2) 1.10241(16) 0.4630(2)
H13 H 0.3398 1.1551 0.4573
C17 C 0.2690(2) 1.07502(17) 0.5268(3)
H14 H 0.2352 1.1092 0.5635
C18 C 0.2560(2) 0.99708(16) 0.5374(2)
H15 H 0.2149 0.9788 0.5828
C19 C 0.4859(2) 1.03817(17) 0.2762(3)
H16 H 0.4328 1.0140 0.2212
H17 H 0.5275 0.9995 0.3205
H18 H 0.5261 1.0691 0.2382
C20 C 0.08837(18) 0.70230(14) 0.3728(2)
C21 C 0.0532(2) 0.7056(2) 0.2565(2)
H19 H 0.0879 0.7339 0.2129
C22 C -0.0334(3) 0.6667(2) 0.2056(3)
H20 H -0.0577 0.6702 0.1276
C23 C -0.0846(2) 0.6232(2) 0.2672(3)
H21 H -0.1429 0.5972 0.2314
C24 C -0.0493(2) 0.61824(16) 0.3820(2)
C25 C 0.03641(19) 0.65883(15) 0.4343(2)
H22 H 0.0592 0.6566 0.5126
C26 C -0.1645(3) 0.5195(2) 0.4012(3)
H23 H -0.1352 0.4864 0.3545
H24 H -0.2228 0.5444 0.3555
H25 H -0.1838 0.4897 0.4591
C27 C 0.21669(18) 0.83917(13) 0.2900(2)
C28 C 0.1006(2) 0.87033(15) 0.4123(2)
C29 C -0.0299(11) 0.9533(12) 0.3365(9)
H26 H -0.0584 0.9302 0.3945
H27 H -0.0121 1.0063 0.3569
C30 C -0.1013(6) 0.9486(6) 0.2239(7)
H28 H -0.0712 0.9714 0.1679
H29 H -0.1622 0.9756 0.2259
H30 H -0.1167 0.8957 0.2049
N1 N 0.37614(15) 0.81591(11) 0.48441(16)
H31 H 0.4282(19) 0.8372(14) 0.521(2)
N2 N 0.29561(16) 0.65850(14) 0.35130(18)
N3 N 0.23373(17) 0.85202(13) 0.20424(18)
O1 O 0.31594(17) 0.69783(12) 0.27946(15)
O2 O 0.2895(2) 0.58922(13) 0.3450(2)
O3 O 0.68156(18) 0.68682(18) 0.3894(2)
O4 O 0.44348(14) 1.08544(10) 0.34810(16)
O5 O -0.09279(16) 0.57592(12) 0.45219(18)
O6 O 0.06977(16) 0.86810(13) 0.49612(18)
O7 O 0.05923(14) 0.90931(12) 0.32090(18)
C31? C -0.0414(14) 0.9449(14) 0.3029(13)
H32? H -0.0518 0.9630 0.3748
H33? H -0.0449 0.9889 0.2532
C32? C -0.1193(6) 0.8914(7) 0.2542(8)
H34? H -0.1100 0.8744 0.1822
H35? H -0.1838 0.9159 0.2439
H36? H -0.1163 0.8481 0.3037
loop_
_geom_bond_atom_site_label_1
_geom_bond_atom_site_label_2
_geom_bond_site_symmetry_1
_geom_bond_site_symmetry_2
C1 H1 1_555 1_555
C2 C1 1_555 1_555
H2 C2 1_555 1_555
C3 C2 1_555 1_555
H3 C3 1_555 1_555
C4 C3 1_555 1_555
C5 C4 1_555 1_555
H4 C5 1_555 1_555
C6 C1 1_555 1_555
C7 C6 1_555 1_555
H5 C7 1_555 1_555
C8 C7 1_555 1_555
C9 C8 1_555 1_555
H6 C9 1_555 1_555
C10 C9 1_555 1_555
H7 C10 1_555 1_555
C11 C6 1_555 1_555
H8 C11 1_555 1_555
C12 H9 1_555 1_555
H10 C12 1_555 1_555
H11 C12 1_555 1_555
C13 C5 1_555 1_555
C14 C13 1_555 1_555
H12 C14 1_555 1_555
C15 C14 1_555 1_555
C16 C15 1_555 1_555
H13 C16 1_555 1_555
C17 C16 1_555 1_555
H14 C17 1_555 1_555
C18 C13 1_555 1_555
H15 C18 1_555 1_555
C19 H16 1_555 1_555
H17 C19 1_555 1_555
H18 C19 1_555 1_555
C20 C3 1_555 1_555
C21 C20 1_555 1_555
H19 C21 1_555 1_555
C22 C21 1_555 1_555
H20 C22 1_555 1_555
C23 C22 1_555 1_555
H21 C23 1_555 1_555
C24 C23 1_555 1_555
C25 C20 1_555 1_555
H22 C25 1_555 1_555
C26 H23 1_555 1_555
H24 C26 1_555 1_555
H25 C26 1_555 1_555
C27 C4 1_555 1_555
C28 C4 1_555 1_555
C29 H26 1_555 1_555
H27 C29 1_555 1_555
C30 C29 1_555 1_555
H28 C30 1_555 1_555
H29 C30 1_555 1_555
H30 C30 1_555 1_555
N1 C1 1_555 1_555
H31 N1 1_555 1_555
N2 C2 1_555 1_555
N3 C27 1_555 1_555
O1 N2 1_555 1_555
O2 N2 1_555 1_555
O3 C8 1_555 1_555
O4 C15 1_555 1_555
O5 C24 1_555 1_555
O6 C28 1_555 1_555
O7 C28 1_555 1_555
C5 N1 1_555 1_555
C10 C11 1_555 1_555
C12 O3 1_555 1_555
C17 C18 1_555 1_555
C19 O4 1_555 1_555
C24 C25 1_555 1_555
C26 O5 1_555 1_555
C29 O7 1_555 1_555

#END
