
#######################################################################
#
#                 Cambridge Crystallographic Data Centre
#                                CCDC 
#
#######################################################################
#
# If this CIF has been generated from an entry in the Cambridge 
# Structural Database, then it will include bibliographic, chemical, 
# crystal, experimental, refinement or atomic coordinate data resulting 
# from the CCDC's data processing and validation procedures.
#
#######################################################################

data_BIYRAD
_chemical_compound_source        'marine-derived fungus Aspergillus carbonarius'
_chemical_name_common            
6-Benzyl-4-hydroxy-2-oxo-1,2-dihydropyridine-3-carbaldehyde
_chemical_formula_moiety         'C13 H11 N1 O3'
_chemical_name_systematic        'Carbonarone B'
_chemical_properties_biological  
'moderate antiproliferative activity against K562 cell lines; inactive against P388, A-549, BEL-7402 and HL60 cell lines'
_symmetry_cell_setting           triclinic
_symmetry_space_group_name_H-M   'P -1'
_symmetry_Int_Tables_number      2
_space_group_name_Hall           '-P 1'
loop_
_symmetry_equiv_pos_site_id
_symmetry_equiv_pos_as_xyz
1 x,y,z
2 -x,-y,-z
_cell_length_a                   4.774(5)
_cell_length_b                   9.248(10)
_cell_length_c                   13.332(14)
_cell_angle_alpha                95.889(14)
_cell_angle_beta                 98.411(15)
_cell_angle_gamma                102.340(15)
_cell_volume                     563.34
_exptl_crystal_colour            colorless
_exptl_crystal_description       block
_chemical_melting_point          209-209.5deg.C
_cell_formula_units_Z            2
loop_
_atom_site_label
_atom_site_type_symbol
_atom_site_fract_x
_atom_site_fract_y
_atom_site_fract_z
N1 N 0.2945(5) 0.5190(2) 0.10962(15)
H1 H 0.1311 0.4609 0.0801
O1 O 1.0701(4) 0.7856(2) 0.25831(13)
H2 H 1.1189 0.8584 0.2290
O2 O 0.2467(4) 0.6724(2) -0.01300(13)
O3 O 1.0316(5) 0.9634(2) 0.12137(15)
C1 C 0.7980(7) 0.8770(3) 0.0799(2)
H3 H 0.6994 0.8999 0.0203
C2 C 0.3954(6) 0.6477(3) 0.06693(19)
C3 C 0.6695(6) 0.7415(3) 0.11928(18)
C4 C 0.8154(6) 0.7015(3) 0.20828(19)
C5 C 0.6961(6) 0.5681(3) 0.24674(19)
H4 H 0.7921 0.5423 0.3057
C6 C 0.4381(6) 0.4785(3) 0.19572(19)
C7 C 0.2824(7) 0.3315(3) 0.2254(2)
H5 H 0.1011 0.3446 0.2454
H6 H 0.2333 0.2566 0.1652
C8 C 0.4494(6) 0.2715(3) 0.3111(2)
C9 C 0.4478(7) 0.3206(3) 0.4135(2)
H7 H 0.3464 0.3929 0.4295
C10 C 0.5962(8) 0.2628(4) 0.4923(2)
H8 H 0.5962 0.2982 0.5601
C11 C 0.7413(8) 0.1547(4) 0.4701(3)
H9 H 0.8377 0.1153 0.5227
C12 C 0.7441(8) 0.1037(4) 0.3689(3)
H10 H 0.8442 0.0307 0.3535
C13 C 0.5973(7) 0.1617(3) 0.2899(2)
H11 H 0.5989 0.1262 0.2222
loop_
_geom_bond_atom_site_label_1
_geom_bond_atom_site_label_2
_geom_bond_site_symmetry_1
_geom_bond_site_symmetry_2
N1 H1 1_555 1_555
O1 H2 1_555 1_555
O2 C2 1_555 1_555
O3 C1 1_555 1_555
C1 H3 1_555 1_555
C2 N1 1_555 1_555
C3 C1 1_555 1_555
C4 O1 1_555 1_555
C5 C4 1_555 1_555
H4 C5 1_555 1_555
C6 N1 1_555 1_555
C7 C6 1_555 1_555
H5 C7 1_555 1_555
H6 C7 1_555 1_555
C8 C7 1_555 1_555
C9 C8 1_555 1_555
H7 C9 1_555 1_555
C10 C9 1_555 1_555
H8 C10 1_555 1_555
C11 C10 1_555 1_555
H9 C11 1_555 1_555
C12 C11 1_555 1_555
H10 C12 1_555 1_555
C13 C8 1_555 1_555
H11 C13 1_555 1_555
C2 C3 1_555 1_555
C3 C4 1_555 1_555
C5 C6 1_555 1_555
C12 C13 1_555 1_555

#END
