
#######################################################################
#
#                 Cambridge Crystallographic Data Centre
#                                CCDC 
#
#######################################################################
#
# If this CIF has been generated from an entry in the Cambridge 
# Structural Database, then it will include bibliographic, chemical, 
# crystal, experimental, refinement or atomic coordinate data resulting 
# from the CCDC's data processing and validation procedures.
#
#######################################################################

data_BIYROS
_chemical_formula_moiety         'C32 H22 N2 O8,2(C2 H6 O1 S1)'
_chemical_name_systematic        
"2,2'-(1,3,6,8-tetraoxo-1,3,6,8-tetrahydrobenzo[lmn][3,8]phenanthroline-2,7-diyl)bis(3-phenylpropanoic acid) dimethyl sulfoxide solvate"
_symmetry_cell_setting           orthorhombic
_symmetry_space_group_name_H-M   'C 2 2 21'
_symmetry_Int_Tables_number      20
_space_group_name_Hall           'C 2n 2'
loop_
_symmetry_equiv_pos_site_id
_symmetry_equiv_pos_as_xyz
1 x,y,z
2 -x,-y,1/2+z
3 x,-y,-z
4 -x,y,1/2-z
5 1/2+x,1/2+y,z
6 1/2-x,1/2-y,1/2+z
7 1/2+x,1/2-y,-z
8 1/2-x,1/2+y,1/2-z
_cell_length_a                   8.953(3)
_cell_length_b                   13.508(6)
_cell_length_c                   27.663(11)
_cell_angle_alpha                90
_cell_angle_beta                 90
_cell_angle_gamma                90
_cell_volume                     3345.48
_exptl_crystal_colour            colorless
_exptl_crystal_description       needle
_cell_formula_units_Z            4
loop_
_atom_site_label
_atom_site_type_symbol
_atom_site_fract_x
_atom_site_fract_y
_atom_site_fract_z
O1 O 0.2567(9) 0.3168(6) 0.4730(3)
C1 C 0.2104(15) 0.1333(9) 0.5012(5)
H1 H 0.2276 0.1021 0.4697
H2 H 0.1414 0.0925 0.5202
H3 H 0.3055 0.1394 0.5185
C2 C 0.1146(19) 0.2846(9) 0.5548(5)
H4 H 0.0717 0.3512 0.5574
H5 H 0.2133 0.2837 0.5701
H6 H 0.0490 0.2370 0.5711
S1 S 0.1323(3) 0.2519(2) 0.49269(11)
N1 N 0.1712(9) 0.5173(6) 0.3202(3)
O2 O 0.1665(8) 0.3497(5) 0.3173(2)
O3 O 0.1718(8) 0.6851(5) 0.3209(2)
C3 C 0.2291(11) 0.4263(7) 0.3052(3)
O4 O 0.1835(8) 0.4551(5) 0.4145(3)
H7 H 0.1909 0.4144 0.4373
C4 C 0.2320(11) 0.6088(7) 0.3074(3)
C5 C 0.4323(11) 0.5173(7) 0.2637(3)
C6 C 0.3701(11) 0.6085(7) 0.2778(3)
C7 C 0.0358(11) 0.5148(7) 0.3499(3)
H8 H 0.0235 0.5823 0.3641
C8 C 0.4346(11) 0.6959(7) 0.2644(4)
H9 H 0.3915 0.7568 0.2743
C9 C 0.4311(11) 0.3395(7) 0.2634(3)
H10 H 0.3839 0.2787 0.2715
C10 C -0.1024(11) 0.4948(7) 0.3192(3)
H11 H -0.1038 0.4241 0.3099
H12 H -0.0964 0.5346 0.2892
C11 C 0.3691(12) 0.4262(7) 0.2769(3)
O5 O -0.0431(8) 0.3847(5) 0.4052(2)
C12 C -0.2477(6) 0.5197(4) 0.3456(2)
C13 C -0.2825(7) 0.6186(4) 0.3538(3)
H13 H -0.2173 0.6692 0.3426
C14 C -0.4126(7) 0.6435(3) 0.3783(3)
H14 H -0.4364 0.7111 0.3839
C15 C -0.5079(6) 0.5695(4) 0.3947(2)
H15 H -0.5969 0.5865 0.4115
C16 C -0.4732(6) 0.4707(4) 0.3865(2)
H16 H -0.5383 0.4201 0.3977
C17 C -0.3431(7) 0.4458(3) 0.3619(2)
H17 H -0.3193 0.3782 0.3563
C18 C 0.0543(12) 0.4424(7) 0.3923(4)
N1C N 0.8288(9) 0.5173(6) 0.1798(3)
O2C O 0.8335(8) 0.3497(5) 0.1827(2)
O3C O 0.8282(8) 0.6851(5) 0.1791(2)
C3C C 0.7709(11) 0.4263(7) 0.1948(3)
O4C O 0.8165(8) 0.4551(5) 0.0855(3)
H7C H 0.8091 0.4144 0.0627
C4C C 0.7680(11) 0.6088(7) 0.1926(3)
C5C C 0.5677(11) 0.5173(7) 0.2363(3)
C6C C 0.6299(11) 0.6085(7) 0.2222(3)
C7C C 0.9642(11) 0.5148(7) 0.1501(3)
H8C H 0.9765 0.5823 0.1359
C8C C 0.5654(11) 0.6959(7) 0.2356(4)
H9C H 0.6085 0.7568 0.2257
C9C C 0.5689(11) 0.3395(7) 0.2366(3)
H10C H 0.6161 0.2787 0.2285
C10C C 1.1024(11) 0.4948(7) 0.1808(3)
H11C H 1.1038 0.4241 0.1901
H12C H 1.0964 0.5346 0.2108
C11C C 0.6309(12) 0.4262(7) 0.2231(3)
O5C O 1.0431(8) 0.3847(5) 0.0948(2)
C12C C 1.2477(6) 0.5197(4) 0.1544(2)
C13C C 1.2825(7) 0.6186(4) 0.1462(3)
H13C H 1.2173 0.6692 0.1574
C14C C 1.4126(7) 0.6435(3) 0.1217(3)
H14C H 1.4364 0.7111 0.1161
C15C C 1.5079(6) 0.5695(4) 0.1053(2)
H15C H 1.5969 0.5865 0.0885
C16C C 1.4732(6) 0.4707(4) 0.1135(2)
H16C H 1.5383 0.4201 0.1023
C17C C 1.3431(7) 0.4458(3) 0.1381(2)
H17C H 1.3193 0.3782 0.1437
C18C C 0.9457(12) 0.4424(7) 0.1077(4)
loop_
_geom_bond_atom_site_label_1
_geom_bond_atom_site_label_2
_geom_bond_site_symmetry_1
_geom_bond_site_symmetry_2
O1 S1 1_555 1_555
C1 H1 1_555 1_555
H2 C1 1_555 1_555
H3 C1 1_555 1_555
C2 H4 1_555 1_555
H5 C2 1_555 1_555
H6 C2 1_555 1_555
S1 C1 1_555 1_555
N1 C3 1_555 1_555
O2 C3 1_555 1_555
O3 C4 1_555 1_555
C3 C11 1_555 1_555
O4 H7 1_555 1_555
C4 N1 1_555 1_555
C5 C6 1_555 1_555
C6 C4 1_555 1_555
C7 N1 1_555 1_555
H8 C7 1_555 1_555
C8 C6 1_555 1_555
H9 C8 1_555 1_555
C9 H10 1_555 1_555
C10 C7 1_555 1_555
H11 C10 1_555 1_555
H12 C10 1_555 1_555
C11 C5 1_555 1_555
O5 C18 1_555 1_555
C12 C10 1_555 1_555
C13 C12 1_555 1_555
H13 C13 1_555 1_555
C14 C13 1_555 1_555
H14 C14 1_555 1_555
C15 C14 1_555 1_555
H15 C15 1_555 1_555
C16 C15 1_555 1_555
H16 C16 1_555 1_555
C17 C12 1_555 1_555
H17 C17 1_555 1_555
C18 O4 1_555 1_555
N1C C3C 1_555 1_555
O2C C3C 1_555 1_555
O3C C4C 1_555 1_555
C3C C11C 1_555 1_555
O4C H7C 1_555 1_555
C4C N1C 1_555 1_555
C5C C5 1_555 1_555
C6C C4C 1_555 1_555
C7C N1C 1_555 1_555
H8C C7C 1_555 1_555
C8C C8 1_555 1_555
H9C C8C 1_555 1_555
C9C C9 1_555 1_555
H10C C9C 1_555 1_555
C10C C7C 1_555 1_555
H11C C10C 1_555 1_555
H12C C10C 1_555 1_555
C11C C5C 1_555 1_555
O5C C18C 1_555 1_555
C12C C10C 1_555 1_555
C13C C12C 1_555 1_555
H13C C13C 1_555 1_555
C14C C13C 1_555 1_555
H14C C14C 1_555 1_555
C15C C14C 1_555 1_555
H15C C15C 1_555 1_555
C16C C15C 1_555 1_555
H16C C16C 1_555 1_555
C17C C12C 1_555 1_555
H17C C17C 1_555 1_555
C18C O4C 1_555 1_555
C2 S1 1_555 1_555
C7 C18 1_555 1_555
C9 C11 1_555 1_555
C16 C17 1_555 1_555
C5C C6C 1_555 1_555
C6C C8C 1_555 1_555
C7C C18C 1_555 1_555
C9C C11C 1_555 1_555
C16C C17C 1_555 1_555

#END
