
#######################################################################
#
#                 Cambridge Crystallographic Data Centre
#                                CCDC 
#
#######################################################################
#
# If this CIF has been generated from an entry in the Cambridge 
# Structural Database, then it will include bibliographic, chemical, 
# crystal, experimental, refinement or atomic coordinate data resulting 
# from the CCDC's data processing and validation procedures.
#
#######################################################################

data_BIYRIM
_chemical_formula_moiety         'C18 H14 N2 O4'
_chemical_name_systematic        
2,7-diethylbenzo[lmn][3,8]phenanthroline-1,3,6,8(2H,7H)-tetrone
_symmetry_cell_setting           monoclinic
_symmetry_space_group_name_H-M   'P 21/c'
_symmetry_Int_Tables_number      14
_space_group_name_Hall           '-P 2ybc'
loop_
_symmetry_equiv_pos_site_id
_symmetry_equiv_pos_as_xyz
1 x,y,z
2 -x,1/2+y,1/2-z
3 -x,-y,-z
4 x,1/2-y,1/2+z
_cell_length_a                   4.8667(3)
_cell_length_b                   7.7561(4)
_cell_length_c                   18.3813(12)
_cell_angle_alpha                90
_cell_angle_beta                 90.214(4)
_cell_angle_gamma                90
_cell_volume                     693.827
_exptl_crystal_colour            colorless
_exptl_crystal_description       needle
_cell_formula_units_Z            2
loop_
_atom_site_label
_atom_site_type_symbol
_atom_site_fract_x
_atom_site_fract_y
_atom_site_fract_z
N1 N 0.1483(2) 0.33079(15) 0.37535(7)
O1 O 0.4920(2) 0.16929(13) 0.32821(6)
C1 C -0.1201(3) 0.22164(18) 0.47785(8)
O2 O -0.2004(2) 0.49065(13) 0.42179(6)
C2 C 0.0297(3) 0.06611(18) 0.47510(8)
C3 C 0.2382(3) 0.04117(18) 0.42318(8)
C4 C -0.0659(3) 0.35873(18) 0.42406(8)
C5 C 0.3795(3) -0.11260(19) 0.42070(8)
H1 H 0.5182 -0.1294 0.3852
C6 C 0.3067(3) 0.18130(18) 0.37216(8)
C7 C -0.3199(3) 0.24438(19) 0.52966(9)
H2 H -0.4181 0.3501 0.5318
C8 C 0.1992(3) 0.46240(19) 0.31894(9)
H3 H 0.3995 0.4740 0.3111
H4 H 0.1282 0.5752 0.3357
C9 C 0.0608(3) 0.4139(2) 0.24803(9)
H5 H 0.0979 0.5029 0.2115
H6 H -0.1379 0.4045 0.2555
H7 H 0.1328 0.3030 0.2311
N1B N -0.1483(2) -0.33079(15) 0.62465(7)
O1B O -0.4920(2) -0.16929(13) 0.67179(6)
C1B C 0.1201(3) -0.22164(18) 0.52215(8)
O2B O 0.2004(2) -0.49065(13) 0.57821(6)
C2B C -0.0297(3) -0.06611(18) 0.52490(8)
C3B C -0.2382(3) -0.04117(18) 0.57682(8)
C4B C 0.0659(3) -0.35873(18) 0.57594(8)
C5B C -0.3795(3) 0.11260(19) 0.57930(8)
H1B H -0.5182 0.1294 0.6148
C6B C -0.3067(3) -0.18130(18) 0.62784(8)
C7B C 0.3199(3) -0.24438(19) 0.47034(9)
H2B H 0.4181 -0.3501 0.4682
C8B C -0.1992(3) -0.46240(19) 0.68106(9)
H3B H -0.3995 -0.4740 0.6889
H4B H -0.1282 -0.5752 0.6643
C9B C -0.0608(3) -0.4139(2) 0.75197(9)
H5B H -0.0979 -0.5029 0.7885
H6B H 0.1379 -0.4045 0.7445
H7B H -0.1328 -0.3030 0.7689
loop_
_geom_bond_atom_site_label_1
_geom_bond_atom_site_label_2
_geom_bond_site_symmetry_1
_geom_bond_site_symmetry_2
N1 C4 1_555 1_555
O1 C6 1_555 1_555
C1 C2 1_555 1_555
O2 C4 1_555 1_555
C2 C3 1_555 1_555
C3 C5 1_555 1_555
C4 C1 1_555 1_555
C5 H1 1_555 1_555
C6 N1 1_555 1_555
C7 C1 1_555 1_555
H2 C7 1_555 1_555
C8 N1 1_555 1_555
H3 C8 1_555 1_555
H4 C8 1_555 1_555
C9 C8 1_555 1_555
H5 C9 1_555 1_555
H6 C9 1_555 1_555
H7 C9 1_555 1_555
N1B C4B 1_555 1_555
O1B C6B 1_555 1_555
C1B C2B 1_555 1_555
O2B C4B 1_555 1_555
C2B C2 1_555 1_555
C3B C2B 1_555 1_555
C4B C1B 1_555 1_555
C5B C7 1_555 1_555
H1B C5B 1_555 1_555
C6B N1B 1_555 1_555
C7B C5 1_555 1_555
H2B C7B 1_555 1_555
C8B N1B 1_555 1_555
H3B C8B 1_555 1_555
H4B C8B 1_555 1_555
C9B C8B 1_555 1_555
H5B C9B 1_555 1_555
H6B C9B 1_555 1_555
H7B C9B 1_555 1_555
C3 C6 1_555 1_555
C1B C7B 1_555 1_555
C3B C5B 1_555 1_555
C3B C6B 1_555 1_555

#END
