
#######################################################################
#
#                 Cambridge Crystallographic Data Centre
#                                CCDC 
#
#######################################################################
#
# If this CIF has been generated from an entry in the Cambridge 
# Structural Database, then it will include bibliographic, chemical, 
# crystal, experimental, refinement or atomic coordinate data resulting 
# from the CCDC's data processing and validation procedures.
#
#######################################################################

data_BIYYAC
_chemical_formula_moiety         'C30 H26 N6'
_chemical_name_systematic        
4,5:15,16-Dibenzo-2,7:13,18-dimethano-7,13-dimethyl-3,6,14,17,23,24-hexa-azatricyclo(17.3.1.1^8,12^)tetracosa-1(23),2,8,11,12(24),17,19,21-octaene
_symmetry_cell_setting           orthorhombic
_symmetry_space_group_name_H-M   'P b n m'
_symmetry_Int_Tables_number      62
_space_group_name_Hall           '-P 2c 2ab'
loop_
_symmetry_equiv_pos_site_id
_symmetry_equiv_pos_as_xyz
1 x,y,z
2 -x,-y,1/2+z
3 1/2+x,1/2-y,-z
4 1/2-x,1/2+y,1/2-z
5 -x,-y,-z
6 x,y,1/2-z
7 1/2-x,1/2+y,z
8 1/2+x,1/2-y,1/2+z
_cell_length_a                   9.399(7)
_cell_length_b                   14.018(11)
_cell_length_c                   18.189(14)
_cell_angle_alpha                90
_cell_angle_beta                 90
_cell_angle_gamma                90
_cell_volume                     2396.5
_cell_formula_units_Z            4
loop_
_atom_site_label
_atom_site_type_symbol
_atom_site_fract_x
_atom_site_fract_y
_atom_site_fract_z
N1 N 0.31960 0.41120 0.75000
C1 C 0.39020 0.39950 0.68620
C2 C 0.30260 0.40360 0.61840
N2 N 0.36560 0.38670 0.55680
C3 C 0.28380 0.37950 0.49230
C4 C 0.15100 0.33230 0.48940
N3 N 0.09720 0.28390 0.55150
C5 C 0.05380 0.33620 0.61790
C6 C 0.08300 0.27650 0.68640
N4 N 0.04040 0.31490 0.75000
C7 C -0.10340 0.36510 0.61340
C8 C 0.14610 0.42660 0.62380
C9 C 0.34300 0.41370 0.42750
C10 C 0.27340 0.40470 0.36130
C11 C 0.14220 0.36060 0.35890
C12 C 0.08260 0.32480 0.42220
C13 C 0.16260 0.19190 0.68410
C14 C 0.19990 0.15010 0.75000
C15 C 0.60740 0.37050 0.75000
C16 C 0.53420 0.37950 0.68450
H1 H 0.03070 0.24660 0.53900
H2 H 0.57850 0.36800 0.63570
H3 H 0.70730 0.35390 0.75000
H4 H 0.43930 0.43970 0.43120
H5 H 0.30960 0.42050 0.31890
H6 H 0.09060 0.35720 0.31330
H7 H -0.01230 0.29760 0.42050
H8 H 0.12570 0.46060 0.67600
H9 H 0.11820 0.47470 0.57970
H10 H -0.13570 0.40360 0.66210
H11 H -0.16780 0.30180 0.60760
H12 H -0.11710 0.41000 0.56570
H13 H 0.19510 0.16980 0.63370
H14 H 0.24890 0.08480 0.75000
C1E C 0.39020 0.39950 0.81380
C6E C 0.08300 0.27650 0.81360
C13E C 0.16260 0.19190 0.81590
C16E C 0.53420 0.37950 0.81550
C2E C 0.30260 0.40360 0.88160
C5E C 0.05380 0.33620 0.88210
H13E H 0.19510 0.16980 0.86630
H2E H 0.57850 0.36800 0.86430
N2E N 0.36560 0.38670 0.94320
C8E C 0.14610 0.42660 0.87620
N3E N 0.09720 0.28390 0.94850
C7E C -0.10340 0.36510 0.88660
C3E C 0.28380 0.37950 1.00770
H8E H 0.12570 0.46060 0.82400
H9E H 0.11820 0.47470 0.92030
C4E C 0.15100 0.33230 1.01060
H1E H 0.03070 0.24660 0.96100
H10E H -0.13570 0.40360 0.83790
H11E H -0.16780 0.30180 0.89240
H12E H -0.11710 0.41000 0.93430
C9E C 0.34300 0.41370 1.07250
C12E C 0.08260 0.32480 1.07780
C10E C 0.27340 0.40470 1.13870
H4E H 0.43930 0.43970 1.06880
C11E C 0.14220 0.36060 1.14110
H7E H -0.01230 0.29760 1.07950
H5E H 0.30960 0.42050 1.18110
H6E H 0.09060 0.35720 1.18670
loop_
_geom_bond_atom_site_label_1
_geom_bond_atom_site_label_2
_geom_bond_site_symmetry_1
_geom_bond_site_symmetry_2
N1 C1 1_555 1_555
C1 C2 1_555 1_555
C2 N2 1_555 1_555
N2 C3 1_555 1_555
C3 C4 1_555 1_555
C4 N3 1_555 1_555
N3 C5 1_555 1_555
C5 C6 1_555 1_555
C6 N4 1_555 1_555
N4 C6E 1_555 1_555
C7 C5 1_555 1_555
C8 C2 1_555 1_555
C9 C3 1_555 1_555
C10 C9 1_555 1_555
C11 C10 1_555 1_555
C12 C4 1_555 1_555
C13 C6 1_555 1_555
C14 C13 1_555 1_555
C15 C16 1_555 1_555
C16 C1 1_555 1_555
H1 N3 1_555 1_555
H2 C16 1_555 1_555
H3 C15 1_555 1_555
H4 C9 1_555 1_555
H5 C10 1_555 1_555
H6 C11 1_555 1_555
H7 C12 1_555 1_555
H8 C8 1_555 1_555
H9 C8 1_555 1_555
H10 C7 1_555 1_555
H11 C7 1_555 1_555
H12 C7 1_555 1_555
H13 C13 1_555 1_555
H14 C14 1_555 1_555
C1E N1 1_555 1_555
C6E C13E 1_555 1_555
C13E C14 1_555 1_555
C16E C15 1_555 1_555
C2E C1E 1_555 1_555
C5E C6E 1_555 1_555
H13E C13E 1_555 1_555
H2E C16E 1_555 1_555
N2E C2E 1_555 1_555
C8E C2E 1_555 1_555
N3E C5E 1_555 1_555
C7E C5E 1_555 1_555
C3E N2E 1_555 1_555
H8E C8E 1_555 1_555
H9E C8E 1_555 1_555
C4E N3E 1_555 1_555
H1E N3E 1_555 1_555
H10E C7E 1_555 1_555
H11E C7E 1_555 1_555
H12E C7E 1_555 1_555
C9E C3E 1_555 1_555
C12E C4E 1_555 1_555
C10E C9E 1_555 1_555
H4E C9E 1_555 1_555
C11E C12E 1_555 1_555
H7E C12E 1_555 1_555
H5E C10E 1_555 1_555
H6E C11E 1_555 1_555
C5 C8 1_555 1_555
C11 C12 1_555 1_555
C1E C16E 1_555 1_555
C5E C8E 1_555 1_555
C3E C4E 1_555 1_555
C10E C11E 1_555 1_555

#END
