
#######################################################################
#
#                 Cambridge Crystallographic Data Centre
#                                CCDC 
#
#######################################################################
#
# If this CIF has been generated from an entry in the Cambridge 
# Structural Database, then it will include bibliographic, chemical, 
# crystal, experimental, refinement or atomic coordinate data resulting 
# from the CCDC's data processing and validation procedures.
#
#######################################################################

data_BIYZOA
_chemical_formula_moiety         'C36 H47 Mg2 N5 O2'
_chemical_name_systematic        
bis(\m~2~-Benzyloxo)-(\m~2~-bis(2-(5-t-butylpyrrol-2-ylmethyleneamino)ethyl)amine)-di-magnesium
_symmetry_cell_setting           monoclinic
_symmetry_space_group_name_H-M   'C 2/c'
_symmetry_Int_Tables_number      15
_space_group_name_Hall           '-C 2yn'
loop_
_symmetry_equiv_pos_site_id
_symmetry_equiv_pos_as_xyz
1 x,y,z
2 -x,y,1/2-z
3 1/2+x,1/2+y,z
4 1/2-x,1/2+y,1/2-z
5 -x,-y,-z
6 x,-y,1/2+z
7 1/2-x,1/2-y,-z
8 1/2+x,1/2-y,1/2+z
_cell_length_a                   26.0618(2)
_cell_length_b                   21.4306(2)
_cell_length_c                   18.9115(2)
_cell_angle_alpha                90
_cell_angle_beta                 93.8190(10)
_cell_angle_gamma                90
_cell_volume                     10539
_exptl_crystal_colour            colorless
_cell_formula_units_Z            12
loop_
_atom_site_label
_atom_site_type_symbol
_atom_site_fract_x
_atom_site_fract_y
_atom_site_fract_z
Mg1 Mg 0.97152(3) 0.28354(4) 0.68402(4)
O1 O 0.95788(6) 0.29714(8) 0.78300(9)
N1 N 0.93042(8) 0.33361(10) 0.60743(11)
N2 N 0.94004(12) 0.20658(11) 0.62836(14)
N3 N 1.0000 0.14804(16) 0.7500
H1 H 1.0000 0.1882 0.7500
C1 C 0.94241(11) 0.44896(13) 0.61549(15)
C2 C 0.84950(10) 0.22140(13) 0.76133(15)
H2 H 0.8430 0.2461 0.7213
C3 C 0.91836(10) 0.39110(14) 0.58198(14)
C4 C 0.88223(9) 0.24323(12) 0.81674(13)
C5 C 0.82639(11) 0.16335(14) 0.76481(16)
H3 H 0.8047 0.1491 0.7272
C6 C 0.90270(10) 0.29170(15) 0.56406(14)
C7 C 0.90958(10) 0.30459(12) 0.81170(15)
H4 H 0.8886 0.3329 0.7820
H5 H 0.9144 0.3230 0.8585
C8 C 0.89120(11) 0.20578(12) 0.87608(14)
H6 H 0.9130 0.2197 0.9138
C9 C 0.87324(11) 0.32330(18) 0.51218(16)
H7 H 0.8513 0.3058 0.4768
C10 C 0.83562(12) 0.12675(13) 0.82428(17)
H8 H 0.8200 0.0879 0.8271
C11 C 0.93131(14) 0.45176(15) 0.69392(17)
H9 H 0.8948 0.4525 0.6981
H10 H 0.9464 0.4888 0.7148
H11 H 0.9458 0.4158 0.7179
C12 C 1.00076(12) 0.44761(16) 0.60954(19)
H12 H 1.0151 0.4120 0.6345
H13 H 1.0157 0.4850 0.6298
H14 H 1.0081 0.4450 0.5605
C13 C 0.86811(13) 0.14803(14) 0.87965(16)
H15 H 0.8745 0.1233 0.9197
C14 C 0.88294(11) 0.38626(17) 0.52320(15)
H16 H 0.8686 0.4191 0.4966
C15 C 0.90908(13) 0.22694(16) 0.57765(17)
C16 C 0.92047(17) 0.50784(17) 0.5789(2)
H17 H 0.9273 0.5069 0.5297
H18 H 0.9363 0.5440 0.6009
H19 H 0.8840 0.5095 0.5832
C17 C 0.9833(2) 0.1227(3) 0.6802(2)
H20 H 0.9825 0.0777 0.6860
H21 H 1.0110 0.1314 0.6498
C18 C 0.9355(3) 0.13900(14) 0.6382(4)
H22 H 0.9333 0.1174 0.5931
H23 H 0.9055 0.1288 0.6637
H24 H 0.8903(11) 0.1992(13) 0.5479(16)
N1A N 1.06958(8) 0.33361(10) 0.89257(11)
N2A N 1.05996(12) 0.20658(11) 0.87164(14)
C1A C 1.05759(11) 0.44896(13) 0.88451(15)
C3A C 1.08164(10) 0.39110(14) 0.91802(14)
C6A C 1.09730(10) 0.29170(15) 0.93594(14)
C9A C 1.12676(11) 0.32330(18) 0.98782(16)
H7A H 1.1487 0.3058 1.0232
C11A C 1.06869(14) 0.45176(15) 0.80608(17)
H9A H 1.1052 0.4525 0.8019
H10A H 1.0536 0.4888 0.7852
H11A H 1.0542 0.4158 0.7821
C12A C 0.99924(12) 0.44761(16) 0.89046(19)
H12A H 0.9849 0.4120 0.8655
H13A H 0.9843 0.4850 0.8702
H14A H 0.9919 0.4450 0.9395
C14A C 1.11706(11) 0.38626(17) 0.97680(15)
H16A H 1.1314 0.4191 1.0034
C15A C 1.09092(13) 0.22694(16) 0.92235(17)
C16A C 1.07953(17) 0.50784(17) 0.9211(2)
H17A H 1.0727 0.5069 0.9703
H18A H 1.0637 0.5440 0.8991
H19A H 1.1160 0.5095 0.9168
C17A C 1.0167(2) 0.1227(3) 0.8198(2)
H20A H 1.0175 0.0777 0.8140
H21A H 0.9890 0.1314 0.8502
C18A C 1.0645(3) 0.13900(14) 0.8618(4)
H22A H 1.0667 0.1174 0.9069
H23A H 1.0945 0.1288 0.8363
H24A H 1.1097(11) 0.1992(13) 0.9521(16)
Mg1A Mg 1.02848(3) 0.28354(4) 0.81598(4)
O1A O 1.04212(6) 0.29714(8) 0.71700(9)
C2A C 1.15050(10) 0.22140(13) 0.73867(15)
H2A H 1.1570 0.2461 0.7787
C4A C 1.11777(9) 0.24323(12) 0.68326(13)
C5A C 1.17361(11) 0.16335(14) 0.73519(16)
H3A H 1.1953 0.1491 0.7728
C7A C 1.09042(10) 0.30459(12) 0.68830(15)
H4A H 1.1114 0.3329 0.7180
H5A H 1.0856 0.3230 0.6415
C8A C 1.10880(11) 0.20578(12) 0.62392(14)
H6A H 1.0870 0.2197 0.5862
C10A C 1.16438(12) 0.12675(13) 0.67572(17)
H8A H 1.1800 0.0879 0.6729
C13A C 1.13189(13) 0.14803(14) 0.62035(16)
H15A H 1.1255 0.1233 0.5803
Mg2 Mg 0.63645(3) 0.33718(4) 0.82275(5)
Mg3 Mg 0.69479(3) 0.27806(4) 0.72198(5)
O2 O 0.62473(7) 0.30741(8) 0.72616(10)
O3 O 0.69861(7) 0.28644(8) 0.82419(9)
N4 N 0.70930(8) 0.20017(10) 0.66290(11)
N5 N 0.58047(8) 0.32916(10) 0.89421(11)
C21 C 0.66058(10) 0.10530(12) 0.69621(15)
N6 N 0.74751(10) 0.31946(11) 0.65743(14)
C22 C 0.74555(10) 0.21576(12) 0.61547(14)
C23 C 0.55273(10) 0.21953(12) 0.91644(14)
C24 C 0.69975(10) 0.13838(12) 0.65385(13)
C25 C 0.75235(10) 0.32799(13) 0.92209(14)
N7 N 0.62796(10) 0.43265(11) 0.84251(15)
N8 N 0.71074(11) 0.42627(11) 0.74102(15)
H29 H 0.6860 0.4016 0.7273
C26 C 0.56805(10) 0.38871(12) 0.91607(14)
C27 C 0.73016(10) 0.11415(13) 0.60181(14)
H30 H 0.7309 0.0730 0.5865
C28 C 0.54970(10) 0.28940(12) 0.92771(13)
C29 C 0.76375(11) 0.27823(14) 0.61424(15)
C30 C 0.79828(10) 0.35801(14) 0.91154(16)
H31 H 0.8198 0.3422 0.8785
C31 C 0.53613(12) 0.20395(13) 0.83927(15)
H32 H 0.5386 0.1597 0.8320
H33 H 0.5581 0.2253 0.8084
H34 H 0.5012 0.2171 0.8290
C32 C 0.73577(11) 0.27128(13) 0.87951(15)
H35 H 0.7655 0.2528 0.8595
H36 H 0.7215 0.2407 0.9105
C33 C 0.60830(11) 0.13810(14) 0.68588(18)
H37 H 0.5971 0.1379 0.6365
H38 H 0.6115 0.1804 0.7024
H39 H 0.5836 0.1165 0.7123
C34 C 0.51793(10) 0.32271(13) 0.97097(14)
H40 H 0.4937 0.3060 0.9995
C35 C 0.52942(11) 0.38567(13) 0.96329(15)
H41 H 0.5143 0.4191 0.9853
C36 C 0.67836(13) 0.10638(14) 0.77519(15)
H42 H 0.6806 0.1488 0.7914
H43 H 0.7115 0.0869 0.7819
H44 H 0.6541 0.0841 0.8017
C37 C 0.51713(13) 0.18556(14) 0.96480(17)
H45 H 0.4824 0.1993 0.9544
H46 H 0.5274 0.1947 1.0134
H47 H 0.5193 0.1414 0.9570
C38 C 0.59393(12) 0.37814(13) 0.63371(19)
C39 C 0.59369(12) 0.44031(13) 0.88784(17)
C40 C 0.65373(12) 0.03789(13) 0.67098(17)
H48 H 0.6291 0.0173 0.6985
H49 H 0.6861 0.0165 0.6767
H50 H 0.6417 0.0375 0.6219
C41 C 0.60806(11) 0.19711(13) 0.93256(18)
H51 H 0.6094 0.1525 0.9279
H52 H 0.6195 0.2088 0.9800
H53 H 0.6300 0.2160 0.8998
C42 C 0.81270(12) 0.41123(15) 0.94934(19)
H54 H 0.8439 0.4304 0.9421
C43 C 0.75888(10) 0.16340(13) 0.57759(14)
H55 H 0.7824 0.1616 0.5428
C44 C 0.58299(16) 0.48739(15) 0.6100(2)
H56 H 0.5674 0.5250 0.6203
C45 C 0.78122(15) 0.43570(16) 0.99738(19)
H57 H 0.7907 0.4717 1.0224
C46 C 0.70339(14) 0.47390(15) 0.7917(2)
H58 H 0.7174 0.5122 0.7737
H59 H 0.7241 0.4632 0.8345
C47 C 0.58487(12) 0.31894(14) 0.67356(18)
H60 H 0.5524 0.3219 0.6956
H61 H 0.5825 0.2842 0.6406
C48 C 0.57184(14) 0.43417(16) 0.6477(2)
H62 H 0.5489 0.4367 0.6832
C49 C 0.62848(15) 0.37675(15) 0.57945(18)
H63 H 0.6441 0.3392 0.5686
C50 C 0.72134(13) 0.35301(16) 0.97149(18)
H64 H 0.6905 0.3335 0.9801
C51 C 0.75939(16) 0.42058(17) 0.7140(2)
H65 H 0.7825 0.4043 0.7519
H66 H 0.7711 0.4624 0.7040
C52 C 0.76635(17) 0.38343(16) 0.6523(2)
H67 H 0.8027 0.3822 0.6441
H68 H 0.7486 0.4034 0.6116
C53 C 0.65236(15) 0.48729(15) 0.8119(2)
H69 H 0.6314 0.5013 0.7706
H70 H 0.6539 0.5209 0.8463
C54 C 0.61651(19) 0.48503(17) 0.5579(2)
H71 H 0.6238 0.5210 0.5330
C55 C 0.73575(16) 0.40680(19) 1.0083(2)
H72 H 0.7142 0.4234 1.0409
C56 C 0.63962(18) 0.42982(17) 0.54204(19)
H73 H 0.6626 0.4281 0.5065
H74 H 0.7879(9) 0.2889(13) 0.5813(13)
H75 H 0.5839(11) 0.4810(9) 0.9013(15)
C19? C 0.9580(4) 0.1424(2) 0.6406(5)
H25? H 0.9932 0.1402 0.6269
H26? H 0.9376 0.1155 0.6084
C20? C 0.9570(2) 0.1156(3) 0.7122(3)
H27? H 0.9248 0.1244 0.7329
H28? H 0.9625 0.0709 0.7117
loop_
_geom_bond_atom_site_label_1
_geom_bond_atom_site_label_2
_geom_bond_site_symmetry_1
_geom_bond_site_symmetry_2
Mg1 O1 1_555 1_555
O1 C7 1_555 1_555
N1 Mg1 1_555 1_555
N2 Mg1 1_555 1_555
N3 H1 1_555 1_555
C1 C3 1_555 1_555
C2 H2 1_555 1_555
C3 N1 1_555 1_555
C4 C2 1_555 1_555
C5 C2 1_555 1_555
H3 C5 1_555 1_555
C6 N1 1_555 1_555
C7 C4 1_555 1_555
H4 C7 1_555 1_555
H5 C7 1_555 1_555
C8 C4 1_555 1_555
H6 C8 1_555 1_555
C9 C6 1_555 1_555
H7 C9 1_555 1_555
C10 C5 1_555 1_555
H8 C10 1_555 1_555
C11 C1 1_555 1_555
H9 C11 1_555 1_555
H10 C11 1_555 1_555
H11 C11 1_555 1_555
C12 C1 1_555 1_555
H12 C12 1_555 1_555
H13 C12 1_555 1_555
H14 C12 1_555 1_555
C13 C8 1_555 1_555
H15 C13 1_555 1_555
C14 C3 1_555 1_555
H16 C14 1_555 1_555
C15 N2 1_555 1_555
C16 C1 1_555 1_555
H17 C16 1_555 1_555
H18 C16 1_555 1_555
H19 C16 1_555 1_555
C17 N3 1_555 1_555
H20 C17 1_555 1_555
H21 C17 1_555 1_555
C18 N2 1_555 1_555
H22 C18 1_555 1_555
H23 C18 1_555 1_555
H24 C15 1_555 1_555
Mg2 O2 1_555 1_555
Mg3 O2 1_555 1_555
O2 C47 1_555 1_555
O3 Mg2 1_555 1_555
N4 Mg3 1_555 1_555
N5 Mg2 1_555 1_555
C21 C24 1_555 1_555
N6 Mg3 1_555 1_555
C22 N4 1_555 1_555
C23 C28 1_555 1_555
C24 N4 1_555 1_555
C25 C30 1_555 1_555
N7 Mg2 1_555 1_555
N8 H29 1_555 1_555
C26 N5 1_555 1_555
C27 C24 1_555 1_555
H30 C27 1_555 1_555
C28 N5 1_555 1_555
C29 N6 1_555 1_555
C30 H31 1_555 1_555
C31 C23 1_555 1_555
H32 C31 1_555 1_555
H33 C31 1_555 1_555
H34 C31 1_555 1_555
C32 O3 1_555 1_555
H35 C32 1_555 1_555
H36 C32 1_555 1_555
C33 C21 1_555 1_555
H37 C33 1_555 1_555
H38 C33 1_555 1_555
H39 C33 1_555 1_555
C34 C28 1_555 1_555
H40 C34 1_555 1_555
C35 C26 1_555 1_555
H41 C35 1_555 1_555
C36 C21 1_555 1_555
H42 C36 1_555 1_555
H43 C36 1_555 1_555
H44 C36 1_555 1_555
C37 C23 1_555 1_555
H45 C37 1_555 1_555
H46 C37 1_555 1_555
H47 C37 1_555 1_555
C38 C47 1_555 1_555
C39 N7 1_555 1_555
C40 C21 1_555 1_555
H48 C40 1_555 1_555
H49 C40 1_555 1_555
H50 C40 1_555 1_555
C41 C23 1_555 1_555
H51 C41 1_555 1_555
H52 C41 1_555 1_555
H53 C41 1_555 1_555
C42 C30 1_555 1_555
H54 C42 1_555 1_555
C43 C22 1_555 1_555
H55 C43 1_555 1_555
C44 H56 1_555 1_555
C45 C42 1_555 1_555
H57 C45 1_555 1_555
C46 N8 1_555 1_555
H58 C46 1_555 1_555
H59 C46 1_555 1_555
C47 H60 1_555 1_555
H61 C47 1_555 1_555
C48 C38 1_555 1_555
H62 C48 1_555 1_555
C49 C38 1_555 1_555
H63 C49 1_555 1_555
C50 C25 1_555 1_555
H64 C50 1_555 1_555
C51 N8 1_555 1_555
H65 C51 1_555 1_555
H66 C51 1_555 1_555
C52 N6 1_555 1_555
H67 C52 1_555 1_555
H68 C52 1_555 1_555
C53 N7 1_555 1_555
H69 C53 1_555 1_555
H70 C53 1_555 1_555
C54 C44 1_555 1_555
H71 C54 1_555 1_555
C55 C45 1_555 1_555
H72 C55 1_555 1_555
C56 C49 1_555 1_555
H73 C56 1_555 1_555
H74 C29 1_555 1_555
H75 C39 1_555 1_555
N1A C3A 1_555 1_555
N2A C15A 1_555 1_555
C1A C3A 1_555 1_555
C3A C14A 1_555 1_555
C6A N1A 1_555 1_555
C9A C6A 1_555 1_555
H7A C9A 1_555 1_555
C11A C1A 1_555 1_555
H9A C11A 1_555 1_555
H10A C11A 1_555 1_555
H11A C11A 1_555 1_555
C12A C1A 1_555 1_555
H12A C12A 1_555 1_555
H13A C12A 1_555 1_555
H14A C12A 1_555 1_555
C14A C9A 1_555 1_555
H16A C14A 1_555 1_555
C15A C6A 1_555 1_555
C16A C1A 1_555 1_555
H17A C16A 1_555 1_555
H18A C16A 1_555 1_555
H19A C16A 1_555 1_555
C17A N3 1_555 1_555
H20A C17A 1_555 1_555
H21A C17A 1_555 1_555
C18A N2A 1_555 1_555
H22A C18A 1_555 1_555
H23A C18A 1_555 1_555
H24A C15A 1_555 1_555
Mg1A O1 1_555 1_555
O1A Mg1 1_555 1_555
C2A H2A 1_555 1_555
C4A C2A 1_555 1_555
C5A C2A 1_555 1_555
H3A C5A 1_555 1_555
C7A O1A 1_555 1_555
H4A C7A 1_555 1_555
H5A C7A 1_555 1_555
C8A C4A 1_555 1_555
H6A C8A 1_555 1_555
C10A C5A 1_555 1_555
H8A C10A 1_555 1_555
C13A C8A 1_555 1_555
H15A C13A 1_555 1_555
C6 C15 1_555 1_555
C9 C14 1_555 1_555
C10 C13 1_555 1_555
C17 C18 1_555 1_555
Mg3 O3 1_555 1_555
C22 C29 1_555 1_555
C25 C32 1_555 1_555
C26 C39 1_555 1_555
C27 C43 1_555 1_555
C34 C35 1_555 1_555
C44 C48 1_555 1_555
C46 C53 1_555 1_555
C50 C55 1_555 1_555
C51 C52 1_555 1_555
C54 C56 1_555 1_555
N1A Mg1A 1_555 1_555
N2A Mg1A 1_555 1_555
C17A C18A 1_555 1_555
Mg1A O1A 1_555 1_555
C4A C7A 1_555 1_555
C10A C13A 1_555 1_555

#END
