
#######################################################################
#
#                 Cambridge Crystallographic Data Centre
#                                CCDC 
#
#######################################################################
#
# If this CIF has been generated from an entry in the Cambridge 
# Structural Database, then it will include bibliographic, chemical, 
# crystal, experimental, refinement or atomic coordinate data resulting 
# from the CCDC's data processing and validation procedures.
#
#######################################################################

data_BIZDEU
_chemical_formula_moiety         'C10 H13 N1 O2'
_chemical_name_systematic        'Ethyl 4-amino-3-methylbenzoate'
_symmetry_cell_setting           triclinic
_symmetry_space_group_name_H-M   'P -1'
_symmetry_Int_Tables_number      2
_space_group_name_Hall           '-P 1'
loop_
_symmetry_equiv_pos_site_id
_symmetry_equiv_pos_as_xyz
1 x,y,z
2 -x,-y,-z
_cell_length_a                   8.0110(16)
_cell_length_b                   8.7030(17)
_cell_length_c                   15.835(3)
_cell_angle_alpha                90.78(3)
_cell_angle_beta                 95.13(3)
_cell_angle_gamma                114.34(3)
_cell_volume                     1000.3
_exptl_crystal_colour            colorless
_exptl_crystal_description       block
_cell_formula_units_Z            4
_exptl_crystal_recrystallization_method methanol
loop_
_atom_site_label
_atom_site_type_symbol
_atom_site_fract_x
_atom_site_fract_y
_atom_site_fract_z
O1 O 1.2476(4) 0.4839(3) 1.01662(15)
O2 O 1.2577(4) 0.5912(3) 0.88836(15)
N1 N 0.5942(5) -0.1423(4) 0.8227(2)
H1 H 0.5484 -0.2192 0.8580
H2 H 0.5509 -0.1604 0.7701
C1 C 1.4390(7) 0.6205(6) 1.1432(2)
H3 H 1.5389 0.7220 1.1674
H4 H 1.4718 0.5267 1.1505
H5 H 1.3311 0.6012 1.1712
C2 C 1.3999(6) 0.6384(5) 1.0501(2)
H6 H 1.3681 0.7338 1.0420
H7 H 1.5077 0.6571 1.0211
C3 C 1.1842(5) 0.4730(4) 0.9338(2)
C4 C 1.0343(5) 0.3145(4) 0.9073(2)
C5 C 0.9506(5) 0.1886(4) 0.9638(2)
H8 H 0.9932 0.2072 1.0212
C6 C 0.8093(5) 0.0413(4) 0.9358(2)
H9 H 0.7590 -0.0410 0.9743
C7 C 0.7362(5) 0.0087(4) 0.8503(2)
C8 C 0.8176(5) 0.1308(4) 0.7910(2)
C9 C 0.9597(5) 0.2792(4) 0.8216(2)
H10 H 1.0103 0.3620 0.7834
C10 C 0.7439(6) 0.0996(5) 0.6984(2)
H11 H 0.8184 0.1926 0.6672
H12 H 0.6192 0.0889 0.6924
H13 H 0.7471 -0.0026 0.6767
O3 O 0.2589(4) 0.2954(3) 0.47872(15)
O4 O 0.1772(4) 0.3743(3) 0.59841(17)
N2 N 0.2153(5) -0.3189(4) 0.69728(19)
H14 H 0.1979 -0.3380 0.7496
H15 H 0.2337 -0.3903 0.6656
C11 C 0.3055(7) 0.4392(6) 0.3509(3)
H16 H 0.3072 0.5370 0.3229
H17 H 0.2152 0.3391 0.3204
H18 H 0.4248 0.4375 0.3523
C12 C 0.2570(6) 0.4456(5) 0.4406(2)
H19 H 0.3465 0.5466 0.4722
H20 H 0.1360 0.4461 0.4403
C13 C 0.2119(5) 0.2726(5) 0.5596(2)
C14 C 0.2194(5) 0.1199(4) 0.59291(19)
C15 C 0.1854(5) 0.0871(4) 0.6782(2)
H21 H 0.1632 0.1649 0.7108
C16 C 0.1840(5) -0.0559(4) 0.7146(2)
C17 C 0.2137(5) -0.1753(4) 0.6644(2)
C18 C 0.2476(6) -0.1425(5) 0.5793(2)
H22 H 0.2686 -0.2200 0.5458
C19 C 0.2499(5) 0.0029(5) 0.5451(2)
H23 H 0.2724 0.0221 0.4887
C20 C 0.1455(6) -0.0876(5) 0.8067(2)
H24 H 0.1279 0.0055 0.8312
H25 H 0.2479 -0.0986 0.8379
H26 H 0.0363 -0.1897 0.8089
loop_
_geom_bond_atom_site_label_1
_geom_bond_atom_site_label_2
_geom_bond_site_symmetry_1
_geom_bond_site_symmetry_2
O1 C2 1_555 1_555
O2 C3 1_555 1_555
N1 H1 1_555 1_555
H2 N1 1_555 1_555
C1 H3 1_555 1_555
H4 C1 1_555 1_555
H5 C1 1_555 1_555
C2 C1 1_555 1_555
H6 C2 1_555 1_555
H7 C2 1_555 1_555
C3 O1 1_555 1_555
C4 C3 1_555 1_555
C5 C4 1_555 1_555
H8 C5 1_555 1_555
C6 C5 1_555 1_555
H9 C6 1_555 1_555
C7 N1 1_555 1_555
C8 C7 1_555 1_555
C9 C4 1_555 1_555
H10 C9 1_555 1_555
C10 C8 1_555 1_555
H11 C10 1_555 1_555
H12 C10 1_555 1_555
H13 C10 1_555 1_555
O3 C12 1_555 1_555
O4 C13 1_555 1_555
N2 H14 1_555 1_555
H15 N2 1_555 1_555
C11 H16 1_555 1_555
H17 C11 1_555 1_555
H18 C11 1_555 1_555
C12 C11 1_555 1_555
H19 C12 1_555 1_555
H20 C12 1_555 1_555
C13 O3 1_555 1_555
C14 C13 1_555 1_555
C15 C14 1_555 1_555
H21 C15 1_555 1_555
C16 C15 1_555 1_555
C17 N2 1_555 1_555
C18 C17 1_555 1_555
H22 C18 1_555 1_555
C19 C14 1_555 1_555
H23 C19 1_555 1_555
C20 C16 1_555 1_555
H24 C20 1_555 1_555
H25 C20 1_555 1_555
H26 C20 1_555 1_555
C6 C7 1_555 1_555
C8 C9 1_555 1_555
C16 C17 1_555 1_555
C18 C19 1_555 1_555

#END
