
#######################################################################
#
#                 Cambridge Crystallographic Data Centre
#                                CCDC 
#
#######################################################################
#
# If this CIF has been generated from an entry in the Cambridge 
# Structural Database, then it will include bibliographic, chemical, 
# crystal, experimental, refinement or atomic coordinate data resulting 
# from the CCDC's data processing and validation procedures.
#
#######################################################################

data_BIZFOG
_chemical_formula_moiety         'C18 H18 Br2 O2'
_chemical_name_systematic        
2,10-dibromo-6-isobutyl-6-methyldibenzo(d,f)(1,3)dioxepine
_symmetry_cell_setting           monoclinic
_symmetry_space_group_name_H-M   'P 21/c'
_symmetry_Int_Tables_number      14
_space_group_name_Hall           '-P 2ybc'
loop_
_symmetry_equiv_pos_site_id
_symmetry_equiv_pos_as_xyz
1 x,y,z
2 -x,1/2+y,1/2-z
3 -x,-y,-z
4 x,1/2-y,1/2+z
_cell_length_a                   8.3372(9)
_cell_length_b                   19.362(2)
_cell_length_c                   10.8066(16)
_cell_angle_alpha                90
_cell_angle_beta                 100.803(5)
_cell_angle_gamma                90
_cell_volume                     1713.54
_exptl_crystal_colour            colorless
_exptl_crystal_description       block
_chemical_melting_point          85-86deg.C
_cell_formula_units_Z            4
_exptl_crystal_recrystallization_method methanol
loop_
_atom_site_label
_atom_site_type_symbol
_atom_site_fract_x
_atom_site_fract_y
_atom_site_fract_z
Br1 Br 0.32353(3) 0.596025(13) 0.68875(3)
Br2 Br 0.32323(4) 0.994049(14) 0.80855(4)
O1 O -0.04684(18) 0.73412(7) 1.04863(14)
O2 O -0.21043(17) 0.79981(7) 0.88969(14)
C1 C 0.0296(3) 0.70178(11) 0.9608(2)
C2 C 0.0539(3) 0.63141(12) 0.9679(2)
H1 H 0.011(2) 0.6038(11) 1.0310(19)
C3 C 0.1426(3) 0.59908(12) 0.8881(2)
H2 H 0.158(3) 0.5509(11) 0.890(2)
C4 C 0.2051(3) 0.63892(11) 0.8022(2)
C5 C 0.1834(3) 0.70926(11) 0.7948(2)
H3 H 0.227(2) 0.7365(10) 0.7340(19)
C6 C 0.0944(3) 0.74206(11) 0.8751(2)
C7 C -0.0819(3) 0.84462(11) 0.8840(2)
C8 C 0.0681(3) 0.81722(11) 0.8698(2)
C9 C 0.1879(3) 0.86303(12) 0.8473(2)
H4 H 0.292(3) 0.8435(12) 0.840(2)
C10 C 0.1572(3) 0.93297(12) 0.8403(2)
C11 C 0.0098(3) 0.95998(12) 0.8558(2)
H5 H -0.008(3) 1.0090(11) 0.854(2)
C12 C -0.1111(3) 0.91485(12) 0.8780(2)
H6 H -0.214(2) 0.9330(10) 0.8834(18)
C13 C -0.2070(3) 0.76217(11) 1.0049(2)
C14 C -0.2354(4) 0.81021(14) 1.1084(3)
H7 H -0.227(3) 0.7857(12) 1.187(2)
H8 H -0.153(3) 0.8458(12) 1.123(2)
H9 H -0.340(3) 0.8298(12) 1.086(2)
C15 C -0.3317(3) 0.70530(12) 0.9684(2)
H10 H -0.294(2) 0.6776(9) 0.9043(17)
H11 H -0.435(3) 0.7261(10) 0.931(2)
C16 C -0.3572(3) 0.65766(13) 1.0770(2)
H12 H -0.264(2) 0.6582(10) 1.1363(19)
C17 C -0.3841(4) 0.58337(14) 1.0329(3)
H13 H -0.297(3) 0.5648(11) 0.999(2)
H14 H -0.489(3) 0.5790(13) 0.961(2)
H15 H -0.397(3) 0.5544(12) 1.101(2)
C18 C -0.4990(4) 0.68123(17) 1.1379(3)
H16 H -0.485(3) 0.7258(12) 1.174(2)
H17 H -0.502(3) 0.6545(13) 1.210(3)
H18 H -0.601(3) 0.6766(13) 1.079(2)
loop_
_geom_bond_atom_site_label_1
_geom_bond_atom_site_label_2
_geom_bond_site_symmetry_1
_geom_bond_site_symmetry_2
Br1 C4 1_555 1_555
Br2 C10 1_555 1_555
O1 C1 1_555 1_555
O2 C7 1_555 1_555
C1 C2 1_555 1_555
C2 H1 1_555 1_555
C3 C2 1_555 1_555
H2 C3 1_555 1_555
C4 C3 1_555 1_555
C5 C4 1_555 1_555
H3 C5 1_555 1_555
C6 C1 1_555 1_555
C7 C8 1_555 1_555
C8 C6 1_555 1_555
C9 C8 1_555 1_555
H4 C9 1_555 1_555
C10 C9 1_555 1_555
C11 C10 1_555 1_555
H5 C11 1_555 1_555
C12 C7 1_555 1_555
H6 C12 1_555 1_555
C13 O1 1_555 1_555
C14 C13 1_555 1_555
H7 C14 1_555 1_555
H8 C14 1_555 1_555
H9 C14 1_555 1_555
C15 C13 1_555 1_555
H10 C15 1_555 1_555
H11 C15 1_555 1_555
C16 C15 1_555 1_555
H12 C16 1_555 1_555
C17 C16 1_555 1_555
H13 C17 1_555 1_555
H14 C17 1_555 1_555
H15 C17 1_555 1_555
C18 C16 1_555 1_555
H16 C18 1_555 1_555
H17 C18 1_555 1_555
H18 C18 1_555 1_555
O2 C13 1_555 1_555
C5 C6 1_555 1_555
C11 C12 1_555 1_555

#END
