
#######################################################################
#
#                 Cambridge Crystallographic Data Centre
#                                CCDC 
#
#######################################################################
#
# If this CIF has been generated from an entry in the Cambridge 
# Structural Database, then it will include bibliographic, chemical, 
# crystal, experimental, refinement or atomic coordinate data resulting 
# from the CCDC's data processing and validation procedures.
#
#######################################################################

data_BIZFOH
_chemical_formula_moiety         'C27 H45 N3 O6'
_chemical_name_systematic        'Benzene-1,3,5-triyl tris(n-hexylcarbamate)'
_symmetry_cell_setting           monoclinic
_symmetry_space_group_name_H-M   'P 21/c'
_symmetry_Int_Tables_number      14
_space_group_name_Hall           '-P 2ybc'
loop_
_symmetry_equiv_pos_site_id
_symmetry_equiv_pos_as_xyz
1 x,y,z
2 -x,1/2+y,1/2-z
3 -x,-y,-z
4 x,1/2-y,1/2+z
_cell_length_a                   21.2940(14)
_cell_length_b                   13.8436(10)
_cell_length_c                   9.8230(7)
_cell_angle_alpha                90
_cell_angle_beta                 91.467(4)
_cell_angle_gamma                90
_cell_volume                     2894.73
_exptl_crystal_colour            colorless
_exptl_crystal_description       plate
_cell_formula_units_Z            4
loop_
_atom_site_label
_atom_site_type_symbol
_atom_site_fract_x
_atom_site_fract_y
_atom_site_fract_z
O1 O 0.10193(7) 0.80497(10) 0.78745(16)
O2 O 0.07207(7) 0.50633(10) 0.55315(14)
O3 O -0.04560(6) 0.57968(10) 0.95568(14)
O4 O 0.17876(7) 0.73327(11) 0.91740(17)
O5 O 0.10990(7) 0.39302(10) 0.70258(14)
O6 O -0.12283(6) 0.54517(10) 0.79804(14)
N1 N 0.18367(8) 0.89258(12) 0.85926(19)
H1 H 0.1654 0.9384 0.8105
N2 N 0.11099(8) 0.36910(12) 0.47342(18)
H2 H 0.1011 0.3940 0.3933
N3 N -0.13696(8) 0.52315(12) 1.02453(18)
H3 H -0.1189 0.5252 1.1060
C1 C 0.45122(13) 0.7664(2) 0.5303(3)
H4 H 0.4394 0.8101 0.4555
H5 H 0.4646 0.7043 0.4929
H6 H 0.4858 0.7948 0.5843
C2 C 0.39507(13) 0.75068(19) 0.6205(3)
H7 H 0.3593 0.7267 0.5637
H8 H 0.4058 0.7003 0.6887
C3 C 0.37497(11) 0.84121(17) 0.6940(2)
H9 H 0.3692 0.8937 0.6264
H10 H 0.4092 0.8609 0.7582
C4 C 0.31477(11) 0.83061(16) 0.7725(3)
H11 H 0.3195 0.7764 0.8377
H12 H 0.2798 0.8147 0.7081
C5 C 0.29855(11) 0.92217(16) 0.8500(2)
H13 H 0.3349 0.9399 0.9096
H14 H 0.2919 0.9752 0.7836
C6 C 0.24081(10) 0.91449(16) 0.9368(2)
H15 H 0.2480 0.8634 1.0060
H16 H 0.2351 0.9763 0.9856
C7 C 0.15817(10) 0.80438(15) 0.8602(2)
C8 C 0.07201(10) 0.71500(15) 0.7769(2)
C9 C 0.08820(10) 0.65324(15) 0.6734(2)
H17 H 0.1200 0.6701 0.6116
C10 C 0.05683(9) 0.56591(15) 0.6622(2)
C11 C 0.09898(9) 0.41865(14) 0.5862(2)
C12 C 0.14037(10) 0.27420(15) 0.4813(2)
H18 H 0.1259 0.2354 0.4019
H19 H 0.1262 0.2411 0.5645
C13 C 0.21162(10) 0.27743(15) 0.4844(2)
H20 H 0.2277 0.2137 0.5147
H21 H 0.2257 0.3258 0.5529
C14 C 0.24080(10) 0.30233(15) 0.3487(2)
H22 H 0.2274 0.2536 0.2801
H23 H 0.2246 0.3659 0.3176
C15 C 0.31227(10) 0.30603(16) 0.3558(2)
H24 H 0.3255 0.3582 0.4192
H25 H 0.3282 0.2443 0.3939
C16 C 0.34224(10) 0.32328(17) 0.2191(2)
H26 H 0.3334 0.2670 0.1595
H27 H 0.3223 0.3805 0.1758
C17 C 0.41257(13) 0.3391(2) 0.2279(3)
H28 H 0.4219 0.3951 0.2860
H29 H 0.4283 0.3508 0.1365
H30 H 0.4330 0.2816 0.2669
C18 C -0.44821(12) 0.5410(2) 1.3613(3)
H31 H -0.4393 0.4893 1.4272
H32 H -0.4935 0.5433 1.3407
H33 H -0.4345 0.6030 1.3999
C19 C -0.41332(11) 0.52142(19) 1.2318(3)
H34 H -0.4236 0.5729 1.1649
H35 H -0.4281 0.4593 1.1926
C20 C -0.34245(10) 0.51703(17) 1.2538(2)
H36 H -0.3277 0.5798 1.2908
H37 H -0.3324 0.4669 1.3229
C21 C -0.30688(10) 0.49471(16) 1.1258(2)
H38 H -0.3224 0.5377 1.0517
H39 H -0.3159 0.4273 1.0979
C22 C -0.23606(10) 0.50722(16) 1.1430(2)
H40 H -0.2269 0.5728 1.1786
H41 H -0.2198 0.4599 1.2108
C23 C -0.20252(9) 0.49323(15) 1.0106(2)
H42 H -0.2045 0.4243 0.9839
H43 H -0.2238 0.5316 0.9380
C24 C -0.10422(9) 0.54730(13) 0.9171(2)
C25 C -0.00363(9) 0.60331(14) 0.8544(2)
C26 C 0.02624(9) 0.69194(15) 0.8686(2)
H44 H 0.0156 0.7354 0.9392
C27 C 0.01082(9) 0.53913(14) 0.7518(2)
H45 H -0.0101 0.4788 0.7432
loop_
_geom_bond_atom_site_label_1
_geom_bond_atom_site_label_2
_geom_bond_site_symmetry_1
_geom_bond_site_symmetry_2
O1 C7 1_555 1_555
O2 C10 1_555 1_555
O3 C24 1_555 1_555
O4 C7 1_555 1_555
O5 C11 1_555 1_555
O6 C24 1_555 1_555
N1 H1 1_555 1_555
N2 H2 1_555 1_555
N3 H3 1_555 1_555
C1 H4 1_555 1_555
H5 C1 1_555 1_555
H6 C1 1_555 1_555
C2 C1 1_555 1_555
H7 C2 1_555 1_555
H8 C2 1_555 1_555
C3 C2 1_555 1_555
H9 C3 1_555 1_555
H10 C3 1_555 1_555
C4 C3 1_555 1_555
H11 C4 1_555 1_555
H12 C4 1_555 1_555
C5 C4 1_555 1_555
H13 C5 1_555 1_555
H14 C5 1_555 1_555
C6 N1 1_555 1_555
H15 C6 1_555 1_555
H16 C6 1_555 1_555
C7 N1 1_555 1_555
C8 O1 1_555 1_555
C9 C8 1_555 1_555
H17 C9 1_555 1_555
C10 C9 1_555 1_555
C11 O2 1_555 1_555
C12 N2 1_555 1_555
H18 C12 1_555 1_555
H19 C12 1_555 1_555
C13 C12 1_555 1_555
H20 C13 1_555 1_555
H21 C13 1_555 1_555
C14 C13 1_555 1_555
H22 C14 1_555 1_555
H23 C14 1_555 1_555
C15 C14 1_555 1_555
H24 C15 1_555 1_555
H25 C15 1_555 1_555
C16 C15 1_555 1_555
H26 C16 1_555 1_555
H27 C16 1_555 1_555
C17 C16 1_555 1_555
H28 C17 1_555 1_555
H29 C17 1_555 1_555
H30 C17 1_555 1_555
C18 H31 1_555 1_555
H32 C18 1_555 1_555
H33 C18 1_555 1_555
C19 C18 1_555 1_555
H34 C19 1_555 1_555
H35 C19 1_555 1_555
C20 C19 1_555 1_555
H36 C20 1_555 1_555
H37 C20 1_555 1_555
C21 C20 1_555 1_555
H38 C21 1_555 1_555
H39 C21 1_555 1_555
C22 C21 1_555 1_555
H40 C22 1_555 1_555
H41 C22 1_555 1_555
C23 N3 1_555 1_555
H42 C23 1_555 1_555
H43 C23 1_555 1_555
C24 N3 1_555 1_555
C25 O3 1_555 1_555
C26 C8 1_555 1_555
H44 C26 1_555 1_555
C27 C10 1_555 1_555
H45 C27 1_555 1_555
N2 C11 1_555 1_555
C5 C6 1_555 1_555
C22 C23 1_555 1_555
C25 C26 1_555 1_555
C25 C27 1_555 1_555

#END
