
#######################################################################
#
#                 Cambridge Crystallographic Data Centre
#                                CCDC 
#
#######################################################################
#
# If this CIF has been generated from an entry in the Cambridge 
# Structural Database, then it will include bibliographic, chemical, 
# crystal, experimental, refinement or atomic coordinate data resulting 
# from the CCDC's data processing and validation procedures.
#
#######################################################################

data_BIZGUO
_chemical_formula_moiety         'C17 H22 N2 O2'
_chemical_name_systematic        
N-((2-(2-methylbut-3-en-2-yl)-4-oxo-1,2,3,4-tetrahydroquinolin-3-yl)methyl)acetamide
_symmetry_cell_setting           monoclinic
_symmetry_space_group_name_H-M   'P 21'
_symmetry_Int_Tables_number      4
_space_group_name_Hall           'P 2yb'
loop_
_symmetry_equiv_pos_site_id
_symmetry_equiv_pos_as_xyz
1 x,y,z
2 -x,1/2+y,-z
_cell_length_a                   9.5045(6)
_cell_length_b                   19.4248(16)
_cell_length_c                   9.6543(9)
_cell_angle_alpha                90
_cell_angle_beta                 110.382(2)
_cell_angle_gamma                90
_cell_volume                     1670.81
_cell_formula_units_Z            4
loop_
_atom_site_label
_atom_site_type_symbol
_atom_site_fract_x
_atom_site_fract_y
_atom_site_fract_z
N1 N 0.381(2) 0.2103(12) 0.940(3)
H1 H 0.4546 0.2027 1.0212
N2 N 0.254(3) 0.4033(13) 0.913(2)
H2 H 0.3251 0.4035 0.9979
O1 O 0.084(2) 0.2576(9) 0.548(2)
O2 O 0.052(2) 0.4527(9) 0.768(2)
C1 C 0.246(3) 0.2472(15) 0.951(3)
H3 H 0.2739 0.2812 1.0307
C2 C 0.175(3) 0.2837(14) 0.789(3)
H4 H 0.0686 0.2943 0.7696
C3 C 0.190(4) 0.2464(18) 0.663(4)
C4 C 0.300(4) 0.2050(18) 0.669(4)
C5 C 0.398(4) 0.1873(17) 0.808(4)
C6 C 0.522(3) 0.1452(16) 0.829(3)
H5 H 0.5891 0.1357 0.9235
C7 C 0.540(3) 0.1182(15) 0.705(4)
H6 H 0.6202 0.0889 0.7153
C8 C 0.441(4) 0.1338(16) 0.565(4)
H7 H 0.4547 0.1138 0.4830
C9 C 0.322(3) 0.1787(17) 0.546(3)
H8 H 0.2590 0.1908 0.4512
C10 C 0.134(3) 0.1936(16) 0.970(3)
C11 C 0.014(4) 0.2402(16) 1.001(4)
H9 H 0.0324 0.2692 1.0822
C12 C -0.110(4) 0.2328(18) 0.902(4)
H10 H -0.1206 0.2027 0.8240
H11 H -0.1931 0.2573 0.9054
C13 C 0.206(3) 0.1506(16) 1.103(3)
H12 H 0.2712 0.1175 1.0814
H13 H 0.1309 0.1270 1.1294
H14 H 0.2645 0.1794 1.1832
C14 C 0.065(3) 0.1444(14) 0.843(3)
H15 H 0.0630 0.0989 0.8811
H16 H 0.1247 0.1442 0.7805
H17 H -0.0350 0.1589 0.7873
C15 C 0.270(3) 0.3553(15) 0.805(3)
H18 H 0.3749 0.3439 0.8313
H19 H 0.2377 0.3779 0.7099
C16 C 0.144(4) 0.4468(16) 0.894(4)
C17 C 0.155(3) 0.4835(16) 1.022(3)
H20 H 0.1659 0.4519 1.1019
H21 H 0.0660 0.5105 1.0049
H22 H 0.2409 0.5133 1.0485
N3 N 0.775(2) 0.4081(12) 0.547(2)
H23 H 0.8583 0.4121 0.6196
N4 N 0.756(2) 0.2199(12) 0.419(2)
H24 H 0.8436 0.2235 0.4864
O3 O 0.379(2) 0.3592(9) 0.230(2)
O4 O 0.603(2) 0.1623(10) 0.205(2)
C18 C 0.778(3) 0.3738(15) 0.407(3)
H25 H 0.8608 0.3406 0.4386
C19 C 0.640(3) 0.3330(14) 0.327(3)
H26 H 0.6320 0.3229 0.2252
C20 C 0.500(4) 0.3722(17) 0.333(3)
C21 C 0.510(4) 0.4160(16) 0.458(3)
C22 C 0.649(4) 0.4329(16) 0.564(3)
C23 C 0.659(4) 0.4746(17) 0.685(3)
H27 H 0.7501 0.4866 0.7564
C24 C 0.523(4) 0.4968(15) 0.692(3)
H28 H 0.5278 0.5234 0.7740
C25 C 0.381(3) 0.4839(16) 0.591(3)
H29 H 0.2939 0.5017 0.6011
C26 C 0.380(3) 0.4422(14) 0.475(3)
H30 H 0.2876 0.4311 0.4037
C27 C 0.814(3) 0.4225(16) 0.302(3)
C28 C 0.687(3) 0.4747(16) 0.233(4)
H31 H 0.6563 0.5066 0.2882
C29 C 0.627(4) 0.4702(19) 0.088(4)
H32 H 0.6622 0.4374 0.0375
H33 H 0.5497 0.4997 0.0360
C30 C 0.956(3) 0.4665(18) 0.383(3)
H34 H 1.0445 0.4403 0.3918
H35 H 0.9567 0.4789 0.4790
H36 H 0.9547 0.5075 0.3264
C31 C 0.861(3) 0.3823(17) 0.177(3)
H37 H 0.9581 0.3981 0.1803
H38 H 0.7885 0.3913 0.0811
H39 H 0.8655 0.3337 0.1962
C32 C 0.637(3) 0.2615(15) 0.421(3)
H40 H 0.6471 0.2727 0.5216
H41 H 0.5425 0.2375 0.3752
C33 C 0.728(4) 0.1701(15) 0.299(4)
C34 C 0.880(3) 0.1284(15) 0.309(3)
H42 H 0.9242 0.1490 0.2433
H43 H 0.8555 0.0812 0.2811
H44 H 0.9502 0.1303 0.4083
loop_
_geom_bond_atom_site_label_1
_geom_bond_atom_site_label_2
_geom_bond_site_symmetry_1
_geom_bond_site_symmetry_2
N1 H1 1_555 1_555
N2 H2 1_555 1_555
O1 C3 1_555 1_555
O2 C16 1_555 1_555
C1 N1 1_555 1_555
H3 C1 1_555 1_555
C2 C1 1_555 1_555
H4 C2 1_555 1_555
C3 C2 1_555 1_555
C4 C3 1_555 1_555
C5 N1 1_555 1_555
C6 C5 1_555 1_555
H5 C6 1_555 1_555
C7 C6 1_555 1_555
H6 C7 1_555 1_555
C8 C7 1_555 1_555
H7 C8 1_555 1_555
C9 C4 1_555 1_555
H8 C9 1_555 1_555
C10 C1 1_555 1_555
C11 C10 1_555 1_555
H9 C11 1_555 1_555
C12 C11 1_555 1_555
H10 C12 1_555 1_555
H11 C12 1_555 1_555
C13 C10 1_555 1_555
H12 C13 1_555 1_555
H13 C13 1_555 1_555
H14 C13 1_555 1_555
C14 C10 1_555 1_555
H15 C14 1_555 1_555
H16 C14 1_555 1_555
H17 C14 1_555 1_555
C15 N2 1_555 1_555
H18 C15 1_555 1_555
H19 C15 1_555 1_555
C16 N2 1_555 1_555
C17 C16 1_555 1_555
H20 C17 1_555 1_555
H21 C17 1_555 1_555
H22 C17 1_555 1_555
N3 H23 1_555 1_555
N4 H24 1_555 1_555
O3 C20 1_555 1_555
O4 C33 1_555 1_555
C18 N3 1_555 1_555
H25 C18 1_555 1_555
C19 C18 1_555 1_555
H26 C19 1_555 1_555
C20 C19 1_555 1_555
C21 C20 1_555 1_555
C22 N3 1_555 1_555
C23 C22 1_555 1_555
H27 C23 1_555 1_555
C24 C23 1_555 1_555
H28 C24 1_555 1_555
C25 C24 1_555 1_555
H29 C25 1_555 1_555
C26 C21 1_555 1_555
H30 C26 1_555 1_555
C27 C18 1_555 1_555
C28 C27 1_555 1_555
H31 C28 1_555 1_555
C29 C28 1_555 1_555
H32 C29 1_555 1_555
H33 C29 1_555 1_555
C30 C27 1_555 1_555
H34 C30 1_555 1_555
H35 C30 1_555 1_555
H36 C30 1_555 1_555
C31 C27 1_555 1_555
H37 C31 1_555 1_555
H38 C31 1_555 1_555
H39 C31 1_555 1_555
C32 N4 1_555 1_555
H40 C32 1_555 1_555
H41 C32 1_555 1_555
C33 N4 1_555 1_555
C34 C33 1_555 1_555
H42 C34 1_555 1_555
H43 C34 1_555 1_555
H44 C34 1_555 1_555
C2 C15 1_555 1_555
C4 C5 1_555 1_555
C8 C9 1_555 1_555
C19 C32 1_555 1_555
C21 C22 1_555 1_555
C25 C26 1_555 1_555

#END
