
#######################################################################
#
#                 Cambridge Crystallographic Data Centre
#                                CCDC 
#
#######################################################################
#
# If this CIF has been generated from an entry in the Cambridge 
# Structural Database, then it will include bibliographic, chemical, 
# crystal, experimental, refinement or atomic coordinate data resulting 
# from the CCDC's data processing and validation procedures.
#
#######################################################################

data_BIZVIR
_chemical_formula_moiety         'C12 H24 O6,C5 H6 Cl1 N2 1+,Cl1 O4 1-'
_chemical_name_systematic        
'2-Chloropyridin-3-aminium perchlorate 1,4,7,10,13,16-hexaoxacyclo-octadecane'
_symmetry_cell_setting           monoclinic
_symmetry_space_group_name_H-M   'P 21/n'
_symmetry_Int_Tables_number      14
_space_group_name_Hall           '-P 2yn'
loop_
_symmetry_equiv_pos_site_id
_symmetry_equiv_pos_as_xyz
1 x,y,z
2 1/2-x,1/2+y,1/2-z
3 -x,-y,-z
4 1/2+x,1/2-y,1/2+z
_cell_length_a                   12.222(2)
_cell_length_b                   14.090(3)
_cell_length_c                   13.800(3)
_cell_angle_alpha                90
_cell_angle_beta                 98.09(3)
_cell_angle_gamma                90
_cell_volume                     2352.82
_cell_formula_units_Z            4
loop_
_atom_site_label
_atom_site_type_symbol
_atom_site_fract_x
_atom_site_fract_y
_atom_site_fract_z
Cl1 Cl 0.7184(2) 0.06523(16) 0.58317(18)
O1 O 0.7383(8) -0.0167(6) 0.6429(7)
O2 O 0.7606(9) 0.1420(8) 0.6434(8)
O3 O 0.6107(12) 0.0913(10) 0.5445(11)
O4 O 0.7703(10) 0.0472(8) 0.4993(10)
Cl2 Cl 0.5799(2) 0.12094(17) -0.0152(2)
N1 N 0.7793(5) 0.0821(4) 0.1342(4)
C1 C 0.6741(6) 0.0870(5) 0.1709(5)
N2 N 0.4781(6) 0.1124(5) 0.1391(6)
C2 C 0.6661(7) 0.0750(5) 0.2685(6)
C3 C 0.5770(6) 0.1065(5) 0.1089(6)
C4 C 0.5656(8) 0.0784(6) 0.3009(7)
C5 C 0.4760(8) 0.0971(7) 0.2342(8)
O5 O 0.9473(5) 0.0130(4) 0.2895(4)
O6 O 0.8685(6) 0.1118(4) -0.0610(5)
O7 O 0.8346(5) 0.2620(4) 0.0645(4)
O8 O 0.7934(5) -0.1140(4) 0.1913(5)
O9 O 0.9415(5) 0.2087(4) 0.2561(5)
O10 O 0.7859(6) -0.0621(4) -0.0052(5)
C6 C 0.9916(9) 0.0746(7) 0.3655(8)
C7 C 0.8875(9) 0.2740(7) -0.0200(7)
C8 C 1.0326(9) 0.1625(7) 0.3170(8)
C9 C 0.8235(9) 0.0435(7) -0.1319(9)
C10 C 0.8387(9) 0.2016(7) -0.0965(8)
C11 C 0.8465(10) -0.0547(8) -0.0877(9)
C12 C 0.9741(9) 0.2873(7) 0.2086(8)
C13 C 0.7891(10) -0.1633(9) 0.0200(10)
C14 C 0.9296(9) -0.0816(7) 0.3245(8)
C15 C 0.8945(9) -0.1449(8) 0.2413(8)
C16 C 0.8794(9) 0.3270(7) 0.1407(7)
C17 C 0.7372(10) -0.1677(8) 0.1101(9)
loop_
_geom_bond_atom_site_label_1
_geom_bond_atom_site_label_2
_geom_bond_site_symmetry_1
_geom_bond_site_symmetry_2
Cl1 O1 1_555 1_555
O2 Cl1 1_555 1_555
O3 Cl1 1_555 1_555
O4 Cl1 1_555 1_555
Cl2 C3 1_555 1_555
N1 C1 1_555 1_555
C1 C2 1_555 1_555
N2 C3 1_555 1_555
C2 C4 1_555 1_555
C3 C1 1_555 1_555
C4 C5 1_555 1_555
C5 N2 1_555 1_555
O5 C6 1_555 1_555
O6 C9 1_555 1_555
O7 C7 1_555 1_555
O8 C15 1_555 1_555
O9 C8 1_555 1_555
O10 C11 1_555 1_555
C6 C8 1_555 1_555
C7 C10 1_555 1_555
C9 C11 1_555 1_555
C10 O6 1_555 1_555
C12 O9 1_555 1_555
C13 O10 1_555 1_555
C14 O5 1_555 1_555
C15 C14 1_555 1_555
C16 O7 1_555 1_555
C17 O8 1_555 1_555
C12 C16 1_555 1_555
C13 C17 1_555 1_555

#END
