
#######################################################################
#
#                 Cambridge Crystallographic Data Centre
#                                CCDC 
#
#######################################################################
#
# If this CIF has been generated from an entry in the Cambridge 
# Structural Database, then it will include bibliographic, chemical, 
# crystal, experimental, refinement or atomic coordinate data resulting 
# from the CCDC's data processing and validation procedures.
#
#######################################################################

data_BIZXAK
_chemical_formula_moiety         'C14 H11 N1 O3'
_chemical_name_systematic        'Benzoylmethyl pyridine-4-carboxylate'
_symmetry_cell_setting           triclinic
_symmetry_space_group_name_H-M   'P -1'
_symmetry_Int_Tables_number      2
_space_group_name_Hall           '-P 1'
loop_
_symmetry_equiv_pos_site_id
_symmetry_equiv_pos_as_xyz
1 x,y,z
2 -x,-y,-z
_cell_length_a                   8.0863(6)
_cell_length_b                   9.2130(7)
_cell_length_c                   9.3291(8)
_cell_angle_alpha                106.738(7)
_cell_angle_beta                 114.495(8)
_cell_angle_gamma                96.549(6)
_cell_volume                     583.522
_exptl_crystal_colour            colorless
_exptl_crystal_description       needle
_cell_formula_units_Z            2
_exptl_crystal_recrystallization_method 'ethyl acetate/petroleum ether'
loop_
_atom_site_label
_atom_site_type_symbol
_atom_site_fract_x
_atom_site_fract_y
_atom_site_fract_z
C1 C -0.1339(2) 0.7322(2) 1.1693(2)
C2 C -0.3294(2) 0.6903(2) 1.0760(2)
H1 H -0.3880 0.6499 0.9555
C3 C -0.4385(2) 0.7073(2) 1.1574(3)
H2 H -0.5721 0.6780 1.0931
C4 C -0.3540(3) 0.7668(2) 1.3323(3)
H3 H -0.4296 0.7781 1.3881
C5 C -0.1609(3) 0.8098(2) 1.4261(3)
H4 H -0.1030 0.8523 1.5465
C6 C -0.0511(3) 0.7910(2) 1.3450(2)
H5 H 0.0823 0.8186 1.4101
C7 C -0.0110(3) 0.7152(2) 1.0855(3)
O1 O 0.15653(19) 0.7341(2) 1.16374(19)
C8 C -0.1064(2) 0.6727(3) 0.8971(2)
H6 H -0.2071 0.5732 0.8425
H7 H -0.1661 0.7559 0.8701
O2 O 0.02347(17) 0.65426(17) 0.82904(17)
C9 C 0.1269(3) 0.7883(3) 0.8448(3)
O3 O 0.1180(2) 0.91629(19) 0.9139(2)
C10 C 0.2487(3) 0.7577(3) 0.7621(2)
C11 C 0.2426(2) 0.6074(2) 0.6700(2)
H8 H 0.1609 0.5172 0.6585
C12 C 0.3593(2) 0.5930(2) 0.5953(2)
H9 H 0.3537 0.4900 0.5309
N1 N 0.4789(2) 0.7134(2) 0.6074(2)
C13 C 0.4825(3) 0.8565(3) 0.6977(3)
H10 H 0.5670 0.9447 0.7090
C14 C 0.3708(3) 0.8837(2) 0.7753(2)
H11 H 0.3779 0.9881 0.8372
loop_
_geom_bond_atom_site_label_1
_geom_bond_atom_site_label_2
_geom_bond_site_symmetry_1
_geom_bond_site_symmetry_2
C1 C2 1_555 1_555
C2 H1 1_555 1_555
C3 C2 1_555 1_555
H2 C3 1_555 1_555
C4 C3 1_555 1_555
H3 C4 1_555 1_555
C5 C4 1_555 1_555
H4 C5 1_555 1_555
C6 C1 1_555 1_555
H5 C6 1_555 1_555
C7 C1 1_555 1_555
O1 C7 1_555 1_555
C8 C7 1_555 1_555
H6 C8 1_555 1_555
H7 C8 1_555 1_555
O2 C8 1_555 1_555
C9 O2 1_555 1_555
O3 C9 1_555 1_555
C10 C9 1_555 1_555
C11 C10 1_555 1_555
H8 C11 1_555 1_555
C12 C11 1_555 1_555
H9 C12 1_555 1_555
N1 C12 1_555 1_555
C13 N1 1_555 1_555
H10 C13 1_555 1_555
C14 C10 1_555 1_555
H11 C14 1_555 1_555
C5 C6 1_555 1_555
C13 C14 1_555 1_555

#END
