
#######################################################################
#
#                 Cambridge Crystallographic Data Centre
#                                CCDC 
#
#######################################################################
#
# If this CIF has been generated from an entry in the Cambridge 
# Structural Database, then it will include bibliographic, chemical, 
# crystal, experimental, refinement or atomic coordinate data resulting 
# from the CCDC's data processing and validation procedures.
#
#######################################################################

data_BIZYIT
_chemical_formula_moiety         'C16 H13 I1 O2 S1'
_chemical_name_systematic        
5-Iodo-7-methyl-3-(methylsulfinyl)-2-phenyl-1-benzofuran
_symmetry_cell_setting           monoclinic
_symmetry_space_group_name_H-M   'P 21/c'
_symmetry_Int_Tables_number      14
_space_group_name_Hall           '-P 2ybc'
loop_
_symmetry_equiv_pos_site_id
_symmetry_equiv_pos_as_xyz
1 x,y,z
2 -x,1/2+y,1/2-z
3 -x,-y,-z
4 x,1/2-y,1/2+z
_cell_length_a                   10.385(5)
_cell_length_b                   17.174(8)
_cell_length_c                   8.943(4)
_cell_angle_alpha                90
_cell_angle_beta                 112.847(7)
_cell_angle_gamma                90
_cell_volume                     1469.87
_exptl_crystal_colour            colorless
_exptl_crystal_description       Block
_chemical_melting_point          '433-434 K'
_cell_formula_units_Z            4
_exptl_crystal_recrystallization_method tetrahydrofuran
loop_
_atom_site_label
_atom_site_type_symbol
_atom_site_fract_x
_atom_site_fract_y
_atom_site_fract_z
I1 I -0.043288(13) 0.558358(8) 0.210981(16)
S1 S 0.36162(5) 0.29269(3) 0.14788(6)
O1 O 0.50724(14) 0.38231(8) 0.59241(16)
O2 O 0.30733(17) 0.35243(9) 0.01551(18)
C1 C 0.3955(2) 0.34115(11) 0.3340(2)
C2 C 0.3154(2) 0.40433(12) 0.3616(2)
C3 C 0.1901(2) 0.44237(11) 0.2685(3)
H1 H 0.1385 0.4291 0.1581
C4 C 0.1451(2) 0.50027(12) 0.3454(2)
C5 C 0.2211(2) 0.52118(12) 0.5084(2)
H2 H 0.1866 0.5614 0.5556
C6 C 0.3460(2) 0.48423(11) 0.6021(2)
C7 C 0.3883(2) 0.42659(12) 0.5218(2)
C8 C 0.5095(2) 0.32999(11) 0.4756(2)
C9 C 0.6257(2) 0.27448(12) 0.5307(2)
C10 C 0.7494(2) 0.29442(13) 0.6599(3)
H3 H 0.7591 0.3445 0.7082
C11 C 0.8579(2) 0.24128(14) 0.7177(3)
H4 H 0.9417 0.2550 0.8061
C12 C 0.8452(2) 0.16800(14) 0.6474(3)
H5 H 0.9199 0.1317 0.6875
C13 C 0.7229(2) 0.14820(13) 0.5185(3)
H6 H 0.7144 0.0984 0.4693
C14 C 0.6129(2) 0.20047(12) 0.4608(3)
H7 H 0.5287 0.1861 0.3738
C15 C 0.4267(2) 0.50275(13) 0.7788(3)
H8 H 0.4092 0.4624 0.8460
H9 H 0.3967 0.5534 0.8043
H10 H 0.5268 0.5046 0.8010
C16 C 0.2127(2) 0.23678(14) 0.1402(3)
H11 H 0.1375 0.2721 0.1369
H12 H 0.2391 0.2037 0.2369
H13 H 0.1803 0.2041 0.0428
loop_
_geom_bond_atom_site_label_1
_geom_bond_atom_site_label_2
_geom_bond_site_symmetry_1
_geom_bond_site_symmetry_2
I1 C4 1_555 1_555
S1 O2 1_555 1_555
O1 C7 1_555 1_555
C1 S1 1_555 1_555
C2 C1 1_555 1_555
C3 C2 1_555 1_555
H1 C3 1_555 1_555
C4 C3 1_555 1_555
C5 C4 1_555 1_555
H2 C5 1_555 1_555
C6 C5 1_555 1_555
C7 C2 1_555 1_555
C8 O1 1_555 1_555
C9 C8 1_555 1_555
C10 C9 1_555 1_555
H3 C10 1_555 1_555
C11 C10 1_555 1_555
H4 C11 1_555 1_555
C12 C11 1_555 1_555
H5 C12 1_555 1_555
C13 C12 1_555 1_555
H6 C13 1_555 1_555
C14 C9 1_555 1_555
H7 C14 1_555 1_555
C15 C6 1_555 1_555
H8 C15 1_555 1_555
H9 C15 1_555 1_555
H10 C15 1_555 1_555
C16 S1 1_555 1_555
H11 C16 1_555 1_555
H12 C16 1_555 1_555
H13 C16 1_555 1_555
C1 C8 1_555 1_555
C6 C7 1_555 1_555
C13 C14 1_555 1_555

#END
