
#######################################################################
#
#                 Cambridge Crystallographic Data Centre
#                                CCDC 
#
#######################################################################
#
# If this CIF has been generated from an entry in the Cambridge 
# Structural Database, then it will include bibliographic, chemical, 
# crystal, experimental, refinement or atomic coordinate data resulting 
# from the CCDC's data processing and validation procedures.
#
#######################################################################

data_BOBCIF
_chemical_name_common            'Eplerenone ethanol solvate'
_chemical_formula_moiety         'C24 H30 O6,C2 H6 O1'
_chemical_name_systematic        
'9\a,11-Epoxy-7\a-(methoxycarbonyl)-3-oxo-17\a-pregn-4-ene-21,17-carbolactone ethanol solvate'
_chemical_properties_biological  'aldosterone receptor agonist'
_symmetry_cell_setting           orthorhombic
_symmetry_space_group_name_H-M   'P 21 21 21'
_symmetry_Int_Tables_number      19
_space_group_name_Hall           'P 2ac 2ab'
loop_
_symmetry_equiv_pos_site_id
_symmetry_equiv_pos_as_xyz
1 x,y,z
2 1/2-x,-y,1/2+z
3 1/2+x,1/2-y,-z
4 -x,1/2+y,1/2-z
_cell_length_a                   8.3236(5)
_cell_length_b                   12.8306(9)
_cell_length_c                   23.3173(13)
_cell_angle_alpha                90
_cell_angle_beta                 90
_cell_angle_gamma                90
_cell_volume                     2490.21
_exptl_crystal_colour            colorless
_exptl_crystal_description       prism
_cell_formula_units_Z            4
loop_
_atom_site_label
_atom_site_type_symbol
_atom_site_fract_x
_atom_site_fract_y
_atom_site_fract_z
O1 O -0.0911(5) 0.5821(4) 0.10002(19)
O2 O 0.1455(3) 0.8242(2) 0.29185(11)
O3 O 0.4887(4) 0.8330(2) 0.49751(11)
O4 O 0.3948(5) 0.8959(3) 0.57892(13)
O5 O 0.4852(5) 0.9200(3) 0.22590(14)
O6 O 0.3136(4) 0.8356(2) 0.17103(13)
C1 C -0.0252(6) 0.5946(4) 0.1466(2)
C2 C 0.1455(6) 0.6130(4) 0.1513(2)
H1 H 0.2060 0.6125 0.1178
C3 C 0.2217(5) 0.6307(3) 0.20059(18)
C4 C 0.1358(5) 0.6369(3) 0.25789(17)
C5 C -0.0435(5) 0.6594(4) 0.2474(2)
H2 H -0.1016 0.6493 0.2830
H3 H -0.0554 0.7320 0.2364
C6 C -0.1195(6) 0.5913(4) 0.2011(3)
H4 H -0.1254 0.5200 0.2147
H5 H -0.2282 0.6152 0.1938
C7 C 0.4035(5) 0.6418(3) 0.20045(17)
H6 H 0.4402 0.6504 0.1612
H7 H 0.4510 0.5783 0.2154
C8 C 0.4620(4) 0.7341(3) 0.23621(15)
H8 H 0.5793 0.7288 0.2386
C9 C 0.3962(4) 0.7220(3) 0.29768(15)
H9 H 0.4300 0.6530 0.3110
C10 C 0.2136(5) 0.7205(3) 0.29607(16)
C11 C 0.1256(5) 0.7663(3) 0.34500(17)
H10 H 0.0178 0.7379 0.3515
C12 C 0.2063(5) 0.8117(3) 0.39751(16)
H11 H 0.1533 0.7853 0.4316
H12 H 0.1936 0.8869 0.3971
C13 C 0.3846(5) 0.7853(3) 0.40049(15)
C14 C 0.4595(4) 0.7994(3) 0.34057(15)
H13 H 0.4298 0.8690 0.3270
C15 C 0.6436(5) 0.7994(4) 0.35098(19)
H14 H 0.6877 0.7301 0.3457
H15 H 0.6969 0.8469 0.3248
C16 C 0.6649(5) 0.8359(5) 0.41359(19)
H16 H 0.7311 0.8980 0.4152
H17 H 0.7153 0.7817 0.4364
C17 C 0.4936(6) 0.8591(4) 0.43593(16)
C18 C 0.4494(6) 0.9742(3) 0.43473(18)
H18 H 0.3833 0.9902 0.4016
H19 H 0.5451 1.0174 0.4336
C19 C 0.3557(7) 0.9917(4) 0.49058(18)
H20 H 0.3799 1.0593 0.5070
H21 H 0.2409 0.9865 0.4842
C20 C 0.4137(6) 0.9061(4) 0.52831(18)
C21 C 0.1523(6) 0.5303(3) 0.2894(2)
H22 H 0.2639 0.5147 0.2951
H23 H 0.1039 0.4765 0.2666
H24 H 0.0991 0.5340 0.3259
C22 C 0.4027(6) 0.6719(4) 0.42216(18)
H25 H 0.3684 0.6678 0.4614
H26 H 0.5132 0.6510 0.4194
H27 H 0.3377 0.6265 0.3991
C23 C 0.4237(5) 0.8400(3) 0.21149(16)
C24 C 0.2625(9) 0.9325(4) 0.1445(3)
H28 H 0.2501 0.9850 0.1735
H29 H 0.1618 0.9220 0.1253
H30 H 0.3419 0.9546 0.1173
O7 O 0.736(6) 0.849(3) 0.0753(13)
H31 H 0.6891 0.9044 0.0801
C25 C 0.705(7) 0.812(5) 0.0198(15)
H32 H 0.7478 0.7421 0.0159
H33 H 0.7588 0.8563 -0.0078
C26 C 0.529(8) 0.811(4) 0.0073(19)
H34 H 0.4709 0.7889 0.0409
H35 H 0.5075 0.7626 -0.0235
H36 H 0.4941 0.8791 -0.0037
O8? O 0.587(6) 0.906(3) 0.0120(14)
H37? H 0.5299 0.8605 -0.0021
C27? C 0.714(5) 0.859(4) 0.041(2)
H38? H 0.7664 0.9110 0.0652
H39? H 0.7925 0.8342 0.0137
C28? C 0.658(9) 0.771(4) 0.0777(17)
H40? H 0.5483 0.7547 0.0687
H41? H 0.6664 0.7895 0.1174
H42? H 0.7238 0.7105 0.0704
loop_
_geom_bond_atom_site_label_1
_geom_bond_atom_site_label_2
_geom_bond_site_symmetry_1
_geom_bond_site_symmetry_2
O1 C1 1_555 1_555
O2 C10 1_555 1_555
O3 C17 1_555 1_555
O4 C20 1_555 1_555
O5 C23 1_555 1_555
O6 C23 1_555 1_555
C1 C2 1_555 1_555
C2 H1 1_555 1_555
C3 C2 1_555 1_555
C4 C3 1_555 1_555
C5 C4 1_555 1_555
H2 C5 1_555 1_555
H3 C5 1_555 1_555
C6 C1 1_555 1_555
H4 C6 1_555 1_555
H5 C6 1_555 1_555
C7 C3 1_555 1_555
H6 C7 1_555 1_555
H7 C7 1_555 1_555
C8 C7 1_555 1_555
H8 C8 1_555 1_555
C9 C8 1_555 1_555
H9 C9 1_555 1_555
C10 C4 1_555 1_555
C11 O2 1_555 1_555
H10 C11 1_555 1_555
C12 C11 1_555 1_555
H11 C12 1_555 1_555
H12 C12 1_555 1_555
C13 C12 1_555 1_555
C14 C9 1_555 1_555
H13 C14 1_555 1_555
C15 C14 1_555 1_555
H14 C15 1_555 1_555
H15 C15 1_555 1_555
C16 C15 1_555 1_555
H16 C16 1_555 1_555
H17 C16 1_555 1_555
C17 C13 1_555 1_555
C18 C17 1_555 1_555
H18 C18 1_555 1_555
H19 C18 1_555 1_555
C19 C18 1_555 1_555
H20 C19 1_555 1_555
H21 C19 1_555 1_555
C20 O3 1_555 1_555
C21 C4 1_555 1_555
H22 C21 1_555 1_555
H23 C21 1_555 1_555
H24 C21 1_555 1_555
C22 C13 1_555 1_555
H25 C22 1_555 1_555
H26 C22 1_555 1_555
H27 C22 1_555 1_555
C23 C8 1_555 1_555
C24 O6 1_555 1_555
H28 C24 1_555 1_555
H29 C24 1_555 1_555
H30 C24 1_555 1_555
O7 H31 1_555 1_555
C25 O7 1_555 1_555
H32 C25 1_555 1_555
H33 C25 1_555 1_555
C26 C25 1_555 1_555
H34 C26 1_555 1_555
H35 C26 1_555 1_555
H36 C26 1_555 1_555
C5 C6 1_555 1_555
C9 C10 1_555 1_555
C10 C11 1_555 1_555
C13 C14 1_555 1_555
C16 C17 1_555 1_555
C19 C20 1_555 1_555

#END
