
#######################################################################
#
#                 Cambridge Crystallographic Data Centre
#                                CCDC 
#
#######################################################################
#
# If this CIF has been generated from an entry in the Cambridge 
# Structural Database, then it will include bibliographic, chemical, 
# crystal, experimental, refinement or atomic coordinate data resulting 
# from the CCDC's data processing and validation procedures.
#
#######################################################################

data_BOBHAC
_chemical_formula_moiety         'C44 H52 Li2 N4 O4 P2'
_chemical_name_systematic        
bis(\m~2~-3,5-Diphenyl-1,2,4-diazaphospholido-N,N,N')-tetrakis(tetrahydrofuran)-di-lithium
_symmetry_cell_setting           monoclinic
_symmetry_space_group_name_H-M   'P 21/n'
_symmetry_Int_Tables_number      14
_space_group_name_Hall           '-P 2yn'
loop_
_symmetry_equiv_pos_site_id
_symmetry_equiv_pos_as_xyz
1 x,y,z
2 1/2-x,1/2+y,1/2-z
3 -x,-y,-z
4 1/2+x,1/2-y,1/2+z
_cell_length_a                   10.8365(18)
_cell_length_b                   13.267(2)
_cell_length_c                   14.755(2)
_cell_angle_alpha                90
_cell_angle_beta                 93.300(4)
_cell_angle_gamma                90
_cell_volume                     2117.78
_exptl_crystal_colour            yellow
_exptl_crystal_description       cubic
_chemical_melting_point          'decomposes above 200 deg.C'
_cell_formula_units_Z            2
loop_
_atom_site_label
_atom_site_type_symbol
_atom_site_fract_x
_atom_site_fract_y
_atom_site_fract_z
P1 P 0.53442(8) 0.65111(6) 0.25165(5)
O1 O 0.5313(3) 0.73154(19) 0.62009(16)
O2 O 0.3174(3) 0.6268(3) 0.53401(19)
N1 N 0.5694(3) 0.6012(2) 0.42186(17)
N2 N 0.4859(2) 0.5332(2) 0.38628(16)
C1 C 0.6044(3) 0.6671(2) 0.3600(2)
C2 C 0.4549(3) 0.5506(2) 0.29856(19)
C3 C 0.6960(3) 0.7457(3) 0.3880(2)
C4 C 0.7008(4) 0.8360(3) 0.3410(2)
H1 H 0.6428 0.8486 0.2916
C5 C 0.7887(4) 0.9080(4) 0.3652(3)
H2 H 0.7921 0.9689 0.3316
C6 C 0.8709(4) 0.8916(4) 0.4377(3)
H3 H 0.9311 0.9412 0.4543
C7 C 0.8666(4) 0.8040(4) 0.4861(3)
H4 H 0.9230 0.7935 0.5369
C8 C 0.7804(3) 0.7306(4) 0.4612(2)
H5 H 0.7790 0.6694 0.4946
C9 C 0.3551(3) 0.4905(2) 0.2532(2)
C10 C 0.2732(3) 0.4357(3) 0.3037(2)
H6 H 0.2820 0.4371 0.3681
C11 C 0.1796(4) 0.3797(3) 0.2613(3)
H7 H 0.1254 0.3420 0.2966
C12 C 0.1643(4) 0.3780(3) 0.1681(3)
H8 H 0.1002 0.3388 0.1390
C13 C 0.2419(4) 0.4332(3) 0.1173(3)
H9 H 0.2301 0.4340 0.0530
C14 C 0.3378(3) 0.4880(2) 0.1598(2)
H10 H 0.3926 0.5244 0.1240
C15 C 0.5343(3) 0.8255(2) 0.5835(2)
H11 H 0.5127 0.8229 0.5174
H12 H 0.6178 0.8552 0.5933
C16 C 0.4385(8) 0.8885(5) 0.6323(5)
H13 H 0.4518 0.9619 0.6251
H14 H 0.3526 0.8710 0.6118
C17 C 0.4694(13) 0.8549(8) 0.7241(7)
H15 H 0.3934 0.8470 0.7575
H16 H 0.5235 0.9049 0.7565
C18 C 0.5352(10) 0.7556(6) 0.7184(5)
H17 H 0.6217 0.7612 0.7435
H18 H 0.4926 0.7029 0.7523
C23 C 0.2549(6) 0.6297(7) 0.6171(5)
H27 H 0.2416 0.6997 0.6375
H28 H 0.3004 0.5915 0.6660
C24 C 0.1362(10) 0.5794(8) 0.5873(6)
H29 H 0.0657 0.6138 0.6138
H30 H 0.1370 0.5080 0.6069
C25 C 0.1251(7) 0.5862(7) 0.4859(6)
H31 H 0.0447 0.6158 0.4647
H32 H 0.1335 0.5189 0.4580
C26 C 0.2323(19) 0.6552(14) 0.4630(9)
H33 H 0.2630 0.6400 0.4026
H34 H 0.2098 0.7274 0.4663
Li1 Li 0.4985(5) 0.6052(5) 0.5479(4)
P1B P 0.46558(8) 0.34889(6) 0.74835(5)
O1B O 0.4687(3) 0.26846(19) 0.37991(16)
O2B O 0.6826(3) 0.3732(3) 0.46599(19)
N1B N 0.4306(3) 0.3988(2) 0.57814(17)
N2B N 0.5141(2) 0.4668(2) 0.61372(16)
C1B C 0.3956(3) 0.3329(2) 0.6400(2)
C2B C 0.5451(3) 0.4494(2) 0.70144(19)
C3B C 0.3040(3) 0.2543(3) 0.6120(2)
C4B C 0.2992(4) 0.1640(3) 0.6590(2)
H1B H 0.3572 0.1514 0.7084
C5B C 0.2113(4) 0.0920(4) 0.6348(3)
H2B H 0.2079 0.0311 0.6684
C6B C 0.1291(4) 0.1084(4) 0.5623(3)
H3B H 0.0689 0.0588 0.5457
C7B C 0.1334(4) 0.1960(4) 0.5139(3)
H4B H 0.0770 0.2065 0.4631
C8B C 0.2196(3) 0.2694(4) 0.5388(2)
H5B H 0.2210 0.3306 0.5054
C9B C 0.6449(3) 0.5095(2) 0.7468(2)
C10B C 0.7268(3) 0.5643(3) 0.6963(2)
H6B H 0.7180 0.5629 0.6319
C11B C 0.8204(4) 0.6203(3) 0.7387(3)
H7B H 0.8746 0.6580 0.7034
C12B C 0.8357(4) 0.6220(3) 0.8319(3)
H8B H 0.8998 0.6612 0.8610
C13B C 0.7581(4) 0.5668(3) 0.8827(3)
H9B H 0.7699 0.5660 0.9470
C14B C 0.6622(3) 0.5120(2) 0.8402(2)
H10B H 0.6074 0.4756 0.8760
C15B C 0.4657(3) 0.1745(2) 0.4165(2)
H11B H 0.4873 0.1771 0.4826
H12B H 0.3822 0.1448 0.4067
C16B C 0.5615(8) 0.1115(5) 0.3677(5)
H13B H 0.5482 0.0381 0.3749
H14B H 0.6474 0.1290 0.3882
C17B C 0.5306(13) 0.1451(8) 0.2759(7)
H15B H 0.6066 0.1530 0.2425
H16B H 0.4765 0.0951 0.2435
C18B C 0.4648(10) 0.2444(6) 0.2816(5)
H17B H 0.3783 0.2388 0.2565
H18B H 0.5074 0.2971 0.2477
C23B C 0.7451(6) 0.3703(7) 0.3829(5)
H27B H 0.7584 0.3003 0.3625
H28B H 0.6996 0.4085 0.3340
C24B C 0.8638(10) 0.4206(8) 0.4127(6)
H29B H 0.9343 0.3862 0.3862
H30B H 0.8630 0.4920 0.3931
C25B C 0.8749(7) 0.4138(7) 0.5141(6)
H31B H 0.9553 0.3842 0.5353
H32B H 0.8665 0.4811 0.5420
C26B C 0.7677(19) 0.3448(14) 0.5370(9)
H33B H 0.7370 0.3600 0.5974
H34B H 0.7902 0.2726 0.5337
Li1B Li 0.5015(5) 0.3948(5) 0.4521(4)
C19? C 0.5267(18) 0.8310(13) 0.5776(12)
H19? H 0.4469 0.8473 0.5449
H20? H 0.5976 0.8464 0.5406
C20? C 0.541(2) 0.8740(14) 0.6844(16)
H21? H 0.6298 0.8842 0.7016
H22? H 0.4996 0.9403 0.6872
C21? C 0.489(2) 0.807(2) 0.7494(15)
H23? H 0.4256 0.8414 0.7837
H24? H 0.5539 0.7796 0.7926
C22? C 0.4324(15) 0.7246(9) 0.6899(8)
H25? H 0.3487 0.7418 0.6641
H26? H 0.4314 0.6583 0.7207
C27? C 0.2128(12) 0.5577(10) 0.5778(9)
H35? H 0.2033 0.4915 0.5473
H36? H 0.2291 0.5478 0.6439
C28? C 0.1039(13) 0.6256(13) 0.5566(13)
H37? H 0.0258 0.5867 0.5526
H38? H 0.0984 0.6785 0.6035
C29? C 0.1294(16) 0.670(2) 0.4688(11)
H39? H 0.0958 0.6262 0.4187
H40? H 0.0916 0.7373 0.4622
C30? C 0.259(3) 0.676(2) 0.468(2)
H41? H 0.2853 0.6493 0.4092
H42? H 0.2837 0.7479 0.4714
loop_
_geom_bond_atom_site_label_1
_geom_bond_atom_site_label_2
_geom_bond_site_symmetry_1
_geom_bond_site_symmetry_2
P1 C1 1_555 1_555
O1 C15 1_555 1_555
O2 C23 1_555 1_555
N1 N2 1_555 1_555
N2 C2 1_555 1_555
C1 N1 1_555 1_555
C2 P1 1_555 1_555
C3 C1 1_555 1_555
C4 C3 1_555 1_555
H1 C4 1_555 1_555
C5 C4 1_555 1_555
H2 C5 1_555 1_555
C6 C5 1_555 1_555
H3 C6 1_555 1_555
C7 C6 1_555 1_555
H4 C7 1_555 1_555
C8 C3 1_555 1_555
H5 C8 1_555 1_555
C9 C2 1_555 1_555
C10 C9 1_555 1_555
H6 C10 1_555 1_555
C11 C10 1_555 1_555
H7 C11 1_555 1_555
C12 C11 1_555 1_555
H8 C12 1_555 1_555
C13 C12 1_555 1_555
H9 C13 1_555 1_555
C14 C9 1_555 1_555
H10 C14 1_555 1_555
C15 H11 1_555 1_555
H12 C15 1_555 1_555
C16 C15 1_555 1_555
H13 C16 1_555 1_555
H14 C16 1_555 1_555
C17 C16 1_555 1_555
H15 C17 1_555 1_555
H16 C17 1_555 1_555
C18 O1 1_555 1_555
H17 C18 1_555 1_555
H18 C18 1_555 1_555
C23 H27 1_555 1_555
H28 C23 1_555 1_555
C24 C23 1_555 1_555
H29 C24 1_555 1_555
H30 C24 1_555 1_555
C25 C24 1_555 1_555
H31 C25 1_555 1_555
H32 C25 1_555 1_555
C26 O2 1_555 1_555
H33 C26 1_555 1_555
H34 C26 1_555 1_555
Li1 O1 1_555 1_555
P1B C1B 1_555 1_555
O1B C15B 1_555 1_555
O2B C23B 1_555 1_555
N1B N2B 1_555 1_555
N2B Li1 1_555 1_555
C1B N1B 1_555 1_555
C2B P1B 1_555 1_555
C3B C1B 1_555 1_555
C4B C3B 1_555 1_555
H1B C4B 1_555 1_555
C5B C4B 1_555 1_555
H2B C5B 1_555 1_555
C6B C5B 1_555 1_555
H3B C6B 1_555 1_555
C7B C6B 1_555 1_555
H4B C7B 1_555 1_555
C8B C3B 1_555 1_555
H5B C8B 1_555 1_555
C9B C2B 1_555 1_555
C10B C9B 1_555 1_555
H6B C10B 1_555 1_555
C11B C10B 1_555 1_555
H7B C11B 1_555 1_555
C12B C11B 1_555 1_555
H8B C12B 1_555 1_555
C13B C12B 1_555 1_555
H9B C13B 1_555 1_555
C14B C9B 1_555 1_555
H10B C14B 1_555 1_555
C15B H11B 1_555 1_555
H12B C15B 1_555 1_555
C16B C15B 1_555 1_555
H13B C16B 1_555 1_555
H14B C16B 1_555 1_555
C17B C16B 1_555 1_555
H15B C17B 1_555 1_555
H16B C17B 1_555 1_555
C18B O1B 1_555 1_555
H17B C18B 1_555 1_555
H18B C18B 1_555 1_555
C23B H27B 1_555 1_555
H28B C23B 1_555 1_555
C24B C23B 1_555 1_555
H29B C24B 1_555 1_555
H30B C24B 1_555 1_555
C25B C24B 1_555 1_555
H31B C25B 1_555 1_555
H32B C25B 1_555 1_555
C26B O2B 1_555 1_555
H33B C26B 1_555 1_555
H34B C26B 1_555 1_555
Li1B N2 1_555 1_555
O2 Li1 1_555 1_555
N1 Li1 1_555 1_555
N2 Li1 1_555 1_555
C7 C8 1_555 1_555
C13 C14 1_555 1_555
C17 C18 1_555 1_555
C25 C26 1_555 1_555
O1B Li1B 1_555 1_555
O2B Li1B 1_555 1_555
N1B Li1B 1_555 1_555
N2B C2B 1_555 1_555
N2B Li1B 1_555 1_555
C7B C8B 1_555 1_555
C13B C14B 1_555 1_555
C17B C18B 1_555 1_555
C25B C26B 1_555 1_555

#END
