
#######################################################################
#
#                 Cambridge Crystallographic Data Centre
#                                CCDC 
#
#######################################################################
#
# If this CIF has been generated from an entry in the Cambridge 
# Structural Database, then it will include bibliographic, chemical, 
# crystal, experimental, refinement or atomic coordinate data resulting 
# from the CCDC's data processing and validation procedures.
#
#######################################################################

data_BOBMEM
_chemical_formula_moiety         'C54 H72 N4 O4 P2,2(H2 O1)'
_chemical_name_systematic        
'1,2-bis(1,3-bis(2,6-diisopropylphenyl)-1H-imidazol-3-ium-2-yl)diphosphane-1,2-diolate 1,2-dioxide dihydrate'
_symmetry_cell_setting           monoclinic
_symmetry_space_group_name_H-M   'P 21/n'
_symmetry_Int_Tables_number      14
_space_group_name_Hall           '-P 2yn'
loop_
_symmetry_equiv_pos_site_id
_symmetry_equiv_pos_as_xyz
1 x,y,z
2 1/2-x,1/2+y,1/2-z
3 -x,-y,-z
4 1/2+x,1/2-y,1/2+z
_cell_length_a                   12.9724(8)
_cell_length_b                   14.6285(9)
_cell_length_c                   14.8116(9)
_cell_angle_alpha                90
_cell_angle_beta                 102.3350(10)
_cell_angle_gamma                90
_cell_volume                     2745.86
_exptl_crystal_colour            colorless
_exptl_crystal_description       plate
_cell_formula_units_Z            2
loop_
_atom_site_label
_atom_site_type_symbol
_atom_site_fract_x
_atom_site_fract_y
_atom_site_fract_z
P1 P 0.49878(6) 0.92678(4) 0.01851(5)
O1 O 0.4209(2) 0.91216(16) 0.07500(14)
O2 O 0.60726(17) 0.89264(14) 0.04600(15)
N1 N 0.34318(14) 0.83869(12) -0.12228(13)
N2 N 0.49107(14) 0.85136(13) -0.16504(13)
C1 C 0.44236(17) 0.87160(14) -0.09572(15)
C2 C 0.3307(2) 0.79799(18) -0.20748(17)
H1 H 0.2698 0.7700 -0.2405
C3 C 0.4218(2) 0.80623(19) -0.23365(18)
H2 H 0.4363 0.7851 -0.2888
C4 C 0.60227(19) 0.86229(18) -0.16770(17)
C5 C 0.6724(2) 0.79580(19) -0.12193(19)
C6 C 0.7765(2) 0.8042(2) -0.1297(2)
H3 H 0.8262 0.7620 -0.1005
C7 C 0.8070(3) 0.8738(3) -0.1796(3)
H4 H 0.8775 0.8786 -0.1832
C8 C 0.7367(3) 0.9362(3) -0.2240(2)
H5 H 0.7601 0.9825 -0.2577
C9 C 0.6300(2) 0.9326(2) -0.22045(19)
C10 C 0.5518(3) 0.9991(2) -0.2753(2)
H6 H 0.4908 1.0023 -0.2461
C11 C 0.5953(4) 1.0959(3) -0.2784(3)
H7 H 0.6186 1.1184 -0.2166
H8 H 0.5409 1.1350 -0.3118
H9 H 0.6536 1.0949 -0.3089
C12 C 0.5126(4) 0.9641(3) -0.3750(2)
H10 H 0.4847 0.9035 -0.3736
H11 H 0.5703 0.9631 -0.4062
H12 H 0.4583 1.0040 -0.4074
C13 C 0.6383(2) 0.71603(19) -0.0702(2)
H13 H 0.5743 0.7348 -0.0500
C14 C 0.6090(3) 0.6341(2) -0.1347(3)
H14 H 0.5572 0.6524 -0.1881
H15 H 0.5807 0.5864 -0.1028
H16 H 0.6709 0.6122 -0.1537
C15 C 0.7190(3) 0.6887(2) 0.0156(3)
H17 H 0.7354 0.7405 0.0558
H18 H 0.7821 0.6676 -0.0019
H19 H 0.6907 0.6406 0.0472
C16 C 0.26164(18) 0.83182(17) -0.06823(17)
C17 C 0.2627(2) 0.7545(2) -0.0142(2)
C18 C 0.1832(3) 0.7473(3) 0.0355(3)
H20 H 0.1820 0.6975 0.0742
C19 C 0.1070(3) 0.8129(3) 0.0276(3)
H21 H 0.0541 0.8069 0.0608
C20 C 0.1071(3) 0.8874(3) -0.0281(3)
H22 H 0.0538 0.9308 -0.0325
C21 C 0.1849(2) 0.89959(19) -0.07818(19)
C22 C 0.1826(2) 0.97993(18) -0.1420(2)
H23 H 0.2550 0.9907 -0.1491
C23 C 0.1156(3) 0.9580(3) -0.2376(2)
H24 H 0.1418 0.9035 -0.2610
H25 H 0.1193 1.0080 -0.2788
H26 H 0.0436 0.9488 -0.2330
C24 C 0.1437(3) 1.0678(2) -0.1054(3)
H27 H 0.1866 1.0816 -0.0457
H28 H 0.0717 1.0601 -0.1001
H29 H 0.1481 1.1170 -0.1472
C25 C 0.3442(3) 0.6795(2) -0.0080(2)
H30 H 0.3936 0.6978 -0.0463
C26 C 0.4069(3) 0.6654(3) 0.0889(3)
H31 H 0.4400 0.7218 0.1121
H32 H 0.4600 0.6197 0.0886
H33 H 0.3607 0.6456 0.1277
C27 C 0.2931(4) 0.5897(3) -0.0467(3)
H34 H 0.2543 0.5991 -0.1088
H35 H 0.2460 0.5690 -0.0090
H36 H 0.3469 0.5446 -0.0464
P1B P 0.50122(6) 1.07322(4) -0.01851(5)
O1B O 0.5791(2) 1.08784(16) -0.07500(14)
O2B O 0.39274(17) 1.10736(14) -0.04600(15)
N1B N 0.65682(14) 1.16131(12) 0.12228(13)
N2B N 0.50893(14) 1.14864(13) 0.16504(13)
C1B C 0.55764(17) 1.12840(14) 0.09572(15)
C2B C 0.6693(2) 1.20201(18) 0.20748(17)
H1B H 0.7302 1.2300 0.2405
C3B C 0.5782(2) 1.19377(19) 0.23365(18)
H2B H 0.5637 1.2149 0.2888
C4B C 0.39773(19) 1.13771(18) 0.16770(17)
C5B C 0.3276(2) 1.20420(19) 0.12193(19)
C6B C 0.2235(2) 1.1958(2) 0.1297(2)
H3B H 0.1738 1.2380 0.1005
C7B C 0.1930(3) 1.1262(3) 0.1796(3)
H4B H 0.1225 1.1214 0.1832
C8B C 0.2633(3) 1.0638(3) 0.2240(2)
H5B H 0.2399 1.0175 0.2577
C9B C 0.3700(2) 1.0674(2) 0.22045(19)
C10B C 0.4482(3) 1.0009(2) 0.2753(2)
H6B H 0.5092 0.9977 0.2461
C11B C 0.4047(4) 0.9041(3) 0.2784(3)
H7B H 0.3814 0.8816 0.2166
H8B H 0.4591 0.8650 0.3118
H9B H 0.3464 0.9051 0.3089
C12B C 0.4874(4) 1.0359(3) 0.3750(2)
H10B H 0.5153 1.0965 0.3736
H11B H 0.4297 1.0369 0.4062
H12B H 0.5417 0.9960 0.4074
C13B C 0.3617(2) 1.28397(19) 0.0702(2)
H13B H 0.4257 1.2652 0.0500
C14B C 0.3910(3) 1.3659(2) 0.1347(3)
H14B H 0.4428 1.3476 0.1881
H15B H 0.4193 1.4136 0.1028
H16B H 0.3291 1.3878 0.1537
C15B C 0.2810(3) 1.3113(2) -0.0156(3)
H17B H 0.2646 1.2595 -0.0558
H18B H 0.2179 1.3324 0.0019
H19B H 0.3093 1.3594 -0.0472
C16B C 0.73836(18) 1.16818(17) 0.06823(17)
C17B C 0.7373(2) 1.2455(2) 0.0142(2)
C18B C 0.8168(3) 1.2527(3) -0.0355(3)
H20B H 0.8180 1.3025 -0.0742
C19B C 0.8930(3) 1.1871(3) -0.0276(3)
H21B H 0.9459 1.1931 -0.0608
C20B C 0.8929(3) 1.1126(3) 0.0281(3)
H22B H 0.9462 1.0692 0.0325
C21B C 0.8151(2) 1.10041(19) 0.07818(19)
C22B C 0.8174(2) 1.02007(18) 0.1420(2)
H23B H 0.7450 1.0093 0.1491
C23B C 0.8844(3) 1.0420(3) 0.2376(2)
H24B H 0.8582 1.0965 0.2610
H25B H 0.8807 0.9920 0.2788
H26B H 0.9564 1.0512 0.2330
C24B C 0.8563(3) 0.9322(2) 0.1054(3)
H27B H 0.8134 0.9184 0.0457
H28B H 0.9283 0.9399 0.1001
H29B H 0.8519 0.8830 0.1472
C25B C 0.6558(3) 1.3205(2) 0.0080(2)
H30B H 0.6064 1.3022 0.0463
C26B C 0.5931(3) 1.3346(3) -0.0889(3)
H31B H 0.5600 1.2782 -0.1121
H32B H 0.5400 1.3803 -0.0886
H33B H 0.6393 1.3544 -0.1277
C27B C 0.7069(4) 1.4103(3) 0.0467(3)
H34B H 0.7457 1.4009 0.1088
H35B H 0.7540 1.4310 0.0090
H36B H 0.6531 1.4554 0.0464
O3 O 0.6412(3) 0.8252(3) 0.2211(3)
H37 H 0.634(4) 0.842(3) 0.156(4)
H38 H 0.586(6) 0.807(6) 0.234(6)
loop_
_geom_bond_atom_site_label_1
_geom_bond_atom_site_label_2
_geom_bond_site_symmetry_1
_geom_bond_site_symmetry_2
P1 O1 1_555 1_555
O2 P1 1_555 1_555
N1 C1 1_555 1_555
N2 C1 1_555 1_555
C1 P1 1_555 1_555
C2 N1 1_555 1_555
H1 C2 1_555 1_555
C3 N2 1_555 1_555
H2 C3 1_555 1_555
C4 N2 1_555 1_555
C5 C4 1_555 1_555
C6 C5 1_555 1_555
H3 C6 1_555 1_555
C7 C6 1_555 1_555
H4 C7 1_555 1_555
C8 C7 1_555 1_555
H5 C8 1_555 1_555
C9 C4 1_555 1_555
C10 C9 1_555 1_555
H6 C10 1_555 1_555
C11 C10 1_555 1_555
H7 C11 1_555 1_555
H8 C11 1_555 1_555
H9 C11 1_555 1_555
C12 C10 1_555 1_555
H10 C12 1_555 1_555
H11 C12 1_555 1_555
H12 C12 1_555 1_555
C13 C5 1_555 1_555
H13 C13 1_555 1_555
C14 C13 1_555 1_555
H14 C14 1_555 1_555
H15 C14 1_555 1_555
H16 C14 1_555 1_555
C15 C13 1_555 1_555
H17 C15 1_555 1_555
H18 C15 1_555 1_555
H19 C15 1_555 1_555
C16 N1 1_555 1_555
C17 C16 1_555 1_555
C18 C17 1_555 1_555
H20 C18 1_555 1_555
C19 C18 1_555 1_555
H21 C19 1_555 1_555
C20 C19 1_555 1_555
H22 C20 1_555 1_555
C21 C16 1_555 1_555
C22 C21 1_555 1_555
H23 C22 1_555 1_555
C23 C22 1_555 1_555
H24 C23 1_555 1_555
H25 C23 1_555 1_555
H26 C23 1_555 1_555
C24 C22 1_555 1_555
H27 C24 1_555 1_555
H28 C24 1_555 1_555
H29 C24 1_555 1_555
C25 C17 1_555 1_555
H30 C25 1_555 1_555
C26 C25 1_555 1_555
H31 C26 1_555 1_555
H32 C26 1_555 1_555
H33 C26 1_555 1_555
C27 C25 1_555 1_555
H34 C27 1_555 1_555
H35 C27 1_555 1_555
H36 C27 1_555 1_555
O3 H37 1_555 1_555
H38 O3 1_555 1_555
P1B P1 1_555 1_555
O1B P1B 1_555 1_555
O2B P1B 1_555 1_555
N1B C1B 1_555 1_555
N2B C1B 1_555 1_555
C1B P1B 1_555 1_555
C2B N1B 1_555 1_555
H1B C2B 1_555 1_555
C3B N2B 1_555 1_555
H2B C3B 1_555 1_555
C4B N2B 1_555 1_555
C5B C4B 1_555 1_555
C6B C5B 1_555 1_555
H3B C6B 1_555 1_555
C7B C6B 1_555 1_555
H4B C7B 1_555 1_555
C8B C7B 1_555 1_555
H5B C8B 1_555 1_555
C9B C4B 1_555 1_555
C10B C9B 1_555 1_555
H6B C10B 1_555 1_555
C11B C10B 1_555 1_555
H7B C11B 1_555 1_555
H8B C11B 1_555 1_555
H9B C11B 1_555 1_555
C12B C10B 1_555 1_555
H10B C12B 1_555 1_555
H11B C12B 1_555 1_555
H12B C12B 1_555 1_555
C13B C5B 1_555 1_555
H13B C13B 1_555 1_555
C14B C13B 1_555 1_555
H14B C14B 1_555 1_555
H15B C14B 1_555 1_555
H16B C14B 1_555 1_555
C15B C13B 1_555 1_555
H17B C15B 1_555 1_555
H18B C15B 1_555 1_555
H19B C15B 1_555 1_555
C16B N1B 1_555 1_555
C17B C16B 1_555 1_555
C18B C17B 1_555 1_555
H20B C18B 1_555 1_555
C19B C18B 1_555 1_555
H21B C19B 1_555 1_555
C20B C19B 1_555 1_555
H22B C20B 1_555 1_555
C21B C16B 1_555 1_555
C22B C21B 1_555 1_555
H23B C22B 1_555 1_555
C23B C22B 1_555 1_555
H24B C23B 1_555 1_555
H25B C23B 1_555 1_555
H26B C23B 1_555 1_555
C24B C22B 1_555 1_555
H27B C24B 1_555 1_555
H28B C24B 1_555 1_555
H29B C24B 1_555 1_555
C25B C17B 1_555 1_555
H30B C25B 1_555 1_555
C26B C25B 1_555 1_555
H31B C26B 1_555 1_555
H32B C26B 1_555 1_555
H33B C26B 1_555 1_555
C27B C25B 1_555 1_555
H34B C27B 1_555 1_555
H35B C27B 1_555 1_555
H36B C27B 1_555 1_555
C2 C3 1_555 1_555
C8 C9 1_555 1_555
C20 C21 1_555 1_555
C2B C3B 1_555 1_555
C8B C9B 1_555 1_555
C20B C21B 1_555 1_555

#END
