
#######################################################################
#
#                 Cambridge Crystallographic Data Centre
#                                CCDC 
#
#######################################################################
#
# If this CIF has been generated from an entry in the Cambridge 
# Structural Database, then it will include bibliographic, chemical, 
# crystal, experimental, refinement or atomic coordinate data resulting 
# from the CCDC's data processing and validation procedures.
#
#######################################################################

data_BOBNEM
_chemical_formula_moiety         'C17 H21 Br1 O3'
_chemical_name_systematic        
'(7,7-Dimethyl-3-oxabicyclo[4.2.0]oct-8-yl)methyl 4-bromobenzoate'
_symmetry_cell_setting           triclinic
_symmetry_space_group_name_H-M   'P -1'
_symmetry_Int_Tables_number      2
_space_group_name_Hall           '-P 1'
loop_
_symmetry_equiv_pos_site_id
_symmetry_equiv_pos_as_xyz
1 x,y,z
2 -x,-y,-z
_cell_length_a                   7.0187(6)
_cell_length_b                   7.9272(7)
_cell_length_c                   14.4217(13)
_cell_angle_alpha                93.308(2)
_cell_angle_beta                 96.276(2)
_cell_angle_gamma                93.402(2)
_cell_volume                     794.521
_exptl_crystal_colour            colorless
_exptl_crystal_description       needle
_cell_formula_units_Z            2
loop_
_atom_site_label
_atom_site_type_symbol
_atom_site_fract_x
_atom_site_fract_y
_atom_site_fract_z
Br1 Br 0.57258(6) 0.52090(5) 0.72915(3)
O1 O 0.9196(3) -0.4039(3) 0.09612(17)
O2 O 0.9390(3) 0.0992(3) 0.37235(16)
O3 O 1.2194(3) 0.1994(3) 0.45141(17)
C1 C 0.7614(5) -0.3796(4) 0.0282(3)
H1 H 0.6814 -0.4870 0.0143
H2 H 0.8096 -0.3458 -0.0304
C2 C 0.6418(5) -0.2440(4) 0.0649(3)
H3 H 0.5935 -0.2788 0.1233
H4 H 0.5294 -0.2314 0.0185
C3 C 0.7578(5) -0.0735(4) 0.0840(2)
H5 H 0.7526 -0.0038 0.0283
C4 C 0.9661(5) -0.0971(4) 0.1276(2)
H6 H 1.0525 -0.0003 0.1121
C5 C 1.0535(5) -0.2607(4) 0.1035(3)
H7 H 1.1080 -0.2521 0.0433
H8 H 1.1603 -0.2777 0.1521
C6 C 0.7264(5) 0.0304(4) 0.1760(2)
C7 C 0.5350(5) 0.0053(5) 0.2161(3)
H9 H 0.4316 0.0413 0.1719
H10 H 0.5401 0.0730 0.2755
H11 H 0.5105 -0.1147 0.2268
C8 C 0.7717(5) 0.2195(4) 0.1675(3)
H12 H 0.6682 0.2647 0.1270
H13 H 0.8931 0.2363 0.1406
H14 H 0.7827 0.2787 0.2296
C9 C 0.9004(5) -0.0576(4) 0.2250(2)
H15 H 0.8530 -0.1651 0.2504
C10 C 1.0429(5) 0.0380(4) 0.2969(2)
H16 H 1.1422 -0.0372 0.3209
H17 H 1.1070 0.1343 0.2692
C11 C 1.0463(5) 0.1842(4) 0.4450(2)
C12 C 0.9274(5) 0.2595(4) 0.5141(2)
C13 C 1.0200(5) 0.3524(4) 0.5923(2)
H18 H 1.1564 0.3641 0.6012
C14 C 0.9166(5) 0.4279(4) 0.6571(2)
H19 H 0.9805 0.4899 0.7111
C15 C 0.7182(5) 0.4118(4) 0.6423(2)
C16 C 0.6228(5) 0.3203(5) 0.5653(3)
H20 H 0.4864 0.3104 0.5563
C17 C 0.7284(5) 0.2428(5) 0.5013(3)
H21 H 0.6642 0.1780 0.4483
loop_
_geom_bond_atom_site_label_1
_geom_bond_atom_site_label_2
_geom_bond_site_symmetry_1
_geom_bond_site_symmetry_2
Br1 C15 1_555 1_555
O1 C1 1_555 1_555
O2 C10 1_555 1_555
O3 C11 1_555 1_555
C1 H1 1_555 1_555
H2 C1 1_555 1_555
C2 C1 1_555 1_555
H3 C2 1_555 1_555
H4 C2 1_555 1_555
C3 C2 1_555 1_555
H5 C3 1_555 1_555
C4 C3 1_555 1_555
H6 C4 1_555 1_555
C5 O1 1_555 1_555
H7 C5 1_555 1_555
H8 C5 1_555 1_555
C6 C3 1_555 1_555
C7 C6 1_555 1_555
H9 C7 1_555 1_555
H10 C7 1_555 1_555
H11 C7 1_555 1_555
C8 C6 1_555 1_555
H12 C8 1_555 1_555
H13 C8 1_555 1_555
H14 C8 1_555 1_555
C9 C4 1_555 1_555
H15 C9 1_555 1_555
C10 C9 1_555 1_555
H16 C10 1_555 1_555
H17 C10 1_555 1_555
C11 O2 1_555 1_555
C12 C11 1_555 1_555
C13 C12 1_555 1_555
H18 C13 1_555 1_555
C14 C13 1_555 1_555
H19 C14 1_555 1_555
C15 C14 1_555 1_555
C16 C15 1_555 1_555
H20 C16 1_555 1_555
C17 C12 1_555 1_555
H21 C17 1_555 1_555
C4 C5 1_555 1_555
C6 C9 1_555 1_555
C16 C17 1_555 1_555

#END
