
#######################################################################
#
#                 Cambridge Crystallographic Data Centre
#                                CCDC 
#
#######################################################################
#
# If this CIF has been generated from an entry in the Cambridge 
# Structural Database, then it will include bibliographic, chemical, 
# crystal, experimental, refinement or atomic coordinate data resulting 
# from the CCDC's data processing and validation procedures.
#
#######################################################################

data_BOBNAI
_chemical_formula_moiety         'C22 H28 I2 O6'
_chemical_name_systematic        
"3,3'-Di-iodo-2,2'-dioxo-6,6'-dipropyl-1,1'-bi(cyclohex-3-en-1-yl)-5,5'-diyl diacetate"
_symmetry_cell_setting           monoclinic
_symmetry_space_group_name_H-M   'P 21'
_symmetry_Int_Tables_number      4
_space_group_name_Hall           'P 2yb'
loop_
_symmetry_equiv_pos_site_id
_symmetry_equiv_pos_as_xyz
1 x,y,z
2 -x,1/2+y,-z
_cell_length_a                   12.519(2)
_cell_length_b                   10.3339(17)
_cell_length_c                   19.227(3)
_cell_angle_alpha                90
_cell_angle_beta                 94.307(9)
_cell_angle_gamma                90
_cell_volume                     2480.37
_exptl_crystal_colour            colorless
_exptl_crystal_description       needle
_cell_formula_units_Z            4
loop_
_atom_site_label
_atom_site_type_symbol
_atom_site_fract_x
_atom_site_fract_y
_atom_site_fract_z
I1 I 0.21602(3) 0.60795(3) 0.399586(19)
O1 O 0.2154(3) 0.2822(3) 0.61076(18)
C1 C 0.2913(4) 0.5105(4) 0.4860(2)
I2 I 0.70042(3) 0.26852(3) 0.348175(17)
O2 O 0.1562(4) 0.3890(5) 0.7004(2)
C2 C 0.2350(4) 0.4633(4) 0.5356(3)
H1 H 0.1598 0.4766 0.5327
O3 O 0.4584(3) 0.5216(3) 0.43588(18)
C3 C 0.2864(4) 0.3891(4) 0.5965(3)
H2 H 0.2941 0.4472 0.6382
O4 O 0.8294(3) 0.6206(3) 0.53918(17)
C4 C 0.3959(4) 0.3333(4) 0.5831(3)
H3 H 0.3847 0.2666 0.5455
O5 O 0.9782(3) 0.5021(4) 0.5545(2)
C5 C 0.4613(4) 0.4440(4) 0.5544(2)
H4 H 0.4582 0.5169 0.5885
O6 O 0.5322(3) 0.2536(3) 0.46287(17)
C6 C 0.4084(4) 0.4940(4) 0.4854(3)
C7 C 0.1542(5) 0.2944(7) 0.6650(3)
C8 C 0.0904(5) 0.1750(7) 0.6742(3)
H5 H 0.0465 0.1861 0.7139
H6 H 0.1389 0.1014 0.6829
H7 H 0.0438 0.1590 0.6318
C9 C 0.4473(4) 0.2655(5) 0.6486(2)
H8 H 0.3989 0.1953 0.6617
H9 H 0.5151 0.2249 0.6366
C10 C 0.4711(5) 0.3526(5) 0.7118(3)
H10 H 0.4999 0.4362 0.6964
H11 H 0.4037 0.3702 0.7340
C11 C 0.5515(5) 0.2903(6) 0.7647(3)
H12 H 0.5649 0.3483 0.8047
H13 H 0.6187 0.2745 0.7431
H14 H 0.5227 0.2080 0.7804
C12 C 0.6911(4) 0.3645(4) 0.4438(3)
C13 C 0.5961(4) 0.3379(4) 0.4814(2)
C14 C 0.5816(4) 0.4166(4) 0.5478(2)
H15 H 0.6050 0.3589 0.5878
C15 C 0.6534(4) 0.5402(4) 0.5558(2)
H16 H 0.6256 0.6051 0.5204
C16 C 0.7659(4) 0.5040(4) 0.5401(3)
H17 H 0.7973 0.4453 0.5777
C17 C 0.7712(4) 0.4383(4) 0.4702(3)
H18 H 0.8326 0.4500 0.4447
C18 C 0.9353(4) 0.6068(5) 0.5484(3)
C19 C 0.9916(4) 0.7345(5) 0.5483(3)
H19 H 1.0691 0.7207 0.5553
H20 H 0.9679 0.7886 0.5861
H21 H 0.9748 0.7778 0.5035
C20 C 0.6480(4) 0.5998(5) 0.6282(2)
H22 H 0.6808 0.5377 0.6628
H23 H 0.5716 0.6082 0.6374
C21 C 0.7015(4) 0.7319(4) 0.6422(2)
H24 H 0.7796 0.7198 0.6520
H25 H 0.6899 0.7869 0.6001
C22 C 0.6558(5) 0.7990(5) 0.7037(3)
H26 H 0.6910 0.8830 0.7115
H27 H 0.6684 0.7453 0.7455
H28 H 0.5787 0.8120 0.6937
I3 I -0.27767(3) 0.80838(3) -0.096425(18)
I4 I 0.19303(3) 0.50152(3) -0.156891(17)
O7 O -0.2817(3) 0.5027(3) 0.11780(17)
O8 O -0.3227(4) 0.6065(4) 0.2150(2)
O9 O -0.0350(3) 0.7223(3) -0.06096(17)
O10 O 0.3302(3) 0.8389(3) 0.04407(18)
O11 O 0.4828(3) 0.7261(3) 0.0496(2)
O12 O 0.0451(3) 0.4580(3) -0.03314(18)
C23 C -0.2010(4) 0.7170(4) -0.0088(2)
C24 C -0.2544(4) 0.6770(4) 0.0434(2)
H29 H -0.3288 0.6958 0.0425
C25 C -0.2034(4) 0.6026(4) 0.1045(3)
H30 H -0.1927 0.6609 0.1459
C26 C -0.0968(4) 0.5398(4) 0.0897(2)
H31 H -0.1109 0.4709 0.0536
C27 C -0.0299(4) 0.6490(4) 0.0581(2)
H32 H -0.0321 0.7235 0.0912
C28 C -0.0836(4) 0.6976(4) -0.0111(2)
C29 C -0.3395(4) 0.5217(6) 0.1725(3)
C30 C -0.4266(5) 0.4228(7) 0.1737(3)
H33 H -0.4686 0.4385 0.2139
H34 H -0.3949 0.3361 0.1773
H35 H -0.4734 0.4290 0.1306
C31 C -0.0376(4) 0.4793(4) 0.1539(3)
H36 H -0.0176 0.5500 0.1871
H37 H 0.0300 0.4418 0.1393
C32 C -0.0943(4) 0.3746(4) 0.1937(2)
H38 H -0.1268 0.3102 0.1603
H39 H -0.1525 0.4143 0.2186
C33 C -0.0150(5) 0.3070(5) 0.2461(3)
H40 H -0.0525 0.2404 0.2712
H41 H 0.0164 0.3706 0.2795
H42 H 0.0420 0.2666 0.2213
C34 C 0.1941(4) 0.5854(4) -0.0579(3)
C35 C 0.1037(4) 0.5480(4) -0.0169(2)
C36 C 0.0891(3) 0.6221(4) 0.0510(2)
H43 H 0.1126 0.5621 0.0900
C37 C 0.1588(4) 0.7464(4) 0.0621(2)
H44 H 0.1261 0.8171 0.0320
C38 C 0.2702(4) 0.7184(4) 0.0401(2)
H45 H 0.3059 0.6554 0.0737
C39 C 0.2706(4) 0.6630(4) -0.0324(2)
H46 H 0.3275 0.6846 -0.0604
C40 C 0.4369(4) 0.8283(5) 0.0490(3)
C41 C 0.4893(5) 0.9582(5) 0.0528(3)
H47 H 0.5673 0.9474 0.0565
H48 H 0.4675 1.0049 0.0937
H49 H 0.4676 1.0075 0.0105
C42 C 0.1603(4) 0.7889(4) 0.1395(3)
H50 H 0.0929 0.7594 0.1583
H51 H 0.2201 0.7436 0.1660
C43 C 0.1723(4) 0.9345(5) 0.1533(3)
H52 H 0.2458 0.9621 0.1443
H53 H 0.1213 0.9825 0.1210
C44 C 0.1510(5) 0.9667(6) 0.2282(3)
H54 H 0.1598 1.0600 0.2360
H55 H 0.2018 0.9196 0.2602
H56 H 0.0777 0.9413 0.2368
loop_
_geom_bond_atom_site_label_1
_geom_bond_atom_site_label_2
_geom_bond_site_symmetry_1
_geom_bond_site_symmetry_2
I1 C1 1_555 1_555
O1 C3 1_555 1_555
C1 C2 1_555 1_555
I2 C12 1_555 1_555
O2 C7 1_555 1_555
C2 H1 1_555 1_555
O3 C6 1_555 1_555
C3 C2 1_555 1_555
H2 C3 1_555 1_555
O4 C16 1_555 1_555
C4 C3 1_555 1_555
H3 C4 1_555 1_555
O5 C18 1_555 1_555
C5 C4 1_555 1_555
H4 C5 1_555 1_555
O6 C13 1_555 1_555
C6 C1 1_555 1_555
C7 O1 1_555 1_555
C8 C7 1_555 1_555
H5 C8 1_555 1_555
H6 C8 1_555 1_555
H7 C8 1_555 1_555
C9 C4 1_555 1_555
H8 C9 1_555 1_555
H9 C9 1_555 1_555
C10 C9 1_555 1_555
H10 C10 1_555 1_555
H11 C10 1_555 1_555
C11 C10 1_555 1_555
H12 C11 1_555 1_555
H13 C11 1_555 1_555
H14 C11 1_555 1_555
C12 C13 1_555 1_555
C13 C14 1_555 1_555
C14 C5 1_555 1_555
H15 C14 1_555 1_555
C15 C14 1_555 1_555
H16 C15 1_555 1_555
C16 C15 1_555 1_555
H17 C16 1_555 1_555
C17 C12 1_555 1_555
H18 C17 1_555 1_555
C18 O4 1_555 1_555
C19 C18 1_555 1_555
H19 C19 1_555 1_555
H20 C19 1_555 1_555
H21 C19 1_555 1_555
C20 C15 1_555 1_555
H22 C20 1_555 1_555
H23 C20 1_555 1_555
C21 C20 1_555 1_555
H24 C21 1_555 1_555
H25 C21 1_555 1_555
C22 C21 1_555 1_555
H26 C22 1_555 1_555
H27 C22 1_555 1_555
H28 C22 1_555 1_555
I3 C23 1_555 1_555
I4 C34 1_555 1_555
O7 C25 1_555 1_555
O8 C29 1_555 1_555
O9 C28 1_555 1_555
O10 C38 1_555 1_555
O11 C40 1_555 1_555
O12 C35 1_555 1_555
C23 C24 1_555 1_555
C24 H29 1_555 1_555
C25 C24 1_555 1_555
H30 C25 1_555 1_555
C26 C25 1_555 1_555
H31 C26 1_555 1_555
C27 C26 1_555 1_555
H32 C27 1_555 1_555
C28 C23 1_555 1_555
C29 O7 1_555 1_555
C30 C29 1_555 1_555
H33 C30 1_555 1_555
H34 C30 1_555 1_555
H35 C30 1_555 1_555
C31 C26 1_555 1_555
H36 C31 1_555 1_555
H37 C31 1_555 1_555
C32 C31 1_555 1_555
H38 C32 1_555 1_555
H39 C32 1_555 1_555
C33 C32 1_555 1_555
H40 C33 1_555 1_555
H41 C33 1_555 1_555
H42 C33 1_555 1_555
C34 C35 1_555 1_555
C35 C36 1_555 1_555
C36 C27 1_555 1_555
H43 C36 1_555 1_555
C37 C36 1_555 1_555
H44 C37 1_555 1_555
C38 C37 1_555 1_555
H45 C38 1_555 1_555
C39 C34 1_555 1_555
H46 C39 1_555 1_555
C40 O10 1_555 1_555
C41 C40 1_555 1_555
H47 C41 1_555 1_555
H48 C41 1_555 1_555
H49 C41 1_555 1_555
C42 C37 1_555 1_555
H50 C42 1_555 1_555
H51 C42 1_555 1_555
C43 C42 1_555 1_555
H52 C43 1_555 1_555
H53 C43 1_555 1_555
C44 C43 1_555 1_555
H54 C44 1_555 1_555
H55 C44 1_555 1_555
H56 C44 1_555 1_555
C5 C6 1_555 1_555
C16 C17 1_555 1_555
C27 C28 1_555 1_555
C38 C39 1_555 1_555

#END
