
#######################################################################
#
#                 Cambridge Crystallographic Data Centre
#                                CCDC 
#
#######################################################################
#
# If this CIF has been generated from an entry in the Cambridge 
# Structural Database, then it will include bibliographic, chemical, 
# crystal, experimental, refinement or atomic coordinate data resulting 
# from the CCDC's data processing and validation procedures.
#
#######################################################################

data_BOBPUE
_chemical_formula_moiety         'C67 H18 Br2 O7,1.5(C7 H8)'
_chemical_name_systematic        
'1,6-bis(t-Butylperoxo)-dibromo-2,5,9-trioxo-(open cage)-C59fullerene toluene solvate'
_symmetry_cell_setting           monoclinic
_symmetry_space_group_name_H-M   'P 21/c'
_symmetry_Int_Tables_number      14
_space_group_name_Hall           '-P 2ybc'
loop_
_symmetry_equiv_pos_site_id
_symmetry_equiv_pos_as_xyz
1 x,y,z
2 -x,1/2+y,1/2-z
3 -x,-y,-z
4 x,1/2-y,1/2+z
_cell_length_a                   11.11390(10)
_cell_length_b                   19.6406(3)
_cell_length_c                   25.1105(5)
_cell_angle_alpha                90
_cell_angle_beta                 115.4780(10)
_cell_angle_gamma                90
_cell_volume                     4948.17
_exptl_crystal_colour            red
_exptl_crystal_description       plate
_cell_formula_units_Z            4
_exptl_crystal_recrystallization_method 
'dichloroethane/carbon disulfide/methanol'
loop_
_atom_site_label
_atom_site_type_symbol
_atom_site_fract_x
_atom_site_fract_y
_atom_site_fract_z
Br1 Br 0.47860(3) 0.393643(16) 0.364070(14)
Br2 Br 0.29507(3) 0.501072(16) 0.195287(15)
O1 O 0.3514(2) 0.24278(10) 0.25731(9)
O2 O 0.1250(2) 0.18512(10) 0.16131(10)
O3 O 0.2290(2) 0.30998(10) 0.14595(9)
O4 O 0.3159(2) 0.17308(9) 0.34349(9)
O5 O 0.4364(2) 0.21082(10) 0.38435(9)
O6 O 0.0026(2) 0.35307(10) 0.05219(8)
O7 O 0.0857(2) 0.41278(10) 0.05230(9)
C1 C 0.2804(3) 0.26830(14) 0.27626(12)
C2 C 0.2264(3) 0.22713(14) 0.31445(12)
C3 C 0.0876(3) 0.19431(13) 0.28352(13)
C4 C 0.0077(3) 0.18412(13) 0.22476(14)
C5 C 0.0323(3) 0.20106(14) 0.17076(13)
C6 C -0.0907(3) 0.24123(14) 0.13235(12)
C7 C -0.1027(3) 0.30434(14) 0.10703(12)
C8 C 0.0063(3) 0.35497(14) 0.10961(13)
C9 C 0.1513(3) 0.34255(14) 0.15712(13)
C10 C 0.1911(3) 0.37676(13) 0.21658(12)
C11 C 0.2468(3) 0.34448(13) 0.26865(12)
C12 C 0.2816(3) 0.38061(14) 0.32645(12)
C13 C 0.2346(3) 0.34069(14) 0.36583(12)
C14 C 0.2042(3) 0.27348(14) 0.35825(12)
C15 C 0.0961(3) 0.24813(14) 0.36917(13)
C16 C 0.0237(3) 0.19977(13) 0.32280(13)
C17 C -0.1129(3) 0.19375(14) 0.30353(14)
C18 C -0.1955(3) 0.18453(14) 0.24156(14)
C19 C -0.1349(3) 0.18271(13) 0.20384(13)
C20 C -0.1952(3) 0.21768(14) 0.14747(13)
C21 C -0.3128(3) 0.25288(15) 0.13278(13)
C22 C -0.3272(3) 0.31816(15) 0.10456(13)
C23 C -0.2231(3) 0.34321(15) 0.09377(13)
C24 C -0.1906(3) 0.41459(14) 0.10262(12)
C25 C -0.0506(3) 0.42146(14) 0.12147(12)
C26 C 0.0192(3) 0.46601(14) 0.16559(13)
C27 C 0.1575(3) 0.45215(13) 0.21249(13)
C28 C 0.1534(3) 0.48060(13) 0.26693(13)
C29 C 0.2096(3) 0.44755(13) 0.31978(13)
C30 C 0.1503(3) 0.45098(14) 0.36005(13)
C31 C 0.1643(3) 0.38569(15) 0.38788(12)
C32 C 0.0648(3) 0.36055(15) 0.40223(13)
C33 C 0.0288(3) 0.28966(16) 0.39174(13)
C34 C -0.1136(3) 0.28447(16) 0.37049(14)
C35 C -0.1842(3) 0.23713(15) 0.32702(15)
C36 C -0.3096(3) 0.25514(16) 0.27905(15)
C37 C -0.3175(3) 0.22266(15) 0.22616(15)
C38 C -0.3756(3) 0.25632(15) 0.17262(14)
C39 C -0.4295(3) 0.32365(16) 0.16903(15)
C40 C -0.3999(3) 0.36206(16) 0.12615(14)
C41 C -0.3670(3) 0.43065(16) 0.13620(14)
C42 C -0.2598(3) 0.45756(15) 0.12363(14)
C43 C -0.1881(3) 0.50672(13) 0.16816(14)
C44 C -0.0498(3) 0.50960(13) 0.18925(14)
C45 C 0.0331(3) 0.51820(13) 0.25140(14)
C46 C -0.0248(3) 0.52390(14) 0.29048(14)
C47 C 0.0352(3) 0.48923(14) 0.34665(14)
C48 C -0.0699(3) 0.46282(15) 0.36003(14)
C49 C -0.0558(3) 0.39946(16) 0.38693(13)
C50 C -0.1665(3) 0.35252(17) 0.36710(14)
C51 C -0.2870(3) 0.37021(18) 0.32107(16)
C52 C -0.3611(3) 0.32058(17) 0.27573(15)
C53 C -0.4222(3) 0.35563(16) 0.21974(16)
C54 C -0.3856(3) 0.42689(17) 0.23000(16)
C55 C -0.3595(3) 0.46336(15) 0.18902(15)
C56 C -0.2477(3) 0.51097(14) 0.20877(15)
C57 C -0.1686(3) 0.51948(15) 0.26897(16)
C58 C -0.1959(3) 0.48103(16) 0.31192(15)
C59 C -0.3030(3) 0.43558(17) 0.29262(16)
C60 C 0.5444(3) 0.16210(15) 0.41011(13)
C61 C 0.6582(3) 0.20994(17) 0.44660(14)
H1 H 0.6389 0.2315 0.4773
H2 H 0.6674 0.2451 0.4209
H3 H 0.7413 0.1840 0.4651
C62 C 0.5112(3) 0.11209(17) 0.44789(15)
H4 H 0.4958 0.1370 0.4782
H5 H 0.5857 0.0804 0.4669
H6 H 0.4308 0.0866 0.4230
C63 C 0.5698(3) 0.12731(17) 0.36198(16)
H7 H 0.4950 0.0970 0.3393
H8 H 0.6521 0.1006 0.3799
H9 H 0.5786 0.1618 0.3356
C64 C 0.1302(3) 0.40201(15) 0.00647(13)
C65 C 0.2159(4) 0.46484(17) 0.01438(16)
H10 H 0.1603 0.5057 0.0067
H11 H 0.2566 0.4631 -0.0133
H12 H 0.2860 0.4663 0.0549
C66 C 0.0097(4) 0.40039(17) -0.05327(14)
H13 H -0.0409 0.4428 -0.0590
H14 H -0.0472 0.3617 -0.0547
H15 H 0.0397 0.3957 -0.0845
C67 C 0.2126(4) 0.33745(17) 0.01776(15)
H16 H 0.2893 0.3404 0.0564
H17 H 0.2439 0.3321 -0.0130
H18 H 0.1576 0.2982 0.0172
C68 C 0.4115(5) 0.3874(2) 0.6725(2)
H19 H 0.3416 0.3556 0.6705
H20 H 0.3820 0.4342 0.6733
H21 H 0.4931 0.3785 0.7083
C69 C 0.4384(4) 0.37784(19) 0.61978(19)
C70 C 0.3695(4) 0.32893(18) 0.5773(2)
H22 H 0.3046 0.3015 0.5822
C71 C 0.3930(5) 0.3197(2) 0.5293(2)
H23 H 0.3457 0.2854 0.5015
C72 C 0.4858(6) 0.3599(3) 0.5201(2)
H24 H 0.5023 0.3539 0.4863
C73 C 0.5530(5) 0.4090(3) 0.5622(3)
H25 H 0.6156 0.4376 0.5567
C74 C 0.5306(4) 0.41707(19) 0.6120(2)
H26 H 0.5797 0.4501 0.6409
C75? C -0.1400(17) 0.4033(8) 0.5165(6)
H27? H -0.2335 0.4174 0.5010
H28? H -0.1060 0.3939 0.5589
H29? H -0.1332 0.3620 0.4960
C76? C -0.062(3) 0.4576(14) 0.5072(9)
C77? C 0.075(3) 0.4483(13) 0.5260(10)
H30? H 0.1158 0.4073 0.5453
C78? C 0.150(3) 0.4990(14) 0.5164(12)
H31? H 0.2434 0.4927 0.5293
C79? C 0.090(3) 0.5590(14) 0.4881(13)
H32? H 0.1418 0.5936 0.4816
C80? C -0.046(3) 0.5682(14) 0.4693(11)
H33? H -0.0875 0.6092 0.4499
C81? C -0.122(3) 0.5175(14) 0.4788(10)
H34? H -0.2151 0.5239 0.4660
loop_
_geom_bond_atom_site_label_1
_geom_bond_atom_site_label_2
_geom_bond_site_symmetry_1
_geom_bond_site_symmetry_2
Br1 C12 1_555 1_555
Br2 C27 1_555 1_555
O1 C1 1_555 1_555
O2 C5 1_555 1_555
O3 C9 1_555 1_555
O4 O5 1_555 1_555
O5 C60 1_555 1_555
O6 O7 1_555 1_555
O7 C64 1_555 1_555
C1 C2 1_555 1_555
C2 O4 1_555 1_555
C3 C2 1_555 1_555
C4 C3 1_555 1_555
C5 C4 1_555 1_555
C6 C5 1_555 1_555
C7 C6 1_555 1_555
C8 O6 1_555 1_555
C9 C8 1_555 1_555
C10 C9 1_555 1_555
C11 C1 1_555 1_555
C12 C11 1_555 1_555
C13 C12 1_555 1_555
C14 C2 1_555 1_555
C15 C14 1_555 1_555
C16 C3 1_555 1_555
C17 C16 1_555 1_555
C18 C17 1_555 1_555
C19 C4 1_555 1_555
C20 C6 1_555 1_555
C21 C20 1_555 1_555
C22 C21 1_555 1_555
C23 C7 1_555 1_555
C24 C23 1_555 1_555
C25 C8 1_555 1_555
C26 C25 1_555 1_555
C27 C10 1_555 1_555
C28 C27 1_555 1_555
C29 C12 1_555 1_555
C30 C29 1_555 1_555
C31 C13 1_555 1_555
C32 C31 1_555 1_555
C33 C15 1_555 1_555
C34 C33 1_555 1_555
C35 C17 1_555 1_555
C36 C35 1_555 1_555
C37 C18 1_555 1_555
C38 C21 1_555 1_555
C39 C38 1_555 1_555
C40 C22 1_555 1_555
C41 C40 1_555 1_555
C42 C24 1_555 1_555
C43 C42 1_555 1_555
C44 C26 1_555 1_555
C45 C28 1_555 1_555
C46 C45 1_555 1_555
C47 C30 1_555 1_555
C48 C47 1_555 1_555
C49 C32 1_555 1_555
C50 C34 1_555 1_555
C51 C50 1_555 1_555
C52 C36 1_555 1_555
C53 C39 1_555 1_555
C54 C53 1_555 1_555
C55 C41 1_555 1_555
C56 C43 1_555 1_555
C57 C46 1_555 1_555
C58 C48 1_555 1_555
C59 C51 1_555 1_555
C60 C61 1_555 1_555
C61 H1 1_555 1_555
H2 C61 1_555 1_555
H3 C61 1_555 1_555
C62 C60 1_555 1_555
H4 C62 1_555 1_555
H5 C62 1_555 1_555
H6 C62 1_555 1_555
C63 C60 1_555 1_555
H7 C63 1_555 1_555
H8 C63 1_555 1_555
H9 C63 1_555 1_555
C64 C65 1_555 1_555
C65 H10 1_555 1_555
H11 C65 1_555 1_555
H12 C65 1_555 1_555
C66 C64 1_555 1_555
H13 C66 1_555 1_555
H14 C66 1_555 1_555
H15 C66 1_555 1_555
C67 C64 1_555 1_555
H16 C67 1_555 1_555
H17 C67 1_555 1_555
H18 C67 1_555 1_555
C68 H19 1_555 1_555
H20 C68 1_555 1_555
H21 C68 1_555 1_555
C69 C68 1_555 1_555
C70 C69 1_555 1_555
H22 C70 1_555 1_555
C71 C70 1_555 1_555
H23 C71 1_555 1_555
C72 C71 1_555 1_555
H24 C72 1_555 1_555
C73 C72 1_555 1_555
H25 C73 1_555 1_555
C74 C69 1_555 1_555
H26 C74 1_555 1_555
C7 C8 1_555 1_555
C10 C11 1_555 1_555
C13 C14 1_555 1_555
C15 C16 1_555 1_555
C18 C19 1_555 1_555
C19 C20 1_555 1_555
C22 C23 1_555 1_555
C24 C25 1_555 1_555
C26 C27 1_555 1_555
C28 C29 1_555 1_555
C30 C31 1_555 1_555
C32 C33 1_555 1_555
C34 C35 1_555 1_555
C36 C37 1_555 1_555
C37 C38 1_555 1_555
C39 C40 1_555 1_555
C41 C42 1_555 1_555
C43 C44 1_555 1_555
C44 C45 1_555 1_555
C46 C47 1_555 1_555
C48 C49 1_555 1_555
C49 C50 1_555 1_555
C51 C52 1_555 1_555
C52 C53 1_555 1_555
C54 C55 1_555 1_555
C54 C59 1_555 1_555
C55 C56 1_555 1_555
C56 C57 1_555 1_555
C57 C58 1_555 1_555
C58 C59 1_555 1_555
C73 C74 1_555 1_555

#END
