
#######################################################################
#
#                 Cambridge Crystallographic Data Centre
#                                CCDC 
#
#######################################################################
#
# If this CIF has been generated from an entry in the Cambridge 
# Structural Database, then it will include bibliographic, chemical, 
# crystal, experimental, refinement or atomic coordinate data resulting 
# from the CCDC's data processing and validation procedures.
#
#######################################################################

data_BOBQOA
_chemical_formula_moiety         'C8 H8 O3'
_chemical_name_systematic        'hydroxy(phenyl)acetic acid'
_symmetry_cell_setting           monoclinic
_symmetry_space_group_name_H-M   'P 21'
_symmetry_Int_Tables_number      4
_space_group_name_Hall           'P 2yb'
loop_
_symmetry_equiv_pos_site_id
_symmetry_equiv_pos_as_xyz
1 x,y,z
2 -x,1/2+y,-z
_cell_length_a                   8.377(4)
_cell_length_b                   5.859(2)
_cell_length_c                   15.047(5)
_cell_angle_alpha                90
_cell_angle_beta                 103.08(2)
_cell_angle_gamma                90
_cell_volume                     719.359
_exptl_crystal_colour            colorless
_exptl_crystal_description       plate
_cell_formula_units_Z            4
loop_
_atom_site_label
_atom_site_type_symbol
_atom_site_fract_x
_atom_site_fract_y
_atom_site_fract_z
O1 O 0.31054(18) 0.1725(2) 0.63749(9)
H1 H 0.336(3) 0.062(5) 0.6154(18)
O2 O 0.45699(15) 0.3382(2) 0.54732(8)
O3 O 0.40284(17) 0.7576(2) 0.60319(9)
H2 H 0.441(3) 0.718(6) 0.5569(18)
C1 C 0.3737(2) 0.3475(3) 0.60311(11)
C2 C 0.3279(2) 0.5739(3) 0.64057(13)
H3 H 0.2063 0.5927 0.6215
C3 C 0.3777(2) 0.5841(3) 0.74383(12)
C4 C 0.2760(2) 0.6874(4) 0.79308(12)
H4 H 0.1727 0.7463 0.7620
C5 C 0.3239(2) 0.7051(4) 0.88716(12)
H5 H 0.2538 0.7768 0.9203
C6 C 0.4738(3) 0.6184(3) 0.93307(13)
H6 H 0.5063 0.6294 0.9976
C7 C 0.5763(2) 0.5157(4) 0.88436(12)
H7 H 0.6793 0.4562 0.9156
C8 C 0.5289(2) 0.4998(4) 0.79039(13)
H8 H 0.6001 0.4307 0.7573
O4 O 0.18609(19) 0.1594(2) 0.36131(10)
H9 H 0.158(3) 0.049(6) 0.3824(17)
O5 O 0.04295(15) 0.3282(2) 0.45234(9)
O6 O 0.12212(18) 0.7436(2) 0.40823(9)
H10 H 0.065(3) 0.693(5) 0.4440(17)
C9 C 0.1287(2) 0.3348(3) 0.39754(11)
C10 C 0.1830(2) 0.5618(3) 0.36380(12)
H11 H 0.3055 0.5680 0.3809
C11 C 0.1291(2) 0.5832(3) 0.26061(13)
C12 C 0.2286(2) 0.4962(4) 0.20581(12)
H12 H 0.3305 0.4271 0.2331
C13 C 0.1793(2) 0.5103(4) 0.11155(12)
H13 H 0.2469 0.4492 0.0745
C14 C 0.0318(3) 0.6132(3) 0.07136(14)
H14 H -0.0015 0.6234 0.0068
C15 C -0.0669(2) 0.7012(4) 0.12536(13)
H15 H -0.1678 0.7723 0.0977
C16 C -0.0191(2) 0.6861(4) 0.21973(12)
H16 H -0.0877 0.7461 0.2565
loop_
_geom_bond_atom_site_label_1
_geom_bond_atom_site_label_2
_geom_bond_site_symmetry_1
_geom_bond_site_symmetry_2
O1 H1 1_555 1_555
O2 C1 1_555 1_555
O3 H2 1_555 1_555
C1 O1 1_555 1_555
C2 O3 1_555 1_555
H3 C2 1_555 1_555
C3 C2 1_555 1_555
C4 C3 1_555 1_555
H4 C4 1_555 1_555
C5 C4 1_555 1_555
H5 C5 1_555 1_555
C6 C5 1_555 1_555
H6 C6 1_555 1_555
C7 C6 1_555 1_555
H7 C7 1_555 1_555
C8 C3 1_555 1_555
H8 C8 1_555 1_555
O4 H9 1_555 1_555
O5 C9 1_555 1_555
O6 H10 1_555 1_555
C9 O4 1_555 1_555
C10 O6 1_555 1_555
H11 C10 1_555 1_555
C11 C10 1_555 1_555
C12 C11 1_555 1_555
H12 C12 1_555 1_555
C13 C12 1_555 1_555
H13 C13 1_555 1_555
C14 C13 1_555 1_555
H14 C14 1_555 1_555
C15 C14 1_555 1_555
H15 C15 1_555 1_555
C16 C11 1_555 1_555
H16 C16 1_555 1_555
C1 C2 1_555 1_555
C7 C8 1_555 1_555
C9 C10 1_555 1_555
C15 C16 1_555 1_555

#END
