
#######################################################################
#
#                 Cambridge Crystallographic Data Centre
#                                CCDC 
#
#######################################################################
#
# If this CIF has been generated from an entry in the Cambridge 
# Structural Database, then it will include bibliographic, chemical, 
# crystal, experimental, refinement or atomic coordinate data resulting 
# from the CCDC's data processing and validation procedures.
#
#######################################################################

data_BOBQAL
_chemical_formula_moiety         
'C67 H18 Cl2 O7,1.5(C1 S2),0.5(C2 H4 Cl2),0.25(H2 O1)'
_chemical_name_systematic        
'1,6-bis(t-Butylperoxo)-dichloro-2,5,9-trioxo-(open cage)-C59fullerene carbon disulfide 1,2-dichloroethane solvate hydrate'
_symmetry_cell_setting           triclinic
_symmetry_space_group_name_H-M   'P -1'
_symmetry_Int_Tables_number      2
_space_group_name_Hall           '-P 1'
loop_
_symmetry_equiv_pos_site_id
_symmetry_equiv_pos_as_xyz
1 x,y,z
2 -x,-y,-z
_cell_length_a                   13.6485(2)
_cell_length_b                   19.0886(3)
_cell_length_c                   20.2523(3)
_cell_angle_alpha                93.8951(5)
_cell_angle_beta                 103.8867(6)
_cell_angle_gamma                109.0599(5)
_cell_volume                     4779.38
_exptl_crystal_colour            red
_exptl_crystal_description       block
_cell_formula_units_Z            4
_exptl_crystal_recrystallization_method 'carbon disulfide/ethanol/acetonitrile'
loop_
_atom_site_label
_atom_site_type_symbol
_atom_site_fract_x
_atom_site_fract_y
_atom_site_fract_z
Cl1 Cl 0.24066(8) 0.34840(5) -0.21441(4)
Cl2 Cl -0.01866(7) 0.35053(5) -0.12302(5)
O1 O 0.09996(19) 0.13861(13) -0.21488(12)
O2 O 0.0309(2) 0.03409(12) -0.12882(12)
O3 O -0.06805(19) 0.14040(13) -0.15455(12)
O4 O 0.29690(19) 0.12406(12) -0.19636(11)
O5 O 0.3130(2) 0.17667(13) -0.24691(12)
O6 O -0.14401(18) 0.12973(12) -0.04100(12)
O7 O -0.19411(19) 0.18294(12) -0.07083(13)
C1 C 0.1717(3) 0.17955(18) -0.16671(17)
C2 C 0.2802(3) 0.16530(18) -0.14177(16)
C3 C 0.2922(3) 0.11966(18) -0.08170(17)
C4 C 0.2163(3) 0.07460(17) -0.05445(17)
C5 C 0.0960(3) 0.05806(17) -0.07333(18)
C6 C 0.0766(3) 0.07652(17) -0.00458(17)
C7 C 0.0238(3) 0.12222(17) 0.01304(17)
C8 C -0.0319(3) 0.16829(18) -0.03097(17)
C9 C -0.0093(3) 0.18107(18) -0.10246(18)
C10 C 0.0855(3) 0.25079(18) -0.10254(16)
C11 C 0.1655(3) 0.24991(17) -0.13063(16)
C12 C 0.2594(3) 0.32083(18) -0.12839(16)
C13 C 0.3646(3) 0.30786(18) -0.10613(16)
C14 C 0.3730(3) 0.23875(18) -0.10954(16)
C15 C 0.4527(3) 0.22569(19) -0.05611(18)
C16 C 0.4027(3) 0.15257(18) -0.03895(17)
C17 C 0.4340(3) 0.13920(18) 0.02747(18)
C18 C 0.3531(3) 0.09409(18) 0.05663(18)
C19 C 0.2476(3) 0.06556(17) 0.01687(17)
C20 C 0.1623(3) 0.06666(17) 0.04710(18)
C21 C 0.1874(3) 0.09594(17) 0.11595(18)
C22 C 0.1303(3) 0.14199(18) 0.13512(17)
C23 C 0.0534(3) 0.15623(18) 0.08449(17)
C24 C 0.0459(3) 0.22934(19) 0.08793(18)
C25 C 0.0116(3) 0.24250(18) 0.01865(17)
C26 C 0.0599(3) 0.31146(18) 0.00263(17)
C27 C 0.0833(3) 0.32246(18) -0.06634(17)
C28 C 0.1926(3) 0.38437(17) -0.04516(17)
C29 C 0.2726(3) 0.38345(17) -0.07385(17)
C30 C 0.3830(3) 0.41383(17) -0.03267(17)
C31 C 0.4395(3) 0.36804(18) -0.05231(17)
C32 C 0.5216(3) 0.35673(19) -0.00335(18)
C33 C 0.5275(3) 0.28273(19) -0.00505(18)
C34 C 0.5573(3) 0.26957(19) 0.06496(18)
C35 C 0.5116(3) 0.19900(19) 0.08072(18)
C36 C 0.4779(3) 0.19069(18) 0.14364(17)
C37 C 0.3800(3) 0.12575(18) 0.12864(18)
C38 C 0.2978(3) 0.12653(18) 0.15740(17)
C39 C 0.3097(3) 0.1933(2) 0.20326(17)
C40 C 0.2065(3) 0.20165(19) 0.18990(17)
C41 C 0.2005(3) 0.2736(2) 0.19191(17)
C42 C 0.1189(3) 0.28702(19) 0.14057(18)
C43 C 0.1653(3) 0.36049(19) 0.12343(17)
C44 C 0.1369(3) 0.37099(18) 0.05491(18)
C45 C 0.2189(3) 0.41670(17) 0.02581(17)
C46 C 0.3244(3) 0.44829(17) 0.06590(18)
C47 C 0.4099(3) 0.44727(17) 0.03592(18)
C48 C 0.4940(3) 0.43491(18) 0.08793(18)
C49 C 0.5480(3) 0.38992(19) 0.06832(18)
C50 C 0.5701(3) 0.33602(19) 0.11076(19)
C51 C 0.5373(3) 0.32829(19) 0.17056(17)
C52 C 0.4909(3) 0.2548(2) 0.18717(17)
C53 C 0.4044(3) 0.2556(2) 0.21729(17)
C54 C 0.3984(3) 0.32955(19) 0.21945(17)
C55 C 0.2998(3) 0.33894(19) 0.20695(17)
C56 C 0.2768(3) 0.39275(18) 0.16440(17)
C57 C 0.3553(3) 0.43594(18) 0.13675(17)
C58 C 0.4592(3) 0.42732(18) 0.14943(18)
C59 C 0.4808(3) 0.37493(19) 0.19059(17)
C60 C 0.2959(3) 0.1315(2) -0.31237(18)
C61 C 0.3769(4) 0.0922(2) -0.3044(2)
H1 H 0.4502 0.1295 -0.2877
H2 H 0.3683 0.0641 -0.3491
H3 H 0.3649 0.0574 -0.2713
C62 C 0.1812(3) 0.0765(2) -0.3382(2)
H4 H 0.1311 0.1040 -0.3433
H5 H 0.1670 0.0419 -0.3052
H6 H 0.1712 0.0480 -0.3829
C63 C 0.3177(4) 0.1931(2) -0.3568(2)
H7 H 0.3926 0.2275 -0.3388
H8 H 0.2689 0.2209 -0.3559
H9 H 0.3055 0.1704 -0.4044
C64 C -0.3067(3) 0.1412(2) -0.10530(18)
C65 C -0.3421(3) 0.2036(2) -0.1331(2)
H10 H -0.3042 0.2231 -0.1671
H11 H -0.3250 0.2442 -0.0951
H12 H -0.4201 0.1839 -0.1550
C66 C -0.3631(3) 0.1095(2) -0.0522(2)
H13 H -0.3533 0.1504 -0.0165
H14 H -0.3322 0.0739 -0.0311
H15 H -0.4403 0.0835 -0.0746
C67 C -0.3188(3) 0.0801(2) -0.16288(19)
H16 H -0.2815 0.1031 -0.1960
H17 H -0.3955 0.0537 -0.1864
H18 H -0.2871 0.0443 -0.1431
Cl3 Cl 0.41295(7) 0.27922(5) 0.38742(4)
Cl4 Cl 0.48449(7) 0.09709(5) 0.29074(4)
O8 O 0.6711(2) 0.38762(13) 0.34256(13)
O9 O 0.8845(2) 0.39681(13) 0.35829(13)
O10 O 0.7186(2) 0.26828(13) 0.27910(12)
O11 O 0.71841(19) 0.49074(12) 0.45707(12)
O12 O 0.6009(2) 0.47675(13) 0.43402(13)
O13 O 0.84199(19) 0.17975(13) 0.29184(11)
O14 O 0.74316(19) 0.12169(13) 0.24486(12)
C68 C 0.6718(3) 0.36472(19) 0.39583(18)
C69 C 0.7217(3) 0.41836(18) 0.46646(17)
C70 C 0.8404(3) 0.43254(17) 0.50622(17)
C71 C 0.9195(3) 0.41646(17) 0.48348(17)
C72 C 0.9141(3) 0.37966(18) 0.41351(19)
C73 C 0.9579(3) 0.31812(19) 0.43034(18)
C74 C 0.9143(3) 0.24334(19) 0.40498(17)
C75 C 0.8078(3) 0.19805(19) 0.34950(17)
C76 C 0.7226(3) 0.23640(18) 0.32817(17)
C77 C 0.6393(3) 0.22554(18) 0.36847(16)
C78 C 0.6171(3) 0.28119(18) 0.39827(16)
C79 C 0.5342(3) 0.26719(18) 0.43936(17)
C80 C 0.5804(3) 0.32066(18) 0.50797(17)
C81 C 0.6659(3) 0.38546(18) 0.51998(17)
C82 C 0.7409(3) 0.40902(18) 0.58732(18)
C83 C 0.8477(3) 0.43776(17) 0.57817(18)
C84 C 0.9331(3) 0.42942(18) 0.62579(18)
C85 C 1.0139(3) 0.41093(18) 0.60217(18)
C86 C 1.0033(3) 0.40234(18) 0.53219(18)
C87 C 1.0279(3) 0.34249(19) 0.50070(18)
C88 C 1.0600(3) 0.2936(2) 0.53964(18)
C89 C 1.0169(3) 0.2148(2) 0.51166(19)
C90 C 0.9446(3) 0.19128(19) 0.44695(18)
C91 C 0.8523(3) 0.12174(19) 0.43433(18)
C92 C 0.7646(3) 0.13062(17) 0.38413(17)
C93 C 0.6646(3) 0.10502(17) 0.39274(17)
C94 C 0.5830(3) 0.14337(17) 0.37361(16)
C95 C 0.5320(3) 0.13454(18) 0.43218(17)
C96 C 0.5098(3) 0.19154(19) 0.46293(17)
C97 C 0.5179(3) 0.19914(19) 0.53468(17)
C98 C 0.5621(3) 0.2785(2) 0.56254(18)
C99 C 0.6307(3) 0.3038(2) 0.62939(17)
C100 C 0.7229(3) 0.37032(19) 0.64165(17)
C101 C 0.8120(3) 0.36015(19) 0.68979(17)
C102 C 0.9145(3) 0.38884(19) 0.68247(17)
C103 C 0.9851(3) 0.3451(2) 0.69277(17)
C104 C 1.0475(3) 0.3593(2) 0.64371(18)
C105 C 1.0693(3) 0.3013(2) 0.61236(18)
C106 C 1.0316(3) 0.2272(2) 0.63037(19)
C107 C 0.9995(3) 0.1729(2) 0.56724(19)
C108 C 0.9102(3) 0.10837(19) 0.55637(19)
C109 C 0.8349(3) 0.08128(19) 0.48752(19)
C110 C 0.7280(3) 0.05149(17) 0.49490(19)
C111 C 0.6443(3) 0.06450(17) 0.44881(18)
C112 C 0.5640(3) 0.08334(18) 0.47249(18)
C113 C 0.5686(3) 0.08893(19) 0.54229(19)
C114 C 0.5450(3) 0.14831(19) 0.57414(18)
C115 C 0.6184(3) 0.1743(2) 0.64301(18)
C116 C 0.6601(3) 0.2507(2) 0.66967(17)
C117 C 0.7730(3) 0.2852(2) 0.70743(17)
C118 C 0.8399(3) 0.2430(2) 0.71674(17)
C119 C 0.9471(3) 0.2734(2) 0.70948(17)
C120 C 0.9711(3) 0.2131(2) 0.67737(18)
C121 C 0.8784(3) 0.1454(2) 0.66517(18)
C122 C 0.7969(3) 0.1639(2) 0.68958(17)
C123 C 0.6883(3) 0.1303(2) 0.65327(18)
C124 C 0.6571(3) 0.07641(19) 0.59099(19)
C125 C 0.7351(3) 0.05859(18) 0.56779(18)
C126 C 0.8483(3) 0.09419(19) 0.60560(19)
C127 C 0.5859(3) 0.5396(2) 0.4008(2)
C128 C 0.6337(4) 0.5476(2) 0.3405(2)
H19 H 0.7125 0.5645 0.3575
H20 H 0.6130 0.5844 0.3145
H21 H 0.6066 0.4990 0.3104
C129 C 0.4636(3) 0.5135(2) 0.3776(2)
H22 H 0.4356 0.5089 0.4179
H23 H 0.4348 0.4646 0.3477
H24 H 0.4414 0.5501 0.3520
C130 C 0.6335(4) 0.6101(2) 0.4527(2)
H25 H 0.6004 0.6027 0.4909
H26 H 0.6197 0.6515 0.4308
H27 H 0.7115 0.6222 0.4705
C131 C 0.7629(3) 0.1142(2) 0.17803(17)
C132 C 0.7847(4) 0.1883(2) 0.1508(2)
H28 H 0.7231 0.2048 0.1478
H29 H 0.7953 0.1818 0.1049
H30 H 0.8498 0.2261 0.1820
C133 C 0.6556(3) 0.0545(2) 0.13745(19)
H31 H 0.6457 0.0082 0.1573
H32 H 0.6555 0.0447 0.0893
H33 H 0.5966 0.0723 0.1396
C134 C 0.8556(3) 0.0856(2) 0.1835(2)
H34 H 0.8384 0.0378 0.2011
H35 H 0.9215 0.1224 0.2150
H36 H 0.8667 0.0782 0.1378
C135 C 0.0940(7) 0.0975(5) 0.3481(3)
H37 H 0.0179 0.0938 0.3399
H38 H 0.1342 0.1481 0.3400
C136 C 0.0962(4) 0.0433(2) 0.2932(2)
H39 H 0.0629 0.0535 0.2475
H40 H 0.0539 -0.0084 0.2977
Cl5 Cl 0.1413(2) 0.09554(13) 0.43448(9)
Cl6 Cl 0.22021(15) 0.05034(10) 0.29894(10)
C137 C 0.3347(4) 0.6082(2) 0.1799(2)
S1 S 0.45346(13) 0.64749(9) 0.20881(8)
S2 S 0.20974(14) 0.56635(10) 0.15061(9)
C138 C 0.1388(5) 0.3762(5) 0.3212(3)
S3 S 0.1845(2) 0.3276(3) 0.36907(13)
S4 S 0.0828(3) 0.41115(19) 0.26799(17)
C139 C -0.1294(15) 0.4327(11) 0.1496(11)
S5 S -0.1797(3) 0.4754(2) 0.2038(2)
S6 S -0.1480(5) 0.3891(4) 0.0575(3)
O15 O 0.0000 0.5000 0.0000
S7? S -0.1751(9) 0.4023(7) 0.1997(5)
loop_
_geom_bond_atom_site_label_1
_geom_bond_atom_site_label_2
_geom_bond_site_symmetry_1
_geom_bond_site_symmetry_2
Cl1 C12 1_555 1_555
Cl2 C27 1_555 1_555
O1 C1 1_555 1_555
O2 C5 1_555 1_555
O3 C9 1_555 1_555
O4 O5 1_555 1_555
O5 C60 1_555 1_555
O6 O7 1_555 1_555
O7 C64 1_555 1_555
C1 C2 1_555 1_555
C2 O4 1_555 1_555
C3 C2 1_555 1_555
C4 C3 1_555 1_555
C5 C4 1_555 1_555
C6 C5 1_555 1_555
C7 C6 1_555 1_555
C8 O6 1_555 1_555
C9 C8 1_555 1_555
C10 C9 1_555 1_555
C11 C1 1_555 1_555
C12 C11 1_555 1_555
C13 C12 1_555 1_555
C14 C2 1_555 1_555
C15 C14 1_555 1_555
C16 C3 1_555 1_555
C17 C16 1_555 1_555
C18 C17 1_555 1_555
C19 C4 1_555 1_555
C20 C6 1_555 1_555
C21 C20 1_555 1_555
C22 C21 1_555 1_555
C23 C7 1_555 1_555
C24 C23 1_555 1_555
C25 C8 1_555 1_555
C26 C25 1_555 1_555
C27 C10 1_555 1_555
C28 C27 1_555 1_555
C29 C12 1_555 1_555
C30 C29 1_555 1_555
C31 C13 1_555 1_555
C32 C31 1_555 1_555
C33 C15 1_555 1_555
C34 C33 1_555 1_555
C35 C17 1_555 1_555
C36 C35 1_555 1_555
C37 C18 1_555 1_555
C38 C21 1_555 1_555
C39 C38 1_555 1_555
C40 C22 1_555 1_555
C41 C40 1_555 1_555
C42 C24 1_555 1_555
C43 C42 1_555 1_555
C44 C26 1_555 1_555
C45 C28 1_555 1_555
C46 C45 1_555 1_555
C47 C30 1_555 1_555
C48 C47 1_555 1_555
C49 C32 1_555 1_555
C50 C34 1_555 1_555
C51 C50 1_555 1_555
C52 C36 1_555 1_555
C53 C39 1_555 1_555
C54 C53 1_555 1_555
C55 C41 1_555 1_555
C56 C43 1_555 1_555
C57 C46 1_555 1_555
C58 C48 1_555 1_555
C59 C51 1_555 1_555
C60 C61 1_555 1_555
C61 H1 1_555 1_555
H2 C61 1_555 1_555
H3 C61 1_555 1_555
C62 C60 1_555 1_555
H4 C62 1_555 1_555
H5 C62 1_555 1_555
H6 C62 1_555 1_555
C63 C60 1_555 1_555
H7 C63 1_555 1_555
H8 C63 1_555 1_555
H9 C63 1_555 1_555
C64 C65 1_555 1_555
C65 H10 1_555 1_555
H11 C65 1_555 1_555
H12 C65 1_555 1_555
C66 C64 1_555 1_555
H13 C66 1_555 1_555
H14 C66 1_555 1_555
H15 C66 1_555 1_555
C67 C64 1_555 1_555
H16 C67 1_555 1_555
H17 C67 1_555 1_555
H18 C67 1_555 1_555
Cl3 C79 1_555 1_555
Cl4 C94 1_555 1_555
O8 C68 1_555 1_555
O9 C72 1_555 1_555
O10 C76 1_555 1_555
O11 O12 1_555 1_555
O12 C127 1_555 1_555
O13 O14 1_555 1_555
O14 C131 1_555 1_555
C68 C69 1_555 1_555
C69 O11 1_555 1_555
C70 C69 1_555 1_555
C71 C70 1_555 1_555
C72 C71 1_555 1_555
C73 C72 1_555 1_555
C74 C73 1_555 1_555
C75 O13 1_555 1_555
C76 C75 1_555 1_555
C77 C76 1_555 1_555
C78 C68 1_555 1_555
C79 C78 1_555 1_555
C80 C79 1_555 1_555
C81 C69 1_555 1_555
C82 C81 1_555 1_555
C83 C70 1_555 1_555
C84 C83 1_555 1_555
C85 C84 1_555 1_555
C86 C71 1_555 1_555
C87 C73 1_555 1_555
C88 C87 1_555 1_555
C89 C88 1_555 1_555
C90 C74 1_555 1_555
C91 C90 1_555 1_555
C92 C75 1_555 1_555
C93 C92 1_555 1_555
C94 C77 1_555 1_555
C95 C94 1_555 1_555
C96 C79 1_555 1_555
C97 C96 1_555 1_555
C98 C80 1_555 1_555
C99 C98 1_555 1_555
C100 C82 1_555 1_555
C101 C100 1_555 1_555
C102 C84 1_555 1_555
C103 C102 1_555 1_555
C104 C85 1_555 1_555
C105 C88 1_555 1_555
C106 C105 1_555 1_555
C107 C89 1_555 1_555
C108 C107 1_555 1_555
C109 C91 1_555 1_555
C110 C109 1_555 1_555
C111 C93 1_555 1_555
C112 C95 1_555 1_555
C113 C112 1_555 1_555
C114 C97 1_555 1_555
C115 C114 1_555 1_555
C116 C99 1_555 1_555
C117 C101 1_555 1_555
C118 C117 1_555 1_555
C119 C103 1_555 1_555
C120 C106 1_555 1_555
C121 C120 1_555 1_555
C122 C118 1_555 1_555
C123 C115 1_555 1_555
C124 C113 1_555 1_555
C125 C110 1_555 1_555
C126 C108 1_555 1_555
C127 C128 1_555 1_555
C128 H19 1_555 1_555
H20 C128 1_555 1_555
H21 C128 1_555 1_555
C129 C127 1_555 1_555
H22 C129 1_555 1_555
H23 C129 1_555 1_555
H24 C129 1_555 1_555
C130 C127 1_555 1_555
H25 C130 1_555 1_555
H26 C130 1_555 1_555
H27 C130 1_555 1_555
C131 C132 1_555 1_555
C132 H28 1_555 1_555
H29 C132 1_555 1_555
H30 C132 1_555 1_555
C133 C131 1_555 1_555
H31 C133 1_555 1_555
H32 C133 1_555 1_555
H33 C133 1_555 1_555
C134 C131 1_555 1_555
H34 C134 1_555 1_555
H35 C134 1_555 1_555
H36 C134 1_555 1_555
C135 H37 1_555 1_555
H38 C135 1_555 1_555
C136 C135 1_555 1_555
H39 C136 1_555 1_555
H40 C136 1_555 1_555
Cl5 C135 1_555 1_555
Cl6 C136 1_555 1_555
C137 S1 1_555 1_555
S2 C137 1_555 1_555
C138 S3 1_555 1_555
S4 C138 1_555 1_555
C139 S5 1_555 1_555
S6 C139 1_555 1_555
C7 C8 1_555 1_555
C10 C11 1_555 1_555
C13 C14 1_555 1_555
C15 C16 1_555 1_555
C18 C19 1_555 1_555
C19 C20 1_555 1_555
C22 C23 1_555 1_555
C24 C25 1_555 1_555
C26 C27 1_555 1_555
C28 C29 1_555 1_555
C30 C31 1_555 1_555
C32 C33 1_555 1_555
C34 C35 1_555 1_555
C36 C37 1_555 1_555
C37 C38 1_555 1_555
C39 C40 1_555 1_555
C41 C42 1_555 1_555
C43 C44 1_555 1_555
C44 C45 1_555 1_555
C46 C47 1_555 1_555
C48 C49 1_555 1_555
C49 C50 1_555 1_555
C51 C52 1_555 1_555
C52 C53 1_555 1_555
C54 C55 1_555 1_555
C54 C59 1_555 1_555
C55 C56 1_555 1_555
C56 C57 1_555 1_555
C57 C58 1_555 1_555
C58 C59 1_555 1_555
C74 C75 1_555 1_555
C77 C78 1_555 1_555
C80 C81 1_555 1_555
C82 C83 1_555 1_555
C85 C86 1_555 1_555
C86 C87 1_555 1_555
C89 C90 1_555 1_555
C91 C92 1_555 1_555
C93 C94 1_555 1_555
C95 C96 1_555 1_555
C97 C98 1_555 1_555
C99 C100 1_555 1_555
C101 C102 1_555 1_555
C103 C104 1_555 1_555
C104 C105 1_555 1_555
C106 C107 1_555 1_555
C108 C109 1_555 1_555
C110 C111 1_555 1_555
C111 C112 1_555 1_555
C113 C114 1_555 1_555
C115 C116 1_555 1_555
C116 C117 1_555 1_555
C118 C119 1_555 1_555
C119 C120 1_555 1_555
C121 C122 1_555 1_555
C121 C126 1_555 1_555
C122 C123 1_555 1_555
C123 C124 1_555 1_555
C124 C125 1_555 1_555
C125 C126 1_555 1_555

#END
