
#######################################################################
#
#                 Cambridge Crystallographic Data Centre
#                                CCDC 
#
#######################################################################
#
# If this CIF has been generated from an entry in the Cambridge 
# Structural Database, then it will include bibliographic, chemical, 
# crystal, experimental, refinement or atomic coordinate data resulting 
# from the CCDC's data processing and validation procedures.
#
#######################################################################

data_BOBQOZ
_chemical_formula_moiety         'C15 H14 O3'
_chemical_name_systematic        
7a-Phenyl-1a,5,6,6a,7,7a-hexahydro-3H-oxireno(g)isochromen-3-one
_symmetry_cell_setting           monoclinic
_symmetry_space_group_name_H-M   'P 21/c'
_symmetry_Int_Tables_number      14
_space_group_name_Hall           '-P 2ybc'
loop_
_symmetry_equiv_pos_site_id
_symmetry_equiv_pos_as_xyz
1 x,y,z
2 -x,1/2+y,1/2-z
3 -x,-y,-z
4 x,1/2-y,1/2+z
_cell_length_a                   7.7112(10)
_cell_length_b                   8.5369(11)
_cell_length_c                   18.596(2)
_cell_angle_alpha                90
_cell_angle_beta                 97.402(3)
_cell_angle_gamma                90
_cell_volume                     1213.97
_exptl_crystal_colour            colorless
_exptl_crystal_description       prismatic
_cell_formula_units_Z            4
loop_
_atom_site_label
_atom_site_type_symbol
_atom_site_fract_x
_atom_site_fract_y
_atom_site_fract_z
O1 O -0.2762(2) 0.62891(18) 0.44898(8)
O2 O -0.0794(2) 0.81281(17) 0.44925(7)
O3 O 0.08895(16) 0.36252(13) 0.27710(6)
C1 C -0.1368(3) 0.6677(2) 0.43197(10)
C2 C 0.0726(3) 0.8732(2) 0.42099(12)
H1 H 0.1162 0.9638 0.4492
H2 H 0.0400 0.9068 0.3713
C3 C 0.2140(2) 0.75330(19) 0.42335(10)
H3 H 0.2458 0.7172 0.4727
H4 H 0.3169 0.7988 0.4066
C4 C 0.1486(2) 0.61677(18) 0.37505(9)
C5 C -0.0243(2) 0.56268(19) 0.39418(8)
C6 C -0.0823(2) 0.4187(2) 0.37840(9)
H5 H -0.1902 0.3881 0.3909
C7 C 0.0210(2) 0.3073(2) 0.34164(9)
C8 C 0.2090(2) 0.33562(17) 0.34180(8)
C9 C 0.2805(2) 0.48316(18) 0.37917(9)
H6 H 0.3818 0.5172 0.3573
H7 H 0.3193 0.4597 0.4297
C10 C 0.3317(2) 0.20189(18) 0.33848(8)
C11 C 0.3114(3) 0.09978(19) 0.28063(9)
H8 H 0.2189 0.1135 0.2438
C12 C 0.4266(3) -0.0226(2) 0.27660(10)
H9 H 0.4118 -0.0901 0.2370
C13 C 0.5623(3) -0.0451(2) 0.33038(11)
H10 H 0.6410 -0.1266 0.3273
C14 C 0.5815(3) 0.0533(2) 0.38901(11)
H11 H 0.6723 0.0374 0.4263
C15 C 0.4670(2) 0.1756(2) 0.39297(10)
H12 H 0.4813 0.2416 0.4331
H13 H 0.131(2) 0.6557(18) 0.3256(9)
H14 H -0.021(2) 0.207(2) 0.3359(10)
loop_
_geom_bond_atom_site_label_1
_geom_bond_atom_site_label_2
_geom_bond_site_symmetry_1
_geom_bond_site_symmetry_2
O1 C1 1_555 1_555
O2 C1 1_555 1_555
O3 C7 1_555 1_555
C1 C5 1_555 1_555
C2 O2 1_555 1_555
H1 C2 1_555 1_555
H2 C2 1_555 1_555
C3 C2 1_555 1_555
H3 C3 1_555 1_555
H4 C3 1_555 1_555
C4 C3 1_555 1_555
C5 C4 1_555 1_555
C6 C5 1_555 1_555
H5 C6 1_555 1_555
C7 C6 1_555 1_555
C8 O3 1_555 1_555
C9 C4 1_555 1_555
H6 C9 1_555 1_555
H7 C9 1_555 1_555
C10 C8 1_555 1_555
C11 C10 1_555 1_555
H8 C11 1_555 1_555
C12 C11 1_555 1_555
H9 C12 1_555 1_555
C13 C12 1_555 1_555
H10 C13 1_555 1_555
C14 C13 1_555 1_555
H11 C14 1_555 1_555
C15 C10 1_555 1_555
H12 C15 1_555 1_555
H13 C4 1_555 1_555
H14 C7 1_555 1_555
C7 C8 1_555 1_555
C8 C9 1_555 1_555
C14 C15 1_555 1_555

#END
