
#######################################################################
#
#                 Cambridge Crystallographic Data Centre
#                                CCDC 
#
#######################################################################
#
# If this CIF has been generated from an entry in the Cambridge 
# Structural Database, then it will include bibliographic, chemical, 
# crystal, experimental, refinement or atomic coordinate data resulting 
# from the CCDC's data processing and validation procedures.
#
#######################################################################

data_BOBTUJ
_chemical_formula_moiety         'C18 H34 B10 Si1'
_chemical_name_systematic        
Z-1,2-(1-[2-(propan-2-yl)phenyl]-1-(trimethylsilyl)but-1-ene-2,4-diyl)-1,2-dicarba-dodecaborane
_symmetry_cell_setting           monoclinic
_symmetry_space_group_name_H-M   'P 21/c'
_symmetry_Int_Tables_number      14
_space_group_name_Hall           '-P 2ybc'
loop_
_symmetry_equiv_pos_site_id
_symmetry_equiv_pos_as_xyz
1 x,y,z
2 -x,1/2+y,1/2-z
3 -x,-y,-z
4 x,1/2-y,1/2+z
_cell_length_a                   13.6375(18)
_cell_length_b                   13.2534(18)
_cell_length_c                   14.506(2)
_cell_angle_alpha                90
_cell_angle_beta                 108.952(3)
_cell_angle_gamma                90
_cell_volume                     2479.73
_exptl_crystal_colour            colorless
_exptl_crystal_description       block
_cell_formula_units_Z            4
loop_
_atom_site_label
_atom_site_type_symbol
_atom_site_fract_x
_atom_site_fract_y
_atom_site_fract_z
Si1 Si 0.89105(8) 0.49068(8) 0.15311(8)
C1 C 0.5786(3) 0.6805(3) 0.1994(3)
C2 C 0.6824(2) 0.6460(2) 0.1736(2)
C3 C 0.5373(4) 0.5881(4) 0.2359(5)
H1 H 0.5432 0.5965 0.3039
H2 H 0.4648 0.5778 0.1986
C4 C 0.6006(3) 0.4993(3) 0.2240(4)
H3 H 0.5577 0.4546 0.1742
H4 H 0.6248 0.4620 0.2847
C5 C 0.6941(2) 0.5340(2) 0.1951(2)
C6 C 0.7717(2) 0.4715(2) 0.1930(2)
C7 C 0.9542(3) 0.3652(3) 0.1569(3)
H5 H 1.0144 0.3725 0.1370
H6 H 0.9062 0.3196 0.1136
H7 H 0.9743 0.3390 0.2221
C8 C 0.8569(8) 0.5332(8) 0.0259(5)
H8 H 0.9189 0.5416 0.0091
H9 H 0.8206 0.5963 0.0184
H10 H 0.8132 0.4837 -0.0163
C9 C 0.9886(5) 0.5743(6) 0.2355(9)
H11 H 1.0465 0.5813 0.2122
H12 H 1.0117 0.5457 0.2998
H13 H 0.9584 0.6393 0.2375
C10 C 0.7606(2) 0.3626(2) 0.2209(2)
C11 C 0.8068(2) 0.3259(2) 0.3153(3)
C12 C 0.7941(3) 0.2231(3) 0.3331(3)
H14 H 0.8237 0.1982 0.3960
C13 C 0.7394(3) 0.1584(3) 0.2606(4)
H15 H 0.7328 0.0907 0.2745
C14 C 0.6947(3) 0.1942(3) 0.1678(4)
H16 H 0.6580 0.1508 0.1182
C15 C 0.7045(3) 0.2956(3) 0.1479(3)
H17 H 0.6732 0.3195 0.0849
C16 C 0.8688(3) 0.3931(3) 0.3994(3)
H18 H 0.8758 0.4593 0.3721
C17 C 0.9781(4) 0.3527(4) 0.4500(3)
H19 H 1.0132 0.3439 0.4029
H20 H 0.9738 0.2889 0.4800
H21 H 1.0159 0.3997 0.4990
C18 C 0.8107(5) 0.4087(4) 0.4741(4)
H22 H 0.7426 0.4347 0.4413
H23 H 0.8484 0.4557 0.5232
H24 H 0.8052 0.3453 0.5040
B1 B 0.5707(4) 0.6749(4) 0.0802(3)
H25 H 0.5248 0.6193 0.0275
B2 B 0.5120(4) 0.7745(4) 0.1255(4)
H26 H 0.4273 0.7836 0.1027
B3 B 0.5919(7) 0.8010(4) 0.2455(4)
H27 H 0.5594 0.8277 0.3013
B4 B 0.6989(6) 0.7169(4) 0.2751(4)
H28 H 0.7363 0.6888 0.3497
B5 B 0.6914(6) 0.7164(4) 0.0789(6)
H29 H 0.7248 0.6882 0.0243
B6 B 0.5841(5) 0.8002(4) 0.0480(4)
H30 H 0.5473 0.8275 -0.0269
B7 B 0.5962(4) 0.8781(4) 0.1502(4)
H31 H 0.5667 0.9560 0.1423
B8 B 0.7121(6) 0.8422(4) 0.2426(7)
H32 H 0.7592 0.8966 0.2959
B9 B 0.7686(4) 0.7412(4) 0.1942(8)
H33 H 0.8527 0.7290 0.2145
B10 B 0.7073(5) 0.8420(4) 0.1222(8)
H34 H 0.7516 0.8983 0.0963
loop_
_geom_bond_atom_site_label_1
_geom_bond_atom_site_label_2
_geom_bond_site_symmetry_1
_geom_bond_site_symmetry_2
Si1 C6 1_555 1_555
C1 C2 1_555 1_555
C2 C5 1_555 1_555
C3 C1 1_555 1_555
H1 C3 1_555 1_555
H2 C3 1_555 1_555
C4 C3 1_555 1_555
H3 C4 1_555 1_555
H4 C4 1_555 1_555
C5 C4 1_555 1_555
C6 C5 1_555 1_555
C7 Si1 1_555 1_555
H5 C7 1_555 1_555
H6 C7 1_555 1_555
H7 C7 1_555 1_555
C8 Si1 1_555 1_555
H8 C8 1_555 1_555
H9 C8 1_555 1_555
H10 C8 1_555 1_555
C9 Si1 1_555 1_555
H11 C9 1_555 1_555
H12 C9 1_555 1_555
H13 C9 1_555 1_555
C10 C6 1_555 1_555
C11 C10 1_555 1_555
C12 C11 1_555 1_555
H14 C12 1_555 1_555
C13 C12 1_555 1_555
H15 C13 1_555 1_555
C14 C13 1_555 1_555
H16 C14 1_555 1_555
C15 C10 1_555 1_555
H17 C15 1_555 1_555
C16 C11 1_555 1_555
H18 C16 1_555 1_555
C17 C16 1_555 1_555
H19 C17 1_555 1_555
H20 C17 1_555 1_555
H21 C17 1_555 1_555
C18 C16 1_555 1_555
H22 C18 1_555 1_555
H23 C18 1_555 1_555
H24 C18 1_555 1_555
B1 C1 1_555 1_555
H25 B1 1_555 1_555
B2 C1 1_555 1_555
H26 B2 1_555 1_555
B3 C1 1_555 1_555
H27 B3 1_555 1_555
B4 C1 1_555 1_555
H28 B4 1_555 1_555
B5 C2 1_555 1_555
H29 B5 1_555 1_555
B6 B1 1_555 1_555
H30 B6 1_555 1_555
B7 B2 1_555 1_555
H31 B7 1_555 1_555
B8 B3 1_555 1_555
H32 B8 1_555 1_555
B9 C2 1_555 1_555
H33 B9 1_555 1_555
B10 B5 1_555 1_555
H34 B10 1_555 1_555
C2 B1 1_555 1_555
C2 B4 1_555 1_555
C14 C15 1_555 1_555
B1 B2 1_555 1_555
B1 B5 1_555 1_555
B2 B3 1_555 1_555
B2 B6 1_555 1_555
B3 B4 1_555 1_555
B3 B7 1_555 1_555
B4 B8 1_555 1_555
B4 B9 1_555 1_555
B5 B6 1_555 1_555
B5 B9 1_555 1_555
B6 B7 1_555 1_555
B6 B10 1_555 1_555
B7 B8 1_555 1_555
B7 B10 1_555 1_555
B8 B9 1_555 1_555
B8 B10 1_555 1_555
B9 B10 1_555 1_555

#END
