
#######################################################################
#
#                 Cambridge Crystallographic Data Centre
#                                CCDC 
#
#######################################################################
#
# If this CIF has been generated from an entry in the Cambridge 
# Structural Database, then it will include bibliographic, chemical, 
# crystal, experimental, refinement or atomic coordinate data resulting 
# from the CCDC's data processing and validation procedures.
#
#######################################################################

data_BOBXUN
_chemical_formula_moiety         'C48 H13 F20 N5 O1,0.5(C1 H2 Cl2),0.25(C6 H14)'
_chemical_name_systematic        
'(Pentafluorophenyl)(12,17,22-tris(pentafluorophenyl)-2,8,26,27,28-pentaazahexacyclo[21.2.1.1^13,16^.1^18,21^.0^2,6^.0^7,11^]octacosa-1(25),3,5,7(11),9,12,14,16,18(27),19,21,23-dodecaen-5-yl)methanone dichloromethane n-hexane solvate'
_symmetry_cell_setting           triclinic
_symmetry_space_group_name_H-M   'P -1'
_symmetry_Int_Tables_number      2
_space_group_name_Hall           '-P 1'
loop_
_symmetry_equiv_pos_site_id
_symmetry_equiv_pos_as_xyz
1 x,y,z
2 -x,-y,-z
_cell_length_a                   8.7430(5)
_cell_length_b                   15.4709(9)
_cell_length_c                   17.2257(10)
_cell_angle_alpha                94.615(2)
_cell_angle_beta                 101.716(2)
_cell_angle_gamma                96.813(2)
_cell_volume                     2252.2
_cell_formula_units_Z            2
loop_
_atom_site_label
_atom_site_type_symbol
_atom_site_fract_x
_atom_site_fract_y
_atom_site_fract_z
F1 F 0.0820(2) 0.66674(14) 0.72828(14)
F2 F -0.1687(3) 0.56083(19) 0.63949(17)
F3 F -0.1260(3) 0.41550(18) 0.55139(15)
F4 F 0.1687(4) 0.37899(17) 0.55113(15)
F5 F 0.4206(3) 0.48551(16) 0.63853(14)
F6 F 0.6863(3) 0.95777(15) 0.56271(12)
F7 F 0.7574(3) 0.99832(15) 0.42428(12)
F8 F 0.9646(3) 0.91198(16) 0.36128(12)
F9 F 1.1025(3) 0.78651(18) 0.43909(14)
F10 F 1.0342(3) 0.74664(14) 0.57766(12)
F11 F 1.2567(2) 0.94131(13) 1.26288(11)
F12 F 1.4239(3) 0.87299(16) 1.38674(11)
F13 F 1.3935(3) 0.69779(16) 1.39112(12)
F14 F 1.1951(3) 0.59054(14) 1.27265(13)
F15 F 1.0320(2) 0.65690(12) 1.14710(11)
F16 F 0.7132(2) 0.61954(12) 1.06946(10)
F17 F 0.7486(3) 0.60802(14) 1.22522(12)
F18 F 0.7026(3) 0.74349(17) 1.32433(12)
F19 F 0.6245(3) 0.89358(15) 1.26417(12)
F20 F 0.5871(2) 0.90669(12) 1.10905(11)
N1 N 0.5391(3) 0.71865(16) 0.85772(13)
H3 H 0.5925 0.7593 0.8391
N2 N 0.6222(3) 0.74339(18) 0.71112(15)
N3 N 0.9215(3) 0.81741(16) 0.79305(13)
H4 H 0.8409 0.7852 0.8018
N4 N 1.0821(3) 0.82564(15) 0.92584(13)
N5 N 0.8517(3) 0.95973(15) 0.92641(14)
H5 H 0.9327 0.9887 0.9148
O1 O 0.9620(2) 0.89438(14) 1.14606(12)
C2 C 0.5503(3) 0.71127(18) 0.93814(16)
C3 C 0.4441(3) 0.63267(19) 0.94104(17)
H6 H 0.4288 0.6088 0.9872
C4 C 0.3719(3) 0.60015(19) 0.86673(17)
H7 H 0.2951 0.5513 0.8529
C5 C 0.4322(3) 0.65304(19) 0.81127(17)
C6 C 0.3961(4) 0.6432(2) 0.72938(18)
C7 C 0.2595(4) 0.5799(2) 0.68589(17)
C8 C 0.1062(4) 0.5958(2) 0.68551(19)
C9 C -0.0237(4) 0.5423(3) 0.6402(2)
C10 C -0.0017(5) 0.4690(3) 0.5955(2)
C11 C 0.1482(5) 0.4504(2) 0.5949(2)
C12 C 0.2760(4) 0.5057(2) 0.6397(2)
C13 C 0.4836(4) 0.6931(2) 0.68176(18)
C14 C 0.4388(5) 0.6942(3) 0.5967(2)
H8 H 0.3473 0.6648 0.5630
C15 C 0.5539(5) 0.7458(3) 0.57522(19)
H9 H 0.5566 0.7592 0.5238
C16 C 0.6722(4) 0.7765(2) 0.64584(17)
C17 C 0.8170(4) 0.8249(2) 0.65096(17)
C18 C 0.8582(4) 0.8510(2) 0.57490(17)
C19 C 0.7893(4) 0.9142(2) 0.53396(18)
C20 C 0.8242(4) 0.9356(2) 0.46206(19)
C21 C 0.9299(4) 0.8926(2) 0.43110(18)
C22 C 1.0004(4) 0.8296(2) 0.4701(2)
C23 C 0.9650(4) 0.8090(2) 0.54174(18)
C24 C 0.9357(4) 0.8481(2) 0.72140(17)
C25 C 1.0830(4) 0.8977(2) 0.73263(19)
H10 H 1.1235 0.9260 0.6941
C26 C 1.1592(4) 0.8974(2) 0.81140(19)
H11 H 1.2594 0.9254 0.8359
C27 C 1.0550(3) 0.84662(19) 0.84638(16)
C28 C 1.2107(3) 0.7875(2) 0.95970(18)
H12 H 1.2876 0.7705 0.9339
C29 C 1.2063(3) 0.77892(19) 1.03658(17)
H13 H 1.2779 0.7540 1.0726
C30 C 1.0714(3) 0.81524(18) 1.05245(16)
C31 C 1.0454(3) 0.84012(18) 1.13180(16)
C32 C 1.1402(3) 0.8009(2) 1.20061(17)
C33 C 1.2403(4) 0.8550(2) 1.26383(18)
C34 C 1.3269(4) 0.8203(2) 1.32725(17)
C35 C 1.3126(4) 0.7310(2) 1.32985(18)
C36 C 1.2114(4) 0.6764(2) 1.26892(19)
C37 C 1.1295(4) 0.7120(2) 1.20540(17)
C38 C 0.9948(3) 0.84272(17) 0.98194(16)
C39 C 0.8528(3) 0.88390(17) 0.96250(15)
C40 C 0.6998(3) 0.85723(18) 0.96993(16)
C41 C 0.6078(3) 0.9205(2) 0.93803(19)
H14 H 0.5004 0.9201 0.9355
C42 C 0.7041(3) 0.9823(2) 0.91166(19)
H15 H 0.6738 1.0312 0.8878
C43 C 0.6348(3) 0.77403(18) 0.99603(16)
C44 C 0.6481(3) 0.76374(19) 1.08152(16)
C45 C 0.6873(4) 0.68857(19) 1.11490(17)
C46 C 0.7060(4) 0.6817(2) 1.19547(19)
C47 C 0.6860(4) 0.7506(2) 1.24611(19)
C48 C 0.6463(4) 0.8256(2) 1.21590(19)
C49 C 0.6280(3) 0.8322(2) 1.13495(18)
Cl1 Cl 0.3124(3) 0.54134(17) 0.1145(2)
Cl2 Cl 0.0536(7) 0.4059(4) 0.1144(4)
C1 C 0.2391(15) 0.4466(8) 0.1486(8)
H1 H 0.3026 0.4018 0.1372
H2 H 0.2558 0.4573 0.2062
H16? H -0.0698 0.4891 0.0660
H17? H -0.0421 0.4113 0.0090
H18? H 0.2007 0.5261 0.1109
H19? H 0.2279 0.4473 0.0540
H20? H 0.0217 0.3905 0.1505
H21? H 0.1878 0.4300 0.2025
H22? H 0.1720 0.3495 0.1387
C50? C 0.0005(14) 0.4703(6) 0.0331(7)
C51? C 0.1562(15) 0.4679(7) 0.0852(8)
C52? C 0.1320(17) 0.4030(7) 0.1508(6)
loop_
_geom_bond_atom_site_label_1
_geom_bond_atom_site_label_2
_geom_bond_site_symmetry_1
_geom_bond_site_symmetry_2
Cl1 C1 1_555 1_555
Cl2 C1 1_555 1_555
C1 H1 1_555 1_555
H2 C1 1_555 1_555
F1 C8 1_555 1_555
F2 C9 1_555 1_555
F3 C10 1_555 1_555
F4 C11 1_555 1_555
F5 C12 1_555 1_555
F6 C19 1_555 1_555
F7 C20 1_555 1_555
F8 C21 1_555 1_555
F9 C22 1_555 1_555
F10 C23 1_555 1_555
F11 C33 1_555 1_555
F12 C34 1_555 1_555
F13 C35 1_555 1_555
F14 C36 1_555 1_555
F15 C37 1_555 1_555
F16 C45 1_555 1_555
F17 C46 1_555 1_555
F18 C47 1_555 1_555
F19 C48 1_555 1_555
F20 C49 1_555 1_555
N1 H3 1_555 1_555
N2 C13 1_555 1_555
N3 H4 1_555 1_555
N4 C27 1_555 1_555
N5 H5 1_555 1_555
O1 C31 1_555 1_555
C2 N1 1_555 1_555
C3 C2 1_555 1_555
H6 C3 1_555 1_555
C4 C3 1_555 1_555
H7 C4 1_555 1_555
C5 N1 1_555 1_555
C6 C5 1_555 1_555
C7 C6 1_555 1_555
C8 C7 1_555 1_555
C9 C8 1_555 1_555
C10 C9 1_555 1_555
C11 C10 1_555 1_555
C12 C7 1_555 1_555
C13 C6 1_555 1_555
C14 C13 1_555 1_555
H8 C14 1_555 1_555
C15 C14 1_555 1_555
H9 C15 1_555 1_555
C16 N2 1_555 1_555
C17 C16 1_555 1_555
C18 C17 1_555 1_555
C19 C18 1_555 1_555
C20 C19 1_555 1_555
C21 C20 1_555 1_555
C22 C21 1_555 1_555
C23 C18 1_555 1_555
C24 N3 1_555 1_555
C25 C24 1_555 1_555
H10 C25 1_555 1_555
C26 C25 1_555 1_555
H11 C26 1_555 1_555
C27 N3 1_555 1_555
C28 N4 1_555 1_555
H12 C28 1_555 1_555
C29 C28 1_555 1_555
H13 C29 1_555 1_555
C30 C29 1_555 1_555
C31 C30 1_555 1_555
C32 C31 1_555 1_555
C33 C32 1_555 1_555
C34 C33 1_555 1_555
C35 C34 1_555 1_555
C36 C35 1_555 1_555
C37 C32 1_555 1_555
C38 N4 1_555 1_555
C39 N5 1_555 1_555
C40 C39 1_555 1_555
C41 C40 1_555 1_555
H14 C41 1_555 1_555
C42 N5 1_555 1_555
H15 C42 1_555 1_555
C43 C2 1_555 1_555
C44 C43 1_555 1_555
C45 C44 1_555 1_555
C46 C45 1_555 1_555
C47 C46 1_555 1_555
C48 C47 1_555 1_555
C49 C44 1_555 1_555
C4 C5 1_555 1_555
C11 C12 1_555 1_555
C15 C16 1_555 1_555
C17 C24 1_555 1_555
C22 C23 1_555 1_555
C26 C27 1_555 1_555
C30 C38 1_555 1_555
C36 C37 1_555 1_555
C38 C39 1_555 1_555
C40 C43 1_555 1_555
C41 C42 1_555 1_555
C48 C49 1_555 1_555

#END
