
#######################################################################
#
#                 Cambridge Crystallographic Data Centre
#                                CCDC 
#
#######################################################################
#
# If this CIF has been generated from an entry in the Cambridge 
# Structural Database, then it will include bibliographic, chemical, 
# crystal, experimental, refinement or atomic coordinate data resulting 
# from the CCDC's data processing and validation procedures.
#
#######################################################################

data_BOBYIC
_chemical_formula_moiety         'C48 H15 F20 N5,2.5(C2 H6 O1 S1)'
_chemical_name_systematic        
'2,7,12,23-tetrakis(Pentafluorophenyl)-16,19,27,28,29-pentaazahexacyclo[22.2.1.1^3,6^.1^8,11^.0^13,17^.0^18,22^]nonacosa-1,3(29),4,6,8,10,13(17),14,18(22),20,23,25-dodecaene dimethyl sulfoxide solvate'
_symmetry_cell_setting           triclinic
_symmetry_space_group_name_H-M   'P -1'
_symmetry_Int_Tables_number      2
_space_group_name_Hall           '-P 1'
loop_
_symmetry_equiv_pos_site_id
_symmetry_equiv_pos_as_xyz
1 x,y,z
2 -x,-y,-z
_cell_length_a                   12.6242(11)
_cell_length_b                   13.2594(12)
_cell_length_c                   17.3455(15)
_cell_angle_alpha                82.796(2)
_cell_angle_beta                 80.9420(10)
_cell_angle_gamma                68.5830(10)
_cell_volume                     2661.96
_cell_formula_units_Z            2
loop_
_atom_site_label
_atom_site_type_symbol
_atom_site_fract_x
_atom_site_fract_y
_atom_site_fract_z
F1 F 0.5068(4) 0.7287(4) 0.8476(3)
F2 F 0.3614(5) 0.8044(5) 0.9731(4)
F3 F 0.4272(5) 0.8935(4) 1.0830(3)
F4 F 0.6452(5) 0.8924(4) 1.0676(3)
F5 F 0.7941(5) 0.8061(3) 0.9451(2)
F6 F 0.8605(4) 0.3078(3) 1.0079(2)
F7 F 0.9960(4) 0.1398(4) 1.0898(3)
F8 F 1.1667(4) -0.0206(4) 1.0159(3)
F9 F 1.1970(4) -0.0130(4) 0.8575(3)
F10 F 1.0562(4) 0.1534(3) 0.7736(3)
F11 F 0.4226(4) 0.3621(4) 0.8396(3)
F12 F 0.2436(4) 0.3027(4) 0.8351(3)
F13 F 0.1672(4) 0.3045(4) 0.6981(4)
F14 F 0.2762(4) 0.3639(4) 0.5632(3)
F15 F 0.4619(4) 0.4138(3) 0.5643(2)
F16 F 0.7668(4) 0.8224(3) 0.4795(2)
F17 F 0.7045(5) 1.0378(3) 0.4511(3)
F18 F 0.5518(5) 1.1711(3) 0.5547(3)
F19 F 0.4580(6) 1.0866(3) 0.6856(3)
F20 F 0.5165(4) 0.8725(3) 0.7137(3)
N1 N 0.9870(5) 0.6165(4) 0.6450(3)
H1 H 1.0471 0.6188 0.6610
N2 N 0.8771(5) 0.8779(4) 0.6718(3)
H2 H 0.9174 0.8850 0.6280
N3 N 0.7977(5) 0.5293(4) 0.8234(3)
H3 H 0.7378 0.5319 0.8044
N4 N 0.7203(5) 0.3941(4) 0.7633(3)
N5 N 0.6385(5) 0.5583(4) 0.6589(3)
H4 H 0.7054 0.5190 0.6715
C1 C 0.9827(7) 0.5354(5) 0.6061(4)
H5 H 1.0447 0.4732 0.5929
C2 C 0.8756(6) 0.5587(5) 0.5896(4)
H6 H 0.8504 0.5164 0.5631
C3 C 0.8081(6) 0.6598(5) 0.6201(4)
C4 C 0.8799(6) 0.6935(5) 0.6542(4)
C5 C 0.8509(6) 0.7875(5) 0.6999(4)
C6 C 0.7842(6) 0.8092(5) 0.7708(4)
C7 C 0.7693(6) 0.9161(5) 0.7855(4)
H7 H 0.7268 0.9531 0.8288
C8 C 0.8288(7) 0.9545(6) 0.7246(4)
H8 H 0.8356 1.0226 0.7196
C9 C 0.7345(6) 0.7281(5) 0.8165(4)
H9 H 0.6861 0.7167 0.7819
C10 C 0.8207(6) 0.6176(5) 0.8342(4)
C11 C 0.9216(6) 0.5826(5) 0.8652(4)
H10 H 0.9582 0.6263 0.8786
C12 C 0.9606(6) 0.4682(6) 0.8735(4)
H11 H 1.0276 0.4229 0.8935
C13 C 0.8808(6) 0.4349(5) 0.8463(4)
C14 C 0.8755(6) 0.3300(5) 0.8434(4)
C15 C 0.7949(6) 0.3113(5) 0.8069(4)
C16 C 0.7648(6) 0.2172(5) 0.8120(4)
H12 H 0.8033 0.1500 0.8365
C17 C 0.6718(6) 0.2417(5) 0.7760(4)
H13 H 0.6326 0.1959 0.7714
C18 C 0.6435(6) 0.3570(5) 0.7445(4)
C19 C 0.5492(6) 0.4230(5) 0.7036(4)
C20 C 0.5491(6) 0.5233(5) 0.6670(4)
C21 C 0.4556(6) 0.6131(5) 0.6366(4)
H14 H 0.3831 0.6127 0.6326
C22 C 0.4923(6) 0.6971(6) 0.6151(4)
H15 H 0.4482 0.7654 0.5951
C23 C 0.6095(6) 0.6652(5) 0.6280(4)
C24 C 0.6858(6) 0.7183(5) 0.6159(3)
C25 C 0.6544(7) 0.7701(5) 0.8899(4)
C26 C 0.5421(8) 0.7724(6) 0.9012(5)
C27 C 0.4676(9) 0.8083(8) 0.9646(6)
C28 C 0.5011(11) 0.8518(7) 1.0200(6)
C29 C 0.6109(10) 0.8500(6) 1.0132(5)
C30 C 0.6866(8) 0.8091(6) 0.9495(5)
C31 C 0.9552(6) 0.2376(5) 0.8869(4)
C32 C 0.9436(7) 0.2303(5) 0.9687(4)
C33 C 1.0137(7) 0.1437(6) 1.0103(5)
C34 C 1.0971(7) 0.0648(6) 0.9743(5)
C35 C 1.1141(7) 0.0672(6) 0.8944(5)
C36 C 1.0408(7) 0.1545(6) 0.8527(4)
C37 C 0.4499(6) 0.3891(5) 0.7023(4)
C38 C 0.3908(6) 0.3602(6) 0.7698(5)
C39 C 0.2955(7) 0.3323(6) 0.7677(6)
C40 C 0.2597(7) 0.3331(7) 0.6981(7)
C41 C 0.3133(7) 0.3613(6) 0.6310(6)
C42 C 0.4079(6) 0.3891(5) 0.6333(5)
C43 C 0.6445(6) 0.8390(5) 0.5975(4)
C44 C 0.6891(7) 0.8860(5) 0.5327(4)
C45 C 0.6605(7) 0.9963(6) 0.5175(5)
C46 C 0.5821(8) 1.0629(6) 0.5683(5)
C47 C 0.5335(8) 1.0204(6) 0.6345(5)
C48 C 0.5651(7) 0.9098(6) 0.6470(4)
O1 O 0.1803(5) 0.6376(5) 0.6967(3)
S1 S 0.1473(2) 0.7155(2) 0.75964(16)
C49 C 0.2625(9) 0.6702(10) 0.8180(5)
H16 H 0.2656 0.6022 0.8460
H17 H 0.2506 0.7231 0.8546
H18 H 0.3334 0.6609 0.7848
C50 C 0.1724(10) 0.8342(8) 0.7148(6)
H19 H 0.2513 0.8153 0.6930
H20 H 0.1552 0.8858 0.7533
H21 H 0.1242 0.8655 0.6740
O2 O 0.949(4) 0.122(4) 0.459(2)
S2 S 0.8907(9) 0.1528(6) 0.5373(4)
C51 C 0.997(3) 0.162(3) 0.5905(17)
H22 H 1.0711 0.1141 0.5703
H23 H 0.9807 0.1412 0.6448
H24 H 0.9958 0.2352 0.5848
C52 C 0.7888(18) 0.2533(18) 0.5679(15)
H25 H 0.7211 0.2348 0.5810
H26 H 0.7759 0.3121 0.5279
H27 H 0.8066 0.2750 0.6136
O3? O 0.985(5) 0.154(5) 0.476(3)
S3? S 0.9243(13) 0.2616(9) 0.5167(7)
C53? C 0.926(3) 0.247(2) 0.6109(14)
H28? H 0.8644 0.3068 0.6345
H29? H 0.9976 0.2468 0.6228
H30? H 0.9156 0.1803 0.6312
C54? C 0.781(2) 0.315(2) 0.5073(15)
H31? H 0.7511 0.2575 0.5106
H32? H 0.7696 0.3559 0.4576
H33? H 0.7413 0.3622 0.5486
S4? S 0.6086(10) 0.5121(8) -0.0012(6)
O4? O 0.565(2) 0.468(2) -0.0576(15)
C55? C 0.470(4) 0.611(4) 0.033(2)
H34? H 0.4851 0.6191 0.0843
H35? H 0.4519 0.5462 0.0349
H36? H 0.4055 0.6729 0.0184
C56? C 0.600(5) 0.422(4) 0.085(3)
H37? H 0.6356 0.4365 0.1255
H38? H 0.6391 0.3476 0.0726
H39? H 0.5212 0.4327 0.1040
loop_
_geom_bond_atom_site_label_1
_geom_bond_atom_site_label_2
_geom_bond_site_symmetry_1
_geom_bond_site_symmetry_2
F1 C26 1_555 1_555
F2 C27 1_555 1_555
F3 C28 1_555 1_555
F4 C29 1_555 1_555
F5 C30 1_555 1_555
F6 C32 1_555 1_555
F7 C33 1_555 1_555
F8 C34 1_555 1_555
F9 C35 1_555 1_555
F10 C36 1_555 1_555
F11 C38 1_555 1_555
F12 C39 1_555 1_555
F13 C40 1_555 1_555
F14 C41 1_555 1_555
F15 C42 1_555 1_555
F16 C44 1_555 1_555
F17 C45 1_555 1_555
F18 C46 1_555 1_555
F19 C47 1_555 1_555
F20 C48 1_555 1_555
N1 H1 1_555 1_555
N2 H2 1_555 1_555
N3 H3 1_555 1_555
N4 C15 1_555 1_555
N5 H4 1_555 1_555
C1 N1 1_555 1_555
H5 C1 1_555 1_555
C2 C1 1_555 1_555
H6 C2 1_555 1_555
C3 C2 1_555 1_555
C4 N1 1_555 1_555
C5 N2 1_555 1_555
C6 C5 1_555 1_555
C7 C6 1_555 1_555
H7 C7 1_555 1_555
C8 N2 1_555 1_555
H8 C8 1_555 1_555
C9 C6 1_555 1_555
H9 C9 1_555 1_555
C10 N3 1_555 1_555
C11 C10 1_555 1_555
H10 C11 1_555 1_555
C12 C11 1_555 1_555
H11 C12 1_555 1_555
C13 N3 1_555 1_555
C14 C13 1_555 1_555
C15 C14 1_555 1_555
C16 C15 1_555 1_555
H12 C16 1_555 1_555
C17 C16 1_555 1_555
H13 C17 1_555 1_555
C18 N4 1_555 1_555
C19 C18 1_555 1_555
C20 N5 1_555 1_555
C21 C20 1_555 1_555
H14 C21 1_555 1_555
C22 C21 1_555 1_555
H15 C22 1_555 1_555
C23 N5 1_555 1_555
C24 C3 1_555 1_555
C25 C9 1_555 1_555
C26 C25 1_555 1_555
C27 C26 1_555 1_555
C28 C27 1_555 1_555
C29 C28 1_555 1_555
C30 C25 1_555 1_555
C31 C14 1_555 1_555
C32 C31 1_555 1_555
C33 C32 1_555 1_555
C34 C33 1_555 1_555
C35 C34 1_555 1_555
C36 C31 1_555 1_555
C37 C19 1_555 1_555
C38 C37 1_555 1_555
C39 C38 1_555 1_555
C40 C39 1_555 1_555
C41 C40 1_555 1_555
C42 C37 1_555 1_555
C43 C24 1_555 1_555
C44 C43 1_555 1_555
C45 C44 1_555 1_555
C46 C45 1_555 1_555
C47 C46 1_555 1_555
C48 C43 1_555 1_555
O1 S1 1_555 1_555
S1 C49 1_555 1_555
C49 H16 1_555 1_555
H17 C49 1_555 1_555
H18 C49 1_555 1_555
C50 S1 1_555 1_555
H19 C50 1_555 1_555
H20 C50 1_555 1_555
H21 C50 1_555 1_555
O2 S2 1_555 1_555
S2 C51 1_555 1_555
C51 H22 1_555 1_555
H23 C51 1_555 1_555
H24 C51 1_555 1_555
C52 S2 1_555 1_555
H25 C52 1_555 1_555
H26 C52 1_555 1_555
H27 C52 1_555 1_555
C3 C4 1_555 1_555
C4 C5 1_555 1_555
C7 C8 1_555 1_555
C9 C10 1_555 1_555
C12 C13 1_555 1_555
C17 C18 1_555 1_555
C19 C20 1_555 1_555
C22 C23 1_555 1_555
C23 C24 1_555 1_555
C29 C30 1_555 1_555
C35 C36 1_555 1_555
C41 C42 1_555 1_555
C47 C48 1_555 1_555

#END
