
#######################################################################
#
#                 Cambridge Crystallographic Data Centre
#                                CCDC 
#
#######################################################################
#
# If this CIF has been generated from an entry in the Cambridge 
# Structural Database, then it will include bibliographic, chemical, 
# crystal, experimental, refinement or atomic coordinate data resulting 
# from the CCDC's data processing and validation procedures.
#
#######################################################################

data_BOBZAV
_chemical_name_common            '(+-)-Leuconolam chloroform solvate'
_chemical_formula_moiety         'C19 H22 N2 O3,C1 H1 Cl3'
_chemical_name_systematic        
'3a-Ethyl-14a-hydroxy-2,3,3a,4,5,14a-hexahydroindolizino[8,1-ef][1]benzazonine-6,13(1H,7H)-dione chloroform solvate'
_symmetry_cell_setting           monoclinic
_symmetry_space_group_name_H-M   'P 21/n'
_symmetry_Int_Tables_number      14
_space_group_name_Hall           '-P 2yn'
loop_
_symmetry_equiv_pos_site_id
_symmetry_equiv_pos_as_xyz
1 x,y,z
2 1/2-x,1/2+y,1/2-z
3 -x,-y,-z
4 1/2+x,1/2-y,1/2+z
_cell_length_a                   9.3613(3)
_cell_length_b                   12.1715(4)
_cell_length_c                   17.8394(6)
_cell_angle_alpha                90
_cell_angle_beta                 97.558(3)
_cell_angle_gamma                90
_cell_volume                     2014.98
_exptl_crystal_colour            colorless
_exptl_crystal_description       prism
_cell_formula_units_Z            4
loop_
_atom_site_label
_atom_site_type_symbol
_atom_site_fract_x
_atom_site_fract_y
_atom_site_fract_z
O1 O 0.58815(14) 0.48623(10) 0.16861(7)
H1 H 0.528(3) 0.520(2) 0.1388(15)
O2 O 0.68284(14) 0.05263(10) 0.02855(8)
O3 O 0.62068(15) 0.41860(11) -0.07271(7)
N1 N 0.48787(16) 0.08138(12) 0.08778(9)
H2 H 0.437(3) 0.046(2) 0.0518(14)
N2 N 0.68063(16) 0.44026(12) 0.05570(9)
C1 C 0.63662(18) 0.39901(13) 0.12651(10)
C2 C 0.76906(17) 0.34556(13) 0.17587(10)
C3 C 0.81428(17) 0.23770(13) 0.13917(10)
H3 H 0.8079 0.2499 0.0840
H4 H 0.9168 0.2235 0.1582
C4 C 0.72745(18) 0.13287(13) 0.15221(10)
H5 H 0.7963 0.0745 0.1714
H6 H 0.6667 0.1486 0.1924
C5 C 0.63123(18) 0.08854(13) 0.08395(10)
C6 C 0.41312(18) 0.14203(14) 0.13875(10)
C7 C 0.3244(2) 0.08575(15) 0.18213(11)
H7 H 0.3174 0.0080 0.1787
C8 C 0.2458(2) 0.14223(17) 0.23047(11)
H8 H 0.1847 0.1035 0.2598
C9 C 0.2570(2) 0.25569(16) 0.23569(11)
H9 H 0.2030 0.2946 0.2686
C10 C 0.34631(19) 0.31251(15) 0.19336(10)
H10 H 0.3541 0.3901 0.1980
C11 C 0.42560(17) 0.25690(14) 0.14354(10)
C12 C 0.51536(17) 0.31919(13) 0.09575(10)
C13 C 0.50194(19) 0.31819(14) 0.02034(10)
H11 H 0.4359 0.2739 -0.0114
C14 C 0.60515(19) 0.39631(14) -0.00636(10)
C15 C 0.8017(2) 0.51556(15) 0.05608(12)
H12 H 0.7786 0.5868 0.0784
H13 H 0.8215 0.5289 0.0037
C16 C 0.9338(2) 0.46469(15) 0.10260(12)
H14 H 0.9669 0.4005 0.0754
H15 H 1.0130 0.5191 0.1097
C17 C 0.89594(19) 0.42863(14) 0.17932(11)
H16 H 0.8711 0.4946 0.2074
H17 H 0.9823 0.3949 0.2083
C18 C 0.73376(19) 0.32840(14) 0.25698(10)
H18 H 0.7111 0.4008 0.2778
H19 H 0.6459 0.2826 0.2545
C19 C 0.8521(2) 0.27445(18) 0.31201(12)
H20 H 0.8752 0.2022 0.2926
H21 H 0.8186 0.2658 0.3615
H22 H 0.9385 0.3208 0.3173
C20 C -0.04138(19) 0.14476(15) -0.03916(11)
H23 H -0.0977 0.0989 -0.0070
Cl1 Cl -0.00554(5) 0.06528(4) -0.11699(3)
Cl2 Cl -0.14547(6) 0.25992(4) -0.07047(3)
Cl3 Cl 0.12024(5) 0.18533(4) 0.01583(3)
loop_
_geom_bond_atom_site_label_1
_geom_bond_atom_site_label_2
_geom_bond_site_symmetry_1
_geom_bond_site_symmetry_2
O1 H1 1_555 1_555
O2 C5 1_555 1_555
O3 C14 1_555 1_555
N1 H2 1_555 1_555
N2 C1 1_555 1_555
C1 O1 1_555 1_555
C2 C1 1_555 1_555
C3 C2 1_555 1_555
H3 C3 1_555 1_555
H4 C3 1_555 1_555
C4 C3 1_555 1_555
H5 C4 1_555 1_555
H6 C4 1_555 1_555
C5 N1 1_555 1_555
C6 N1 1_555 1_555
C7 C6 1_555 1_555
H7 C7 1_555 1_555
C8 C7 1_555 1_555
H8 C8 1_555 1_555
C9 C8 1_555 1_555
H9 C9 1_555 1_555
C10 C9 1_555 1_555
H10 C10 1_555 1_555
C11 C6 1_555 1_555
C12 C1 1_555 1_555
C13 C12 1_555 1_555
H11 C13 1_555 1_555
C14 N2 1_555 1_555
C15 N2 1_555 1_555
H12 C15 1_555 1_555
H13 C15 1_555 1_555
C16 C15 1_555 1_555
H14 C16 1_555 1_555
H15 C16 1_555 1_555
C17 C2 1_555 1_555
H16 C17 1_555 1_555
H17 C17 1_555 1_555
C18 C2 1_555 1_555
H18 C18 1_555 1_555
H19 C18 1_555 1_555
C19 C18 1_555 1_555
H20 C19 1_555 1_555
H21 C19 1_555 1_555
H22 C19 1_555 1_555
C20 H23 1_555 1_555
Cl1 C20 1_555 1_555
Cl2 C20 1_555 1_555
Cl3 C20 1_555 1_555
C4 C5 1_555 1_555
C10 C11 1_555 1_555
C11 C12 1_555 1_555
C13 C14 1_555 1_555
C16 C17 1_555 1_555

#END
