
#######################################################################
#
#                 Cambridge Crystallographic Data Centre
#                                CCDC 
#
#######################################################################
#
# If this CIF has been generated from an entry in the Cambridge 
# Structural Database, then it will include bibliographic, chemical, 
# crystal, experimental, refinement or atomic coordinate data resulting 
# from the CCDC's data processing and validation procedures.
#
#######################################################################

data_BOCGUX
_chemical_formula_moiety         'C20 H38 B10 Si1'
_chemical_name_systematic        
E-1,2-(1-(2-methylphenyl)-1-(trimethylsilyl)oct-1-ene-2,4-diyl)-1,2-dicarba-dodecaborane
_symmetry_cell_setting           monoclinic
_symmetry_space_group_name_H-M   'P 21/c'
_symmetry_Int_Tables_number      14
_space_group_name_Hall           '-P 2ybc'
loop_
_symmetry_equiv_pos_site_id
_symmetry_equiv_pos_as_xyz
1 x,y,z
2 -x,1/2+y,1/2-z
3 -x,-y,-z
4 x,1/2-y,1/2+z
_cell_length_a                   14.346(2)
_cell_length_b                   10.9147(17)
_cell_length_c                   17.845(3)
_cell_angle_alpha                90
_cell_angle_beta                 113.472(3)
_cell_angle_gamma                90
_cell_volume                     2563
_exptl_crystal_colour            colorless
_exptl_crystal_description       block
_cell_formula_units_Z            4
loop_
_atom_site_label
_atom_site_type_symbol
_atom_site_fract_x
_atom_site_fract_y
_atom_site_fract_z
Si1 Si 0.34907(9) 0.57629(9) 0.27950(6)
C1 C 0.1950(3) 0.1801(3) 0.1151(2)
C2 C 0.2544(3) 0.2975(3) 0.0949(2)
C3 C 0.2032(3) 0.1970(4) 0.2030(2)
H1 H 0.1373 0.2322 0.1996
C4 C 0.2229(4) 0.0824(4) 0.2546(3)
H2 H 0.2586 0.1055 0.3127
H3 H 0.2688 0.0283 0.2403
C5 C 0.1266(5) 0.0094(6) 0.2445(3)
H4 H 0.0766 0.0667 0.2507
H5 H 0.0964 -0.0236 0.1882
C6 C 0.1416(5) -0.0900(5) 0.3005(4)
H6 H 0.1829 -0.0610 0.3566
H7 H 0.1803 -0.1557 0.2873
C7 C 0.0434(5) -0.1422(7) 0.2982(4)
H8 H 0.0581 -0.2091 0.3379
H9 H 0.0031 -0.1737 0.2433
H10 H 0.0051 -0.0779 0.3119
C8 C 0.2841(3) 0.2954(3) 0.2392(2)
H11 H 0.2662 0.3478 0.2767
H12 H 0.3504 0.2563 0.2709
C9 C 0.2921(3) 0.3734(3) 0.1717(2)
C10 C 0.3234(3) 0.4902(3) 0.1803(2)
C11 C 0.4491(3) 0.4968(4) 0.3680(2)
H13 H 0.4611 0.5425 0.4183
H14 H 0.5123 0.4927 0.3592
H15 H 0.4264 0.4137 0.3729
C12 C 0.2289(4) 0.5893(4) 0.2965(3)
H16 H 0.2424 0.6338 0.3474
H17 H 0.2035 0.5071 0.3001
H18 H 0.1779 0.6336 0.2507
C13 C 0.3939(4) 0.7336(4) 0.2694(3)
H19 H 0.4074 0.7797 0.3198
H20 H 0.3415 0.7758 0.2234
H21 H 0.4565 0.7280 0.2598
C14 C 0.3443(3) 0.5603(3) 0.1167(2)
C15 C 0.2782(4) 0.6466(4) 0.0674(3)
C16 C 0.3096(4) 0.7180(4) 0.0145(3)
H22 H 0.2652 0.7779 -0.0202
C17 C 0.4039(5) 0.6997(5) 0.0141(3)
H23 H 0.4240 0.7479 -0.0213
C18 C 0.4700(4) 0.6143(5) 0.0628(3)
H24 H 0.5346 0.6031 0.0607
C19 C 0.4426(4) 0.5449(4) 0.1149(3)
H25 H 0.4887 0.4866 0.1498
C20 C 0.1777(4) 0.6648(4) 0.0671(3)
H26 H 0.1681 0.6086 0.1063
H27 H 0.1260 0.6484 0.0123
H28 H 0.1712 0.7495 0.0825
B1 B 0.3079(4) 0.1522(4) 0.1079(3)
H29 H 0.3795 0.1248 0.1604
B2 B 0.2036(4) 0.0512(4) 0.0661(3)
H30 H 0.2054 -0.0437 0.0905
B3 B 0.0909(4) 0.1393(5) 0.0315(3)
H31 H 0.0189 0.1028 0.0334
B4 B 0.1242(4) 0.2949(5) 0.0506(3)
H32 H 0.0744 0.3614 0.0654
B5 B 0.3103(4) 0.2513(4) 0.0308(3)
H33 H 0.3834 0.2891 0.0319
B6 B 0.2757(4) 0.0944(4) 0.0092(3)
H34 H 0.3257 0.0279 -0.0052
B7 B 0.1409(4) 0.0853(4) -0.0396(3)
H35 H 0.1021 0.0128 -0.0860
B8 B 0.0914(4) 0.2375(5) -0.0485(3)
H36 H 0.0197 0.2654 -0.1007
B9 B 0.1973(4) 0.3390(4) -0.0047(3)
H37 H 0.1964 0.4350 -0.0272
B10 B 0.2059(4) 0.2102(4) -0.0610(3)
H38 H 0.2094 0.2204 -0.1223
loop_
_geom_bond_atom_site_label_1
_geom_bond_atom_site_label_2
_geom_bond_site_symmetry_1
_geom_bond_site_symmetry_2
Si1 C10 1_555 1_555
C1 C2 1_555 1_555
C2 C9 1_555 1_555
C3 C1 1_555 1_555
H1 C3 1_555 1_555
C4 C3 1_555 1_555
H2 C4 1_555 1_555
H3 C4 1_555 1_555
C5 C4 1_555 1_555
H4 C5 1_555 1_555
H5 C5 1_555 1_555
C6 C5 1_555 1_555
H6 C6 1_555 1_555
H7 C6 1_555 1_555
C7 C6 1_555 1_555
H8 C7 1_555 1_555
H9 C7 1_555 1_555
H10 C7 1_555 1_555
C8 C3 1_555 1_555
H11 C8 1_555 1_555
H12 C8 1_555 1_555
C9 C8 1_555 1_555
C10 C9 1_555 1_555
C11 Si1 1_555 1_555
H13 C11 1_555 1_555
H14 C11 1_555 1_555
H15 C11 1_555 1_555
C12 Si1 1_555 1_555
H16 C12 1_555 1_555
H17 C12 1_555 1_555
H18 C12 1_555 1_555
C13 Si1 1_555 1_555
H19 C13 1_555 1_555
H20 C13 1_555 1_555
H21 C13 1_555 1_555
C14 C10 1_555 1_555
C15 C14 1_555 1_555
C16 C15 1_555 1_555
H22 C16 1_555 1_555
C17 C16 1_555 1_555
H23 C17 1_555 1_555
C18 C17 1_555 1_555
H24 C18 1_555 1_555
C19 C14 1_555 1_555
H25 C19 1_555 1_555
C20 C15 1_555 1_555
H26 C20 1_555 1_555
H27 C20 1_555 1_555
H28 C20 1_555 1_555
B1 C1 1_555 1_555
H29 B1 1_555 1_555
B2 C1 1_555 1_555
H30 B2 1_555 1_555
B3 C1 1_555 1_555
H31 B3 1_555 1_555
B4 C1 1_555 1_555
H32 B4 1_555 1_555
B5 C2 1_555 1_555
H33 B5 1_555 1_555
B6 B1 1_555 1_555
H34 B6 1_555 1_555
B7 B2 1_555 1_555
H35 B7 1_555 1_555
B8 B3 1_555 1_555
H36 B8 1_555 1_555
B9 C2 1_555 1_555
H37 B9 1_555 1_555
B10 B5 1_555 1_555
H38 B10 1_555 1_555
C2 B1 1_555 1_555
C2 B4 1_555 1_555
C18 C19 1_555 1_555
B1 B2 1_555 1_555
B1 B5 1_555 1_555
B2 B3 1_555 1_555
B2 B6 1_555 1_555
B3 B4 1_555 1_555
B3 B7 1_555 1_555
B4 B8 1_555 1_555
B4 B9 1_555 1_555
B5 B6 1_555 1_555
B5 B9 1_555 1_555
B6 B7 1_555 1_555
B6 B10 1_555 1_555
B7 B8 1_555 1_555
B7 B10 1_555 1_555
B8 B9 1_555 1_555
B8 B10 1_555 1_555
B9 B10 1_555 1_555

#END
