
#######################################################################
#
#                 Cambridge Crystallographic Data Centre
#                                CCDC 
#
#######################################################################
#
# If this CIF has been generated from an entry in the Cambridge 
# Structural Database, then it will include bibliographic, chemical, 
# crystal, experimental, refinement or atomic coordinate data resulting 
# from the CCDC's data processing and validation procedures.
#
#######################################################################

data_BOCHEI
_chemical_formula_moiety         'C20 H35 B10 F3 Si1'
_chemical_name_systematic        
Z-1,2-(1-[2-(trifluoromethyl)phenyl]-1-(trimethylsilyl)oct-1-ene-2,4-diyl)-1,2-dicarba-dodecaborane
_symmetry_cell_setting           monoclinic
_symmetry_space_group_name_H-M   'C 2/c'
_symmetry_Int_Tables_number      15
_space_group_name_Hall           '-C 2yn'
loop_
_symmetry_equiv_pos_site_id
_symmetry_equiv_pos_as_xyz
1 x,y,z
2 -x,y,1/2-z
3 1/2+x,1/2+y,z
4 1/2-x,1/2+y,1/2-z
5 -x,-y,-z
6 x,-y,1/2+z
7 1/2-x,1/2-y,-z
8 1/2+x,1/2-y,1/2+z
_cell_length_a                   30.987(4)
_cell_length_b                   7.1481(9)
_cell_length_c                   24.505(3)
_cell_angle_alpha                90
_cell_angle_beta                 98.023(3)
_cell_angle_gamma                90
_cell_volume                     5374.69
_exptl_crystal_colour            colorless
_exptl_crystal_description       block
_cell_formula_units_Z            8
loop_
_atom_site_label
_atom_site_type_symbol
_atom_site_fract_x
_atom_site_fract_y
_atom_site_fract_z
Si1 Si 0.96581(3) 0.06660(14) 0.88291(3)
C1 C 0.84462(10) 0.3992(5) 0.96564(12)
C2 C 0.87787(9) 0.2335(4) 0.94906(11)
C3 C 0.83243(10) 0.5192(5) 0.91433(12)
H1 H 0.8510 0.6308 0.9183
C4 C 0.78528(11) 0.5844(5) 0.90598(14)
H2 H 0.7664 0.4759 0.8998
H3 H 0.7791 0.6451 0.9394
C5 C 0.77463(12) 0.7184(6) 0.85819(15)
H4 H 0.7957 0.8197 0.8625
H5 H 0.7780 0.6530 0.8244
C6 C 0.72972(13) 0.8007(7) 0.8524(2)
H6 H 0.7262 0.8659 0.8862
H7 H 0.7086 0.6997 0.8478
C7 C 0.71968(16) 0.9349(8) 0.8047(2)
H8 H 0.6904 0.9803 0.8034
H9 H 0.7226 0.8714 0.7709
H10 H 0.7396 1.0382 0.8096
C8 C 0.84581(11) 0.4015(5) 0.86657(12)
H11 H 0.8209 0.3312 0.8489
H12 H 0.8558 0.4832 0.8393
C9 C 0.88219(10) 0.2676(4) 0.88930(11)
C10 C 0.91263(10) 0.1986(5) 0.86108(11)
C11 C 0.95945(12) -0.1575(5) 0.91961(14)
H13 H 0.9875 -0.2151 0.9291
H14 H 0.9407 -0.2398 0.8961
H15 H 0.9469 -0.1331 0.9526
C12 C 1.00447(11) 0.2385(6) 0.92086(15)
H16 H 1.0318 0.1781 0.9328
H17 H 0.9925 0.2847 0.9523
H18 H 1.0089 0.3408 0.8969
C13 C 0.98961(13) -0.0015(7) 0.82004(15)
H19 H 1.0163 -0.0685 0.8306
H20 H 0.9954 0.1089 0.7999
H21 H 0.9694 -0.0799 0.7972
C14 C 0.90950(11) 0.2584(5) 0.80140(12)
C15 C 0.93093(13) 0.4195(5) 0.78842(15)
H22 H 0.9451 0.4943 0.8164
C16 C 0.93128(16) 0.4691(7) 0.7334(2)
H23 H 0.9456 0.5774 0.7251
C17 C 0.91101(16) 0.3620(8) 0.69218(18)
H24 H 0.9118 0.3964 0.6557
C18 C 0.88955(13) 0.2044(7) 0.70363(14)
H25 H 0.8755 0.1321 0.6749
C19 C 0.88837(11) 0.1503(6) 0.75772(12)
C20 C 0.86339(14) -0.0191(7) 0.76795(16)
B1 B 0.89936(12) 0.4136(6) 0.99167(14)
H26 H 0.9220 0.5203 0.9801
B2 B 0.85800(13) 0.4688(6) 1.03208(15)
H27 H 0.8538 0.6120 1.0469
B3 B 0.81265(13) 0.3240(6) 1.01239(16)
H28 H 0.7793 0.3735 1.0146
B4 B 0.82481(12) 0.1743(5) 0.95858(16)
H29 H 0.7994 0.1264 0.9256
B5 B 0.91515(12) 0.1794(6) 1.00433(13)
H30 H 0.9485 0.1327 1.0012
B6 B 0.90323(14) 0.3256(6) 1.05856(15)
H31 H 0.9287 0.3739 1.0914
B7 B 0.84970(14) 0.2693(7) 1.07157(16)
H32 H 0.8405 0.2813 1.1132
B8 B 0.82888(14) 0.0876(6) 1.02572(17)
H33 H 0.8060 -0.0183 1.0373
B9 B 0.86973(13) 0.0321(6) 0.98373(15)
H34 H 0.8736 -0.1090 0.9671
B10 B 0.88484(13) 0.0874(6) 1.05424(15)
H35 H 0.8983 -0.0192 1.0843
F1 F 0.85157(13) -0.1192(5) 0.72397(12)
F2 F 0.82681(9) 0.0242(5) 0.78813(14)
F3 F 0.88366(9) -0.1345(4) 0.80505(11)
loop_
_geom_bond_atom_site_label_1
_geom_bond_atom_site_label_2
_geom_bond_site_symmetry_1
_geom_bond_site_symmetry_2
Si1 C10 1_555 1_555
C1 C2 1_555 1_555
C2 C9 1_555 1_555
C3 C1 1_555 1_555
H1 C3 1_555 1_555
C4 C3 1_555 1_555
H2 C4 1_555 1_555
H3 C4 1_555 1_555
C5 C4 1_555 1_555
H4 C5 1_555 1_555
H5 C5 1_555 1_555
C6 C5 1_555 1_555
H6 C6 1_555 1_555
H7 C6 1_555 1_555
C7 C6 1_555 1_555
H8 C7 1_555 1_555
H9 C7 1_555 1_555
H10 C7 1_555 1_555
C8 C3 1_555 1_555
H11 C8 1_555 1_555
H12 C8 1_555 1_555
C9 C8 1_555 1_555
C10 C9 1_555 1_555
C11 Si1 1_555 1_555
H13 C11 1_555 1_555
H14 C11 1_555 1_555
H15 C11 1_555 1_555
C12 Si1 1_555 1_555
H16 C12 1_555 1_555
H17 C12 1_555 1_555
H18 C12 1_555 1_555
C13 Si1 1_555 1_555
H19 C13 1_555 1_555
H20 C13 1_555 1_555
H21 C13 1_555 1_555
C14 C10 1_555 1_555
C15 C14 1_555 1_555
H22 C15 1_555 1_555
C16 C15 1_555 1_555
H23 C16 1_555 1_555
C17 C16 1_555 1_555
H24 C17 1_555 1_555
C18 C17 1_555 1_555
H25 C18 1_555 1_555
C19 C14 1_555 1_555
C20 C19 1_555 1_555
B1 C1 1_555 1_555
H26 B1 1_555 1_555
B2 C1 1_555 1_555
H27 B2 1_555 1_555
B3 C1 1_555 1_555
H28 B3 1_555 1_555
B4 C1 1_555 1_555
H29 B4 1_555 1_555
B5 C2 1_555 1_555
H30 B5 1_555 1_555
B6 B1 1_555 1_555
H31 B6 1_555 1_555
B7 B2 1_555 1_555
H32 B7 1_555 1_555
B8 B3 1_555 1_555
H33 B8 1_555 1_555
B9 C2 1_555 1_555
H34 B9 1_555 1_555
B10 B5 1_555 1_555
H35 B10 1_555 1_555
F1 C20 1_555 1_555
F2 C20 1_555 1_555
F3 C20 1_555 1_555
C2 B1 1_555 1_555
C2 B4 1_555 1_555
C18 C19 1_555 1_555
B1 B2 1_555 1_555
B1 B5 1_555 1_555
B2 B3 1_555 1_555
B2 B6 1_555 1_555
B3 B4 1_555 1_555
B3 B7 1_555 1_555
B4 B8 1_555 1_555
B4 B9 1_555 1_555
B5 B6 1_555 1_555
B5 B9 1_555 1_555
B6 B7 1_555 1_555
B6 B10 1_555 1_555
B7 B8 1_555 1_555
B7 B10 1_555 1_555
B8 B9 1_555 1_555
B8 B10 1_555 1_555
B9 B10 1_555 1_555

#END
