
#######################################################################
#
#                 Cambridge Crystallographic Data Centre
#                                CCDC 
#
#######################################################################
#
# If this CIF has been generated from an entry in the Cambridge 
# Structural Database, then it will include bibliographic, chemical, 
# crystal, experimental, refinement or atomic coordinate data resulting 
# from the CCDC's data processing and validation procedures.
#
#######################################################################

data_BOCHOO
_chemical_compound_source        'Laurencia cf.irieii'
_chemical_formula_moiety         'C20 H32 Br2 O3'
_chemical_name_systematic        Neoirieol
_symmetry_cell_setting           orthorhombic
_symmetry_space_group_name_H-M   'P 21 21 21'
_symmetry_Int_Tables_number      19
_space_group_name_Hall           'P 2ac 2ab'
loop_
_symmetry_equiv_pos_site_id
_symmetry_equiv_pos_as_xyz
1 x,y,z
2 1/2+x,1/2-y,-z
3 -x,1/2+y,1/2-z
4 1/2-x,-y,1/2+z
_cell_length_a                   10.817(92)
_cell_length_b                   11.756(85)
_cell_length_c                   16.185(62)
_cell_angle_alpha                90
_cell_angle_beta                 90
_cell_angle_gamma                90
_cell_volume                     2058.16
_cell_formula_units_Z            4
loop_
_atom_site_label
_atom_site_type_symbol
_atom_site_fract_x
_atom_site_fract_y
_atom_site_fract_z
Br1 Br -0.42180 -0.75310 -0.30390
Br2 Br -0.69750 -1.26220 0.18130
O1 O -0.62220 -0.64260 -0.02430
O2 O -0.29540 -0.69180 -0.03490
O3 O -0.26940 -1.03360 -0.03790
C1 C -0.40850 -0.69640 -0.18940
C2 C -0.48250 -0.58870 -0.18220
C3 C -0.46550 -0.53480 -0.09760
C4 C -0.49250 -0.61490 -0.02570
C5 C -0.42140 -0.72890 -0.03910
C6 C -0.44860 -0.81340 0.02840
C7 C -0.43070 -0.92480 0.02160
C8 C -0.38380 -0.97550 -0.05620
C9 C -0.35950 -0.88910 -0.12630
C10 C -0.44370 -0.78630 -0.12420
C11 C -0.45730 -1.00170 0.09800
C12 C -0.54730 -0.94270 0.16010
C13 C -0.61130 -1.03530 0.20940
C14 C -0.57050 -1.14360 0.16970
C15 C -0.52990 -1.11520 0.08010
C16 C -0.45790 -0.55910 0.05590
C17 C -0.57980 -0.82690 -0.13810
C18 C -0.33570 -1.02160 0.14260
C19 C -0.64130 -1.09370 0.02570
C20 C -0.45500 -1.21490 0.04440
H1 H -0.67100 -0.58400 -0.03900
H2 H -0.25200 -0.73900 -0.01700
H3 H -0.24600 -1.08200 -0.07400
H4 H -0.31300 -0.67800 -0.17800
H5 H -0.45400 -0.53200 -0.22600
H6 H -0.57500 -0.60900 -0.19200
H7 H -0.37600 -0.50700 -0.09300
H8 H -0.52300 -0.46400 -0.09200
H9 H -0.48200 -0.78200 0.08500
H10 H -0.45600 -1.03300 -0.07800
H11 H -0.37100 -0.93300 -0.18300
H12 H -0.26700 -0.86100 -0.12000
H13 H -0.49900 -0.89000 0.20000
H14 H -0.60700 -0.89600 0.12900
H15 H -0.58600 -1.03200 0.27100
H16 H -0.70900 -1.02600 0.20700
H17 H -0.50200 -1.17700 0.20100
H18 H -0.48000 -0.61500 0.10400
H19 H -0.50800 -0.48200 0.06400
H20 H -0.37100 -0.54500 0.05700
H21 H -0.60100 -0.88600 -0.09200
H22 H -0.58700 -0.86700 -0.19600
H23 H -0.63700 -0.75800 -0.13700
H24 H -0.30000 -0.94600 0.16100
H25 H -0.27300 -1.06300 0.10500
H26 H -0.35100 -1.07400 0.19600
H27 H -0.69400 -1.03400 0.05200
H28 H -0.68800 -1.17200 0.01500
H29 H -0.61200 -1.06000 -0.03100
H30 H -0.41300 -1.18800 -0.01200
H31 H -0.50300 -1.28400 0.03500
H32 H -0.38800 -1.23700 0.08700
loop_
_geom_bond_atom_site_label_1
_geom_bond_atom_site_label_2
_geom_bond_site_symmetry_1
_geom_bond_site_symmetry_2
Br1 C1 1_555 1_555
Br2 C14 1_555 1_555
O1 C4 1_555 1_555
O2 C5 1_555 1_555
O3 C8 1_555 1_555
C1 C2 1_555 1_555
C2 C3 1_555 1_555
C3 C4 1_555 1_555
C4 C5 1_555 1_555
C5 C6 1_555 1_555
C6 C7 1_555 1_555
C7 C8 1_555 1_555
C8 C9 1_555 1_555
C9 C10 1_555 1_555
C10 C1 1_555 1_555
C11 C7 1_555 1_555
C12 C11 1_555 1_555
C13 C12 1_555 1_555
C14 C13 1_555 1_555
C15 C11 1_555 1_555
C16 C4 1_555 1_555
C17 C10 1_555 1_555
C18 C11 1_555 1_555
C19 C15 1_555 1_555
C20 C15 1_555 1_555
H1 O1 1_555 1_555
H2 O2 1_555 1_555
H3 O3 1_555 1_555
H4 C1 1_555 1_555
H5 C2 1_555 1_555
H6 C2 1_555 1_555
H7 C3 1_555 1_555
H8 C3 1_555 1_555
H9 C6 1_555 1_555
H10 C8 1_555 1_555
H11 C9 1_555 1_555
H12 C9 1_555 1_555
H13 C12 1_555 1_555
H14 C12 1_555 1_555
H15 C13 1_555 1_555
H16 C13 1_555 1_555
H17 C14 1_555 1_555
H18 C16 1_555 1_555
H19 C16 1_555 1_555
H20 C16 1_555 1_555
H21 C17 1_555 1_555
H22 C17 1_555 1_555
H23 C17 1_555 1_555
H24 C18 1_555 1_555
H25 C18 1_555 1_555
H26 C18 1_555 1_555
H27 C19 1_555 1_555
H28 C19 1_555 1_555
H29 C19 1_555 1_555
H30 C20 1_555 1_555
H31 C20 1_555 1_555
H32 C20 1_555 1_555
C5 C10 1_555 1_555
C14 C15 1_555 1_555

#END
