
#######################################################################
#
#                 Cambridge Crystallographic Data Centre
#                                CCDC 
#
#######################################################################
#
# If this CIF has been generated from an entry in the Cambridge 
# Structural Database, then it will include bibliographic, chemical, 
# crystal, experimental, refinement or atomic coordinate data resulting 
# from the CCDC's data processing and validation procedures.
#
#######################################################################

data_BOCJUZ
_chemical_formula_moiety         'C40 H50 O15'
_chemical_name_systematic        
(2S,2'S)-Di-(3-O-1,2:5,6-di-O-isopropylidene-\a-D-allofuranose)-2,2'-oxybis(2-phenylacetate)
_symmetry_cell_setting           monoclinic
_symmetry_space_group_name_H-M   'C 2'
_symmetry_Int_Tables_number      5
_space_group_name_Hall           'C 2y'
loop_
_symmetry_equiv_pos_site_id
_symmetry_equiv_pos_as_xyz
1 x,y,z
2 -x,y,-z
3 1/2+x,1/2+y,z
4 1/2-x,1/2+y,-z
_cell_length_a                   28.638(3)
_cell_length_b                   5.4002(5)
_cell_length_c                   12.3306(12)
_cell_angle_alpha                90
_cell_angle_beta                 97.249(2)
_cell_angle_gamma                90
_cell_volume                     1891.7
_exptl_crystal_colour            colorless
_exptl_crystal_description       needle
_chemical_melting_point          168-170deg.C
_cell_formula_units_Z            2
_exptl_crystal_recrystallization_method ethanol
loop_
_atom_site_label
_atom_site_type_symbol
_atom_site_fract_x
_atom_site_fract_y
_atom_site_fract_z
O1 O 0.5000 -0.0748(7) 1.0000
O2 O 0.27521(8) 0.2168(5) 0.8136(2)
O3 O 0.34652(9) 0.2827(5) 0.5914(2)
O4 O 0.42081(9) -0.2765(5) 0.8845(2)
O5 O 0.39673(8) 0.1126(5) 0.8388(2)
O6 O 0.30392(9) 0.3255(5) 0.9905(2)
O7 O 0.30903(9) 0.6551(5) 0.5909(2)
O8 O 0.35862(9) 0.0155(5) 1.0192(2)
C1 C 0.50224(12) 0.0907(7) 0.8165(3)
C2 C 0.53409(13) -0.0909(8) 0.7948(3)
H1 H 0.5407 -0.2253 0.8440
C3 C 0.31903(12) 0.2473(7) 0.7686(3)
H2 H 0.3343 0.4073 0.7937
C4 C 0.33922(12) 0.2243(8) 1.0708(3)
C5 C 0.34918(12) 0.0269(7) 0.8157(3)
H3 H 0.3469 -0.1147 0.7630
C6 C 0.47528(12) 0.0707(7) 0.9153(3)
H4 H 0.4694 0.2399 0.9436
C7 C 0.33501(15) 0.5116(9) 0.4219(3)
H5 H 0.3344 0.6782 0.3902
H6 H 0.3043 0.4326 0.4026
H7 H 0.3594 0.4126 0.3931
C8 C 0.42849(12) -0.0585(7) 0.8798(3)
C9 C 0.28594(12) 0.1280(8) 0.9202(3)
H8 H 0.2584 0.0446 0.9469
C10 C 0.54661(14) 0.1193(9) 0.6287(3)
H9 H 0.5613 0.1272 0.5639
C11 C 0.32838(12) -0.0449(7) 0.9230(3)
H10 H 0.3187 -0.2228 0.9224
C12 C 0.37699(13) 0.4157(8) 1.1002(3)
H11 H 0.3633 0.5612 1.1316
H12 H 0.3906 0.4644 1.0344
H13 H 0.4017 0.3459 1.1538
C13 C 0.39184(14) 0.6568(8) 0.5827(3)
H14 H 0.3986 0.6449 0.6625
H15 H 0.3897 0.8315 0.5612
H16 H 0.4171 0.5769 0.5490
C14 C 0.55614(14) -0.0763(9) 0.7015(3)
H17 H 0.5780 -0.2008 0.6870
C15 C 0.27500(13) 0.4712(8) 0.6082(3)
H18 H 0.2541 0.4342 0.5399
H19 H 0.2556 0.5234 0.6652
C16 C 0.51550(13) 0.3024(9) 0.6516(3)
H20 H 0.5094 0.4384 0.6030
C17 C 0.49325(13) 0.2893(7) 0.7444(3)
H21 H 0.4718 0.4154 0.7592
C18 C 0.30584(13) 0.2491(7) 0.6458(3)
H22 H 0.2895 0.0916 0.6212
C19 C 0.31663(13) 0.1314(8) 1.1692(3)
H23 H 0.2926 0.0071 1.1449
H24 H 0.3019 0.2706 1.2030
H25 H 0.3408 0.0570 1.2226
C20 C 0.34577(13) 0.5291(7) 0.5452(3)
O2A O 0.72479(8) 0.2168(5) 1.1864(2)
O3A O 0.65348(9) 0.2827(5) 1.4086(2)
O4A O 0.57919(9) -0.2765(5) 1.1155(2)
O5A O 0.60327(8) 0.1126(5) 1.1612(2)
O6A O 0.69608(9) 0.3255(5) 1.0095(2)
O7A O 0.69097(9) 0.6551(5) 1.4091(2)
O8A O 0.64138(9) 0.0155(5) 0.9808(2)
C1A C 0.49776(12) 0.0907(7) 1.1835(3)
C2A C 0.46591(13) -0.0909(8) 1.2052(3)
H1A H 0.4593 -0.2253 1.1560
C3A C 0.68097(12) 0.2473(7) 1.2314(3)
H2A H 0.6657 0.4073 1.2063
C4A C 0.66078(12) 0.2243(8) 0.9292(3)
C5A C 0.65082(12) 0.0269(7) 1.1843(3)
H3A H 0.6531 -0.1147 1.2370
C6A C 0.52472(12) 0.0707(7) 1.0847(3)
H4A H 0.5306 0.2399 1.0564
C7A C 0.66499(15) 0.5116(9) 1.5781(3)
H5A H 0.6656 0.6782 1.6098
H6A H 0.6957 0.4326 1.5974
H7A H 0.6406 0.4126 1.6069
C8A C 0.57151(12) -0.0585(7) 1.1202(3)
C9A C 0.71406(12) 0.1280(8) 1.0798(3)
H8A H 0.7416 0.0446 1.0531
C10A C 0.45339(14) 0.1193(9) 1.3713(3)
H9A H 0.4387 0.1272 1.4361
C11A C 0.67162(12) -0.0449(7) 1.0770(3)
H10A H 0.6813 -0.2228 1.0776
C12A C 0.62301(13) 0.4157(8) 0.8998(3)
H11A H 0.6367 0.5612 0.8684
H12A H 0.6094 0.4644 0.9656
H13A H 0.5983 0.3459 0.8462
C13A C 0.60816(14) 0.6568(8) 1.4173(3)
H14A H 0.6014 0.6449 1.3375
H15A H 0.6103 0.8315 1.4388
H16A H 0.5829 0.5769 1.4510
C14A C 0.44386(14) -0.0763(9) 1.2985(3)
H17A H 0.4220 -0.2008 1.3130
C15A C 0.72500(13) 0.4712(8) 1.3918(3)
H18A H 0.7459 0.4342 1.4601
H19A H 0.7444 0.5234 1.3348
C16A C 0.48450(13) 0.3024(9) 1.3484(3)
H20A H 0.4906 0.4384 1.3970
C17A C 0.50675(13) 0.2893(7) 1.2556(3)
H21A H 0.5282 0.4154 1.2408
C18A C 0.69416(13) 0.2491(7) 1.3542(3)
H22A H 0.7105 0.0916 1.3788
C19A C 0.68337(13) 0.1314(8) 0.8308(3)
H23A H 0.7074 0.0071 0.8551
H24A H 0.6981 0.2706 0.7970
H25A H 0.6592 0.0570 0.7774
C20A C 0.65423(13) 0.5291(7) 1.4548(3)
loop_
_geom_bond_atom_site_label_1
_geom_bond_atom_site_label_2
_geom_bond_site_symmetry_1
_geom_bond_site_symmetry_2
O1 C6 1_555 1_555
O2 C3 1_555 1_555
O3 C18 1_555 1_555
O4 C8 1_555 1_555
O5 C5 1_555 1_555
O6 C4 1_555 1_555
O7 C15 1_555 1_555
O8 C4 1_555 1_555
C1 C2 1_555 1_555
C2 H1 1_555 1_555
C3 H2 1_555 1_555
C4 C12 1_555 1_555
C5 C3 1_555 1_555
H3 C5 1_555 1_555
C6 C1 1_555 1_555
H4 C6 1_555 1_555
C7 H5 1_555 1_555
H6 C7 1_555 1_555
H7 C7 1_555 1_555
C8 O5 1_555 1_555
C9 O2 1_555 1_555
H8 C9 1_555 1_555
C10 H9 1_555 1_555
C11 O8 1_555 1_555
H10 C11 1_555 1_555
C12 H11 1_555 1_555
H12 C12 1_555 1_555
H13 C12 1_555 1_555
C13 H14 1_555 1_555
H15 C13 1_555 1_555
H16 C13 1_555 1_555
C14 C2 1_555 1_555
H17 C14 1_555 1_555
C15 H18 1_555 1_555
H19 C15 1_555 1_555
C16 C10 1_555 1_555
H20 C16 1_555 1_555
C17 C1 1_555 1_555
H21 C17 1_555 1_555
C18 C3 1_555 1_555
H22 C18 1_555 1_555
C19 C4 1_555 1_555
H23 C19 1_555 1_555
H24 C19 1_555 1_555
H25 C19 1_555 1_555
C20 O3 1_555 1_555
O2A C3A 1_555 1_555
O3A C18A 1_555 1_555
O4A C8A 1_555 1_555
O5A C5A 1_555 1_555
O6A C4A 1_555 1_555
O7A C15A 1_555 1_555
O8A C4A 1_555 1_555
C1A C2A 1_555 1_555
C2A H1A 1_555 1_555
C3A H2A 1_555 1_555
C4A C12A 1_555 1_555
C5A C3A 1_555 1_555
H3A C5A 1_555 1_555
C6A O1 1_555 1_555
H4A C6A 1_555 1_555
C7A H5A 1_555 1_555
H6A C7A 1_555 1_555
H7A C7A 1_555 1_555
C8A O5A 1_555 1_555
C9A O2A 1_555 1_555
H8A C9A 1_555 1_555
C10A H9A 1_555 1_555
C11A O8A 1_555 1_555
H10A C11A 1_555 1_555
C12A H11A 1_555 1_555
H12A C12A 1_555 1_555
H13A C12A 1_555 1_555
C13A H14A 1_555 1_555
H15A C13A 1_555 1_555
H16A C13A 1_555 1_555
C14A C2A 1_555 1_555
H17A C14A 1_555 1_555
C15A H18A 1_555 1_555
H19A C15A 1_555 1_555
C16A C10A 1_555 1_555
H20A C16A 1_555 1_555
C17A C1A 1_555 1_555
H21A C17A 1_555 1_555
C18A C3A 1_555 1_555
H22A C18A 1_555 1_555
C19A C4A 1_555 1_555
H23A C19A 1_555 1_555
H24A C19A 1_555 1_555
H25A C19A 1_555 1_555
C20A O3A 1_555 1_555
O6 C9 1_555 1_555
O7 C20 1_555 1_555
C5 C11 1_555 1_555
C6 C8 1_555 1_555
C7 C20 1_555 1_555
C9 C11 1_555 1_555
C10 C14 1_555 1_555
C13 C20 1_555 1_555
C15 C18 1_555 1_555
C16 C17 1_555 1_555
O6A C9A 1_555 1_555
O7A C20A 1_555 1_555
C1A C6A 1_555 1_555
C5A C11A 1_555 1_555
C6A C8A 1_555 1_555
C7A C20A 1_555 1_555
C9A C11A 1_555 1_555
C10A C14A 1_555 1_555
C13A C20A 1_555 1_555
C15A C18A 1_555 1_555
C16A C17A 1_555 1_555

#END
