
#######################################################################
#
#                 Cambridge Crystallographic Data Centre
#                                CCDC 
#
#######################################################################
#
# If this CIF has been generated from an entry in the Cambridge 
# Structural Database, then it will include bibliographic, chemical, 
# crystal, experimental, refinement or atomic coordinate data resulting 
# from the CCDC's data processing and validation procedures.
#
#######################################################################

data_BOCJAG
_chemical_formula_moiety         'C19 H31 B10 F5 Si1'
_chemical_name_systematic        
E-1,2-(1-(pentafluorophenyl)-1-(trimethylsilyl)oct-1-ene-2,4-diyl)-1,2-dicarba-dodecaborane
_symmetry_cell_setting           triclinic
_symmetry_space_group_name_H-M   'P -1'
_symmetry_Int_Tables_number      2
_space_group_name_Hall           '-P 1'
loop_
_symmetry_equiv_pos_site_id
_symmetry_equiv_pos_as_xyz
1 x,y,z
2 -x,-y,-z
_cell_length_a                   7.698(2)
_cell_length_b                   8.822(3)
_cell_length_c                   20.149(6)
_cell_angle_alpha                94.947(5)
_cell_angle_beta                 91.027(5)
_cell_angle_gamma                110.034(5)
_cell_volume                     1279.12
_exptl_crystal_colour            colorless
_exptl_crystal_description       block
_cell_formula_units_Z            2
loop_
_atom_site_label
_atom_site_type_symbol
_atom_site_fract_x
_atom_site_fract_y
_atom_site_fract_z
Si1 Si 0.6968(2) 0.43627(17) 0.13426(7)
F1 F 1.0337(5) 0.2764(4) 0.20050(18)
F2 F 1.2003(5) 0.0916(5) 0.1360(2)
F3 F 1.0070(6) -0.1512(4) 0.04364(18)
F4 F 0.6471(6) -0.2031(4) 0.01457(18)
F5 F 0.4787(5) -0.0186(4) 0.07899(16)
C1 C 0.4463(10) 0.1019(7) 0.3375(3)
C2 C 0.5572(8) 0.0718(6) 0.2723(2)
C3 C 0.4105(16) 0.2553(11) 0.3293(4)
C4 C 0.3250(16) 0.3215(9) 0.3767(4)
H1 H 0.4221 0.4279 0.3900
H2 H 0.2328 0.3468 0.3491
C5 C 0.2369(17) 0.2899(12) 0.4342(4)
H3 H 0.1338 0.1882 0.4196
H4 H 0.3246 0.2547 0.4600
C6 C 0.162(2) 0.3519(12) 0.4825(5)
H5 H 0.0624 0.3699 0.4560
H6 H 0.2581 0.4609 0.4903
C7 C 0.0850(17) 0.3438(15) 0.5440(4)
H7 H 0.1093 0.4538 0.5653
H8 H 0.1399 0.2852 0.5722
H9 H -0.0490 0.2867 0.5383
C8 C 0.4845(9) 0.3190(6) 0.2690(3)
H10 H 0.5760 0.4295 0.2795
H11 H 0.3836 0.3267 0.2398
C9 C 0.5767(7) 0.2124(6) 0.2326(2)
C10 C 0.6615(7) 0.2438(6) 0.1761(2)
C11 C 0.4815(9) 0.4751(7) 0.1207(3)
H12 H 0.5071 0.5753 0.0990
H13 H 0.4272 0.4864 0.1636
H14 H 0.3945 0.3845 0.0921
C12 C 0.8664(10) 0.6059(7) 0.1872(3)
H15 H 0.8876 0.7071 0.1667
H16 H 0.9833 0.5856 0.1915
H17 H 0.8181 0.6150 0.2315
C13 C 0.7949(10) 0.4104(8) 0.0529(3)
H18 H 0.8155 0.5078 0.0297
H19 H 0.7083 0.3163 0.0258
H20 H 0.9129 0.3934 0.0599
C14 C 0.7496(7) 0.1322(6) 0.1427(2)
C15 C 0.9325(8) 0.1564(7) 0.1548(3)
C16 C 1.0212(8) 0.0633(7) 0.1222(3)
C17 C 0.9228(9) -0.0592(7) 0.0757(3)
C18 C 0.7428(9) -0.0846(6) 0.0616(3)
C19 C 0.6564(8) 0.0107(6) 0.0944(3)
B1 B 0.6728(11) 0.1319(8) 0.3483(4)
H21 H 0.7825 0.2533 0.3615
B2 B 0.5174(17) 0.0366(10) 0.4055(4)
H22 H 0.5223 0.0942 0.4576
B3 B 0.3079(15) -0.0746(13) 0.3623(6)
H23 H 0.1724 -0.0914 0.3856
B4 B 0.3323(11) -0.0500(11) 0.2785(5)
H24 H 0.2144 -0.0503 0.2450
B5 B 0.7091(12) -0.0170(9) 0.2936(4)
H25 H 0.8449 0.0040 0.2700
B6 B 0.6822(12) -0.0445(8) 0.3788(4)
H26 H 0.7994 -0.0434 0.4129
B7 B 0.4567(12) -0.1743(9) 0.3877(3)
H27 H 0.4227 -0.2600 0.4274
B8 B 0.3420(13) -0.2238(10) 0.3089(5)
H28 H 0.2292 -0.3436 0.2961
B9 B 0.5004(16) -0.1291(8) 0.2503(4)
H29 H 0.4960 -0.1835 0.1977
B10 B 0.5749(13) -0.2063(8) 0.3175(4)
H30 H 0.6201 -0.3142 0.3100
loop_
_geom_bond_atom_site_label_1
_geom_bond_atom_site_label_2
_geom_bond_site_symmetry_1
_geom_bond_site_symmetry_2
Si1 C10 1_555 1_555
F1 C15 1_555 1_555
F2 C16 1_555 1_555
F3 C17 1_555 1_555
F4 C18 1_555 1_555
F5 C19 1_555 1_555
C1 C2 1_555 1_555
C2 C9 1_555 1_555
C3 C1 1_555 1_555
C4 C3 1_555 1_555
H1 C4 1_555 1_555
H2 C4 1_555 1_555
C5 C4 1_555 1_555
H3 C5 1_555 1_555
H4 C5 1_555 1_555
C6 C5 1_555 1_555
H5 C6 1_555 1_555
H6 C6 1_555 1_555
C7 C6 1_555 1_555
H7 C7 1_555 1_555
H8 C7 1_555 1_555
H9 C7 1_555 1_555
C8 C3 1_555 1_555
H10 C8 1_555 1_555
H11 C8 1_555 1_555
C9 C8 1_555 1_555
C10 C9 1_555 1_555
C11 Si1 1_555 1_555
H12 C11 1_555 1_555
H13 C11 1_555 1_555
H14 C11 1_555 1_555
C12 Si1 1_555 1_555
H15 C12 1_555 1_555
H16 C12 1_555 1_555
H17 C12 1_555 1_555
C13 Si1 1_555 1_555
H18 C13 1_555 1_555
H19 C13 1_555 1_555
H20 C13 1_555 1_555
C14 C10 1_555 1_555
C15 C14 1_555 1_555
C16 C15 1_555 1_555
C17 C16 1_555 1_555
C18 C17 1_555 1_555
C19 C14 1_555 1_555
B1 C1 1_555 1_555
H21 B1 1_555 1_555
B2 C1 1_555 1_555
H22 B2 1_555 1_555
B3 C1 1_555 1_555
H23 B3 1_555 1_555
B4 C1 1_555 1_555
H24 B4 1_555 1_555
B5 C2 1_555 1_555
H25 B5 1_555 1_555
B6 B1 1_555 1_555
H26 B6 1_555 1_555
B7 B2 1_555 1_555
H27 B7 1_555 1_555
B8 B3 1_555 1_555
H28 B8 1_555 1_555
B9 C2 1_555 1_555
H29 B9 1_555 1_555
B10 B5 1_555 1_555
H30 B10 1_555 1_555
C2 B1 1_555 1_555
C2 B4 1_555 1_555
C18 C19 1_555 1_555
B1 B2 1_555 1_555
B1 B5 1_555 1_555
B2 B3 1_555 1_555
B2 B6 1_555 1_555
B3 B4 1_555 1_555
B3 B7 1_555 1_555
B4 B8 1_555 1_555
B4 B9 1_555 1_555
B5 B6 1_555 1_555
B5 B9 1_555 1_555
B6 B7 1_555 1_555
B6 B10 1_555 1_555
B7 B8 1_555 1_555
B7 B10 1_555 1_555
B8 B9 1_555 1_555
B8 B10 1_555 1_555
B9 B10 1_555 1_555

#END
