
#######################################################################
#
#                 Cambridge Crystallographic Data Centre
#                                CCDC 
#
#######################################################################
#
# If this CIF has been generated from an entry in the Cambridge 
# Structural Database, then it will include bibliographic, chemical, 
# crystal, experimental, refinement or atomic coordinate data resulting 
# from the CCDC's data processing and validation procedures.
#
#######################################################################

data_BOCLEL
_chemical_formula_moiety         'C20 H17 N3 O2,1.5(C1 H4 O1)'
_chemical_name_systematic        
'4-Hydroxy-5-(1H-indol-3-yl)-2,3,4,5-tetrahydroazepino(3,4-b)indol-1(10H)-one methanol solvate'
_symmetry_cell_setting           triclinic
_symmetry_space_group_name_H-M   'P -1'
_symmetry_Int_Tables_number      2
_space_group_name_Hall           '-P 1'
loop_
_symmetry_equiv_pos_site_id
_symmetry_equiv_pos_as_xyz
1 x,y,z
2 -x,-y,-z
_cell_length_a                   12.1668(7)
_cell_length_b                   13.1234(7)
_cell_length_c                   14.0402(9)
_cell_angle_alpha                70.049(5)
_cell_angle_beta                 84.851(5)
_cell_angle_gamma                64.600(4)
_cell_volume                     1899.32
_exptl_crystal_colour            colorless
_exptl_crystal_description       prism
_chemical_melting_point          '306 deg.C (dec.)'
_cell_formula_units_Z            4
_exptl_crystal_recrystallization_method methanol
loop_
_atom_site_label
_atom_site_type_symbol
_atom_site_fract_x
_atom_site_fract_y
_atom_site_fract_z
O1 O 0.1124(4) 0.4271(4) 0.1135(3)
C1 C 0.0370(7) 0.3787(5) 0.1733(5)
C3 C 0.0279(2) 0.33937(19) 0.43076(15)
C4 C 0.0317(2) 0.1520(2) 0.4145(2)
H1 H -0.0183 0.1390 0.3720
H2 H 0.0215 0.1124 0.4864
C5 C 0.1659(2) 0.0915(2) 0.39318(16)
H3 H 0.1785 0.0155 0.3830
C6 C 0.25322(19) 0.05723(18) 0.48223(15)
H4 H 0.3378 0.0250 0.4594
C7 C 0.23855(18) 0.16064(18) 0.51406(14)
C8 C 0.14392(19) 0.27379(18) 0.49304(15)
C9 C 0.2806(2) 0.26506(19) 0.59556(16)
C10 C 0.3424(2) 0.2868(2) 0.66010(18)
H5 H 0.3096 0.3612 0.6719
C11 C 0.4530(2) 0.1958(2) 0.70609(18)
H6 H 0.4970 0.2076 0.7508
C12 C 0.5016(2) 0.0865(2) 0.68833(17)
H7 H 0.5786 0.0262 0.7203
C13 C 0.4406(2) 0.0644(2) 0.62581(16)
H8 H 0.4744 -0.0102 0.6145
C14 C 0.32700(19) 0.15474(18) 0.57883(15)
C15 C 0.24382(19) -0.04300(18) 0.57126(15)
C16 C 0.1882(2) -0.0338(2) 0.65810(16)
H9 H 0.1495 0.0385 0.6731
C17 C 0.2567(2) -0.2256(2) 0.67562(18)
C18 C 0.2863(3) -0.3472(2) 0.7085(2)
H10 H 0.2637 -0.3857 0.7725
C19 C 0.3490(3) -0.4099(2) 0.6456(3)
H11 H 0.3702 -0.4932 0.6664
C20 C 0.3828(3) -0.3536(2) 0.5509(3)
H12 H 0.4265 -0.3995 0.5091
C21 C 0.3535(2) -0.2327(2) 0.5177(2)
H13 H 0.3763 -0.1952 0.4535
C22 C 0.2900(2) -0.1669(2) 0.57990(17)
N1 N -0.01509(18) 0.27997(17) 0.39533(15)
N2 N 0.17105(17) 0.33696(17) 0.54080(13)
N3 N 0.1952(2) -0.14233(19) 0.72113(16)
O3 O -0.02760(16) 0.44928(13) 0.41082(12)
O4 O 0.19750(17) 0.16186(15) 0.30272(12)
H35 H -0.093(3) 0.325(2) 0.359(2)
H36 H 0.122(2) 0.409(2) 0.5415(17)
H37 H 0.160(2) -0.158(2) 0.778(2)
H42 H 0.144(2) 0.2291(17) 0.278(2)
C23 C 0.2046(2) 0.3265(2) 0.87838(17)
C24 C 0.3507(2) 0.1338(2) 1.0045(2)
H14 H 0.4105 0.1172 1.0575
H15 H 0.3964 0.0921 0.9568
C25 C 0.2631(2) 0.0797(2) 1.05518(16)
H16 H 0.3116 0.0017 1.1089
C26 C 0.20154(19) 0.05329(19) 0.98148(15)
H17 H 0.1424 0.0232 1.0205
C27 C 0.13014(19) 0.16109(19) 0.89265(15)
C28 C 0.1349(2) 0.2708(2) 0.85167(16)
C29 C -0.00272(19) 0.2774(2) 0.75190(16)
C30 C -0.0890(2) 0.3083(3) 0.67493(17)
H18 H -0.1192 0.3847 0.6232
C31 C -0.1279(2) 0.2235(3) 0.67764(19)
H19 H -0.1849 0.2411 0.6257
C32 C -0.0858(2) 0.1114(3) 0.75497(19)
H20 H -0.1159 0.0555 0.7551
C33 C -0.0016(2) 0.0810(2) 0.83076(17)
H21 H 0.0265 0.0049 0.8828
C34 C 0.04157(19) 0.1645(2) 0.82945(15)
C35 C 0.29457(19) -0.04667(19) 0.94715(15)
C36 C 0.3374(2) -0.0361(2) 0.85304(16)
H22 H 0.3114 0.0366 0.7970
C37 C 0.4377(2) -0.2288(2) 0.94420(17)
C38 C 0.5127(2) -0.3513(2) 0.9792(2)
H23 H 0.5657 -0.3897 0.9358
C39 C 0.5071(2) -0.4144(2) 1.0787(2)
H24 H 0.5576 -0.4980 1.1044
C40 C 0.4292(2) -0.3590(2) 1.14316(19)
H25 H 0.4274 -0.4055 1.2115
C41 C 0.3549(2) -0.2379(2) 1.10920(17)
H26 H 0.3026 -0.2008 1.1537
C42 C 0.3578(2) -0.1703(2) 1.00814(16)
N4 N 0.29579(19) 0.2620(2) 0.94928(16)
N5 N 0.05263(18) 0.34123(19) 0.76798(15)
N6 N 0.42295(18) -0.14449(18) 0.85031(15)
O5 O 0.17708(19) 0.43532(16) 0.83325(14)
O6 O 0.17118(18) 0.15327(17) 1.10375(14)
H38 H 0.321(2) 0.313(2) 0.9581(19)
H39 H 0.049(3) 0.409(3) 0.723(2)
H40 H 0.466(2) -0.161(2) 0.795(2)
H41 H 0.193(4) 0.155(3) 1.162(3)
C43 C 0.8413(3) 0.3070(4) 0.0156(2)
H27 H 0.7625 0.3026 0.0216
H28 H 0.8766 0.2932 -0.0468
H29 H 0.8296 0.3865 0.0135
O7 O 0.9190(2) 0.2208(2) 0.09831(16)
H30 H 0.9889 0.2192 0.0900
C44 C 0.3745(3) 0.3339(3) 0.3129(2)
H31 H 0.3678 0.3105 0.3865
H32 H 0.2995 0.4035 0.2789
H33 H 0.4439 0.3546 0.2958
O8 O 0.39225(18) 0.23772(18) 0.28026(16)
H34 H 0.3295 0.2248 0.2892
O2? O 0.0696(5) 0.3934(5) 0.1990(4)
C2? C -0.0213(8) 0.3914(7) 0.1450(6)
loop_
_geom_bond_atom_site_label_1
_geom_bond_atom_site_label_2
_geom_bond_site_symmetry_1
_geom_bond_site_symmetry_2
O1 C1 1_555 1_555
C3 C8 1_555 1_555
C4 H1 1_555 1_555
H2 C4 1_555 1_555
C5 C4 1_555 1_555
H3 C5 1_555 1_555
C6 C5 1_555 1_555
H4 C6 1_555 1_555
C7 C6 1_555 1_555
C8 C7 1_555 1_555
C9 C10 1_555 1_555
C10 H5 1_555 1_555
C11 C10 1_555 1_555
H6 C11 1_555 1_555
C12 C11 1_555 1_555
H7 C12 1_555 1_555
C13 C12 1_555 1_555
H8 C13 1_555 1_555
C14 C7 1_555 1_555
C15 C6 1_555 1_555
C16 C15 1_555 1_555
H9 C16 1_555 1_555
C17 C18 1_555 1_555
C18 H10 1_555 1_555
C19 C18 1_555 1_555
H11 C19 1_555 1_555
C20 C19 1_555 1_555
H12 C20 1_555 1_555
C21 C20 1_555 1_555
H13 C21 1_555 1_555
C22 C15 1_555 1_555
N1 C3 1_555 1_555
N2 C8 1_555 1_555
N3 C16 1_555 1_555
O3 C3 1_555 1_555
O4 C5 1_555 1_555
C23 C28 1_555 1_555
C24 H14 1_555 1_555
H15 C24 1_555 1_555
C25 C24 1_555 1_555
H16 C25 1_555 1_555
C26 C25 1_555 1_555
H17 C26 1_555 1_555
C27 C26 1_555 1_555
C28 C27 1_555 1_555
C29 C30 1_555 1_555
C30 H18 1_555 1_555
C31 C30 1_555 1_555
H19 C31 1_555 1_555
C32 C31 1_555 1_555
H20 C32 1_555 1_555
C33 C32 1_555 1_555
H21 C33 1_555 1_555
C34 C27 1_555 1_555
C35 C26 1_555 1_555
C36 C35 1_555 1_555
H22 C36 1_555 1_555
C37 C38 1_555 1_555
C38 H23 1_555 1_555
C39 C38 1_555 1_555
H24 C39 1_555 1_555
C40 C39 1_555 1_555
H25 C40 1_555 1_555
C41 C40 1_555 1_555
H26 C41 1_555 1_555
C42 C35 1_555 1_555
N4 C23 1_555 1_555
N5 C28 1_555 1_555
N6 C36 1_555 1_555
O5 C23 1_555 1_555
O6 C25 1_555 1_555
C43 H27 1_555 1_555
H28 C43 1_555 1_555
H29 C43 1_555 1_555
O7 C43 1_555 1_555
H30 O7 1_555 1_555
C44 H31 1_555 1_555
H32 C44 1_555 1_555
H33 C44 1_555 1_555
O8 C44 1_555 1_555
H34 O8 1_555 1_555
H35 N1 1_555 1_555
H36 N2 1_555 1_555
H37 N3 1_555 1_555
H38 N4 1_555 1_555
H39 N5 1_555 1_555
H40 N6 1_555 1_555
H41 O6 1_555 1_555
H42 O4 1_555 1_555
C4 N1 1_555 1_555
C9 C14 1_555 1_555
C9 N2 1_555 1_555
C13 C14 1_555 1_555
C17 C22 1_555 1_555
C17 N3 1_555 1_555
C21 C22 1_555 1_555
C24 N4 1_555 1_555
C29 C34 1_555 1_555
C29 N5 1_555 1_555
C33 C34 1_555 1_555
C37 C42 1_555 1_555
C37 N6 1_555 1_555
C41 C42 1_555 1_555

#END
