
#######################################################################
#
#                 Cambridge Crystallographic Data Centre
#                                CCDC 
#
#######################################################################
#
# If this CIF has been generated from an entry in the Cambridge 
# Structural Database, then it will include bibliographic, chemical, 
# crystal, experimental, refinement or atomic coordinate data resulting 
# from the CCDC's data processing and validation procedures.
#
#######################################################################

data_BOCLOV
_chemical_formula_moiety         'C19 H12 F3 N3 O1'
_chemical_name_systematic        
2-oxo-5-phenyl-7-(4-(trifluoromethyl)phenyl)-3,4-diazabicyclo(4.1.0)hept-4-ene-1-carbonitrile
_symmetry_cell_setting           monoclinic
_symmetry_space_group_name_H-M   'P 21/c'
_symmetry_Int_Tables_number      14
_space_group_name_Hall           '-P 2ybc'
loop_
_symmetry_equiv_pos_site_id
_symmetry_equiv_pos_as_xyz
1 x,y,z
2 -x,1/2+y,1/2-z
3 -x,-y,-z
4 x,1/2-y,1/2+z
_cell_length_a                   11.5304(14)
_cell_length_b                   11.3696(14)
_cell_length_c                   13.3334(16)
_cell_angle_alpha                90
_cell_angle_beta                 100.007(2)
_cell_angle_gamma                90
_cell_volume                     1721.36
_chemical_melting_point          '217.6-218.9 deg.C'
_cell_formula_units_Z            4
loop_
_atom_site_label
_atom_site_type_symbol
_atom_site_fract_x
_atom_site_fract_y
_atom_site_fract_z
C1 C 0.0067(3) 0.7765(2) 0.1931(2)
C2 C 0.0638(2) 0.6797(2) 0.25793(18)
C3 C 0.1362(2) 0.5919(2) 0.20833(18)
H1 H 0.1356 0.5103 0.2320
C4 C 0.1335(2) 0.6091(2) 0.09777(18)
C5 C 0.1825(2) 0.5172(2) 0.0390(2)
C6 C 0.1575(3) 0.5165(3) -0.0668(2)
H2 H 0.1074 0.5730 -0.1012
C7 C 0.2063(3) 0.4328(4) -0.1209(3)
H3 H 0.1900 0.4341 -0.1917
C8 C 0.2783(4) 0.3477(4) -0.0722(3)
H4 H 0.3099 0.2907 -0.1095
C9 C 0.3036(4) 0.3467(4) 0.0318(3)
H5 H 0.3534 0.2894 0.0654
C10 C 0.2554(3) 0.4310(3) 0.0873(3)
H6 H 0.2724 0.4293 0.1581
C11 C 0.1993(2) 0.6789(2) 0.28187(19)
H7 H 0.2360 0.7431 0.2496
C12 C 0.2630(2) 0.6474(2) 0.38508(18)
C13 C 0.3403(2) 0.7280(3) 0.4371(2)
H8 H 0.3517 0.7998 0.4069
C14 C 0.4012(3) 0.7033(3) 0.5334(2)
H9 H 0.4525 0.7589 0.5679
C15 C 0.3864(3) 0.5975(3) 0.5784(2)
C16 C 0.3088(3) 0.5169(3) 0.5284(2)
H10 H 0.2970 0.4458 0.5595
C17 C 0.2476(3) 0.5410(3) 0.4315(2)
H11 H 0.1959 0.4854 0.3976
C18 C 0.4530(4) 0.5720(5) 0.6810(3)
C19 C -0.0006(2) 0.6385(2) 0.33461(19)
F1 F 0.3941(3) 0.5767(5) 0.75028(19)
F2 F 0.4868(5) 0.4653(4) 0.6951(2)
N1 N 0.0910(2) 0.7008(2) 0.04868(16)
N2 N 0.0378(2) 0.7848(2) 0.10028(17)
H12 H 0.0226 0.8508 0.0693
N3 N -0.0508(2) 0.6027(2) 0.39465(18)
O1 O -0.0613(2) 0.84497(18) 0.22183(15)
F3 F 0.5645(4) 0.5949(10) 0.6892(5)
F4? F 0.5004(13) 0.6704(9) 0.7313(5)
loop_
_geom_bond_atom_site_label_1
_geom_bond_atom_site_label_2
_geom_bond_site_symmetry_1
_geom_bond_site_symmetry_2
C1 C2 1_555 1_555
C2 C3 1_555 1_555
C3 H1 1_555 1_555
C4 C3 1_555 1_555
C5 C4 1_555 1_555
C6 C5 1_555 1_555
H2 C6 1_555 1_555
C7 C6 1_555 1_555
H3 C7 1_555 1_555
C8 C7 1_555 1_555
H4 C8 1_555 1_555
C9 C8 1_555 1_555
H5 C9 1_555 1_555
C10 C5 1_555 1_555
H6 C10 1_555 1_555
C11 C2 1_555 1_555
H7 C11 1_555 1_555
C12 C11 1_555 1_555
C13 C12 1_555 1_555
H8 C13 1_555 1_555
C14 C13 1_555 1_555
H9 C14 1_555 1_555
C15 C14 1_555 1_555
C16 C15 1_555 1_555
H10 C16 1_555 1_555
C17 C12 1_555 1_555
H11 C17 1_555 1_555
C18 C15 1_555 1_555
C19 C2 1_555 1_555
F1 C18 1_555 1_555
F2 C18 1_555 1_555
N1 C4 1_555 1_555
N2 C1 1_555 1_555
H12 N2 1_555 1_555
N3 C19 1_555 1_555
O1 C1 1_555 1_555
F3 C18 1_555 1_555
C3 C11 1_555 1_555
C9 C10 1_555 1_555
C16 C17 1_555 1_555
N1 N2 1_555 1_555

#END
