
#######################################################################
#
#                 Cambridge Crystallographic Data Centre
#                                CCDC 
#
#######################################################################
#
# If this CIF has been generated from an entry in the Cambridge 
# Structural Database, then it will include bibliographic, chemical, 
# crystal, experimental, refinement or atomic coordinate data resulting 
# from the CCDC's data processing and validation procedures.
#
#######################################################################

data_BOCQUH
_chemical_formula_moiety         'C9 H8 N2 O3'
_chemical_name_systematic        5-(4-Hydroxyphenyl)imidazolidine-2,4-dione
_symmetry_cell_setting           monoclinic
_symmetry_space_group_name_H-M   'P 21/c'
_symmetry_Int_Tables_number      14
_space_group_name_Hall           '-P 2ybc'
loop_
_symmetry_equiv_pos_site_id
_symmetry_equiv_pos_as_xyz
1 x,y,z
2 -x,1/2+y,1/2-z
3 -x,-y,-z
4 x,1/2-y,1/2+z
_cell_length_a                   10.3694(11)
_cell_length_b                   6.9914(8)
_cell_length_c                   12.3857(13)
_cell_angle_alpha                90
_cell_angle_beta                 105.619(2)
_cell_angle_gamma                90
_cell_volume                     864.764
_exptl_crystal_colour            colorless
_exptl_crystal_description       rectangle
_cell_formula_units_Z            4
_exptl_crystal_recrystallization_method ethanol
loop_
_atom_site_label
_atom_site_type_symbol
_atom_site_fract_x
_atom_site_fract_y
_atom_site_fract_z
N1 N 0.36582(16) 0.1852(2) 0.60788(13)
H1 H 0.3651(18) 0.070(3) 0.6298(15)
N2 N 0.39496(14) 0.4952(2) 0.61795(12)
H2 H 0.4272(18) 0.605(3) 0.6494(15)
O1 O 0.46179(12) 0.32043(18) 0.78108(10)
O2 O 0.32237(12) 0.58433(19) 0.43383(10)
O3 O -0.23743(12) 0.1408(2) 0.29172(11)
H3 H -0.2595(19) 0.108(3) 0.2145(17)
C1 C 0.41256(16) 0.3268(3) 0.67946(15)
C2 C 0.34366(16) 0.4631(3) 0.50733(15)
C3 C 0.31532(17) 0.2501(2) 0.49270(14)
H4 H 0.3691 0.1943 0.4466
C4 C 0.16868(17) 0.2098(2) 0.43983(14)
C5 C 0.07338(17) 0.2567(3) 0.49525(15)
H5 H 0.1009 0.3060 0.5676
C6 C -0.06081(18) 0.2319(3) 0.44558(15)
H6 H -0.1233 0.2633 0.4842
C7 C -0.10245(17) 0.1601(2) 0.33802(14)
C8 C -0.00956(17) 0.1091(3) 0.28186(14)
H7 H -0.0374 0.0583 0.2099
C9 C 0.12569(18) 0.1341(3) 0.33336(14)
H8 H 0.1883 0.0992 0.2955
loop_
_geom_bond_atom_site_label_1
_geom_bond_atom_site_label_2
_geom_bond_site_symmetry_1
_geom_bond_site_symmetry_2
N1 H1 1_555 1_555
N2 H2 1_555 1_555
O1 C1 1_555 1_555
O2 C2 1_555 1_555
O3 H3 1_555 1_555
C1 N1 1_555 1_555
C2 N2 1_555 1_555
C3 N1 1_555 1_555
H4 C3 1_555 1_555
C4 C3 1_555 1_555
C5 C4 1_555 1_555
H5 C5 1_555 1_555
C6 C5 1_555 1_555
H6 C6 1_555 1_555
C7 O3 1_555 1_555
C8 C7 1_555 1_555
H7 C8 1_555 1_555
C9 C4 1_555 1_555
H8 C9 1_555 1_555
N2 C1 1_555 1_555
C2 C3 1_555 1_555
C6 C7 1_555 1_555
C8 C9 1_555 1_555

#END
