
#######################################################################
#
#                 Cambridge Crystallographic Data Centre
#                                CCDC 
#
#######################################################################
#
# If this CIF has been generated from an entry in the Cambridge 
# Structural Database, then it will include bibliographic, chemical, 
# crystal, experimental, refinement or atomic coordinate data resulting 
# from the CCDC's data processing and validation procedures.
#
#######################################################################

data_BOCXOI
_chemical_formula_moiety         'C2 H8 N1 O1 1+,I1 1-'
_chemical_name_systematic        '2-Hydroxyethylammonium iodide'
_symmetry_cell_setting           triclinic
_symmetry_space_group_name_H-M   'P -1'
_symmetry_Int_Tables_number      2
_space_group_name_Hall           '-P 1'
loop_
_symmetry_equiv_pos_site_id
_symmetry_equiv_pos_as_xyz
1 x,y,z
2 -x,-y,-z
_cell_length_a                   4.6557(4)
_cell_length_b                   7.5432(6)
_cell_length_c                   8.1787(7)
_cell_angle_alpha                85.235(2)
_cell_angle_beta                 78.091(2)
_cell_angle_gamma                77.544(2)
_cell_volume                     274.206
_exptl_crystal_colour            colorless
_exptl_crystal_description       plate
_cell_formula_units_Z            2
loop_
_atom_site_label
_atom_site_type_symbol
_atom_site_fract_x
_atom_site_fract_y
_atom_site_fract_z
I1 I 0.63581(3) 0.752733(16) 0.669449(16)
O1 O 1.1624(3) 0.3874(2) 0.79532(19)
H1 H 1.0844 0.4856 0.7510
N1 N 0.7519(4) 0.2059(2) 0.6780(2)
H2 H 0.5779 0.2898 0.7009
H3 H 0.7164 0.1061 0.6366
H4 H 0.8882 0.2542 0.6011
C1 C 0.9351(5) 0.3140(3) 0.9069(3)
H5 H 0.7493 0.4085 0.9290
H6 H 1.0004 0.2765 1.0146
C2 C 0.8719(5) 0.1527(3) 0.8344(3)
H7 H 1.0590 0.0596 0.8098
H8 H 0.7245 0.0988 0.9174
loop_
_geom_bond_atom_site_label_1
_geom_bond_atom_site_label_2
_geom_bond_site_symmetry_1
_geom_bond_site_symmetry_2
O1 H1 1_555 1_555
N1 H2 1_555 1_555
H3 N1 1_555 1_555
H4 N1 1_555 1_555
C1 O1 1_555 1_555
H5 C1 1_555 1_555
H6 C1 1_555 1_555
C2 N1 1_555 1_555
H7 C2 1_555 1_555
H8 C2 1_555 1_555
C1 C2 1_555 1_555

#END
