
#######################################################################
#
#                 Cambridge Crystallographic Data Centre
#                                CCDC 
#
#######################################################################
#
# If this CIF has been generated from an entry in the Cambridge 
# Structural Database, then it will include bibliographic, chemical, 
# crystal, experimental, refinement or atomic coordinate data resulting 
# from the CCDC's data processing and validation procedures.
#
#######################################################################

data_BODBUT
_chemical_formula_moiety         'C54 H42 N18,0.5(C6 H6),2(C1 Cl4)'
_chemical_name_systematic        
"4,4',4''-((8,20,32-Trimethyl-2,4,6,8,14,16,18,20,26,28,30,32,37,39,41-pentadeca-azaheptacyclo[31.3.1.1^3,7^.1^9,13^.1^15,19^.1^21,25^.1^27,31^]dotetraconta-1(37),3(42),4,6,9(41),10,12,15(40),16,18,21(39),22,24,27(38),28,30,33,35-octadecaene-2,14,26-triyl)tris(methylene))tribenzonitrile benzene tetrachloromethane solvate"
_symmetry_cell_setting           rhombohedral
_symmetry_space_group_name_H-M   'R -3 c'
_symmetry_Int_Tables_number      167
_space_group_name_Hall           '-R 3 2"c'
loop_
_symmetry_equiv_pos_site_id
_symmetry_equiv_pos_as_xyz
1 x,y,z
2 -y,x-y,z
3 -x+y,-x,z
4 y,x,1/2-z
5 x-y,-y,1/2-z
6 -x,-x+y,1/2-z
7 2/3+x,1/3+y,1/3+z
8 2/3-y,1/3+x-y,1/3+z
9 2/3-x+y,1/3-x,1/3+z
10 2/3+y,1/3+x,5/6-z
11 2/3+x-y,1/3-y,5/6-z
12 2/3-x,1/3-x+y,5/6-z
13 1/3+x,2/3+y,2/3+z
14 1/3-y,2/3+x-y,2/3+z
15 1/3-x+y,2/3-x,2/3+z
16 1/3+y,2/3+x,1/6-z
17 1/3+x-y,2/3-y,1/6-z
18 1/3-x,2/3-x+y,1/6-z
19 -x,-y,-z
20 y,-x+y,-z
21 x-y,x,-z
22 -y,-x,1/2+z
23 -x+y,y,1/2+z
24 x,x-y,1/2+z
25 1/3-x,2/3-y,2/3-z
26 1/3+y,2/3-x+y,2/3-z
27 1/3+x-y,2/3+x,2/3-z
28 1/3-y,2/3-x,1/6+z
29 1/3-x+y,2/3+y,1/6+z
30 1/3+x,2/3+x-y,1/6+z
31 2/3-x,1/3-y,1/3-z
32 2/3+y,1/3-x+y,1/3-z
33 2/3+x-y,1/3+x,1/3-z
34 2/3-y,1/3-x,5/6+z
35 2/3-x+y,1/3+y,5/6+z
36 2/3+x,1/3+x-y,5/6+z
_cell_length_a                   15.098(3)
_cell_length_b                   15.098(3)
_cell_length_c                   94.97(2)
_cell_angle_alpha                90
_cell_angle_beta                 90
_cell_angle_gamma                120
_cell_volume                     18748
_exptl_crystal_colour            colorless
_exptl_crystal_description       plate
_cell_formula_units_Z            12
loop_
_atom_site_label
_atom_site_type_symbol
_atom_site_fract_x
_atom_site_fract_y
_atom_site_fract_z
Cl1 Cl 0.6131(3) 0.4064(3) 0.51605(4)
Cl2 Cl 0.6667 0.3333 0.53932(7)
C1 C 0.6667 0.3333 0.52098(18)
Cl1A Cl 0.5936(3) 0.2067(4) 0.51605(4)
Cl1B Cl 0.7933(4) 0.3869(3) 0.51605(4)
Cl3 Cl 0.44564(10) 0.67070(11) 0.53058(2)
Cl4 Cl 0.3333 0.6667 0.55521(3)
C2 C 0.3333 0.6667 0.53644(10)
Cl3A Cl 0.32930(11) 0.77494(15) 0.53058(2)
Cl3B Cl 0.22506(15) 0.55436(10) 0.53058(2)
N1 N 0.2037(3) 0.0742(3) 0.44773(4)
N2 N 0.2249(3) 0.2430(3) 0.44723(4)
N3 N 0.3786(3) 0.3857(3) 0.44135(4)
N4 N 0.5466(3) 0.5195(3) 0.44112(4)
N5 N 0.7084(3) 0.6627(3) 0.44237(4)
N6 N 0.6394(5) 0.6698(6) 0.52182(5)
C3 C 0.3234(3) 0.2820(3) 0.44317(4)
C4 C 0.1734(3) 0.1429(3) 0.44935(5)
H1 H 0.1063 0.1166 0.4524
C5 C 0.3030(3) 0.1144(3) 0.44357(4)
C6 C 0.3653(3) 0.2187(3) 0.44133(4)
H2 H 0.4333 0.2457 0.4387
C7 C 0.3446(4) 0.4507(4) 0.44824(7)
H3 H 0.2761 0.4301 0.4453
H4 H 0.3893 0.5207 0.4457
H5 H 0.3461 0.4436 0.4583
C8 C 0.4759(3) 0.4348(3) 0.43479(4)
C9 C 0.4938(3) 0.3982(3) 0.42229(5)
H6 H 0.4427 0.3394 0.4180
C10 C 0.5904(3) 0.4526(3) 0.41647(4)
H7 H 0.6049 0.4303 0.4081
C11 C 0.6653(3) 0.5397(3) 0.42296(4)
H8 H 0.7308 0.5762 0.4192
C12 C 0.6397(3) 0.5711(3) 0.43532(4)
C13 C 0.6663(3) 0.7198(3) 0.44982(5)
H9 H 0.5973 0.6961 0.4465
H10 H 0.7074 0.7918 0.4475
C14 C 0.6639(3) 0.7078(3) 0.46566(5)
C15 C 0.6789(5) 0.7894(4) 0.47412(5)
H11 H 0.6939 0.8512 0.4700
C16 C 0.6718(5) 0.7794(5) 0.48841(6)
H12 H 0.6793 0.8335 0.4940
C17 C 0.6531(4) 0.6879(4) 0.49476(5)
C18 C 0.6401(5) 0.6073(4) 0.48645(6)
H13 H 0.6273 0.5462 0.4906
C19 C 0.6460(5) 0.6180(4) 0.47195(5)
H14 H 0.6378 0.5638 0.4664
C20 C 0.6454(5) 0.6776(5) 0.50993(6)
N1A N 0.9258(3) 0.1295(4) 0.44773(4)
N2A N 0.7570(3) -0.0181(4) 0.44723(4)
N3A N 0.6143(3) -0.0071(4) 0.44135(4)
N4A N 0.4805(3) 0.0271(4) 0.44112(4)
N5A N 0.3373(3) 0.0457(4) 0.44237(4)
N6A N 0.3302(6) -0.0304(8) 0.52182(5)
C3A C 0.7180(3) 0.0414(4) 0.44317(4)
C4A C 0.8571(3) 0.0305(4) 0.44935(5)
H1A H 0.8834 -0.0103 0.4524
C5A C 0.8856(3) 0.1886(4) 0.44357(4)
C6A C 0.7813(3) 0.1466(4) 0.44133(4)
H2A H 0.7543 0.1876 0.4387
C7A C 0.5493(4) -0.1061(6) 0.44824(7)
H3A H 0.5699 -0.1540 0.4453
H4A H 0.4793 -0.1314 0.4457
H5A H 0.5564 -0.0975 0.4583
C8A C 0.5652(3) 0.0411(4) 0.43479(4)
C9A C 0.6018(3) 0.0956(4) 0.42229(5)
H6A H 0.6606 0.1033 0.4180
C10A C 0.5474(3) 0.1378(4) 0.41647(4)
H7A H 0.5697 0.1746 0.4081
C11A C 0.4603(3) 0.1256(4) 0.42296(4)
H8A H 0.4238 0.1546 0.4192
C12A C 0.4289(3) 0.0686(4) 0.43532(4)
C13A C 0.2802(3) -0.0535(4) 0.44982(5)
H9A H 0.3039 -0.0988 0.4465
H10A H 0.2082 -0.0844 0.4475
C14A C 0.2922(3) -0.0439(4) 0.46566(5)
C15A C 0.2106(4) -0.1105(6) 0.47412(5)
H11A H 0.1488 -0.1573 0.4700
C16A C 0.2206(5) -0.1076(7) 0.48841(6)
H12A H 0.1665 -0.1542 0.4940
C17A C 0.3121(4) -0.0348(6) 0.49476(5)
C18A C 0.3927(4) 0.0328(6) 0.48645(6)
H13A H 0.4538 0.0811 0.4906
C19A C 0.3820(4) 0.0280(6) 0.47195(5)
H14A H 0.4362 0.0740 0.4664
C20A C 0.3224(5) -0.0322(7) 0.50993(6)
N1B N 0.8705(4) 0.7963(3) 0.44773(4)
N2B N 1.0181(4) 0.7751(3) 0.44723(4)
N3B N 1.0071(4) 0.6214(3) 0.44135(4)
N4B N 0.9729(4) 0.4534(3) 0.44112(4)
N5B N 0.9543(4) 0.2916(3) 0.44237(4)
N6B N 1.0304(8) 0.3606(5) 0.52182(5)
C3B C 0.9586(4) 0.6766(3) 0.44317(4)
C4B C 0.9695(4) 0.8266(3) 0.44935(5)
H1B H 1.0103 0.8937 0.4524
C5B C 0.8114(4) 0.6970(3) 0.44357(4)
C6B C 0.8534(4) 0.6347(3) 0.44133(4)
H2B H 0.8124 0.5667 0.4387
C7B C 1.1061(6) 0.6554(4) 0.44824(7)
H3B H 1.1540 0.7239 0.4453
H4B H 1.1314 0.6107 0.4457
H5B H 1.0975 0.6539 0.4583
C8B C 0.9589(4) 0.5241(3) 0.43479(4)
C9B C 0.9044(4) 0.5062(3) 0.42229(5)
H6B H 0.8967 0.5573 0.4180
C10B C 0.8622(4) 0.4096(3) 0.41647(4)
H7B H 0.8254 0.3951 0.4081
C11B C 0.8744(4) 0.3347(3) 0.42296(4)
H8B H 0.8454 0.2692 0.4192
C12B C 0.9314(4) 0.3603(3) 0.43532(4)
C13B C 1.0535(4) 0.3337(3) 0.44982(5)
H9B H 1.0988 0.4027 0.4465
H10B H 1.0844 0.2926 0.4475
C14B C 1.0439(4) 0.3361(3) 0.46566(5)
C15B C 1.1105(6) 0.3211(5) 0.47412(5)
H11B H 1.1573 0.3061 0.4700
C16B C 1.1076(7) 0.3282(5) 0.48841(6)
H12B H 1.1542 0.3207 0.4940
C17B C 1.0348(6) 0.3469(4) 0.49476(5)
C18B C 0.9672(6) 0.3599(5) 0.48645(6)
H13B H 0.9189 0.3727 0.4906
C19B C 0.9720(6) 0.3540(5) 0.47195(5)
H14B H 0.9260 0.3622 0.4664
C20B C 1.0322(7) 0.3546(5) 0.50993(6)
C21 C 0.6109(19) 0.384(2) 0.5831(2)
H15 H 0.5754 0.4194 0.5823
C21P C 0.5602(28) 0.283(2) 0.5836(2)
H15P H 0.4893 0.2473 0.5844
C21Q C 0.7224(19) 0.4398(28) 0.5836(2)
H15Q H 0.7579 0.5107 0.5844
C21A C 0.616(2) 0.2269(28) 0.5831(2)
H15A H 0.5806 0.1560 0.5823
C21B C 0.7731(28) 0.3891(19) 0.5831(2)
H15B H 0.8440 0.4246 0.5823
C21O C 0.717(2) 0.2776(19) 0.5836(2)
H15O H 0.7527 0.2421 0.5844
loop_
_geom_bond_atom_site_label_1
_geom_bond_atom_site_label_2
_geom_bond_site_symmetry_1
_geom_bond_site_symmetry_2
Cl1 C1 1_555 1_555
Cl2 C1 1_555 1_555
C1 Cl1A 1_555 1_555
Cl3 C2 1_555 1_555
Cl4 C2 1_555 1_555
C2 Cl3A 1_555 1_555
N1 C4 1_555 1_555
N2 C3 1_555 1_555
N3 C3 1_555 1_555
N4 C8 1_555 1_555
N5 C12 1_555 1_555
N6 C20 1_555 1_555
C3 C6 1_555 1_555
C4 N2 1_555 1_555
H1 C4 1_555 1_555
C5 N1 1_555 1_555
C6 C5 1_555 1_555
H2 C6 1_555 1_555
C7 N3 1_555 1_555
H3 C7 1_555 1_555
H4 C7 1_555 1_555
H5 C7 1_555 1_555
C8 N3 1_555 1_555
C9 C8 1_555 1_555
H6 C9 1_555 1_555
C10 C9 1_555 1_555
H7 C10 1_555 1_555
C11 C10 1_555 1_555
H8 C11 1_555 1_555
C12 N4 1_555 1_555
C13 N5 1_555 1_555
H9 C13 1_555 1_555
H10 C13 1_555 1_555
C14 C13 1_555 1_555
C15 C14 1_555 1_555
H11 C15 1_555 1_555
C16 C15 1_555 1_555
H12 C16 1_555 1_555
C17 C16 1_555 1_555
C18 C17 1_555 1_555
H13 C18 1_555 1_555
C19 C14 1_555 1_555
H14 C19 1_555 1_555
C20 C17 1_555 1_555
C21 H15 1_555 1_555
Cl1B C1 1_555 1_555
Cl3B C2 1_555 1_555
N1A C4A 1_555 1_555
N2A C3A 1_555 1_555
N3A C3A 1_555 1_555
N4A C8A 1_555 1_555
N5A C5 1_555 1_555
N6A C20A 1_555 1_555
C3A C6A 1_555 1_555
C4A N2A 1_555 1_555
H1A C4A 1_555 1_555
C5A N1A 1_555 1_555
C6A C5A 1_555 1_555
H2A C6A 1_555 1_555
C7A N3A 1_555 1_555
H3A C7A 1_555 1_555
H4A C7A 1_555 1_555
H5A C7A 1_555 1_555
C8A N3A 1_555 1_555
C9A C8A 1_555 1_555
H6A C9A 1_555 1_555
C10A C9A 1_555 1_555
H7A C10A 1_555 1_555
C11A C10A 1_555 1_555
H8A C11A 1_555 1_555
C12A N4A 1_555 1_555
C13A N5A 1_555 1_555
H9A C13A 1_555 1_555
H10A C13A 1_555 1_555
C14A C13A 1_555 1_555
C15A C14A 1_555 1_555
H11A C15A 1_555 1_555
C16A C15A 1_555 1_555
H12A C16A 1_555 1_555
C17A C16A 1_555 1_555
C18A C17A 1_555 1_555
H13A C18A 1_555 1_555
C19A C14A 1_555 1_555
H14A C19A 1_555 1_555
C20A C17A 1_555 1_555
N1B C4B 1_555 1_555
N2B C3B 1_555 1_555
N3B C3B 1_555 1_555
N4B C8B 1_555 1_555
N5B C5A 1_555 1_555
N6B C20B 1_555 1_555
C3B C6B 1_555 1_555
C4B N2B 1_555 1_555
H1B C4B 1_555 1_555
C5B N5 1_555 1_555
C6B C5B 1_555 1_555
H2B C6B 1_555 1_555
C7B N3B 1_555 1_555
H3B C7B 1_555 1_555
H4B C7B 1_555 1_555
H5B C7B 1_555 1_555
C8B N3B 1_555 1_555
C9B C8B 1_555 1_555
H6B C9B 1_555 1_555
C10B C9B 1_555 1_555
H7B C10B 1_555 1_555
C11B C10B 1_555 1_555
H8B C11B 1_555 1_555
C12B N4B 1_555 1_555
C13B N5B 1_555 1_555
H9B C13B 1_555 1_555
H10B C13B 1_555 1_555
C14B C13B 1_555 1_555
C15B C14B 1_555 1_555
H11B C15B 1_555 1_555
C16B C15B 1_555 1_555
H12B C16B 1_555 1_555
C17B C16B 1_555 1_555
C18B C17B 1_555 1_555
H13B C18B 1_555 1_555
C19B C14B 1_555 1_555
H14B C19B 1_555 1_555
C20B C17B 1_555 1_555
C21P C21 1_555 1_555
H15P C21P 1_555 1_555
C21Q C21 1_555 1_555
H15Q C21Q 1_555 1_555
C21A C21P 1_555 1_555
H15A C21A 1_555 1_555
C21B C21Q 1_555 1_555
H15B C21B 1_555 1_555
C21O C21A 1_555 1_555
H15O C21O 1_555 1_555
C11 C12 1_555 1_555
C18 C19 1_555 1_555
N5A C12A 1_555 1_555
C11A C12A 1_555 1_555
C18A C19A 1_555 1_555
N1B C5B 1_555 1_555
N5B C12B 1_555 1_555
C11B C12B 1_555 1_555
C18B C19B 1_555 1_555
C21B C21O 1_555 1_555

#END
