
#######################################################################
#
#                 Cambridge Crystallographic Data Centre
#                                CCDC 
#
#######################################################################
#
# If this CIF has been generated from an entry in the Cambridge 
# Structural Database, then it will include bibliographic, chemical, 
# crystal, experimental, refinement or atomic coordinate data resulting 
# from the CCDC's data processing and validation procedures.
#
#######################################################################

data_BODCOO
_chemical_formula_moiety         'C45 H45 N15,0.5(C70)'
_chemical_name_systematic        
'2,8,14,20,26,32-Hexa-allyl-2,4,6,8,14,16,18,20,26,28,30,32,37,39,41-pentadeca-azaheptacyclo[31.3.1.1^3,7^.1^9,13^.1^15,19^.1^21,25^.1^27,31^]dotetraconta-1(37),3(42),4,6,9(41),10,12,15(40),16,18,21(39),22,24,27(38),28,30,33,35-octadecaene hemikis(C70fullerene) unknown solvate'
_symmetry_cell_setting           triclinic
_symmetry_space_group_name_H-M   'P -1'
_symmetry_Int_Tables_number      2
_space_group_name_Hall           '-P 1'
loop_
_symmetry_equiv_pos_site_id
_symmetry_equiv_pos_as_xyz
1 x,y,z
2 -x,-y,-z
_cell_length_a                   15.391(3)
_cell_length_b                   18.883(4)
_cell_length_c                   23.094(5)
_cell_angle_alpha                77.42(3)
_cell_angle_beta                 87.51(3)
_cell_angle_gamma                86.78(3)
_cell_volume                     6536.94
_exptl_crystal_colour            black
_exptl_crystal_description       Platelet
_cell_formula_units_Z            4
loop_
_atom_site_label
_atom_site_type_symbol
_atom_site_fract_x
_atom_site_fract_y
_atom_site_fract_z
N1 N 0.7931(3) -0.1503(2) 0.51574(17)
N2 N 0.6451(3) -0.1696(2) 0.52249(17)
N3 N 0.4990(3) -0.1935(2) 0.52046(18)
N4 N 0.4003(2) -0.1217(2) 0.45194(17)
N5 N 0.4464(2) -0.0229(2) 0.38088(18)
N6 N 0.5157(3) 0.0471(2) 0.29809(18)
N7 N 0.5738(3) 0.1113(2) 0.20971(17)
N8 N 0.6346(3) 0.1720(3) 0.11899(19)
N9 N 0.7884(3) 0.1922(2) 0.1076(2)
N10 N 0.8829(3) 0.1490(3) 0.1844(2)
N11 N 0.9644(3) 0.0725(2) 0.25760(18)
N12 N 1.0566(3) -0.0038(2) 0.32525(18)
N13 N 1.1438(3) -0.0839(2) 0.38974(18)
N14 N 1.0889(3) -0.1511(2) 0.4833(2)
N15 N 0.9428(3) -0.1431(2) 0.51261(19)
C1 C 0.8619(3) -0.1071(3) 0.5093(2)
C2 C 0.8510(3) -0.0329(3) 0.5034(2)
H1 H 0.9000 -0.0034 0.4980
C3 C 0.7673(3) -0.0023(3) 0.5053(2)
H2 H 0.7587 0.0486 0.5017
C4 C 0.6949(3) -0.0462(3) 0.5127(2)
H3 H 0.6370 -0.0266 0.5154
C5 C 0.7131(3) -0.1208(3) 0.5157(2)
C6 C 0.6663(4) -0.2465(3) 0.5513(2)
H4 H 0.7212 -0.2629 0.5333
H5 H 0.6196 -0.2769 0.5437
C7 C 0.6759(4) -0.2571(4) 0.6164(3)
H6 H 0.6972 -0.3041 0.6357
C8 C 0.6590(4) -0.2107(4) 0.6513(3)
H7 H 0.6374 -0.1627 0.6350
H8 H 0.6684 -0.2254 0.6926
C9 C 0.5652(3) -0.1508(2) 0.4988(2)
C10 C 0.5493(3) -0.0912(3) 0.4504(2)
H9 H 0.5951 -0.0609 0.4333
C11 C 0.4667(3) -0.0779(3) 0.42836(19)
C12 C 0.4241(3) -0.1771(3) 0.4961(2)
H10 H 0.3794 -0.2092 0.5119
C13 C 0.3664(3) -0.0212(3) 0.3481(2)
H11 H 0.3547 0.0287 0.3246
H12 H 0.3170 -0.0331 0.3768
C14 C 0.3708(4) -0.0724(4) 0.3077(3)
H13 H 0.4163 -0.0640 0.2782
C15 C 0.3258(5) -0.1244(5) 0.3053(4)
H14 H 0.2789 -0.1368 0.3331
H15 H 0.3385 -0.1518 0.2757
C16 C 0.5071(3) 0.0317(3) 0.3558(2)
C17 C 0.5488(3) 0.0677(3) 0.3922(2)
H16 H 0.5422 0.0540 0.4342
C18 C 0.6010(3) 0.1248(3) 0.3650(2)
H17 H 0.6284 0.1528 0.3879
C19 C 0.6113(3) 0.1392(3) 0.3037(2)
H18 H 0.6479 0.1765 0.2840
C20 C 0.5677(3) 0.0989(3) 0.2707(2)
C21 C 0.4997(3) 0.0930(3) 0.1784(2)
H19 H 0.5177 0.0964 0.1363
H20 H 0.4864 0.0418 0.1955
C22 C 0.4208(4) 0.1378(4) 0.1808(3)
H21 H 0.3690 0.1201 0.1694
C23 C 0.4131(5) 0.2011(4) 0.1972(3)
H22 H 0.4629 0.2213 0.2090
H23 H 0.3579 0.2263 0.1971
C24 C 0.6468(3) 0.1390(3) 0.1772(2)
C25 C 0.7307(3) 0.1287(3) 0.2004(2)
H24 H 0.7397 0.1029 0.2400
C26 C 0.7994(3) 0.1571(3) 0.1642(2)
C27 C 0.7094(3) 0.1965(3) 0.0893(2)
H25 H 0.7026 0.2204 0.0490
C28 C 0.9589(4) 0.1528(3) 0.1419(2)
H26 H 1.0122 0.1578 0.1629
H27 H 0.9511 0.1967 0.1098
C29 C 0.9712(4) 0.0870(3) 0.1147(3)
H28 H 0.9777 0.0410 0.1412
C30 C 0.9737(5) 0.0874(5) 0.0585(3)
H29 H 0.9675 0.1321 0.0303
H30 H 0.9817 0.0431 0.0455
C31 C 0.9025(3) 0.1238(3) 0.2450(2)
C32 C 0.8593(3) 0.1568(3) 0.2894(2)
H31 H 0.8134 0.1926 0.2791
C33 C 0.8848(4) 0.1361(3) 0.3464(2)
H32 H 0.8576 0.1580 0.3763
C34 C 0.9510(4) 0.0826(3) 0.3609(2)
H33 H 0.9699 0.0670 0.4005
C35 C 0.9889(3) 0.0524(3) 0.3142(2)
C36 C 1.1168(3) -0.0086(3) 0.2764(2)
H34 H 1.1513 -0.0552 0.2872
H35 H 1.0825 -0.0110 0.2417
C37 C 1.1768(4) 0.0486(4) 0.2580(3)
H36 H 1.2103 0.0477 0.2226
C38 C 1.1903(6) 0.0997(5) 0.2833(5)
H37 H 1.1589 0.1035 0.3189
H38 H 1.2319 0.1344 0.2667
C39 C 1.0644(3) -0.0531(3) 0.3789(2)
C40 C 0.9928(3) -0.0708(3) 0.4174(2)
H39 H 0.9362 -0.0499 0.4082
C41 C 1.0095(3) -0.1217(3) 0.4710(2)
C42 C 1.1504(3) -0.1315(3) 0.4408(2)
H40 H 1.2062 -0.1551 0.4483
C43 C 0.9543(3) -0.2141(3) 0.5547(2)
H41 H 0.9112 -0.2167 0.5880
H42 H 1.0132 -0.2186 0.5711
C44 C 0.9430(4) -0.2758(4) 0.5245(3)
H43 H 0.8879 -0.2774 0.5080
C45 C 0.9967(7) -0.3240(6) 0.5189(4)
H44 H 1.0530 -0.3252 0.5345
H45 H 0.9822 -0.3605 0.4989
N16 N 1.4453(3) 0.3459(2) 0.00625(17)
N17 N 1.2942(3) 0.3380(2) 0.00811(17)
N18 N 1.1463(3) 0.3170(2) 0.01530(18)
N19 N 1.0003(3) 0.2944(2) 0.01237(17)
N20 N 0.9007(3) 0.3772(2) -0.05023(18)
N21 N 0.9469(3) 0.4810(2) -0.11473(18)
N22 N 1.0180(2) 0.5562(2) -0.19382(17)
N23 N 1.0782(3) 0.6270(2) -0.27953(18)
N24 N 1.1400(3) 0.6891(2) -0.36767(17)
N25 N 1.2944(3) 0.7118(2) -0.37800(18)
N26 N 1.3876(3) 0.6700(2) -0.30033(19)
N27 N 1.4704(3) 0.5914(2) -0.22951(18)
N28 N 1.5618(3) 0.5143(2) -0.16719(17)
N29 N 1.6496(3) 0.4252(2) -0.10676(19)
N30 N 1.5912(3) 0.3435(2) -0.0198(2)
C46 C 1.4594(3) 0.2724(3) 0.0439(2)
H46 H 1.4110 0.2630 0.0738
H47 H 1.5140 0.2706 0.0654
C47 C 1.4651(4) 0.2128(3) 0.0089(2)
H48 H 1.5101 0.2156 -0.0208
C48 C 1.4163(5) 0.1601(4) 0.0152(3)
H49 H 1.3702 0.1548 0.0443
H50 H 1.4256 0.1257 -0.0092
C49 C 1.3595(3) 0.3818(3) 0.0064(2)
C50 C 1.3495(3) 0.4539(3) 0.0070(2)
H51 H 1.3984 0.4832 0.0039
C51 C 1.2658(3) 0.4827(3) 0.0124(2)
H52 H 1.2566 0.5323 0.0144
C52 C 1.1969(3) 0.4406(3) 0.0148(2)
H53 H 1.1389 0.4598 0.0182
C53 C 1.2146(3) 0.3669(3) 0.0123(2)
C54 C 1.1657(3) 0.2397(3) 0.0392(2)
H54 H 1.2218 0.2251 0.0215
H55 H 1.1199 0.2114 0.0273
C55 C 1.1710(4) 0.2210(3) 0.1050(2)
H56 H 1.1934 0.1738 0.1229
C56 C 1.1463(4) 0.2665(4) 0.1412(3)
H57 H 1.1236 0.3142 0.1250
H58 H 1.1516 0.2507 0.1829
C57 C 1.0639(3) 0.3406(3) -0.0081(2)
C58 C 1.0516(3) 0.4046(3) -0.0506(2)
H59 H 1.0980 0.4355 -0.0652
C59 C 0.9665(3) 0.4209(3) -0.0708(2)
C60 C 0.9217(3) 0.3183(3) -0.0101(2)
H60 H 0.8748 0.2883 0.0052
C61 C 0.8675(3) 0.4848(3) -0.1489(2)
H61 H 0.8535 0.5360 -0.1684
H62 H 0.8183 0.4675 -0.1214
C62 C 0.8782(4) 0.4391(4) -0.1959(3)
H63 H 0.9223 0.4506 -0.2260
C63 C 0.8301(5) 0.3853(4) -0.1968(3)
H64 H 0.7855 0.3726 -0.1671
H65 H 0.8393 0.3585 -0.2270
C64 C 1.0085(3) 0.5361(3) -0.1358(2)
C65 C 1.0504(3) 0.5683(3) -0.0968(2)
H66 H 1.0427 0.5522 -0.0550
C66 C 1.1038(4) 0.6245(3) -0.1206(2)
H67 H 1.1331 0.6484 -0.0954
C67 C 1.1139(3) 0.6458(3) -0.1823(2)
H68 H 1.1502 0.6843 -0.1998
C68 C 1.0702(3) 0.6096(3) -0.2174(2)
C69 C 1.0049(3) 0.6094(3) -0.3125(2)
H69 H 1.0240 0.6139 -0.3546
H70 H 0.9914 0.5581 -0.2964
C70 C 0.9253(4) 0.6543(4) -0.3103(3)
H71 H 0.8742 0.6373 -0.3233
C71 C 0.9166(5) 0.7143(4) -0.2928(3)
H72 H 0.9656 0.7339 -0.2793
H73 H 0.8612 0.7393 -0.2933
C72 C 1.1518(3) 0.6567(3) -0.3116(2)
C73 C 1.2341(3) 0.6452(2) -0.2855(2)
H74 H 1.2415 0.6180 -0.2462
C74 C 1.3033(3) 0.6761(3) -0.3206(2)
C75 C 1.2119(3) 0.7151(3) -0.3978(2)
H75 H 1.2044 0.7389 -0.4381
C76 C 1.4631(3) 0.6770(3) -0.3428(2)
H76 H 1.4529 0.7211 -0.3744
H77 H 1.5155 0.6840 -0.3217
C77 C 1.4804(4) 0.6157(3) -0.3702(3)
H78 H 1.4941 0.5705 -0.3442
C78 C 1.4794(5) 0.6152(4) -0.4256(3)
H79 H 1.4661 0.6589 -0.4537
H80 H 1.4920 0.5712 -0.4386
C79 C 1.4054(3) 0.6420(3) -0.2400(2)
C80 C 1.3610(4) 0.6699(3) -0.1952(2)
H81 H 1.3143 0.7054 -0.2037
C81 C 1.3884(3) 0.6431(3) -0.1374(2)
H82 H 1.3610 0.6616 -0.1057
C82 C 1.4519(3) 0.5925(3) -0.1261(2)
H83 H 1.4689 0.5734 -0.0865
C83 C 1.4945(3) 0.5669(3) -0.1740(2)
C84 C 1.6229(3) 0.5145(3) -0.2166(2)
H84 H 1.5901 0.5181 -0.2531
H85 H 1.6574 0.4677 -0.2095
C85 C 1.6847(4) 0.5760(4) -0.2264(3)
H86 H 1.7189 0.5834 -0.2623
C86 C 1.6953(5) 0.6166(5) -0.1939(5)
H87 H 1.6629 0.6117 -0.1575
H88 H 1.7362 0.6535 -0.2048
C87 C 1.5697(3) 0.4581(3) -0.1152(2)
C88 C 1.4986(3) 0.4352(3) -0.0802(2)
H89 H 1.4424 0.4579 -0.0881
C89 C 1.5128(3) 0.3758(3) -0.0311(2)
C90 C 1.6553(4) 0.3706(3) -0.0592(2)
H90 H 1.7115 0.3477 -0.0520
C91 C 0.5243(5) 0.7683(5) 0.3214(4)
C92 C 0.5773(5) 0.8104(4) 0.3438(3)
C93 C 0.6363(4) 0.7718(3) 0.3922(2)
C94 C 0.6368(4) 0.6933(4) 0.4105(3)
C95 C 0.5726(4) 0.6562(4) 0.3859(3)
C96 C 0.5187(4) 0.6944(4) 0.3423(3)
C97 C 0.4986(5) 0.6614(5) 0.2937(3)
C98 C 0.5382(5) 0.5923(5) 0.2905(4)
C99 C 0.5943(6) 0.5575(4) 0.3322(4)
C100 C 0.6134(5) 0.5888(4) 0.3807(3)
C101 C 0.5723(5) 0.5796(5) 0.2350(4)
C102 C 0.5674(5) 0.6349(4) 0.1853(4)
C103 C 0.5278(5) 0.7018(5) 0.1884(3)
C104 C 0.4934(5) 0.7181(5) 0.2413(4)
C105 C 0.5082(4) 0.7850(4) 0.2559(3)
C106 C 0.5484(4) 0.8437(4) 0.2184(3)
C107 C 0.5837(5) 0.8330(4) 0.1579(3)
C108 C 0.5751(4) 0.7645(4) 0.1471(3)
C109 C 0.6463(5) 0.7280(4) 0.1205(3)
C110 C 0.7260(4) 0.7610(4) 0.1033(2)
C111 C 0.7272(4) 0.8352(4) 0.1051(3)
C112 C 0.6542(5) 0.8728(4) 0.1341(3)
C113 C 0.6939(4) 0.9255(4) 0.1587(3)
C114 C 0.6572(4) 0.9353(3) 0.2129(3)
C115 C 0.5866(5) 0.8925(4) 0.2434(4)
C116 C 0.6037(4) 0.8766(3) 0.3093(3)
C117 C 0.6829(5) 0.9107(4) 0.3159(3)
C118 C 0.7175(6) 0.9464(4) 0.2582(3)
C119 C 0.8043(6) 0.9465(4) 0.2467(4)
C120 C 0.8414(5) 0.9351(4) 0.1909(4)
C121 C 0.7827(5) 0.9266(4) 0.1507(3)
C122 C 0.8090(5) 0.8671(4) 0.1135(3)
C123 C 0.8786(6) 0.8263(5) 0.1233(3)
C124 C 0.9415(5) 0.8352(5) 0.1681(4)
C125 C 0.9232(5) 0.8915(4) 0.2001(4)
C126 C 0.9366(5) 0.8755(4) 0.2669(4)
C127 C 0.9703(4) 0.8033(4) 0.2921(3)
C128 C 0.9919(4) 0.7543(4) 0.2574(3)
C129 C 0.9764(5) 0.7662(4) 0.1948(3)
C130 C 0.9392(4) 0.7085(4) 0.1718(3)
C131 C 0.8788(5) 0.7478(4) 0.1247(3)
C132 C 0.8052(4) 0.7170(4) 0.1132(3)
C133 C 0.8000(5) 0.6416(4) 0.1414(3)
C134 C 0.8556(4) 0.6046(4) 0.1850(3)
C135 C 0.9196(4) 0.6401(4) 0.2027(3)
C136 C 0.9343(5) 0.6264(4) 0.2723(3)
C137 C 0.8879(4) 0.5753(4) 0.3047(3)
C138 C 0.8246(5) 0.5332(4) 0.2845(4)
C139 C 0.8088(5) 0.5451(4) 0.2275(3)
C140 C 0.7228(5) 0.5491(4) 0.2032(3)
C141 C 0.7181(5) 0.6079(4) 0.1527(3)
C142 C 0.6435(5) 0.6500(4) 0.1404(3)
C143 C 0.6517(5) 0.5338(4) 0.2444(4)
C144 C 0.6679(5) 0.5195(4) 0.3064(3)
C145 C 0.7511(5) 0.5178(3) 0.3277(3)
C146 C 0.7730(6) 0.5551(5) 0.3751(4)
C147 C 0.7051(5) 0.5852(4) 0.4030(3)
C148 C 0.7155(5) 0.6512(4) 0.4206(3)
C149 C 0.7987(4) 0.6850(3) 0.4122(2)
C150 C 0.8675(4) 0.6489(3) 0.3849(3)
C151 C 0.8487(5) 0.5861(4) 0.3653(3)
C152 C 0.9660(5) 0.6786(5) 0.2927(4)
C153 C 0.9320(4) 0.6923(4) 0.3497(3)
C154 C 0.9332(4) 0.7675(4) 0.3463(3)
C155 C 0.7981(4) 0.7625(4) 0.4045(3)
C156 C 0.8651(4) 0.8004(4) 0.3758(3)
C157 C 0.8341(5) 0.8742(4) 0.3464(3)
C158 C 0.7371(5) 0.8739(4) 0.3588(3)
C159 C 0.7153(4) 0.8055(3) 0.3944(2)
C160 C 0.8686(6) 0.9092(5) 0.2922(4)
loop_
_geom_bond_atom_site_label_1
_geom_bond_atom_site_label_2
_geom_bond_site_symmetry_1
_geom_bond_site_symmetry_2
N1 C1 1_555 1_555
N2 C5 1_555 1_555
N3 C9 1_555 1_555
N4 C11 1_555 1_555
N5 C11 1_555 1_555
N6 C16 1_555 1_555
N7 C20 1_555 1_555
N8 C24 1_555 1_555
N9 C26 1_555 1_555
N10 C26 1_555 1_555
N11 C31 1_555 1_555
N12 C35 1_555 1_555
N13 C39 1_555 1_555
N14 C41 1_555 1_555
N15 C1 1_555 1_555
C1 C2 1_555 1_555
C2 H1 1_555 1_555
C3 C2 1_555 1_555
H2 C3 1_555 1_555
C4 C3 1_555 1_555
H3 C4 1_555 1_555
C5 N1 1_555 1_555
C6 N2 1_555 1_555
H4 C6 1_555 1_555
H5 C6 1_555 1_555
C7 C6 1_555 1_555
H6 C7 1_555 1_555
C8 C7 1_555 1_555
H7 C8 1_555 1_555
H8 C8 1_555 1_555
C9 N2 1_555 1_555
C10 C9 1_555 1_555
H9 C10 1_555 1_555
C11 C10 1_555 1_555
C12 N3 1_555 1_555
H10 C12 1_555 1_555
C13 N5 1_555 1_555
H11 C13 1_555 1_555
H12 C13 1_555 1_555
C14 C13 1_555 1_555
H13 C14 1_555 1_555
C15 C14 1_555 1_555
H14 C15 1_555 1_555
H15 C15 1_555 1_555
C16 N5 1_555 1_555
C17 C16 1_555 1_555
H16 C17 1_555 1_555
C18 C17 1_555 1_555
H17 C18 1_555 1_555
C19 C18 1_555 1_555
H18 C19 1_555 1_555
C20 N6 1_555 1_555
C21 N7 1_555 1_555
H19 C21 1_555 1_555
H20 C21 1_555 1_555
C22 C21 1_555 1_555
H21 C22 1_555 1_555
C23 C22 1_555 1_555
H22 C23 1_555 1_555
H23 C23 1_555 1_555
C24 N7 1_555 1_555
C25 C24 1_555 1_555
H24 C25 1_555 1_555
C26 C25 1_555 1_555
C27 N8 1_555 1_555
H25 C27 1_555 1_555
C28 N10 1_555 1_555
H26 C28 1_555 1_555
H27 C28 1_555 1_555
C29 C28 1_555 1_555
H28 C29 1_555 1_555
C30 C29 1_555 1_555
H29 C30 1_555 1_555
H30 C30 1_555 1_555
C31 N10 1_555 1_555
C32 C31 1_555 1_555
H31 C32 1_555 1_555
C33 C32 1_555 1_555
H32 C33 1_555 1_555
C34 C33 1_555 1_555
H33 C34 1_555 1_555
C35 N11 1_555 1_555
C36 N12 1_555 1_555
H34 C36 1_555 1_555
H35 C36 1_555 1_555
C37 C36 1_555 1_555
H36 C37 1_555 1_555
C38 C37 1_555 1_555
H37 C38 1_555 1_555
H38 C38 1_555 1_555
C39 N12 1_555 1_555
C40 C39 1_555 1_555
H39 C40 1_555 1_555
C41 N15 1_555 1_555
C42 N13 1_555 1_555
H40 C42 1_555 1_555
C43 N15 1_555 1_555
H41 C43 1_555 1_555
H42 C43 1_555 1_555
C44 C43 1_555 1_555
H43 C44 1_555 1_555
C45 C44 1_555 1_555
H44 C45 1_555 1_555
H45 C45 1_555 1_555
N16 C46 1_555 1_555
N17 C49 1_555 1_555
N18 C53 1_555 1_555
N19 C57 1_555 1_555
N20 C59 1_555 1_555
N21 C59 1_555 1_555
N22 C64 1_555 1_555
N23 C68 1_555 1_555
N24 C72 1_555 1_555
N25 C74 1_555 1_555
N26 C74 1_555 1_555
N27 C79 1_555 1_555
N28 C83 1_555 1_555
N29 C87 1_555 1_555
N30 C89 1_555 1_555
C46 H46 1_555 1_555
H47 C46 1_555 1_555
C47 C46 1_555 1_555
H48 C47 1_555 1_555
C48 C47 1_555 1_555
H49 C48 1_555 1_555
H50 C48 1_555 1_555
C49 N16 1_555 1_555
C50 C49 1_555 1_555
H51 C50 1_555 1_555
C51 C50 1_555 1_555
H52 C51 1_555 1_555
C52 C51 1_555 1_555
H53 C52 1_555 1_555
C53 N17 1_555 1_555
C54 N18 1_555 1_555
H54 C54 1_555 1_555
H55 C54 1_555 1_555
C55 C54 1_555 1_555
H56 C55 1_555 1_555
C56 C55 1_555 1_555
H57 C56 1_555 1_555
H58 C56 1_555 1_555
C57 N18 1_555 1_555
C58 C57 1_555 1_555
H59 C58 1_555 1_555
C59 C58 1_555 1_555
C60 N19 1_555 1_555
H60 C60 1_555 1_555
C61 N21 1_555 1_555
H61 C61 1_555 1_555
H62 C61 1_555 1_555
C62 C61 1_555 1_555
H63 C62 1_555 1_555
C63 C62 1_555 1_555
H64 C63 1_555 1_555
H65 C63 1_555 1_555
C64 N21 1_555 1_555
C65 C64 1_555 1_555
H66 C65 1_555 1_555
C66 C65 1_555 1_555
H67 C66 1_555 1_555
C67 C66 1_555 1_555
H68 C67 1_555 1_555
C68 N22 1_555 1_555
C69 N23 1_555 1_555
H69 C69 1_555 1_555
H70 C69 1_555 1_555
C70 C69 1_555 1_555
H71 C70 1_555 1_555
C71 C70 1_555 1_555
H72 C71 1_555 1_555
H73 C71 1_555 1_555
C72 N23 1_555 1_555
C73 C72 1_555 1_555
H74 C73 1_555 1_555
C74 C73 1_555 1_555
C75 N24 1_555 1_555
H75 C75 1_555 1_555
C76 N26 1_555 1_555
H76 C76 1_555 1_555
H77 C76 1_555 1_555
C77 C76 1_555 1_555
H78 C77 1_555 1_555
C78 C77 1_555 1_555
H79 C78 1_555 1_555
H80 C78 1_555 1_555
C79 N26 1_555 1_555
C80 C79 1_555 1_555
H81 C80 1_555 1_555
C81 C80 1_555 1_555
H82 C81 1_555 1_555
C82 C81 1_555 1_555
H83 C82 1_555 1_555
C83 N27 1_555 1_555
C84 N28 1_555 1_555
H84 C84 1_555 1_555
H85 C84 1_555 1_555
C85 C84 1_555 1_555
H86 C85 1_555 1_555
C86 C85 1_555 1_555
H87 C86 1_555 1_555
H88 C86 1_555 1_555
C87 N28 1_555 1_555
C88 C87 1_555 1_555
H89 C88 1_555 1_555
C89 N16 1_555 1_555
C90 N29 1_555 1_555
H90 C90 1_555 1_555
C91 C92 1_555 1_555
C92 C93 1_555 1_555
C93 C94 1_555 1_555
C94 C95 1_555 1_555
C95 C96 1_555 1_555
C96 C91 1_555 1_555
C97 C96 1_555 1_555
C98 C97 1_555 1_555
C99 C98 1_555 1_555
C100 C95 1_555 1_555
C101 C98 1_555 1_555
C102 C101 1_555 1_555
C103 C102 1_555 1_555
C104 C97 1_555 1_555
C105 C91 1_555 1_555
C106 C105 1_555 1_555
C107 C106 1_555 1_555
C108 C103 1_555 1_555
C109 C108 1_555 1_555
C110 C109 1_555 1_555
C111 C110 1_555 1_555
C112 C107 1_555 1_555
C113 C112 1_555 1_555
C114 C113 1_555 1_555
C115 C106 1_555 1_555
C116 C92 1_555 1_555
C117 C116 1_555 1_555
C118 C114 1_555 1_555
C119 C118 1_555 1_555
C120 C119 1_555 1_555
C121 C113 1_555 1_555
C122 C111 1_555 1_555
C123 C122 1_555 1_555
C124 C123 1_555 1_555
C125 C120 1_555 1_555
C126 C125 1_555 1_555
C127 C126 1_555 1_555
C128 C127 1_555 1_555
C129 C124 1_555 1_555
C130 C129 1_555 1_555
C131 C123 1_555 1_555
C132 C110 1_555 1_555
C133 C132 1_555 1_555
C134 C133 1_555 1_555
C135 C130 1_555 1_555
C136 C135 1_555 1_555
C137 C136 1_555 1_555
C138 C137 1_555 1_555
C139 C134 1_555 1_555
C140 C139 1_555 1_555
C141 C133 1_555 1_555
C142 C102 1_555 1_555
C143 C101 1_555 1_555
C144 C99 1_555 1_555
C145 C138 1_555 1_555
C146 C145 1_555 1_555
C147 C100 1_555 1_555
C148 C94 1_555 1_555
C149 C148 1_555 1_555
C150 C149 1_555 1_555
C151 C137 1_555 1_555
C152 C128 1_555 1_555
C153 C150 1_555 1_555
C154 C127 1_555 1_555
C155 C149 1_555 1_555
C156 C154 1_555 1_555
C157 C156 1_555 1_555
C158 C117 1_555 1_555
C159 C93 1_555 1_555
C160 C119 1_555 1_555
N4 C12 1_555 1_555
N9 C27 1_555 1_555
N14 C42 1_555 1_555
C4 C5 1_555 1_555
C19 C20 1_555 1_555
C34 C35 1_555 1_555
C40 C41 1_555 1_555
N20 C60 1_555 1_555
N25 C75 1_555 1_555
N30 C90 1_555 1_555
C52 C53 1_555 1_555
C67 C68 1_555 1_555
C82 C83 1_555 1_555
C88 C89 1_555 1_555
C99 C100 1_555 1_555
C103 C104 1_555 1_555
C104 C105 1_555 1_555
C107 C108 1_555 1_555
C109 C142 1_555 1_555
C111 C112 1_555 1_555
C114 C115 1_555 1_555
C115 C116 1_555 1_555
C117 C118 1_555 1_555
C120 C121 1_555 1_555
C121 C122 1_555 1_555
C124 C125 1_555 1_555
C126 C160 1_555 1_555
C128 C129 1_555 1_555
C130 C131 1_555 1_555
C131 C132 1_555 1_555
C134 C135 1_555 1_555
C136 C152 1_555 1_555
C138 C139 1_555 1_555
C140 C141 1_555 1_555
C140 C143 1_555 1_555
C141 C142 1_555 1_555
C143 C144 1_555 1_555
C144 C145 1_555 1_555
C146 C147 1_555 1_555
C146 C151 1_555 1_555
C147 C148 1_555 1_555
C150 C151 1_555 1_555
C152 C153 1_555 1_555
C153 C154 1_555 1_555
C155 C156 1_555 1_555
C155 C159 1_555 1_555
C157 C158 1_555 1_555
C157 C160 1_555 1_555
C158 C159 1_555 1_555

#END
