
#######################################################################
#
#                 Cambridge Crystallographic Data Centre
#                                CCDC 
#
#######################################################################
#
# If this CIF has been generated from an entry in the Cambridge 
# Structural Database, then it will include bibliographic, chemical, 
# crystal, experimental, refinement or atomic coordinate data resulting 
# from the CCDC's data processing and validation procedures.
#
#######################################################################

data_BODCUU
_chemical_formula_moiety         'C45 H45 N15,0.5(C60)'
_chemical_name_systematic        
'2,8,14,20,26,32-Hexa-allyl-2,4,6,8,14,16,18,20,26,28,30,32,37,39,41-pentadeca-azaheptacyclo[31.3.1.1^3,7^.1^9,13^.1^15,19^.1^21,25^.1^27,31^]dotetraconta-1(37),3(42),4,6,9(41),10,12,15(40),16,18,21(39),22,24,27(38),28,30,33,35-octadecaene hemikis(C60fullerene)'
_symmetry_cell_setting           rhombohedral
_symmetry_space_group_name_H-M   'R -3'
_symmetry_Int_Tables_number      148
_space_group_name_Hall           '-R 3'
loop_
_symmetry_equiv_pos_site_id
_symmetry_equiv_pos_as_xyz
1 x,y,z
2 -y,x-y,z
3 -x+y,-x,z
4 2/3+x,1/3+y,1/3+z
5 2/3-y,1/3+x-y,1/3+z
6 2/3-x+y,1/3-x,1/3+z
7 1/3+x,2/3+y,2/3+z
8 1/3-y,2/3+x-y,2/3+z
9 1/3-x+y,2/3-x,2/3+z
10 -x,-y,-z
11 y,-x+y,-z
12 x-y,x,-z
13 1/3-x,2/3-y,2/3-z
14 1/3+y,2/3-x+y,2/3-z
15 1/3+x-y,2/3+x,2/3-z
16 2/3-x,1/3-y,1/3-z
17 2/3+y,1/3-x+y,1/3-z
18 2/3+x-y,1/3+x,1/3-z
_cell_length_a                   15.319(2)
_cell_length_b                   15.319(2)
_cell_length_c                   44.673(9)
_cell_angle_alpha                90
_cell_angle_beta                 90
_cell_angle_gamma                120
_cell_volume                     9078.97
_exptl_crystal_colour            brown
_exptl_crystal_description       block
_cell_formula_units_Z            6
loop_
_atom_site_label
_atom_site_type_symbol
_atom_site_fract_x
_atom_site_fract_y
_atom_site_fract_z
N1 N 0.63610(10) 0.85184(10) 0.05288(3)
N2 N 0.62667(10) 0.99862(10) 0.05118(3)
N3 N 0.59608(11) 1.12796(11) 0.06361(4)
N4 N 0.42793(11) 1.10029(11) 0.06794(3)
N5 N 0.28652(11) 0.94548(10) 0.05768(3)
C1 C 0.61769(13) 0.76351(13) 0.04143(4)
C2 C 0.56452(14) 0.72470(14) 0.01480(4)
H1 H 0.5549 0.6631 0.0067
C3 C 0.52628(15) 0.77836(14) 0.00052(4)
H2 H 0.4884 0.7531 -0.0174
C4 C 0.54327(14) 0.86909(14) 0.01239(4)
H3 H 0.5172 0.9068 0.0029
C5 C 0.59962(13) 0.90327(12) 0.03855(4)
C6 C 0.72970(13) 1.05883(13) 0.06351(4)
H4 H 0.7539 1.1311 0.0599
H5 H 0.7751 1.0412 0.0526
C7 C 0.7364(5) 1.0432(4) 0.09606(13)
H6 H 0.7202 0.9778 0.1026
C8 C 0.7636(3) 1.1145(3) 0.11647(8)
H7 H 0.7803 1.1808 0.1107
H8 H 0.7664 1.0996 0.1370
C9 C 0.55791(13) 1.03056(12) 0.05544(4)
C10 C 0.45413(13) 0.96585(12) 0.05267(4)
H9 H 0.4275 0.8977 0.0467
C11 C 0.39113(13) 1.00421(12) 0.05892(4)
C12 C 0.52770(14) 1.15472(13) 0.06962(4)
H10 H 0.5540 1.2224 0.0760
C13 C 0.22516(14) 0.97176(14) 0.07667(4)
H11 H 0.2684 1.0271 0.0906
H12 H 0.1767 0.9127 0.0886
C14 C 0.1597(7) 1.0031(8) 0.0632(4)
H13 H 0.1130 1.0101 0.0755
C15 C 0.1624(11) 1.0220(10) 0.0347(4)
H14 H 0.2086 1.0154 0.0221
H15 H 0.1182 1.0425 0.0266
N1A N 0.14816(10) 0.78426(14) 0.05288(3)
N2A N 0.00138(10) 0.62805(14) 0.05118(3)
N3A N -0.12796(11) 0.46812(16) 0.06361(4)
N4A N -0.10029(11) 0.32764(16) 0.06794(3)
N5A N 0.05452(10) 0.34104(15) 0.05768(3)
C1A C 0.23649(13) 0.85418(18) 0.04143(4)
C2A C 0.27530(14) 0.83982(20) 0.01480(4)
H1A H 0.3369 0.8918 0.0067
C3A C 0.22164(14) 0.74792(21) 0.00052(4)
H2A H 0.2469 0.7353 -0.0174
C4A C 0.13091(14) 0.67418(20) 0.01239(4)
H3A H 0.0932 0.6104 0.0029
C5A C 0.09673(12) 0.69635(18) 0.03855(4)
C6A C -0.05883(13) 0.67087(18) 0.06351(4)
H4A H -0.1311 0.6228 0.0599
H5A H -0.0412 0.7339 0.0526
C7A C -0.0432(4) 0.6932(6) 0.09606(13)
H6A H 0.0222 0.7424 0.1026
C8A C -0.1145(3) 0.6491(4) 0.11647(8)
H7A H -0.1808 0.5995 0.1107
H8A H -0.0996 0.6668 0.1370
C9A C -0.03056(12) 0.52735(18) 0.05544(4)
C10A C 0.03415(12) 0.48828(18) 0.05267(4)
H9A H 0.1023 0.5298 0.0467
C11A C -0.00421(12) 0.38692(18) 0.05892(4)
C12A C -0.15472(13) 0.37298(19) 0.06962(4)
H10A H -0.2224 0.3316 0.0760
C13A C 0.02824(14) 0.25340(20) 0.07667(4)
H11A H -0.0271 0.2413 0.0906
H12A H 0.0873 0.2640 0.0886
C14A C -0.0031(8) 0.1566(11) 0.0632(4)
H13A H -0.0101 0.1029 0.0755
C15A C -0.0220(10) 0.1404(15) 0.0347(4)
H14A H -0.0154 0.1932 0.0221
H15A H -0.0425 0.0757 0.0266
N1B N 0.21574(14) 0.36390(10) 0.05288(3)
N2B N 0.37195(14) 0.37333(10) 0.05118(3)
N3B N 0.53188(16) 0.40392(11) 0.06361(4)
N4B N 0.67236(16) 0.57207(11) 0.06794(3)
N5B N 0.65896(15) 0.71348(11) 0.05768(3)
C1B C 0.14582(18) 0.38231(13) 0.04143(4)
C2B C 0.16018(20) 0.43548(14) 0.01480(4)
H1B H 0.1082 0.4451 0.0067
C3B C 0.25208(21) 0.47372(15) 0.00052(4)
H2B H 0.2647 0.5116 -0.0174
C4B C 0.32582(20) 0.45673(14) 0.01239(4)
H3B H 0.3896 0.4828 0.0029
C5B C 0.30365(18) 0.40038(13) 0.03855(4)
C6B C 0.32913(18) 0.27030(13) 0.06351(4)
H4B H 0.3772 0.2461 0.0599
H5B H 0.2661 0.2249 0.0526
C7B C 0.3068(6) 0.2636(5) 0.09606(13)
H6B H 0.2576 0.2798 0.1026
C8B C 0.3509(4) 0.2364(3) 0.11647(8)
H7B H 0.4005 0.2197 0.1107
H8B H 0.3332 0.2336 0.1370
C9B C 0.47265(18) 0.44209(13) 0.05544(4)
C10B C 0.51172(18) 0.54587(13) 0.05267(4)
H9B H 0.4702 0.5725 0.0467
C11B C 0.61308(18) 0.60887(13) 0.05892(4)
C12B C 0.62702(19) 0.47230(14) 0.06962(4)
H10B H 0.6684 0.4460 0.0760
C13B C 0.74660(20) 0.77484(14) 0.07667(4)
H11B H 0.7587 0.7316 0.0906
H12B H 0.7360 0.8233 0.0886
C14B C 0.8434(11) 0.8403(7) 0.0632(4)
H13B H 0.8971 0.8870 0.0755
C15B C 0.8596(15) 0.8376(11) 0.0347(4)
H14B H 0.8068 0.7914 0.0221
H15B H 0.9243 0.8818 0.0266
C20 C 0.47935(13) 0.90254(12) 0.13068(4)
C21 C 0.38005(13) 0.89226(12) 0.13071(4)
C22 C 0.35731(14) 0.90869(12) 0.16114(4)
C23 C 0.25946(14) 0.85160(13) 0.17220(4)
C24 C 0.18046(13) 0.77595(13) 0.15348(4)
C25 C 0.20242(13) 0.76022(13) 0.12443(4)
C26 C 0.15995(13) 0.65874(14) 0.11285(4)
C27 C 0.23560(13) 0.65519(13) 0.09410(3)
C28 C 0.32439(14) 0.75441(13) 0.09410(3)
C29 C 0.30394(13) 0.81967(13) 0.11286(4)
C20A C 0.09746(12) 0.57681(18) 0.13068(4)
C21A C 0.10774(12) 0.48779(18) 0.13071(4)
C22A C 0.09131(12) 0.44862(18) 0.16114(4)
C23A C 0.14840(13) 0.40786(19) 0.17220(4)
C24A C 0.22405(13) 0.40451(18) 0.15348(4)
C25A C 0.23978(13) 0.44220(18) 0.12443(4)
C26A C 0.34126(14) 0.50121(19) 0.11285(4)
C27A C 0.34481(13) 0.58041(18) 0.09410(3)
C28A C 0.24559(13) 0.56998(19) 0.09410(3)
C29A C 0.18033(13) 0.48427(18) 0.11286(4)
C20B C 0.42319(18) 0.52065(13) 0.13068(4)
C21B C 0.51221(18) 0.61995(13) 0.13071(4)
C22B C 0.55138(18) 0.64269(14) 0.16114(4)
C23B C 0.59214(19) 0.74054(14) 0.17220(4)
C24B C 0.59549(18) 0.81954(13) 0.15348(4)
C25B C 0.55780(18) 0.79758(13) 0.12443(4)
C26B C 0.49879(19) 0.84005(13) 0.11285(4)
C27B C 0.41959(18) 0.76440(13) 0.09410(3)
C28B C 0.43002(19) 0.67561(14) 0.09410(3)
C29B C 0.51573(18) 0.69606(13) 0.11286(4)
C20O C 0.18732(13) 0.43079(12) 0.20265(4)
C21O C 0.28662(13) 0.44107(12) 0.20262(4)
C22O C 0.30936(14) 0.42464(12) 0.17219(4)
C23O C 0.40721(14) 0.48173(13) 0.16113(4)
C24O C 0.48621(13) 0.55738(13) 0.17985(4)
C25O C 0.46425(13) 0.57311(13) 0.20890(4)
C26O C 0.50672(13) 0.67459(14) 0.22048(4)
C27O C 0.43107(13) 0.67814(13) 0.23923(3)
C28O C 0.34228(14) 0.57892(13) 0.23923(3)
C29O C 0.36273(13) 0.51366(13) 0.22047(4)
C20P C 0.56921(12) 0.75652(18) 0.20265(4)
C21P C 0.55893(12) 0.84554(18) 0.20262(4)
C22P C 0.57536(12) 0.88471(18) 0.17219(4)
C23P C 0.51827(13) 0.92547(19) 0.16113(4)
C24P C 0.44262(13) 0.92882(18) 0.17985(4)
C25P C 0.42689(13) 0.89113(18) 0.20890(4)
C26P C 0.32541(14) 0.83212(19) 0.22048(4)
C27P C 0.32186(13) 0.75292(18) 0.23923(3)
C28P C 0.42108(13) 0.76335(19) 0.23923(3)
C29P C 0.48634(13) 0.84906(18) 0.22047(4)
C20Q C 0.24348(18) 0.81268(13) 0.20265(4)
C21Q C 0.15446(18) 0.71338(13) 0.20262(4)
C22Q C 0.11529(18) 0.69064(14) 0.17219(4)
C23Q C 0.07453(19) 0.59279(14) 0.16113(4)
C24Q C 0.07118(18) 0.51379(13) 0.17985(4)
C25Q C 0.10887(18) 0.53575(13) 0.20890(4)
C26Q C 0.16788(19) 0.49328(13) 0.22048(4)
C27Q C 0.24708(18) 0.56893(13) 0.23923(3)
C28Q C 0.23665(19) 0.65772(14) 0.23923(3)
C29Q C 0.15094(18) 0.63727(13) 0.22047(4)
C16? C 0.7312(13) 1.0649(12) 0.0975(3)
H16? H 0.6919 1.0884 0.1074
C17? C 0.7866(6) 1.0377(7) 0.1136(2)
H17? H 0.8260 1.0141 0.1039
H18? H 0.7868 1.0419 0.1348
C18? C 0.1676(11) 1.0062(11) 0.0547(5)
H19? H 0.1143 1.0113 0.0638
C19? C 0.1800(16) 1.0291(15) 0.0261(5)
H20? H 0.2316 1.0261 0.0152
H21? H 0.1374 1.0487 0.0164
loop_
_geom_bond_atom_site_label_1
_geom_bond_atom_site_label_2
_geom_bond_site_symmetry_1
_geom_bond_site_symmetry_2
N1 C1 1_555 1_555
N2 C5 1_555 1_555
N3 C9 1_555 1_555
N4 C11 1_555 1_555
N5 C11 1_555 1_555
C1 C2 1_555 1_555
C2 H1 1_555 1_555
C3 C2 1_555 1_555
H2 C3 1_555 1_555
C4 C3 1_555 1_555
H3 C4 1_555 1_555
C5 N1 1_555 1_555
C6 N2 1_555 1_555
H4 C6 1_555 1_555
H5 C6 1_555 1_555
C7 C6 1_555 1_555
H6 C7 1_555 1_555
C8 C7 1_555 1_555
H7 C8 1_555 1_555
H8 C8 1_555 1_555
C9 N2 1_555 1_555
C10 C9 1_555 1_555
H9 C10 1_555 1_555
C11 C10 1_555 1_555
C12 N3 1_555 1_555
H10 C12 1_555 1_555
C13 N5 1_555 1_555
H11 C13 1_555 1_555
H12 C13 1_555 1_555
C14 C13 1_555 1_555
H13 C14 1_555 1_555
C15 C14 1_555 1_555
H14 C15 1_555 1_555
H15 C15 1_555 1_555
C20 C21 1_555 1_555
C21 C22 1_555 1_555
C22 C23 1_555 1_555
C23 C24 1_555 1_555
C24 C25 1_555 1_555
C25 C26 1_555 1_555
C26 C27 1_555 1_555
C27 C28 1_555 1_555
C28 C29 1_555 1_555
C29 C21 1_555 1_555
N1A C1A 1_555 1_555
N2A C5A 1_555 1_555
N3A C9A 1_555 1_555
N4A C11A 1_555 1_555
N5A C11A 1_555 1_555
C1A N5 1_555 1_555
C2A C1A 1_555 1_555
H1A C2A 1_555 1_555
C3A C2A 1_555 1_555
H2A C3A 1_555 1_555
C4A C3A 1_555 1_555
H3A C4A 1_555 1_555
C5A N1A 1_555 1_555
C6A N2A 1_555 1_555
H4A C6A 1_555 1_555
H5A C6A 1_555 1_555
C7A C6A 1_555 1_555
H6A C7A 1_555 1_555
C8A C7A 1_555 1_555
H7A C8A 1_555 1_555
H8A C8A 1_555 1_555
C9A N2A 1_555 1_555
C10A C9A 1_555 1_555
H9A C10A 1_555 1_555
C11A C10A 1_555 1_555
C12A N3A 1_555 1_555
H10A C12A 1_555 1_555
C13A N5A 1_555 1_555
H11A C13A 1_555 1_555
H12A C13A 1_555 1_555
C14A C13A 1_555 1_555
H13A C14A 1_555 1_555
C15A C14A 1_555 1_555
H14A C15A 1_555 1_555
H15A C15A 1_555 1_555
N1B C1B 1_555 1_555
N2B C5B 1_555 1_555
N3B C9B 1_555 1_555
N4B C11B 1_555 1_555
N5B C1 1_555 1_555
C1B N5A 1_555 1_555
C2B C1B 1_555 1_555
H1B C2B 1_555 1_555
C3B C2B 1_555 1_555
H2B C3B 1_555 1_555
C4B C3B 1_555 1_555
H3B C4B 1_555 1_555
C5B N1B 1_555 1_555
C6B N2B 1_555 1_555
H4B C6B 1_555 1_555
H5B C6B 1_555 1_555
C7B C6B 1_555 1_555
H6B C7B 1_555 1_555
C8B C7B 1_555 1_555
H7B C8B 1_555 1_555
H8B C8B 1_555 1_555
C9B N2B 1_555 1_555
C10B C9B 1_555 1_555
H9B C10B 1_555 1_555
C11B N5B 1_555 1_555
C12B N3B 1_555 1_555
H10B C12B 1_555 1_555
C13B N5B 1_555 1_555
H11B C13B 1_555 1_555
H12B C13B 1_555 1_555
C14B C13B 1_555 1_555
H13B C14B 1_555 1_555
C15B C14B 1_555 1_555
H14B C15B 1_555 1_555
H15B C15B 1_555 1_555
C20A C26 1_555 1_555
C21A C20A 1_555 1_555
C22A C21A 1_555 1_555
C23A C22A 1_555 1_555
C24A C23A 1_555 1_555
C25A C24A 1_555 1_555
C26A C25A 1_555 1_555
C27A C26A 1_555 1_555
C28A C27 1_555 1_555
C29A C21A 1_555 1_555
C20B C26A 1_555 1_555
C21B C20B 1_555 1_555
C22B C21B 1_555 1_555
C23B C22B 1_555 1_555
C24B C23B 1_555 1_555
C25B C24B 1_555 1_555
C26B C20 1_555 1_555
C27B C28 1_555 1_555
C28B C27A 1_555 1_555
C29B C21B 1_555 1_555
C20O C23A 1_555 1_555
C21O C20O 1_555 1_555
C22O C24A 1_555 1_555
C23O C20B 1_555 1_555
C24O C22B 1_555 1_555
C25O C24O 1_555 1_555
C26O C25O 1_555 1_555
C27O C26O 1_555 1_555
C28O C27O 1_555 1_555
C29O C21O 1_555 1_555
C20P C23B 1_555 1_555
C21P C20P 1_555 1_555
C22P C24B 1_555 1_555
C23P C20 1_555 1_555
C24P C22 1_555 1_555
C25P C24P 1_555 1_555
C26P C25P 1_555 1_555
C27P C26P 1_555 1_555
C28P C27O 1_555 1_555
C29P C21P 1_555 1_555
C20Q C23 1_555 1_555
C21Q C20Q 1_555 1_555
C22Q C24 1_555 1_555
C23Q C20A 1_555 1_555
C24Q C22A 1_555 1_555
C25Q C24Q 1_555 1_555
C26Q C20O 1_555 1_555
C27Q C28O 1_555 1_555
C28Q C27P 1_555 1_555
C29Q C21Q 1_555 1_555
N4 C12 1_555 1_555
C4 C5 1_555 1_555
C25 C29 1_555 1_555
N4A C12A 1_555 1_555
C4A C5A 1_555 1_555
N4B C12B 1_555 1_555
C4B C5B 1_555 1_555
C10B C11B 1_555 1_555
C25A C29A 1_555 1_555
C27A C28A 1_555 1_555
C28A C29A 1_555 1_555
C25B C26B 1_555 1_555
C25B C29B 1_555 1_555
C26B C27B 1_555 1_555
C27B C28B 1_555 1_555
C28B C29B 1_555 1_555
C21O C22O 1_555 1_555
C22O C23O 1_555 1_555
C23O C24O 1_555 1_555
C25O C29O 1_555 1_555
C26O C20P 1_555 1_555
C28O C29O 1_555 1_555
C21P C22P 1_555 1_555
C22P C23P 1_555 1_555
C23P C24P 1_555 1_555
C25P C29P 1_555 1_555
C26P C20Q 1_555 1_555
C27P C28P 1_555 1_555
C28P C29P 1_555 1_555
C21Q C22Q 1_555 1_555
C22Q C23Q 1_555 1_555
C23Q C24Q 1_555 1_555
C25Q C26Q 1_555 1_555
C25Q C29Q 1_555 1_555
C26Q C27Q 1_555 1_555
C27Q C28Q 1_555 1_555
C28Q C29Q 1_555 1_555

#END
