
#######################################################################
#
#                 Cambridge Crystallographic Data Centre
#                                CCDC 
#
#######################################################################
#
# If this CIF has been generated from an entry in the Cambridge 
# Structural Database, then it will include bibliographic, chemical, 
# crystal, experimental, refinement or atomic coordinate data resulting 
# from the CCDC's data processing and validation procedures.
#
#######################################################################

data_BODCAA
_chemical_formula_moiety         'C36 H42 N18'
_chemical_name_systematic        
2,8,14,20,26,32-Hexaethyl-2,4,6,8,10,12,14,16,18,20,22,24,26,28,30,32,34,36-octadeca-azaheptacyclo[31.3.1.1^3,7^.1^9,13^.1^15,19^.1^21,25^.1^27,31^]dotetraconta-1(37),3(42),4,6,9(41),10,12,15(40),16,18,21(39),22,24,27(38),28,30,33,35-octadecaene
_symmetry_cell_setting           monoclinic
_symmetry_space_group_name_H-M   'P 21/n'
_symmetry_Int_Tables_number      14
_space_group_name_Hall           '-P 2yn'
loop_
_symmetry_equiv_pos_site_id
_symmetry_equiv_pos_as_xyz
1 x,y,z
2 1/2-x,1/2+y,1/2-z
3 -x,-y,-z
4 1/2+x,1/2-y,1/2+z
_cell_length_a                   11.0322(8)
_cell_length_b                   16.8447(10)
_cell_length_c                   19.9205(13)
_cell_angle_alpha                90
_cell_angle_beta                 105.315(3)
_cell_angle_gamma                90
_cell_volume                     3570.45
_exptl_crystal_colour            colorless
_exptl_crystal_description       prism
_cell_formula_units_Z            4
loop_
_atom_site_label
_atom_site_type_symbol
_atom_site_fract_x
_atom_site_fract_y
_atom_site_fract_z
N1 N 0.34998(16) 0.36571(10) 0.08533(9)
N2 N 0.44351(17) 0.39686(10) -0.00680(9)
N3 N 0.65508(17) 0.42046(10) 0.01074(8)
N4 N 0.87046(18) 0.40479(11) 0.02758(10)
N5 N 1.02113(17) 0.47549(11) 0.11577(10)
N6 N 0.96459(15) 0.56718(10) 0.18813(8)
N7 N 0.71872(16) 0.73624(10) 0.22666(9)
N8 N 0.80711(16) 0.66335(10) 0.14757(8)
N9 N 0.77915(15) 0.71218(10) 0.34575(8)
N10 N 0.98943(16) 0.69912(10) 0.41108(9)
N11 N 1.04108(16) 0.65123(11) 0.52850(9)
N12 N 0.75144(17) 0.53040(11) 0.62647(9)
N13 N 0.6123(2) 0.43234(14) 0.56200(10)
N14 N 0.64604(18) 0.49115(11) 0.36854(9)
N15 N 0.58388(16) 0.46676(10) 0.24535(8)
N16 N 0.46731(15) 0.35423(10) 0.20021(8)
C1 C 0.46350(18) 0.37460(11) 0.13086(9)
C2 C 0.3486(2) 0.37738(12) 0.01926(10)
H1 H 0.2694 0.3709 -0.0137
C3 C 0.55597(19) 0.40609(11) 0.03963(10)
C4 C 0.56987(19) 0.39600(11) 0.11101(10)
H2 H 0.6485 0.4035 0.1442
C5 C 0.77747(19) 0.44051(11) 0.04923(10)
C6 C 0.9857(2) 0.42440(13) 0.06321(12)
H3 H 1.0519 0.3986 0.0495
C7 C 0.92700(19) 0.51306(11) 0.13441(10)
C8 C 0.80092(19) 0.49550(11) 0.10251(10)
H4 H 0.7345 0.5203 0.1168
C9 C 0.88208(17) 0.62492(11) 0.20228(10)
C10 C 0.88177(18) 0.64154(11) 0.26988(10)
H5 H 0.9379 0.6155 0.3079
C11 C 0.79598(18) 0.69809(11) 0.28054(10)
C12 C 0.7309(2) 0.71662(13) 0.16388(10)
H6 H 0.6780 0.7445 0.1258
C13 C 0.86721(18) 0.68646(11) 0.40673(10)
C14 C 1.0676(2) 0.68193(12) 0.47198(10)
H7 H 1.1538 0.6927 0.4762
C15 C 0.91884(19) 0.63451(13) 0.52105(10)
C16 C 0.82780(19) 0.65258(13) 0.46019(10)
H8 H 0.7414 0.6419 0.4556
C17 C 0.79640(18) 0.54234(13) 0.57095(10)
C18 C 0.6639(2) 0.47487(15) 0.61811(11)
H9 H 0.6341 0.4641 0.6577
C19 C 0.6582(2) 0.44555(14) 0.50658(11)
C20 C 0.7559(2) 0.49793(13) 0.51027(10)
H10 H 0.7939 0.5034 0.4729
C21 C 0.5999(2) 0.42005(14) 0.37971(11)
C22 C 0.54518(19) 0.36962(12) 0.32496(10)
H11 H 0.5161 0.3184 0.3332
C23 C 0.53430(18) 0.39687(11) 0.25729(10)
C24 C 0.6370(2) 0.50825(13) 0.30217(11)
H12 H 0.6739 0.5572 0.2943
C25 C 0.6323(2) 0.41302(13) -0.06572(10)
H13 H 0.7018 0.4391 -0.0802
H14 H 0.5535 0.4410 -0.0888
C26 C 0.6227(3) 0.32741(14) -0.08968(12)
H15 H 0.6003 0.3256 -0.1407
H16 H 0.5578 0.3003 -0.0729
H17 H 0.7037 0.3009 -0.0710
C27 C 1.09885(19) 0.57214(15) 0.22555(12)
H18 H 1.1346 0.5179 0.2325
H19 H 1.1072 0.5959 0.2720
C28 C 1.1726(3) 0.62109(19) 0.18678(16)
H20 H 1.2604 0.6245 0.2142
H21 H 1.1367 0.6746 0.1790
H22 H 1.1687 0.5961 0.1418
C29 C 0.6667(2) 0.75517(13) 0.35304(11)
H23 H 0.6535 0.8022 0.3221
H24 H 0.6826 0.7745 0.4015
C30 C 0.5474(2) 0.70589(16) 0.33583(13)
H25 H 0.4783 0.7373 0.3445
H26 H 0.5601 0.6583 0.3651
H27 H 0.5266 0.6902 0.2867
N17 N 0.8865(2) 0.60351(17) 0.57880(11)
C31 C 0.9623(2) 0.62617(14) 0.64912(13)
H28 H 0.9064 0.6298 0.6805
H29 H 0.9989 0.6794 0.6467
C32 C 1.0663(3) 0.56894(18) 0.67940(16)
H30 H 1.1209 0.5912 0.7223
H31 H 1.1156 0.5595 0.6458
H32 H 1.0306 0.5187 0.6899
N18 N 0.6259(5) 0.3894(3) 0.4488(3)
C33 C 0.5791(4) 0.3101(3) 0.4635(2)
H33 H 0.6247 0.2940 0.5113
H34 H 0.5992 0.2709 0.4309
C34 C 0.4391(4) 0.3068(3) 0.4570(2)
H35 H 0.4169 0.2540 0.4707
H36 H 0.3926 0.3172 0.4086
H37 H 0.4172 0.3470 0.4873
C35 C 0.37627(19) 0.29413(12) 0.20986(10)
H38 H 0.4188 0.2574 0.2475
H39 H 0.3476 0.2628 0.1665
C36 C 0.2628(2) 0.32993(15) 0.22792(12)
H40 H 0.2085 0.2873 0.2368
H41 H 0.2158 0.3626 0.1890
H42 H 0.2907 0.3630 0.2696
N19? N 0.9134(15) 0.5694(11) 0.5728(8)
C37? C 1.0101(15) 0.5600(10) 0.6389(8)
H43? H 1.0935 0.5575 0.6291
H44? H 0.9964 0.5088 0.6601
C38? C 1.012(2) 0.6242(13) 0.6898(12)
H45? H 1.0521 0.6049 0.7369
H46? H 0.9258 0.6408 0.6872
H47? H 1.0596 0.6695 0.6792
H48? H 0.9729 0.6720 0.6653
H49? H 1.0992 0.6360 0.7150
H50? H 0.9654 0.6073 0.7229
N20? N 0.5797(5) 0.4093(3) 0.4469(3)
C39? C 0.4885(4) 0.3474(3) 0.4556(2)
H51? H 0.4233 0.3410 0.4111
H52? H 0.4463 0.3657 0.4910
C40? C 0.5488(5) 0.2674(3) 0.4777(3)
H53? H 0.4836 0.2287 0.4799
H54? H 0.6085 0.2722 0.5237
H55? H 0.5933 0.2496 0.4438
H56? H 1.0572 0.5217 0.6497
H57? H 1.0624 0.5534 0.7262
H58? H 1.1475 0.5943 0.6821
loop_
_geom_bond_atom_site_label_1
_geom_bond_atom_site_label_2
_geom_bond_site_symmetry_1
_geom_bond_site_symmetry_2
N1 C1 1_555 1_555
N2 C2 1_555 1_555
N3 C3 1_555 1_555
N4 C5 1_555 1_555
N5 C6 1_555 1_555
N6 C7 1_555 1_555
N7 C11 1_555 1_555
N8 C9 1_555 1_555
N9 C11 1_555 1_555
N10 C13 1_555 1_555
N11 C14 1_555 1_555
N12 C17 1_555 1_555
N13 C18 1_555 1_555
N14 C21 1_555 1_555
N15 C23 1_555 1_555
N16 C1 1_555 1_555
C1 C4 1_555 1_555
C2 N1 1_555 1_555
H1 C2 1_555 1_555
C3 N2 1_555 1_555
C4 C3 1_555 1_555
H2 C4 1_555 1_555
C5 N3 1_555 1_555
C6 N4 1_555 1_555
H3 C6 1_555 1_555
C7 N5 1_555 1_555
C8 C5 1_555 1_555
H4 C8 1_555 1_555
C9 N6 1_555 1_555
C10 C9 1_555 1_555
H5 C10 1_555 1_555
C11 C10 1_555 1_555
C12 N7 1_555 1_555
H6 C12 1_555 1_555
C13 N9 1_555 1_555
C14 N10 1_555 1_555
H7 C14 1_555 1_555
C15 N11 1_555 1_555
C16 C13 1_555 1_555
H8 C16 1_555 1_555
C17 C20 1_555 1_555
C18 N12 1_555 1_555
H9 C18 1_555 1_555
C19 N13 1_555 1_555
C20 C19 1_555 1_555
H10 C20 1_555 1_555
C21 C22 1_555 1_555
C22 H11 1_555 1_555
C23 N16 1_555 1_555
C24 N14 1_555 1_555
H12 C24 1_555 1_555
C25 N3 1_555 1_555
H13 C25 1_555 1_555
H14 C25 1_555 1_555
C26 C25 1_555 1_555
H15 C26 1_555 1_555
H16 C26 1_555 1_555
H17 C26 1_555 1_555
C27 N6 1_555 1_555
H18 C27 1_555 1_555
H19 C27 1_555 1_555
C28 C27 1_555 1_555
H20 C28 1_555 1_555
H21 C28 1_555 1_555
H22 C28 1_555 1_555
C29 N9 1_555 1_555
H23 C29 1_555 1_555
H24 C29 1_555 1_555
C30 C29 1_555 1_555
H25 C30 1_555 1_555
H26 C30 1_555 1_555
H27 C30 1_555 1_555
N17 C15 1_555 1_555
C31 N17 1_555 1_555
H28 C31 1_555 1_555
H29 C31 1_555 1_555
C32 C31 1_555 1_555
H30 C32 1_555 1_555
H31 C32 1_555 1_555
H32 C32 1_555 1_555
N18 C19 1_555 1_555
C33 N18 1_555 1_555
H33 C33 1_555 1_555
H34 C33 1_555 1_555
C34 C33 1_555 1_555
H35 C34 1_555 1_555
H36 C34 1_555 1_555
H37 C34 1_555 1_555
C35 N16 1_555 1_555
H38 C35 1_555 1_555
H39 C35 1_555 1_555
C36 C35 1_555 1_555
H40 C36 1_555 1_555
H41 C36 1_555 1_555
H42 C36 1_555 1_555
N8 C12 1_555 1_555
N15 C24 1_555 1_555
C7 C8 1_555 1_555
C15 C16 1_555 1_555
C17 N17 1_555 1_555
C21 N18 1_555 1_555
C22 C23 1_555 1_555

#END
