
#######################################################################
#
#                 Cambridge Crystallographic Data Centre
#                                CCDC 
#
#######################################################################
#
# If this CIF has been generated from an entry in the Cambridge 
# Structural Database, then it will include bibliographic, chemical, 
# crystal, experimental, refinement or atomic coordinate data resulting 
# from the CCDC's data processing and validation procedures.
#
#######################################################################

data_BODDUV
_chemical_formula_moiety         'C42 H42 N6'
_chemical_name_systematic        
2,8,14,20,26,32-Hexamethyl-2,8,14,20,26,32-hexaazaheptacyclo[31.3.1.1^3,7^.1^9,13^.1^15,19^.1^21,25^.1^27,31^]dotetraconta-1(37),3(42),4,6,9(41),10,12,15(40),16,18,21(39),22,24,27(38),28,30,33,35-octadecaene
_symmetry_cell_setting           monoclinic
_symmetry_space_group_name_H-M   'P 21/c'
_symmetry_Int_Tables_number      14
_space_group_name_Hall           '-P 2ybc'
loop_
_symmetry_equiv_pos_site_id
_symmetry_equiv_pos_as_xyz
1 x,y,z
2 -x,1/2+y,1/2-z
3 -x,-y,-z
4 x,1/2-y,1/2+z
_cell_length_a                   11.366(2)
_cell_length_b                   15.991(3)
_cell_length_c                   9.6640(19)
_cell_angle_alpha                90
_cell_angle_beta                 110.578(3)
_cell_angle_gamma                90
_cell_volume                     1644.4
_exptl_crystal_colour            colorless
_exptl_crystal_description       block
_cell_formula_units_Z            2
loop_
_atom_site_label
_atom_site_type_symbol
_atom_site_fract_x
_atom_site_fract_y
_atom_site_fract_z
N1 N 0.35960(13) 0.18371(8) 0.57400(17)
N2 N 0.80361(13) 0.25935(9) 0.76805(16)
N3 N 0.67830(13) 0.51549(8) 0.48559(16)
C1 C 0.19423(16) 0.40941(11) 0.6339(2)
H1 H 0.1555 0.4603 0.6456
C2 C 0.16316(17) 0.33481(12) 0.6846(2)
H2 H 0.1023 0.3347 0.7314
C3 C 0.21862(16) 0.26051(11) 0.66872(19)
H3 H 0.1960 0.2102 0.7052
C4 C 0.30792(15) 0.25854(10) 0.59931(18)
C5 C 0.29947(18) 0.10576(11) 0.5865(2)
H4 H 0.2088 0.1102 0.5329
H5 H 0.3150 0.0939 0.6909
H6 H 0.3339 0.0604 0.5440
C6 C 0.48185(16) 0.17974(10) 0.56648(18)
C7 C 0.50433(17) 0.12754(11) 0.46312(19)
H7 H 0.4368 0.0980 0.3933
C8 C 0.62479(18) 0.11877(11) 0.4622(2)
H8 H 0.6398 0.0825 0.3924
C9 C 0.72397(17) 0.16213(11) 0.5616(2)
H9 H 0.8066 0.1555 0.5603
C10 C 0.70193(15) 0.21529(10) 0.66291(18)
C11 C 0.58119(15) 0.22370(10) 0.66616(18)
H10 H 0.5665 0.2596 0.7367
C12 C 0.90248(17) 0.20913(12) 0.8716(2)
H11 H 0.9210 0.2306 0.9720
H12 H 0.9783 0.2122 0.8457
H13 H 0.8746 0.1509 0.8667
C13 C 0.82542(14) 0.34305(10) 0.74654(18)
C14 C 0.92993(15) 0.38451(11) 0.84409(18)
H14 H 0.9857 0.3564 0.9282
C15 C 0.95124(16) 0.46709(11) 0.81662(18)
H15 H 1.0235 0.4946 0.8821
C16 C 0.87163(15) 0.51082(11) 0.69797(18)
H16 H 0.8890 0.5674 0.6821
C17 C 0.76461(14) 0.47092(10) 0.60065(17)
C18 C 0.74384(15) 0.38708(10) 0.62549(18)
H17 H 0.6727 0.3592 0.5587
C19 C 0.57584(17) 0.47207(11) 0.3748(2)
H18 H 0.5286 0.4394 0.4236
H19 H 0.6099 0.4345 0.3181
H20 H 0.5199 0.5130 0.3080
C20 C 0.71662(15) 0.59151(10) 0.43454(18)
C21 C 0.66121(15) 0.66544(10) 0.45243(18)
H21 H 0.6012 0.6650 0.5005
N1B N 0.64040(13) 0.81629(8) 0.42600(17)
N2B N 0.19639(13) 0.74065(9) 0.23195(16)
N3B N 0.32170(13) 0.48451(8) 0.51441(16)
C1B C 0.80577(16) 0.59059(11) 0.3661(2)
H1B H 0.8445 0.5397 0.3544
C2B C 0.83684(17) 0.66519(12) 0.3154(2)
H2B H 0.8977 0.6653 0.2686
C3B C 0.78138(16) 0.73949(11) 0.33128(19)
H3B H 0.8040 0.7898 0.2948
C4B C 0.69208(15) 0.74146(10) 0.40069(18)
C5B C 0.70053(18) 0.89424(11) 0.4135(2)
H4B H 0.7912 0.8898 0.4671
H5B H 0.6850 0.9061 0.3091
H6B H 0.6661 0.9396 0.4560
C6B C 0.51815(16) 0.82026(10) 0.43352(18)
C7B C 0.49567(17) 0.87246(11) 0.53688(19)
H7B H 0.5632 0.9020 0.6067
C8B C 0.37521(18) 0.88123(11) 0.5378(2)
H8B H 0.3602 0.9175 0.6076
C9B C 0.27603(17) 0.83787(11) 0.4384(2)
H9B H 0.1934 0.8445 0.4397
C10B C 0.29807(15) 0.78471(10) 0.33709(18)
C11B C 0.41881(15) 0.77630(10) 0.33384(18)
H10B H 0.4335 0.7404 0.2633
C12B C 0.09752(17) 0.79087(12) 0.1284(2)
H11B H 0.0790 0.7694 0.0280
H12B H 0.0217 0.7878 0.1543
H13B H 0.1254 0.8491 0.1333
C13B C 0.17458(14) 0.65695(10) 0.25346(18)
C14B C 0.07007(15) 0.61549(11) 0.15591(18)
H14B H 0.0143 0.6436 0.0718
C15B C 0.04876(16) 0.53291(11) 0.18338(18)
H15B H -0.0235 0.5054 0.1179
C16B C 0.12837(15) 0.48918(11) 0.30203(18)
H16B H 0.1110 0.4326 0.3179
C17B C 0.23539(14) 0.52908(10) 0.39935(17)
C18B C 0.25616(15) 0.61292(10) 0.37451(18)
H17B H 0.3273 0.6408 0.4413
C19B C 0.42416(17) 0.52793(11) 0.6252(2)
H18B H 0.4714 0.5606 0.5764
H19B H 0.3901 0.5655 0.6819
H20B H 0.4801 0.4870 0.6920
C20B C 0.28338(15) 0.40849(10) 0.56546(18)
C21B C 0.33879(15) 0.33456(10) 0.54757(18)
H21B H 0.3988 0.3350 0.4995
loop_
_geom_bond_atom_site_label_1
_geom_bond_atom_site_label_2
_geom_bond_site_symmetry_1
_geom_bond_site_symmetry_2
N1 C4 1_555 1_555
N2 C10 1_555 1_555
N3 C17 1_555 1_555
C1 H1 1_555 1_555
C2 C1 1_555 1_555
H2 C2 1_555 1_555
C3 C2 1_555 1_555
H3 C3 1_555 1_555
C4 C3 1_555 1_555
C5 N1 1_555 1_555
H4 C5 1_555 1_555
H5 C5 1_555 1_555
H6 C5 1_555 1_555
C6 N1 1_555 1_555
C7 C6 1_555 1_555
H7 C7 1_555 1_555
C8 C7 1_555 1_555
H8 C8 1_555 1_555
C9 C8 1_555 1_555
H9 C9 1_555 1_555
C10 C9 1_555 1_555
C11 C6 1_555 1_555
H10 C11 1_555 1_555
C12 N2 1_555 1_555
H11 C12 1_555 1_555
H12 C12 1_555 1_555
H13 C12 1_555 1_555
C13 N2 1_555 1_555
C14 C13 1_555 1_555
H14 C14 1_555 1_555
C15 C14 1_555 1_555
H15 C15 1_555 1_555
C16 C15 1_555 1_555
H16 C16 1_555 1_555
C17 C16 1_555 1_555
C18 C13 1_555 1_555
H17 C18 1_555 1_555
C19 N3 1_555 1_555
H18 C19 1_555 1_555
H19 C19 1_555 1_555
H20 C19 1_555 1_555
C20 N3 1_555 1_555
C21 C20 1_555 1_555
H21 C21 1_555 1_555
N1B C4B 1_555 1_555
N2B C10B 1_555 1_555
N3B C17B 1_555 1_555
C1B C20 1_555 1_555
H1B C1B 1_555 1_555
C2B C1B 1_555 1_555
H2B C2B 1_555 1_555
C3B C2B 1_555 1_555
H3B C3B 1_555 1_555
C4B C21 1_555 1_555
C5B N1B 1_555 1_555
H4B C5B 1_555 1_555
H5B C5B 1_555 1_555
H6B C5B 1_555 1_555
C6B N1B 1_555 1_555
C7B C6B 1_555 1_555
H7B C7B 1_555 1_555
C8B C7B 1_555 1_555
H8B C8B 1_555 1_555
C9B C8B 1_555 1_555
H9B C9B 1_555 1_555
C10B C9B 1_555 1_555
C11B C6B 1_555 1_555
H10B C11B 1_555 1_555
C12B N2B 1_555 1_555
H11B C12B 1_555 1_555
H12B C12B 1_555 1_555
H13B C12B 1_555 1_555
C13B N2B 1_555 1_555
C14B C13B 1_555 1_555
H14B C14B 1_555 1_555
C15B C14B 1_555 1_555
H15B C15B 1_555 1_555
C16B C15B 1_555 1_555
H16B C16B 1_555 1_555
C17B C16B 1_555 1_555
C18B C13B 1_555 1_555
H17B C18B 1_555 1_555
C19B N3B 1_555 1_555
H18B C19B 1_555 1_555
H19B C19B 1_555 1_555
H20B C19B 1_555 1_555
C20B C1 1_555 1_555
C21B C4 1_555 1_555
H21B C21B 1_555 1_555
C10 C11 1_555 1_555
C17 C18 1_555 1_555
N3B C20B 1_555 1_555
C3B C4B 1_555 1_555
C10B C11B 1_555 1_555
C17B C18B 1_555 1_555
C20B C21B 1_555 1_555

#END
