
#######################################################################
#
#                 Cambridge Crystallographic Data Centre
#                                CCDC 
#
#######################################################################
#
# If this CIF has been generated from an entry in the Cambridge 
# Structural Database, then it will include bibliographic, chemical, 
# crystal, experimental, refinement or atomic coordinate data resulting 
# from the CCDC's data processing and validation procedures.
#
#######################################################################

data_BODDOP
_chemical_formula_moiety         'C39 H39 N9'
_chemical_name_systematic        
2,8,14,20,26,32-Hexamethyl-2,8,14,20,26,32,37,39,41-nonaazaheptacyclo[31.3.1.1^3,7^.1^9,13^.1^15,19^.1^21,25^.1^27,31^]dotetraconta-1(37),3(42),4,6,9(41),10,12,15(40),16,18,21(39),22,24,27(38),28,30,33,35-octadecaene
_symmetry_cell_setting           monoclinic
_symmetry_space_group_name_H-M   'C m'
_symmetry_Int_Tables_number      8
_space_group_name_Hall           'C -2y'
loop_
_symmetry_equiv_pos_site_id
_symmetry_equiv_pos_as_xyz
1 x,y,z
2 x,-y,z
3 1/2+x,1/2+y,z
4 1/2+x,1/2-y,z
_cell_length_a                   7.6467(15)
_cell_length_b                   24.339(7)
_cell_length_c                   17.615(3)
_cell_angle_alpha                90
_cell_angle_beta                 94.85(3)
_cell_angle_gamma                90
_cell_volume                     3266.64
_exptl_crystal_colour            colorless
_exptl_crystal_description       plate
_cell_formula_units_Z            4
loop_
_atom_site_label
_atom_site_type_symbol
_atom_site_fract_x
_atom_site_fract_y
_atom_site_fract_z
N1 N 0.7980(5) 0.10069(17) 0.2413(2)
N2 N 0.7289(5) 0.14891(18) 0.3483(3)
N3 N 0.6355(6) 0.20012(18) 0.4491(3)
N4 N 0.3593(6) 0.0951(2) 0.6418(3)
N5 N 0.3695(8) 0.0000 0.6392(4)
C1 C 0.9090(10) 0.0000 0.0948(4)
H1 H 0.9434 0.0000 0.0442
C2 C 0.8843(7) 0.0497(2) 0.1311(3)
H2 H 0.9044 0.0833 0.1059
C3 C 0.8298(6) 0.04985(19) 0.2048(3)
C4 C 0.7923(8) 0.0000 0.2400(4)
H3 H 0.7418 0.0000 0.2874
C5 C 0.7484(7) 0.1490(2) 0.1940(3)
H4 H 0.8529 0.1712 0.1875
H5 H 0.6627 0.1711 0.2190
H6 H 0.6964 0.1369 0.1440
C6 C 0.8188(6) 0.1071(2) 0.3203(3)
C7 C 0.9288(6) 0.0732(2) 0.3677(3)
H7 H 0.9957 0.0449 0.3468
C8 C 0.9373(7) 0.0819(2) 0.4447(3)
H8 H 1.0117 0.0595 0.4777
C9 C 0.8380(7) 0.1231(2) 0.4751(3)
H9 H 0.8394 0.1285 0.5286
C10 C 0.7367(6) 0.1560(2) 0.4241(3)
C11 C 0.6295(8) 0.2508(2) 0.4057(4)
H10 H 0.7123 0.2772 0.4306
H11 H 0.5105 0.2660 0.4033
H12 H 0.6616 0.2433 0.3540
C12 C 0.5603(6) 0.1985(2) 0.5196(3)
C13 C 0.4984(7) 0.1496(2) 0.5470(3)
H13 H 0.5079 0.1171 0.5176
C14 C 0.4229(7) 0.1461(2) 0.6159(3)
C15 C 0.4015(7) 0.1940(2) 0.6571(3)
H14 H 0.3500 0.1927 0.7043
C16 C 0.4562(7) 0.2436(3) 0.6286(3)
H15 H 0.4384 0.2764 0.6560
C17 C 0.5362(7) 0.2464(2) 0.5609(3)
H16 H 0.5744 0.2808 0.5428
C18 C 0.1743(8) 0.0908(3) 0.6553(4)
H17 H 0.1155 0.0655 0.6182
H18 H 0.1193 0.1272 0.6498
H19 H 0.1636 0.0770 0.7070
C19 C 0.4598(7) 0.0477(2) 0.6396(3)
C20 C 0.6438(7) 0.0493(2) 0.6421(3)
H20 H 0.7051 0.0833 0.6429
C21 C 0.7326(10) 0.0000 0.6432(5)
H21 H 0.8571 0.0000 0.6449
N1A N 0.7980(5) -0.10069(17) 0.2413(2)
N2A N 0.7289(5) -0.14891(18) 0.3483(3)
N3A N 0.6355(6) -0.20012(18) 0.4491(3)
N4A N 0.3593(6) -0.0951(2) 0.6418(3)
C2A C 0.8843(7) -0.0497(2) 0.1311(3)
H2A H 0.9044 -0.0833 0.1059
C3A C 0.8298(6) -0.04985(19) 0.2048(3)
C5A C 0.7484(7) -0.1490(2) 0.1940(3)
H4A H 0.8529 -0.1712 0.1875
H5A H 0.6627 -0.1711 0.2190
H6A H 0.6964 -0.1369 0.1440
C6A C 0.8188(6) -0.1071(2) 0.3203(3)
C7A C 0.9288(6) -0.0732(2) 0.3677(3)
H7A H 0.9957 -0.0449 0.3468
C8A C 0.9373(7) -0.0819(2) 0.4447(3)
H8A H 1.0117 -0.0595 0.4777
C9A C 0.8380(7) -0.1231(2) 0.4751(3)
H9A H 0.8394 -0.1285 0.5286
C10A C 0.7367(6) -0.1560(2) 0.4241(3)
C11A C 0.6295(8) -0.2508(2) 0.4057(4)
H10A H 0.7123 -0.2772 0.4306
H11A H 0.5105 -0.2660 0.4033
H12A H 0.6616 -0.2433 0.3540
C12A C 0.5603(6) -0.1985(2) 0.5196(3)
C13A C 0.4984(7) -0.1496(2) 0.5470(3)
H13A H 0.5079 -0.1171 0.5176
C14A C 0.4229(7) -0.1461(2) 0.6159(3)
C15A C 0.4015(7) -0.1940(2) 0.6571(3)
H14A H 0.3500 -0.1927 0.7043
C16A C 0.4562(7) -0.2436(3) 0.6286(3)
H15A H 0.4384 -0.2764 0.6560
C17A C 0.5362(7) -0.2464(2) 0.5609(3)
H16A H 0.5744 -0.2808 0.5428
C18A C 0.1743(8) -0.0908(3) 0.6553(4)
H17A H 0.1155 -0.0655 0.6182
H18A H 0.1193 -0.1272 0.6498
H19A H 0.1636 -0.0770 0.7070
C19A C 0.4598(7) -0.0477(2) 0.6396(3)
C20A C 0.6438(7) -0.0493(2) 0.6421(3)
H20A H 0.7051 -0.0833 0.6429
N6 N 0.2978(6) 0.10055(17) 0.2497(2)
N7 N 0.1900(5) 0.14882(17) 0.1417(2)
N8 N 0.0589(6) 0.19937(18) 0.0406(3)
N9 N -0.2809(6) 0.0953(2) -0.1559(3)
N10 N -0.2693(8) 0.0000 -0.1526(3)
C22 C 0.2955(8) 0.0000 0.2518(4)
H22 H 0.2283 0.0000 0.2040
C23 C 0.3439(6) 0.05024(19) 0.2863(3)
C24 C 0.4284(6) 0.0498(2) 0.3599(3)
H23 H 0.4603 0.0834 0.3849
C25 C 0.4655(9) 0.0000 0.3963(4)
H24 H 0.5174 0.0000 0.4473
C26 C 0.2663(7) 0.1486(2) 0.2969(3)
H25 H 0.3771 0.1680 0.3095
H26 H 0.2179 0.1365 0.3439
H27 H 0.1826 0.1732 0.2688
C27 C 0.2905(6) 0.1074(2) 0.1702(3)
C28 C 0.3846(6) 0.0734(2) 0.1241(3)
H28 H 0.4602 0.0455 0.1458
C29 C 0.3646(7) 0.0815(2) 0.0471(3)
H29 H 0.4263 0.0587 0.0147
C30 C 0.2550(7) 0.1227(2) 0.0157(3)
H30 H 0.2380 0.1281 -0.0379
C31 C 0.1708(6) 0.1560(2) 0.0663(3)
C32 C 0.0705(8) 0.2504(2) 0.0843(4)
H31 H 0.1291 0.2433 0.1350
H32 H -0.0478 0.2646 0.0895
H33 H 0.1380 0.2776 0.0579
C33 C -0.0375(6) 0.1985(2) -0.0308(3)
C34 C -0.0744(7) 0.2460(2) -0.0725(3)
H34 H -0.0294 0.2803 -0.0540
C35 C -0.1768(8) 0.2436(3) -0.1413(3)
H35 H -0.2046 0.2765 -0.1686
C36 C -0.2388(8) 0.1941(3) -0.1706(3)
H36 H -0.3031 0.1930 -0.2192
C37 C -0.2078(7) 0.1458(2) -0.1294(3)
C38 C -0.1110(7) 0.1485(2) -0.0585(3)
H37 H -0.0945 0.1162 -0.0286
C39 C -0.4723(7) 0.0905(3) -0.1643(3)
H38 H -0.5073 0.0656 -0.2066
H39 H -0.5242 0.1268 -0.1748
H40 H -0.5135 0.0759 -0.1171
C40 C -0.1807(7) 0.0478(2) -0.1537(3)
C41 C 0.0033(8) 0.0493(2) -0.1549(3)
H41 H 0.0639 0.0833 -0.1561
C42 C 0.0935(10) 0.0000 -0.1544(5)
H42 H 0.2178 0.0000 -0.1538
N6A N 0.2978(6) -0.10055(17) 0.2497(2)
N7A N 0.1900(5) -0.14882(17) 0.1417(2)
N8A N 0.0589(6) -0.19937(18) 0.0406(3)
N9A N -0.2809(6) -0.0953(2) -0.1559(3)
C23A C 0.3439(6) -0.05024(19) 0.2863(3)
C24A C 0.4284(6) -0.0498(2) 0.3599(3)
H23A H 0.4603 -0.0834 0.3849
C26A C 0.2663(7) -0.1486(2) 0.2969(3)
H25A H 0.3771 -0.1680 0.3095
H26A H 0.2179 -0.1365 0.3439
H27A H 0.1826 -0.1732 0.2688
C27A C 0.2905(6) -0.1074(2) 0.1702(3)
C28A C 0.3846(6) -0.0734(2) 0.1241(3)
H28A H 0.4602 -0.0455 0.1458
C29A C 0.3646(7) -0.0815(2) 0.0471(3)
H29A H 0.4263 -0.0587 0.0147
C30A C 0.2550(7) -0.1227(2) 0.0157(3)
H30A H 0.2380 -0.1281 -0.0379
C31A C 0.1708(6) -0.1560(2) 0.0663(3)
C32A C 0.0705(8) -0.2504(2) 0.0843(4)
H31A H 0.1291 -0.2433 0.1350
H32A H -0.0478 -0.2646 0.0895
H33A H 0.1380 -0.2776 0.0579
C33A C -0.0375(6) -0.1985(2) -0.0308(3)
C34A C -0.0744(7) -0.2460(2) -0.0725(3)
H34A H -0.0294 -0.2803 -0.0540
C35A C -0.1768(8) -0.2436(3) -0.1413(3)
H35A H -0.2046 -0.2765 -0.1686
C36A C -0.2388(8) -0.1941(3) -0.1706(3)
H36A H -0.3031 -0.1930 -0.2192
C37A C -0.2078(7) -0.1458(2) -0.1294(3)
C38A C -0.1110(7) -0.1485(2) -0.0585(3)
H37A H -0.0945 -0.1162 -0.0286
C39A C -0.4723(7) -0.0905(3) -0.1643(3)
H38A H -0.5073 -0.0656 -0.2066
H39A H -0.5242 -0.1268 -0.1748
H40A H -0.5135 -0.0759 -0.1171
C40A C -0.1807(7) -0.0478(2) -0.1537(3)
C41A C 0.0033(8) -0.0493(2) -0.1549(3)
H41A H 0.0639 -0.0833 -0.1561
loop_
_geom_bond_atom_site_label_1
_geom_bond_atom_site_label_2
_geom_bond_site_symmetry_1
_geom_bond_site_symmetry_2
N1 C3 1_555 1_555
N2 C6 1_555 1_555
N3 C10 1_555 1_555
N4 C14 1_555 1_555
N5 C19 1_555 1_555
C1 H1 1_555 1_555
C2 C1 1_555 1_555
H2 C2 1_555 1_555
C3 C2 1_555 1_555
C4 C3 1_555 1_555
H3 C4 1_555 1_555
C5 N1 1_555 1_555
H4 C5 1_555 1_555
H5 C5 1_555 1_555
H6 C5 1_555 1_555
C6 N1 1_555 1_555
C7 C6 1_555 1_555
H7 C7 1_555 1_555
C8 C7 1_555 1_555
H8 C8 1_555 1_555
C9 C8 1_555 1_555
H9 C9 1_555 1_555
C10 N2 1_555 1_555
C11 N3 1_555 1_555
H10 C11 1_555 1_555
H11 C11 1_555 1_555
H12 C11 1_555 1_555
C12 N3 1_555 1_555
C13 C12 1_555 1_555
H13 C13 1_555 1_555
C14 C13 1_555 1_555
C15 C14 1_555 1_555
H14 C15 1_555 1_555
C16 C15 1_555 1_555
H15 C16 1_555 1_555
C17 C12 1_555 1_555
H16 C17 1_555 1_555
C18 N4 1_555 1_555
H17 C18 1_555 1_555
H18 C18 1_555 1_555
H19 C18 1_555 1_555
C19 N4 1_555 1_555
C20 C19 1_555 1_555
H20 C20 1_555 1_555
C21 C20 1_555 1_555
H21 C21 1_555 1_555
N6 C23 1_555 1_555
N7 C27 1_555 1_555
N8 C31 1_555 1_555
N9 C37 1_555 1_555
N10 C40 1_555 1_555
C22 H22 1_555 1_555
C23 C22 1_555 1_555
C24 C23 1_555 1_555
H23 C24 1_555 1_555
C25 C24 1_555 1_555
H24 C25 1_555 1_555
C26 N6 1_555 1_555
H25 C26 1_555 1_555
H26 C26 1_555 1_555
H27 C26 1_555 1_555
C27 N6 1_555 1_555
C28 C27 1_555 1_555
H28 C28 1_555 1_555
C29 C28 1_555 1_555
H29 C29 1_555 1_555
C30 C29 1_555 1_555
H30 C30 1_555 1_555
C31 N7 1_555 1_555
C32 N8 1_555 1_555
H31 C32 1_555 1_555
H32 C32 1_555 1_555
H33 C32 1_555 1_555
C33 N8 1_555 1_555
C34 C33 1_555 1_555
H34 C34 1_555 1_555
C35 C34 1_555 1_555
H35 C35 1_555 1_555
C36 C35 1_555 1_555
H36 C36 1_555 1_555
C37 C36 1_555 1_555
C38 C33 1_555 1_555
H37 C38 1_555 1_555
C39 N9 1_555 1_555
H38 C39 1_555 1_555
H39 C39 1_555 1_555
H40 C39 1_555 1_555
C40 N9 1_555 1_555
C41 C40 1_555 1_555
H41 C41 1_555 1_555
C42 C41 1_555 1_555
H42 C42 1_555 1_555
N1A C3A 1_555 1_555
N2A C6A 1_555 1_555
N3A C10A 1_555 1_555
N4A C14A 1_555 1_555
C2A C1 1_555 1_555
H2A C2A 1_555 1_555
C3A C4 1_555 1_555
C5A N1A 1_555 1_555
H4A C5A 1_555 1_555
H5A C5A 1_555 1_555
H6A C5A 1_555 1_555
C6A N1A 1_555 1_555
C7A C6A 1_555 1_555
H7A C7A 1_555 1_555
C8A C7A 1_555 1_555
H8A C8A 1_555 1_555
C9A C8A 1_555 1_555
H9A C9A 1_555 1_555
C10A N2A 1_555 1_555
C11A N3A 1_555 1_555
H10A C11A 1_555 1_555
H11A C11A 1_555 1_555
H12A C11A 1_555 1_555
C12A N3A 1_555 1_555
C13A C12A 1_555 1_555
H13A C13A 1_555 1_555
C14A C13A 1_555 1_555
C15A C14A 1_555 1_555
H14A C15A 1_555 1_555
C16A C15A 1_555 1_555
H15A C16A 1_555 1_555
C17A C12A 1_555 1_555
H16A C17A 1_555 1_555
C18A N4A 1_555 1_555
H17A C18A 1_555 1_555
H18A C18A 1_555 1_555
H19A C18A 1_555 1_555
C19A N5 1_555 1_555
C20A C21 1_555 1_555
H20A C20A 1_555 1_555
N6A C23A 1_555 1_555
N7A C27A 1_555 1_555
N8A C31A 1_555 1_555
N9A C37A 1_555 1_555
C23A C22 1_555 1_555
C24A C25 1_555 1_555
H23A C24A 1_555 1_555
C26A N6A 1_555 1_555
H25A C26A 1_555 1_555
H26A C26A 1_555 1_555
H27A C26A 1_555 1_555
C27A N6A 1_555 1_555
C28A C27A 1_555 1_555
H28A C28A 1_555 1_555
C29A C28A 1_555 1_555
H29A C29A 1_555 1_555
C30A C29A 1_555 1_555
H30A C30A 1_555 1_555
C31A N7A 1_555 1_555
C32A N8A 1_555 1_555
H31A C32A 1_555 1_555
H32A C32A 1_555 1_555
H33A C32A 1_555 1_555
C33A N8A 1_555 1_555
C34A C33A 1_555 1_555
H34A C34A 1_555 1_555
C35A C34A 1_555 1_555
H35A C35A 1_555 1_555
C36A C35A 1_555 1_555
H36A C36A 1_555 1_555
C37A C36A 1_555 1_555
C38A C33A 1_555 1_555
H37A C38A 1_555 1_555
C39A N9A 1_555 1_555
H38A C39A 1_555 1_555
H39A C39A 1_555 1_555
H40A C39A 1_555 1_555
C40A N10 1_555 1_555
C41A C42 1_555 1_555
H41A C41A 1_555 1_555
C9 C10 1_555 1_555
C16 C17 1_555 1_555
C30 C31 1_555 1_555
C37 C38 1_555 1_555
N4A C19A 1_555 1_555
C2A C3A 1_555 1_555
C9A C10A 1_555 1_555
C16A C17A 1_555 1_555
C19A C20A 1_555 1_555
N9A C40A 1_555 1_555
C23A C24A 1_555 1_555
C30A C31A 1_555 1_555
C37A C38A 1_555 1_555
C40A C41A 1_555 1_555

#END
