
#######################################################################
#
#                 Cambridge Crystallographic Data Centre
#                                CCDC 
#
#######################################################################
#
# If this CIF has been generated from an entry in the Cambridge 
# Structural Database, then it will include bibliographic, chemical, 
# crystal, experimental, refinement or atomic coordinate data resulting 
# from the CCDC's data processing and validation procedures.
#
#######################################################################

data_BODDIJ
_chemical_formula_moiety         'C39 H39 N9,2(C60)'
_chemical_name_systematic        
'2,8,14,20,26,32-Hexamethyl-2,8,14,20,26,32,37,39,41-nona-azaheptacyclo[31.3.1.1^3,7^.1^9,13^.1^15,19^.1^21,25^.1^27,31^]dotetraconta-1(37),3(42),4,6,9(41),10,12,15(40),16,18,21(39),22,24,27(38),28,30,33,35-octadecaene bis(C60fullerene) unknown solvate'
_symmetry_cell_setting           rhombohedral
_symmetry_space_group_name_H-M   'R -3'
_symmetry_Int_Tables_number      148
_space_group_name_Hall           '-R 3'
loop_
_symmetry_equiv_pos_site_id
_symmetry_equiv_pos_as_xyz
1 x,y,z
2 -y,x-y,z
3 -x+y,-x,z
4 2/3+x,1/3+y,1/3+z
5 2/3-y,1/3+x-y,1/3+z
6 2/3-x+y,1/3-x,1/3+z
7 1/3+x,2/3+y,2/3+z
8 1/3-y,2/3+x-y,2/3+z
9 1/3-x+y,2/3-x,2/3+z
10 -x,-y,-z
11 y,-x+y,-z
12 x-y,x,-z
13 1/3-x,2/3-y,2/3-z
14 1/3+y,2/3-x+y,2/3-z
15 1/3+x-y,2/3+x,2/3-z
16 2/3-x,1/3-y,1/3-z
17 2/3+y,1/3-x+y,1/3-z
18 2/3+x-y,1/3+x,1/3-z
_cell_length_a                   20.221(3)
_cell_length_b                   20.221(3)
_cell_length_c                   38.779(8)
_cell_angle_alpha                90
_cell_angle_beta                 90
_cell_angle_gamma                120
_cell_volume                     13732
_exptl_crystal_colour            black
_exptl_crystal_description       plate
_cell_formula_units_Z            6
loop_
_atom_site_label
_atom_site_type_symbol
_atom_site_fract_x
_atom_site_fract_y
_atom_site_fract_z
N1 N 0.1237(2) 0.6468(2) 0.03393(11)
N2 N 0.0664(2) 0.5150(2) 0.03761(11)
N3 N 0.2226(3) 0.3942(2) 0.03149(12)
C1 C 0.2086(3) 0.6521(3) -0.02353(14)
H1 H 0.2387 0.6535 -0.0426
C2 C 0.1586(3) 0.5829(3) -0.00804(13)
H2 H 0.1518 0.5363 -0.0172
C3 C 0.1183(3) 0.5830(3) 0.02113(13)
C4 C 0.0100(3) 0.5130(3) 0.06176(15)
H3 H -0.0192 0.4618 0.0718
H4 H -0.0247 0.5256 0.0495
H5 H 0.0362 0.5503 0.0802
C5 C 0.0717(3) 0.4476(3) 0.03209(13)
C6 C 0.0066(3) 0.3773(3) 0.02535(14)
H6 H -0.0424 0.3731 0.0245
C7 C 0.0143(3) 0.3154(3) 0.02002(14)
H7 H -0.0302 0.2679 0.0153
C8 C 0.0846(3) 0.3178(3) 0.02117(15)
H8 H 0.0879 0.2733 0.0168
C9 C 0.1500(3) 0.3874(3) 0.02894(13)
C10 C 0.1420(3) 0.4510(3) 0.03417(13)
H9 H 0.1861 0.4985 0.0394
C11 C 0.2307(3) 0.3463(3) 0.05823(16)
H10 H 0.2254 0.3637 0.0811
H11 H 0.2811 0.3508 0.0562
H12 H 0.1909 0.2929 0.0550
C12 C 0.2868(3) 0.4564(3) 0.01873(13)
C13 C 0.2802(3) 0.4948(3) -0.01086(14)
N1A N 0.3532(2) 0.4769(3) 0.03393(11)
N2A N 0.4850(2) 0.5514(3) 0.03761(11)
N3A N 0.6058(2) 0.8284(4) 0.03149(12)
C1A C 0.3479(3) 0.5565(4) -0.02353(14)
H1A H 0.3465 0.5852 -0.0426
C2A C 0.4171(3) 0.5757(4) -0.00804(13)
H2A H 0.4637 0.6155 -0.0172
C3A C 0.4170(3) 0.5353(4) 0.02113(13)
C4A C 0.4870(3) 0.4970(4) 0.06176(15)
H3A H 0.5382 0.5190 0.0718
H4A H 0.4744 0.4497 0.0495
H5A H 0.4497 0.4859 0.0802
C5A C 0.5524(3) 0.6241(4) 0.03209(13)
C6A C 0.6227(3) 0.6293(4) 0.02535(14)
H6A H 0.6269 0.5845 0.0245
C7A C 0.6846(3) 0.6989(4) 0.02002(14)
H7A H 0.7321 0.7019 0.0153
C8A C 0.6822(3) 0.7668(4) 0.02117(15)
H8A H 0.7267 0.8146 0.0168
C9A C 0.6126(3) 0.7626(4) 0.02894(13)
C10A C 0.5490(3) 0.6910(4) 0.03417(13)
H9A H 0.5015 0.6876 0.0394
C11A C 0.6537(3) 0.8844(4) 0.05823(16)
H10A H 0.6363 0.8617 0.0811
H11A H 0.6492 0.9303 0.0562
H12A H 0.7071 0.8980 0.0550
C12A C 0.5436(3) 0.8304(4) 0.01873(13)
C13A C 0.5052(3) 0.7854(4) -0.01086(14)
N1B N 0.5231(3) 0.8763(2) 0.03393(11)
N2B N 0.4486(3) 0.9336(2) 0.03761(11)
N3B N 0.1716(4) 0.7774(3) 0.03149(12)
C1B C 0.4435(4) 0.7914(3) -0.02353(14)
H1B H 0.4148 0.7613 -0.0426
C2B C 0.4243(4) 0.8414(3) -0.00804(13)
H2B H 0.3845 0.8482 -0.0172
C3B C 0.4647(4) 0.8817(3) 0.02113(13)
C4B C 0.5030(4) 0.9900(3) 0.06176(15)
H3B H 0.4810 1.0192 0.0718
H4B H 0.5503 1.0247 0.0495
H5B H 0.5141 0.9638 0.0802
C5B C 0.3759(4) 0.9283(3) 0.03209(13)
C6B C 0.3707(4) 0.9934(3) 0.02535(14)
H6B H 0.4155 1.0424 0.0245
C7B C 0.3011(4) 0.9857(3) 0.02002(14)
H7B H 0.2981 1.0302 0.0153
C8B C 0.2332(4) 0.9154(3) 0.02117(15)
H8B H 0.1854 0.9121 0.0168
C9B C 0.2374(4) 0.8500(3) 0.02894(13)
C10B C 0.3090(4) 0.8580(3) 0.03417(13)
H9B H 0.3124 0.8139 0.0394
C11B C 0.1156(4) 0.7693(3) 0.05823(16)
H10B H 0.1383 0.7746 0.0811
H11B H 0.0697 0.7189 0.0562
H12B H 0.1020 0.8091 0.0550
C12B C 0.1696(4) 0.7132(3) 0.01873(13)
C13B C 0.2146(4) 0.7198(3) -0.01086(14)
C14 C 0.3079(3) 0.4988(3) 0.20795(13)
C15 C 0.2845(3) 0.4723(2) 0.17291(12)
C16 C 0.2168(2) 0.4659(2) 0.16025(13)
C17 C 0.2149(3) 0.4891(3) 0.12546(13)
C18 C 0.2787(3) 0.5203(3) 0.10455(12)
C19 C 0.2987(3) 0.5850(2) 0.08314(12)
C20 C 0.3814(3) 0.6338(3) 0.08315(11)
C21 C 0.4124(3) 0.5976(3) 0.10444(12)
C22 C 0.3494(3) 0.5270(3) 0.11779(13)
C23 C 0.3529(3) 0.5039(3) 0.15140(13)
C14A C 0.5012(3) 0.8091(4) 0.20795(13)
C15A C 0.5277(2) 0.8122(4) 0.17291(12)
C16A C 0.5341(2) 0.7509(3) 0.16025(13)
C17A C 0.5109(3) 0.7258(4) 0.12546(13)
C18A C 0.4797(3) 0.7584(4) 0.10455(12)
C19A C 0.4150(2) 0.7137(4) 0.08314(12)
C20A C 0.3662(3) 0.7476(4) 0.08315(11)
C21A C 0.4024(3) 0.8148(4) 0.10444(12)
C22A C 0.4730(3) 0.8224(4) 0.11779(13)
C23A C 0.4961(3) 0.8490(4) 0.15140(13)
C14B C 0.1909(4) 0.6921(3) 0.20795(13)
C15B C 0.1878(4) 0.7155(3) 0.17291(12)
C16B C 0.2491(3) 0.7832(2) 0.16025(13)
C17B C 0.2742(4) 0.7851(3) 0.12546(13)
C18B C 0.2416(4) 0.7213(3) 0.10455(12)
C19B C 0.2863(4) 0.7013(3) 0.08314(12)
C20B C 0.2524(4) 0.6186(3) 0.08315(11)
C21B C 0.1852(4) 0.5876(3) 0.10444(12)
C22B C 0.1776(4) 0.6506(3) 0.11779(13)
C23B C 0.1510(4) 0.6471(3) 0.15140(13)
C14O C 0.3588(3) 0.8345(3) 0.12538(13)
C15O C 0.3822(3) 0.8610(2) 0.16042(12)
C16O C 0.4499(2) 0.8674(2) 0.17308(13)
C17O C 0.4518(3) 0.8442(3) 0.20787(13)
C18O C 0.3880(3) 0.8130(3) 0.22878(12)
C19O C 0.3680(3) 0.7483(2) 0.25019(12)
C20O C 0.2853(3) 0.6995(3) 0.25018(11)
C21O C 0.2543(3) 0.7357(3) 0.22889(12)
C22O C 0.3173(3) 0.8063(3) 0.21554(13)
C23O C 0.3138(3) 0.8294(3) 0.18193(13)
C14P C 0.1655(3) 0.5242(4) 0.12538(13)
C15P C 0.1390(2) 0.5211(4) 0.16042(12)
C16P C 0.1326(2) 0.5824(3) 0.17308(13)
C17P C 0.1558(3) 0.6075(4) 0.20787(13)
C18P C 0.1870(3) 0.5749(4) 0.22878(12)
C19P C 0.2517(2) 0.6196(4) 0.25019(12)
C20P C 0.3005(3) 0.5857(4) 0.25018(11)
C21P C 0.2643(3) 0.5185(4) 0.22889(12)
C22P C 0.1937(3) 0.5109(4) 0.21554(13)
C23P C 0.1706(3) 0.4843(4) 0.18193(13)
C14Q C 0.4758(4) 0.6412(3) 0.12538(13)
C15Q C 0.4789(4) 0.6178(3) 0.16042(12)
C16Q C 0.4176(3) 0.5501(2) 0.17308(13)
C17Q C 0.3925(4) 0.5482(3) 0.20787(13)
C18Q C 0.4251(4) 0.6120(3) 0.22878(12)
C19Q C 0.3804(4) 0.6320(3) 0.25019(12)
C20Q C 0.4143(4) 0.7147(3) 0.25018(11)
C21Q C 0.4815(4) 0.7457(3) 0.22889(12)
C22Q C 0.4891(4) 0.6827(3) 0.21554(13)
C23Q C 0.5157(4) 0.6862(3) 0.18193(13)
C24 C 0.3426(4) 0.1393(4) 0.07726(17)
C25 C 0.2597(4) 0.0890(4) 0.08410(18)
C26 C 0.2478(4) 0.0218(4) 0.10314(17)
C27 C 0.1946(4) -0.0077(4) 0.1299(2)
C28 C 0.1494(4) 0.0271(4) 0.1382(2)
C29 C 0.1610(4) 0.0907(4) 0.11941(18)
C30 C 0.2163(4) 0.1208(4) 0.09235(17)
C31 C 0.2528(4) 0.2051(4) 0.09445(19)
C32 C 0.2175(4) 0.2223(4) 0.1218(2)
C33 C 0.1628(4) 0.1561(5) 0.1384(2)
C34 C 0.1536(4) 0.1535(5) 0.1733(2)
C35 C 0.2008(4) 0.2202(4) 0.1945(2)
C36 C 0.2514(4) 0.2841(4) 0.1803(2)
C37 C 0.2628(4) 0.2877(4) 0.1409(2)
C38 C 0.3437(5) 0.3354(4) 0.1345(2)
C39 C 0.3290(4) 0.3316(3) 0.1954(2)
C40 C 0.3465(4) 0.3078(3) 0.22472(18)
C41 C 0.2855(4) 0.2340(4) 0.24109(17)
C42 C 0.2169(4) 0.1933(4) 0.2260(2)
C43 C 0.1813(4) 0.1128(4) 0.22609(18)
C44 C 0.1409(4) 0.0855(4) 0.1920(2)
C45 C 0.1384(4) 0.0245(4) 0.1750(2)
C46 C 0.1772(4) -0.0135(4) 0.1900(2)
C47 C 0.2137(4) 0.0096(4) 0.2195(2)
C48 C 0.2903(4) 0.0149(4) 0.2246(2)
C49 C 0.3369(5) 0.0834(4) 0.24629(18)
C50 C 0.2909(4) 0.1161(4) 0.25448(16)
C51 C 0.2162(4) 0.0737(4) 0.23946(19)
C52 C 0.2133(4) -0.0329(3) 0.1611(2)
C53 C 0.2847(4) -0.0276(3) 0.1649(2)
C24O C 0.3241(4) 0.1940(4) 0.25607(17)
C25O C 0.4070(4) 0.2443(4) 0.24923(18)
C26O C 0.4189(4) 0.3115(4) 0.23019(17)
C27O C 0.4721(4) 0.3410(4) 0.2034(2)
C28O C 0.5173(4) 0.3062(4) 0.1951(2)
C29O C 0.5057(4) 0.2426(4) 0.21392(18)
C30O C 0.4504(4) 0.2125(4) 0.24098(17)
C31O C 0.4139(4) 0.1282(4) 0.23888(19)
C32O C 0.4492(4) 0.1110(4) 0.2115(2)
C33O C 0.5039(4) 0.1772(5) 0.1949(2)
C34O C 0.5131(4) 0.1798(5) 0.1600(2)
C35O C 0.4659(4) 0.1131(4) 0.1388(2)
C36O C 0.4153(4) 0.0492(4) 0.1530(2)
C37O C 0.4039(4) 0.0456(4) 0.1924(2)
C38O C 0.3230(5) -0.0021(4) 0.1988(2)
C39O C 0.3377(4) 0.0017(3) 0.1379(2)
C40O C 0.3202(4) 0.0255(3) 0.10861(18)
C41O C 0.3812(4) 0.0993(4) 0.09224(17)
C42O C 0.4498(4) 0.1400(4) 0.1073(2)
C43O C 0.4854(4) 0.2205(4) 0.10724(18)
C44O C 0.5258(4) 0.2478(4) 0.1413(2)
C45O C 0.5283(4) 0.3088(4) 0.1583(2)
C46O C 0.4895(4) 0.3468(4) 0.1433(2)
C47O C 0.4530(4) 0.3237(4) 0.1138(2)
C48O C 0.3764(4) 0.3184(4) 0.1087(2)
C49O C 0.3298(5) 0.2499(4) 0.08704(18)
C50O C 0.3758(4) 0.2172(4) 0.07885(16)
C51O C 0.4505(4) 0.2596(4) 0.09387(19)
C52O C 0.4534(4) 0.3662(3) 0.1722(2)
C53O C 0.3820(4) 0.3609(3) 0.1684(2)
H13? H 0.2447 0.5136 -0.0051
H14? H 0.2564 0.4570 -0.0296
loop_
_geom_bond_atom_site_label_1
_geom_bond_atom_site_label_2
_geom_bond_site_symmetry_1
_geom_bond_site_symmetry_2
N1 C3 1_555 1_555
N2 C3 1_555 1_555
N3 C9 1_555 1_555
C1 H1 1_555 1_555
C2 C1 1_555 1_555
H2 C2 1_555 1_555
C3 C2 1_555 1_555
C4 N2 1_555 1_555
H3 C4 1_555 1_555
H4 C4 1_555 1_555
H5 C4 1_555 1_555
C5 N2 1_555 1_555
C6 C5 1_555 1_555
H6 C6 1_555 1_555
C7 C6 1_555 1_555
H7 C7 1_555 1_555
C8 C7 1_555 1_555
H8 C8 1_555 1_555
C9 C8 1_555 1_555
C10 C5 1_555 1_555
H9 C10 1_555 1_555
C11 N3 1_555 1_555
H10 C11 1_555 1_555
H11 C11 1_555 1_555
H12 C11 1_555 1_555
C12 N3 1_555 1_555
C13 C12 1_555 1_555
C14 C15 1_555 1_555
C15 C16 1_555 1_555
C16 C17 1_555 1_555
C17 C18 1_555 1_555
C18 C19 1_555 1_555
C19 C20 1_555 1_555
C20 C21 1_555 1_555
C21 C22 1_555 1_555
C22 C18 1_555 1_555
C23 C15 1_555 1_555
C24 C25 1_555 1_555
C25 C26 1_555 1_555
C26 C27 1_555 1_555
C27 C28 1_555 1_555
C28 C29 1_555 1_555
C29 C30 1_555 1_555
C30 C25 1_555 1_555
C31 C30 1_555 1_555
C32 C31 1_555 1_555
C33 C29 1_555 1_555
C34 C33 1_555 1_555
C35 C34 1_555 1_555
C36 C35 1_555 1_555
C37 C32 1_555 1_555
C38 C37 1_555 1_555
C39 C36 1_555 1_555
C40 C39 1_555 1_555
C41 C40 1_555 1_555
C42 C35 1_555 1_555
C43 C42 1_555 1_555
C44 C34 1_555 1_555
C45 C28 1_555 1_555
C46 C45 1_555 1_555
C47 C46 1_555 1_555
C48 C47 1_555 1_555
C49 C48 1_555 1_555
C50 C49 1_555 1_555
C51 C43 1_555 1_555
C52 C27 1_555 1_555
C53 C52 1_555 1_555
N1A C12 1_555 1_555
N2A C3A 1_555 1_555
N3A C9A 1_555 1_555
C1A C13 1_555 1_555
H1A C1A 1_555 1_555
C2A C1A 1_555 1_555
H2A C2A 1_555 1_555
C3A N1A 1_555 1_555
C4A N2A 1_555 1_555
H3A C4A 1_555 1_555
H4A C4A 1_555 1_555
H5A C4A 1_555 1_555
C5A N2A 1_555 1_555
C6A C5A 1_555 1_555
H6A C6A 1_555 1_555
C7A C6A 1_555 1_555
H7A C7A 1_555 1_555
C8A C7A 1_555 1_555
H8A C8A 1_555 1_555
C9A C8A 1_555 1_555
C10A C5A 1_555 1_555
H9A C10A 1_555 1_555
C11A N3A 1_555 1_555
H10A C11A 1_555 1_555
H11A C11A 1_555 1_555
H12A C11A 1_555 1_555
C12A N3A 1_555 1_555
C13A C12A 1_555 1_555
N1B C12A 1_555 1_555
N2B C3B 1_555 1_555
N3B C9B 1_555 1_555
C1B C13A 1_555 1_555
H1B C1B 1_555 1_555
C2B C1B 1_555 1_555
H2B C2B 1_555 1_555
C3B N1B 1_555 1_555
C4B N2B 1_555 1_555
H3B C4B 1_555 1_555
H4B C4B 1_555 1_555
H5B C4B 1_555 1_555
C5B N2B 1_555 1_555
C6B C5B 1_555 1_555
H6B C6B 1_555 1_555
C7B C6B 1_555 1_555
H7B C7B 1_555 1_555
C8B C7B 1_555 1_555
H8B C8B 1_555 1_555
C9B C8B 1_555 1_555
C10B C5B 1_555 1_555
H9B C10B 1_555 1_555
C11B N3B 1_555 1_555
H10B C11B 1_555 1_555
H11B C11B 1_555 1_555
H12B C11B 1_555 1_555
C12B N1 1_555 1_555
C13B C1 1_555 1_555
C14A C15A 1_555 1_555
C15A C16A 1_555 1_555
C16A C17A 1_555 1_555
C17A C18A 1_555 1_555
C18A C19A 1_555 1_555
C19A C20 1_555 1_555
C20A C19A 1_555 1_555
C21A C20A 1_555 1_555
C22A C18A 1_555 1_555
C23A C15A 1_555 1_555
C14B C15B 1_555 1_555
C15B C16B 1_555 1_555
C16B C17B 1_555 1_555
C17B C18B 1_555 1_555
C18B C19B 1_555 1_555
C19B C20A 1_555 1_555
C20B C19 1_555 1_555
C21B C20B 1_555 1_555
C22B C18B 1_555 1_555
C23B C15B 1_555 1_555
C14O C21A 1_555 1_555
C15O C14O 1_555 1_555
C16O C23A 1_555 1_555
C17O C14A 1_555 1_555
C18O C17O 1_555 1_555
C19O C18O 1_555 1_555
C20O C19O 1_555 1_555
C21O C14B 1_555 1_555
C22O C18O 1_555 1_555
C23O C16B 1_555 1_555
C14P C17 1_555 1_555
C15P C14P 1_555 1_555
C16P C23B 1_555 1_555
C17P C14B 1_555 1_555
C18P C17P 1_555 1_555
C19P C20O 1_555 1_555
C20P C19P 1_555 1_555
C21P C14 1_555 1_555
C22P C18P 1_555 1_555
C23P C16 1_555 1_555
C14Q C21 1_555 1_555
C15Q C14Q 1_555 1_555
C16Q C23 1_555 1_555
C17Q C14 1_555 1_555
C18Q C17Q 1_555 1_555
C19Q C20P 1_555 1_555
C20Q C19O 1_555 1_555
C21Q C14A 1_555 1_555
C22Q C18Q 1_555 1_555
C23Q C16A 1_555 1_555
C24O C41 1_555 1_555
C25O C24O 1_555 1_555
C26O C40 1_555 1_555
C27O C26O 1_555 1_555
C28O C27O 1_555 1_555
C29O C28O 1_555 1_555
C30O C25O 1_555 1_555
C31O C49 1_555 1_555
C32O C31O 1_555 1_555
C33O C29O 1_555 1_555
C34O C33O 1_555 1_555
C35O C34O 1_555 1_555
C36O C35O 1_555 1_555
C37O C32O 1_555 1_555
C38O C48 1_555 1_555
C39O C53 1_555 1_555
C40O C26 1_555 1_555
C41O C24 1_555 1_555
C42O C35O 1_555 1_555
C43O C42O 1_555 1_555
C44O C34O 1_555 1_555
C45O C28O 1_555 1_555
C46O C45O 1_555 1_555
C47O C46O 1_555 1_555
C48O C38 1_555 1_555
C49O C31 1_555 1_555
C50O C24 1_555 1_555
C51O C43O 1_555 1_555
C52O C27O 1_555 1_555
C53O C38 1_555 1_555
C9 C10 1_555 1_555
C22 C23 1_555 1_555
C32 C33 1_555 1_555
C36 C37 1_555 1_555
C39 C53O 1_555 1_555
C41 C42 1_555 1_555
C43 C44 1_555 1_555
C44 C45 1_555 1_555
C46 C52 1_555 1_555
C47 C51 1_555 1_555
C50 C51 1_555 1_555
C50 C24O 1_555 1_555
C53 C38O 1_555 1_555
C2A C3A 1_555 1_555
C9A C10A 1_555 1_555
N3B C12B 1_555 1_555
C2B C3B 1_555 1_555
C9B C10B 1_555 1_555
C12B C13B 1_555 1_555
C17A C14Q 1_555 1_555
C21A C22A 1_555 1_555
C22A C23A 1_555 1_555
C17B C14O 1_555 1_555
C19B C20B 1_555 1_555
C21B C22B 1_555 1_555
C21B C14P 1_555 1_555
C22B C23B 1_555 1_555
C15O C16O 1_555 1_555
C15O C23O 1_555 1_555
C16O C17O 1_555 1_555
C20O C21O 1_555 1_555
C21O C22O 1_555 1_555
C22O C23O 1_555 1_555
C15P C16P 1_555 1_555
C15P C23P 1_555 1_555
C16P C17P 1_555 1_555
C18P C19P 1_555 1_555
C20P C21P 1_555 1_555
C21P C22P 1_555 1_555
C22P C23P 1_555 1_555
C15Q C16Q 1_555 1_555
C15Q C23Q 1_555 1_555
C16Q C17Q 1_555 1_555
C18Q C19Q 1_555 1_555
C19Q C20Q 1_555 1_555
C20Q C21Q 1_555 1_555
C21Q C22Q 1_555 1_555
C22Q C23Q 1_555 1_555
C25O C26O 1_555 1_555
C29O C30O 1_555 1_555
C30O C31O 1_555 1_555
C32O C33O 1_555 1_555
C36O C37O 1_555 1_555
C36O C39O 1_555 1_555
C37O C38O 1_555 1_555
C39O C40O 1_555 1_555
C40O C41O 1_555 1_555
C41O C42O 1_555 1_555
C43O C44O 1_555 1_555
C44O C45O 1_555 1_555
C46O C52O 1_555 1_555
C47O C48O 1_555 1_555
C47O C51O 1_555 1_555
C48O C49O 1_555 1_555
C49O C50O 1_555 1_555
C50O C51O 1_555 1_555
C52O C53O 1_555 1_555

#END
