
#######################################################################
#
#                 Cambridge Crystallographic Data Centre
#                                CCDC 
#
#######################################################################
#
# If this CIF has been generated from an entry in the Cambridge 
# Structural Database, then it will include bibliographic, chemical, 
# crystal, experimental, refinement or atomic coordinate data resulting 
# from the CCDC's data processing and validation procedures.
#
#######################################################################

data_BODFEH
_chemical_formula_moiety         'C34 H40 N2 O4 2+,2(B1 F4 1-)'
_chemical_name_systematic        
"4,4'-(2,4-bis(3,4-dimethoxyphenyl)cyclobutane-1,3-diyl)bis(1-ethylpyridinium) bis(tetrafluoroborate)"
_symmetry_cell_setting           monoclinic
_symmetry_space_group_name_H-M   'P 21/c'
_symmetry_Int_Tables_number      14
_space_group_name_Hall           '-P 2ybc'
loop_
_symmetry_equiv_pos_site_id
_symmetry_equiv_pos_as_xyz
1 x,y,z
2 -x,1/2+y,1/2-z
3 -x,-y,-z
4 x,1/2-y,1/2+z
_cell_length_a                   7.319(2)
_cell_length_b                   20.852(7)
_cell_length_c                   11.302(4)
_cell_angle_alpha                90
_cell_angle_beta                 91.835(5)
_cell_angle_gamma                90
_cell_volume                     1723.98
_exptl_crystal_colour            yellow
_cell_formula_units_Z            2
loop_
_atom_site_label
_atom_site_type_symbol
_atom_site_fract_x
_atom_site_fract_y
_atom_site_fract_z
O1 O 0.6167(9) 0.2367(3) 0.2531(6)
O2 O 0.6372(3) 0.13276(10) 0.3772(2)
N1 N 0.7712(6) -0.15582(13) -0.3021(3)
C1 C 0.7924(4) -0.09780(13) -0.3505(4)
H1 H 0.7828 -0.0932 -0.4341
C2 C 0.8277(3) -0.04500(11) -0.2815(2)
H2 H 0.8416 -0.0041 -0.3173
C3 C 0.8432(3) -0.05122(11) -0.1585(2)
C4 C 0.8065(3) -0.11148(13) -0.11073(19)
H3 H 0.8047 -0.1171 -0.0274
C5 C 0.7734(5) -0.16212(18) -0.1845(3)
H4 H 0.7512 -0.2031 -0.1513
C6 C 0.9214(3) 0.00232(9) -0.08547(17)
H5 H 0.9048 0.0443 -0.1274
C7 C 0.8694(3) 0.00823(9) 0.04562(16)
H6 H 0.7950 -0.0297 0.0689
C8 C 0.7825(3) 0.06900(11) 0.0882(2)
C9 C 0.7641(3) 0.12405(15) 0.0226(2)
H7 H 0.7908 0.1234 -0.0591
C10 C 0.7062(4) 0.18125(17) 0.0744(3)
H8 H 0.6922 0.2186 0.0269
C11 C 0.6690(4) 0.18430(14) 0.1939(3)
C12 C 0.6814(4) 0.12660(16) 0.2599(3)
C13 C 0.7354(3) 0.07081(10) 0.2082(2)
H9 H 0.7414 0.0326 0.2539
C14 C 0.6247(6) 0.2971(2) 0.1926(4)
H10 H 0.5406 0.2964 0.1234
H11 H 0.7495 0.3046 0.1669
H12 H 0.5894 0.3315 0.2462
C15 C 0.6618(4) 0.07717(13) 0.4485(2)
H13 H 0.6260 0.0866 0.5295
H14 H 0.7906 0.0642 0.4493
H15 H 0.5857 0.0423 0.4161
C16 C 0.7625(3) -0.21277(10) -0.38064(17)
H16 H 0.6987 -0.2016 -0.4564
H17 H 0.6930 -0.2475 -0.3427
C17 C 0.9534(3) -0.23527(11) -0.4035(2)
H18 H 1.0220 -0.2005 -0.4401
H19 H 0.9482 -0.2723 -0.4569
H20 H 1.0145 -0.2476 -0.3285
O1B O 1.3833(9) -0.2367(3) -0.2531(6)
O2B O 1.3628(3) -0.13276(10) -0.3772(2)
N1B N 1.2288(6) 0.15582(13) 0.3021(3)
C1B C 1.2076(4) 0.09780(13) 0.3505(4)
H1B H 1.2172 0.0932 0.4341
C2B C 1.1723(3) 0.04500(11) 0.2815(2)
H2B H 1.1584 0.0041 0.3173
C3B C 1.1568(3) 0.05122(11) 0.1585(2)
C4B C 1.1935(3) 0.11148(13) 0.11073(19)
H3B H 1.1953 0.1171 0.0274
C5B C 1.2266(5) 0.16212(18) 0.1845(3)
H4B H 1.2488 0.2031 0.1513
C6B C 1.0786(3) -0.00232(9) 0.08547(17)
H5B H 1.0952 -0.0443 0.1274
C7B C 1.1306(3) -0.00823(9) -0.04562(16)
H6B H 1.2050 0.0297 -0.0689
C8B C 1.2175(3) -0.06900(11) -0.0882(2)
C9B C 1.2359(3) -0.12405(15) -0.0226(2)
H7B H 1.2092 -0.1234 0.0591
C10B C 1.2938(4) -0.18125(17) -0.0744(3)
H8B H 1.3078 -0.2186 -0.0269
C11B C 1.3310(4) -0.18430(14) -0.1939(3)
C12B C 1.3186(4) -0.12660(16) -0.2599(3)
C13B C 1.2646(3) -0.07081(10) -0.2082(2)
H9B H 1.2586 -0.0326 -0.2539
C14B C 1.3753(6) -0.2971(2) -0.1926(4)
H10B H 1.4594 -0.2964 -0.1234
H11B H 1.2505 -0.3046 -0.1669
H12B H 1.4106 -0.3315 -0.2462
C15B C 1.3382(4) -0.07717(13) -0.4485(2)
H13B H 1.3740 -0.0866 -0.5295
H14B H 1.2094 -0.0642 -0.4493
H15B H 1.4143 -0.0423 -0.4161
C16B C 1.2375(3) 0.21277(10) 0.38064(17)
H16B H 1.3013 0.2016 0.4564
H17B H 1.3070 0.2475 0.3427
C17B C 1.0466(3) 0.23527(11) 0.4035(2)
H18B H 0.9780 0.2005 0.4401
H19B H 1.0518 0.2723 0.4569
H20B H 0.9855 0.2476 0.3285
B1 B 0.1711(4) 0.37794(12) 0.1954(2)
F1 F 0.2079(7) 0.3227(2) 0.1417(4)
F2 F 0.2676(7) 0.3815(3) 0.3094(5)
F3 F 0.2444(7) 0.4236(3) 0.1315(5)
F4 F -0.0203(6) 0.3938(2) 0.2009(4)
O3? O 0.659(3) 0.1279(10) 0.343(2)
O4? O 0.622(8) 0.246(2) 0.245(5)
N2? N 0.760(4) -0.1571(9) -0.2967(16)
C18? C 0.785(4) -0.0926(10) -0.3229(14)
H21? H 0.7854 -0.0788 -0.4030
C19? C 0.810(2) -0.0483(6) -0.2319(19)
H22? H 0.8272 -0.0043 -0.2498
C20? C 0.810(2) -0.0685(8) -0.1147(16)
C21? C 0.784(3) -0.1330(9) -0.0885(14)
H23? H 0.7842 -0.1468 -0.0084
C22? C 0.760(3) -0.1773(6) -0.1795(19)
H24? H 0.7424 -0.2213 -0.1616
C23? C 0.874(3) -0.0259(10) -0.0131(18)
H25? H 0.7920 -0.0314 0.0555
C24? C 0.915(2) 0.0396(9) -0.0282(16)
H26? H 0.9075 0.0512 -0.1141
C25? C 0.816(3) 0.0907(12) 0.046(2)
C26? C 0.777(3) 0.1470(13) -0.005(2)
H27? H 0.7967 0.1515 -0.0871
C27? C 0.710(4) 0.1979(13) 0.053(3)
H28? H 0.6976 0.2398 0.0213
C28? C 0.668(4) 0.1819(15) 0.158(3)
C29? C 0.701(5) 0.136(2) 0.232(4)
C30? C 0.769(2) 0.0788(8) 0.158(2)
H29? H 0.7771 0.0369 0.1905
C31? C 0.686(5) 0.0600(17) 0.399(4)
H30? H 0.6462 0.0607 0.4809
H31? H 0.8156 0.0482 0.3978
H32? H 0.6135 0.0285 0.3535
C32? C 0.671(4) 0.3007(18) 0.188(3)
H33? H 0.5828 0.3093 0.1225
H34? H 0.7931 0.2953 0.1562
H35? H 0.6720 0.3369 0.2433
H36? H 0.7017 -0.2001 -0.4566
H37? H 0.6920 -0.2487 -0.3473
F5? F 0.1906(12) 0.3112(3) 0.1641(6)
F6? F 0.2289(11) 0.3721(3) 0.3162(5)
F7? F 0.3032(12) 0.4073(3) 0.1258(6)
F8? F 0.0301(12) 0.4141(4) 0.1874(9)
F9? F 0.1384(6) 0.3156(2) 0.1484(4)
F10? F 0.1675(7) 0.3768(2) 0.3121(4)
F11? F 0.3190(9) 0.4159(3) 0.1503(6)
F12? F -0.0004(9) 0.4039(3) 0.1519(5)
loop_
_geom_bond_atom_site_label_1
_geom_bond_atom_site_label_2
_geom_bond_site_symmetry_1
_geom_bond_site_symmetry_2
O1 C11 1_555 1_555
O2 C12 1_555 1_555
N1 C1 1_555 1_555
C1 H1 1_555 1_555
C2 C1 1_555 1_555
H2 C2 1_555 1_555
C3 C2 1_555 1_555
C4 C3 1_555 1_555
H3 C4 1_555 1_555
C5 N1 1_555 1_555
H4 C5 1_555 1_555
C6 C3 1_555 1_555
H5 C6 1_555 1_555
C7 C6 1_555 1_555
H6 C7 1_555 1_555
C8 C7 1_555 1_555
C9 C8 1_555 1_555
H7 C9 1_555 1_555
C10 C9 1_555 1_555
H8 C10 1_555 1_555
C11 C10 1_555 1_555
C12 C11 1_555 1_555
C13 C8 1_555 1_555
H9 C13 1_555 1_555
C14 O1 1_555 1_555
H10 C14 1_555 1_555
H11 C14 1_555 1_555
H12 C14 1_555 1_555
C15 O2 1_555 1_555
H13 C15 1_555 1_555
H14 C15 1_555 1_555
H15 C15 1_555 1_555
C16 N1 1_555 1_555
H16 C16 1_555 1_555
H17 C16 1_555 1_555
C17 C16 1_555 1_555
H18 C17 1_555 1_555
H19 C17 1_555 1_555
H20 C17 1_555 1_555
B1 F1 1_555 1_555
F2 B1 1_555 1_555
F3 B1 1_555 1_555
F4 B1 1_555 1_555
O1B C11B 1_555 1_555
O2B C12B 1_555 1_555
N1B C1B 1_555 1_555
C1B H1B 1_555 1_555
C2B C1B 1_555 1_555
H2B C2B 1_555 1_555
C3B C2B 1_555 1_555
C4B C3B 1_555 1_555
H3B C4B 1_555 1_555
C5B N1B 1_555 1_555
H4B C5B 1_555 1_555
C6B C7 1_555 1_555
H5B C6B 1_555 1_555
C7B C6 1_555 1_555
H6B C7B 1_555 1_555
C8B C7B 1_555 1_555
C9B C8B 1_555 1_555
H7B C9B 1_555 1_555
C10B C9B 1_555 1_555
H8B C10B 1_555 1_555
C11B C10B 1_555 1_555
C12B C11B 1_555 1_555
C13B C8B 1_555 1_555
H9B C13B 1_555 1_555
C14B O1B 1_555 1_555
H10B C14B 1_555 1_555
H11B C14B 1_555 1_555
H12B C14B 1_555 1_555
C15B O2B 1_555 1_555
H13B C15B 1_555 1_555
H14B C15B 1_555 1_555
H15B C15B 1_555 1_555
C16B N1B 1_555 1_555
H16B C16B 1_555 1_555
H17B C16B 1_555 1_555
C17B C16B 1_555 1_555
H18B C17B 1_555 1_555
H19B C17B 1_555 1_555
H20B C17B 1_555 1_555
C4 C5 1_555 1_555
C12 C13 1_555 1_555
C3B C6B 1_555 1_555
C4B C5B 1_555 1_555
C6B C7B 1_555 1_555
C12B C13B 1_555 1_555

#END
