
#######################################################################
#
#                 Cambridge Crystallographic Data Centre
#                                CCDC 
#
#######################################################################
#
# If this CIF has been generated from an entry in the Cambridge 
# Structural Database, then it will include bibliographic, chemical, 
# crystal, experimental, refinement or atomic coordinate data resulting 
# from the CCDC's data processing and validation procedures.
#
#######################################################################

data_BODJOT
_chemical_name_common            "18-Crown-6 4,4'-biphenyldiol dihydrate"
_chemical_formula_moiety         'C12 H24 O6,C12 H10 O2,2(H2 O1)'
_chemical_name_systematic        
"1,4,7,10,13,16-Hexaoxacyclo-octadecane 4,4'-biphenyldiol dihydrate"
_symmetry_cell_setting           monoclinic
_symmetry_space_group_name_H-M   'P 21/c'
_symmetry_Int_Tables_number      14
_space_group_name_Hall           '-P 2ybc'
loop_
_symmetry_equiv_pos_site_id
_symmetry_equiv_pos_as_xyz
1 x,y,z
2 -x,1/2+y,1/2-z
3 -x,-y,-z
4 x,1/2-y,1/2+z
_cell_length_a                   9.264(1)
_cell_length_b                   11.007(2)
_cell_length_c                   14.165(2)
_cell_angle_alpha                90
_cell_angle_beta                 109.10(1)
_cell_angle_gamma                90
_cell_volume                     1364.87
_cell_formula_units_Z            2
loop_
_atom_site_label
_atom_site_type_symbol
_atom_site_fract_x
_atom_site_fract_y
_atom_site_fract_z
O1 O 0.06330 0.15610 -0.14720
C1 C 0.12530 0.08840 -0.20990
C2 C 0.25470 0.01420 -0.14370
O2 O 0.19770 -0.07820 -0.09900
C3 C 0.31630 -0.14700 -0.03120
C4 C 0.25210 -0.24340 0.01380
O3 O 0.18460 -0.19510 0.07860
C5 C 0.12320 -0.28380 0.12680
C6 C -0.05950 0.22570 -0.19770
H1 H 0.04500 0.03300 -0.25800
H2 H 0.16900 0.14500 -0.24400
H3 H 0.32300 0.07200 -0.09000
H4 H 0.38000 -0.19200 -0.07000
H5 H 0.39000 -0.09200 0.02600
H6 H 0.16800 -0.29100 -0.04400
H7 H 0.32800 -0.29800 0.04700
H8 H 0.03800 -0.33300 0.07800
H9 H 0.20800 -0.33700 0.16200
H10 H -0.03200 0.29000 -0.23700
H11 H -0.14700 0.17200 -0.25300
C6B C 0.05950 -0.22570 0.19770
C5B C -0.12320 0.28380 -0.12680
O1B O -0.06330 -0.15610 0.14720
H10B H 0.03200 -0.29000 0.23700
H11B H 0.14700 -0.17200 0.25300
O3B O -0.18460 0.19510 -0.07860
H8B H -0.03800 0.33300 -0.07800
H9B H -0.20800 0.33700 -0.16200
C1B C -0.12530 -0.08840 0.20990
C4B C -0.25210 0.24340 -0.01380
C2B C -0.25470 -0.01420 0.14370
H1B H -0.04500 -0.03300 0.25800
H2B H -0.16900 -0.14500 0.24400
C3B C -0.31630 0.14700 0.03120
H6B H -0.16800 0.29100 0.04400
H7B H -0.32800 0.29800 -0.04700
O2B O -0.19770 0.07820 0.09900
H3B H -0.32300 -0.07200 0.09000
H4B H -0.38000 0.19200 0.07000
H5B H -0.39000 0.09200 -0.02600
O4 O 0.12630 0.05690 0.11500
H12 H 0.01400 0.06300 0.10900
H13 H 0.14500 -0.03300 0.10200
O5 O 0.35210 0.20630 0.21380
C7 C 0.38860 0.28760 0.15310
C8 C 0.31830 0.28860 0.05190
C9 C 0.36070 0.37160 -0.00730
C10 C 0.47550 0.45650 0.03270
C11 C 0.54330 0.45380 0.13490
C12 C 0.50270 0.37090 0.19440
H14 H 0.25600 0.14300 0.17300
H15 H 0.22800 0.22700 0.01700
H16 H 0.30000 0.36400 -0.07900
H17 H 0.63200 0.51300 0.17300
H18 H 0.55500 0.37200 0.26800
C10B C 0.52450 0.54350 -0.03270
C9B C 0.63930 0.62840 0.00730
C11B C 0.45670 0.54620 -0.13490
C8B C 0.68170 0.71140 -0.05190
H16B H 0.70000 0.63600 0.07900
C12B C 0.49730 0.62910 -0.19440
H17B H 0.36800 0.48700 -0.17300
C7B C 0.61140 0.71240 -0.15310
H15B H 0.77200 0.77300 -0.01700
H18B H 0.44500 0.62800 -0.26800
O5B O 0.64790 0.79370 -0.21380
H14B H 0.74400 0.85700 -0.17300
loop_
_geom_bond_atom_site_label_1
_geom_bond_atom_site_label_2
_geom_bond_site_symmetry_1
_geom_bond_site_symmetry_2
O1 C1 1_555 1_555
C1 C2 1_555 1_555
C2 O2 1_555 1_555
O2 C3 1_555 1_555
C3 C4 1_555 1_555
C4 O3 1_555 1_555
O3 C5 1_555 1_555
C5 H8 1_555 1_555
C6 O1 1_555 1_555
O4 H12 1_555 1_555
O5 C7 1_555 1_555
C7 C8 1_555 1_555
C8 C9 1_555 1_555
C9 C10 1_555 1_555
C10 C11 1_555 1_555
C11 C12 1_555 1_555
C12 C7 1_555 1_555
H1 C1 1_555 1_555
H2 C1 1_555 1_555
H3 C2 1_555 1_555
H4 C3 1_555 1_555
H5 C3 1_555 1_555
H6 C4 1_555 1_555
H7 C4 1_555 1_555
H9 C5 1_555 1_555
H10 C6 1_555 1_555
H11 C6 1_555 1_555
H13 O4 1_555 1_555
H14 O5 1_555 1_555
H15 C8 1_555 1_555
H16 C9 1_555 1_555
H17 C11 1_555 1_555
H18 C12 1_555 1_555
C6B C5 1_555 1_555
C5B C6 1_555 1_555
O1B C6B 1_555 1_555
H10B C6B 1_555 1_555
H11B C6B 1_555 1_555
O3B C5B 1_555 1_555
H8B C5B 1_555 1_555
H9B C5B 1_555 1_555
C1B O1B 1_555 1_555
C4B O3B 1_555 1_555
C2B C1B 1_555 1_555
H1B C1B 1_555 1_555
H2B C1B 1_555 1_555
C3B C4B 1_555 1_555
H6B C4B 1_555 1_555
H7B C4B 1_555 1_555
O2B C2B 1_555 1_555
H3B C2B 1_555 1_555
H4B C3B 1_555 1_555
H5B C3B 1_555 1_555
C10B C10 1_555 1_555
C9B C10B 1_555 1_555
C11B C10B 1_555 1_555
C8B C9B 1_555 1_555
H16B C9B 1_555 1_555
C12B C11B 1_555 1_555
H17B C11B 1_555 1_555
C7B C8B 1_555 1_555
H15B C8B 1_555 1_555
H18B C12B 1_555 1_555
O5B C7B 1_555 1_555
H14B O5B 1_555 1_555
C3B O2B 1_555 1_555
C12B C7B 1_555 1_555

#END
