
#######################################################################
#
#                 Cambridge Crystallographic Data Centre
#                                CCDC 
#
#######################################################################
#
# If this CIF has been generated from an entry in the Cambridge 
# Structural Database, then it will include bibliographic, chemical, 
# crystal, experimental, refinement or atomic coordinate data resulting 
# from the CCDC's data processing and validation procedures.
#
#######################################################################

data_BODSUK
_chemical_formula_moiety         'C17 H20 N1 O2 1+,F6 P1 1-'
_chemical_name_systematic        
'4-(2-(3,4-dimethoxyphenyl)vinyl)-1-ethylpyridinium hexafluorophosphate'
_symmetry_cell_setting           monoclinic
_symmetry_space_group_name_H-M   'P 21/c'
_symmetry_Int_Tables_number      14
_space_group_name_Hall           '-P 2ybc'
loop_
_symmetry_equiv_pos_site_id
_symmetry_equiv_pos_as_xyz
1 x,y,z
2 -x,1/2+y,1/2-z
3 -x,-y,-z
4 x,1/2-y,1/2+z
_cell_length_a                   7.106(2)
_cell_length_b                   22.507(7)
_cell_length_c                   11.576(3)
_cell_angle_alpha                90
_cell_angle_beta                 90.143(8)
_cell_angle_gamma                90
_cell_volume                     1851.4
_exptl_crystal_colour            yellow
_exptl_crystal_description       block
_cell_formula_units_Z            4
loop_
_atom_site_label
_atom_site_type_symbol
_atom_site_fract_x
_atom_site_fract_y
_atom_site_fract_z
F1 F 0.8667(5) 0.53933(11) -0.2625(2)
P1 P 0.8379(5) 0.6053(2) -0.3152(3)
F2 F 0.8097(11) 0.6721(3) -0.3632(5)
F3 F 0.6752(9) 0.6158(2) -0.2230(4)
F4 F 0.6898(8) 0.5833(3) -0.4072(4)
F5 F 1.0027(6) 0.5970(2) -0.4070(4)
F6 F 0.9836(8) 0.63011(17) -0.2245(4)
O1 O 0.3603(5) 0.74048(12) 0.2175(3)
O2 O 0.3471(5) 0.64176(12) 0.3352(2)
N1 N 0.1386(16) 0.3350(5) -0.2613(8)
C1 C 0.153(2) 0.3836(5) -0.3275(11)
H1 H 0.1366 0.3800 -0.4087
C2 C 0.1897(18) 0.4394(5) -0.2806(8)
H2 H 0.2028 0.4727 -0.3303
C3 C 0.2082(13) 0.4471(4) -0.1602(8)
C4 C 0.1968(19) 0.3933(4) -0.0948(7)
H3 H 0.2029 0.3954 -0.0129
C5 C 0.2384(9) 0.5052(3) -0.1133(6)
H4 H 0.2391 0.5377 -0.1656
C6 C 0.2660(11) 0.5172(4) 0.0004(7)
H5 H 0.2677 0.4845 0.0523
C7 C 0.2934(17) 0.5769(5) 0.0496(9)
C8 C 0.301(2) 0.6270(5) -0.0177(11)
H6 H 0.2918 0.6231 -0.0993
C9 C 0.313(2) 0.5813(8) 0.1705(10)
H7 H 0.3145 0.5468 0.2177
C10 C 0.0944(18) 0.2780(4) -0.3211(11)
H8 H 0.0557 0.2477 -0.2640
H9 H -0.0103 0.2839 -0.3765
C11 C 0.2647(15) 0.2580(5) -0.3830(8)
H10 H 0.2376 0.2208 -0.4236
H11 H 0.3670 0.2516 -0.3274
H12 H 0.3024 0.2884 -0.4389
C12 C 0.1767(8) 0.33694(19) -0.1477(3)
H13 H 0.1899 0.3015 -0.1040
C13 C 0.3220(8) 0.6881(2) 0.0347(4)
H14 H 0.3254 0.7231 -0.0112
C14 C 0.3363(7) 0.68982(17) 0.1538(3)
C15 C 0.3303(7) 0.63616(16) 0.2172(3)
C16 C 0.3552(10) 0.79599(18) 0.1536(5)
H15 H 0.3742 0.8293 0.2070
H16 H 0.2328 0.8001 0.1153
H17 H 0.4553 0.7960 0.0955
C17 C 0.3344(9) 0.5884(2) 0.4036(4)
H18 H 0.3486 0.5984 0.4855
H19 H 0.4344 0.5608 0.3808
H20 H 0.2116 0.5696 0.3909
P2? P 0.847(2) 0.5951(8) -0.3233(12)
F7? F 0.835(3) 0.6546(6) -0.3967(12)
F8? F 0.798(3) 0.6311(5) -0.2101(9)
F9? F 0.6283(17) 0.5834(6) -0.3455(16)
F10? F 0.895(3) 0.5596(6) -0.4405(8)
F11? F 1.0679(19) 0.6079(8) -0.3041(18)
N2? N 0.206(2) 0.3401(8) -0.2655(12)
C18? C 0.197(3) 0.3964(8) -0.3115(16)
H21? H 0.1885 0.4027 -0.3925
C19? C 0.202(3) 0.4439(8) -0.2342(16)
H22? H 0.1990 0.4834 -0.2631
C20? C 0.211(2) 0.4345(6) -0.1159(13)
C21? C 0.209(3) 0.3786(7) -0.0700(13)
H23? H 0.2290 0.3705 0.0097
C22? C 0.2366(18) 0.4852(6) -0.0289(11)
H24? H 0.2402 0.4754 0.0509
C23? C 0.2541(17) 0.5407(7) -0.0575(12)
H25? H 0.2456 0.5491 -0.1378
C24? C 0.285(4) 0.5918(9) 0.0181(16)
C25? C 0.298(5) 0.6474(8) -0.027(2)
H26? H 0.2876 0.6533 -0.1080
C26? C 0.293(4) 0.5864(13) 0.1395(15)
H27? H 0.2738 0.5483 0.1725
C27? C 0.209(3) 0.2827(7) -0.3378(16)
H28? H 0.2942 0.2886 -0.4042
H29? H 0.2618 0.2503 -0.2898
C28? C 0.0199(16) 0.2635(5) -0.3825(11)
H30? H 0.0339 0.2268 -0.4272
H31? H -0.0323 0.2947 -0.4322
H32? H -0.0651 0.2565 -0.3174
H33? H 0.1278 0.3005 -0.1193
H34? H 0.3332 0.7255 -0.0029
loop_
_geom_bond_atom_site_label_1
_geom_bond_atom_site_label_2
_geom_bond_site_symmetry_1
_geom_bond_site_symmetry_2
F1 P1 1_555 1_555
P1 F2 1_555 1_555
F3 P1 1_555 1_555
F4 P1 1_555 1_555
F5 P1 1_555 1_555
F6 P1 1_555 1_555
O1 C14 1_555 1_555
O2 C15 1_555 1_555
N1 C1 1_555 1_555
C1 H1 1_555 1_555
C2 C1 1_555 1_555
H2 C2 1_555 1_555
C3 C2 1_555 1_555
C4 C3 1_555 1_555
H3 C4 1_555 1_555
C5 C3 1_555 1_555
H4 C5 1_555 1_555
C6 C5 1_555 1_555
H5 C6 1_555 1_555
C7 C6 1_555 1_555
C8 C7 1_555 1_555
H6 C8 1_555 1_555
C9 C7 1_555 1_555
H7 C9 1_555 1_555
C10 N1 1_555 1_555
H8 C10 1_555 1_555
H9 C10 1_555 1_555
C11 C10 1_555 1_555
H10 C11 1_555 1_555
H11 C11 1_555 1_555
H12 C11 1_555 1_555
C12 N1 1_555 1_555
H13 C12 1_555 1_555
C13 C8 1_555 1_555
H14 C13 1_555 1_555
C14 C13 1_555 1_555
C15 C9 1_555 1_555
C16 O1 1_555 1_555
H15 C16 1_555 1_555
H16 C16 1_555 1_555
H17 C16 1_555 1_555
C17 O2 1_555 1_555
H18 C17 1_555 1_555
H19 C17 1_555 1_555
H20 C17 1_555 1_555
C4 C12 1_555 1_555
C14 C15 1_555 1_555

#END
