
#######################################################################
#
#                 Cambridge Crystallographic Data Centre
#                                CCDC 
#
#######################################################################
#
# If this CIF has been generated from an entry in the Cambridge 
# Structural Database, then it will include bibliographic, chemical, 
# crystal, experimental, refinement or atomic coordinate data resulting 
# from the CCDC's data processing and validation procedures.
#
#######################################################################

data_BODSOE
_chemical_formula_moiety         'C17 H20 N1 O2 1+,B1 F4 1-'
_chemical_name_systematic        
'4-(2-(3,4-dimethoxyphenyl)vinyl)-1-ethylpyridinium tetrafluoroborate'
_symmetry_cell_setting           monoclinic
_symmetry_space_group_name_H-M   'P 21/c'
_symmetry_Int_Tables_number      14
_space_group_name_Hall           '-P 2ybc'
loop_
_symmetry_equiv_pos_site_id
_symmetry_equiv_pos_as_xyz
1 x,y,z
2 -x,1/2+y,1/2-z
3 -x,-y,-z
4 x,1/2-y,1/2+z
_cell_length_a                   7.3589(3)
_cell_length_b                   20.8300(9)
_cell_length_c                   11.2706(5)
_cell_angle_alpha                90
_cell_angle_beta                 91.727(3)
_cell_angle_gamma                90
_cell_volume                     1726.84
_exptl_crystal_colour            yellow
_exptl_crystal_description       block
_cell_formula_units_Z            4
loop_
_atom_site_label
_atom_site_type_symbol
_atom_site_fract_x
_atom_site_fract_y
_atom_site_fract_z
O1 O 0.1237(3) 0.36349(9) 0.88162(17)
O2 O 0.0943(3) 0.25647(8) 0.76344(17)
N1 N 0.3024(3) 0.66498(10) 0.20495(19)
C1 C 0.3019(4) 0.66815(13) 0.3245(2)
H1 H 0.3048 0.7090 0.3621
C2 C 0.2974(4) 0.61365(12) 0.3932(2)
H2 H 0.2968 0.6169 0.4773
C3 C 0.2935(4) 0.55272(12) 0.3378(2)
C4 C 0.3034(4) 0.55168(13) 0.2143(2)
H3 H 0.3079 0.5116 0.1742
C5 C 0.3065(4) 0.60752(13) 0.1501(3)
H4 H 0.3117 0.6057 0.0660
C6 C 0.2747(4) 0.49232(13) 0.4019(3)
H5 H 0.2862 0.4540 0.3570
C7 C 0.2431(4) 0.48552(13) 0.5170(2)
H6 H 0.2400 0.5235 0.5635
C8 C 0.2126(4) 0.42448(12) 0.5783(2)
C9 C 0.1891(4) 0.42432(12) 0.7017(2)
H7 H 0.1987 0.4635 0.7446
C10 C 0.1519(4) 0.36770(12) 0.7620(2)
C11 C 0.1369(4) 0.30956(12) 0.6978(2)
C12 C 0.1642(4) 0.30941(13) 0.5770(3)
H8 H 0.1575 0.2702 0.5341
C13 C 0.2013(4) 0.36601(13) 0.5177(3)
H9 H 0.2194 0.3650 0.4347
C14 C 0.1511(5) 0.42156(14) 0.9493(3)
H10 H 0.1272 0.4132 1.0329
H11 H 0.0678 0.4548 0.9190
H12 H 0.2768 0.4362 0.9420
C15 C 0.0908(5) 0.19597(13) 0.7008(3)
H13 H 0.0594 0.1614 0.7555
H14 H 0.2107 0.1876 0.6686
H15 H -0.0003 0.1979 0.6356
C16 C 0.3043(4) 0.72509(13) 0.1330(2)
H16 H 0.2463 0.7602 0.1774
H17 H 0.2332 0.7184 0.0580
C17 C 0.4949(4) 0.74394(15) 0.1053(3)
H18 H 0.4927 0.7835 0.0583
H19 H 0.5516 0.7096 0.0600
H20 H 0.5649 0.7511 0.1795
B1 B 0.3640(5) 0.61289(15) 0.8089(3)
F1 F 0.3202(6) 0.6714(2) 0.8636(4)
F2 F 0.2695(7) 0.61727(19) 0.6946(4)
F3 F 0.2921(8) 0.5647(2) 0.8730(4)
F4 F 0.5507(6) 0.6002(2) 0.7961(5)
F5? F 0.3788(7) 0.6757(2) 0.8585(4)
F6? F 0.3408(9) 0.6173(2) 0.6891(4)
F7? F 0.2203(7) 0.5766(2) 0.8605(5)
F8? F 0.5333(8) 0.5879(3) 0.8400(5)
F9? F 0.195(3) 0.5797(17) 0.796(4)
F10? F 0.438(4) 0.6112(10) 0.6938(14)
F11? F 0.369(4) 0.6624(10) 0.8961(19)
F12? F 0.427(4) 0.5602(10) 0.880(2)
loop_
_geom_bond_atom_site_label_1
_geom_bond_atom_site_label_2
_geom_bond_site_symmetry_1
_geom_bond_site_symmetry_2
O1 C10 1_555 1_555
O2 C11 1_555 1_555
N1 C1 1_555 1_555
C1 H1 1_555 1_555
C2 C1 1_555 1_555
H2 C2 1_555 1_555
C3 C2 1_555 1_555
C4 C3 1_555 1_555
H3 C4 1_555 1_555
C5 N1 1_555 1_555
H4 C5 1_555 1_555
C6 C3 1_555 1_555
H5 C6 1_555 1_555
C7 C6 1_555 1_555
H6 C7 1_555 1_555
C8 C7 1_555 1_555
C9 C8 1_555 1_555
H7 C9 1_555 1_555
C10 C9 1_555 1_555
C11 C10 1_555 1_555
C12 C11 1_555 1_555
H8 C12 1_555 1_555
C13 C8 1_555 1_555
H9 C13 1_555 1_555
C14 O1 1_555 1_555
H10 C14 1_555 1_555
H11 C14 1_555 1_555
H12 C14 1_555 1_555
C15 O2 1_555 1_555
H13 C15 1_555 1_555
H14 C15 1_555 1_555
H15 C15 1_555 1_555
C16 N1 1_555 1_555
H16 C16 1_555 1_555
H17 C16 1_555 1_555
C17 C16 1_555 1_555
H18 C17 1_555 1_555
H19 C17 1_555 1_555
H20 C17 1_555 1_555
B1 F1 1_555 1_555
F2 B1 1_555 1_555
F3 B1 1_555 1_555
F4 B1 1_555 1_555
C4 C5 1_555 1_555
C12 C13 1_555 1_555

#END
