
#######################################################################
#
#                 Cambridge Crystallographic Data Centre
#                                CCDC 
#
#######################################################################
#
# If this CIF has been generated from an entry in the Cambridge 
# Structural Database, then it will include bibliographic, chemical, 
# crystal, experimental, refinement or atomic coordinate data resulting 
# from the CCDC's data processing and validation procedures.
#
#######################################################################

data_BODVOH
_chemical_formula_moiety         'C17 H20 N1 O2 1+,C6 H2 N3 O7 1-,0.5(C6 H6)'
_chemical_name_systematic        
'4-(2-(3,4-dimethoxyphenyl)vinyl)-1-ethylpyridinium 2,4,6-trinitrophenolate benzene solvate'
_symmetry_cell_setting           monoclinic
_symmetry_space_group_name_H-M   'P 21/c'
_symmetry_Int_Tables_number      14
_space_group_name_Hall           '-P 2ybc'
loop_
_symmetry_equiv_pos_site_id
_symmetry_equiv_pos_as_xyz
1 x,y,z
2 -x,1/2+y,1/2-z
3 -x,-y,-z
4 x,1/2-y,1/2+z
_cell_length_a                   11.7370(10)
_cell_length_b                   26.623(2)
_cell_length_c                   8.2528(7)
_cell_angle_alpha                90
_cell_angle_beta                 109.714(3)
_cell_angle_gamma                90
_cell_volume                     2427.64
_cell_formula_units_Z            4
loop_
_atom_site_label
_atom_site_type_symbol
_atom_site_fract_x
_atom_site_fract_y
_atom_site_fract_z
O1 O 0.4355(3) 0.26978(10) -0.1011(4)
O2 O 0.4093(3) 0.36797(11) -0.1246(4)
O3 O 0.5564(3) 0.41366(10) 0.0289(4)
O4 O 0.8528(3) 0.35405(12) 0.5326(4)
O5 O 0.8758(3) 0.27430(11) 0.5817(4)
O6 O 0.6308(3) 0.15677(12) 0.1969(6)
O7 O 0.4592(3) 0.17629(12) 0.0231(5)
N1 N 0.5066(3) 0.37272(13) -0.0076(4)
N2 N 0.8231(3) 0.31014(14) 0.4946(5)
N3 N 0.5591(3) 0.18790(12) 0.1205(5)
C1 C 0.5199(4) 0.27879(14) 0.0350(5)
C2 C 0.5643(4) 0.32919(14) 0.0916(5)
C3 C 0.6621(4) 0.33952(15) 0.2378(5)
H1 H 0.6873 0.3732 0.2679
C4 C 0.7227(4) 0.29982(15) 0.3397(5)
C5 C 0.6876(4) 0.25096(15) 0.2967(5)
H2 H 0.7310 0.2243 0.3670
C6 C 0.5899(4) 0.24060(14) 0.1522(5)
O8 O 0.9078(3) 0.07016(10) 0.5672(4)
O9 O 1.0455(3) 0.00966(10) 0.7958(4)
N4 N 1.2129(3) 0.40245(11) 1.0474(4)
C7 C 1.2857(4) 0.37284(15) 1.1710(5)
H3 H 1.3419 0.3879 1.2703
C8 C 1.2810(4) 0.32179(14) 1.1576(5)
H4 H 1.3349 0.3019 1.2462
C9 C 1.1982(4) 0.29851(15) 1.0160(5)
C10 C 1.1240(4) 0.33015(15) 0.8865(5)
H5 H 1.0672 0.3160 0.7858
C11 C 1.1335(4) 0.38106(15) 0.9052(5)
H6 H 1.0833 0.4020 0.8164
C12 C 1.1914(4) 0.24388(15) 1.0106(5)
H7 H 1.2520 0.2255 1.0960
C13 C 1.1045(4) 0.21796(15) 0.8918(5)
H8 H 1.0444 0.2370 0.8082
C14 C 1.0933(4) 0.16340(15) 0.8786(5)
C15 C 1.0019(3) 0.14337(15) 0.7347(5)
H9 H 0.9480 0.1654 0.6540
C16 C 0.9899(3) 0.09292(15) 0.7100(5)
C17 C 1.0663(4) 0.05935(14) 0.8290(5)
C18 C 1.1575(4) 0.07926(15) 0.9710(5)
H10 H 1.2113 0.0573 1.0519
C19 C 1.1703(4) 0.13056(15) 0.9947(5)
H11 H 1.2328 0.1435 1.0920
C20 C 0.8258(4) 0.10242(15) 0.4439(6)
H12 H 0.7680 0.0821 0.3545
H13 H 0.8712 0.1241 0.3915
H14 H 0.7819 0.1232 0.5013
C21 C 1.1241(4) -0.02477(16) 0.9158(6)
H15 H 1.0991 -0.0593 0.8798
H16 H 1.1195 -0.0189 1.0306
H17 H 1.2075 -0.0196 0.9189
C22 C 1.2212(4) 0.45801(14) 1.0604(6)
H18 H 1.2655 0.4676 1.1812
H19 H 1.1387 0.4724 1.0277
C23 C 1.2851(4) 0.47952(15) 0.9456(6)
H20 H 1.2362 0.4736 0.8250
H21 H 1.3641 0.4632 0.9710
H22 H 1.2965 0.5157 0.9662
C24 C 0.5379(4) 0.45299(17) 0.4678(6)
H23 H 0.5649 0.4209 0.4458
C25 C 0.5004(4) 0.46012(17) 0.6083(6)
H24 H 0.4997 0.4328 0.6822
C26 C 0.4641(4) 0.50719(18) 0.6397(6)
H25 H 0.4400 0.5123 0.7374
C24B C 0.4621(4) 0.54701(17) 0.5322(6)
H23B H 0.4351 0.5791 0.5542
C25B C 0.4996(4) 0.53988(17) 0.3917(6)
H24B H 0.5003 0.5672 0.3178
C26B C 0.5359(4) 0.49281(18) 0.3603(6)
H25B H 0.5600 0.4877 0.2626
loop_
_geom_bond_atom_site_label_1
_geom_bond_atom_site_label_2
_geom_bond_site_symmetry_1
_geom_bond_site_symmetry_2
O1 C1 1_555 1_555
O2 N1 1_555 1_555
O3 N1 1_555 1_555
O4 N2 1_555 1_555
O5 N2 1_555 1_555
O6 N3 1_555 1_555
O7 N3 1_555 1_555
N1 C2 1_555 1_555
N2 C4 1_555 1_555
N3 C6 1_555 1_555
C1 C2 1_555 1_555
C2 C3 1_555 1_555
C3 H1 1_555 1_555
C4 C3 1_555 1_555
C5 C4 1_555 1_555
H2 C5 1_555 1_555
C6 C1 1_555 1_555
O8 C16 1_555 1_555
O9 C17 1_555 1_555
N4 C7 1_555 1_555
C7 H3 1_555 1_555
C8 C7 1_555 1_555
H4 C8 1_555 1_555
C9 C8 1_555 1_555
C10 C9 1_555 1_555
H5 C10 1_555 1_555
C11 N4 1_555 1_555
H6 C11 1_555 1_555
C12 C9 1_555 1_555
H7 C12 1_555 1_555
C13 C12 1_555 1_555
H8 C13 1_555 1_555
C14 C13 1_555 1_555
C15 C14 1_555 1_555
H9 C15 1_555 1_555
C16 C15 1_555 1_555
C17 C16 1_555 1_555
C18 C17 1_555 1_555
H10 C18 1_555 1_555
C19 C14 1_555 1_555
H11 C19 1_555 1_555
C20 O8 1_555 1_555
H12 C20 1_555 1_555
H13 C20 1_555 1_555
H14 C20 1_555 1_555
C21 O9 1_555 1_555
H15 C21 1_555 1_555
H16 C21 1_555 1_555
H17 C21 1_555 1_555
C22 N4 1_555 1_555
H18 C22 1_555 1_555
H19 C22 1_555 1_555
C23 C22 1_555 1_555
H20 C23 1_555 1_555
H21 C23 1_555 1_555
H22 C23 1_555 1_555
C24 H23 1_555 1_555
C25 C24 1_555 1_555
H24 C25 1_555 1_555
C26 C25 1_555 1_555
H25 C26 1_555 1_555
C24B C26 1_555 1_555
H23B C24B 1_555 1_555
C25B C24B 1_555 1_555
H24B C25B 1_555 1_555
C26B C24 1_555 1_555
H25B C26B 1_555 1_555
C5 C6 1_555 1_555
C10 C11 1_555 1_555
C18 C19 1_555 1_555
C25B C26B 1_555 1_555

#END
