
#######################################################################
#
#                 Cambridge Crystallographic Data Centre
#                                CCDC 
#
#######################################################################
#
# If this CIF has been generated from an entry in the Cambridge 
# Structural Database, then it will include bibliographic, chemical, 
# crystal, experimental, refinement or atomic coordinate data resulting 
# from the CCDC's data processing and validation procedures.
#
#######################################################################

data_BODWAU
_chemical_formula_moiety         'C17 H20 N1 O2 1+,C24 H20 B1 1-'
_chemical_name_systematic        
'4-(2-(3,4-dimethoxyphenyl)vinyl)-1-ethylpyridinium tetraphenylborate'
_symmetry_cell_setting           orthorhombic
_symmetry_space_group_name_H-M   'P 21 21 21'
_symmetry_Int_Tables_number      19
_space_group_name_Hall           'P 2ac 2ab'
loop_
_symmetry_equiv_pos_site_id
_symmetry_equiv_pos_as_xyz
1 x,y,z
2 1/2-x,-y,1/2+z
3 -x,1/2+y,1/2-z
4 1/2+x,1/2-y,-z
_cell_length_a                   8.9861(4)
_cell_length_b                   9.0343(4)
_cell_length_c                   40.1047(17)
_cell_angle_alpha                90
_cell_angle_beta                 90
_cell_angle_gamma                90
_cell_volume                     3255.82
_cell_formula_units_Z            4
loop_
_atom_site_label
_atom_site_type_symbol
_atom_site_fract_x
_atom_site_fract_y
_atom_site_fract_z
O1 O 0.6885(2) 0.4933(2) 0.22219(4)
O2 O 0.9250(2) 0.6318(2) 0.20363(4)
N1 N 1.3532(2) 0.9747(3) 0.41553(5)
C1 C 1.2805(3) 0.8499(3) 0.42411(7)
H1 H 1.3007 0.8046 0.4450
C2 C 1.1787(3) 0.7878(3) 0.40321(7)
H2 H 1.1262 0.7017 0.4101
C3 C 1.1503(3) 0.8481(3) 0.37203(7)
C4 C 1.2279(3) 0.9781(3) 0.36361(7)
H3 H 1.2115 1.0240 0.3426
C5 C 1.3277(3) 1.0389(3) 0.38578(6)
H4 H 1.3792 1.1271 0.3800
C6 C 1.0437(3) 0.7721(3) 0.34992(7)
H5 H 0.9691 0.7118 0.3598
C7 C 1.0468(3) 0.7838(3) 0.31737(7)
H6 H 1.1200 0.8473 0.3080
C8 C 0.9457(3) 0.7062(3) 0.29383(7)
C9 C 0.8189(3) 0.6314(3) 0.30376(7)
H7 H 0.7928 0.6291 0.3267
C10 C 0.7286(3) 0.5590(3) 0.28051(7)
H8 H 0.6412 0.5090 0.2876
C11 C 0.7668(3) 0.5606(3) 0.24726(6)
C12 C 0.8962(3) 0.6364(3) 0.23718(6)
C13 C 0.9827(3) 0.7080(3) 0.26023(7)
H9 H 1.0692 0.7595 0.2531
C14 C 0.5590(3) 0.4116(4) 0.23124(8)
H10 H 0.5118 0.3718 0.2111
H11 H 0.4889 0.4769 0.2428
H12 H 0.5871 0.3298 0.2460
C15 C 1.0554(4) 0.7041(5) 0.19184(8)
H13 H 1.0616 0.6938 0.1676
H14 H 1.1433 0.6591 0.2021
H15 H 1.0512 0.8094 0.1977
C16 C 1.4691(3) 1.0354(4) 0.43834(7)
H16 H 1.5140 1.1242 0.4280
H17 H 1.5487 0.9607 0.4412
C17 C 1.4082(3) 1.0762(4) 0.47205(6)
H18 H 1.3325 1.1535 0.4695
H19 H 1.4891 1.1131 0.4862
H20 H 1.3633 0.9887 0.4824
B1 B 0.6101(3) 0.5115(3) 0.40636(7)
C18 C 0.6728(3) 0.6814(3) 0.39791(6)
C19 C 0.6175(3) 0.7727(3) 0.37276(6)
H21 H 0.5415 0.7357 0.3585
C20 C 0.6698(3) 0.9173(3) 0.36764(6)
H22 H 0.6316 0.9747 0.3497
C21 C 0.7760(3) 0.9764(3) 0.38842(7)
H23 H 0.8089 1.0755 0.3855
C22 C 0.8346(3) 0.8897(3) 0.41379(6)
H24 H 0.9080 0.9289 0.4283
C23 C 0.7848(3) 0.7441(3) 0.41778(6)
H25 H 0.8288 0.6849 0.4347
C24 C 0.7558(3) 0.4102(3) 0.41645(6)
C25 C 0.7650(3) 0.3222(3) 0.44501(6)
H26 H 0.6838 0.3218 0.4602
C26 C 0.8885(3) 0.2352(3) 0.45211(6)
H27 H 0.8896 0.1764 0.4718
C27 C 1.0097(3) 0.2331(3) 0.43095(7)
H28 H 1.0942 0.1739 0.4359
C28 C 1.0056(3) 0.3193(3) 0.40221(7)
H29 H 1.0874 0.3191 0.3872
C29 C 0.8808(3) 0.4062(3) 0.39556(6)
H30 H 0.8805 0.4653 0.3760
C30 C 0.4960(3) 0.5299(3) 0.43823(6)
C31 C 0.5386(3) 0.6091(3) 0.46719(6)
H31 H 0.6372 0.6468 0.4684
C32 C 0.4439(3) 0.6345(3) 0.49384(7)
H32 H 0.4784 0.6886 0.5126
C33 C 0.2992(3) 0.5814(3) 0.49329(6)
H33 H 0.2327 0.6011 0.5112
C34 C 0.2542(3) 0.4986(3) 0.46594(7)
H34 H 0.1563 0.4591 0.4652
C35 C 0.3516(3) 0.4731(3) 0.43958(6)
H35 H 0.3180 0.4138 0.4215
C36 C 0.5262(3) 0.4418(3) 0.37340(6)
C37 C 0.5844(3) 0.3248(3) 0.35414(6)
H36 H 0.6752 0.2801 0.3609
C38 C 0.5136(3) 0.2719(3) 0.32548(6)
H37 H 0.5572 0.1932 0.3132
C39 C 0.3816(3) 0.3327(3) 0.31493(7)
H38 H 0.3335 0.2967 0.2955
C40 C 0.3199(3) 0.4476(3) 0.33323(7)
H39 H 0.2285 0.4907 0.3264
C41 C 0.3914(3) 0.4997(3) 0.36163(6)
H40 H 0.3467 0.5786 0.3737
loop_
_geom_bond_atom_site_label_1
_geom_bond_atom_site_label_2
_geom_bond_site_symmetry_1
_geom_bond_site_symmetry_2
O1 C11 1_555 1_555
O2 C12 1_555 1_555
N1 C1 1_555 1_555
C1 H1 1_555 1_555
C2 C1 1_555 1_555
H2 C2 1_555 1_555
C3 C2 1_555 1_555
C4 C3 1_555 1_555
H3 C4 1_555 1_555
C5 N1 1_555 1_555
H4 C5 1_555 1_555
C6 C3 1_555 1_555
H5 C6 1_555 1_555
C7 C6 1_555 1_555
H6 C7 1_555 1_555
C8 C7 1_555 1_555
C9 C8 1_555 1_555
H7 C9 1_555 1_555
C10 C9 1_555 1_555
H8 C10 1_555 1_555
C11 C10 1_555 1_555
C12 C11 1_555 1_555
C13 C8 1_555 1_555
H9 C13 1_555 1_555
C14 O1 1_555 1_555
H10 C14 1_555 1_555
H11 C14 1_555 1_555
H12 C14 1_555 1_555
C15 O2 1_555 1_555
H13 C15 1_555 1_555
H14 C15 1_555 1_555
H15 C15 1_555 1_555
C16 N1 1_555 1_555
H16 C16 1_555 1_555
H17 C16 1_555 1_555
C17 C16 1_555 1_555
H18 C17 1_555 1_555
H19 C17 1_555 1_555
H20 C17 1_555 1_555
B1 C18 1_555 1_555
C18 C19 1_555 1_555
C19 H21 1_555 1_555
C20 C19 1_555 1_555
H22 C20 1_555 1_555
C21 C20 1_555 1_555
H23 C21 1_555 1_555
C22 C21 1_555 1_555
H24 C22 1_555 1_555
C23 C18 1_555 1_555
H25 C23 1_555 1_555
C24 B1 1_555 1_555
C25 C24 1_555 1_555
H26 C25 1_555 1_555
C26 C25 1_555 1_555
H27 C26 1_555 1_555
C27 C26 1_555 1_555
H28 C27 1_555 1_555
C28 C27 1_555 1_555
H29 C28 1_555 1_555
C29 C24 1_555 1_555
H30 C29 1_555 1_555
C30 B1 1_555 1_555
C31 C30 1_555 1_555
H31 C31 1_555 1_555
C32 C31 1_555 1_555
H32 C32 1_555 1_555
C33 C32 1_555 1_555
H33 C33 1_555 1_555
C34 C33 1_555 1_555
H34 C34 1_555 1_555
C35 C30 1_555 1_555
H35 C35 1_555 1_555
C36 B1 1_555 1_555
C37 C36 1_555 1_555
H36 C37 1_555 1_555
C38 C37 1_555 1_555
H37 C38 1_555 1_555
C39 C38 1_555 1_555
H38 C39 1_555 1_555
C40 C39 1_555 1_555
H39 C40 1_555 1_555
C41 C36 1_555 1_555
H40 C41 1_555 1_555
C4 C5 1_555 1_555
C12 C13 1_555 1_555
C22 C23 1_555 1_555
C28 C29 1_555 1_555
C34 C35 1_555 1_555
C40 C41 1_555 1_555

#END
