
#######################################################################
#
#                 Cambridge Crystallographic Data Centre
#                                CCDC 
#
#######################################################################
#
# If this CIF has been generated from an entry in the Cambridge 
# Structural Database, then it will include bibliographic, chemical, 
# crystal, experimental, refinement or atomic coordinate data resulting 
# from the CCDC's data processing and validation procedures.
#
#######################################################################

data_BOFBOO
_chemical_formula_moiety         'C24 H21 N7,C16 H36 N1 1+,Cl1 1-,2.5(H2 O1)'
_chemical_name_systematic        
'tris((2-Benzimidazolyl)methyl)amine tetra-n-butylammonium chloride hydrate'
_symmetry_cell_setting           monoclinic
_symmetry_space_group_name_H-M   'P 21/n'
_symmetry_Int_Tables_number      14
_space_group_name_Hall           '-P 2yn'
loop_
_symmetry_equiv_pos_site_id
_symmetry_equiv_pos_as_xyz
1 x,y,z
2 1/2-x,1/2+y,1/2-z
3 -x,-y,-z
4 1/2+x,1/2-y,1/2+z
_cell_length_a                   9.145(4)
_cell_length_b                   24.507(11)
_cell_length_c                   18.951(9)
_cell_angle_alpha                90
_cell_angle_beta                 95.532(8)
_cell_angle_gamma                90
_cell_volume                     4227.45
_exptl_crystal_colour            colorless
_exptl_crystal_description       block
_cell_formula_units_Z            4
loop_
_atom_site_label
_atom_site_type_symbol
_atom_site_fract_x
_atom_site_fract_y
_atom_site_fract_z
Cl1 Cl 0.7479(2) 0.10660(7) 0.86544(9)
N1 N 0.6775(3) 0.32657(11) 0.75674(15)
C1 C 0.7640(4) 0.37620(15) 0.7366(2)
H4 H 0.7923 0.3706 0.6891
H5 H 0.6990 0.4076 0.7348
C2 C 0.8993(5) 0.38989(17) 0.7841(2)
H6 H 0.9651 0.3588 0.7870
H7 H 0.8724 0.3974 0.8314
C3 C 0.9777(5) 0.43862(18) 0.7575(3)
H8 H 1.0047 0.4306 0.7104
H9 H 0.9103 0.4693 0.7536
C4 C 1.1133(6) 0.4551(3) 0.8034(4)
H10 H 1.0865 0.4674 0.8485
H11 H 1.1618 0.4841 0.7808
H12 H 1.1782 0.4244 0.8102
C5 C 0.6452(4) 0.32923(14) 0.83418(17)
H13 H 0.5911 0.2966 0.8446
H14 H 0.7381 0.3282 0.8635
C6 C 0.5606(5) 0.37761(17) 0.8560(2)
H15 H 0.4603 0.3753 0.8344
H16 H 0.6041 0.4107 0.8391
C7 C 0.5603(5) 0.38053(17) 0.9360(2)
H17 H 0.5233 0.3463 0.9529
H18 H 0.6606 0.3848 0.9571
C8 C 0.4694(8) 0.4263(2) 0.9606(3)
H19 H 0.4864 0.4587 0.9341
H20 H 0.4961 0.4329 1.0101
H21 H 0.3673 0.4166 0.9534
C9 C 0.7641(4) 0.27451(14) 0.74953(18)
H22 H 0.7101 0.2447 0.7685
H23 H 0.8566 0.2778 0.7789
C10 C 0.7974(5) 0.25916(17) 0.6752(2)
H24 H 0.8475 0.2891 0.6542
H25 H 0.7065 0.2520 0.6459
C11 C 0.8951(6) 0.20786(17) 0.6788(2)
H26 H 0.9873 0.2161 0.7064
H27 H 0.8470 0.1792 0.7033
C12 C 0.9271(7) 0.1870(2) 0.6064(3)
H28 H 0.8363 0.1790 0.5785
H29 H 0.9853 0.1544 0.6120
H30 H 0.9799 0.2143 0.5829
C13 C 0.5363(4) 0.32565(16) 0.7068(2)
H31 H 0.4818 0.3587 0.7144
H32 H 0.5627 0.3266 0.6585
C14 C 0.4345(5) 0.27723(19) 0.7138(3)
H33 H 0.4873 0.2437 0.7063
H34 H 0.4042 0.2763 0.7614
C15 C 0.3012(6) 0.2803(2) 0.6614(3)
H35 H 0.3324 0.2857 0.6144
H36 H 0.2496 0.2457 0.6612
C16 C 0.1994(7) 0.3240(3) 0.6758(4)
H37 H 0.1667 0.3197 0.7222
H38 H 0.1161 0.3238 0.6409
H39 H 0.2509 0.3580 0.6735
N2 N 0.8273(4) 0.02564(12) 0.63714(15)
N3 N 0.7580(3) 0.07047(11) 0.73116(15)
H1 H 0.7619 0.0830 0.7737
N4 N 1.0001(3) 0.16166(11) 0.85889(14)
H2 H 0.9228 0.1416 0.8590
N5 N 1.2257(4) 0.18784(13) 0.83621(16)
N6 N 1.0263(4) -0.05946(12) 0.91958(15)
N7 N 0.8641(4) 0.00909(12) 0.90574(15)
H3 H 0.8284 0.0409 0.8953
N8 N 1.0421(3) 0.05622(11) 0.80504(14)
C17 C 1.1314(4) 0.10066(15) 0.7819(2)
H40 H 1.0987 0.1098 0.7331
H41 H 1.2329 0.0888 0.7837
C18 C 1.1223(4) 0.15030(14) 0.82701(18)
C19 C 1.1654(4) 0.22741(14) 0.8762(2)
C20 C 1.2226(6) 0.27715(18) 0.9034(3)
H42 H 1.3156 0.2888 0.8941
C21 C 1.1393(7) 0.30778(19) 0.9435(3)
H43 H 1.1763 0.3408 0.9615
C22 C 1.0010(6) 0.29151(17) 0.9585(2)
H44 H 0.9478 0.3140 0.9863
C23 C 0.9388(5) 0.24257(15) 0.9334(2)
H45 H 0.8465 0.2311 0.9440
C24 C 1.0238(4) 0.21221(13) 0.89164(17)
C25 C 1.1110(4) 0.02747(15) 0.86794(19)
H46 H 1.1921 0.0054 0.8547
H47 H 1.1499 0.0539 0.9030
C26 C 1.0030(4) -0.00763(15) 0.89862(18)
C27 C 0.7901(5) -0.03388(15) 0.93276(17)
C28 C 0.6469(6) -0.03979(18) 0.9489(2)
H48 H 0.5789 -0.0115 0.9426
C29 C 0.6102(6) -0.0903(2) 0.9750(2)
H49 H 0.5151 -0.0958 0.9870
C30 C 0.7081(7) -0.1323(2) 0.9838(2)
H50 H 0.6775 -0.1656 1.0008
C31 C 0.8516(7) -0.12652(16) 0.96813(19)
H51 H 0.9183 -0.1551 0.9747
C32 C 0.8929(5) -0.07607(15) 0.94205(17)
C33 C 0.9940(4) 0.01851(14) 0.74657(18)
H52 H 0.9736 -0.0170 0.7660
H53 H 1.0727 0.0141 0.7162
C34 C 0.8610(4) 0.03871(13) 0.70380(18)
C35 C 0.6459(4) 0.07879(14) 0.67775(19)
C36 C 0.5144(5) 0.10731(16) 0.6750(2)
H54 H 0.4865 0.1264 0.7140
C37 C 0.4299(5) 0.10594(18) 0.6133(3)
H55 H 0.3407 0.1245 0.6098
C38 C 0.4702(6) 0.0776(2) 0.5532(3)
H56 H 0.4071 0.0776 0.5117
C39 C 0.6005(6) 0.05013(18) 0.5551(2)
H57 H 0.6283 0.0319 0.5155
C40 C 0.6900(5) 0.05054(15) 0.61893(19)
O1 O 0.5872(8) 0.2286(3) 0.9881(4)
H58 H 0.6365 0.2058 1.0147
H59 H 0.5856 0.2242 0.9436
O2 O 0.5468(3) 0.19101(11) 0.84531(17)
H60 H 0.4558 0.1886 0.8314
H61 H 0.5919 0.1616 0.8571
O3 O 0.7475(4) 0.12745(15) 0.00940(18)
H62 H 0.7774 0.1035 0.0403
H63 H 0.7683 0.1223 -0.0330
loop_
_geom_bond_atom_site_label_1
_geom_bond_atom_site_label_2
_geom_bond_site_symmetry_1
_geom_bond_site_symmetry_2
N1 C1 1_555 1_555
N2 C34 1_555 1_555
N3 H1 1_555 1_555
N4 H2 1_555 1_555
N5 C18 1_555 1_555
N6 C26 1_555 1_555
N7 H3 1_555 1_555
N8 C17 1_555 1_555
C1 H4 1_555 1_555
H5 C1 1_555 1_555
C2 C1 1_555 1_555
H6 C2 1_555 1_555
H7 C2 1_555 1_555
C3 C2 1_555 1_555
H8 C3 1_555 1_555
H9 C3 1_555 1_555
C4 C3 1_555 1_555
H10 C4 1_555 1_555
H11 C4 1_555 1_555
H12 C4 1_555 1_555
C5 N1 1_555 1_555
H13 C5 1_555 1_555
H14 C5 1_555 1_555
C6 C5 1_555 1_555
H15 C6 1_555 1_555
H16 C6 1_555 1_555
C7 C6 1_555 1_555
H17 C7 1_555 1_555
H18 C7 1_555 1_555
C8 C7 1_555 1_555
H19 C8 1_555 1_555
H20 C8 1_555 1_555
H21 C8 1_555 1_555
C9 N1 1_555 1_555
H22 C9 1_555 1_555
H23 C9 1_555 1_555
C10 C9 1_555 1_555
H24 C10 1_555 1_555
H25 C10 1_555 1_555
C11 C10 1_555 1_555
H26 C11 1_555 1_555
H27 C11 1_555 1_555
C12 C11 1_555 1_555
H28 C12 1_555 1_555
H29 C12 1_555 1_555
H30 C12 1_555 1_555
C13 N1 1_555 1_555
H31 C13 1_555 1_555
H32 C13 1_555 1_555
C14 C13 1_555 1_555
H33 C14 1_555 1_555
H34 C14 1_555 1_555
C15 C14 1_555 1_555
H35 C15 1_555 1_555
H36 C15 1_555 1_555
C16 C15 1_555 1_555
H37 C16 1_555 1_555
H38 C16 1_555 1_555
H39 C16 1_555 1_555
C17 H40 1_555 1_555
H41 C17 1_555 1_555
C18 N4 1_555 1_555
C19 N5 1_555 1_555
C20 C19 1_555 1_555
H42 C20 1_555 1_555
C21 C20 1_555 1_555
H43 C21 1_555 1_555
C22 C21 1_555 1_555
H44 C22 1_555 1_555
C23 C22 1_555 1_555
H45 C23 1_555 1_555
C24 N4 1_555 1_555
C25 N8 1_555 1_555
H46 C25 1_555 1_555
H47 C25 1_555 1_555
C26 N7 1_555 1_555
C27 N7 1_555 1_555
C28 C27 1_555 1_555
H48 C28 1_555 1_555
C29 C28 1_555 1_555
H49 C29 1_555 1_555
C30 C29 1_555 1_555
H50 C30 1_555 1_555
C31 C30 1_555 1_555
H51 C31 1_555 1_555
C32 N6 1_555 1_555
C33 N8 1_555 1_555
H52 C33 1_555 1_555
H53 C33 1_555 1_555
C34 N3 1_555 1_555
C35 N3 1_555 1_555
C36 C35 1_555 1_555
H54 C36 1_555 1_555
C37 C36 1_555 1_555
H55 C37 1_555 1_555
C38 C37 1_555 1_555
H56 C38 1_555 1_555
C39 C38 1_555 1_555
H57 C39 1_555 1_555
C40 N2 1_555 1_555
O1 H58 1_555 1_555
H59 O1 1_555 1_555
O2 H60 1_555 1_555
H61 O2 1_555 1_555
O3 H62 1_555 1_555
H63 O3 1_555 1_555
C17 C18 1_555 1_555
C19 C24 1_555 1_555
C23 C24 1_555 1_555
C25 C26 1_555 1_555
C27 C32 1_555 1_555
C31 C32 1_555 1_555
C33 C34 1_555 1_555
C35 C40 1_555 1_555
C39 C40 1_555 1_555

#END
