
#######################################################################
#
#                 Cambridge Crystallographic Data Centre
#                                CCDC 
#
#######################################################################
#
# If this CIF has been generated from an entry in the Cambridge 
# Structural Database, then it will include bibliographic, chemical, 
# crystal, experimental, refinement or atomic coordinate data resulting 
# from the CCDC's data processing and validation procedures.
#
#######################################################################

data_BOFBAA
_chemical_name_common            
bis(mu!2$-N-(4-Methylpyrimidin-2-yl)-N'-(2-nitrophenylsulfonyl)urea-N,O,O,O')-diaqua-di-sodium
_chemical_formula_moiety         'C24 H24 N10 Na2 O12 S2'
_chemical_name_systematic        
bis(\m~2~-Monosulfuron-N,O,O,O')-diaqua-di-sodium
_symmetry_cell_setting           triclinic
_symmetry_space_group_name_H-M   'P -1'
_symmetry_Int_Tables_number      2
_space_group_name_Hall           '-P 1'
loop_
_symmetry_equiv_pos_site_id
_symmetry_equiv_pos_as_xyz
1 x,y,z
2 -x,-y,-z
_cell_length_a                   7.306(6)
_cell_length_b                   9.446(8)
_cell_length_c                   11.872(10)
_cell_angle_alpha                76.578(14)
_cell_angle_beta                 78.049(13)
_cell_angle_gamma                77.620(14)
_cell_volume                     767.662
_exptl_crystal_colour            colorless
_exptl_crystal_description       prism
_cell_formula_units_Z            1
loop_
_atom_site_label
_atom_site_type_symbol
_atom_site_fract_x
_atom_site_fract_y
_atom_site_fract_z
S1 S -0.00301(9) 0.44841(7) 0.69606(5)
Na1 Na 0.29847(15) 0.64582(11) 0.48070(9)
O1 O -0.2617(3) 0.2533(3) 1.00505(19)
O2 O -0.1003(3) 0.1410(3) 0.8701(2)
O3 O -0.2018(2) 0.4482(2) 0.73508(16)
O4 O 0.0494(2) 0.58913(19) 0.64007(15)
O5 O 0.3736(2) 0.38257(19) 0.55899(15)
O6 O 0.1293(3) 0.8784(2) 0.41203(17)
H1 H 0.2006 0.9450 0.3871
H2 H 0.0592 0.8768 0.3627
N1 N -0.1213(3) 0.2285(3) 0.9331(2)
N2 N 0.0710(3) 0.3265(2) 0.62039(18)
N3 N 0.2740(3) 0.2137(2) 0.48659(18)
H3 H 0.1786 0.1706 0.4935
N4 N 0.4068(3) 0.7910(2) 0.59641(19)
N5 N 0.6080(3) 0.9116(2) 0.66131(18)
C1 C 0.0363(4) 0.3050(3) 0.9264(2)
C2 C 0.1167(4) 0.2789(3) 1.0263(2)
H4 H 0.0639 0.2222 1.0956
C3 C 0.2732(5) 0.3364(4) 1.0227(3)
H5 H 0.3278 0.3190 1.0899
C4 C 0.3515(4) 0.4201(3) 0.9206(2)
H6 H 0.4620 0.4556 0.9177
C5 C 0.2665(4) 0.4511(3) 0.8231(2)
H7 H 0.3170 0.5117 0.7553
C6 C 0.1070(3) 0.3942(3) 0.8234(2)
C7 C 0.2488(4) 0.3149(3) 0.5571(2)
C8 C 0.5707(4) 0.8290(3) 0.5935(2)
C9 C 0.2634(4) 0.8471(3) 0.6722(3)
H8 H 0.1435 0.8256 0.6764
C10 C 0.2838(4) 0.9335(3) 0.7433(2)
H9 H 0.1807 0.9720 0.7945
C11 C 0.4609(4) 0.9624(3) 0.7373(2)
C12 C 0.5000(5) 1.0525(4) 0.8142(3)
H10 H 0.5079 1.1509 0.7706
H11 H 0.3992 1.0565 0.8803
H12 H 0.6181 1.0084 0.8415
S1A S 1.00301(9) 0.55159(7) 0.30394(5)
Na1A Na 0.70153(15) 0.35418(11) 0.51930(9)
O1A O 1.2617(3) 0.7467(3) -0.00505(19)
O2A O 1.1003(3) 0.8590(3) 0.1299(2)
O3A O 1.2018(2) 0.5518(2) 0.26492(16)
O4A O 0.9506(2) 0.41087(19) 0.35993(15)
O5A O 0.6264(2) 0.61743(19) 0.44101(15)
O6A O 0.8707(3) 0.1216(2) 0.58797(17)
H1A H 0.7994 0.0550 0.6129
H2A H 0.9408 0.1232 0.6373
N1A N 1.1213(3) 0.7715(3) 0.0669(2)
N2A N 0.9290(3) 0.6735(2) 0.37961(18)
N3A N 0.7260(3) 0.7863(2) 0.51341(18)
H3A H 0.8214 0.8294 0.5065
N4A N 0.5932(3) 0.2090(2) 0.40359(19)
N5A N 0.3920(3) 0.0884(2) 0.33869(18)
C1A C 0.9637(4) 0.6950(3) 0.0736(2)
C2A C 0.8833(4) 0.7211(3) -0.0263(2)
H4A H 0.9361 0.7778 -0.0956
C3A C 0.7268(5) 0.6636(4) -0.0227(3)
H5A H 0.6722 0.6810 -0.0899
C4A C 0.6485(4) 0.5799(3) 0.0794(2)
H6A H 0.5380 0.5444 0.0823
C5A C 0.7335(4) 0.5489(3) 0.1769(2)
H7A H 0.6830 0.4883 0.2447
C6A C 0.8930(3) 0.6058(3) 0.1766(2)
C7A C 0.7512(4) 0.6851(3) 0.4429(2)
C8A C 0.4293(4) 0.1710(3) 0.4065(2)
C9A C 0.7366(4) 0.1529(3) 0.3278(3)
H8A H 0.8565 0.1744 0.3236
C10A C 0.7162(4) 0.0665(3) 0.2567(2)
H9A H 0.8193 0.0280 0.2055
C11A C 0.5391(4) 0.0376(3) 0.2627(2)
C12A C 0.5000(5) -0.0525(4) 0.1858(3)
H10A H 0.4921 -0.1509 0.2294
H11A H 0.6008 -0.0565 0.1197
H12A H 0.3819 -0.0084 0.1585
loop_
_geom_bond_atom_site_label_1
_geom_bond_atom_site_label_2
_geom_bond_site_symmetry_1
_geom_bond_site_symmetry_2
S1 O3 1_555 1_555
Na1 O4 1_555 1_555
O1 N1 1_555 1_555
O2 N1 1_555 1_555
O4 S1 1_555 1_555
O5 Na1 1_555 1_555
O6 Na1 1_555 1_555
H1 O6 1_555 1_555
H2 O6 1_555 1_555
N1 C1 1_555 1_555
N2 S1 1_555 1_555
N3 H3 1_555 1_555
N4 Na1 1_555 1_555
N5 C8 1_555 1_555
C1 C2 1_555 1_555
C2 H4 1_555 1_555
C3 C2 1_555 1_555
H5 C3 1_555 1_555
C4 C3 1_555 1_555
H6 C4 1_555 1_555
C5 C4 1_555 1_555
H7 C5 1_555 1_555
C6 S1 1_555 1_555
C7 O5 1_555 1_555
C8 N4 1_555 1_555
C9 N4 1_555 1_555
H8 C9 1_555 1_555
C10 C9 1_555 1_555
H9 C10 1_555 1_555
C11 N5 1_555 1_555
C12 C11 1_555 1_555
H10 C12 1_555 1_555
H11 C12 1_555 1_555
H12 C12 1_555 1_555
S1A O3A 1_555 1_555
Na1A O5 1_555 1_555
O1A N1A 1_555 1_555
O2A N1A 1_555 1_555
O4A S1A 1_555 1_555
O5A Na1 1_555 1_555
O6A Na1A 1_555 1_555
H1A O6A 1_555 1_555
H2A O6A 1_555 1_555
N1A C1A 1_555 1_555
N2A S1A 1_555 1_555
N3A C8 1_555 1_555
H3A N3A 1_555 1_555
N4A Na1A 1_555 1_555
N5A C8A 1_555 1_555
C1A C2A 1_555 1_555
C2A H4A 1_555 1_555
C3A C2A 1_555 1_555
H5A C3A 1_555 1_555
C4A C3A 1_555 1_555
H6A C4A 1_555 1_555
C5A C4A 1_555 1_555
H7A C5A 1_555 1_555
C6A S1A 1_555 1_555
C7A O5A 1_555 1_555
C8A N3 1_555 1_555
C9A N4A 1_555 1_555
H8A C9A 1_555 1_555
C10A C9A 1_555 1_555
H9A C10A 1_555 1_555
C11A N5A 1_555 1_555
C12A C11A 1_555 1_555
H10A C12A 1_555 1_555
H11A C12A 1_555 1_555
H12A C12A 1_555 1_555
N2 C7 1_555 1_555
N3 C7 1_555 1_555
C1 C6 1_555 1_555
C5 C6 1_555 1_555
C10 C11 1_555 1_555
Na1A O4A 1_555 1_555
Na1A O5A 1_555 1_555
N2A C7A 1_555 1_555
N3A C7A 1_555 1_555
N4A C8A 1_555 1_555
C1A C6A 1_555 1_555
C5A C6A 1_555 1_555
C10A C11A 1_555 1_555

#END
