
#######################################################################
#
#                 Cambridge Crystallographic Data Centre
#                                CCDC 
#
#######################################################################
#
# If this CIF has been generated from an entry in the Cambridge 
# Structural Database, then it will include bibliographic, chemical, 
# crystal, experimental, refinement or atomic coordinate data resulting 
# from the CCDC's data processing and validation procedures.
#
#######################################################################

data_BOFJUD
_chemical_formula_moiety         'C22 H20 N4 2+,2(I1 1-)'
_chemical_name_systematic        
"1,1'-Anthracene-1,8-diylbis(3-methyl-1H-imidazol-3-ium) bis(iodide)"
_symmetry_cell_setting           orthorhombic
_symmetry_space_group_name_H-M   'P n m a'
_symmetry_Int_Tables_number      62
_space_group_name_Hall           '-P 2ac 2n'
loop_
_symmetry_equiv_pos_site_id
_symmetry_equiv_pos_as_xyz
1 x,y,z
2 1/2-x,-y,1/2+z
3 -x,1/2+y,-z
4 1/2+x,1/2-y,1/2-z
5 -x,-y,-z
6 1/2+x,y,1/2-z
7 x,1/2-y,z
8 1/2-x,1/2+y,1/2+z
_cell_length_a                   10.6727(18)
_cell_length_b                   11.506(2)
_cell_length_c                   17.731(3)
_cell_angle_alpha                90
_cell_angle_beta                 90
_cell_angle_gamma                90
_cell_volume                     2177.37
_exptl_crystal_colour            colorless
_exptl_crystal_description       block
_cell_formula_units_Z            4
loop_
_atom_site_label
_atom_site_type_symbol
_atom_site_fract_x
_atom_site_fract_y
_atom_site_fract_z
N1 N 0.5253(3) -0.0189(3) 0.1695(2)
N2 N 0.4976(3) 0.0303(3) 0.2844(2)
C1 C 0.4507(4) -0.0314(4) 0.2277(3)
H1 H 0.3779 -0.0757 0.2290
C2 C 0.6227(4) 0.0505(4) 0.1885(3)
H2 H 0.6880 0.0725 0.1568
C3 C 0.6084(4) 0.0822(4) 0.2615(3)
H3 H 0.6615 0.1287 0.2901
C4 C 0.4420(4) 0.0344(4) 0.3580(3)
C5 C 0.4124(4) -0.0671(4) 0.3924(3)
H4 H 0.4300 -0.1374 0.3689
C6 C 0.3547(4) -0.0659(4) 0.4642(3)
H5 H 0.3329 -0.1355 0.4874
C7 C 0.3311(4) 0.0355(4) 0.4991(3)
H6 H 0.2945 0.0348 0.5467
C8 C 0.3609(4) 0.1444(4) 0.4646(2)
C9 C 0.4159(4) 0.1440(4) 0.3912(2)
C10 C 0.4399(5) 0.2500 0.3549(3)
H7 H 0.4721 0.2500 0.3062
C11 C 0.3344(5) 0.2500 0.4996(4)
H8 H 0.2983 0.2500 0.5474
C12 C 0.5048(6) -0.0723(5) 0.0967(3)
H9 H 0.4409 -0.1307 0.1011
H10 H 0.5812 -0.1075 0.0796
H11 H 0.4786 -0.0142 0.0612
N1F N 0.5253(3) 0.5189(3) 0.1695(2)
N2F N 0.4976(3) 0.4697(3) 0.2844(2)
C1F C 0.4507(4) 0.5314(4) 0.2277(3)
H1F H 0.3779 0.5757 0.2290
C2F C 0.6227(4) 0.4495(4) 0.1885(3)
H2F H 0.6880 0.4275 0.1568
C3F C 0.6084(4) 0.4178(4) 0.2615(3)
H3F H 0.6615 0.3713 0.2901
C4F C 0.4420(4) 0.4656(4) 0.3580(3)
C5F C 0.4124(4) 0.5671(4) 0.3924(3)
H4F H 0.4300 0.6374 0.3689
C6F C 0.3547(4) 0.5659(4) 0.4642(3)
H5F H 0.3329 0.6355 0.4874
C7F C 0.3311(4) 0.4645(4) 0.4991(3)
H6F H 0.2945 0.4652 0.5467
C8F C 0.3609(4) 0.3556(4) 0.4646(2)
C9F C 0.4159(4) 0.3560(4) 0.3912(2)
C12F C 0.5048(6) 0.5723(5) 0.0967(3)
H9F H 0.4409 0.6307 0.1011
H10F H 0.5812 0.6075 0.0796
H11F H 0.4786 0.5142 0.0612
I1 I 0.31253(4) 0.2500 0.72129(3)
I2 I 0.85255(4) 0.2500 0.38971(3)
loop_
_geom_bond_atom_site_label_1
_geom_bond_atom_site_label_2
_geom_bond_site_symmetry_1
_geom_bond_site_symmetry_2
N1 C1 1_555 1_555
N2 C1 1_555 1_555
C1 H1 1_555 1_555
C2 N1 1_555 1_555
H2 C2 1_555 1_555
C3 N2 1_555 1_555
H3 C3 1_555 1_555
C4 N2 1_555 1_555
C5 C4 1_555 1_555
H4 C5 1_555 1_555
C6 C5 1_555 1_555
H5 C6 1_555 1_555
C7 C6 1_555 1_555
H6 C7 1_555 1_555
C8 C7 1_555 1_555
C9 C4 1_555 1_555
C10 C9 1_555 1_555
H7 C10 1_555 1_555
C11 C8 1_555 1_555
H8 C11 1_555 1_555
C12 N1 1_555 1_555
H9 C12 1_555 1_555
H10 C12 1_555 1_555
H11 C12 1_555 1_555
N1F C1F 1_555 1_555
N2F C1F 1_555 1_555
C1F H1F 1_555 1_555
C2F N1F 1_555 1_555
H2F C2F 1_555 1_555
C3F N2F 1_555 1_555
H3F C3F 1_555 1_555
C4F N2F 1_555 1_555
C5F C4F 1_555 1_555
H4F C5F 1_555 1_555
C6F C5F 1_555 1_555
H5F C6F 1_555 1_555
C7F C6F 1_555 1_555
H6F C7F 1_555 1_555
C8F C11 1_555 1_555
C9F C10 1_555 1_555
C12F N1F 1_555 1_555
H9F C12F 1_555 1_555
H10F C12F 1_555 1_555
H11F C12F 1_555 1_555
C2 C3 1_555 1_555
C8 C9 1_555 1_555
C2F C3F 1_555 1_555
C4F C9F 1_555 1_555
C7F C8F 1_555 1_555
C8F C9F 1_555 1_555

#END
