
#######################################################################
#
#                 Cambridge Crystallographic Data Centre
#                                CCDC 
#
#######################################################################
#
# If this CIF has been generated from an entry in the Cambridge 
# Structural Database, then it will include bibliographic, chemical, 
# crystal, experimental, refinement or atomic coordinate data resulting 
# from the CCDC's data processing and validation procedures.
#
#######################################################################

data_BOFTOF
_chemical_formula_moiety         'C17 H18 Br1 Cl1 N2 O6 S1'
_chemical_name_systematic        
(S,S)-(-)-2-(d-\a-Bromo-\p-camphorsulfonyl)-3-(2-chloro-5-nitrophenyl)-oxaziridine
_symmetry_cell_setting           orthorhombic
_symmetry_space_group_name_H-M   'P 21 21 2'
_symmetry_Int_Tables_number      18
_space_group_name_Hall           'P 2 2ab'
loop_
_symmetry_equiv_pos_site_id
_symmetry_equiv_pos_as_xyz
1 x,y,z
2 1/2+x,1/2-y,-z
3 1/2-x,1/2+y,-z
4 -x,-y,z
_cell_length_a                   8.109(2)
_cell_length_b                   33.395(6)
_cell_length_c                   7.368(2)
_cell_angle_alpha                90
_cell_angle_beta                 90
_cell_angle_gamma                90
_cell_volume                     1995.25
_chemical_melting_point          154-6deg.C
_cell_formula_units_Z            4
loop_
_atom_site_label
_atom_site_type_symbol
_atom_site_fract_x
_atom_site_fract_y
_atom_site_fract_z
Br1 Br 0.21410 0.79251 0.31070
C1 C 0.15960 0.68390 0.11050
C2 C 0.11650 0.65890 -0.05620
C3 C 0.21400 0.72570 0.06600
O1 O 0.19480 0.74370 -0.07060
C4 C 0.30600 0.74080 0.23540
C5 C 0.28170 0.70630 0.37240
C6 C 0.09880 0.70340 0.42520
C7 C 0.01550 0.69120 0.24860
C8 C 0.29890 0.66990 0.23870
C9 C 0.25220 0.62890 0.32080
C10 C 0.46710 0.66690 0.14340
S1 S 0.39990 0.60614 0.46350
O2 O 0.52630 0.58620 0.35950
O3 O 0.44480 0.63100 0.61120
N1 N 0.27790 0.56620 0.53230
O4 O 0.17320 0.57820 0.68750
C11 C 0.30870 0.55230 0.71100
Cl1 Cl 0.31500 0.52662 1.10000
C12 C 0.26930 0.50910 0.74530
C13 C 0.27500 0.49420 0.92220
C14 C 0.25300 0.45370 0.95640
C15 C 0.21200 0.42890 0.81980
C16 C 0.19580 0.44390 0.64500
C17 C 0.22640 0.48450 0.60630
N2 N 0.14000 0.41800 0.49950
O5 O 0.10050 0.43290 0.35460
O6 O 0.13320 0.38170 0.53280
H1 H 0.19000 0.63500 -0.06100
H2 H -0.00100 0.65000 -0.04900
H3 H 0.13300 0.67500 -0.16800
H4 H 0.42600 0.74500 0.20900
H5 H 0.34900 0.71200 0.48300
H6 H 0.05600 0.73000 0.46900
H7 H 0.08200 0.68300 0.52100
H8 H -0.05900 0.71300 0.20400
H9 H -0.05000 0.66600 0.26600
H10 H 0.14900 0.63300 0.39300
H11 H 0.23000 0.61000 0.21800
H12 H 0.46100 0.64600 0.04400
H13 H 0.49700 0.69300 0.09100
H14 H 0.55300 0.65900 0.23300
H15 H 0.40800 0.56200 0.77800
H16 H 0.26800 0.44300 1.08200
H17 H 0.19300 0.40000 0.84400
H18 H 0.21700 0.49500 0.48000
loop_
_geom_bond_atom_site_label_1
_geom_bond_atom_site_label_2
_geom_bond_site_symmetry_1
_geom_bond_site_symmetry_2
Br1 C4 1_555 1_555
C1 C2 1_555 1_555
C2 H1 1_555 1_555
C3 C1 1_555 1_555
O1 C3 1_555 1_555
C4 C3 1_555 1_555
C5 C4 1_555 1_555
C6 C5 1_555 1_555
C7 C1 1_555 1_555
C8 C1 1_555 1_555
C9 C8 1_555 1_555
C10 C8 1_555 1_555
S1 C9 1_555 1_555
O2 S1 1_555 1_555
O3 S1 1_555 1_555
N1 S1 1_555 1_555
O4 N1 1_555 1_555
C11 N1 1_555 1_555
Cl1 C13 1_555 1_555
C12 C11 1_555 1_555
C13 C12 1_555 1_555
C14 C13 1_555 1_555
C15 C14 1_555 1_555
C16 C15 1_555 1_555
C17 C12 1_555 1_555
N2 C16 1_555 1_555
O5 N2 1_555 1_555
O6 N2 1_555 1_555
H2 C2 1_555 1_555
H3 C2 1_555 1_555
H4 C4 1_555 1_555
H5 C5 1_555 1_555
H6 C6 1_555 1_555
H7 C6 1_555 1_555
H8 C7 1_555 1_555
H9 C7 1_555 1_555
H10 C9 1_555 1_555
H11 C9 1_555 1_555
H12 C10 1_555 1_555
H13 C10 1_555 1_555
H14 C10 1_555 1_555
H15 C11 1_555 1_555
H16 C14 1_555 1_555
H17 C15 1_555 1_555
H18 C17 1_555 1_555
C5 C8 1_555 1_555
C6 C7 1_555 1_555
O4 C11 1_555 1_555
C16 C17 1_555 1_555

#END
