
#######################################################################
#
#                 Cambridge Crystallographic Data Centre
#                                CCDC 
#
#######################################################################
#
# If this CIF has been generated from an entry in the Cambridge 
# Structural Database, then it will include bibliographic, chemical, 
# crystal, experimental, refinement or atomic coordinate data resulting 
# from the CCDC's data processing and validation procedures.
#
#######################################################################

data_BOGMER
_chemical_formula_moiety         'C29 H27 F6 N2 O1 S1 1+,Cl1 1-'
_chemical_name_systematic        
'N-Benzyl(4-(3,3,4,4,5,5-hexafluoro-2-(5-methoxy-1,2-dimethyl-1H-indol-3-yl)cyclopent-1-en-1-yl)-5-methyl-2-thienyl)methanaminium chloride'
_symmetry_cell_setting           orthorhombic
_symmetry_space_group_name_H-M   'P 21 21 21'
_symmetry_Int_Tables_number      19
_space_group_name_Hall           'P 2ac 2ab'
loop_
_symmetry_equiv_pos_site_id
_symmetry_equiv_pos_as_xyz
1 x,y,z
2 1/2-x,-y,1/2+z
3 -x,1/2+y,1/2-z
4 1/2+x,1/2-y,-z
_cell_length_a                   6.7922(9)
_cell_length_b                   20.030(3)
_cell_length_c                   20.499(3)
_cell_angle_alpha                90
_cell_angle_beta                 90
_cell_angle_gamma                90
_cell_volume                     2788.84
_exptl_crystal_colour            colorless
_exptl_crystal_description       Prism
_cell_formula_units_Z            4
loop_
_atom_site_label
_atom_site_type_symbol
_atom_site_fract_x
_atom_site_fract_y
_atom_site_fract_z
S1 S 0.22854(7) 0.70034(2) 0.88710(2)
F1 F 0.30359(18) 0.83008(5) 0.55955(5)
F2 F 0.04781(17) 0.77271(6) 0.58886(5)
F3 F 0.53431(19) 0.72817(6) 0.56258(5)
F4 F 0.2601(2) 0.67867(5) 0.53697(5)
F5 F 0.2167(2) 0.63210(5) 0.65384(5)
F6 F 0.5336(2) 0.64559(6) 0.65675(5)
O1 O -0.2907(2) 0.99606(6) 0.61889(7)
N1 N 0.3764(2) 0.94553(7) 0.76175(7)
N2 N 0.6293(3) 0.66676(7) 0.97121(8)
C1 C -0.3772(3) 0.94341(10) 0.58248(10)
H1 H -0.3986 0.9048 0.6110
H2 H -0.2890 0.9307 0.5467
H3 H -0.5035 0.9583 0.5646
C2 C -0.1225(3) 0.98126(9) 0.65380(9)
C3 C -0.0565(3) 1.03351(9) 0.69375(9)
H4 H -0.1272 1.0744 0.6947
C4 C 0.1089(3) 1.02620(9) 0.73140(9)
H5 H 0.1536 1.0615 0.7586
C5 C 0.2097(3) 0.96563(8) 0.72867(8)
C6 C 0.4206(3) 0.88118(8) 0.74415(8)
C7 C 0.2820(3) 0.85844(8) 0.69997(8)
C8 C 0.1466(3) 0.91293(8) 0.68885(8)
C9 C -0.0248(3) 0.92091(9) 0.65070(8)
H6 H -0.0715 0.8858 0.6237
C10 C 0.4936(3) 0.98740(10) 0.80432(10)
H7 H 0.5959 1.0099 0.7787
H8 H 0.5555 0.9598 0.8380
H9 H 0.4089 1.0209 0.8250
C11 C 0.6034(3) 0.84893(9) 0.76831(9)
H10 H 0.5856 0.8356 0.8139
H11 H 0.7132 0.8805 0.7651
H12 H 0.6321 0.8094 0.7418
C12 C 0.2880(3) 0.79226(8) 0.67079(8)
C13 C 0.2459(3) 0.78044(8) 0.59942(8)
C14 C 0.3508(3) 0.71472(9) 0.58371(9)
C15 C 0.3596(3) 0.67910(9) 0.64999(9)
C16 C 0.3357(3) 0.73320(8) 0.69917(8)
C17 C 0.3420(3) 0.71589(8) 0.76897(8)
C18 C 0.4919(3) 0.67853(8) 0.80104(8)
H13 H 0.6080 0.6636 0.7797
C19 C 0.4532(3) 0.66630(9) 0.86506(8)
C20 C 0.1892(3) 0.73141(9) 0.80985(8)
C21 C 0.0040(3) 0.76825(10) 0.79451(9)
H14 H -0.0385 0.7573 0.7501
H15 H 0.0278 0.8164 0.7978
H16 H -0.0988 0.7553 0.8256
C22 C 0.5781(3) 0.62760(9) 0.91156(8)
H17 H 0.7009 0.6139 0.8892
H18 H 0.5071 0.5866 0.9247
C23 C 0.7922(3) 0.63759(9) 1.01139(8)
H19 H 0.8095 0.6649 1.0513
H20 H 0.9165 0.6397 0.9862
C24 C 0.7532(3) 0.56625(8) 1.03073(8)
C25 C 0.8753(3) 0.51556(9) 1.00863(8)
H21 H 0.9850 0.5260 0.9818
C26 C 0.8381(3) 0.44974(9) 1.02555(10)
H22 H 0.9227 0.4153 1.0103
C27 C 0.6789(3) 0.43405(9) 1.06433(9)
H23 H 0.6530 0.3888 1.0753
C28 C 0.5578(3) 0.48366(10) 1.08722(10)
H24 H 0.4480 0.4727 1.1139
C29 C 0.5958(3) 0.55042(9) 1.07135(9)
H25 H 0.5143 0.5848 1.0883
H26 H 0.660(3) 0.7038(10) 0.9640(9)
H27 H 0.528(3) 0.6758(9) 0.9947(9)
Cl1 Cl 0.26247(7) 0.689217(19) 0.05828(2)
loop_
_geom_bond_atom_site_label_1
_geom_bond_atom_site_label_2
_geom_bond_site_symmetry_1
_geom_bond_site_symmetry_2
S1 C19 1_555 1_555
F1 C13 1_555 1_555
F2 C13 1_555 1_555
F3 C14 1_555 1_555
F4 C14 1_555 1_555
F5 C15 1_555 1_555
F6 C15 1_555 1_555
O1 C1 1_555 1_555
N1 C5 1_555 1_555
N2 C22 1_555 1_555
C1 H1 1_555 1_555
H2 C1 1_555 1_555
H3 C1 1_555 1_555
C2 O1 1_555 1_555
C3 C2 1_555 1_555
H4 C3 1_555 1_555
C4 C3 1_555 1_555
H5 C4 1_555 1_555
C5 C4 1_555 1_555
C6 N1 1_555 1_555
C7 C6 1_555 1_555
C8 C5 1_555 1_555
C9 C2 1_555 1_555
H6 C9 1_555 1_555
C10 N1 1_555 1_555
H7 C10 1_555 1_555
H8 C10 1_555 1_555
H9 C10 1_555 1_555
C11 C6 1_555 1_555
H10 C11 1_555 1_555
H11 C11 1_555 1_555
H12 C11 1_555 1_555
C12 C7 1_555 1_555
C13 C12 1_555 1_555
C14 C13 1_555 1_555
C15 C14 1_555 1_555
C16 C12 1_555 1_555
C17 C16 1_555 1_555
C18 C17 1_555 1_555
H13 C18 1_555 1_555
C19 C18 1_555 1_555
C20 S1 1_555 1_555
C21 C20 1_555 1_555
H14 C21 1_555 1_555
H15 C21 1_555 1_555
H16 C21 1_555 1_555
C22 C19 1_555 1_555
H17 C22 1_555 1_555
H18 C22 1_555 1_555
C23 N2 1_555 1_555
H19 C23 1_555 1_555
H20 C23 1_555 1_555
C24 C23 1_555 1_555
C25 C24 1_555 1_555
H21 C25 1_555 1_555
C26 C25 1_555 1_555
H22 C26 1_555 1_555
C27 C26 1_555 1_555
H23 C27 1_555 1_555
C28 C27 1_555 1_555
H24 C28 1_555 1_555
C29 C24 1_555 1_555
H25 C29 1_555 1_555
H26 N2 1_555 1_555
H27 N2 1_555 1_555
C7 C8 1_555 1_555
C8 C9 1_555 1_555
C15 C16 1_555 1_555
C17 C20 1_555 1_555
C28 C29 1_555 1_555

#END
