
#######################################################################
#
#                 Cambridge Crystallographic Data Centre
#                                CCDC 
#
#######################################################################
#
# If this CIF has been generated from an entry in the Cambridge 
# Structural Database, then it will include bibliographic, chemical, 
# crystal, experimental, refinement or atomic coordinate data resulting 
# from the CCDC's data processing and validation procedures.
#
#######################################################################

data_BOGQUK
_chemical_formula_moiety         'C32 H36 Br2 O2'
_chemical_name_systematic        
6,6'-Dibromo-2,2'-dihexyloxy-1,1'-binaphthalene
_symmetry_cell_setting           orthorhombic
_symmetry_space_group_name_H-M   'P n a 21'
_symmetry_Int_Tables_number      33
_space_group_name_Hall           'P 2c -2n'
loop_
_symmetry_equiv_pos_site_id
_symmetry_equiv_pos_as_xyz
1 x,y,z
2 -x,-y,1/2+z
3 1/2+x,1/2-y,z
4 1/2-x,1/2+y,1/2+z
_cell_length_a                   12.401(3)
_cell_length_b                   8.1742(16)
_cell_length_c                   27.396(6)
_cell_angle_alpha                90
_cell_angle_beta                 90
_cell_angle_gamma                90
_cell_volume                     2777.08
_exptl_crystal_colour            yellow
_exptl_crystal_description       block
_cell_formula_units_Z            4
_exptl_crystal_recrystallization_method ethanol
loop_
_atom_site_label
_atom_site_type_symbol
_atom_site_fract_x
_atom_site_fract_y
_atom_site_fract_z
Br1 Br 0.72348(8) 0.71557(12) 0.21977(2)
Br2 Br 0.02939(8) 0.71401(13) 0.52428(2)
C1 C 0.2283(6) 0.7910(11) 0.4792(4)
H1 H 0.2582 0.7353 0.5055
O1 O 0.4163(4) 1.1960(8) 0.4440(2)
O2 O 0.3351(4) 1.1966(8) 0.2989(2)
C2 C 0.5435(7) 1.2962(13) 0.1715(4)
H2 H 0.5845 1.3763 0.1899
H3 H 0.5045 1.3541 0.1461
C3 C 0.5233(6) 0.7941(12) 0.2653(4)
H4 H 0.4927 0.7390 0.2390
C4 C 0.2086(7) 1.2922(12) 0.5727(4)
H5 H 0.2469 1.3490 0.5986
H6 H 0.1663 1.3727 0.5552
C5 C 0.4604(9) 1.2618(8) 0.4870(4)
H7 H 0.5139 1.3441 0.4789
H8 H 0.4956 1.1761 0.5056
C6 C 0.1149(5) 0.8051(10) 0.4732(3)
C7 C 0.2915(10) 1.2656(11) 0.2526(5)
H9 H 0.2371 1.3475 0.2595
H10 H 0.2591 1.1798 0.2330
C8 C 0.5971(6) 1.1092(9) 0.4195(3)
H11 H 0.6277 1.1601 0.4465
C9 C 0.6830(5) 0.8758(9) 0.3093(3)
H12 H 0.7577 0.8774 0.3124
C10 C 0.6174(5) 0.9496(9) 0.3456(3)
C11 C 0.6363(5) 0.8027(11) 0.2699(3)
C12 C 0.5035(5) 0.9499(8) 0.3400(3)
C13 C 0.4653(8) 1.2176(11) 0.2043(4)
H13 H 0.5039 1.1641 0.2306
H14 H 0.4262 1.1342 0.1864
C14 C 0.2923(7) 1.2171(10) 0.5372(3)
H15 H 0.3319 1.1320 0.5542
H16 H 0.2543 1.1662 0.5102
C15 C 0.1345(6) 0.9496(9) 0.3975(3)
C16 C 0.2678(6) 1.1123(8) 0.3292(2)
C17 C 0.3157(5) 1.0338(9) 0.3686(3)
C18 C 0.0695(5) 0.8747(9) 0.4339(3)
H17 H -0.0051 0.8739 0.4305
C19 C 0.7062(12) 1.2663(12) 0.1191(6)
H18 H 0.7554 1.1890 0.1050
H19 H 0.7450 1.3386 0.1405
H20 H 0.6725 1.3288 0.0937
C20 C 0.4362(5) 1.0324(9) 0.3741(2)
C21 C 0.3838(5) 1.3404(8) 0.2262(3)
H21 H 0.4220 1.4119 0.2485
H22 H 0.3556 1.4078 0.2000
C22 C 0.6621(6) 1.0310(10) 0.3865(3)
H23 H 0.7364 1.0314 0.3911
C23 C 0.2499(5) 0.9489(9) 0.4030(3)
C24 C 0.0909(6) 1.0301(9) 0.3560(3)
H24 H 0.0166 1.0290 0.3513
C25 C 0.4848(6) 1.1134(8) 0.4131(2)
C26 C 0.1543(6) 1.1093(9) 0.3226(3)
H25 H 0.1232 1.1607 0.2958
C27 C 0.3706(5) 1.3383(8) 0.5173(3)
H26 H 0.4026 1.3981 0.5442
H27 H 0.3319 1.4163 0.4972
C28 C 0.4596(6) 0.8659(8) 0.2989(2)
H28 H 0.3851 0.8605 0.2952
C29 C 0.2926(6) 0.8645(8) 0.4437(2)
H29 H 0.3671 0.8578 0.4470
C30 C 0.6215(6) 1.1766(9) 0.1477(3)
H30 H 0.6557 1.1106 0.1727
H31 H 0.5821 1.1040 0.1261
C31 C 0.1328(6) 1.1696(10) 0.5956(3)
H32 H 0.1740 1.0951 0.6159
H33 H 0.0988 1.1059 0.5701
C32 C 0.0439(10) 1.2518(8) 0.6272(6)
H34 H -0.0008 1.1690 0.6417
H35 H 0.0005 1.3216 0.6070
H36 H 0.0770 1.3157 0.6525
loop_
_geom_bond_atom_site_label_1
_geom_bond_atom_site_label_2
_geom_bond_site_symmetry_1
_geom_bond_site_symmetry_2
Br1 C11 1_555 1_555
Br2 C6 1_555 1_555
C1 H1 1_555 1_555
O1 C5 1_555 1_555
O2 C7 1_555 1_555
C2 H2 1_555 1_555
H3 C2 1_555 1_555
C3 H4 1_555 1_555
C4 H5 1_555 1_555
H6 C4 1_555 1_555
C5 H7 1_555 1_555
H8 C5 1_555 1_555
C6 C1 1_555 1_555
C7 H9 1_555 1_555
H10 C7 1_555 1_555
C8 H11 1_555 1_555
C9 H12 1_555 1_555
C10 C9 1_555 1_555
C11 C3 1_555 1_555
C12 C10 1_555 1_555
C13 C2 1_555 1_555
H13 C13 1_555 1_555
H14 C13 1_555 1_555
C14 C4 1_555 1_555
H15 C14 1_555 1_555
H16 C14 1_555 1_555
C15 C18 1_555 1_555
C16 O2 1_555 1_555
C17 C16 1_555 1_555
C18 C6 1_555 1_555
H17 C18 1_555 1_555
C19 H18 1_555 1_555
H19 C19 1_555 1_555
H20 C19 1_555 1_555
C20 C12 1_555 1_555
C21 C7 1_555 1_555
H21 C21 1_555 1_555
H22 C21 1_555 1_555
C22 C8 1_555 1_555
H23 C22 1_555 1_555
C23 C15 1_555 1_555
C24 C15 1_555 1_555
H24 C24 1_555 1_555
C25 O1 1_555 1_555
C26 C16 1_555 1_555
H25 C26 1_555 1_555
C27 C5 1_555 1_555
H26 C27 1_555 1_555
H27 C27 1_555 1_555
C28 C3 1_555 1_555
H28 C28 1_555 1_555
C29 C1 1_555 1_555
H29 C29 1_555 1_555
C30 C2 1_555 1_555
H30 C30 1_555 1_555
H31 C30 1_555 1_555
C31 C4 1_555 1_555
H32 C31 1_555 1_555
H33 C31 1_555 1_555
C32 C31 1_555 1_555
H34 C32 1_555 1_555
H35 C32 1_555 1_555
H36 C32 1_555 1_555
C8 C25 1_555 1_555
C9 C11 1_555 1_555
C10 C22 1_555 1_555
C12 C28 1_555 1_555
C13 C21 1_555 1_555
C14 C27 1_555 1_555
C17 C20 1_555 1_555
C17 C23 1_555 1_555
C19 C30 1_555 1_555
C20 C25 1_555 1_555
C23 C29 1_555 1_555
C24 C26 1_555 1_555

#END
