
#######################################################################
#
#                 Cambridge Crystallographic Data Centre
#                                CCDC 
#
#######################################################################
#
# If this CIF has been generated from an entry in the Cambridge 
# Structural Database, then it will include bibliographic, chemical, 
# crystal, experimental, refinement or atomic coordinate data resulting 
# from the CCDC's data processing and validation procedures.
#
#######################################################################

data_BOGROF
_chemical_formula_moiety         'C8 H10 N2 O2 S1'
_chemical_name_systematic        
'(E)-Ethyl 2-cyano-2-(thiazolidin-2-ylidene)acetate'
_symmetry_cell_setting           monoclinic
_symmetry_space_group_name_H-M   'P 21/c'
_symmetry_Int_Tables_number      14
_space_group_name_Hall           '-P 2ybc'
loop_
_symmetry_equiv_pos_site_id
_symmetry_equiv_pos_as_xyz
1 x,y,z
2 -x,1/2+y,1/2-z
3 -x,-y,-z
4 x,1/2-y,1/2+z
_cell_length_a                   4.0676(8)
_cell_length_b                   15.460(3)
_cell_length_c                   14.581(3)
_cell_angle_alpha                90
_cell_angle_beta                 90.03(3)
_cell_angle_gamma                90
_cell_volume                     916.927
_exptl_crystal_colour            colorless
_exptl_crystal_description       needle
_cell_formula_units_Z            4
_exptl_crystal_recrystallization_method ethanol
loop_
_atom_site_label
_atom_site_type_symbol
_atom_site_fract_x
_atom_site_fract_y
_atom_site_fract_z
S1 S 0.2265(2) 0.70109(5) 0.01523(5)
O1 O -0.2856(6) 0.91026(13) 0.24156(14)
O2 O -0.1022(6) 0.97114(14) 0.11080(15)
N1 N -0.1952(7) 0.68892(17) 0.23236(18)
N2 N 0.1928(7) 0.86360(17) -0.01208(17)
H1 H 0.1440 0.9171 -0.0037
C1 C 0.1091(7) 0.80489(19) 0.0489(2)
C2 C -0.1433(8) 0.9071(2) 0.1582(2)
C3 C -0.3933(9) 0.9959(2) 0.2710(2)
H2 H -0.5582 1.0182 0.2291
H3 H -0.2088 1.0356 0.2717
C4 C 0.3729(10) 0.7390(2) -0.0946(2)
H4 H 0.5946 0.7182 -0.1053
H5 H 0.2324 0.7174 -0.1433
C5 C -0.0547(8) 0.82003(19) 0.13177(19)
C6 C -0.1330(7) 0.7482(2) 0.18828(19)
C7 C 0.3686(8) 0.8366(2) -0.0937(2)
H6 H 0.5914 0.8590 -0.0926
H7 H 0.2593 0.8584 -0.1481
C8 C -0.5358(9) 0.9868(2) 0.3661(2)
H8 H -0.6097 1.0423 0.3873
H9 H -0.3703 0.9650 0.4069
H10 H -0.7180 0.9474 0.3645
loop_
_geom_bond_atom_site_label_1
_geom_bond_atom_site_label_2
_geom_bond_site_symmetry_1
_geom_bond_site_symmetry_2
S1 C1 1_555 1_555
O1 C2 1_555 1_555
O2 C2 1_555 1_555
N1 C6 1_555 1_555
N2 H1 1_555 1_555
C1 N2 1_555 1_555
C2 C5 1_555 1_555
C3 O1 1_555 1_555
H2 C3 1_555 1_555
H3 C3 1_555 1_555
C4 S1 1_555 1_555
H4 C4 1_555 1_555
H5 C4 1_555 1_555
C5 C1 1_555 1_555
C6 C5 1_555 1_555
C7 N2 1_555 1_555
H6 C7 1_555 1_555
H7 C7 1_555 1_555
C8 C3 1_555 1_555
H8 C8 1_555 1_555
H9 C8 1_555 1_555
H10 C8 1_555 1_555
C4 C7 1_555 1_555

#END
