
#######################################################################
#
#                 Cambridge Crystallographic Data Centre
#                                CCDC 
#
#######################################################################
#
# If this CIF has been generated from an entry in the Cambridge 
# Structural Database, then it will include bibliographic, chemical, 
# crystal, experimental, refinement or atomic coordinate data resulting 
# from the CCDC's data processing and validation procedures.
#
#######################################################################

data_BOGRUL
_chemical_formula_moiety         'C7 H8 N2 O3'
_chemical_name_systematic        
"(E)-Methyl N'-(2-furylmethylene)hydrazinecarboxylate"
_symmetry_cell_setting           monoclinic
_symmetry_space_group_name_H-M   'C 2'
_symmetry_Int_Tables_number      5
_space_group_name_Hall           'C 2y'
loop_
_symmetry_equiv_pos_site_id
_symmetry_equiv_pos_as_xyz
1 x,y,z
2 -x,y,-z
3 1/2+x,1/2+y,z
4 1/2-x,1/2+y,-z
_cell_length_a                   14.9185(17)
_cell_length_b                   7.8124(9)
_cell_length_c                   15.1299(19)
_cell_angle_alpha                90
_cell_angle_beta                 105.251(7)
_cell_angle_gamma                90
_cell_volume                     1701.28
_exptl_crystal_colour            colorless
_exptl_crystal_description       block
_chemical_melting_point          '408-413 K'
_cell_formula_units_Z            8
_exptl_crystal_recrystallization_method ethanol
loop_
_atom_site_label
_atom_site_type_symbol
_atom_site_fract_x
_atom_site_fract_y
_atom_site_fract_z
C1 C 0.6802(2) 0.5242(5) -0.0094(2)
H1 H 0.6985 0.4241 -0.0330
C2 C 0.6239(2) 0.6570(6) -0.0595(2)
H2 H 0.5969 0.6590 -0.1223
C3 C 0.6170(2) 0.7771(6) 0.0000(2)
H3 H 0.5850 0.8797 -0.0152
C4 C 0.70165(17) 0.5730(4) 0.07936(17)
C5 C 0.75360(16) 0.4883(3) 0.16066(17)
H4 H 0.7769 0.3792 0.1561
C6 C 0.83278(17) 0.5270(4) 0.39638(18)
C7 C 0.8972(3) 0.4683(6) 0.5526(2)
H5 H 0.9269 0.3773 0.5922
H6 H 0.8411 0.5010 0.5681
H7 H 0.9383 0.5648 0.5600
N1 N 0.76861(13) 0.5587(3) 0.23906(14)
N2 N 0.81642(15) 0.4606(3) 0.31122(14)
H8 H 0.8355 0.3597 0.3025
O1 O 0.66343(14) 0.7290(3) 0.08659(13)
O2 O 0.81342(12) 0.6698(2) 0.41521(12)
O3 O 0.87484(17) 0.4105(3) 0.45826(13)
C8 C 0.5302(2) 0.2842(6) 0.1389(3)
H9 H 0.5139 0.3884 0.1093
C9 C 0.4711(2) 0.1714(5) 0.1540(3)
H10 H 0.4067 0.1801 0.1368
C10 C 0.52379(19) 0.0344(5) 0.2012(2)
H11 H 0.5006 -0.0642 0.2216
C11 C 0.61376(17) 0.0724(3) 0.21148(18)
C12 C 0.69799(17) -0.0134(3) 0.25482(16)
H12 H 0.6952 -0.1248 0.2756
C13 C 0.93793(17) 0.0282(4) 0.32608(17)
C14 C 1.0967(2) -0.0296(6) 0.3959(3)
H13 H 1.1351 -0.1178 0.4307
H14 H 1.1047 0.0743 0.4311
H15 H 1.1143 -0.0105 0.3400
N3 N 0.77726(14) 0.0577(3) 0.26606(14)
N4 N 0.85235(15) -0.0392(3) 0.31071(16)
H16 H 0.8447 -0.1414 0.3286
O4 O 0.61942(13) 0.2275(3) 0.17282(18)
O5 O 0.95630(12) 0.1665(2) 0.30007(12)
O6 O 0.99994(13) -0.0822(3) 0.37459(16)
loop_
_geom_bond_atom_site_label_1
_geom_bond_atom_site_label_2
_geom_bond_site_symmetry_1
_geom_bond_site_symmetry_2
C1 H1 1_555 1_555
C2 C1 1_555 1_555
H2 C2 1_555 1_555
C3 C2 1_555 1_555
H3 C3 1_555 1_555
C4 C1 1_555 1_555
C5 C4 1_555 1_555
H4 C5 1_555 1_555
C6 N2 1_555 1_555
C7 H5 1_555 1_555
H6 C7 1_555 1_555
H7 C7 1_555 1_555
N1 C5 1_555 1_555
N2 N1 1_555 1_555
H8 N2 1_555 1_555
O1 C3 1_555 1_555
O2 C6 1_555 1_555
O3 C6 1_555 1_555
C8 H9 1_555 1_555
C9 C8 1_555 1_555
H10 C9 1_555 1_555
C10 C9 1_555 1_555
H11 C10 1_555 1_555
C11 C10 1_555 1_555
C12 C11 1_555 1_555
H12 C12 1_555 1_555
C13 N4 1_555 1_555
C14 H13 1_555 1_555
H14 C14 1_555 1_555
H15 C14 1_555 1_555
N3 C12 1_555 1_555
N4 N3 1_555 1_555
H16 N4 1_555 1_555
O4 C8 1_555 1_555
O5 C13 1_555 1_555
O6 C13 1_555 1_555
C4 O1 1_555 1_555
C7 O3 1_555 1_555
C11 O4 1_555 1_555
C14 O6 1_555 1_555

#END
