
#######################################################################
#
#                 Cambridge Crystallographic Data Centre
#                                CCDC 
#
#######################################################################
#
# If this CIF has been generated from an entry in the Cambridge 
# Structural Database, then it will include bibliographic, chemical, 
# crystal, experimental, refinement or atomic coordinate data resulting 
# from the CCDC's data processing and validation procedures.
#
#######################################################################

data_BOGTIB
_chemical_formula_moiety         'C18 H17 N1 O2'
_chemical_name_systematic        
2,2,9-Trimethyl-2,3-dihydropyrano(2,3-a)carbazol-4(11H)-one
_symmetry_cell_setting           monoclinic
_symmetry_space_group_name_H-M   'P 21/c'
_symmetry_Int_Tables_number      14
_space_group_name_Hall           '-P 2ybc'
loop_
_symmetry_equiv_pos_site_id
_symmetry_equiv_pos_as_xyz
1 x,y,z
2 -x,1/2+y,1/2-z
3 -x,-y,-z
4 x,1/2-y,1/2+z
_cell_length_a                   8.6702(7)
_cell_length_b                   6.1647(5)
_cell_length_c                   26.617(2)
_cell_angle_alpha                90
_cell_angle_beta                 99.1000(10)
_cell_angle_gamma                90
_cell_volume                     1404.75
_exptl_crystal_colour            yellow
_exptl_crystal_description       block
_chemical_melting_point          '463-465 K'
_cell_formula_units_Z            4
loop_
_atom_site_label
_atom_site_type_symbol
_atom_site_fract_x
_atom_site_fract_y
_atom_site_fract_z
C1 C 0.17131(13) 0.84678(19) 0.25979(4)
C2 C 0.09703(13) 0.7573(2) 0.29780(4)
H1 H 0.0487 0.6188 0.2934
C3 C 0.09548(13) 0.8752(2) 0.34216(4)
C4 C 0.16617(13) 1.0821(2) 0.34766(4)
H2 H 0.1620 1.1628 0.3778
C5 C 0.24143(13) 1.1703(2) 0.31029(4)
H3 H 0.2894 1.3090 0.3148
C6 C 0.24560(12) 1.05129(18) 0.26567(4)
C7 C 0.31598(12) 1.08697(18) 0.22066(4)
C8 C 0.41054(13) 1.25324(19) 0.20595(4)
H4 H 0.4326 1.3796 0.2262
C9 C 0.47011(13) 1.2281(2) 0.16144(4)
H5 H 0.5374 1.3364 0.1516
C10 C 0.43349(13) 1.04460(19) 0.12984(4)
C11 C 0.33180(13) 0.88417(18) 0.14256(4)
C12 C 0.27867(12) 0.90402(18) 0.18939(4)
C13 C 0.01770(15) 0.7822(2) 0.38419(5)
H6 H -0.0933 0.8209 0.3784
H7 H 0.0674 0.8413 0.4170
H8 H 0.0284 0.6239 0.3846
C14 C 0.50985(13) 1.0114(2) 0.08483(4)
C15 C 0.47085(14) 0.7998(2) 0.05735(4)
H9 H 0.5436 0.6861 0.0731
H10 H 0.4857 0.8159 0.0214
C16 C 0.30334(14) 0.72833(19) 0.05911(4)
C17 C 0.27377(17) 0.5034(2) 0.03665(5)
H11 H 0.3465 0.4003 0.0558
H12 H 0.2895 0.5048 0.0010
H13 H 0.1662 0.4598 0.0386
C18 C 0.18336(14) 0.8888(2) 0.03275(4)
H14 H 0.0779 0.8353 0.0345
H15 H 0.1966 0.9043 -0.0030
H16 H 0.1983 1.0300 0.0497
N1 N 0.19001(11) 0.76108(16) 0.21306(4)
H17 H 0.1519 0.6366 0.2005
O1 O 0.28283(10) 0.70934(13) 0.11287(3)
O2 O 0.60210(11) 1.14169(18) 0.07137(3)
loop_
_geom_bond_atom_site_label_1
_geom_bond_atom_site_label_2
_geom_bond_site_symmetry_1
_geom_bond_site_symmetry_2
C1 C2 1_555 1_555
C2 H1 1_555 1_555
C3 C2 1_555 1_555
C4 C3 1_555 1_555
H2 C4 1_555 1_555
C5 C4 1_555 1_555
H3 C5 1_555 1_555
C6 C1 1_555 1_555
C7 C6 1_555 1_555
C8 C7 1_555 1_555
H4 C8 1_555 1_555
C9 C8 1_555 1_555
H5 C9 1_555 1_555
C10 C9 1_555 1_555
C11 C10 1_555 1_555
C12 C7 1_555 1_555
C13 C3 1_555 1_555
H6 C13 1_555 1_555
H7 C13 1_555 1_555
H8 C13 1_555 1_555
C14 C10 1_555 1_555
C15 C14 1_555 1_555
H9 C15 1_555 1_555
H10 C15 1_555 1_555
C16 C15 1_555 1_555
C17 C16 1_555 1_555
H11 C17 1_555 1_555
H12 C17 1_555 1_555
H13 C17 1_555 1_555
C18 C16 1_555 1_555
H14 C18 1_555 1_555
H15 C18 1_555 1_555
H16 C18 1_555 1_555
N1 C1 1_555 1_555
H17 N1 1_555 1_555
O1 C11 1_555 1_555
O2 C14 1_555 1_555
C5 C6 1_555 1_555
C11 C12 1_555 1_555
C12 N1 1_555 1_555
C16 O1 1_555 1_555

#END
