
#######################################################################
#
#                 Cambridge Crystallographic Data Centre
#                                CCDC 
#
#######################################################################
#
# If this CIF has been generated from an entry in the Cambridge 
# Structural Database, then it will include bibliographic, chemical, 
# crystal, experimental, refinement or atomic coordinate data resulting 
# from the CCDC's data processing and validation procedures.
#
#######################################################################

data_BOGTOH
_chemical_formula_moiety         'C18 H17 N1 O2'
_chemical_name_systematic        
2,2,10-Trimethyl-2,3-dihydropyrano(2,3-a)carbazol-4(11H)-one
_symmetry_cell_setting           monoclinic
_symmetry_space_group_name_H-M   'P 21/c'
_symmetry_Int_Tables_number      14
_space_group_name_Hall           '-P 2ybc'
loop_
_symmetry_equiv_pos_site_id
_symmetry_equiv_pos_as_xyz
1 x,y,z
2 -x,1/2+y,1/2-z
3 -x,-y,-z
4 x,1/2-y,1/2+z
_cell_length_a                   12.9740(16)
_cell_length_b                   9.4195(12)
_cell_length_c                   12.8444(16)
_cell_angle_alpha                90
_cell_angle_beta                 114.733(2)
_cell_angle_gamma                90
_cell_volume                     1425.7
_exptl_crystal_colour            yellow
_exptl_crystal_description       plate
_chemical_melting_point          '475-477 K'
_cell_formula_units_Z            4
loop_
_atom_site_label
_atom_site_type_symbol
_atom_site_fract_x
_atom_site_fract_y
_atom_site_fract_z
C1 C 0.30161(12) 1.23026(14) 0.61446(11)
H1 H 0.3274 1.1580 0.6749
H2 H 0.2199 1.2193 0.5680
H3 H 0.3168 1.3249 0.6493
C2 C 0.36377(10) 1.21263(12) 0.53998(10)
C3 C 0.44870(10) 1.30290(13) 0.54197(11)
H4 H 0.4698 1.3806 0.5939
C4 C 0.50503(11) 1.28432(13) 0.47042(11)
H5 H 0.5636 1.3484 0.4757
C5 C 0.47647(10) 1.17431(13) 0.39258(10)
H6 H 0.5142 1.1624 0.3437
C6 C 0.39071(10) 1.08061(12) 0.38720(10)
C7 C 0.33727(9) 1.09998(12) 0.46184(10)
C8 C 0.25796(9) 0.90879(12) 0.35603(9)
C9 C 0.33879(9) 0.95775(12) 0.31816(10)
C10 C 0.35259(10) 0.88720(13) 0.22829(10)
H7 H 0.4078 0.9184 0.2029
C11 C 0.28477(10) 0.77237(13) 0.17803(10)
H8 H 0.2932 0.7246 0.1169
C12 C 0.20236(10) 0.72342(12) 0.21537(10)
C13 C 0.19004(9) 0.79075(12) 0.30620(10)
C14 C 0.06708(10) 0.60905(12) 0.32183(10)
C15 C 0.03119(10) 0.58064(13) 0.19434(10)
H9 H 0.0054 0.4810 0.1773
H10 H -0.0338 0.6428 0.1493
C16 C 0.12561(10) 0.60623(12) 0.15718(10)
C17 C 0.15681(12) 0.50413(14) 0.39605(11)
H11 H 0.2229 0.5095 0.3778
H12 H 0.1255 0.4078 0.3811
H13 H 0.1798 0.5275 0.4771
C18 C -0.03389(12) 0.61299(15) 0.35277(12)
H14 H -0.0085 0.6424 0.4329
H15 H -0.0681 0.5183 0.3425
H16 H -0.0902 0.6808 0.3029
N1 N 0.25730(8) 0.99440(10) 0.44254(8)
H17 H 0.2137 0.9838 0.4791
O1 O 0.11424(7) 0.75262(9) 0.34888(7)
O2 O 0.13335(7) 0.53564(10) 0.08062(7)
loop_
_geom_bond_atom_site_label_1
_geom_bond_atom_site_label_2
_geom_bond_site_symmetry_1
_geom_bond_site_symmetry_2
C1 H1 1_555 1_555
H2 C1 1_555 1_555
H3 C1 1_555 1_555
C2 C1 1_555 1_555
C3 C2 1_555 1_555
H4 C3 1_555 1_555
C4 C3 1_555 1_555
H5 C4 1_555 1_555
C5 C4 1_555 1_555
H6 C5 1_555 1_555
C6 C5 1_555 1_555
C7 C2 1_555 1_555
C8 C9 1_555 1_555
C9 C6 1_555 1_555
C10 C9 1_555 1_555
H7 C10 1_555 1_555
C11 C10 1_555 1_555
H8 C11 1_555 1_555
C12 C11 1_555 1_555
C13 C8 1_555 1_555
C14 C15 1_555 1_555
C15 H9 1_555 1_555
H10 C15 1_555 1_555
C16 C12 1_555 1_555
C17 C14 1_555 1_555
H11 C17 1_555 1_555
H12 C17 1_555 1_555
H13 C17 1_555 1_555
C18 C14 1_555 1_555
H14 C18 1_555 1_555
H15 C18 1_555 1_555
H16 C18 1_555 1_555
N1 C7 1_555 1_555
H17 N1 1_555 1_555
O1 C13 1_555 1_555
O2 C16 1_555 1_555
C6 C7 1_555 1_555
C8 N1 1_555 1_555
C12 C13 1_555 1_555
C14 O1 1_555 1_555
C15 C16 1_555 1_555

#END
