
#######################################################################
#
#                 Cambridge Crystallographic Data Centre
#                                CCDC 
#
#######################################################################
#
# If this CIF has been generated from an entry in the Cambridge 
# Structural Database, then it will include bibliographic, chemical, 
# crystal, experimental, refinement or atomic coordinate data resulting 
# from the CCDC's data processing and validation procedures.
#
#######################################################################

data_BOGVUP
_chemical_compound_source        'bark of Chisocheton tomentosus'
_chemical_formula_moiety         'C29 H50 O2'
_chemical_name_systematic        
17-(5-Ethyl-6-methylheptan-2-yl)-10,13-dimethyl-2,3,4,7,8,9,10,11,12,13,14,15,16,17-tetradecahydro-1H-cyclopenta(a)phenanthrene-3,7-diol
_symmetry_cell_setting           monoclinic
_symmetry_space_group_name_H-M   'P 21'
_symmetry_Int_Tables_number      4
_space_group_name_Hall           'P 2yb'
loop_
_symmetry_equiv_pos_site_id
_symmetry_equiv_pos_as_xyz
1 x,y,z
2 -x,1/2+y,-z
_cell_length_a                   8.16900(10)
_cell_length_b                   12.2369(2)
_cell_length_c                   25.6945(4)
_cell_angle_alpha                90
_cell_angle_beta                 93.6520(10)
_cell_angle_gamma                90
_cell_volume                     2563.29
_exptl_crystal_colour            colorless
_exptl_crystal_description       prism
_cell_formula_units_Z            4
loop_
_atom_site_label
_atom_site_type_symbol
_atom_site_fract_x
_atom_site_fract_y
_atom_site_fract_z
O1 O 0.6382(2) 0.7500(2) 0.97759(9)
H1 H 0.6162 0.7329 0.9463
O2 O -0.0206(3) 0.7449(2) 1.12076(9)
H2 H -0.0118 0.7338 1.0888
C1 C 0.5203(3) 0.7010(3) 1.00956(12)
H5 H 0.4114 0.6996 0.9895
C2 C 0.5068(4) 0.7730(3) 1.05748(12)
H6 H 0.6158 0.7791 1.0764
H7 H 0.4716 0.8472 1.0463
C3 C 0.3855(4) 0.7269(2) 1.09368(11)
C4 C 0.4110(3) 0.6076(2) 1.11020(12)
C5 C 0.5651(4) 0.6019(3) 1.14821(12)
H8 H 0.5406 0.6343 1.1817
H9 H 0.6549 0.6424 1.1335
H10 H 0.5975 0.5254 1.1535
C6 C 0.4381(4) 0.5384(3) 1.06090(12)
H11 H 0.4737 0.4641 1.0720
H12 H 0.3321 0.5311 1.0403
C7 C 0.5650(4) 0.5859(3) 1.02586(13)
H13 H 0.6743 0.5858 1.0449
H14 H 0.5712 0.5396 0.9945
C8 C 0.2635(4) 0.7893(3) 1.10964(12)
H15 H 0.2549 0.8617 1.0965
C9 C 0.1395(4) 0.7532(3) 1.14665(12)
H16 H 0.1342 0.8112 1.1739
C10 C 0.1912(4) 0.6469(2) 1.17448(11)
H17 H 0.2823 0.6637 1.2011
C11 C 0.2546(4) 0.5652(2) 1.13538(12)
H18 H 0.1672 0.5589 1.1065
C12 C 0.0496(4) 0.5984(3) 1.20216(12)
H19 H -0.0382 0.5817 1.1744
C13 C 0.0879(4) 0.4906(3) 1.23062(12)
C14 C 0.2300(4) 0.5024(3) 1.27277(13)
H20 H 0.1941 0.5472 1.3015
H21 H 0.3237 0.5375 1.2576
H22 H 0.2625 0.4299 1.2860
C15 C 0.1318(4) 0.4089(3) 1.18813(13)
H23 H 0.1595 0.3374 1.2044
H24 H 0.0357 0.3985 1.1631
C16 C 0.2773(4) 0.4499(2) 1.15891(13)
H25 H 0.2971 0.3979 1.1305
H26 H 0.3763 0.4500 1.1832
C17 C -0.0307(4) 0.6698(3) 1.24235(13)
H27 H -0.1021 0.7262 1.2251
H28 H 0.0529 0.7059 1.2660
C18 C -0.1323(4) 0.5869(3) 1.27215(13)
H29 H -0.2507 0.5968 1.2627
H30 H -0.1131 0.5979 1.3102
C19 C -0.0770(4) 0.4705(3) 1.25683(13)
H31 H -0.1584 0.4430 1.2291
C20 C -0.0783(4) 0.3906(3) 1.30303(14)
H32 H -0.0044 0.4211 1.3320
C21 C -0.0136(5) 0.2765(3) 1.28981(17)
H33 H -0.0335 0.2259 1.3183
H34 H 0.1044 0.2807 1.2852
H35 H -0.0706 0.2503 1.2575
C22 C -0.2509(4) 0.3809(3) 1.32302(14)
H36 H -0.2994 0.4549 1.3243
H37 H -0.3200 0.3374 1.2976
C23 C -0.2574(5) 0.3286(4) 1.37654(16)
H38 H -0.1983 0.3769 1.4023
H39 H -0.1966 0.2586 1.3763
C24 C -0.4290(5) 0.3056(4) 1.39556(15)
H40 H -0.4861 0.2570 1.3689
C25 C -0.4156(6) 0.2408(4) 1.44664(18)
H41 H -0.3376 0.2787 1.4716
H42 H -0.5241 0.2406 1.4618
C26 C -0.3607(10) 0.1263(6) 1.4410(3)
H43 H -0.3655 0.0884 1.4745
H44 H -0.2477 0.1254 1.4303
H45 H -0.4326 0.0892 1.4146
C27 C -0.5338(5) 0.4085(5) 1.39847(17)
H46 H -0.5363 0.4438 1.3633
C28 C -0.4660(8) 0.4907(6) 1.4369(3)
H47 H -0.5273 0.5593 1.4323
H48 H -0.3501 0.5038 1.4312
H49 H -0.4760 0.4631 1.4723
C29 C -0.7116(6) 0.3790(7) 1.4087(2)
H50 H -0.7820 0.4430 1.4020
H51 H -0.7173 0.3561 1.4451
H52 H -0.7491 0.3192 1.3855
O3 O -0.0524(3) 0.7160(2) 1.01700(9)
H3 H -0.1437 0.7326 1.0022
O4 O 0.5741(3) 0.6943(2) 0.87412(9)
H4 H 0.6488 0.6784 0.8544
C30 C 0.0493(4) 0.6698(3) 0.97992(12)
H53 H 0.1616 0.6629 0.9975
C31 C 0.0640(4) 0.7452(3) 0.93332(12)
H54 H -0.0460 0.7565 0.9157
H55 H 0.1060 0.8171 0.9457
C32 C 0.1777(3) 0.6986(3) 0.89473(11)
C33 C 0.1431(3) 0.5817(3) 0.87644(11)
C34 C -0.0179(4) 0.5826(3) 0.84128(12)
H56 H -0.0994 0.6283 0.8573
H57 H -0.0600 0.5079 0.8373
H58 H 0.0036 0.6123 0.8070
C35 C 0.1201(4) 0.5101(3) 0.92521(12)
H59 H 0.0827 0.4366 0.9136
H60 H 0.2278 0.5015 0.9447
C36 C -0.0024(4) 0.5562(3) 0.96208(13)
H61 H -0.1129 0.5592 0.9440
H62 H -0.0078 0.5076 0.9927
C37 C 0.3035(4) 0.7581(3) 0.87996(12)
H63 H 0.3174 0.8295 0.8941
C38 C 0.4237(3) 0.7196(3) 0.84267(12)
H64 H 0.4461 0.7803 0.8181
C39 C 0.3607(3) 0.6209(2) 0.81143(11)
H65 H 0.2713 0.6461 0.7859
C40 C 0.2885(3) 0.5349(2) 0.84685(11)
H66 H 0.3771 0.5162 0.8740
C41 C 0.4956(3) 0.5704(3) 0.78089(11)
H67 H 0.5798 0.5418 0.8074
C42 C 0.4398(4) 0.4716(3) 0.74682(11)
C43 C 0.3011(4) 0.5023(3) 0.70591(12)
H68 H 0.3412 0.5572 0.6820
H69 H 0.2081 0.5322 0.7235
H70 H 0.2660 0.4370 0.6862
C44 C 0.3826(4) 0.3852(3) 0.78485(12)
H71 H 0.4767 0.3623 0.8085
H72 H 0.3426 0.3201 0.7650
C45 C 0.2451(4) 0.4284(2) 0.81739(12)
H73 H 0.2180 0.3718 0.8429
H74 H 0.1459 0.4410 0.7940
C46 C 0.5878(4) 0.6436(3) 0.74431(13)
H75 H 0.6695 0.6897 0.7641
H76 H 0.5110 0.6914 0.7234
C47 C 0.6719(4) 0.5619(3) 0.70931(13)
H77 H 0.7920 0.5621 0.7176
H78 H 0.6508 0.5820 0.6722
C48 C 0.6003(4) 0.4470(3) 0.71962(12)
H79 H 0.6773 0.4097 0.7457
C49 C 0.5895(4) 0.3761(3) 0.66984(12)
H80 H 0.5160 0.4145 0.6432
C50 C 0.5169(5) 0.2628(3) 0.67837(15)
H81 H 0.5304 0.2174 0.6475
H82 H 0.4000 0.2698 0.6842
H83 H 0.5739 0.2286 0.7089
C51 C 0.7592(4) 0.3659(3) 0.64791(13)
H84 H 0.8212 0.4342 0.6555
H85 H 0.8197 0.3055 0.6661
C52 C 0.7534(5) 0.3448(4) 0.58952(15)
H86 H 0.6766 0.3977 0.5720
H87 H 0.7084 0.2707 0.5827
C53 C 0.9195(5) 0.3535(4) 0.56493(15)
H88 H 0.8984 0.3381 0.5269
C54 C 0.9931(6) 0.4687(5) 0.5694(2)
H89 H 1.0390 0.4795 0.6057
H90 H 1.0854 0.4732 0.5463
C55 C 0.8742(9) 0.5623(6) 0.5556(3)
H91 H 0.9302 0.6323 0.5619
H92 H 0.7800 0.5575 0.5773
H93 H 0.8360 0.5570 0.5187
C56 C 1.0435(5) 0.2673(4) 0.58622(16)
H94 H 1.0662 0.2819 0.6243
C57 C 0.9728(7) 0.1508(4) 0.58050(19)
H95 H 1.0548 0.0979 0.5941
H96 H 0.9442 0.1356 0.5436
H97 H 0.8743 0.1450 0.6002
C58 C 1.2071(6) 0.2763(5) 0.5601(2)
H98 H 1.2544 0.3490 0.5667
H99 H 1.1879 0.2652 0.5224
H100 H 1.2832 0.2205 0.5744
loop_
_geom_bond_atom_site_label_1
_geom_bond_atom_site_label_2
_geom_bond_site_symmetry_1
_geom_bond_site_symmetry_2
O1 H1 1_555 1_555
O2 H2 1_555 1_555
O3 H3 1_555 1_555
O4 H4 1_555 1_555
C1 O1 1_555 1_555
H5 C1 1_555 1_555
C2 C1 1_555 1_555
H6 C2 1_555 1_555
H7 C2 1_555 1_555
C3 C2 1_555 1_555
C4 C3 1_555 1_555
C5 C4 1_555 1_555
H8 C5 1_555 1_555
H9 C5 1_555 1_555
H10 C5 1_555 1_555
C6 C4 1_555 1_555
H11 C6 1_555 1_555
H12 C6 1_555 1_555
C7 C1 1_555 1_555
H13 C7 1_555 1_555
H14 C7 1_555 1_555
C8 C3 1_555 1_555
H15 C8 1_555 1_555
C9 O2 1_555 1_555
H16 C9 1_555 1_555
C10 C9 1_555 1_555
H17 C10 1_555 1_555
C11 C4 1_555 1_555
H18 C11 1_555 1_555
C12 C10 1_555 1_555
H19 C12 1_555 1_555
C13 C12 1_555 1_555
C14 C13 1_555 1_555
H20 C14 1_555 1_555
H21 C14 1_555 1_555
H22 C14 1_555 1_555
C15 C13 1_555 1_555
H23 C15 1_555 1_555
H24 C15 1_555 1_555
C16 C11 1_555 1_555
H25 C16 1_555 1_555
H26 C16 1_555 1_555
C17 C12 1_555 1_555
H27 C17 1_555 1_555
H28 C17 1_555 1_555
C18 C17 1_555 1_555
H29 C18 1_555 1_555
H30 C18 1_555 1_555
C19 C13 1_555 1_555
H31 C19 1_555 1_555
C20 C19 1_555 1_555
H32 C20 1_555 1_555
C21 C20 1_555 1_555
H33 C21 1_555 1_555
H34 C21 1_555 1_555
H35 C21 1_555 1_555
C22 C20 1_555 1_555
H36 C22 1_555 1_555
H37 C22 1_555 1_555
C23 C22 1_555 1_555
H38 C23 1_555 1_555
H39 C23 1_555 1_555
C24 C23 1_555 1_555
H40 C24 1_555 1_555
C25 C24 1_555 1_555
H41 C25 1_555 1_555
H42 C25 1_555 1_555
C26 C25 1_555 1_555
H43 C26 1_555 1_555
H44 C26 1_555 1_555
H45 C26 1_555 1_555
C27 C24 1_555 1_555
H46 C27 1_555 1_555
C28 C27 1_555 1_555
H47 C28 1_555 1_555
H48 C28 1_555 1_555
H49 C28 1_555 1_555
C29 C27 1_555 1_555
H50 C29 1_555 1_555
H51 C29 1_555 1_555
H52 C29 1_555 1_555
C30 O3 1_555 1_555
H53 C30 1_555 1_555
C31 C30 1_555 1_555
H54 C31 1_555 1_555
H55 C31 1_555 1_555
C32 C31 1_555 1_555
C33 C32 1_555 1_555
C34 C33 1_555 1_555
H56 C34 1_555 1_555
H57 C34 1_555 1_555
H58 C34 1_555 1_555
C35 C33 1_555 1_555
H59 C35 1_555 1_555
H60 C35 1_555 1_555
C36 C30 1_555 1_555
H61 C36 1_555 1_555
H62 C36 1_555 1_555
C37 C32 1_555 1_555
H63 C37 1_555 1_555
C38 O4 1_555 1_555
H64 C38 1_555 1_555
C39 C38 1_555 1_555
H65 C39 1_555 1_555
C40 C33 1_555 1_555
H66 C40 1_555 1_555
C41 C39 1_555 1_555
H67 C41 1_555 1_555
C42 C41 1_555 1_555
C43 C42 1_555 1_555
H68 C43 1_555 1_555
H69 C43 1_555 1_555
H70 C43 1_555 1_555
C44 C42 1_555 1_555
H71 C44 1_555 1_555
H72 C44 1_555 1_555
C45 C40 1_555 1_555
H73 C45 1_555 1_555
H74 C45 1_555 1_555
C46 C41 1_555 1_555
H75 C46 1_555 1_555
H76 C46 1_555 1_555
C47 C46 1_555 1_555
H77 C47 1_555 1_555
H78 C47 1_555 1_555
C48 C42 1_555 1_555
H79 C48 1_555 1_555
C49 C48 1_555 1_555
H80 C49 1_555 1_555
C50 C49 1_555 1_555
H81 C50 1_555 1_555
H82 C50 1_555 1_555
H83 C50 1_555 1_555
C51 C49 1_555 1_555
H84 C51 1_555 1_555
H85 C51 1_555 1_555
C52 C51 1_555 1_555
H86 C52 1_555 1_555
H87 C52 1_555 1_555
C53 C52 1_555 1_555
H88 C53 1_555 1_555
C54 C53 1_555 1_555
H89 C54 1_555 1_555
H90 C54 1_555 1_555
C55 C54 1_555 1_555
H91 C55 1_555 1_555
H92 C55 1_555 1_555
H93 C55 1_555 1_555
C56 C53 1_555 1_555
H94 C56 1_555 1_555
C57 C56 1_555 1_555
H95 C57 1_555 1_555
H96 C57 1_555 1_555
H97 C57 1_555 1_555
C58 C56 1_555 1_555
H98 C58 1_555 1_555
H99 C58 1_555 1_555
H100 C58 1_555 1_555
C6 C7 1_555 1_555
C8 C9 1_555 1_555
C10 C11 1_555 1_555
C15 C16 1_555 1_555
C18 C19 1_555 1_555
C35 C36 1_555 1_555
C37 C38 1_555 1_555
C39 C40 1_555 1_555
C44 C45 1_555 1_555
C47 C48 1_555 1_555

#END
