
#######################################################################
#
#                 Cambridge Crystallographic Data Centre
#                                CCDC 
#
#######################################################################
#
# If this CIF has been generated from an entry in the Cambridge 
# Structural Database, then it will include bibliographic, chemical, 
# crystal, experimental, refinement or atomic coordinate data resulting 
# from the CCDC's data processing and validation procedures.
#
#######################################################################

data_BOGWEA
_chemical_compound_source        'Rennellia elliptica Korth'
_chemical_formula_moiety         'C15 H8 O4'
_chemical_name_systematic        2-Formyl-3-hydroxy-9,10-anthroquinone
_symmetry_cell_setting           triclinic
_symmetry_space_group_name_H-M   'P -1'
_symmetry_Int_Tables_number      2
_space_group_name_Hall           '-P 1'
loop_
_symmetry_equiv_pos_site_id
_symmetry_equiv_pos_as_xyz
1 x,y,z
2 -x,-y,-z
_cell_length_a                   6.9194(2)
_cell_length_b                   8.0650(2)
_cell_length_c                   10.7601(3)
_cell_angle_alpha                86.250(2)
_cell_angle_beta                 83.214(2)
_cell_angle_gamma                64.692(2)
_cell_volume                     538.959
_exptl_crystal_colour            yellow
_exptl_crystal_description       Block
_cell_formula_units_Z            2
loop_
_atom_site_label
_atom_site_type_symbol
_atom_site_fract_x
_atom_site_fract_y
_atom_site_fract_z
O1 O 0.3155(6) 0.6486(5) 0.0888(3)
O2 O 0.2501(6) 0.3493(5) 0.0941(3)
H1 H 0.2611 0.4345 0.0490
O3 O 0.2366(5) -0.0898(4) 0.4383(3)
O4 O 0.2779(5) 0.4648(4) 0.6688(3)
C1 C 0.3060(7) 0.6395(6) 0.2041(4)
H2 H 0.3171 0.7336 0.2474
C2 C 0.2786(7) 0.4901(6) 0.2772(4)
C3 C 0.2544(7) 0.3500(6) 0.2187(4)
C4 C 0.2356(7) 0.2059(6) 0.2894(4)
H3 H 0.2187 0.1116 0.2500
C5 C 0.2419(6) 0.2016(5) 0.4183(4)
C6 C 0.2335(6) 0.0406(5) 0.4916(4)
C7 C 0.2285(6) 0.0417(5) 0.6299(4)
C8 C 0.2117(7) -0.1043(6) 0.7003(4)
H4 H 0.1986 -0.1999 0.6601
C9 C 0.2144(7) -0.1091(6) 0.8286(4)
H5 H 0.2031 -0.2083 0.8766
C10 C 0.2336(7) 0.0310(6) 0.8883(4)
H6 H 0.2353 0.0269 0.9767
C11 C 0.2503(7) 0.1762(6) 0.8187(4)
H7 H 0.2645 0.2709 0.8594
C12 C 0.2462(6) 0.1835(5) 0.6895(4)
C13 C 0.2641(6) 0.3403(6) 0.6165(4)
C14 C 0.2621(6) 0.3426(5) 0.4787(4)
C15 C 0.2815(7) 0.4851(6) 0.4072(4)
H8 H 0.2968 0.5801 0.4468
loop_
_geom_bond_atom_site_label_1
_geom_bond_atom_site_label_2
_geom_bond_site_symmetry_1
_geom_bond_site_symmetry_2
O1 C1 1_555 1_555
O2 H1 1_555 1_555
O3 C6 1_555 1_555
O4 C13 1_555 1_555
C1 H2 1_555 1_555
C2 C1 1_555 1_555
C3 O2 1_555 1_555
C4 C3 1_555 1_555
H3 C4 1_555 1_555
C5 C4 1_555 1_555
C6 C5 1_555 1_555
C7 C6 1_555 1_555
C8 C7 1_555 1_555
H4 C8 1_555 1_555
C9 C8 1_555 1_555
H5 C9 1_555 1_555
C10 C9 1_555 1_555
H6 C10 1_555 1_555
C11 C10 1_555 1_555
H7 C11 1_555 1_555
C12 C7 1_555 1_555
C13 C12 1_555 1_555
C14 C5 1_555 1_555
C15 C2 1_555 1_555
H8 C15 1_555 1_555
C2 C3 1_555 1_555
C11 C12 1_555 1_555
C13 C14 1_555 1_555
C14 C15 1_555 1_555

#END
