
#######################################################################
#
#                 Cambridge Crystallographic Data Centre
#                                CCDC 
#
#######################################################################
#
# If this CIF has been generated from an entry in the Cambridge 
# Structural Database, then it will include bibliographic, chemical, 
# crystal, experimental, refinement or atomic coordinate data resulting 
# from the CCDC's data processing and validation procedures.
#
#######################################################################

data_BOHMUH
_chemical_formula_moiety         'C21 H15 F9 O4'
_chemical_name_systematic        
anti-(Z)-5-(2,2,2-Trifluoroethylidene)-2,4-bis(2-methoxyphenyl)-2,4-bis(trifluoromethyl)-1,3-dioxolane
_symmetry_cell_setting           monoclinic
_symmetry_space_group_name_H-M   'P 21/c'
_symmetry_Int_Tables_number      14
_space_group_name_Hall           '-P 2ybc'
loop_
_symmetry_equiv_pos_site_id
_symmetry_equiv_pos_as_xyz
1 x,y,z
2 -x,1/2+y,1/2-z
3 -x,-y,-z
4 x,1/2-y,1/2+z
_cell_length_a                   17.2026(3)
_cell_length_b                   7.9671(2)
_cell_length_c                   15.5221(3)
_cell_angle_alpha                90
_cell_angle_beta                 97.1910(10)
_cell_angle_gamma                90
_cell_volume                     2110.65
_exptl_crystal_colour            silver
_exptl_crystal_description       block
_chemical_melting_point          '110-111 deg.C'
_cell_formula_units_Z            4
loop_
_atom_site_label
_atom_site_type_symbol
_atom_site_fract_x
_atom_site_fract_y
_atom_site_fract_z
C1 C 0.31369(11) 0.5227(3) 0.37179(12)
H1 H 0.3606 0.5771 0.3906
C2 C 0.27631(9) 0.5632(2) 0.29525(11)
O1 O 0.20637(7) 0.48994(17) 0.26671(8)
C3 C 0.18168(9) 0.5383(2) 0.17973(11)
O2 O 0.22757(7) 0.67774(16) 0.16323(8)
C4 C 0.29346(9) 0.6945(2) 0.22881(11)
C5 C 0.28487(12) 0.3951(3) 0.42934(14)
F1 F 0.33165(11) 0.3790(3) 0.50093(12)
F2 F 0.27956(13) 0.2427(2) 0.39355(13)
F3 F 0.21435(9) 0.4204(3) 0.44757(12)
C6 C 0.09478(9) 0.5773(2) 0.16835(11)
C7 C 0.04983(11) 0.5227(3) 0.23110(13)
H2 H 0.0738 0.4672 0.2801
C8 C -0.03063(12) 0.5498(3) 0.22179(16)
H3 H -0.0604 0.5127 0.2641
C9 C -0.06547(12) 0.6316(3) 0.14979(17)
H4 H -0.1193 0.6494 0.1432
C10 C -0.02227(11) 0.6879(3) 0.08694(16)
H5 H -0.0471 0.7443 0.0387
C11 C 0.05841(10) 0.6613(2) 0.09494(12)
O3 O 0.10535(8) 0.7120(2) 0.03575(9)
C12 C 0.07060(16) 0.7831(3) -0.04349(15)
H6 H 0.1108 0.8128 -0.0784
H7 H 0.0417 0.8818 -0.0316
H8 H 0.0357 0.7030 -0.0741
C13 C 0.20202(11) 0.3875(3) 0.12380(15)
F4 F 0.27657(7) 0.34301(17) 0.14482(10)
F5 F 0.15790(9) 0.25556(18) 0.13776(12)
F6 F 0.19160(9) 0.4206(2) 0.03998(9)
C14 C 0.36924(10) 0.6809(2) 0.18564(11)
C15 C 0.36207(11) 0.6783(3) 0.09569(13)
H9 H 0.3124 0.6845 0.0645
C16 C 0.42631(13) 0.6670(3) 0.05102(14)
H10 H 0.4198 0.6635 -0.0093
C17 C 0.50011(13) 0.6609(4) 0.09664(16)
H11 H 0.5437 0.6531 0.0670
C18 C 0.50983(11) 0.6662(3) 0.18566(14)
H12 H 0.5600 0.6635 0.2159
C19 C 0.44517(10) 0.6755(2) 0.23111(12)
O4 O 0.45237(7) 0.6803(2) 0.31937(8)
C20 C 0.52823(12) 0.6617(4) 0.36642(15)
H13 H 0.5246 0.6673 0.4276
H14 H 0.5616 0.7502 0.3507
H15 H 0.5497 0.5552 0.3528
C21 C 0.28299(10) 0.8719(2) 0.26560(14)
F7 F 0.21384(7) 0.88741(18) 0.29376(10)
F8 F 0.28716(9) 0.98771(16) 0.20512(10)
F9 F 0.33698(7) 0.90876(16) 0.33115(9)
loop_
_geom_bond_atom_site_label_1
_geom_bond_atom_site_label_2
_geom_bond_site_symmetry_1
_geom_bond_site_symmetry_2
C1 H1 1_555 1_555
C2 C1 1_555 1_555
O1 C2 1_555 1_555
C3 O1 1_555 1_555
O2 C3 1_555 1_555
C4 C2 1_555 1_555
C5 C1 1_555 1_555
F1 C5 1_555 1_555
F2 C5 1_555 1_555
F3 C5 1_555 1_555
C6 C3 1_555 1_555
C7 C6 1_555 1_555
H2 C7 1_555 1_555
C8 C7 1_555 1_555
H3 C8 1_555 1_555
C9 C8 1_555 1_555
H4 C9 1_555 1_555
C10 C9 1_555 1_555
H5 C10 1_555 1_555
C11 C6 1_555 1_555
O3 C11 1_555 1_555
C12 O3 1_555 1_555
H6 C12 1_555 1_555
H7 C12 1_555 1_555
H8 C12 1_555 1_555
C13 C3 1_555 1_555
F4 C13 1_555 1_555
F5 C13 1_555 1_555
F6 C13 1_555 1_555
C14 C4 1_555 1_555
C15 C14 1_555 1_555
H9 C15 1_555 1_555
C16 C15 1_555 1_555
H10 C16 1_555 1_555
C17 C16 1_555 1_555
H11 C17 1_555 1_555
C18 C17 1_555 1_555
H12 C18 1_555 1_555
C19 C14 1_555 1_555
O4 C19 1_555 1_555
C20 O4 1_555 1_555
H13 C20 1_555 1_555
H14 C20 1_555 1_555
H15 C20 1_555 1_555
C21 C4 1_555 1_555
F7 C21 1_555 1_555
F8 C21 1_555 1_555
F9 C21 1_555 1_555
O2 C4 1_555 1_555
C10 C11 1_555 1_555
C18 C19 1_555 1_555

#END
