
#######################################################################
#
#                 Cambridge Crystallographic Data Centre
#                                CCDC 
#
#######################################################################
#
# If this CIF has been generated from an entry in the Cambridge 
# Structural Database, then it will include bibliographic, chemical, 
# crystal, experimental, refinement or atomic coordinate data resulting 
# from the CCDC's data processing and validation procedures.
#
#######################################################################

data_BOHNIX
_chemical_formula_moiety         'C69 H56 N2 Se1,0.35(C1 H1 Cl3)'
_chemical_name_systematic        
'1,3-bis(2,6-bis(diphenylmethyl)-4-methylphenyl)-1,3-dihydro-2H-imidazole-2-selone chloromethane solvate'
_symmetry_cell_setting           orthorhombic
_symmetry_space_group_name_H-M   'P n a 21'
_symmetry_Int_Tables_number      33
_space_group_name_Hall           'P 2c -2n'
loop_
_symmetry_equiv_pos_site_id
_symmetry_equiv_pos_as_xyz
1 x,y,z
2 1/2-x,1/2+y,1/2+z
3 1/2+x,1/2-y,z
4 -x,-y,1/2+z
_cell_length_a                   19.5273(17)
_cell_length_b                   14.7874(13)
_cell_length_c                   20.4755(18)
_cell_angle_alpha                90
_cell_angle_beta                 90
_cell_angle_gamma                90
_cell_volume                     5912.46
_exptl_crystal_colour            colorless
_exptl_crystal_description       prism
_cell_formula_units_Z            4
loop_
_atom_site_label
_atom_site_type_symbol
_atom_site_fract_x
_atom_site_fract_y
_atom_site_fract_z
Se1 Se 0.65590(4) 0.43991(5) 0.43812(5)
N1 N 0.7172(3) 0.3564(4) 0.5507(3)
N2 N 0.7942(3) 0.4104(4) 0.4846(3)
C1 C 0.7247(3) 0.4015(5) 0.4933(3)
C2 C 0.7813(4) 0.3394(5) 0.5783(3)
C3 C 0.8280(4) 0.3739(5) 0.5371(4)
C4 C 0.6526(3) 0.3221(5) 0.5745(4)
C5 C 0.6321(4) 0.2340(5) 0.5553(3)
C6 C 0.5688(4) 0.2032(5) 0.5771(4)
C7 C 0.5266(4) 0.2545(5) 0.6182(4)
C8 C 0.5499(4) 0.3419(5) 0.6363(4)
C9 C 0.6126(4) 0.3755(5) 0.6152(3)
C10 C 0.6807(4) 0.1752(5) 0.5145(4)
C11 C 0.7271(4) 0.1198(5) 0.5588(4)
C12 C 0.7030(6) 0.0756(7) 0.6128(6)
C13 C 0.7478(8) 0.0249(11) 0.6511(7)
C14 C 0.8170(8) 0.0232(9) 0.6391(7)
C15 C 0.8419(5) 0.0709(7) 0.5863(7)
C16 C 0.7973(5) 0.1161(5) 0.5464(5)
C17 C 0.6399(4) 0.1218(6) 0.4628(4)
C18 C 0.6186(5) 0.1706(8) 0.4060(5)
C19 C 0.5788(6) 0.1272(13) 0.3594(6)
C20 C 0.5627(6) 0.0363(10) 0.3652(7)
C21 C 0.5840(6) -0.0106(8) 0.4190(6)
C22 C 0.6248(5) 0.0319(7) 0.4687(5)
C23 C 0.4592(4) 0.2195(6) 0.6422(4)
C24 C 0.6394(4) 0.4668(5) 0.6404(4)
C25 C 0.6827(4) 0.4541(5) 0.7019(4)
C26 C 0.6829(6) 0.3776(7) 0.7393(5)
C27 C 0.7234(7) 0.3703(10) 0.7953(6)
C28 C 0.7643(7) 0.4382(11) 0.8138(6)
C29 C 0.7670(5) 0.5174(10) 0.7763(6)
C30 C 0.7255(5) 0.5273(7) 0.7207(6)
C31 C 0.5833(4) 0.5356(6) 0.6500(5)
C32 C 0.5567(5) 0.5588(6) 0.7096(7)
C33 C 0.5038(6) 0.6282(8) 0.7115(9)
C34 C 0.4829(7) 0.6691(9) 0.6565(13)
C35 C 0.5104(8) 0.6437(11) 0.5952(11)
C36 C 0.5585(6) 0.5784(7) 0.5916(7)
C37 C 0.8260(3) 0.4601(4) 0.4315(4)
C38 C 0.8444(3) 0.5507(4) 0.4434(5)
C39 C 0.8738(4) 0.5978(5) 0.3917(4)
C40 C 0.8863(4) 0.5589(5) 0.3312(4)
C41 C 0.8689(4) 0.4694(5) 0.3225(4)
C42 C 0.8374(4) 0.4169(5) 0.3715(4)
C43 C 0.8299(4) 0.5936(5) 0.5094(4)
C44 C 0.8888(5) 0.5842(5) 0.5577(4)
C45 C 0.8761(8) 0.5751(8) 0.6234(5)
C46 C 0.9253(11) 0.5694(9) 0.6705(6)
C47 C 0.9920(11) 0.5718(8) 0.6506(7)
C48 C 1.0097(8) 0.5781(10) 0.5850(6)
C49 C 0.9557(6) 0.5829(8) 0.5391(5)
C50 C 0.8099(4) 0.6943(5) 0.5003(3)
C51 C 0.8544(5) 0.7650(6) 0.5104(5)
C52 C 0.8350(5) 0.8546(6) 0.5009(5)
C53 C 0.7703(6) 0.8757(7) 0.4825(5)
C54 C 0.7238(7) 0.8084(8) 0.4719(7)
C55 C 0.7441(5) 0.7143(7) 0.4809(5)
C56 C 0.9172(6) 0.6142(6) 0.2763(4)
C57 C 0.8146(4) 0.3198(5) 0.3591(4)
C58 C 0.8648(4) 0.2465(5) 0.3847(4)
C59 C 0.8467(5) 0.1570(5) 0.3767(5)
C60 C 0.8889(6) 0.0870(6) 0.3979(5)
C61 C 0.9501(6) 0.1068(7) 0.4278(5)
C62 C 0.9689(4) 0.1963(6) 0.4375(5)
C63 C 0.9264(4) 0.2657(6) 0.4160(4)
C64 C 0.7964(4) 0.3035(5) 0.2875(4)
C65 C 0.7304(5) 0.3129(7) 0.2678(5)
C66 C 0.7130(8) 0.3009(9) 0.2011(8)
C67 C 0.7665(9) 0.2804(9) 0.1561(6)
C68 C 0.8299(7) 0.2674(7) 0.1775(5)
C69 C 0.8469(5) 0.2787(6) 0.2424(4)
H1 H 0.7902 0.30942 0.61845
H2 H 0.87625 0.37307 0.5432
H3 H 0.55354 0.14521 0.5635
H4 H 0.52191 0.37838 0.66361
H5 H 0.71118 0.21771 0.49002
H6 H 0.65589 0.07939 0.62419
H7 H 0.73005 -0.00937 0.68647
H8 H 0.84705 -0.01007 0.66658
H9 H 0.88973 0.07236 0.57769
H10 H 0.8148 0.14596 0.50887
H11 H 0.63154 0.23196 0.40026
H12 H 0.56239 0.16039 0.32292
H13 H 0.53692 0.0069 0.33207
H14 H 0.57176 -0.07247 0.42354
H15 H 0.6409 -0.00194 0.50499
H16 H 0.45656 0.15418 0.63447
H17 H 0.42194 0.24985 0.61883
H18 H 0.45492 0.2315 0.68914
H19 H 0.67057 0.4914 0.60598
H20 H 0.65469 0.32816 0.72692
H21 H 0.72179 0.31647 0.82055
H22 H 0.79148 0.43274 0.85207
H23 H 0.79706 0.56493 0.78858
H24 H 0.72613 0.58176 0.69609
H25 H 0.5722 0.53052 0.7485
H26 H 0.48396 0.64482 0.75213
H27 H 0.44931 0.71544 0.65866
H28 H 0.49493 0.67267 0.55657
H29 H 0.57611 0.56069 0.55027
H30 H 0.88583 0.6594 0.39809
H31 H 0.87861 0.44182 0.28163
H32 H 0.78941 0.56182 0.5285
H33 H 0.82961 0.57255 0.63705
H34 H 0.91364 0.56392 0.71532
H35 H 1.02732 0.56915 0.68252
H36 H 1.0562 0.57912 0.57151
H37 H 0.96648 0.58527 0.49385
H38 H 0.89983 0.75226 0.52438
H39 H 0.86747 0.90159 0.50729
H40 H 0.75728 0.93712 0.47711
H41 H 0.67846 0.8227 0.45873
H42 H 0.71217 0.66704 0.47328
H43 H 0.88114 0.6319 0.24561
H44 H 0.95174 0.57804 0.25344
H45 H 0.9388 0.66858 0.29443
H46 H 0.77113 0.31155 0.3842
H47 H 0.8044 0.14277 0.35613
H48 H 0.87545 0.02582 0.3918
H49 H 0.97953 0.05934 0.44167
H50 H 1.01077 0.21019 0.4589
H51 H 0.93954 0.32687 0.42266
H52 H 0.69577 0.32756 0.29863
H53 H 0.66695 0.30634 0.18676
H54 H 0.75677 0.27614 0.11073
H55 H 0.86438 0.24982 0.14734
H56 H 0.8928 0.26979 0.25645
Cl1 Cl 0.5345(8) 0.6957(9) 0.4214(8)
Cl2 Cl 0.6216(6) 0.7354(7) 0.3216(5)
Cl3 Cl 0.5492(6) 0.5707(6) 0.3038(5)
C70 C 0.5814(13) 0.6519(13) 0.3604(11)
H57 H 0.61914 0.61902 0.38339
loop_
_geom_bond_atom_site_label_1
_geom_bond_atom_site_label_2
_geom_bond_site_symmetry_1
_geom_bond_site_symmetry_2
Se1 C1 1_555 1_555
N1 C1 1_555 1_555
N2 C1 1_555 1_555
C2 N1 1_555 1_555
C3 N2 1_555 1_555
C4 N1 1_555 1_555
C5 C4 1_555 1_555
C6 C5 1_555 1_555
C7 C6 1_555 1_555
C8 C7 1_555 1_555
C9 C4 1_555 1_555
C10 C5 1_555 1_555
C11 C10 1_555 1_555
C12 C11 1_555 1_555
C13 C12 1_555 1_555
C14 C13 1_555 1_555
C15 C14 1_555 1_555
C16 C11 1_555 1_555
C17 C10 1_555 1_555
C18 C17 1_555 1_555
C19 C18 1_555 1_555
C20 C19 1_555 1_555
C21 C20 1_555 1_555
C22 C17 1_555 1_555
C23 C7 1_555 1_555
C24 C9 1_555 1_555
C25 C24 1_555 1_555
C26 C25 1_555 1_555
C27 C26 1_555 1_555
C28 C27 1_555 1_555
C29 C28 1_555 1_555
C30 C25 1_555 1_555
C31 C24 1_555 1_555
C32 C31 1_555 1_555
C33 C32 1_555 1_555
C34 C33 1_555 1_555
C35 C34 1_555 1_555
C36 C31 1_555 1_555
C37 N2 1_555 1_555
C38 C37 1_555 1_555
C39 C38 1_555 1_555
C40 C39 1_555 1_555
C41 C40 1_555 1_555
C42 C37 1_555 1_555
C43 C38 1_555 1_555
C44 C43 1_555 1_555
C45 C44 1_555 1_555
C46 C45 1_555 1_555
C47 C46 1_555 1_555
C48 C47 1_555 1_555
C49 C44 1_555 1_555
C50 C43 1_555 1_555
C51 C50 1_555 1_555
C52 C51 1_555 1_555
C53 C52 1_555 1_555
C54 C53 1_555 1_555
C55 C50 1_555 1_555
C56 C40 1_555 1_555
C57 C42 1_555 1_555
C58 C57 1_555 1_555
C59 C58 1_555 1_555
C60 C59 1_555 1_555
C61 C60 1_555 1_555
C62 C61 1_555 1_555
C63 C58 1_555 1_555
C64 C57 1_555 1_555
C65 C64 1_555 1_555
C66 C65 1_555 1_555
C67 C66 1_555 1_555
C68 C67 1_555 1_555
C69 C64 1_555 1_555
H1 C2 1_555 1_555
H2 C3 1_555 1_555
H3 C6 1_555 1_555
H4 C8 1_555 1_555
H5 C10 1_555 1_555
H6 C12 1_555 1_555
H7 C13 1_555 1_555
H8 C14 1_555 1_555
H9 C15 1_555 1_555
H10 C16 1_555 1_555
H11 C18 1_555 1_555
H12 C19 1_555 1_555
H13 C20 1_555 1_555
H14 C21 1_555 1_555
H15 C22 1_555 1_555
H16 C23 1_555 1_555
H17 C23 1_555 1_555
H18 C23 1_555 1_555
H19 C24 1_555 1_555
H20 C26 1_555 1_555
H21 C27 1_555 1_555
H22 C28 1_555 1_555
H23 C29 1_555 1_555
H24 C30 1_555 1_555
H25 C32 1_555 1_555
H26 C33 1_555 1_555
H27 C34 1_555 1_555
H28 C35 1_555 1_555
H29 C36 1_555 1_555
H30 C39 1_555 1_555
H31 C41 1_555 1_555
H32 C43 1_555 1_555
H33 C45 1_555 1_555
H34 C46 1_555 1_555
H35 C47 1_555 1_555
H36 C48 1_555 1_555
H37 C49 1_555 1_555
H38 C51 1_555 1_555
H39 C52 1_555 1_555
H40 C53 1_555 1_555
H41 C54 1_555 1_555
H42 C55 1_555 1_555
H43 C56 1_555 1_555
H44 C56 1_555 1_555
H45 C56 1_555 1_555
H46 C57 1_555 1_555
H47 C59 1_555 1_555
H48 C60 1_555 1_555
H49 C61 1_555 1_555
H50 C62 1_555 1_555
H51 C63 1_555 1_555
H52 C65 1_555 1_555
H53 C66 1_555 1_555
H54 C67 1_555 1_555
H55 C68 1_555 1_555
H56 C69 1_555 1_555
Cl1 C70 1_555 1_555
Cl2 C70 1_555 1_555
Cl3 C70 1_555 1_555
C70 H57 1_555 1_555
C2 C3 1_555 1_555
C8 C9 1_555 1_555
C15 C16 1_555 1_555
C21 C22 1_555 1_555
C29 C30 1_555 1_555
C35 C36 1_555 1_555
C41 C42 1_555 1_555
C48 C49 1_555 1_555
C54 C55 1_555 1_555
C62 C63 1_555 1_555
C68 C69 1_555 1_555

#END
