
#######################################################################
#
#                 Cambridge Crystallographic Data Centre
#                                CCDC 
#
#######################################################################
#
# If this CIF has been generated from an entry in the Cambridge 
# Structural Database, then it will include bibliographic, chemical, 
# crystal, experimental, refinement or atomic coordinate data resulting 
# from the CCDC's data processing and validation procedures.
#
#######################################################################

data_BOHNOD
_chemical_formula_moiety         'C69 H56 N2 O2 Se1,0.5(C3 H6 O1)'
_chemical_name_systematic        
'1,3-bis(2,6-bis(diphenylmethyl)-4-methoxyphenyl)-1,3-dihydro-2H-imidazole-2-selone acetone solvate'
_symmetry_cell_setting           orthorhombic
_symmetry_space_group_name_H-M   'P n a 21'
_symmetry_Int_Tables_number      33
_space_group_name_Hall           'P 2c -2n'
loop_
_symmetry_equiv_pos_site_id
_symmetry_equiv_pos_as_xyz
1 x,y,z
2 1/2-x,1/2+y,1/2+z
3 1/2+x,1/2-y,z
4 -x,-y,1/2+z
_cell_length_a                   19.5267(11)
_cell_length_b                   14.8249(9)
_cell_length_c                   20.1659(11)
_cell_angle_alpha                90
_cell_angle_beta                 90
_cell_angle_gamma                90
_cell_volume                     5837.65
_exptl_crystal_colour            colorless
_exptl_crystal_description       prism
_cell_formula_units_Z            4
loop_
_atom_site_label
_atom_site_type_symbol
_atom_site_fract_x
_atom_site_fract_y
_atom_site_fract_z
Se1 Se 0.15873(2) 0.92552(3) 0.40637(3)
O1 O -0.04198(16) 0.7054(2) 0.59879(17)
O2 O 0.4190(2) 1.0677(2) 0.24934(16)
N1 N 0.21198(19) 0.8380(2) 0.52199(18)
N2 N 0.29282(18) 0.8884(2) 0.45805(17)
C1 C 0.2234(2) 0.8824(3) 0.4641(2)
C2 C 0.2740(2) 0.8170(3) 0.5521(2)
C3 C 0.3240(2) 0.8487(3) 0.5129(2)
C4 C 0.1455(2) 0.8067(3) 0.5428(2)
C5 C 0.1041(2) 0.8622(3) 0.5810(2)
C6 C 0.0398(2) 0.8302(3) 0.5998(2)
C7 C 0.0192(2) 0.7439(3) 0.5816(2)
C8 C 0.0612(2) 0.6892(3) 0.5427(2)
C9 C 0.1255(2) 0.7197(3) 0.5235(2)
C10 C 0.1315(2) 0.9525(3) 0.6047(3)
C11 C 0.1752(3) 0.9420(3) 0.6670(3)
C12 C 0.1734(4) 0.8661(5) 0.7057(3)
C13 C 0.2144(5) 0.8605(6) 0.7624(4)
C14 C 0.2596(4) 0.9274(6) 0.7774(4)
C15 C 0.2619(3) 1.0033(5) 0.7389(4)
C16 C 0.2197(3) 1.0109(4) 0.6845(3)
C17 C 0.0756(3) 1.0244(4) 0.6115(3)
C18 C 0.0547(4) 1.0691(4) 0.5526(5)
C19 C 0.0076(5) 1.1358(6) 0.5550(6)
C20 C -0.0219(5) 1.1581(7) 0.6133(7)
C21 C -0.0032(5) 1.1191(6) 0.6709(6)
C22 C 0.0481(3) 1.0483(5) 0.6711(5)
C23 C -0.0829(3) 0.7512(4) 0.6466(3)
C24 C 0.1742(2) 0.6588(3) 0.4850(2)
C25 C 0.2187(3) 0.6028(3) 0.5314(3)
C26 C 0.1928(3) 0.5613(4) 0.5873(4)
C27 C 0.2353(4) 0.5095(5) 0.6280(4)
C28 C 0.3039(4) 0.5010(5) 0.6135(4)
C29 C 0.3305(3) 0.5431(4) 0.5589(4)
C30 C 0.2883(3) 0.5934(3) 0.5183(3)
C31 C 0.1361(3) 0.6055(4) 0.4323(3)
C32 C 0.1087(3) 0.6517(4) 0.3787(3)
C33 C 0.0718(4) 0.6064(5) 0.3301(3)
C34 C 0.0639(3) 0.5153(5) 0.3332(3)
C35 C 0.0908(3) 0.4681(4) 0.3850(3)
C36 C 0.1275(3) 0.5120(4) 0.4345(3)
C37 C 0.32723(19) 0.9348(3) 0.4054(3)
C38 C 0.3459(2) 1.0250(3) 0.4148(2)
C39 C 0.3771(2) 1.0718(3) 0.3636(2)
C40 C 0.3892(2) 1.0280(3) 0.3037(2)
C41 C 0.3702(2) 0.9388(3) 0.2950(2)
C42 C 0.3389(2) 0.8903(3) 0.3454(2)
C43 C 0.3325(3) 1.0723(3) 0.4811(2)
C44 C 0.3918(3) 1.0626(3) 0.5298(2)
C45 C 0.4587(3) 1.0690(4) 0.5112(3)
C46 C 0.5110(4) 1.0662(5) 0.5585(4)
C47 C 0.4954(6) 1.0539(6) 0.6240(4)
C48 C 0.4296(7) 1.0448(8) 0.6419(4)
C49 C 0.3782(5) 1.0507(6) 0.5957(3)
C50 C 0.3115(2) 1.1704(3) 0.4698(2)
C51 C 0.3556(3) 1.2416(4) 0.4802(3)
C52 C 0.3346(3) 1.3303(4) 0.4693(3)
C53 C 0.2710(3) 1.3492(4) 0.4491(3)
C54 C 0.2256(4) 1.2777(5) 0.4367(4)
C55 C 0.2464(3) 1.1891(4) 0.4493(3)
C56 C 0.4335(4) 1.1601(4) 0.2529(3)
C57 C 0.3160(3) 0.7930(3) 0.3342(2)
C58 C 0.3672(3) 0.7224(3) 0.3595(2)
C59 C 0.3500(3) 0.6310(4) 0.3516(3)
C60 C 0.3930(4) 0.5644(4) 0.3733(3)
C61 C 0.4546(3) 0.5859(4) 0.4047(4)
C62 C 0.4716(3) 0.6764(4) 0.4125(3)
C63 C 0.4281(3) 0.7436(3) 0.3906(2)
C64 C 0.2979(3) 0.7764(3) 0.2613(3)
C65 C 0.2317(4) 0.7853(4) 0.2395(4)
C66 C 0.2150(5) 0.7732(5) 0.1734(5)
C67 C 0.2636(7) 0.7550(5) 0.1291(5)
C68 C 0.3307(5) 0.7455(4) 0.1482(3)
C69 C 0.3479(4) 0.7545(4) 0.2151(3)
H1 H 0.27988 0.78597 0.59287
H2 H 0.37181 0.84468 0.52096
H3 H 0.0101 0.86737 0.6252
H4 H 0.04595 0.63107 0.52949
H5 H 0.1631 0.97438 0.5692
H6 H 0.14425 0.81728 0.69403
H7 H 0.21071 0.80944 0.79071
H8 H 0.28933 0.92142 0.81445
H9 H 0.2926 1.0508 0.74968
H10 H 0.22113 1.0642 0.65839
H11 H 0.07403 1.05199 0.51124
H12 H -0.00473 1.167 0.51563
H13 H -0.05695 1.20251 0.61374
H14 H -0.02356 1.13794 0.71137
H15 H 0.06199 1.01979 0.71104
H16 H -0.10231 0.80583 0.62666
H17 H -0.05452 0.76777 0.68475
H18 H -0.1201 0.71151 0.6612
H19 H 0.20612 0.69992 0.46063
H20 H 0.14578 0.56805 0.59821
H21 H 0.21681 0.47992 0.66574
H22 H 0.33277 0.46602 0.64138
H23 H 0.37791 0.53777 0.549
H24 H 0.30718 0.62234 0.48044
H25 H 0.1153 0.71498 0.37521
H26 H 0.05208 0.63922 0.29443
H27 H 0.03947 0.48458 0.29926
H28 H 0.08442 0.40463 0.38731
H29 H 0.14683 0.47827 0.46991
H30 H 0.39012 1.13303 0.36934
H31 H 0.37882 0.91018 0.2537
H32 H 0.29219 1.04143 0.50162
H33 H 0.46994 1.07542 0.46563
H34 H 0.55736 1.07279 0.54521
H35 H 0.53065 1.05187 0.65641
H36 H 0.41847 1.03419 0.68713
H37 H 0.3319 1.04631 0.60985
H38 H 0.40091 1.23012 0.49503
H39 H 0.36613 1.37813 0.47635
H40 H 0.25677 1.40995 0.44312
H41 H 0.18107 1.28941 0.41994
H42 H 0.21468 1.14116 0.44345
H43 H 0.46635 1.17111 0.2888
H44 H 0.3912 1.19353 0.26176
H45 H 0.45319 1.18032 0.21076
H46 H 0.27286 0.78441 0.36012
H47 H 0.30792 0.61524 0.33089
H48 H 0.3808 0.50297 0.36701
H49 H 0.48423 0.53983 0.42031
H50 H 0.51363 0.69217 0.43311
H51 H 0.44025 0.80502 0.397
H52 H 0.19666 0.79999 0.27036
H53 H 0.16865 0.77781 0.15963
H54 H 0.25166 0.74862 0.0837
H55 H 0.36506 0.73289 0.11622
H56 H 0.39386 0.74554 0.22894
O3 O 0.5869(7) 0.2662(10) 0.3282(8)
C70 C 0.5358(14) 0.3848(18) 0.3220(16)
C71 C 0.5992(6) 0.3374(9) 0.3147(6)
C72 C 0.6548(9) 0.3624(14) 0.2875(10)
H57 H 0.5084 0.35621 0.35681
H58 H 0.51059 0.38306 0.27998
H59 H 0.54504 0.44769 0.33408
H60 H 0.6722 0.31382 0.25916
H61 H 0.68874 0.37633 0.32184
H62 H 0.64641 0.41627 0.26056
loop_
_geom_bond_atom_site_label_1
_geom_bond_atom_site_label_2
_geom_bond_site_symmetry_1
_geom_bond_site_symmetry_2
Se1 C1 1_555 1_555
O1 C7 1_555 1_555
O2 C40 1_555 1_555
N1 C1 1_555 1_555
N2 C1 1_555 1_555
C2 N1 1_555 1_555
C3 N2 1_555 1_555
C4 N1 1_555 1_555
C5 C4 1_555 1_555
C6 C5 1_555 1_555
C7 C6 1_555 1_555
C8 C7 1_555 1_555
C9 C4 1_555 1_555
C10 C5 1_555 1_555
C11 C10 1_555 1_555
C12 C11 1_555 1_555
C13 C12 1_555 1_555
C14 C13 1_555 1_555
C15 C14 1_555 1_555
C16 C11 1_555 1_555
C17 C10 1_555 1_555
C18 C17 1_555 1_555
C19 C18 1_555 1_555
C20 C19 1_555 1_555
C21 C20 1_555 1_555
C22 C17 1_555 1_555
C23 O1 1_555 1_555
C24 C9 1_555 1_555
C25 C24 1_555 1_555
C26 C25 1_555 1_555
C27 C26 1_555 1_555
C28 C27 1_555 1_555
C29 C28 1_555 1_555
C30 C25 1_555 1_555
C31 C24 1_555 1_555
C32 C31 1_555 1_555
C33 C32 1_555 1_555
C34 C33 1_555 1_555
C35 C34 1_555 1_555
C36 C31 1_555 1_555
C37 N2 1_555 1_555
C38 C37 1_555 1_555
C39 C38 1_555 1_555
C40 C39 1_555 1_555
C41 C40 1_555 1_555
C42 C37 1_555 1_555
C43 C38 1_555 1_555
C44 C43 1_555 1_555
C45 C44 1_555 1_555
C46 C45 1_555 1_555
C47 C46 1_555 1_555
C48 C47 1_555 1_555
C49 C44 1_555 1_555
C50 C43 1_555 1_555
C51 C50 1_555 1_555
C52 C51 1_555 1_555
C53 C52 1_555 1_555
C54 C53 1_555 1_555
C55 C50 1_555 1_555
C56 O2 1_555 1_555
C57 C42 1_555 1_555
C58 C57 1_555 1_555
C59 C58 1_555 1_555
C60 C59 1_555 1_555
C61 C60 1_555 1_555
C62 C61 1_555 1_555
C63 C58 1_555 1_555
C64 C57 1_555 1_555
C65 C64 1_555 1_555
C66 C65 1_555 1_555
C67 C66 1_555 1_555
C68 C67 1_555 1_555
C69 C64 1_555 1_555
H1 C2 1_555 1_555
H2 C3 1_555 1_555
H3 C6 1_555 1_555
H4 C8 1_555 1_555
H5 C10 1_555 1_555
H6 C12 1_555 1_555
H7 C13 1_555 1_555
H8 C14 1_555 1_555
H9 C15 1_555 1_555
H10 C16 1_555 1_555
H11 C18 1_555 1_555
H12 C19 1_555 1_555
H13 C20 1_555 1_555
H14 C21 1_555 1_555
H15 C22 1_555 1_555
H16 C23 1_555 1_555
H17 C23 1_555 1_555
H18 C23 1_555 1_555
H19 C24 1_555 1_555
H20 C26 1_555 1_555
H21 C27 1_555 1_555
H22 C28 1_555 1_555
H23 C29 1_555 1_555
H24 C30 1_555 1_555
H25 C32 1_555 1_555
H26 C33 1_555 1_555
H27 C34 1_555 1_555
H28 C35 1_555 1_555
H29 C36 1_555 1_555
H30 C39 1_555 1_555
H31 C41 1_555 1_555
H32 C43 1_555 1_555
H33 C45 1_555 1_555
H34 C46 1_555 1_555
H35 C47 1_555 1_555
H36 C48 1_555 1_555
H37 C49 1_555 1_555
H38 C51 1_555 1_555
H39 C52 1_555 1_555
H40 C53 1_555 1_555
H41 C54 1_555 1_555
H42 C55 1_555 1_555
H43 C56 1_555 1_555
H44 C56 1_555 1_555
H45 C56 1_555 1_555
H46 C57 1_555 1_555
H47 C59 1_555 1_555
H48 C60 1_555 1_555
H49 C61 1_555 1_555
H50 C62 1_555 1_555
H51 C63 1_555 1_555
H52 C65 1_555 1_555
H53 C66 1_555 1_555
H54 C67 1_555 1_555
H55 C68 1_555 1_555
H56 C69 1_555 1_555
O3 C71 1_555 1_555
C70 C71 1_555 1_555
C71 C72 1_555 1_555
C72 H60 1_555 1_555
H57 C70 1_555 1_555
H58 C70 1_555 1_555
H59 C70 1_555 1_555
H61 C72 1_555 1_555
H62 C72 1_555 1_555
C2 C3 1_555 1_555
C8 C9 1_555 1_555
C15 C16 1_555 1_555
C21 C22 1_555 1_555
C29 C30 1_555 1_555
C35 C36 1_555 1_555
C41 C42 1_555 1_555
C48 C49 1_555 1_555
C54 C55 1_555 1_555
C62 C63 1_555 1_555
C68 C69 1_555 1_555

#END
