
#######################################################################
#
#                 Cambridge Crystallographic Data Centre
#                                CCDC 
#
#######################################################################
#
# If this CIF has been generated from an entry in the Cambridge 
# Structural Database, then it will include bibliographic, chemical, 
# crystal, experimental, refinement or atomic coordinate data resulting 
# from the CCDC's data processing and validation procedures.
#
#######################################################################

data_BOJCIM
_chemical_formula_moiety         'C11 H10 N3 O2 1+,Cl1 1-,2(H2 O1)'
_chemical_name_systematic        
'4-(2-Pyridylazo)-resorcinol hydrochloride dihydrate'
_symmetry_cell_setting           monoclinic
_symmetry_space_group_name_H-M   'P 21/c'
_symmetry_Int_Tables_number      14
_space_group_name_Hall           '-P 2ybc'
loop_
_symmetry_equiv_pos_site_id
_symmetry_equiv_pos_as_xyz
1 x,y,z
2 -x,1/2+y,1/2-z
3 -x,-y,-z
4 x,1/2-y,1/2+z
_cell_length_a                   11.339(5)
_cell_length_b                   6.835(3)
_cell_length_c                   18.170(8)
_cell_angle_alpha                90
_cell_angle_beta                 102.76(4)
_cell_angle_gamma                90
_cell_volume                     1373.44
_cell_formula_units_Z            4
loop_
_atom_site_label
_atom_site_type_symbol
_atom_site_fract_x
_atom_site_fract_y
_atom_site_fract_z
C1 C -0.09880 0.34660 0.20820
C2 C -0.21420 0.34170 0.21890
C3 C -0.31300 0.34250 0.16180
C4 C -0.29640 0.34500 0.08780
C5 C -0.18100 0.33900 0.07280
C6 C -0.08630 0.35960 0.13460
C7 C 0.10500 0.33860 0.38360
C8 C 0.10150 0.32860 0.45810
C9 C 0.20510 0.32980 0.51220
C10 C 0.31480 0.33510 0.49070
C11 C 0.31780 0.33920 0.41650
N1 N 0.21310 0.34260 0.36280
N2 N -0.00890 0.34320 0.32950
N3 N 0.00870 0.34610 0.26440
O1 O -0.39450 0.33900 0.02870
O2 O 0.02520 0.33990 0.11990
H1 H 0.37900 0.35600 0.38800
H2 H 0.41200 0.30600 0.52100
H3 H 0.19000 0.38000 0.57200
H4 H 0.05000 0.35600 0.47700
H5 H -0.23900 0.35400 0.27200
H6 H -0.39700 0.39400 0.16700
H7 H -0.16500 0.32100 0.02000
H8 H -0.40500 0.36700 -0.01400
H9 H 0.04300 0.43200 0.12200
H12 H 0.22200 0.34800 0.30200
Cl1 Cl 0.29800 0.34380 0.21260
O3 O 0.54390 0.48600 0.31990
H10 H 0.47000 0.38900 0.29100
H11 H 0.58900 0.59100 0.34200
O4 O 0.34000 0.68320 0.69940
loop_
_geom_bond_atom_site_label_1
_geom_bond_atom_site_label_2
_geom_bond_site_symmetry_1
_geom_bond_site_symmetry_2
C1 C2 1_555 1_555
C2 C3 1_555 1_555
C3 C4 1_555 1_555
C4 C5 1_555 1_555
C5 C6 1_555 1_555
C6 C1 1_555 1_555
C7 C8 1_555 1_555
C8 C9 1_555 1_555
C9 C10 1_555 1_555
C10 C11 1_555 1_555
C11 N1 1_555 1_555
N1 C7 1_555 1_555
N2 C7 1_555 1_555
N3 C1 1_555 1_555
O1 C4 1_555 1_555
O2 C6 1_555 1_555
O3 H10 1_555 1_555
H1 C11 1_555 1_555
H2 C10 1_555 1_555
H3 C9 1_555 1_555
H4 C8 1_555 1_555
H5 C2 1_555 1_555
H6 C3 1_555 1_555
H7 C5 1_555 1_555
H8 O1 1_555 1_555
H9 O2 1_555 1_555
H11 O3 1_555 1_555
H12 N1 1_555 1_555
N2 N3 1_555 1_555

#END
