
#######################################################################
#
#                 Cambridge Crystallographic Data Centre
#                                CCDC 
#
#######################################################################
#
# If this CIF has been generated from an entry in the Cambridge 
# Structural Database, then it will include bibliographic, chemical, 
# crystal, experimental, refinement or atomic coordinate data resulting 
# from the CCDC's data processing and validation procedures.
#
#######################################################################

data_BOJVUS
_chemical_formula_moiety         'C12 H16 O2'
_chemical_name_systematic        
(1RS,3RS,5SR,7SR)-trans-4,4,8,8,tetramethyltricyclo[5.1.0.0^3,5^]octane-2,6-dione
_symmetry_cell_setting           monoclinic
_symmetry_space_group_name_H-M   'P 21/c'
_symmetry_Int_Tables_number      14
_space_group_name_Hall           '-P 2ybc'
loop_
_symmetry_equiv_pos_site_id
_symmetry_equiv_pos_as_xyz
1 x,y,z
2 -x,1/2+y,1/2-z
3 -x,-y,-z
4 x,1/2-y,1/2+z
_cell_length_a                   7.5531(5)
_cell_length_b                   6.5635(4)
_cell_length_c                   10.7968(8)
_cell_angle_alpha                90
_cell_angle_beta                 103.028(4)
_cell_angle_gamma                90
_cell_volume                     521.472
_exptl_crystal_colour            colorless
_exptl_crystal_description       block
_chemical_melting_point          '155-158 deg.C'
_cell_formula_units_Z            2
_exptl_crystal_recrystallization_method dichloromethane/hexane
loop_
_atom_site_label
_atom_site_type_symbol
_atom_site_fract_x
_atom_site_fract_y
_atom_site_fract_z
C1 C 1.13227(17) 0.08909(19) 0.42854(13)
C2 C 0.95350(17) 0.0090(2) 0.35825(12)
H1 H 0.9530 -0.0566 0.2746
C3 C 1.18026(17) 0.07932(19) 0.56931(12)
H2 H 1.2565 0.1946 0.6125
C4 C 0.78196(17) 0.12682(19) 0.36504(12)
C5 C 0.63219(18) 0.1281(2) 0.24520(13)
H3 H 0.5139 0.1347 0.2680
H4 H 0.6391 0.0034 0.1966
H5 H 0.6467 0.2470 0.1935
C6 C 0.79138(19) 0.3226(2) 0.44035(13)
H6 H 0.8178 0.4365 0.3887
H7 H 0.8878 0.3118 0.5178
H8 H 0.6747 0.3461 0.4633
O1 O 1.23848(13) 0.16257(16) 0.36988(10)
C1B C 0.86773(17) -0.08909(19) 0.57146(13)
C2B C 1.04650(17) -0.0090(2) 0.64175(12)
H1B H 1.0470 0.0566 0.7254
C3B C 0.81974(17) -0.07932(19) 0.43069(12)
H2B H 0.7435 -0.1946 0.3875
C4B C 1.21804(17) -0.12682(19) 0.63496(12)
C5B C 1.36781(18) -0.1281(2) 0.75480(13)
H3B H 1.4861 -0.1347 0.7320
H4B H 1.3609 -0.0034 0.8034
H5B H 1.3533 -0.2470 0.8065
C6B C 1.20862(19) -0.3226(2) 0.55965(13)
H6B H 1.1822 -0.4365 0.6113
H7B H 1.1122 -0.3118 0.4822
H8B H 1.3253 -0.3461 0.5367
O1B O 0.76152(13) -0.16257(16) 0.63012(10)
loop_
_geom_bond_atom_site_label_1
_geom_bond_atom_site_label_2
_geom_bond_site_symmetry_1
_geom_bond_site_symmetry_2
C1 C2 1_555 1_555
C2 H1 1_555 1_555
C3 C1 1_555 1_555
H2 C3 1_555 1_555
C4 C2 1_555 1_555
C5 C4 1_555 1_555
H3 C5 1_555 1_555
H4 C5 1_555 1_555
H5 C5 1_555 1_555
C6 C4 1_555 1_555
H6 C6 1_555 1_555
H7 C6 1_555 1_555
H8 C6 1_555 1_555
O1 C1 1_555 1_555
C1B C2B 1_555 1_555
C2B C3 1_555 1_555
H1B C2B 1_555 1_555
C3B C2 1_555 1_555
H2B C3B 1_555 1_555
C4B C3 1_555 1_555
C5B C4B 1_555 1_555
H3B C5B 1_555 1_555
H4B C5B 1_555 1_555
H5B C5B 1_555 1_555
C6B C4B 1_555 1_555
H6B C6B 1_555 1_555
H7B C6B 1_555 1_555
H8B C6B 1_555 1_555
O1B C1B 1_555 1_555
C4 C3B 1_555 1_555
C1B C3B 1_555 1_555
C2B C4B 1_555 1_555

#END
