
#######################################################################
#
#                 Cambridge Crystallographic Data Centre
#                                CCDC 
#
#######################################################################
#
# If this CIF has been generated from an entry in the Cambridge 
# Structural Database, then it will include bibliographic, chemical, 
# crystal, experimental, refinement or atomic coordinate data resulting 
# from the CCDC's data processing and validation procedures.
#
#######################################################################

data_BOJXIJ
_chemical_formula_moiety         'C9 H6 I1 N1 O1'
_chemical_name_systematic        '8-iodoquinoline 1-oxide'
_symmetry_cell_setting           monoclinic
_symmetry_space_group_name_H-M   'P 21/n'
_symmetry_Int_Tables_number      14
_space_group_name_Hall           '-P 2yn'
loop_
_symmetry_equiv_pos_site_id
_symmetry_equiv_pos_as_xyz
1 x,y,z
2 1/2-x,1/2+y,1/2-z
3 -x,-y,-z
4 1/2+x,1/2-y,1/2+z
_cell_length_a                   7.2476(6)
_cell_length_b                   8.2748(7)
_cell_length_c                   14.1627(12)
_cell_angle_alpha                90
_cell_angle_beta                 96.587(2)
_cell_angle_gamma                90
_cell_volume                     843.765
_exptl_crystal_colour            'light brown'
_exptl_crystal_description       block
_cell_formula_units_Z            4
loop_
_atom_site_label
_atom_site_type_symbol
_atom_site_fract_x
_atom_site_fract_y
_atom_site_fract_z
N1 N 0.3318(7) 1.0469(6) 0.5969(3)
O1 O 0.3674(7) 0.9801(5) 0.6806(3)
C1 C 0.3722(9) 1.2040(8) 0.5869(5)
H1 H 0.4181 1.2650 0.6414
C2 C 0.3483(9) 1.2791(8) 0.4987(5)
H2 H 0.3770 1.3906 0.4937
C3 C 0.2842(9) 1.1945(8) 0.4191(5)
H3 H 0.2744 1.2442 0.3583
C4 C 0.2324(8) 1.0313(8) 0.4289(4)
C5 C 0.1600(10) 0.9415(9) 0.3481(4)
H4 H 0.1464 0.9912 0.2873
C6 C 0.1089(9) 0.7824(9) 0.3572(4)
H5 H 0.0594 0.7224 0.3030
C7 C 0.1306(8) 0.7099(8) 0.4471(4)
H6 H 0.0955 0.6000 0.4523
C8 C 0.2002(8) 0.7908(7) 0.5277(4)
C9 C 0.2554(8) 0.9544(7) 0.5193(4)
I1 I 0.19643(6) 0.65798(5) 0.65514(3)
loop_
_geom_bond_atom_site_label_1
_geom_bond_atom_site_label_2
_geom_bond_site_symmetry_1
_geom_bond_site_symmetry_2
N1 O1 1_555 1_555
C1 N1 1_555 1_555
H1 C1 1_555 1_555
C2 C1 1_555 1_555
H2 C2 1_555 1_555
C3 C2 1_555 1_555
H3 C3 1_555 1_555
C4 C3 1_555 1_555
C5 C4 1_555 1_555
H4 C5 1_555 1_555
C6 C5 1_555 1_555
H5 C6 1_555 1_555
C7 C6 1_555 1_555
H6 C7 1_555 1_555
C8 C7 1_555 1_555
C9 N1 1_555 1_555
I1 C8 1_555 1_555
C4 C9 1_555 1_555
C8 C9 1_555 1_555

#END
