
#######################################################################
#
#                 Cambridge Crystallographic Data Centre
#                                CCDC 
#
#######################################################################
#
# If this CIF has been generated from an entry in the Cambridge 
# Structural Database, then it will include bibliographic, chemical, 
# crystal, experimental, refinement or atomic coordinate data resulting 
# from the CCDC's data processing and validation procedures.
#
#######################################################################

data_BOJXOP
_chemical_formula_moiety         'C20 H16 N2 O3 S1'
_chemical_name_systematic        
4-methyl-N-(5-oxidophenanthridin-4-yl)benzenesulfonamide
_symmetry_cell_setting           triclinic
_symmetry_space_group_name_H-M   'P -1'
_symmetry_Int_Tables_number      2
_space_group_name_Hall           '-P 1'
loop_
_symmetry_equiv_pos_site_id
_symmetry_equiv_pos_as_xyz
1 x,y,z
2 -x,-y,-z
_cell_length_a                   6.9399(5)
_cell_length_b                   7.6809(5)
_cell_length_c                   16.4129(11)
_cell_angle_alpha                85.534(2)
_cell_angle_beta                 82.6980(10)
_cell_angle_gamma                73.5320(10)
_cell_volume                     831.385
_exptl_crystal_colour            'light yellow'
_exptl_crystal_description       block
_cell_formula_units_Z            2
loop_
_atom_site_label
_atom_site_type_symbol
_atom_site_fract_x
_atom_site_fract_y
_atom_site_fract_z
C1 C 0.1728(6) 0.1320(5) 0.1965(2)
C2 C 0.1918(6) -0.0196(5) 0.2483(3)
H1 H 0.1722 -0.0068 0.3062
C3 C 0.2389(7) -0.1907(6) 0.2173(3)
H2 H 0.2527 -0.2939 0.2543
C4 C 0.2663(6) -0.2143(5) 0.1343(3)
H3 H 0.2974 -0.3330 0.1143
C5 C 0.2482(5) -0.0621(5) 0.0782(2)
C6 C 0.2714(5) -0.0830(5) -0.0104(2)
C7 C 0.3162(6) -0.2503(5) -0.0475(3)
H4 H 0.3341 -0.3597 -0.0144
C8 C 0.3342(6) -0.2562(6) -0.1318(3)
H5 H 0.3612 -0.3701 -0.1561
C9 C 0.3138(6) -0.0997(6) -0.1820(3)
H6 H 0.3312 -0.1074 -0.2401
C10 C 0.2686(6) 0.0658(6) -0.1477(3)
H7 H 0.2505 0.1737 -0.1818
C11 C 0.2492(5) 0.0755(5) -0.0616(2)
C12 C 0.2045(6) 0.2452(5) -0.0255(2)
H8 H 0.1880 0.3515 -0.0606
N1 N 0.1845(5) 0.2636(4) 0.0542(2)
O1 O 0.1466(5) 0.4305(3) 0.08131(18)
C13 C 0.2014(5) 0.1112(5) 0.1110(2)
N2 N 0.1262(5) 0.3077(4) 0.2274(2)
H9 H 0.1833 0.3856 0.1992
S1 S -0.02213(15) 0.37947(15) 0.30951(6)
O2 O -0.1795(4) 0.2904(5) 0.32550(19)
O3 O -0.0755(5) 0.5736(4) 0.29752(19)
C14 C 0.1278(6) 0.3164(5) 0.3921(2)
C15 C 0.0540(6) 0.2402(6) 0.4636(3)
H10 H -0.0731 0.2146 0.4677
C16 C 0.1693(7) 0.2009(6) 0.5303(3)
H11 H 0.1180 0.1501 0.5800
C17 C 0.3551(6) 0.2342(6) 0.5253(3)
C18 C 0.4236(6) 0.3104(6) 0.4525(3)
H12 H 0.5506 0.3363 0.4482
C19 C 0.3143(6) 0.3502(6) 0.3859(3)
H13 H 0.3666 0.4005 0.3361
C20 C 0.4783(7) 0.1890(6) 0.5971(3)
H14 H 0.4363 0.2903 0.6341
H15 H 0.6218 0.1680 0.5771
H16 H 0.4569 0.0791 0.6268
loop_
_geom_bond_atom_site_label_1
_geom_bond_atom_site_label_2
_geom_bond_site_symmetry_1
_geom_bond_site_symmetry_2
C1 C2 1_555 1_555
C2 H1 1_555 1_555
C3 C2 1_555 1_555
H2 C3 1_555 1_555
C4 C3 1_555 1_555
H3 C4 1_555 1_555
C5 C4 1_555 1_555
C6 C5 1_555 1_555
C7 C6 1_555 1_555
H4 C7 1_555 1_555
C8 C7 1_555 1_555
H5 C8 1_555 1_555
C9 C8 1_555 1_555
H6 C9 1_555 1_555
C10 C9 1_555 1_555
H7 C10 1_555 1_555
C11 C6 1_555 1_555
C12 C11 1_555 1_555
H8 C12 1_555 1_555
N1 C12 1_555 1_555
O1 N1 1_555 1_555
C13 C1 1_555 1_555
N2 C1 1_555 1_555
H9 N2 1_555 1_555
S1 N2 1_555 1_555
O2 S1 1_555 1_555
O3 S1 1_555 1_555
C14 S1 1_555 1_555
C15 C14 1_555 1_555
H10 C15 1_555 1_555
C16 C15 1_555 1_555
H11 C16 1_555 1_555
C17 C16 1_555 1_555
C18 C17 1_555 1_555
H12 C18 1_555 1_555
C19 C14 1_555 1_555
H13 C19 1_555 1_555
C20 C17 1_555 1_555
H14 C20 1_555 1_555
H15 C20 1_555 1_555
H16 C20 1_555 1_555
C5 C13 1_555 1_555
C10 C11 1_555 1_555
N1 C13 1_555 1_555
C18 C19 1_555 1_555

#END
