
#######################################################################
#
#                 Cambridge Crystallographic Data Centre
#                                CCDC 
#
#######################################################################
#
# If this CIF has been generated from an entry in the Cambridge 
# Structural Database, then it will include bibliographic, chemical, 
# crystal, experimental, refinement or atomic coordinate data resulting 
# from the CCDC's data processing and validation procedures.
#
#######################################################################

data_BOJXUV
_chemical_formula_moiety         'C26 H20 N2 O3 S1'
_chemical_name_systematic        
4-methyl-N-(2-(1-naphthyl)-1-oxidoquinolin-8-yl)benzenesulfonamide
_symmetry_cell_setting           monoclinic
_symmetry_space_group_name_H-M   'P 21/c'
_symmetry_Int_Tables_number      14
_space_group_name_Hall           '-P 2ybc'
loop_
_symmetry_equiv_pos_site_id
_symmetry_equiv_pos_as_xyz
1 x,y,z
2 -x,1/2+y,1/2-z
3 -x,-y,-z
4 x,1/2-y,1/2+z
_cell_length_a                   13.4902(9)
_cell_length_b                   7.8876(5)
_cell_length_c                   20.8018(14)
_cell_angle_alpha                90
_cell_angle_beta                 96.0890(10)
_cell_angle_gamma                90
_cell_volume                     2200.93
_exptl_crystal_colour            orange
_exptl_crystal_description       needle
_cell_formula_units_Z            4
loop_
_atom_site_label
_atom_site_type_symbol
_atom_site_fract_x
_atom_site_fract_y
_atom_site_fract_z
C1 C 0.36550(18) 0.6530(3) 1.05546(13)
C2 C 0.37403(19) 0.5088(4) 1.09333(14)
H1 H 0.3738 0.5191 1.1388
C3 C 0.3829(2) 0.3481(3) 1.06628(16)
H2 H 0.3871 0.2509 1.0934
C4 C 0.38563(19) 0.3294(3) 1.00166(15)
H3 H 0.3936 0.2196 0.9841
C5 C 0.37671(17) 0.4712(3) 0.96045(14)
C6 C 0.3756(2) 0.4547(3) 0.89292(15)
H4 H 0.3821 0.3458 0.8743
C7 C 0.3654(2) 0.5938(3) 0.85424(14)
H5 H 0.3639 0.5808 0.8087
C8 C 0.35719(18) 0.7561(3) 0.88051(12)
N1 N 0.35722(15) 0.7741(2) 0.94500(11)
O1 O 0.34833(15) 0.92936(19) 0.96763(9)
C9 C 0.36645(17) 0.6350(3) 0.98742(13)
N2 N 0.35694(16) 0.8172(3) 1.08238(10)
H6 H 0.3939 0.9003 1.0698
S1 S 0.28011(5) 0.85495(8) 1.13606(3)
O2 O 0.31047(16) 0.7658(3) 1.19445(9)
O3 O 0.27322(17) 1.0351(2) 1.13775(10)
C10 C 0.16360(19) 0.7736(3) 1.10380(15)
C11 C 0.1176(2) 0.6499(4) 1.13726(18)
H7 H 0.1499 0.6032 1.1761
C12 C 0.0242(3) 0.5964(5) 1.1131(2)
H8 H -0.0074 0.5110 1.1358
C13 C -0.0243(3) 0.6600(6) 1.0586(3)
C14 C 0.0246(3) 0.7811(5) 1.0239(2)
H9 H -0.0075 0.8242 0.9844
C15 C 0.1188(3) 0.8387(4) 1.04641(18)
H10 H 0.1518 0.9209 1.0229
C16 C -0.1313(3) 0.6117(7) 1.0333(3)
H11 H -0.1414 0.4902 1.0401
H12 H -0.1429 0.6372 0.9870
H13 H -0.1781 0.6767 1.0565
C17 C 0.3499(2) 0.9116(3) 0.83983(12)
C18 C 0.4340(2) 0.9758(3) 0.81804(13)
H14 H 0.4965 0.9245 0.8314
C19 C 0.4304(2) 1.1161(4) 0.77625(14)
H15 H 0.4901 1.1603 0.7625
C20 C 0.3407(2) 1.1889(3) 0.75533(14)
H16 H 0.3384 1.2823 0.7264
C21 C 0.2504(2) 1.1251(3) 0.77684(13)
C22 C 0.1577(2) 1.1997(4) 0.75642(16)
H17 H 0.1543 1.2933 0.7276
C23 C 0.0732(3) 1.1386(4) 0.77773(18)
H18 H 0.0111 1.1898 0.7634
C24 C 0.0759(2) 1.0009(4) 0.82059(17)
H19 H 0.0158 0.9597 0.8349
C25 C 0.1651(2) 0.9255(4) 0.84197(16)
H20 H 0.1665 0.8328 0.8712
C26 C 0.2561(2) 0.9862(3) 0.82036(13)
loop_
_geom_bond_atom_site_label_1
_geom_bond_atom_site_label_2
_geom_bond_site_symmetry_1
_geom_bond_site_symmetry_2
C1 C2 1_555 1_555
C2 H1 1_555 1_555
C3 C2 1_555 1_555
H2 C3 1_555 1_555
C4 C3 1_555 1_555
H3 C4 1_555 1_555
C5 C4 1_555 1_555
C6 C5 1_555 1_555
H4 C6 1_555 1_555
C7 C6 1_555 1_555
H5 C7 1_555 1_555
C8 C7 1_555 1_555
N1 C8 1_555 1_555
O1 N1 1_555 1_555
C9 C1 1_555 1_555
N2 C1 1_555 1_555
H6 N2 1_555 1_555
S1 N2 1_555 1_555
O2 S1 1_555 1_555
O3 S1 1_555 1_555
C10 S1 1_555 1_555
C11 C10 1_555 1_555
H7 C11 1_555 1_555
C12 C11 1_555 1_555
H8 C12 1_555 1_555
C13 C12 1_555 1_555
C14 C13 1_555 1_555
H9 C14 1_555 1_555
C15 C10 1_555 1_555
H10 C15 1_555 1_555
C16 C13 1_555 1_555
H11 C16 1_555 1_555
H12 C16 1_555 1_555
H13 C16 1_555 1_555
C17 C8 1_555 1_555
C18 C17 1_555 1_555
H14 C18 1_555 1_555
C19 C18 1_555 1_555
H15 C19 1_555 1_555
C20 C19 1_555 1_555
H16 C20 1_555 1_555
C21 C20 1_555 1_555
C22 C21 1_555 1_555
H17 C22 1_555 1_555
C23 C22 1_555 1_555
H18 C23 1_555 1_555
C24 C23 1_555 1_555
H19 C24 1_555 1_555
C25 C24 1_555 1_555
H20 C25 1_555 1_555
C26 C17 1_555 1_555
C5 C9 1_555 1_555
N1 C9 1_555 1_555
C14 C15 1_555 1_555
C21 C26 1_555 1_555
C25 C26 1_555 1_555

#END
