
#######################################################################
#
#                 Cambridge Crystallographic Data Centre
#                                CCDC 
#
#######################################################################
#
# If this CIF has been generated from an entry in the Cambridge 
# Structural Database, then it will include bibliographic, chemical, 
# crystal, experimental, refinement or atomic coordinate data resulting 
# from the CCDC's data processing and validation procedures.
#
#######################################################################

data_BOLKIX
_chemical_formula_moiety         'C20 H23 N1 O1'
_chemical_name_systematic        cis-3,5-Dibenzyl-1-methylpiperidin-4-one
_symmetry_cell_setting           monoclinic
_symmetry_space_group_name_H-M   'P 21/n'
_symmetry_Int_Tables_number      14
_space_group_name_Hall           '-P 2yn'
loop_
_symmetry_equiv_pos_site_id
_symmetry_equiv_pos_as_xyz
1 x,y,z
2 1/2-x,1/2+y,1/2-z
3 -x,-y,-z
4 1/2+x,1/2-y,1/2+z
_cell_length_a                   9.5059(7)
_cell_length_b                   12.3970(9)
_cell_length_c                   14.7096(11)
_cell_angle_alpha                90
_cell_angle_beta                 102.928(2)
_cell_angle_gamma                90
_cell_volume                     1689.51
_exptl_crystal_colour            colorless
_exptl_crystal_description       needles
_cell_formula_units_Z            4
_exptl_crystal_recrystallization_method 'diethyl ether'
loop_
_atom_site_label
_atom_site_type_symbol
_atom_site_fract_x
_atom_site_fract_y
_atom_site_fract_z
N1 N 0.14590(9) 0.37669(7) 1.05257(6)
O1 O 0.37487(8) 0.64176(6) 1.03171(5)
C1 C 0.20325(12) 0.44657(9) 1.13223(7)
H1 H 0.3055 0.4279 1.1587
H2 H 0.1483 0.4350 1.1812
C2 C 0.19225(11) 0.56554(8) 1.10233(7)
H3 H 0.0884 0.5807 1.0739
C3 C 0.27487(12) 0.57896(9) 1.02651(7)
C4 C 0.22713(12) 0.50328(9) 0.94505(7)
H4 H 0.1243 0.5205 0.9155
C5 C 0.23208(12) 0.38773(9) 0.98242(8)
H5 H 0.1950 0.3376 0.9302
H6 H 0.3334 0.3678 1.0103
C6 C 0.14111(14) 0.26414(9) 1.08133(8)
H7 H 0.1023 0.2193 1.0266
H8 H 0.0790 0.2578 1.1260
H9 H 0.2388 0.2398 1.1107
C7 C 0.31482(12) 0.51511(9) 0.87015(7)
H10 H 0.3275 0.5928 0.8586
H11 H 0.4118 0.4836 0.8938
C8 C 0.24581(12) 0.46133(9) 0.77911(8)
C9 C 0.12262(13) 0.50444(10) 0.72154(8)
H12 H 0.0805 0.5676 0.7406
C10 C 0.05978(15) 0.45702(12) 0.63665(9)
H13 H -0.0247 0.4875 0.5985
C11 C 0.11995(17) 0.36578(12) 0.60784(10)
H14 H 0.0770 0.3329 0.5499
C12 C 0.24242(16) 0.32262(11) 0.66337(11)
H15 H 0.2852 0.2603 0.6433
C13 C 0.30425(13) 0.36941(10) 0.74876(9)
H16 H 0.3880 0.3378 0.7870
C14 C 0.23891(12) 0.64290(9) 1.18469(7)
H17 H 0.2141 0.6109 1.2407
H18 H 0.3450 0.6520 1.1978
C15 C 0.16815(12) 0.75202(9) 1.16655(7)
C16 C 0.03687(13) 0.77080(10) 1.19026(8)
H19 H -0.0050 0.7158 1.2206
C17 C -0.03390(14) 0.86842(11) 1.17043(8)
H20 H -0.1238 0.8796 1.1870
C18 C 0.02525(15) 0.94939(11) 1.12686(8)
H21 H -0.0234 1.0164 1.1133
C19 C 0.15572(14) 0.93222(10) 1.10316(8)
H22 H 0.1973 0.9877 1.0731
C20 C 0.22632(13) 0.83485(9) 1.12296(8)
H23 H 0.3164 0.8243 1.1065
loop_
_geom_bond_atom_site_label_1
_geom_bond_atom_site_label_2
_geom_bond_site_symmetry_1
_geom_bond_site_symmetry_2
N1 C1 1_555 1_555
O1 C3 1_555 1_555
C1 H1 1_555 1_555
H2 C1 1_555 1_555
C2 C1 1_555 1_555
H3 C2 1_555 1_555
C3 C2 1_555 1_555
C4 C3 1_555 1_555
H4 C4 1_555 1_555
C5 N1 1_555 1_555
H5 C5 1_555 1_555
H6 C5 1_555 1_555
C6 N1 1_555 1_555
H7 C6 1_555 1_555
H8 C6 1_555 1_555
H9 C6 1_555 1_555
C7 C4 1_555 1_555
H10 C7 1_555 1_555
H11 C7 1_555 1_555
C8 C7 1_555 1_555
C9 C8 1_555 1_555
H12 C9 1_555 1_555
C10 C9 1_555 1_555
H13 C10 1_555 1_555
C11 C10 1_555 1_555
H14 C11 1_555 1_555
C12 C11 1_555 1_555
H15 C12 1_555 1_555
C13 C8 1_555 1_555
H16 C13 1_555 1_555
C14 C2 1_555 1_555
H17 C14 1_555 1_555
H18 C14 1_555 1_555
C15 C14 1_555 1_555
C16 C15 1_555 1_555
H19 C16 1_555 1_555
C17 C16 1_555 1_555
H20 C17 1_555 1_555
C18 C17 1_555 1_555
H21 C18 1_555 1_555
C19 C18 1_555 1_555
H22 C19 1_555 1_555
C20 C15 1_555 1_555
H23 C20 1_555 1_555
C4 C5 1_555 1_555
C12 C13 1_555 1_555
C19 C20 1_555 1_555

#END
