
#######################################################################
#
#                 Cambridge Crystallographic Data Centre
#                                CCDC 
#
#######################################################################
#
# If this CIF has been generated from an entry in the Cambridge 
# Structural Database, then it will include bibliographic, chemical, 
# crystal, experimental, refinement or atomic coordinate data resulting 
# from the CCDC's data processing and validation procedures.
#
#######################################################################

data_BOLMIZ
_chemical_name_common            Dibenzo(a,k)(3,8)phenanthroline
_chemical_formula_moiety         'C20 H12 N2'
_chemical_name_systematic        5,10-Diaza(5)helicene
_symmetry_cell_setting           monoclinic
_symmetry_space_group_name_H-M   'P 21/c'
_symmetry_Int_Tables_number      14
_space_group_name_Hall           '-P 2ybc'
loop_
_symmetry_equiv_pos_site_id
_symmetry_equiv_pos_as_xyz
1 x,y,z
2 -x,1/2+y,1/2-z
3 -x,-y,-z
4 x,1/2-y,1/2+z
_cell_length_a                   18.4176(19)
_cell_length_b                   13.8286(14)
_cell_length_c                   11.2744(12)
_cell_angle_alpha                90
_cell_angle_beta                 107.010(2)
_cell_angle_gamma                90
_cell_volume                     2745.86
_cell_formula_units_Z            8
_exptl_crystal_recrystallization_method dichloromethane
loop_
_atom_site_label
_atom_site_type_symbol
_atom_site_fract_x
_atom_site_fract_y
_atom_site_fract_z
C1 C -0.10720(9) -0.82945(11) 0.48243(15)
C2 C -0.13422(10) -0.91634(14) 0.42884(18)
C3 C -0.17335(10) -0.92091(17) 0.30254(19)
C4 C -0.18830(10) -0.83840(17) 0.23476(18)
C5 C -0.16535(9) -0.74728(14) 0.28916(15)
C6 C -0.11944(8) -0.74286(11) 0.41413(14)
C7 C -0.17995(10) -0.58340(19) 0.2768(2)
C8 C -0.13468(9) -0.56870(13) 0.40213(18)
C9 C -0.09521(8) -0.64835(11) 0.46787(15)
C10 C -0.13013(11) -0.47652(14) 0.4592(2)
C11 C -0.08878(11) -0.46436(13) 0.5783(2)
C12 C -0.04088(9) -0.53931(11) 0.64148(17)
C13 C -0.03816(8) -0.62897(10) 0.58381(14)
C14 C 0.00762(11) -0.52514(14) 0.76525(19)
C15 C 0.07488(9) -0.66116(11) 0.76029(14)
C16 C 0.02775(8) -0.68845(10) 0.64146(13)
C17 C 0.14284(9) -0.71118(13) 0.81531(15)
C18 C 0.16645(9) -0.78318(12) 0.75320(15)
C19 C 0.12267(9) -0.80788(11) 0.63406(15)
C20 C 0.05485(8) -0.76229(10) 0.57973(14)
N1 N -0.19271(8) -0.66564(15) 0.21915(15)
N2 N 0.06069(9) -0.58213(11) 0.82536(14)
H1 H -0.0820(9) -0.8260(10) 0.5699(15)
H2 H -0.1246(12) -0.9796(16) 0.479(2)
H3 H -0.1931(12) -0.9824(16) 0.265(2)
H4 H -0.2156(12) -0.8391(13) 0.152(2)
H5 H -0.2009(11) -0.5248(15) 0.2340(19)
H6 H -0.1590(11) -0.4292(15) 0.4051(19)
H7 H -0.0841(12) -0.4024(16) 0.6262(19)
H8 H -0.0013(10) -0.4664(14) 0.8056(18)
H9 H 0.1718(10) -0.6908(12) 0.8979(17)
H10 H 0.2137(12) -0.8153(13) 0.7926(18)
H11 H 0.1399(9) -0.8570(11) 0.5877(15)
H12 H 0.0272(9) -0.7786(11) 0.4990(15)
C21 C -0.55076(8) -0.24072(10) 0.02688(13)
C22 C -0.61727(9) -0.19199(11) 0.01522(15)
C23 C -0.66262(9) -0.21505(13) 0.09085(15)
C24 C -0.64155(9) -0.28773(13) 0.17481(16)
C25 C -0.57454(9) -0.34017(11) 0.18688(13)
C26 C -0.52603(8) -0.31536(10) 0.11457(12)
C27 C -0.50994(11) -0.47828(13) 0.25800(16)
C28 C -0.45960(9) -0.46558(11) 0.18305(14)
C29 C -0.46057(8) -0.37670(10) 0.12258(12)
C30 C -0.41163(10) -0.54184(12) 0.16997(17)
C31 C -0.36792(10) -0.53230(12) 0.09363(18)
C32 C -0.36212(8) -0.44080(11) 0.03942(15)
C33 C -0.40199(8) -0.35999(10) 0.06344(13)
C34 C -0.31563(9) -0.42941(15) -0.04091(18)
C35 C -0.33050(8) -0.26510(12) -0.04855(14)
C36 C -0.37674(8) -0.26687(10) 0.03158(13)
C37 C -0.30682(10) -0.17554(14) -0.08400(17)
C38 C -0.32245(10) -0.09189(15) -0.03425(18)
C39 C -0.36185(9) -0.09297(12) 0.05476(18)
C40 C -0.38897(8) -0.17875(10) 0.08596(15)
N3 N -0.56244(8) -0.41930(11) 0.26550(13)
N4 N -0.30309(8) -0.34826(12) -0.08951(14)
H13 H -0.5208(9) -0.2271(10) -0.0294(15)
H14 H -0.6316(9) -0.1407(11) -0.0484(16)
H15 H -0.7089(11) -0.1788(12) 0.0853(16)
H16 H -0.6716(12) -0.3072(14) 0.2288(19)
H17 H -0.5012(10) -0.5336(13) 0.3084(18)
H18 H -0.4133(10) -0.6018(13) 0.2130(16)
H19 H -0.3364(10) -0.5807(13) 0.0743(17)
H20 H -0.2941(11) -0.4861(14) -0.0642(18)
H21 H -0.2753(12) -0.1776(13) -0.1446(19)
H22 H -0.3077(10) -0.0309(13) -0.0546(17)
H23 H -0.3722(10) -0.0318(13) 0.0968(17)
H24 H -0.4151(9) -0.1808(10) 0.1494(14)
loop_
_geom_bond_atom_site_label_1
_geom_bond_atom_site_label_2
_geom_bond_site_symmetry_1
_geom_bond_site_symmetry_2
C1 C2 1_555 1_555
C2 C3 1_555 1_555
C3 C4 1_555 1_555
C4 C5 1_555 1_555
C5 C6 1_555 1_555
C6 C1 1_555 1_555
C7 C8 1_555 1_555
C8 C9 1_555 1_555
C9 C6 1_555 1_555
C10 C8 1_555 1_555
C11 C10 1_555 1_555
C12 C11 1_555 1_555
C13 C9 1_555 1_555
C14 C12 1_555 1_555
C15 C16 1_555 1_555
C16 C13 1_555 1_555
C17 C15 1_555 1_555
C18 C17 1_555 1_555
C19 C18 1_555 1_555
C20 C16 1_555 1_555
C21 C22 1_555 1_555
C22 C23 1_555 1_555
C23 C24 1_555 1_555
C24 C25 1_555 1_555
C25 C26 1_555 1_555
C26 C21 1_555 1_555
C27 C28 1_555 1_555
C28 C29 1_555 1_555
C29 C26 1_555 1_555
C30 C28 1_555 1_555
C31 C30 1_555 1_555
C32 C31 1_555 1_555
C33 C29 1_555 1_555
C34 C32 1_555 1_555
C35 C36 1_555 1_555
C36 C33 1_555 1_555
C37 C35 1_555 1_555
C38 C37 1_555 1_555
C39 C38 1_555 1_555
C40 C36 1_555 1_555
N1 C5 1_555 1_555
N2 C14 1_555 1_555
N3 C25 1_555 1_555
N4 C34 1_555 1_555
H1 C1 1_555 1_555
H2 C2 1_555 1_555
H3 C3 1_555 1_555
H4 C4 1_555 1_555
H5 C7 1_555 1_555
H6 C10 1_555 1_555
H7 C11 1_555 1_555
H8 C14 1_555 1_555
H9 C17 1_555 1_555
H10 C18 1_555 1_555
H11 C19 1_555 1_555
H12 C20 1_555 1_555
H13 C21 1_555 1_555
H14 C22 1_555 1_555
H15 C23 1_555 1_555
H16 C24 1_555 1_555
H17 C27 1_555 1_555
H18 C30 1_555 1_555
H19 C31 1_555 1_555
H20 C34 1_555 1_555
H21 C37 1_555 1_555
H22 C38 1_555 1_555
H23 C39 1_555 1_555
H24 C40 1_555 1_555
C7 N1 1_555 1_555
C12 C13 1_555 1_555
C15 N2 1_555 1_555
C19 C20 1_555 1_555
C27 N3 1_555 1_555
C32 C33 1_555 1_555
C35 N4 1_555 1_555
C39 C40 1_555 1_555

#END
