
#######################################################################
#
#                 Cambridge Crystallographic Data Centre
#                                CCDC 
#
#######################################################################
#
# If this CIF has been generated from an entry in the Cambridge 
# Structural Database, then it will include bibliographic, chemical, 
# crystal, experimental, refinement or atomic coordinate data resulting 
# from the CCDC's data processing and validation procedures.
#
#######################################################################

data_BOLMIZ02
_chemical_name_common            Dibenzo(a,k)(3,8)phenanthroline
_chemical_formula_moiety         'C20 H12 N2'
_chemical_name_systematic        5,10-Diaza(5)helicene
_symmetry_cell_setting           orthorhombic
_symmetry_space_group_name_H-M   'P b c n'
_symmetry_Int_Tables_number      60
_space_group_name_Hall           '-P 2n 2ab'
loop_
_symmetry_equiv_pos_site_id
_symmetry_equiv_pos_as_xyz
1 x,y,z
2 1/2-x,1/2-y,1/2+z
3 1/2+x,1/2-y,-z
4 -x,y,1/2-z
5 -x,-y,-z
6 1/2+x,1/2+y,1/2-z
7 1/2-x,1/2+y,z
8 x,-y,1/2+z
_cell_length_a                   16.0623(11)
_cell_length_b                   7.8336(5)
_cell_length_c                   21.4841(14)
_cell_angle_alpha                90
_cell_angle_beta                 90
_cell_angle_gamma                90
_cell_volume                     2703.25
_cell_formula_units_Z            8
_exptl_crystal_recrystallization_method 'ethyl acetate'
loop_
_atom_site_label
_atom_site_type_symbol
_atom_site_fract_x
_atom_site_fract_y
_atom_site_fract_z
C1 C -0.03036(7) 0.26587(16) -0.14597(5)
C2 C -0.03282(8) 0.42975(17) -0.16786(6)
C3 C 0.04097(9) 0.51793(19) -0.18091(6)
C4 C 0.11589(8) 0.44040(18) -0.17074(6)
C5 C 0.12002(7) 0.27516(17) -0.14575(5)
C6 C 0.04588(6) 0.18078(15) -0.13437(5)
C7 C 0.20100(7) 0.08351(18) -0.09383(6)
C8 C 0.13079(7) -0.01865(15) -0.07612(5)
C9 C 0.05262(6) 0.01695(15) -0.10329(5)
C10 C 0.14071(8) -0.14831(18) -0.03073(6)
C11 C 0.07344(9) -0.23518(17) -0.01053(6)
C12 C -0.00471(8) -0.21474(15) -0.04100(5)
C13 C -0.01409(7) -0.10269(14) -0.09139(5)
C14 C -0.07542(9) -0.31072(17) -0.02057(6)
C15 C -0.15224(7) -0.23361(15) -0.10517(6)
C16 C -0.08828(6) -0.12828(15) -0.12927(5)
C17 C -0.22336(8) -0.26810(19) -0.14173(8)
C18 C -0.22924(8) -0.21024(19) -0.20141(8)
C19 C -0.16417(8) -0.11539(18) -0.22716(7)
C20 C -0.09568(7) -0.07419(16) -0.19181(6)
N1 N 0.19856(6) 0.21758(15) -0.12875(5)
N2 N -0.14712(7) -0.31608(14) -0.04833(5)
H1 H -0.0824(8) 0.2063(17) -0.1351(6)
H2 H -0.0869(9) 0.4855(19) -0.1746(6)
H3 H 0.0379(8) 0.635(2) -0.1972(7)
H4 H 0.1684(10) 0.501(2) -0.1797(7)
H5 H 0.2547(9) 0.0437(18) -0.0780(6)
H6 H 0.1968(10) -0.168(2) -0.0133(7)
H7 H 0.0776(9) -0.315(2) 0.0220(7)
H8 H -0.0685(9) -0.376(2) 0.0177(7)
H9 H -0.2645(10) -0.346(2) -0.1225(7)
H10 H -0.2777(9) -0.241(2) -0.2274(8)
H11 H -0.1661(9) -0.079(2) -0.2717(7)
H12 H -0.0497(8) -0.0058(18) -0.2108(6)
loop_
_geom_bond_atom_site_label_1
_geom_bond_atom_site_label_2
_geom_bond_site_symmetry_1
_geom_bond_site_symmetry_2
C1 C2 1_555 1_555
C2 C3 1_555 1_555
C3 C4 1_555 1_555
C4 C5 1_555 1_555
C5 C6 1_555 1_555
C6 C1 1_555 1_555
C7 C8 1_555 1_555
C8 C9 1_555 1_555
C9 C6 1_555 1_555
C10 C8 1_555 1_555
C11 C10 1_555 1_555
C12 C11 1_555 1_555
C13 C9 1_555 1_555
C14 C12 1_555 1_555
C15 C16 1_555 1_555
C16 C13 1_555 1_555
C17 C15 1_555 1_555
C18 C17 1_555 1_555
C19 C18 1_555 1_555
C20 C16 1_555 1_555
N1 C5 1_555 1_555
N2 C14 1_555 1_555
H1 C1 1_555 1_555
H2 C2 1_555 1_555
H3 C3 1_555 1_555
H4 C4 1_555 1_555
H5 C7 1_555 1_555
H6 C10 1_555 1_555
H7 C11 1_555 1_555
H8 C14 1_555 1_555
H9 C17 1_555 1_555
H10 C18 1_555 1_555
H11 C19 1_555 1_555
H12 C20 1_555 1_555
C7 N1 1_555 1_555
C12 C13 1_555 1_555
C15 N2 1_555 1_555
C19 C20 1_555 1_555

#END
