
#######################################################################
#
#                 Cambridge Crystallographic Data Centre
#                                CCDC 
#
#######################################################################
#
# If this CIF has been generated from an entry in the Cambridge 
# Structural Database, then it will include bibliographic, chemical, 
# crystal, experimental, refinement or atomic coordinate data resulting 
# from the CCDC's data processing and validation procedures.
#
#######################################################################

data_BOLMOF
_chemical_name_common            Naphtho(2,1-k)(1,7)phenanthroline
_chemical_formula_moiety         'C20 H12 N2'
_chemical_name_systematic        1,7-Diaza(5)helicene
_symmetry_cell_setting           monoclinic
_symmetry_space_group_name_H-M   'P 21/n'
_symmetry_Int_Tables_number      14
_space_group_name_Hall           '-P 2yn'
loop_
_symmetry_equiv_pos_site_id
_symmetry_equiv_pos_as_xyz
1 x,y,z
2 1/2-x,1/2+y,1/2-z
3 -x,-y,-z
4 1/2+x,1/2-y,1/2+z
_cell_length_a                   13.9335(19)
_cell_length_b                   5.8691(10)
_cell_length_c                   17.354(2)
_cell_angle_alpha                90
_cell_angle_beta                 104.734(3)
_cell_angle_gamma                90
_cell_volume                     1372.49
_chemical_melting_point          '220-223 deg.C'
_cell_formula_units_Z            4
loop_
_atom_site_label
_atom_site_type_symbol
_atom_site_fract_x
_atom_site_fract_y
_atom_site_fract_z
C1 C 0.4179(2) 0.2579(6) 0.94672(18)
H1 H 0.4293 0.3594 0.9892
C2 C 0.3728(2) 0.0530(6) 0.9545(2)
H2 H 0.3578 0.0138 1.002
C3 C 0.3512(2) -0.0880(6) 0.8918(3)
H3 H 0.3199 -0.2259 0.8957
C4 C 0.3409(2) -0.1593(7) 0.7507(3)
H4 H 0.3113 -0.3003 0.7532
C5 C 0.3501(2) -0.0825(7) 0.6810(3)
H5 H 0.3207 -0.1619 0.6346
C6 C 0.4538(4) 0.3922(10) 0.5954(2)
H6 H 0.4479 0.4543 0.5451
C7 C 0.5651(3) 0.7093(8) 0.6507(3)
H7 H 0.5556 0.7708 0.5999
C8 C 0.6269(3) 0.8127(7) 0.7128(3)
H8 H 0.6535 0.9542 0.7058
C9 C 0.7307(3) 0.7917(7) 0.8513(3)
H9 H 0.7598 0.9311 0.8456
C10 C 0.7638(3) 0.6716(8) 0.9189(3)
H10 H 0.8152 0.7281 0.9595
C11 C 0.7211(2) 0.4645(6) 0.9276(2)
H11 H 0.7467 0.3785 0.9732
C12 C 0.64242(18) 0.3835(5) 0.87090(16)
H12 H 0.6143 0.2445 0.8788
C13 C 0.42809(17) 0.1741(5) 0.81863(17)
C14 C 0.37498(19) -0.0316(5) 0.8210(2)
C15 C 0.45502(19) 0.2382(5) 0.74614(17)
C16 C 0.4054(2) 0.1230(7) 0.6764(2)
C17 C 0.5228(2) 0.4183(5) 0.73855(17)
C18 C 0.5130(3) 0.5038(7) 0.6616(2)
C19 C 0.6036(2) 0.5049(5) 0.80167(18)
C20 C 0.6520(3) 0.7089(5) 0.7887(2)
N1 N 0.44619(15) 0.3189(4) 0.88177(14)
N2 N 0.4049(3) 0.1983(9) 0.6015(2)
C21? C 0.44619(15) 0.3189(4) 0.88177(14)
H13? H 0.4776 0.4577 0.8798
C22? C 0.4049(3) 0.1983(9) 0.6015(2)
H14? H 0.3719 0.1178 0.5564
N3? N 0.4538(4) 0.3922(10) 0.5954(2)
N4? N 0.64242(18) 0.3835(5) 0.87090(16)
loop_
_geom_bond_atom_site_label_1
_geom_bond_atom_site_label_2
_geom_bond_site_symmetry_1
_geom_bond_site_symmetry_2
C1 H1 1_555 1_555
C2 C1 1_555 1_555
H2 C2 1_555 1_555
C3 C2 1_555 1_555
H3 C3 1_555 1_555
C4 H4 1_555 1_555
C5 C4 1_555 1_555
H5 C5 1_555 1_555
C6 H6 1_555 1_555
C7 H7 1_555 1_555
C8 C7 1_555 1_555
H8 C8 1_555 1_555
C9 H9 1_555 1_555
C10 C9 1_555 1_555
H10 C10 1_555 1_555
C11 C10 1_555 1_555
H11 C11 1_555 1_555
C12 C11 1_555 1_555
H12 C12 1_555 1_555
C13 C14 1_555 1_555
C14 C3 1_555 1_555
C15 C13 1_555 1_555
C16 C5 1_555 1_555
C17 C15 1_555 1_555
C18 C6 1_555 1_555
C19 C12 1_555 1_555
C20 C8 1_555 1_555
N1 C1 1_555 1_555
N2 C6 1_555 1_555
C4 C14 1_555 1_555
C7 C18 1_555 1_555
C9 C20 1_555 1_555
C13 N1 1_555 1_555
C15 C16 1_555 1_555
C16 N2 1_555 1_555
C17 C18 1_555 1_555
C17 C19 1_555 1_555
C19 C20 1_555 1_555

#END
