
#######################################################################
#
#                 Cambridge Crystallographic Data Centre
#                                CCDC 
#
#######################################################################
#
# If this CIF has been generated from an entry in the Cambridge 
# Structural Database, then it will include bibliographic, chemical, 
# crystal, experimental, refinement or atomic coordinate data resulting 
# from the CCDC's data processing and validation procedures.
#
#######################################################################

data_BOLPID
_chemical_formula_moiety         'C38 H40 N2 O2'
_chemical_name_systematic        
N,N'-((2,5-Dimethoxy-1,4-phenylene)bis(ethyne-2,1-diyl-4,1-phenylenemethylylidene))dicyclohexanamine
_symmetry_cell_setting           monoclinic
_symmetry_space_group_name_H-M   'P 21/c'
_symmetry_Int_Tables_number      14
_space_group_name_Hall           '-P 2ybc'
loop_
_symmetry_equiv_pos_site_id
_symmetry_equiv_pos_as_xyz
1 x,y,z
2 -x,1/2+y,1/2-z
3 -x,-y,-z
4 x,1/2-y,1/2+z
_cell_length_a                   14.2627(9)
_cell_length_b                   10.8306(7)
_cell_length_c                   10.4217(5)
_cell_angle_alpha                90
_cell_angle_beta                 97.303(5)
_cell_angle_gamma                90
_cell_volume                     1596.82
_exptl_crystal_description       plate
_cell_formula_units_Z            2
loop_
_atom_site_label
_atom_site_type_symbol
_atom_site_fract_x
_atom_site_fract_y
_atom_site_fract_z
O1 O 0.4195(2) 0.6517(3) 0.1685(3)
C1 C 0.4570(3) 0.5788(4) 0.0820(4)
C2 C 0.5391(3) 0.5116(4) 0.1282(4)
C3 C 0.5800(3) 0.4340(4) 0.0451(4)
H1 H 0.6346 0.3879 0.0767
C4 C 0.5789(3) 0.5257(4) 0.2625(4)
C5 C 0.6083(3) 0.5393(4) 0.3732(4)
C6 C 0.6419(3) 0.5600(4) 0.5058(4)
C7 C 0.5906(3) 0.6339(4) 0.5812(4)
C8 C 0.6222(3) 0.6569(4) 0.7081(4)
C9 C 0.7070(3) 0.6076(4) 0.7654(4)
C10 C 0.7411(3) 0.6335(4) 0.9018(4)
N1 N 0.8176(3) 0.5876(4) 0.9571(3)
C11 C 0.8473(4) 0.6203(5) 1.0919(4)
C12 C 0.8508(4) 0.5054(5) 1.1733(4)
C13 C 0.8907(4) 0.5287(6) 1.3115(4)
C14 C 0.9866(4) 0.5844(6) 1.3201(5)
C15 C 0.9844(5) 0.7018(6) 1.2437(5)
C16 C 0.9431(5) 0.6786(6) 1.1025(5)
H2 H 0.9384 0.7545 1.0567
H3 H 0.9834 0.6241 1.0639
H4 H 1.0467 0.7331 1.2468
H5 H 0.9461 0.7600 1.2809
H6 H 1.0111 0.5996 1.4077
H7 H 1.0262 0.5272 1.2837
H8 H 0.8936 0.4541 1.3595
H9 H 0.8506 0.5856 1.3472
H10 H 0.8910 0.4486 1.1377
H11 H 0.7892 0.4712 1.1694
H12 H 0.8038 0.6764 1.1216
H13 H 0.7044 0.6842 0.9503
C17 C 0.7580(3) 0.5329(4) 0.6914(4)
C18 C 0.7271(3) 0.5102(4) 0.5646(4)
H14 H 0.7624 0.4585 0.5151
H15 H 0.8159 0.4981 0.7298
H16 H 0.5859 0.7063 0.7585
H17 H 0.5325 0.6683 0.5429
C19 C 0.3314(4) 0.7128(5) 0.1248(5)
H18 H 0.3119 0.7613 0.1924
H19 H 0.3405 0.7644 0.0539
H20 H 0.2842 0.6531 0.0979
O1B O 0.5805(2) 0.3483(3) -0.1685(3)
C1B C 0.5430(3) 0.4212(4) -0.0820(4)
C2B C 0.4609(3) 0.4884(4) -0.1282(4)
C3B C 0.4200(3) 0.5660(4) -0.0451(4)
H1B H 0.3654 0.6121 -0.0767
C4B C 0.4211(3) 0.4743(4) -0.2625(4)
C5B C 0.3917(3) 0.4607(4) -0.3732(4)
C6B C 0.3581(3) 0.4400(4) -0.5058(4)
C7B C 0.4094(3) 0.3661(4) -0.5812(4)
C8B C 0.3778(3) 0.3431(4) -0.7081(4)
C9B C 0.2930(3) 0.3924(4) -0.7654(4)
C10B C 0.2589(3) 0.3665(4) -0.9018(4)
N1B N 0.1824(3) 0.4124(4) -0.9571(3)
C11B C 0.1527(4) 0.3797(5) -1.0919(4)
C12B C 0.1492(4) 0.4946(5) -1.1733(4)
C13B C 0.1093(4) 0.4713(6) -1.3115(4)
C14B C 0.0134(4) 0.4156(6) -1.3201(5)
C15B C 0.0156(5) 0.2982(6) -1.2437(5)
C16B C 0.0569(5) 0.3214(6) -1.1025(5)
H2B H 0.0616 0.2455 -1.0567
H3B H 0.0166 0.3759 -1.0639
H4B H -0.0467 0.2669 -1.2468
H5B H 0.0539 0.2400 -1.2809
H6B H -0.0111 0.4004 -1.4077
H7B H -0.0262 0.4728 -1.2837
H8B H 0.1064 0.5459 -1.3595
H9B H 0.1494 0.4144 -1.3472
H10B H 0.1090 0.5514 -1.1377
H11B H 0.2108 0.5288 -1.1694
H12B H 0.1962 0.3236 -1.1216
H13B H 0.2956 0.3158 -0.9503
C17B C 0.2420(3) 0.4671(4) -0.6914(4)
C18B C 0.2729(3) 0.4898(4) -0.5646(4)
H14B H 0.2376 0.5415 -0.5151
H15B H 0.1841 0.5019 -0.7298
H16B H 0.4141 0.2937 -0.7585
H17B H 0.4675 0.3317 -0.5429
C19B C 0.6686(4) 0.2872(5) -0.1248(5)
H18B H 0.6881 0.2387 -0.1924
H19B H 0.6595 0.2356 -0.0539
H20B H 0.7158 0.3469 -0.0979
loop_
_geom_bond_atom_site_label_1
_geom_bond_atom_site_label_2
_geom_bond_site_symmetry_1
_geom_bond_site_symmetry_2
O1 C1 1_555 1_555
C1 C2 1_555 1_555
C2 C3 1_555 1_555
C3 H1 1_555 1_555
C4 C2 1_555 1_555
C5 C4 1_555 1_555
C6 C5 1_555 1_555
C7 C6 1_555 1_555
C8 C7 1_555 1_555
C9 C8 1_555 1_555
C10 C9 1_555 1_555
N1 C10 1_555 1_555
C11 N1 1_555 1_555
C12 C11 1_555 1_555
C13 C12 1_555 1_555
C14 C13 1_555 1_555
C15 C14 1_555 1_555
C16 C11 1_555 1_555
H2 C16 1_555 1_555
H3 C16 1_555 1_555
H4 C15 1_555 1_555
H5 C15 1_555 1_555
H6 C14 1_555 1_555
H7 C14 1_555 1_555
H8 C13 1_555 1_555
H9 C13 1_555 1_555
H10 C12 1_555 1_555
H11 C12 1_555 1_555
H12 C11 1_555 1_555
H13 C10 1_555 1_555
C17 C9 1_555 1_555
C18 C6 1_555 1_555
H14 C18 1_555 1_555
H15 C17 1_555 1_555
H16 C8 1_555 1_555
H17 C7 1_555 1_555
C19 O1 1_555 1_555
H18 C19 1_555 1_555
H19 C19 1_555 1_555
H20 C19 1_555 1_555
O1B C1B 1_555 1_555
C1B C3 1_555 1_555
C2B C1B 1_555 1_555
C3B C1 1_555 1_555
H1B C3B 1_555 1_555
C4B C2B 1_555 1_555
C5B C4B 1_555 1_555
C6B C5B 1_555 1_555
C7B C6B 1_555 1_555
C8B C7B 1_555 1_555
C9B C8B 1_555 1_555
C10B C9B 1_555 1_555
N1B C10B 1_555 1_555
C11B N1B 1_555 1_555
C12B C11B 1_555 1_555
C13B C12B 1_555 1_555
C14B C13B 1_555 1_555
C15B C14B 1_555 1_555
C16B C11B 1_555 1_555
H2B C16B 1_555 1_555
H3B C16B 1_555 1_555
H4B C15B 1_555 1_555
H5B C15B 1_555 1_555
H6B C14B 1_555 1_555
H7B C14B 1_555 1_555
H8B C13B 1_555 1_555
H9B C13B 1_555 1_555
H10B C12B 1_555 1_555
H11B C12B 1_555 1_555
H12B C11B 1_555 1_555
H13B C10B 1_555 1_555
C17B C9B 1_555 1_555
C18B C6B 1_555 1_555
H14B C18B 1_555 1_555
H15B C17B 1_555 1_555
H16B C8B 1_555 1_555
H17B C7B 1_555 1_555
C19B O1B 1_555 1_555
H18B C19B 1_555 1_555
H19B C19B 1_555 1_555
H20B C19B 1_555 1_555
C15 C16 1_555 1_555
C17 C18 1_555 1_555
C2B C3B 1_555 1_555
C15B C16B 1_555 1_555
C17B C18B 1_555 1_555

#END
