
#######################################################################
#
#                 Cambridge Crystallographic Data Centre
#                                CCDC 
#
#######################################################################
#
# If this CIF has been generated from an entry in the Cambridge 
# Structural Database, then it will include bibliographic, chemical, 
# crystal, experimental, refinement or atomic coordinate data resulting 
# from the CCDC's data processing and validation procedures.
#
#######################################################################

data_BOLWOQ
_chemical_formula_moiety         'C20 H20 N2 O3'
_chemical_name_systematic        
't-Butyl 1-oxo-2-(phenyldiazenyl)indane-2-carboxylate'
_symmetry_cell_setting           monoclinic
_symmetry_space_group_name_H-M   'P 21'
_symmetry_Int_Tables_number      4
_space_group_name_Hall           'P 2yb'
loop_
_symmetry_equiv_pos_site_id
_symmetry_equiv_pos_as_xyz
1 x,y,z
2 -x,1/2+y,-z
_cell_length_a                   5.7962(3)
_cell_length_b                   29.2094(14)
_cell_length_c                   15.6928(8)
_cell_angle_alpha                90
_cell_angle_beta                 97.272(3)
_cell_angle_gamma                90
_cell_volume                     2635.48
_exptl_crystal_colour            yellow
_exptl_crystal_description       needle
_cell_formula_units_Z            6
loop_
_atom_site_label
_atom_site_type_symbol
_atom_site_fract_x
_atom_site_fract_y
_atom_site_fract_z
C1 C 0.0076(5) 0.53465(11) 0.7031(2)
C2 C 0.2230(5) 0.50306(11) 0.7165(2)
H1 H 0.2022 0.4762 0.6778
H2 H 0.3648 0.5198 0.7054
C3 C 0.2398(5) 0.48838(10) 0.8096(2)
C4 C 0.4097(6) 0.46136(11) 0.8550(2)
H3 H 0.5363 0.4500 0.8283
C5 C 0.3915(6) 0.45120(11) 0.9401(2)
H4 H 0.5068 0.4327 0.9718
C6 C 0.2062(6) 0.46778(12) 0.9803(2)
H5 H 0.1968 0.4604 1.0387
C7 C 0.0371(6) 0.49481(11) 0.9354(2)
H6 H -0.0893 0.5062 0.9622
C8 C 0.0568(5) 0.50487(10) 0.8498(2)
C9 C -0.0996(5) 0.53303(10) 0.7893(2)
C10 C 0.0856(5) 0.58257(11) 0.6797(2)
C11 C 0.2097(6) 0.65665(11) 0.7451(2)
C12 C 0.1829(7) 0.67454(12) 0.8343(3)
H7 H 0.0179 0.6747 0.8422
H8 H 0.2445 0.7058 0.8405
H9 H 0.2690 0.6547 0.8776
C13 C 0.0698(6) 0.68512(12) 0.6762(3)
H10 H 0.1078 0.6759 0.6196
H11 H 0.1075 0.7176 0.6857
H12 H -0.0966 0.6803 0.6788
C14 C 0.4623(6) 0.65307(13) 0.7311(3)
H13 H 0.5440 0.6326 0.7743
H14 H 0.5339 0.6835 0.7363
H15 H 0.4727 0.6408 0.6736
C15 C -0.4074(6) 0.46626(12) 0.5680(2)
C16 C -0.5752(6) 0.49671(13) 0.5292(2)
H16 H -0.5564 0.5288 0.5379
C17 C -0.7690(7) 0.47986(15) 0.4782(2)
H17 H -0.8837 0.5003 0.4517
C18 C -0.7950(7) 0.43308(15) 0.4661(3)
H18 H -0.9294 0.4216 0.4318
C19 C -0.6287(8) 0.40295(15) 0.5030(3)
H19 H -0.6472 0.3710 0.4935
C20 C -0.4341(7) 0.41957(14) 0.5542(3)
H20 H -0.3190 0.3989 0.5799
N1 N -0.1839(5) 0.52171(10) 0.63419(18)
N2 N -0.2085(5) 0.48007(10) 0.62695(18)
O1 O -0.2797(4) 0.55066(8) 0.80119(15)
O2 O 0.1270(5) 0.59182(9) 0.60872(15)
O3 O 0.1117(4) 0.60958(7) 0.74834(14)
C21 C -0.5515(6) 0.68915(11) 1.2096(2)
C22 C -0.3668(6) 0.69929(11) 1.1495(2)
H21 H -0.4000 0.7287 1.1189
H22 H -0.2095 0.7008 1.1823
C23 C -0.3847(6) 0.65978(11) 1.08705(19)
C24 C -0.2438(6) 0.64995(11) 1.0245(2)
H23 H -0.1156 0.6691 1.0169
C25 C -0.2932(6) 0.61156(11) 0.9730(2)
H24 H -0.1972 0.6045 0.9299
C26 C -0.4820(6) 0.58309(11) 0.9835(2)
H25 H -0.5141 0.5572 0.9472
C27 C -0.6211(6) 0.59246(11) 1.0462(2)
H26 H -0.7489 0.5732 1.0541
C28 C -0.5698(6) 0.63093(11) 1.0979(2)
C29 C -0.6911(5) 0.64742(10) 1.16934(19)
C30 C -0.4260(6) 0.67838(12) 1.3008(2)
C31 C -0.2722(7) 0.61601(15) 1.3956(2)
C32 C -0.0233(8) 0.6288(3) 1.3989(3)
H27 H 0.0329 0.6202 1.3448
H28 H 0.0678 0.6127 1.4467
H29 H -0.0063 0.6619 1.4074
C33 C -0.3103(10) 0.56397(17) 1.3840(3)
H30 H -0.4774 0.5575 1.3735
H31 H -0.2424 0.5480 1.4362
H32 H -0.2353 0.5533 1.3351
C34 C -0.3813(6) 0.63181(14) 1.4726(2)
H33 H -0.3598 0.6649 1.4797
H34 H -0.3073 0.6161 1.5241
H35 H -0.5479 0.6247 1.4642
C35 C -0.8170(6) 0.79886(11) 1.2349(2)
C36 C -1.0092(6) 0.78909(12) 1.2762(2)
H36 H -1.0444 0.7584 1.2896
C37 C -1.1496(6) 0.82483(12) 1.2976(2)
H37 H -1.2815 0.8186 1.3260
C38 C -1.0970(6) 0.86952(12) 1.2776(2)
H38 H -1.1934 0.8939 1.2922
C39 C -0.9063(7) 0.87882(12) 1.2367(3)
H39 H -0.8720 0.9095 1.2228
C40 C -0.7635(6) 0.84356(12) 1.2155(2)
H40 H -0.6303 0.8500 1.1880
N3 N -0.7234(5) 0.72488(9) 1.22388(19)
N4 N -0.6551(5) 0.76433(9) 1.21317(18)
O4 O -0.8679(4) 0.63297(8) 1.19279(14)
O5 O -0.3486(7) 0.70801(10) 1.34748(18)
O6 O -0.4056(4) 0.63389(9) 1.31414(14)
C41 C -0.9702(7) 0.86485(13) 1.7895(2)
C42 C -1.1887(7) 0.89202(13) 1.7566(3)
H41 H -1.2308 0.8874 1.6941
H42 H -1.3213 0.8825 1.7865
C43 C -1.1256(6) 0.94150(12) 1.7762(2)
C44 C -1.2562(7) 0.98091(13) 1.7535(2)
H43 H -1.4055 0.9787 1.7209
C45 C -1.1653(7) 1.02282(13) 1.7790(2)
H44 H -1.2528 1.0497 1.7635
C46 C -0.9464(7) 1.02676(13) 1.8274(2)
H45 H -0.8859 1.0560 1.8444
C47 C -0.8188(7) 0.98772(14) 1.8502(2)
H46 H -0.6703 0.9898 1.8834
C48 C -0.9103(6) 0.94578(13) 1.8240(2)
C49 C -0.8109(6) 0.89958(13) 1.8418(2)
C50 C -1.0257(6) 0.82208(12) 1.8416(2)
C51 C -1.1816(6) 0.80037(12) 1.9715(2)
C52 C -1.2733(7) 0.83008(13) 2.0390(2)
H47 H -1.1514 0.8513 2.0632
H48 H -1.3194 0.8106 2.0849
H49 H -1.4084 0.8475 2.0126
C53 C -1.3751(6) 0.77115(13) 1.9247(2)
H50 H -1.4938 0.7911 1.8940
H51 H -1.4456 0.7525 1.9665
H52 H -1.3106 0.7511 1.8836
C54 C -0.9727(6) 0.77237(12) 2.0096(2)
H53 H -0.9192 0.7532 1.9647
H54 H -1.0170 0.7528 2.0556
H55 H -0.8472 0.7930 2.0330
C55 C -0.7077(18) 0.8148(3) 1.6156(8)
C56 C -0.7774(15) 0.8087(3) 1.5293(8)
H56 H -0.9235 0.8203 1.5042
C57 C -0.634(2) 0.7855(4) 1.4786(6)
H57 H -0.6865 0.7798 1.4197
C58 C -0.4179(19) 0.7707(3) 1.5142(7)
H58 H -0.3154 0.7569 1.4790
C59 C -0.3491(13) 0.7761(3) 1.6027(7)
H59 H -0.2018 0.7651 1.6280
C60 C -0.499(2) 0.7977(3) 1.6536(5)
H60 H -0.4562 0.8005 1.7138
N5 N -0.7904(18) 0.8459(3) 1.7398(8)
N6 N -0.8715(11) 0.8372(3) 1.6625(7)
O7 O -0.6324(5) 0.88960(10) 1.8869(2)
O8 O -1.0019(5) 0.78373(9) 1.81784(17)
O9 O -1.1038(4) 0.83521(8) 1.91178(15)
C61? C -0.654(2) 0.8123(3) 1.6377(8)
C62? C -0.7781(16) 0.8178(4) 1.5573(9)
H61? H -0.9200 0.8345 1.5502
C63? C -0.691(2) 0.7985(4) 1.4865(7)
H62? H -0.7761 0.8024 1.4312
C64? C -0.489(3) 0.7741(4) 1.4938(9)
H63? H -0.4369 0.7604 1.4447
C65? C -0.3606(18) 0.7696(4) 1.5738(10)
H64? H -0.2187 0.7529 1.5799
C66? C -0.440(2) 0.7896(4) 1.6458(7)
H65? H -0.3482 0.7877 1.7002
N7? N -0.9015(17) 0.8524(3) 1.7025(7)
N8? N -0.7301(16) 0.8296(4) 1.7168(6)
loop_
_geom_bond_atom_site_label_1
_geom_bond_atom_site_label_2
_geom_bond_site_symmetry_1
_geom_bond_site_symmetry_2
C1 C2 1_555 1_555
C2 H1 1_555 1_555
H2 C2 1_555 1_555
C3 C2 1_555 1_555
C4 C3 1_555 1_555
H3 C4 1_555 1_555
C5 C4 1_555 1_555
H4 C5 1_555 1_555
C6 C5 1_555 1_555
H5 C6 1_555 1_555
C7 C6 1_555 1_555
H6 C7 1_555 1_555
C8 C3 1_555 1_555
C9 C1 1_555 1_555
C10 C1 1_555 1_555
C11 C12 1_555 1_555
C12 H7 1_555 1_555
H8 C12 1_555 1_555
H9 C12 1_555 1_555
C13 C11 1_555 1_555
H10 C13 1_555 1_555
H11 C13 1_555 1_555
H12 C13 1_555 1_555
C14 C11 1_555 1_555
H13 C14 1_555 1_555
H14 C14 1_555 1_555
H15 C14 1_555 1_555
C15 C16 1_555 1_555
C16 H16 1_555 1_555
C17 C16 1_555 1_555
H17 C17 1_555 1_555
C18 C17 1_555 1_555
H18 C18 1_555 1_555
C19 C18 1_555 1_555
H19 C19 1_555 1_555
C20 C15 1_555 1_555
H20 C20 1_555 1_555
N1 C1 1_555 1_555
N2 C15 1_555 1_555
O1 C9 1_555 1_555
O2 C10 1_555 1_555
O3 C10 1_555 1_555
C21 C22 1_555 1_555
C22 H21 1_555 1_555
H22 C22 1_555 1_555
C23 C22 1_555 1_555
C24 C23 1_555 1_555
H23 C24 1_555 1_555
C25 C24 1_555 1_555
H24 C25 1_555 1_555
C26 C25 1_555 1_555
H25 C26 1_555 1_555
C27 C26 1_555 1_555
H26 C27 1_555 1_555
C28 C23 1_555 1_555
C29 C21 1_555 1_555
C30 C21 1_555 1_555
C31 C32 1_555 1_555
C32 H27 1_555 1_555
H28 C32 1_555 1_555
H29 C32 1_555 1_555
C33 C31 1_555 1_555
H30 C33 1_555 1_555
H31 C33 1_555 1_555
H32 C33 1_555 1_555
C34 C31 1_555 1_555
H33 C34 1_555 1_555
H34 C34 1_555 1_555
H35 C34 1_555 1_555
C35 C36 1_555 1_555
C36 H36 1_555 1_555
C37 C36 1_555 1_555
H37 C37 1_555 1_555
C38 C37 1_555 1_555
H38 C38 1_555 1_555
C39 C38 1_555 1_555
H39 C39 1_555 1_555
C40 C35 1_555 1_555
H40 C40 1_555 1_555
N3 C21 1_555 1_555
N4 C35 1_555 1_555
O4 C29 1_555 1_555
O5 C30 1_555 1_555
O6 C30 1_555 1_555
C41 C42 1_555 1_555
C42 H41 1_555 1_555
H42 C42 1_555 1_555
C43 C42 1_555 1_555
C44 C43 1_555 1_555
H43 C44 1_555 1_555
C45 C44 1_555 1_555
H44 C45 1_555 1_555
C46 C45 1_555 1_555
H45 C46 1_555 1_555
C47 C46 1_555 1_555
H46 C47 1_555 1_555
C48 C43 1_555 1_555
C49 C41 1_555 1_555
C50 C41 1_555 1_555
C51 C52 1_555 1_555
C52 H47 1_555 1_555
H48 C52 1_555 1_555
H49 C52 1_555 1_555
C53 C51 1_555 1_555
H50 C53 1_555 1_555
H51 C53 1_555 1_555
H52 C53 1_555 1_555
C54 C51 1_555 1_555
H53 C54 1_555 1_555
H54 C54 1_555 1_555
H55 C54 1_555 1_555
C55 C56 1_555 1_555
C56 H56 1_555 1_555
C57 C56 1_555 1_555
H57 C57 1_555 1_555
C58 C57 1_555 1_555
H58 C58 1_555 1_555
C59 C58 1_555 1_555
H59 C59 1_555 1_555
C60 C55 1_555 1_555
H60 C60 1_555 1_555
N5 C41 1_555 1_555
N6 C55 1_555 1_555
O7 C49 1_555 1_555
O8 C50 1_555 1_555
O9 C50 1_555 1_555
C7 C8 1_555 1_555
C8 C9 1_555 1_555
C11 O3 1_555 1_555
C19 C20 1_555 1_555
N1 N2 1_555 1_555
C27 C28 1_555 1_555
C28 C29 1_555 1_555
C31 O6 1_555 1_555
C39 C40 1_555 1_555
N3 N4 1_555 1_555
C47 C48 1_555 1_555
C48 C49 1_555 1_555
C51 O9 1_555 1_555
C59 C60 1_555 1_555
N5 N6 1_555 1_555

#END
