
#######################################################################
#
#                 Cambridge Crystallographic Data Centre
#                                CCDC 
#
#######################################################################
#
# If this CIF has been generated from an entry in the Cambridge 
# Structural Database, then it will include bibliographic, chemical, 
# crystal, experimental, refinement or atomic coordinate data resulting 
# from the CCDC's data processing and validation procedures.
#
#######################################################################

data_BOMCUD
_chemical_formula_moiety         'C28 H42 Cl2 Mg2 O6'
_chemical_name_systematic        
bis(\m-phenolato)-dichloro-tetrakis(tetrahydrofuran)-di-magnesium
_symmetry_cell_setting           monoclinic
_symmetry_space_group_name_H-M   'P 21/c'
_symmetry_Int_Tables_number      14
_space_group_name_Hall           '-P 2ybc'
loop_
_symmetry_equiv_pos_site_id
_symmetry_equiv_pos_as_xyz
1 x,y,z
2 -x,1/2+y,1/2-z
3 -x,-y,-z
4 x,1/2-y,1/2+z
_cell_length_a                   7.23120(10)
_cell_length_b                   10.8165(2)
_cell_length_c                   19.6313(14)
_cell_angle_alpha                90
_cell_angle_beta                 92.125(7)
_cell_angle_gamma                90
_cell_volume                     1534.43
_exptl_crystal_colour            colorless
_exptl_crystal_description       needle
_cell_formula_units_Z            2
_chemical_properties_physical    'Air-sensitive, Moisture-sensitive'
loop_
_atom_site_label
_atom_site_type_symbol
_atom_site_fract_x
_atom_site_fract_y
_atom_site_fract_z
Cl1 Cl 1.18297(6) 0.73062(5) 0.45098(2)
Mg1 Mg 0.94715(9) 0.86515(6) 0.47968(3)
O1 O 1.0031(2) 1.03079(14) 0.43801(7)
O2 O 0.7234(2) 0.84205(14) 0.41202(7)
O3 O 0.7998(2) 0.73615(14) 0.53778(7)
C1 C 0.9839(3) 1.06874(19) 0.37249(10)
C2 C 1.0586(3) 1.0005(2) 0.32009(10)
H1 H 1.1249 0.9265 0.3302
C3 C 1.0363(3) 1.0408(2) 0.25248(11)
H2 H 1.0899 0.9947 0.2171
C4 C 0.9369(3) 1.1471(2) 0.23659(11)
H3 H 0.9207 1.1735 0.1906
C5 C 0.8613(3) 1.2143(2) 0.28883(11)
H4 H 0.7930 1.2874 0.2785
C6 C 0.8844(3) 1.1761(2) 0.35628(10)
H5 H 0.8322 1.2233 0.3915
C7 C 0.6761(3) 0.7238(2) 0.38130(12)
H6 H 0.5890 0.6781 0.4097
H7 H 0.7885 0.6729 0.3762
C8 C 0.5860(4) 0.7539(3) 0.31166(14)
H8 H 0.4635 0.7134 0.3061
H9 H 0.6651 0.7258 0.2746
C9 C 0.5659(3) 0.8949(3) 0.31085(12)
H10 H 0.6640 0.9340 0.2844
H11 H 0.4434 0.9201 0.2914
C10 C 0.5861(3) 0.9284(2) 0.38578(11)
H12 H 0.6289 1.0148 0.3918
H13 H 0.4674 0.9179 0.4087
C11 C 0.8381(3) 0.6081(2) 0.55514(11)
H14 H 0.9715 0.5960 0.5663
H15 H 0.8009 0.5528 0.5168
C12 C 0.7244(4) 0.5823(3) 0.61657(13)
H16 H 0.6941 0.4933 0.6201
H17 H 0.7898 0.6093 0.6592
C13 C 0.5544(4) 0.6581(3) 0.60197(15)
H18 H 0.4905 0.6775 0.6444
H19 H 0.4673 0.6147 0.5701
C14 C 0.6309(3) 0.7749(2) 0.56967(11)
H20 H 0.5412 0.8090 0.5353
H21 H 0.6579 0.8387 0.6048
Cl1B Cl 0.81703(6) 1.26938(5) 0.54902(2)
Mg1B Mg 1.05285(9) 1.13485(6) 0.52032(3)
O1B O 0.9969(2) 0.96921(14) 0.56199(7)
O2B O 1.2766(2) 1.15795(14) 0.58798(7)
O3B O 1.2002(2) 1.26385(14) 0.46222(7)
C1B C 1.0161(3) 0.93126(19) 0.62751(10)
C2B C 0.9414(3) 0.9995(2) 0.67991(10)
H1B H 0.8751 1.0735 0.6698
C3B C 0.9637(3) 0.9592(2) 0.74752(11)
H2B H 0.9101 1.0053 0.7829
C4B C 1.0631(3) 0.8529(2) 0.76341(11)
H3B H 1.0793 0.8265 0.8094
C5B C 1.1387(3) 0.7857(2) 0.71117(11)
H4B H 1.2070 0.7126 0.7215
C6B C 1.1156(3) 0.8239(2) 0.64372(10)
H5B H 1.1678 0.7767 0.6085
C7B C 1.3239(3) 1.2762(2) 0.61870(12)
H6B H 1.4110 1.3219 0.5903
H7B H 1.2115 1.3271 0.6238
C8B C 1.4140(4) 1.2461(3) 0.68834(14)
H8B H 1.5365 1.2866 0.6939
H9B H 1.3349 1.2742 0.7254
C9B C 1.4341(3) 1.1051(3) 0.68915(12)
H10B H 1.3360 1.0660 0.7156
H11B H 1.5566 1.0799 0.7086
C10B C 1.4139(3) 1.0716(2) 0.61422(11)
H12B H 1.3711 0.9852 0.6082
H13B H 1.5326 1.0821 0.5913
C11B C 1.1619(3) 1.3919(2) 0.44486(11)
H14B H 1.0285 1.4040 0.4337
H15B H 1.1991 1.4472 0.4832
C12B C 1.2756(4) 1.4177(3) 0.38343(13)
H16B H 1.3059 1.5067 0.3799
H17B H 1.2102 1.3907 0.3408
C13B C 1.4456(4) 1.3419(3) 0.39803(15)
H18B H 1.5095 1.3225 0.3556
H19B H 1.5327 1.3853 0.4299
C14B C 1.3691(3) 1.2251(2) 0.43033(11)
H20B H 1.4588 1.1910 0.4647
H21B H 1.3421 1.1613 0.3952
loop_
_geom_bond_atom_site_label_1
_geom_bond_atom_site_label_2
_geom_bond_site_symmetry_1
_geom_bond_site_symmetry_2
Cl1 Mg1 1_555 1_555
Mg1 O1 1_555 1_555
O1 C1 1_555 1_555
O2 Mg1 1_555 1_555
O3 Mg1 1_555 1_555
C1 C2 1_555 1_555
C2 H1 1_555 1_555
C3 C2 1_555 1_555
H2 C3 1_555 1_555
C4 C3 1_555 1_555
H3 C4 1_555 1_555
C5 C4 1_555 1_555
H4 C5 1_555 1_555
C6 C1 1_555 1_555
H5 C6 1_555 1_555
C7 O2 1_555 1_555
H6 C7 1_555 1_555
H7 C7 1_555 1_555
C8 C7 1_555 1_555
H8 C8 1_555 1_555
H9 C8 1_555 1_555
C9 C8 1_555 1_555
H10 C9 1_555 1_555
H11 C9 1_555 1_555
C10 O2 1_555 1_555
H12 C10 1_555 1_555
H13 C10 1_555 1_555
C11 O3 1_555 1_555
H14 C11 1_555 1_555
H15 C11 1_555 1_555
C12 C11 1_555 1_555
H16 C12 1_555 1_555
H17 C12 1_555 1_555
C13 C12 1_555 1_555
H18 C13 1_555 1_555
H19 C13 1_555 1_555
C14 O3 1_555 1_555
H20 C14 1_555 1_555
H21 C14 1_555 1_555
Cl1B Mg1B 1_555 1_555
Mg1B O1 1_555 1_555
O1B Mg1 1_555 1_555
O2B Mg1B 1_555 1_555
O3B Mg1B 1_555 1_555
C1B O1B 1_555 1_555
C2B C1B 1_555 1_555
H1B C2B 1_555 1_555
C3B C2B 1_555 1_555
H2B C3B 1_555 1_555
C4B C3B 1_555 1_555
H3B C4B 1_555 1_555
C5B C4B 1_555 1_555
H4B C5B 1_555 1_555
C6B C1B 1_555 1_555
H5B C6B 1_555 1_555
C7B O2B 1_555 1_555
H6B C7B 1_555 1_555
H7B C7B 1_555 1_555
C8B C7B 1_555 1_555
H8B C8B 1_555 1_555
H9B C8B 1_555 1_555
C9B C8B 1_555 1_555
H10B C9B 1_555 1_555
H11B C9B 1_555 1_555
C10B O2B 1_555 1_555
H12B C10B 1_555 1_555
H13B C10B 1_555 1_555
C11B O3B 1_555 1_555
H14B C11B 1_555 1_555
H15B C11B 1_555 1_555
C12B C11B 1_555 1_555
H16B C12B 1_555 1_555
H17B C12B 1_555 1_555
C13B C12B 1_555 1_555
H18B C13B 1_555 1_555
H19B C13B 1_555 1_555
C14B O3B 1_555 1_555
H20B C14B 1_555 1_555
H21B C14B 1_555 1_555
C5 C6 1_555 1_555
C9 C10 1_555 1_555
C13 C14 1_555 1_555
Mg1B O1B 1_555 1_555
C5B C6B 1_555 1_555
C9B C10B 1_555 1_555
C13B C14B 1_555 1_555

#END
