
#######################################################################
#
#                 Cambridge Crystallographic Data Centre
#                                CCDC 
#
#######################################################################
#
# If this CIF has been generated from an entry in the Cambridge 
# Structural Database, then it will include bibliographic, chemical, 
# crystal, experimental, refinement or atomic coordinate data resulting 
# from the CCDC's data processing and validation procedures.
#
#######################################################################

data_BOMJOE
_chemical_formula_moiety         'C13 H15 N1 O2'
_chemical_name_systematic        
1-(2-Hydroxyphenyl)-3-(pyrrolidin-1-yl)prop-2-en-1-one
_symmetry_cell_setting           monoclinic
_symmetry_space_group_name_H-M   'P 21/c'
_symmetry_Int_Tables_number      14
_space_group_name_Hall           '-P 2ybc'
loop_
_symmetry_equiv_pos_site_id
_symmetry_equiv_pos_as_xyz
1 x,y,z
2 -x,1/2+y,1/2-z
3 -x,-y,-z
4 x,1/2-y,1/2+z
_cell_length_a                   10.3245(16)
_cell_length_b                   9.4867(14)
_cell_length_c                   11.9731(19)
_cell_angle_alpha                90
_cell_angle_beta                 104.257(2)
_cell_angle_gamma                90
_cell_volume                     1136.59
_exptl_crystal_colour            yellow
_exptl_crystal_description       block
_cell_formula_units_Z            4
loop_
_atom_site_label
_atom_site_type_symbol
_atom_site_fract_x
_atom_site_fract_y
_atom_site_fract_z
O1 O 0.2331(3) 0.9506(2) 0.13208(18)
H1 H 0.150(4) 0.986(5) 0.151(3)
C1 C 0.2809(3) 0.8448(3) 0.2057(2)
C2 C 0.4017(3) 0.7847(3) 0.2026(2)
H2 H 0.4472 0.8178 0.1498
C3 C 0.4556(3) 0.6775(3) 0.2757(2)
H3 H 0.5375 0.6387 0.2731
C4 C 0.3878(3) 0.6274(3) 0.3532(2)
H4 H 0.4235 0.5539 0.4027
C5 C 0.2669(3) 0.6863(2) 0.3576(2)
H5 H 0.2218 0.6510 0.4100
C6 C 0.2108(2) 0.7968(2) 0.28589(18)
C7 C 0.0840(2) 0.8670(2) 0.2919(2)
C8 C 0.0159(3) 0.8274(3) 0.3755(2)
H6 H 0.048(2) 0.754(3) 0.423(2)
C9 C -0.1003(2) 0.8933(2) 0.3812(2)
H7 H -0.132(2) 0.970(3) 0.330(2)
N1 N -0.17512(19) 0.8664(2) 0.45239(16)
C10 C -0.1433(3) 0.7598(3) 0.5431(2)
H8 H -0.1233 0.6699 0.5125
H9 H -0.0676 0.7886 0.6043
C11 C -0.2646(3) 0.7508(5) 0.5846(3)
H10 H -0.2410 0.7461 0.6681
H11 H -0.3132 0.6657 0.5553
C12 C -0.3497(3) 0.8742(3) 0.5467(3)
H12 H -0.3442 0.9393 0.6101
H13 H -0.4421 0.8458 0.5177
C13 C -0.2985(2) 0.9418(3) 0.4533(2)
H14 H -0.3630 0.9326 0.3795
H15 H -0.2806 1.0411 0.4694
O2 O 0.0408(2) 0.9650(2) 0.22073(16)
loop_
_geom_bond_atom_site_label_1
_geom_bond_atom_site_label_2
_geom_bond_site_symmetry_1
_geom_bond_site_symmetry_2
O1 H1 1_555 1_555
C1 O1 1_555 1_555
C2 C1 1_555 1_555
H2 C2 1_555 1_555
C3 C2 1_555 1_555
H3 C3 1_555 1_555
C4 C3 1_555 1_555
H4 C4 1_555 1_555
C5 C4 1_555 1_555
H5 C5 1_555 1_555
C6 C1 1_555 1_555
C7 C6 1_555 1_555
C8 C7 1_555 1_555
H6 C8 1_555 1_555
C9 C8 1_555 1_555
H7 C9 1_555 1_555
N1 C9 1_555 1_555
C10 N1 1_555 1_555
H8 C10 1_555 1_555
H9 C10 1_555 1_555
C11 C10 1_555 1_555
H10 C11 1_555 1_555
H11 C11 1_555 1_555
C12 C11 1_555 1_555
H12 C12 1_555 1_555
H13 C12 1_555 1_555
C13 N1 1_555 1_555
H14 C13 1_555 1_555
H15 C13 1_555 1_555
O2 C7 1_555 1_555
C5 C6 1_555 1_555
C12 C13 1_555 1_555

#END
