
#######################################################################
#
#                 Cambridge Crystallographic Data Centre
#                                CCDC 
#
#######################################################################
#
# If this CIF has been generated from an entry in the Cambridge 
# Structural Database, then it will include bibliographic, chemical, 
# crystal, experimental, refinement or atomic coordinate data resulting 
# from the CCDC's data processing and validation procedures.
#
#######################################################################

data_BOMKAR
_chemical_formula_moiety         'C21 H15 Cl1 N2 O5'
_chemical_name_systematic        
4-Chloro-N-(2-(2-nitrophenyl)acetoxy)-N-phenylbenzamide
_symmetry_cell_setting           monoclinic
_symmetry_space_group_name_H-M   'P 21/n'
_symmetry_Int_Tables_number      14
_space_group_name_Hall           '-P 2yn'
loop_
_symmetry_equiv_pos_site_id
_symmetry_equiv_pos_as_xyz
1 x,y,z
2 1/2-x,1/2+y,1/2-z
3 -x,-y,-z
4 1/2+x,1/2-y,1/2+z
_cell_length_a                   12.4385(10)
_cell_length_b                   6.5036(5)
_cell_length_c                   24.7944(19)
_cell_angle_alpha                90
_cell_angle_beta                 103.045(9)
_cell_angle_gamma                90
_cell_volume                     1953.98
_exptl_crystal_colour            colorless
_exptl_crystal_description       block
_cell_formula_units_Z            4
loop_
_atom_site_label
_atom_site_type_symbol
_atom_site_fract_x
_atom_site_fract_y
_atom_site_fract_z
Cl1 Cl 0.90607(9) 0.32057(19) 0.07116(5)
O1 O 1.20873(17) 1.0841(4) 0.20323(8)
O2 O 1.31308(15) 1.3092(4) 0.14542(8)
O3 O 1.45000(16) 1.1122(4) 0.19569(9)
O4 O 1.5504(3) 1.4322(6) 0.12335(11)
O5 O 1.7173(3) 1.5135(5) 0.12993(13)
N1 N 1.26197(18) 1.1237(4) 0.12285(9)
N2 N 1.6409(3) 1.4764(5) 0.15097(14)
C1 C 1.0717(2) 0.8464(5) 0.07910(11)
H1 H 1.0754 0.9566 0.0557
C2 C 1.0011(2) 0.6847(6) 0.06068(13)
H2 H 0.9575 0.6857 0.0249
C3 C 0.9953(3) 0.5218(6) 0.09545(15)
C4 C 1.0592(3) 0.5177(6) 0.14829(15)
H3 H 1.0552 0.4071 0.1715
C5 C 1.1298(3) 0.6800(6) 0.16665(12)
H4 H 1.1731 0.6783 0.2025
C6 C 1.1370(2) 0.8451(5) 0.13232(11)
C7 C 1.2064(2) 1.0233(5) 0.15636(11)
C8 C 1.2964(2) 1.0567(6) 0.07454(10)
C9 C 1.2879(3) 1.1949(6) 0.03119(12)
H5 H 1.2597 1.3262 0.0336
C10 C 1.3220(3) 1.1348(8) -0.01536(14)
H6 H 1.3184 1.2269 -0.0444
C11 C 1.3611(3) 0.9401(9) -0.01915(15)
H7 H 1.3825 0.8996 -0.0512
C12 C 1.3691(3) 0.8043(7) 0.02366(15)
H8 H 1.3955 0.6720 0.0207
C13 C 1.3379(2) 0.8641(6) 0.07126(13)
H9 H 1.3451 0.7737 0.1009
C14 C 1.4108(2) 1.2764(6) 0.18442(12)
C15 C 1.4516(2) 1.4795(5) 0.20894(12)
H10 H 1.4090 1.5187 0.2356
H11 H 1.4389 1.5822 0.1798
C16 C 1.5718(2) 1.4795(4) 0.23706(11)
C17 C 1.6599(2) 1.4798(4) 0.21123(12)
C18 C 1.7691(3) 1.4820(4) 0.24107(18)
H12 H 1.8267 1.4833 0.2228
C19 C 1.7907(3) 1.4822(5) 0.29768(17)
H13 H 1.8633 1.4808 0.3180
C20 C 1.7066(3) 1.4844(5) 0.32426(14)
H14 H 1.7217 1.4869 0.3627
C21 C 1.5997(2) 1.4828(5) 0.29455(12)
H15 H 1.5433 1.4840 0.3136
loop_
_geom_bond_atom_site_label_1
_geom_bond_atom_site_label_2
_geom_bond_site_symmetry_1
_geom_bond_site_symmetry_2
Cl1 C3 1_555 1_555
O1 C7 1_555 1_555
O2 N1 1_555 1_555
O3 C14 1_555 1_555
O4 N2 1_555 1_555
O5 N2 1_555 1_555
N1 C7 1_555 1_555
N2 C17 1_555 1_555
C1 H1 1_555 1_555
C2 C1 1_555 1_555
H2 C2 1_555 1_555
C3 C2 1_555 1_555
C4 C3 1_555 1_555
H3 C4 1_555 1_555
C5 C4 1_555 1_555
H4 C5 1_555 1_555
C6 C1 1_555 1_555
C7 C6 1_555 1_555
C8 N1 1_555 1_555
C9 C8 1_555 1_555
H5 C9 1_555 1_555
C10 C9 1_555 1_555
H6 C10 1_555 1_555
C11 C10 1_555 1_555
H7 C11 1_555 1_555
C12 C11 1_555 1_555
H8 C12 1_555 1_555
C13 C8 1_555 1_555
H9 C13 1_555 1_555
C14 O2 1_555 1_555
C15 C14 1_555 1_555
H10 C15 1_555 1_555
H11 C15 1_555 1_555
C16 C15 1_555 1_555
C17 C16 1_555 1_555
C18 C17 1_555 1_555
H12 C18 1_555 1_555
C19 C18 1_555 1_555
H13 C19 1_555 1_555
C20 C19 1_555 1_555
H14 C20 1_555 1_555
C21 C16 1_555 1_555
H15 C21 1_555 1_555
C5 C6 1_555 1_555
C12 C13 1_555 1_555
C20 C21 1_555 1_555

#END
