
#######################################################################
#
#                 Cambridge Crystallographic Data Centre
#                                CCDC 
#
#######################################################################
#
# If this CIF has been generated from an entry in the Cambridge 
# Structural Database, then it will include bibliographic, chemical, 
# crystal, experimental, refinement or atomic coordinate data resulting 
# from the CCDC's data processing and validation procedures.
#
#######################################################################

data_BOMQOL
_chemical_formula_moiety         'C7 H9 N1 O2'
_chemical_name_systematic        6-ethoxypyridinium-2-olate
_symmetry_cell_setting           monoclinic
_symmetry_space_group_name_H-M   'P 21/n'
_symmetry_Int_Tables_number      14
_space_group_name_Hall           '-P 2yn'
loop_
_symmetry_equiv_pos_site_id
_symmetry_equiv_pos_as_xyz
1 x,y,z
2 1/2-x,1/2+y,1/2-z
3 -x,-y,-z
4 1/2+x,1/2-y,1/2+z
_cell_length_a                   8.3037(11)
_cell_length_b                   7.0999(6)
_cell_length_c                   12.0767(15)
_cell_angle_alpha                90
_cell_angle_beta                 93.402(13)
_cell_angle_gamma                90
_cell_volume                     710.732
_exptl_crystal_colour            white
_exptl_crystal_description       block
_cell_formula_units_Z            4
loop_
_atom_site_label
_atom_site_type_symbol
_atom_site_fract_x
_atom_site_fract_y
_atom_site_fract_z
C1 C 0.6392(2) 0.3124(3) 0.59009(17)
C2 C 0.7456(3) 0.1850(3) 0.64769(19)
H1 H 0.7774 0.2064 0.7218
C3 C 0.8004(3) 0.0333(3) 0.5951(2)
H2 H 0.8694 -0.0493 0.6344
C4 C 0.7581(3) -0.0052(3) 0.4841(2)
H3 H 0.7979 -0.1108 0.4492
C5 C 0.6563(2) 0.1176(2) 0.42860(18)
C6 C 0.6502(3) -0.0472(3) 0.2572(2)
H4 H 0.6240 -0.1649 0.2928
H5 H 0.7658 -0.0431 0.2495
C7 C 0.5627(3) -0.0328(4) 0.1469(2)
H6 H 0.5910 -0.1376 0.1017
H7 H 0.5919 0.0825 0.1117
H8 H 0.4486 -0.0338 0.1557
N1 N 0.60093(19) 0.2701(2) 0.48106(14)
H9 H 0.538(3) 0.350(3) 0.445(2)
O1 O 0.58033(19) 0.4567(2) 0.63138(12)
O2 O 0.60054(17) 0.11012(17) 0.32261(12)
loop_
_geom_bond_atom_site_label_1
_geom_bond_atom_site_label_2
_geom_bond_site_symmetry_1
_geom_bond_site_symmetry_2
C1 C2 1_555 1_555
C2 H1 1_555 1_555
C3 C2 1_555 1_555
H2 C3 1_555 1_555
C4 C3 1_555 1_555
H3 C4 1_555 1_555
C5 C4 1_555 1_555
C6 H4 1_555 1_555
H5 C6 1_555 1_555
C7 C6 1_555 1_555
H6 C7 1_555 1_555
H7 C7 1_555 1_555
H8 C7 1_555 1_555
N1 C1 1_555 1_555
H9 N1 1_555 1_555
O1 C1 1_555 1_555
O2 C5 1_555 1_555
C5 N1 1_555 1_555
C6 O2 1_555 1_555

#END
