
#######################################################################
#
#                 Cambridge Crystallographic Data Centre
#                                CCDC 
#
#######################################################################
#
# If this CIF has been generated from an entry in the Cambridge 
# Structural Database, then it will include bibliographic, chemical, 
# crystal, experimental, refinement or atomic coordinate data resulting 
# from the CCDC's data processing and validation procedures.
#
#######################################################################

data_BOMXAE
_chemical_formula_moiety         'C80 H50,2(C2 H2 Cl4)'
_chemical_name_systematic        
"1,6-bis(10-(1,1':3',1''-terphenyl-5'-yl)-9-anthryl)pyrene 1,1,2,2-tetrachloroethane solvate"
_symmetry_cell_setting           triclinic
_symmetry_space_group_name_H-M   'P -1'
_symmetry_Int_Tables_number      2
_space_group_name_Hall           '-P 1'
loop_
_symmetry_equiv_pos_site_id
_symmetry_equiv_pos_as_xyz
1 x,y,z
2 -x,-y,-z
_cell_length_a                   9.326(2)
_cell_length_b                   9.491(2)
_cell_length_c                   20.374(7)
_cell_angle_alpha                91.17(3)
_cell_angle_beta                 103.492(11)
_cell_angle_gamma                115.22(2)
_cell_volume                     1571.65
_cell_formula_units_Z            1
_exptl_crystal_recrystallization_method tetrachloroethane
_exptl_crystal_preparation       Luminescent
loop_
_atom_site_label
_atom_site_type_symbol
_atom_site_fract_x
_atom_site_fract_y
_atom_site_fract_z
C1 C 0.2317(9) 0.2520(9) 0.9307(5)
C2 C 0.3742(10) 0.2615(10) 0.9731(5)
H1 H 0.4762 0.3352 0.9670
C3 C 0.3763(9) 0.1684(10) 1.0247(5)
H2 H 0.4780 0.1767 1.0520
C4 C 0.2257(9) 0.0604(9) 1.0365(5)
C5 C 0.0775(9) 0.0543(9) 0.9946(5)
C6 C 0.0781(9) 0.1456(9) 0.9394(5)
C7 C -0.0764(10) 0.1260(9) 0.8969(4)
H3 H -0.0776 0.1836 0.8594
C8 C -0.2215(9) 0.0277(9) 0.9085(5)
H4 H -0.3217 0.0181 0.8792
C9 C 0.2386(9) 0.3524(11) 0.8739(5)
C10 C 0.2713(9) 0.3064(10) 0.8150(5)
C11 C 0.2843(9) 0.4045(11) 0.7606(5)
C12 C 0.2597(9) 0.5385(10) 0.7667(5)
C13 C 0.2261(9) 0.5830(10) 0.8246(5)
C14 C 0.2162(9) 0.4875(10) 0.8797(5)
C15 C 0.1829(9) 0.5347(11) 0.9384(5)
H5 H 0.1789 0.4740 0.9751
C16 C 0.1565(9) 0.6634(12) 0.9442(5)
H6 H 0.1304 0.6892 0.9838
C17 C 0.1677(10) 0.7608(10) 0.8911(6)
H7 H 0.1523 0.8529 0.8956
C18 C 0.2009(9) 0.7192(10) 0.8341(6)
H8 H 0.2075 0.7840 0.7989
C19 C 0.2928(9) 0.1660(10) 0.8051(6)
H9 H 0.2871 0.1003 0.8399
C20 C 0.3211(10) 0.1272(10) 0.7468(6)
H10 H 0.3321 0.0331 0.7411
C21 C 0.3347(10) 0.2234(12) 0.6940(5)
H11 H 0.3573 0.1947 0.6540
C22 C 0.3151(9) 0.3586(10) 0.7009(5)
H12 H 0.3224 0.4217 0.6650
C23 C 0.2658(10) 0.6390(9) 0.7098(5)
C24 C 0.1204(11) 0.6193(10) 0.6639(5)
H13 H 0.0182 0.5412 0.6681
C25 C 0.1226(10) 0.7113(11) 0.6126(5)
C26 C 0.2727(10) 0.8300(10) 0.6078(5)
H14 H 0.2733 0.9013 0.5757
C27 C 0.4210(11) 0.8450(9) 0.6496(5)
C28 C 0.4136(11) 0.7533(10) 0.7033(5)
H15 H 0.5127 0.7704 0.7359
C29 C 0.5825(11) 0.9617(10) 0.6405(5)
C30 C 0.7309(12) 0.9828(10) 0.6823(6)
H16 H 0.7316 0.9249 0.7197
C31 C 0.8820(11) 1.0872(11) 0.6714(7)
H17 H 0.9825 1.0990 0.7013
C32 C 0.8836(13) 1.1740(13) 0.6162(6)
H18 H 0.9835 1.2380 0.6055
C33 C 0.7373(15) 1.1633(13) 0.5788(7)
H19 H 0.7381 1.2308 0.5449
C34 C 0.5807(12) 1.0547(12) 0.5879(6)
H20 H 0.4802 1.0464 0.5594
C35 C -0.0353(11) 0.6988(13) 0.5639(5)
C36 C -0.1466(14) 0.5529(12) 0.5278(7)
H21 H -0.1219 0.4663 0.5351
C37 C -0.2930(13) 0.5279(14) 0.4815(6)
H22 H -0.3664 0.4283 0.4554
C38 C -0.3260(13) 0.6584(18) 0.4755(6)
H23 H -0.4269 0.6450 0.4454
C39 C -0.2213(14) 0.8026(14) 0.5102(6)
H24 H -0.2486 0.8882 0.5054
C40 C -0.0679(13) 0.8227(14) 0.5546(6)
H25 H 0.0108 0.9241 0.5774
C1A C -0.2317(9) -0.2520(9) 1.0693(5)
C2A C -0.3742(10) -0.2615(10) 1.0269(5)
H1A H -0.4762 -0.3352 1.0330
C3A C -0.3763(9) -0.1684(10) 0.9753(5)
H2A H -0.4780 -0.1767 0.9480
C4A C -0.2257(9) -0.0604(9) 0.9635(5)
C5A C -0.0775(9) -0.0543(9) 1.0054(5)
C6A C -0.0781(9) -0.1456(9) 1.0606(5)
C7A C 0.0764(10) -0.1260(9) 1.1031(4)
H3A H 0.0776 -0.1836 1.1406
C8A C 0.2215(9) -0.0277(9) 1.0915(5)
H4A H 0.3217 -0.0181 1.1208
C9A C -0.2386(9) -0.3524(11) 1.1261(5)
C10A C -0.2713(9) -0.3064(10) 1.1850(5)
C11A C -0.2843(9) -0.4045(11) 1.2394(5)
C12A C -0.2597(9) -0.5385(10) 1.2333(5)
C13A C -0.2261(9) -0.5830(10) 1.1754(5)
C14A C -0.2162(9) -0.4875(10) 1.1203(5)
C15A C -0.1829(9) -0.5347(11) 1.0616(5)
H5A H -0.1789 -0.4740 1.0249
C16A C -0.1565(9) -0.6634(12) 1.0558(5)
H6A H -0.1304 -0.6892 1.0162
C17A C -0.1677(10) -0.7608(10) 1.1089(6)
H7A H -0.1523 -0.8529 1.1044
C18A C -0.2009(9) -0.7192(10) 1.1659(6)
H8A H -0.2075 -0.7840 1.2011
C19A C -0.2928(9) -0.1660(10) 1.1949(6)
H9A H -0.2871 -0.1003 1.1601
C20A C -0.3211(10) -0.1272(10) 1.2532(6)
H10A H -0.3321 -0.0331 1.2589
C21A C -0.3347(10) -0.2234(12) 1.3060(5)
H11A H -0.3573 -0.1947 1.3460
C22A C -0.3151(9) -0.3586(10) 1.2991(5)
H12A H -0.3224 -0.4217 1.3350
C23A C -0.2658(10) -0.6390(9) 1.2902(5)
C24A C -0.1204(11) -0.6193(10) 1.3361(5)
H13A H -0.0182 -0.5412 1.3319
C25A C -0.1226(10) -0.7113(11) 1.3874(5)
C26A C -0.2727(10) -0.8300(10) 1.3922(5)
H14A H -0.2733 -0.9013 1.4243
C27A C -0.4210(11) -0.8450(9) 1.3504(5)
C28A C -0.4136(11) -0.7533(10) 1.2967(5)
H15A H -0.5127 -0.7704 1.2641
C29A C -0.5825(11) -0.9617(10) 1.3595(5)
C30A C -0.7309(12) -0.9828(10) 1.3177(6)
H16A H -0.7316 -0.9249 1.2803
C31A C -0.8820(11) -1.0872(11) 1.3286(7)
H17A H -0.9825 -1.0990 1.2987
C32A C -0.8836(13) -1.1740(13) 1.3838(6)
H18A H -0.9835 -1.2380 1.3945
C33A C -0.7373(15) -1.1633(13) 1.4212(7)
H19A H -0.7381 -1.2308 1.4551
C34A C -0.5807(12) -1.0547(12) 1.4121(6)
H20A H -0.4802 -1.0464 1.4406
C35A C 0.0353(11) -0.6988(13) 1.4361(5)
C36A C 0.1466(14) -0.5529(12) 1.4722(7)
H21A H 0.1219 -0.4663 1.4649
C37A C 0.2930(13) -0.5279(14) 1.5185(6)
H22A H 0.3664 -0.4283 1.5446
C38A C 0.3260(13) -0.6584(18) 1.5245(6)
H23A H 0.4269 -0.6450 1.5546
C39A C 0.2213(14) -0.8026(14) 1.4898(6)
H24A H 0.2486 -0.8882 1.4946
C40A C 0.0679(13) -0.8227(14) 1.4454(6)
H25A H -0.0108 -0.9241 1.4226
Cl1 Cl -0.2760(3) 0.3809(3) 0.87999(15)
Cl2 Cl -0.2399(3) 0.6190(3) 0.70439(17)
C43 C -0.2671(19) 0.5197(12) 0.8277(6)
H28 H -0.3896 0.4699 0.8097
C44 C -0.247(2) 0.4872(13) 0.7618(6)
H29 H -0.3692 0.4296 0.7432
Cl3 Cl -0.2570(8) 0.7107(8) 0.8345(4)
Cl4 Cl -0.2323(8) 0.3091(8) 0.7521(5)
C41? C -0.255(2) 0.4307(16) 0.8004(5)
H26? H -0.1330 0.4843 0.8189
C42? C -0.255(3) 0.5811(17) 0.7859(6)
H27? H -0.1329 0.6379 0.8046
Cl5? Cl -0.2365(10) 0.3292(10) 0.7316(5)
Cl6? Cl -0.2857(8) 0.6607(10) 0.8585(4)
loop_
_geom_bond_atom_site_label_1
_geom_bond_atom_site_label_2
_geom_bond_site_symmetry_1
_geom_bond_site_symmetry_2
C1 C2 1_555 1_555
C2 H1 1_555 1_555
C3 C2 1_555 1_555
H2 C3 1_555 1_555
C4 C3 1_555 1_555
C5 C4 1_555 1_555
C6 C1 1_555 1_555
C7 C6 1_555 1_555
H3 C7 1_555 1_555
C8 C7 1_555 1_555
H4 C8 1_555 1_555
C9 C1 1_555 1_555
C10 C9 1_555 1_555
C11 C10 1_555 1_555
C12 C11 1_555 1_555
C13 C12 1_555 1_555
C14 C9 1_555 1_555
C15 C14 1_555 1_555
H5 C15 1_555 1_555
C16 C15 1_555 1_555
H6 C16 1_555 1_555
C17 C16 1_555 1_555
H7 C17 1_555 1_555
C18 C13 1_555 1_555
H8 C18 1_555 1_555
C19 C10 1_555 1_555
H9 C19 1_555 1_555
C20 C19 1_555 1_555
H10 C20 1_555 1_555
C21 C20 1_555 1_555
H11 C21 1_555 1_555
C22 C11 1_555 1_555
H12 C22 1_555 1_555
C23 C12 1_555 1_555
C24 C23 1_555 1_555
H13 C24 1_555 1_555
C25 C24 1_555 1_555
C26 C25 1_555 1_555
H14 C26 1_555 1_555
C27 C26 1_555 1_555
C28 C23 1_555 1_555
H15 C28 1_555 1_555
C29 C27 1_555 1_555
C30 C29 1_555 1_555
H16 C30 1_555 1_555
C31 C30 1_555 1_555
H17 C31 1_555 1_555
C32 C31 1_555 1_555
H18 C32 1_555 1_555
C33 C32 1_555 1_555
H19 C33 1_555 1_555
C34 C29 1_555 1_555
H20 C34 1_555 1_555
C35 C25 1_555 1_555
C36 C35 1_555 1_555
H21 C36 1_555 1_555
C37 C36 1_555 1_555
H22 C37 1_555 1_555
C38 C37 1_555 1_555
H23 C38 1_555 1_555
C39 C38 1_555 1_555
H24 C39 1_555 1_555
C40 C35 1_555 1_555
H25 C40 1_555 1_555
Cl1 C43 1_555 1_555
Cl2 C44 1_555 1_555
C43 H28 1_555 1_555
C44 C43 1_555 1_555
H29 C44 1_555 1_555
Cl3 C43 1_555 1_555
Cl4 C44 1_555 1_555
C1A C2A 1_555 1_555
C2A H1A 1_555 1_555
C3A C2A 1_555 1_555
H2A C3A 1_555 1_555
C4A C8 1_555 1_555
C5A C5 1_555 1_555
C6A C1A 1_555 1_555
C7A C6A 1_555 1_555
H3A C7A 1_555 1_555
C8A C4 1_555 1_555
H4A C8A 1_555 1_555
C9A C1A 1_555 1_555
C10A C9A 1_555 1_555
C11A C10A 1_555 1_555
C12A C11A 1_555 1_555
C13A C12A 1_555 1_555
C14A C9A 1_555 1_555
C15A C14A 1_555 1_555
H5A C15A 1_555 1_555
C16A C15A 1_555 1_555
H6A C16A 1_555 1_555
C17A C16A 1_555 1_555
H7A C17A 1_555 1_555
C18A C13A 1_555 1_555
H8A C18A 1_555 1_555
C19A C10A 1_555 1_555
H9A C19A 1_555 1_555
C20A C19A 1_555 1_555
H10A C20A 1_555 1_555
C21A C20A 1_555 1_555
H11A C21A 1_555 1_555
C22A C11A 1_555 1_555
H12A C22A 1_555 1_555
C23A C12A 1_555 1_555
C24A C23A 1_555 1_555
H13A C24A 1_555 1_555
C25A C24A 1_555 1_555
C26A C25A 1_555 1_555
H14A C26A 1_555 1_555
C27A C26A 1_555 1_555
C28A C23A 1_555 1_555
H15A C28A 1_555 1_555
C29A C27A 1_555 1_555
C30A C29A 1_555 1_555
H16A C30A 1_555 1_555
C31A C30A 1_555 1_555
H17A C31A 1_555 1_555
C32A C31A 1_555 1_555
H18A C32A 1_555 1_555
C33A C32A 1_555 1_555
H19A C33A 1_555 1_555
C34A C29A 1_555 1_555
H20A C34A 1_555 1_555
C35A C25A 1_555 1_555
C36A C35A 1_555 1_555
H21A C36A 1_555 1_555
C37A C36A 1_555 1_555
H22A C37A 1_555 1_555
C38A C37A 1_555 1_555
H23A C38A 1_555 1_555
C39A C38A 1_555 1_555
H24A C39A 1_555 1_555
C40A C35A 1_555 1_555
H25A C40A 1_555 1_555
C5 C6 1_555 1_555
C13 C14 1_555 1_555
C17 C18 1_555 1_555
C21 C22 1_555 1_555
C27 C28 1_555 1_555
C33 C34 1_555 1_555
C39 C40 1_555 1_555
C3A C4A 1_555 1_555
C4A C5A 1_555 1_555
C5A C6A 1_555 1_555
C7A C8A 1_555 1_555
C13A C14A 1_555 1_555
C17A C18A 1_555 1_555
C21A C22A 1_555 1_555
C27A C28A 1_555 1_555
C33A C34A 1_555 1_555
C39A C40A 1_555 1_555

#END
