
#######################################################################
#
#                 Cambridge Crystallographic Data Centre
#                                CCDC 
#
#######################################################################
#
# If this CIF has been generated from an entry in the Cambridge 
# Structural Database, then it will include bibliographic, chemical, 
# crystal, experimental, refinement or atomic coordinate data resulting 
# from the CCDC's data processing and validation procedures.
#
#######################################################################

data_BONHES
_chemical_formula_moiety         'C23 H17 Br2 F9'
_chemical_name_systematic        
2',7'-Dibromo-3-methyl-4-(2,2,3,3,4,4,5,5,5-nonafluoropentyl)spiro(cyclopentane-1,9'-fluorene)
_symmetry_cell_setting           monoclinic
_symmetry_space_group_name_H-M   'C 2/c'
_symmetry_Int_Tables_number      15
_space_group_name_Hall           '-C 2yn'
loop_
_symmetry_equiv_pos_site_id
_symmetry_equiv_pos_as_xyz
1 x,y,z
2 -x,y,1/2-z
3 1/2+x,1/2+y,z
4 1/2-x,1/2+y,1/2-z
5 -x,-y,-z
6 x,-y,1/2+z
7 1/2-x,1/2-y,-z
8 1/2+x,1/2-y,1/2+z
_cell_length_a                   33.150(3)
_cell_length_b                   13.5383(12)
_cell_length_c                   11.0627(10)
_cell_angle_alpha                90
_cell_angle_beta                 109.0360(10)
_cell_angle_gamma                90
_cell_volume                     4693.37
_cell_formula_units_Z            8
_exptl_crystal_recrystallization_method hexane
loop_
_atom_site_label
_atom_site_type_symbol
_atom_site_fract_x
_atom_site_fract_y
_atom_site_fract_z
Br1 Br 0.220292(17) 1.11831(4) -0.03380(5)
Br2 Br 0.40913(2) 0.47415(4) 0.19408(7)
C1 C 0.24997(13) 0.9976(3) -0.0281(4)
C2 C 0.24384(13) 0.9453(3) -0.1403(4)
H1 H 0.2248 0.9682 -0.2170
C3 C 0.26614(14) 0.8590(3) -0.1371(4)
H2 H 0.2626 0.8238 -0.2120
C4 C 0.29395(12) 0.8247(3) -0.0217(4)
C5 C 0.29945(12) 0.8783(3) 0.0899(4)
C6 C 0.27758(13) 0.9650(3) 0.0884(4)
H3 H 0.2812 1.0006 0.1631
C7 C 0.32036(13) 0.7361(3) 0.0095(4)
C8 C 0.32642(15) 0.6604(3) -0.0677(4)
H4 H 0.3126 0.6616 -0.1556
C9 C 0.35329(16) 0.5833(4) -0.0116(5)
H5 H 0.3578 0.5321 -0.0619
C10 C 0.37352(15) 0.5819(3) 0.1190(5)
C11 C 0.36845(13) 0.6577(3) 0.1970(4)
H6 H 0.3825 0.6563 0.2847
C12 C 0.34186(12) 0.7355(3) 0.1406(4)
C13 C 0.33241(12) 0.8281(3) 0.2042(3)
C14 C 0.37245(13) 0.8942(3) 0.2593(4)
H7 H 0.3982 0.8544 0.2845
H8 H 0.3743 0.9423 0.1964
C15 C 0.36646(13) 0.9453(3) 0.3750(4)
H9 H 0.3443 0.9957 0.3430
C16 C 0.34787(14) 0.8639(3) 0.4371(4)
H10 H 0.3319 0.8941 0.4882
C17 C 0.31654(13) 0.8112(3) 0.3216(3)
H11 H 0.2881 0.8380 0.3038
H12 H 0.3157 0.7411 0.3389
C18 C 0.40605(14) 0.9969(3) 0.4639(4)
H13 H 0.4003 1.0174 0.5407
H14 H 0.4294 0.9498 0.4891
C19 C 0.41982(14) 1.0848(3) 0.4062(4)
C20 C 0.45321(15) 1.1501(3) 0.5000(4)
C21 C 0.47468(18) 1.2317(4) 0.4436(6)
C22 C 0.4984(2) 1.3111(5) 0.5323(7)
C23 C 0.38086(16) 0.7929(4) 0.5209(5)
H15 H 0.3960 0.7617 0.4707
H16 H 0.3668 0.7435 0.5548
H17 H 0.4006 0.8287 0.5900
F1 F 0.43661(9) 1.0575(2) 0.3145(2)
F2 F 0.38628(9) 1.1433(2) 0.3449(3)
F3 F 0.48404(10) 1.0928(2) 0.5738(3)
F4 F 0.43447(11) 1.1936(3) 0.5766(3)
F5 F 0.50412(12) 1.1845(3) 0.4005(4)
F6 F 0.44694(13) 1.2721(3) 0.3417(4)
F7 F 0.52531(13) 1.2722(3) 0.6349(4)
F8 F 0.47255(15) 1.3676(3) 0.5669(6)
F9 F 0.51970(15) 1.3668(3) 0.4777(5)
loop_
_geom_bond_atom_site_label_1
_geom_bond_atom_site_label_2
_geom_bond_site_symmetry_1
_geom_bond_site_symmetry_2
Br1 C1 1_555 1_555
Br2 C10 1_555 1_555
C1 C2 1_555 1_555
C2 H1 1_555 1_555
C3 C2 1_555 1_555
H2 C3 1_555 1_555
C4 C3 1_555 1_555
C5 C4 1_555 1_555
C6 C1 1_555 1_555
H3 C6 1_555 1_555
C7 C4 1_555 1_555
C8 C7 1_555 1_555
H4 C8 1_555 1_555
C9 C8 1_555 1_555
H5 C9 1_555 1_555
C10 C9 1_555 1_555
C11 C10 1_555 1_555
H6 C11 1_555 1_555
C12 C7 1_555 1_555
C13 C5 1_555 1_555
C14 C13 1_555 1_555
H7 C14 1_555 1_555
H8 C14 1_555 1_555
C15 C14 1_555 1_555
H9 C15 1_555 1_555
C16 C15 1_555 1_555
H10 C16 1_555 1_555
C17 C13 1_555 1_555
H11 C17 1_555 1_555
H12 C17 1_555 1_555
C18 C15 1_555 1_555
H13 C18 1_555 1_555
H14 C18 1_555 1_555
C19 C18 1_555 1_555
C20 C19 1_555 1_555
C21 C20 1_555 1_555
C22 C21 1_555 1_555
C23 C16 1_555 1_555
H15 C23 1_555 1_555
H16 C23 1_555 1_555
H17 C23 1_555 1_555
F1 C19 1_555 1_555
F2 C19 1_555 1_555
F3 C20 1_555 1_555
F4 C20 1_555 1_555
F5 C21 1_555 1_555
F6 C21 1_555 1_555
F7 C22 1_555 1_555
F8 C22 1_555 1_555
F9 C22 1_555 1_555
C5 C6 1_555 1_555
C11 C12 1_555 1_555
C12 C13 1_555 1_555
C16 C17 1_555 1_555

#END
