
#######################################################################
#
#                 Cambridge Crystallographic Data Centre
#                                CCDC 
#
#######################################################################
#
# If this CIF has been generated from an entry in the Cambridge 
# Structural Database, then it will include bibliographic, chemical, 
# crystal, experimental, refinement or atomic coordinate data resulting 
# from the CCDC's data processing and validation procedures.
#
#######################################################################

data_BONHUJ
_chemical_formula_moiety         'C27 H33 N1 O7'
_chemical_name_systematic        
(7-(hydroxymethyl)-5-(3,4,5-trimethoxyphenyl)-5,6,7,8-tetrahydronaphtho[2,3-d][1,3]dioxol-6-yl)(piperidin-1-yl)methanone
_symmetry_cell_setting           orthorhombic
_symmetry_space_group_name_H-M   'P 21 21 21'
_symmetry_Int_Tables_number      19
_space_group_name_Hall           'P 2ac 2ab'
loop_
_symmetry_equiv_pos_site_id
_symmetry_equiv_pos_as_xyz
1 x,y,z
2 1/2-x,-y,1/2+z
3 1/2+x,1/2-y,-z
4 -x,1/2+y,1/2-z
_cell_length_a                   11.0202(4)
_cell_length_b                   12.6774(5)
_cell_length_c                   17.6818(8)
_cell_angle_alpha                90
_cell_angle_beta                 90
_cell_angle_gamma                90
_cell_volume                     2470.28
_exptl_crystal_colour            colorless
_exptl_crystal_description       block
_cell_formula_units_Z            4
loop_
_atom_site_label
_atom_site_type_symbol
_atom_site_fract_x
_atom_site_fract_y
_atom_site_fract_z
O1 O -0.4106(2) 0.05444(19) 0.10700(13)
O2 O -0.2091(2) 0.00814(17) 0.12043(13)
O3 O 0.32336(17) 0.24992(18) 0.28562(15)
O4 O 0.32042(18) 0.37306(16) 0.16437(13)
O5 O 0.1108(2) 0.46012(18) 0.11384(12)
O6 O -0.4533(3) 0.2959(2) 0.45987(19)
H1 H -0.4679 0.2493 0.4907
O7 O -0.0488(2) 0.36408(17) 0.45462(12)
N1 N -0.1043(2) 0.52926(19) 0.42505(14)
C1 C -0.3146(2) 0.3657(2) 0.37085(16)
H2 H -0.3447 0.4329 0.3909
C2 C -0.3857(3) 0.3420(2) 0.29850(17)
H3 H -0.4685 0.3240 0.3118
H4 H -0.3880 0.4050 0.2674
C3 C -0.3316(2) 0.2528(2) 0.25300(16)
C4 C -0.4061(3) 0.1979(2) 0.20146(17)
H5 H -0.4876 0.2152 0.1962
C5 C -0.3564(3) 0.1196(2) 0.15983(17)
C6 C -0.3169(3) -0.0121(3) 0.0796(2)
H6 H -0.3401 -0.0854 0.0857
H7 H -0.3036 0.0012 0.0262
C7 C -0.2354(3) 0.0917(2) 0.16729(17)
C8 C -0.1609(2) 0.1425(2) 0.21724(17)
H8 H -0.0801 0.1226 0.2224
C9 C -0.2087(2) 0.2246(2) 0.26024(15)
C10 C -0.1234(2) 0.2813(2) 0.31464(16)
H9 H -0.1061 0.2330 0.3565
C11 C -0.1809(2) 0.3820(2) 0.34864(15)
H10 H -0.1798 0.4357 0.3088
C12 C -0.0035(2) 0.3075(2) 0.27669(16)
C13 C 0.1045(2) 0.2665(2) 0.30267(16)
H11 H 0.1052 0.2234 0.3452
C14 C 0.2125(2) 0.2895(2) 0.26536(17)
C15 C 0.2128(2) 0.3551(2) 0.20303(17)
C16 C 0.1031(3) 0.3965(2) 0.17621(15)
C17 C -0.0039(2) 0.3715(2) 0.21319(16)
H12 H -0.0770 0.3981 0.1951
C18 C -0.3343(3) 0.2826(3) 0.43130(18)
H13 H -0.3252 0.2126 0.4099
H14 H -0.2754 0.2909 0.4716
C19 C -0.1057(3) 0.4246(2) 0.41338(15)
C20 C -0.1793(3) 0.6085(2) 0.38712(18)
H15 H -0.2230 0.5758 0.3457
H16 H -0.1275 0.6631 0.3662
C21 C -0.2685(3) 0.6576(3) 0.4413(2)
H17 H -0.3267 0.6047 0.4573
H18 H -0.3126 0.7134 0.4157
C22 C -0.2049(5) 0.7024(3) 0.5099(2)
H19 H -0.2648 0.7252 0.5466
H20 H -0.1574 0.7634 0.4951
C23 C -0.1222(5) 0.6206(4) 0.5458(2)
H21 H -0.0759 0.6533 0.5862
H22 H -0.1709 0.5647 0.5677
C24 C -0.0359(4) 0.5742(3) 0.4879(2)
H23 H 0.0181 0.6287 0.4693
H24 H 0.0131 0.5197 0.5114
C25 C 0.3265(3) 0.1693(3) 0.3413(2)
H25 H 0.2765 0.1114 0.3253
H26 H 0.2966 0.1966 0.3884
H27 H 0.4085 0.1453 0.3477
C26 C 0.3693(3) 0.4746(2) 0.1724(2)
H28 H 0.4320 0.4849 0.1354
H29 H 0.4027 0.4823 0.2222
H30 H 0.3065 0.5260 0.1649
C27 C 0.0012(3) 0.5038(3) 0.0862(2)
H31 H 0.0189 0.5528 0.0463
H32 H -0.0399 0.5399 0.1265
H33 H -0.0497 0.4484 0.0672
loop_
_geom_bond_atom_site_label_1
_geom_bond_atom_site_label_2
_geom_bond_site_symmetry_1
_geom_bond_site_symmetry_2
O1 C5 1_555 1_555
O2 C6 1_555 1_555
O3 C14 1_555 1_555
O4 C15 1_555 1_555
O5 C16 1_555 1_555
O6 H1 1_555 1_555
O7 C19 1_555 1_555
N1 C19 1_555 1_555
C1 H2 1_555 1_555
C2 C1 1_555 1_555
H3 C2 1_555 1_555
H4 C2 1_555 1_555
C3 C2 1_555 1_555
C4 C3 1_555 1_555
H5 C4 1_555 1_555
C5 C4 1_555 1_555
C6 O1 1_555 1_555
H6 C6 1_555 1_555
H7 C6 1_555 1_555
C7 O2 1_555 1_555
C8 C7 1_555 1_555
H8 C8 1_555 1_555
C9 C3 1_555 1_555
C10 C9 1_555 1_555
H9 C10 1_555 1_555
C11 C1 1_555 1_555
H10 C11 1_555 1_555
C12 C10 1_555 1_555
C13 C12 1_555 1_555
H11 C13 1_555 1_555
C14 C13 1_555 1_555
C15 C14 1_555 1_555
C16 C15 1_555 1_555
C17 C12 1_555 1_555
H12 C17 1_555 1_555
C18 O6 1_555 1_555
H13 C18 1_555 1_555
H14 C18 1_555 1_555
C19 C11 1_555 1_555
C20 N1 1_555 1_555
H15 C20 1_555 1_555
H16 C20 1_555 1_555
C21 C20 1_555 1_555
H17 C21 1_555 1_555
H18 C21 1_555 1_555
C22 C21 1_555 1_555
H19 C22 1_555 1_555
H20 C22 1_555 1_555
C23 C22 1_555 1_555
H21 C23 1_555 1_555
H22 C23 1_555 1_555
C24 N1 1_555 1_555
H23 C24 1_555 1_555
H24 C24 1_555 1_555
C25 O3 1_555 1_555
H25 C25 1_555 1_555
H26 C25 1_555 1_555
H27 C25 1_555 1_555
C26 O4 1_555 1_555
H28 C26 1_555 1_555
H29 C26 1_555 1_555
H30 C26 1_555 1_555
C27 O5 1_555 1_555
H31 C27 1_555 1_555
H32 C27 1_555 1_555
H33 C27 1_555 1_555
C1 C18 1_555 1_555
C5 C7 1_555 1_555
C8 C9 1_555 1_555
C10 C11 1_555 1_555
C16 C17 1_555 1_555
C23 C24 1_555 1_555

#END
