
#######################################################################
#
#                 Cambridge Crystallographic Data Centre
#                                CCDC 
#
#######################################################################
#
# If this CIF has been generated from an entry in the Cambridge 
# Structural Database, then it will include bibliographic, chemical, 
# crystal, experimental, refinement or atomic coordinate data resulting 
# from the CCDC's data processing and validation procedures.
#
#######################################################################

data_BONMIA01
_chemical_formula_moiety         'C20 H16'
_chemical_name_systematic        
(2)(1,3)Benzeno(0)(1,2)benzeno(0)(1,3)benzenophane
_symmetry_cell_setting           orthorhombic
_symmetry_space_group_name_H-M   'P 21 21 21'
_symmetry_Int_Tables_number      19
_space_group_name_Hall           'P 2ac 2ab'
loop_
_symmetry_equiv_pos_site_id
_symmetry_equiv_pos_as_xyz
1 x,y,z
2 1/2-x,-y,1/2+z
3 -x,1/2+y,1/2-z
4 1/2+x,1/2-y,-z
_cell_length_a                   7.337(1)
_cell_length_b                   13.603(1)
_cell_length_c                   13.877(1)
_cell_angle_alpha                90
_cell_angle_beta                 90
_cell_angle_gamma                90
_cell_volume                     1385
_exptl_crystal_colour            colorless
_exptl_crystal_description       blocks
_cell_formula_units_Z            4
loop_
_atom_site_label
_atom_site_type_symbol
_atom_site_fract_x
_atom_site_fract_y
_atom_site_fract_z
C1 C 0.2263(3) 0.66555(18) 0.49540(17)
H1 H 0.3036 0.7231 0.5010
H2 H 0.1237 0.6737 0.5387
C2 C 0.1560(3) 0.65574(17) 0.38935(17)
H3 H 0.0860 0.5956 0.3827
H4 H 0.0767 0.7107 0.3742
C3 C 0.3140(3) 0.65414(15) 0.32037(15)
C4 C 0.3827(3) 0.74029(16) 0.28110(18)
H5 H 0.3132 0.7974 0.2836
C5 C 0.5529(3) 0.74246(17) 0.2384(2)
H6 H 0.5925 0.7988 0.2067
C6 C 0.6647(3) 0.65995(16) 0.24291(16)
H7 H 0.7832 0.6631 0.2193
C7 C 0.6001(2) 0.57307(14) 0.28256(12)
C8 C 0.4170(3) 0.56870(15) 0.31022(13)
H8 H 0.3633 0.5080 0.3220
C9 C 0.7340(2) 0.49504(13) 0.31087(13)
C10 C 0.7344(3) 0.45318(13) 0.40494(12)
C11 C 0.5843(2) 0.47047(14) 0.47545(13)
C12 C 0.4939(3) 0.39007(15) 0.51541(14)
H9 H 0.5436 0.3275 0.5094
C13 C 0.3310(3) 0.40260(18) 0.56388(15)
H10 H 0.2788 0.3501 0.5968
C14 C 0.2457(3) 0.49304(18) 0.56335(15)
H11 H 0.1298 0.4995 0.5898
C15 C 0.3324(3) 0.57526(16) 0.52326(13)
C16 C 0.5095(3) 0.56344(14) 0.48956(12)
H12 H 0.5795 0.6188 0.4762
C17 C 0.8730(3) 0.46859(13) 0.24742(14)
H13 H 0.8740 0.4955 0.1858
C18 C 1.0095(3) 0.40349(15) 0.27336(15)
H14 H 1.1001 0.3871 0.2294
C19 C 1.0109(3) 0.36331(15) 0.36383(16)
H15 H 1.1023 0.3196 0.3815
C20 C 0.8754(3) 0.38824(14) 0.42865(15)
H16 H 0.8781 0.3609 0.4901
loop_
_geom_bond_atom_site_label_1
_geom_bond_atom_site_label_2
_geom_bond_site_symmetry_1
_geom_bond_site_symmetry_2
C1 H1 1_555 1_555
H2 C1 1_555 1_555
C2 C1 1_555 1_555
H3 C2 1_555 1_555
H4 C2 1_555 1_555
C3 C2 1_555 1_555
C4 C3 1_555 1_555
H5 C4 1_555 1_555
C5 C4 1_555 1_555
H6 C5 1_555 1_555
C6 C5 1_555 1_555
H7 C6 1_555 1_555
C7 C6 1_555 1_555
C8 C3 1_555 1_555
H8 C8 1_555 1_555
C9 C7 1_555 1_555
C10 C9 1_555 1_555
C11 C10 1_555 1_555
C12 C11 1_555 1_555
H9 C12 1_555 1_555
C13 C12 1_555 1_555
H10 C13 1_555 1_555
C14 C13 1_555 1_555
H11 C14 1_555 1_555
C15 C1 1_555 1_555
C16 C11 1_555 1_555
H12 C16 1_555 1_555
C17 C9 1_555 1_555
H13 C17 1_555 1_555
C18 C17 1_555 1_555
H14 C18 1_555 1_555
C19 C18 1_555 1_555
H15 C19 1_555 1_555
C20 C10 1_555 1_555
H16 C20 1_555 1_555
C7 C8 1_555 1_555
C14 C15 1_555 1_555
C15 C16 1_555 1_555
C19 C20 1_555 1_555

#END
