
#######################################################################
#
#                 Cambridge Crystallographic Data Centre
#                                CCDC 
#
#######################################################################
#
# If this CIF has been generated from an entry in the Cambridge 
# Structural Database, then it will include bibliographic, chemical, 
# crystal, experimental, refinement or atomic coordinate data resulting 
# from the CCDC's data processing and validation procedures.
#
#######################################################################

data_BONMIA
_chemical_name_common            (-)-Benzo(2.2)metacyclophane
_chemical_formula_moiety         'C20 H16'
_chemical_name_systematic        
(2)(1,3)Benzeno(0)(1,2)benzeno(0)(1,3)benzenophane
_symmetry_cell_setting           orthorhombic
_symmetry_space_group_name_H-M   'P 21 21 21'
_symmetry_Int_Tables_number      19
_space_group_name_Hall           'P 2ac 2ab'
loop_
_symmetry_equiv_pos_site_id
_symmetry_equiv_pos_as_xyz
1 x,y,z
2 1/2+x,1/2-y,-z
3 -x,1/2+y,1/2-z
4 1/2-x,-y,1/2+z
_cell_length_a                   13.593(3)
_cell_length_b                   13.867(3)
_cell_length_c                   7.337(2)
_cell_angle_alpha                90
_cell_angle_beta                 90
_cell_angle_gamma                90
_cell_volume                     1382.98
_chemical_melting_point          159.5-161deg.C
_cell_formula_units_Z            4
loop_
_atom_site_label
_atom_site_type_symbol
_atom_site_fract_x
_atom_site_fract_y
_atom_site_fract_z
C1 C 0.43130 0.68970 0.41720
C2 C 0.34590 0.67980 0.31400
C3 C 0.25970 0.71890 0.38550
C4 C 0.25810 0.76150 0.55360
C5 C 0.33960 0.75690 0.66450
C6 C 0.42710 0.71750 0.60000
C7 C 0.50480 0.68900 0.73380
C8 C 0.53140 0.75220 0.87300
C9 C 0.59630 0.72660 1.00900
C10 C 0.63680 0.63590 1.01020
C11 C 0.61210 0.57120 0.87430
C12 C 0.54690 0.59490 0.73470
C13 C 0.43660 0.51040 0.50950
C14 C 0.52970 0.52460 0.58440
C15 C 0.60990 0.48450 0.49440
C16 C 0.59740 0.43620 0.33120
C17 C 0.50680 0.43640 0.24680
C18 C 0.42520 0.47680 0.33230
C19 C 0.33470 0.50380 0.22630
C20 C 0.34420 0.61110 0.15570
H1 H 0.49200 0.66700 0.36700
H2 H 0.19700 0.70900 0.31500
H3 H 0.19500 0.78800 0.59700
H4 H 0.33400 0.77800 0.79200
H5 H 0.50200 0.81500 0.86900
H6 H 0.61300 0.77200 1.11300
H7 H 0.68200 0.61500 1.10900
H8 H 0.64000 0.50500 0.87200
H9 H 0.37800 0.53500 0.57400
H10 H 0.67600 0.49600 0.54600
H11 H 0.65300 0.40800 0.27100
H12 H 0.49700 0.41500 0.12800
H13 H 0.27000 0.50200 0.30000
H14 H 0.32500 0.46000 0.11800
H15 H 0.28500 0.62400 0.07600
H16 H 0.40700 0.61400 0.08100
loop_
_geom_bond_atom_site_label_1
_geom_bond_atom_site_label_2
_geom_bond_site_symmetry_1
_geom_bond_site_symmetry_2
C1 C2 1_555 1_555
C2 C3 1_555 1_555
C3 C4 1_555 1_555
C4 C5 1_555 1_555
C5 C6 1_555 1_555
C6 C1 1_555 1_555
C7 C6 1_555 1_555
C8 C7 1_555 1_555
C9 C8 1_555 1_555
C10 C9 1_555 1_555
C11 C10 1_555 1_555
C12 C7 1_555 1_555
C13 C14 1_555 1_555
C14 C12 1_555 1_555
C15 C14 1_555 1_555
C16 C15 1_555 1_555
C17 C16 1_555 1_555
C18 C13 1_555 1_555
C19 C18 1_555 1_555
C20 C2 1_555 1_555
H1 C1 1_555 1_555
H2 C3 1_555 1_555
H3 C4 1_555 1_555
H4 C5 1_555 1_555
H5 C8 1_555 1_555
H6 C9 1_555 1_555
H7 C10 1_555 1_555
H8 C11 1_555 1_555
H9 C13 1_555 1_555
H10 C15 1_555 1_555
H11 C16 1_555 1_555
H12 C17 1_555 1_555
H13 C19 1_555 1_555
H14 C19 1_555 1_555
H15 C20 1_555 1_555
H16 C20 1_555 1_555
C11 C12 1_555 1_555
C17 C18 1_555 1_555
C19 C20 1_555 1_555

#END
