
#######################################################################
#
#                 Cambridge Crystallographic Data Centre
#                                CCDC 
#
#######################################################################
#
# If this CIF has been generated from an entry in the Cambridge 
# Structural Database, then it will include bibliographic, chemical, 
# crystal, experimental, refinement or atomic coordinate data resulting 
# from the CCDC's data processing and validation procedures.
#
#######################################################################

data_BONSII
_chemical_formula_moiety         'C38 H36 N4 O5'
_chemical_name_systematic        
3',6'-bis(Diethylamino)-2-(((7-hydroxy-2-oxo-2H-chromen-8-yl)methylene)amino)spiro[isoindole-1,9'-xanthen]-3(2H)-one
_symmetry_cell_setting           triclinic
_symmetry_space_group_name_H-M   'P -1'
_symmetry_Int_Tables_number      2
_space_group_name_Hall           '-P 1'
loop_
_symmetry_equiv_pos_site_id
_symmetry_equiv_pos_as_xyz
1 x,y,z
2 -x,-y,-z
_cell_length_a                   10.6774(17)
_cell_length_b                   15.225(3)
_cell_length_c                   19.748(3)
_cell_angle_alpha                96.174(3)
_cell_angle_beta                 90.937(3)
_cell_angle_gamma                93.969(3)
_cell_volume                     3183.11
_cell_formula_units_Z            4
loop_
_atom_site_label
_atom_site_type_symbol
_atom_site_fract_x
_atom_site_fract_y
_atom_site_fract_z
O1 O 0.72987(12) 0.80513(8) 0.25300(7)
O2 O 0.74047(13) 0.40716(8) 0.31855(7)
O3 O 0.69957(12) 0.48911(9) 0.53554(6)
O4 O 0.54103(14) 0.71193(9) 0.41244(7)
O5 O 0.77463(15) 0.38252(11) 0.58828(8)
N1 N 0.74432(14) 0.55581(9) 0.30139(7)
N2 N 0.68996(14) 0.59491(9) 0.35848(7)
N3 N 1.14389(15) 0.89131(11) 0.33656(8)
N4 N 0.30342(15) 0.75829(10) 0.17670(8)
C1 C 0.84387(17) 0.77569(12) 0.27181(9)
C2 C 0.93330(18) 0.84349(12) 0.29447(9)
H1 H 0.9129 0.9034 0.2955
C3 C 1.05366(17) 0.82445(12) 0.31585(9)
C4 C 1.07709(17) 0.73390(12) 0.31465(9)
H2 H 1.1564 0.7181 0.3300
C5 C 0.98631(17) 0.66855(12) 0.29157(9)
H3 H 1.0054 0.6084 0.2910
C6 C 0.86653(17) 0.68698(11) 0.26886(8)
C7 C 0.76720(17) 0.61413(11) 0.24587(8)
C8 C 0.64623(16) 0.65255(11) 0.22614(8)
C9 C 0.53960(17) 0.59854(12) 0.20316(9)
H4 H 0.5446 0.5361 0.1990
C10 C 0.42757(17) 0.63135(12) 0.18625(9)
H5 H 0.3579 0.5916 0.1708
C11 C 0.41541(17) 0.72397(12) 0.19164(9)
C12 C 0.52246(17) 0.77878(12) 0.21405(9)
H6 H 0.5190 0.8413 0.2177
C13 C 0.63342(17) 0.74285(11) 0.23094(9)
C14 C 0.81094(16) 0.54663(11) 0.19067(9)
C15 C 0.84895(18) 0.55950(13) 0.12546(9)
H7 H 0.8526 0.6167 0.1103
C16 C 0.88138(19) 0.48678(14) 0.08317(10)
H8 H 0.9059 0.4941 0.0380
C17 C 0.8788(2) 0.40274(14) 0.10555(10)
H9 H 0.9026 0.3539 0.0757
C18 C 0.84202(19) 0.38996(13) 0.17083(10)
H10 H 0.8405 0.3331 0.1865
C19 C 0.80743(17) 0.46295(11) 0.21250(9)
C20 C 0.76172(16) 0.46785(11) 0.28325(9)
C21 C 0.68750(16) 0.55686(12) 0.41359(9)
H11 H 0.7269 0.5032 0.4160
C22 C 0.62360(16) 0.59718(11) 0.47204(9)
C23 C 0.55130(17) 0.67142(12) 0.46970(9)
C24 C 0.4870(2) 0.70465(14) 0.52673(10)
H12 H 0.4381 0.7541 0.5243
C25 C 0.49405(19) 0.66637(14) 0.58615(10)
H13 H 0.4496 0.6897 0.6245
C26 C 0.56565(17) 0.59336(12) 0.59166(9)
C27 C 0.62855(16) 0.56054(12) 0.53413(9)
C28 C 0.57773(18) 0.54947(14) 0.65190(9)
H14 H 0.5360 0.5705 0.6919
C29 C 0.64643(19) 0.47973(14) 0.65287(10)
H15 H 0.6530 0.4523 0.6936
C30 C 0.71088(18) 0.44510(14) 0.59342(10)
C31 C 1.11172(19) 0.98342(12) 0.34395(10)
H16 H 1.0654 0.9948 0.3023
H17 H 1.1904 1.0222 0.3474
C32 C 1.0325(2) 1.00891(15) 0.40550(11)
H18 H 0.9547 0.9705 0.4030
H19 H 1.0122 1.0707 0.4058
H20 H 1.0797 1.0019 0.4473
C33 C 1.2665(2) 0.87220(15) 0.36259(13)
H21 H 1.3276 0.9223 0.3560
H22 H 1.2941 0.8190 0.3352
C34 C 1.2700(3) 0.85686(19) 0.43591(14)
H23 H 1.2461 0.9100 0.4638
H24 H 1.3551 0.8439 0.4491
H25 H 1.2110 0.8066 0.4430
C35 C 0.19309(18) 0.70105(14) 0.15268(10)
H26 H 0.1170 0.7319 0.1657
H27 H 0.1916 0.6467 0.1762
C36 C 0.1873(2) 0.67447(16) 0.07635(11)
H28 H 0.1785 0.7271 0.0526
H29 H 0.1150 0.6319 0.0648
H30 H 0.2646 0.6472 0.0623
C37 C 0.29526(19) 0.85364(13) 0.17659(11)
H31 H 0.3391 0.8841 0.2180
H32 H 0.2058 0.8667 0.1793
C38 C 0.3506(2) 0.89190(15) 0.11472(12)
H33 H 0.4395 0.8802 0.1118
H34 H 0.3424 0.9560 0.1190
H35 H 0.3054 0.8642 0.0734
H36 H 0.594(2) 0.6834(17) 0.3789(11)
O6 O 0.25280(12) 0.07763(8) 0.20890(7)
O7 O 0.19879(14) 0.47347(9) 0.16134(8)
O8 O 0.22347(13) 0.20355(9) 0.40453(7)
O9 O 0.03425(14) 0.44482(10) 0.31801(8)
O10 O 0.33005(16) 0.09980(10) 0.44520(8)
N5 N 0.23777(14) 0.33228(10) 0.18563(7)
N6 N 0.18028(14) 0.34621(10) 0.24650(8)
N7 N -0.14049(16) -0.00565(11) 0.09447(9)
C39 C 0.16237(17) 0.10056(12) 0.16422(9)
C40 C 0.06151(17) 0.03829(12) 0.15082(9)
H37 H 0.0596 -0.0154 0.1714
C41 C -0.03776(17) 0.05381(12) 0.10720(9)
C42 C -0.02839(19) 0.13418(13) 0.07707(10)
H38 H -0.0932 0.1471 0.0469
C43 C 0.07376(18) 0.19368(13) 0.09105(10)
H39 H 0.0774 0.2469 0.0699
C44 C 0.17289(17) 0.17951(12) 0.13514(9)
C45 C 0.28236(17) 0.24715(11) 0.15041(9)
C46 C 0.38345(17) 0.21025(12) 0.19104(9)
C47 C 0.49945(18) 0.25654(12) 0.20585(10)
H40 H 0.5166 0.3110 0.1873
C48 C 0.59025(18) 0.22678(13) 0.24613(10)
H41 H 0.6684 0.2604 0.2544
C49 C 0.56799(18) 0.14641(14) 0.27532(10)
C50 C 0.45288(18) 0.09852(13) 0.25970(11)
H42 H 0.4353 0.0435 0.2774
C51 C 0.36406(17) 0.13068(12) 0.21854(9)
C52 C 0.33241(17) 0.28294(12) 0.08597(9)
C53 C 0.39656(19) 0.23878(15) 0.03408(10)
H43 H 0.4155 0.1789 0.0354
C54 C 0.4325(2) 0.28558(18) -0.02052(11)
H44 H 0.4762 0.2568 -0.0571
C55 C 0.4056(2) 0.37294(18) -0.02228(12)
H45 H 0.4312 0.4030 -0.0600
C56 C 0.3426(2) 0.41689(16) 0.02961(11)
H46 H 0.3245 0.4770 0.0286
C57 C 0.30609(18) 0.37011(12) 0.08380(10)
C58 C 0.24079(18) 0.40192(12) 0.14575(10)
C59 C 0.18634(17) 0.29416(12) 0.29295(9)
H47 H 0.2292 0.2414 0.2857
C60 C 0.12581(17) 0.31786(12) 0.35720(9)
C61 C 0.05018(18) 0.39108(14) 0.36715(10)
C62 C -0.0109(2) 0.40967(16) 0.42843(12)
H48 H -0.0645 0.4571 0.4336
C63 C 0.0063(2) 0.35949(16) 0.48128(11)
H49 H -0.0367 0.3722 0.5225
C64 C 0.08581(19) 0.29009(14) 0.47539(10)
C65 C 0.14285(17) 0.27047(13) 0.41315(10)
C66 C 0.1166(2) 0.24028(15) 0.53041(11)
H50 H 0.0776 0.2518 0.5730
C67 C 0.1989(2) 0.17821(15) 0.52269(11)
H51 H 0.2198 0.1479 0.5605
C68 C 0.2567(2) 0.15617(14) 0.45842(11)
C69 C -0.16024(19) -0.08182(13) 0.13254(11)
H52 H -0.2517 -0.0954 0.1365
H53 H -0.1242 -0.0662 0.1791
C70 C -0.1025(2) -0.16388(15) 0.10065(12)
H54 H -0.1413 -0.1820 0.0555
H55 H -0.1169 -0.2118 0.1296
H56 H -0.0120 -0.1510 0.0961
C71 C -0.2372(2) 0.00523(16) 0.04385(12)
H57 H -0.2740 -0.0540 0.0250
H58 H -0.1978 0.0338 0.0060
C72 C -0.3414(2) 0.0600(2) 0.07177(16)
H59 H -0.3773 0.0344 0.1112
H60 H -0.4070 0.0602 0.0365
H61 H -0.3075 0.1208 0.0857
C73 C 0.7771(2) 0.16726(16) 0.33321(12)
H62 H 0.8096 0.1514 0.3772
H63 H 0.7602 0.2307 0.3387
C74 C 0.8705(2) 0.14906(19) 0.27777(15)
H64 H 0.8832 0.0856 0.2716
H65 H 0.9507 0.1824 0.2907
H66 H 0.8384 0.1673 0.2351
N8 N 0.6599(6) 0.1110(4) 0.3110(3)
C75 C 0.6532(3) 0.0192(3) 0.3255(2)
H67 H 0.7392 -0.0014 0.3248
H68 H 0.6035 -0.0172 0.2885
C76 C 0.5958(5) 0.0030(3) 0.3928(3)
H69 H 0.6498 0.0328 0.4301
H70 H 0.5876 -0.0608 0.3966
H71 H 0.5126 0.0265 0.3953
H72 H 0.086(2) 0.4205(17) 0.2810(10)
N9? N 0.6473(12) 0.1325(8) 0.3321(6)
C77? C 0.6093(6) 0.0654(5) 0.3768(4)
H73? H 0.5182 0.0672 0.3849
H74? H 0.6541 0.0800 0.4213
C78? C 0.6357(9) -0.0269(7) 0.3485(6)
H75? H 0.5901 -0.0426 0.3049
H76? H 0.6080 -0.0687 0.3807
H77? H 0.7260 -0.0298 0.3415
loop_
_geom_bond_atom_site_label_1
_geom_bond_atom_site_label_2
_geom_bond_site_symmetry_1
_geom_bond_site_symmetry_2
O1 C1 1_555 1_555
O2 C20 1_555 1_555
O3 C27 1_555 1_555
O4 C23 1_555 1_555
O5 C30 1_555 1_555
N1 N2 1_555 1_555
N2 C21 1_555 1_555
N3 C3 1_555 1_555
N4 C11 1_555 1_555
C1 C2 1_555 1_555
C2 H1 1_555 1_555
C3 C2 1_555 1_555
C4 C3 1_555 1_555
H2 C4 1_555 1_555
C5 C4 1_555 1_555
H3 C5 1_555 1_555
C6 C1 1_555 1_555
C7 N1 1_555 1_555
C8 C7 1_555 1_555
C9 C8 1_555 1_555
H4 C9 1_555 1_555
C10 C9 1_555 1_555
H5 C10 1_555 1_555
C11 C10 1_555 1_555
C12 C11 1_555 1_555
H6 C12 1_555 1_555
C13 O1 1_555 1_555
C14 C7 1_555 1_555
C15 C14 1_555 1_555
H7 C15 1_555 1_555
C16 C15 1_555 1_555
H8 C16 1_555 1_555
C17 C16 1_555 1_555
H9 C17 1_555 1_555
C18 C17 1_555 1_555
H10 C18 1_555 1_555
C19 C14 1_555 1_555
C20 N1 1_555 1_555
C21 H11 1_555 1_555
C22 C21 1_555 1_555
C23 C22 1_555 1_555
C24 C23 1_555 1_555
H12 C24 1_555 1_555
C25 C24 1_555 1_555
H13 C25 1_555 1_555
C26 C25 1_555 1_555
C27 C22 1_555 1_555
C28 C26 1_555 1_555
H14 C28 1_555 1_555
C29 C28 1_555 1_555
H15 C29 1_555 1_555
C30 O3 1_555 1_555
C31 N3 1_555 1_555
H16 C31 1_555 1_555
H17 C31 1_555 1_555
C32 C31 1_555 1_555
H18 C32 1_555 1_555
H19 C32 1_555 1_555
H20 C32 1_555 1_555
C33 N3 1_555 1_555
H21 C33 1_555 1_555
H22 C33 1_555 1_555
C34 C33 1_555 1_555
H23 C34 1_555 1_555
H24 C34 1_555 1_555
H25 C34 1_555 1_555
C35 N4 1_555 1_555
H26 C35 1_555 1_555
H27 C35 1_555 1_555
C36 C35 1_555 1_555
H28 C36 1_555 1_555
H29 C36 1_555 1_555
H30 C36 1_555 1_555
C37 N4 1_555 1_555
H31 C37 1_555 1_555
H32 C37 1_555 1_555
C38 C37 1_555 1_555
H33 C38 1_555 1_555
H34 C38 1_555 1_555
H35 C38 1_555 1_555
H36 O4 1_555 1_555
O6 C39 1_555 1_555
O7 C58 1_555 1_555
O8 C65 1_555 1_555
O9 C61 1_555 1_555
O10 C68 1_555 1_555
N5 N6 1_555 1_555
N6 C59 1_555 1_555
N7 C41 1_555 1_555
C39 C40 1_555 1_555
C40 H37 1_555 1_555
C41 C40 1_555 1_555
C42 C41 1_555 1_555
H38 C42 1_555 1_555
C43 C42 1_555 1_555
H39 C43 1_555 1_555
C44 C39 1_555 1_555
C45 N5 1_555 1_555
C46 C45 1_555 1_555
C47 C46 1_555 1_555
H40 C47 1_555 1_555
C48 C47 1_555 1_555
H41 C48 1_555 1_555
C49 C48 1_555 1_555
C50 C49 1_555 1_555
H42 C50 1_555 1_555
C51 O6 1_555 1_555
C52 C45 1_555 1_555
C53 C52 1_555 1_555
H43 C53 1_555 1_555
C54 C53 1_555 1_555
H44 C54 1_555 1_555
C55 C54 1_555 1_555
H45 C55 1_555 1_555
C56 C55 1_555 1_555
H46 C56 1_555 1_555
C57 C52 1_555 1_555
C58 N5 1_555 1_555
C59 H47 1_555 1_555
C60 C59 1_555 1_555
C61 C60 1_555 1_555
C62 C61 1_555 1_555
H48 C62 1_555 1_555
C63 C62 1_555 1_555
H49 C63 1_555 1_555
C64 C63 1_555 1_555
C65 C60 1_555 1_555
C66 C64 1_555 1_555
H50 C66 1_555 1_555
C67 C66 1_555 1_555
H51 C67 1_555 1_555
C68 O8 1_555 1_555
C69 N7 1_555 1_555
H52 C69 1_555 1_555
H53 C69 1_555 1_555
C70 C69 1_555 1_555
H54 C70 1_555 1_555
H55 C70 1_555 1_555
H56 C70 1_555 1_555
C71 N7 1_555 1_555
H57 C71 1_555 1_555
H58 C71 1_555 1_555
C72 C71 1_555 1_555
H59 C72 1_555 1_555
H60 C72 1_555 1_555
H61 C72 1_555 1_555
C73 H62 1_555 1_555
H63 C73 1_555 1_555
C74 C73 1_555 1_555
H64 C74 1_555 1_555
H65 C74 1_555 1_555
H66 C74 1_555 1_555
N8 C49 1_555 1_555
C75 N8 1_555 1_555
H67 C75 1_555 1_555
H68 C75 1_555 1_555
C76 C75 1_555 1_555
H69 C76 1_555 1_555
H70 C76 1_555 1_555
H71 C76 1_555 1_555
H72 O9 1_555 1_555
C5 C6 1_555 1_555
C6 C7 1_555 1_555
C8 C13 1_555 1_555
C12 C13 1_555 1_555
C18 C19 1_555 1_555
C19 C20 1_555 1_555
C26 C27 1_555 1_555
C29 C30 1_555 1_555
C43 C44 1_555 1_555
C44 C45 1_555 1_555
C46 C51 1_555 1_555
C50 C51 1_555 1_555
C56 C57 1_555 1_555
C57 C58 1_555 1_555
C64 C65 1_555 1_555
C67 C68 1_555 1_555
C73 N8 1_555 1_555

#END
