
#######################################################################
#
#                 Cambridge Crystallographic Data Centre
#                                CCDC 
#
#######################################################################
#
# If this CIF has been generated from an entry in the Cambridge 
# Structural Database, then it will include bibliographic, chemical, 
# crystal, experimental, refinement or atomic coordinate data resulting 
# from the CCDC's data processing and validation procedures.
#
#######################################################################

data_BOPBIR
_chemical_formula_moiety         'C17 H17 N1 O3'
_chemical_name_systematic        5-Acetoxy-2,3-diphenylisoxazolidine
_symmetry_cell_setting           monoclinic
_symmetry_space_group_name_H-M   'P 21/c'
_symmetry_Int_Tables_number      14
_space_group_name_Hall           '-P 2ybc'
loop_
_symmetry_equiv_pos_site_id
_symmetry_equiv_pos_as_xyz
1 x,y,z
2 -x,1/2+y,1/2-z
3 -x,-y,-z
4 x,1/2-y,1/2+z
_cell_length_a                   11.7637(13)
_cell_length_b                   13.9610(15)
_cell_length_c                   9.6642(10)
_cell_angle_alpha                90
_cell_angle_beta                 113.054(3)
_cell_angle_gamma                90
_cell_volume                     1460.42
_exptl_crystal_colour            colorless
_exptl_crystal_description       plate
_chemical_melting_point          '377.4 K'
_cell_formula_units_Z            4
_exptl_crystal_recrystallization_method benzene
loop_
_atom_site_label
_atom_site_type_symbol
_atom_site_fract_x
_atom_site_fract_y
_atom_site_fract_z
O1 O -0.00526(11) 0.15182(10) 0.75364(13)
O2 O 0.12873(12) 0.18138(10) 0.63145(14)
O3 O 0.28018(14) 0.19404(12) 0.86161(18)
N1 N -0.10865(13) 0.10730(12) 0.62731(16)
C1 C -0.17271(17) 0.18903(14) 0.5309(2)
H1 H -0.2325 0.2184 0.5688
C2 C -0.06624(18) 0.25912(15) 0.5518(2)
H2 H -0.0463 0.2600 0.4613
H3 H -0.0883 0.3248 0.5709
C3 C 0.04170(18) 0.22140(15) 0.6864(2)
H4 H 0.0810 0.2745 0.7589
C4 C 0.2471(2) 0.17418(15) 0.7307(3)
C5 C 0.3282(2) 0.13879(19) 0.6555(3)
H5 H 0.4144 0.1397 0.7273
H6 H 0.3188 0.1803 0.5698
H7 H 0.3045 0.0732 0.6199
C6 C -0.23970(17) 0.15554(15) 0.3702(2)
C7 C -0.35434(18) 0.19276(16) 0.2823(2)
H8 H -0.3917 0.2387 0.3237
C8 C -0.4153(2) 0.16348(18) 0.1339(2)
H9 H -0.4934 0.1901 0.0739
C9 C -0.3624(2) 0.09575(18) 0.0739(2)
H10 H -0.4047 0.0746 -0.0268
C10 C -0.2480(2) 0.05896(16) 0.1606(2)
H11 H -0.2111 0.0128 0.1191
C11 C -0.18653(19) 0.08872(15) 0.3078(2)
H12 H -0.1073 0.0632 0.3664
C12 C -0.17667(17) 0.05059(14) 0.6908(2)
C13 C -0.30489(18) 0.05062(15) 0.6321(2)
H13 H -0.3499 0.0927 0.5521
C14 C -0.36710(19) -0.01121(16) 0.6910(2)
H14 H -0.4549 -0.0121 0.6492
C15 C -0.30346(19) -0.07125(16) 0.8091(2)
H15 H -0.3468 -0.1129 0.8492
C16 C -0.17593(19) -0.07018(14) 0.8687(2)
H16 H -0.1313 -0.1108 0.9510
C17 C -0.11283(18) -0.01051(14) 0.8093(2)
H17 H -0.0251 -0.0113 0.8498
loop_
_geom_bond_atom_site_label_1
_geom_bond_atom_site_label_2
_geom_bond_site_symmetry_1
_geom_bond_site_symmetry_2
O1 N1 1_555 1_555
O2 C3 1_555 1_555
O3 C4 1_555 1_555
N1 C1 1_555 1_555
C1 H1 1_555 1_555
C2 C1 1_555 1_555
H2 C2 1_555 1_555
H3 C2 1_555 1_555
C3 O1 1_555 1_555
H4 C3 1_555 1_555
C4 O2 1_555 1_555
C5 C4 1_555 1_555
H5 C5 1_555 1_555
H6 C5 1_555 1_555
H7 C5 1_555 1_555
C6 C1 1_555 1_555
C7 C6 1_555 1_555
H8 C7 1_555 1_555
C8 C7 1_555 1_555
H9 C8 1_555 1_555
C9 C8 1_555 1_555
H10 C9 1_555 1_555
C10 C9 1_555 1_555
H11 C10 1_555 1_555
C11 C6 1_555 1_555
H12 C11 1_555 1_555
C12 N1 1_555 1_555
C13 C12 1_555 1_555
H13 C13 1_555 1_555
C14 C13 1_555 1_555
H14 C14 1_555 1_555
C15 C14 1_555 1_555
H15 C15 1_555 1_555
C16 C15 1_555 1_555
H16 C16 1_555 1_555
C17 C12 1_555 1_555
H17 C17 1_555 1_555
C2 C3 1_555 1_555
C10 C11 1_555 1_555
C16 C17 1_555 1_555

#END
