
#######################################################################
#
#                 Cambridge Crystallographic Data Centre
#                                CCDC 
#
#######################################################################
#
# If this CIF has been generated from an entry in the Cambridge 
# Structural Database, then it will include bibliographic, chemical, 
# crystal, experimental, refinement or atomic coordinate data resulting 
# from the CCDC's data processing and validation procedures.
#
#######################################################################

data_BOPFET
_chemical_formula_moiety         'C23 H22 N4 O2'
_chemical_name_systematic        
4-((5-Hydroxy-3-methyl-1-(3-methylphenyl)-1H-pyrazol-4-yl)methylene)-5-methyl-2-(3-methylphenyl)-2,4-dihydro-3H-pyrazol-3-one
_symmetry_cell_setting           triclinic
_symmetry_space_group_name_H-M   'P -1'
_symmetry_Int_Tables_number      2
_space_group_name_Hall           '-P 1'
loop_
_symmetry_equiv_pos_site_id
_symmetry_equiv_pos_as_xyz
1 x,y,z
2 -x,-y,-z
_cell_length_a                   7.733(5)
_cell_length_b                   15.358(9)
_cell_length_c                   16.984(10)
_cell_angle_alpha                84.237(6)
_cell_angle_beta                 86.255(7)
_cell_angle_gamma                82.611(6)
_cell_volume                     1987.41
_exptl_crystal_colour            yellow
_exptl_crystal_description       block
_cell_formula_units_Z            4
loop_
_atom_site_label
_atom_site_type_symbol
_atom_site_fract_x
_atom_site_fract_y
_atom_site_fract_z
C1 C 0.6659(5) 0.7404(2) 0.3941(2)
H1 H 0.7164 0.7686 0.4311
C2 C 0.6007(5) 0.7885(2) 0.3268(2)
C3 C 0.5242(5) 0.7456(2) 0.2727(2)
H2 H 0.4794 0.7772 0.2273
C4 C 0.5143(5) 0.6568(2) 0.2858(2)
H3 H 0.4617 0.6288 0.2493
C5 C 0.5811(5) 0.6081(2) 0.35238(19)
H4 H 0.5755 0.5477 0.3605
C6 C 0.6567(4) 0.6511(2) 0.40686(18)
C7 C 0.8618(5) 0.5956(2) 0.5855(2)
C8 C 0.8342(4) 0.5072(2) 0.57412(19)
C9 C 0.7453(4) 0.5176(2) 0.50146(19)
C10 C 0.8850(5) 0.4345(2) 0.6259(2)
C11 C 0.8814(4) 0.3444(2) 0.62994(18)
C12 C 0.9406(5) 0.2847(2) 0.69587(19)
C13 C 0.8264(5) 0.2882(2) 0.5764(2)
C14 C 0.8222(5) 0.1240(2) 0.5855(2)
C15 C 0.8876(5) 0.0462(2) 0.6276(2)
H5 H 0.9518 0.0484 0.6716
C16 C 0.8592(6) -0.0346(2) 0.6054(3)
C17 C 0.7689(7) -0.0365(3) 0.5386(3)
H6 H 0.7525 -0.0904 0.5216
C18 C 0.7030(7) 0.0401(3) 0.4969(3)
H7 H 0.6403 0.0374 0.4525
C19 C 0.7279(6) 0.1217(2) 0.5196(2)
H8 H 0.6822 0.1736 0.4912
C20 C 0.6140(6) 0.8859(2) 0.3126(2)
H9 H 0.5784 0.9134 0.3603
H10 H 0.5394 0.9115 0.2711
H11 H 0.7325 0.8949 0.2972
C21 C 0.9506(6) 0.6250(3) 0.6524(2)
H12 H 0.9598 0.6870 0.6427
H13 H 1.0653 0.5929 0.6560
H14 H 0.8837 0.6140 0.7011
C22 C 1.0125(5) 0.3077(2) 0.76901(19)
H15 H 1.0431 0.2549 0.8030
H16 H 0.9263 0.3464 0.7961
H17 H 1.1146 0.3367 0.7552
C23 C 0.9288(8) -0.1187(3) 0.6523(3)
H18 H 0.8867 -0.1171 0.7067
H19 H 1.0541 -0.1248 0.6493
H20 H 0.8901 -0.1680 0.6309
N1 N 0.8022(4) 0.65286(18) 0.52912(16)
N2 N 0.7279(4) 0.60428(17) 0.47650(15)
N3 N 0.9242(4) 0.2032(2) 0.68678(15)
N4 N 0.8535(4) 0.20527(18) 0.61193(16)
O1 O 0.6902(3) 0.45991(16) 0.46313(13)
O2 O 0.7635(3) 0.30568(16) 0.50729(13)
H21 H 0.932(4) 0.449(2) 0.667(2)
H22 H 0.727(6) 0.381(3) 0.485(3)
C24 C 0.4745(5) 0.4013(2) 0.2439(2)
H23 H 0.4562 0.4625 0.2421
C25 C 0.5365(6) 0.3515(3) 0.3110(2)
H24 H 0.5586 0.3794 0.3547
C26 C 0.5657(6) 0.2616(3) 0.3136(2)
H25 H 0.6073 0.2292 0.3592
C27 C 0.5342(5) 0.2178(2) 0.2493(2)
C28 C 0.4706(5) 0.2683(2) 0.1824(2)
H26 H 0.4483 0.2405 0.1386
C29 C 0.4400(5) 0.3592(2) 0.17964(19)
C30 C 0.2797(5) 0.4171(2) -0.0087(2)
C31 C 0.2687(4) 0.5056(2) 0.01307(18)
C32 C 0.3324(5) 0.4946(2) 0.09146(19)
C33 C 0.2089(5) 0.5800(2) -0.0346(2)
C34 C 0.1925(5) 0.6699(2) -0.03146(18)
C35 C 0.1167(5) 0.7327(2) -0.0923(2)
C36 C 0.2454(5) 0.7246(2) 0.0238(2)
C37 C 0.2212(5) 0.8888(2) 0.0283(2)
C38 C 0.2195(5) 0.8919(2) 0.1094(2)
H27 H 0.2056 0.8421 0.1440
C39 C 0.2392(6) 0.9715(3) 0.1375(3)
H28 H 0.2391 0.9753 0.1919
C40 C 0.2589(6) 1.0450(3) 0.0859(3)
H29 H 0.2723 1.0977 0.1061
C41 C 0.2592(5) 1.0423(2) 0.0054(3)
C42 C 0.2403(5) 0.9627(2) -0.0231(2)
H30 H 0.2404 0.9592 -0.0774
C43 C 0.5699(7) 0.1196(3) 0.2514(3)
H31 H 0.4971 0.0989 0.2154
H32 H 0.5451 0.0938 0.3042
H33 H 0.6903 0.1030 0.2361
C44 C 0.2284(6) 0.3890(2) -0.0846(2)
H34 H 0.2589 0.3264 -0.0853
H35 H 0.2887 0.4189 -0.1284
H36 H 0.1047 0.4035 -0.0890
C45 C 0.0403(6) 0.7133(3) -0.1656(2)
H37 H -0.0037 0.7676 -0.1947
H38 H -0.0534 0.6783 -0.1518
H39 H 0.1286 0.6815 -0.1977
C46 C 0.2779(7) 1.1238(3) -0.0499(3)
H40 H 0.2384 1.1752 -0.0227
H41 H 0.2089 1.1237 -0.0949
H42 H 0.3983 1.1246 -0.0675
N5 N 0.3724(4) 0.40708(17) 0.10926(15)
N6 N 0.3395(4) 0.35868(19) 0.04675(16)
N7 N 0.1211(4) 0.8141(2) -0.07767(16)
N8 N 0.1995(4) 0.80868(19) -0.00451(16)
O3 O 0.3477(4) 0.55139(15) 0.13954(13)
O4 O 0.3272(3) 0.70562(15) 0.08874(13)
H43 H 0.164(5) 0.565(2) -0.083(2)
H44 H 0.344(6) 0.6281(12) 0.111(2)
loop_
_geom_bond_atom_site_label_1
_geom_bond_atom_site_label_2
_geom_bond_site_symmetry_1
_geom_bond_site_symmetry_2
C1 H1 1_555 1_555
C2 C1 1_555 1_555
C3 C2 1_555 1_555
H2 C3 1_555 1_555
C4 C3 1_555 1_555
H3 C4 1_555 1_555
C5 C4 1_555 1_555
H4 C5 1_555 1_555
C6 C1 1_555 1_555
C7 C8 1_555 1_555
C8 C9 1_555 1_555
C9 N2 1_555 1_555
C10 C8 1_555 1_555
C11 C10 1_555 1_555
C12 C11 1_555 1_555
C13 C11 1_555 1_555
C14 C15 1_555 1_555
C15 H5 1_555 1_555
C16 C15 1_555 1_555
C17 C16 1_555 1_555
H6 C17 1_555 1_555
C18 C17 1_555 1_555
H7 C18 1_555 1_555
C19 C14 1_555 1_555
H8 C19 1_555 1_555
C20 C2 1_555 1_555
H9 C20 1_555 1_555
H10 C20 1_555 1_555
H11 C20 1_555 1_555
C21 C7 1_555 1_555
H12 C21 1_555 1_555
H13 C21 1_555 1_555
H14 C21 1_555 1_555
C22 C12 1_555 1_555
H15 C22 1_555 1_555
H16 C22 1_555 1_555
H17 C22 1_555 1_555
C23 C16 1_555 1_555
H18 C23 1_555 1_555
H19 C23 1_555 1_555
H20 C23 1_555 1_555
N1 C7 1_555 1_555
N2 C6 1_555 1_555
N3 C12 1_555 1_555
N4 C13 1_555 1_555
O1 C9 1_555 1_555
O2 C13 1_555 1_555
H21 C10 1_555 1_555
H22 O2 1_555 1_555
C24 H23 1_555 1_555
C25 C24 1_555 1_555
H24 C25 1_555 1_555
C26 C25 1_555 1_555
H25 C26 1_555 1_555
C27 C26 1_555 1_555
C28 C27 1_555 1_555
H26 C28 1_555 1_555
C29 C24 1_555 1_555
C30 C31 1_555 1_555
C31 C32 1_555 1_555
C32 N5 1_555 1_555
C33 C31 1_555 1_555
C34 C33 1_555 1_555
C35 C34 1_555 1_555
C36 C34 1_555 1_555
C37 C38 1_555 1_555
C38 H27 1_555 1_555
C39 C38 1_555 1_555
H28 C39 1_555 1_555
C40 C39 1_555 1_555
H29 C40 1_555 1_555
C41 C40 1_555 1_555
C42 C37 1_555 1_555
H30 C42 1_555 1_555
C43 C27 1_555 1_555
H31 C43 1_555 1_555
H32 C43 1_555 1_555
H33 C43 1_555 1_555
C44 C30 1_555 1_555
H34 C44 1_555 1_555
H35 C44 1_555 1_555
H36 C44 1_555 1_555
C45 C35 1_555 1_555
H37 C45 1_555 1_555
H38 C45 1_555 1_555
H39 C45 1_555 1_555
C46 C41 1_555 1_555
H40 C46 1_555 1_555
H41 C46 1_555 1_555
H42 C46 1_555 1_555
N5 C29 1_555 1_555
N6 C30 1_555 1_555
N7 C35 1_555 1_555
N8 C36 1_555 1_555
O3 C32 1_555 1_555
O4 C36 1_555 1_555
H43 C33 1_555 1_555
H44 O4 1_555 1_555
C5 C6 1_555 1_555
C14 N4 1_555 1_555
C18 C19 1_555 1_555
N1 N2 1_555 1_555
N3 N4 1_555 1_555
C28 C29 1_555 1_555
C37 N8 1_555 1_555
C41 C42 1_555 1_555
N5 N6 1_555 1_555
N7 N8 1_555 1_555

#END
