
#######################################################################
#
#                 Cambridge Crystallographic Data Centre
#                                CCDC 
#
#######################################################################
#
# If this CIF has been generated from an entry in the Cambridge 
# Structural Database, then it will include bibliographic, chemical, 
# crystal, experimental, refinement or atomic coordinate data resulting 
# from the CCDC's data processing and validation procedures.
#
#######################################################################

data_BOPFAO01
_chemical_formula_moiety         'C18 H20 N2 O1 S1'
_chemical_name_systematic        
N-(1-naphthylcarbamothioyl)cyclohexanecarboxamide
_symmetry_cell_setting           triclinic
_symmetry_space_group_name_H-M   'P -1'
_symmetry_Int_Tables_number      2
_space_group_name_Hall           '-P 1'
loop_
_symmetry_equiv_pos_site_id
_symmetry_equiv_pos_as_xyz
1 x,y,z
2 -x,-y,-z
_cell_length_a                   7.0464(5)
_cell_length_b                   11.0379(5)
_cell_length_c                   12.4151(8)
_cell_angle_alpha                110.873(3)
_cell_angle_beta                 100.660(3)
_cell_angle_gamma                104.022(3)
_cell_volume                     835.237
_exptl_crystal_colour            white
_exptl_crystal_description       block
_cell_formula_units_Z            2
loop_
_atom_site_label
_atom_site_type_symbol
_atom_site_fract_x
_atom_site_fract_y
_atom_site_fract_z
C1 C 1.4139(12) 0.4829(15) 0.6995(10)
C2 C 1.5803(14) 0.5008(15) 0.6610(8)
H1 H 1.5690 0.4550 0.5798
C3 C 1.7732(13) 0.5902(11) 0.7454(8)
H2 H 1.8908 0.6065 0.7214
C4 C 1.7793(14) 0.6525(12) 0.8658(8)
H3 H 1.9016 0.7111 0.9257
C5 C 1.5918(13) 0.6230(12) 0.8936(7)
C6 C 1.5952(14) 0.6835(11) 1.0116(8)
H4 H 1.7193 0.7418 1.0700
C7 C 1.4217(16) 0.6606(16) 1.0460(8)
H5 H 1.4294 0.7032 1.1270
C8 C 1.2357(16) 0.5753(16) 0.9622(9)
H6 H 1.1199 0.5574 0.9875
C9 C 1.2189(15) 0.5164(15) 0.8419(8)
H7 H 1.0919 0.4657 0.7838
C10 C 1.4035(19) 0.536(2) 0.8090(10)
C11 C 1.1480(17) 0.2490(13) 0.5594(10)
C12 C 0.839(2) 0.2236(13) 0.4017(11)
C13 C 0.643(2) 0.113(2) 0.3153(11)
H8 H 0.6743 0.0287 0.2776
C14 C 0.4915(15) 0.0832(11) 0.3824(10)
H9 H 0.4669 0.1674 0.4258
H10 H 0.5514 0.0538 0.4413
C15 C 0.2882(18) -0.0269(11) 0.2994(11)
H11 H 0.1929 -0.0367 0.3455
H12 H 0.3083 -0.1146 0.2629
C16 C 0.2014(19) 0.0145(14) 0.2016(11)
H13 H 0.0733 -0.0568 0.1475
H14 H 0.1720 0.0986 0.2389
C17 C 0.3457(16) 0.0371(10) 0.1289(11)
H15 H 0.2864 0.0664 0.0697
H16 H 0.3691 -0.0479 0.0865
C18 C 0.5478(15) 0.1477(9) 0.2156(9)
H17 H 0.6436 0.1599 0.1703
H18 H 0.5240 0.2342 0.2514
S1 S 1.2576(18) 0.1673(11) 0.6264(10)
N1 N 0.938(2) 0.1781(12) 0.4817(12)
N2 N 1.2224(9) 0.3819(7) 0.5845(5)
O1 O 0.886(2) 0.3438(12) 0.4191(12)
H19 H 0.918(6) 0.0899(17) 0.454(4)
H20 H 1.129(5) 0.415(4) 0.560(3)
C19? C 1.4044(16) 0.4630(19) 0.6642(11)
C20? C 1.574(2) 0.480(3) 0.6233(13)
H21? H 1.5553 0.4330 0.5412
C21? C 1.7640(19) 0.5594(19) 0.6957(14)
H22? H 1.8726 0.5649 0.6630
C22? C 1.802(2) 0.635(2) 0.8205(14)
H23? H 1.9328 0.6931 0.8711
C23? C 1.632(3) 0.618(3) 0.8638(14)
C24? C 1.656(3) 0.682(3) 0.9838(16)
H24? H 1.7861 0.7371 1.0373
C25? C 1.489(3) 0.666(3) 1.0264(14)
H25? H 1.5100 0.7078 1.1092
C26? C 1.298(3) 0.593(3) 0.9538(14)
H26? H 1.1874 0.5978 0.9844
C27? C 1.261(3) 0.507(3) 0.8293(12)
H27? H 1.1367 0.4381 0.7805
C28? C 1.434(2) 0.536(3) 0.7873(12)
C29? C 1.100(3) 0.253(2) 0.5789(19)
C30? C 0.809(3) 0.221(2) 0.424(2)
C31? C 0.629(3) 0.110(4) 0.3220(19)
H28? H 0.6531 0.0227 0.3069
C32? C 0.444(3) 0.103(3) 0.364(2)
H29? H 0.4248 0.1923 0.3884
H30? H 0.4647 0.0828 0.4344
C33? C 0.256(4) -0.005(3) 0.2673(18)
H31? H 0.2702 -0.0944 0.2488
H32? H 0.1378 -0.0039 0.2970
C34? C 0.219(3) 0.017(2) 0.1542(17)
H33? H 0.1000 -0.0564 0.0919
H34? H 0.1951 0.1042 0.1694
C35? C 0.408(3) 0.018(2) 0.116(2)
H35? H 0.3886 0.0311 0.0420
H36? H 0.4230 -0.0711 0.0981
C36? C 0.602(3) 0.126(2) 0.2064(17)
H37? H 0.7176 0.1164 0.1762
H38? H 0.5957 0.2172 0.2197
S2? S 1.222(3) 0.1767(19) 0.6457(17)
N3? N 1.1590(19) 0.3881(14) 0.6219(11)
N4? N 0.972(3) 0.176(2) 0.461(2)
O2? O 0.838(4) 0.341(2) 0.448(2)
loop_
_geom_bond_atom_site_label_1
_geom_bond_atom_site_label_2
_geom_bond_site_symmetry_1
_geom_bond_site_symmetry_2
C1 C2 1_555 1_555
C2 H1 1_555 1_555
C3 C2 1_555 1_555
H2 C3 1_555 1_555
C4 C3 1_555 1_555
H3 C4 1_555 1_555
C5 C4 1_555 1_555
C6 C5 1_555 1_555
H4 C6 1_555 1_555
C7 C6 1_555 1_555
H5 C7 1_555 1_555
C8 C7 1_555 1_555
H6 C8 1_555 1_555
C9 C8 1_555 1_555
H7 C9 1_555 1_555
C10 C1 1_555 1_555
C11 S1 1_555 1_555
C12 C13 1_555 1_555
C13 H8 1_555 1_555
C14 C13 1_555 1_555
H9 C14 1_555 1_555
H10 C14 1_555 1_555
C15 C14 1_555 1_555
H11 C15 1_555 1_555
H12 C15 1_555 1_555
C16 C15 1_555 1_555
H13 C16 1_555 1_555
H14 C16 1_555 1_555
C17 C16 1_555 1_555
H15 C17 1_555 1_555
H16 C17 1_555 1_555
C18 C13 1_555 1_555
H17 C18 1_555 1_555
H18 C18 1_555 1_555
N1 C11 1_555 1_555
N2 C1 1_555 1_555
O1 C12 1_555 1_555
H19 N1 1_555 1_555
H20 N2 1_555 1_555
C5 C10 1_555 1_555
C9 C10 1_555 1_555
C11 N2 1_555 1_555
C12 N1 1_555 1_555
C17 C18 1_555 1_555

#END
