
#######################################################################
#
#                 Cambridge Crystallographic Data Centre
#                                CCDC 
#
#######################################################################
#
# If this CIF has been generated from an entry in the Cambridge 
# Structural Database, then it will include bibliographic, chemical, 
# crystal, experimental, refinement or atomic coordinate data resulting 
# from the CCDC's data processing and validation procedures.
#
#######################################################################

data_BOPGUK
_chemical_formula_moiety         'C16 H12 O2 S9'
_chemical_name_systematic        
'(2-(5,6-Dihydro[1,3]dithiolo[4,5-b][1,4]dithiin-2-ylidene)-5,6-dihydro[1,3]dithiolo[4,5-b][1,4]dithiin-5-yl)methyl thiophene-2-carboxylate'
_symmetry_cell_setting           triclinic
_symmetry_space_group_name_H-M   'P -1'
_symmetry_Int_Tables_number      2
_space_group_name_Hall           '-P 1'
loop_
_symmetry_equiv_pos_site_id
_symmetry_equiv_pos_as_xyz
1 x,y,z
2 -x,-y,-z
_cell_length_a                   6.5563(5)
_cell_length_b                   9.9629(8)
_cell_length_c                   16.1326(13)
_cell_angle_alpha                105.019(2)
_cell_angle_beta                 96.449(2)
_cell_angle_gamma                97.549(2)
_cell_volume                     997.101
_exptl_crystal_colour            orange
_exptl_crystal_description       plate
_cell_formula_units_Z            2
loop_
_atom_site_label
_atom_site_type_symbol
_atom_site_fract_x
_atom_site_fract_y
_atom_site_fract_z
C1 C 0.9851(4) -0.3469(3) 0.10563(15)
H1 H 0.9361 -0.3162 0.0543
H2 H 1.0783 -0.4160 0.0874
C2 C 0.7986(4) -0.4203(3) 0.13341(16)
H3 H 0.8465 -0.4507 0.1850
H4 H 0.7354 -0.5060 0.0862
C3 C 0.9574(3) -0.1379(2) 0.25607(14)
C4 C 0.7504(3) -0.1781(2) 0.24519(13)
C5 C 0.8353(3) 0.0218(2) 0.38776(14)
C6 C 0.8218(3) 0.1328(2) 0.45425(13)
C7 C 0.9023(3) 0.3690(2) 0.57604(13)
C8 C 0.6953(3) 0.3296(2) 0.56497(13)
C9 C 0.8651(3) 0.6330(2) 0.68544(15)
H5 H 0.9243 0.7330 0.6905
C10 C 0.6570(3) 0.5984(2) 0.62592(15)
H6 H 0.6810 0.6044 0.5674
H7 H 0.5698 0.6695 0.6484
C11 C 0.8427(4) 0.6237(2) 0.77634(15)
H8 H 0.7878 0.5258 0.7754
H9 H 0.9790 0.6543 0.8147
C12 C 0.6253(4) 0.7070(2) 0.87933(14)
C13 C 0.4617(4) 0.7928(2) 0.89707(15)
C14 C 0.3618(4) 0.8116(2) 0.97093(16)
H10 H 0.3919 0.7716 1.0174
C15 C 0.2099(4) 0.8989(3) 0.96580(18)
H11 H 0.1249 0.9244 1.0094
C16 C 0.1970(4) 0.9430(3) 0.89259(19)
H12 H 0.1021 1.0017 0.8797
S1 S 1.13507(9) -0.19526(8) 0.18762(4)
S2 S 0.60188(9) -0.31197(7) 0.15915(4)
S3 S 1.07436(8) -0.01282(6) 0.35419(3)
S4 S 0.61853(8) -0.10317(6) 0.33006(3)
S5 S 1.04277(8) 0.25125(6) 0.51434(4)
S6 S 0.58575(8) 0.16879(5) 0.48846(4)
S7 S 1.05559(8) 0.52503(6) 0.64341(4)
S8 S 0.51901(8) 0.42553(6) 0.61725(4)
S9 S 0.36880(11) 0.88165(7) 0.82686(4)
O1 O 0.6983(3) 0.71676(18) 0.80645(11)
O2 O 0.6861(3) 0.63567(19) 0.92396(11)
loop_
_geom_bond_atom_site_label_1
_geom_bond_atom_site_label_2
_geom_bond_site_symmetry_1
_geom_bond_site_symmetry_2
C1 H1 1_555 1_555
H2 C1 1_555 1_555
C2 C1 1_555 1_555
H3 C2 1_555 1_555
H4 C2 1_555 1_555
C3 C4 1_555 1_555
C4 S2 1_555 1_555
C5 C6 1_555 1_555
C6 S5 1_555 1_555
C7 C8 1_555 1_555
C8 S6 1_555 1_555
C9 H5 1_555 1_555
C10 C9 1_555 1_555
H6 C10 1_555 1_555
H7 C10 1_555 1_555
C11 C9 1_555 1_555
H8 C11 1_555 1_555
H9 C11 1_555 1_555
C12 C13 1_555 1_555
C13 C14 1_555 1_555
C14 H10 1_555 1_555
C15 C14 1_555 1_555
H11 C15 1_555 1_555
C16 C15 1_555 1_555
H12 C16 1_555 1_555
S1 C1 1_555 1_555
S2 C2 1_555 1_555
S3 C3 1_555 1_555
S4 C4 1_555 1_555
S5 C7 1_555 1_555
S6 C6 1_555 1_555
S7 C7 1_555 1_555
S8 C8 1_555 1_555
S9 C13 1_555 1_555
O1 C11 1_555 1_555
O2 C12 1_555 1_555
C3 S1 1_555 1_555
C5 S3 1_555 1_555
C5 S4 1_555 1_555
C9 S7 1_555 1_555
C10 S8 1_555 1_555
C12 O1 1_555 1_555
C16 S9 1_555 1_555

#END
