
#######################################################################
#
#                 Cambridge Crystallographic Data Centre
#                                CCDC 
#
#######################################################################
#
# If this CIF has been generated from an entry in the Cambridge 
# Structural Database, then it will include bibliographic, chemical, 
# crystal, experimental, refinement or atomic coordinate data resulting 
# from the CCDC's data processing and validation procedures.
#
#######################################################################

data_BOPGAO
_chemical_formula_moiety         'C17 H16 N2 O5'
_chemical_name_systematic        
5-Acetoxy-3-(4-nitrophenyl)-2-phenylisoxazolidine
_symmetry_cell_setting           monoclinic
_symmetry_space_group_name_H-M   'C c'
_symmetry_Int_Tables_number      9
_space_group_name_Hall           'C -2yc'
loop_
_symmetry_equiv_pos_site_id
_symmetry_equiv_pos_as_xyz
1 x,y,z
2 x,-y,1/2+z
3 1/2+x,1/2+y,z
4 1/2+x,1/2-y,1/2+z
_cell_length_a                   17.9115(13)
_cell_length_b                   11.6279(13)
_cell_length_c                   7.7010(7)
_cell_angle_alpha                90
_cell_angle_beta                 95.842(3)
_cell_angle_gamma                90
_cell_volume                     1595.58
_exptl_crystal_colour            'pale yellow'
_exptl_crystal_description       block
_chemical_melting_point          '405.2 K'
_cell_formula_units_Z            4
_exptl_crystal_recrystallization_method benzene
loop_
_atom_site_label
_atom_site_type_symbol
_atom_site_fract_x
_atom_site_fract_y
_atom_site_fract_z
O1 O 0.60658(12) 0.73686(16) 0.5439(3)
O2 O 0.58414(10) 0.56527(16) 0.6939(2)
O3 O 0.46880(12) 0.58005(19) 0.5493(3)
O4 O 1.02155(15) 0.4889(3) 1.0266(4)
O5 O 0.96400(16) 0.3468(2) 0.8875(4)
N1 N 0.68700(13) 0.72061(19) 0.5441(3)
N2 N 0.96892(17) 0.4486(3) 0.9318(4)
C1 C 0.71957(16) 0.7439(2) 0.7266(3)
H1 H 0.7348 0.8265 0.7387
C2 C 0.65347(18) 0.7202(3) 0.8349(4)
H2 H 0.6653 0.6557 0.9171
H3 H 0.6415 0.7893 0.9020
C3 C 0.58912(16) 0.6897(2) 0.7015(4)
H4 H 0.5412 0.7232 0.7354
C4 C 0.51913(18) 0.5210(3) 0.6178(4)
C5 C 0.5166(2) 0.3929(2) 0.6325(5)
H5 H 0.4839 0.3615 0.5341
H6 H 0.4969 0.3716 0.7422
H7 H 0.5673 0.3616 0.6308
C6 C 0.71369(16) 0.7949(2) 0.4150(3)
C7 C 0.79020(17) 0.7992(2) 0.4027(4)
H8 H 0.8232 0.7552 0.4810
C8 C 0.81917(19) 0.8666(2) 0.2782(4)
H9 H 0.8718 0.8687 0.2709
C9 C 0.77112(19) 0.9313(2) 0.1633(4)
H10 H 0.7906 0.9773 0.0765
C10 C 0.69573(18) 0.9280(2) 0.1764(4)
H11 H 0.6632 0.9736 0.0995
C11 C 0.66532(17) 0.8594(2) 0.2998(4)
H12 H 0.6126 0.8566 0.3053
C12 C 0.78694(15) 0.6671(2) 0.7752(3)
C13 C 0.78278(16) 0.5495(2) 0.7363(4)
H13 H 0.7382 0.5186 0.6765
C14 C 0.84288(17) 0.4784(2) 0.7841(4)
H14 H 0.8405 0.3987 0.7571
C15 C 0.90670(16) 0.5256(3) 0.8723(4)
C16 C 0.91287(17) 0.6412(2) 0.9109(4)
H15 H 0.9575 0.6716 0.9707
C17 C 0.85219(16) 0.7120(2) 0.8602(4)
H16 H 0.8555 0.7921 0.8841
loop_
_geom_bond_atom_site_label_1
_geom_bond_atom_site_label_2
_geom_bond_site_symmetry_1
_geom_bond_site_symmetry_2
O1 N1 1_555 1_555
O2 C3 1_555 1_555
O3 C4 1_555 1_555
O4 N2 1_555 1_555
O5 N2 1_555 1_555
N1 C1 1_555 1_555
N2 C15 1_555 1_555
C1 H1 1_555 1_555
C2 C1 1_555 1_555
H2 C2 1_555 1_555
H3 C2 1_555 1_555
C3 O1 1_555 1_555
H4 C3 1_555 1_555
C4 O2 1_555 1_555
C5 C4 1_555 1_555
H5 C5 1_555 1_555
H6 C5 1_555 1_555
H7 C5 1_555 1_555
C6 N1 1_555 1_555
C7 C6 1_555 1_555
H8 C7 1_555 1_555
C8 C7 1_555 1_555
H9 C8 1_555 1_555
C9 C8 1_555 1_555
H10 C9 1_555 1_555
C10 C9 1_555 1_555
H11 C10 1_555 1_555
C11 C6 1_555 1_555
H12 C11 1_555 1_555
C12 C1 1_555 1_555
C13 C12 1_555 1_555
H13 C13 1_555 1_555
C14 C13 1_555 1_555
H14 C14 1_555 1_555
C15 C14 1_555 1_555
C16 C15 1_555 1_555
H15 C16 1_555 1_555
C17 C12 1_555 1_555
H16 C17 1_555 1_555
C2 C3 1_555 1_555
C10 C11 1_555 1_555
C16 C17 1_555 1_555

#END
