
#######################################################################
#
#                 Cambridge Crystallographic Data Centre
#                                CCDC 
#
#######################################################################
#
# If this CIF has been generated from an entry in the Cambridge 
# Structural Database, then it will include bibliographic, chemical, 
# crystal, experimental, refinement or atomic coordinate data resulting 
# from the CCDC's data processing and validation procedures.
#
#######################################################################

data_BOPJEW
_chemical_compound_source        'Penicillium sp. strain HLKG-44'
_chemical_name_common            'Brefeldin A formylate'
_chemical_formula_moiety         'C17 H24 O5'
_chemical_name_systematic        
'1-Hydroxy-6-methyl-4-oxo-1,6,7,8,9,11a,12,13,14,14a-decahydro-4H-cyclopenta[f]oxacyclotridecin-13-yl formate'
_chemical_properties_biological  
'moderate cytotoxic activity against human lung cancer cell line A549'
_symmetry_cell_setting           monoclinic
_symmetry_space_group_name_H-M   'P 21'
_symmetry_Int_Tables_number      4
_space_group_name_Hall           'P 2yb'
loop_
_symmetry_equiv_pos_site_id
_symmetry_equiv_pos_as_xyz
1 x,y,z
2 -x,1/2+y,-z
_cell_length_a                   9.901(4)
_cell_length_b                   5.818(2)
_cell_length_c                   14.803(6)
_cell_angle_alpha                90
_cell_angle_beta                 103.030(7)
_cell_angle_gamma                90
_cell_volume                     830.757
_exptl_crystal_colour            colorless
_exptl_crystal_description       chunk
_chemical_melting_point          128.6-130.3deg.C
_cell_formula_units_Z            2
loop_
_atom_site_label
_atom_site_type_symbol
_atom_site_fract_x
_atom_site_fract_y
_atom_site_fract_z
O1 O 0.38541(19) 0.5500(4) 0.53304(12)
H1 H 0.3021 0.5727 0.5140
C1 C 0.4429(2) 0.7261(5) 0.59667(15)
H2 H 0.4706 0.8526 0.5610
C2 C 0.5702(2) 0.6349(5) 0.65932(16)
H3 H 0.6210 0.7378 0.7019
C3 C 0.6189(3) 0.4240(5) 0.66111(16)
H4 H 0.5756 0.3212 0.6156
C4 C 0.7380(3) 0.3444(5) 0.73154(18)
O2 O 0.7670(2) 0.1452(4) 0.74756(15)
O3 O 0.80845(19) 0.5179(3) 0.78001(12)
C5 C 0.9055(3) 0.4699(6) 0.86665(18)
H5 H 0.9092 0.3041 0.8786
C6 C 0.8513(3) 0.5920(6) 0.94038(19)
H6 H 0.8439 0.7546 0.9256
H7 H 0.9181 0.5752 0.9990
C7 C 0.7094(3) 0.5062(6) 0.9526(2)
H8 H 0.6672 0.4141 0.8990
H9 H 0.7241 0.4068 1.0066
C8 C 0.6091(3) 0.6939(7) 0.96412(18)
H10 H 0.5287 0.6248 0.9805
H11 H 0.6532 0.7935 1.0148
C9 C 0.5625(3) 0.8349(6) 0.87863(16)
H12 H 0.6267 0.9365 0.8637
C10 C 0.3938(2) 0.9646(5) 0.73557(15)
H13 H 0.4732 1.0532 0.7253
C11 C 0.4397(3) 0.8288(5) 0.82272(16)
H14 H 0.3747 0.7306 0.8388
C12 C 0.2750(3) 1.1356(7) 0.7406(2)
H15 H 0.2394 1.1058 0.7954
H16 H 0.3088 1.2925 0.7435
O4 O 0.06101(19) 0.9441(4) 0.67950(14)
C13 C 0.1623(3) 1.1005(6) 0.65415(19)
H17 H 0.1198 1.2463 0.6295
C14 C 0.3357(2) 0.8206(5) 0.64749(15)
H18 H 0.2842 0.6905 0.6650
C15 C 0.2320(3) 0.9836(6) 0.58739(17)
H19 H 0.2792 1.0941 0.5563
H20 H 0.1655 0.8990 0.5412
C16 C 1.0456(3) 0.5544(8) 0.8577(2)
H21 H 1.0745 0.4700 0.8096
H22 H 1.1115 0.5321 0.9154
H23 H 1.0399 0.7149 0.8423
O5 O -0.1000(2) 1.0409(7) 0.5549(2)
C17 C -0.0626(3) 0.9344(8) 0.6241(2)
H24 H -0.1265 0.8351 0.6407
loop_
_geom_bond_atom_site_label_1
_geom_bond_atom_site_label_2
_geom_bond_site_symmetry_1
_geom_bond_site_symmetry_2
O1 H1 1_555 1_555
C1 O1 1_555 1_555
H2 C1 1_555 1_555
C2 C1 1_555 1_555
H3 C2 1_555 1_555
C3 C2 1_555 1_555
H4 C3 1_555 1_555
C4 C3 1_555 1_555
O2 C4 1_555 1_555
O3 C4 1_555 1_555
C5 O3 1_555 1_555
H5 C5 1_555 1_555
C6 C5 1_555 1_555
H6 C6 1_555 1_555
H7 C6 1_555 1_555
C7 C6 1_555 1_555
H8 C7 1_555 1_555
H9 C7 1_555 1_555
C8 C7 1_555 1_555
H10 C8 1_555 1_555
H11 C8 1_555 1_555
C9 C8 1_555 1_555
H12 C9 1_555 1_555
C10 H13 1_555 1_555
C11 C9 1_555 1_555
H14 C11 1_555 1_555
C12 C10 1_555 1_555
H15 C12 1_555 1_555
H16 C12 1_555 1_555
O4 C13 1_555 1_555
C13 C12 1_555 1_555
H17 C13 1_555 1_555
C14 C1 1_555 1_555
H18 C14 1_555 1_555
C15 C13 1_555 1_555
H19 C15 1_555 1_555
H20 C15 1_555 1_555
C16 C5 1_555 1_555
H21 C16 1_555 1_555
H22 C16 1_555 1_555
H23 C16 1_555 1_555
O5 C17 1_555 1_555
C17 O4 1_555 1_555
H24 C17 1_555 1_555
C10 C11 1_555 1_555
C10 C14 1_555 1_555
C14 C15 1_555 1_555

#END
