
#######################################################################
#
#                 Cambridge Crystallographic Data Centre
#                                CCDC 
#
#######################################################################
#
# If this CIF has been generated from an entry in the Cambridge 
# Structural Database, then it will include bibliographic, chemical, 
# crystal, experimental, refinement or atomic coordinate data resulting 
# from the CCDC's data processing and validation procedures.
#
#######################################################################

data_BOPLOI
_chemical_formula_moiety         'C21 H26 O3'
_chemical_name_systematic        1,11-Epoxy-5,9-cyclopregn-16-ene-3,20-dione
_symmetry_cell_setting           orthorhombic
_symmetry_space_group_name_H-M   'P 21 21 21'
_symmetry_Int_Tables_number      19
_space_group_name_Hall           'P 2ac 2ab'
loop_
_symmetry_equiv_pos_site_id
_symmetry_equiv_pos_as_xyz
1 x,y,z
2 1/2+x,1/2-y,-z
3 -x,1/2+y,1/2-z
4 1/2-x,-y,1/2+z
_cell_length_a                   7.001(3)
_cell_length_b                   11.876(3)
_cell_length_c                   20.981(6)
_cell_angle_alpha                90
_cell_angle_beta                 90
_cell_angle_gamma                90
_cell_volume                     1744.44
_exptl_crystal_colour            colorless
_exptl_crystal_description       chunk
_chemical_melting_point          217-219deg.C
_cell_formula_units_Z            4
loop_
_atom_site_label
_atom_site_type_symbol
_atom_site_fract_x
_atom_site_fract_y
_atom_site_fract_z
O1 O 0.6206(2) 0.78037(12) 0.17357(6)
O2 O 0.7574(2) 0.77287(14) 0.40691(6)
O3 O 0.7310(3) 0.6110(2) 0.03058(12)
C1 C 0.4883(2) 0.80673(16) 0.12515(8)
C2 C 0.5662(2) 0.77607(14) 0.06056(8)
C3 C 0.5831(2) 0.65276(17) 0.05196(8)
C4 C 0.4251(2) 0.57944(16) 0.07524(8)
C5 C 0.2922(2) 0.62598(12) 0.12551(6)
C6 C 0.1051(2) 0.56278(17) 0.13580(9)
C7 C 0.1022(2) 0.53101(16) 0.20610(8)
C8 C 0.2093(2) 0.62600(12) 0.24053(6)
C9 C 0.3555(2) 0.66454(12) 0.19143(6)
C10 C 0.3006(2) 0.75053(12) 0.14200(8)
C11 C 0.5665(2) 0.67778(14) 0.20516(8)
C12 C 0.6261(2) 0.68388(16) 0.27520(6)
C13 C 0.4556(2) 0.69051(12) 0.32060(6)
C14 C 0.3121(2) 0.59718(12) 0.30138(6)
C15 C 0.2023(3) 0.57266(17) 0.36252(8)
C16 C 0.3481(3) 0.59703(14) 0.41190(9)
C17 C 0.4908(2) 0.65835(13) 0.38986(6)
C18 C 0.3675(2) 0.80936(12) 0.31919(9)
C19 C 0.1288(3) 0.82516(17) 0.14464(10)
C20 C 0.6535(3) 0.70029(16) 0.42794(8)
C21 C 0.6823(4) 0.65437(18) 0.49342(9)
H1 H 0.4684 0.8859 0.1258
H2 H 0.1228 0.6860 0.2486
H3 H 0.6329 0.6171 0.1857
H4 H 0.3859 0.5319 0.2926
H5 H 0.3398 0.5713 0.4547
H6 H 0.6890 0.8090 0.0558
H7 H 0.4829 0.8050 0.0288
H8 H 0.4818 0.5133 0.0923
H9 H 0.3492 0.5602 0.0393
H10 H 0.1011 0.4971 0.1100
H11 H -0.0006 0.6097 0.1258
H12 H 0.1663 0.4596 0.2127
H13 H -0.0282 0.5259 0.2214
H14 H 0.6983 0.6185 0.2852
H15 H 0.7031 0.7489 0.2811
H16 H 0.1619 0.4963 0.3642
H17 H 0.0945 0.6207 0.3667
H18 H 0.4559 0.8619 0.3364
H19 H 0.3387 0.8295 0.2764
H20 H 0.2537 0.8100 0.3438
H21 H 0.1529 0.8863 0.1727
H22 H 0.1019 0.8532 0.1032
H23 H 0.0223 0.7833 0.1597
H24 H 0.6980 0.5750 0.4912
H25 H 0.5742 0.6716 0.5190
H26 H 0.7931 0.6873 0.5118
O4? O 0.641(2) 0.6170(10) 0.0004(3)
loop_
_geom_bond_atom_site_label_1
_geom_bond_atom_site_label_2
_geom_bond_site_symmetry_1
_geom_bond_site_symmetry_2
O1 C1 1_555 1_555
O2 C20 1_555 1_555
O3 C3 1_555 1_555
C1 C2 1_555 1_555
C2 C3 1_555 1_555
C3 C4 1_555 1_555
C4 C5 1_555 1_555
C5 C6 1_555 1_555
C6 C7 1_555 1_555
C7 C8 1_555 1_555
C8 C9 1_555 1_555
C9 C5 1_555 1_555
C10 C1 1_555 1_555
C11 O1 1_555 1_555
C12 C11 1_555 1_555
C13 C12 1_555 1_555
C14 C8 1_555 1_555
C15 C14 1_555 1_555
C16 C15 1_555 1_555
C17 C13 1_555 1_555
C18 C13 1_555 1_555
C19 C10 1_555 1_555
C20 C17 1_555 1_555
C21 C20 1_555 1_555
H1 C1 1_555 1_555
H2 C8 1_555 1_555
H3 C11 1_555 1_555
H4 C14 1_555 1_555
H5 C16 1_555 1_555
H6 C2 1_555 1_555
H7 C2 1_555 1_555
H8 C4 1_555 1_555
H9 C4 1_555 1_555
H10 C6 1_555 1_555
H11 C6 1_555 1_555
H12 C7 1_555 1_555
H13 C7 1_555 1_555
H14 C12 1_555 1_555
H15 C12 1_555 1_555
H16 C15 1_555 1_555
H17 C15 1_555 1_555
H18 C18 1_555 1_555
H19 C18 1_555 1_555
H20 C18 1_555 1_555
H21 C19 1_555 1_555
H22 C19 1_555 1_555
H23 C19 1_555 1_555
H24 C21 1_555 1_555
H25 C21 1_555 1_555
H26 C21 1_555 1_555
C5 C10 1_555 1_555
C9 C10 1_555 1_555
C9 C11 1_555 1_555
C13 C14 1_555 1_555
C16 C17 1_555 1_555

#END
