
#######################################################################
#
#                 Cambridge Crystallographic Data Centre
#                                CCDC 
#
#######################################################################
#
# If this CIF has been generated from an entry in the Cambridge 
# Structural Database, then it will include bibliographic, chemical, 
# crystal, experimental, refinement or atomic coordinate data resulting 
# from the CCDC's data processing and validation procedures.
#
#######################################################################

data_BOPMEY
_chemical_formula_moiety         'C11 H14 Cl1 N1 O2'
_chemical_name_systematic        4-Chloro-2-(morpholinomethyl)phenol
_symmetry_cell_setting           triclinic
_symmetry_space_group_name_H-M   'P -1'
_symmetry_Int_Tables_number      2
_space_group_name_Hall           '-P 1'
loop_
_symmetry_equiv_pos_site_id
_symmetry_equiv_pos_as_xyz
1 x,y,z
2 -x,-y,-z
_cell_length_a                   9.3410(1)
_cell_length_b                   9.8782(1)
_cell_length_c                   12.4671(2)
_cell_angle_alpha                87.427(1)
_cell_angle_beta                 88.548(1)
_cell_angle_gamma                88.604(1)
_cell_volume                     1148.53
_exptl_crystal_colour            colorless
_exptl_crystal_description       block
_cell_formula_units_Z            4
_exptl_crystal_recrystallization_method 'petroleum ether/ethyl acetate'
loop_
_atom_site_label
_atom_site_type_symbol
_atom_site_fract_x
_atom_site_fract_y
_atom_site_fract_z
Cl1 Cl 0.35232(7) 0.17126(6) -0.04398(5)
O1 O 0.07950(15) -0.04004(14) 0.35593(10)
H1 H -0.0046 -0.0147 0.3604
O2 O -0.33409(16) 0.26135(15) 0.43555(13)
N1 N -0.15655(15) 0.10358(14) 0.29717(11)
C1 C 0.2700(2) 0.10825(17) 0.07440(14)
C2 C 0.12298(19) 0.11467(17) 0.08490(13)
C3 C 0.05529(18) 0.06459(16) 0.17871(12)
C4 C 0.13916(19) 0.01075(16) 0.26248(13)
C5 C 0.2873(2) 0.00707(19) 0.25068(15)
C6 C 0.3526(2) 0.0542(2) 0.15610(16)
C7 C -0.1055(2) 0.0629(2) 0.19003(15)
C8 C -0.1303(2) 0.24688(17) 0.31283(15)
C9 C -0.1851(2) 0.2856(2) 0.42248(18)
C10 C -0.3590(3) 0.1224(3) 0.4233(2)
C11 C -0.3099(2) 0.0794(3) 0.3129(2)
H3 H 0.063(3) 0.161(2) 0.0292(18)
H4 H 0.336(3) -0.031(2) 0.306(2)
H5 H 0.445(3) 0.051(3) 0.1510(19)
H6 H -0.145(3) -0.038(3) 0.1825(18)
H7 H -0.147(3) 0.121(2) 0.1325(19)
H8 H -0.171(2) 0.302(2) 0.2582(18)
H9 H -0.028(2) 0.2615(19) 0.3103(15)
H10 H -0.175(2) 0.387(2) 0.4339(16)
H11 H -0.129(3) 0.228(2) 0.4806(19)
H12 H -0.469(3) 0.110(3) 0.427(2)
H13 H -0.305(3) 0.064(2) 0.4785(18)
H14 H -0.327(3) -0.020(3) 0.3045(18)
H15 H -0.365(3) 0.130(3) 0.254(2)
Cl2 Cl 0.21049(6) 0.22407(6) 0.48426(4)
O3 O 0.38031(15) 0.51792(15) 0.85700(10)
H2 H 0.4679 0.5181 0.8605
O4 O 0.88801(14) 0.37983(14) 0.91928(11)
N2 N 0.65474(14) 0.47018(12) 0.78876(9)
C12 C 0.26115(18) 0.31297(16) 0.59486(13)
C13 C 0.39810(18) 0.36232(16) 0.59635(12)
C14 C 0.44074(16) 0.43346(15) 0.68355(11)
C15 C 0.34283(18) 0.44970(16) 0.76988(12)
C16 C 0.2067(2) 0.3984(2) 0.76721(15)
C17 C 0.1642(2) 0.33031(18) 0.67964(15)
C18 C 0.58548(18) 0.49588(17) 0.68481(12)
C19 C 0.69287(19) 0.32585(16) 0.80575(13)
C20 C 0.7633(2) 0.3019(2) 0.91295(16)
C21 C 0.8513(2) 0.5206(2) 0.90396(16)
C22 C 0.7844(2) 0.54987(18) 0.79593(14)
H16 H 0.465(2) 0.3548(18) 0.5360(14)
H17 H 0.138(3) 0.406(2) 0.8272(19)
H18 H 0.073(2) 0.300(2) 0.6783(17)
H19 H 0.574(2) 0.598(2) 0.6736(14)
H20 H 0.646(2) 0.464(2) 0.6250(17)
H21 H 0.760(2) 0.2928(19) 0.7486(15)
H22 H 0.603(2) 0.2722(19) 0.8048(14)
H23 H 0.800(3) 0.207(2) 0.9205(17)
H24 H 0.698(2) 0.324(2) 0.9699(17)
H25 H 0.941(3) 0.571(2) 0.9094(16)
H26 H 0.780(3) 0.552(2) 0.9643(18)
H27 H 0.854(3) 0.526(2) 0.7354(18)
H28 H 0.758(2) 0.652(2) 0.7850(15)
loop_
_geom_bond_atom_site_label_1
_geom_bond_atom_site_label_2
_geom_bond_site_symmetry_1
_geom_bond_site_symmetry_2
Cl1 C1 1_555 1_555
O1 H1 1_555 1_555
O2 C9 1_555 1_555
N1 C7 1_555 1_555
C1 C2 1_555 1_555
C2 C3 1_555 1_555
C3 C4 1_555 1_555
C4 O1 1_555 1_555
C5 C4 1_555 1_555
C6 C1 1_555 1_555
C7 C3 1_555 1_555
C8 N1 1_555 1_555
C9 C8 1_555 1_555
C10 O2 1_555 1_555
C11 N1 1_555 1_555
Cl2 C12 1_555 1_555
O3 H2 1_555 1_555
O4 C20 1_555 1_555
N2 C18 1_555 1_555
C12 C13 1_555 1_555
C13 C14 1_555 1_555
C14 C15 1_555 1_555
C15 O3 1_555 1_555
C16 C15 1_555 1_555
C17 C12 1_555 1_555
C18 C14 1_555 1_555
C19 N2 1_555 1_555
C20 C19 1_555 1_555
C21 O4 1_555 1_555
C22 N2 1_555 1_555
H3 C2 1_555 1_555
H4 C5 1_555 1_555
H5 C6 1_555 1_555
H6 C7 1_555 1_555
H7 C7 1_555 1_555
H8 C8 1_555 1_555
H9 C8 1_555 1_555
H10 C9 1_555 1_555
H11 C9 1_555 1_555
H12 C10 1_555 1_555
H13 C10 1_555 1_555
H14 C11 1_555 1_555
H15 C11 1_555 1_555
H16 C13 1_555 1_555
H17 C16 1_555 1_555
H18 C17 1_555 1_555
H19 C18 1_555 1_555
H20 C18 1_555 1_555
H21 C19 1_555 1_555
H22 C19 1_555 1_555
H23 C20 1_555 1_555
H24 C20 1_555 1_555
H25 C21 1_555 1_555
H26 C21 1_555 1_555
H27 C22 1_555 1_555
H28 C22 1_555 1_555
C5 C6 1_555 1_555
C10 C11 1_555 1_555
C16 C17 1_555 1_555
C21 C22 1_555 1_555

#END
