
#######################################################################
#
#                 Cambridge Crystallographic Data Centre
#                                CCDC 
#
#######################################################################
#
# If this CIF has been generated from an entry in the Cambridge 
# Structural Database, then it will include bibliographic, chemical, 
# crystal, experimental, refinement or atomic coordinate data resulting 
# from the CCDC's data processing and validation procedures.
#
#######################################################################

data_BOPNAV10
_chemical_formula_moiety         'C42 H38,C7 H8'
_chemical_name_systematic        
'1,1,1,6,6,6-Hexaphenylhexane toluene clathrate'
_symmetry_cell_setting           monoclinic
_symmetry_space_group_name_H-M   'P 21/n'
_symmetry_Int_Tables_number      14
_space_group_name_Hall           '-P 2yn'
loop_
_symmetry_equiv_pos_site_id
_symmetry_equiv_pos_as_xyz
1 x,y,z
2 1/2-x,1/2+y,1/2-z
3 -x,-y,-z
4 1/2+x,1/2-y,1/2+z
_cell_length_a                   16.685(9)
_cell_length_b                   7.915(4)
_cell_length_c                   14.772(7)
_cell_angle_alpha                90
_cell_angle_beta                 110.98(3)
_cell_angle_gamma                90
_cell_volume                     1821.49
_cell_formula_units_Z            2
loop_
_atom_site_label
_atom_site_type_symbol
_atom_site_fract_x
_atom_site_fract_y
_atom_site_fract_z
C22 C -0.0160 0.1670 0.0032
C23 C 0.0413 0.0867 0.0802
C24 C -0.0614 0.0705 -0.0842
H20 H 0.049 0.208 0.125
H21 H -0.101 0.163 -0.121
C24B C 0.0614 -0.0705 0.0842
C23B C -0.0413 -0.0867 -0.0802
C22B C 0.0160 -0.1670 -0.0032
H21B H 0.101 -0.163 0.121
H20B H -0.049 -0.208 -0.125
C1 C 0.6314 0.2125 0.9733
C2 C 0.5719 0.3003 1.0196
C3 C 0.5146 0.4466 0.9658
C4 C 0.5799 0.1012 0.8872
C5 C 0.5126 0.1687 0.8087
C6 C 0.4668 0.0692 0.7311
C7 C 0.4844 -0.0972 0.7269
C8 C 0.5498 -0.1655 0.8010
C9 C 0.5969 -0.0686 0.8819
C10 C 0.6947 0.1033 1.0534
C11 C 0.6674 0.0016 1.1136
C12 C 0.7217 -0.0998 1.1838
C13 C 0.8074 -0.1050 1.1976
C14 C 0.8365 -0.0085 1.1395
C15 C 0.7821 0.0937 1.0690
C16 C 0.6830 0.3451 0.9400
C17 C 0.7185 0.4842 0.9984
C18 C 0.7683 0.6014 0.9712
C19 C 0.7814 0.5807 0.8852
C20 C 0.7471 0.4490 0.8287
C21 C 0.6990 0.3303 0.8549
H1 H 0.608 0.343 1.084
H2 H 0.534 0.213 1.029
H3 H 0.461 0.404 0.910
H4 H 0.545 0.515 0.936
H5 H 0.499 0.297 0.812
H6 H 0.426 0.116 0.686
H7 H 0.459 -0.157 0.677
H8 H 0.567 -0.283 0.800
H9 H 0.640 -0.130 0.934
H10 H 0.612 0.002 1.106
H11 H 0.703 -0.156 1.224
H12 H 0.843 -0.186 1.246
H13 H 0.889 0.0000 1.148
H14 H 0.806 0.158 1.028
H15 H 0.712 0.496 1.064
H16 H 0.784 0.688 1.015
H17 H 0.817 0.686 0.869
H18 H 0.762 0.426 0.774
H19 H 0.683 0.230 0.821
C3B C 0.4854 0.5534 1.0342
C2B C 0.4281 0.6997 0.9804
H3B H 0.539 0.596 1.090
H4B H 0.455 0.485 1.064
C1B C 0.3686 0.7875 1.0267
H1B H 0.392 0.657 0.916
H2B H 0.466 0.787 0.971
C4B C 0.4201 0.8988 1.1128
C10B C 0.3053 0.8967 0.9466
C16B C 0.3170 0.6549 1.0600
C5B C 0.4874 0.8313 1.1913
C9B C 0.4031 1.0686 1.1181
C11B C 0.3326 0.9984 0.8864
C15B C 0.2179 0.9063 0.9310
C17B C 0.2815 0.5158 1.0016
C21B C 0.3010 0.6697 1.1451
C6B C 0.5332 0.9308 1.2689
H5B H 0.501 0.703 1.188
C8B C 0.4502 1.1655 1.1990
H9B H 0.360 1.130 1.066
C12B C 0.2783 1.0998 0.8162
H10B H 0.388 0.998 0.894
C14B C 0.1635 1.0085 0.8605
H14B H 0.194 0.842 0.972
C18B C 0.2317 0.3986 1.0288
H15B H 0.288 0.504 0.936
C20B C 0.2529 0.5510 1.1713
H19B H 0.317 0.770 1.179
C7B C 0.5156 1.0972 1.2731
H6B H 0.574 0.884 1.314
H8B H 0.433 1.283 1.200
C13B C 0.1926 1.1050 0.8024
H11B H 0.297 1.156 0.776
H13B H 0.111 1.0000 0.852
C19B C 0.2186 0.4193 1.1148
H16B H 0.216 0.312 0.985
H18B H 0.238 0.574 1.226
H7B H 0.541 1.157 1.323
H12B H 0.157 1.186 0.754
H17B H 0.183 0.314 1.131
loop_
_geom_bond_atom_site_label_1
_geom_bond_atom_site_label_2
_geom_bond_site_symmetry_1
_geom_bond_site_symmetry_2
C1 C2 1_555 1_555
C2 C3 1_555 1_555
C3 H3 1_555 1_555
C4 C1 1_555 1_555
C5 C4 1_555 1_555
C6 C5 1_555 1_555
C7 C6 1_555 1_555
C8 C7 1_555 1_555
C9 C4 1_555 1_555
C10 C1 1_555 1_555
C11 C10 1_555 1_555
C12 C11 1_555 1_555
C13 C12 1_555 1_555
C14 C13 1_555 1_555
C15 C10 1_555 1_555
C16 C1 1_555 1_555
C17 C16 1_555 1_555
C18 C17 1_555 1_555
C19 C18 1_555 1_555
C20 C19 1_555 1_555
C21 C16 1_555 1_555
C22 C23 1_555 1_555
C23 H20 1_555 1_555
C24 C22 1_555 1_555
H1 C2 1_555 1_555
H2 C2 1_555 1_555
H4 C3 1_555 1_555
H5 C5 1_555 1_555
H6 C6 1_555 1_555
H7 C7 1_555 1_555
H8 C8 1_555 1_555
H9 C9 1_555 1_555
H10 C11 1_555 1_555
H11 C12 1_555 1_555
H12 C13 1_555 1_555
H13 C14 1_555 1_555
H14 C15 1_555 1_555
H15 C17 1_555 1_555
H16 C18 1_555 1_555
H17 C19 1_555 1_555
H18 C20 1_555 1_555
H19 C21 1_555 1_555
H21 C24 1_555 1_555
C3B C3 1_555 1_555
C2B C3B 1_555 1_555
H3B C3B 1_555 1_555
H4B C3B 1_555 1_555
C1B C2B 1_555 1_555
H1B C2B 1_555 1_555
H2B C2B 1_555 1_555
C4B C1B 1_555 1_555
C10B C1B 1_555 1_555
C16B C1B 1_555 1_555
C5B C4B 1_555 1_555
C9B C4B 1_555 1_555
C11B C10B 1_555 1_555
C15B C10B 1_555 1_555
C17B C16B 1_555 1_555
C21B C16B 1_555 1_555
C6B C5B 1_555 1_555
H5B C5B 1_555 1_555
C8B C9B 1_555 1_555
H9B C9B 1_555 1_555
C12B C11B 1_555 1_555
H10B C11B 1_555 1_555
C14B C15B 1_555 1_555
H14B C15B 1_555 1_555
C18B C17B 1_555 1_555
H15B C17B 1_555 1_555
C20B C21B 1_555 1_555
H19B C21B 1_555 1_555
C7B C6B 1_555 1_555
H6B C6B 1_555 1_555
H8B C8B 1_555 1_555
C13B C12B 1_555 1_555
H11B C12B 1_555 1_555
H13B C14B 1_555 1_555
C19B C18B 1_555 1_555
H16B C18B 1_555 1_555
H18B C20B 1_555 1_555
H7B C7B 1_555 1_555
H12B C13B 1_555 1_555
H17B C19B 1_555 1_555
C24B C23 1_555 1_555
C23B C24 1_555 1_555
C22B C24B 1_555 1_555
H21B C24B 1_555 1_555
H20B C23B 1_555 1_555
C8 C9 1_555 1_555
C14 C15 1_555 1_555
C20 C21 1_555 1_555
C8B C7B 1_555 1_555
C14B C13B 1_555 1_555
C20B C19B 1_555 1_555
C23B C22B 1_555 1_555

#END
