
#######################################################################
#
#                 Cambridge Crystallographic Data Centre
#                                CCDC 
#
#######################################################################
#
# If this CIF has been generated from an entry in the Cambridge 
# Structural Database, then it will include bibliographic, chemical, 
# crystal, experimental, refinement or atomic coordinate data resulting 
# from the CCDC's data processing and validation procedures.
#
#######################################################################

data_BOPREO
_chemical_formula_moiety         'C21 H31 Br1 O3'
_chemical_name_systematic        5\a-Bromo-6\b,19-oxido-pregnan-3\b-ol-20-one
_symmetry_cell_setting           orthorhombic
_symmetry_space_group_name_H-M   'P 21 21 21'
_symmetry_Int_Tables_number      19
_space_group_name_Hall           'P 2ac 2ab'
loop_
_symmetry_equiv_pos_site_id
_symmetry_equiv_pos_as_xyz
1 x,y,z
2 1/2+x,1/2-y,-z
3 -x,1/2+y,1/2-z
4 1/2-x,-y,1/2+z
_cell_length_a                   14.121(2)
_cell_length_b                   39.380(8)
_cell_length_c                   6.924(1)
_cell_angle_alpha                90
_cell_angle_beta                 90
_cell_angle_gamma                90
_cell_volume                     3850.33
_cell_formula_units_Z            8
loop_
_atom_site_label
_atom_site_type_symbol
_atom_site_fract_x
_atom_site_fract_y
_atom_site_fract_z
Br1 Br 0.17642 0.14583 0.30360
C1 C 0.29040 0.06744 0.23530
C2 C 0.25818 0.08033 0.43130
C5 C 0.13544 0.03272 0.45560
C7 C 0.03202 0.02300 0.51370
C9 C 0.00906 0.03414 0.72050
C11 C 0.03042 0.07292 0.73830
C13 C -0.01468 0.08162 0.93780
C15 C -0.10107 0.05871 0.95500
C17 C -0.09625 0.03375 0.77810
C19 C 0.06578 0.01246 0.86870
C21 C 0.32796 0.06966 0.59910
C23 C 0.38565 0.08008 0.17000
C24 C -0.13872 0.00023 0.82270
C27 C -0.15373 -0.02478 0.65350
C29 C 0.39247 0.11784 0.17630
C31 C 0.36748 0.13180 0.37850
C33 C 0.27304 0.11932 0.45090
C35 C 0.26003 0.12411 0.66880
C37 C 0.16078 0.11792 0.73700
C39 C 0.13149 0.08057 0.69830
C41 C 0.15690 0.07040 0.48740
H1 H 0.23900 0.07000 0.15500
H2 H 0.29500 0.04200 0.25800
H4 H 0.15600 0.02700 0.31600
H6 H 0.18800 0.01900 0.51400
H7 H -0.02200 0.03300 0.42000
H8 H 0.02200 -0.00400 0.52200
H9 H -0.01000 0.08300 0.65000
H10 H -0.03300 0.10300 0.95300
H11 H 0.03900 0.07800 1.03700
H12 H -0.16800 0.07100 0.94500
H13 H -0.09700 0.04500 1.08300
H14 H -0.14400 0.03600 0.70600
H15 H 0.13700 0.01500 0.85500
H16 H 0.05300 -0.01200 0.84600
H17 H 0.03700 0.01700 1.01400
H18 H 0.30200 0.04400 0.67000
H19 H 0.39800 0.06800 0.52500
H20 H 0.39100 0.06700 0.03800
H21 H 0.44000 0.07300 0.23600
H23 H -0.09900 -0.04000 0.62000
H24 H -0.21100 -0.03700 0.70400
H26 H -0.17300 -0.01400 0.55300
H27 H 0.55400 0.12500 0.22700
H36 H 0.34400 0.12500 0.10600
H44 H 0.37400 0.16100 0.36800
H45 H 0.41500 0.12500 0.45400
H50 H 0.29200 0.15000 0.70600
H53 H 0.10000 0.13000 0.65800
H54 H 0.15900 0.11900 0.87900
H57 H 0.17300 0.06500 0.80000
H60 H 0.12000 0.08300 0.40000
O1 O -0.15084 -0.01035 0.98340
O3 O 0.48557 0.12962 0.12140
O5 O 0.32294 0.09761 0.73820
Br2 Br 0.56018 0.28416 -0.00900
C3 C 0.33288 0.24857 -0.08210
C4 C 0.37154 0.25930 0.11620
C6 C 0.24848 0.30779 0.11610
C8 C 0.22724 0.34509 0.16810
C10 C 0.25077 0.35078 0.38760
C12 C 0.35336 0.34144 0.42080
C14 C 0.37506 0.35527 0.62160
C16 C 0.31319 0.38766 0.63770
C18 C 0.24983 0.38834 0.45130
C20 C 0.18048 0.33061 0.51240
C22 C 0.33476 0.23593 0.27920
C25 C 0.36331 0.21298 -0.14590
C26 C 0.15444 0.40356 0.47400
C28 C 0.10568 0.41711 0.29080
C30 C 0.46845 0.20861 -0.13250
C32 C 0.50693 0.21583 0.06870
C34 C 0.47718 0.25164 0.13460
C36 C 0.48959 0.25578 0.35590
C38 C 0.47591 0.29263 0.42390
C40 C 0.37443 0.30436 0.37920
C42 C 0.34995 0.29715 0.16390
H3 H 0.34400 0.26400 -0.20000
H5 H 0.25700 0.24900 -0.08900
H22 H 0.33700 0.20500 -0.25900
H25 H 0.32300 0.19800 -0.06600
H28 H 0.35700 0.33800 0.71900
H29 H 0.35700 0.41000 0.63900
H30 H 0.26500 0.38900 0.74300
H31 H 0.27600 0.40400 0.37600
H32 H 0.19300 0.33600 0.63700
H33 H 0.12300 0.34100 0.47900
H34 H 0.18900 0.30300 0.47000
H35 H 0.32300 0.21200 0.22500
H37 H 0.50100 0.22200 -0.23900
H38 H 0.58700 0.21200 0.09700
H39 H 0.27300 0.24600 0.35000
H40 H 0.15100 0.43100 0.22200
H41 H 0.04500 0.43200 0.32600
H42 H 0.08000 0.40000 0.22200
H43 H 0.48100 0.15600 -0.10400
H46 H 0.46800 0.19900 0.14500
H47 H 0.55900 0.24900 0.40000
H48 H 0.52900 0.30900 0.38100
H49 H 0.48300 0.29300 0.55900
H51 H 0.33200 0.28600 0.46800
H52 H 0.39100 0.31300 0.07000
H55 H 0.23800 0.30800 -0.01000
H56 H 0.19500 0.29300 0.19000
H58 H 0.27300 0.36200 0.10400
H59 H 0.15500 0.35200 0.15000
H61 H 0.39100 0.35300 0.32500
H62 H 0.44700 0.36100 0.61900
O2 O 0.11076 0.40315 0.62380
O4 O 0.49378 0.17400 -0.18850
O6 O 0.41166 0.23546 0.42040
loop_
_geom_bond_atom_site_label_1
_geom_bond_atom_site_label_2
_geom_bond_site_symmetry_1
_geom_bond_site_symmetry_2
Br1 C33 1_555 1_555
Br2 C34 1_555 1_555
C1 C2 1_555 1_555
C2 C21 1_555 1_555
C3 C4 1_555 1_555
C4 C22 1_555 1_555
C5 C7 1_555 1_555
C6 C8 1_555 1_555
C7 C9 1_555 1_555
C8 C10 1_555 1_555
C9 C11 1_555 1_555
C10 C12 1_555 1_555
C11 C13 1_555 1_555
C12 C14 1_555 1_555
C13 C15 1_555 1_555
C14 C16 1_555 1_555
C15 C17 1_555 1_555
C16 C18 1_555 1_555
C17 C9 1_555 1_555
C18 C10 1_555 1_555
C19 C9 1_555 1_555
C20 C10 1_555 1_555
C21 H18 1_555 1_555
C22 H35 1_555 1_555
C23 C1 1_555 1_555
C24 C17 1_555 1_555
C25 C3 1_555 1_555
C26 C18 1_555 1_555
C27 C24 1_555 1_555
C28 C26 1_555 1_555
C29 C23 1_555 1_555
C30 C25 1_555 1_555
C31 C29 1_555 1_555
C32 C30 1_555 1_555
C33 C2 1_555 1_555
C34 C4 1_555 1_555
C35 C33 1_555 1_555
C36 C34 1_555 1_555
C37 C35 1_555 1_555
C38 C36 1_555 1_555
C39 C11 1_555 1_555
C40 C12 1_555 1_555
C41 C2 1_555 1_555
C42 C4 1_555 1_555
H1 C1 1_555 1_555
H2 C1 1_555 1_555
H3 C3 1_555 1_555
H4 C5 1_555 1_555
H5 C3 1_555 1_555
H6 C5 1_555 1_555
H7 C7 1_555 1_555
H8 C7 1_555 1_555
H9 C11 1_555 1_555
H10 C13 1_555 1_555
H11 C13 1_555 1_555
H12 C15 1_555 1_555
H13 C15 1_555 1_555
H14 C17 1_555 1_555
H15 C19 1_555 1_555
H16 C19 1_555 1_555
H17 C19 1_555 1_555
H19 C21 1_555 1_555
H20 C23 1_555 1_555
H21 C23 1_555 1_555
H22 C25 1_555 1_555
H23 C27 1_555 1_555
H24 C27 1_555 1_555
H25 C25 1_555 1_555
H26 C27 1_555 1_555
H27 O3 1_555 1_555
H28 C14 1_555 1_555
H29 C16 1_555 1_555
H30 C16 1_555 1_555
H31 C18 1_555 1_555
H32 C20 1_555 1_555
H33 C20 1_555 1_555
H34 C20 1_555 1_555
H36 C29 1_555 1_555
H37 C30 1_555 1_555
H38 C32 1_555 1_555
H39 C22 1_555 1_555
H40 C28 1_555 1_555
H41 C28 1_555 1_555
H42 C28 1_555 1_555
H43 O4 1_555 1_555
H44 C31 1_555 1_555
H45 C31 1_555 1_555
H46 C32 1_555 1_555
H47 C36 1_555 1_555
H48 C38 1_555 1_555
H49 C38 1_555 1_555
H50 C35 1_555 1_555
H51 C40 1_555 1_555
H52 C42 1_555 1_555
H53 C37 1_555 1_555
H54 C37 1_555 1_555
H55 C6 1_555 1_555
H56 C6 1_555 1_555
H57 C39 1_555 1_555
H58 C8 1_555 1_555
H59 C8 1_555 1_555
H60 C41 1_555 1_555
H61 C12 1_555 1_555
H62 C14 1_555 1_555
O1 C24 1_555 1_555
O2 C26 1_555 1_555
O3 C29 1_555 1_555
O4 C30 1_555 1_555
O5 C21 1_555 1_555
O6 C22 1_555 1_555
C5 C41 1_555 1_555
C6 C42 1_555 1_555
C31 C33 1_555 1_555
C32 C34 1_555 1_555
C35 O5 1_555 1_555
C36 O6 1_555 1_555
C37 C39 1_555 1_555
C38 C40 1_555 1_555
C39 C41 1_555 1_555
C40 C42 1_555 1_555

#END
