
#######################################################################
#
#                 Cambridge Crystallographic Data Centre
#                                CCDC 
#
#######################################################################
#
# If this CIF has been generated from an entry in the Cambridge 
# Structural Database, then it will include bibliographic, chemical, 
# crystal, experimental, refinement or atomic coordinate data resulting 
# from the CCDC's data processing and validation procedures.
#
#######################################################################

data_BOPREF
_chemical_formula_moiety         'C16 H32 O11 S1'
_chemical_name_systematic        
'1,3,6,9,12,15,18,21,24-nonaoxa-2-thiacyclohexacosane 2,2-dioxide'
_symmetry_cell_setting           orthorhombic
_symmetry_space_group_name_H-M   'P n a 21'
_symmetry_Int_Tables_number      33
_space_group_name_Hall           'P 2c -2n'
loop_
_symmetry_equiv_pos_site_id
_symmetry_equiv_pos_as_xyz
1 x,y,z
2 -x,-y,1/2+z
3 1/2+x,1/2-y,z
4 1/2-x,1/2+y,1/2+z
_cell_length_a                   16.5242(15)
_cell_length_b                   9.0980(9)
_cell_length_c                   14.0630(14)
_cell_angle_alpha                90
_cell_angle_beta                 90
_cell_angle_gamma                90
_cell_volume                     2114.19
_exptl_crystal_colour            colorless
_exptl_crystal_description       block
_cell_formula_units_Z            4
loop_
_atom_site_label
_atom_site_type_symbol
_atom_site_fract_x
_atom_site_fract_y
_atom_site_fract_z
C1 C 0.7593(2) 0.3203(4) -0.0388(3)
H1 H 0.7019 0.3407 -0.0446
H2 H 0.7890 0.4027 -0.0653
C2 C 0.7810(2) 0.3003(4) 0.0624(3)
H3 H 0.8370 0.2691 0.0674
H4 H 0.7753 0.3929 0.0959
C3 C 0.7409(3) 0.1672(8) 0.1995(4)
H5 H 0.7019 0.0912 0.2154
H6 H 0.7225 0.2556 0.2315
C4 C 0.8119(4) 0.1271(9) 0.2458(5)
H7 H 0.8361 0.0432 0.2142
H8 H 0.8001 0.0998 0.3110
C5 C 0.9438(3) 0.1997(6) 0.2392(4)
H9 H 0.9450 0.1163 0.1962
H10 H 0.9602 0.1656 0.3016
C6 C 1.0020(2) 0.3122(4) 0.2056(3)
H11 H 1.0052 0.3917 0.2514
H12 H 1.0554 0.2690 0.1993
C7 C 1.03034(19) 0.4702(4) 0.0762(3)
H13 H 1.0797 0.4212 0.0564
H14 H 1.0443 0.5451 0.1225
C8 C 0.98929(19) 0.5392(4) -0.0082(2)
H15 H 1.0279 0.5976 -0.0438
H16 H 0.9685 0.4630 -0.0499
C9 C 0.8877(2) 0.7047(4) -0.0524(3)
H17 H 0.8731 0.6353 -0.1019
H18 H 0.9253 0.7753 -0.0793
C10 C 0.8135(2) 0.7828(4) -0.0183(3)
H19 H 0.8258 0.8388 0.0386
H20 H 0.7945 0.8504 -0.0668
C11 C 0.6780(2) 0.7444(4) 0.0248(3)
H21 H 0.6592 0.8018 -0.0290
H22 H 0.6856 0.8104 0.0782
C12 C 0.6159(2) 0.6296(4) 0.0498(3)
H23 H 0.6393 0.5593 0.0938
H24 H 0.5701 0.6759 0.0808
C13 C 0.5330(2) 0.4457(4) -0.0105(3)
H25 H 0.4849 0.4897 0.0171
H26 H 0.5559 0.3784 0.0356
C14 C 0.5107(2) 0.3637(4) -0.0988(3)
H27 H 0.4646 0.3004 -0.0866
H28 H 0.4961 0.4322 -0.1488
C15 C 0.5726(2) 0.2241(5) -0.2212(3)
H29 H 0.5689 0.3050 -0.2659
H30 H 0.5248 0.1633 -0.2280
C16 C 0.6470(3) 0.1353(5) -0.2407(3)
H31 H 0.6552 0.0629 -0.1910
H32 H 0.6421 0.0846 -0.3011
O1 O 0.81831(19) 0.0484(3) -0.2249(2)
O2 O 0.84941(17) 0.3113(3) -0.2191(2)
O3 O 0.77957(16) 0.1850(2) -0.09042(17)
O4 O 0.73022(16) 0.1938(3) 0.1044(2)
O5 O 0.8681(2) 0.2521(5) 0.2440(2)
O6 O 0.97603(15) 0.3673(3) 0.11674(19)
O7 O 0.92518(14) 0.6292(3) 0.02331(17)
O8 O 0.75222(15) 0.6758(3) 0.0018(2)
O9 O 0.58962(14) 0.5562(3) -0.03240(17)
O10 O 0.57790(15) 0.2785(3) -0.1275(2)
O11 O 0.71492(16) 0.2395(3) -0.24321(19)
S1 S 0.79684(6) 0.19298(10) -0.19813(7)
loop_
_geom_bond_atom_site_label_1
_geom_bond_atom_site_label_2
_geom_bond_site_symmetry_1
_geom_bond_site_symmetry_2
C1 H1 1_555 1_555
H2 C1 1_555 1_555
C2 C1 1_555 1_555
H3 C2 1_555 1_555
H4 C2 1_555 1_555
C3 H5 1_555 1_555
H6 C3 1_555 1_555
C4 C3 1_555 1_555
H7 C4 1_555 1_555
H8 C4 1_555 1_555
C5 H9 1_555 1_555
H10 C5 1_555 1_555
C6 C5 1_555 1_555
H11 C6 1_555 1_555
H12 C6 1_555 1_555
C7 H13 1_555 1_555
H14 C7 1_555 1_555
C8 C7 1_555 1_555
H15 C8 1_555 1_555
H16 C8 1_555 1_555
C9 H17 1_555 1_555
H18 C9 1_555 1_555
C10 C9 1_555 1_555
H19 C10 1_555 1_555
H20 C10 1_555 1_555
C11 H21 1_555 1_555
H22 C11 1_555 1_555
C12 C11 1_555 1_555
H23 C12 1_555 1_555
H24 C12 1_555 1_555
C13 H25 1_555 1_555
H26 C13 1_555 1_555
C14 C13 1_555 1_555
H27 C14 1_555 1_555
H28 C14 1_555 1_555
C15 H29 1_555 1_555
H30 C15 1_555 1_555
C16 C15 1_555 1_555
H31 C16 1_555 1_555
H32 C16 1_555 1_555
O1 S1 1_555 1_555
O2 S1 1_555 1_555
O3 C1 1_555 1_555
O4 C2 1_555 1_555
O5 C4 1_555 1_555
O6 C6 1_555 1_555
O7 C8 1_555 1_555
O8 C10 1_555 1_555
O9 C12 1_555 1_555
O10 C14 1_555 1_555
O11 C16 1_555 1_555
S1 O3 1_555 1_555
C3 O4 1_555 1_555
C5 O5 1_555 1_555
C7 O6 1_555 1_555
C9 O7 1_555 1_555
C11 O8 1_555 1_555
C13 O9 1_555 1_555
C15 O10 1_555 1_555
O11 S1 1_555 1_555

#END
