
#######################################################################
#
#                 Cambridge Crystallographic Data Centre
#                                CCDC 
#
#######################################################################
#
# If this CIF has been generated from an entry in the Cambridge 
# Structural Database, then it will include bibliographic, chemical, 
# crystal, experimental, refinement or atomic coordinate data resulting 
# from the CCDC's data processing and validation procedures.
#
#######################################################################

data_BOPTOR
_chemical_formula_moiety         'C60 H80 N2 O4'
_chemical_name_systematic        
5,9,14,18-tetrakis(octyloxy)dinaphtho[2,3-a:2',3'-h]phenazine
_symmetry_cell_setting           triclinic
_symmetry_space_group_name_H-M   'P -1'
_symmetry_Int_Tables_number      2
_space_group_name_Hall           '-P 1'
loop_
_symmetry_equiv_pos_site_id
_symmetry_equiv_pos_as_xyz
1 x,y,z
2 -x,-y,-z
_cell_length_a                   9.93781(14)
_cell_length_b                   15.1528(2)
_cell_length_c                   17.8125(2)
_cell_angle_alpha                69.7564(13)
_cell_angle_beta                 88.9555(11)
_cell_angle_gamma                87.1772(12)
_cell_volume                     2513.57
_exptl_crystal_colour            orange
_exptl_crystal_description       block
_cell_formula_units_Z            2
_exptl_crystal_preparation       Luminescent
loop_
_atom_site_label
_atom_site_type_symbol
_atom_site_fract_x
_atom_site_fract_y
_atom_site_fract_z
C1 C 0.08810(11) 0.15710(7) -0.49578(6)
H1 H 0.1550 0.1246 -0.5164
C2 C -0.00691(11) 0.21594(8) -0.54609(6)
H2 H -0.0049 0.2244 -0.6015
C3 C -0.10804(11) 0.26421(7) -0.51609(6)
H3 H -0.1724 0.3054 -0.5517
C4 C -0.11376(10) 0.25195(7) -0.43618(6)
H4 H -0.1835 0.2834 -0.4166
C5 C -0.01580(9) 0.19236(6) -0.38213(6)
C6 C -0.01674(9) 0.18214(6) -0.29986(6)
C7 C 0.08159(9) 0.12585(6) -0.24712(5)
C8 C 0.09031(9) 0.11438(6) -0.16207(5)
C9 C 0.19377(9) 0.05348(6) -0.11364(5)
C10 C 0.29118(9) 0.00524(7) -0.14805(6)
H5 H 0.3588 -0.0358 -0.1152
C11 C 0.28721(9) 0.01789(7) -0.22682(6)
H6 H 0.3543 -0.0130 -0.2488
C12 C 0.18364(9) 0.07717(6) -0.27855(6)
C13 C 0.18448(9) 0.08742(6) -0.35926(6)
C14 C 0.08661(9) 0.14475(7) -0.41277(6)
O1 O -0.12094(7) 0.22928(5) -0.27542(4)
C15 C -0.08694(9) 0.32133(6) -0.27708(6)
H7 H -0.0591 0.3602 -0.3317
H8 H -0.0114 0.3158 -0.2400
C16 C -0.21038(10) 0.36642(7) -0.25176(7)
H9 H -0.2392 0.3254 -0.1980
H10 H -0.2847 0.3720 -0.2896
C17 C -0.18388(10) 0.46407(7) -0.24944(6)
H11 H -0.1112 0.4580 -0.2104
H12 H -0.1520 0.5041 -0.3028
C18 C -0.30807(10) 0.51256(7) -0.22651(7)
H13 H -0.3394 0.4727 -0.1730
H14 H -0.3810 0.5180 -0.2652
C19 C -0.28235(10) 0.61063(7) -0.22489(7)
H15 H -0.2095 0.6051 -0.1861
H16 H -0.2507 0.6503 -0.2784
C20 C -0.40615(10) 0.65961(7) -0.20220(7)
H17 H -0.4399 0.6188 -0.1496
H18 H -0.4778 0.6674 -0.2421
C21 C -0.37933(11) 0.75588(7) -0.19752(7)
H19 H -0.3494 0.7978 -0.2507
H20 H -0.3053 0.7487 -0.1591
C22 C -0.50314(11) 0.80181(8) -0.17151(7)
H21 H -0.4796 0.8620 -0.1674
H22 H -0.5343 0.7602 -0.1193
H23 H -0.5750 0.8128 -0.2111
O2 O 0.28937(7) 0.04635(5) -0.38963(4)
C23 C 0.27253(10) -0.05023(7) -0.38334(6)
H24 H 0.1997 -0.0537 -0.4193
H25 H 0.2494 -0.0890 -0.3278
C24 C 0.40606(10) -0.08474(7) -0.40771(6)
H26 H 0.4757 -0.0841 -0.3689
H27 H 0.4319 -0.0403 -0.4607
C25 C 0.40554(10) -0.18321(7) -0.41214(7)
H28 H 0.3362 -0.1843 -0.4510
H29 H 0.3806 -0.2281 -0.3591
C26 C 0.54179(10) -0.21550(7) -0.43720(6)
H30 H 0.5672 -0.1701 -0.4899
H31 H 0.6109 -0.2152 -0.3980
C27 C 0.54153(11) -0.31374(8) -0.44281(7)
H32 H 0.5149 -0.3590 -0.3903
H33 H 0.4733 -0.3138 -0.4826
C28 C 0.67801(11) -0.34645(8) -0.46674(7)
H34 H 0.7459 -0.3464 -0.4268
H35 H 0.7047 -0.3007 -0.5190
C29 C 0.67990(13) -0.44430(8) -0.47316(8)
H36 H 0.6137 -0.4444 -0.5140
H37 H 0.6523 -0.4903 -0.4212
C30 C 0.81890(15) -0.47485(10) -0.49581(8)
H38 H 0.8472 -0.4291 -0.5468
H39 H 0.8148 -0.5369 -0.5010
H40 H 0.8839 -0.4782 -0.4541
N1 N 0.00413(8) 0.16198(6) -0.12953(5)
C31 C 0.12928(10) 0.04649(7) 0.33032(6)
H41 H 0.0594 0.0755 0.3520
C32 C 0.22975(11) -0.00735(7) 0.37905(6)
H42 H 0.2284 -0.0161 0.4345
C33 C 0.33572(10) -0.05020(7) 0.34747(6)
H43 H 0.4053 -0.0868 0.3818
C34 C 0.33834(10) -0.03914(7) 0.26773(6)
H44 H 0.4101 -0.0679 0.2472
C35 C 0.23463(9) 0.01503(6) 0.21543(6)
C36 C 0.23555(9) 0.02585(6) 0.13278(5)
C37 C 0.13159(9) 0.07722(6) 0.08170(5)
C38 C 0.12145(9) 0.08822(6) -0.00312(5)
C39 C 0.01822(9) 0.14926(6) -0.05146(6)
C40 C -0.07789(9) 0.19817(7) -0.01682(6)
H45 H -0.1442 0.2405 -0.0498
C41 C -0.07475(9) 0.18443(7) 0.06212(6)
H46 H -0.1420 0.2149 0.0843
C42 C 0.02846(9) 0.12446(6) 0.11373(5)
C43 C 0.03008(9) 0.11533(6) 0.19427(6)
C44 C 0.12929(9) 0.05914(6) 0.24708(6)
O3 O 0.34835(6) -0.01032(5) 0.10562(4)
C45 C 0.33965(9) -0.10590(6) 0.10640(6)
H47 H 0.2707 -0.1083 0.0678
H48 H 0.3142 -0.1481 0.1604
C46 C 0.47706(9) -0.13667(7) 0.08327(6)
H49 H 0.5435 -0.1393 0.1248
H50 H 0.5060 -0.0897 0.0322
C47 C 0.47463(10) -0.23301(7) 0.07412(7)
H51 H 0.4084 -0.2295 0.0322
H52 H 0.4432 -0.2791 0.1250
C48 C 0.61085(10) -0.26938(7) 0.05212(6)
H53 H 0.6414 -0.2253 0.0000
H54 H 0.6785 -0.2719 0.0930
C49 C 0.60118(11) -0.36739(7) 0.04676(7)
H55 H 0.5699 -0.4104 0.0991
H56 H 0.5316 -0.3639 0.0067
C50 C 0.73121(11) -0.41061(8) 0.02443(7)
H57 H 0.7648 -0.3679 -0.0274
H58 H 0.8006 -0.4175 0.0655
C51 C 0.70899(14) -0.50682(8) 0.01809(8)
H59 H 0.6764 -0.5491 0.0704
H60 H 0.6373 -0.4995 -0.0218
C52 C 0.83366(18) -0.55345(10) -0.00574(9)
H61 H 0.8682 -0.5116 -0.0569
H62 H 0.8101 -0.6130 -0.0112
H63 H 0.9030 -0.5658 0.0355
O4 O -0.06907(7) 0.16305(5) 0.22288(4)
C53 C -0.03188(9) 0.25635(6) 0.21641(6)
H64 H -0.0027 0.2916 0.1611
H65 H 0.0433 0.2525 0.2533
C54 C -0.15475(10) 0.30554(7) 0.23817(6)
H66 H -0.1875 0.2662 0.2915
H67 H -0.2271 0.3116 0.1990
C55 C -0.12691(10) 0.40325(7) 0.23964(6)
H68 H -0.0557 0.3972 0.2795
H69 H -0.0930 0.4424 0.1865
C56 C -0.25242(10) 0.45261(7) 0.26042(6)
H70 H -0.3222 0.4606 0.2193
H71 H -0.2884 0.4119 0.3124
C57 C -0.22645(10) 0.54888(7) 0.26558(6)
H72 H -0.1558 0.5411 0.3061
H73 H -0.1920 0.5900 0.2133
C58 C -0.35198(10) 0.59699(7) 0.28764(6)
H74 H -0.3869 0.5555 0.3396
H75 H -0.4223 0.6051 0.2468
C59 C -0.32663(10) 0.69303(7) 0.29364(7)
H76 H -0.2545 0.6854 0.3333
H77 H -0.2947 0.7354 0.2412
C60 C -0.45222(11) 0.73865(8) 0.31820(7)
H78 H -0.5212 0.7518 0.2767
H79 H -0.4291 0.7976 0.3248
H80 H -0.4869 0.6958 0.3689
N2 N 0.20752(8) 0.04083(6) -0.03576(5)
loop_
_geom_bond_atom_site_label_1
_geom_bond_atom_site_label_2
_geom_bond_site_symmetry_1
_geom_bond_site_symmetry_2
C1 H1 1_555 1_555
C2 C1 1_555 1_555
H2 C2 1_555 1_555
C3 C2 1_555 1_555
H3 C3 1_555 1_555
C4 C3 1_555 1_555
H4 C4 1_555 1_555
C5 C4 1_555 1_555
C6 C5 1_555 1_555
C7 C6 1_555 1_555
C8 C7 1_555 1_555
C9 C8 1_555 1_555
C10 C9 1_555 1_555
H5 C10 1_555 1_555
C11 C10 1_555 1_555
H6 C11 1_555 1_555
C12 C7 1_555 1_555
C13 C12 1_555 1_555
C14 C1 1_555 1_555
O1 C6 1_555 1_555
C15 O1 1_555 1_555
H7 C15 1_555 1_555
H8 C15 1_555 1_555
C16 C15 1_555 1_555
H9 C16 1_555 1_555
H10 C16 1_555 1_555
C17 C16 1_555 1_555
H11 C17 1_555 1_555
H12 C17 1_555 1_555
C18 C17 1_555 1_555
H13 C18 1_555 1_555
H14 C18 1_555 1_555
C19 C18 1_555 1_555
H15 C19 1_555 1_555
H16 C19 1_555 1_555
C20 C19 1_555 1_555
H17 C20 1_555 1_555
H18 C20 1_555 1_555
C21 C20 1_555 1_555
H19 C21 1_555 1_555
H20 C21 1_555 1_555
C22 C21 1_555 1_555
H21 C22 1_555 1_555
H22 C22 1_555 1_555
H23 C22 1_555 1_555
O2 C13 1_555 1_555
C23 O2 1_555 1_555
H24 C23 1_555 1_555
H25 C23 1_555 1_555
C24 C23 1_555 1_555
H26 C24 1_555 1_555
H27 C24 1_555 1_555
C25 C24 1_555 1_555
H28 C25 1_555 1_555
H29 C25 1_555 1_555
C26 C25 1_555 1_555
H30 C26 1_555 1_555
H31 C26 1_555 1_555
C27 C26 1_555 1_555
H32 C27 1_555 1_555
H33 C27 1_555 1_555
C28 C27 1_555 1_555
H34 C28 1_555 1_555
H35 C28 1_555 1_555
C29 C28 1_555 1_555
H36 C29 1_555 1_555
H37 C29 1_555 1_555
C30 C29 1_555 1_555
H38 C30 1_555 1_555
H39 C30 1_555 1_555
H40 C30 1_555 1_555
N1 C8 1_555 1_555
C31 H41 1_555 1_555
C32 C31 1_555 1_555
H42 C32 1_555 1_555
C33 C32 1_555 1_555
H43 C33 1_555 1_555
C34 C33 1_555 1_555
H44 C34 1_555 1_555
C35 C34 1_555 1_555
C36 C35 1_555 1_555
C37 C36 1_555 1_555
C38 C37 1_555 1_555
C39 N1 1_555 1_555
C40 C39 1_555 1_555
H45 C40 1_555 1_555
C41 C40 1_555 1_555
H46 C41 1_555 1_555
C42 C37 1_555 1_555
C43 C42 1_555 1_555
C44 C31 1_555 1_555
O3 C36 1_555 1_555
C45 O3 1_555 1_555
H47 C45 1_555 1_555
H48 C45 1_555 1_555
C46 C45 1_555 1_555
H49 C46 1_555 1_555
H50 C46 1_555 1_555
C47 C46 1_555 1_555
H51 C47 1_555 1_555
H52 C47 1_555 1_555
C48 C47 1_555 1_555
H53 C48 1_555 1_555
H54 C48 1_555 1_555
C49 C48 1_555 1_555
H55 C49 1_555 1_555
H56 C49 1_555 1_555
C50 C49 1_555 1_555
H57 C50 1_555 1_555
H58 C50 1_555 1_555
C51 C50 1_555 1_555
H59 C51 1_555 1_555
H60 C51 1_555 1_555
C52 C51 1_555 1_555
H61 C52 1_555 1_555
H62 C52 1_555 1_555
H63 C52 1_555 1_555
O4 C43 1_555 1_555
C53 O4 1_555 1_555
H64 C53 1_555 1_555
H65 C53 1_555 1_555
C54 C53 1_555 1_555
H66 C54 1_555 1_555
H67 C54 1_555 1_555
C55 C54 1_555 1_555
H68 C55 1_555 1_555
H69 C55 1_555 1_555
C56 C55 1_555 1_555
H70 C56 1_555 1_555
H71 C56 1_555 1_555
C57 C56 1_555 1_555
H72 C57 1_555 1_555
H73 C57 1_555 1_555
C58 C57 1_555 1_555
H74 C58 1_555 1_555
H75 C58 1_555 1_555
C59 C58 1_555 1_555
H76 C59 1_555 1_555
H77 C59 1_555 1_555
C60 C59 1_555 1_555
H78 C60 1_555 1_555
H79 C60 1_555 1_555
H80 C60 1_555 1_555
N2 C9 1_555 1_555
C5 C14 1_555 1_555
C11 C12 1_555 1_555
C13 C14 1_555 1_555
C35 C44 1_555 1_555
C38 C39 1_555 1_555
C38 N2 1_555 1_555
C41 C42 1_555 1_555
C43 C44 1_555 1_555

#END
