
#######################################################################
#
#                 Cambridge Crystallographic Data Centre
#                                CCDC 
#
#######################################################################
#
# If this CIF has been generated from an entry in the Cambridge 
# Structural Database, then it will include bibliographic, chemical, 
# crystal, experimental, refinement or atomic coordinate data resulting 
# from the CCDC's data processing and validation procedures.
#
#######################################################################

data_BOPVOS
_chemical_name_common            
5'-(4-((4-Chlorophenoxy)methyl)-1,2,3-triazol-1-yl)-5'-deoxy-2',3'-O-(methylethylidene)uridine
_chemical_formula_moiety         'C21 H22 Cl1 N5 O6'
_chemical_name_systematic        
1-(6-((4-((4-Chlorophenoxy)methyl)-1H-1,2,3-triazol-1-yl)methyl)-2,2-dimethyltetrahydrofuro[3,4-d][1,3]dioxol-4-yl)-2,4(1H,3H)-pyrimidinedione
_chemical_properties_biological  'antifungal activity'
_symmetry_cell_setting           monoclinic
_symmetry_space_group_name_H-M   'P 21'
_symmetry_Int_Tables_number      4
_space_group_name_Hall           'P 2yb'
loop_
_symmetry_equiv_pos_site_id
_symmetry_equiv_pos_as_xyz
1 x,y,z
2 -x,1/2+y,-z
_cell_length_a                   11.4808(15)
_cell_length_b                   5.6022(7)
_cell_length_c                   17.836(2)
_cell_angle_alpha                90
_cell_angle_beta                 107.144(2)
_cell_angle_gamma                90
_cell_volume                     1096.2
_exptl_crystal_colour            colorless
_exptl_crystal_description       plate
_cell_formula_units_Z            2
_exptl_crystal_recrystallization_method 'ethyl acetate'
loop_
_atom_site_label
_atom_site_type_symbol
_atom_site_fract_x
_atom_site_fract_y
_atom_site_fract_z
Cl1 Cl 0.69432(7) 0.04806(15) 0.22354(3)
O1 O 0.76850(11) 0.7780(2) 0.83946(7)
O2 O 0.85740(12) 0.2104(2) 0.56383(7)
O3 O 0.50849(12) 1.0017(2) 0.71776(7)
O4 O 0.56385(14) 0.6456(3) 0.50404(7)
O5 O 0.62864(10) 0.5194(2) 0.93870(6)
O6 O 0.80839(11) 0.3160(3) 0.97809(7)
N1 N 0.96638(12) 0.5072(3) 0.80280(8)
N2 N 0.98219(16) 0.2689(3) 0.80166(10)
N3 N 0.97254(17) 0.2088(3) 0.72891(10)
N4 N 0.60748(12) 0.6420(2) 0.73548(7)
N5 N 0.53130(13) 0.8082(3) 0.61112(7)
H1 H 0.4903 0.9185 0.5812
C1 C 0.79173(14) 0.3946(3) 0.90010(8)
H2 H 0.8160 0.2727 0.8683
C2 C 0.65670(14) 0.4550(3) 0.86855(8)
H3 H 0.6068 0.3233 0.8399
C3 C 0.64888(14) 0.6807(3) 0.81986(8)
H4 H 0.5945 0.7950 0.8342
C4 C 0.85400(14) 0.6362(3) 0.89643(8)
H5 H 0.8691 0.7143 0.9476
C5 C 0.97328(15) 0.6299(4) 0.87604(10)
H6 H 1.0002 0.7925 0.8726
H7 H 1.0343 0.5517 0.9184
C6 C 0.94644(15) 0.5979(3) 0.73049(10)
H8 H 0.9327 0.7568 0.7154
C7 C 0.95058(15) 0.4077(3) 0.68389(10)
C8 C 0.93599(17) 0.4036(3) 0.59815(10)
H9 H 0.9012 0.5532 0.5744
H10 H 1.0148 0.3831 0.5893
C9 C 0.82375(15) 0.1869(3) 0.48348(10)
C10 C 0.75147(16) -0.0086(4) 0.45392(11)
H11 H 0.7297 -0.1128 0.4881
C11 C 0.71111(17) -0.0509(4) 0.37383(11)
H12 H 0.6621 -0.1822 0.3540
C12 C 0.74461(17) 0.1040(4) 0.32443(11)
C13 C 0.81595(19) 0.3000(4) 0.35243(12)
H13 H 0.8368 0.4041 0.3178
C14 C 0.85681(18) 0.3422(3) 0.43269(11)
H14 H 0.9060 0.4735 0.4522
C15 C 0.54535(14) 0.8307(3) 0.69002(8)
C16 C 0.57599(16) 0.6274(3) 0.57465(9)
C17 C 0.63606(15) 0.4381(3) 0.62513(10)
H15 H 0.6641 0.3049 0.6045
C18 C 0.65157(14) 0.4546(3) 0.70226(9)
H16 H 0.6940 0.3340 0.7348
C19 C 0.70020(15) 0.3692(3) 0.99987(9)
C20 C 0.73299(19) 0.5096(4) 1.07549(10)
H17 H 0.7775 0.6501 1.0698
H18 H 0.7824 0.4128 1.1172
H19 H 0.6599 0.5551 1.0875
C21 C 0.6350(2) 0.1398(4) 1.00450(13)
H20 H 0.5629 0.1732 1.0195
H21 H 0.6877 0.0368 1.0427
H22 H 0.6126 0.0629 0.9542
loop_
_geom_bond_atom_site_label_1
_geom_bond_atom_site_label_2
_geom_bond_site_symmetry_1
_geom_bond_site_symmetry_2
Cl1 C12 1_555 1_555
O1 C3 1_555 1_555
O2 C8 1_555 1_555
O3 C15 1_555 1_555
O4 C16 1_555 1_555
O5 C2 1_555 1_555
O6 C1 1_555 1_555
N1 N2 1_555 1_555
N2 N3 1_555 1_555
N3 C7 1_555 1_555
N4 C3 1_555 1_555
N5 H1 1_555 1_555
C1 H2 1_555 1_555
C2 C1 1_555 1_555
H3 C2 1_555 1_555
C3 C2 1_555 1_555
H4 C3 1_555 1_555
C4 O1 1_555 1_555
H5 C4 1_555 1_555
C5 N1 1_555 1_555
H6 C5 1_555 1_555
H7 C5 1_555 1_555
C6 N1 1_555 1_555
H8 C6 1_555 1_555
C7 C6 1_555 1_555
C8 C7 1_555 1_555
H9 C8 1_555 1_555
H10 C8 1_555 1_555
C9 O2 1_555 1_555
C10 C9 1_555 1_555
H11 C10 1_555 1_555
C11 C10 1_555 1_555
H12 C11 1_555 1_555
C12 C11 1_555 1_555
C13 C12 1_555 1_555
H13 C13 1_555 1_555
C14 C9 1_555 1_555
H14 C14 1_555 1_555
C15 N4 1_555 1_555
C16 N5 1_555 1_555
C17 C16 1_555 1_555
H15 C17 1_555 1_555
C18 N4 1_555 1_555
H16 C18 1_555 1_555
C19 O5 1_555 1_555
C20 C19 1_555 1_555
H17 C20 1_555 1_555
H18 C20 1_555 1_555
H19 C20 1_555 1_555
C21 C19 1_555 1_555
H20 C21 1_555 1_555
H21 C21 1_555 1_555
H22 C21 1_555 1_555
O6 C19 1_555 1_555
N5 C15 1_555 1_555
C1 C4 1_555 1_555
C4 C5 1_555 1_555
C13 C14 1_555 1_555
C17 C18 1_555 1_555

#END
