
#######################################################################
#
#                 Cambridge Crystallographic Data Centre
#                                CCDC 
#
#######################################################################
#
# If this CIF has been generated from an entry in the Cambridge 
# Structural Database, then it will include bibliographic, chemical, 
# crystal, experimental, refinement or atomic coordinate data resulting 
# from the CCDC's data processing and validation procedures.
#
#######################################################################

data_BOQPII
_chemical_formula_moiety         'C18 H18 O4'
_chemical_name_systematic        
'ethyl 3-benzoyl-5-(1-hydroxyethylidene)-4-methylcyclopenta-1,3-diene-1-carboxylate'
_symmetry_cell_setting           monoclinic
_symmetry_space_group_name_H-M   'C 2/c'
_symmetry_Int_Tables_number      15
_space_group_name_Hall           '-C 2yn'
loop_
_symmetry_equiv_pos_site_id
_symmetry_equiv_pos_as_xyz
1 x,y,z
2 -x,y,1/2-z
3 1/2+x,1/2+y,z
4 1/2-x,1/2+y,1/2-z
5 -x,-y,-z
6 x,-y,1/2+z
7 1/2-x,1/2-y,-z
8 1/2+x,1/2-y,1/2+z
_cell_length_a                   29.664(9)
_cell_length_b                   6.1441(19)
_cell_length_c                   19.888(6)
_cell_angle_alpha                90
_cell_angle_beta                 121.936(4)
_cell_angle_gamma                90
_cell_volume                     3076.11
_cell_formula_units_Z            8
loop_
_atom_site_label
_atom_site_type_symbol
_atom_site_fract_x
_atom_site_fract_y
_atom_site_fract_z
C1 C 0.12353(5) 1.1096(2) 0.01429(8)
C2 C 0.09040(7) 1.2405(3) -0.05009(10)
H1 H 0.0823 1.3805 -0.0419
C3 C 0.06943(8) 1.1645(4) -0.12605(12)
H2 H 0.0463 1.2513 -0.1690
C4 C 0.08266(9) 0.9601(4) -0.13869(12)
H3 H 0.0690 0.9104 -0.1901
C5 C 0.11584(8) 0.8305(3) -0.07570(11)
H4 H 0.1250 0.6933 -0.0845
C6 C 0.13575(6) 0.9015(2) 0.00064(10)
H5 H 0.1574 0.8106 0.0432
C7 C 0.14690(5) 1.2011(2) 0.09591(9)
C8 C 0.15097(5) 1.0600(2) 0.15829(8)
C9 C 0.18346(5) 1.0894(2) 0.24022(8)
C10 C 0.17231(5) 0.9158(2) 0.27809(8)
C11 C 0.13051(5) 0.7822(2) 0.21400(8)
C12 C 0.11919(5) 0.8717(2) 0.14396(8)
H6 H 0.0943 0.8175 0.0941
C13 C 0.22490(6) 1.2634(2) 0.27811(10)
H7 H 0.2258 1.3456 0.2378
H8 H 0.2590 1.1976 0.3126
H9 H 0.2165 1.3584 0.3083
C14 C 0.19739(5) 0.8802(3) 0.35900(8)
C15 C 0.23867(7) 1.0229(3) 0.42299(9)
H10 H 0.2432 0.9830 0.4729
H11 H 0.2276 1.1721 0.4115
H12 H 0.2717 1.0052 0.4257
C16 C 0.10374(5) 0.5914(2) 0.21868(8)
C17 C 0.03865(6) 0.3190(2) 0.14789(9)
H13 H 0.0164 0.3479 0.1691
H14 H 0.0643 0.2076 0.1801
C18 C 0.00562(6) 0.2452(3) 0.06425(10)
H15 H -0.0185 0.3591 0.0326
H16 H -0.0142 0.1183 0.0615
H17 H 0.0282 0.2104 0.0447
H18 H 0.1584(7) 0.628(3) 0.3494(11)
O1 O 0.16071(5) 1.39311(16) 0.10706(7)
O2 O 0.18708(5) 0.7118(2) 0.38892(7)
O3 O 0.11326(4) 0.49931(17) 0.28014(6)
O4 O 0.06582(4) 0.51617(16) 0.14851(6)
loop_
_geom_bond_atom_site_label_1
_geom_bond_atom_site_label_2
_geom_bond_site_symmetry_1
_geom_bond_site_symmetry_2
C1 C2 1_555 1_555
C2 H1 1_555 1_555
C3 C2 1_555 1_555
H2 C3 1_555 1_555
C4 C3 1_555 1_555
H3 C4 1_555 1_555
C5 C4 1_555 1_555
H4 C5 1_555 1_555
C6 C1 1_555 1_555
H5 C6 1_555 1_555
C7 C1 1_555 1_555
C8 C7 1_555 1_555
C9 C8 1_555 1_555
C10 C9 1_555 1_555
C11 C10 1_555 1_555
C12 C8 1_555 1_555
H6 C12 1_555 1_555
C13 C9 1_555 1_555
H7 C13 1_555 1_555
H8 C13 1_555 1_555
H9 C13 1_555 1_555
C14 C10 1_555 1_555
C15 C14 1_555 1_555
H10 C15 1_555 1_555
H11 C15 1_555 1_555
H12 C15 1_555 1_555
C16 C11 1_555 1_555
C17 H13 1_555 1_555
H14 C17 1_555 1_555
C18 C17 1_555 1_555
H15 C18 1_555 1_555
H16 C18 1_555 1_555
H17 C18 1_555 1_555
H18 O2 1_555 1_555
O1 C7 1_555 1_555
O2 C14 1_555 1_555
O3 C16 1_555 1_555
O4 C16 1_555 1_555
C5 C6 1_555 1_555
C11 C12 1_555 1_555
C17 O4 1_555 1_555

#END
