
#######################################################################
#
#                 Cambridge Crystallographic Data Centre
#                                CCDC 
#
#######################################################################
#
# If this CIF has been generated from an entry in the Cambridge 
# Structural Database, then it will include bibliographic, chemical, 
# crystal, experimental, refinement or atomic coordinate data resulting 
# from the CCDC's data processing and validation procedures.
#
#######################################################################

data_BOQQOP
_chemical_formula_moiety         'C23 H17 Cl2 N1 O3'
_chemical_name_systematic        
4-chloro-N-(2-(4-chlorophenyl)-4-oxo-4-phenylbutanoyl)benzamide
_symmetry_cell_setting           triclinic
_symmetry_space_group_name_H-M   'P -1'
_symmetry_Int_Tables_number      2
_space_group_name_Hall           '-P 1'
loop_
_symmetry_equiv_pos_site_id
_symmetry_equiv_pos_as_xyz
1 x,y,z
2 -x,-y,-z
_cell_length_a                   9.8294(19)
_cell_length_b                   10.0500(19)
_cell_length_c                   12.169(2)
_cell_angle_alpha                114.2730(10)
_cell_angle_beta                 97.114(2)
_cell_angle_gamma                105.6450(10)
_cell_volume                     1016.83
_exptl_crystal_colour            colorless
_exptl_crystal_description       bulk
_cell_formula_units_Z            2
loop_
_atom_site_label
_atom_site_type_symbol
_atom_site_fract_x
_atom_site_fract_y
_atom_site_fract_z
C1 C 0.1742(2) -0.9637(2) -0.69528(18)
C2 C 0.1686(3) -0.9720(3) -0.5849(2)
H1 H 0.1257 -1.0685 -0.5881
C3 C 0.2253(3) -0.8398(3) -0.4706(2)
H2 H 0.2200 -0.8463 -0.3971
C4 C 0.2899(3) -0.6978(3) -0.4675(2)
C5 C 0.2968(3) -0.6856(3) -0.5751(2)
H3 H 0.3401 -0.5888 -0.5713
C6 C 0.2386(2) -0.8188(3) -0.6890(2)
H4 H 0.2425 -0.8113 -0.7623
C7 C 0.1167(2) -1.1130(2) -0.81524(19)
C8 C 0.0649(2) -1.1967(2) -1.04645(19)
C9 C 0.0964(2) -1.3461(2) -1.08010(18)
H5 H 0.0459 -1.3994 -1.0370
C10 C 0.0404(2) -1.4554(2) -1.22067(19)
H6 H 0.0836 -1.3998 -1.2641
H7 H 0.0740 -1.5427 -1.2394
C11 C -0.1235(2) -1.5179(2) -1.27092(19)
C12 C -0.1894(2) -1.6454(2) -1.40333(19)
C13 C -0.3382(3) -1.7310(3) -1.4405(2)
H8 H -0.3946 -1.7067 -1.3843
C14 C -0.4034(3) -1.8523(3) -1.5605(3)
H9 H -0.5031 -1.9099 -1.5846
C15 C -0.3205(3) -1.8875(3) -1.6442(2)
H10 H -0.3646 -1.9684 -1.7251
C16 C -0.1729(3) -1.8040(3) -1.6089(2)
H11 H -0.1173 -1.8286 -1.6658
C17 C -0.1069(3) -1.6829(3) -1.4883(2)
H12 H -0.0068 -1.6268 -1.4643
C18 C 0.2605(2) -1.3076(2) -1.03510(18)
C19 C 0.3604(3) -1.2196(3) -1.0718(2)
H13 H 0.3275 -1.1790 -1.1216
C20 C 0.5092(3) -1.1910(3) -1.0352(3)
H14 H 0.5755 -1.1325 -1.0610
C21 C 0.5573(3) -1.2496(3) -0.9609(3)
C22 C 0.4613(3) -1.3357(3) -0.9228(2)
H15 H 0.4953 -1.3746 -0.8720
C23 C 0.3133(3) -1.3649(3) -0.9600(2)
H16 H 0.2480 -1.4242 -0.9341
O1 O 0.09737(18) -1.23831(18) -0.81804(14)
O2 O -0.20147(17) -1.46978(18) -1.20639(14)
O3 O 0.02838(18) -1.15749(17) -1.12432(13)
Cl1 Cl 0.74407(8) -1.21203(11) -0.91425(10)
Cl2 Cl 0.36597(8) -0.53003(8) -0.32400(6)
N1 N 0.08865(19) -1.09425(19) -0.92161(15)
H17 H 0.0741 -1.0140 -0.9132
loop_
_geom_bond_atom_site_label_1
_geom_bond_atom_site_label_2
_geom_bond_site_symmetry_1
_geom_bond_site_symmetry_2
C1 C2 1_555 1_555
C2 H1 1_555 1_555
C3 C2 1_555 1_555
H2 C3 1_555 1_555
C4 C3 1_555 1_555
C5 C4 1_555 1_555
H3 C5 1_555 1_555
C6 C1 1_555 1_555
H4 C6 1_555 1_555
C7 C1 1_555 1_555
C8 C9 1_555 1_555
C9 H5 1_555 1_555
C10 C9 1_555 1_555
H6 C10 1_555 1_555
H7 C10 1_555 1_555
C11 C10 1_555 1_555
C12 C11 1_555 1_555
C13 C12 1_555 1_555
H8 C13 1_555 1_555
C14 C13 1_555 1_555
H9 C14 1_555 1_555
C15 C14 1_555 1_555
H10 C15 1_555 1_555
C16 C15 1_555 1_555
H11 C16 1_555 1_555
C17 C12 1_555 1_555
H12 C17 1_555 1_555
C18 C9 1_555 1_555
C19 C18 1_555 1_555
H13 C19 1_555 1_555
C20 C19 1_555 1_555
H14 C20 1_555 1_555
C21 C20 1_555 1_555
C22 C21 1_555 1_555
H15 C22 1_555 1_555
C23 C18 1_555 1_555
H16 C23 1_555 1_555
O1 C7 1_555 1_555
O2 C11 1_555 1_555
O3 C8 1_555 1_555
Cl1 C21 1_555 1_555
Cl2 C4 1_555 1_555
N1 C7 1_555 1_555
H17 N1 1_555 1_555
C5 C6 1_555 1_555
C8 N1 1_555 1_555
C16 C17 1_555 1_555
C22 C23 1_555 1_555

#END
