
#######################################################################
#
#                 Cambridge Crystallographic Data Centre
#                                CCDC 
#
#######################################################################
#
# If this CIF has been generated from an entry in the Cambridge 
# Structural Database, then it will include bibliographic, chemical, 
# crystal, experimental, refinement or atomic coordinate data resulting 
# from the CCDC's data processing and validation procedures.
#
#######################################################################

data_BOQREG
_chemical_formula_moiety         'C15 H18 N2 O1'
_chemical_name_systematic        
3-(1,3-dimethyl-2-oxo-2,3-dihydro-1H-indol-3-yl)-2,2-dimethylpropanenitrile
_symmetry_cell_setting           orthorhombic
_symmetry_space_group_name_H-M   'P 21 21 21'
_symmetry_Int_Tables_number      19
_space_group_name_Hall           'P 2ac 2ab'
loop_
_symmetry_equiv_pos_site_id
_symmetry_equiv_pos_as_xyz
1 x,y,z
2 1/2-x,-y,1/2+z
3 -x,1/2+y,1/2-z
4 1/2+x,1/2-y,-z
_cell_length_a                   10.047(2)
_cell_length_b                   11.306(2)
_cell_length_c                   12.199(2)
_cell_angle_alpha                90
_cell_angle_beta                 90
_cell_angle_gamma                90
_cell_volume                     1385.7
_exptl_crystal_colour            colorless
_exptl_crystal_description       block
_cell_formula_units_Z            4
loop_
_atom_site_label
_atom_site_type_symbol
_atom_site_fract_x
_atom_site_fract_y
_atom_site_fract_z
C1 C 1.10359(18) 0.97336(16) 0.89648(16)
C2 C 1.2560(2) 1.0504(2) 1.0391(3)
H1 H 1.2904 1.0960 0.9791
H2 H 1.3271 1.0070 1.0729
H3 H 1.2163 1.1025 1.0920
C3 C 1.09393(17) 0.88145(16) 1.06196(14)
C4 C 1.1202(2) 0.8471(2) 1.16955(17)
H4 H 1.1849 0.8846 1.2115
C5 C 1.0456(3) 0.7546(3) 1.21099(19)
H5 H 1.0608 0.7296 1.2825
C6 C 0.9506(3) 0.6990(2) 1.1506(2)
H6 H 0.9026 0.6367 1.1808
C7 C 0.9255(2) 0.73467(17) 1.04497(19)
H7 H 0.8607 0.6967 1.0035
C8 C 0.99683(16) 0.82694(15) 1.00109(14)
C9 C 0.99190(17) 0.88166(15) 0.88844(14)
C10 C 1.0285(3) 0.7918(2) 0.79897(17)
H8 H 1.1126 0.7561 0.8162
H9 H 1.0346 0.8314 0.7296
H10 H 0.9611 0.7317 0.7952
C11 C 0.85994(19) 0.94139(16) 0.85623(14)
H11 H 0.7962 0.8786 0.8427
H12 H 0.8749 0.9805 0.7866
C12 C 0.7282(3) 0.9768(2) 1.0334(2)
H13 H 0.7968 0.9461 1.0802
H14 H 0.6699 0.9136 1.0118
H15 H 0.6782 1.0358 1.0721
C13 C 0.79101(18) 1.03180(17) 0.93173(14)
C14 C 0.6807(2) 1.0915(2) 0.8645(2)
H16 H 0.6347 1.1478 0.9095
H17 H 0.6191 1.0327 0.8391
H18 H 0.7194 1.1313 0.8027
C15 C 0.8835(2) 1.12506(18) 0.96644(15)
N1 N 1.15635(14) 0.96859(13) 0.99880(14)
N2 N 0.9505(2) 1.19919(18) 0.99554(19)
O1 O 1.13939(16) 1.03809(14) 0.82280(14)
loop_
_geom_bond_atom_site_label_1
_geom_bond_atom_site_label_2
_geom_bond_site_symmetry_1
_geom_bond_site_symmetry_2
C1 C9 1_555 1_555
C2 H1 1_555 1_555
H2 C2 1_555 1_555
H3 C2 1_555 1_555
C3 C4 1_555 1_555
C4 H4 1_555 1_555
C5 C4 1_555 1_555
H5 C5 1_555 1_555
C6 C5 1_555 1_555
H6 C6 1_555 1_555
C7 C6 1_555 1_555
H7 C7 1_555 1_555
C8 C3 1_555 1_555
C9 C8 1_555 1_555
C10 C9 1_555 1_555
H8 C10 1_555 1_555
H9 C10 1_555 1_555
H10 C10 1_555 1_555
C11 C9 1_555 1_555
H11 C11 1_555 1_555
H12 C11 1_555 1_555
C12 H13 1_555 1_555
H14 C12 1_555 1_555
H15 C12 1_555 1_555
C13 C11 1_555 1_555
C14 C13 1_555 1_555
H16 C14 1_555 1_555
H17 C14 1_555 1_555
H18 C14 1_555 1_555
C15 C13 1_555 1_555
N1 C1 1_555 1_555
N2 C15 1_555 1_555
O1 C1 1_555 1_555
C2 N1 1_555 1_555
C3 N1 1_555 1_555
C7 C8 1_555 1_555
C12 C13 1_555 1_555

#END
