
#######################################################################
#
#                 Cambridge Crystallographic Data Centre
#                                CCDC 
#
#######################################################################
#
# If this CIF has been generated from an entry in the Cambridge 
# Structural Database, then it will include bibliographic, chemical, 
# crystal, experimental, refinement or atomic coordinate data resulting 
# from the CCDC's data processing and validation procedures.
#
#######################################################################

data_BOQTIK
_chemical_formula_moiety         'C22 H22 N1 P1'
_chemical_name_systematic        
N-Benzylidene-3-(diphenylphosphino)-1-propanamine
_symmetry_cell_setting           orthorhombic
_symmetry_space_group_name_H-M   'P 21 21 21'
_symmetry_Int_Tables_number      19
_space_group_name_Hall           'P 2ac 2ab'
loop_
_symmetry_equiv_pos_site_id
_symmetry_equiv_pos_as_xyz
1 x,y,z
2 1/2-x,-y,1/2+z
3 -x,1/2+y,1/2-z
4 1/2+x,1/2-y,-z
_cell_length_a                   5.768(2)
_cell_length_b                   17.702(3)
_cell_length_c                   17.823(4)
_cell_angle_alpha                90
_cell_angle_beta                 90
_cell_angle_gamma                90
_cell_volume                     1819.82
_exptl_crystal_colour            colorless
_exptl_crystal_description       prismatic
_cell_formula_units_Z            4
loop_
_atom_site_label
_atom_site_type_symbol
_atom_site_fract_x
_atom_site_fract_y
_atom_site_fract_z
P1 P 0.24508(8) 1.32205(3) 1.15104(2)
N1 N 0.7355(3) 1.47800(8) 1.00822(8)
C1 C 0.5757(3) 1.20181(11) 1.14927(11)
H1 H 0.6708 1.2320 1.1196
C2 C 0.6446(4) 1.12841(11) 1.16820(13)
H2 H 0.7849 1.1097 1.1504
C3 C 0.5090(4) 1.08447(12) 1.21209(12)
H3 H 0.5567 1.0358 1.2243
C4 C 0.2995(5) 1.11147(12) 1.23889(12)
H4 H 0.2074 1.0817 1.2699
C5 C 0.2299(4) 1.18282(10) 1.21900(11)
H5 H 0.0871 1.2004 1.2357
C6 C 0.3654(3) 1.22925(10) 1.17491(10)
C7 C 0.2363(3) 1.36542(9) 1.24433(9)
C8 C 0.0424(3) 1.40853(11) 1.26416(11)
H6 H -0.0769 1.4151 1.2297
C9 C 0.0257(4) 1.44138(11) 1.33414(12)
H7 H -0.1042 1.4699 1.3466
C10 C 0.2000(4) 1.43205(11) 1.38502(11)
H8 H 0.1881 1.4540 1.4323
C11 C 0.3925(4) 1.39049(12) 1.36691(11)
H9 H 0.5121 1.3851 1.4015
C12 C 0.4084(3) 1.35677(10) 1.29746(10)
H10 H 0.5378 1.3276 1.2861
C13 C 0.4922(3) 1.37201(11) 1.10900(10)
H11 H 0.4800 1.4254 1.1207
H12 H 0.6345 1.3534 1.1313
C14 C 0.5060(4) 1.36233(11) 1.02373(10)
H13 H 0.5035 1.3089 1.0117
H14 H 0.3708 1.3854 1.0009
C15 C 0.7235(4) 1.39761(10) 0.99062(10)
H15 H 0.8592 1.3723 1.0106
H16 H 0.7232 1.3909 0.9366
C16 C 0.9109(4) 1.50074(11) 1.04326(10)
H17 H 1.0226 1.4654 1.0567
C17 C 0.9500(4) 1.57962(12) 1.06419(10)
C18 C 0.7897(4) 1.63596(12) 1.04701(10)
H18 H 0.6529 1.6238 1.0222
C19 C 0.8353(4) 1.71011(12) 1.06708(12)
H19 H 0.7289 1.7478 1.0554
C20 C 1.0387(4) 1.72848(13) 1.10443(13)
H20 H 1.0682 1.7783 1.1178
C21 C 1.1958(4) 1.67328(14) 1.12158(14)
H21 H 1.3315 1.6853 1.1471
C22 C 1.1516(4) 1.59971(14) 1.10068(13)
H22 H 1.2607 1.5626 1.1115
loop_
_geom_bond_atom_site_label_1
_geom_bond_atom_site_label_2
_geom_bond_site_symmetry_1
_geom_bond_site_symmetry_2
P1 C6 1_555 1_555
N1 C15 1_555 1_555
C1 H1 1_555 1_555
C2 C1 1_555 1_555
H2 C2 1_555 1_555
C3 C2 1_555 1_555
H3 C3 1_555 1_555
C4 C3 1_555 1_555
H4 C4 1_555 1_555
C5 C4 1_555 1_555
H5 C5 1_555 1_555
C6 C1 1_555 1_555
C7 P1 1_555 1_555
C8 C7 1_555 1_555
H6 C8 1_555 1_555
C9 C8 1_555 1_555
H7 C9 1_555 1_555
C10 C9 1_555 1_555
H8 C10 1_555 1_555
C11 C10 1_555 1_555
H9 C11 1_555 1_555
C12 C7 1_555 1_555
H10 C12 1_555 1_555
C13 P1 1_555 1_555
H11 C13 1_555 1_555
H12 C13 1_555 1_555
C14 C13 1_555 1_555
H13 C14 1_555 1_555
H14 C14 1_555 1_555
C15 C14 1_555 1_555
H15 C15 1_555 1_555
H16 C15 1_555 1_555
C16 N1 1_555 1_555
H17 C16 1_555 1_555
C17 C16 1_555 1_555
C18 C17 1_555 1_555
H18 C18 1_555 1_555
C19 C18 1_555 1_555
H19 C19 1_555 1_555
C20 C19 1_555 1_555
H20 C20 1_555 1_555
C21 C20 1_555 1_555
H21 C21 1_555 1_555
C22 C17 1_555 1_555
H22 C22 1_555 1_555
C5 C6 1_555 1_555
C11 C12 1_555 1_555
C21 C22 1_555 1_555

#END
