
#######################################################################
#
#                 Cambridge Crystallographic Data Centre
#                                CCDC 
#
#######################################################################
#
# If this CIF has been generated from an entry in the Cambridge 
# Structural Database, then it will include bibliographic, chemical, 
# crystal, experimental, refinement or atomic coordinate data resulting 
# from the CCDC's data processing and validation procedures.
#
#######################################################################

data_BOQTAC
_chemical_formula_moiety         'C24 H17 N1 O4'
_chemical_name_systematic        
1-Acetyl-7a'-phenyl-spiro(3H-indole-3,2'(2a'H)oxeto(2,3-b)benzofuran)-2(1H)-one
_symmetry_cell_setting           triclinic
_symmetry_space_group_name_H-M   'P -1'
_symmetry_Int_Tables_number      2
_space_group_name_Hall           '-P 1'
loop_
_symmetry_equiv_pos_site_id
_symmetry_equiv_pos_as_xyz
1 x,y,z
2 -x,-y,-z
_cell_length_a                   9.2136(2)
_cell_length_b                   10.2904(3)
_cell_length_c                   10.9603(3)
_cell_angle_alpha                68.1190(10)
_cell_angle_beta                 80.8300(10)
_cell_angle_gamma                75.0830(10)
_cell_volume                     929.471
_exptl_crystal_colour            colorless
_exptl_crystal_description       slab
_chemical_melting_point          477K
_cell_formula_units_Z            2
_exptl_crystal_recrystallization_method 'petroleum ether/ethyl acetate'
loop_
_atom_site_label
_atom_site_type_symbol
_atom_site_fract_x
_atom_site_fract_y
_atom_site_fract_z
O1 O 0.4871(2) 0.1249(3) 0.2689(2)
O2 O 0.6613(2) 0.2085(2) 0.54998(19)
O3 O 0.38393(19) 0.38228(18) 0.64948(16)
O4 O 0.3178(2) 0.3650(2) 0.87177(18)
N1 N 0.4705(2) 0.1806(2) 0.45250(19)
C1 C 0.5315(3) 0.2088(3) 0.5471(2)
C2 C 0.3150(3) 0.1753(3) 0.4911(2)
C3 C 0.2134(3) 0.1497(3) 0.4279(3)
H1 H 0.2424 0.1266 0.3520
C4 C 0.0660(3) 0.1599(3) 0.4823(3)
H2 H -0.0050 0.1429 0.4417
C5 C 0.0217(3) 0.1945(3) 0.5946(3)
H3 H -0.0782 0.2012 0.6283
C6 C 0.1242(3) 0.2193(3) 0.6570(3)
H4 H 0.0946 0.2429 0.7327
C7 C 0.2721(3) 0.2086(3) 0.6059(2)
C8 C 0.4033(3) 0.2369(3) 0.6491(2)
C9 C 0.4514(3) 0.1737(3) 0.7929(2)
H5 H 0.5527 0.1125 0.8058
C10 C 0.3338(3) 0.1269(3) 0.9002(2)
C11 C 0.2916(3) -0.0022(3) 0.9607(2)
H6 H 0.3401 -0.0808 0.9361
C12 C 0.1750(3) -0.0135(4) 1.0594(3)
H7 H 0.1449 -0.1003 1.1009
C13 C 0.1040(4) 0.1030(4) 1.0961(3)
H8 H 0.0266 0.0935 1.1625
C14 C 0.1454(3) 0.2346(4) 1.0360(3)
H9 H 0.0969 0.3133 1.0604
C15 C 0.2618(3) 0.2433(3) 0.9387(2)
C16 C 0.4378(3) 0.3324(3) 0.7788(2)
C17 C 0.5684(3) 0.3908(3) 0.7850(2)
C18 C 0.6015(3) 0.3906(3) 0.9045(3)
H10 H 0.5379 0.3608 0.9795
C19 C 0.7282(4) 0.4345(3) 0.9125(3)
H11 H 0.7497 0.4333 0.9930
C20 C 0.8231(4) 0.4800(3) 0.8018(3)
H12 H 0.9085 0.5090 0.8077
C21 C 0.7908(3) 0.4822(3) 0.6834(3)
H13 H 0.8550 0.5122 0.6089
C22 C 0.6631(3) 0.4400(3) 0.6737(3)
H14 H 0.6407 0.4446 0.5922
C23 C 0.5448(3) 0.1673(3) 0.3331(3)
C24 C 0.6938(3) 0.2084(4) 0.2925(3)
H15 H 0.7254 0.2086 0.2046
H16 H 0.7668 0.1407 0.3519
H17 H 0.6853 0.3025 0.2947
loop_
_geom_bond_atom_site_label_1
_geom_bond_atom_site_label_2
_geom_bond_site_symmetry_1
_geom_bond_site_symmetry_2
O1 C23 1_555 1_555
O2 C1 1_555 1_555
O3 C8 1_555 1_555
O4 C15 1_555 1_555
N1 C1 1_555 1_555
C1 C8 1_555 1_555
C2 N1 1_555 1_555
C3 C2 1_555 1_555
H1 C3 1_555 1_555
C4 C3 1_555 1_555
H2 C4 1_555 1_555
C5 C4 1_555 1_555
H3 C5 1_555 1_555
C6 C5 1_555 1_555
H4 C6 1_555 1_555
C7 C2 1_555 1_555
C8 C7 1_555 1_555
C9 C8 1_555 1_555
H5 C9 1_555 1_555
C10 C9 1_555 1_555
C11 C10 1_555 1_555
H6 C11 1_555 1_555
C12 C11 1_555 1_555
H7 C12 1_555 1_555
C13 C12 1_555 1_555
H8 C13 1_555 1_555
C14 C13 1_555 1_555
H9 C14 1_555 1_555
C15 C10 1_555 1_555
C16 O3 1_555 1_555
C17 C16 1_555 1_555
C18 C17 1_555 1_555
H10 C18 1_555 1_555
C19 C18 1_555 1_555
H11 C19 1_555 1_555
C20 C19 1_555 1_555
H12 C20 1_555 1_555
C21 C20 1_555 1_555
H13 C21 1_555 1_555
C22 C17 1_555 1_555
H14 C22 1_555 1_555
C23 N1 1_555 1_555
C24 C23 1_555 1_555
H15 C24 1_555 1_555
H16 C24 1_555 1_555
H17 C24 1_555 1_555
O4 C16 1_555 1_555
C6 C7 1_555 1_555
C9 C16 1_555 1_555
C14 C15 1_555 1_555
C21 C22 1_555 1_555

#END
