
#######################################################################
#
#                 Cambridge Crystallographic Data Centre
#                                CCDC 
#
#######################################################################
#
# If this CIF has been generated from an entry in the Cambridge 
# Structural Database, then it will include bibliographic, chemical, 
# crystal, experimental, refinement or atomic coordinate data resulting 
# from the CCDC's data processing and validation procedures.
#
#######################################################################

data_BOQWEJ
_chemical_formula_moiety         'C8 H5 Br1 O3'
_chemical_name_systematic        5-Bromo-2-hydroxybenzene-1,3-dicarbaldehyde
_symmetry_cell_setting           monoclinic
_symmetry_space_group_name_H-M   'P 21/n'
_symmetry_Int_Tables_number      14
_space_group_name_Hall           '-P 2yn'
loop_
_symmetry_equiv_pos_site_id
_symmetry_equiv_pos_as_xyz
1 x,y,z
2 1/2+x,1/2-y,1/2+z
3 -x,-y,-z
4 1/2-x,1/2+y,1/2-z
_cell_length_a                   7.5206(15)
_cell_length_b                   3.9367(8)
_cell_length_c                   25.881(5)
_cell_angle_alpha                90
_cell_angle_beta                 96.84(3)
_cell_angle_gamma                90
_cell_volume                     760.788
_exptl_crystal_colour            yellow
_exptl_crystal_description       needle
_cell_formula_units_Z            4
_exptl_crystal_recrystallization_method chloroform
loop_
_atom_site_label
_atom_site_type_symbol
_atom_site_fract_x
_atom_site_fract_y
_atom_site_fract_z
Br1 Br 0.22223(5) 0.23808(10) 0.015353(16)
O1 O 0.6948(4) -0.1580(9) 0.20916(12)
H1 H 0.627(9) -0.282(13) 0.228(3)
O2 O 0.9031(4) 0.4441(9) 0.10756(14)
O3 O 0.4140(4) -0.4438(8) 0.24075(12)
C1 C 0.3673(5) 0.1103(10) 0.07678(16)
C2 C 0.5444(6) 0.2136(10) 0.08367(18)
H2 H 0.597(8) 0.342(13) 0.056(2)
C3 C 0.6543(5) 0.1263(11) 0.12867(15)
C4 C 0.5851(5) -0.0690(10) 0.16694(14)
C5 C 0.4035(5) -0.1650(10) 0.15984(16)
C6 C 0.2966(5) -0.0769(10) 0.11430(16)
H3 H 0.178(8) -0.164(14) 0.112(2)
C7 C 0.8420(6) 0.2418(11) 0.13658(19)
H4 H 0.909(8) 0.151(13) 0.166(2)
C8 C 0.3281(6) -0.3607(11) 0.19971(16)
H5 H 0.205(7) -0.432(13) 0.192(2)
loop_
_geom_bond_atom_site_label_1
_geom_bond_atom_site_label_2
_geom_bond_site_symmetry_1
_geom_bond_site_symmetry_2
Br1 C1 1_555 1_555
O1 H1 1_555 1_555
O2 C7 1_555 1_555
O3 C8 1_555 1_555
C1 C2 1_555 1_555
C2 H2 1_555 1_555
C3 C2 1_555 1_555
C4 O1 1_555 1_555
C5 C4 1_555 1_555
C6 C1 1_555 1_555
H3 C6 1_555 1_555
C7 C3 1_555 1_555
H4 C7 1_555 1_555
C8 C5 1_555 1_555
H5 C8 1_555 1_555
C3 C4 1_555 1_555
C5 C6 1_555 1_555

#END
