
#######################################################################
#
#                 Cambridge Crystallographic Data Centre
#                                CCDC 
#
#######################################################################
#
# If this CIF has been generated from an entry in the Cambridge 
# Structural Database, then it will include bibliographic, chemical, 
# crystal, experimental, refinement or atomic coordinate data resulting 
# from the CCDC's data processing and validation procedures.
#
#######################################################################

data_BORCAO
_chemical_formula_moiety         'C13 H11 N1 O2'
_chemical_name_systematic        
7-Methyl-3,4-dihydro-1H-pyrano[3,4-b]quinolin-1-one
_symmetry_cell_setting           monoclinic
_symmetry_space_group_name_H-M   'P 21/n'
_symmetry_Int_Tables_number      14
_space_group_name_Hall           '-P 2yn'
loop_
_symmetry_equiv_pos_site_id
_symmetry_equiv_pos_as_xyz
1 x,y,z
2 1/2-x,1/2+y,1/2-z
3 -x,-y,-z
4 1/2+x,1/2-y,1/2+z
_cell_length_a                   7.0817(14)
_cell_length_b                   7.2466(14)
_cell_length_c                   20.361(8)
_cell_angle_alpha                90
_cell_angle_beta                 92.97(3)
_cell_angle_gamma                90
_cell_volume                     1043.49
_exptl_crystal_colour            'light colorless'
_exptl_crystal_description       plate
_cell_formula_units_Z            4
loop_
_atom_site_label
_atom_site_type_symbol
_atom_site_fract_x
_atom_site_fract_y
_atom_site_fract_z
O1 O 0.4171(5) 0.8530(5) 0.2375(2)
O2 O 0.5368(7) 0.6326(6) 0.1787(3)
N1 N 0.8236(6) 0.8577(6) 0.1404(2)
C1 C 0.4377(8) 1.0377(7) 0.2625(3)
H1 H 0.5477 1.0436 0.2929
H2 H 0.3275 1.0696 0.2865
C2 C 0.4598(7) 1.1748(7) 0.2082(3)
H3 H 0.4784 1.2975 0.2264
H4 H 0.3467 1.1762 0.1792
C3 C 0.6291(7) 1.1197(7) 0.1701(2)
C4 C 0.6723(7) 0.9305(7) 0.1678(2)
C5 C 0.5425(8) 0.7927(8) 0.1952(3)
C6 C 0.7442(7) 1.2399(7) 0.1393(2)
H5 H 0.7157 1.3652 0.1381
C7 C 0.9067(7) 1.1734(7) 0.1094(2)
C8 C 0.9412(7) 0.9815(7) 0.1121(2)
C9 C 1.0323(8) 1.2907(8) 0.0776(2)
H6 H 1.0081 1.4168 0.0757
C10 C 1.1901(8) 1.2216(8) 0.0494(3)
C11 C 1.2235(8) 1.0297(8) 0.0532(3)
H7 H 1.3298 0.9819 0.0343
C12 C 1.1066(8) 0.9127(9) 0.0834(3)
H8 H 1.1342 0.7873 0.0853
C13 C 1.3264(9) 1.3476(9) 0.0169(3)
H9 H 1.3235 1.3219 -0.0294
H10 H 1.4519 1.3273 0.0356
H11 H 1.2907 1.4737 0.0236
loop_
_geom_bond_atom_site_label_1
_geom_bond_atom_site_label_2
_geom_bond_site_symmetry_1
_geom_bond_site_symmetry_2
O1 C1 1_555 1_555
O2 C5 1_555 1_555
N1 C4 1_555 1_555
C1 H1 1_555 1_555
H2 C1 1_555 1_555
C2 C1 1_555 1_555
H3 C2 1_555 1_555
H4 C2 1_555 1_555
C3 C2 1_555 1_555
C4 C3 1_555 1_555
C5 O1 1_555 1_555
C6 C3 1_555 1_555
H5 C6 1_555 1_555
C7 C6 1_555 1_555
C8 N1 1_555 1_555
C9 C7 1_555 1_555
H6 C9 1_555 1_555
C10 C9 1_555 1_555
C11 C10 1_555 1_555
H7 C11 1_555 1_555
C12 C8 1_555 1_555
H8 C12 1_555 1_555
C13 C10 1_555 1_555
H9 C13 1_555 1_555
H10 C13 1_555 1_555
H11 C13 1_555 1_555
C4 C5 1_555 1_555
C7 C8 1_555 1_555
C11 C12 1_555 1_555

#END
