
#######################################################################
#
#                 Cambridge Crystallographic Data Centre
#                                CCDC 
#
#######################################################################
#
# If this CIF has been generated from an entry in the Cambridge 
# Structural Database, then it will include bibliographic, chemical, 
# crystal, experimental, refinement or atomic coordinate data resulting 
# from the CCDC's data processing and validation procedures.
#
#######################################################################

data_BORKOJ
_chemical_formula_moiety         'C14 H12 Br2 O2'
_chemical_name_systematic        4,4'-Dibromo-2,2'-dimethoxybiphenyl
_symmetry_cell_setting           monoclinic
_symmetry_space_group_name_H-M   'P 2/n'
_symmetry_Int_Tables_number      13
_space_group_name_Hall           '-P 2yac'
loop_
_symmetry_equiv_pos_site_id
_symmetry_equiv_pos_as_xyz
1 x,y,z
2 1/2-x,y,1/2-z
3 -x,-y,-z
4 1/2+x,-y,1/2+z
_cell_length_a                   12.3386(10)
_cell_length_b                   4.0907(3)
_cell_length_c                   14.1068(13)
_cell_angle_alpha                90
_cell_angle_beta                 111.88(1)
_cell_angle_gamma                90
_cell_volume                     660.73
_exptl_crystal_colour            colorless
_exptl_crystal_description       wedge
_chemical_melting_point          107.4-108.5deg.C
_cell_formula_units_Z            2
_exptl_crystal_recrystallization_method dichloromethane/n-hexane
loop_
_atom_site_label
_atom_site_type_symbol
_atom_site_fract_x
_atom_site_fract_y
_atom_site_fract_z
Br1 Br 0.678443(12) 0.07456(4) 0.607018(10)
O1 O 0.56116(9) 0.3787(3) 0.21932(8)
C1 C 0.74098(12) 0.1084(3) 0.29923(10)
C2 C 0.63947(11) 0.2452(3) 0.30677(10)
C3 C 0.62182(11) 0.2387(3) 0.39881(10)
H1 H 0.5534(17) 0.326(5) 0.4036(15)
C4 C 0.70590(12) 0.0923(3) 0.48297(10)
C5 C 0.80686(13) -0.0441(4) 0.47909(11)
H2 H 0.8611(17) -0.149(5) 0.5365(17)
C6 C 0.82285(12) -0.0321(4) 0.38668(10)
H3 H 0.8927(16) -0.136(4) 0.3838(14)
C7 C 0.46038(13) 0.5345(4) 0.22554(12)
H4 H 0.4198(19) 0.628(5) 0.1580(17)
H5 H 0.4112(18) 0.380(5) 0.2425(16)
H6 H 0.4833(17) 0.704(6) 0.2746(16)
Br1A Br 0.821557(12) 0.07456(4) -0.107018(10)
O1A O 0.93884(9) 0.3787(3) 0.28068(8)
C1A C 0.75902(12) 0.1084(3) 0.20077(10)
C2A C 0.86053(11) 0.2452(3) 0.19323(10)
C3A C 0.87818(11) 0.2387(3) 0.10119(10)
H1A H 0.9466(17) 0.326(5) 0.0964(15)
C4A C 0.79410(12) 0.0923(3) 0.01703(10)
C5A C 0.69314(13) -0.0441(4) 0.02091(11)
H2A H 0.6389(17) -0.149(5) -0.0365(17)
C6A C 0.67715(12) -0.0321(4) 0.11332(10)
H3A H 0.6073(16) -0.136(4) 0.1162(14)
C7A C 1.03962(13) 0.5345(4) 0.27446(12)
H4A H 1.0802(19) 0.628(5) 0.3420(17)
H5A H 1.0888(18) 0.380(5) 0.2575(16)
H6A H 1.0167(17) 0.704(6) 0.2254(16)
loop_
_geom_bond_atom_site_label_1
_geom_bond_atom_site_label_2
_geom_bond_site_symmetry_1
_geom_bond_site_symmetry_2
Br1 C4 1_555 1_555
O1 C2 1_555 1_555
C1 C2 1_555 1_555
C2 C3 1_555 1_555
C3 H1 1_555 1_555
C4 C3 1_555 1_555
C5 C4 1_555 1_555
H2 C5 1_555 1_555
C6 C1 1_555 1_555
H3 C6 1_555 1_555
C7 O1 1_555 1_555
H4 C7 1_555 1_555
H5 C7 1_555 1_555
H6 C7 1_555 1_555
Br1A C4A 1_555 1_555
O1A C2A 1_555 1_555
C1A C1 1_555 1_555
C2A C1A 1_555 1_555
C3A C2A 1_555 1_555
H1A C3A 1_555 1_555
C4A C3A 1_555 1_555
C5A C4A 1_555 1_555
H2A C5A 1_555 1_555
C6A C1A 1_555 1_555
H3A C6A 1_555 1_555
C7A O1A 1_555 1_555
H4A C7A 1_555 1_555
H5A C7A 1_555 1_555
H6A C7A 1_555 1_555
C5 C6 1_555 1_555
C5A C6A 1_555 1_555

#END
