
#######################################################################
#
#                 Cambridge Crystallographic Data Centre
#                                CCDC 
#
#######################################################################
#
# If this CIF has been generated from an entry in the Cambridge 
# Structural Database, then it will include bibliographic, chemical, 
# crystal, experimental, refinement or atomic coordinate data resulting 
# from the CCDC's data processing and validation procedures.
#
#######################################################################

data_BORKUP
_chemical_formula_moiety         'C19 H18 O2 S2'
_chemical_name_systematic        2,7-bis(Acetylsulfanyl)-9,9-dimethylfluorene
_symmetry_cell_setting           tetragonal
_symmetry_space_group_name_H-M   'P 41 21 2'
_symmetry_Int_Tables_number      92
_space_group_name_Hall           'P 4abw 2nw'
loop_
_symmetry_equiv_pos_site_id
_symmetry_equiv_pos_as_xyz
1 x,y,z
2 1/2-y,1/2+x,1/4+z
3 1/2+x,1/2-y,3/4-z
4 -x,-y,1/2+z
5 y,x,-z
6 1/2+y,1/2-x,3/4+z
7 1/2-x,1/2+y,1/4-z
8 -y,-x,1/2-z
_cell_length_a                   9.299(2)
_cell_length_b                   9.299(2)
_cell_length_c                   19.937(5)
_cell_angle_alpha                90
_cell_angle_beta                 90
_cell_angle_gamma                90
_cell_volume                     1723.98
_exptl_crystal_colour            colorless
_exptl_crystal_description       'diamond block'
_chemical_melting_point          183.0-184.2deg.C
_cell_formula_units_Z            4
_exptl_crystal_recrystallization_method toluene/ethanol
loop_
_atom_site_label
_atom_site_type_symbol
_atom_site_fract_x
_atom_site_fract_y
_atom_site_fract_z
S1 S 0.17789(4) 0.56558(4) 0.495273(17)
O1 O 0.09578(15) 0.31128(14) 0.44928(7)
C1 C 0.18766(15) 0.68026(15) 0.36897(7)
H1 H 0.1087(18) 0.7422(19) 0.3842(8)
C2 C 0.24429(16) 0.57542(16) 0.41193(7)
C3 C 0.35514(16) 0.48429(16) 0.39099(8)
H2 H 0.391(2) 0.420(2) 0.4190(11)
C4 C 0.41258(16) 0.49692(16) 0.32707(7)
H3 H 0.478(2) 0.431(2) 0.3107(9)
C5 C 0.35836(14) 0.60295(15) 0.28474(7)
C6 C 0.24616(15) 0.69336(15) 0.30540(7)
C7 C 0.20250(14) 0.79750(14) 0.2500
C8 C 0.22645(17) 0.95482(16) 0.27104(7)
H4 H 0.330(2) 0.970(2) 0.2861(10)
H5 H 0.204(2) 1.014(2) 0.2333(10)
H6 H 0.163(2) 0.982(2) 0.3067(10)
C9 C 0.10038(17) 0.38901(17) 0.49715(9)
C10 C 0.0461(2) 0.3513(2) 0.56604(11)
H7 H -0.037(3) 0.297(3) 0.5599(12)
H8 H 0.110(3) 0.281(3) 0.5869(12)
H9 H 0.042(3) 0.434(3) 0.5928(12)
S1G S 0.43442(4) 0.82211(4) 0.004727(17)
O1G O 0.68872(14) 0.90422(15) 0.05072(7)
C1G C 0.31974(15) 0.81234(15) 0.13103(7)
H1G H 0.2578(19) 0.8913(18) 0.1158(8)
C2G C 0.42458(16) 0.75571(16) 0.08807(7)
C3G C 0.51571(16) 0.64486(16) 0.10901(8)
H2G H 0.580(2) 0.609(2) 0.0810(11)
C4G C 0.50308(16) 0.58742(16) 0.17293(7)
H3G H 0.569(2) 0.522(2) 0.1893(9)
C5G C 0.39705(15) 0.64164(14) 0.21526(7)
C6G C 0.30664(15) 0.75384(15) 0.19460(7)
C8G C 0.04518(16) 0.77355(17) 0.22896(7)
H4G H 0.030(2) 0.670(2) 0.2139(10)
H5G H -0.014(2) 0.796(2) 0.2667(10)
H6G H 0.018(2) 0.837(2) 0.1933(10)
C9G C 0.61099(17) 0.89962(17) 0.00285(9)
C10G C 0.6487(2) 0.9539(2) -0.06604(11)
H7G H 0.703(3) 1.037(3) -0.0599(12)
H8G H 0.719(3) 0.890(3) -0.0869(12)
H9G H 0.566(3) 0.958(3) -0.0928(12)
loop_
_geom_bond_atom_site_label_1
_geom_bond_atom_site_label_2
_geom_bond_site_symmetry_1
_geom_bond_site_symmetry_2
S1 C2 1_555 1_555
O1 C9 1_555 1_555
C1 H1 1_555 1_555
C2 C1 1_555 1_555
C3 C2 1_555 1_555
H2 C3 1_555 1_555
C4 C3 1_555 1_555
H3 C4 1_555 1_555
C5 C4 1_555 1_555
C6 C1 1_555 1_555
C7 C6 1_555 1_555
C8 C7 1_555 1_555
H4 C8 1_555 1_555
H5 C8 1_555 1_555
H6 C8 1_555 1_555
C9 S1 1_555 1_555
C10 C9 1_555 1_555
H7 C10 1_555 1_555
H8 C10 1_555 1_555
H9 C10 1_555 1_555
S1G C2G 1_555 1_555
O1G C9G 1_555 1_555
C1G H1G 1_555 1_555
C2G C1G 1_555 1_555
C3G C2G 1_555 1_555
H2G C3G 1_555 1_555
C4G C3G 1_555 1_555
H3G C4G 1_555 1_555
C5G C5 1_555 1_555
C6G C7 1_555 1_555
C8G C7 1_555 1_555
H4G C8G 1_555 1_555
H5G C8G 1_555 1_555
H6G C8G 1_555 1_555
C9G S1G 1_555 1_555
C10G C9G 1_555 1_555
H7G C10G 1_555 1_555
H8G C10G 1_555 1_555
H9G C10G 1_555 1_555
C5 C6 1_555 1_555
C1G C6G 1_555 1_555
C4G C5G 1_555 1_555
C5G C6G 1_555 1_555

#END
