
#######################################################################
#
#                 Cambridge Crystallographic Data Centre
#                                CCDC 
#
#######################################################################
#
# If this CIF has been generated from an entry in the Cambridge 
# Structural Database, then it will include bibliographic, chemical, 
# crystal, experimental, refinement or atomic coordinate data resulting 
# from the CCDC's data processing and validation procedures.
#
#######################################################################

data_BORKID
_chemical_formula_moiety         'C17 H15 N1 O2 S2'
_chemical_name_systematic        2,7-bis(Acetylsulfanyl)-9-methylcarbazole
_symmetry_cell_setting           triclinic
_symmetry_space_group_name_H-M   'P -1'
_symmetry_Int_Tables_number      2
_space_group_name_Hall           '-P 1'
loop_
_symmetry_equiv_pos_site_id
_symmetry_equiv_pos_as_xyz
1 x,y,z
2 -x,-y,-z
_cell_length_a                   8.0564(11)
_cell_length_b                   9.0810(13)
_cell_length_c                   11.0690(16)
_cell_angle_alpha                83.7696(24)
_cell_angle_beta                 76.5352(24)
_cell_angle_gamma                79.2051(25)
_cell_volume                     771.826
_exptl_crystal_colour            colorless
_exptl_crystal_description       needle
_chemical_melting_point          189.5-190.2deg.C
_cell_formula_units_Z            2
_exptl_crystal_recrystallization_method chloroform/ethanol
loop_
_atom_site_label
_atom_site_type_symbol
_atom_site_fract_x
_atom_site_fract_y
_atom_site_fract_z
S1 S 0.54678(4) -0.17117(4) 0.24648(3)
S2 S -0.07459(5) 0.70498(4) 0.78621(3)
O1 O 0.31949(15) -0.06752(13) 0.10533(11)
O2 O 0.18425(14) 0.59360(13) 0.89764(10)
N1 N 0.15056(15) 0.19585(12) 0.57027(10)
C1 C 0.33418(17) 0.01616(15) 0.41564(12)
H1 H 0.288(2) -0.0725(18) 0.4498(15)
C2 C 0.46512(17) 0.00682(15) 0.30859(12)
C3 C 0.54120(18) 0.13195(16) 0.25398(12)
H2 H 0.632(2) 0.1241(19) 0.1794(16)
C4 C 0.48738(18) 0.26961(16) 0.30616(12)
H3 H 0.543(2) 0.3553(19) 0.2692(16)
C5 C 0.28995(18) 0.55401(15) 0.48955(13)
H4 H 0.376(2) 0.5954(19) 0.4260(16)
C6 C 0.18486(19) 0.64171(16) 0.58167(13)
H5 H 0.201(2) 0.743(2) 0.5834(17)
C7 C 0.05905(18) 0.58326(15) 0.67467(12)
C8 C 0.03598(18) 0.43471(15) 0.67835(12)
H6 H -0.052(2) 0.3969(18) 0.7420(16)
C9 C 0.14408(17) 0.34616(14) 0.58662(12)
C10 C 0.27047(17) 0.40376(14) 0.49133(12)
C11 C 0.35546(17) 0.28241(15) 0.41364(11)
C12 C 0.27891(17) 0.15555(15) 0.46671(11)
C13 C 0.0485(2) 0.09623(17) 0.65381(14)
H7 H -0.066(3) 0.149(2) 0.686(2)
H8 H 0.031(2) 0.018(2) 0.6109(18)
H9 H 0.095(3) 0.059(3) 0.724(2)
C14 C 0.43029(18) -0.16891(16) 0.12667(12)
C15 C 0.4887(2) -0.30888(19) 0.05669(16)
H10 H 0.554(3) -0.384(2) 0.0981(18)
H11 H 0.398(3) -0.341(3) 0.039(2)
H12 H 0.568(3) -0.287(3) -0.025(2)
C16 C 0.04980(18) 0.68013(15) 0.90290(12)
C17 C -0.0330(2) 0.77862(18) 1.00874(14)
H13 H -0.114(3) 0.855(2) 0.9868(17)
H14 H 0.053(3) 0.819(2) 1.0346(19)
H15 H -0.091(3) 0.722(2) 1.076(2)
loop_
_geom_bond_atom_site_label_1
_geom_bond_atom_site_label_2
_geom_bond_site_symmetry_1
_geom_bond_site_symmetry_2
S1 C2 1_555 1_555
S2 C7 1_555 1_555
O1 C14 1_555 1_555
O2 C16 1_555 1_555
N1 C9 1_555 1_555
C1 H1 1_555 1_555
C2 C1 1_555 1_555
C3 C2 1_555 1_555
H2 C3 1_555 1_555
C4 C3 1_555 1_555
H3 C4 1_555 1_555
C5 H4 1_555 1_555
C6 C5 1_555 1_555
H5 C6 1_555 1_555
C7 C6 1_555 1_555
C8 C7 1_555 1_555
H6 C8 1_555 1_555
C9 C8 1_555 1_555
C10 C5 1_555 1_555
C11 C4 1_555 1_555
C12 N1 1_555 1_555
C13 N1 1_555 1_555
H7 C13 1_555 1_555
H8 C13 1_555 1_555
H9 C13 1_555 1_555
C14 S1 1_555 1_555
C15 C14 1_555 1_555
H10 C15 1_555 1_555
H11 C15 1_555 1_555
H12 C15 1_555 1_555
C16 S2 1_555 1_555
C17 C16 1_555 1_555
H13 C17 1_555 1_555
H14 C17 1_555 1_555
H15 C17 1_555 1_555
C1 C12 1_555 1_555
C9 C10 1_555 1_555
C10 C11 1_555 1_555
C11 C12 1_555 1_555

#END
