
#######################################################################
#
#                 Cambridge Crystallographic Data Centre
#                                CCDC 
#
#######################################################################
#
# If this CIF has been generated from an entry in the Cambridge 
# Structural Database, then it will include bibliographic, chemical, 
# crystal, experimental, refinement or atomic coordinate data resulting 
# from the CCDC's data processing and validation procedures.
#
#######################################################################

data_BORNIF
_chemical_name_common            Amiprophos-M
_chemical_formula_moiety         'C12 H19 N2 O4 P1 S1'
_chemical_name_systematic        
'Ethyl 2-nitro-4-methylphenyl-N-isopropyl-phosphoramidothionate'
_symmetry_cell_setting           triclinic
_symmetry_space_group_name_H-M   'P -1'
_symmetry_Int_Tables_number      2
_space_group_name_Hall           '-P 1'
loop_
_symmetry_equiv_pos_site_id
_symmetry_equiv_pos_as_xyz
1 x,y,z
2 -x,-y,-z
_cell_length_a                   8.636(1)
_cell_length_b                   10.483(2)
_cell_length_c                   10.694(2)
_cell_angle_alpha                110.92(1)
_cell_angle_beta                 111.27(1)
_cell_angle_gamma                98.97(1)
_cell_volume                     796.119
_cell_formula_units_Z            2
loop_
_atom_site_label
_atom_site_type_symbol
_atom_site_fract_x
_atom_site_fract_y
_atom_site_fract_z
P1 P 0.32980 0.69120 -0.01360
S1 S 0.20940 0.50100 -0.05360
O1 O 0.28510 0.81930 0.08270
O2 O 0.28420 0.72230 -0.15650
O3 O 0.38310 0.69640 -0.36470
O4 O 0.24180 0.75630 -0.52700
N1 N 0.54260 0.73250 0.06270
N2 N 0.25470 0.72000 -0.43170
C1 C 0.12130 0.69710 -0.26490
C2 C -0.02950 0.67820 -0.24500
C3 C -0.18900 0.65700 -0.35650
C4 C -0.20940 0.65290 -0.49190
C5 C -0.05980 0.67280 -0.51270
C6 C 0.10240 0.69440 -0.40030
C7 C -0.38570 0.62630 -0.61470
C8 C 0.67000 0.87490 0.11370
C9 C 0.81380 0.91860 0.26920
C10 C 0.74350 0.86690 0.00330
C11 C 0.28460 0.83050 0.22160
C12 C 0.28270 0.97640 0.30720
H1 H 0.58500 0.64000 0.05000
H2 H -0.02300 0.66400 -0.15900
H3 H -0.27900 0.64000 -0.33600
H4 H -0.07200 0.67300 -0.60700
H5 H -0.42000 0.52000 -0.69900
H6 H -0.39500 0.69200 -0.67000
H7 H -0.46400 0.63800 -0.60200
H8 H 0.61000 0.95700 0.11800
H9 H 0.85900 0.83400 0.27600
H10 H 0.88600 1.01300 0.29200
H11 H 0.77900 0.93900 0.34700
H12 H 0.79200 0.77600 -0.01000
H13 H 0.66200 0.85800 -0.09400
H14 H 0.79700 0.97600 0.02500
H15 H 0.40200 0.83100 0.30000
H16 H 0.21000 0.74800 0.20900
H17 H 0.27300 0.97500 0.40100
H18 H 0.20300 1.01000 0.24500
H19 H 0.38000 1.03900 0.32400
loop_
_geom_bond_atom_site_label_1
_geom_bond_atom_site_label_2
_geom_bond_site_symmetry_1
_geom_bond_site_symmetry_2
P1 S1 1_555 1_555
O1 P1 1_555 1_555
O2 P1 1_555 1_555
O3 N2 1_555 1_555
O4 N2 1_555 1_555
N1 P1 1_555 1_555
N2 C6 1_555 1_555
C1 O2 1_555 1_555
C2 C1 1_555 1_555
C3 C2 1_555 1_555
C4 C3 1_555 1_555
C5 C4 1_555 1_555
C6 C1 1_555 1_555
C7 C4 1_555 1_555
C8 N1 1_555 1_555
C9 C8 1_555 1_555
C10 C8 1_555 1_555
C11 O1 1_555 1_555
C12 C11 1_555 1_555
H1 N1 1_555 1_555
H2 C2 1_555 1_555
H3 C3 1_555 1_555
H4 C5 1_555 1_555
H5 C7 1_555 1_555
H6 C7 1_555 1_555
H7 C7 1_555 1_555
H8 C8 1_555 1_555
H9 C9 1_555 1_555
H10 C9 1_555 1_555
H11 C9 1_555 1_555
H12 C10 1_555 1_555
H13 C10 1_555 1_555
H14 C10 1_555 1_555
H15 C11 1_555 1_555
H16 C11 1_555 1_555
H17 C12 1_555 1_555
H18 C12 1_555 1_555
H19 C12 1_555 1_555
C5 C6 1_555 1_555

#END
