
#######################################################################
#
#                 Cambridge Crystallographic Data Centre
#                                CCDC 
#
#######################################################################
#
# If this CIF has been generated from an entry in the Cambridge 
# Structural Database, then it will include bibliographic, chemical, 
# crystal, experimental, refinement or atomic coordinate data resulting 
# from the CCDC's data processing and validation procedures.
#
#######################################################################

data_BORQUV
_chemical_formula_moiety         'H4 N1 1+,C6 H14 O2 P1 Se2 1-,C1 H1 Cl3'
_chemical_name_systematic        
'Ammonium O,O-di-isopropyl phosphorodiselenoate chloroform solvate'
_symmetry_cell_setting           monoclinic
_symmetry_space_group_name_H-M   'P 21/n'
_symmetry_Int_Tables_number      14
_space_group_name_Hall           '-P 2yn'
loop_
_symmetry_equiv_pos_site_id
_symmetry_equiv_pos_as_xyz
1 x,y,z
2 1/2-x,1/2+y,1/2-z
3 -x,-y,-z
4 1/2+x,1/2-y,1/2+z
_cell_length_a                   6.8693(5)
_cell_length_b                   14.9715(12)
_cell_length_c                   17.3393(15)
_cell_angle_alpha                90
_cell_angle_beta                 100.082(3)
_cell_angle_gamma                90
_cell_volume                     1755.7
_exptl_crystal_colour            colorless
_exptl_crystal_description       plate
_cell_formula_units_Z            4
_exptl_crystal_recrystallization_method chloroform
loop_
_atom_site_label
_atom_site_type_symbol
_atom_site_fract_x
_atom_site_fract_y
_atom_site_fract_z
N1 N 0.6962(5) 0.5725(2) 0.9360(3)
H16 H 0.727(7) 0.534(4) 0.978(3)
H17 H 0.746(8) 0.629(4) 0.964(3)
H18 H 0.569(8) 0.582(3) 0.920(3)
H19 H 0.770(8) 0.564(3) 0.905(3)
Cl1 Cl 0.42672(18) 0.52577(8) 0.39290(7)
Cl2 Cl 0.1992(2) 0.41093(9) 0.27699(9)
Cl3 Cl 0.6194(2) 0.41971(9) 0.29112(10)
C7 C 0.4223(6) 0.4240(3) 0.3429(3)
H15 H 0.447(6) 0.380(3) 0.380(2)
Se1 Se 0.82101(4) 0.43433(2) 1.10015(2)
Se2 Se 1.01872(4) 0.24699(2) 1.00417(2)
P1 P 0.77027(10) 0.32560(5) 1.01886(5)
O1 O 0.5942(3) 0.26471(14) 1.03766(13)
O2 O 0.6620(3) 0.37053(13) 0.93932(12)
C1 C 0.6233(4) 0.1865(2) 1.0889(2)
H1 H 0.7659 0.1793 1.1102
C2 C 0.5114(6) 0.2018(3) 1.1551(2)
H2 H 0.5565 0.2567 1.1821
H3 H 0.5345 0.1522 1.1915
H4 H 0.3711 0.2062 1.1343
C3 C 0.5504(7) 0.1070(3) 1.0387(3)
H5 H 0.6274 0.1009 0.9971
H6 H 0.4122 0.1155 1.0160
H7 H 0.5646 0.0534 1.0707
C4 C 0.6036(5) 0.3153(2) 0.86871(19)
H8 H 0.6395 0.2523 0.8818
C5 C 0.3836(6) 0.3219(4) 0.8452(3)
H9 H 0.3214 0.3075 0.8898
H10 H 0.3389 0.2802 0.8030
H11 H 0.3480 0.3822 0.8277
C6 C 0.7169(9) 0.3469(4) 0.8083(3)
H12 H 0.8571 0.3379 0.8269
H13 H 0.6912 0.4099 0.7984
H14 H 0.6763 0.3135 0.7603
loop_
_geom_bond_atom_site_label_1
_geom_bond_atom_site_label_2
_geom_bond_site_symmetry_1
_geom_bond_site_symmetry_2
N1 H16 1_555 1_555
Cl1 C7 1_555 1_555
Cl2 C7 1_555 1_555
Cl3 C7 1_555 1_555
Se1 P1 1_555 1_555
Se2 P1 1_555 1_555
P1 O1 1_555 1_555
O1 C1 1_555 1_555
O2 P1 1_555 1_555
C1 H1 1_555 1_555
C2 C1 1_555 1_555
H2 C2 1_555 1_555
H3 C2 1_555 1_555
H4 C2 1_555 1_555
C3 C1 1_555 1_555
H5 C3 1_555 1_555
H6 C3 1_555 1_555
H7 C3 1_555 1_555
C4 O2 1_555 1_555
H8 C4 1_555 1_555
C5 C4 1_555 1_555
H9 C5 1_555 1_555
H10 C5 1_555 1_555
H11 C5 1_555 1_555
C6 C4 1_555 1_555
H12 C6 1_555 1_555
H13 C6 1_555 1_555
H14 C6 1_555 1_555
C7 H15 1_555 1_555
H17 N1 1_555 1_555
H18 N1 1_555 1_555
H19 N1 1_555 1_555

#END
