
#######################################################################
#
#                 Cambridge Crystallographic Data Centre
#                                CCDC 
#
#######################################################################
#
# If this CIF has been generated from an entry in the Cambridge 
# Structural Database, then it will include bibliographic, chemical, 
# crystal, experimental, refinement or atomic coordinate data resulting 
# from the CCDC's data processing and validation procedures.
#
#######################################################################

data_BOSBUI
_chemical_formula_moiety         'C21 H22 N2 O3 S1'
_chemical_name_systematic        
2-((4-Methoxybenzyl)amino)-N-(4-methylphenyl)benzenesulfonamide
_symmetry_cell_setting           orthorhombic
_symmetry_space_group_name_H-M   'P b c a'
_symmetry_Int_Tables_number      61
_space_group_name_Hall           '-P 2ac 2ab'
loop_
_symmetry_equiv_pos_site_id
_symmetry_equiv_pos_as_xyz
1 x,y,z
2 1/2-x,-y,1/2+z
3 -x,1/2+y,1/2-z
4 1/2+x,1/2-y,-z
5 -x,-y,-z
6 1/2+x,y,1/2-z
7 x,1/2-y,1/2+z
8 1/2-x,1/2+y,z
_cell_length_a                   10.0704(16)
_cell_length_b                   16.864(3)
_cell_length_c                   22.682(4)
_cell_angle_alpha                90
_cell_angle_beta                 90
_cell_angle_gamma                90
_cell_volume                     3852.02
_exptl_crystal_colour            colorless
_exptl_crystal_description       block
_cell_formula_units_Z            8
loop_
_atom_site_label
_atom_site_type_symbol
_atom_site_fract_x
_atom_site_fract_y
_atom_site_fract_z
S1 S 0.83707(5) 0.16858(3) 0.26044(2)
O1 O 0.95067(13) 0.21946(8) 0.26049(6)
O2 O 0.78535(14) 0.14357(9) 0.20483(6)
N1 N 0.71563(15) 0.21479(10) 0.29222(8)
H1 H 0.6414 0.2032 0.2767
N2 N 0.67247(16) 0.01812(10) 0.27753(8)
H2 H 0.6717 0.0438 0.2453
C1 C 0.87510(18) 0.08715(11) 0.30490(8)
C2 C 0.99232(19) 0.08974(12) 0.33744(9)
H3 H 1.0471 0.1340 0.3348
C3 C 0.71338(19) 0.23772(11) 0.35245(9)
C4 C 0.78840(18) 0.02141(12) 0.30901(9)
C5 C 0.8243(2) 0.26706(12) 0.38072(10)
H4 H 0.9050 0.2702 0.3610
C6 C 0.8265(2) -0.03905(13) 0.34763(10)
H5 H 0.7708 -0.0825 0.3526
C7 C 0.49028(18) -0.06204(11) 0.32336(9)
C8 C 1.0278(2) 0.02791(13) 0.37323(9)
H6 H 1.1077 0.0290 0.3938
O3 O 0.21519(16) -0.11132(12) 0.45495(8)
C9 C 0.3084(2) -0.09150(14) 0.41317(10)
C10 C 0.9433(2) -0.03606(13) 0.37833(10)
H7 H 0.9661 -0.0779 0.4031
C11 C 0.3920(2) -0.11937(12) 0.31729(10)
H8 H 0.3871 -0.1485 0.2825
C12 C 0.5939(2) 0.23382(14) 0.38224(11)
H9 H 0.5188 0.2134 0.3638
C13 C 0.5906(2) -0.05292(13) 0.27440(10)
H10 H 0.6485 -0.0989 0.2747
H11 H 0.5437 -0.0528 0.2371
C14 C 0.4022(2) -0.03331(14) 0.41978(11)
H12 H 0.4060 -0.0038 0.4544
C15 C 0.3023(2) -0.13390(14) 0.36136(11)
H13 H 0.2372 -0.1724 0.3563
C16 C 0.8144(3) 0.29175(13) 0.43856(11)
H14 H 0.8900 0.3107 0.4575
C17 C 0.4917(2) -0.01867(13) 0.37425(10)
H15 H 0.5539 0.0216 0.3786
C18 C 0.6966(3) 0.28925(14) 0.46925(11)
C19 C 0.5869(3) 0.26042(15) 0.43957(12)
H16 H 0.5056 0.2589 0.4590
C20 C 0.2245(3) -0.0758(2) 0.51091(13)
H17 H 0.1538 -0.0948 0.5355
H18 H 0.2176 -0.0192 0.5069
H19 H 0.3083 -0.0890 0.5285
C21 C 0.6868(4) 0.31760(19) 0.53208(13)
H20 H 0.7725 0.3351 0.5453
H21 H 0.6567 0.2749 0.5567
H22 H 0.6249 0.3608 0.5343
loop_
_geom_bond_atom_site_label_1
_geom_bond_atom_site_label_2
_geom_bond_site_symmetry_1
_geom_bond_site_symmetry_2
S1 O1 1_555 1_555
O2 S1 1_555 1_555
N1 S1 1_555 1_555
H1 N1 1_555 1_555
N2 H2 1_555 1_555
C1 S1 1_555 1_555
C2 C1 1_555 1_555
H3 C2 1_555 1_555
C3 N1 1_555 1_555
C4 N2 1_555 1_555
C5 C3 1_555 1_555
H4 C5 1_555 1_555
C6 C4 1_555 1_555
H5 C6 1_555 1_555
C7 C11 1_555 1_555
C8 C2 1_555 1_555
H6 C8 1_555 1_555
O3 C9 1_555 1_555
C9 C14 1_555 1_555
C10 C6 1_555 1_555
H7 C10 1_555 1_555
C11 H8 1_555 1_555
C12 C3 1_555 1_555
H9 C12 1_555 1_555
C13 N2 1_555 1_555
H10 C13 1_555 1_555
H11 C13 1_555 1_555
C14 H12 1_555 1_555
C15 C9 1_555 1_555
H13 C15 1_555 1_555
C16 C5 1_555 1_555
H14 C16 1_555 1_555
C17 C7 1_555 1_555
H15 C17 1_555 1_555
C18 C16 1_555 1_555
C19 C12 1_555 1_555
H16 C19 1_555 1_555
C20 O3 1_555 1_555
H17 C20 1_555 1_555
H18 C20 1_555 1_555
H19 C20 1_555 1_555
C21 C18 1_555 1_555
H20 C21 1_555 1_555
H21 C21 1_555 1_555
H22 C21 1_555 1_555
C1 C4 1_555 1_555
C7 C13 1_555 1_555
C8 C10 1_555 1_555
C11 C15 1_555 1_555
C14 C17 1_555 1_555
C18 C19 1_555 1_555

#END
