
#######################################################################
#
#                 Cambridge Crystallographic Data Centre
#                                CCDC 
#
#######################################################################
#
# If this CIF has been generated from an entry in the Cambridge 
# Structural Database, then it will include bibliographic, chemical, 
# crystal, experimental, refinement or atomic coordinate data resulting 
# from the CCDC's data processing and validation procedures.
#
#######################################################################

data_BOSHAU
_chemical_formula_moiety         'C14 H11 F1 N2'
_chemical_name_systematic        2-(4-Fluorophenyl)-3,4-dihydroquinazoline
_symmetry_cell_setting           monoclinic
_symmetry_space_group_name_H-M   'P 21/n'
_symmetry_Int_Tables_number      14
_space_group_name_Hall           '-P 2yn'
loop_
_symmetry_equiv_pos_site_id
_symmetry_equiv_pos_as_xyz
1 x,y,z
2 1/2-x,1/2+y,1/2-z
3 -x,-y,-z
4 1/2+x,1/2-y,1/2+z
_cell_length_a                   10.145(6)
_cell_length_b                   9.004(5)
_cell_length_c                   25.125(15)
_cell_angle_alpha                90
_cell_angle_beta                 100.322(10)
_cell_angle_gamma                90
_cell_volume                     2257.92
_cell_formula_units_Z            8
loop_
_atom_site_label
_atom_site_type_symbol
_atom_site_fract_x
_atom_site_fract_y
_atom_site_fract_z
C1 C 0.6678(4) 0.5626(4) 0.16655(16)
H1 H 0.7195 0.5026 0.1923
C2 C 0.6692(4) 0.5389(5) 0.11262(16)
H2 H 0.7203 0.4627 0.1017
C3 C 0.5942(5) 0.6294(5) 0.07546(17)
C4 C 0.5142(5) 0.7398(5) 0.0898(2)
H3 H 0.4624 0.7983 0.0636
C5 C 0.5122(4) 0.7620(5) 0.14380(18)
H4 H 0.4581 0.8361 0.1542
C6 C 0.5904(4) 0.6746(4) 0.18314(15)
C7 C 0.5937(4) 0.7034(4) 0.24137(15)
C8 C 0.4857(4) 0.8232(4) 0.30756(15)
H5 H 0.3989 0.8203 0.3185
H6 H 0.5103 0.9264 0.3041
C9 C 0.5885(4) 0.7478(4) 0.34956(16)
C10 C 0.5814(5) 0.7363(5) 0.40323(17)
H7 H 0.5068 0.7742 0.4154
C11 C 0.6805(6) 0.6707(5) 0.43951(19)
H8 H 0.6751 0.6668 0.4760
C12 C 0.7897(5) 0.6098(5) 0.42092(17)
H9 H 0.8574 0.5640 0.4452
C13 C 0.7986(4) 0.6165(4) 0.36701(16)
H10 H 0.8716 0.5744 0.3550
C14 C 0.6979(4) 0.6866(4) 0.33032(14)
F1 F 0.6001(4) 0.6093(4) 0.02217(10)
N1 N 0.4786(3) 0.7490(4) 0.25657(13)
H11 H 0.4025 0.7337 0.2360
N2 N 0.7069(3) 0.6846(3) 0.27473(12)
C15 C 0.2282(4) 0.5632(4) 0.32568(15)
H12 H 0.2607 0.5024 0.3010
C16 C 0.2691(4) 0.5404(4) 0.38015(16)
H13 H 0.3285 0.4642 0.3927
C17 C 0.2212(5) 0.6311(5) 0.41528(15)
C18 C 0.1336(5) 0.7429(5) 0.39915(17)
H14 H 0.1025 0.8030 0.4243
C19 C 0.0921(4) 0.7650(4) 0.34465(16)
H15 H 0.0317 0.8408 0.3328
C20 C 0.1384(4) 0.6765(4) 0.30707(14)
C21 C 0.0964(4) 0.7035(4) 0.24820(15)
C22 C -0.0670(4) 0.8218(4) 0.17945(15)
H16 H -0.0387 0.9249 0.1825
H17 H -0.1633 0.8194 0.1675
C23 C 0.0002(4) 0.7441(4) 0.13949(15)
C24 C -0.0495(5) 0.7363(5) 0.08511(17)
H18 H -0.1327 0.7781 0.0718
C25 C 0.0205(5) 0.6681(6) 0.04966(18)
H19 H -0.0144 0.6647 0.0128
C26 C 0.1434(6) 0.6051(5) 0.06985(18)
H20 H 0.1916 0.5581 0.0465
C27 C 0.1947(4) 0.6114(4) 0.12435(16)
H21 H 0.2775 0.5684 0.1375
C28 C 0.1253(4) 0.6806(4) 0.15966(14)
F2 F 0.2620(3) 0.6070(3) 0.46934(10)
N3 N -0.0319(3) 0.7489(3) 0.23172(13)
H22 H -0.0912 0.7350 0.2517
N4 N 0.1798(3) 0.6800(3) 0.21560(12)
loop_
_geom_bond_atom_site_label_1
_geom_bond_atom_site_label_2
_geom_bond_site_symmetry_1
_geom_bond_site_symmetry_2
C1 H1 1_555 1_555
C2 C1 1_555 1_555
H2 C2 1_555 1_555
C3 C2 1_555 1_555
C4 C3 1_555 1_555
H3 C4 1_555 1_555
C5 C4 1_555 1_555
H4 C5 1_555 1_555
C6 C1 1_555 1_555
C7 C6 1_555 1_555
C8 H5 1_555 1_555
H6 C8 1_555 1_555
C9 C8 1_555 1_555
C10 C9 1_555 1_555
H7 C10 1_555 1_555
C11 C10 1_555 1_555
H8 C11 1_555 1_555
C12 C11 1_555 1_555
H9 C12 1_555 1_555
C13 C12 1_555 1_555
H10 C13 1_555 1_555
C14 C9 1_555 1_555
F1 C3 1_555 1_555
N1 C7 1_555 1_555
H11 N1 1_555 1_555
N2 C7 1_555 1_555
C15 H12 1_555 1_555
C16 C15 1_555 1_555
H13 C16 1_555 1_555
C17 C16 1_555 1_555
C18 C17 1_555 1_555
H14 C18 1_555 1_555
C19 C18 1_555 1_555
H15 C19 1_555 1_555
C20 C15 1_555 1_555
C21 C20 1_555 1_555
C22 H16 1_555 1_555
H17 C22 1_555 1_555
C23 C22 1_555 1_555
C24 C23 1_555 1_555
H18 C24 1_555 1_555
C25 C24 1_555 1_555
H19 C25 1_555 1_555
C26 C25 1_555 1_555
H20 C26 1_555 1_555
C27 C26 1_555 1_555
H21 C27 1_555 1_555
C28 C23 1_555 1_555
F2 C17 1_555 1_555
N3 C21 1_555 1_555
H22 N3 1_555 1_555
N4 C21 1_555 1_555
C5 C6 1_555 1_555
C8 N1 1_555 1_555
C13 C14 1_555 1_555
C14 N2 1_555 1_555
C19 C20 1_555 1_555
C22 N3 1_555 1_555
C27 C28 1_555 1_555
C28 N4 1_555 1_555

#END
