
#######################################################################
#
#                 Cambridge Crystallographic Data Centre
#                                CCDC 
#
#######################################################################
#
# If this CIF has been generated from an entry in the Cambridge 
# Structural Database, then it will include bibliographic, chemical, 
# crystal, experimental, refinement or atomic coordinate data resulting 
# from the CCDC's data processing and validation procedures.
#
#######################################################################

data_BOSLIF
_chemical_name_common            
'2-Thienoyl-3-(4-nitrophenyl)-4-acetyl-5- methyl-trans-2,3-dihydrofuran'
_chemical_formula_moiety         'C18 H15 N1 O5 S1'
_chemical_name_systematic        
trans-1-(2-Methyl-4-(4-nitrophenyl)-5-(2-thienylcarbonyl)-4,5-dihydro-3-furanyl)ethanone
_symmetry_cell_setting           monoclinic
_symmetry_space_group_name_H-M   'C 2/c'
_symmetry_Int_Tables_number      15
_space_group_name_Hall           '-C 2yn'
loop_
_symmetry_equiv_pos_site_id
_symmetry_equiv_pos_as_xyz
1 x,y,z
2 -x,y,1/2-z
3 1/2+x,1/2+y,z
4 1/2-x,1/2+y,1/2-z
5 -x,-y,-z
6 x,-y,1/2+z
7 1/2-x,1/2-y,-z
8 1/2+x,1/2-y,1/2+z
_cell_length_a                   34.712(3)
_cell_length_b                   5.7443(6)
_cell_length_c                   17.5853(17)
_cell_angle_alpha                90
_cell_angle_beta                 107.3440(10)
_cell_angle_gamma                90
_cell_volume                     3347.01
_cell_formula_units_Z            8
_exptl_crystal_recrystallization_method 'ethyl acetate/petroleum ether'
loop_
_atom_site_label
_atom_site_type_symbol
_atom_site_fract_x
_atom_site_fract_y
_atom_site_fract_z
C1 C 0.03461(6) 0.0769(6) -0.05428(14)
C2 C 0.04211(7) 0.2641(6) -0.00459(17)
H1 H 0.0245 0.3902 -0.0144
C3 C 0.07598(6) 0.2640(4) 0.06006(13)
H2 H 0.0812 0.3910 0.0944
C4 C 0.10249(5) 0.0777(3) 0.07503(11)
C5 C 0.09432(6) -0.1092(4) 0.02324(12)
H3 H 0.1120 -0.2350 0.0323
C6 C 0.06015(7) -0.1108(5) -0.04186(13)
H4 H 0.0546 -0.2369 -0.0766
C7 C 0.13962(5) 0.0834(3) 0.14679(10)
H5 H 0.1458 0.2453 0.1637
C8 C 0.13623(6) -0.0626(3) 0.21873(11)
H6 H 0.1080 -0.1008 0.2132
C9 C 0.15548(6) 0.0688(4) 0.29621(11)
C10 C 0.13207(6) 0.2541(4) 0.31755(11)
C11 C 0.09301(6) 0.3257(5) 0.28105(12)
H7 H 0.0755 0.2513 0.2373
C12 C 0.08278(7) 0.5240(5) 0.31755(14)
H8 H 0.0578 0.5969 0.3004
C13 C 0.11351(7) 0.5973(4) 0.38066(13)
H9 H 0.1117 0.7254 0.4118
C14 C 0.17666(5) -0.0279(4) 0.13330(11)
C15 C 0.19431(6) 0.0742(5) 0.07585(12)
C16 C 0.23068(8) -0.0285(7) 0.05945(18)
H10 H 0.2348 0.0456 0.0136
H11 H 0.2266 -0.1923 0.0495
H12 H 0.2540 -0.0046 0.1047
C17 C 0.18564(6) -0.2232(4) 0.17702(12)
C18 C 0.21810(8) -0.4016(4) 0.19049(18)
H13 H 0.2223 -0.4416 0.1406
H14 H 0.2103 -0.5381 0.2137
H15 H 0.2426 -0.3401 0.2259
N1 N -0.00156(8) 0.0722(9) -0.12394(17)
O1 O -0.02430(8) 0.2398(8) -0.13343(19)
O2 O -0.00792(9) -0.0949(9) -0.16593(18)
O3 O 0.17885(5) 0.2485(4) 0.04043(10)
O4 O 0.15942(5) -0.2695(2) 0.21918(9)
O5 O 0.19004(5) 0.0262(3) 0.33547(9)
S1 S 0.155373(16) 0.43072(11) 0.39668(3)
loop_
_geom_bond_atom_site_label_1
_geom_bond_atom_site_label_2
_geom_bond_site_symmetry_1
_geom_bond_site_symmetry_2
C1 C2 1_555 1_555
C2 H1 1_555 1_555
C3 C2 1_555 1_555
H2 C3 1_555 1_555
C4 C3 1_555 1_555
C5 C4 1_555 1_555
H3 C5 1_555 1_555
C6 C1 1_555 1_555
H4 C6 1_555 1_555
C7 C4 1_555 1_555
H5 C7 1_555 1_555
C8 C7 1_555 1_555
H6 C8 1_555 1_555
C9 C8 1_555 1_555
C10 C9 1_555 1_555
C11 C10 1_555 1_555
H7 C11 1_555 1_555
C12 C11 1_555 1_555
H8 C12 1_555 1_555
C13 C12 1_555 1_555
H9 C13 1_555 1_555
C14 C7 1_555 1_555
C15 C14 1_555 1_555
C16 C15 1_555 1_555
H10 C16 1_555 1_555
H11 C16 1_555 1_555
H12 C16 1_555 1_555
C17 C14 1_555 1_555
C18 C17 1_555 1_555
H13 C18 1_555 1_555
H14 C18 1_555 1_555
H15 C18 1_555 1_555
N1 C1 1_555 1_555
O1 N1 1_555 1_555
O2 N1 1_555 1_555
O3 C15 1_555 1_555
O4 C8 1_555 1_555
O5 C9 1_555 1_555
S1 C10 1_555 1_555
C5 C6 1_555 1_555
C13 S1 1_555 1_555
C17 O4 1_555 1_555

#END
