
#######################################################################
#
#                 Cambridge Crystallographic Data Centre
#                                CCDC 
#
#######################################################################
#
# If this CIF has been generated from an entry in the Cambridge 
# Structural Database, then it will include bibliographic, chemical, 
# crystal, experimental, refinement or atomic coordinate data resulting 
# from the CCDC's data processing and validation procedures.
#
#######################################################################

data_BOSTUA
_chemical_formula_moiety         'C24 H18 Cl1 N1 O4'
_chemical_name_systematic        
3-((4-chlorophenyl)((4-methoxybenzyl)amino)methylene)-2H-chromene-2,4(3H)-dione
_symmetry_cell_setting           triclinic
_symmetry_space_group_name_H-M   'P -1'
_symmetry_Int_Tables_number      2
_space_group_name_Hall           '-P 1'
loop_
_symmetry_equiv_pos_site_id
_symmetry_equiv_pos_as_xyz
1 x,y,z
2 -x,-y,-z
_cell_length_a                   10.6004(18)
_cell_length_b                   13.375(2)
_cell_length_c                   16.069(2)
_cell_angle_alpha                82.836(4)
_cell_angle_beta                 71.805(5)
_cell_angle_gamma                89.343(5)
_cell_volume                     2146.54
_exptl_crystal_colour            colorless
_exptl_crystal_description       block
_cell_formula_units_Z            4
loop_
_atom_site_label
_atom_site_type_symbol
_atom_site_fract_x
_atom_site_fract_y
_atom_site_fract_z
Cl1 Cl 0.52158(18) 1.33983(13) -0.01231(10)
O1 O 0.7358(3) 1.21260(19) 0.41239(19)
O2 O 0.6389(3) 1.2647(2) 0.31511(19)
O3 O 0.6101(3) 0.92009(19) 0.43174(19)
O4 O 0.6210(4) 0.5411(3) 0.1846(3)
N1 N 0.5106(4) 0.9725(2) 0.3076(2)
H1 H 0.5135 0.9315 0.3526
C1 C 0.5613(4) 1.0638(3) 0.3001(3)
C2 C 0.6253(4) 1.0866(3) 0.3592(2)
C3 C 0.6643(4) 1.1925(3) 0.3575(3)
C4 C 0.7726(5) 1.1384(3) 0.4672(3)
C5 C 0.7317(4) 1.0388(3) 0.4751(3)
C6 C 0.6512(4) 1.0100(3) 0.4227(3)
C7 C 0.7726(5) 0.9687(4) 0.5328(3)
H2 H 0.7484 0.9010 0.5382
C8 C 0.8469(5) 0.9980(4) 0.5810(3)
H3 H 0.8709 0.9507 0.6205
C9 C 0.8877(6) 1.0991(5) 0.5715(3)
H4 H 0.9402 1.1183 0.6039
C10 C 0.8512(5) 1.1696(4) 0.5153(3)
H5 H 0.8778 1.2369 0.5091
C11 C 0.5498(4) 1.1357(3) 0.2237(3)
C12 C 0.6576(5) 1.1528(3) 0.1501(3)
H6 H 0.7370 1.1222 0.1495
C13 C 0.6508(5) 1.2153(4) 0.0761(3)
H7 H 0.7245 1.2270 0.0259
C14 C 0.5308(6) 1.2598(3) 0.0790(3)
C15 C 0.4218(5) 1.2435(3) 0.1532(3)
H8 H 0.3421 1.2743 0.1547
C16 C 0.4324(5) 1.1808(3) 0.2254(3)
H9 H 0.3590 1.1690 0.2758
C17 C 0.4464(5) 0.9314(3) 0.2504(3)
H10 H 0.4688 0.9742 0.1942
H11 H 0.3508 0.9313 0.2774
C18 C 0.4886(5) 0.8264(3) 0.2349(3)
C19 C 0.6148(5) 0.8093(4) 0.1868(3)
H12 H 0.6745 0.8636 0.1632
C20 C 0.6569(5) 0.7134(4) 0.1721(3)
H13 H 0.7446 0.7034 0.1398
C21 C 0.5702(5) 0.6336(3) 0.2047(3)
C22 C 0.4430(5) 0.6479(3) 0.2534(3)
H14 H 0.3829 0.5936 0.2756
C23 C 0.4035(4) 0.7451(3) 0.2696(3)
H15 H 0.3174 0.7549 0.3049
C24 C 0.5355(7) 0.4568(4) 0.2129(4)
H16 H 0.4720 0.4612 0.1813
H17 H 0.4899 0.4542 0.2750
H18 H 0.5858 0.3970 0.2020
Cl2 Cl 1.00377(14) 0.67638(11) 1.00960(8)
O5 O 0.7630(3) 0.68611(18) 0.58987(18)
O6 O 0.8575(3) 0.7052(2) 0.6890(2)
O7 O 0.8913(3) 0.39838(19) 0.56751(17)
O8 O 0.8679(5) -0.0535(3) 0.8195(3)
N2 N 0.9879(3) 0.4102(2) 0.6934(2)
H19 H 0.9791 0.3824 0.6500
C25 C 0.9395(4) 0.5001(3) 0.7014(2)
C26 C 0.8727(4) 0.5426(3) 0.6423(2)
C27 C 0.8341(4) 0.6474(3) 0.6446(3)
C28 C 0.7279(4) 0.6295(3) 0.5346(3)
C29 C 0.7680(4) 0.5322(3) 0.5255(2)
C30 C 0.8490(4) 0.4860(3) 0.5780(2)
C31 C 0.7287(4) 0.4800(3) 0.4678(3)
H20 H 0.7549 0.4141 0.4612
C32 C 0.6509(5) 0.5255(4) 0.4204(3)
H21 H 0.6238 0.4901 0.3823
C33 C 0.6134(5) 0.6238(4) 0.4294(3)
H22 H 0.5628 0.6545 0.3960
C34 C 0.6491(5) 0.6775(3) 0.4869(3)
H23 H 0.6219 0.7431 0.4937
C35 C 0.9524(4) 0.5482(3) 0.7771(2)
C36 C 0.8496(4) 0.5422(3) 0.8558(3)
H24 H 0.7697 0.5107 0.8600
C37 C 0.8620(5) 0.5810(3) 0.9272(3)
H25 H 0.7914 0.5774 0.9794
C38 C 0.9816(5) 0.6259(3) 0.9203(3)
C39 C 1.0850(4) 0.6338(3) 0.8430(3)
H26 H 1.1643 0.6660 0.8391
C40 C 1.0716(5) 0.5942(3) 0.7717(3)
H27 H 1.1424 0.5982 0.7195
C41 C 1.0555(5) 0.3513(3) 0.7498(3)
H28 H 1.0375 0.3792 0.8051
H29 H 1.1507 0.3553 0.7206
C42 C 1.0078(5) 0.2424(3) 0.7681(3)
C43 C 1.0925(5) 0.1679(4) 0.7352(3)
H30 H 1.1798 0.1853 0.7015
C44 C 1.0508(6) 0.0679(4) 0.7511(4)
H31 H 1.1090 0.0183 0.7284
C45 C 0.9231(7) 0.0434(3) 0.8004(4)
C46 C 0.8344(5) 0.1180(4) 0.8351(3)
H32 H 0.7473 0.1008 0.8694
C47 C 0.8786(5) 0.2162(3) 0.8176(3)
H33 H 0.8205 0.2662 0.8396
C48 C 0.9535(8) -0.1346(4) 0.7948(6)
H34 H 0.9877 -0.1294 0.7315
H35 H 0.9048 -0.1974 0.8176
H36 H 1.0258 -0.1318 0.8185
loop_
_geom_bond_atom_site_label_1
_geom_bond_atom_site_label_2
_geom_bond_site_symmetry_1
_geom_bond_site_symmetry_2
Cl1 C14 1_555 1_555
O1 C3 1_555 1_555
O2 C3 1_555 1_555
O3 C6 1_555 1_555
O4 C21 1_555 1_555
N1 H1 1_555 1_555
C1 N1 1_555 1_555
C2 C1 1_555 1_555
C3 C2 1_555 1_555
C4 O1 1_555 1_555
C5 C4 1_555 1_555
C6 C2 1_555 1_555
C7 C5 1_555 1_555
H2 C7 1_555 1_555
C8 C7 1_555 1_555
H3 C8 1_555 1_555
C9 C8 1_555 1_555
H4 C9 1_555 1_555
C10 C4 1_555 1_555
H5 C10 1_555 1_555
C11 C1 1_555 1_555
C12 C11 1_555 1_555
H6 C12 1_555 1_555
C13 C12 1_555 1_555
H7 C13 1_555 1_555
C14 C13 1_555 1_555
C15 C14 1_555 1_555
H8 C15 1_555 1_555
C16 C11 1_555 1_555
H9 C16 1_555 1_555
C17 N1 1_555 1_555
H10 C17 1_555 1_555
H11 C17 1_555 1_555
C18 C17 1_555 1_555
C19 C18 1_555 1_555
H12 C19 1_555 1_555
C20 C19 1_555 1_555
H13 C20 1_555 1_555
C21 C20 1_555 1_555
C22 C21 1_555 1_555
H14 C22 1_555 1_555
C23 C18 1_555 1_555
H15 C23 1_555 1_555
C24 O4 1_555 1_555
H16 C24 1_555 1_555
H17 C24 1_555 1_555
H18 C24 1_555 1_555
Cl2 C38 1_555 1_555
O5 C27 1_555 1_555
O6 C27 1_555 1_555
O7 C30 1_555 1_555
O8 C45 1_555 1_555
N2 H19 1_555 1_555
C25 N2 1_555 1_555
C26 C25 1_555 1_555
C27 C26 1_555 1_555
C28 O5 1_555 1_555
C29 C28 1_555 1_555
C30 C26 1_555 1_555
C31 C29 1_555 1_555
H20 C31 1_555 1_555
C32 C31 1_555 1_555
H21 C32 1_555 1_555
C33 C32 1_555 1_555
H22 C33 1_555 1_555
C34 C28 1_555 1_555
H23 C34 1_555 1_555
C35 C25 1_555 1_555
C36 C35 1_555 1_555
H24 C36 1_555 1_555
C37 C36 1_555 1_555
H25 C37 1_555 1_555
C38 C37 1_555 1_555
C39 C38 1_555 1_555
H26 C39 1_555 1_555
C40 C35 1_555 1_555
H27 C40 1_555 1_555
C41 N2 1_555 1_555
H28 C41 1_555 1_555
H29 C41 1_555 1_555
C42 C41 1_555 1_555
C43 C42 1_555 1_555
H30 C43 1_555 1_555
C44 C43 1_555 1_555
H31 C44 1_555 1_555
C45 C44 1_555 1_555
C46 C45 1_555 1_555
H32 C46 1_555 1_555
C47 C42 1_555 1_555
H33 C47 1_555 1_555
C48 O8 1_555 1_555
H34 C48 1_555 1_555
H35 C48 1_555 1_555
H36 C48 1_555 1_555
C5 C6 1_555 1_555
C9 C10 1_555 1_555
C15 C16 1_555 1_555
C22 C23 1_555 1_555
C29 C30 1_555 1_555
C33 C34 1_555 1_555
C39 C40 1_555 1_555
C46 C47 1_555 1_555

#END
