
#######################################################################
#
#                 Cambridge Crystallographic Data Centre
#                                CCDC 
#
#######################################################################
#
# If this CIF has been generated from an entry in the Cambridge 
# Structural Database, then it will include bibliographic, chemical, 
# crystal, experimental, refinement or atomic coordinate data resulting 
# from the CCDC's data processing and validation procedures.
#
#######################################################################

data_BOTDAP
_chemical_formula_moiety         'C13 H15 Br1 O4'
_chemical_name_systematic        
11-Bromoacetato-9-oxatricyclo(6.3.1.0^1,5^)dodec-4-en-10-one
_symmetry_cell_setting           monoclinic
_symmetry_space_group_name_H-M   'P 21/a'
_symmetry_Int_Tables_number      14
_space_group_name_Hall           '-P 2yab'
loop_
_symmetry_equiv_pos_site_id
_symmetry_equiv_pos_as_xyz
1 x,y,z
2 1/2-x,1/2+y,-z
3 -x,-y,-z
4 1/2+x,1/2-y,z
_cell_length_a                   7.499(2)
_cell_length_b                   19.215(7)
_cell_length_c                   9.212(2)
_cell_angle_alpha                90
_cell_angle_beta                 102.86(2)
_cell_angle_gamma                90
_cell_volume                     1294.09
_chemical_melting_point          118-9deg.C
_cell_formula_units_Z            4
loop_
_atom_site_label
_atom_site_type_symbol
_atom_site_fract_x
_atom_site_fract_y
_atom_site_fract_z
Br1 Br 0.24290 0.10670 1.20920
C1 C -0.19130 0.11970 0.68370
C2 C -0.27210 0.11970 0.82200
C3 C -0.23300 0.19190 0.89120
C4 C -0.19630 0.23400 0.76570
C5 C -0.17220 0.19660 0.65320
C6 C -0.13130 0.21940 0.50960
C7 C -0.23420 0.17610 0.37730
C8 C -0.22640 0.09980 0.41410
O1 O -0.03230 0.07770 0.43930
C9 C 0.08650 0.08290 0.57660
C10 C -0.00920 0.08060 0.70990
C11 C -0.30720 0.08320 0.54510
O2 O 0.24860 0.08450 0.58830
O3 O 0.11780 0.10980 0.83590
C12 C 0.24070 0.06620 0.91590
O4 O 0.25130 0.00540 0.89230
C13 C 0.35930 0.10330 1.04360
H1 H -0.22800 0.08100 0.87900
H2 H -0.40800 0.11400 0.78600
H3 H -0.31800 0.21000 0.92300
H4 H -0.12900 0.19300 0.98600
H5 H -0.18600 0.27600 0.75900
H6 H -0.15900 0.26400 0.50000
H7 H -0.00300 0.21800 0.50800
H8 H -0.17600 0.18400 0.29200
H9 H -0.37400 0.18900 0.35800
H10 H -0.27200 0.07400 0.32600
H11 H -0.03300 0.03300 0.72500
H12 H -0.31500 0.03500 0.56800
H13 H -0.43400 0.10000 0.52100
H14 H 0.47400 0.07800 1.07800
H15 H 0.38100 0.14700 1.02400
loop_
_geom_bond_atom_site_label_1
_geom_bond_atom_site_label_2
_geom_bond_site_symmetry_1
_geom_bond_site_symmetry_2
Br1 C13 1_555 1_555
C1 C2 1_555 1_555
C2 C3 1_555 1_555
C3 C4 1_555 1_555
C4 C5 1_555 1_555
C5 C1 1_555 1_555
C6 C5 1_555 1_555
C7 C6 1_555 1_555
C8 C7 1_555 1_555
O1 C8 1_555 1_555
C9 O1 1_555 1_555
C10 C1 1_555 1_555
C11 C1 1_555 1_555
O2 C9 1_555 1_555
O3 C10 1_555 1_555
C12 O3 1_555 1_555
O4 C12 1_555 1_555
C13 C12 1_555 1_555
H1 C2 1_555 1_555
H2 C2 1_555 1_555
H3 C3 1_555 1_555
H4 C3 1_555 1_555
H5 C4 1_555 1_555
H6 C6 1_555 1_555
H7 C6 1_555 1_555
H8 C7 1_555 1_555
H9 C7 1_555 1_555
H10 C8 1_555 1_555
H11 C10 1_555 1_555
H12 C11 1_555 1_555
H13 C11 1_555 1_555
H14 C13 1_555 1_555
H15 C13 1_555 1_555
C8 C11 1_555 1_555
C9 C10 1_555 1_555

#END
