
#######################################################################
#
#                 Cambridge Crystallographic Data Centre
#                                CCDC 
#
#######################################################################
#
# If this CIF has been generated from an entry in the Cambridge 
# Structural Database, then it will include bibliographic, chemical, 
# crystal, experimental, refinement or atomic coordinate data resulting 
# from the CCDC's data processing and validation procedures.
#
#######################################################################

data_BOTGOG
_chemical_formula_moiety         'C8 H18 N1 O1 1+,C12 H2 Br2 N4 1-'
_chemical_name_systematic        
'4,4-Diethylmorpholinium 2,5-dibromo-7,7,8,8-tetracyanoquinodimethanide'
_symmetry_cell_setting           monoclinic
_symmetry_space_group_name_H-M   'P 21/n'
_symmetry_Int_Tables_number      14
_space_group_name_Hall           '-P 2yn'
loop_
_symmetry_equiv_pos_site_id
_symmetry_equiv_pos_as_xyz
1 x,y,z
2 1/2-x,1/2+y,1/2-z
3 -x,-y,-z
4 1/2+x,1/2-y,1/2+z
_cell_length_a                   6.918(9)
_cell_length_b                   27.373(10)
_cell_length_c                   22.210(7)
_cell_angle_alpha                90
_cell_angle_beta                 94.97(4)
_cell_angle_gamma                90
_cell_volume                     4190.01
_cell_formula_units_Z            8
loop_
_atom_site_label
_atom_site_type_symbol
_atom_site_fract_x
_atom_site_fract_y
_atom_site_fract_z
Br1 Br 0.09750 0.30260 0.98420
Br2 Br 0.19290 0.21380 0.71440
C1 C 0.13390 0.27820 0.90590
C2 C 0.12710 0.23260 0.90010
C3 C 0.13160 0.20330 0.84250
C4 C 0.17450 0.23940 0.79330
C5 C 0.17750 0.28790 0.79990
C6 C 0.13830 0.31370 0.85080
C7 C 0.12540 0.15670 0.83810
C8 C 0.09840 0.12790 0.89810
C9 C 0.13730 0.11980 0.79350
N1 N 0.06160 0.10520 0.93770
N2 N 0.15400 0.09260 0.75080
C10 C 0.16260 0.36020 0.85770
C11 C 0.11850 0.39270 0.90360
C12 C 0.16590 0.38610 0.79980
N3 N 0.08940 0.42430 0.93530
N4 N 0.20430 0.40960 0.75770
H1 H 0.11350 0.21100 0.93710
H2 H 0.20380 0.30530 0.76720
Br3 Br 0.53320 0.21220 0.04000
Br4 Br 0.66020 0.29400 -0.23220
C13 C 0.59590 0.23030 -0.04090
C14 C 0.59290 0.28130 -0.04620
C15 C 0.59790 0.30480 -0.10800
C16 C 0.62550 0.27490 -0.14990
C17 C 0.61730 0.22230 -0.14340
C18 C 0.58180 0.20060 -0.09380
C19 C 0.61550 0.35820 -0.10450
C20 C 0.57820 0.38430 -0.05440
C21 C 0.63950 0.38680 -0.15580
N5 N 0.59460 0.40490 -0.00720
N6 N 0.65350 0.41570 -0.19170
C22 C 0.57880 0.14580 -0.09050
C23 C 0.56350 0.11910 -0.03220
N7 N 0.56700 0.09210 0.00560
C24 C 0.60830 0.11770 -0.13310
N8 N 0.62150 0.09390 -0.18100
H3 H 0.59060 0.30180 -0.01060
H4 H 0.63960 0.20500 -0.17970
O1 O 0.51220 0.16630 0.61180
N9 N 0.68460 0.06880 0.62060
C25 C 0.69450 0.15780 0.64670
C26 C 0.39620 0.12550 0.61460
C27 C 0.49120 0.08010 0.58890
C28 C 0.79480 0.11250 0.62280
C29 C 0.76550 0.02910 0.58480
C30 C 0.98110 0.01610 0.61120
C31 C 0.66170 0.05140 0.68600
C32 C 0.52000 0.01010 0.69500
H5 H 0.77790 0.18570 0.64460
H6 H 0.67080 0.15190 0.68810
H7 H 0.37320 0.11910 0.65590
H8 H 0.27490 0.13170 0.59150
H9 H 0.50710 0.08590 0.54700
H10 H 0.40740 0.05250 0.59260
H11 H 0.91270 0.10670 0.64780
H12 H 0.82500 0.12000 0.58250
H13 H 0.68540 0.00060 0.58660
H14 H 0.76760 0.03940 0.54350
H15 H 1.00630 -0.00850 0.58220
H16 H 0.93750 0.00100 0.64660
H17 H 1.09790 0.03410 0.62210
H18 H 0.62060 0.07920 0.70800
H19 H 0.78750 0.04110 0.70290
H20 H 0.47600 0.00860 0.73480
H21 H 0.58860 -0.01940 0.68710
H22 H 0.41050 0.01360 0.66570
O2 O 0.73700 0.33180 -0.35810
N10 N 0.59300 0.43170 -0.36950
C33 C 0.77990 0.41680 -0.33520
C34 C 0.86220 0.37220 -0.35810
C35 C 0.56280 0.34130 -0.39100
C36 C 0.45670 0.38360 -0.37360
C37 C 0.61750 0.44770 -0.43390
C38 C 0.73570 0.49180 -0.43440
C39 C 0.49460 0.47250 -0.33000
C40 C 0.31070 0.48960 -0.36240
H23 H 0.75650 0.41180 -0.29370
H24 H 0.87180 0.44290 -0.33790
H25 H 0.97930 0.36490 -0.33340
H26 H 0.89200 0.37770 -0.39900
H27 H 0.58840 0.34480 -0.43260
H28 H 0.48240 0.31320 -0.38660
H29 H 0.35080 0.38880 -0.40380
H30 H 0.40690 0.37810 -0.33520
H31 H 0.49220 0.45420 -0.45440
H32 H 0.67970 0.42210 -0.45450
H33 H 0.73960 0.49570 -0.47720
H34 H 0.86570 0.48990 -0.41550
H35 H 0.67030 0.51920 -0.41850
H36 H 0.22610 0.49230 -0.33050
H37 H 0.25850 0.46630 -0.39180
H38 H 0.32160 0.52090 -0.38140
loop_
_geom_bond_atom_site_label_1
_geom_bond_atom_site_label_2
_geom_bond_site_symmetry_1
_geom_bond_site_symmetry_2
Br1 C1 1_555 1_555
Br2 C4 1_555 1_555
C1 C2 1_555 1_555
C2 C3 1_555 1_555
C3 C4 1_555 1_555
C4 C5 1_555 1_555
C5 C6 1_555 1_555
C6 C1 1_555 1_555
C7 C3 1_555 1_555
C8 C7 1_555 1_555
C9 C7 1_555 1_555
N1 C8 1_555 1_555
N2 C9 1_555 1_555
C10 C6 1_555 1_555
C11 C10 1_555 1_555
C12 C10 1_555 1_555
N3 C11 1_555 1_555
N4 C12 1_555 1_555
H1 C2 1_555 1_555
H2 C5 1_555 1_555
Br3 C13 1_555 1_555
Br4 C16 1_555 1_555
C13 C14 1_555 1_555
C14 C15 1_555 1_555
C15 C16 1_555 1_555
C16 C17 1_555 1_555
C17 C18 1_555 1_555
C18 C13 1_555 1_555
C19 C15 1_555 1_555
C20 C19 1_555 1_555
C21 C19 1_555 1_555
N5 C20 1_555 1_555
N6 C21 1_555 1_555
C22 C18 1_555 1_555
C23 C22 1_555 1_555
N7 C23 1_555 1_555
C24 C22 1_555 1_555
N8 C24 1_555 1_555
H3 C14 1_555 1_555
H4 C17 1_555 1_555
O1 C25 1_555 1_555
N9 C27 1_555 1_555
C25 C28 1_555 1_555
C26 O1 1_555 1_555
C27 C26 1_555 1_555
C28 N9 1_555 1_555
C29 N9 1_555 1_555
C30 C29 1_555 1_555
C31 N9 1_555 1_555
C32 C31 1_555 1_555
H5 C25 1_555 1_555
H6 C25 1_555 1_555
H7 C26 1_555 1_555
H8 C26 1_555 1_555
H9 C27 1_555 1_555
H10 C27 1_555 1_555
H11 C28 1_555 1_555
H12 C28 1_555 1_555
H13 C29 1_555 1_555
H14 C29 1_555 1_555
H15 C30 1_555 1_555
H16 C30 1_555 1_555
H17 C30 1_555 1_555
H18 C31 1_555 1_555
H19 C31 1_555 1_555
H20 C32 1_555 1_555
H21 C32 1_555 1_555
H22 C32 1_555 1_555
O2 C34 1_555 1_555
N10 C33 1_555 1_555
C33 C34 1_555 1_555
C34 H25 1_555 1_555
C35 O2 1_555 1_555
C36 N10 1_555 1_555
C37 N10 1_555 1_555
C38 C37 1_555 1_555
C39 N10 1_555 1_555
C40 C39 1_555 1_555
H23 C33 1_555 1_555
H24 C33 1_555 1_555
H26 C34 1_555 1_555
H27 C35 1_555 1_555
H28 C35 1_555 1_555
H29 C36 1_555 1_555
H30 C36 1_555 1_555
H31 C37 1_555 1_555
H32 C37 1_555 1_555
H33 C38 1_555 1_555
H34 C38 1_555 1_555
H35 C38 1_555 1_555
H36 C40 1_555 1_555
H37 C40 1_555 1_555
H38 C40 1_555 1_555
C35 C36 1_555 1_555

#END
