
#######################################################################
#
#                 Cambridge Crystallographic Data Centre
#                                CCDC 
#
#######################################################################
#
# If this CIF has been generated from an entry in the Cambridge 
# Structural Database, then it will include bibliographic, chemical, 
# crystal, experimental, refinement or atomic coordinate data resulting 
# from the CCDC's data processing and validation procedures.
#
#######################################################################

data_BOTJOL
_chemical_formula_moiety         'C22 H22 Cl1 N1 O2'
_chemical_name_systematic        
2-((benzylamino)(4-chlorophenyl)methylene)-5,5-dimethylcyclohexane-1,3-dione
_symmetry_cell_setting           orthorhombic
_symmetry_space_group_name_H-M   'P 21 21 21'
_symmetry_Int_Tables_number      19
_space_group_name_Hall           'P 2ac 2ab'
loop_
_symmetry_equiv_pos_site_id
_symmetry_equiv_pos_as_xyz
1 x,y,z
2 1/2+x,1/2-y,-z
3 -x,1/2+y,1/2-z
4 1/2-x,-y,1/2+z
_cell_length_a                   7.5759(6)
_cell_length_b                   11.0478(10)
_cell_length_c                   23.488(2)
_cell_angle_alpha                90
_cell_angle_beta                 90
_cell_angle_gamma                90
_cell_volume                     1965.88
_exptl_crystal_colour            white
_exptl_crystal_description       block
_cell_formula_units_Z            4
loop_
_atom_site_label
_atom_site_type_symbol
_atom_site_fract_x
_atom_site_fract_y
_atom_site_fract_z
C1 C -0.1135(3) 0.6069(3) 0.04155(13)
C2 C -0.0449(4) 0.5379(3) -0.00180(11)
H1 H -0.0622 0.5606 -0.0395
C3 C 0.0498(3) 0.4346(2) 0.01103(11)
H2 H 0.0980 0.3880 -0.0181
C4 C 0.0730(3) 0.4006(2) 0.06718(10)
C5 C 0.0024(3) 0.4703(2) 0.11003(11)
H3 H 0.0176 0.4469 0.1478
C6 C -0.0911(4) 0.5749(3) 0.09761(12)
H4 H -0.1377 0.6224 0.1266
C7 C 0.1773(3) 0.2908(2) 0.08206(10)
C8 C 0.0979(3) 0.1835(2) 0.10168(11)
C9 C -0.0940(3) 0.1697(2) 0.10073(12)
C10 C -0.1756(4) 0.0638(3) 0.13189(16)
H5 H -0.2813 0.0922 0.1510
H6 H -0.2122 0.0045 0.1038
C11 C -0.0627(4) 0.0008(3) 0.17500(14)
C12 C 0.1149(4) -0.0237(3) 0.14808(16)
H7 H 0.1912 -0.0607 0.1763
H8 H 0.0993 -0.0815 0.1174
C13 C 0.2052(3) 0.0867(3) 0.12477(11)
C14 C 0.4512(3) 0.4113(3) 0.06727(13)
H9 H 0.3921 0.4577 0.0378
H10 H 0.5675 0.3899 0.0533
C15 C 0.4704(3) 0.4889(3) 0.11965(11)
C16 C 0.4333(4) 0.6093(3) 0.11775(16)
H11 H 0.3915 0.6442 0.0843
C17 C 0.4584(6) 0.6796(4) 0.1660(3)
H12 H 0.4327 0.7618 0.1645
C18 C 0.5198(7) 0.6313(7) 0.2155(2)
H13 H 0.5378 0.6797 0.2474
C19 C 0.5531(7) 0.5144(6) 0.21723(17)
H14 H 0.5926 0.4802 0.2511
C20 C 0.5308(5) 0.4404(4) 0.16967(15)
H15 H 0.5569 0.3583 0.1719
C21 C -0.0353(6) 0.0868(4) 0.22671(15)
H16 H 0.0183 0.1608 0.2140
H17 H 0.0401 0.0484 0.2541
H18 H -0.1474 0.1043 0.2439
C22 C -0.1465(6) -0.1137(3) 0.1967(2)
H19 H -0.2606 -0.0954 0.2123
H20 H -0.0732 -0.1484 0.2258
H21 H -0.1592 -0.1702 0.1659
Cl1 Cl -0.23077(14) 0.73751(9) 0.02538(5)
N1 N 0.3512(3) 0.3009(2) 0.07817(11)
O1 O -0.1930(2) 0.23653(17) 0.07495(10)
O2 O 0.3689(2) 0.0903(2) 0.12632(9)
H22 H 0.412(5) 0.229(3) 0.0868(15)
loop_
_geom_bond_atom_site_label_1
_geom_bond_atom_site_label_2
_geom_bond_site_symmetry_1
_geom_bond_site_symmetry_2
C1 C2 1_555 1_555
C2 H1 1_555 1_555
C3 C2 1_555 1_555
H2 C3 1_555 1_555
C4 C3 1_555 1_555
C5 C4 1_555 1_555
H3 C5 1_555 1_555
C6 C1 1_555 1_555
H4 C6 1_555 1_555
C7 C4 1_555 1_555
C8 C7 1_555 1_555
C9 C8 1_555 1_555
C10 C9 1_555 1_555
H5 C10 1_555 1_555
H6 C10 1_555 1_555
C11 C10 1_555 1_555
C12 C11 1_555 1_555
H7 C12 1_555 1_555
H8 C12 1_555 1_555
C13 C8 1_555 1_555
C14 H9 1_555 1_555
H10 C14 1_555 1_555
C15 C14 1_555 1_555
C16 C15 1_555 1_555
H11 C16 1_555 1_555
C17 C16 1_555 1_555
H12 C17 1_555 1_555
C18 C17 1_555 1_555
H13 C18 1_555 1_555
C19 C18 1_555 1_555
H14 C19 1_555 1_555
C20 C15 1_555 1_555
H15 C20 1_555 1_555
C21 C11 1_555 1_555
H16 C21 1_555 1_555
H17 C21 1_555 1_555
H18 C21 1_555 1_555
C22 C11 1_555 1_555
H19 C22 1_555 1_555
H20 C22 1_555 1_555
H21 C22 1_555 1_555
Cl1 C1 1_555 1_555
N1 C7 1_555 1_555
O1 C9 1_555 1_555
O2 C13 1_555 1_555
H22 N1 1_555 1_555
C5 C6 1_555 1_555
C12 C13 1_555 1_555
C14 N1 1_555 1_555
C19 C20 1_555 1_555

#END
