
#######################################################################
#
#                 Cambridge Crystallographic Data Centre
#                                CCDC 
#
#######################################################################
#
# If this CIF has been generated from an entry in the Cambridge 
# Structural Database, then it will include bibliographic, chemical, 
# crystal, experimental, refinement or atomic coordinate data resulting 
# from the CCDC's data processing and validation procedures.
#
#######################################################################

data_BOTNEE
_chemical_name_common            1-(Ethylcarbamoyl)-1,2-dihydrodeoxyvasicinone
_chemical_formula_moiety         'C14 H17 N3 O2'
_chemical_name_systematic        
1-Ethylaminocarbonyl-2,3-trimethylene-1,2,3,4-tetrahydroquinazolin-4-one
_symmetry_cell_setting           triclinic
_symmetry_space_group_name_H-M   'P -1'
_symmetry_Int_Tables_number      2
_space_group_name_Hall           '-P 1'
loop_
_symmetry_equiv_pos_site_id
_symmetry_equiv_pos_as_xyz
1 x,y,z
2 -x,-y,-z
_cell_length_a                   8.138(1)
_cell_length_b                   8.414(2)
_cell_length_c                   10.966(2)
_cell_angle_alpha                82.82(3)
_cell_angle_beta                 70.73(3)
_cell_angle_gamma                64.93(3)
_cell_volume                     641.935
_exptl_crystal_colour            yellowish
_exptl_crystal_description       prism
_chemical_melting_point          208deg.C
_cell_formula_units_Z            2
loop_
_atom_site_label
_atom_site_type_symbol
_atom_site_fract_x
_atom_site_fract_y
_atom_site_fract_z
O1 O 0.2129(2) 0.60224(19) 0.38891(13)
O2 O 0.3050(3) 0.2024(3) 0.89072(16)
N1 N 0.3629(2) 0.3286(2) 0.69120(14)
C1 C 0.1639(3) 0.4139(3) 0.70518(18)
H1 H 0.1145 0.3271 0.7021
N2 N 0.1380(2) 0.5376(2) 0.59989(15)
C2 C 0.2502(3) 0.5032(3) 0.47865(18)
C3 C 0.4222(3) 0.3398(2) 0.46063(17)
C4 C 0.5313(3) 0.2711(3) 0.33736(19)
H2 H 0.4937 0.3287 0.2667
C5 C 0.6921(3) 0.1211(3) 0.3184(2)
H3 H 0.7637 0.0743 0.2356
C6 C 0.7476(3) 0.0393(3) 0.4233(2)
H4 H 0.8589 -0.0628 0.4107
C7 C 0.6423(3) 0.1050(3) 0.5466(2)
H5 H 0.6825 0.0468 0.6162
C8 C 0.4780(3) 0.2560(2) 0.56762(17)
C9 C 0.0412(3) 0.5315(3) 0.8234(2)
H6 H -0.0023 0.4663 0.8969
H7 H 0.1097 0.5879 0.8460
C10 C -0.1214(3) 0.6624(4) 0.7804(2)
H8 H -0.1836 0.7697 0.8318
H9 H -0.2147 0.6156 0.7883
C11 C -0.0339(3) 0.6968(3) 0.6405(2)
H10 H -0.1184 0.7148 0.5903
H11 H -0.0042 0.7985 0.6327
C12 C 0.4083(3) 0.2535(3) 0.80561(19)
N3 N 0.5644(3) 0.2533(3) 0.81179(18)
C13 C 0.6357(4) 0.1778(4) 0.9198(3)
H12 H 0.5441 0.2439 0.9976
H13 H 0.6447 0.0585 0.9308
C14 C 0.8050(13) 0.175(3) 0.9076(13)
H14 H 0.8420 0.1241 0.9828
H15 H 0.7972 0.2930 0.8987
H16 H 0.8979 0.1068 0.8324
H17 H 0.624(3) 0.303(3) 0.756(2)
C15? C 0.702(6) 0.282(3) 0.963(2)
loop_
_geom_bond_atom_site_label_1
_geom_bond_atom_site_label_2
_geom_bond_site_symmetry_1
_geom_bond_site_symmetry_2
O1 C2 1_555 1_555
O2 C12 1_555 1_555
N1 C1 1_555 1_555
C1 H1 1_555 1_555
N2 C1 1_555 1_555
C2 N2 1_555 1_555
C3 C2 1_555 1_555
C4 C3 1_555 1_555
H2 C4 1_555 1_555
C5 C4 1_555 1_555
H3 C5 1_555 1_555
C6 C5 1_555 1_555
H4 C6 1_555 1_555
C7 C6 1_555 1_555
H5 C7 1_555 1_555
C8 N1 1_555 1_555
C9 C1 1_555 1_555
H6 C9 1_555 1_555
H7 C9 1_555 1_555
C10 C9 1_555 1_555
H8 C10 1_555 1_555
H9 C10 1_555 1_555
C11 N2 1_555 1_555
H10 C11 1_555 1_555
H11 C11 1_555 1_555
C12 N1 1_555 1_555
N3 C12 1_555 1_555
C13 N3 1_555 1_555
H12 C13 1_555 1_555
H13 C13 1_555 1_555
C14 C13 1_555 1_555
H14 C14 1_555 1_555
H15 C14 1_555 1_555
H16 C14 1_555 1_555
H17 N3 1_555 1_555
C3 C8 1_555 1_555
C7 C8 1_555 1_555
C10 C11 1_555 1_555

#END
