
#######################################################################
#
#                 Cambridge Crystallographic Data Centre
#                                CCDC 
#
#######################################################################
#
# If this CIF has been generated from an entry in the Cambridge 
# Structural Database, then it will include bibliographic, chemical, 
# crystal, experimental, refinement or atomic coordinate data resulting 
# from the CCDC's data processing and validation procedures.
#
#######################################################################

data_BOTRUY01
_chemical_name_common            
5-(4,5-Ethylenedithio-1,3-dithiol-2-ylidene)-1,3,4,6-tetrathiapentalen-2-one
_chemical_formula_moiety         'C9 H4 O1 S8'
_chemical_name_systematic        
5-(5,6-Dihydro[1,3]dithiolo[4,5-b][1,4]dithiin-2-ylidene)[1,3]dithiolo[4,5-d][1,3]dithiol-2-one
_symmetry_cell_setting           monoclinic
_symmetry_space_group_name_H-M   'P 21/n'
_symmetry_Int_Tables_number      14
_space_group_name_Hall           '-P 2yn'
loop_
_symmetry_equiv_pos_site_id
_symmetry_equiv_pos_as_xyz
1 x,y,z
2 1/2-x,1/2+y,1/2-z
3 -x,-y,-z
4 1/2+x,1/2-y,1/2+z
_cell_length_a                   6.4762(4)
_cell_length_b                   28.7451(16)
_cell_length_c                   7.0792(4)
_cell_angle_alpha                90
_cell_angle_beta                 99.3220(10)
_cell_angle_gamma                90
_cell_volume                     1300.45
_exptl_crystal_colour            orange
_exptl_crystal_description       plate
_cell_formula_units_Z            4
_exptl_crystal_recrystallization_method 'carbon disulfide'
loop_
_atom_site_label
_atom_site_type_symbol
_atom_site_fract_x
_atom_site_fract_y
_atom_site_fract_z
S1 S 0.55521(8) 0.640266(17) 0.76487(8)
S2 S 0.10727(8) 0.611130(17) 0.67498(8)
S3 S 0.69030(8) 0.537928(16) 0.79101(8)
S4 S 0.23974(8) 0.508942(17) 0.69930(8)
S5 S 0.82440(8) 0.428497(16) 0.81116(8)
S6 S 0.37596(8) 0.401928(16) 0.72511(8)
S7 S 0.98460(8) 0.332565(18) 0.84717(9)
S8 S 0.45296(8) 0.300408(17) 0.73851(9)
O1 O 0.2343(3) 0.69836(5) 0.7113(2)
C1 C 0.2883(3) 0.65784(7) 0.7165(3)
C2 C 0.2970(3) 0.56818(7) 0.7098(3)
C3 C 0.4995(3) 0.58123(7) 0.7502(3)
C4 C 0.5061(3) 0.49214(7) 0.7512(3)
C5 C 0.5624(3) 0.44699(7) 0.7615(3)
C6 C 0.5611(3) 0.35643(6) 0.7623(3)
C7 C 0.7640(3) 0.36865(7) 0.8029(3)
C8 C 0.6768(4) 0.26454(8) 0.8292(4)
H1 H 0.626(4) 0.2329(10) 0.777(4)
H2 H 0.696(5) 0.2667(11) 0.979(5)
C9 C 0.8741(4) 0.27770(8) 0.7562(4)
H3 H 0.844(4) 0.2794(9) 0.615(4)
H4 H 0.984(4) 0.2560(10) 0.805(4)
loop_
_geom_bond_atom_site_label_1
_geom_bond_atom_site_label_2
_geom_bond_site_symmetry_1
_geom_bond_site_symmetry_2
S1 C1 1_555 1_555
S2 C1 1_555 1_555
S3 C3 1_555 1_555
S4 C2 1_555 1_555
S5 C5 1_555 1_555
S6 C5 1_555 1_555
S7 C7 1_555 1_555
S8 C6 1_555 1_555
O1 C1 1_555 1_555
C2 S2 1_555 1_555
C3 S1 1_555 1_555
C4 S3 1_555 1_555
C5 C4 1_555 1_555
C6 S6 1_555 1_555
C7 S5 1_555 1_555
C8 S8 1_555 1_555
H1 C8 1_555 1_555
H2 C8 1_555 1_555
C9 S7 1_555 1_555
H3 C9 1_555 1_555
H4 C9 1_555 1_555
S4 C4 1_555 1_555
C2 C3 1_555 1_555
C6 C7 1_555 1_555
C8 C9 1_555 1_555

#END
