
#######################################################################
#
#                 Cambridge Crystallographic Data Centre
#                                CCDC 
#
#######################################################################
#
# If this CIF has been generated from an entry in the Cambridge 
# Structural Database, then it will include bibliographic, chemical, 
# crystal, experimental, refinement or atomic coordinate data resulting 
# from the CCDC's data processing and validation procedures.
#
#######################################################################

data_BOTRUY
_chemical_name_common            
5-(4,5-Ethylenedithio-1,3-dithiol-2-ylidene)-1,3,4,6-tetrathiapentalen-2-one
_chemical_formula_moiety         'C9 H4 O1 S8'
_chemical_name_systematic        
5-(5,6-Dihydro[1,3]dithiolo[4,5-b][1,4]dithiin-2-ylidene)[1,3]dithiolo[4,5-d][1,3]dithiol-2-one
_symmetry_cell_setting           monoclinic
_symmetry_space_group_name_H-M   'P 21/n'
_symmetry_Int_Tables_number      14
_space_group_name_Hall           '-P 2yn'
loop_
_symmetry_equiv_pos_site_id
_symmetry_equiv_pos_as_xyz
1 x,y,z
2 1/2-x,1/2+y,1/2-z
3 -x,-y,-z
4 1/2+x,1/2-y,1/2+z
_cell_length_a                   6.4948(4)
_cell_length_b                   28.7194(16)
_cell_length_c                   7.1503(4)
_cell_angle_alpha                90
_cell_angle_beta                 99.5480(10)
_cell_angle_gamma                90
_cell_volume                     1315.25
_exptl_crystal_colour            orange
_exptl_crystal_description       plate
_cell_formula_units_Z            4
_exptl_crystal_recrystallization_method 'carbon disulfide'
loop_
_atom_site_label
_atom_site_type_symbol
_atom_site_fract_x
_atom_site_fract_y
_atom_site_fract_z
S1 S 0.55521(10) 0.64008(2) 0.76478(9)
S2 S 0.10921(9) 0.61106(2) 0.67531(9)
S3 S 0.68965(9) 0.53783(2) 0.79025(9)
S4 S 0.24090(9) 0.50892(2) 0.69960(9)
S5 S 0.82327(9) 0.42849(2) 0.81049(9)
S6 S 0.37694(9) 0.40187(2) 0.72496(9)
S7 S 0.98235(9) 0.33257(2) 0.84731(11)
S8 S 0.45355(9) 0.30048(2) 0.74265(10)
O1 O 0.2361(3) 0.69816(6) 0.7106(3)
C1 C 0.2890(4) 0.65767(9) 0.7160(4)
C2 C 0.2984(4) 0.56819(8) 0.7102(3)
C3 C 0.4996(3) 0.58123(8) 0.7505(3)
C4 C 0.5062(3) 0.49208(8) 0.7510(3)
C5 C 0.5620(3) 0.44691(8) 0.7616(3)
C6 C 0.5612(3) 0.35650(8) 0.7635(3)
C7 C 0.7634(3) 0.36881(8) 0.8038(3)
C8 C 0.6771(5) 0.26441(10) 0.8235(6)
H1 H 0.635(4) 0.2334(11) 0.768(4)
H2 H 0.723(7) 0.2684(14) 0.978(6)
C9 C 0.8722(5) 0.27810(10) 0.7581(6)
H3 H 0.813(7) 0.2784(14) 0.609(6)
H4 H 0.978(5) 0.2573(12) 0.811(5)
loop_
_geom_bond_atom_site_label_1
_geom_bond_atom_site_label_2
_geom_bond_site_symmetry_1
_geom_bond_site_symmetry_2
S1 C1 1_555 1_555
S2 C1 1_555 1_555
S3 C3 1_555 1_555
S4 C2 1_555 1_555
S5 C5 1_555 1_555
S6 C5 1_555 1_555
S7 C7 1_555 1_555
S8 C6 1_555 1_555
O1 C1 1_555 1_555
C2 S2 1_555 1_555
C3 S1 1_555 1_555
C4 S3 1_555 1_555
C5 C4 1_555 1_555
C6 S6 1_555 1_555
C7 S5 1_555 1_555
C8 S8 1_555 1_555
H1 C8 1_555 1_555
H2 C8 1_555 1_555
C9 S7 1_555 1_555
H3 C9 1_555 1_555
H4 C9 1_555 1_555
S4 C4 1_555 1_555
C2 C3 1_555 1_555
C6 C7 1_555 1_555
C8 C9 1_555 1_555

#END
