
#######################################################################
#
#                 Cambridge Crystallographic Data Centre
#                                CCDC 
#
#######################################################################
#
# If this CIF has been generated from an entry in the Cambridge 
# Structural Database, then it will include bibliographic, chemical, 
# crystal, experimental, refinement or atomic coordinate data resulting 
# from the CCDC's data processing and validation procedures.
#
#######################################################################

data_BOVBUK
_chemical_formula_moiety         'C25 H16 N4'
_chemical_name_systematic        
6-(1H-Indol-3-yl)-4-phenyl-2,2'-bipyridine-5-carbonitrile
_symmetry_cell_setting           triclinic
_symmetry_space_group_name_H-M   'P -1'
_symmetry_Int_Tables_number      2
_space_group_name_Hall           '-P 1'
loop_
_symmetry_equiv_pos_site_id
_symmetry_equiv_pos_as_xyz
1 x,y,z
2 -x,-y,-z
_cell_length_a                   9.7744(16)
_cell_length_b                   9.7927(11)
_cell_length_c                   11.233(2)
_cell_angle_alpha                73.121(13)
_cell_angle_beta                 86.008(16)
_cell_angle_gamma                63.853(10)
_cell_volume                     921.457
_exptl_crystal_colour            yellow
_exptl_crystal_description       block
_chemical_melting_point          '294-296 deg.C'
_cell_formula_units_Z            2
_exptl_crystal_recrystallization_method ethanol
loop_
_atom_site_label
_atom_site_type_symbol
_atom_site_fract_x
_atom_site_fract_y
_atom_site_fract_z
N1 N 0.94201(16) 0.20772(17) 0.54741(13)
N2 N 1.20413(18) 0.3774(2) 0.44026(14)
N3 N 0.5855(2) 0.1895(2) 0.28547(16)
N4 N 0.64100(17) -0.04598(18) 0.69177(14)
H1 H 0.5936 -0.1043 0.7025
C1 C 1.01436(19) 0.2799(2) 0.46717(16)
C2 C 0.98275(19) 0.3310(2) 0.33960(16)
H2 H 1.0382 0.3776 0.2873
C3 C 0.86846(19) 0.3126(2) 0.28960(16)
C4 C 0.79281(19) 0.2362(2) 0.37308(16)
C5 C 0.83308(19) 0.1829(2) 0.50305(16)
C6 C 1.13427(19) 0.3032(2) 0.52184(16)
C7 C 1.1727(2) 0.2494(2) 0.64913(18)
H3 H 1.1226 0.1981 0.7039
C8 C 1.2862(2) 0.2731(3) 0.6929(2)
H4 H 1.3135 0.2383 0.7779
C9 C 1.3586(2) 0.3482(2) 0.6104(2)
H5 H 1.4361 0.3648 0.6378
C10 C 1.3136(2) 0.3981(3) 0.4861(2)
H6 H 1.3625 0.4497 0.4302
C11 C 0.8284(2) 0.3777(2) 0.15322(16)
C12 C 0.9407(2) 0.3356(2) 0.07066(17)
H7 H 1.0400 0.2617 0.1010
C13 C 0.9065(3) 0.4026(3) -0.05660(18)
H8 H 0.9823 0.3725 -0.1114
C14 C 0.7602(3) 0.5140(3) -0.10229(19)
H9 H 0.7376 0.5599 -0.1878
C15 C 0.6484(3) 0.5570(3) -0.02151(19)
H10 H 0.5498 0.6323 -0.0525
C16 C 0.6809(2) 0.4891(2) 0.10587(18)
H11 H 0.6039 0.5181 0.1600
C17 C 0.6772(2) 0.2108(2) 0.32443(17)
C18 C 0.7603(2) 0.1025(2) 0.59690(16)
C19 C 0.6856(2) 0.0176(2) 0.58127(17)
H12 H 0.6682 0.0056 0.5054
C20 C 0.6833(2) -0.0028(2) 0.78422(17)
C21 C 0.6582(2) -0.0376(2) 0.90989(18)
H13 H 0.6081 -0.1001 0.9444
C22 C 0.7105(3) 0.0240(3) 0.98141(19)
H14 H 0.6957 0.0029 1.0663
C23 C 0.7851(3) 0.1175(3) 0.92946(19)
H15 H 0.8188 0.1581 0.9803
C24 C 0.8104(2) 0.1515(3) 0.80452(18)
H16 H 0.8605 0.2143 0.7711
C25 C 0.7595(2) 0.0901(2) 0.72879(16)
loop_
_geom_bond_atom_site_label_1
_geom_bond_atom_site_label_2
_geom_bond_site_symmetry_1
_geom_bond_site_symmetry_2
N1 C1 1_555 1_555
N2 C6 1_555 1_555
N3 C17 1_555 1_555
N4 H1 1_555 1_555
C1 C2 1_555 1_555
C2 H2 1_555 1_555
C3 C2 1_555 1_555
C4 C3 1_555 1_555
C5 N1 1_555 1_555
C6 C1 1_555 1_555
C7 C6 1_555 1_555
H3 C7 1_555 1_555
C8 C7 1_555 1_555
H4 C8 1_555 1_555
C9 C8 1_555 1_555
H5 C9 1_555 1_555
C10 N2 1_555 1_555
H6 C10 1_555 1_555
C11 C3 1_555 1_555
C12 C11 1_555 1_555
H7 C12 1_555 1_555
C13 C12 1_555 1_555
H8 C13 1_555 1_555
C14 C13 1_555 1_555
H9 C14 1_555 1_555
C15 C14 1_555 1_555
H10 C15 1_555 1_555
C16 C11 1_555 1_555
H11 C16 1_555 1_555
C17 C4 1_555 1_555
C18 C5 1_555 1_555
C19 N4 1_555 1_555
H12 C19 1_555 1_555
C20 N4 1_555 1_555
C21 C20 1_555 1_555
H13 C21 1_555 1_555
C22 C21 1_555 1_555
H14 C22 1_555 1_555
C23 C22 1_555 1_555
H15 C23 1_555 1_555
C24 C23 1_555 1_555
H16 C24 1_555 1_555
C25 C18 1_555 1_555
C4 C5 1_555 1_555
C9 C10 1_555 1_555
C15 C16 1_555 1_555
C18 C19 1_555 1_555
C20 C25 1_555 1_555
C24 C25 1_555 1_555

#END
