
#######################################################################
#
#                 Cambridge Crystallographic Data Centre
#                                CCDC 
#
#######################################################################
#
# If this CIF has been generated from an entry in the Cambridge 
# Structural Database, then it will include bibliographic, chemical, 
# crystal, experimental, refinement or atomic coordinate data resulting 
# from the CCDC's data processing and validation procedures.
#
#######################################################################

data_BOVBUL
_chemical_formula_moiety         'C19 H16'
_chemical_name_systematic        
1-methyl-3a-phenyl-3,3a-dihydrocyclopenta[a]indene
_symmetry_cell_setting           monoclinic
_symmetry_space_group_name_H-M   'P 21/n'
_symmetry_Int_Tables_number      14
_space_group_name_Hall           '-P 2yn'
loop_
_symmetry_equiv_pos_site_id
_symmetry_equiv_pos_as_xyz
1 x,y,z
2 1/2-x,1/2+y,1/2-z
3 -x,-y,-z
4 1/2+x,1/2-y,1/2+z
_cell_length_a                   9.2073(8)
_cell_length_b                   9.7018(9)
_cell_length_c                   15.2588(14)
_cell_angle_alpha                90
_cell_angle_beta                 103.046(2)
_cell_angle_gamma                90
_cell_volume                     1327.85
_exptl_crystal_colour            colorless
_exptl_crystal_description       needle
_cell_formula_units_Z            4
loop_
_atom_site_label
_atom_site_type_symbol
_atom_site_fract_x
_atom_site_fract_y
_atom_site_fract_z
C1 C 0.0847(2) 0.23163(19) 0.19614(12)
C2 C 0.0928(2) 0.2318(2) 0.29926(12)
H1 H 0.1855 0.1877 0.3332
H2 H 0.0863 0.3265 0.3222
C3 C -0.0434(2) 0.1476(2) 0.30436(13)
H3 H -0.0883 0.1491 0.3546
C4 C -0.0942(2) 0.0707(2) 0.23099(13)
C5 C 0.0036(2) 0.09697(19) 0.16953(12)
C6 C 0.0652(2) 0.0239(2) 0.11246(13)
H4 H 0.0287 -0.0608 0.0847
C7 C -0.2178(2) -0.0326(2) 0.21443(15)
H5 H -0.2563 -0.0431 0.2689
H6 H -0.1800 -0.1215 0.1987
H7 H -0.2981 -0.0010 0.1648
C8 C 0.2202(2) 0.21531(19) 0.15563(12)
C9 C 0.1987(2) 0.09713(19) 0.10033(12)
C10 C 0.3006(2) 0.0642(2) 0.04899(13)
H8 H 0.2865 -0.0150 0.0114
C11 C 0.4238(2) 0.1494(2) 0.05367(14)
H9 H 0.4940 0.1281 0.0186
C12 C 0.4455(2) 0.2645(2) 0.10862(14)
H10 H 0.5314 0.3203 0.1120
C13 C 0.3422(2) 0.2992(2) 0.15905(13)
H11 H 0.3557 0.3798 0.1954
C14 C -0.0025(2) 0.35750(19) 0.15132(12)
C15 C -0.1228(2) 0.3461(2) 0.07802(13)
H12 H -0.1569 0.2574 0.0563
C16 C -0.1935(2) 0.4625(2) 0.03625(14)
H13 H -0.2759 0.4527 -0.0136
C17 C -0.1456(2) 0.5922(2) 0.06616(14)
H14 H -0.1936 0.6719 0.0369
C18 C -0.0268(2) 0.6047(2) 0.13939(14)
H15 H 0.0066 0.6936 0.1610
C19 C 0.0438(2) 0.48909(19) 0.18135(13)
H16 H 0.1253 0.4996 0.2316
loop_
_geom_bond_atom_site_label_1
_geom_bond_atom_site_label_2
_geom_bond_site_symmetry_1
_geom_bond_site_symmetry_2
C1 C2 1_555 1_555
C2 H1 1_555 1_555
H2 C2 1_555 1_555
C3 C2 1_555 1_555
H3 C3 1_555 1_555
C4 C3 1_555 1_555
C5 C1 1_555 1_555
C6 C5 1_555 1_555
H4 C6 1_555 1_555
C7 C4 1_555 1_555
H5 C7 1_555 1_555
H6 C7 1_555 1_555
H7 C7 1_555 1_555
C8 C1 1_555 1_555
C9 C6 1_555 1_555
C10 C9 1_555 1_555
H8 C10 1_555 1_555
C11 C10 1_555 1_555
H9 C11 1_555 1_555
C12 C11 1_555 1_555
H10 C12 1_555 1_555
C13 C8 1_555 1_555
H11 C13 1_555 1_555
C14 C1 1_555 1_555
C15 C14 1_555 1_555
H12 C15 1_555 1_555
C16 C15 1_555 1_555
H13 C16 1_555 1_555
C17 C16 1_555 1_555
H14 C17 1_555 1_555
C18 C17 1_555 1_555
H15 C18 1_555 1_555
C19 C14 1_555 1_555
H16 C19 1_555 1_555
C4 C5 1_555 1_555
C8 C9 1_555 1_555
C12 C13 1_555 1_555
C18 C19 1_555 1_555

#END
