
#######################################################################
#
#                 Cambridge Crystallographic Data Centre
#                                CCDC 
#
#######################################################################
#
# If this CIF has been generated from an entry in the Cambridge 
# Structural Database, then it will include bibliographic, chemical, 
# crystal, experimental, refinement or atomic coordinate data resulting 
# from the CCDC's data processing and validation procedures.
#
#######################################################################

data_BOVBOE
_chemical_formula_moiety         'C14 H19 N3 O2 S1'
_chemical_name_systematic        
N-(2-Aminoethyl)-5-(dimethylamino)-1-naphthalenesulfonamide
_symmetry_cell_setting           orthorhombic
_symmetry_space_group_name_H-M   'P n a 21'
_symmetry_Int_Tables_number      33
_space_group_name_Hall           'P 2c -2n'
loop_
_symmetry_equiv_pos_site_id
_symmetry_equiv_pos_as_xyz
1 x,y,z
2 -x,-y,1/2+z
3 1/2+x,1/2-y,z
4 1/2-x,1/2+y,1/2+z
_cell_length_a                   15.5221(15)
_cell_length_b                   11.5423(11)
_cell_length_c                   8.1360(8)
_cell_angle_alpha                90
_cell_angle_beta                 90
_cell_angle_gamma                90
_cell_volume                     1457.65
_exptl_crystal_colour            colorless
_exptl_crystal_description       block
_cell_formula_units_Z            4
_exptl_crystal_recrystallization_method dichloromethane
loop_
_atom_site_label
_atom_site_type_symbol
_atom_site_fract_x
_atom_site_fract_y
_atom_site_fract_z
C1 C 0.6783(2) 0.2592(3) 1.2600(5)
H1 H 0.6195 0.2620 1.2236
H2 H 0.6797 0.2519 1.3775
H3 H 0.7065 0.1937 1.2111
C2 C 0.67195(17) 0.4676(3) 1.2579(4)
H4 H 0.7030 0.5368 1.2300
H5 H 0.6616 0.4659 1.3742
H6 H 0.6180 0.4665 1.2004
C3 C 0.75553(12) 0.36601(19) 1.0498(3)
C4 C 0.72410(14) 0.43583(19) 0.9255(3)
H7 H 0.6796 0.4874 0.9477
C5 C 0.75833(15) 0.4299(2) 0.7670(3)
H8 H 0.7350 0.4767 0.6853
C6 C 0.82454(15) 0.3580(2) 0.7281(3)
H9 H 0.8451 0.3547 0.6208
C7 C 0.86251(12) 0.28748(17) 0.8530(3)
C8 C 0.93538(13) 0.21356(16) 0.8264(3)
C9 C 0.96977(14) 0.14947(18) 0.9519(3)
H10 H 1.0158 0.0999 0.9311
C10 C 0.93643(14) 0.15783(18) 1.1106(3)
H11 H 0.9610 0.1151 1.1954
C11 C 0.86816(12) 0.22823(16) 1.1418(3)
H12 H 0.8473 0.2345 1.2486
C12 C 0.82814(12) 0.29230(16) 1.0143(3)
C13 C 1.10343(19) 0.3731(3) 0.6827(4)
H13 H 1.1354 0.4225 0.6080
H14 H 1.1400 0.3079 0.7107
C14 C 1.0839(2) 0.4406(3) 0.8375(5)
H15 H 1.0609 0.3874 0.9188
H16 H 1.1375 0.4712 0.8805
N1 N 0.72278(13) 0.36630(17) 1.2108(3)
O1 O 0.92413(13) 0.18510(17) 0.5084(2)
O2 O 1.05529(12) 0.12231(15) 0.6510(2)
N2 N 1.02722(14) 0.33007(18) 0.5987(3)
H17 H 1.0054(19) 0.358(3) 0.508(5)
N3 N 1.0237(3) 0.5358(3) 0.8182(5)
H18 H 0.980(3) 0.499(5) 0.773(8)
H19 H 1.044(3) 0.588(4) 0.752(7)
S1 S 0.98740(3) 0.20448(4) 0.63277(8)
loop_
_geom_bond_atom_site_label_1
_geom_bond_atom_site_label_2
_geom_bond_site_symmetry_1
_geom_bond_site_symmetry_2
C1 H1 1_555 1_555
H2 C1 1_555 1_555
H3 C1 1_555 1_555
C2 H4 1_555 1_555
H5 C2 1_555 1_555
H6 C2 1_555 1_555
C3 C4 1_555 1_555
C4 H7 1_555 1_555
C5 C4 1_555 1_555
H8 C5 1_555 1_555
C6 C5 1_555 1_555
H9 C6 1_555 1_555
C7 C6 1_555 1_555
C8 C7 1_555 1_555
C9 C8 1_555 1_555
H10 C9 1_555 1_555
C10 C9 1_555 1_555
H11 C10 1_555 1_555
C11 C10 1_555 1_555
H12 C11 1_555 1_555
C12 C3 1_555 1_555
C13 H13 1_555 1_555
H14 C13 1_555 1_555
C14 C13 1_555 1_555
H15 C14 1_555 1_555
H16 C14 1_555 1_555
N1 C1 1_555 1_555
O1 S1 1_555 1_555
O2 S1 1_555 1_555
N2 C13 1_555 1_555
H17 N2 1_555 1_555
N3 C14 1_555 1_555
H18 N3 1_555 1_555
H19 N3 1_555 1_555
S1 C8 1_555 1_555
C2 N1 1_555 1_555
C3 N1 1_555 1_555
C7 C12 1_555 1_555
C11 C12 1_555 1_555
N2 S1 1_555 1_555

#END
