
#######################################################################
#
#                 Cambridge Crystallographic Data Centre
#                                CCDC 
#
#######################################################################
#
# If this CIF has been generated from an entry in the Cambridge 
# Structural Database, then it will include bibliographic, chemical, 
# crystal, experimental, refinement or atomic coordinate data resulting 
# from the CCDC's data processing and validation procedures.
#
#######################################################################

data_BOVCIA
_chemical_formula_moiety         'C21 H19 F1'
_chemical_name_systematic        
9a-(4-fluorophenyl)-3,9-dimethyl-9,9a-dihydro-1H-cyclopenta[b]naphthalene
_symmetry_cell_setting           monoclinic
_symmetry_space_group_name_H-M   'C 2/c'
_symmetry_Int_Tables_number      15
_space_group_name_Hall           '-C 2yn'
loop_
_symmetry_equiv_pos_site_id
_symmetry_equiv_pos_as_xyz
1 x,y,z
2 -x,y,1/2-z
3 1/2+x,1/2+y,z
4 1/2-x,1/2+y,1/2-z
5 -x,-y,-z
6 x,-y,1/2+z
7 1/2-x,1/2-y,-z
8 1/2+x,1/2-y,1/2+z
_cell_length_a                   20.713(5)
_cell_length_b                   8.355(2)
_cell_length_c                   18.359(5)
_cell_angle_alpha                90
_cell_angle_beta                 94.947(7)
_cell_angle_gamma                90
_cell_volume                     3165.32
_exptl_crystal_colour            colorless
_exptl_crystal_description       polyhedron
_cell_formula_units_Z            8
loop_
_atom_site_label
_atom_site_type_symbol
_atom_site_fract_x
_atom_site_fract_y
_atom_site_fract_z
C1 C 0.44184(12) 0.6863(3) 0.83040(13)
H1 H 0.4495 0.6635 0.7795
H2 H 0.4752 0.6334 0.8631
H3 H 0.4437 0.8021 0.8387
C2 C 0.37447(10) 0.6233(3) 0.84598(11)
H4 H 0.3413 0.6745 0.8106
C3 C 0.36731(9) 0.4405(3) 0.83900(11)
C4 C 0.39181(13) 0.3603(4) 0.76947(13)
H5 H 0.3550 0.3255 0.7351
H6 H 0.4194 0.4347 0.7439
C5 C 0.43002(12) 0.2200(4) 0.7998(2)
H7 H 0.4447 0.1366 0.7702
C6 C 0.44141(11) 0.2231(3) 0.87224(18)
C7 C 0.41060(9) 0.3636(3) 0.90021(12)
C8 C 0.41749(10) 0.4281(3) 0.96680(12)
H8 H 0.4438 0.3765 1.0048
C9 C 0.47934(13) 0.1061(3) 0.9199(2)
H9 H 0.5108 0.1636 0.9532
H10 H 0.5023 0.0326 0.8895
H11 H 0.4499 0.0450 0.9484
C10 C 0.36090(9) 0.6728(2) 0.92256(10)
C11 C 0.38489(9) 0.5773(2) 0.98155(10)
C12 C 0.37743(11) 0.6298(3) 1.05267(11)
H12 H 0.3944 0.5673 1.0931
C13 C 0.34597(13) 0.7703(3) 1.06471(14)
H13 H 0.3409 0.8037 1.1133
C14 C 0.32184(13) 0.8628(3) 1.00726(15)
H14 H 0.2998 0.9598 1.0159
C15 C 0.32973(11) 0.8144(3) 0.93654(13)
H15 H 0.3134 0.8797 0.8968
C16 C 0.29620(9) 0.3916(2) 0.84343(10)
C17 C 0.27735(10) 0.2789(2) 0.89283(11)
H16 H 0.3094 0.2303 0.9258
C18 C 0.21307(10) 0.2350(3) 0.89544(12)
H17 H 0.2009 0.1572 0.9295
C19 C 0.16799(10) 0.3059(3) 0.84820(13)
C20 C 0.18367(10) 0.4154(3) 0.79743(12)
H18 H 0.1510 0.4616 0.7644
C21 C 0.24810(10) 0.4578(3) 0.79505(11)
H19 H 0.2596 0.5334 0.7598
F1 F 0.10418(6) 0.2663(2) 0.85112(8)
loop_
_geom_bond_atom_site_label_1
_geom_bond_atom_site_label_2
_geom_bond_site_symmetry_1
_geom_bond_site_symmetry_2
C1 H1 1_555 1_555
H2 C1 1_555 1_555
H3 C1 1_555 1_555
C2 C1 1_555 1_555
H4 C2 1_555 1_555
C3 C2 1_555 1_555
C4 C3 1_555 1_555
H5 C4 1_555 1_555
H6 C4 1_555 1_555
C5 C4 1_555 1_555
H7 C5 1_555 1_555
C6 C5 1_555 1_555
C7 C3 1_555 1_555
C8 C7 1_555 1_555
H8 C8 1_555 1_555
C9 C6 1_555 1_555
H9 C9 1_555 1_555
H10 C9 1_555 1_555
H11 C9 1_555 1_555
C10 C2 1_555 1_555
C11 C8 1_555 1_555
C12 C11 1_555 1_555
H12 C12 1_555 1_555
C13 C12 1_555 1_555
H13 C13 1_555 1_555
C14 C13 1_555 1_555
H14 C14 1_555 1_555
C15 C10 1_555 1_555
H15 C15 1_555 1_555
C16 C3 1_555 1_555
C17 C16 1_555 1_555
H16 C17 1_555 1_555
C18 C17 1_555 1_555
H17 C18 1_555 1_555
C19 C18 1_555 1_555
C20 C19 1_555 1_555
H18 C20 1_555 1_555
C21 C16 1_555 1_555
H19 C21 1_555 1_555
F1 C19 1_555 1_555
C6 C7 1_555 1_555
C10 C11 1_555 1_555
C14 C15 1_555 1_555
C20 C21 1_555 1_555

#END
