
#######################################################################
#
#                 Cambridge Crystallographic Data Centre
#                                CCDC 
#
#######################################################################
#
# If this CIF has been generated from an entry in the Cambridge 
# Structural Database, then it will include bibliographic, chemical, 
# crystal, experimental, refinement or atomic coordinate data resulting 
# from the CCDC's data processing and validation procedures.
#
#######################################################################

data_BOVCIZ
_chemical_name_common            
'4,5,6,6-tetrakis(ethylsulfanyl)-1,2,3-hexanetriyl triacetate'
_chemical_formula_moiety         'C20 H36 O6 S4'
_chemical_name_systematic        
'4,5,6-tri-O-acetyl-2,3-di-S-ethyl-2,3-dithio-D-allose diethyldithioacetal'
_symmetry_cell_setting           monoclinic
_symmetry_space_group_name_H-M   'P 21'
_symmetry_Int_Tables_number      4
_space_group_name_Hall           'P 2yb'
loop_
_symmetry_equiv_pos_site_id
_symmetry_equiv_pos_as_xyz
1 x,y,z
2 -x,1/2+y,-z
_cell_length_a                   8.3395(12)
_cell_length_b                   16.726(2)
_cell_length_c                   9.2027(14)
_cell_angle_alpha                90
_cell_angle_beta                 95.772(5)
_cell_angle_gamma                90
_cell_volume                     1277.14
_exptl_crystal_colour            colorless
_exptl_crystal_description       block
_chemical_melting_point          '62 deg.C'
_cell_formula_units_Z            2
_exptl_crystal_recrystallization_method 'petroleum ether'
loop_
_atom_site_label
_atom_site_type_symbol
_atom_site_fract_x
_atom_site_fract_y
_atom_site_fract_z
S1 S 0.74081(5) -0.08494(3) 0.79166(5)
S2 S 0.70511(5) 0.08746(3) 0.88989(5)
S3 S 0.41930(5) 0.00547(3) 0.66199(5)
S4 S 0.85901(5) 0.02564(3) 0.42590(5)
O1 O 0.56270(15) -0.06561(7) 0.23706(13)
O2 O 0.32000(18) -0.12020(10) 0.25917(18)
O3 O 0.54225(14) 0.14186(7) 0.33931(12)
O4 O 0.68402(15) 0.21225(8) 0.18563(14)
O5 O 0.25647(13) 0.10093(8) 0.19236(13)
O6 O 0.26208(18) 0.22570(8) 0.10243(18)
C1 C 0.74322(19) 0.02080(11) 0.74033(17)
H1 H 0.8521 0.0336 0.7099
C2 C 0.61765(18) 0.03465(11) 0.60845(18)
H2 H 0.6143 0.0933 0.5873
C3 C 0.66042(18) -0.00888(10) 0.46908(17)
H3 H 0.6708 -0.0670 0.4933
C4 C 0.53286(19) -0.00125(11) 0.33657(17)
H4 H 0.4224 -0.0068 0.3689
C5 C 0.5413(2) 0.07353(10) 0.24304(18)
H5 H 0.6440 0.0727 0.1957
C6 C 0.3999(2) 0.08169(12) 0.12490(18)
H6 H 0.4227 0.1244 0.0554
H7 H 0.3843 0.0309 0.0700
C7 C 0.8968(2) -0.08772(14) 0.94224(19)
H8 H 0.8763 -0.0444 1.0112
H9 H 0.8888 -0.1391 0.9944
C8 C 1.0684(2) -0.07889(15) 0.9010(3)
H10 H 1.0926 -0.1230 0.8366
H11 H 1.1441 -0.0801 0.9896
H12 H 1.0788 -0.0279 0.8503
C9 C 0.8906(2) 0.14400(14) 0.9124(2)
H13 H 0.8924 0.1759 1.0031
H14 H 0.9821 0.1061 0.9247
C10 C 0.9154(3) 0.19954(14) 0.7876(3)
H15 H 0.9222 0.1683 0.6984
H16 H 1.0155 0.2297 0.8104
H17 H 0.8245 0.2368 0.7729
C11 C 0.2932(2) 0.08823(13) 0.59307(19)
H18 H 0.3106 0.0975 0.4896
H19 H 0.1789 0.0730 0.5962
C12 C 0.3242(2) 0.16570(13) 0.6765(2)
H20 H 0.2985 0.1585 0.7773
H21 H 0.2561 0.2080 0.6296
H22 H 0.4378 0.1806 0.6766
C13 C 0.9482(3) -0.06248(16) 0.3541(3)
H23 H 0.8677 -0.0883 0.2826
H24 H 1.0406 -0.0461 0.3013
C14 C 1.0059(4) -0.1230(2) 0.4699(3)
H25 H 1.0905 -0.0991 0.5378
H26 H 1.0490 -0.1700 0.4233
H27 H 0.9154 -0.1392 0.5235
C15 C 0.4443(2) -0.12014(11) 0.20382(19)
C16 C 0.4899(3) -0.17588(12) 0.0885(2)
H28 H 0.4155 -0.2214 0.0805
H29 H 0.6000 -0.1952 0.1143
H30 H 0.4843 -0.1477 -0.0053
C17 C 0.6157(2) 0.20907(11) 0.2941(2)
C18 C 0.5959(3) 0.27634(12) 0.3979(2)
H31 H 0.6485 0.3244 0.3644
H32 H 0.6454 0.2617 0.4954
H33 H 0.4810 0.2871 0.4021
C19 C 0.2065(2) 0.17773(11) 0.1783(2)
C20 C 0.0766(2) 0.19526(13) 0.2743(2)
H34 H 0.1246 0.2033 0.3748
H35 H 0.0012 0.1502 0.2712
H36 H 0.0187 0.2437 0.2397
C21? C 0.9867(15) -0.0625(8) 0.4615(17)
C22? C 0.935(2) -0.1377(8) 0.381(2)
H37? H 1.0967 -0.0488 0.4379
H38? H 0.9937 -0.0741 0.5674
H39? H 0.8573 -0.1665 0.4339
H40? H 1.0297 -0.1717 0.3722
H41? H 0.8855 -0.1240 0.2827
loop_
_geom_bond_atom_site_label_1
_geom_bond_atom_site_label_2
_geom_bond_site_symmetry_1
_geom_bond_site_symmetry_2
S1 C1 1_555 1_555
S2 C1 1_555 1_555
S3 C2 1_555 1_555
S4 C3 1_555 1_555
O1 C4 1_555 1_555
O2 C15 1_555 1_555
O3 C5 1_555 1_555
O4 C17 1_555 1_555
O5 C6 1_555 1_555
O6 C19 1_555 1_555
C1 H1 1_555 1_555
C2 C1 1_555 1_555
H2 C2 1_555 1_555
C3 C2 1_555 1_555
H3 C3 1_555 1_555
C4 C3 1_555 1_555
H4 C4 1_555 1_555
C5 C4 1_555 1_555
H5 C5 1_555 1_555
C6 C5 1_555 1_555
H6 C6 1_555 1_555
H7 C6 1_555 1_555
C7 S1 1_555 1_555
H8 C7 1_555 1_555
H9 C7 1_555 1_555
C8 C7 1_555 1_555
H10 C8 1_555 1_555
H11 C8 1_555 1_555
H12 C8 1_555 1_555
C9 S2 1_555 1_555
H13 C9 1_555 1_555
H14 C9 1_555 1_555
C10 C9 1_555 1_555
H15 C10 1_555 1_555
H16 C10 1_555 1_555
H17 C10 1_555 1_555
C11 S3 1_555 1_555
H18 C11 1_555 1_555
H19 C11 1_555 1_555
C12 C11 1_555 1_555
H20 C12 1_555 1_555
H21 C12 1_555 1_555
H22 C12 1_555 1_555
C13 S4 1_555 1_555
H23 C13 1_555 1_555
H24 C13 1_555 1_555
C14 C13 1_555 1_555
H25 C14 1_555 1_555
H26 C14 1_555 1_555
H27 C14 1_555 1_555
C15 O1 1_555 1_555
C16 C15 1_555 1_555
H28 C16 1_555 1_555
H29 C16 1_555 1_555
H30 C16 1_555 1_555
C17 O3 1_555 1_555
C18 C17 1_555 1_555
H31 C18 1_555 1_555
H32 C18 1_555 1_555
H33 C18 1_555 1_555
C19 O5 1_555 1_555
C20 C19 1_555 1_555
H34 C20 1_555 1_555
H35 C20 1_555 1_555
H36 C20 1_555 1_555

#END
