
#######################################################################
#
#                 Cambridge Crystallographic Data Centre
#                                CCDC 
#
#######################################################################
#
# If this CIF has been generated from an entry in the Cambridge 
# Structural Database, then it will include bibliographic, chemical, 
# crystal, experimental, refinement or atomic coordinate data resulting 
# from the CCDC's data processing and validation procedures.
#
#######################################################################

data_BOVFAU
_chemical_formula_moiety         'C8 H12 N2,H2 O1'
_chemical_name_systematic        '4-Amino-2,3,5-trimethylpyridine monohydrate'
_symmetry_cell_setting           tetragonal
_symmetry_space_group_name_H-M   'P -4 21 c'
_symmetry_Int_Tables_number      114
_space_group_name_Hall           'P -4 2n'
loop_
_symmetry_equiv_pos_site_id
_symmetry_equiv_pos_as_xyz
1 x,y,z
2 y,-x,-z
3 -x,-y,z
4 -y,x,-z
5 1/2-x,1/2+y,1/2-z
6 1/2-y,1/2-x,1/2+z
7 1/2+x,1/2-y,1/2-z
8 1/2+y,1/2+x,1/2+z
_cell_length_a                   19.5710(9)
_cell_length_b                   19.5710(9)
_cell_length_c                   4.8819(2)
_cell_angle_alpha                90
_cell_angle_beta                 90
_cell_angle_gamma                90
_cell_volume                     1869.89
_exptl_crystal_colour            colorless
_exptl_crystal_description       chunk
_cell_formula_units_Z            8
_exptl_crystal_recrystallization_method ethanol
loop_
_atom_site_label
_atom_site_type_symbol
_atom_site_fract_x
_atom_site_fract_y
_atom_site_fract_z
O1 O 0.25888(6) 0.28901(6) 0.2514(3)
H11 H 0.2530 0.3317 0.2901
H12 H 0.2457 0.2771 0.0921
N1 N 0.23938(11) 0.42486(10) 0.3906(4)
N2 N 0.19626(9) 0.61921(9) 0.6961(4)
C1 C 0.27642(12) 0.47949(12) 0.3109(5)
C2 C 0.26474(11) 0.54519(11) 0.4090(5)
C3 C 0.21206(11) 0.55487(11) 0.6011(4)
C4 C 0.17323(12) 0.49824(12) 0.6859(4)
C5 C 0.18992(12) 0.43602(12) 0.5762(5)
C6 C 0.33136(13) 0.46412(12) 0.1049(7)
C7 C 0.30672(12) 0.60551(12) 0.3136(6)
C8 C 0.11654(12) 0.50507(12) 0.8924(5)
H1 H 0.1649 0.3984 0.6350
H2 H 0.3753 0.4674 0.1913
H3 H 0.3251 0.4187 0.0345
H4 H 0.3288 0.4964 -0.0428
H5 H 0.3290 0.5943 0.1442
H6 H 0.2774 0.6442 0.2865
H7 H 0.3405 0.6163 0.4495
H8 H 0.1353 0.5184 1.0660
H9 H 0.0847 0.5391 0.8315
H10 H 0.0935 0.4620 0.9113
H13 H 0.1755 0.6229 0.8489
H14 H 0.2266 0.6511 0.6743
loop_
_geom_bond_atom_site_label_1
_geom_bond_atom_site_label_2
_geom_bond_site_symmetry_1
_geom_bond_site_symmetry_2
O1 H11 1_555 1_555
N1 C1 1_555 1_555
N2 C3 1_555 1_555
C1 C2 1_555 1_555
C2 C3 1_555 1_555
C3 C4 1_555 1_555
C4 C5 1_555 1_555
C5 N1 1_555 1_555
C6 C1 1_555 1_555
C7 C2 1_555 1_555
C8 C4 1_555 1_555
H1 C5 1_555 1_555
H2 C6 1_555 1_555
H3 C6 1_555 1_555
H4 C6 1_555 1_555
H5 C7 1_555 1_555
H6 C7 1_555 1_555
H7 C7 1_555 1_555
H8 C8 1_555 1_555
H9 C8 1_555 1_555
H10 C8 1_555 1_555
H12 O1 1_555 1_555
H13 N2 1_555 1_555
H14 N2 1_555 1_555

#END
