
#######################################################################
#
#                 Cambridge Crystallographic Data Centre
#                                CCDC 
#
#######################################################################
#
# If this CIF has been generated from an entry in the Cambridge 
# Structural Database, then it will include bibliographic, chemical, 
# crystal, experimental, refinement or atomic coordinate data resulting 
# from the CCDC's data processing and validation procedures.
#
#######################################################################

data_BOVQAE
_chemical_formula_moiety         'C13 H16 F3 N1 O1 S1'
_chemical_name_systematic        
(2R,3R,R~S~)-3-((4-Methylphenyl)sulfinyl)-1,1,1-trifluoro-hex-5-enyl-2-amine
_symmetry_cell_setting           monoclinic
_symmetry_space_group_name_H-M   'P 21'
_symmetry_Int_Tables_number      4
_space_group_name_Hall           'P 2yb'
loop_
_symmetry_equiv_pos_site_id
_symmetry_equiv_pos_as_xyz
1 x,y,z
2 -x,1/2+y,-z
_cell_length_a                   10.575(5)
_cell_length_b                   6.873(5)
_cell_length_c                   10.754(5)
_cell_angle_alpha                90.000(5)
_cell_angle_beta                 109.600(5)
_cell_angle_gamma                90.000(5)
_cell_volume                     736.333
_exptl_crystal_colour            colorless
_exptl_crystal_description       prism
_chemical_melting_point          73-74deg.C
_cell_formula_units_Z            2
loop_
_atom_site_label
_atom_site_type_symbol
_atom_site_fract_x
_atom_site_fract_y
_atom_site_fract_z
S1 S 0.21658(8) -0.16323(15) -0.07897(7)
O1 O 0.2937(3) 0.0169(6) -0.0861(4)
F1 F 0.3564(4) -0.2958(8) -0.4078(3)
F2 F 0.5285(3) -0.4537(8) -0.2865(4)
F3 F 0.3390(4) -0.5938(7) -0.3632(5)
N1 N 0.4095(4) -0.5076(9) -0.0828(5)
H1 H 0.498(2) -0.519(17) -0.060(8)
H2 H 0.387(7) -0.630(5) -0.109(7)
C1 C 0.3966(5) -0.4296(10) -0.3114(6)
C2 C 0.3686(4) -0.3664(7) -0.1884(4)
H3 H 0.4216 -0.2486 -0.1560
C3 C 0.2198(4) -0.3102(6) -0.2203(4)
H4 H 0.1941 -0.2260 -0.2984
C4 C 0.1198(4) -0.4791(6) -0.2477(4)
H5 H 0.1685 -0.6010 -0.2368
H6 H 0.0736 -0.4760 -0.1835
C5 C 0.0184(6) -0.4710(11) -0.3835(6)
H7 H 0.0507 -0.4908 -0.4530
C6 C -0.1058(6) -0.4405(12) -0.4143(7)
H8 H -0.1435 -0.4198 -0.3487
H9 H -0.1599 -0.4387 -0.5026
C7 C 0.0425(3) -0.1003(6) -0.1378(3)
C8 C -0.0390(4) -0.1815(7) -0.0745(4)
H10 H -0.0036 -0.2677 -0.0048
C9 C -0.1738(4) -0.1333(8) -0.1159(4)
H11 H -0.2296 -0.1892 -0.0750
C10 C -0.2260(4) -0.0022(7) -0.2181(4)
C11 C -0.1431(4) 0.0776(7) -0.2807(4)
H12 H -0.1781 0.1632 -0.3509
C12 C -0.0076(4) 0.0298(6) -0.2386(4)
H13 H 0.0487 0.0860 -0.2788
C13 C -0.3744(5) 0.0526(13) -0.2632(7)
H14 H -0.4200 -0.0062 -0.3473
H15 H -0.3833 0.1915 -0.2709
H16 H -0.4133 0.0070 -0.1996
loop_
_geom_bond_atom_site_label_1
_geom_bond_atom_site_label_2
_geom_bond_site_symmetry_1
_geom_bond_site_symmetry_2
S1 O1 1_555 1_555
F1 C1 1_555 1_555
F2 C1 1_555 1_555
F3 C1 1_555 1_555
N1 H1 1_555 1_555
H2 N1 1_555 1_555
C1 C2 1_555 1_555
C2 N1 1_555 1_555
H3 C2 1_555 1_555
C3 S1 1_555 1_555
H4 C3 1_555 1_555
C4 C3 1_555 1_555
H5 C4 1_555 1_555
H6 C4 1_555 1_555
C5 C4 1_555 1_555
H7 C5 1_555 1_555
C6 C5 1_555 1_555
H8 C6 1_555 1_555
H9 C6 1_555 1_555
C7 S1 1_555 1_555
C8 C7 1_555 1_555
H10 C8 1_555 1_555
C9 C8 1_555 1_555
H11 C9 1_555 1_555
C10 C9 1_555 1_555
C11 C10 1_555 1_555
H12 C11 1_555 1_555
C12 C7 1_555 1_555
H13 C12 1_555 1_555
C13 C10 1_555 1_555
H14 C13 1_555 1_555
H15 C13 1_555 1_555
H16 C13 1_555 1_555
C2 C3 1_555 1_555
C11 C12 1_555 1_555

#END
