
#######################################################################
#
#                 Cambridge Crystallographic Data Centre
#                                CCDC 
#
#######################################################################
#
# If this CIF has been generated from an entry in the Cambridge 
# Structural Database, then it will include bibliographic, chemical, 
# crystal, experimental, refinement or atomic coordinate data resulting 
# from the CCDC's data processing and validation procedures.
#
#######################################################################

data_BOVROV
_chemical_formula_moiety         'C21 H14 I1 N1 O2 S1'
_chemical_name_systematic        
'3-(1-Iodo-2,2-diphenylvinyl)-1,2-benzothiazole 1,1-dioxide'
_symmetry_cell_setting           triclinic
_symmetry_space_group_name_H-M   'P -1'
_symmetry_Int_Tables_number      2
_space_group_name_Hall           '-P 1'
loop_
_symmetry_equiv_pos_site_id
_symmetry_equiv_pos_as_xyz
1 x,y,z
2 -x,-y,-z
_cell_length_a                   8.1950(5)
_cell_length_b                   10.1773(6)
_cell_length_c                   11.9407(8)
_cell_angle_alpha                86.942(5)
_cell_angle_beta                 83.912(5)
_cell_angle_gamma                76.661(5)
_cell_volume                     963.128
_exptl_crystal_colour            yellow
_exptl_crystal_description       block
_cell_formula_units_Z            2
loop_
_atom_site_label
_atom_site_type_symbol
_atom_site_fract_x
_atom_site_fract_y
_atom_site_fract_z
I1 I 0.74860(3) 0.13832(2) -0.050857(18)
S1 S 0.91934(11) 0.07668(10) 0.32903(8)
O1 O 0.9205(4) 0.1645(3) 0.4176(3)
O2 O 1.0729(3) -0.0135(3) 0.2903(2)
N1 N 0.8438(4) 0.1703(3) 0.2175(3)
C1 C 0.7532(4) -0.0065(3) 0.3553(3)
C2 C 0.7312(4) -0.1072(3) 0.4328(3)
H1 H 0.8105 -0.1418 0.4833
C3 C 0.5862(5) -0.1551(4) 0.4325(3)
H2 H 0.5666 -0.2226 0.4843
C4 C 0.4701(5) -0.1035(3) 0.3561(3)
H3 H 0.3738 -0.1374 0.3573
C5 C 0.4944(4) -0.0028(3) 0.2781(3)
H4 H 0.4156 0.0315 0.2272
C6 C 0.6373(4) 0.0454(3) 0.2778(3)
C7 C 0.7019(4) 0.1463(3) 0.2006(3)
C8 C 0.6108(4) 0.2055(3) 0.1020(3)
C9 C 0.4566(4) 0.2890(3) 0.1113(3)
C10 C 0.3874(4) 0.3510(3) 0.2211(3)
C11 C 0.4723(5) 0.4300(4) 0.2716(3)
H5 H 0.5786 0.4375 0.2401
C12 C 0.4021(7) 0.4984(5) 0.3683(4)
H6 H 0.4596 0.5534 0.4003
C13 C 0.2473(7) 0.4848(5) 0.4171(4)
H7 H 0.2002 0.5299 0.4827
C14 C 0.1631(5) 0.4053(4) 0.3694(4)
H8 H 0.0593 0.3946 0.4035
C15 C 0.2298(5) 0.3408(4) 0.2718(3)
H9 H 0.1688 0.2892 0.2389
C16 C 0.3496(4) 0.3315(3) 0.0168(3)
C17 C 0.3102(5) 0.2374(3) -0.0485(3)
H10 H 0.3571 0.1461 -0.0365
C18 C 0.2021(5) 0.2770(4) -0.1317(4)
H11 H 0.1753 0.2126 -0.1745
C19 C 0.1342(5) 0.4126(4) -0.1509(3)
H12 H 0.0638 0.4402 -0.2079
C20 C 0.1710(5) 0.5060(4) -0.0858(3)
H13 H 0.1240 0.5972 -0.0982
C21 C 0.2770(4) 0.4667(3) -0.0018(3)
H14 H 0.2998 0.5315 0.0425
loop_
_geom_bond_atom_site_label_1
_geom_bond_atom_site_label_2
_geom_bond_site_symmetry_1
_geom_bond_site_symmetry_2
I1 C8 1_555 1_555
S1 O1 1_555 1_555
O2 S1 1_555 1_555
N1 S1 1_555 1_555
C1 S1 1_555 1_555
C2 C1 1_555 1_555
H1 C2 1_555 1_555
C3 C2 1_555 1_555
H2 C3 1_555 1_555
C4 C3 1_555 1_555
H3 C4 1_555 1_555
C5 C4 1_555 1_555
H4 C5 1_555 1_555
C6 C1 1_555 1_555
C7 N1 1_555 1_555
C8 C7 1_555 1_555
C9 C8 1_555 1_555
C10 C9 1_555 1_555
C11 C10 1_555 1_555
H5 C11 1_555 1_555
C12 C11 1_555 1_555
H6 C12 1_555 1_555
C13 C12 1_555 1_555
H7 C13 1_555 1_555
C14 C13 1_555 1_555
H8 C14 1_555 1_555
C15 C10 1_555 1_555
H9 C15 1_555 1_555
C16 C9 1_555 1_555
C17 C16 1_555 1_555
H10 C17 1_555 1_555
C18 C17 1_555 1_555
H11 C18 1_555 1_555
C19 C18 1_555 1_555
H12 C19 1_555 1_555
C20 C19 1_555 1_555
H13 C20 1_555 1_555
C21 C16 1_555 1_555
H14 C21 1_555 1_555
C5 C6 1_555 1_555
C6 C7 1_555 1_555
C14 C15 1_555 1_555
C20 C21 1_555 1_555

#END
