
#######################################################################
#
#                 Cambridge Crystallographic Data Centre
#                                CCDC 
#
#######################################################################
#
# If this CIF has been generated from an entry in the Cambridge 
# Structural Database, then it will include bibliographic, chemical, 
# crystal, experimental, refinement or atomic coordinate data resulting 
# from the CCDC's data processing and validation procedures.
#
#######################################################################

data_BOVRIP
_chemical_formula_moiety         'C22 H16 I1 N1 O2 S1'
_chemical_name_systematic        
"2'-Iodo-2-methyl-3'-phenylspiro[1,2-benzothiazole-3,1'-indene] 1,1-dioxide"
_symmetry_cell_setting           monoclinic
_symmetry_space_group_name_H-M   'P 21/c'
_symmetry_Int_Tables_number      14
_space_group_name_Hall           '-P 2ybc'
loop_
_symmetry_equiv_pos_site_id
_symmetry_equiv_pos_as_xyz
1 x,y,z
2 -x,1/2+y,1/2-z
3 -x,-y,-z
4 x,1/2-y,1/2+z
_cell_length_a                   8.0428(5)
_cell_length_b                   19.5870(8)
_cell_length_c                   12.8121(7)
_cell_angle_alpha                90
_cell_angle_beta                 104.921(6)
_cell_angle_gamma                90
_cell_volume                     1950.29
_exptl_crystal_colour            colorless
_exptl_crystal_description       block
_cell_formula_units_Z            4
loop_
_atom_site_label
_atom_site_type_symbol
_atom_site_fract_x
_atom_site_fract_y
_atom_site_fract_z
I1 I 0.08164(3) 0.505747(12) 0.852743(19)
S1 S 0.46690(14) 0.53398(6) 0.66421(8)
O1 O 0.4730(6) 0.46202(18) 0.6615(3)
O2 O 0.6058(4) 0.5689(2) 0.6348(3)
N1 N 0.4475(4) 0.55954(15) 0.7812(2)
C1 C 0.2697(5) 0.56845(17) 0.5950(3)
C2 C 0.1830(5) 0.5576(2) 0.4886(3)
H1 H 0.2284 0.5298 0.4440
C3 C 0.0274(6) 0.5893(2) 0.4513(3)
H2 H -0.0354 0.5822 0.3803
C4 C -0.0380(5) 0.6318(2) 0.5174(3)
H3 H -0.1430 0.6535 0.4900
C5 C 0.0511(5) 0.64213(19) 0.6235(3)
H4 H 0.0065 0.6705 0.6679
C6 C 0.2066(4) 0.61003(16) 0.6628(3)
C7 C 0.3176(4) 0.61190(16) 0.7786(3)
C8 C 0.3891(4) 0.68250(16) 0.8161(3)
C9 C 0.3234(4) 0.70380(16) 0.9015(3)
C10 C 0.2092(4) 0.64986(16) 0.9248(2)
C11 C 0.2099(4) 0.59784(16) 0.8587(3)
C12 C 0.4999(4) 0.72337(18) 0.7785(3)
H5 H 0.5442 0.7091 0.7219
C13 C 0.5443(5) 0.78639(19) 0.8272(3)
H6 H 0.6189 0.8147 0.8026
C14 C 0.4791(5) 0.80779(18) 0.9117(3)
H7 H 0.5104 0.8502 0.9434
C15 C 0.3675(5) 0.76631(17) 0.9495(3)
H8 H 0.3234 0.7805 1.0063
C16 C 0.5850(5) 0.5471(2) 0.8775(3)
H9 H 0.6250 0.5010 0.8767
H10 H 0.5429 0.5540 0.9404
H11 H 0.6782 0.5781 0.8793
C17 C 0.1122(4) 0.65812(16) 1.0077(3)
C18 C -0.0580(5) 0.6771(2) 0.9786(3)
H12 H -0.1133 0.6832 0.9059
C19 C -0.1487(6) 0.6874(2) 1.0560(4)
H13 H -0.2639 0.7002 1.0353
C20 C -0.0671(6) 0.6785(2) 1.1630(4)
H14 H -0.1265 0.6857 1.2155
C21 C 0.1009(6) 0.6590(2) 1.1926(3)
H15 H 0.1550 0.6523 1.2653
C22 C 0.1922(5) 0.6491(2) 1.1161(3)
H16 H 0.3074 0.6364 1.1375
loop_
_geom_bond_atom_site_label_1
_geom_bond_atom_site_label_2
_geom_bond_site_symmetry_1
_geom_bond_site_symmetry_2
I1 C11 1_555 1_555
S1 O1 1_555 1_555
O2 S1 1_555 1_555
N1 S1 1_555 1_555
C1 S1 1_555 1_555
C2 C1 1_555 1_555
H1 C2 1_555 1_555
C3 C2 1_555 1_555
H2 C3 1_555 1_555
C4 C3 1_555 1_555
H3 C4 1_555 1_555
C5 C4 1_555 1_555
H4 C5 1_555 1_555
C6 C1 1_555 1_555
C7 N1 1_555 1_555
C8 C7 1_555 1_555
C9 C8 1_555 1_555
C10 C9 1_555 1_555
C11 C7 1_555 1_555
C12 C8 1_555 1_555
H5 C12 1_555 1_555
C13 C12 1_555 1_555
H6 C13 1_555 1_555
C14 C13 1_555 1_555
H7 C14 1_555 1_555
C15 C9 1_555 1_555
H8 C15 1_555 1_555
C16 N1 1_555 1_555
H9 C16 1_555 1_555
H10 C16 1_555 1_555
H11 C16 1_555 1_555
C17 C10 1_555 1_555
C18 C17 1_555 1_555
H12 C18 1_555 1_555
C19 C18 1_555 1_555
H13 C19 1_555 1_555
C20 C19 1_555 1_555
H14 C20 1_555 1_555
C21 C20 1_555 1_555
H15 C21 1_555 1_555
C22 C17 1_555 1_555
H16 C22 1_555 1_555
C5 C6 1_555 1_555
C6 C7 1_555 1_555
C10 C11 1_555 1_555
C14 C15 1_555 1_555
C21 C22 1_555 1_555

#END
