
#######################################################################
#
#                 Cambridge Crystallographic Data Centre
#                                CCDC 
#
#######################################################################
#
# If this CIF has been generated from an entry in the Cambridge 
# Structural Database, then it will include bibliographic, chemical, 
# crystal, experimental, refinement or atomic coordinate data resulting 
# from the CCDC's data processing and validation procedures.
#
#######################################################################

data_BOVSEM
_chemical_formula_moiety         'C21 H20 Cl1 N1 O3'
_chemical_name_systematic        
'Ethyl 5-(4-chlorophenyl)-2-((4-methylphenyl)amino)-3-oxocyclopent-1-ene-1-carboxylate'
_symmetry_cell_setting           monoclinic
_symmetry_space_group_name_H-M   'P 21/c'
_symmetry_Int_Tables_number      14
_space_group_name_Hall           '-P 2ybc'
loop_
_symmetry_equiv_pos_site_id
_symmetry_equiv_pos_as_xyz
1 x,y,z
2 -x,1/2+y,1/2-z
3 -x,-y,-z
4 x,1/2-y,1/2+z
_cell_length_a                   15.6314(15)
_cell_length_b                   21.884(2)
_cell_length_c                   11.7948(12)
_cell_angle_alpha                90
_cell_angle_beta                 108.565(2)
_cell_angle_gamma                90
_cell_volume                     3824.78
_exptl_crystal_colour            white
_exptl_crystal_description       block
_cell_formula_units_Z            8
loop_
_atom_site_label
_atom_site_type_symbol
_atom_site_fract_x
_atom_site_fract_y
_atom_site_fract_z
H1 H 0.6230(15) 0.2377(10) 0.1570(19)
C1 C 0.67985(14) 0.32606(10) 0.3911(2)
H2 H 0.7406 0.3319 0.4002
C2 C 0.64466(15) 0.35153(11) 0.4734(2)
H3 H 0.6809 0.3747 0.5366
C3 C 0.55543(16) 0.34222(11) 0.4606(2)
C4 C 0.50146(16) 0.30855(14) 0.3676(3)
H4 H 0.4409 0.3026 0.3594
C5 C 0.53802(15) 0.28345(13) 0.2858(2)
H5 H 0.5016 0.2602 0.2229
C6 C 0.62743(13) 0.29215(10) 0.29573(19)
C7 C 0.66615(15) 0.26665(11) 0.2020(2)
C8 C 0.68518(14) 0.31590(11) 0.12373(19)
C9 C 0.77424(14) 0.32247(10) 0.13782(19)
C10 C 0.82661(15) 0.27804(10) 0.23050(19)
C11 C 0.75875(14) 0.23547(10) 0.2553(2)
H6 H 0.7724 0.2294 0.3407
H7 H 0.7593 0.1961 0.2178
C12 C 0.89888(14) 0.36824(10) 0.07547(18)
C13 C 0.93707(15) 0.31801(10) 0.04024(19)
H8 H 0.9068 0.2808 0.0280
C14 C 1.02013(15) 0.32273(11) 0.02309(19)
H9 H 1.0454 0.2883 0.0001
C15 C 1.06651(16) 0.37733(12) 0.03929(19)
C16 C 1.02709(17) 0.42698(12) 0.0740(2)
H10 H 1.0571 0.4643 0.0859
C17 C 0.94476(17) 0.42288(11) 0.0916(2)
H11 H 0.9197 0.4573 0.1147
C18 C 1.15742(18) 0.38269(15) 0.0209(3)
H12 H 1.1539 0.4120 -0.0410
H13 H 1.1747 0.3437 -0.0021
H14 H 1.2015 0.3958 0.0939
C19 C 0.61702(17) 0.35485(16) 0.0436(2)
C20 C 0.4614(2) 0.3760(2) -0.0428(4)
H15 H 0.4756 0.4185 -0.0226
H16 H 0.4572 0.3701 -0.1259
C21 C 0.3800(2) 0.3616(2) -0.0273(4)
H17 H 0.3648 0.3199 -0.0506
H18 H 0.3339 0.3881 -0.0759
H19 H 0.3846 0.3668 0.0552
Cl1 Cl 0.50998(5) 0.37298(4) 0.56528(7)
H20 H 0.773(2) 0.3914(14) 0.049(3)
N1 N 0.81182(14) 0.36647(11) 0.0885(2)
O1 O 0.53325(12) 0.33724(11) 0.03328(17)
O2 O 0.63346(13) 0.39895(12) -0.0079(2)
O3 O 0.90658(10) 0.27787(7) 0.27848(14)
H21 H 1.1556(13) 0.3693(8) 0.7505(18)
C22 C 1.20022(14) 0.31087(9) 0.39665(19)
C23 C 1.11113(14) 0.32659(9) 0.37278(19)
H22 H 1.0709 0.3235 0.2956
C24 C 1.08232(13) 0.34707(9) 0.46492(18)
H23 H 1.0221 0.3580 0.4492
C25 C 1.14106(12) 0.35175(8) 0.58030(17)
C26 C 1.23065(13) 0.33694(9) 0.60069(18)
H24 H 1.2715 0.3410 0.6773
C27 C 1.26074(14) 0.31623(10) 0.5095(2)
H25 H 1.3211 0.3061 0.5244
C28 C 1.10752(14) 0.37054(9) 0.68317(19)
C29 C 1.06508(12) 0.43306(9) 0.66960(17)
C30 C 0.97600(13) 0.43171(9) 0.65763(17)
C31 C 0.94707(14) 0.36620(9) 0.64925(18)
C32 C 1.03135(13) 0.32873(9) 0.6945(2)
H26 H 1.0270 0.2921 0.6466
H27 H 1.0421 0.3170 0.7771
C33 C 0.83728(13) 0.48329(9) 0.66777(18)
C34 C 0.81967(14) 0.44699(10) 0.75389(18)
H28 H 0.8613 0.4176 0.7941
C35 C 0.74037(15) 0.45441(11) 0.7801(2)
H29 H 0.7285 0.4290 0.8366
C36 C 0.67794(15) 0.49874(11) 0.7244(2)
C37 C 0.69743(15) 0.53474(11) 0.6404(2)
H30 H 0.6568 0.5650 0.6020
C38 C 0.77532(15) 0.52720(10) 0.6116(2)
H31 H 0.7862 0.5520 0.5536
C39 C 0.59189(19) 0.50777(15) 0.7557(3)
H32 H 0.5868 0.5499 0.7756
H33 H 0.5935 0.4825 0.8229
H34 H 0.5409 0.4967 0.6884
C40 C 1.11365(13) 0.48925(10) 0.66540(18)
C41 C 1.25644(15) 0.53344(11) 0.6875(3)
H35 H 1.2473 0.5657 0.7390
H36 H 1.2393 0.5488 0.6062
C42 C 1.35269(17) 0.51377(15) 0.7275(4)
H37 H 1.3697 0.5006 0.8093
H38 H 1.3902 0.5474 0.7208
H39 H 1.3603 0.4806 0.6782
Cl2 Cl 1.23707(5) 0.28334(3) 0.28153(6)
H40 H 0.9423(15) 0.5146(11) 0.629(2)
N2 N 0.91855(11) 0.47986(9) 0.63976(17)
O4 O 1.20266(9) 0.48027(6) 0.69403(14)
O5 O 1.07840(10) 0.53906(7) 0.64009(14)
O6 O 0.87064(10) 0.34779(7) 0.60673(15)
loop_
_geom_bond_atom_site_label_1
_geom_bond_atom_site_label_2
_geom_bond_site_symmetry_1
_geom_bond_site_symmetry_2
H1 C7 1_555 1_555
C1 H2 1_555 1_555
C2 C1 1_555 1_555
H3 C2 1_555 1_555
C3 C2 1_555 1_555
C4 C3 1_555 1_555
H4 C4 1_555 1_555
C5 C4 1_555 1_555
H5 C5 1_555 1_555
C6 C1 1_555 1_555
C7 C6 1_555 1_555
C8 C7 1_555 1_555
C9 C8 1_555 1_555
C10 C9 1_555 1_555
C11 C7 1_555 1_555
H6 C11 1_555 1_555
H7 C11 1_555 1_555
C12 C13 1_555 1_555
C13 H8 1_555 1_555
C14 C13 1_555 1_555
H9 C14 1_555 1_555
C15 C14 1_555 1_555
C16 C15 1_555 1_555
H10 C16 1_555 1_555
C17 C12 1_555 1_555
H11 C17 1_555 1_555
C18 C15 1_555 1_555
H12 C18 1_555 1_555
H13 C18 1_555 1_555
H14 C18 1_555 1_555
C19 C8 1_555 1_555
C20 H15 1_555 1_555
H16 C20 1_555 1_555
C21 C20 1_555 1_555
H17 C21 1_555 1_555
H18 C21 1_555 1_555
H19 C21 1_555 1_555
Cl1 C3 1_555 1_555
H20 N1 1_555 1_555
N1 C9 1_555 1_555
O1 C19 1_555 1_555
O2 C19 1_555 1_555
O3 C10 1_555 1_555
H21 C28 1_555 1_555
C22 C23 1_555 1_555
C23 H22 1_555 1_555
C24 C23 1_555 1_555
H23 C24 1_555 1_555
C25 C24 1_555 1_555
C26 C25 1_555 1_555
H24 C26 1_555 1_555
C27 C22 1_555 1_555
H25 C27 1_555 1_555
C28 C25 1_555 1_555
C29 C28 1_555 1_555
C30 C29 1_555 1_555
C31 C30 1_555 1_555
C32 C28 1_555 1_555
H26 C32 1_555 1_555
H27 C32 1_555 1_555
C33 C34 1_555 1_555
C34 H28 1_555 1_555
C35 C34 1_555 1_555
H29 C35 1_555 1_555
C36 C35 1_555 1_555
C37 C36 1_555 1_555
H30 C37 1_555 1_555
C38 C33 1_555 1_555
H31 C38 1_555 1_555
C39 C36 1_555 1_555
H32 C39 1_555 1_555
H33 C39 1_555 1_555
H34 C39 1_555 1_555
C40 C29 1_555 1_555
C41 H35 1_555 1_555
H36 C41 1_555 1_555
C42 C41 1_555 1_555
H37 C42 1_555 1_555
H38 C42 1_555 1_555
H39 C42 1_555 1_555
Cl2 C22 1_555 1_555
H40 N2 1_555 1_555
N2 C30 1_555 1_555
O4 C40 1_555 1_555
O5 C40 1_555 1_555
O6 C31 1_555 1_555
C5 C6 1_555 1_555
C10 C11 1_555 1_555
C12 N1 1_555 1_555
C16 C17 1_555 1_555
C20 O1 1_555 1_555
C26 C27 1_555 1_555
C31 C32 1_555 1_555
C33 N2 1_555 1_555
C37 C38 1_555 1_555
C41 O4 1_555 1_555

#END
