
#######################################################################
#
#                 Cambridge Crystallographic Data Centre
#                                CCDC 
#
#######################################################################
#
# If this CIF has been generated from an entry in the Cambridge 
# Structural Database, then it will include bibliographic, chemical, 
# crystal, experimental, refinement or atomic coordinate data resulting 
# from the CCDC's data processing and validation procedures.
#
#######################################################################

data_BOVTIR
_chemical_formula_moiety         'C21 H17 Br1 O4'
_chemical_name_systematic        
'Ethyl (4-(3-bromophenyl)-3,4-dihydro-2H-pyrano[3,2-b][1]benzofuran-2-ylidene)acetate'
_symmetry_cell_setting           orthorhombic
_symmetry_space_group_name_H-M   'P 21 21 21'
_symmetry_Int_Tables_number      19
_space_group_name_Hall           'P 2ac 2ab'
loop_
_symmetry_equiv_pos_site_id
_symmetry_equiv_pos_as_xyz
1 x,y,z
2 1/2-x,-y,1/2+z
3 -x,1/2+y,1/2-z
4 1/2+x,1/2-y,-z
_cell_length_a                   4.7635(10)
_cell_length_b                   11.629(2)
_cell_length_c                   32.705(7)
_cell_angle_alpha                90
_cell_angle_beta                 90
_cell_angle_gamma                90
_cell_volume                     1811.69
_cell_formula_units_Z            4
loop_
_atom_site_label
_atom_site_type_symbol
_atom_site_fract_x
_atom_site_fract_y
_atom_site_fract_z
Br1 Br 0.54945(6) -0.33144(2) 0.772916(8)
O1 O 0.0149(3) -0.06924(11) 0.90669(4)
O2 O 0.2039(4) 0.22458(13) 0.92537(5)
O3 O 0.8533(3) 0.34662(14) 0.84226(5)
O4 O 0.8727(3) 0.48808(13) 0.88947(5)
C1 C 0.0787(5) 0.01159(18) 0.79952(6)
H1 H -0.0235 0.0798 0.8054
C2 C 0.0149(5) -0.05176(18) 0.76477(6)
H2 H -0.1268 -0.0254 0.7466
C3 C 0.1565(5) -0.1532(2) 0.75640(7)
H3 H 0.1143 -0.1965 0.7326
C4 C 0.3598(5) -0.18996(18) 0.78339(7)
C5 C 0.4339(5) -0.12688(17) 0.81780(6)
H4 H 0.5784 -0.1529 0.8356
C6 C 0.2908(5) -0.02387(18) 0.82578(7)
C7 C 0.3684(5) 0.04373(18) 0.86449(6)
H5 H 0.5528 0.0145 0.8748
C8 C 0.1585(5) 0.03266(19) 0.89790(7)
C9 C -0.1491(5) -0.04405(19) 0.94056(7)
C10 C -0.3288(5) -0.1197(2) 0.95969(7)
H6 H -0.3518 -0.1966 0.9504
C11 C -0.4745(6) -0.0775(2) 0.99332(7)
H7 H -0.6036 -0.1262 1.0071
C12 C -0.4354(6) 0.0354(2) 1.00732(7)
H8 H -0.5332 0.0607 1.0310
C13 C -0.2575(5) 0.1105(2) 0.98738(7)
H9 H -0.2353 0.1874 0.9967
C14 C -0.1106(5) 0.07049(19) 0.95308(7)
C15 C 0.0892(5) 0.11536(19) 0.92456(6)
C16 C 0.4040(5) 0.24763(18) 0.89525(6)
C17 C 0.3954(5) 0.17501(18) 0.85702(6)
H10 H 0.5688 0.1894 0.8411
H11 H 0.2347 0.2004 0.8401
C18 C 0.5611(5) 0.34047(18) 0.90251(6)
H12 H 0.5339 0.3792 0.9278
C19 C 0.7713(5) 0.3871(2) 0.87467(7)
C20 C 1.0778(6) 0.54690(19) 0.86453(7)
H13 H 0.9866 0.5813 0.8402
H14 H 1.2240 0.4924 0.8552
C21 C 1.2064(7) 0.6393(2) 0.89071(9)
H15 H 1.2850 0.6047 0.9155
H16 H 1.0619 0.6955 0.8983
H17 H 1.3559 0.6780 0.8754
loop_
_geom_bond_atom_site_label_1
_geom_bond_atom_site_label_2
_geom_bond_site_symmetry_1
_geom_bond_site_symmetry_2
Br1 C4 1_555 1_555
O1 C8 1_555 1_555
O2 C15 1_555 1_555
O3 C19 1_555 1_555
O4 C19 1_555 1_555
C1 H1 1_555 1_555
C2 C1 1_555 1_555
H2 C2 1_555 1_555
C3 C2 1_555 1_555
H3 C3 1_555 1_555
C4 C3 1_555 1_555
C5 C4 1_555 1_555
H4 C5 1_555 1_555
C6 C1 1_555 1_555
C7 C6 1_555 1_555
H5 C7 1_555 1_555
C8 C7 1_555 1_555
C9 O1 1_555 1_555
C10 C9 1_555 1_555
H6 C10 1_555 1_555
C11 C10 1_555 1_555
H7 C11 1_555 1_555
C12 C11 1_555 1_555
H8 C12 1_555 1_555
C13 C12 1_555 1_555
H9 C13 1_555 1_555
C14 C9 1_555 1_555
C15 C8 1_555 1_555
C16 O2 1_555 1_555
C17 C7 1_555 1_555
H10 C17 1_555 1_555
H11 C17 1_555 1_555
C18 C16 1_555 1_555
H12 C18 1_555 1_555
C19 C18 1_555 1_555
C20 O4 1_555 1_555
H13 C20 1_555 1_555
H14 C20 1_555 1_555
C21 C20 1_555 1_555
H15 C21 1_555 1_555
H16 C21 1_555 1_555
H17 C21 1_555 1_555
C5 C6 1_555 1_555
C13 C14 1_555 1_555
C14 C15 1_555 1_555
C16 C17 1_555 1_555

#END
