
#######################################################################
#
#                 Cambridge Crystallographic Data Centre
#                                CCDC 
#
#######################################################################
#
# If this CIF has been generated from an entry in the Cambridge 
# Structural Database, then it will include bibliographic, chemical, 
# crystal, experimental, refinement or atomic coordinate data resulting 
# from the CCDC's data processing and validation procedures.
#
#######################################################################

data_BOVVIS
_chemical_formula_moiety         'C21 H21 O3 P1'
_chemical_name_systematic        tris(2-Methoxyphenyl)phosphine
_symmetry_cell_setting           monoclinic
_symmetry_space_group_name_H-M   'C 2/c'
_symmetry_Int_Tables_number      15
_space_group_name_Hall           '-C 2yn'
loop_
_symmetry_equiv_pos_site_id
_symmetry_equiv_pos_as_xyz
1 x,y,z
2 -x,y,1/2-z
3 1/2+x,1/2+y,z
4 1/2-x,1/2+y,1/2-z
5 -x,-y,-z
6 x,-y,1/2+z
7 1/2-x,1/2-y,-z
8 1/2+x,1/2-y,1/2+z
_cell_length_a                   29.5721(4)
_cell_length_b                   8.22010(10)
_cell_length_c                   14.9409(2)
_cell_angle_alpha                90
_cell_angle_beta                 96.3810(10)
_cell_angle_gamma                90
_cell_volume                     3609.42
_exptl_crystal_colour            colorless
_exptl_crystal_description       block
_cell_formula_units_Z            8
_exptl_crystal_recrystallization_method ethanol
loop_
_atom_site_label
_atom_site_type_symbol
_atom_site_fract_x
_atom_site_fract_y
_atom_site_fract_z
P1 P 0.11821(2) 0.85263(9) 0.07264(5)
O1 O 0.0996(2) 0.6755(7) -0.0927(3)
O2 O 0.21408(13) 0.8979(6) 0.1073(3)
O3 O 0.05865(9) 1.1130(3) 0.1131(2)
C1 C 0.13426(11) 0.6409(4) 0.0532(2)
C2 C 0.12437(10) 0.5761(4) -0.0329(2)
C3 C 0.13987(15) 0.4212(7) -0.0534(3)
H1 H 0.1340 0.3806 -0.1117
C4 C 0.16347(14) 0.3302(5) 0.0115(3)
H2 H 0.1740 0.2278 -0.0028
C5 C 0.1721(3) 0.3871(7) 0.0983(5)
H3 H 0.1869 0.3213 0.1430
C6 C 0.15860(11) 0.5437(4) 0.1188(2)
H4 H 0.1658 0.5843 0.1767
C7 C 0.14947(10) 0.8925(3) 0.18335(19)
C8 C 0.19597(13) 0.9198(5) 0.1871(3)
C9 C 0.2214(2) 0.9672(7) 0.2657(5)
H5 H 0.2525 0.9845 0.2666
C10 C 0.2007(2) 0.9887(5) 0.3428(4)
H6 H 0.2179 1.0208 0.3958
C11 C 0.1542(2) 0.9627(5) 0.3423(3)
H7 H 0.1401 0.9774 0.3944
C12 C 0.12902(13) 0.9143(4) 0.2622(2)
H8 H 0.0979 0.8962 0.2613
C13 C 0.05989(10) 0.8286(4) 0.1004(2)
C14 C 0.03431(14) 0.9685(5) 0.1150(3)
C15 C -0.01091(16) 0.9581(8) 0.1305(5)
H9 H -0.0270 1.0515 0.1421
C16 C -0.03183(13) 0.8085(6) 0.1288(4)
H10 H -0.0627 0.8052 0.1359
C17 C -0.00931(19) 0.6586(7) 0.1167(6)
H11 H -0.0231 0.5574 0.1198
C18 C 0.03710(13) 0.6805(5) 0.0990(3)
H12 H 0.0532 0.5881 0.0855
C19 C 0.09955(16) 0.6406(6) -0.1872(3)
H13 H 0.0864 0.7305 -0.2220
H14 H 0.0820 0.5442 -0.2021
H15 H 0.1302 0.6239 -0.2006
C20 C 0.25882(15) 0.9331(7) 0.1125(3)
H16 H 0.2702 0.9051 0.0567
H17 H 0.2749 0.8719 0.1607
H18 H 0.2632 1.0473 0.1238
C21 C 0.03439(3) 1.25999(10) 0.11792(5)
H19 H 0.0549 1.3502 0.1161
H20 H 0.0206 1.2631 0.1731
H21 H 0.0111 1.2667 0.0678
C22? C 0.26237(11) 1.0052(5) 0.1782(3)
C23? C 0.2480(2) 0.9209(8) 0.0934(3)
C24? C 0.20682(16) 0.8418(5) 0.0913(3)
C25? C 0.08356(10) 0.9123(4) 0.1363(2)
C26? C 0.03738(12) 0.8789(6) 0.1299(3)
C27? C 0.00492(17) 1.0010(8) 0.1214(5)
C28? C 0.01844(14) 1.1617(6) 0.1170(3)
C29? C 0.06457(16) 1.1998(7) 0.1235(4)
C30? C 0.09617(11) 1.0742(4) 0.1323(3)
C31? C 0.1803(2) 0.2818(5) 0.0964(4)
C32? C 0.11971(6) 0.65852(15) 0.03978(5)
C33? C 0.17636(17) 1.0245(6) 0.3812(3)
C34? C -0.0196(2) 0.6854(9) 0.1278(7)
C35? C 0.14037(6) 0.50871(15) 0.02601(5)
C36? C 0.13712(6) 0.43983(16) -0.05953(5)
C37? C 0.11634(11) 0.5190(5) -0.1325(3)
C38? C 0.0956(3) 0.6672(12) -0.1218(4)
C39? C 0.09754(11) 0.7356(5) -0.0366(2)
C40? C 0.17805(10) 0.8463(4) 0.15924(19)
C41? C 0.19367(11) 0.9314(4) 0.2379(2)
C42? C 0.23494(15) 1.0121(6) 0.2487(3)
H22? H 0.2907 1.0559 0.1854
H23? H 0.2652 0.9208 0.0450
H24? H 0.1974 0.7804 0.0404
H25? H -0.0258 0.9751 0.1188
H26? H -0.0032 1.2441 0.1098
H27? H 0.0741 1.3075 0.1219
H28? H 0.1269 1.0998 0.1356
H29? H 0.1903 0.2430 0.1560
H30? H 0.2055 0.2806 0.0609
H31? H 0.1565 0.2128 0.0690
H32? H 0.1524 1.0212 0.4195
H33? H 0.1814 1.1350 0.3639
H34? H 0.2038 0.9817 0.4130
H35? H -0.0245 0.5721 0.1389
H36? H -0.0340 0.7139 0.0692
H37? H -0.0323 0.7494 0.1726
H38? H 0.1495 0.3373 -0.0669
H39? H 0.1160 0.4736 -0.1896
H40? H 0.0806 0.7207 -0.1712
H41? H 0.0837 0.8357 -0.0300
H42? H 0.2442 1.0693 0.3012
O4? O 0.16399(2) 0.44061(9) 0.10141(7)
O5? O 0.16390(2) 0.92945(9) 0.30307(6)
O6? O 0.02690(3) 0.71548(10) 0.13196(9)
P2? P 0.12322(2) 0.74119(9) 0.15377(5)
loop_
_geom_bond_atom_site_label_1
_geom_bond_atom_site_label_2
_geom_bond_site_symmetry_1
_geom_bond_site_symmetry_2
P1 C1 1_555 1_555
O1 C2 1_555 1_555
O2 C8 1_555 1_555
O3 C14 1_555 1_555
C1 C2 1_555 1_555
C2 C3 1_555 1_555
C3 H1 1_555 1_555
C4 C3 1_555 1_555
H2 C4 1_555 1_555
C5 C4 1_555 1_555
H3 C5 1_555 1_555
C6 C1 1_555 1_555
H4 C6 1_555 1_555
C7 P1 1_555 1_555
C8 C7 1_555 1_555
C9 C8 1_555 1_555
H5 C9 1_555 1_555
C10 C9 1_555 1_555
H6 C10 1_555 1_555
C11 C10 1_555 1_555
H7 C11 1_555 1_555
C12 C7 1_555 1_555
H8 C12 1_555 1_555
C13 P1 1_555 1_555
C14 C13 1_555 1_555
C15 C14 1_555 1_555
H9 C15 1_555 1_555
C16 C15 1_555 1_555
H10 C16 1_555 1_555
C17 C16 1_555 1_555
H11 C17 1_555 1_555
C18 C13 1_555 1_555
H12 C18 1_555 1_555
C19 O1 1_555 1_555
H13 C19 1_555 1_555
H14 C19 1_555 1_555
H15 C19 1_555 1_555
C20 O2 1_555 1_555
H16 C20 1_555 1_555
H17 C20 1_555 1_555
H18 C20 1_555 1_555
C21 O3 1_555 1_555
H19 C21 1_555 1_555
H20 C21 1_555 1_555
H21 C21 1_555 1_555
C5 C6 1_555 1_555
C11 C12 1_555 1_555
C17 C18 1_555 1_555

#END
