
#######################################################################
#
#                 Cambridge Crystallographic Data Centre
#                                CCDC 
#
#######################################################################
#
# If this CIF has been generated from an entry in the Cambridge 
# Structural Database, then it will include bibliographic, chemical, 
# crystal, experimental, refinement or atomic coordinate data resulting 
# from the CCDC's data processing and validation procedures.
#
#######################################################################

data_BOVYOB
_chemical_name_common            
'11-oxo-2,3-(oxydinitrilo)olean-12-en-29-oic acid'
_chemical_formula_moiety         'C30 H42 N2 O4'
_chemical_name_systematic        '1,2,5-Oxadiazolo[3,4-b]glycyrrhetinic acid'
_symmetry_cell_setting           orthorhombic
_symmetry_space_group_name_H-M   'P 21 21 21'
_symmetry_Int_Tables_number      19
_space_group_name_Hall           'P 2ac 2ab'
loop_
_symmetry_equiv_pos_site_id
_symmetry_equiv_pos_as_xyz
1 x,y,z
2 1/2-x,-y,1/2+z
3 -x,1/2+y,1/2-z
4 1/2+x,1/2-y,-z
_cell_length_a                   8.5489(11)
_cell_length_b                   10.9019(18)
_cell_length_c                   28.898(3)
_cell_angle_alpha                90
_cell_angle_beta                 90
_cell_angle_gamma                90
_cell_volume                     2693.27
_exptl_crystal_colour            colorless
_exptl_crystal_description       prism
_cell_formula_units_Z            4
_exptl_crystal_recrystallization_method chloroform/acetone
loop_
_atom_site_label
_atom_site_type_symbol
_atom_site_fract_x
_atom_site_fract_y
_atom_site_fract_z
O1 O 0.6409(6) -0.3844(3) 0.25922(12)
O2 O 0.4151(4) -0.0311(2) 0.41200(9)
O3 O 0.0227(4) 0.4128(3) 0.47645(11)
O4 O 0.0196(5) 0.6051(3) 0.50103(11)
H1 H -0.0380 0.5758 0.5208
N1 N 0.5282(6) -0.3188(3) 0.28470(14)
N2 N 0.7751(6) -0.3138(4) 0.25298(14)
C1 C 0.5253(6) -0.1096(4) 0.31919(14)
H2 H 0.4552 -0.1415 0.3427
H3 H 0.4653 -0.0574 0.2986
C2 C 0.5954(6) -0.2133(4) 0.29242(14)
C3 C 0.7457(6) -0.2096(4) 0.27309(14)
C4 C 0.8579(6) -0.1039(4) 0.27610(14)
C5 C 0.7758(5) 0.0033(4) 0.30352(13)
H4 H 0.7143 0.0485 0.2805
C6 C 0.8964(5) 0.0951(4) 0.32221(14)
H5 H 0.9502 0.0594 0.3485
H6 H 0.9734 0.1123 0.2985
C7 C 0.8171(5) 0.2144(4) 0.33693(14)
H7 H 0.7717 0.2530 0.3098
H8 H 0.8959 0.2696 0.3492
C8 C 0.6882(5) 0.1969(4) 0.37362(13)
C9 C 0.5807(5) 0.0872(3) 0.36035(13)
H9 H 0.5194 0.1173 0.3340
C10 C 0.6578(5) -0.0339(3) 0.34242(13)
C11 C 0.4616(5) 0.0705(4) 0.39885(14)
C12 C 0.3977(6) 0.1813(4) 0.41969(14)
H10 H 0.3130 0.1726 0.4396
C13 C 0.4519(5) 0.2939(3) 0.41227(13)
C14 C 0.5843(5) 0.3161(3) 0.37735(13)
C15 C 0.6873(5) 0.4283(4) 0.39076(15)
H11 H 0.7681 0.4011 0.4119
H12 H 0.7386 0.4587 0.3631
C16 C 0.5968(5) 0.5356(3) 0.41356(14)
H13 H 0.6712 0.5968 0.4240
H14 H 0.5302 0.5737 0.3905
C17 C 0.4960(5) 0.4953(4) 0.45462(14)
C18 C 0.3760(5) 0.4008(3) 0.43689(13)
H15 H 0.3251 0.3666 0.4644
C19 C 0.2459(5) 0.4588(4) 0.40792(14)
H16 H 0.2902 0.4872 0.3789
H17 H 0.1690 0.3963 0.4007
C20 C 0.1633(5) 0.5660(4) 0.43147(15)
C21 C 0.2844(6) 0.6604(4) 0.44773(17)
H18 H 0.3316 0.6990 0.4209
H19 H 0.2319 0.7237 0.4655
C22 C 0.4116(6) 0.6038(4) 0.47708(16)
H20 H 0.3659 0.5766 0.5060
H21 H 0.4882 0.6666 0.4843
C23 C 1.0152(6) -0.1466(5) 0.29607(17)
H22 H 0.9998 -0.1769 0.3269
H23 H 1.0868 -0.0788 0.2967
H24 H 1.0573 -0.2107 0.2770
C24 C 0.8894(7) -0.0563(4) 0.22619(13)
H25 H 0.7932 -0.0282 0.2128
H26 H 0.9316 -0.1216 0.2077
H27 H 0.9629 0.0102 0.2273
C25 C 0.7345(5) -0.1141(4) 0.38010(14)
H28 H 0.7778 -0.1865 0.3662
H29 H 0.6572 -0.1373 0.4026
H30 H 0.8162 -0.0685 0.3950
C26 C 0.7706(5) 0.1700(4) 0.42047(13)
H31 H 0.8343 0.0980 0.4175
H32 H 0.6932 0.1570 0.4440
H33 H 0.8351 0.2386 0.4288
C27 C 0.5036(6) 0.3478(4) 0.33047(13)
H34 H 0.4405 0.4199 0.3342
H35 H 0.4387 0.2804 0.3210
H36 H 0.5820 0.3625 0.3073
C28 C 0.5997(6) 0.4369(4) 0.49226(14)
H37 H 0.5356 0.4117 0.5178
H38 H 0.6753 0.4958 0.5027
H39 H 0.6528 0.3668 0.4797
C29 C 0.0481(6) 0.6278(5) 0.39767(16)
H40 H -0.0275 0.5687 0.3873
H41 H 0.1045 0.6592 0.3715
H42 H -0.0046 0.6940 0.4131
C30 C 0.0645(5) 0.5169(4) 0.47178(15)
loop_
_geom_bond_atom_site_label_1
_geom_bond_atom_site_label_2
_geom_bond_site_symmetry_1
_geom_bond_site_symmetry_2
O1 N1 1_555 1_555
O2 C11 1_555 1_555
O3 C30 1_555 1_555
O4 H1 1_555 1_555
N1 C2 1_555 1_555
N2 O1 1_555 1_555
C1 H2 1_555 1_555
H3 C1 1_555 1_555
C2 C1 1_555 1_555
C3 N2 1_555 1_555
C4 C3 1_555 1_555
C5 C4 1_555 1_555
H4 C5 1_555 1_555
C6 C5 1_555 1_555
H5 C6 1_555 1_555
H6 C6 1_555 1_555
C7 C6 1_555 1_555
H7 C7 1_555 1_555
H8 C7 1_555 1_555
C8 C7 1_555 1_555
C9 C8 1_555 1_555
H9 C9 1_555 1_555
C10 C1 1_555 1_555
C11 C9 1_555 1_555
C12 C11 1_555 1_555
H10 C12 1_555 1_555
C13 C12 1_555 1_555
C14 C8 1_555 1_555
C15 C14 1_555 1_555
H11 C15 1_555 1_555
H12 C15 1_555 1_555
C16 C15 1_555 1_555
H13 C16 1_555 1_555
H14 C16 1_555 1_555
C17 C16 1_555 1_555
C18 C13 1_555 1_555
H15 C18 1_555 1_555
C19 C18 1_555 1_555
H16 C19 1_555 1_555
H17 C19 1_555 1_555
C20 C19 1_555 1_555
C21 C20 1_555 1_555
H18 C21 1_555 1_555
H19 C21 1_555 1_555
C22 C17 1_555 1_555
H20 C22 1_555 1_555
H21 C22 1_555 1_555
C23 C4 1_555 1_555
H22 C23 1_555 1_555
H23 C23 1_555 1_555
H24 C23 1_555 1_555
C24 C4 1_555 1_555
H25 C24 1_555 1_555
H26 C24 1_555 1_555
H27 C24 1_555 1_555
C25 C10 1_555 1_555
H28 C25 1_555 1_555
H29 C25 1_555 1_555
H30 C25 1_555 1_555
C26 C8 1_555 1_555
H31 C26 1_555 1_555
H32 C26 1_555 1_555
H33 C26 1_555 1_555
C27 C14 1_555 1_555
H34 C27 1_555 1_555
H35 C27 1_555 1_555
H36 C27 1_555 1_555
C28 C17 1_555 1_555
H37 C28 1_555 1_555
H38 C28 1_555 1_555
H39 C28 1_555 1_555
C29 C20 1_555 1_555
H40 C29 1_555 1_555
H41 C29 1_555 1_555
H42 C29 1_555 1_555
C30 O4 1_555 1_555
C2 C3 1_555 1_555
C5 C10 1_555 1_555
C9 C10 1_555 1_555
C13 C14 1_555 1_555
C17 C18 1_555 1_555
C20 C30 1_555 1_555
C21 C22 1_555 1_555

#END
