
#######################################################################
#
#                 Cambridge Crystallographic Data Centre
#                                CCDC 
#
#######################################################################
#
# If this CIF has been generated from an entry in the Cambridge 
# Structural Database, then it will include bibliographic, chemical, 
# crystal, experimental, refinement or atomic coordinate data resulting 
# from the CCDC's data processing and validation procedures.
#
#######################################################################

data_BOWBEW
_chemical_formula_moiety         '2(C26 H22 N2 O2),C12 H4 N4,2(C8 H10)'
_chemical_name_systematic        
"bis(1-(5-(9-anthryl)-3-(4-methoxyphenyl)-4,5-dihydro-1H-pyrazol-1-yl)ethanone) 2,2'-cyclohexa-2,5-diene-1,4-diylidenedimalononitrile p-xylene solvate"
_symmetry_cell_setting           triclinic
_symmetry_space_group_name_H-M   'P -1'
_symmetry_Int_Tables_number      2
_space_group_name_Hall           '-P 1'
loop_
_symmetry_equiv_pos_site_id
_symmetry_equiv_pos_as_xyz
1 x,y,z
2 -x,-y,-z
_cell_length_a                   9.891(2)
_cell_length_b                   10.764(2)
_cell_length_c                   16.536(3)
_cell_angle_alpha                94.48(3)
_cell_angle_beta                 99.67(3)
_cell_angle_gamma                101.93(3)
_cell_volume                     1686.37
_exptl_crystal_colour            black
_exptl_crystal_description       block
_cell_formula_units_Z            1
loop_
_atom_site_label
_atom_site_type_symbol
_atom_site_fract_x
_atom_site_fract_y
_atom_site_fract_z
C1 C 0.2319(2) 0.36453(18) 0.72387(11)
C2 C 0.1428(2) 0.26991(18) 0.75763(12)
C3 C -0.0072(2) 0.24857(19) 0.74180(13)
H1 H -0.0505 0.3004 0.7085
C4 C -0.0885(3) 0.1546(2) 0.77406(15)
H2 H -0.1858 0.1432 0.7623
C5 C -0.0274(4) 0.0742(2) 0.82498(18)
H3 H -0.0843 0.0093 0.8459
C6 C 0.1129(4) 0.0914(2) 0.84331(17)
H4 H 0.1525 0.0390 0.8779
C7 C 0.2032(3) 0.1888(2) 0.81075(14)
C8 C 0.3490(3) 0.2062(2) 0.83017(15)
H5 H 0.3874 0.1532 0.8647
C9 C 0.4387(3) 0.3002(2) 0.79969(14)
C10 C 0.5873(3) 0.3184(3) 0.82124(19)
H6 H 0.6247 0.2641 0.8552
C11 C 0.6757(3) 0.4116(4) 0.7942(2)
H7 H 0.7725 0.4210 0.8089
C12 C 0.6195(3) 0.4948(3) 0.74322(16)
H8 H 0.6801 0.5601 0.7249
C13 C 0.4777(2) 0.4812(3) 0.72026(14)
H9 H 0.4441 0.5377 0.6866
C14 C 0.3793(2) 0.3829(2) 0.74617(12)
C15 C 0.1703(2) 0.44131(17) 0.65908(11)
H10 H 0.2485 0.4961 0.6405
C16 C 0.0707(2) 0.36158(18) 0.58243(12)
H11 H 0.1096 0.3751 0.5329
H12 H 0.0528 0.2711 0.5888
C17 C -0.0616(2) 0.41146(18) 0.57919(12)
C18 C 0.1296(2) 0.62982(19) 0.74323(12)
C19 C 0.0299(3) 0.7147(2) 0.75553(15)
H13 H -0.0396 0.6731 0.7846
H14 H -0.0157 0.7312 0.7028
H15 H 0.0813 0.7940 0.7871
C20 C -0.1926(2) 0.36034(18) 0.51978(12)
C21 C -0.1979(2) 0.27424(19) 0.45246(13)
H16 H -0.1164 0.2486 0.4446
C22 C -0.3230(3) 0.2246(2) 0.39576(14)
H17 H -0.3242 0.1670 0.3506
C23 C -0.4438(3) 0.2614(2) 0.40715(14)
C24 C -0.4409(2) 0.3473(2) 0.47435(15)
H18 H -0.5229 0.3720 0.4824
C25 C -0.3172(2) 0.3963(2) 0.52935(14)
H19 H -0.3165 0.4548 0.5740
C26 C -0.5771(4) 0.1444(4) 0.27914(19)
H20 H -0.5095 0.1884 0.2497
H21 H -0.6696 0.1297 0.2459
H22 H -0.5556 0.0640 0.2909
N1 N 0.07938(16) 0.52407(14) 0.68755(9)
N2 N -0.05291(16) 0.50207(15) 0.63729(10)
O1 O -0.57216(18) 0.22106(19) 0.35520(11)
O2 O 0.25194(16) 0.65257(13) 0.78056(9)
C27 C 0.5341(2) 0.5945(2) -0.05134(13)
H23 H 0.5583 0.6576 -0.0850
C28 C 0.6023(2) 0.4590(2) 0.05500(12)
H24 H 0.6709 0.4329 0.0912
C29 C 0.6435(2) 0.55661(18) 0.00321(12)
C30 C 0.7833(2) 0.6104(2) 0.00609(13)
C31 C 0.8933(2) 0.5693(2) 0.05725(14)
C32 C 0.8236(2) 0.7094(2) -0.04388(16)
N3 N 0.8513(2) 0.7886(2) -0.08430(17)
N4 N 0.9788(2) 0.5326(2) 0.09754(13)
C27A C 0.4659(2) 0.4055(2) 0.05134(13)
H23A H 0.4417 0.3424 0.0850
C28A C 0.3977(2) 0.5410(2) -0.05500(12)
H24A H 0.3291 0.5671 -0.0912
C29A C 0.3565(2) 0.44339(18) -0.00321(12)
C30A C 0.2167(2) 0.3896(2) -0.00609(13)
C31A C 0.1067(2) 0.4307(2) -0.05725(14)
C32A C 0.1764(2) 0.2906(2) 0.04388(16)
N3A N 0.1487(2) 0.2114(2) 0.08430(17)
N4A N 0.0212(2) 0.4674(2) -0.09754(13)
C33 C 0.5582(3) 0.0958(2) 0.06327(14)
H25 H 0.5962 0.1601 0.1069
C34 C 0.6355(2) 0.0770(2) 0.00315(14)
C35 C 0.4255(3) 0.0210(2) 0.05983(14)
H26 H 0.3757 0.0369 0.1010
C36 C 0.7801(3) 0.1593(3) 0.00633(17)
H27 H 0.8469 0.1061 0.0061
H28 H 0.8062 0.2185 0.0558
H29 H 0.7792 0.2058 -0.0409
C33A C 0.4418(3) -0.0958(2) -0.06327(14)
H25A H 0.4038 -0.1601 -0.1069
C34A C 0.3645(2) -0.0770(2) -0.00315(14)
C35A C 0.5745(3) -0.0210(2) -0.05983(14)
H26A H 0.6243 -0.0369 -0.1010
C36A C 0.2199(3) -0.1593(3) -0.00633(17)
H27A H 0.1531 -0.1061 -0.0061
H28A H 0.1938 -0.2185 -0.0558
H29A H 0.2208 -0.2058 0.0409
C37 C 0.0499(10) 0.0090(4) 0.5830(4)
H30 H 0.0817 0.0172 0.6398
C38 C -0.0907(10) -0.0417(5) 0.5511(5)
H31 H -0.1496 -0.0722 0.5869
C39 C 0.1469(8) 0.0489(4) 0.5307(5)
C40 C 0.3009(8) 0.1030(5) 0.5646(4)
H32 H 0.3561 0.0634 0.5324
H33 H 0.3226 0.0864 0.6210
H34 H 0.3222 0.1936 0.5620
C37A C -0.0499(10) -0.0090(4) 0.4170(4)
H30A H -0.0817 -0.0172 0.3602
C38A C 0.0907(10) 0.0417(5) 0.4489(5)
H31A H 0.1496 0.0722 0.4131
C39A C -0.1469(8) -0.0489(4) 0.4693(5)
C40A C -0.3009(8) -0.1030(5) 0.4354(4)
H32A H -0.3561 -0.0634 0.4676
H33A H -0.3226 -0.0864 0.3790
H34A H -0.3222 -0.1936 0.4380
loop_
_geom_bond_atom_site_label_1
_geom_bond_atom_site_label_2
_geom_bond_site_symmetry_1
_geom_bond_site_symmetry_2
C1 C2 1_555 1_555
C2 C3 1_555 1_555
C3 H1 1_555 1_555
C4 C3 1_555 1_555
H2 C4 1_555 1_555
C5 C4 1_555 1_555
H3 C5 1_555 1_555
C6 C5 1_555 1_555
H4 C6 1_555 1_555
C7 C2 1_555 1_555
C8 C7 1_555 1_555
H5 C8 1_555 1_555
C9 C8 1_555 1_555
C10 C9 1_555 1_555
H6 C10 1_555 1_555
C11 C10 1_555 1_555
H7 C11 1_555 1_555
C12 C11 1_555 1_555
H8 C12 1_555 1_555
C13 C12 1_555 1_555
H9 C13 1_555 1_555
C14 C1 1_555 1_555
C15 C1 1_555 1_555
H10 C15 1_555 1_555
C16 C15 1_555 1_555
H11 C16 1_555 1_555
H12 C16 1_555 1_555
C17 C16 1_555 1_555
C18 C19 1_555 1_555
C19 H13 1_555 1_555
H14 C19 1_555 1_555
H15 C19 1_555 1_555
C20 C17 1_555 1_555
C21 C20 1_555 1_555
H16 C21 1_555 1_555
C22 C21 1_555 1_555
H17 C22 1_555 1_555
C23 C22 1_555 1_555
C24 C23 1_555 1_555
H18 C24 1_555 1_555
C25 C20 1_555 1_555
H19 C25 1_555 1_555
C26 H20 1_555 1_555
H21 C26 1_555 1_555
H22 C26 1_555 1_555
N1 C15 1_555 1_555
N2 C17 1_555 1_555
O1 C23 1_555 1_555
O2 C18 1_555 1_555
C27 H23 1_555 1_555
C28 H24 1_555 1_555
C29 C27 1_555 1_555
C30 C29 1_555 1_555
C31 C30 1_555 1_555
C32 C30 1_555 1_555
N3 C32 1_555 1_555
N4 C31 1_555 1_555
C33 H25 1_555 1_555
C34 C33 1_555 1_555
C35 C33 1_555 1_555
H26 C35 1_555 1_555
C36 C34 1_555 1_555
H27 C36 1_555 1_555
H28 C36 1_555 1_555
H29 C36 1_555 1_555
C37 H30 1_555 1_555
C38 C37 1_555 1_555
H31 C38 1_555 1_555
C39 C37 1_555 1_555
C40 C39 1_555 1_555
H32 C40 1_555 1_555
H33 C40 1_555 1_555
H34 C40 1_555 1_555
C27A C28 1_555 1_555
H23A C27A 1_555 1_555
C28A C27 1_555 1_555
H24A C28A 1_555 1_555
C29A C27A 1_555 1_555
C30A C29A 1_555 1_555
C31A C30A 1_555 1_555
C32A C30A 1_555 1_555
N3A C32A 1_555 1_555
N4A C31A 1_555 1_555
C33A H25A 1_555 1_555
C34A C35 1_555 1_555
C35A C34 1_555 1_555
H26A C35A 1_555 1_555
C36A C34A 1_555 1_555
H27A C36A 1_555 1_555
H28A C36A 1_555 1_555
H29A C36A 1_555 1_555
C37A H30A 1_555 1_555
C38A C39 1_555 1_555
H31A C38A 1_555 1_555
C39A C38 1_555 1_555
C40A C39A 1_555 1_555
H32A C40A 1_555 1_555
H33A C40A 1_555 1_555
H34A C40A 1_555 1_555
C6 C7 1_555 1_555
C9 C14 1_555 1_555
C13 C14 1_555 1_555
C18 N1 1_555 1_555
C24 C25 1_555 1_555
C26 O1 1_555 1_555
N1 N2 1_555 1_555
C28 C29 1_555 1_555
C28A C29A 1_555 1_555
C33A C34A 1_555 1_555
C33A C35A 1_555 1_555
C37A C38A 1_555 1_555
C37A C39A 1_555 1_555

#END
