
#######################################################################
#
#                 Cambridge Crystallographic Data Centre
#                                CCDC 
#
#######################################################################
#
# If this CIF has been generated from an entry in the Cambridge 
# Structural Database, then it will include bibliographic, chemical, 
# crystal, experimental, refinement or atomic coordinate data resulting 
# from the CCDC's data processing and validation procedures.
#
#######################################################################

data_BOWCOG
_chemical_formula_moiety         'C23 H25 N1 O6'
_chemical_name_systematic        
4',4',6,6-Tetramethyl-3-(3-nitrophenyl)-3,5,6,7-tetrahydro-spiro[benzofuran-2(4H),1'-cyclohexane]-2',4,6'-trione
_symmetry_cell_setting           monoclinic
_symmetry_space_group_name_H-M   'P 21/c'
_symmetry_Int_Tables_number      14
_space_group_name_Hall           '-P 2ybc'
loop_
_symmetry_equiv_pos_site_id
_symmetry_equiv_pos_as_xyz
1 x,y,z
2 -x,1/2+y,1/2-z
3 -x,-y,-z
4 x,1/2-y,1/2+z
_cell_length_a                   12.800(3)
_cell_length_b                   16.100(3)
_cell_length_c                   11.140(2)
_cell_angle_alpha                90
_cell_angle_beta                 113.93(3)
_cell_angle_gamma                90
_cell_volume                     2098.39
_chemical_melting_point          '201-203 deg.C'
_cell_formula_units_Z            4
loop_
_atom_site_label
_atom_site_type_symbol
_atom_site_fract_x
_atom_site_fract_y
_atom_site_fract_z
O1 O 0.3714(2) 0.1223(2) 0.4885(3)
O2 O 0.1025(3) 0.0636(2) 0.6401(4)
O3 O 0.2100(3) -0.22618(19) 0.5176(3)
O4 O 0.3149(2) 0.04227(16) 0.6608(3)
O5 O 0.1470(4) -0.0587(3) -0.0939(3)
O6 O 0.0167(3) -0.0873(2) -0.0266(3)
N1 N 0.1161(4) -0.0708(3) -0.0054(4)
C1 C 0.1557(5) 0.2609(3) 0.5005(5)
H1 H 0.1926 0.3036 0.4715
H2 H 0.2120 0.2311 0.5722
H3 H 0.1014 0.2857 0.5289
C2 C 0.0058(4) 0.2484(3) 0.2753(5)
H4 H 0.0422 0.2912 0.2461
H5 H -0.0489 0.2729 0.3034
H6 H -0.0324 0.2104 0.2045
C3 C 0.0949(4) 0.2019(3) 0.3888(4)
C4 C 0.1816(4) 0.1591(3) 0.3449(4)
H7 H 0.1416 0.1202 0.2746
H8 H 0.2178 0.2005 0.3112
C5 C 0.2701(3) 0.1143(2) 0.4557(4)
C6 C 0.2257(3) 0.0528(2) 0.5291(4)
C7 C 0.1176(3) 0.0825(3) 0.5446(4)
C8 C 0.0369(3) 0.1325(3) 0.4355(5)
H9 H -0.0187 0.1575 0.4633
H10 H -0.0040 0.0961 0.3621
C9 C 0.2012(3) -0.0392(2) 0.4673(4)
H11 H 0.1191 -0.0506 0.4344
C10 C 0.2624(3) -0.0892(2) 0.5891(4)
C11 C 0.2611(3) -0.1781(2) 0.6074(4)
C12 C 0.3243(4) -0.2074(3) 0.7464(5)
H12 H 0.3471 -0.2646 0.7440
H13 H 0.2716 -0.2068 0.7891
C13 C 0.4295(4) -0.1580(3) 0.8305(4)
C14 C 0.3969(4) -0.0651(3) 0.8249(4)
H14 H 0.3572 -0.0554 0.8817
H15 H 0.4657 -0.0315 0.8568
C15 C 0.3234(3) -0.0401(2) 0.6907(4)
C16 C 0.5229(4) -0.1676(4) 0.7787(5)
H16 H 0.4939 -0.1498 0.6888
H17 H 0.5456 -0.2248 0.7844
H18 H 0.5876 -0.1342 0.8304
C17 C 0.4758(5) -0.1876(3) 0.9735(5)
H19 H 0.4175 -0.1817 1.0064
H20 H 0.5410 -0.1547 1.0258
H21 H 0.4979 -0.2449 0.9780
C18 C 0.2400(3) -0.0523(2) 0.3573(4)
C19 C 0.1612(3) -0.0563(2) 0.2288(4)
H22 H 0.0833 -0.0537 0.2088
C20 C 0.2001(4) -0.0641(2) 0.1303(4)
C21 C 0.3126(4) -0.0663(3) 0.1541(4)
H23 H 0.3358 -0.0691 0.0851
C22 C 0.3912(4) -0.0642(3) 0.2810(4)
H24 H 0.4688 -0.0672 0.2993
C23 C 0.3557(3) -0.0577(2) 0.3827(4)
H25 H 0.4098 -0.0569 0.4690
loop_
_geom_bond_atom_site_label_1
_geom_bond_atom_site_label_2
_geom_bond_site_symmetry_1
_geom_bond_site_symmetry_2
O1 C5 1_555 1_555
O2 C7 1_555 1_555
O3 C11 1_555 1_555
O4 C6 1_555 1_555
O5 N1 1_555 1_555
O6 N1 1_555 1_555
N1 C20 1_555 1_555
C1 H1 1_555 1_555
H2 C1 1_555 1_555
H3 C1 1_555 1_555
C2 H4 1_555 1_555
H5 C2 1_555 1_555
H6 C2 1_555 1_555
C3 C1 1_555 1_555
C4 C3 1_555 1_555
H7 C4 1_555 1_555
H8 C4 1_555 1_555
C5 C4 1_555 1_555
C6 C5 1_555 1_555
C7 C6 1_555 1_555
C8 C3 1_555 1_555
H9 C8 1_555 1_555
H10 C8 1_555 1_555
C9 C6 1_555 1_555
H11 C9 1_555 1_555
C10 C9 1_555 1_555
C11 C10 1_555 1_555
C12 C11 1_555 1_555
H12 C12 1_555 1_555
H13 C12 1_555 1_555
C13 C12 1_555 1_555
C14 C13 1_555 1_555
H14 C14 1_555 1_555
H15 C14 1_555 1_555
C15 O4 1_555 1_555
C16 C13 1_555 1_555
H16 C16 1_555 1_555
H17 C16 1_555 1_555
H18 C16 1_555 1_555
C17 C13 1_555 1_555
H19 C17 1_555 1_555
H20 C17 1_555 1_555
H21 C17 1_555 1_555
C18 C9 1_555 1_555
C19 C18 1_555 1_555
H22 C19 1_555 1_555
C20 C19 1_555 1_555
C21 C20 1_555 1_555
H23 C21 1_555 1_555
C22 C21 1_555 1_555
H24 C22 1_555 1_555
C23 C18 1_555 1_555
H25 C23 1_555 1_555
C2 C3 1_555 1_555
C7 C8 1_555 1_555
C10 C15 1_555 1_555
C14 C15 1_555 1_555
C22 C23 1_555 1_555

#END
