
#######################################################################
#
#                 Cambridge Crystallographic Data Centre
#                                CCDC 
#
#######################################################################
#
# If this CIF has been generated from an entry in the Cambridge 
# Structural Database, then it will include bibliographic, chemical, 
# crystal, experimental, refinement or atomic coordinate data resulting 
# from the CCDC's data processing and validation procedures.
#
#######################################################################

data_BOWCIB01
_chemical_formula_moiety         '2(C26 H22 N2 O2),C12 H4 N4'
_chemical_name_systematic        
"2,2'-cyclohexa-2,5-diene-1,4-diylidenedimalononitrile 1-(5-(9-anthryl)-3-(4-methoxyphenyl)-4,5-dihydro-1H-pyrazol-1-yl)ethanone"
_symmetry_cell_setting           triclinic
_symmetry_space_group_name_H-M   'P -1'
_symmetry_Int_Tables_number      2
_space_group_name_Hall           '-P 1'
loop_
_symmetry_equiv_pos_site_id
_symmetry_equiv_pos_as_xyz
1 x,y,z
2 -x,-y,-z
_cell_length_a                   10.631(2)
_cell_length_b                   16.476(3)
_cell_length_c                   17.192(3)
_cell_angle_alpha                63.23(3)
_cell_angle_beta                 84.48(3)
_cell_angle_gamma                82.36(3)
_cell_volume                     2662.43
_cell_formula_units_Z            2
loop_
_atom_site_label
_atom_site_type_symbol
_atom_site_fract_x
_atom_site_fract_y
_atom_site_fract_z
C1 C 0.5366(3) 0.6975(2) 0.1972(2)
C2 C 0.6536(3) 0.6427(2) 0.2045(2)
C3 C 0.7712(4) 0.6794(3) 0.1646(3)
H1 H 0.7728 0.7424 0.1348
C4 C 0.8810(4) 0.6240(3) 0.1693(3)
H2 H 0.9552 0.6499 0.1417
C5 C 0.8835(5) 0.5279(3) 0.2154(3)
H3 H 0.9593 0.4912 0.2188
C6 C 0.7762(4) 0.4894(3) 0.2544(3)
H4 H 0.7787 0.4261 0.2841
C7 C 0.6575(4) 0.5446(2) 0.2511(2)
C8 C 0.5467(4) 0.5054(2) 0.2887(2)
H5 H 0.5507 0.4423 0.3213
C9 C 0.4283(3) 0.5571(2) 0.2799(2)
C10 C 0.3143(4) 0.5145(3) 0.3161(2)
H6 H 0.3192 0.4514 0.3487
C11 C 0.1991(4) 0.5637(3) 0.3043(3)
H7 H 0.1259 0.5345 0.3283
C12 C 0.1907(4) 0.6596(3) 0.2552(3)
H8 H 0.1116 0.6933 0.2468
C13 C 0.2971(4) 0.7034(2) 0.2201(2)
H9 H 0.2884 0.7666 0.1875
C14 C 0.4223(3) 0.6553(2) 0.2316(2)
C15 C 0.5357(3) 0.8021(2) 0.1491(2)
H10 H 0.6228 0.8173 0.1454
C16 C 0.4860(3) 0.8461(2) 0.0556(2)
H11 H 0.5527 0.8735 0.0124
H12 H 0.4520 0.8014 0.0434
C17 C 0.3830(3) 0.9177(2) 0.0576(2)
C18 C 0.3007(3) 0.9777(2) -0.0160(2)
C19 C 0.1922(4) 1.0292(2) -0.0030(2)
H13 H 0.1723 1.0263 0.0520
C20 C 0.1141(4) 1.0847(3) -0.0714(3)
H14 H 0.0412 1.1176 -0.0620
C21 C 0.1451(4) 1.0909(3) -0.1535(2)
C22 C 0.2514(4) 1.0411(3) -0.1685(2)
H15 H 0.2712 1.0455 -0.2241
C23 C 0.3297(4) 0.9834(2) -0.0989(2)
H16 H 0.4010 0.9491 -0.1083
C24 C 0.0901(6) 1.1613(4) -0.3036(3)
H17 H 0.1691 1.1879 -0.3238
H18 H 0.0237 1.2014 -0.3405
H19 H 0.0972 1.1034 -0.3053
C25 C 0.4628(4) 0.8489(2) 0.2698(2)
C26 C 0.3728(5) 0.9125(3) 0.2943(3)
H20 H 0.3927 0.9055 0.3504
H21 H 0.2874 0.8984 0.2965
H22 H 0.3806 0.9744 0.2516
N1 N 0.4519(3) 0.85444(18) 0.18901(18)
N2 N 0.3674(3) 0.92217(18) 0.13094(18)
O1 O 0.5451(3) 0.79257(16) 0.31780(17)
O2 O 0.0610(3) 1.1485(2) -0.21679(19)
C27 C 0.4944(3) 0.2844(2) 0.2748(2)
C28 C 0.3858(3) 0.2834(2) 0.3300(2)
C29 C 0.2583(3) 0.3101(2) 0.3008(2)
H23 H 0.2439 0.3280 0.2426
C30 C 0.1566(4) 0.3098(3) 0.3571(3)
H24 H 0.0750 0.3283 0.3363
C31 C 0.1760(5) 0.2816(3) 0.4464(3)
H25 H 0.1067 0.2807 0.4842
C32 C 0.2942(4) 0.2560(3) 0.4771(3)
H26 H 0.3057 0.2386 0.5356
C33 C 0.4014(4) 0.2554(2) 0.4210(2)
C34 C 0.5237(4) 0.2294(2) 0.4534(2)
H27 H 0.5334 0.2131 0.5119
C35 C 0.6305(3) 0.2270(2) 0.4017(2)
C36 C 0.7545(4) 0.1986(2) 0.4367(3)
H28 H 0.7631 0.1826 0.4953
C37 C 0.8581(4) 0.1945(3) 0.3874(3)
H29 H 0.9375 0.1762 0.4119
C38 C 0.8474(4) 0.2178(3) 0.2985(3)
H30 H 0.9194 0.2140 0.2646
C39 C 0.7315(3) 0.2460(3) 0.2624(3)
H31 H 0.7266 0.2610 0.2037
C40 C 0.6171(3) 0.2534(2) 0.3107(2)
C41 C 0.4866(3) 0.3287(2) 0.1755(2)
H32 H 0.5703 0.3185 0.1503
C42 C 0.4469(3) 0.4331(2) 0.1359(2)
H33 H 0.4220 0.4525 0.1812
H34 H 0.5154 0.4673 0.0997
C43 C 0.3357(3) 0.4451(3) 0.0822(2)
C44 C 0.2606(3) 0.5338(3) 0.0336(2)
C45 C 0.2829(4) 0.6129(3) 0.0367(2)
H35 H 0.3487 0.6106 0.0698
C46 C 0.2108(4) 0.6961(3) -0.0079(3)
H36 H 0.2287 0.7482 -0.0047
C47 C 0.1132(4) 0.7002(3) -0.0566(3)
C48 C 0.0883(4) 0.6219(3) -0.0605(3)
H37 H 0.0217 0.6246 -0.0932
C49 C 0.1604(4) 0.5398(3) -0.0167(3)
H38 H 0.1424 0.4881 -0.0205
C50 C 0.0717(5) 0.8641(3) -0.1206(3)
H39 H 0.0733 0.8683 -0.0668
H40 H 0.0117 0.9114 -0.1579
H41 H 0.1546 0.8712 -0.1489
C51 C 0.3948(4) 0.2125(3) 0.1456(2)
C52 C 0.2932(4) 0.1953(3) 0.1013(3)
H42 H 0.3040 0.1324 0.1118
H43 H 0.2996 0.2339 0.0397
H44 H 0.2112 0.2085 0.1240
N3 N 0.3905(3) 0.2977(2) 0.14017(18)
N4 N 0.3068(3) 0.3704(2) 0.08513(18)
O3 O 0.4794(3) 0.15285(18) 0.18702(17)
O4 O 0.0353(3) 0.7775(2) -0.1032(2)
C53 C 0.3697(4) 0.0246(2) 0.4792(2)
C54 C 0.4082(4) -0.0120(2) 0.5677(2)
H45 H 0.3467 -0.0191 0.6119
C55 C 0.4690(4) 0.0362(2) 0.4121(2)
H46 H 0.4475 0.0609 0.3541
C56 C 0.2435(4) 0.0486(2) 0.4583(2)
C57 C 0.1439(4) 0.0417(3) 0.5238(3)
C58 C 0.2022(4) 0.0802(3) 0.3714(3)
N5 N 0.0652(4) 0.0394(3) 0.5747(3)
N6 N 0.1694(4) 0.1056(3) 0.3019(3)
C53A C 0.6303(4) -0.0246(2) 0.5208(2)
C54A C 0.5918(4) 0.0120(2) 0.4323(2)
H45A H 0.6533 0.0191 0.3881
C55A C 0.5310(4) -0.0362(2) 0.5879(2)
H46A H 0.5525 -0.0609 0.6459
C56A C 0.7565(4) -0.0486(2) 0.5417(2)
C57A C 0.8561(4) -0.0417(3) 0.4762(3)
C58A C 0.7978(4) -0.0802(3) 0.6286(3)
N5A N 0.9348(4) -0.0394(3) 0.4253(3)
N6A N 0.8306(4) -0.1056(3) 0.6981(3)
C59 C 0.6320(3) 0.4822(2) 0.4889(2)
C60 C 0.5535(4) 0.4086(2) 0.5360(2)
H47 H 0.5909 0.3486 0.5593
C61 C 0.5725(4) 0.5750(2) 0.4531(2)
H48 H 0.6215 0.6235 0.4226
C62 C 0.7618(4) 0.4645(3) 0.4797(3)
C63 C 0.8442(5) 0.5361(4) 0.4369(3)
C64 C 0.8219(4) 0.3726(4) 0.5136(3)
N7 N 0.9068(4) 0.5954(3) 0.4035(3)
N8 N 0.8677(4) 0.2981(3) 0.5410(3)
C59A C 0.3680(3) 0.5178(2) 0.5111(2)
C60A C 0.4465(4) 0.5914(2) 0.4640(2)
H47A H 0.4091 0.6514 0.4407
C61A C 0.4275(4) 0.4250(2) 0.5469(2)
H48A H 0.3785 0.3765 0.5774
C62A C 0.2382(4) 0.5355(3) 0.5203(3)
C63A C 0.1558(5) 0.4639(4) 0.5631(3)
C64A C 0.1781(4) 0.6274(4) 0.4864(3)
N7A N 0.0932(4) 0.4046(3) 0.5965(3)
N8A N 0.1323(4) 0.7019(3) 0.4590(3)
loop_
_geom_bond_atom_site_label_1
_geom_bond_atom_site_label_2
_geom_bond_site_symmetry_1
_geom_bond_site_symmetry_2
C1 C2 1_555 1_555
C2 C3 1_555 1_555
C3 H1 1_555 1_555
C4 C3 1_555 1_555
H2 C4 1_555 1_555
C5 C4 1_555 1_555
H3 C5 1_555 1_555
C6 C5 1_555 1_555
H4 C6 1_555 1_555
C7 C2 1_555 1_555
C8 C7 1_555 1_555
H5 C8 1_555 1_555
C9 C8 1_555 1_555
C10 C9 1_555 1_555
H6 C10 1_555 1_555
C11 C10 1_555 1_555
H7 C11 1_555 1_555
C12 C11 1_555 1_555
H8 C12 1_555 1_555
C13 C12 1_555 1_555
H9 C13 1_555 1_555
C14 C1 1_555 1_555
C15 C1 1_555 1_555
H10 C15 1_555 1_555
C16 C15 1_555 1_555
H11 C16 1_555 1_555
H12 C16 1_555 1_555
C17 C16 1_555 1_555
C18 C17 1_555 1_555
C19 C18 1_555 1_555
H13 C19 1_555 1_555
C20 C19 1_555 1_555
H14 C20 1_555 1_555
C21 C20 1_555 1_555
C22 C21 1_555 1_555
H15 C22 1_555 1_555
C23 C18 1_555 1_555
H16 C23 1_555 1_555
C24 H17 1_555 1_555
H18 C24 1_555 1_555
H19 C24 1_555 1_555
C25 C26 1_555 1_555
C26 H20 1_555 1_555
H21 C26 1_555 1_555
H22 C26 1_555 1_555
N1 C15 1_555 1_555
N2 C17 1_555 1_555
O1 C25 1_555 1_555
O2 C21 1_555 1_555
C27 C28 1_555 1_555
C28 C29 1_555 1_555
C29 H23 1_555 1_555
C30 C29 1_555 1_555
H24 C30 1_555 1_555
C31 C30 1_555 1_555
H25 C31 1_555 1_555
C32 C31 1_555 1_555
H26 C32 1_555 1_555
C33 C28 1_555 1_555
C34 C33 1_555 1_555
H27 C34 1_555 1_555
C35 C34 1_555 1_555
C36 C35 1_555 1_555
H28 C36 1_555 1_555
C37 C36 1_555 1_555
H29 C37 1_555 1_555
C38 C37 1_555 1_555
H30 C38 1_555 1_555
C39 C38 1_555 1_555
H31 C39 1_555 1_555
C40 C27 1_555 1_555
C41 C27 1_555 1_555
H32 C41 1_555 1_555
C42 C41 1_555 1_555
H33 C42 1_555 1_555
H34 C42 1_555 1_555
C43 C42 1_555 1_555
C44 C43 1_555 1_555
C45 C44 1_555 1_555
H35 C45 1_555 1_555
C46 C45 1_555 1_555
H36 C46 1_555 1_555
C47 C46 1_555 1_555
C48 C47 1_555 1_555
H37 C48 1_555 1_555
C49 C44 1_555 1_555
H38 C49 1_555 1_555
C50 H39 1_555 1_555
H40 C50 1_555 1_555
H41 C50 1_555 1_555
C51 C52 1_555 1_555
C52 H42 1_555 1_555
H43 C52 1_555 1_555
H44 C52 1_555 1_555
N3 C41 1_555 1_555
N4 C43 1_555 1_555
O3 C51 1_555 1_555
O4 C47 1_555 1_555
C53 C54 1_555 1_555
C54 H45 1_555 1_555
C55 C53 1_555 1_555
H46 C55 1_555 1_555
C56 C53 1_555 1_555
C57 C56 1_555 1_555
C58 C56 1_555 1_555
N5 C57 1_555 1_555
N6 C58 1_555 1_555
C59 C60 1_555 1_555
C60 H47 1_555 1_555
C61 C59 1_555 1_555
H48 C61 1_555 1_555
C62 C59 1_555 1_555
C63 C62 1_555 1_555
C64 C62 1_555 1_555
N7 C63 1_555 1_555
N8 C64 1_555 1_555
C53A C54A 1_555 1_555
C54A C55 1_555 1_555
H45A C54A 1_555 1_555
C55A C54 1_555 1_555
H46A C55A 1_555 1_555
C56A C53A 1_555 1_555
C57A C56A 1_555 1_555
C58A C56A 1_555 1_555
N5A C57A 1_555 1_555
N6A C58A 1_555 1_555
C59A C60A 1_555 1_555
C60A C61 1_555 1_555
H47A C60A 1_555 1_555
C61A C60 1_555 1_555
H48A C61A 1_555 1_555
C62A C59A 1_555 1_555
C63A C62A 1_555 1_555
C64A C62A 1_555 1_555
N7A C63A 1_555 1_555
N8A C64A 1_555 1_555
C6 C7 1_555 1_555
C9 C14 1_555 1_555
C13 C14 1_555 1_555
C22 C23 1_555 1_555
C24 O2 1_555 1_555
C25 N1 1_555 1_555
N1 N2 1_555 1_555
C32 C33 1_555 1_555
C35 C40 1_555 1_555
C39 C40 1_555 1_555
C48 C49 1_555 1_555
C50 O4 1_555 1_555
C51 N3 1_555 1_555
N3 N4 1_555 1_555
C53A C55A 1_555 1_555
C59A C61A 1_555 1_555

#END
