
#######################################################################
#
#                 Cambridge Crystallographic Data Centre
#                                CCDC 
#
#######################################################################
#
# If this CIF has been generated from an entry in the Cambridge 
# Structural Database, then it will include bibliographic, chemical, 
# crystal, experimental, refinement or atomic coordinate data resulting 
# from the CCDC's data processing and validation procedures.
#
#######################################################################

data_BOWDAU
_chemical_formula_moiety         '2(C26 H22 N2 O2),C12 H4 N4,C7 H7 Cl1'
_chemical_name_systematic        
"2,2'-Cyclohexa-2,5-diene-1,4-diylidenedimalononitrile bis(1-(5-(9-anthryl)-3-(4-methoxyphenyl)-4,5-dihydro-1H-pyrazol-1-yl)ethanone) 1-chloro-2-methylbenzene solvate"
_symmetry_cell_setting           triclinic
_symmetry_space_group_name_H-M   'P -1'
_symmetry_Int_Tables_number      2
_space_group_name_Hall           '-P 1'
loop_
_symmetry_equiv_pos_site_id
_symmetry_equiv_pos_as_xyz
1 x,y,z
2 -x,-y,-z
_cell_length_a                   9.947(2)
_cell_length_b                   17.958(4)
_cell_length_c                   18.072(4)
_cell_angle_alpha                110.88(3)
_cell_angle_beta                 92.71(3)
_cell_angle_gamma                98.97(3)
_cell_volume                     2960.73
_cell_formula_units_Z            2
loop_
_atom_site_label
_atom_site_type_symbol
_atom_site_fract_x
_atom_site_fract_y
_atom_site_fract_z
C1 C 0.8216(4) 0.8010(3) 0.0888(3)
C2 C 0.9621(4) 0.8143(3) 0.0817(3)
C3 C 1.0303(5) 0.7558(3) 0.0285(3)
H1 H 0.9799 0.7052 -0.0030
C4 C 1.1659(5) 0.7722(3) 0.0228(3)
H2 H 1.2063 0.7326 -0.0127
C5 C 1.2478(5) 0.8480(4) 0.0694(3)
H3 H 1.3409 0.8581 0.0644
C6 C 1.1900(5) 0.9054(3) 0.1209(3)
H4 H 1.2441 0.9552 0.1515
C7 C 1.0483(4) 0.8915(3) 0.1295(3)
C8 C 0.9883(5) 0.9501(3) 0.1838(3)
H5 H 1.0429 0.9999 0.2139
C9 C 0.8514(5) 0.9375(3) 0.1946(3)
C10 C 0.7955(5) 0.9982(3) 0.2534(3)
H6 H 0.8517 1.0473 0.2842
C11 C 0.6626(6) 0.9852(3) 0.2648(3)
H7 H 0.6280 1.0250 0.3038
C12 C 0.5747(5) 0.9113(3) 0.2180(3)
H8 H 0.4830 0.9030 0.2263
C13 C 0.6240(5) 0.8525(3) 0.1608(3)
H9 H 0.5645 0.8046 0.1304
C14 C 0.7649(4) 0.8619(3) 0.1460(3)
C15 C 0.7320(4) 0.7203(3) 0.0378(3)
H10 H 0.7867 0.6899 -0.0019
C16 C 0.6718(4) 0.6655(3) 0.0817(3)
H11 H 0.7140 0.6179 0.0692
H12 H 0.6846 0.6946 0.1389
C17 C 0.5225(4) 0.6425(3) 0.0506(3)
C18 C 0.4224(5) 0.5857(3) 0.0694(3)
C19 C 0.4626(5) 0.5457(3) 0.1161(3)
H13 H 0.5550 0.5545 0.1342
C20 C 0.3703(6) 0.4926(3) 0.1374(3)
H14 H 0.4006 0.4667 0.1696
C21 C 0.2347(5) 0.4784(3) 0.1107(3)
C22 C 0.1927(5) 0.5168(4) 0.0623(4)
H15 H 0.1007 0.5068 0.0432
C23 C 0.2855(5) 0.5698(3) 0.0419(3)
H16 H 0.2552 0.5951 0.0091
C24 C 0.1665(7) 0.3966(4) 0.1872(4)
H17 H 0.2319 0.3615 0.1707
H18 H 0.0846 0.3670 0.1970
H19 H 0.2045 0.4416 0.2352
C25 C 0.6092(5) 0.7568(3) -0.0655(3)
C26 C 0.4774(5) 0.7602(4) -0.1038(3)
H20 H 0.4447 0.8075 -0.0712
H21 H 0.4120 0.7125 -0.1098
H22 H 0.4897 0.7628 -0.1552
N1 N 0.6064(4) 0.7272(2) -0.0052(2)
N2 N 0.4879(4) 0.6782(2) 0.0031(2)
O1 O 0.1344(4) 0.4258(2) 0.1262(2)
O2 O 0.7207(4) 0.7811(2) -0.0834(2)
C27 C 0.0241(4) 0.7252(3) 0.4131(2)
C28 C -0.0904(5) 0.7634(3) 0.4136(3)
C29 C -0.1969(5) 0.7648(3) 0.4651(3)
H23 H -0.1887 0.7426 0.5041
C30 C -0.3091(5) 0.7977(3) 0.4584(3)
H24 H -0.3761 0.7973 0.4925
C31 C -0.3249(6) 0.8317(3) 0.4013(4)
H25 H -0.4037 0.8524 0.3967
C32 C -0.2282(5) 0.8354(3) 0.3525(3)
H26 H -0.2392 0.8603 0.3161
C33 C -0.1094(5) 0.8016(3) 0.3564(3)
C34 C -0.0102(5) 0.8038(3) 0.3047(3)
H27 H -0.0215 0.8290 0.2685
C35 C 0.1047(5) 0.7693(3) 0.3061(3)
C36 C 0.2067(6) 0.7729(3) 0.2524(3)
H28 H 0.1963 0.8007 0.2185
C37 C 0.3168(6) 0.7368(3) 0.2502(3)
H29 H 0.3807 0.7388 0.2147
C38 C 0.3323(5) 0.6963(3) 0.3029(3)
H30 H 0.4082 0.6718 0.3019
C39 C 0.2413(5) 0.6918(3) 0.3548(3)
H31 H 0.2559 0.6640 0.3882
C40 C 0.1230(5) 0.7287(3) 0.3596(3)
C41 C 0.0331(5) 0.6766(3) 0.4665(3)
H32 H -0.0397 0.6861 0.5015
C42 C 0.0156(5) 0.5847(3) 0.4206(3)
H33 H -0.0691 0.5560 0.4296
H34 H 0.0173 0.5721 0.3638
C43 C 0.1393(5) 0.5640(3) 0.4561(3)
C44 C 0.1706(5) 0.4818(3) 0.4311(2)
C45 C 0.0822(5) 0.4156(3) 0.3780(3)
H35 H -0.0017 0.4229 0.3595
C46 C 0.1131(6) 0.3385(3) 0.3510(3)
H36 H 0.0506 0.2953 0.3149
C47 C 0.2364(6) 0.3261(3) 0.3775(3)
C48 C 0.3249(5) 0.3913(3) 0.4329(3)
H37 H 0.4073 0.3834 0.4528
C49 C 0.2934(5) 0.4673(3) 0.4591(3)
H38 H 0.3550 0.5101 0.4964
C50 C 0.1966(8) 0.1852(3) 0.2940(4)
H39 H 0.1066 0.1766 0.3099
H40 H 0.2369 0.1382 0.2865
H41 H 0.1906 0.1946 0.2450
C51 C 0.2092(6) 0.7666(3) 0.5787(3)
C52 C 0.3436(7) 0.7754(3) 0.6261(4)
H42 H 0.3874 0.8314 0.6476
H43 H 0.4018 0.7440 0.5919
H44 H 0.3273 0.7564 0.6688
N3 N 0.1637(4) 0.6943(2) 0.5168(2)
N4 N 0.2188(4) 0.6247(2) 0.5079(2)
O3 O 0.2796(4) 0.2540(2) 0.3544(2)
O4 O 0.1406(4) 0.8196(2) 0.5923(2)
C53 C 0.8979(7) 0.0385(4) 0.0464(4)
C54 C 1.0384(7) 0.0819(4) 0.0532(4)
H45 H 1.0626 0.1358 0.0875
C55 C 0.8671(7) -0.0449(4) -0.0107(4)
H46 H 0.7782 -0.0739 -0.0181
C56 C 0.8030(7) 0.0757(4) 0.0912(4)
C57 C 0.6654(9) 0.0336(5) 0.0852(4)
C58 C 0.8352(7) 0.1560(5) 0.1460(5)
N5 N 0.5564(7) -0.0005(5) 0.0800(4)
N6 N 0.8581(6) 0.2221(4) 0.1905(4)
C53A C 1.1021(7) -0.0385(4) -0.0464(4)
C54A C 0.9616(7) -0.0819(4) -0.0532(4)
H45A H 0.9374 -0.1358 -0.0875
C55A C 1.1329(7) 0.0449(4) 0.0107(4)
H46A H 1.2218 0.0739 0.0181
C56A C 1.1970(7) -0.0757(4) -0.0912(4)
C57A C 1.3346(9) -0.0336(5) -0.0852(4)
C58A C 1.1648(7) -0.1560(5) -0.1460(5)
N5A N 1.4436(7) 0.0005(5) -0.0800(4)
N6A N 1.1419(6) -0.2221(4) -0.1905(4)
C59 C 0.8746(4) 0.0154(3) 0.5308(3)
C60 C 0.9614(5) -0.0269(3) 0.5618(3)
H47 H 0.9350 -0.0435 0.6030
C61 C 0.9220(5) 0.0422(3) 0.4677(3)
H48 H 0.8693 0.0707 0.4478
C62 C 0.7521(5) 0.0299(3) 0.5593(3)
C63 C 0.7061(5) 0.0057(3) 0.6234(4)
C64 C 0.6652(5) 0.0703(3) 0.5282(3)
N7 N 0.6715(5) -0.0152(3) 0.6731(3)
N8 N 0.5949(5) 0.1009(3) 0.5017(3)
C59A C 1.1254(4) -0.0154(3) 0.4692(3)
C60A C 1.0386(5) 0.0269(3) 0.4382(3)
H47A H 1.0650 0.0435 0.3970
C61A C 1.0780(5) -0.0422(3) 0.5323(3)
H48A H 1.1307 -0.0707 0.5522
C62A C 1.2479(5) -0.0299(3) 0.4407(3)
C63A C 1.2939(5) -0.0057(3) 0.3766(4)
C64A C 1.3348(5) -0.0703(3) 0.4718(3)
N7A N 1.3285(5) 0.0152(3) 0.3269(3)
N8A N 1.4051(5) -0.1009(3) 0.4983(3)
C65 C 0.6914(9) 0.4568(4) 0.2748(4)
C66 C 0.7924(10) 0.4440(5) 0.2242(5)
H49 H 0.8172 0.3932 0.2052
C67 C 0.8597(8) 0.5063(7) 0.2000(5)
H50 H 0.9278 0.4963 0.1661
C68 C 0.8230(8) 0.5807(5) 0.2274(5)
H51 H 0.8675 0.6218 0.2124
C69 C 0.7209(8) 0.5957(4) 0.2768(5)
H52 H 0.6955 0.6463 0.2949
C70 C 0.6593(7) 0.5364(5) 0.2983(4)
C71 C 0.6113(7) 0.3928(3) 0.3047(3)
H53 H 0.5236 0.3703 0.2736
H54 H 0.5988 0.4185 0.3597
H55 H 0.6625 0.3503 0.2989
Cl1 Cl 0.5277(3) 0.55246(17) 0.35848(15)
loop_
_geom_bond_atom_site_label_1
_geom_bond_atom_site_label_2
_geom_bond_site_symmetry_1
_geom_bond_site_symmetry_2
C1 C2 1_555 1_555
C2 C3 1_555 1_555
C3 H1 1_555 1_555
C4 C3 1_555 1_555
H2 C4 1_555 1_555
C5 C4 1_555 1_555
H3 C5 1_555 1_555
C6 C5 1_555 1_555
H4 C6 1_555 1_555
C7 C2 1_555 1_555
C8 C7 1_555 1_555
H5 C8 1_555 1_555
C9 C8 1_555 1_555
C10 C9 1_555 1_555
H6 C10 1_555 1_555
C11 C10 1_555 1_555
H7 C11 1_555 1_555
C12 C11 1_555 1_555
H8 C12 1_555 1_555
C13 C12 1_555 1_555
H9 C13 1_555 1_555
C14 C1 1_555 1_555
C15 C1 1_555 1_555
H10 C15 1_555 1_555
C16 C15 1_555 1_555
H11 C16 1_555 1_555
H12 C16 1_555 1_555
C17 C16 1_555 1_555
C18 C17 1_555 1_555
C19 C18 1_555 1_555
H13 C19 1_555 1_555
C20 C19 1_555 1_555
H14 C20 1_555 1_555
C21 C20 1_555 1_555
C22 C21 1_555 1_555
H15 C22 1_555 1_555
C23 C18 1_555 1_555
H16 C23 1_555 1_555
C24 H17 1_555 1_555
H18 C24 1_555 1_555
H19 C24 1_555 1_555
C25 C26 1_555 1_555
C26 H20 1_555 1_555
H21 C26 1_555 1_555
H22 C26 1_555 1_555
N1 C15 1_555 1_555
N2 C17 1_555 1_555
O1 C21 1_555 1_555
O2 C25 1_555 1_555
C27 C28 1_555 1_555
C28 C29 1_555 1_555
C29 H23 1_555 1_555
C30 C29 1_555 1_555
H24 C30 1_555 1_555
C31 C30 1_555 1_555
H25 C31 1_555 1_555
C32 C31 1_555 1_555
H26 C32 1_555 1_555
C33 C28 1_555 1_555
C34 C33 1_555 1_555
H27 C34 1_555 1_555
C35 C34 1_555 1_555
C36 C35 1_555 1_555
H28 C36 1_555 1_555
C37 C36 1_555 1_555
H29 C37 1_555 1_555
C38 C37 1_555 1_555
H30 C38 1_555 1_555
C39 C38 1_555 1_555
H31 C39 1_555 1_555
C40 C27 1_555 1_555
C41 C27 1_555 1_555
H32 C41 1_555 1_555
C42 C41 1_555 1_555
H33 C42 1_555 1_555
H34 C42 1_555 1_555
C43 C42 1_555 1_555
C44 C43 1_555 1_555
C45 C44 1_555 1_555
H35 C45 1_555 1_555
C46 C45 1_555 1_555
H36 C46 1_555 1_555
C47 C46 1_555 1_555
C48 C47 1_555 1_555
H37 C48 1_555 1_555
C49 C44 1_555 1_555
H38 C49 1_555 1_555
C50 H39 1_555 1_555
H40 C50 1_555 1_555
H41 C50 1_555 1_555
C51 C52 1_555 1_555
C52 H42 1_555 1_555
H43 C52 1_555 1_555
H44 C52 1_555 1_555
N3 C41 1_555 1_555
N4 C43 1_555 1_555
O3 C47 1_555 1_555
O4 C51 1_555 1_555
C53 C54 1_555 1_555
C54 H45 1_555 1_555
C55 C53 1_555 1_555
H46 C55 1_555 1_555
C56 C53 1_555 1_555
C57 C56 1_555 1_555
C58 C56 1_555 1_555
N5 C57 1_555 1_555
N6 C58 1_555 1_555
C59 C60 1_555 1_555
C60 H47 1_555 1_555
C61 C59 1_555 1_555
H48 C61 1_555 1_555
C62 C59 1_555 1_555
C63 C62 1_555 1_555
C64 C62 1_555 1_555
N7 C63 1_555 1_555
N8 C64 1_555 1_555
C65 C66 1_555 1_555
C66 H49 1_555 1_555
C67 C66 1_555 1_555
H50 C67 1_555 1_555
C68 C67 1_555 1_555
H51 C68 1_555 1_555
C69 C68 1_555 1_555
H52 C69 1_555 1_555
C70 C65 1_555 1_555
C71 C65 1_555 1_555
H53 C71 1_555 1_555
H54 C71 1_555 1_555
H55 C71 1_555 1_555
Cl1 C70 1_555 1_555
C53A C54A 1_555 1_555
C54A C55 1_555 1_555
H45A C54A 1_555 1_555
C55A C54 1_555 1_555
H46A C55A 1_555 1_555
C56A C53A 1_555 1_555
C57A C56A 1_555 1_555
C58A C56A 1_555 1_555
N5A C57A 1_555 1_555
N6A C58A 1_555 1_555
C59A C60A 1_555 1_555
C60A C61 1_555 1_555
H47A C60A 1_555 1_555
C61A C60 1_555 1_555
H48A C61A 1_555 1_555
C62A C59A 1_555 1_555
C63A C62A 1_555 1_555
C64A C62A 1_555 1_555
N7A C63A 1_555 1_555
N8A C64A 1_555 1_555
C6 C7 1_555 1_555
C9 C14 1_555 1_555
C13 C14 1_555 1_555
C22 C23 1_555 1_555
C24 O1 1_555 1_555
C25 N1 1_555 1_555
N1 N2 1_555 1_555
C32 C33 1_555 1_555
C35 C40 1_555 1_555
C39 C40 1_555 1_555
C48 C49 1_555 1_555
C50 O3 1_555 1_555
C51 N3 1_555 1_555
N3 N4 1_555 1_555
C69 C70 1_555 1_555
C53A C55A 1_555 1_555
C59A C61A 1_555 1_555

#END
