
#######################################################################
#
#                 Cambridge Crystallographic Data Centre
#                                CCDC 
#
#######################################################################
#
# If this CIF has been generated from an entry in the Cambridge 
# Structural Database, then it will include bibliographic, chemical, 
# crystal, experimental, refinement or atomic coordinate data resulting 
# from the CCDC's data processing and validation procedures.
#
#######################################################################

data_BOWDEY
_chemical_formula_moiety         '2(C26 H22 N2 O2),C12 H4 N4,C7 H7 Cl1'
_chemical_name_systematic        
"2,2'-Cyclohexa-2,5-diene-1,4-diylidenedimalononitrile bis(1-(5-(9-anthryl)-3-(4-methoxyphenyl)-4,5-dihydro-1H-pyrazol-1-yl)ethanone) 1-chloro-4-methylbenzene solvate"
_symmetry_cell_setting           triclinic
_symmetry_space_group_name_H-M   'P -1'
_symmetry_Int_Tables_number      2
_space_group_name_Hall           '-P 1'
loop_
_symmetry_equiv_pos_site_id
_symmetry_equiv_pos_as_xyz
1 x,y,z
2 -x,-y,-z
_cell_length_a                   9.853(2)
_cell_length_b                   17.501(3)
_cell_length_c                   17.934(4)
_cell_angle_alpha                109.60(3)
_cell_angle_beta                 96.52(3)
_cell_angle_gamma                92.41(3)
_cell_volume                     2883.83
_exptl_crystal_colour            green
_exptl_crystal_description       block
_cell_formula_units_Z            2
loop_
_atom_site_label
_atom_site_type_symbol
_atom_site_fract_x
_atom_site_fract_y
_atom_site_fract_z
O1 O 0.2970(3) 0.35800(18) -0.24343(16)
O2 O 0.1357(3) 0.60007(16) 0.31473(15)
N1 N 0.1636(3) 0.52569(16) 0.19153(17)
N2 N 0.2195(3) 0.51731(17) 0.12199(17)
C1 C 0.0368(3) 0.41957(19) 0.23019(18)
C2 C -0.0807(3) 0.41521(19) 0.26780(18)
C3 C -0.1942(4) 0.4626(2) 0.2660(2)
C4 C -0.3063(4) 0.4535(3) 0.3000(2)
H1 H -0.3787 0.4853 0.2973
C5 C -0.3151(4) 0.3971(3) 0.3390(2)
H2 H -0.3934 0.3908 0.3615
C6 C -0.2110(4) 0.3524(2) 0.3438(2)
H3 H -0.2178 0.3153 0.3704
C7 C -0.0906(3) 0.3593(2) 0.31003(18)
C8 C 0.0156(4) 0.3118(2) 0.3155(2)
H4 H 0.0088 0.2763 0.3438
C9 C 0.1320(4) 0.3157(2) 0.28008(19)
C10 C 0.2400(4) 0.2657(2) 0.2847(2)
H5 H 0.2333 0.2312 0.3141
C11 C 0.3495(4) 0.2663(3) 0.2488(3)
H6 H 0.4181 0.2324 0.2528
C12 C 0.3618(4) 0.3180(3) 0.2047(2)
H7 H 0.4391 0.3181 0.1794
C13 C 0.2628(4) 0.3680(2) 0.1980(2)
H8 H 0.2739 0.4017 0.1682
C14 C 0.1420(3) 0.36997(19) 0.23582(19)
C15 C 0.0369(4) 0.4713(2) 0.1777(2)
C16 C 0.0277(4) 0.4248(2) 0.0889(2)
H9 H 0.0353 0.3672 0.0787
H10 H -0.0583 0.4317 0.0606
C17 C 0.1463(3) 0.4617(2) 0.0640(2)
C18 C 0.1811(3) 0.4353(2) -0.01679(19)
C19 C 0.3003(4) 0.4663(2) -0.0341(2)
H11 H 0.3577 0.5058 0.0065
C20 C 0.3359(4) 0.4401(3) -0.1101(2)
H12 H 0.4161 0.4620 -0.1207
C21 C 0.2512(4) 0.3808(2) -0.1707(2)
C22 C 0.1315(4) 0.3515(2) -0.1549(2)
H13 H 0.0727 0.3128 -0.1956
C23 C 0.0983(4) 0.3791(2) -0.0788(2)
H14 H 0.0160 0.3588 -0.0690
C24 C 0.2158(6) 0.2971(3) -0.3079(2)
H15 H 0.2608 0.2852 -0.3548
H16 H 0.1280 0.3161 -0.3180
H17 H 0.2037 0.2486 -0.2947
C25 C 0.2037(5) 0.5886(2) 0.2601(2)
C26 C 0.3333(5) 0.6392(3) 0.2654(3)
H18 H 0.3476 0.6834 0.3156
H19 H 0.3262 0.6606 0.2225
H20 H 0.4093 0.6061 0.2616
H21 H -0.022(3) 0.506(2) 0.1896(18)
H22 H -0.199(3) 0.499(2) 0.240(2)
O3 O 0.1800(3) 0.11461(16) -0.07305(15)
O4 O 0.7494(3) -0.09113(17) 0.28236(17)
N3 N 0.6312(3) -0.00699(18) 0.23700(16)
N4 N 0.5166(3) 0.00023(18) 0.18709(17)
C27 C 0.8406(3) 0.08836(19) 0.30976(18)
C28 C 0.9834(3) 0.08056(19) 0.31844(19)
C29 C 1.0527(4) 0.0281(2) 0.2576(3)
C30 C 1.1897(4) 0.0237(3) 0.2704(3)
H23 H 1.2326 -0.0096 0.2294
C31 C 1.2684(4) 0.0677(3) 0.3432(3)
H24 H 1.3619 0.0621 0.3507
C32 C 1.2089(4) 0.1182(2) 0.4026(3)
H25 H 1.2620 0.1475 0.4509
C33 C 1.0667(3) 0.1272(2) 0.3925(2)
C34 C 1.0050(4) 0.1801(2) 0.4521(2)
H26 H 1.0588 0.2099 0.5000
C35 C 0.8676(4) 0.1906(2) 0.44376(19)
C36 C 0.8085(4) 0.2481(2) 0.5048(2)
H27 H 0.8635 0.2782 0.5522
C37 C 0.6745(4) 0.2604(2) 0.4957(2)
H28 H 0.6384 0.2991 0.5362
C38 C 0.5901(4) 0.2151(2) 0.4257(2)
H29 H 0.4977 0.2238 0.4196
C39 C 0.6417(3) 0.1583(2) 0.3663(2)
H30 H 0.5829 0.1276 0.3206
C40 C 0.7829(3) 0.14422(19) 0.37153(19)
C41 C 0.7544(4) 0.0415(2) 0.2315(2)
C42 C 0.6923(3) 0.0919(2) 0.1836(2)
H31 H 0.6933 0.1486 0.2169
H32 H 0.7412 0.0884 0.1388
C43 C 0.5479(3) 0.0531(2) 0.15574(19)
C44 C 0.4530(3) 0.0706(2) 0.09720(19)
C45 C 0.3306(4) 0.0236(2) 0.0651(2)
H33 H 0.3078 -0.0195 0.0820
C46 C 0.2420(4) 0.0400(2) 0.0086(2)
H34 H 0.1597 0.0079 -0.0125
C47 C 0.2743(4) 0.1039(2) -0.0174(2)
C48 C 0.3956(4) 0.1497(2) 0.0136(2)
H35 H 0.4188 0.1930 -0.0030
C49 C 0.4833(4) 0.1320(2) 0.0691(2)
H36 H 0.5670 0.1629 0.0885
C50 C 0.1978(5) 0.1861(3) -0.0919(3)
H37 H 0.1237 0.1870 -0.1311
H38 H 0.2831 0.1870 -0.1129
H39 H 0.1990 0.2328 -0.0446
C51 C 0.6379(4) -0.0738(2) 0.2588(2)
C52 C 0.5083(4) -0.1225(3) 0.2528(3)
H40 H 0.5269 -0.1665 0.2720
H41 H 0.4667 -0.1441 0.1981
H42 H 0.4470 -0.0885 0.2845
H43 H 0.999(3) -0.009(2) 0.205(2)
H44 H 0.801(3) 0.0056(19) 0.1999(19)
N5 N 0.8832(6) 0.1904(3) 0.7311(3)
N6 N 0.5590(7) 0.0886(4) 0.5384(4)
C53 C 0.8647(6) -0.0089(3) 0.4655(3)
H45 H 0.7737 -0.0143 0.4425
C54 C 1.0459(6) 0.0536(3) 0.5766(3)
H46 H 1.0763 0.0899 0.6278
C55 C 0.9036(6) 0.0470(3) 0.5451(3)
C56 C 0.8123(7) 0.0933(3) 0.5893(3)
C57 C 0.8529(6) 0.1479(3) 0.6685(3)
C58 C 0.6725(8) 0.0900(3) 0.5598(3)
N5A N 1.1168(6) -0.1904(3) 0.2689(3)
N6A N 1.4410(7) -0.0886(4) 0.4616(4)
C53A C 1.1353(6) 0.0089(3) 0.5345(3)
H45A H 1.2263 0.0143 0.5575
C54A C 0.9541(6) -0.0536(3) 0.4234(3)
H46A H 0.9237 -0.0899 0.3722
C55A C 1.0964(6) -0.0470(3) 0.4549(3)
C56A C 1.1877(7) -0.0933(3) 0.4107(3)
C57A C 1.1471(6) -0.1479(3) 0.3315(3)
C58A C 1.3275(8) -0.0900(3) 0.4402(3)
N7 N 0.4122(4) 0.5031(3) 0.3984(2)
N8 N 0.3357(4) 0.3272(2) 0.5175(2)
C59 C 0.0428(3) 0.4400(2) 0.5298(2)
H47 H 0.0728 0.4000 0.5498
C60 C 0.0791(3) 0.5327(2) 0.45680(19)
H48 H 0.1332 0.5544 0.4283
C61 C 0.1286(3) 0.4707(2) 0.48546(19)
C62 C 0.2538(4) 0.4430(2) 0.4721(2)
C63 C 0.3427(4) 0.4756(2) 0.4305(2)
C64 C 0.3016(4) 0.3789(3) 0.4974(2)
N7A N -0.4122(4) 0.4969(3) 0.6016(2)
N8A N -0.3357(4) 0.6728(2) 0.4825(2)
C59A C -0.0428(3) 0.5600(2) 0.4702(2)
H47A H -0.0728 0.6000 0.4502
C60A C -0.0791(3) 0.4673(2) 0.54320(19)
H48A H -0.1332 0.4456 0.5717
C61A C -0.1286(3) 0.5293(2) 0.51454(19)
C62A C -0.2538(4) 0.5570(2) 0.5279(2)
C63A C -0.3427(4) 0.5244(2) 0.5695(2)
C64A C -0.3016(4) 0.6211(3) 0.5026(2)
Cl1 Cl 0.5682(3) 0.31632(12) -0.06533(15)
C65 C 0.6935(6) 0.2737(3) -0.0204(4)
C66 C 0.7728(7) 0.2203(4) -0.0646(4)
H49 H 0.7632 0.2076 -0.1197
C67 C 0.8666(6) 0.1853(4) -0.0282(4)
H50 H 0.9204 0.1484 -0.0594
C68 C 0.8861(6) 0.2025(3) 0.0555(3)
C69 C 0.8041(6) 0.2581(3) 0.0975(3)
H51 H 0.8131 0.2718 0.1527
C70 C 0.7093(6) 0.2943(3) 0.0613(4)
H52 H 0.6563 0.3323 0.0917
C71 C 0.9931(4) 0.1621(2) 0.0983(2)
H53 H 0.9681 0.1660 0.1496
H54 H 1.0824 0.1897 0.1052
H55 H 0.9944 0.1059 0.0664
loop_
_geom_bond_atom_site_label_1
_geom_bond_atom_site_label_2
_geom_bond_site_symmetry_1
_geom_bond_site_symmetry_2
O1 C21 1_555 1_555
O2 C25 1_555 1_555
N1 N2 1_555 1_555
N2 C17 1_555 1_555
C1 C2 1_555 1_555
C2 C3 1_555 1_555
C3 C4 1_555 1_555
C4 H1 1_555 1_555
C5 C4 1_555 1_555
H2 C5 1_555 1_555
C6 C5 1_555 1_555
H3 C6 1_555 1_555
C7 C2 1_555 1_555
C8 C7 1_555 1_555
H4 C8 1_555 1_555
C9 C8 1_555 1_555
C10 C9 1_555 1_555
H5 C10 1_555 1_555
C11 C10 1_555 1_555
H6 C11 1_555 1_555
C12 C11 1_555 1_555
H7 C12 1_555 1_555
C13 C12 1_555 1_555
H8 C13 1_555 1_555
C14 C1 1_555 1_555
C15 N1 1_555 1_555
C16 C15 1_555 1_555
H9 C16 1_555 1_555
H10 C16 1_555 1_555
C17 C16 1_555 1_555
C18 C17 1_555 1_555
C19 C18 1_555 1_555
H11 C19 1_555 1_555
C20 C19 1_555 1_555
H12 C20 1_555 1_555
C21 C20 1_555 1_555
C22 C21 1_555 1_555
H13 C22 1_555 1_555
C23 C18 1_555 1_555
H14 C23 1_555 1_555
C24 O1 1_555 1_555
H15 C24 1_555 1_555
H16 C24 1_555 1_555
H17 C24 1_555 1_555
C25 N1 1_555 1_555
C26 C25 1_555 1_555
H18 C26 1_555 1_555
H19 C26 1_555 1_555
H20 C26 1_555 1_555
H21 C15 1_555 1_555
H22 C3 1_555 1_555
O3 C47 1_555 1_555
O4 C51 1_555 1_555
N3 N4 1_555 1_555
N4 C43 1_555 1_555
C27 C28 1_555 1_555
C28 C29 1_555 1_555
C29 C30 1_555 1_555
C30 H23 1_555 1_555
C31 C30 1_555 1_555
H24 C31 1_555 1_555
C32 C31 1_555 1_555
H25 C32 1_555 1_555
C33 C28 1_555 1_555
C34 C33 1_555 1_555
H26 C34 1_555 1_555
C35 C34 1_555 1_555
C36 C35 1_555 1_555
H27 C36 1_555 1_555
C37 C36 1_555 1_555
H28 C37 1_555 1_555
C38 C37 1_555 1_555
H29 C38 1_555 1_555
C39 C38 1_555 1_555
H30 C39 1_555 1_555
C40 C27 1_555 1_555
C41 N3 1_555 1_555
C42 C41 1_555 1_555
H31 C42 1_555 1_555
H32 C42 1_555 1_555
C43 C42 1_555 1_555
C44 C43 1_555 1_555
C45 C44 1_555 1_555
H33 C45 1_555 1_555
C46 C45 1_555 1_555
H34 C46 1_555 1_555
C47 C46 1_555 1_555
C48 C47 1_555 1_555
H35 C48 1_555 1_555
C49 C44 1_555 1_555
H36 C49 1_555 1_555
C50 O3 1_555 1_555
H37 C50 1_555 1_555
H38 C50 1_555 1_555
H39 C50 1_555 1_555
C51 N3 1_555 1_555
C52 C51 1_555 1_555
H40 C52 1_555 1_555
H41 C52 1_555 1_555
H42 C52 1_555 1_555
H43 C29 1_555 1_555
H44 C41 1_555 1_555
N5 C57 1_555 1_555
N6 C58 1_555 1_555
C53 H45 1_555 1_555
C54 H46 1_555 1_555
C55 C53 1_555 1_555
C56 C55 1_555 1_555
C57 C56 1_555 1_555
C58 C56 1_555 1_555
N7 C63 1_555 1_555
N8 C64 1_555 1_555
C59 H47 1_555 1_555
C60 H48 1_555 1_555
C61 C59 1_555 1_555
C62 C61 1_555 1_555
C63 C62 1_555 1_555
C64 C62 1_555 1_555
Cl1 C65 1_555 1_555
C65 C66 1_555 1_555
C66 H49 1_555 1_555
C67 C66 1_555 1_555
H50 C67 1_555 1_555
C68 C67 1_555 1_555
C69 C68 1_555 1_555
H51 C69 1_555 1_555
C70 C65 1_555 1_555
H52 C70 1_555 1_555
C71 C68 1_555 1_555
H53 C71 1_555 1_555
H54 C71 1_555 1_555
H55 C71 1_555 1_555
N5A C57A 1_555 1_555
N6A C58A 1_555 1_555
C53A C54 1_555 1_555
H45A C53A 1_555 1_555
C54A C53 1_555 1_555
H46A C54A 1_555 1_555
C55A C53A 1_555 1_555
C56A C55A 1_555 1_555
C57A C56A 1_555 1_555
C58A C56A 1_555 1_555
N7A C63A 1_555 1_555
N8A C64A 1_555 1_555
C59A C60 1_555 1_555
H47A C59A 1_555 1_555
C60A C59 1_555 1_555
H48A C60A 1_555 1_555
C61A C59A 1_555 1_555
C62A C61A 1_555 1_555
C63A C62A 1_555 1_555
C64A C62A 1_555 1_555
C1 C15 1_555 1_555
C6 C7 1_555 1_555
C9 C14 1_555 1_555
C13 C14 1_555 1_555
C22 C23 1_555 1_555
C27 C41 1_555 1_555
C32 C33 1_555 1_555
C35 C40 1_555 1_555
C39 C40 1_555 1_555
C48 C49 1_555 1_555
C54 C55 1_555 1_555
C60 C61 1_555 1_555
C69 C70 1_555 1_555
C54A C55A 1_555 1_555
C60A C61A 1_555 1_555

#END
