
#######################################################################
#
#                 Cambridge Crystallographic Data Centre
#                                CCDC 
#
#######################################################################
#
# If this CIF has been generated from an entry in the Cambridge 
# Structural Database, then it will include bibliographic, chemical, 
# crystal, experimental, refinement or atomic coordinate data resulting 
# from the CCDC's data processing and validation procedures.
#
#######################################################################

data_BOWJAY01
_chemical_formula_moiety         'C8 H28 B10 O2 Si2'
_chemical_name_systematic        
1,7-bis(Hydroxy-dimethylsilylmethyl)-meta-carborane
_symmetry_cell_setting           triclinic
_symmetry_space_group_name_H-M   'P -1'
_symmetry_Int_Tables_number      2
_space_group_name_Hall           '-P 1'
loop_
_symmetry_equiv_pos_site_id
_symmetry_equiv_pos_as_xyz
1 x,y,z
2 -x,-y,-z
_cell_length_a                   7.1014(18)
_cell_length_b                   11.404(3)
_cell_length_c                   12.182(4)
_cell_angle_alpha                108.715(3)
_cell_angle_beta                 96.432(4)
_cell_angle_gamma                94.360(3)
_cell_volume                     921.913
_exptl_crystal_colour            colorless
_exptl_crystal_description       block
_cell_formula_units_Z            2
loop_
_atom_site_label
_atom_site_type_symbol
_atom_site_fract_x
_atom_site_fract_y
_atom_site_fract_z
Si1 Si 0.96950(5) 0.79303(3) 1.20819(3)
Si2 Si 0.34242(5) 0.80637(4) 0.56231(3)
O1 O 1.00347(17) 0.90405(11) 1.33770(9)
H1 H 0.9100 0.9424 1.3454
O2 O 0.21682(17) 0.91892(10) 0.54911(9)
H2 H 0.1652 0.9005 0.4812
C1 C 0.8446(3) 0.64856(16) 1.21784(15)
H3 H 0.9151 0.6248 1.2777
H4 H 0.8350 0.5829 1.1440
H5 H 0.7190 0.6632 1.2369
C2 C 1.2108(2) 0.77074(15) 1.16599(14)
H6 H 1.2702 0.8474 1.1619
H7 H 1.2000 0.7069 1.0909
H8 H 1.2870 0.7463 1.2234
C3 C 0.8176(2) 0.85895(12) 1.11040(11)
H9 H 0.7007 0.8758 1.1437
H10 H 0.8839 0.9390 1.1169
C4 C 0.75966(18) 0.78727(11) 0.97960(11)
C5 C 0.56178(18) 0.79115(12) 0.77980(11)
C6 C 0.4330(2) 0.86473(13) 0.72424(12)
H11 H 0.5013 0.9471 0.7423
H12 H 0.3220 0.8755 0.7646
C7 C 0.1810(2) 0.65802(15) 0.51555(14)
H13 H 0.0703 0.6706 0.5545
H14 H 0.2467 0.5955 0.5356
H15 H 0.1425 0.6311 0.4324
C8 C 0.5401(3) 0.79733(18) 0.47345(15)
H16 H 0.4889 0.7866 0.3940
H17 H 0.6070 0.7278 0.4752
H18 H 0.6265 0.8729 0.5051
B1 B 0.8330(2) 0.64404(13) 0.91182(13)
H19 H 0.9244 0.5951 0.9571
B2 B 0.5914(2) 0.65739(14) 0.93458(14)
H20 H 0.5263 0.6177 0.9946
B3 B 0.5356(2) 0.80014(14) 0.91993(13)
H21 H 0.4325 0.8536 0.9701
B4 B 0.7402(2) 0.87493(13) 0.88945(12)
H22 H 0.7701 0.9772 0.9198
B5 B 0.9248(2) 0.77993(14) 0.88524(13)
H23 H 1.0754 0.8193 0.9136
B6 B 0.4616(2) 0.66038(14) 0.80257(14)
H24 H 0.3103 0.6225 0.7751
B7 B 0.6456(2) 0.56256(14) 0.79743(14)
H25 H 0.6145 0.4604 0.7674
B8 B 0.8532(2) 0.63899(14) 0.76675(13)
H26 H 0.9572 0.5864 0.7167
B9 B 0.7949(2) 0.78325(14) 0.75326(13)
H27 H 0.8589 0.8249 0.6942
B10 B 0.6232(2) 0.64865(14) 0.69957(13)
H28 H 0.5767 0.6027 0.6051
loop_
_geom_bond_atom_site_label_1
_geom_bond_atom_site_label_2
_geom_bond_site_symmetry_1
_geom_bond_site_symmetry_2
Si1 O1 1_555 1_555
Si2 O2 1_555 1_555
O1 H1 1_555 1_555
O2 H2 1_555 1_555
C1 Si1 1_555 1_555
H3 C1 1_555 1_555
H4 C1 1_555 1_555
H5 C1 1_555 1_555
C2 Si1 1_555 1_555
H6 C2 1_555 1_555
H7 C2 1_555 1_555
H8 C2 1_555 1_555
C3 Si1 1_555 1_555
H9 C3 1_555 1_555
H10 C3 1_555 1_555
C4 C3 1_555 1_555
C5 C6 1_555 1_555
C6 Si2 1_555 1_555
H11 C6 1_555 1_555
H12 C6 1_555 1_555
C7 Si2 1_555 1_555
H13 C7 1_555 1_555
H14 C7 1_555 1_555
H15 C7 1_555 1_555
C8 Si2 1_555 1_555
H16 C8 1_555 1_555
H17 C8 1_555 1_555
H18 C8 1_555 1_555
B1 C4 1_555 1_555
H19 B1 1_555 1_555
B2 C4 1_555 1_555
H20 B2 1_555 1_555
B3 C4 1_555 1_555
H21 B3 1_555 1_555
B4 C4 1_555 1_555
H22 B4 1_555 1_555
B5 C4 1_555 1_555
H23 B5 1_555 1_555
B6 C5 1_555 1_555
H24 B6 1_555 1_555
B7 B1 1_555 1_555
H25 B7 1_555 1_555
B8 B1 1_555 1_555
H26 B8 1_555 1_555
B9 C5 1_555 1_555
H27 B9 1_555 1_555
B10 C5 1_555 1_555
H28 B10 1_555 1_555
C5 B3 1_555 1_555
C5 B4 1_555 1_555
B1 B2 1_555 1_555
B1 B5 1_555 1_555
B2 B3 1_555 1_555
B2 B6 1_555 1_555
B2 B7 1_555 1_555
B3 B4 1_555 1_555
B3 B6 1_555 1_555
B4 B5 1_555 1_555
B4 B9 1_555 1_555
B5 B8 1_555 1_555
B5 B9 1_555 1_555
B6 B7 1_555 1_555
B6 B10 1_555 1_555
B7 B8 1_555 1_555
B7 B10 1_555 1_555
B8 B9 1_555 1_555
B8 B10 1_555 1_555
B9 B10 1_555 1_555

#END
