
#######################################################################
#
#                 Cambridge Crystallographic Data Centre
#                                CCDC 
#
#######################################################################
#
# If this CIF has been generated from an entry in the Cambridge 
# Structural Database, then it will include bibliographic, chemical, 
# crystal, experimental, refinement or atomic coordinate data resulting 
# from the CCDC's data processing and validation procedures.
#
#######################################################################

data_BOWMAC
_chemical_formula_moiety         'C38 H56 Se2'
_chemical_name_systematic        
2,7-Didodecyl[1]benzoselenopheno[3,2-b][1]benzoselenophene
_symmetry_cell_setting           monoclinic
_symmetry_space_group_name_H-M   'C 2/c'
_symmetry_Int_Tables_number      15
_space_group_name_Hall           '-C 2yn'
loop_
_symmetry_equiv_pos_site_id
_symmetry_equiv_pos_as_xyz
1 x,y,z
2 -x,y,1/2-z
3 1/2+x,1/2+y,z
4 1/2-x,1/2+y,1/2-z
5 -x,-y,-z
6 x,-y,1/2+z
7 1/2-x,1/2-y,-z
8 1/2+x,1/2-y,1/2+z
_cell_length_a                   74.517(12)
_cell_length_b                   4.4014(7)
_cell_length_c                   10.6926(19)
_cell_angle_alpha                90
_cell_angle_beta                 94.500(3)
_cell_angle_gamma                90
_cell_volume                     3496.14
_exptl_crystal_colour            colorless
_exptl_crystal_description       block
_cell_formula_units_Z            4
_exptl_crystal_recrystallization_method hexane
loop_
_atom_site_label
_atom_site_type_symbol
_atom_site_fract_x
_atom_site_fract_y
_atom_site_fract_z
Se1 Se 0.237862(7) 0.03550(13) 0.14212(5)
C1 C 0.21946(8) -0.1289(12) 0.0300(5)
C2 C 0.20128(8) -0.0780(13) 0.0348(5)
C3 C 0.18942(8) -0.2152(13) -0.0551(5)
C4 C 0.19620(8) -0.3948(14) -0.1456(5)
C5 C 0.21442(8) -0.4483(12) -0.1484(5)
C6 C 0.22635(7) -0.3121(12) -0.0613(5)
C7 C 0.25433(7) -0.1714(12) 0.0494(4)
C8 C 0.16948(8) -0.1601(15) -0.0540(6)
C9 C 0.16128(8) -0.2455(15) 0.0664(6)
C10 C 0.14130(8) -0.1962(16) 0.0613(6)
C11 C 0.13297(9) -0.2698(17) 0.1818(6)
C12 C 0.11298(9) -0.2189(18) 0.1765(7)
C13 C 0.10446(9) -0.2823(18) 0.2971(7)
C14 C 0.08463(9) -0.2261(19) 0.2918(7)
C15 C 0.07585(10) -0.2812(19) 0.4107(8)
C16 C 0.05585(10) -0.224(2) 0.4040(8)
C17 C 0.04718(10) -0.278(2) 0.5221(8)
C18 C 0.02758(12) -0.218(3) 0.5159(9)
C19 C 0.01853(13) -0.271(3) 0.6345(10)
H1 H 0.1969 0.0545 0.0995
H2 H 0.1881 -0.4873 -0.2106
H3 H 0.2187 -0.5844 -0.2098
H4 H 0.1671 0.0499 -0.0723
H5 H 0.1634 -0.2766 -0.1225
H6 H 0.1636 -0.4560 0.0876
H7 H 0.1666 -0.1261 0.1357
H8 H 0.1391 0.0115 0.0359
H9 H 0.1360 -0.3228 -0.0066
H10 H 0.1352 -0.4746 0.2075
H11 H 0.1382 -0.1399 0.2497
H12 H 0.1107 -0.0112 0.1493
H13 H 0.1077 -0.3477 0.1097
H14 H 0.1069 -0.4897 0.3246
H15 H 0.1101 -0.1541 0.3647
H16 H 0.0825 -0.0233 0.2621
H17 H 0.0792 -0.3610 0.2255
H18 H 0.0780 -0.4888 0.4379
H19 H 0.0814 -0.1519 0.4752
H20 H 0.0536 -0.0186 0.3746
H21 H 0.0503 -0.3552 0.3368
H22 H 0.0489 -0.4877 0.5488
H23 H 0.0527 -0.1531 0.5879
H24 H 0.0255 -0.0092 0.4850
H25 H 0.0217 -0.3454 0.4484
H26 H 0.0237 -0.1332 0.6982
H27 H 0.0058 -0.2194 0.6232
H28 H 0.0199 -0.4692 0.6615
Se1F Se 0.262138(7) -0.53550(13) -0.14212(5)
C1F C 0.28054(8) -0.3711(12) -0.0300(5)
C2F C 0.29872(8) -0.4220(13) -0.0348(5)
C3F C 0.31058(8) -0.2848(13) 0.0551(5)
C4F C 0.30380(8) -0.1052(14) 0.1456(5)
C5F C 0.28558(8) -0.0517(12) 0.1484(5)
C6F C 0.27365(7) -0.1879(12) 0.0613(5)
C7F C 0.24567(7) -0.3286(12) -0.0494(4)
C8F C 0.33052(8) -0.3399(15) 0.0540(6)
C9F C 0.33872(8) -0.2545(15) -0.0664(6)
C10F C 0.35870(8) -0.3038(16) -0.0613(6)
C11F C 0.36703(9) -0.2302(17) -0.1818(6)
C12F C 0.38702(9) -0.2811(18) -0.1765(7)
C13F C 0.39554(9) -0.2177(18) -0.2971(7)
C14F C 0.41537(9) -0.2739(19) -0.2918(7)
C15F C 0.42415(10) -0.2188(19) -0.4107(8)
C16F C 0.44415(10) -0.276(2) -0.4040(8)
C17F C 0.45282(10) -0.222(2) -0.5221(8)
C18F C 0.47242(12) -0.282(3) -0.5159(9)
C19F C 0.48147(13) -0.229(3) -0.6345(10)
H1F H 0.3031 -0.5545 -0.0995
H2F H 0.3119 -0.0127 0.2106
H3F H 0.2813 0.0844 0.2098
H4F H 0.3329 -0.5499 0.0723
H5F H 0.3366 -0.2234 0.1225
H6F H 0.3364 -0.0440 -0.0876
H7F H 0.3334 -0.3739 -0.1357
H8F H 0.3609 -0.5115 -0.0359
H9F H 0.3640 -0.1772 0.0066
H10F H 0.3648 -0.0254 -0.2075
H11F H 0.3618 -0.3601 -0.2497
H12F H 0.3893 -0.4888 -0.1493
H13F H 0.3923 -0.1523 -0.1097
H14F H 0.3931 -0.0103 -0.3246
H15F H 0.3899 -0.3459 -0.3647
H16F H 0.4175 -0.4767 -0.2621
H17F H 0.4208 -0.1390 -0.2255
H18F H 0.4220 -0.0112 -0.4379
H19F H 0.4186 -0.3481 -0.4752
H20F H 0.4464 -0.4814 -0.3746
H21F H 0.4497 -0.1448 -0.3368
H22F H 0.4511 -0.0123 -0.5488
H23F H 0.4473 -0.3469 -0.5879
H24F H 0.4745 -0.4908 -0.4850
H25F H 0.4783 -0.1546 -0.4484
H26F H 0.4763 -0.3668 -0.6982
H27F H 0.4942 -0.2806 -0.6232
H28F H 0.4801 -0.0308 -0.6615
loop_
_geom_bond_atom_site_label_1
_geom_bond_atom_site_label_2
_geom_bond_site_symmetry_1
_geom_bond_site_symmetry_2
Se1 C1 1_555 1_555
C1 C2 1_555 1_555
C2 C3 1_555 1_555
C3 C4 1_555 1_555
C4 C5 1_555 1_555
C5 C6 1_555 1_555
C6 C1 1_555 1_555
C7 Se1 1_555 1_555
C8 C3 1_555 1_555
C9 C8 1_555 1_555
C10 C9 1_555 1_555
C11 C10 1_555 1_555
C12 C11 1_555 1_555
C13 C12 1_555 1_555
C14 C13 1_555 1_555
C15 C14 1_555 1_555
C16 C15 1_555 1_555
C17 C16 1_555 1_555
C18 C17 1_555 1_555
C19 C18 1_555 1_555
H1 C2 1_555 1_555
H2 C4 1_555 1_555
H3 C5 1_555 1_555
H4 C8 1_555 1_555
H5 C8 1_555 1_555
H6 C9 1_555 1_555
H7 C9 1_555 1_555
H8 C10 1_555 1_555
H9 C10 1_555 1_555
H10 C11 1_555 1_555
H11 C11 1_555 1_555
H12 C12 1_555 1_555
H13 C12 1_555 1_555
H14 C13 1_555 1_555
H15 C13 1_555 1_555
H16 C14 1_555 1_555
H17 C14 1_555 1_555
H18 C15 1_555 1_555
H19 C15 1_555 1_555
H20 C16 1_555 1_555
H21 C16 1_555 1_555
H22 C17 1_555 1_555
H23 C17 1_555 1_555
H24 C18 1_555 1_555
H25 C18 1_555 1_555
H26 C19 1_555 1_555
H27 C19 1_555 1_555
H28 C19 1_555 1_555
Se1F C1F 1_555 1_555
C1F C2F 1_555 1_555
C2F C3F 1_555 1_555
C3F C4F 1_555 1_555
C4F C5F 1_555 1_555
C5F C6F 1_555 1_555
C6F C7 1_555 1_555
C7F C6 1_555 1_555
C8F C3F 1_555 1_555
C9F C8F 1_555 1_555
C10F C9F 1_555 1_555
C11F C10F 1_555 1_555
C12F C11F 1_555 1_555
C13F C12F 1_555 1_555
C14F C13F 1_555 1_555
C15F C14F 1_555 1_555
C16F C15F 1_555 1_555
C17F C16F 1_555 1_555
C18F C17F 1_555 1_555
C19F C18F 1_555 1_555
H1F C2F 1_555 1_555
H2F C4F 1_555 1_555
H3F C5F 1_555 1_555
H4F C8F 1_555 1_555
H5F C8F 1_555 1_555
H6F C9F 1_555 1_555
H7F C9F 1_555 1_555
H8F C10F 1_555 1_555
H9F C10F 1_555 1_555
H10F C11F 1_555 1_555
H11F C11F 1_555 1_555
H12F C12F 1_555 1_555
H13F C12F 1_555 1_555
H14F C13F 1_555 1_555
H15F C13F 1_555 1_555
H16F C14F 1_555 1_555
H17F C14F 1_555 1_555
H18F C15F 1_555 1_555
H19F C15F 1_555 1_555
H20F C16F 1_555 1_555
H21F C16F 1_555 1_555
H22F C17F 1_555 1_555
H23F C17F 1_555 1_555
H24F C18F 1_555 1_555
H25F C18F 1_555 1_555
H26F C19F 1_555 1_555
H27F C19F 1_555 1_555
H28F C19F 1_555 1_555
C7 C7F 1_555 1_555
Se1F C7F 1_555 1_555
C1F C6F 1_555 1_555

#END
