
#######################################################################
#
#                 Cambridge Crystallographic Data Centre
#                                CCDC 
#
#######################################################################
#
# If this CIF has been generated from an entry in the Cambridge 
# Structural Database, then it will include bibliographic, chemical, 
# crystal, experimental, refinement or atomic coordinate data resulting 
# from the CCDC's data processing and validation procedures.
#
#######################################################################

data_BOWMEG
_chemical_formula_moiety         'C42 H64 Se2'
_chemical_name_systematic        
2,7-Ditetradecyl[1]benzoselenopheno[3,2-b][1]benzoselenophene
_symmetry_cell_setting           monoclinic
_symmetry_space_group_name_H-M   'P 21/c'
_symmetry_Int_Tables_number      14
_space_group_name_Hall           '-P 2ybc'
loop_
_symmetry_equiv_pos_site_id
_symmetry_equiv_pos_as_xyz
1 x,y,z
2 -x,1/2+y,1/2-z
3 -x,-y,-z
4 x,1/2-y,1/2+z
_cell_length_a                   5.5648(6)
_cell_length_b                   7.3316(8)
_cell_length_c                   45.334(4)
_cell_angle_alpha                90
_cell_angle_beta                 93.289(3)
_cell_angle_gamma                90
_cell_volume                     1846.53
_exptl_crystal_colour            colorless
_exptl_crystal_description       block
_cell_formula_units_Z            2
_exptl_crystal_recrystallization_method hexane
loop_
_atom_site_label
_atom_site_type_symbol
_atom_site_fract_x
_atom_site_fract_y
_atom_site_fract_z
Se1 Se 0.81772(6) 0.98494(5) 0.032116(8)
C1 C 0.5926(6) 1.0603(5) 0.00203(8)
C2 C 0.6167(6) 0.7793(5) 0.03671(8)
C3 C 0.6558(6) 0.6371(5) 0.05686(8)
C4 C 0.4930(6) 0.4951(5) 0.05763(8)
C5 C 0.2919(6) 0.4976(5) 0.03751(8)
C6 C 0.2530(7) 0.6351(6) 0.01743(9)
C7 C 0.4149(6) 0.7821(5) 0.01668(8)
C8 C 0.5373(7) 0.3446(6) 0.08010(8)
C9 C 0.3580(6) 0.1881(5) 0.07958(8)
C10 C 0.4191(7) 0.0415(5) 0.10274(8)
C11 C 0.2372(7) -0.1098(6) 0.10304(9)
C12 C 0.2903(7) -0.2482(5) 0.12739(8)
C13 C 0.1095(7) -0.4040(6) 0.12771(9)
C14 C 0.1606(7) -0.5416(6) 0.15244(9)
C15 C -0.0220(7) -0.6949(6) 0.15282(9)
C16 C 0.0298(7) -0.8338(6) 0.17735(9)
C17 C -0.1540(7) -0.9878(6) 0.17750(9)
C18 C -0.1031(7) -1.1256(6) 0.20216(9)
C19 C -0.2839(7) -1.2813(6) 0.20263(8)
C20 C -0.2263(7) -1.4197(6) 0.22695(9)
C21 C -0.4070(9) -1.5715(7) 0.22838(11)
H1 H 0.7957 0.6381 0.0701
H2 H 0.1783 0.3991 0.0379
H3 H 0.1122 0.6339 0.0042
H4 H 0.5387 0.3988 0.0993
H5 H 0.6917 0.2941 0.0772
H6 H 0.2022 0.2361 0.0828
H7 H 0.3539 0.1323 0.0606
H8 H 0.4275 0.0990 0.1219
H9 H 0.5718 -0.0084 0.0994
H10 H 0.0816 -0.0582 0.1056
H11 H 0.2338 -0.1706 0.0845
H12 H 0.2915 -0.1876 0.1459
H13 H 0.4455 -0.2991 0.1249
H14 H -0.0470 -0.3540 0.1297
H15 H 0.1103 -0.4674 0.1093
H16 H 0.1604 -0.4778 0.1709
H17 H 0.3161 -0.5919 0.1504
H18 H -0.1770 -0.6440 0.1551
H19 H -0.0226 -0.7573 0.1343
H20 H 0.0288 -0.7716 0.1958
H21 H 0.1847 -0.8843 0.1752
H22 H -0.3092 -0.9374 0.1794
H23 H -0.1518 -1.0510 0.1590
H24 H -0.1055 -1.0630 0.2206
H25 H 0.0520 -1.1766 0.2002
H26 H -0.4393 -1.2314 0.2053
H27 H -0.2866 -1.3421 0.1840
H28 H -0.2169 -1.3570 0.2453
H29 H -0.0723 -1.4716 0.2237
H30 H -0.5606 -1.5231 0.2320
H31 H -0.4169 -1.6371 0.2102
H32 H -0.3586 -1.6538 0.2440
Se1B Se 0.18228(6) 1.01506(5) -0.032116(8)
C1B C 0.4074(6) 0.9397(5) -0.00203(8)
C2B C 0.3833(6) 1.2207(5) -0.03671(8)
C3B C 0.3442(6) 1.3629(5) -0.05686(8)
C4B C 0.5070(6) 1.5049(5) -0.05763(8)
C5B C 0.7081(6) 1.5024(5) -0.03751(8)
C6B C 0.7470(7) 1.3649(6) -0.01743(9)
C7B C 0.5851(6) 1.2179(5) -0.01668(8)
C8B C 0.4627(7) 1.6554(6) -0.08010(8)
C9B C 0.6420(6) 1.8119(5) -0.07958(8)
C10B C 0.5809(7) 1.9585(5) -0.10274(8)
C11B C 0.7628(7) 2.1098(6) -0.10304(9)
C12B C 0.7097(7) 2.2482(5) -0.12739(8)
C13B C 0.8905(7) 2.4040(6) -0.12771(9)
C14B C 0.8394(7) 2.5416(6) -0.15244(9)
C15B C 1.0220(7) 2.6949(6) -0.15282(9)
C16B C 0.9702(7) 2.8338(6) -0.17735(9)
C17B C 1.1540(7) 2.9878(6) -0.17750(9)
C18B C 1.1031(7) 3.1256(6) -0.20216(9)
C19B C 1.2839(7) 3.2813(6) -0.20263(8)
C20B C 1.2263(7) 3.4197(6) -0.22695(9)
C21B C 1.4070(9) 3.5715(7) -0.22838(11)
H1B H 0.2043 1.3619 -0.0701
H2B H 0.8217 1.6009 -0.0379
H3B H 0.8878 1.3661 -0.0042
H4B H 0.4613 1.6012 -0.0993
H5B H 0.3083 1.7059 -0.0772
H6B H 0.7978 1.7639 -0.0828
H7B H 0.6461 1.8677 -0.0606
H8B H 0.5725 1.9010 -0.1219
H9B H 0.4282 2.0084 -0.0994
H10B H 0.9184 2.0582 -0.1056
H11B H 0.7662 2.1706 -0.0845
H12B H 0.7085 2.1876 -0.1459
H13B H 0.5545 2.2991 -0.1249
H14B H 1.0470 2.3540 -0.1297
H15B H 0.8897 2.4674 -0.1093
H16B H 0.8396 2.4778 -0.1709
H17B H 0.6839 2.5919 -0.1504
H18B H 1.1770 2.6440 -0.1551
H19B H 1.0226 2.7573 -0.1343
H20B H 0.9712 2.7716 -0.1958
H21B H 0.8153 2.8843 -0.1752
H22B H 1.3092 2.9374 -0.1794
H23B H 1.1518 3.0510 -0.1590
H24B H 1.1055 3.0630 -0.2206
H25B H 0.9480 3.1766 -0.2002
H26B H 1.4393 3.2314 -0.2053
H27B H 1.2866 3.3421 -0.1840
H28B H 1.2169 3.3570 -0.2453
H29B H 1.0723 3.4716 -0.2237
H30B H 1.5606 3.5231 -0.2320
H31B H 1.4169 3.6371 -0.2102
H32B H 1.3586 3.6538 -0.2440
loop_
_geom_bond_atom_site_label_1
_geom_bond_atom_site_label_2
_geom_bond_site_symmetry_1
_geom_bond_site_symmetry_2
Se1 C1 1_555 1_555
C1 C1B 1_555 1_555
C2 Se1 1_555 1_555
C3 C2 1_555 1_555
C4 C3 1_555 1_555
C5 C4 1_555 1_555
C6 C5 1_555 1_555
C7 C2 1_555 1_555
C8 C4 1_555 1_555
C9 C8 1_555 1_555
C10 C9 1_555 1_555
C11 C10 1_555 1_555
C12 C11 1_555 1_555
C13 C12 1_555 1_555
C14 C13 1_555 1_555
C15 C14 1_555 1_555
C16 C15 1_555 1_555
C17 C16 1_555 1_555
C18 C17 1_555 1_555
C19 C18 1_555 1_555
C20 C19 1_555 1_555
C21 C20 1_555 1_555
H1 C3 1_555 1_555
H2 C5 1_555 1_555
H3 C6 1_555 1_555
H4 C8 1_555 1_555
H5 C8 1_555 1_555
H6 C9 1_555 1_555
H7 C9 1_555 1_555
H8 C10 1_555 1_555
H9 C10 1_555 1_555
H10 C11 1_555 1_555
H11 C11 1_555 1_555
H12 C12 1_555 1_555
H13 C12 1_555 1_555
H14 C13 1_555 1_555
H15 C13 1_555 1_555
H16 C14 1_555 1_555
H17 C14 1_555 1_555
H18 C15 1_555 1_555
H19 C15 1_555 1_555
H20 C16 1_555 1_555
H21 C16 1_555 1_555
H22 C17 1_555 1_555
H23 C17 1_555 1_555
H24 C18 1_555 1_555
H25 C18 1_555 1_555
H26 C19 1_555 1_555
H27 C19 1_555 1_555
H28 C20 1_555 1_555
H29 C20 1_555 1_555
H30 C21 1_555 1_555
H31 C21 1_555 1_555
H32 C21 1_555 1_555
Se1B C1B 1_555 1_555
C1B C7 1_555 1_555
C2B Se1B 1_555 1_555
C3B C2B 1_555 1_555
C4B C3B 1_555 1_555
C5B C4B 1_555 1_555
C6B C5B 1_555 1_555
C7B C1 1_555 1_555
C8B C4B 1_555 1_555
C9B C8B 1_555 1_555
C10B C9B 1_555 1_555
C11B C10B 1_555 1_555
C12B C11B 1_555 1_555
C13B C12B 1_555 1_555
C14B C13B 1_555 1_555
C15B C14B 1_555 1_555
C16B C15B 1_555 1_555
C17B C16B 1_555 1_555
C18B C17B 1_555 1_555
C19B C18B 1_555 1_555
C20B C19B 1_555 1_555
C21B C20B 1_555 1_555
H1B C3B 1_555 1_555
H2B C5B 1_555 1_555
H3B C6B 1_555 1_555
H4B C8B 1_555 1_555
H5B C8B 1_555 1_555
H6B C9B 1_555 1_555
H7B C9B 1_555 1_555
H8B C10B 1_555 1_555
H9B C10B 1_555 1_555
H10B C11B 1_555 1_555
H11B C11B 1_555 1_555
H12B C12B 1_555 1_555
H13B C12B 1_555 1_555
H14B C13B 1_555 1_555
H15B C13B 1_555 1_555
H16B C14B 1_555 1_555
H17B C14B 1_555 1_555
H18B C15B 1_555 1_555
H19B C15B 1_555 1_555
H20B C16B 1_555 1_555
H21B C16B 1_555 1_555
H22B C17B 1_555 1_555
H23B C17B 1_555 1_555
H24B C18B 1_555 1_555
H25B C18B 1_555 1_555
H26B C19B 1_555 1_555
H27B C19B 1_555 1_555
H28B C20B 1_555 1_555
H29B C20B 1_555 1_555
H30B C21B 1_555 1_555
H31B C21B 1_555 1_555
H32B C21B 1_555 1_555
C6 C7 1_555 1_555
C2B C7B 1_555 1_555
C6B C7B 1_555 1_555

#END
