
#######################################################################
#
#                 Cambridge Crystallographic Data Centre
#                                CCDC 
#
#######################################################################
#
# If this CIF has been generated from an entry in the Cambridge 
# Structural Database, then it will include bibliographic, chemical, 
# crystal, experimental, refinement or atomic coordinate data resulting 
# from the CCDC's data processing and validation procedures.
#
#######################################################################

data_BOWROU
_chemical_name_common            Hexathia-18-crown-6
_chemical_formula_moiety         'C12 H24 S6'
_chemical_name_systematic        1,4,7,10,13,16-Hexathiacyclo-octadecane
_symmetry_cell_setting           orthorhombic
_symmetry_space_group_name_H-M   'F d d 2'
_symmetry_Int_Tables_number      43
_space_group_name_Hall           'F 2 -2d'
loop_
_symmetry_equiv_pos_site_id
_symmetry_equiv_pos_as_xyz
1 x,y,z
2 x,1/2+y,1/2+z
3 1/2+x,y,1/2+z
4 1/2+x,1/2+y,z
5 1/4-x,1/4+y,1/4+z
6 1/4-x,3/4+y,3/4+z
7 3/4-x,1/4+y,3/4+z
8 3/4-x,3/4+y,1/4+z
9 1/4+x,1/4-y,1/4+z
10 1/4+x,3/4-y,3/4+z
11 3/4+x,1/4-y,3/4+z
12 3/4+x,3/4-y,1/4+z
13 1/2-x,-y,1/2+z
14 1/2-x,1/2-y,z
15 -x,-y,z
16 -x,1/2-y,1/2+z
_cell_length_a                   20.466(1)
_cell_length_b                   33.222(3)
_cell_length_c                   5.213(4)
_cell_angle_alpha                90
_cell_angle_beta                 90
_cell_angle_gamma                90
_cell_volume                     3544.43
_cell_formula_units_Z            8
loop_
_atom_site_label
_atom_site_type_symbol
_atom_site_fract_x
_atom_site_fract_y
_atom_site_fract_z
S1 S 0.07370 0.27810 0.31250
S2 S 0.26190 0.30790 -0.06490
S3 S 0.39140 0.35350 0.32840
C1 C 0.16540 0.29200 0.25670
C2 C 0.17170 0.29910 0.00010
C3 C 0.27580 0.35920 0.04290
C4 C 0.30550 0.36390 0.30120
C5 C 0.39300 0.30010 0.42510
C6 C 0.07610 0.22500 0.23360
H1 H 0.19310 0.27000 0.30730
H2 H 0.17680 0.31560 0.35300
H3 H 0.15650 0.27640 -0.09600
H4 H 0.14690 0.32250 -0.04710
H5 H 0.23430 0.37280 0.04450
H6 H 0.30420 0.37200 -0.07890
H7 H 0.29870 0.39120 0.35450
H8 H 0.28300 0.34610 0.41580
H9 H 0.34890 0.29110 0.45000
H10 H 0.41670 0.29770 0.58330
H11 H 0.09960 0.22200 0.07550
H12 H 0.03200 0.21590 0.21120
C6M C 0.42390 0.27500 0.23360
C5M C 0.10700 0.19990 0.42510
S1M S 0.42630 0.22190 0.31250
H11M H 0.40040 0.27800 0.07550
H12M H 0.46800 0.28410 0.21120
S3M S 0.10860 0.14650 0.32840
H9M H 0.15110 0.20890 0.45000
H10M H 0.08330 0.20230 0.58330
C1M C 0.33460 0.20800 0.25670
C4M C 0.19450 0.13610 0.30120
C2M C 0.32830 0.20090 0.00010
H1M H 0.30690 0.23000 0.30730
H2M H 0.32320 0.18440 0.35300
C3M C 0.22420 0.14080 0.04290
H7M H 0.20130 0.10880 0.35450
H8M H 0.21700 0.15390 0.41580
S2M S 0.23810 0.19210 -0.06490
H3M H 0.34350 0.22360 -0.09600
H4M H 0.35310 0.17750 -0.04710
H5M H 0.26570 0.12720 0.04450
H6M H 0.19580 0.12800 -0.07890
loop_
_geom_bond_atom_site_label_1
_geom_bond_atom_site_label_2
_geom_bond_site_symmetry_1
_geom_bond_site_symmetry_2
S1 C1 1_555 1_555
S2 C2 1_555 1_555
S3 C4 1_555 1_555
C1 C2 1_555 1_555
C2 H3 1_555 1_555
C3 S2 1_555 1_555
C4 C3 1_555 1_555
C5 S3 1_555 1_555
C6 S1 1_555 1_555
H1 C1 1_555 1_555
H2 C1 1_555 1_555
H4 C2 1_555 1_555
H5 C3 1_555 1_555
H6 C3 1_555 1_555
H7 C4 1_555 1_555
H8 C4 1_555 1_555
H9 C5 1_555 1_555
H10 C5 1_555 1_555
H11 C6 1_555 1_555
H12 C6 1_555 1_555
C6M C5 1_555 1_555
C5M C6 1_555 1_555
S1M C6M 1_555 1_555
H11M C6M 1_555 1_555
H12M C6M 1_555 1_555
S3M C5M 1_555 1_555
H9M C5M 1_555 1_555
H10M C5M 1_555 1_555
C1M S1M 1_555 1_555
C4M S3M 1_555 1_555
C2M C1M 1_555 1_555
H1M C1M 1_555 1_555
H2M C1M 1_555 1_555
C3M C4M 1_555 1_555
H7M C4M 1_555 1_555
H8M C4M 1_555 1_555
S2M C2M 1_555 1_555
H3M C2M 1_555 1_555
H4M C2M 1_555 1_555
H5M C3M 1_555 1_555
H6M C3M 1_555 1_555
C3M S2M 1_555 1_555

#END
