
#######################################################################
#
#                 Cambridge Crystallographic Data Centre
#                                CCDC 
#
#######################################################################
#
# If this CIF has been generated from an entry in the Cambridge 
# Structural Database, then it will include bibliographic, chemical, 
# crystal, experimental, refinement or atomic coordinate data resulting 
# from the CCDC's data processing and validation procedures.
#
#######################################################################

data_BOWXIV
_chemical_name_common            '(-)-Camphanoyl (S)-NP!35$'
_chemical_formula_moiety         'C25 H36 O4'
_chemical_name_systematic        
'(1S,4R)-4-((S)-2,3-Dimethyl-2-heptanyl)phenyl 4,7,7-trimethyl-3-oxo-2-oxabicyclo[2.2.1]heptane-1-carboxylate'
_chemical_properties_biological  'Tested in vitro for estrogenic activity'
_symmetry_cell_setting           orthorhombic
_symmetry_space_group_name_H-M   'P 21 21 21'
_symmetry_Int_Tables_number      19
_space_group_name_Hall           'P 2ac 2ab'
loop_
_symmetry_equiv_pos_site_id
_symmetry_equiv_pos_as_xyz
1 x,y,z
2 1/2-x,-y,1/2+z
3 -x,1/2+y,1/2-z
4 1/2+x,1/2-y,-z
_cell_length_a                   8.1538(12)
_cell_length_b                   37.551(6)
_cell_length_c                   7.3658(14)
_cell_angle_alpha                90
_cell_angle_beta                 90
_cell_angle_gamma                90
_cell_volume                     2255.29
_exptl_crystal_colour            colorless
_exptl_crystal_description       prism
_cell_formula_units_Z            4
_exptl_crystal_recrystallization_method methanol/water
loop_
_atom_site_label
_atom_site_type_symbol
_atom_site_fract_x
_atom_site_fract_y
_atom_site_fract_z
O1 O 0.83928(10) 0.073858(19) 0.99663(11)
C1 C 0.93353(15) 0.10411(3) 1.00639(16)
O2 O 0.87263(11) 0.13286(2) 1.03033(12)
C2 C 1.11005(15) 0.09342(3) 0.97606(17)
C3 C 1.23457(18) 0.12073(3) 1.0379(2)
H1 H 1.2217 0.1426 0.9664
H2 H 1.3454 0.1112 1.0206
H3 H 1.2172 0.1261 1.1667
C4 C 1.11309(16) 0.08383(3) 0.77019(17)
H4 H 1.0670 0.1034 0.6961
H5 H 1.2262 0.0788 0.7288
C5 C 1.00443(16) 0.05008(3) 0.75793(17)
H6 H 0.9079 0.0540 0.6789
H7 H 1.0673 0.0294 0.7124
C6 C 0.95347(14) 0.04499(3) 0.95770(17)
C7 C 1.10747(15) 0.05601(3) 1.06820(17)
C8 C 1.26111(16) 0.03392(3) 1.03223(19)
H8 H 1.3568 0.0461 1.0836
H9 H 1.2760 0.0310 0.9010
H10 H 1.2492 0.0105 1.0890
C9 C 1.07596(18) 0.05764(3) 1.27360(19)
H11 H 1.0501 0.0337 1.3187
H12 H 0.9835 0.0736 1.2979
H13 H 1.1742 0.0666 1.3352
O3 O 0.72618(11) 0.00606(2) 1.03035(14)
C10 C 0.86893(15) 0.01025(3) 1.00006(17)
O4 O 0.98229(11) -0.01589(2) 0.99530(14)
C11 C 0.93159(14) -0.05193(3) 1.01132(19)
C12 C 0.89537(16) -0.07043(3) 0.85515(18)
H14 H 0.8907 -0.0586 0.7413
C13 C 0.86571(16) -0.10674(3) 0.86736(17)
H15 H 0.8397 -0.1197 0.7603
C14 C 0.87309(15) -0.12487(3) 1.03352(17)
C15 C 0.90389(16) -0.10468(3) 1.18870(17)
H16 H 0.9050 -0.1161 1.3038
C16 C 0.93306(16) -0.06819(3) 1.17904(18)
H17 H 0.9536 -0.0548 1.2860
C17 C 0.84016(16) -0.16523(3) 1.03844(17)
C18 C 0.65904(16) -0.17029(3) 0.9818(2)
H18 H 0.6274 -0.1952 0.9993
H19 H 0.6460 -0.1639 0.8536
H20 H 0.5889 -0.1550 1.0564
C19 C 0.8626(2) -0.18095(3) 1.22859(18)
H21 H 0.9736 -0.1758 1.2721
H22 H 0.8460 -0.2068 1.2239
H23 H 0.7823 -0.1703 1.3115
C20 C 0.95796(16) -0.18376(3) 0.90004(18)
H24 H 0.9440 -0.1710 0.7820
C21 C 1.13800(17) -0.17952(3) 0.9536(2)
H25 H 1.1610 -0.1941 1.0608
H26 H 1.1604 -0.1545 0.9815
H27 H 1.2080 -0.1872 0.8529
C22 C 0.91831(18) -0.22330(3) 0.86276(18)
H28 H 0.9581 -0.2379 0.9657
H29 H 0.7979 -0.2263 0.8550
C23 C 0.99646(19) -0.23675(3) 0.68748(19)
H30 H 0.9790 -0.2188 0.5912
H31 H 1.1162 -0.2390 0.7066
C24 C 0.93005(18) -0.27237(3) 0.62173(19)
H32 H 0.8091 -0.2709 0.6128
H33 H 0.9573 -0.2910 0.7118
C25 C 0.9999(2) -0.28296(3) 0.43776(19)
H34 H 0.9752 -0.2643 0.3486
H35 H 0.9504 -0.3055 0.3986
H36 H 1.1190 -0.2859 0.4477
loop_
_geom_bond_atom_site_label_1
_geom_bond_atom_site_label_2
_geom_bond_site_symmetry_1
_geom_bond_site_symmetry_2
O1 C1 1_555 1_555
C1 O2 1_555 1_555
C2 C1 1_555 1_555
C3 C2 1_555 1_555
H1 C3 1_555 1_555
H2 C3 1_555 1_555
H3 C3 1_555 1_555
C4 C2 1_555 1_555
H4 C4 1_555 1_555
H5 C4 1_555 1_555
C5 C4 1_555 1_555
H6 C5 1_555 1_555
H7 C5 1_555 1_555
C6 O1 1_555 1_555
C7 C2 1_555 1_555
C8 C7 1_555 1_555
H8 C8 1_555 1_555
H9 C8 1_555 1_555
H10 C8 1_555 1_555
C9 C7 1_555 1_555
H11 C9 1_555 1_555
H12 C9 1_555 1_555
H13 C9 1_555 1_555
O3 C10 1_555 1_555
C10 C6 1_555 1_555
O4 C10 1_555 1_555
C11 O4 1_555 1_555
C12 C11 1_555 1_555
H14 C12 1_555 1_555
C13 C12 1_555 1_555
H15 C13 1_555 1_555
C14 C13 1_555 1_555
C15 C14 1_555 1_555
H16 C15 1_555 1_555
C16 C11 1_555 1_555
H17 C16 1_555 1_555
C17 C14 1_555 1_555
C18 C17 1_555 1_555
H18 C18 1_555 1_555
H19 C18 1_555 1_555
H20 C18 1_555 1_555
C19 C17 1_555 1_555
H21 C19 1_555 1_555
H22 C19 1_555 1_555
H23 C19 1_555 1_555
C20 C17 1_555 1_555
H24 C20 1_555 1_555
C21 C20 1_555 1_555
H25 C21 1_555 1_555
H26 C21 1_555 1_555
H27 C21 1_555 1_555
C22 C20 1_555 1_555
H28 C22 1_555 1_555
H29 C22 1_555 1_555
C23 C22 1_555 1_555
H30 C23 1_555 1_555
H31 C23 1_555 1_555
C24 C23 1_555 1_555
H32 C24 1_555 1_555
H33 C24 1_555 1_555
C25 C24 1_555 1_555
H34 C25 1_555 1_555
H35 C25 1_555 1_555
H36 C25 1_555 1_555
C5 C6 1_555 1_555
C6 C7 1_555 1_555
C15 C16 1_555 1_555

#END
