
#######################################################################
#
#                 Cambridge Crystallographic Data Centre
#                                CCDC 
#
#######################################################################
#
# If this CIF has been generated from an entry in the Cambridge 
# Structural Database, then it will include bibliographic, chemical, 
# crystal, experimental, refinement or atomic coordinate data resulting 
# from the CCDC's data processing and validation procedures.
#
#######################################################################

data_BOWYES
_chemical_formula_moiety         'C14 H15 N1 O4'
_chemical_name_systematic        
'Ethyl 6-methoxy-2-methyl-4-oxo-1,4-dihydro-3-quinolinecarboxylate'
_symmetry_cell_setting           monoclinic
_symmetry_space_group_name_H-M   'P 21/n'
_symmetry_Int_Tables_number      14
_space_group_name_Hall           '-P 2yn'
loop_
_symmetry_equiv_pos_site_id
_symmetry_equiv_pos_as_xyz
1 x,y,z
2 1/2-x,1/2+y,1/2-z
3 -x,-y,-z
4 1/2+x,1/2-y,1/2+z
_cell_length_a                   6.7780(14)
_cell_length_b                   6.8990(14)
_cell_length_c                   27.329(6)
_cell_angle_alpha                90
_cell_angle_beta                 92.34(3)
_cell_angle_gamma                90
_cell_volume                     1276.88
_exptl_crystal_colour            colorless
_exptl_crystal_description       plate
_chemical_melting_point          '450.9 K'
_cell_formula_units_Z            4
loop_
_atom_site_label
_atom_site_type_symbol
_atom_site_fract_x
_atom_site_fract_y
_atom_site_fract_z
O1 O 0.9403(6) 0.7691(6) 0.17453(13)
O2 O 0.6209(6) 0.7750(8) 0.17708(15)
O3 O 0.7564(5) 0.9335(4) 0.06660(11)
O4 O 0.7223(5) 0.7263(5) -0.11454(11)
N1 N 0.7674(5) 0.3451(5) 0.06261(12)
H1 H 0.7725 0.2206 0.0620
C1 C 1.1228(12) 0.7679(12) 0.2503(2)
H2 H 1.1331 0.8235 0.2825
H3 H 1.2429 0.7909 0.2338
H4 H 1.1008 0.6309 0.2529
C2 C 0.9590(10) 0.8563(12) 0.2228(2)
H5 H 0.9815 0.9945 0.2198
H6 H 0.8379 0.8373 0.2399
C3 C 0.7645(8) 0.7306(7) 0.15687(16)
C4 C 0.7645(6) 0.6327(6) 0.10849(15)
C5 C 0.7568(6) 0.7515(6) 0.06549(15)
C6 C 0.7517(6) 0.6453(6) 0.01895(15)
C7 C 0.7554(6) 0.4418(5) 0.01872(15)
C8 C 0.7718(6) 0.4328(6) 0.10598(15)
C9 C 0.7840(8) 0.3083(7) 0.15065(16)
H7 H 0.7751 0.1744 0.1412
H8 H 0.6772 0.3395 0.1713
H9 H 0.9075 0.3307 0.1682
C10 C 0.7396(6) 0.7428(6) -0.02600(15)
H10 H 0.7347 0.8775 -0.0263
C11 C 0.7349(6) 0.6453(6) -0.06887(15)
C12 C 0.7380(6) 0.4394(7) -0.06899(16)
H11 H 0.7322 0.3716 -0.0984
C13 C 0.7495(6) 0.3422(6) -0.02568(15)
H12 H 0.7535 0.2075 -0.0257
C14 C 0.7191(8) 0.9341(7) -0.11627(17)
H13 H 0.7105 0.9762 -0.1498
H14 H 0.8378 0.9842 -0.1006
H15 H 0.6067 0.9811 -0.0996
loop_
_geom_bond_atom_site_label_1
_geom_bond_atom_site_label_2
_geom_bond_site_symmetry_1
_geom_bond_site_symmetry_2
O1 C2 1_555 1_555
O2 C3 1_555 1_555
O3 C5 1_555 1_555
O4 C11 1_555 1_555
N1 H1 1_555 1_555
C1 H2 1_555 1_555
H3 C1 1_555 1_555
H4 C1 1_555 1_555
C2 C1 1_555 1_555
H5 C2 1_555 1_555
H6 C2 1_555 1_555
C3 O1 1_555 1_555
C4 C3 1_555 1_555
C5 C4 1_555 1_555
C6 C5 1_555 1_555
C7 N1 1_555 1_555
C8 N1 1_555 1_555
C9 C8 1_555 1_555
H7 C9 1_555 1_555
H8 C9 1_555 1_555
H9 C9 1_555 1_555
C10 C6 1_555 1_555
H10 C10 1_555 1_555
C11 C10 1_555 1_555
C12 C11 1_555 1_555
H11 C12 1_555 1_555
C13 C7 1_555 1_555
H12 C13 1_555 1_555
C14 O4 1_555 1_555
H13 C14 1_555 1_555
H14 C14 1_555 1_555
H15 C14 1_555 1_555
C4 C8 1_555 1_555
C6 C7 1_555 1_555
C12 C13 1_555 1_555

#END
