
#######################################################################
#
#                 Cambridge Crystallographic Data Centre
#                                CCDC 
#
#######################################################################
#
# If this CIF has been generated from an entry in the Cambridge 
# Structural Database, then it will include bibliographic, chemical, 
# crystal, experimental, refinement or atomic coordinate data resulting 
# from the CCDC's data processing and validation procedures.
#
#######################################################################

data_BOXJOP
_chemical_compound_source        'Abies faxoniana'
_chemical_name_common            17,23:23,26-Diepoxylanost-7-ene-3,26-dione
_chemical_formula_moiety         'C30 H44 O4'
_chemical_name_systematic        17,23-Epoxy-3-oxo-9-lanosta-7-en-26,23R-olide
_symmetry_cell_setting           orthorhombic
_symmetry_space_group_name_H-M   'P 21 21 21'
_symmetry_Int_Tables_number      19
_space_group_name_Hall           'P 2ac 2ab'
loop_
_symmetry_equiv_pos_site_id
_symmetry_equiv_pos_as_xyz
1 x,y,z
2 1/2-x,-y,1/2+z
3 -x,1/2+y,1/2-z
4 1/2+x,1/2-y,-z
_cell_length_a                   6.9472(14)
_cell_length_b                   17.137(3)
_cell_length_c                   22.894(5)
_cell_angle_alpha                90
_cell_angle_beta                 90
_cell_angle_gamma                90
_cell_volume                     2725.63
_exptl_crystal_colour            colorless
_exptl_crystal_description       column
_cell_formula_units_Z            4
loop_
_atom_site_label
_atom_site_type_symbol
_atom_site_fract_x
_atom_site_fract_y
_atom_site_fract_z
O1 O 0.3549(6) 0.94560(17) 1.77476(12)
O2 O 0.7064(3) 0.46658(13) 1.49148(8)
O3 O 0.8182(5) 0.34467(15) 1.47126(13)
O4 O 0.8665(9) 0.2850(3) 1.38757(18)
C1 C 0.4833(7) 0.74790(19) 1.73929(11)
H1 H 0.3692 0.7159 1.7442
H2 H 0.5944 0.7159 1.7486
C2 C 0.4743(10) 0.8166(2) 1.78205(14)
H3 H 0.3629 0.8094 1.8070
H4 H 0.5874 0.8144 1.8068
C3 C 0.4633(7) 0.8958(2) 1.75629(13)
C4 C 0.6068(6) 0.91351(17) 1.70731(13)
C5 C 0.6584(4) 0.83627(15) 1.67477(11)
H5 H 0.7636 0.8132 1.6975
C6 C 0.7413(5) 0.84816(15) 1.61359(12)
H6 H 0.6400 0.8634 1.5868
H7 H 0.8377 0.8891 1.6142
C7 C 0.8303(4) 0.77272(14) 1.59418(10)
H8 H 0.9458 0.7732 1.5736
C8 C 0.7454(3) 0.70558(13) 1.60614(9)
C9 C 0.5432(3) 0.70540(13) 1.63145(9)
H9 H 0.4599 0.7157 1.5978
C10 C 0.4967(4) 0.77433(15) 1.67546(9)
C11 C 0.4812(3) 0.62431(14) 1.65257(11)
H10 H 0.3454 0.6262 1.6623
H11 H 0.5510 0.6124 1.6882
C12 C 0.5134(4) 0.55739(14) 1.60903(11)
H12 H 0.3950 0.5485 1.5876
H13 H 0.5424 0.5101 1.6306
C13 C 0.6784(3) 0.57295(13) 1.56481(9)
C14 C 0.8329(3) 0.62712(13) 1.59247(9)
C15 C 0.9907(4) 0.62607(15) 1.54520(12)
H14 H 0.9614 0.6629 1.5143
H15 H 1.1151 0.6391 1.5618
C16 C 0.9898(4) 0.54191(16) 1.52187(13)
H16 H 1.1003 0.5136 1.5368
H17 H 0.9964 0.5421 1.4795
C17 C 0.8014(4) 0.50220(14) 1.54230(10)
C18 C 0.3011(5) 0.8069(2) 1.65640(15)
H18 H 0.2653 0.8492 1.6817
H19 H 0.2057 0.7665 1.6587
H20 H 0.3097 0.8255 1.6169
C19 C 0.5882(4) 0.61247(17) 1.51077(11)
H21 H 0.5114 0.6561 1.5230
H22 H 0.5085 0.5756 1.4905
H23 H 0.6885 0.6303 1.4852
C20 C 0.8213(4) 0.43228(14) 1.58505(13)
H24 H 0.7860 0.4499 1.6243
C21 C 0.6680(6) 0.37535(19) 1.56363(16)
H25 H 0.7032 0.3219 1.5727
H26 H 0.5439 0.3867 1.5811
C22 C 0.6636(6) 0.38840(19) 1.50009(18)
C23 C 0.4848(9) 0.3648(4) 1.4657(3)
H27 H 0.4146 0.3245 1.4865
H28 H 0.4005 0.4095 1.4607
C24 C 0.5475(10) 0.3357(2) 1.4089(2)
H29 H 0.4772 0.2879 1.3989
C25 C 0.7516(10) 0.3178(2) 1.4192(2)
C26 C 0.7898(8) 0.9449(3) 1.7372(2)
H30 H 0.7596 0.9920 1.7579
H31 H 0.8859 0.9556 1.7081
H32 H 0.8378 0.9066 1.7641
C27 C 0.5265(8) 0.97735(19) 1.66825(16)
H33 H 0.4966 1.0224 1.6914
H34 H 0.4118 0.9590 1.6494
H35 H 0.6205 0.9910 1.6393
C28 C 0.9221(4) 0.59377(15) 1.64939(11)
H36 H 1.0162 0.6297 1.6642
H37 H 0.9826 0.5446 1.6412
H38 H 0.8226 0.5864 1.6780
C29 C 1.0197(6) 0.39399(19) 1.58797(17)
H39 H 1.0170 0.3520 1.6157
H40 H 1.1134 0.4319 1.5999
H41 H 1.0534 0.3740 1.5501
C30 C 0.5302(16) 0.3936(5) 1.3604(3)
H42 H 0.5734 0.3704 1.3246
H43 H 0.6079 0.4385 1.3691
H44 H 0.3982 0.4093 1.3564
loop_
_geom_bond_atom_site_label_1
_geom_bond_atom_site_label_2
_geom_bond_site_symmetry_1
_geom_bond_site_symmetry_2
O1 C3 1_555 1_555
O2 C17 1_555 1_555
O3 C22 1_555 1_555
O4 C25 1_555 1_555
C1 H1 1_555 1_555
H2 C1 1_555 1_555
C2 C1 1_555 1_555
H3 C2 1_555 1_555
H4 C2 1_555 1_555
C3 C2 1_555 1_555
C4 C3 1_555 1_555
C5 C4 1_555 1_555
H5 C5 1_555 1_555
C6 C5 1_555 1_555
H6 C6 1_555 1_555
H7 C6 1_555 1_555
C7 C6 1_555 1_555
H8 C7 1_555 1_555
C8 C7 1_555 1_555
C9 C8 1_555 1_555
H9 C9 1_555 1_555
C10 C1 1_555 1_555
C11 C9 1_555 1_555
H10 C11 1_555 1_555
H11 C11 1_555 1_555
C12 C11 1_555 1_555
H12 C12 1_555 1_555
H13 C12 1_555 1_555
C13 C12 1_555 1_555
C14 C8 1_555 1_555
C15 C14 1_555 1_555
H14 C15 1_555 1_555
H15 C15 1_555 1_555
C16 C15 1_555 1_555
H16 C16 1_555 1_555
H17 C16 1_555 1_555
C17 C13 1_555 1_555
C18 C10 1_555 1_555
H18 C18 1_555 1_555
H19 C18 1_555 1_555
H20 C18 1_555 1_555
C19 C13 1_555 1_555
H21 C19 1_555 1_555
H22 C19 1_555 1_555
H23 C19 1_555 1_555
C20 C17 1_555 1_555
H24 C20 1_555 1_555
C21 C20 1_555 1_555
H25 C21 1_555 1_555
H26 C21 1_555 1_555
C22 O2 1_555 1_555
C23 C22 1_555 1_555
H27 C23 1_555 1_555
H28 C23 1_555 1_555
C24 C23 1_555 1_555
H29 C24 1_555 1_555
C25 O3 1_555 1_555
C26 C4 1_555 1_555
H30 C26 1_555 1_555
H31 C26 1_555 1_555
H32 C26 1_555 1_555
C27 C4 1_555 1_555
H33 C27 1_555 1_555
H34 C27 1_555 1_555
H35 C27 1_555 1_555
C28 C14 1_555 1_555
H36 C28 1_555 1_555
H37 C28 1_555 1_555
H38 C28 1_555 1_555
C29 C20 1_555 1_555
H39 C29 1_555 1_555
H40 C29 1_555 1_555
H41 C29 1_555 1_555
C30 C24 1_555 1_555
H42 C30 1_555 1_555
H43 C30 1_555 1_555
H44 C30 1_555 1_555
C5 C10 1_555 1_555
C9 C10 1_555 1_555
C13 C14 1_555 1_555
C16 C17 1_555 1_555
C21 C22 1_555 1_555
C24 C25 1_555 1_555

#END
