
#######################################################################
#
#                 Cambridge Crystallographic Data Centre
#                                CCDC 
#
#######################################################################
#
# If this CIF has been generated from an entry in the Cambridge 
# Structural Database, then it will include bibliographic, chemical, 
# crystal, experimental, refinement or atomic coordinate data resulting 
# from the CCDC's data processing and validation procedures.
#
#######################################################################

data_BOXLOR
_chemical_compound_source        'Polyalthia parviflora leaves'
_chemical_name_common            'Parvistone A'
_chemical_formula_moiety         'C13 H13 Cl1 O3'
_chemical_name_systematic        
6-(2-Chloro-1-hydroxy-2-phenylethyl)-5,6-dihydro-2H-pyran-2-one
_symmetry_cell_setting           orthorhombic
_symmetry_space_group_name_H-M   'P 21 21 21'
_symmetry_Int_Tables_number      19
_space_group_name_Hall           'P 2ac 2ab'
loop_
_symmetry_equiv_pos_site_id
_symmetry_equiv_pos_as_xyz
1 x,y,z
2 1/2-x,-y,1/2+z
3 -x,1/2+y,1/2-z
4 1/2+x,1/2-y,-z
_cell_length_a                   7.4066(2)
_cell_length_b                   9.4215(3)
_cell_length_c                   17.4684(5)
_cell_angle_alpha                90
_cell_angle_beta                 90
_cell_angle_gamma                90
_cell_volume                     1218.97
_exptl_crystal_colour            colorless
_exptl_crystal_description       Tabular
_cell_formula_units_Z            4
loop_
_atom_site_label
_atom_site_type_symbol
_atom_site_fract_x
_atom_site_fract_y
_atom_site_fract_z
C1 C 0.4763(2) 0.60581(15) 0.29798(8)
C2 C 0.5738(2) 0.47147(14) 0.29636(7)
H1 H 0.5084 0.3848 0.2941
C3 C 0.7533(2) 0.46872(14) 0.29806(8)
H2 H 0.8151 0.3812 0.2916
C4 C 0.8583(2) 0.60204(14) 0.31007(8)
H3 H 0.8929 0.6430 0.2600
H4 H 0.9700 0.5810 0.3390
C5 C 0.7442(2) 0.70716(14) 0.35409(7)
H5 H 0.7284 0.6721 0.4077
C6 C 0.8189(2) 0.85802(14) 0.35646(7)
H6 H 0.7216 0.9243 0.3737
C7 C 0.9810(2) 0.87086(14) 0.41082(7)
H7 H 1.0729 0.7980 0.3961
C8 C 1.0695(2) 1.01456(14) 0.41028(7)
C9 C 1.2532(2) 1.02468(16) 0.39541(8)
H8 H 1.3220 0.9413 0.3864
C10 C 1.3364(2) 1.15713(17) 0.39370(8)
H9 H 1.4618 1.1641 0.3830
C11 C 1.2371(3) 1.27825(17) 0.40755(8)
H10 H 1.2943 1.3685 0.4066
C12 C 1.0544(3) 1.26839(16) 0.42289(8)
H11 H 0.9862 1.3518 0.4328
C13 C 0.9707(2) 1.13719(15) 0.42375(8)
H12 H 0.8448 1.1310 0.4336
Cl1 Cl 0.90143(6) 0.83186(4) 0.507232(18)
O1 O 0.56670(13) 0.72307(9) 0.31875(5)
O2 O 0.32030(15) 0.62019(11) 0.27788(6)
O3 O 0.87716(14) 0.89816(9) 0.28267(5)
H13 H 0.8138 0.9660 0.2669
loop_
_geom_bond_atom_site_label_1
_geom_bond_atom_site_label_2
_geom_bond_site_symmetry_1
_geom_bond_site_symmetry_2
C1 C2 1_555 1_555
C2 H1 1_555 1_555
C3 C2 1_555 1_555
H2 C3 1_555 1_555
C4 C3 1_555 1_555
H3 C4 1_555 1_555
H4 C4 1_555 1_555
C5 C4 1_555 1_555
H5 C5 1_555 1_555
C6 C5 1_555 1_555
H6 C6 1_555 1_555
C7 C6 1_555 1_555
H7 C7 1_555 1_555
C8 C7 1_555 1_555
C9 C8 1_555 1_555
H8 C9 1_555 1_555
C10 C9 1_555 1_555
H9 C10 1_555 1_555
C11 C10 1_555 1_555
H10 C11 1_555 1_555
C12 C11 1_555 1_555
H11 C12 1_555 1_555
C13 C8 1_555 1_555
H12 C13 1_555 1_555
Cl1 C7 1_555 1_555
O1 C1 1_555 1_555
O2 C1 1_555 1_555
O3 C6 1_555 1_555
H13 O3 1_555 1_555
C5 O1 1_555 1_555
C12 C13 1_555 1_555

#END
