
#######################################################################
#
#                 Cambridge Crystallographic Data Centre
#                                CCDC 
#
#######################################################################
#
# If this CIF has been generated from an entry in the Cambridge 
# Structural Database, then it will include bibliographic, chemical, 
# crystal, experimental, refinement or atomic coordinate data resulting 
# from the CCDC's data processing and validation procedures.
#
#######################################################################

data_BOXQIO
_chemical_formula_moiety         'C17 H10 F1 N1'
_chemical_name_systematic        11-Fluorobenz(c)acridine
_symmetry_cell_setting           monoclinic
_symmetry_space_group_name_H-M   'P 21/n'
_symmetry_Int_Tables_number      14
_space_group_name_Hall           '-P 2yn'
loop_
_symmetry_equiv_pos_site_id
_symmetry_equiv_pos_as_xyz
1 x,y,z
2 1/2-x,1/2+y,1/2-z
3 -x,-y,-z
4 1/2+x,1/2-y,1/2+z
_cell_length_a                   7.1978(2)
_cell_length_b                   7.740
_cell_length_c                   21.4206(2)
_cell_angle_alpha                90
_cell_angle_beta                 90.622(1)
_cell_angle_gamma                90
_cell_volume                     1193.29
_exptl_crystal_colour            'pale yellow'
_chemical_melting_point          125-127deg.C
_cell_formula_units_Z            4
_exptl_crystal_recrystallization_method 'chloroform/60-80 petroleum ether'
loop_
_atom_site_label
_atom_site_type_symbol
_atom_site_fract_x
_atom_site_fract_y
_atom_site_fract_z
N1 N 0.0938(2) 0.6960(2) 0.0906(1)
F1 F 0.3798(2) 0.8554(2) 0.0337(1)
C1 C 0.0723(2) 0.7465(2) 0.0304(1)
C2 C 0.2233(3) 0.8274(2) -0.0002(1)
C3 C 0.2150(3) 0.8758(2) -0.0607(1)
C4 C 0.0535(3) 0.8476(2) -0.0952(1)
C5 C -0.0984(3) 0.7749(3) -0.0690(1)
C6 C -0.0927(2) 0.7218(2) -0.0051(1)
C7 C -0.2423(2) 0.6475(2) 0.0260(1)
C8 C -0.2257(2) 0.5967(2) 0.0877(1)
C9 C -0.3754(3) 0.5177(3) 0.1222(1)
C10 C -0.3501(3) 0.4633(3) 0.1809(1)
C11 C -0.1762(3) 0.4820(2) 0.2133(1)
C12 C -0.1486(3) 0.4248(3) 0.2752(1)
C13 C 0.0173(4) 0.4432(3) 0.3050(1)
C14 C 0.1646(3) 0.5215(3) 0.2744(1)
C15 C 0.1430(3) 0.5806(2) 0.2143(1)
C16 C -0.0252(2) 0.5620(2) 0.1825(1)
C17 C -0.0510(2) 0.6213(2) 0.1183(1)
H1 H 0.3171 0.9279 -0.0791
H2 H 0.0493 0.8791 -0.1371
H3 H -0.2063 0.7596 -0.0926
H4 H -0.3547 0.6319 0.0049
H5 H -0.4913 0.5046 0.1031
H6 H -0.4488 0.4115 0.2014
H7 H -0.2466 0.3731 0.2960
H8 H 0.0326 0.4038 0.3458
H9 H 0.2786 0.5339 0.2947
H10 H 0.2423 0.6337 0.1946
loop_
_geom_bond_atom_site_label_1
_geom_bond_atom_site_label_2
_geom_bond_site_symmetry_1
_geom_bond_site_symmetry_2
N1 C1 1_555 1_555
F1 C2 1_555 1_555
C1 C2 1_555 1_555
C2 C3 1_555 1_555
C3 C4 1_555 1_555
C4 C5 1_555 1_555
C5 C6 1_555 1_555
C6 C1 1_555 1_555
C7 C6 1_555 1_555
C8 C7 1_555 1_555
C9 C8 1_555 1_555
C10 C9 1_555 1_555
C11 C10 1_555 1_555
C12 C11 1_555 1_555
C13 C12 1_555 1_555
C14 C13 1_555 1_555
C15 C14 1_555 1_555
C16 C11 1_555 1_555
C17 N1 1_555 1_555
H1 C3 1_555 1_555
H2 C4 1_555 1_555
H3 C5 1_555 1_555
H4 C7 1_555 1_555
H5 C9 1_555 1_555
H6 C10 1_555 1_555
H7 C12 1_555 1_555
H8 C13 1_555 1_555
H9 C14 1_555 1_555
H10 C15 1_555 1_555
C8 C17 1_555 1_555
C15 C16 1_555 1_555
C16 C17 1_555 1_555

#END
