
#######################################################################
#
#                 Cambridge Crystallographic Data Centre
#                                CCDC 
#
#######################################################################
#
# If this CIF has been generated from an entry in the Cambridge 
# Structural Database, then it will include bibliographic, chemical, 
# crystal, experimental, refinement or atomic coordinate data resulting 
# from the CCDC's data processing and validation procedures.
#
#######################################################################

data_BOXQEK
_chemical_formula_moiety         'C17 H12 F1 N1'
_chemical_name_systematic        11-Fluoro-5,6-dihydrobenz(c)acridine
_symmetry_cell_setting           monoclinic
_symmetry_space_group_name_H-M   'P 21/n'
_symmetry_Int_Tables_number      14
_space_group_name_Hall           '-P 2yn'
loop_
_symmetry_equiv_pos_site_id
_symmetry_equiv_pos_as_xyz
1 x,y,z
2 1/2-x,1/2+y,1/2-z
3 -x,-y,-z
4 1/2+x,1/2-y,1/2+z
_cell_length_a                   8.5080(3)
_cell_length_b                   18.2023(7)
_cell_length_c                   8.7856(3)
_cell_angle_alpha                90
_cell_angle_beta                 115.393(1)
_cell_angle_gamma                90
_cell_volume                     1229.13
_exptl_crystal_colour            white
_chemical_melting_point          95-96deg.C
_cell_formula_units_Z            4
_exptl_crystal_recrystallization_method 'chloroform/60-80 petroleum ether'
loop_
_atom_site_label
_atom_site_type_symbol
_atom_site_fract_x
_atom_site_fract_y
_atom_site_fract_z
N1 N 0.9314(3) 0.0339(1) 0.7443(2)
F1 F 0.8412(2) 0.1682(1) 0.8147(2)
C1 C 0.9822(3) -0.0307(1) 0.7118(3)
C2 C 0.8577(3) -0.0731(1) 0.5671(3)
C3 C 0.6807(3) -0.0563(2) 0.4954(3)
C4 C 0.5635(4) -0.0967(2) 0.3640(4)
C5 C 0.6215(4) -0.1543(2) 0.3004(4)
C6 C 0.7961(4) -0.1713(1) 0.3682(4)
C7 C 0.9158(3) -0.1318(1) 0.5026(3)
C8 C 1.1075(4) -0.1490(2) 0.5782(4)
C9 C 1.1876(3) -0.1372(1) 0.7683(3)
C10 C 1.1484(3) -0.0616(1) 0.8118(3)
C11 C 1.2624(3) -0.0222(2) 0.9428(3)
C12 C 1.2174(3) 0.0476(2) 0.9805(3)
C13 C 1.3298(4) 0.0922(2) 1.1130(4)
C14 C 1.2808(4) 0.1596(2) 1.1414(4)
C15 C 1.1139(4) 0.1860(2) 1.0375(4)
C16 C 1.0035(4) 0.1430(2) 0.9128(4)
C17 C 1.0478(3) 0.0733(1) 0.8760(3)
H1 H 0.6415 -0.0169 0.5373
H2 H 0.4456 -0.0853 0.3184
H3 H 0.5427 -0.1819 0.2113
H4 H 0.8341 -0.2099 0.3230
H5 H 1.1647 -0.1174 0.5283
H6 H 1.1246 -0.1996 0.5539
H7 H 1.1420 -0.1736 0.8195
H8 H 1.3125 -0.1438 0.8139
H9 H 1.3719 -0.0414 1.0089
H10 H 1.4404 0.0750 1.1827
H11 H 1.3573 0.1883 1.2295
H12 H 1.0800 0.2327 1.0545
loop_
_geom_bond_atom_site_label_1
_geom_bond_atom_site_label_2
_geom_bond_site_symmetry_1
_geom_bond_site_symmetry_2
N1 C1 1_555 1_555
F1 C16 1_555 1_555
C1 C2 1_555 1_555
C2 C3 1_555 1_555
C3 C4 1_555 1_555
C4 C5 1_555 1_555
C5 C6 1_555 1_555
C6 C7 1_555 1_555
C7 C2 1_555 1_555
C8 C7 1_555 1_555
C9 C8 1_555 1_555
C10 C1 1_555 1_555
C11 C10 1_555 1_555
C12 C11 1_555 1_555
C13 C12 1_555 1_555
C14 C13 1_555 1_555
C15 C14 1_555 1_555
C16 C15 1_555 1_555
C17 N1 1_555 1_555
H1 C3 1_555 1_555
H2 C4 1_555 1_555
H3 C5 1_555 1_555
H4 C6 1_555 1_555
H5 C8 1_555 1_555
H6 C8 1_555 1_555
H7 C9 1_555 1_555
H8 C9 1_555 1_555
H9 C11 1_555 1_555
H10 C13 1_555 1_555
H11 C14 1_555 1_555
H12 C15 1_555 1_555
C9 C10 1_555 1_555
C12 C17 1_555 1_555
C16 C17 1_555 1_555

#END
