
#######################################################################
#
#                 Cambridge Crystallographic Data Centre
#                                CCDC 
#
#######################################################################
#
# If this CIF has been generated from an entry in the Cambridge 
# Structural Database, then it will include bibliographic, chemical, 
# crystal, experimental, refinement or atomic coordinate data resulting 
# from the CCDC's data processing and validation procedures.
#
#######################################################################

data_BOXTIT
_chemical_formula_moiety         'C25 H22 N2'
_chemical_name_systematic        3,3'-(phenylmethylene)bis(1-methyl-1H-indole)
_symmetry_cell_setting           monoclinic
_symmetry_space_group_name_H-M   'P 21/c'
_symmetry_Int_Tables_number      14
_space_group_name_Hall           '-P 2ybc'
loop_
_symmetry_equiv_pos_site_id
_symmetry_equiv_pos_as_xyz
1 x,y,z
2 -x,1/2+y,1/2-z
3 -x,-y,-z
4 x,1/2-y,1/2+z
_cell_length_a                   9.4408(17)
_cell_length_b                   25.506(5)
_cell_length_c                   8.0660(15)
_cell_angle_alpha                90
_cell_angle_beta                 95.641(4)
_cell_angle_gamma                90
_cell_volume                     1932.86
_exptl_crystal_description       BLOCK
_cell_formula_units_Z            4
loop_
_atom_site_label
_atom_site_type_symbol
_atom_site_fract_x
_atom_site_fract_y
_atom_site_fract_z
C1 C 0.2554(3) 0.55509(10) 0.9143(3)
H1 H 0.2476 0.5830 0.9871
C2 C 0.3891(3) 0.54080(10) 0.8714(3)
H2 H 0.4689 0.5591 0.9167
C3 C 0.4056(2) 0.50000(9) 0.7628(3)
H3 H 0.4956 0.4909 0.7347
C4 C 0.1201(2) 0.42073(9) 0.5646(3)
H4 H 0.0749 0.3951 0.4966
C5 C 0.1344(3) 0.52892(9) 0.8515(3)
H5 H 0.0451 0.5385 0.8805
C6 C 0.2512(2) 0.39630(10) 0.1988(3)
H6 H 0.2647 0.4323 0.1901
C7 C 0.1785(3) 0.36971(13) 0.0678(3)
H7 H 0.1422 0.3878 -0.0271
C8 C 0.4560(2) 0.35422(9) 0.7659(3)
H8 H 0.3753 0.3613 0.8196
C9 C 0.2626(2) 0.42969(8) 0.5807(3)
C10 C 0.3744(2) 0.40182(8) 0.4919(3)
H9 H 0.4318 0.4292 0.4456
C11 C 0.4745(2) 0.37016(8) 0.6090(3)
N1 N 0.05149(17) 0.45477(7) 0.6627(2)
C12 C 0.1511(2) 0.48738(8) 0.7426(3)
C13 C -0.1013(2) 0.45628(10) 0.6737(3)
H10 H -0.1371 0.4211 0.6783
H11 H -0.1470 0.4738 0.5776
H12 H -0.1205 0.4749 0.7725
C14 C 0.3047(2) 0.37052(9) 0.3436(3)
C15 C 0.2859(3) 0.31683(10) 0.3506(3)
H13 H 0.3217 0.2985 0.4451
N2 N 0.5714(2) 0.32631(7) 0.8354(2)
C16 C 0.2856(2) 0.47256(8) 0.6957(3)
C17 C 0.6115(2) 0.35076(8) 0.5757(3)
C18 C 0.6909(2) 0.35333(9) 0.4384(3)
H14 H 0.6549 0.3706 0.3418
C19 C 0.8222(2) 0.33006(10) 0.4480(4)
H15 H 0.8751 0.3316 0.3568
C20 C 0.8777(3) 0.30430(10) 0.5914(4)
H16 H 0.9675 0.2892 0.5945
C21 C 0.1600(3) 0.31625(14) 0.0781(4)
H17 H 0.1108 0.2981 -0.0095
C22 C 0.2144(3) 0.29007(12) 0.2184(4)
H18 H 0.2033 0.2539 0.2249
C23 C 0.5850(3) 0.30156(11) 0.9985(3)
H19 H 0.5851 0.2642 0.9854
H20 H 0.5063 0.3117 1.0582
H21 H 0.6725 0.3124 1.0595
C24 C 0.6692(2) 0.32383(8) 0.7200(3)
C25 C 0.8030(2) 0.30060(9) 0.7293(4)
H22 H 0.8406 0.2832 0.8251
loop_
_geom_bond_atom_site_label_1
_geom_bond_atom_site_label_2
_geom_bond_site_symmetry_1
_geom_bond_site_symmetry_2
C1 H1 1_555 1_555
C2 C1 1_555 1_555
H2 C2 1_555 1_555
C3 C2 1_555 1_555
H3 C3 1_555 1_555
C4 H4 1_555 1_555
C5 C1 1_555 1_555
H5 C5 1_555 1_555
C6 H6 1_555 1_555
C7 C6 1_555 1_555
H7 C7 1_555 1_555
C8 H8 1_555 1_555
C9 C4 1_555 1_555
C10 C9 1_555 1_555
H9 C10 1_555 1_555
C11 C8 1_555 1_555
N1 C4 1_555 1_555
C12 C5 1_555 1_555
C13 N1 1_555 1_555
H10 C13 1_555 1_555
H11 C13 1_555 1_555
H12 C13 1_555 1_555
C14 C6 1_555 1_555
C15 C14 1_555 1_555
H13 C15 1_555 1_555
N2 C8 1_555 1_555
C16 C3 1_555 1_555
C17 C11 1_555 1_555
C18 C17 1_555 1_555
H14 C18 1_555 1_555
C19 C18 1_555 1_555
H15 C19 1_555 1_555
C20 C19 1_555 1_555
H16 C20 1_555 1_555
C21 C7 1_555 1_555
H17 C21 1_555 1_555
C22 C15 1_555 1_555
H18 C22 1_555 1_555
C23 N2 1_555 1_555
H19 C23 1_555 1_555
H20 C23 1_555 1_555
H21 C23 1_555 1_555
C24 N2 1_555 1_555
C25 C20 1_555 1_555
H22 C25 1_555 1_555
C9 C16 1_555 1_555
C10 C11 1_555 1_555
C10 C14 1_555 1_555
N1 C12 1_555 1_555
C12 C16 1_555 1_555
C17 C24 1_555 1_555
C21 C22 1_555 1_555
C24 C25 1_555 1_555

#END
