
#######################################################################
#
#                 Cambridge Crystallographic Data Centre
#                                CCDC 
#
#######################################################################
#
# If this CIF has been generated from an entry in the Cambridge 
# Structural Database, then it will include bibliographic, chemical, 
# crystal, experimental, refinement or atomic coordinate data resulting 
# from the CCDC's data processing and validation procedures.
#
#######################################################################

data_BOXZIZ
_chemical_formula_moiety         'C18 H21 N5'
_chemical_name_systematic        
3-((5-(3-(1H-pyrrol-2-yl)pentan-3-yl)-1H-pyrrol-2-yl)diazenyl)pyridine
_symmetry_cell_setting           triclinic
_symmetry_space_group_name_H-M   'P -1'
_symmetry_Int_Tables_number      2
_space_group_name_Hall           '-P 1'
loop_
_symmetry_equiv_pos_site_id
_symmetry_equiv_pos_as_xyz
1 x,y,z
2 -x,-y,-z
_cell_length_a                   6.5632(10)
_cell_length_b                   7.0805(11)
_cell_length_c                   17.436(3)
_cell_angle_alpha                89.504(2)
_cell_angle_beta                 79.460(2)
_cell_angle_gamma                84.278(2)
_cell_volume                     792.585
_exptl_crystal_colour            yellow
_exptl_crystal_description       block
_cell_formula_units_Z            2
loop_
_atom_site_label
_atom_site_type_symbol
_atom_site_fract_x
_atom_site_fract_y
_atom_site_fract_z
N1 N 0.33829(18) 0.49667(16) 0.21158(6)
H1 H 0.2054 0.5060 0.2083
N2 N 0.47893(19) 0.33730(17) 0.08604(7)
N3 N 0.29201(19) 0.33857(17) 0.07468(7)
N4 N 0.44633(19) 0.12315(17) -0.12388(7)
N5 N 0.20739(18) 0.93263(16) 0.25859(7)
H2 H 0.3275 0.9124 0.2264
C1 C 0.2761(2) 0.65171(19) 0.34382(8)
C2 C 0.4153(2) 0.7221(2) 0.39893(8)
H3 H 0.5177 0.6156 0.4079
H4 H 0.4942 0.8235 0.3722
C3 C 0.2968(2) 0.7981(2) 0.47780(8)
H5 H 0.1828 0.8923 0.4699
H6 H 0.3917 0.8577 0.5053
H7 H 0.2397 0.6933 0.5089
C4 C 0.1364(2) 0.5012(2) 0.38432(8)
H8 H 0.0409 0.5615 0.4301
H9 H 0.0498 0.4616 0.3476
C5 C 0.2550(2) 0.3252(2) 0.41132(9)
H10 H 0.3562 0.2684 0.3672
H11 H 0.1570 0.2332 0.4318
H12 H 0.3283 0.3605 0.4524
C6 C 0.4173(2) 0.56136(19) 0.27261(8)
C7 C 0.6314(2) 0.5202(2) 0.25525(8)
H13 H 0.7273 0.5492 0.2872
C8 C 0.6822(2) 0.4284(2) 0.18233(8)
H14 H 0.8181 0.3838 0.1560
C9 C 0.4985(2) 0.4146(2) 0.15589(8)
C10 C 0.2818(2) 0.2583(2) 0.00095(8)
C11 C 0.4568(2) 0.1965(2) -0.05482(8)
H15 H 0.5906 0.2074 -0.0428
C12 C 0.2565(2) 0.1077(2) -0.13968(9)
H16 H 0.2464 0.0548 -0.1886
C13 C 0.0746(3) 0.1649(3) -0.08843(9)
H17 H -0.0569 0.1511 -0.1020
C14 C 0.0868(2) 0.2428(2) -0.01693(9)
H18 H -0.0360 0.2847 0.0191
C15 C 0.1388(2) 0.81914(19) 0.32024(8)
C16 C -0.0543(2) 0.9000(2) 0.35586(8)
H19 H -0.1397 0.8526 0.4004
C17 C -0.1033(2) 1.0663(2) 0.31449(8)
H20 H -0.2268 1.1510 0.3260
C18 C 0.0608(2) 1.0817(2) 0.25484(8)
H21 H 0.0711 1.1796 0.2171
loop_
_geom_bond_atom_site_label_1
_geom_bond_atom_site_label_2
_geom_bond_site_symmetry_1
_geom_bond_site_symmetry_2
N1 H1 1_555 1_555
N2 N3 1_555 1_555
N3 C10 1_555 1_555
N4 C11 1_555 1_555
N5 H2 1_555 1_555
C1 C2 1_555 1_555
C2 H3 1_555 1_555
H4 C2 1_555 1_555
C3 C2 1_555 1_555
H5 C3 1_555 1_555
H6 C3 1_555 1_555
H7 C3 1_555 1_555
C4 C1 1_555 1_555
H8 C4 1_555 1_555
H9 C4 1_555 1_555
C5 C4 1_555 1_555
H10 C5 1_555 1_555
H11 C5 1_555 1_555
H12 C5 1_555 1_555
C6 N1 1_555 1_555
C7 C6 1_555 1_555
H13 C7 1_555 1_555
C8 C7 1_555 1_555
H14 C8 1_555 1_555
C9 N1 1_555 1_555
C10 C11 1_555 1_555
C11 H15 1_555 1_555
C12 N4 1_555 1_555
H16 C12 1_555 1_555
C13 C12 1_555 1_555
H17 C13 1_555 1_555
C14 C10 1_555 1_555
H18 C14 1_555 1_555
C15 N5 1_555 1_555
C16 C15 1_555 1_555
H19 C16 1_555 1_555
C17 C16 1_555 1_555
H20 C17 1_555 1_555
C18 N5 1_555 1_555
H21 C18 1_555 1_555
N2 C9 1_555 1_555
C1 C6 1_555 1_555
C1 C15 1_555 1_555
C8 C9 1_555 1_555
C13 C14 1_555 1_555
C17 C18 1_555 1_555

#END
