
#######################################################################
#
#                 Cambridge Crystallographic Data Centre
#                                CCDC 
#
#######################################################################
#
# If this CIF has been generated from an entry in the Cambridge 
# Structural Database, then it will include bibliographic, chemical, 
# crystal, experimental, refinement or atomic coordinate data resulting 
# from the CCDC's data processing and validation procedures.
#
#######################################################################

data_BOXZOF
_chemical_formula_moiety         'C23 H24 N8'
_chemical_name_systematic        
3,3'-(pentane-3,3-diylbis(1H-pyrrole-5,2-diyldiazene-2,1-diyl))dipyridine
_symmetry_cell_setting           triclinic
_symmetry_space_group_name_H-M   'P -1'
_symmetry_Int_Tables_number      2
_space_group_name_Hall           '-P 1'
loop_
_symmetry_equiv_pos_site_id
_symmetry_equiv_pos_as_xyz
1 x,y,z
2 -x,-y,-z
_cell_length_a                   9.7324(8)
_cell_length_b                   9.9779(8)
_cell_length_c                   12.3817(11)
_cell_angle_alpha                87.052(2)
_cell_angle_beta                 71.766(2)
_cell_angle_gamma                70.968(2)
_cell_volume                     1077.86
_exptl_crystal_colour            orange
_exptl_crystal_description       Block
_cell_formula_units_Z            2
loop_
_atom_site_label
_atom_site_type_symbol
_atom_site_fract_x
_atom_site_fract_y
_atom_site_fract_z
N1 N 0.99771(14) 0.30005(13) 0.08824(11)
H1 H 0.9398 0.2672 0.0622
N2 N 1.17212(15) 0.33233(14) -0.09482(12)
N3 N 1.09618(15) 0.28429(14) -0.14125(12)
N4 N 1.1074(2) 0.2384(2) -0.43435(14)
N5 N 0.65131(15) 0.43267(14) 0.22415(11)
H2 H 0.6872 0.5043 0.2114
N6 N 0.42456(15) 0.53648(14) 0.16248(12)
N7 N 0.46115(15) 0.64934(14) 0.14602(12)
N8 N 0.17928(15) 0.83239(14) -0.00268(12)
C1 C 0.86402(18) 0.27572(17) 0.29494(14)
C2 C 0.92692(19) 0.11307(18) 0.30837(15)
H3 H 0.8462 0.0849 0.3662
H4 H 0.9478 0.0628 0.2351
C3 C 1.0720(2) 0.06316(19) 0.34308(16)
H5 H 1.1518 0.0940 0.2885
H6 H 1.1072 -0.0407 0.3438
H7 H 1.0502 0.1041 0.4193
C4 C 0.8307(2) 0.36306(19) 0.40624(14)
H8 H 0.9275 0.3417 0.4245
H9 H 0.7968 0.4653 0.3918
C5 C 0.7106(2) 0.3358(2) 0.50976(16)
H10 H 0.6129 0.3603 0.4942
H11 H 0.6980 0.3943 0.5756
H12 H 0.7436 0.2352 0.5261
C6 C 0.98199(18) 0.31876(16) 0.20032(14)
C7 C 1.09479(19) 0.37258(17) 0.20569(15)
H13 H 1.1103 0.3967 0.2732
C8 C 1.18131(19) 0.38498(17) 0.09431(15)
H14 H 1.2671 0.4176 0.0723
C9 C 1.11929(17) 0.34107(16) 0.02208(14)
C10 C 1.16104(19) 0.26247(17) -0.26094(15)
C11 C 1.0631(2) 0.2629(2) -0.32202(16)
H15 H 0.9578 0.2818 -0.2810
C12 C 1.2573(3) 0.2086(3) -0.48923(18)
H16 H 1.2923 0.1890 -0.5693
C13 C 1.3639(2) 0.2048(2) -0.43622(18)
H17 H 1.4690 0.1834 -0.4792
C14 C 1.3158(2) 0.2324(2) -0.31974(16)
H18 H 1.3865 0.2309 -0.2810
C15 C 0.71728(18) 0.30603(17) 0.26505(14)
C16 C 0.62447(19) 0.22345(18) 0.27469(15)
H19 H 0.6416 0.1306 0.3020
C17 C 0.50134(19) 0.30030(18) 0.23731(15)
H20 H 0.4203 0.2691 0.2339
C18 C 0.51907(18) 0.42976(18) 0.20621(14)
C19 C 0.36713(17) 0.75448(17) 0.09469(14)
C20 C 0.26190(18) 0.73291(17) 0.04850(14)
H21 H 0.2486 0.6424 0.0539
C21 C 0.19874(18) 0.95939(17) -0.00973(15)
H22 H 0.1417 1.0308 -0.0474
C22 C 0.2981(2) 0.99155(19) 0.03530(18)
H23 H 0.3070 1.0839 0.0303
C23 C 0.3846(2) 0.88716(18) 0.08777(17)
H24 H 0.4547 0.9063 0.1185
loop_
_geom_bond_atom_site_label_1
_geom_bond_atom_site_label_2
_geom_bond_site_symmetry_1
_geom_bond_site_symmetry_2
N1 H1 1_555 1_555
N2 N3 1_555 1_555
N3 C10 1_555 1_555
N4 C11 1_555 1_555
N5 H2 1_555 1_555
N6 N7 1_555 1_555
N7 C19 1_555 1_555
N8 C20 1_555 1_555
C1 C2 1_555 1_555
C2 H3 1_555 1_555
H4 C2 1_555 1_555
C3 C2 1_555 1_555
H5 C3 1_555 1_555
H6 C3 1_555 1_555
H7 C3 1_555 1_555
C4 C1 1_555 1_555
H8 C4 1_555 1_555
H9 C4 1_555 1_555
C5 C4 1_555 1_555
H10 C5 1_555 1_555
H11 C5 1_555 1_555
H12 C5 1_555 1_555
C6 N1 1_555 1_555
C7 C6 1_555 1_555
H13 C7 1_555 1_555
C8 C7 1_555 1_555
H14 C8 1_555 1_555
C9 N1 1_555 1_555
C10 C11 1_555 1_555
C11 H15 1_555 1_555
C12 N4 1_555 1_555
H16 C12 1_555 1_555
C13 C12 1_555 1_555
H17 C13 1_555 1_555
C14 C10 1_555 1_555
H18 C14 1_555 1_555
C15 N5 1_555 1_555
C16 C15 1_555 1_555
H19 C16 1_555 1_555
C17 C16 1_555 1_555
H20 C17 1_555 1_555
C18 N5 1_555 1_555
C19 C20 1_555 1_555
C20 H21 1_555 1_555
C21 N8 1_555 1_555
H22 C21 1_555 1_555
C22 C21 1_555 1_555
H23 C22 1_555 1_555
C23 C19 1_555 1_555
H24 C23 1_555 1_555
N2 C9 1_555 1_555
N6 C18 1_555 1_555
C1 C6 1_555 1_555
C1 C15 1_555 1_555
C8 C9 1_555 1_555
C13 C14 1_555 1_555
C17 C18 1_555 1_555
C22 C23 1_555 1_555

#END
