
#######################################################################
#
#                 Cambridge Crystallographic Data Centre
#                                CCDC 
#
#######################################################################
#
# If this CIF has been generated from an entry in the Cambridge 
# Structural Database, then it will include bibliographic, chemical, 
# crystal, experimental, refinement or atomic coordinate data resulting 
# from the CCDC's data processing and validation procedures.
#
#######################################################################

data_BOYBIB
_chemical_formula_moiety         'C32 H39 N2 P1'
_chemical_name_systematic        
2-(Di-t-butylphosphino)-1-mesityl-4,5-diphenyl-1H-imidazole
_symmetry_cell_setting           orthorhombic
_symmetry_space_group_name_H-M   'P 21 21 21'
_symmetry_Int_Tables_number      19
_space_group_name_Hall           'P 2ac 2ab'
loop_
_symmetry_equiv_pos_site_id
_symmetry_equiv_pos_as_xyz
1 x,y,z
2 1/2-x,-y,1/2+z
3 -x,1/2+y,1/2-z
4 1/2+x,1/2-y,-z
_cell_length_a                   10.3780(3)
_cell_length_b                   10.7916(3)
_cell_length_c                   25.6151(6)
_cell_angle_alpha                90
_cell_angle_beta                 90
_cell_angle_gamma                90
_cell_volume                     2868.77
_exptl_crystal_colour            colorless
_exptl_crystal_description       prism
_cell_formula_units_Z            4
loop_
_atom_site_label
_atom_site_type_symbol
_atom_site_fract_x
_atom_site_fract_y
_atom_site_fract_z
C1 C 0.50196(15) 0.79391(16) 0.10570(6)
C2 C 0.45475(15) 0.96920(16) 0.06922(6)
C3 C 0.38355(14) 0.96496(16) 0.11451(6)
C4 C 0.46218(15) 1.06179(16) 0.02715(6)
C5 C 0.57013(18) 1.06247(17) -0.00509(6)
H1 H 0.6376 1.0049 0.0011
C6 C 0.58089(18) 1.14469(19) -0.04567(6)
H2 H 0.6555 1.1436 -0.0671
C7 C 0.48421(19) 1.22873(18) -0.05547(6)
H3 H 0.4920 1.2859 -0.0835
C8 C 0.37602(19) 1.22925(17) -0.02430(6)
H4 H 0.3087 1.2867 -0.0310
C9 C 0.36496(16) 1.14646(17) 0.01668(6)
H5 H 0.2899 1.1476 0.0379
C10 C 0.3078(3) 1.0668(2) 0.13948(11)
C11 C 0.3537(3) 1.1877(2) 0.14155(11)
H6 H 0.4365 1.2068 0.1279
C12 C 0.2785(3) 1.2806(2) 0.16356(11)
H7 H 0.3098 1.3632 0.1650
C13 C 0.1574(3) 1.2525(3) 0.18351(10)
H8 H 0.1060 1.3160 0.1986
C14 C 0.1115(2) 1.1316(3) 0.18144(10)
H9 H 0.0287 1.1125 0.1951
C15 C 0.1867(3) 1.0387(2) 0.15942(11)
H10 H 0.1553 0.9561 0.1580
C16 C 0.37117(15) 0.81217(16) 0.18862(6)
C17 C 0.27705(15) 0.72127(17) 0.19310(6)
C18 C 0.24164(16) 0.68363(17) 0.24287(7)
H11 H 0.1775 0.6215 0.2465
C19 C 0.29640(17) 0.73335(18) 0.28731(6)
C20 C 0.38722(16) 0.82635(17) 0.28105(6)
H12 H 0.4241 0.8629 0.3113
C21 C 0.42635(15) 0.86818(16) 0.23238(6)
C22 C 0.21263(17) 0.6638(2) 0.14605(7)
H13 H 0.2168 0.7215 0.1166
H14 H 0.1223 0.6458 0.1543
H15 H 0.2570 0.5867 0.1368
C23 C 0.2596(2) 0.6879(2) 0.34091(7)
H16 H 0.3366 0.6838 0.3630
H17 H 0.2211 0.6053 0.3381
H18 H 0.1971 0.7451 0.3565
C24 C 0.52213(17) 0.97128(17) 0.22861(7)
H19 H 0.5650 0.9681 0.1946
H20 H 0.5864 0.9625 0.2564
H21 H 0.4777 1.0509 0.2324
C25 C 0.73917(16) 0.67269(17) 0.13373(6)
C26 C 0.7354(2) 0.7078(2) 0.19146(8)
H22 H 0.8230 0.7253 0.2037
H23 H 0.6990 0.6391 0.2117
H24 H 0.6816 0.7817 0.1961
C27 C 0.81885(18) 0.5540(2) 0.12906(9)
H25 H 0.8336 0.5352 0.0921
H26 H 0.7722 0.4853 0.1454
H27 H 0.9018 0.5655 0.1467
C28 C 0.8030(2) 0.7764(2) 0.10326(9)
H28 H 0.8916 0.7875 0.1157
H29 H 0.7547 0.8534 0.1084
H30 H 0.8040 0.7553 0.0661
C29 C 0.55374(17) 0.56777(16) 0.04988(6)
C30 C 0.41409(18) 0.5839(2) 0.03128(8)
H31 H 0.4020 0.5394 -0.0017
H32 H 0.3960 0.6721 0.0260
H33 H 0.3552 0.5504 0.0576
C31 C 0.5768(2) 0.42949(17) 0.05753(7)
H34 H 0.5675 0.3867 0.0240
H35 H 0.5138 0.3966 0.0824
H36 H 0.6641 0.4163 0.0711
C32 C 0.6435(2) 0.6187(2) 0.00769(7)
H37 H 0.7332 0.6019 0.0173
H38 H 0.6307 0.7084 0.0044
H39 H 0.6241 0.5786 -0.0257
N1 N 0.52688(12) 0.86324(14) 0.06460(5)
N2 N 0.41270(11) 0.85211(13) 0.13734(4)
P1 P 0.56469(4) 0.63779(4) 0.117448(15)
C33? C 0.2835(2) 1.0444(2) 0.13852(11)
C34? C 0.3167(2) 1.1677(2) 0.14661(10)
C35? C 0.2299(3) 1.2478(2) 0.17045(10)
C36? C 0.1099(3) 1.2046(3) 0.18619(9)
C37? C 0.0766(2) 1.0813(3) 0.17810(10)
C38? C 0.1635(2) 1.0012(2) 0.15427(11)
H40? H 0.3988 1.1972 0.1358
H41? H 0.2526 1.3320 0.1760
H42? H 0.0505 1.2593 0.2025
H43? H -0.0054 1.0518 0.1889
H44? H 0.1408 0.9169 0.1487
loop_
_geom_bond_atom_site_label_1
_geom_bond_atom_site_label_2
_geom_bond_site_symmetry_1
_geom_bond_site_symmetry_2
C1 N1 1_555 1_555
C2 C3 1_555 1_555
C3 C10 1_555 1_555
C4 C2 1_555 1_555
C5 C4 1_555 1_555
H1 C5 1_555 1_555
C6 C5 1_555 1_555
H2 C6 1_555 1_555
C7 C6 1_555 1_555
H3 C7 1_555 1_555
C8 C7 1_555 1_555
H4 C8 1_555 1_555
C9 C4 1_555 1_555
H5 C9 1_555 1_555
C10 C11 1_555 1_555
C11 H6 1_555 1_555
C12 C11 1_555 1_555
H7 C12 1_555 1_555
C13 C12 1_555 1_555
H8 C13 1_555 1_555
C14 C13 1_555 1_555
H9 C14 1_555 1_555
C15 C10 1_555 1_555
H10 C15 1_555 1_555
C16 C17 1_555 1_555
C17 C18 1_555 1_555
C18 H11 1_555 1_555
C19 C18 1_555 1_555
C20 C19 1_555 1_555
H12 C20 1_555 1_555
C21 C16 1_555 1_555
C22 C17 1_555 1_555
H13 C22 1_555 1_555
H14 C22 1_555 1_555
H15 C22 1_555 1_555
C23 C19 1_555 1_555
H16 C23 1_555 1_555
H17 C23 1_555 1_555
H18 C23 1_555 1_555
C24 C21 1_555 1_555
H19 C24 1_555 1_555
H20 C24 1_555 1_555
H21 C24 1_555 1_555
C25 C26 1_555 1_555
C26 H22 1_555 1_555
H23 C26 1_555 1_555
H24 C26 1_555 1_555
C27 C25 1_555 1_555
H25 C27 1_555 1_555
H26 C27 1_555 1_555
H27 C27 1_555 1_555
C28 C25 1_555 1_555
H28 C28 1_555 1_555
H29 C28 1_555 1_555
H30 C28 1_555 1_555
C29 C30 1_555 1_555
C30 H31 1_555 1_555
H32 C30 1_555 1_555
H33 C30 1_555 1_555
C31 C29 1_555 1_555
H34 C31 1_555 1_555
H35 C31 1_555 1_555
H36 C31 1_555 1_555
C32 C29 1_555 1_555
H37 C32 1_555 1_555
H38 C32 1_555 1_555
H39 C32 1_555 1_555
N1 C2 1_555 1_555
N2 C1 1_555 1_555
P1 C1 1_555 1_555
C3 N2 1_555 1_555
C8 C9 1_555 1_555
C14 C15 1_555 1_555
C16 N2 1_555 1_555
C20 C21 1_555 1_555
C25 P1 1_555 1_555
C29 P1 1_555 1_555

#END
