
#######################################################################
#
#                 Cambridge Crystallographic Data Centre
#                                CCDC 
#
#######################################################################
#
# If this CIF has been generated from an entry in the Cambridge 
# Structural Database, then it will include bibliographic, chemical, 
# crystal, experimental, refinement or atomic coordinate data resulting 
# from the CCDC's data processing and validation procedures.
#
#######################################################################

data_BOYWOD
_chemical_formula_moiety         'C22 H18 N3 O2 1+,C2 H3 O2 1-'
_chemical_name_systematic        
"4'-(4-Hydroxy-3-methoxyphenyl)-2,2':6',2''-terpyridinium acetate"
_symmetry_cell_setting           monoclinic
_symmetry_space_group_name_H-M   'P 21/n'
_symmetry_Int_Tables_number      14
_space_group_name_Hall           '-P 2yn'
loop_
_symmetry_equiv_pos_site_id
_symmetry_equiv_pos_as_xyz
1 x,y,z
2 1/2-x,1/2+y,1/2-z
3 -x,-y,-z
4 1/2+x,1/2-y,1/2+z
_cell_length_a                   12.495(3)
_cell_length_b                   8.6167(17)
_cell_length_c                   19.339(4)
_cell_angle_alpha                90
_cell_angle_beta                 91.42(3)
_cell_angle_gamma                90
_cell_volume                     2081.51
_cell_formula_units_Z            4
loop_
_atom_site_label
_atom_site_type_symbol
_atom_site_fract_x
_atom_site_fract_y
_atom_site_fract_z
O1 O 0.90126(17) 1.2739(3) 0.37068(11)
H1 H 0.8479 1.2423 0.3902
O2 O 0.74130(16) 1.0952(3) 0.32007(11)
N1 N 1.27478(19) 0.8880(3) 0.03875(15)
H2 H 1.2675 0.9335 0.0779
N2 N 1.00379(17) 0.7558(3) 0.00505(11)
N3 N 0.72170(18) 0.6780(3) 0.02014(12)
C1 C 1.3687(3) 0.8816(5) 0.0097(2)
H3 H 1.4267 0.9269 0.0331
C2 C 1.3868(3) 0.8132(5) -0.0525(2)
H4 H 1.4546 0.8138 -0.0713
C3 C 1.3020(3) 0.7435(5) -0.08633(18)
H5 H 1.3111 0.6940 -0.1285
C4 C 1.2032(2) 0.7484(4) -0.05671(16)
H6 H 1.1446 0.7019 -0.0790
C5 C 1.1905(2) 0.8219(3) 0.00586(14)
C6 C 1.0833(2) 0.8327(3) 0.03804(14)
C7 C 1.0675(2) 0.9202(3) 0.09710(14)
H7 H 1.1253 0.9696 0.1189
C8 C 0.9657(2) 0.9345(3) 0.12396(13)
C9 C 0.8830(2) 0.8565(3) 0.08847(14)
H8 H 0.8131 0.8646 0.1035
C10 C 0.9051(2) 0.7670(3) 0.03070(13)
C11 C 0.8197(2) 0.6787(3) -0.00737(14)
C12 C 0.8404(3) 0.6002(4) -0.06804(17)
H9 H 0.9087 0.6017 -0.0861
C13 C 0.7584(3) 0.5193(5) -0.10157(19)
H10 H 0.7711 0.4664 -0.1425
C14 C 0.6592(3) 0.5179(5) -0.07416(19)
H11 H 0.6032 0.4640 -0.0957
C15 C 0.6439(3) 0.5986(4) -0.01345(17)
H12 H 0.5760 0.5980 0.0052
C16 C 0.9466(2) 1.0268(3) 0.18789(13)
C17 C 1.0241(2) 1.1258(4) 0.21565(15)
H13 H 1.0880 1.1388 0.1926
C18 C 1.0087(2) 1.2057(4) 0.27671(16)
H14 H 1.0627 1.2698 0.2944
C19 C 0.9148(2) 1.1917(3) 0.31145(14)
C20 C 0.8338(2) 1.0960(3) 0.28287(14)
C21 C 0.8503(2) 1.0141(3) 0.22266(14)
H15 H 0.7965 0.9497 0.2050
C22 C 0.6504(3) 1.0183(5) 0.29071(18)
H16 H 0.6343 1.0606 0.2457
H17 H 0.5903 1.0330 0.3199
H18 H 0.6653 0.9095 0.2866
O3 O 0.2948(3) -0.0026(5) 0.2082(3)
O4 O 0.3471(4) 0.1112(5) 0.1280(2)
C23 C 0.3465(4) 0.1081(5) 0.1915(2)
C24 C 0.3886(4) 0.2281(6) 0.2339(3)
H19 H 0.3334 0.3026 0.2428
H20 H 0.4464 0.2783 0.2109
H21 H 0.4146 0.1851 0.2769
loop_
_geom_bond_atom_site_label_1
_geom_bond_atom_site_label_2
_geom_bond_site_symmetry_1
_geom_bond_site_symmetry_2
O1 H1 1_555 1_555
O2 C20 1_555 1_555
N1 H2 1_555 1_555
N2 C6 1_555 1_555
N3 C11 1_555 1_555
C1 N1 1_555 1_555
H3 C1 1_555 1_555
C2 C1 1_555 1_555
H4 C2 1_555 1_555
C3 C2 1_555 1_555
H5 C3 1_555 1_555
C4 C3 1_555 1_555
H6 C4 1_555 1_555
C5 N1 1_555 1_555
C6 C5 1_555 1_555
C7 C6 1_555 1_555
H7 C7 1_555 1_555
C8 C7 1_555 1_555
C9 C8 1_555 1_555
H8 C9 1_555 1_555
C10 N2 1_555 1_555
C11 C10 1_555 1_555
C12 C11 1_555 1_555
H9 C12 1_555 1_555
C13 C12 1_555 1_555
H10 C13 1_555 1_555
C14 C13 1_555 1_555
H11 C14 1_555 1_555
C15 N3 1_555 1_555
H12 C15 1_555 1_555
C16 C8 1_555 1_555
C17 C16 1_555 1_555
H13 C17 1_555 1_555
C18 C17 1_555 1_555
H14 C18 1_555 1_555
C19 O1 1_555 1_555
C20 C19 1_555 1_555
C21 C16 1_555 1_555
H15 C21 1_555 1_555
C22 O2 1_555 1_555
H16 C22 1_555 1_555
H17 C22 1_555 1_555
H18 C22 1_555 1_555
O3 C23 1_555 1_555
O4 C23 1_555 1_555
C23 C24 1_555 1_555
C24 H19 1_555 1_555
H20 C24 1_555 1_555
H21 C24 1_555 1_555
C4 C5 1_555 1_555
C9 C10 1_555 1_555
C14 C15 1_555 1_555
C18 C19 1_555 1_555
C20 C21 1_555 1_555

#END
