
#######################################################################
#
#                 Cambridge Crystallographic Data Centre
#                                CCDC 
#
#######################################################################
#
# If this CIF has been generated from an entry in the Cambridge 
# Structural Database, then it will include bibliographic, chemical, 
# crystal, experimental, refinement or atomic coordinate data resulting 
# from the CCDC's data processing and validation procedures.
#
#######################################################################

data_BOYYIZ
_chemical_formula_moiety         'C23 H27 N3 O4'
_chemical_name_systematic        
2-(2-(2-(4-(2-Methoxyphenyl)piperazin-1-yl)ethoxy)ethyl)-1H-isoindole-1,3(2H)-dione
_symmetry_cell_setting           orthorhombic
_symmetry_space_group_name_H-M   'P n a 21'
_symmetry_Int_Tables_number      33
_space_group_name_Hall           'P 2c -2n'
loop_
_symmetry_equiv_pos_site_id
_symmetry_equiv_pos_as_xyz
1 x,y,z
2 -x,-y,1/2+z
3 1/2-x,1/2+y,1/2+z
4 1/2+x,1/2-y,z
_cell_length_a                   7.6445(15)
_cell_length_b                   38.851(8)
_cell_length_c                   7.1316(14)
_cell_angle_alpha                90
_cell_angle_beta                 90
_cell_angle_gamma                90
_cell_volume                     2118.06
_exptl_crystal_colour            colorless
_exptl_crystal_description       needle
_cell_formula_units_Z            4
_exptl_crystal_recrystallization_method 'dichloromethane/diethyl ether'
loop_
_atom_site_label
_atom_site_type_symbol
_atom_site_fract_x
_atom_site_fract_y
_atom_site_fract_z
O1 O 0.1675(3) 0.47325(6) 0.2990(4)
N1 N 0.2807(3) 0.42843(6) 0.0367(4)
O2 O -0.5330(4) 0.26406(8) -0.5804(4)
N2 N 0.0693(4) 0.38690(6) -0.2035(4)
O3 O -0.1843(4) 0.35142(7) -0.6084(4)
O4 O -0.3154(4) 0.32887(6) -1.0604(4)
C1 C -0.3507(5) 0.30342(9) -0.9702(6)
C2 C 0.1505(4) 0.40474(8) 0.1144(5)
H1 H 0.2051(4) 0.38278(8) 0.1420(5)
H2 H 0.1040(4) 0.41405(8) 0.2304(5)
C3 C -0.4614(5) 0.27064(9) -0.7278(6)
N3 N -0.4241(4) 0.30398(7) -0.7913(4)
C4 C 0.3412(4) 0.46459(7) 0.3075(5)
C5 C -0.4741(5) 0.33505(10) -0.6930(7)
H3 H -0.4749(5) 0.35413(10) -0.7807(7)
H4 H -0.5919(5) 0.33234(10) -0.6446(7)
C6 C -0.3315(5) 0.26655(8) -1.0210(5)
C7 C 0.4570(5) 0.47800(9) 0.4387(6)
H5 H 0.4163(5) 0.49301(9) 0.5304(6)
C8 C 0.4014(4) 0.44101(7) 0.1716(5)
C9 C -0.3979(5) 0.24701(8) -0.8760(5)
C10 C -0.4022(6) 0.21139(9) -0.8885(7)
H6 H -0.4477(6) 0.19801(9) -0.7919(7)
C11 C 0.0038(4) 0.39962(8) -0.0246(5)
H7 H -0.0563(4) 0.42132(8) -0.0442(5)
H8 H -0.0799(4) 0.38332(8) 0.0260(5)
C12 C 0.1095(5) 0.50022(9) 0.4169(6)
H9 H -0.0122(12) 0.5046(5) 0.394(3)
H10 H 0.125(4) 0.4937(3) 0.5456(6)
H11 H 0.176(3) 0.5207(2) 0.391(3)
C13 C -0.2646(5) 0.25174(10) -1.1835(6)
H12 H -0.2204(5) 0.26505(10) -1.2811(6)
C14 C 0.6324(5) 0.46922(10) 0.4338(6)
H13 H 0.7092(5) 0.47868(10) 0.5207(6)
C15 C -0.0525(5) 0.35345(10) -0.4670(6)
H14 H -0.0520(5) 0.33216(10) -0.3960(6)
H15 H 0.0608(5) 0.35575(10) -0.5269(6)
C16 C -0.3360(6) 0.19645(9) -1.0507(7)
H16 H -0.3385(6) 0.17263(9) -1.0633(7)
C17 C 0.5773(4) 0.43259(8) 0.1719(6)
H17 H 0.6194(4) 0.41711(8) 0.0833(6)
C18 C -0.3522(5) 0.34346(11) -0.5326(7)
H18 H -0.3435(5) 0.32394(11) -0.4484(7)
H19 H -0.3968(5) 0.36296(11) -0.4625(7)
C19 C 0.3523(5) 0.41438(10) -0.1344(5)
H20 H 0.4399(5) 0.42986(10) -0.1850(5)
H21 H 0.4075(5) 0.39238(10) -0.1092(5)
C20 C -0.0782(5) 0.38279(9) -0.3355(6)
H22 H -0.1850(5) 0.37916(9) -0.2648(6)
H23 H -0.0918(5) 0.40383(9) -0.4072(6)
C21 C 0.6930(5) 0.44679(10) 0.3023(6)
H24 H 0.8109(5) 0.44095(10) 0.2993(6)
C22 C 0.2044(5) 0.40978(10) -0.2749(6)
H25 H 0.2511(5) 0.40042(10) -0.3906(6)
H26 H 0.1532(5) 0.43204(10) -0.3028(6)
C23 C -0.2672(6) 0.21602(10) -1.1923(8)
H27 H -0.2210(6) 0.20509(10) -1.2972(8)
loop_
_geom_bond_atom_site_label_1
_geom_bond_atom_site_label_2
_geom_bond_site_symmetry_1
_geom_bond_site_symmetry_2
O1 C4 1_555 1_555
N1 C2 1_555 1_555
O2 C3 1_555 1_555
N2 C11 1_555 1_555
O3 C15 1_555 1_555
O4 C1 1_555 1_555
C1 N3 1_555 1_555
C2 H1 1_555 1_555
H2 C2 1_555 1_555
C3 N3 1_555 1_555
N3 C5 1_555 1_555
C4 C7 1_555 1_555
C5 H3 1_555 1_555
H4 C5 1_555 1_555
C6 C1 1_555 1_555
C7 H5 1_555 1_555
C8 N1 1_555 1_555
C9 C3 1_555 1_555
C10 C9 1_555 1_555
H6 C10 1_555 1_555
C11 C2 1_555 1_555
H7 C11 1_555 1_555
H8 C11 1_555 1_555
C12 O1 1_555 1_555
H9 C12 1_555 1_555
H10 C12 1_555 1_555
H11 C12 1_555 1_555
C13 C6 1_555 1_555
H12 C13 1_555 1_555
C14 C7 1_555 1_555
H13 C14 1_555 1_555
C15 H14 1_555 1_555
H15 C15 1_555 1_555
C16 C10 1_555 1_555
H16 C16 1_555 1_555
C17 C8 1_555 1_555
H17 C17 1_555 1_555
C18 O3 1_555 1_555
H18 C18 1_555 1_555
H19 C18 1_555 1_555
C19 N1 1_555 1_555
H20 C19 1_555 1_555
H21 C19 1_555 1_555
C20 N2 1_555 1_555
H22 C20 1_555 1_555
H23 C20 1_555 1_555
C21 C14 1_555 1_555
H24 C21 1_555 1_555
C22 N2 1_555 1_555
H25 C22 1_555 1_555
H26 C22 1_555 1_555
C23 C13 1_555 1_555
H27 C23 1_555 1_555
C4 C8 1_555 1_555
C5 C18 1_555 1_555
C6 C9 1_555 1_555
C15 C20 1_555 1_555
C16 C23 1_555 1_555
C17 C21 1_555 1_555
C19 C22 1_555 1_555

#END
