
#######################################################################
#
#                 Cambridge Crystallographic Data Centre
#                                CCDC 
#
#######################################################################
#
# If this CIF has been generated from an entry in the Cambridge 
# Structural Database, then it will include bibliographic, chemical, 
# crystal, experimental, refinement or atomic coordinate data resulting 
# from the CCDC's data processing and validation procedures.
#
#######################################################################

data_BOZBIC
_chemical_formula_moiety         'C60 H64 N8 O12,C1 H1 Cl3'
_chemical_name_systematic        
'6,15,24,33-Tetraisobutoxy-37,40,43,46-tetramethoxy-2,11,20,29,39,42,45,48-octa-azanonacyclo-[29.5.3.3^4,10^.3^13,19^.3^22,28^.0^7,47^.0^16,44^.0^25,41^.0^34,38^]-octatetraconta-1(37),4,6,8,10(46),13,15,17,19(43),22,24,26,28(40),31,33,35,38,41,44,47-icosaene-3,12,21,30-tetrone chloroform solvate'
_symmetry_cell_setting           orthorhombic
_symmetry_space_group_name_H-M   'F d d d'
_symmetry_Int_Tables_number      70
_space_group_name_Hall           '-F 2uv 2vw'
loop_
_symmetry_equiv_pos_site_id
_symmetry_equiv_pos_as_xyz
1 x,y,z
2 3/4-x,3/4-y,z
3 3/4-x,y,3/4-z
4 x,3/4-y,3/4-z
5 x,1/2+y,1/2+z
6 3/4-x,1/4-y,1/2+z
7 3/4-x,1/2+y,1/4-z
8 x,1/4-y,1/4-z
9 1/2+x,y,1/2+z
10 1/4-x,3/4-y,1/2+z
11 1/4-x,y,1/4-z
12 1/2+x,3/4-y,1/4-z
13 1/2+x,1/2+y,z
14 1/4-x,1/4-y,z
15 1/4-x,1/2+y,3/4-z
16 1/2+x,1/4-y,3/4-z
17 -x,-y,-z
18 1/4+x,1/4+y,-z
19 1/4+x,-y,1/4+z
20 -x,1/4+y,1/4+z
21 -x,1/2-y,1/2-z
22 1/4+x,3/4+y,1/2-z
23 1/4+x,1/2-y,3/4+z
24 -x,3/4+y,3/4+z
25 1/2-x,-y,1/2-z
26 3/4+x,1/4+y,1/2-z
27 3/4+x,-y,3/4+z
28 1/2-x,1/4+y,3/4+z
29 1/2-x,1/2-y,-z
30 3/4+x,3/4+y,-z
31 3/4+x,1/2-y,1/4+z
32 1/2-x,3/4+y,1/4+z
_cell_length_a                   25.347(5)
_cell_length_b                   28.709(6)
_cell_length_c                   36.676(7)
_cell_angle_alpha                90
_cell_angle_beta                 90
_cell_angle_gamma                90
_cell_volume                     26688.6
_exptl_crystal_colour            yellow
_exptl_crystal_description       block
_chemical_melting_point          'above 300 deg.C'
_cell_formula_units_Z            16
_exptl_crystal_recrystallization_method chloroform/methanol/toluene
loop_
_atom_site_label
_atom_site_type_symbol
_atom_site_fract_x
_atom_site_fract_y
_atom_site_fract_z
C1 C 0.2606(4) 0.1279(4) 0.0610(3)
C2 C 0.1663(3) 0.1991(3) 0.1296(2)
C4 C 0.20568(15) -0.02634(16) 0.01348(12)
C5 C 0.20375(15) 0.01776(15) -0.00917(11)
C6 C 0.19654(16) 0.01407(17) -0.04730(12)
H1 H 0.1949 -0.0153 -0.0591
C7 C 0.19204(16) 0.05520(17) -0.06656(12)
C8 C 0.19460(14) 0.09883(16) -0.04866(11)
C9 C 0.20145(13) 0.09783(15) -0.01001(11)
C10 C 0.20198(13) 0.14024(14) 0.00915(10)
C11 C 0.19434(14) 0.18229(15) -0.00834(11)
C12 C 0.18775(14) 0.18307(16) -0.04714(11)
H2 H 0.1827 0.2118 -0.0595
C13 C 0.18882(15) 0.14241(17) -0.06605(12)
H3 H 0.1856 0.1433 -0.0918
C14 C 0.1744(3) 0.0147(2) -0.12315(15)
H4 H 0.1473 -0.0046 -0.1108
H5 H 0.2076 -0.0033 -0.1245
C15 C 0.1559(3) 0.0279(2) -0.16126(17)
H6 H 0.1503 -0.0013 -0.1745
C16 C 0.1978(3) 0.0524(3) -0.1803(2)
H7 H 0.1914 0.0509 -0.2066
H8 H 0.2317 0.0377 -0.1747
H9 H 0.1984 0.0850 -0.1725
C17 C 0.1034(3) 0.0556(3) -0.1613(2)
H10 H 0.1075 0.0839 -0.1466
H11 H 0.0753 0.0363 -0.1508
H12 H 0.0941 0.0641 -0.1863
C18 C 0.18194(14) 0.26691(15) 0.00696(12)
C19 C 0.18353(14) 0.29602(14) 0.04122(11)
C20 C 0.17548(14) 0.34513(15) 0.03932(12)
H13 H 0.1679 0.3600 0.0168
C21 C 0.17898(14) 0.37023(15) 0.07115(12)
C22 C 0.18986(13) 0.34684(14) 0.10517(12)
C23 C 0.19563(13) 0.29736(14) 0.10334(12)
C24 C 0.20439(15) 0.27296(14) 0.13647(11)
C25 C 0.20591(14) 0.29530(14) 0.16980(12)
C26 C 0.20165(15) 0.34504(14) 0.17072(13)
H14 H 0.2042 0.3612 0.1933
C27 C 0.19389(14) 0.36926(14) 0.13914(12)
H15 H 0.1911 0.4022 0.1401
C28 C 0.15931(19) 0.44238(17) 0.04119(15)
H16 H 0.1266 0.4297 0.0302
H17 H 0.1882 0.4393 0.0232
C29 C 0.1516(2) 0.49227(19) 0.05065(19)
H18 H 0.1823 0.5037 0.0642
C30 C 0.1460(3) 0.5205(3) 0.0157(2)
H19 H 0.1180 0.5071 0.0006
H20 H 0.1794 0.5198 0.0022
H21 H 0.1371 0.5528 0.0218
C31 C 0.1032(3) 0.4980(3) 0.0740(2)
H22 H 0.0979 0.5311 0.0794
H23 H 0.1078 0.4807 0.0968
H24 H 0.0724 0.4859 0.0609
N1 N 0.20592(12) 0.05700(12) 0.00922(9)
N2 N 0.19269(12) 0.22190(12) 0.01394(9)
H25 H 0.2001 0.2162 0.0370
N3 N 0.19285(11) 0.27261(12) 0.07178(9)
N4 N 0.21035(13) -0.01696(12) 0.04964(10)
H26 H 0.2175 0.0124 0.0546
O1 O 0.20328(14) -0.06540(11) -0.00009(9)
O2 O 0.18261(13) 0.05771(13) -0.10328(8)
O3 O 0.20856(10) 0.14076(10) 0.04669(7)
O4 O 0.17179(12) 0.28339(11) -0.02337(8)
O5 O 0.17234(11) 0.41638(10) 0.07415(9)
O6 O 0.21065(11) 0.22492(9) 0.13612(8)
C1G C 0.2606(4) 0.1221(4) 0.1890(3)
C2G C 0.1663(3) 0.0509(3) 0.1204(2)
C4G C 0.20568(15) 0.27634(16) 0.23652(12)
C5G C 0.20375(15) 0.23224(15) 0.25917(11)
C6G C 0.19654(16) 0.23593(17) 0.29730(12)
H1G H 0.1949 0.2653 0.3091
C7G C 0.19204(16) 0.19480(17) 0.31656(12)
C8G C 0.19460(14) 0.15117(16) 0.29866(11)
C9G C 0.20145(13) 0.15217(15) 0.26001(11)
C10G C 0.20198(13) 0.10976(14) 0.24085(10)
C11G C 0.19434(14) 0.06771(15) 0.25834(11)
C12G C 0.18775(14) 0.06693(16) 0.29714(11)
H2G H 0.1827 0.0382 0.3095
C13G C 0.18882(15) 0.10759(17) 0.31605(12)
H3G H 0.1856 0.1067 0.3418
C14G C 0.1744(3) 0.2353(2) 0.37315(15)
H4G H 0.1473 0.2546 0.3608
H5G H 0.2076 0.2533 0.3745
C15G C 0.1559(3) 0.2221(2) 0.41126(17)
H6G H 0.1503 0.2513 0.4245
C16G C 0.1978(3) 0.1976(3) 0.4303(2)
H7G H 0.1914 0.1991 0.4566
H8G H 0.2317 0.2123 0.4247
H9G H 0.1984 0.1650 0.4225
C17G C 0.1034(3) 0.1944(3) 0.4113(2)
H10G H 0.1075 0.1661 0.3966
H11G H 0.0753 0.2137 0.4008
H12G H 0.0941 0.1859 0.4363
C18G C 0.18194(14) -0.01691(15) 0.24304(12)
C19G C 0.18353(14) -0.04602(14) 0.20878(11)
C20G C 0.17548(14) -0.09513(15) 0.21068(12)
H13G H 0.1679 -0.1100 0.2332
C21G C 0.17898(14) -0.12023(15) 0.17885(12)
C22G C 0.18986(13) -0.09684(14) 0.14483(12)
C23G C 0.19563(13) -0.04736(14) 0.14666(12)
C24G C 0.20439(15) -0.02296(14) 0.11353(11)
C25G C 0.20591(14) -0.04530(14) 0.08020(12)
C26G C 0.20165(15) -0.09504(14) 0.07928(13)
H14G H 0.2042 -0.1112 0.0567
C27G C 0.19389(14) -0.11926(14) 0.11086(12)
H15G H 0.1911 -0.1522 0.1099
C28G C 0.15931(19) -0.19238(17) 0.20881(15)
H16G H 0.1266 -0.1797 0.2198
H17G H 0.1882 -0.1893 0.2268
C29G C 0.1516(2) -0.24227(19) 0.19935(19)
H18G H 0.1823 -0.2537 0.1858
C30G C 0.1460(3) -0.2705(3) 0.2343(2)
H19G H 0.1180 -0.2571 0.2494
H20G H 0.1794 -0.2698 0.2478
H21G H 0.1371 -0.3028 0.2282
C31G C 0.1032(3) -0.2480(3) 0.1760(2)
H22G H 0.0979 -0.2811 0.1706
H23G H 0.1078 -0.2307 0.1532
H24G H 0.0724 -0.2359 0.1891
N1G N 0.20592(12) 0.19300(12) 0.24078(9)
N2G N 0.19269(12) 0.02810(12) 0.23606(9)
H25G H 0.2001 0.0338 0.2130
N3G N 0.19285(11) -0.02261(12) 0.17822(9)
N4G N 0.21035(13) 0.26696(12) 0.20036(10)
H26G H 0.2175 0.2376 0.1954
O1G O 0.20328(14) 0.31540(11) 0.25009(9)
O2G O 0.18261(13) 0.19229(13) 0.35328(8)
O3G O 0.20856(10) 0.10924(10) 0.20331(7)
O4G O 0.17179(12) -0.03339(11) 0.27337(8)
O5G O 0.17234(11) -0.16638(10) 0.17585(9)
O6G O 0.21065(11) 0.02508(9) 0.11388(8)
C3 C 0.4957(6) 0.1091(5) 0.0449(3)
Cl1 Cl 0.4933(4) 0.0878(3) 0.0893(2)
Cl2 Cl 0.4808(2) 0.0603(2) 0.01813(16)
Cl3 Cl 0.5559(4) 0.1267(4) 0.0258(7)
Cl4? Cl 0.5409(9) 0.1431(6) 0.0703(6)
Cl5? Cl 0.4126(7) 0.1358(5) 0.0946(4)
Cl6? Cl 0.3749(6) 0.1623(6) 0.0749(5)
C32? C 0.1648(3) 0.1268(3) 0.0668(2)
C33? C 0.2567(3) 0.2062(3) 0.1213(3)
C34? C 0.3984(5) 0.1160(8) 0.0500(4)
Cl7? Cl 0.3330(4) 0.1015(5) 0.0579(4)
Cl8? Cl 0.4426(5) 0.0796(4) 0.0269(4)
loop_
_geom_bond_atom_site_label_1
_geom_bond_atom_site_label_2
_geom_bond_site_symmetry_1
_geom_bond_site_symmetry_2
C1 O3 1_555 1_555
C2 O6 1_555 1_555
C3 Cl1 1_555 1_555
Cl2 C3 1_555 1_555
Cl3 C3 1_555 1_555
C4 C5 1_555 1_555
C5 C6 1_555 1_555
C6 H1 1_555 1_555
C7 C6 1_555 1_555
C8 C7 1_555 1_555
C9 C8 1_555 1_555
C10 C9 1_555 1_555
C11 C10 1_555 1_555
C12 C11 1_555 1_555
H2 C12 1_555 1_555
C13 C8 1_555 1_555
H3 C13 1_555 1_555
C14 H4 1_555 1_555
H5 C14 1_555 1_555
C15 C14 1_555 1_555
H6 C15 1_555 1_555
C16 C15 1_555 1_555
H7 C16 1_555 1_555
H8 C16 1_555 1_555
H9 C16 1_555 1_555
C17 C15 1_555 1_555
H10 C17 1_555 1_555
H11 C17 1_555 1_555
H12 C17 1_555 1_555
C18 C19 1_555 1_555
C19 C20 1_555 1_555
C20 H13 1_555 1_555
C21 C20 1_555 1_555
C22 C21 1_555 1_555
C23 C22 1_555 1_555
C24 C23 1_555 1_555
C25 C24 1_555 1_555
C26 C25 1_555 1_555
H14 C26 1_555 1_555
C27 C22 1_555 1_555
H15 C27 1_555 1_555
C28 H16 1_555 1_555
H17 C28 1_555 1_555
C29 C28 1_555 1_555
H18 C29 1_555 1_555
C30 C29 1_555 1_555
H19 C30 1_555 1_555
H20 C30 1_555 1_555
H21 C30 1_555 1_555
C31 C29 1_555 1_555
H22 C31 1_555 1_555
H23 C31 1_555 1_555
H24 C31 1_555 1_555
N1 C5 1_555 1_555
N2 C11 1_555 1_555
H25 N2 1_555 1_555
N3 C19 1_555 1_555
N4 C4 1_555 1_555
H26 N4 1_555 1_555
O1 C4 1_555 1_555
O2 C7 1_555 1_555
O3 C10 1_555 1_555
O4 C18 1_555 1_555
O5 C21 1_555 1_555
O6 C24 1_555 1_555
C1G O3G 1_555 1_555
C2G O6G 1_555 1_555
C4G C5G 1_555 1_555
C5G C6G 1_555 1_555
C6G H1G 1_555 1_555
C7G C6G 1_555 1_555
C8G C7G 1_555 1_555
C9G C8G 1_555 1_555
C10G C9G 1_555 1_555
C11G C10G 1_555 1_555
C12G C11G 1_555 1_555
H2G C12G 1_555 1_555
C13G C8G 1_555 1_555
H3G C13G 1_555 1_555
C14G H4G 1_555 1_555
H5G C14G 1_555 1_555
C15G C14G 1_555 1_555
H6G C15G 1_555 1_555
C16G C15G 1_555 1_555
H7G C16G 1_555 1_555
H8G C16G 1_555 1_555
H9G C16G 1_555 1_555
C17G C15G 1_555 1_555
H10G C17G 1_555 1_555
H11G C17G 1_555 1_555
H12G C17G 1_555 1_555
C18G C19G 1_555 1_555
C19G C20G 1_555 1_555
C20G H13G 1_555 1_555
C21G C20G 1_555 1_555
C22G C21G 1_555 1_555
C23G C22G 1_555 1_555
C24G C23G 1_555 1_555
C25G N4 1_555 1_555
C26G C25G 1_555 1_555
H14G C26G 1_555 1_555
C27G C22G 1_555 1_555
H15G C27G 1_555 1_555
C28G H16G 1_555 1_555
H17G C28G 1_555 1_555
C29G C28G 1_555 1_555
H18G C29G 1_555 1_555
C30G C29G 1_555 1_555
H19G C30G 1_555 1_555
H20G C30G 1_555 1_555
H21G C30G 1_555 1_555
C31G C29G 1_555 1_555
H22G C31G 1_555 1_555
H23G C31G 1_555 1_555
H24G C31G 1_555 1_555
N1G C5G 1_555 1_555
N2G C11G 1_555 1_555
H25G N2G 1_555 1_555
N3G C19G 1_555 1_555
N4G C25 1_555 1_555
H26G N4G 1_555 1_555
O1G C4G 1_555 1_555
O2G C7G 1_555 1_555
O3G C10G 1_555 1_555
O4G C18G 1_555 1_555
O5G C21G 1_555 1_555
O6G C24G 1_555 1_555
C9 N1 1_555 1_555
C12 C13 1_555 1_555
C14 O2 1_555 1_555
C18 N2 1_555 1_555
C23 N3 1_555 1_555
C26 C27 1_555 1_555
C28 O5 1_555 1_555
C4G N4G 1_555 1_555
C9G N1G 1_555 1_555
C12G C13G 1_555 1_555
C14G O2G 1_555 1_555
C18G N2G 1_555 1_555
C23G N3G 1_555 1_555
C24G C25G 1_555 1_555
C26G C27G 1_555 1_555
C28G O5G 1_555 1_555

#END
