
#######################################################################
#
#                 Cambridge Crystallographic Data Centre
#                                CCDC 
#
#######################################################################
#
# If this CIF has been generated from an entry in the Cambridge 
# Structural Database, then it will include bibliographic, chemical, 
# crystal, experimental, refinement or atomic coordinate data resulting 
# from the CCDC's data processing and validation procedures.
#
#######################################################################

data_BOZETY01
_chemical_formula_moiety         'C16 H12 O2'
_chemical_name_systematic        1,4-Diphenylbut-2-ene-1,4-dione
_symmetry_cell_setting           monoclinic
_symmetry_space_group_name_H-M   'P 21'
_symmetry_Int_Tables_number      4
_space_group_name_Hall           'P 2yb'
loop_
_symmetry_equiv_pos_site_id
_symmetry_equiv_pos_as_xyz
1 x,y,z
2 -x,1/2+y,-z
_cell_length_a                   10.17(2)
_cell_length_b                   5.504(12)
_cell_length_c                   11.96(3)
_cell_angle_alpha                90
_cell_angle_beta                 107.90(2)
_cell_angle_gamma                90
_cell_volume                     637.063
_cell_formula_units_Z            2
loop_
_atom_site_label
_atom_site_type_symbol
_atom_site_fract_x
_atom_site_fract_y
_atom_site_fract_z
C1 C 0.3939(2) 0.2935(4) 0.25970(17)
C2 C 0.1045(2) -0.2156(5) -0.17422(19)
C3 C 0.2331(2) -0.1907(4) -0.08738(17)
C4 C 0.25860(18) 0.0118(4) -0.01160(15)
C5 C 0.1541(2) 0.1879(4) -0.02438(18)
C6 C 0.0260(2) 0.1619(5) -0.1115(2)
C7 C 0.0019(2) -0.0389(5) -0.1861(2)
O1 O 0.29370(15) -0.0992(3) 0.25409(12)
O2 O 0.49267(13) -0.1054(3) 0.09066(12)
C8 C 0.4223(2) 0.2654(4) 0.15829(17)
C9 C 0.39698(19) 0.0398(4) 0.08120(15)
H1 H 0.1737(19) 0.338(5) 0.0248(17)
H2 H 0.421(2) 0.452(5) 0.3055(18)
H3 H -0.086(2) -0.050(5) -0.247(2)
H4 H 0.464(2) 0.403(5) 0.1314(19)
H5 H 0.310(2) -0.314(5) -0.0791(18)
H6 H 0.397(3) 0.433(6) 0.481(2)
H7 H -0.041(3) 0.278(6) -0.118(2)
H8 H 0.205(2) 0.204(5) 0.707(2)
H9 H 0.099(3) -0.119(7) 0.578(2)
H10 H 0.352(3) 0.494(8) 0.652(3)
H11 H 0.085(2) -0.352(6) -0.223(2)
H12 H 0.164(3) -0.151(7) 0.395(2)
C10 C 0.32398(19) 0.0963(4) 0.30757(16)
C11 C 0.28908(19) 0.1377(4) 0.42068(16)
C12 C 0.3439(2) 0.3256(6) 0.4982(2)
C13 C 0.2242(3) 0.1871(6) 0.6313(2)
C14 C 0.3125(3) 0.3496(7) 0.6037(2)
C15 C 0.1631(4) 0.0018(6) 0.5523(3)
C16 C 0.1977(3) -0.0232(5) 0.4482(2)
loop_
_geom_bond_atom_site_label_1
_geom_bond_atom_site_label_2
_geom_bond_site_symmetry_1
_geom_bond_site_symmetry_2
C1 C8 1_555 1_555
C2 C3 1_555 1_555
C3 C4 1_555 1_555
C4 C5 1_555 1_555
C5 C6 1_555 1_555
C6 C7 1_555 1_555
C7 C2 1_555 1_555
O1 C10 1_555 1_555
O2 C9 1_555 1_555
C8 C9 1_555 1_555
C9 C4 1_555 1_555
H1 C5 1_555 1_555
H2 C1 1_555 1_555
H3 C7 1_555 1_555
H4 C8 1_555 1_555
H5 C3 1_555 1_555
H6 C12 1_555 1_555
H7 C6 1_555 1_555
H8 C13 1_555 1_555
H9 C15 1_555 1_555
H10 C14 1_555 1_555
H11 C2 1_555 1_555
H12 C16 1_555 1_555
C10 C1 1_555 1_555
C11 C10 1_555 1_555
C12 C11 1_555 1_555
C13 C14 1_555 1_555
C14 C12 1_555 1_555
C15 C13 1_555 1_555
C16 C11 1_555 1_555
C15 C16 1_555 1_555

#END
