
#######################################################################
#
#                 Cambridge Crystallographic Data Centre
#                                CCDC 
#
#######################################################################
#
# If this CIF has been generated from an entry in the Cambridge 
# Structural Database, then it will include bibliographic, chemical, 
# crystal, experimental, refinement or atomic coordinate data resulting 
# from the CCDC's data processing and validation procedures.
#
#######################################################################

data_BOZFUT01
_chemical_formula_moiety         'C9 H17 N2 O1 1+,C2 H3 O2 1-'
_chemical_name_systematic        
'1,5-Dimethyl-9-oxo-7-aza-3-azoniabicyclo[3.3.1]nonane acetate'
_symmetry_cell_setting           orthorhombic
_symmetry_space_group_name_H-M   'P n a 21'
_symmetry_Int_Tables_number      33
_space_group_name_Hall           'P 2c -2n'
loop_
_symmetry_equiv_pos_site_id
_symmetry_equiv_pos_as_xyz
1 x,y,z
2 -x,-y,1/2+z
3 1/2+x,1/2-y,z
4 1/2-x,1/2+y,1/2+z
_cell_length_a                   21.670(5)
_cell_length_b                   5.7871(13)
_cell_length_c                   9.414(2)
_cell_angle_alpha                90
_cell_angle_beta                 90
_cell_angle_gamma                90
_cell_volume                     1180.58
_exptl_crystal_colour            colorless
_exptl_crystal_description       plate
_cell_formula_units_Z            4
loop_
_atom_site_label
_atom_site_type_symbol
_atom_site_fract_x
_atom_site_fract_y
_atom_site_fract_z
O1 O 0.29460(7) 0.3953(3) 0.71000(17)
N1 N 0.39064(7) 0.5545(3) 0.34785(17)
N2 N 0.35102(8) 0.9507(3) 0.5315(2)
C1 C 0.32145(9) 0.4886(3) 0.6128(2)
C2 C 0.38876(9) 0.5587(3) 0.6190(2)
C3 C 0.28903(8) 0.5836(3) 0.4835(2)
C4 C 0.42213(10) 0.4513(4) 0.7454(2)
H1 H 0.4229 0.2829 0.7347
H2 H 0.4004 0.4918 0.8333
H3 H 0.4645 0.5101 0.7495
C5 C 0.22193(9) 0.5047(4) 0.4740(3)
H4 H 0.2205 0.3372 0.4591
H5 H 0.2017 0.5829 0.3944
H6 H 0.2005 0.5433 0.5626
C6 C 0.29074(9) 0.8521(3) 0.5057(2)
H7 H 0.2730 0.9267 0.4204
H8 H 0.2637 0.8909 0.5871
C7 C 0.38630(9) 0.8275(3) 0.6379(2)
H9 H 0.3685 0.8622 0.7324
H10 H 0.4291 0.8876 0.6372
C8 C 0.32277(9) 0.5094(3) 0.3475(2)
H11 H 0.3159 0.3419 0.3329
H12 H 0.3042 0.5916 0.2658
C9 C 0.42244(8) 0.4888(3) 0.4824(2)
H13 H 0.4639 0.5605 0.4829
H14 H 0.4282 0.3191 0.4831
H15 H 0.4050(10) 0.477(4) 0.280(3)
H16 H 0.3979(10) 0.709(4) 0.324(3)
H17 H 0.3702(11) 0.970(4) 0.452(3)
O2 O 0.43601(7) 1.3067(2) 0.13351(16)
O3 O 0.41516(8) 1.0045(3) 0.26754(17)
C10 C 0.43134(8) 1.0938(3) 0.1530(2)
C11 C 0.44547(9) 0.9357(3) 0.0293(2)
H18 H 0.4830 0.9886 -0.0186
H19 H 0.4109 0.9381 -0.0379
H20 H 0.4516 0.7778 0.0642
loop_
_geom_bond_atom_site_label_1
_geom_bond_atom_site_label_2
_geom_bond_site_symmetry_1
_geom_bond_site_symmetry_2
O1 C1 1_555 1_555
N1 C8 1_555 1_555
N2 C6 1_555 1_555
C1 C2 1_555 1_555
C2 C4 1_555 1_555
C3 C1 1_555 1_555
C4 H1 1_555 1_555
H2 C4 1_555 1_555
H3 C4 1_555 1_555
C5 C3 1_555 1_555
H4 C5 1_555 1_555
H5 C5 1_555 1_555
H6 C5 1_555 1_555
C6 C3 1_555 1_555
H7 C6 1_555 1_555
H8 C6 1_555 1_555
C7 N2 1_555 1_555
H9 C7 1_555 1_555
H10 C7 1_555 1_555
C8 C3 1_555 1_555
H11 C8 1_555 1_555
H12 C8 1_555 1_555
C9 N1 1_555 1_555
H13 C9 1_555 1_555
H14 C9 1_555 1_555
H15 N1 1_555 1_555
H16 N1 1_555 1_555
H17 N2 1_555 1_555
O2 C10 1_555 1_555
O3 C10 1_555 1_555
C10 C11 1_555 1_555
C11 H18 1_555 1_555
H19 C11 1_555 1_555
H20 C11 1_555 1_555
C2 C7 1_555 1_555
C2 C9 1_555 1_555

#END
