
#######################################################################
#
#                 Cambridge Crystallographic Data Centre
#                                CCDC 
#
#######################################################################
#
# If this CIF has been generated from an entry in the Cambridge 
# Structural Database, then it will include bibliographic, chemical, 
# crystal, experimental, refinement or atomic coordinate data resulting 
# from the CCDC's data processing and validation procedures.
#
#######################################################################

data_BOZHUU
_chemical_formula_moiety         'C20 H20 F2 N4 O2,H2 O1'
_chemical_name_systematic        
"2-(1,3-Dimethyl-2-imidazolidinylidene)-N,N'-bis(4-fluorophenyl)malonamide monohydrate"
_symmetry_cell_setting           monoclinic
_symmetry_space_group_name_H-M   'P 21/c'
_symmetry_Int_Tables_number      14
_space_group_name_Hall           '-P 2ybc'
loop_
_symmetry_equiv_pos_site_id
_symmetry_equiv_pos_as_xyz
1 x,y,z
2 -x,1/2+y,1/2-z
3 -x,-y,-z
4 x,1/2-y,1/2+z
_cell_length_a                   10.368(2)
_cell_length_b                   13.275(3)
_cell_length_c                   14.142(3)
_cell_angle_alpha                90
_cell_angle_beta                 96.740(3)
_cell_angle_gamma                90
_cell_volume                     1932.99
_exptl_crystal_colour            colorless
_chemical_melting_point          '170-172 deg.C'
_cell_formula_units_Z            4
loop_
_atom_site_label
_atom_site_type_symbol
_atom_site_fract_x
_atom_site_fract_y
_atom_site_fract_z
F1 F -0.15032(10) 0.40492(10) 1.00573(9)
O1 O 0.55451(9) 0.20083(8) 1.01996(7)
O2 O 0.29975(9) 0.24917(8) 0.77041(6)
N1 N 0.65018(11) 0.07564(9) 0.94325(8)
N2 N 0.33362(11) 0.27682(9) 0.93079(8)
N3 N 0.62606(12) 0.13822(10) 0.73507(9)
F2 F 1.07890(10) -0.01143(9) 1.19872(8)
C1 C 0.56166(12) 0.15271(10) 0.94424(9)
C2 C 0.36611(12) 0.23356(10) 0.84814(9)
C3 C 0.51283(12) 0.12598(10) 0.76893(9)
C4 C 0.75638(12) 0.05594(10) 1.01222(9)
C5 C 0.48078(12) 0.17129(10) 0.85685(9)
N4 N 0.43555(12) 0.06709(9) 0.71212(8)
C6 C 0.21103(12) 0.31420(9) 0.94667(9)
C7 C 0.82340(14) 0.13176(11) 1.06493(10)
C8 C 0.80107(14) -0.04234(11) 1.02266(10)
C9 C 0.18123(15) 0.31597(11) 1.04007(11)
C10 C 0.93132(15) 0.10853(12) 1.12806(11)
C11 C 0.11877(14) 0.34769(11) 0.87440(11)
C12 C 0.97144(14) 0.01052(12) 1.13708(10)
C13 C 0.90943(15) -0.06559(12) 1.08535(11)
C14 C -0.02967(14) 0.37647(12) 0.98665(13)
C15 C 0.06000(17) 0.34777(12) 1.06020(13)
C16 C -0.00234(15) 0.37792(13) 0.89497(13)
C17 C 0.6311(2) 0.08148(16) 0.64724(13)
C18 C 0.31695(18) 0.02077(15) 0.73534(14)
C19 C 0.4997(2) 0.03142(16) 0.63200(12)
C20 C 0.72548(19) 0.21009(16) 0.76915(18)
H1 H 0.2451(15) 0.2928(12) 1.0904(11)
H2 H 0.7946(15) 0.2022(13) 1.0545(11)
H3 H 0.3915(16) 0.2616(12) 0.9821(12)
H4 H 0.6345(15) 0.0282(13) 0.8998(12)
H5 H 0.7552(15) -0.0936(13) 0.9845(12)
H6 H 0.9426(17) -0.1349(14) 1.0935(13)
H7 H 0.9773(17) 0.1588(14) 1.1625(13)
H8 H 0.1399(15) 0.3474(12) 0.8087(12)
H9 H -0.0651(19) 0.3988(15) 0.8439(15)
H10 H 0.0446(17) 0.3471(14) 1.1252(14)
H11 H 0.506(2) -0.0411(18) 0.6350(15)
H12 H 0.702(2) 0.0330(18) 0.6578(16)
H13 H 0.652(2) 0.1305(18) 0.5962(17)
H15 H 0.4507(18) 0.0518(15) 0.5708(15)
H17 H 0.301(2) 0.037(2) 0.800(2)
H18 H 0.325(3) -0.051(2) 0.7347(18)
H19 H 0.694(2) 0.2533(19) 0.8230(18)
H20 H 0.750(3) 0.250(2) 0.719(2)
H21 H 0.794(3) 0.180(2) 0.798(2)
H22 H 0.249(3) 0.034(2) 0.688(2)
O3 O 0.42837(15) 0.39143(10) 0.66688(10)
H14 H 0.387(2) 0.3433(19) 0.6950(17)
H16 H 0.476(2) 0.357(2) 0.6280(18)
loop_
_geom_bond_atom_site_label_1
_geom_bond_atom_site_label_2
_geom_bond_site_symmetry_1
_geom_bond_site_symmetry_2
F1 C14 1_555 1_555
O1 C1 1_555 1_555
O2 C2 1_555 1_555
N1 C1 1_555 1_555
N2 C2 1_555 1_555
N3 C3 1_555 1_555
F2 C12 1_555 1_555
C1 C5 1_555 1_555
C2 C5 1_555 1_555
C3 C5 1_555 1_555
C4 N1 1_555 1_555
N4 C3 1_555 1_555
C6 N2 1_555 1_555
C7 C4 1_555 1_555
C8 C4 1_555 1_555
C9 C6 1_555 1_555
C10 C7 1_555 1_555
C11 C6 1_555 1_555
C12 C10 1_555 1_555
C13 C8 1_555 1_555
C14 C15 1_555 1_555
C15 C9 1_555 1_555
C16 C11 1_555 1_555
C17 N3 1_555 1_555
C18 N4 1_555 1_555
C19 N4 1_555 1_555
C20 N3 1_555 1_555
O3 H14 1_555 1_555
H1 C9 1_555 1_555
H2 C7 1_555 1_555
H3 N2 1_555 1_555
H4 N1 1_555 1_555
H5 C8 1_555 1_555
H6 C13 1_555 1_555
H7 C10 1_555 1_555
H8 C11 1_555 1_555
H9 C16 1_555 1_555
H10 C15 1_555 1_555
H11 C19 1_555 1_555
H12 C17 1_555 1_555
H13 C17 1_555 1_555
H15 C19 1_555 1_555
H16 O3 1_555 1_555
H17 C18 1_555 1_555
H18 C18 1_555 1_555
H19 C20 1_555 1_555
H20 C20 1_555 1_555
H21 C20 1_555 1_555
H22 C18 1_555 1_555
C12 C13 1_555 1_555
C14 C16 1_555 1_555
C17 C19 1_555 1_555

#END
