
#######################################################################
#
#                 Cambridge Crystallographic Data Centre
#                                CCDC 
#
#######################################################################
#
# If this CIF has been generated from an entry in the Cambridge 
# Structural Database, then it will include bibliographic, chemical, 
# crystal, experimental, refinement or atomic coordinate data resulting 
# from the CCDC's data processing and validation procedures.
#
#######################################################################

data_BOZJEG
_chemical_formula_moiety         'C21 H24 N4 O2,0.9(C1 H1 Cl3)'
_chemical_name_systematic        
"2-(1,3-Dimethyltetrahydropyrimidin-2(1H)-ylidene)-N,N'-diphenylmalonamide chloroform solvate"
_symmetry_cell_setting           monoclinic
_symmetry_space_group_name_H-M   'P 21/n'
_symmetry_Int_Tables_number      14
_space_group_name_Hall           '-P 2yn'
loop_
_symmetry_equiv_pos_site_id
_symmetry_equiv_pos_as_xyz
1 x,y,z
2 1/2-x,1/2+y,1/2-z
3 -x,-y,-z
4 1/2+x,1/2-y,1/2+z
_cell_length_a                   10.6499(18)
_cell_length_b                   10.4156(17)
_cell_length_c                   20.635(3)
_cell_angle_alpha                90
_cell_angle_beta                 94.251(3)
_cell_angle_gamma                90
_cell_volume                     2282.64
_exptl_crystal_colour            colorless
_exptl_crystal_description       block
_chemical_melting_point          '193-195 deg.C'
_cell_formula_units_Z            4
loop_
_atom_site_label
_atom_site_type_symbol
_atom_site_fract_x
_atom_site_fract_y
_atom_site_fract_z
Cl1 Cl 0.2276(4) -0.7856(4) -0.05221(19)
Cl4 Cl 0.2602(8) -0.5399(6) 0.0082(3)
Cl5 Cl 0.4375(13) -0.5646(13) -0.0013(7)
C22 C 0.3382(8) -0.6870(9) -0.0140(4)
O1 O 0.3919(2) 0.3930(3) 0.27509(13)
O2 O 0.4321(3) 0.1607(3) 0.11286(13)
N1 N 0.5198(3) 0.3354(3) 0.19573(15)
H1 H 0.5214 0.2959 0.1587
N2 N 0.2680(3) 0.0375(3) 0.13984(15)
H2 H 0.2224 0.0159 0.1714
N3 N 0.2191(3) 0.1706(3) 0.30095(15)
N4 N 0.0993(3) 0.2425(3) 0.21045(15)
C1 C 0.6675(4) 0.4212(4) 0.2820(2)
H3 H 0.6220 0.3828 0.3141
C2 C 0.7749(4) 0.4920(5) 0.2996(3)
H4 H 0.8018 0.5025 0.3437
C3 C 0.8433(4) 0.5482(4) 0.2513(3)
H5 H 0.9156 0.5971 0.2631
C4 C 0.8050(4) 0.5318(4) 0.1873(3)
H6 H 0.8516 0.5686 0.1551
C5 C 0.6976(4) 0.4613(4) 0.1697(2)
H7 H 0.6721 0.4500 0.1255
C6 C 0.6272(3) 0.4069(3) 0.21670(19)
C7 C 0.4120(3) 0.3220(3) 0.22842(17)
C8 C 0.3262(3) 0.2229(3) 0.20477(17)
C9 C 0.3466(3) 0.1417(4) 0.15061(17)
C10 C 0.2542(4) -0.0377(3) 0.08284(18)
C11 C 0.1368(4) -0.0923(5) 0.0669(2)
H8 H 0.0704 -0.0779 0.0936
C12 C 0.1174(5) -0.1679(5) 0.0116(2)
H9 H 0.0377 -0.2044 0.0012
C13 C 0.2125(5) -0.1901(5) -0.0277(2)
H10 H 0.1983 -0.2408 -0.0652
C14 C 0.3297(4) -0.1372(4) -0.0119(2)
H11 H 0.3955 -0.1523 -0.0389
C15 C 0.3513(4) -0.0623(4) 0.0431(2)
H12 H 0.4318 -0.0280 0.0536
C16 C 0.2110(3) 0.2113(3) 0.23995(17)
C17 C 0.1128(4) 0.1681(4) 0.3422(2)
H13 H 0.1410 0.1966 0.3862
H14 H 0.0811 0.0802 0.3450
C18 C 0.0088(4) 0.2549(4) 0.3145(2)
H15 H -0.0675 0.2407 0.3373
H16 H 0.0340 0.3449 0.3204
C19 C -0.0172(4) 0.2268(4) 0.2439(2)
H17 H -0.0484 0.1387 0.2382
H18 H -0.0820 0.2854 0.2251
C20 C 0.3365(4) 0.1184(5) 0.3310(2)
H19 H 0.4013 0.1228 0.3004
H20 H 0.3238 0.0297 0.3432
H21 H 0.3626 0.1681 0.3695
C21 C 0.0839(4) 0.2807(4) 0.1426(2)
H22 H 0.1660 0.2885 0.1255
H23 H 0.0408 0.3627 0.1390
H24 H 0.0347 0.2165 0.1179
Cl2? Cl 0.203(2) -0.733(2) -0.0343(10)
Cl3? Cl 0.1842(9) -0.5682(8) -0.0030(4)
Cl6? Cl 0.3310(9) -0.5338(7) 0.0155(3)
loop_
_geom_bond_atom_site_label_1
_geom_bond_atom_site_label_2
_geom_bond_site_symmetry_1
_geom_bond_site_symmetry_2
Cl1 C22 1_555 1_555
Cl4 C22 1_555 1_555
Cl5 C22 1_555 1_555
O1 C7 1_555 1_555
O2 C9 1_555 1_555
N1 H1 1_555 1_555
N2 H2 1_555 1_555
N3 C16 1_555 1_555
N4 C16 1_555 1_555
C1 H3 1_555 1_555
C2 C1 1_555 1_555
H4 C2 1_555 1_555
C3 C2 1_555 1_555
H5 C3 1_555 1_555
C4 C3 1_555 1_555
H6 C4 1_555 1_555
C5 C4 1_555 1_555
H7 C5 1_555 1_555
C6 N1 1_555 1_555
C7 N1 1_555 1_555
C8 C7 1_555 1_555
C9 N2 1_555 1_555
C10 N2 1_555 1_555
C11 C10 1_555 1_555
H8 C11 1_555 1_555
C12 C11 1_555 1_555
H9 C12 1_555 1_555
C13 C12 1_555 1_555
H10 C13 1_555 1_555
C14 C13 1_555 1_555
H11 C14 1_555 1_555
C15 C10 1_555 1_555
H12 C15 1_555 1_555
C16 C8 1_555 1_555
C17 N3 1_555 1_555
H13 C17 1_555 1_555
H14 C17 1_555 1_555
C18 C17 1_555 1_555
H15 C18 1_555 1_555
H16 C18 1_555 1_555
C19 N4 1_555 1_555
H17 C19 1_555 1_555
H18 C19 1_555 1_555
C20 N3 1_555 1_555
H19 C20 1_555 1_555
H20 C20 1_555 1_555
H21 C20 1_555 1_555
C21 N4 1_555 1_555
H22 C21 1_555 1_555
H23 C21 1_555 1_555
H24 C21 1_555 1_555
C1 C6 1_555 1_555
C5 C6 1_555 1_555
C8 C9 1_555 1_555
C14 C15 1_555 1_555
C18 C19 1_555 1_555

#END
