
#######################################################################
#
#                 Cambridge Crystallographic Data Centre
#                                CCDC 
#
#######################################################################
#
# If this CIF has been generated from an entry in the Cambridge 
# Structural Database, then it will include bibliographic, chemical, 
# crystal, experimental, refinement or atomic coordinate data resulting 
# from the CCDC's data processing and validation procedures.
#
#######################################################################

data_BOZLIM
_chemical_formula_moiety         'C12 H11 F3 N2 O3'
_chemical_name_systematic        
(1S*,2S*,10bS*)-1-Nitro-2-(trifluoromethyl)-2,5,6,10b-tetrahydro-1H-isoxazolo[3,2-a]isoquinoline
_symmetry_cell_setting           triclinic
_symmetry_space_group_name_H-M   'P -1'
_symmetry_Int_Tables_number      2
_space_group_name_Hall           '-P 1'
loop_
_symmetry_equiv_pos_site_id
_symmetry_equiv_pos_as_xyz
1 x,y,z
2 -x,-y,-z
_cell_length_a                   7.837(1)
_cell_length_b                   8.553(1)
_cell_length_c                   10.381(1)
_cell_angle_alpha                90.922(2)
_cell_angle_beta                 91.546(2)
_cell_angle_gamma                116.590(2)
_cell_volume                     621.705
_exptl_crystal_colour            colorless
_exptl_crystal_description       block
_cell_formula_units_Z            2
loop_
_atom_site_label
_atom_site_type_symbol
_atom_site_fract_x
_atom_site_fract_y
_atom_site_fract_z
F1 F 0.7271(2) 0.3511(2) 0.71302(14)
F2 F 0.8851(2) 0.2525(2) 0.82660(18)
F3 F 0.8327(2) 0.46045(19) 0.90103(18)
O1 O 0.50322(18) 0.02696(17) 0.81342(13)
O2 O 0.2045(3) 0.1674(3) 1.06434(18)
O3 O 0.4966(3) 0.3500(2) 1.10381(15)
N1 N 0.2948(2) -0.0505(2) 0.83300(15)
N2 N 0.3654(3) 0.2509(2) 1.03216(16)
C1 C 0.5763(3) 0.1819(2) 0.89068(18)
H1 H 0.612(3) 0.164(2) 0.9745(19)
C2 C 0.4169(3) 0.2394(3) 0.89316(17)
H2 H 0.458(3) 0.353(3) 0.8668(17)
C3 C 0.2556(3) 0.0998(2) 0.81198(17)
H3 H 0.138(3) 0.074(2) 0.8480(17)
C4 C 0.2062(3) -0.1884(3) 0.7325(2)
H4 H 0.0686 -0.2389 0.7384
H5 H 0.2438 -0.2802 0.7491
C5 C 0.2580(3) -0.1273(3) 0.5963(2)
H6 H 0.3845 -0.1156 0.5806
H7 H 0.1688 -0.2155 0.5358
C6 C 0.2551(3) 0.0436(3) 0.57180(18)
C7 C 0.2571(3) 0.1017(4) 0.4452(2)
H8 H 0.2574 0.0311 0.3762
C8 C 0.2588(3) 0.2590(4) 0.4214(2)
H9 H 0.2625 0.2952 0.3370
C9 C 0.2550(3) 0.3628(3) 0.5212(2)
H10 H 0.2541 0.4691 0.5050
C10 C 0.2525(3) 0.3099(3) 0.6462(2)
H11 H 0.2489 0.3807 0.7139
C11 C 0.2553(2) 0.1520(2) 0.67227(17)
C12 C 0.7554(3) 0.3110(3) 0.8320(2)
loop_
_geom_bond_atom_site_label_1
_geom_bond_atom_site_label_2
_geom_bond_site_symmetry_1
_geom_bond_site_symmetry_2
F1 C12 1_555 1_555
F2 C12 1_555 1_555
F3 C12 1_555 1_555
O1 N1 1_555 1_555
O2 N2 1_555 1_555
O3 N2 1_555 1_555
N1 C3 1_555 1_555
N2 C2 1_555 1_555
C1 O1 1_555 1_555
H1 C1 1_555 1_555
C2 C1 1_555 1_555
H2 C2 1_555 1_555
C3 C2 1_555 1_555
H3 C3 1_555 1_555
C4 N1 1_555 1_555
H4 C4 1_555 1_555
H5 C4 1_555 1_555
C5 C4 1_555 1_555
H6 C5 1_555 1_555
H7 C5 1_555 1_555
C6 C5 1_555 1_555
C7 C6 1_555 1_555
H8 C7 1_555 1_555
C8 C7 1_555 1_555
H9 C8 1_555 1_555
C9 C8 1_555 1_555
H10 C9 1_555 1_555
C10 C9 1_555 1_555
H11 C10 1_555 1_555
C11 C3 1_555 1_555
C12 C1 1_555 1_555
C6 C11 1_555 1_555
C10 C11 1_555 1_555

#END
