
#######################################################################
#
#                 Cambridge Crystallographic Data Centre
#                                CCDC 
#
#######################################################################
#
# If this CIF has been generated from an entry in the Cambridge 
# Structural Database, then it will include bibliographic, chemical, 
# crystal, experimental, refinement or atomic coordinate data resulting 
# from the CCDC's data processing and validation procedures.
#
#######################################################################

data_BOZQOW
_chemical_formula_moiety         'C16 H29 N3 O6'
_chemical_name_systematic        
't-Butyloxycarbonyl-\b-alanyl-\a-aminoisobutyryl-\b-alanine methyl ester'
_symmetry_cell_setting           orthorhombic
_symmetry_space_group_name_H-M   'P c c n'
_symmetry_Int_Tables_number      56
_space_group_name_Hall           '-P 2ab 2ac'
loop_
_symmetry_equiv_pos_site_id
_symmetry_equiv_pos_as_xyz
1 x,y,z
2 1/2+x,1/2+y,-z
3 1/2-x,y,1/2+z
4 x,1/2-y,1/2+z
5 -x,-y,-z
6 1/2-x,1/2-y,z
7 1/2+x,-y,1/2-z
8 -x,1/2+y,1/2-z
_cell_length_a                   37.25(4)
_cell_length_b                   11.123(19)
_cell_length_c                   9.610(14)
_cell_angle_alpha                90
_cell_angle_beta                 90
_cell_angle_gamma                90
_cell_volume                     3981.73
_cell_formula_units_Z            8
loop_
_atom_site_label
_atom_site_type_symbol
_atom_site_fract_x
_atom_site_fract_y
_atom_site_fract_z
C1 C 0.67859(17) 0.5681(7) 0.0036(7)
H1 H 0.6636 0.5001 -0.0160
H2 H 0.7005 0.5412 0.0461
H3 H 0.6840 0.6095 -0.0815
C2 C 0.68071(17) 0.7660(7) 0.1271(8)
H4 H 0.6849 0.8063 0.0403
H5 H 0.7033 0.7457 0.1691
H6 H 0.6675 0.8180 0.1883
C3 C 0.64982(16) 0.5887(8) 0.2362(7)
H7 H 0.6380 0.6439 0.2977
H8 H 0.6714 0.5595 0.2795
H9 H 0.6341 0.5223 0.2166
C4 C 0.65929(14) 0.6524(6) 0.1015(6)
O1 O 0.62615(9) 0.6821(4) 0.0226(4)
C5 C 0.60180(14) 0.7610(6) 0.0706(6)
O2 O 0.60059(10) 0.8023(4) 0.1883(4)
N1 N 0.57758(10) 0.7890(4) -0.0291(4)
H10 H 0.5770 0.7480 -0.1050
C6 C 0.55291(12) 0.8860(6) -0.0094(5)
H11 H 0.5457 0.9161 -0.0999
H12 H 0.5652 0.9507 0.0387
C7 C 0.51915(11) 0.8526(6) 0.0731(5)
H13 H 0.5261 0.8039 0.1524
H14 H 0.5082 0.9256 0.1084
C8 C 0.49143(12) 0.7841(6) -0.0115(6)
O3 O 0.48678(9) 0.8054(4) -0.1365(4)
N2 N 0.47213(10) 0.7022(4) 0.0600(4)
H15 H 0.4768 0.6926 0.1470
C9 C 0.44349(11) 0.6280(6) -0.0024(5)
C10 C 0.45826(13) 0.5424(6) -0.1131(5)
H16 H 0.4714 0.5875 -0.1814
H17 H 0.4387 0.5011 -0.1574
H18 H 0.4739 0.4848 -0.0700
C11 C 0.42708(14) 0.5526(5) 0.1170(5)
H19 H 0.4450 0.4996 0.1541
H20 H 0.4074 0.5062 0.0818
H21 H 0.4187 0.6053 0.1891
C12 C 0.41443(13) 0.7084(6) -0.0666(6)
N3 N 0.40203(10) 0.7982(5) 0.0130(5)
H22 H 0.4127 0.8141 0.0901
O4 O 0.40138(9) 0.6868(4) -0.1816(4)
C13 C 0.37112(12) 0.8692(6) -0.0272(6)
H23 H 0.3713 0.8812 -0.1272
H24 H 0.3724 0.9474 0.0170
C14 C 0.33671(13) 0.8069(7) 0.0150(7)
H25 H 0.3358 0.8003 0.1156
H26 H 0.3365 0.7262 -0.0233
C15 C 0.30387(15) 0.8746(8) -0.0356(8)
O5 O 0.28611(14) 0.9423(7) 0.0306(6)
C16 C 0.26705(18) 0.9218(10) -0.2269(9)
H27 H 0.2455 0.8771 -0.2097
H28 H 0.2706 0.9299 -0.3254
H29 H 0.2651 1.0000 -0.1855
O6 O 0.29794(12) 0.8575(7) -0.1654(6)
loop_
_geom_bond_atom_site_label_1
_geom_bond_atom_site_label_2
_geom_bond_site_symmetry_1
_geom_bond_site_symmetry_2
C1 H1 1_555 1_555
H2 C1 1_555 1_555
H3 C1 1_555 1_555
C2 H4 1_555 1_555
H5 C2 1_555 1_555
H6 C2 1_555 1_555
C3 H7 1_555 1_555
H8 C3 1_555 1_555
H9 C3 1_555 1_555
C4 C1 1_555 1_555
O1 C4 1_555 1_555
C5 O1 1_555 1_555
O2 C5 1_555 1_555
N1 C5 1_555 1_555
H10 N1 1_555 1_555
C6 N1 1_555 1_555
H11 C6 1_555 1_555
H12 C6 1_555 1_555
C7 C6 1_555 1_555
H13 C7 1_555 1_555
H14 C7 1_555 1_555
C8 C7 1_555 1_555
O3 C8 1_555 1_555
N2 C8 1_555 1_555
H15 N2 1_555 1_555
C9 N2 1_555 1_555
C10 C9 1_555 1_555
H16 C10 1_555 1_555
H17 C10 1_555 1_555
H18 C10 1_555 1_555
C11 C9 1_555 1_555
H19 C11 1_555 1_555
H20 C11 1_555 1_555
H21 C11 1_555 1_555
C12 C9 1_555 1_555
N3 C12 1_555 1_555
H22 N3 1_555 1_555
O4 C12 1_555 1_555
C13 N3 1_555 1_555
H23 C13 1_555 1_555
H24 C13 1_555 1_555
C14 C13 1_555 1_555
H25 C14 1_555 1_555
H26 C14 1_555 1_555
C15 C14 1_555 1_555
O5 C15 1_555 1_555
C16 H27 1_555 1_555
H28 C16 1_555 1_555
H29 C16 1_555 1_555
O6 C15 1_555 1_555
C2 C4 1_555 1_555
C3 C4 1_555 1_555
C16 O6 1_555 1_555

#END
