
#######################################################################
#
#                 Cambridge Crystallographic Data Centre
#                                CCDC 
#
#######################################################################
#
# If this CIF has been generated from an entry in the Cambridge 
# Structural Database, then it will include bibliographic, chemical, 
# crystal, experimental, refinement or atomic coordinate data resulting 
# from the CCDC's data processing and validation procedures.
#
#######################################################################

data_BPHZOC10
_chemical_formula_moiety         'C18 H20 Br2 N2 O2,C2 H6 O1'
_chemical_name_systematic        
'cis-3,7-Dihydroxy-1,5-bis(p-bromophenyl)-octahydro-1,5-diazocine ethanol solvate'
_symmetry_cell_setting           monoclinic
_symmetry_space_group_name_H-M   'P 21/c'
_symmetry_Int_Tables_number      14
_space_group_name_Hall           '-P 2ybc'
loop_
_symmetry_equiv_pos_site_id
_symmetry_equiv_pos_as_xyz
1 x,y,z
2 -x,1/2+y,1/2-z
3 -x,-y,-z
4 x,1/2-y,1/2+z
_cell_length_a                   11.35(4)
_cell_length_b                   12.05(4)
_cell_length_c                   16.32(7)
_cell_angle_alpha                90
_cell_angle_beta                 97.2(2)
_cell_angle_gamma                90
_cell_volume                     2214.45
_chemical_melting_point          176-8deg.C
_cell_formula_units_Z            4
loop_
_atom_site_label
_atom_site_type_symbol
_atom_site_fract_x
_atom_site_fract_y
_atom_site_fract_z
Br1 Br 0.03130 0.20290 -0.29060
Br2 Br 0.89770 0.14990 -0.01100
C1 C 0.13000 0.07200 -0.28100
C2 C 0.19200 0.04400 -0.34570
C3 C 0.26000 -0.05300 -0.33990
C4 C 0.26800 -0.12500 -0.26930
C5 C 0.20600 -0.09200 -0.20400
C6 C 0.13500 0.00400 -0.20910
O1 O 0.38800 -0.34300 -0.05540
C7 C 0.32700 -0.30000 -0.19380
C8 C 0.67100 -0.14200 -0.14690
C9 C 0.73900 -0.07000 -0.19040
C10 C 0.80600 0.01700 -0.15190
C11 C 0.80400 0.03400 -0.06630
N1 N 0.33300 -0.22300 -0.26340
C12 C 0.39900 -0.25200 -0.33300
C13 C 0.51700 -0.19700 -0.33160
O2 O 0.55080 -0.20400 -0.41520
C14 C 0.61400 -0.25700 -0.27540
N2 N 0.60800 -0.23200 -0.18530
C15 C 0.54800 -0.30800 -0.13730
C16 C 0.42300 -0.27500 -0.12210
C17 C 0.73400 -0.03000 -0.02230
C18 C 0.66800 -0.11900 -0.06110
H1 H 0.26000 0.08000 -0.37000
H2 H 0.29000 -0.07000 -0.40000
H3 H 0.20000 -0.12000 -0.14000
H4 H 0.09000 0.00000 -0.16000
H5 H 0.34000 -0.31000 -0.38000
H6 H 0.36000 -0.24000 -0.39000
H7 H 0.50000 -0.12000 -0.31000
H8 H 0.66000 -0.19000 -0.31000
H9 H 0.72000 -0.26000 -0.27000
H10 H 0.59000 -0.25000 -0.09000
H11 H 0.59000 -0.31000 -0.06000
H12 H 0.42000 -0.20000 -0.09000
H13 H 0.41000 -0.31000 0.00000
H14 H 0.25000 -0.30000 -0.18000
H15 H 0.34000 -0.38000 -0.22000
H16 H 0.72000 -0.06000 -0.25000
H17 H 0.87000 0.07000 -0.18000
H18 H 0.72000 0.00000 0.03000
H19 H 0.59000 -0.15000 -0.04000
O3 O -0.28500 -0.04720 -0.43220
C19 C -0.16000 -0.03200 -0.41700
C20 C -0.10300 -0.14100 -0.42100
H20 H -0.09000 0.00000 -0.38000
H21 H -0.10000 0.01000 -0.46000
H22 H -0.06000 -0.12000 -0.38000
H23 H -0.03000 -0.15000 -0.43000
H24 H -0.09000 -0.15000 -0.48000
loop_
_geom_bond_atom_site_label_1
_geom_bond_atom_site_label_2
_geom_bond_site_symmetry_1
_geom_bond_site_symmetry_2
Br1 C1 1_555 1_555
Br2 C11 1_555 1_555
C1 C2 1_555 1_555
C2 C3 1_555 1_555
C3 C4 1_555 1_555
C4 C5 1_555 1_555
C5 C6 1_555 1_555
C6 C1 1_555 1_555
O1 C16 1_555 1_555
C7 N1 1_555 1_555
C8 C9 1_555 1_555
C9 C10 1_555 1_555
C10 C11 1_555 1_555
C11 C17 1_555 1_555
N1 C4 1_555 1_555
C12 N1 1_555 1_555
C13 C12 1_555 1_555
O2 C13 1_555 1_555
C14 C13 1_555 1_555
N2 C8 1_555 1_555
C15 N2 1_555 1_555
C16 C7 1_555 1_555
C17 C18 1_555 1_555
C18 C8 1_555 1_555
H1 C2 1_555 1_555
H2 C3 1_555 1_555
H3 C5 1_555 1_555
H4 C6 1_555 1_555
H5 C12 1_555 1_555
H6 C12 1_555 1_555
H7 C13 1_555 1_555
H8 C14 1_555 1_555
H9 C14 1_555 1_555
H10 C15 1_555 1_555
H11 C15 1_555 1_555
H12 C16 1_555 1_555
H13 O1 1_555 1_555
H14 C7 1_555 1_555
H15 C7 1_555 1_555
H16 C9 1_555 1_555
H17 C10 1_555 1_555
H18 C17 1_555 1_555
H19 C18 1_555 1_555
O3 C19 1_555 1_555
C19 C20 1_555 1_555
C20 H22 1_555 1_555
H20 C19 1_555 1_555
H21 C19 1_555 1_555
H23 C20 1_555 1_555
H24 C20 1_555 1_555
C14 N2 1_555 1_555
C15 C16 1_555 1_555

#END
