
#######################################################################
#
#                 Cambridge Crystallographic Data Centre
#                                CCDC 
#
#######################################################################
#
# If this CIF has been generated from an entry in the Cambridge 
# Structural Database, then it will include bibliographic, chemical, 
# crystal, experimental, refinement or atomic coordinate data resulting 
# from the CCDC's data processing and validation procedures.
#
#######################################################################

data_BPYRDB01
_chemical_formula_moiety         'C10 H10 N2 2+,2(Br1 1-)'
_chemical_name_systematic        "4,4'-Bipyridinium dibromide"
_symmetry_cell_setting           triclinic
_symmetry_space_group_name_H-M   'P -1'
_symmetry_Int_Tables_number      2
_space_group_name_Hall           '-P 1'
loop_
_symmetry_equiv_pos_site_id
_symmetry_equiv_pos_as_xyz
1 x,y,z
2 -x,-y,-z
_cell_length_a                   4.8975(6)
_cell_length_b                   7.6539(11)
_cell_length_c                   7.9711(9)
_cell_angle_alpha                70.468(9)
_cell_angle_beta                 87.029(9)
_cell_angle_gamma                77.153(11)
_cell_volume                     274.471
_exptl_crystal_colour            yellow
_exptl_crystal_description       pillar-like
_cell_formula_units_Z            1
loop_
_atom_site_label
_atom_site_type_symbol
_atom_site_fract_x
_atom_site_fract_y
_atom_site_fract_z
Br1 Br 1.61714(7) -0.15985(5) 0.32705(4)
N1 N 1.0740(7) 0.1806(5) 0.2438(5)
H1 H 1.177(9) 0.134(6) 0.279(6)
C1 C 0.8918(8) 0.2774(5) 0.3248(5)
H2 H 0.9185 0.2599 0.4445
C2 C 0.6609(7) 0.4052(5) 0.2310(4)
H3 H 0.5317 0.4748 0.2873
C3 C 0.8176(7) 0.3190(5) -0.0240(5)
H4 H 0.7959 0.3288 -0.1422
C4 C 1.0451(7) 0.1939(5) 0.0777(5)
H5 H 1.1775 0.1194 0.0278
C5 C 0.6211(6) 0.4301(4) 0.0526(4)
C5A C 0.3789(6) 0.5699(4) -0.0526(4)
C2A C 0.3391(7) 0.5948(5) -0.2310(4)
C1A C 0.1082(8) 0.7226(5) -0.3248(5)
N1A N -0.0740(7) 0.8194(5) -0.2438(5)
H1A H -0.177(9) 0.866(6) -0.279(6)
C4A C -0.0451(7) 0.8061(5) -0.0777(5)
C3A C 0.1824(7) 0.6810(5) 0.0240(5)
H4A H 0.2041 0.6712 0.1422
H5A H -0.1775 0.8806 -0.0278
H2A H 0.0815 0.7401 -0.4445
H3A H 0.4683 0.5252 -0.2873
loop_
_geom_bond_atom_site_label_1
_geom_bond_atom_site_label_2
_geom_bond_site_symmetry_1
_geom_bond_site_symmetry_2
N1 H1 1_555 1_555
C1 N1 1_555 1_555
H2 C1 1_555 1_555
C2 C1 1_555 1_555
H3 C2 1_555 1_555
C3 H4 1_555 1_555
C4 N1 1_555 1_555
H5 C4 1_555 1_555
C5 C2 1_555 1_555
C5A C5 1_555 1_555
C2A C5A 1_555 1_555
C1A C2A 1_555 1_555
N1A C1A 1_555 1_555
H1A N1A 1_555 1_555
C4A N1A 1_555 1_555
C3A C5A 1_555 1_555
H4A C3A 1_555 1_555
H5A C4A 1_555 1_555
H2A C1A 1_555 1_555
H3A C2A 1_555 1_555
C3 C4 1_555 1_555
C3 C5 1_555 1_555
C4A C3A 1_555 1_555

#END
