
#######################################################################
#
#                 Cambridge Crystallographic Data Centre
#                                CCDC 
#
#######################################################################
#
# If this CIF has been generated from an entry in the Cambridge 
# Structural Database, then it will include bibliographic, chemical, 
# crystal, experimental, refinement or atomic coordinate data resulting 
# from the CCDC's data processing and validation procedures.
#
#######################################################################

data_BRARBO10
_chemical_formula_moiety         'C30 H47 Br1 O1'
_chemical_name_systematic        2\a-Bromoarborinone
_symmetry_cell_setting           orthorhombic
_symmetry_space_group_name_H-M   'P 21 21 21'
_symmetry_Int_Tables_number      19
_space_group_name_Hall           'P 2bc 2ac'
loop_
_symmetry_equiv_pos_site_id
_symmetry_equiv_pos_as_xyz
1 x,y,z
2 -x,1/2-y,1/2+z
3 1/2+x,-y,1/2-z
4 1/2-x,1/2+y,-z
_cell_length_a                   12.84(1)
_cell_length_b                   8.68(1)
_cell_length_c                   22.46(4)
_cell_angle_alpha                90
_cell_angle_beta                 90
_cell_angle_gamma                90
_cell_volume                     2503.19
_cell_formula_units_Z            4
loop_
_atom_site_label
_atom_site_type_symbol
_atom_site_fract_x
_atom_site_fract_y
_atom_site_fract_z
Br1 Br 0.02946 0.21444 0.04082
C1 C 0.13969 0.03086 0.11744
C2 C 0.23955 -0.06104 0.13356
C3 C 0.13321 -0.17342 0.21009
C4 C 0.11316 -0.28785 0.25719
C5 C 0.20803 -0.39521 0.26697
C6 C 0.30291 -0.28615 0.27303
C7 C 0.39406 -0.38954 0.28967
C8 C 0.37517 -0.48034 0.34420
C9 C 0.28794 -0.58727 0.34007
C10 C 0.19368 -0.48889 0.32125
C11 C 0.10075 -0.59951 0.32619
C12 C 0.15776 0.12055 0.06319
C13 C 0.13155 -0.69276 0.38031
C14 C 0.24224 -0.64703 0.39583
C15 C 0.21164 -0.49720 0.21439
C16 C 0.26012 -0.18649 0.09006
C17 C 0.29345 -0.78384 0.42734
C18 C 0.23158 -0.82101 0.47963
C19 C 0.40664 -0.73972 0.44382
C20 C 0.31554 -0.72289 0.30267
C21 C 0.28605 -0.15766 0.31852
C22 C 0.39732 0.09740 0.03709
C23 C 0.23944 0.24598 0.06996
C24 C 0.41775 0.31278 0.10872
C25 C 0.34357 0.17207 0.08964
C26 C 0.32601 0.06751 0.14053
C27 C 0.42598 -0.01295 0.15869
C28 C 0.40692 -0.08646 0.21855
C29 C 0.32388 -0.21125 0.21547
C30 C 0.22578 -0.14173 0.18986
O1 O 0.22925 0.37538 0.06142
loop_
_geom_bond_atom_site_label_1
_geom_bond_atom_site_label_2
_geom_bond_site_symmetry_1
_geom_bond_site_symmetry_2
Br1 C12 1_555 1_555
C1 C2 1_555 1_555
C2 C16 1_555 1_555
C3 C4 1_555 1_555
C4 C5 1_555 1_555
C5 C6 1_555 1_555
C6 C7 1_555 1_555
C7 C8 1_555 1_555
C8 C9 1_555 1_555
C9 C10 1_555 1_555
C10 C5 1_555 1_555
C11 C10 1_555 1_555
C12 C1 1_555 1_555
C13 C11 1_555 1_555
C14 C9 1_555 1_555
C15 C5 1_555 1_555
C17 C14 1_555 1_555
C18 C17 1_555 1_555
C19 C17 1_555 1_555
C20 C9 1_555 1_555
C21 C6 1_555 1_555
C22 C25 1_555 1_555
C23 C12 1_555 1_555
C24 C25 1_555 1_555
C25 C23 1_555 1_555
C26 C2 1_555 1_555
C27 C26 1_555 1_555
C28 C27 1_555 1_555
C29 C6 1_555 1_555
C30 C2 1_555 1_555
O1 C23 1_555 1_555
C3 C30 1_555 1_555
C13 C14 1_555 1_555
C25 C26 1_555 1_555
C28 C29 1_555 1_555
C29 C30 1_555 1_555

#END
