
#######################################################################
#
#                 Cambridge Crystallographic Data Centre
#                                CCDC 
#
#######################################################################
#
# If this CIF has been generated from an entry in the Cambridge 
# Structural Database, then it will include bibliographic, chemical, 
# crystal, experimental, refinement or atomic coordinate data resulting 
# from the CCDC's data processing and validation procedures.
#
#######################################################################

data_BRBTHO
_chemical_formula_moiety         'C17 H16 Br1 N1 O5 S1'
_chemical_name_systematic        
N-(p-Bromophenyl)-4,5-dihydro-7,8-dimethoxy-benzothiazepin-3-one-1,1-dioxide
_symmetry_cell_setting           monoclinic
_symmetry_space_group_name_H-M   'P 21/c'
_symmetry_Int_Tables_number      14
_space_group_name_Hall           '-P 2ybc'
loop_
_symmetry_equiv_pos_site_id
_symmetry_equiv_pos_as_xyz
1 x,y,z
2 -x,1/2+y,1/2-z
3 -x,-y,-z
4 x,1/2-y,1/2+z
_cell_length_a                   12.827(2)
_cell_length_b                   10.022(1)
_cell_length_c                   15.479(2)
_cell_angle_alpha                90
_cell_angle_beta                 116.66(9)
_cell_angle_gamma                90
_cell_volume                     1778.31
_chemical_melting_point          161-2deg.C
_cell_formula_units_Z            4
loop_
_atom_site_label
_atom_site_type_symbol
_atom_site_fract_x
_atom_site_fract_y
_atom_site_fract_z
C1 C 0.56290 0.26360 0.35170
C2 C 0.63660 0.24650 0.30830
C3 C 0.74130 0.18060 0.35770
O1 O 0.82110 0.16080 0.32290
C4 C 0.79440 0.21320 0.23060
C5 C 0.77110 0.13050 0.44950
O2 O 0.87680 0.06840 0.49270
C6 C 0.91630 0.02400 0.58890
C7 C 0.69440 0.14300 0.48880
C8 C 0.58780 0.21180 0.44230
C9 C 0.51340 0.22440 0.49400
C10 C 0.38100 0.22510 0.44050
C11 C 0.32150 0.17190 0.34000
O3 O 0.26470 0.06950 0.32200
N1 N 0.32740 0.24330 0.26500
S1 S 0.43390 0.35490 0.28560
O4 O 0.42520 0.38950 0.19340
O5 O 0.42480 0.45580 0.34670
C12 C 0.26220 0.19280 0.16730
C13 C 0.15920 0.25400 0.10810
C14 C 0.09470 0.20650 0.01640
C15 C 0.13190 0.09920 -0.01550
Br1 Br 0.03780 0.03290 -0.14190
C16 C 0.23680 0.03890 0.04310
C17 C 0.30130 0.08640 0.13570
H1 H 0.62000 0.27900 0.24700
H2 H 0.72600 0.15700 0.17400
H3 H 0.78500 0.31700 0.22300
H4 H 0.85300 0.19700 0.22000
H5 H 0.98200 -0.02300 0.60000
H6 H 0.87300 -0.04600 0.59700
H7 H 0.90600 0.09400 0.62900
H8 H 0.71300 0.11000 0.54700
H9 H 0.14200 0.32100 0.13300
H10 H 0.03900 0.24100 -0.02500
H11 H 0.26500 -0.03800 0.02000
H12 H 0.38300 0.05700 0.18100
H13 H 0.52800 0.28500 0.53100
H14 H 0.55300 0.17200 0.55100
H15 H 0.37100 0.31200 0.43500
H16 H 0.36000 0.17500 0.48300
loop_
_geom_bond_atom_site_label_1
_geom_bond_atom_site_label_2
_geom_bond_site_symmetry_1
_geom_bond_site_symmetry_2
C1 C2 1_555 1_555
C2 C3 1_555 1_555
C3 O1 1_555 1_555
O1 C4 1_555 1_555
C4 H2 1_555 1_555
C5 C3 1_555 1_555
O2 C5 1_555 1_555
C6 O2 1_555 1_555
C7 C5 1_555 1_555
C8 C1 1_555 1_555
C9 C8 1_555 1_555
C10 C9 1_555 1_555
C11 C10 1_555 1_555
O3 C11 1_555 1_555
N1 C11 1_555 1_555
S1 C1 1_555 1_555
O4 S1 1_555 1_555
O5 S1 1_555 1_555
C12 N1 1_555 1_555
C13 C12 1_555 1_555
C14 C13 1_555 1_555
C15 C14 1_555 1_555
Br1 C15 1_555 1_555
C16 C15 1_555 1_555
C17 C12 1_555 1_555
H1 C2 1_555 1_555
H3 C4 1_555 1_555
H4 C4 1_555 1_555
H5 C6 1_555 1_555
H6 C6 1_555 1_555
H7 C6 1_555 1_555
H8 C7 1_555 1_555
H9 C13 1_555 1_555
H10 C14 1_555 1_555
H11 C16 1_555 1_555
H12 C17 1_555 1_555
H13 C9 1_555 1_555
H14 C9 1_555 1_555
H15 C10 1_555 1_555
H16 C10 1_555 1_555
C7 C8 1_555 1_555
N1 S1 1_555 1_555
C16 C17 1_555 1_555

#END
