
#######################################################################
#
#                 Cambridge Crystallographic Data Centre
#                                CCDC 
#
#######################################################################
#
# If this CIF has been generated from an entry in the Cambridge 
# Structural Database, then it will include bibliographic, chemical, 
# crystal, experimental, refinement or atomic coordinate data resulting 
# from the CCDC's data processing and validation procedures.
#
#######################################################################

data_BREFEL04
_chemical_compound_source        'Penicillium janthinellum'
_chemical_formula_moiety         'C16 H24 O4'
_chemical_name_systematic        
1,13-dihydroxy-6-methyl-1,6,7,8,9,11a,12,13,14,14a-decahydro-4H-cyclopenta[f]oxacyclotridecin-4-one
_symmetry_cell_setting           orthorhombic
_symmetry_space_group_name_H-M   'P 21 21 21'
_symmetry_Int_Tables_number      19
_space_group_name_Hall           'P 2ac 2ab'
loop_
_symmetry_equiv_pos_site_id
_symmetry_equiv_pos_as_xyz
1 x,y,z
2 1/2+x,1/2-y,-z
3 -x,1/2+y,1/2-z
4 1/2-x,-y,1/2+z
_cell_length_a                   7.3802(3)
_cell_length_b                   11.0018(4)
_cell_length_c                   18.8423(6)
_cell_angle_alpha                90
_cell_angle_beta                 90
_cell_angle_gamma                90
_cell_volume                     1529.91
_exptl_crystal_colour            colorless
_exptl_crystal_description       block
_cell_formula_units_Z            4
_exptl_crystal_recrystallization_method methanol
loop_
_atom_site_label
_atom_site_type_symbol
_atom_site_fract_x
_atom_site_fract_y
_atom_site_fract_z
C1 C 1.00039(19) 0.53477(14) 0.50216(8)
H1 H 0.9541 0.5831 0.4624
C2 C 0.9589(2) 0.60305(16) 0.57081(9)
H2 H 1.0336 0.5737 0.6095
H3 H 0.9784 0.6897 0.5651
C3 C 0.7607(3) 0.57539(17) 0.58394(10)
H4 H 0.7259 0.5929 0.6331
C4 C 0.7478(3) 0.44122(17) 0.56758(10)
H5 H 0.6261 0.4204 0.5524
H6 H 0.7775 0.3935 0.6093
C5 C 0.8859(2) 0.41600(13) 0.50711(8)
H7 H 0.9652 0.3489 0.5215
C6 C 1.2031(2) 0.51267(13) 0.48990(9)
H8 H 1.2514 0.4643 0.5293
C7 C 1.2288(2) 0.44402(14) 0.42204(9)
H9 H 1.1892 0.3638 0.4214
C8 C 1.3017(2) 0.48591(15) 0.36319(9)
H10 H 1.3614 0.5603 0.3649
C9 C 1.2940(2) 0.42144(15) 0.29479(9)
C10 C 1.1566(2) 0.25166(19) 0.23498(9)
H11 H 1.1343 0.3109 0.1971
C11 C 0.9816(3) 0.18790(18) 0.25367(11)
H12 H 1.0015 0.1384 0.2956
H13 H 0.9492 0.1338 0.2151
C12 C 0.8221(3) 0.2741(2) 0.26790(11)
H14 H 0.8684 0.3566 0.2696
H15 H 0.7393 0.2693 0.2280
C13 C 0.7150(2) 0.25047(18) 0.33583(10)
H16 H 0.6035 0.2971 0.3342
H17 H 0.6825 0.1651 0.3376
C14 C 0.8153(2) 0.28261(15) 0.40205(9)
H18 H 0.9023 0.2278 0.4179
C15 C 0.7911(2) 0.38186(14) 0.43977(9)
H19 H 0.7057 0.4368 0.4228
C16 C 1.3063(3) 0.1669(2) 0.21294(13)
H20 H 1.4148 0.2127 0.2045
H21 H 1.2718 0.1251 0.1703
H22 H 1.3277 0.1087 0.2500
O1 O 0.64744(17) 0.63871(12) 0.53427(9)
H23 H 0.6834 0.7089 0.5299
O2 O 1.29121(17) 0.62806(10) 0.48893(8)
H24 H 1.3952 0.6206 0.5036
O3 O 1.3529(2) 0.46155(14) 0.24019(8)
O4 O 1.20710(18) 0.31518(11) 0.29995(6)
loop_
_geom_bond_atom_site_label_1
_geom_bond_atom_site_label_2
_geom_bond_site_symmetry_1
_geom_bond_site_symmetry_2
C1 H1 1_555 1_555
C2 C1 1_555 1_555
H2 C2 1_555 1_555
H3 C2 1_555 1_555
C3 C2 1_555 1_555
H4 C3 1_555 1_555
C4 C3 1_555 1_555
H5 C4 1_555 1_555
H6 C4 1_555 1_555
C5 C1 1_555 1_555
H7 C5 1_555 1_555
C6 C1 1_555 1_555
H8 C6 1_555 1_555
C7 C6 1_555 1_555
H9 C7 1_555 1_555
C8 C7 1_555 1_555
H10 C8 1_555 1_555
C9 C8 1_555 1_555
C10 H11 1_555 1_555
C11 C10 1_555 1_555
H12 C11 1_555 1_555
H13 C11 1_555 1_555
C12 C11 1_555 1_555
H14 C12 1_555 1_555
H15 C12 1_555 1_555
C13 C12 1_555 1_555
H16 C13 1_555 1_555
H17 C13 1_555 1_555
C14 C13 1_555 1_555
H18 C14 1_555 1_555
C15 C5 1_555 1_555
H19 C15 1_555 1_555
C16 C10 1_555 1_555
H20 C16 1_555 1_555
H21 C16 1_555 1_555
H22 C16 1_555 1_555
O1 C3 1_555 1_555
H23 O1 1_555 1_555
O2 C6 1_555 1_555
H24 O2 1_555 1_555
O3 C9 1_555 1_555
O4 C9 1_555 1_555
C4 C5 1_555 1_555
C10 O4 1_555 1_555
C14 C15 1_555 1_555

#END
