
#######################################################################
#
#                 Cambridge Crystallographic Data Centre
#                                CCDC 
#
#######################################################################
#
# If this CIF has been generated from an entry in the Cambridge 
# Structural Database, then it will include bibliographic, chemical, 
# crystal, experimental, refinement or atomic coordinate data resulting 
# from the CCDC's data processing and validation procedures.
#
#######################################################################

data_BREFEL03
_chemical_compound_source        'mangrove-derived fungus Aspergillus sp. (9Hu)'
_chemical_name_common            'Brefeldin A'
_chemical_formula_moiety         'C16 H24 O4'
_chemical_name_systematic        
1,13-dihydroxy-6-methyl-1,6,7,8,9,11a,12,13,14,14a-decahydro-4H-cyclopenta[f]oxacyclotridecin-4-one
_chemical_properties_biological  
'antibiotic activity; potent toxicity against human cancer cells.'
_symmetry_cell_setting           orthorhombic
_symmetry_space_group_name_H-M   'P 21 21 21'
_symmetry_Int_Tables_number      19
_space_group_name_Hall           'P 2ac 2ab'
loop_
_symmetry_equiv_pos_site_id
_symmetry_equiv_pos_as_xyz
1 x,y,z
2 1/2-x,-y,1/2+z
3 1/2+x,1/2-y,-z
4 -x,1/2+y,1/2-z
_cell_length_a                   7.36434(18)
_cell_length_b                   10.9072(2)
_cell_length_c                   18.7870(4)
_cell_angle_alpha                90
_cell_angle_beta                 90
_cell_angle_gamma                90
_cell_volume                     1509.05
_cell_formula_units_Z            4
loop_
_atom_site_label
_atom_site_type_symbol
_atom_site_fract_x
_atom_site_fract_y
_atom_site_fract_z
C1 C -0.2940(2) 0.57973(13) 0.79514(8)
C2 C -0.3018(2) 0.51447(13) 0.86372(8)
H1 H -0.3630 0.4379 0.8655
C3 C -0.2277(2) 0.55720(13) 0.92310(8)
H2 H -0.1871 0.6399 0.9224
C4 C -0.2019(2) 0.48787(12) 0.99104(8)
H3 H -0.2509 0.5375 1.0315
C5 C 0.00066(19) 0.46519(13) 1.00301(7)
H4 H 0.0475 0.4155 0.9622
C6 C 0.0424(2) 0.39591(14) 1.07196(8)
H5 H -0.0338 0.4261 1.1117
H6 H 0.0223 0.3067 1.0660
C7 C 0.2415(2) 0.42391(14) 1.08489(8)
H7 H 0.2779 0.4051 1.1350
C8 C 0.2534(2) 0.56011(14) 1.06921(8)
H8 H 0.3781 0.5825 1.0543
H9 H 0.2212 0.6085 1.1120
C9 C 0.1162(2) 0.58518(13) 1.00804(8)
H10 H 0.0351 0.6545 1.0223
C10 C 0.2124(2) 0.61888(13) 0.94050(8)
H11 H 0.3009 0.5626 0.9236
C11 C 0.1867(2) 0.71881(13) 0.90195(8)
H12 H 0.0961 0.7746 0.9176
C12 C 0.2889(2) 0.75144(15) 0.83559(8)
H13 H 0.4026 0.7031 0.8341
H14 H 0.3228 0.8392 0.8377
C13 C 0.1822(2) 0.72843(16) 0.76701(8)
H15 H 0.1352 0.6434 0.7682
H16 H 0.2673 0.7343 0.7264
C14 C 0.0216(2) 0.81572(15) 0.75299(9)
H17 H 0.0018 0.8668 0.7958
H18 H 0.0540 0.8713 0.7133
C15 C -0.1542(2) 0.75087(15) 0.73475(8)
H19 H -0.1315 0.6896 0.6961
C16 C -0.3053(3) 0.83544(17) 0.71259(9)
H20 H -0.4164 0.7878 0.7048
H21 H -0.2715 0.8774 0.6684
H22 H -0.3264 0.8962 0.7501
O1 O -0.20339(15) 0.68664(9) 0.80040(5)
O2 O -0.35428(17) 0.53984(11) 0.73994(6)
O3 O -0.29090(15) 0.37097(9) 0.98989(6)
H23 H -0.3990 0.3792 1.0033
O4 O 0.35447(15) 0.36091(10) 1.03430(7)
H24 H 0.3180 0.2884 1.0297
loop_
_geom_bond_atom_site_label_1
_geom_bond_atom_site_label_2
_geom_bond_site_symmetry_1
_geom_bond_site_symmetry_2
C1 C2 1_555 1_555
C2 H1 1_555 1_555
C3 C2 1_555 1_555
H2 C3 1_555 1_555
C4 C3 1_555 1_555
H3 C4 1_555 1_555
C5 C4 1_555 1_555
H4 C5 1_555 1_555
C6 C5 1_555 1_555
H5 C6 1_555 1_555
H6 C6 1_555 1_555
C7 C6 1_555 1_555
H7 C7 1_555 1_555
C8 C7 1_555 1_555
H8 C8 1_555 1_555
H9 C8 1_555 1_555
C9 C5 1_555 1_555
H10 C9 1_555 1_555
C10 C9 1_555 1_555
H11 C10 1_555 1_555
C11 C10 1_555 1_555
H12 C11 1_555 1_555
C12 C11 1_555 1_555
H13 C12 1_555 1_555
H14 C12 1_555 1_555
C13 C12 1_555 1_555
H15 C13 1_555 1_555
H16 C13 1_555 1_555
C14 C13 1_555 1_555
H17 C14 1_555 1_555
H18 C14 1_555 1_555
C15 C14 1_555 1_555
H19 C15 1_555 1_555
C16 C15 1_555 1_555
H20 C16 1_555 1_555
H21 C16 1_555 1_555
H22 C16 1_555 1_555
O1 C1 1_555 1_555
O2 C1 1_555 1_555
O3 C4 1_555 1_555
H23 O3 1_555 1_555
O4 C7 1_555 1_555
H24 O4 1_555 1_555
C8 C9 1_555 1_555
C15 O1 1_555 1_555

#END
