
#######################################################################
#
#                 Cambridge Crystallographic Data Centre
#                                CCDC 
#
#######################################################################
#
# If this CIF has been generated from an entry in the Cambridge 
# Structural Database, then it will include bibliographic, chemical, 
# crystal, experimental, refinement or atomic coordinate data resulting 
# from the CCDC's data processing and validation procedures.
#
#######################################################################

data_BRHPCN
_chemical_formula_moiety         'C8 H8 Br2 N2 O3'
_chemical_name_systematic        
3,6-Dibromo-5-hydroxy-3-nitrobicyclo(2.2.1)heptane-2-carbonitrile
_symmetry_cell_setting           monoclinic
_symmetry_space_group_name_H-M   'C c'
_symmetry_Int_Tables_number      9
_space_group_name_Hall           'C -2yc'
loop_
_symmetry_equiv_pos_site_id
_symmetry_equiv_pos_as_xyz
1 x,y,z
2 1/2+x,1/2+y,z
3 x,-y,1/2+z
4 1/2+x,1/2-y,1/2+z
_cell_length_a                   6.691(1)
_cell_length_b                   16.088(2)
_cell_length_c                   9.910(2)
_cell_angle_alpha                90
_cell_angle_beta                 91.67(2)
_cell_angle_gamma                90
_cell_volume                     1066.31
_cell_formula_units_Z            4
loop_
_atom_site_label
_atom_site_type_symbol
_atom_site_fract_x
_atom_site_fract_y
_atom_site_fract_z
Br1 Br 0.00000 -0.01110 0.50000
Br2 Br 0.63540 0.27790 0.61570
O1 O 0.47560 0.00280 0.75290
O2 O 0.79910 0.12900 0.79500
O3 O 0.55490 0.16170 0.92000
N1 N 0.17130 0.34480 0.74050
N2 N 0.62560 0.15180 0.80930
C1 C 0.16890 0.14620 0.59660
C2 C 0.27900 0.18940 0.72400
C3 C 0.50140 0.17690 0.68000
C4 C 0.49810 0.11420 0.57850
C5 C 0.39700 0.02970 0.62130
C6 C 0.17450 0.05400 0.63320
C7 C 0.32500 0.14880 0.48360
C8 C 0.21770 0.27950 0.73220
loop_
_geom_bond_atom_site_label_1
_geom_bond_atom_site_label_2
_geom_bond_site_symmetry_1
_geom_bond_site_symmetry_2
Br1 C6 1_555 1_555
Br2 C3 1_555 1_555
O1 C5 1_555 1_555
O2 N2 1_555 1_555
O3 N2 1_555 1_555
N1 C8 1_555 1_555
N2 C3 1_555 1_555
C1 C2 1_555 1_555
C2 C3 1_555 1_555
C3 C4 1_555 1_555
C4 C5 1_555 1_555
C5 C6 1_555 1_555
C6 C1 1_555 1_555
C7 C1 1_555 1_555
C8 C2 1_555 1_555
C4 C7 1_555 1_555

#END
