
#######################################################################
#
#                 Cambridge Crystallographic Data Centre
#                                CCDC 
#
#######################################################################
#
# If this CIF has been generated from an entry in the Cambridge 
# Structural Database, then it will include bibliographic, chemical, 
# crystal, experimental, refinement or atomic coordinate data resulting 
# from the CCDC's data processing and validation procedures.
#
#######################################################################

data_BRIARA10
_chemical_formula_moiety         'C30 H39 Cl1 O13'
_chemical_name_systematic        'Briarein A'
_symmetry_cell_setting           orthorhombic
_symmetry_space_group_name_H-M   'P 21 21 21'
_symmetry_Int_Tables_number      19
_space_group_name_Hall           'P 2ac 2ab'
loop_
_symmetry_equiv_pos_site_id
_symmetry_equiv_pos_as_xyz
1 x,y,z
2 1/2+x,1/2-y,-z
3 -x,1/2+y,1/2-z
4 1/2-x,-y,1/2+z
_cell_length_a                   11.661(4)
_cell_length_b                   26.26(2)
_cell_length_c                   10.355(6)
_cell_angle_alpha                90
_cell_angle_beta                 90
_cell_angle_gamma                90
_cell_volume                     3170.89
_cell_formula_units_Z            4
loop_
_atom_site_label
_atom_site_type_symbol
_atom_site_fract_x
_atom_site_fract_y
_atom_site_fract_z
Cl1 Cl -0.39594 0.39032 -0.15652
O1 O -0.51960 0.38893 0.10970
O2 O -0.49520 0.28623 -0.10440
O3 O -0.29590 0.39200 0.46570
O4 O -0.52730 0.44575 0.43820
O5 O -0.77120 0.42224 0.42890
O6 O -0.78230 0.34080 0.29060
O7 O -0.49810 0.26889 0.25160
O8 O -0.66020 0.28506 -0.21190
O9 O -0.25980 0.46758 0.36880
O10 O -0.48490 0.49600 0.60730
O11 O -0.88000 0.44524 0.59890
O12 O -0.94540 0.33777 0.40970
O13 O -0.60220 0.21827 0.12110
C1 C -0.54430 0.33709 0.08330
C2 C -0.44460 0.31058 0.00710
C3 C -0.34550 0.34466 -0.03900
C4 C -0.28130 0.36914 0.07160
C5 C -0.25980 0.33216 0.17690
C6 C -0.30020 0.33294 0.29740
C7 C -0.37040 0.37367 0.36100
C8 C -0.48320 0.35616 0.43110
C9 C -0.51960 0.40033 0.51850
C10 C -0.63310 0.39170 0.58780
C11 C -0.73260 0.37793 0.50070
C12 C -0.70260 0.33693 0.40090
C13 C -0.58520 0.34812 0.33340
C14 C -0.57290 0.31113 0.21800
C15 C -0.64880 0.33107 -0.00790
C16 C -0.60650 0.29908 -0.11900
C17 C -0.70360 0.38052 -0.05560
C18 C -0.24160 0.41664 0.07130
C19 C -0.45340 0.31062 0.51900
C20 C -0.71540 0.28392 0.45970
C21 C -0.24650 0.43874 0.45700
C22 C -0.17720 0.44861 0.57740
C23 C -0.50590 0.49131 0.49450
C24 C -0.51270 0.53295 0.39740
C25 C -0.85110 0.45071 0.48840
C26 C -0.90020 0.48896 0.39610
C27 C -0.89720 0.34187 0.30730
C28 C -0.95590 0.34974 0.17980
C29 C -0.52810 0.22307 0.20100
C30 C -0.45750 0.18157 0.26030
H1 H -0.50600 0.40200 0.04200
H2 H -0.40800 0.28400 0.05600
H3 H -0.29300 0.32400 -0.09100
H4 H -0.21700 0.29900 0.15500
H5 H -0.27700 0.30500 0.35600
H6 H -0.38900 0.40300 0.29900
H7 H -0.46400 0.40700 0.58300
H8 H -0.66000 0.42100 0.63500
H9 H -0.62500 0.36600 0.65100
H10 H -0.79400 0.36800 0.55800
H11 H -0.59900 0.38400 0.29100
H12 H -0.64800 0.29700 0.20400
H13 H -0.71200 0.31100 0.03300
H14 H -0.64400 0.40400 -0.10500
H15 H -0.73500 0.40100 0.02300
H16 H -0.77000 0.36900 -0.10700
H17 H -0.20000 0.42900 0.14900
H18 H -0.25500 0.43700 -0.00500
H19 H -0.38000 0.31800 0.56300
H20 H -0.51100 0.30700 0.58800
H21 H -0.44900 0.27900 0.47200
H22 H -0.79300 0.27800 0.48200
H23 H -0.68300 0.25600 0.40600
H24 H -0.67600 0.28000 0.54100
H25 H -0.12400 0.47600 0.55900
H26 H -0.24100 0.45600 0.64600
H27 H -0.13100 0.42100 0.60300
H28 H -0.44500 0.53400 0.35600
H29 H -0.57400 0.52900 0.34500
H30 H -0.50300 0.56700 0.43900
H31 H -0.83900 0.50500 0.34800
H32 H -0.95200 0.47300 0.34000
H33 H -0.92700 0.51500 0.45800
H34 H -0.37900 0.18600 0.25800
H35 H -0.47600 0.17700 0.35400
H36 H -0.48100 0.15000 0.21400
loop_
_geom_bond_atom_site_label_1
_geom_bond_atom_site_label_2
_geom_bond_site_symmetry_1
_geom_bond_site_symmetry_2
Cl1 C3 1_555 1_555
O1 C1 1_555 1_555
O2 C2 1_555 1_555
O3 C7 1_555 1_555
O4 C9 1_555 1_555
O5 C11 1_555 1_555
O6 C12 1_555 1_555
O7 C14 1_555 1_555
O8 C16 1_555 1_555
O9 C21 1_555 1_555
O10 C23 1_555 1_555
O11 C25 1_555 1_555
O12 C27 1_555 1_555
O13 C29 1_555 1_555
C1 C2 1_555 1_555
C2 C3 1_555 1_555
C3 C4 1_555 1_555
C4 C5 1_555 1_555
C5 C6 1_555 1_555
C6 C7 1_555 1_555
C7 C8 1_555 1_555
C8 C9 1_555 1_555
C9 C10 1_555 1_555
C10 C11 1_555 1_555
C11 C12 1_555 1_555
C12 C13 1_555 1_555
C13 C8 1_555 1_555
C14 C1 1_555 1_555
C15 C1 1_555 1_555
C16 O2 1_555 1_555
C17 C15 1_555 1_555
C18 C4 1_555 1_555
C19 C8 1_555 1_555
C20 C12 1_555 1_555
C21 O3 1_555 1_555
C22 C21 1_555 1_555
C23 O4 1_555 1_555
C24 C23 1_555 1_555
C25 O5 1_555 1_555
C26 C25 1_555 1_555
C27 O6 1_555 1_555
C28 C27 1_555 1_555
C29 O7 1_555 1_555
C30 C29 1_555 1_555
H1 O1 1_555 1_555
H2 C2 1_555 1_555
H3 C3 1_555 1_555
H4 C5 1_555 1_555
H5 C6 1_555 1_555
H6 C7 1_555 1_555
H7 C9 1_555 1_555
H8 C10 1_555 1_555
H9 C10 1_555 1_555
H10 C11 1_555 1_555
H11 C13 1_555 1_555
H12 C14 1_555 1_555
H13 C15 1_555 1_555
H14 C17 1_555 1_555
H15 C17 1_555 1_555
H16 C17 1_555 1_555
H17 C18 1_555 1_555
H18 C18 1_555 1_555
H19 C19 1_555 1_555
H20 C19 1_555 1_555
H21 C19 1_555 1_555
H22 C20 1_555 1_555
H23 C20 1_555 1_555
H24 C20 1_555 1_555
H25 C22 1_555 1_555
H26 C22 1_555 1_555
H27 C22 1_555 1_555
H28 C24 1_555 1_555
H29 C24 1_555 1_555
H30 C24 1_555 1_555
H31 C26 1_555 1_555
H32 C26 1_555 1_555
H33 C26 1_555 1_555
H34 C30 1_555 1_555
H35 C30 1_555 1_555
H36 C30 1_555 1_555
C13 C14 1_555 1_555
C15 C16 1_555 1_555

#END
