
#######################################################################
#
#                 Cambridge Crystallographic Data Centre
#                                CCDC 
#
#######################################################################
#
# If this CIF has been generated from an entry in the Cambridge 
# Structural Database, then it will include bibliographic, chemical, 
# crystal, experimental, refinement or atomic coordinate data resulting 
# from the CCDC's data processing and validation procedures.
#
#######################################################################

data_BUBQOF01
_chemical_formula_moiety         'C37 H24 N2 O1,C1 H1 Cl3'
_chemical_name_systematic        
'bis(4-(9H-carbazol-9-yl)phenyl)methanone chloroform solvate'
_symmetry_cell_setting           orthorhombic
_symmetry_space_group_name_H-M   'P n a 21'
_symmetry_Int_Tables_number      33
_space_group_name_Hall           'P 2c -2n'
loop_
_symmetry_equiv_pos_site_id
_symmetry_equiv_pos_as_xyz
1 x,y,z
2 -x,-y,1/2+z
3 1/2+x,1/2-y,z
4 1/2-x,1/2+y,1/2+z
_cell_length_a                   8.7921(8)
_cell_length_b                   45.521(4)
_cell_length_c                   7.5209(7)
_cell_angle_alpha                90
_cell_angle_beta                 90
_cell_angle_gamma                90
_cell_volume                     3010.05
_exptl_crystal_colour            colorless
_exptl_crystal_description       block
_cell_formula_units_Z            4
_chemical_properties_physical    Heat-sensitive
_exptl_crystal_preparation       Luminescent
loop_
_atom_site_label
_atom_site_type_symbol
_atom_site_fract_x
_atom_site_fract_y
_atom_site_fract_z
C1 C -0.17285(19) 0.96372(3) 0.2878(2)
C2 C -0.32468(19) 0.97145(4) 0.3145(2)
H1 H -0.3828 0.9629 0.4076
C3 C -0.3879(2) 0.99206(4) 0.2002(3)
H2 H -0.4909 0.9978 0.2162
C4 C -0.3033(2) 1.00460(4) 0.0619(3)
H3 H -0.3479 1.0193 -0.0106
C5 C -0.1556(2) 0.99573(4) 0.0300(3)
H4 H -0.0993 1.0038 -0.0661
C6 C -0.09052(19) 0.97474(4) 0.1414(2)
C7 C 0.05595(19) 0.96012(4) 0.1414(2)
C8 C 0.1795(2) 0.96142(4) 0.0250(3)
H5 H 0.1756 0.9732 -0.0792
C9 C 0.3082(2) 0.94505(4) 0.0654(3)
H6 H 0.3924 0.9452 -0.0137
C10 C 0.3150(2) 0.92843(4) 0.2214(3)
H7 H 0.4058 0.9180 0.2485
C11 C 0.1931(2) 0.92662(4) 0.3379(2)
H8 H 0.1992 0.9154 0.4441
C12 C 0.06102(18) 0.94200(3) 0.2933(2)
C13 C -0.11721(18) 0.93052(4) 0.5455(2)
C14 C -0.07367(19) 0.90150(4) 0.5800(2)
H9 H -0.0211 0.8906 0.4917
C15 C -0.10688(18) 0.88867(4) 0.7420(2)
H10 H -0.0710 0.8694 0.7675
C16 C -0.19286(18) 0.90383(4) 0.8686(2)
C17 C -0.24112(19) 0.93257(4) 0.8320(2)
H11 H -0.3025 0.9428 0.9155
C18 C -0.19949(19) 0.94608(4) 0.6741(2)
H12 H -0.2269 0.9660 0.6531
C19 C -0.24295(18) 0.88962(4) 1.0378(2)
C20 C -0.13995(19) 0.86820(4) 1.1279(2)
C21 C 0.01816(19) 0.87174(4) 1.1273(2)
H13 H 0.0632 0.8868 1.0577
C22 C 0.10936(19) 0.85324(3) 1.2283(2)
H14 H 0.2161 0.8563 1.2327
C23 C 0.04443(19) 0.83016(3) 1.3231(2)
C24 C -0.11321(19) 0.82561(4) 1.3160(2)
H15 H -0.1571 0.8092 1.3744
C25 C -0.20457(19) 0.84503(4) 1.2244(2)
H16 H -0.3119 0.8427 1.2267
C26 C 0.2819(2) 0.80080(4) 1.3885(3)
C27 C 0.3649(2) 0.80300(4) 1.2317(3)
H17 H 0.3276 0.8139 1.1332
C28 C 0.5041(2) 0.78869(4) 1.2242(3)
H18 H 0.5629 0.7899 1.1185
C29 C 0.5601(2) 0.77254(4) 1.3690(3)
H19 H 0.6559 0.7630 1.3602
C30 C 0.4766(2) 0.77043(4) 1.5246(3)
H20 H 0.5147 0.7596 1.6230
C31 C 0.3357(2) 0.78441(4) 1.5348(3)
C32 C 0.2201(2) 0.78549(4) 1.6710(2)
C33 C 0.2113(2) 0.77407(4) 1.8431(3)
H21 H 0.2929 0.7629 1.8905
C34 C 0.0825(2) 0.77928(4) 1.9436(3)
H22 H 0.0751 0.7714 2.0602
C35 C -0.0367(2) 0.79608(4) 1.8754(3)
H23 H -0.1236 0.7997 1.9471
C36 C -0.0308(2) 0.80766(4) 1.7044(3)
H24 H -0.1125 0.8190 1.6585
C37 C 0.0980(2) 0.80216(4) 1.6026(2)
N1 N -0.07983(16) 0.94396(3) 0.3825(2)
N2 N 0.13540(16) 0.81142(3) 1.4300(2)
O1 O -0.36894(14) 0.89496(3) 1.09954(18)
C38 C 0.4719(2) 0.86911(5) 0.7359(3)
H25 H 0.5067 0.8851 0.8173
Cl1 Cl 0.52094(6) 0.878676(15) 0.51698(8)
Cl2 Cl 0.56407(6) 0.836070(11) 0.79797(8)
Cl3 Cl 0.27378(6) 0.865316(14) 0.75742(9)
loop_
_geom_bond_atom_site_label_1
_geom_bond_atom_site_label_2
_geom_bond_site_symmetry_1
_geom_bond_site_symmetry_2
C1 C2 1_555 1_555
C2 H1 1_555 1_555
C3 C2 1_555 1_555
H2 C3 1_555 1_555
C4 C3 1_555 1_555
H3 C4 1_555 1_555
C5 C4 1_555 1_555
H4 C5 1_555 1_555
C6 C1 1_555 1_555
C7 C6 1_555 1_555
C8 C7 1_555 1_555
H5 C8 1_555 1_555
C9 C8 1_555 1_555
H6 C9 1_555 1_555
C10 C9 1_555 1_555
H7 C10 1_555 1_555
C11 C10 1_555 1_555
H8 C11 1_555 1_555
C12 C7 1_555 1_555
C13 C14 1_555 1_555
C14 H9 1_555 1_555
C15 C14 1_555 1_555
H10 C15 1_555 1_555
C16 C15 1_555 1_555
C17 C16 1_555 1_555
H11 C17 1_555 1_555
C18 C13 1_555 1_555
H12 C18 1_555 1_555
C19 C16 1_555 1_555
C20 C19 1_555 1_555
C21 C20 1_555 1_555
H13 C21 1_555 1_555
C22 C21 1_555 1_555
H14 C22 1_555 1_555
C23 C22 1_555 1_555
C24 C23 1_555 1_555
H15 C24 1_555 1_555
C25 C20 1_555 1_555
H16 C25 1_555 1_555
C26 C27 1_555 1_555
C27 H17 1_555 1_555
C28 C27 1_555 1_555
H18 C28 1_555 1_555
C29 C28 1_555 1_555
H19 C29 1_555 1_555
C30 C29 1_555 1_555
H20 C30 1_555 1_555
C31 C26 1_555 1_555
C32 C31 1_555 1_555
C33 C32 1_555 1_555
H21 C33 1_555 1_555
C34 C33 1_555 1_555
H22 C34 1_555 1_555
C35 C34 1_555 1_555
H23 C35 1_555 1_555
C36 C35 1_555 1_555
H24 C36 1_555 1_555
C37 C32 1_555 1_555
N1 C1 1_555 1_555
N2 C23 1_555 1_555
O1 C19 1_555 1_555
C38 H25 1_555 1_555
Cl1 C38 1_555 1_555
Cl2 C38 1_555 1_555
Cl3 C38 1_555 1_555
C5 C6 1_555 1_555
C11 C12 1_555 1_555
C12 N1 1_555 1_555
C13 N1 1_555 1_555
C17 C18 1_555 1_555
C24 C25 1_555 1_555
C26 N2 1_555 1_555
C30 C31 1_555 1_555
C36 C37 1_555 1_555
C37 N2 1_555 1_555

#END
