
#######################################################################
#
#                 Cambridge Crystallographic Data Centre
#                                CCDC 
#
#######################################################################
#
# If this CIF has been generated from an entry in the Cambridge 
# Structural Database, then it will include bibliographic, chemical, 
# crystal, experimental, refinement or atomic coordinate data resulting 
# from the CCDC's data processing and validation procedures.
#
#######################################################################

data_BUBZEE
_chemical_formula_moiety         'C2 H8 As1 O2 1+,2(C2 H7 As1 O2),I3 1-'
_chemical_name_systematic        
'Dihydroxybis(methyl)arsonium bis(dimethylarsinic acid) tri-iodide'
_symmetry_cell_setting           orthorhombic
_symmetry_space_group_name_H-M   'P b c n'
_symmetry_Int_Tables_number      60
_space_group_name_Hall           '-P 2n 2ab'
loop_
_symmetry_equiv_pos_site_id
_symmetry_equiv_pos_as_xyz
1 x,y,z
2 1/2-x,1/2-y,1/2+z
3 1/2+x,1/2-y,-z
4 -x,y,1/2-z
5 -x,-y,-z
6 1/2+x,1/2+y,1/2-z
7 1/2-x,1/2+y,z
8 x,-y,1/2+z
_cell_length_a                   5.5772(3)
_cell_length_b                   21.884(2)
_cell_length_c                   17.1123(16)
_cell_angle_alpha                90
_cell_angle_beta                 90
_cell_angle_gamma                90
_cell_volume                     2088.58
_exptl_crystal_colour            red
_exptl_crystal_description       platelet
_cell_formula_units_Z            4
loop_
_atom_site_label
_atom_site_type_symbol
_atom_site_fract_x
_atom_site_fract_y
_atom_site_fract_z
I1 I 0.0000 0.0000 0.0000
I2 I -0.27708(6) 0.00912(2) 0.14484(2)
I2D I 0.27708(6) -0.00912(2) -0.14484(2)
As1 As 0.0000 -0.16483(3) 0.2500
O1 O -0.1780(6) -0.20956(17) 0.1931(2)
C1 C 0.2172(8) -0.1200(2) 0.1869(2)
H1 H -0.0931 -0.2307 0.1638
H3 H 0.1282 -0.0930 0.1525
H4 H 0.3123 -0.1481 0.1558
H5 H 0.3222 -0.0960 0.2200
O1C O 0.1780(6) -0.20956(17) 0.3069(2)
C1C C -0.2172(8) -0.1200(2) 0.3131(2)
H1C H 0.0931 -0.2307 0.3362
H3C H -0.1282 -0.0930 0.3475
H4C H -0.3123 -0.1481 0.3442
H5C H -0.3222 -0.0960 0.2800
As2 As 0.22198(8) -0.31494(2) 0.07399(2)
O2 O 0.0961(5) -0.24592(12) 0.08319(16)
O3 O 0.5171(5) -0.30783(17) 0.0494(2)
C2 C 0.2385(9) -0.3554(2) 0.1719(2)
C3 C 0.0611(9) -0.3594(2) -0.0054(2)
H2 H 0.5286 -0.2893 0.0073
H6 H 0.3119 -0.3952 0.1651
H7 H 0.0781 -0.3604 0.1929
H8 H 0.3341 -0.3313 0.2079
H9 H 0.1339 -0.3995 -0.0108
H10 H 0.0737 -0.3376 -0.0546
H11 H -0.1066 -0.3640 0.0085
loop_
_geom_bond_atom_site_label_1
_geom_bond_atom_site_label_2
_geom_bond_site_symmetry_1
_geom_bond_site_symmetry_2
I1 I2 1_555 1_555
As1 O1 1_555 1_555
As2 O2 1_555 1_555
O1 H1 1_555 1_555
O3 As2 1_555 1_555
C1 As1 1_555 1_555
C2 As2 1_555 1_555
C3 As2 1_555 1_555
H2 O3 1_555 1_555
H3 C1 1_555 1_555
H4 C1 1_555 1_555
H5 C1 1_555 1_555
H6 C2 1_555 1_555
H7 C2 1_555 1_555
H8 C2 1_555 1_555
H9 C3 1_555 1_555
H10 C3 1_555 1_555
H11 C3 1_555 1_555
I2D I1 1_555 1_555
O1C As1 1_555 1_555
C1C As1 1_555 1_555
H1C O1C 1_555 1_555
H3C C1C 1_555 1_555
H4C C1C 1_555 1_555
H5C C1C 1_555 1_555

#END
