
#######################################################################
#
#                 Cambridge Crystallographic Data Centre
#                                CCDC 
#
#######################################################################
#
# If this CIF has been generated from an entry in the Cambridge 
# Structural Database, then it will include bibliographic, chemical, 
# crystal, experimental, refinement or atomic coordinate data resulting 
# from the CCDC's data processing and validation procedures.
#
#######################################################################

data_BUBZEF
_chemical_formula_moiety         'C15 H18 Br1 N1 O4 S1'
_chemical_name_systematic        
'(2R,4R)-2-(2-Bromophenyl)-3-(t-butoxycarbonyl)-1,3-thiazolidine-4-carboxylic acid'
_symmetry_cell_setting           monoclinic
_symmetry_space_group_name_H-M   'P 21'
_symmetry_Int_Tables_number      4
_space_group_name_Hall           'P 2yb'
loop_
_symmetry_equiv_pos_site_id
_symmetry_equiv_pos_as_xyz
1 x,y,z
2 -x,1/2+y,-z
_cell_length_a                   10.485(2)
_cell_length_b                   6.6020(13)
_cell_length_c                   12.803(3)
_cell_angle_alpha                90
_cell_angle_beta                 103.81(3)
_cell_angle_gamma                90
_cell_volume                     860.63
_exptl_crystal_colour            colorless
_exptl_crystal_description       Block
_cell_formula_units_Z            2
loop_
_atom_site_label
_atom_site_type_symbol
_atom_site_fract_x
_atom_site_fract_y
_atom_site_fract_z
Br1 Br 0.91931(8) 0.89163(14) 0.76918(8)
S1 S 1.0351(2) 0.3542(6) 0.91245(18)
N1 N 1.2286(5) 0.4003(17) 0.8194(4)
O1 O 1.4228(4) 0.393(2) 0.7744(4)
C1 C 1.5557(9) 0.6832(18) 0.7473(10)
H1 H 1.4824 0.7687 0.7161
H2 H 1.6297 0.7203 0.7195
H3 H 1.5777 0.6993 0.8240
O2 O 1.2706(5) 0.6350(10) 0.6998(5)
C2 C 1.4756(10) 0.448(3) 0.6021(8)
H4 H 1.4539 0.3089 0.5836
H5 H 1.5445 0.4906 0.5693
H6 H 1.3995 0.5309 0.5766
C3 C 1.6357(9) 0.3326(17) 0.7705(9)
H7 H 1.6144 0.1940 0.7511
H8 H 1.6546 0.3464 0.8473
H9 H 1.7111 0.3723 0.7452
O3 O 1.2511(6) 0.0146(12) 0.7647(5)
H10 H 1.2571 -0.1074 0.7546
C4 C 1.5202(9) 0.4668(16) 0.7196(7)
O4 O 1.3117(8) -0.085(2) 0.9307(6)
C5 C 1.3072(8) 0.4990(16) 0.7607(7)
C6 C 1.2819(8) 0.0516(15) 0.8679(7)
C7 C 1.2758(8) 0.2601(15) 0.9049(7)
H11 H 1.3666 0.2999 0.9375
C8 C 1.1991(9) 0.3015(19) 0.9889(7)
H12 H 1.2352 0.4168 1.0331
H13 H 1.2002 0.1845 1.0349
C9 C 1.1017(7) 0.5086(14) 0.8184(6)
H14 H 1.1173 0.6486 0.8437
C10 C 1.0052(8) 0.4988(16) 0.7111(7)
C11 C 0.9976(8) 0.3382(14) 0.6428(7)
H15 H 1.0543 0.2297 0.6645
C12 C 0.9075(10) 0.3270(18) 0.5397(8)
H16 H 0.9046 0.2154 0.4949
C13 C 0.8222(10) 0.497(2) 0.5093(8)
H17 H 0.7633 0.4985 0.4423
C14 C 0.8259(9) 0.6644(19) 0.5801(8)
H18 H 0.7696 0.7740 0.5606
C15 C 0.9166(8) 0.6597(16) 0.6799(7)
loop_
_geom_bond_atom_site_label_1
_geom_bond_atom_site_label_2
_geom_bond_site_symmetry_1
_geom_bond_site_symmetry_2
Br1 C15 1_555 1_555
S1 C8 1_555 1_555
N1 C5 1_555 1_555
O1 C4 1_555 1_555
C1 H1 1_555 1_555
H2 C1 1_555 1_555
H3 C1 1_555 1_555
O2 C5 1_555 1_555
C2 H4 1_555 1_555
H5 C2 1_555 1_555
H6 C2 1_555 1_555
C3 H7 1_555 1_555
H8 C3 1_555 1_555
H9 C3 1_555 1_555
O3 H10 1_555 1_555
C4 C1 1_555 1_555
O4 C6 1_555 1_555
C5 O1 1_555 1_555
C6 O3 1_555 1_555
C7 N1 1_555 1_555
H11 C7 1_555 1_555
C8 C7 1_555 1_555
H12 C8 1_555 1_555
H13 C8 1_555 1_555
C9 S1 1_555 1_555
H14 C9 1_555 1_555
C10 C9 1_555 1_555
C11 C10 1_555 1_555
H15 C11 1_555 1_555
C12 C11 1_555 1_555
H16 C12 1_555 1_555
C13 C12 1_555 1_555
H17 C13 1_555 1_555
C14 C13 1_555 1_555
H18 C14 1_555 1_555
C15 C10 1_555 1_555
N1 C9 1_555 1_555
C2 C4 1_555 1_555
C3 C4 1_555 1_555
C6 C7 1_555 1_555
C14 C15 1_555 1_555

#END
