
#######################################################################
#
#                 Cambridge Crystallographic Data Centre
#                                CCDC 
#
#######################################################################
#
# If this CIF has been generated from an entry in the Cambridge 
# Structural Database, then it will include bibliographic, chemical, 
# crystal, experimental, refinement or atomic coordinate data resulting 
# from the CCDC's data processing and validation procedures.
#
#######################################################################

data_BUCKAM
_chemical_formula_moiety         'C38 H66 S4 Si8'
_chemical_name_systematic        
2,2'-Disulfanediylbis(1,1-dimethyl-4,6-bis(trimethylsilyl)-3-((trimethylsilyl)ethynyl)-1H-silolo[2,3-c]thiophene)
_symmetry_cell_setting           monoclinic
_symmetry_space_group_name_H-M   'C 2/c'
_symmetry_Int_Tables_number      15
_space_group_name_Hall           '-C 2yn'
loop_
_symmetry_equiv_pos_site_id
_symmetry_equiv_pos_as_xyz
1 x,y,z
2 -x,y,1/2-z
3 1/2+x,1/2+y,z
4 1/2-x,1/2+y,1/2-z
5 -x,-y,-z
6 x,-y,1/2+z
7 1/2-x,1/2-y,-z
8 1/2+x,1/2-y,1/2+z
_cell_length_a                   33.244(9)
_cell_length_b                   14.429(4)
_cell_length_c                   11.137(3)
_cell_angle_alpha                90
_cell_angle_beta                 92.509(5)
_cell_angle_gamma                90
_cell_volume                     5337.05
_exptl_crystal_colour            colorless
_exptl_crystal_description       block
_cell_formula_units_Z            4
_exptl_crystal_recrystallization_method chloroform/methanol
loop_
_atom_site_label
_atom_site_type_symbol
_atom_site_fract_x
_atom_site_fract_y
_atom_site_fract_z
S1 S 0.169162(17) 0.14346(5) 1.01674(5)
S2 S 0.027782(16) 0.36616(5) 0.71337(6)
Si1 Si 0.10824(2) 0.09128(6) 1.20686(6)
Si2 Si 0.044387(17) 0.24193(5) 0.95895(5)
Si3 Si 0.13750(2) 0.43827(6) 0.47077(6)
Si4 Si 0.203721(18) 0.21671(6) 0.78233(6)
C1 C 0.05698(6) 0.29521(16) 0.81110(18)
C2 C 0.09637(6) 0.28209(15) 0.78731(17)
C3 C 0.15986(6) 0.20231(15) 0.88322(17)
C4 C 0.09749(6) 0.20105(15) 0.98037(17)
C5 C 0.12054(6) 0.15251(16) 1.06548(18)
C6 C 0.11989(6) 0.22861(14) 0.87838(16)
C7 C 0.12344(6) 0.36528(17) 0.5973(2)
C8 C 0.11305(6) 0.32394(16) 0.68411(18)
C9 C 0.00758(7) 0.14559(19) 0.9420(2)
H1 H 0.0022 0.1210 1.0198
H2 H 0.0185 0.0976 0.8934
H3 H -0.0170 0.1683 0.9042
C10 C 0.24636(7) 0.1499(2) 0.8527(2)
H4 H 0.2694 0.1553 0.8041
H5 H 0.2389 0.0858 0.8587
H6 H 0.2528 0.1740 0.9315
C11 C 0.19253(8) 0.1674(2) 0.6310(2)
H7 H 0.2154 0.1758 0.5823
H8 H 0.1696 0.1983 0.5943
H9 H 0.1869 0.1024 0.6381
C12 C 0.21879(7) 0.33994(19) 0.7711(2)
H10 H 0.2411 0.3452 0.7195
H11 H 0.2266 0.3629 0.8496
H12 H 0.1965 0.3756 0.7385
C13 C 0.02850(7) 0.3308(2) 1.0682(2)
H13 H 0.0224 0.3012 1.1424
H14 H 0.0050 0.3625 1.0360
H15 H 0.0499 0.3746 1.0825
C14 C 0.15501(9) 0.0799(2) 1.3028(2)
H16 H 0.1748 0.0464 1.2600
H17 H 0.1492 0.0471 1.3750
H18 H 0.1652 0.1405 1.3231
C15 C 0.14855(9) 0.5555(2) 0.5315(3)
H19 H 0.1248 0.5806 0.5650
H20 H 0.1570 0.5951 0.4681
H21 H 0.1696 0.5515 0.5931
C16 C 0.09395(10) 0.4443(3) 0.3641(3)
H22 H 0.0713 0.4696 0.4036
H23 H 0.0874 0.3832 0.3353
H24 H 0.1003 0.4832 0.2977
C17 C 0.18245(10) 0.3892(3) 0.4053(3)
H25 H 0.1763 0.3285 0.3741
H26 H 0.2037 0.3848 0.4661
H27 H 0.1908 0.4284 0.3414
C18 C 0.08926(9) -0.0249(2) 1.1664(3)
H28 H 0.0649 -0.0192 1.1174
H29 H 0.0839 -0.0587 1.2382
H30 H 0.1091 -0.0573 1.1225
C19 C 0.06915(11) 0.1542(3) 1.2864(3)
H31 H 0.0452 0.1589 1.2353
H32 H 0.0787 0.2152 1.3069
H33 H 0.0632 0.1213 1.3584
S1A S -0.169162(17) 0.14346(5) 0.48326(5)
S2A S -0.027782(16) 0.36616(5) 0.78663(6)
Si1A Si -0.10824(2) 0.09128(6) 0.29314(6)
Si2A Si -0.044387(17) 0.24193(5) 0.54105(5)
Si3A Si -0.13750(2) 0.43827(6) 1.02923(6)
Si4A Si -0.203721(18) 0.21671(6) 0.71767(6)
C1A C -0.05698(6) 0.29521(16) 0.68890(18)
C2A C -0.09637(6) 0.28209(15) 0.71269(17)
C3A C -0.15986(6) 0.20231(15) 0.61678(17)
C4A C -0.09749(6) 0.20105(15) 0.51963(17)
C5A C -0.12054(6) 0.15251(16) 0.43452(18)
C6A C -0.11989(6) 0.22861(14) 0.62162(16)
C7A C -0.12344(6) 0.36528(17) 0.9027(2)
C8A C -0.11305(6) 0.32394(16) 0.81589(18)
C9A C -0.00758(7) 0.14559(19) 0.5580(2)
H1A H -0.0022 0.1210 0.4802
H2A H -0.0185 0.0976 0.6066
H3A H 0.0170 0.1683 0.5958
C10A C -0.24636(7) 0.1499(2) 0.6473(2)
H4A H -0.2694 0.1553 0.6959
H5A H -0.2389 0.0858 0.6413
H6A H -0.2528 0.1740 0.5685
C11A C -0.19253(8) 0.1674(2) 0.8690(2)
H7A H -0.2154 0.1758 0.9177
H8A H -0.1696 0.1983 0.9057
H9A H -0.1869 0.1024 0.8619
C12A C -0.21879(7) 0.33994(19) 0.7289(2)
H10A H -0.2411 0.3452 0.7805
H11A H -0.2266 0.3629 0.6504
H12A H -0.1965 0.3756 0.7615
C13A C -0.02850(7) 0.3308(2) 0.4318(2)
H13A H -0.0224 0.3012 0.3576
H14A H -0.0050 0.3625 0.4640
H15A H -0.0499 0.3746 0.4175
C14A C -0.15501(9) 0.0799(2) 0.1972(2)
H16A H -0.1748 0.0464 0.2400
H17A H -0.1492 0.0471 0.1250
H18A H -0.1652 0.1405 0.1769
C15A C -0.14855(9) 0.5555(2) 0.9685(3)
H19A H -0.1248 0.5806 0.9350
H20A H -0.1570 0.5951 1.0319
H21A H -0.1696 0.5515 0.9069
C16A C -0.09395(10) 0.4443(3) 1.1359(3)
H22A H -0.0713 0.4696 1.0964
H23A H -0.0874 0.3832 1.1647
H24A H -0.1003 0.4832 1.2023
C17A C -0.18245(10) 0.3892(3) 1.0947(3)
H25A H -0.1763 0.3285 1.1259
H26A H -0.2037 0.3848 1.0339
H27A H -0.1908 0.4284 1.1586
C18A C -0.08926(9) -0.0249(2) 0.3336(3)
H28A H -0.0649 -0.0192 0.3826
H29A H -0.0839 -0.0587 0.2618
H30A H -0.1091 -0.0573 0.3775
C19A C -0.06915(11) 0.1542(3) 0.2136(3)
H31A H -0.0452 0.1589 0.2647
H32A H -0.0787 0.2152 0.1931
H33A H -0.0632 0.1213 0.1416
loop_
_geom_bond_atom_site_label_1
_geom_bond_atom_site_label_2
_geom_bond_site_symmetry_1
_geom_bond_site_symmetry_2
S1 C3 1_555 1_555
S2 C1 1_555 1_555
Si1 C5 1_555 1_555
Si2 C1 1_555 1_555
Si3 C7 1_555 1_555
Si4 C3 1_555 1_555
C1 C2 1_555 1_555
C2 C6 1_555 1_555
C3 C6 1_555 1_555
C4 Si2 1_555 1_555
C5 S1 1_555 1_555
C6 C4 1_555 1_555
C7 C8 1_555 1_555
C8 C2 1_555 1_555
C9 Si2 1_555 1_555
H1 C9 1_555 1_555
H2 C9 1_555 1_555
H3 C9 1_555 1_555
C10 Si4 1_555 1_555
H4 C10 1_555 1_555
H5 C10 1_555 1_555
H6 C10 1_555 1_555
C11 Si4 1_555 1_555
H7 C11 1_555 1_555
H8 C11 1_555 1_555
H9 C11 1_555 1_555
C12 Si4 1_555 1_555
H10 C12 1_555 1_555
H11 C12 1_555 1_555
H12 C12 1_555 1_555
C13 Si2 1_555 1_555
H13 C13 1_555 1_555
H14 C13 1_555 1_555
H15 C13 1_555 1_555
C14 Si1 1_555 1_555
H16 C14 1_555 1_555
H17 C14 1_555 1_555
H18 C14 1_555 1_555
C15 Si3 1_555 1_555
H19 C15 1_555 1_555
H20 C15 1_555 1_555
H21 C15 1_555 1_555
C16 Si3 1_555 1_555
H22 C16 1_555 1_555
H23 C16 1_555 1_555
H24 C16 1_555 1_555
C17 Si3 1_555 1_555
H25 C17 1_555 1_555
H26 C17 1_555 1_555
H27 C17 1_555 1_555
C18 Si1 1_555 1_555
H28 C18 1_555 1_555
H29 C18 1_555 1_555
H30 C18 1_555 1_555
C19 Si1 1_555 1_555
H31 C19 1_555 1_555
H32 C19 1_555 1_555
H33 C19 1_555 1_555
S1A C3A 1_555 1_555
S2A S2 1_555 1_555
Si1A C5A 1_555 1_555
Si2A C1A 1_555 1_555
Si3A C7A 1_555 1_555
Si4A C3A 1_555 1_555
C1A S2A 1_555 1_555
C2A C1A 1_555 1_555
C3A C6A 1_555 1_555
C4A Si2A 1_555 1_555
C5A S1A 1_555 1_555
C6A C2A 1_555 1_555
C7A C8A 1_555 1_555
C8A C2A 1_555 1_555
C9A Si2A 1_555 1_555
H1A C9A 1_555 1_555
H2A C9A 1_555 1_555
H3A C9A 1_555 1_555
C10A Si4A 1_555 1_555
H4A C10A 1_555 1_555
H5A C10A 1_555 1_555
H6A C10A 1_555 1_555
C11A Si4A 1_555 1_555
H7A C11A 1_555 1_555
H8A C11A 1_555 1_555
H9A C11A 1_555 1_555
C12A Si4A 1_555 1_555
H10A C12A 1_555 1_555
H11A C12A 1_555 1_555
H12A C12A 1_555 1_555
C13A Si2A 1_555 1_555
H13A C13A 1_555 1_555
H14A C13A 1_555 1_555
H15A C13A 1_555 1_555
C14A Si1A 1_555 1_555
H16A C14A 1_555 1_555
H17A C14A 1_555 1_555
H18A C14A 1_555 1_555
C15A Si3A 1_555 1_555
H19A C15A 1_555 1_555
H20A C15A 1_555 1_555
H21A C15A 1_555 1_555
C16A Si3A 1_555 1_555
H22A C16A 1_555 1_555
H23A C16A 1_555 1_555
H24A C16A 1_555 1_555
C17A Si3A 1_555 1_555
H25A C17A 1_555 1_555
H26A C17A 1_555 1_555
H27A C17A 1_555 1_555
C18A Si1A 1_555 1_555
H28A C18A 1_555 1_555
H29A C18A 1_555 1_555
H30A C18A 1_555 1_555
C19A Si1A 1_555 1_555
H31A C19A 1_555 1_555
H32A C19A 1_555 1_555
H33A C19A 1_555 1_555
C4 C5 1_555 1_555
C4A C5A 1_555 1_555
C4A C6A 1_555 1_555

#END
