
#######################################################################
#
#                 Cambridge Crystallographic Data Centre
#                                CCDC 
#
#######################################################################
#
# If this CIF has been generated from an entry in the Cambridge 
# Structural Database, then it will include bibliographic, chemical, 
# crystal, experimental, refinement or atomic coordinate data resulting 
# from the CCDC's data processing and validation procedures.
#
#######################################################################

data_BUCKEQ
_chemical_formula_moiety         'C20 H36 S2 Si4'
_chemical_name_systematic        
Thieno[3',4':3,4]cyclobuta[1,2-c]thiene-1,3,4,6-tetrayltetrakis(trimethylsilane)
_symmetry_cell_setting           orthorhombic
_symmetry_space_group_name_H-M   'P b c a'
_symmetry_Int_Tables_number      61
_space_group_name_Hall           '-P 2ac 2ab'
loop_
_symmetry_equiv_pos_site_id
_symmetry_equiv_pos_as_xyz
1 x,y,z
2 1/2-x,-y,1/2+z
3 -x,1/2+y,1/2-z
4 1/2+x,1/2-y,-z
5 -x,-y,-z
6 1/2+x,y,1/2-z
7 x,1/2-y,1/2+z
8 1/2-x,1/2+y,z
_cell_length_a                   11.243(4)
_cell_length_b                   12.036(4)
_cell_length_c                   20.389(7)
_cell_angle_alpha                90
_cell_angle_beta                 90
_cell_angle_gamma                90
_cell_volume                     2759.05
_exptl_crystal_colour            colorless
_exptl_crystal_description       block
_cell_formula_units_Z            4
_exptl_crystal_recrystallization_method chloroform/methanol
loop_
_atom_site_label
_atom_site_type_symbol
_atom_site_fract_x
_atom_site_fract_y
_atom_site_fract_z
S1 S 0.05781(3) 0.88599(3) 0.135573(17)
Si1 Si -0.14465(4) 1.04567(4) 0.18025(2)
Si2 Si 0.24775(4) 0.77166(4) 0.04519(2)
C1 C 0.05979(10) 0.94045(10) 0.01727(6)
C2 C -0.03154(11) 1.00594(10) 0.04831(6)
C3 C 0.11977(12) 0.86934(11) 0.05703(7)
C4 C -0.04699(11) 0.98797(11) 0.11366(7)
C5 C -0.1367(2) 0.94935(17) 0.25160(9)
H1 H -0.1860 0.9770 0.2864
H2 H -0.0559 0.9443 0.2666
H3 H -0.1640 0.8771 0.2386
C6 C 0.22689(19) 0.69684(18) -0.03315(10)
H4 H 0.2920 0.6465 -0.0398
H5 H 0.2242 0.7493 -0.0686
H6 H 0.1537 0.6559 -0.0317
C7 C -0.0872(2) 1.18453(15) 0.20407(9)
H7 H -0.1364 1.2151 0.2381
H8 H -0.0884 1.2329 0.1666
H9 H -0.0071 1.1774 0.2198
C8 C -0.30118(17) 1.0537(2) 0.15139(11)
H10 H -0.3503 1.0832 0.1857
H11 H -0.3285 0.9807 0.1399
H12 H -0.3056 1.1012 0.1137
C9 C 0.38802(17) 0.8525(2) 0.04405(13)
H13 H 0.4540 0.8030 0.0380
H14 H 0.3969 0.8913 0.0849
H15 H 0.3858 0.9051 0.0087
C10 C 0.2508(2) 0.6733(2) 0.11524(11)
H16 H 0.3159 0.6226 0.1099
H17 H 0.1774 0.6325 0.1166
H18 H 0.2605 0.7140 0.1554
S1D S -0.05781(3) 1.11401(3) -0.135573(17)
Si1D Si 0.14465(4) 0.95433(4) -0.18025(2)
Si2D Si -0.24775(4) 1.22834(4) -0.04519(2)
C1D C -0.05979(10) 1.05955(10) -0.01727(6)
C2D C 0.03154(11) 0.99406(10) -0.04831(6)
C3D C -0.11977(12) 1.13066(11) -0.05703(7)
C4D C 0.04699(11) 1.01203(11) -0.11366(7)
C5D C 0.1367(2) 1.05065(17) -0.25160(9)
H1D H 0.1860 1.0230 -0.2864
H2D H 0.0559 1.0557 -0.2666
H3D H 0.1640 1.1229 -0.2386
C6D C -0.22689(19) 1.30316(18) 0.03315(10)
H4D H -0.2920 1.3535 0.0398
H5D H -0.2242 1.2507 0.0686
H6D H -0.1537 1.3441 0.0317
C7D C 0.0872(2) 0.81547(15) -0.20407(9)
H7D H 0.1364 0.7849 -0.2381
H8D H 0.0884 0.7671 -0.1666
H9D H 0.0071 0.8226 -0.2198
C8D C 0.30118(17) 0.9463(2) -0.15139(11)
H10D H 0.3503 0.9168 -0.1857
H11D H 0.3285 1.0193 -0.1399
H12D H 0.3056 0.8988 -0.1137
C9D C -0.38802(17) 1.1475(2) -0.04405(13)
H13D H -0.4540 1.1970 -0.0380
H14D H -0.3969 1.1087 -0.0849
H15D H -0.3858 1.0949 -0.0087
C10D C -0.2508(2) 1.3267(2) -0.11524(11)
H16D H -0.3159 1.3774 -0.1099
H17D H -0.1774 1.3675 -0.1166
H18D H -0.2605 1.2860 -0.1554
loop_
_geom_bond_atom_site_label_1
_geom_bond_atom_site_label_2
_geom_bond_site_symmetry_1
_geom_bond_site_symmetry_2
S1 C3 1_555 1_555
Si1 C4 1_555 1_555
Si2 C3 1_555 1_555
C1 C2 1_555 1_555
C2 C4 1_555 1_555
C3 C1 1_555 1_555
C4 S1 1_555 1_555
C5 Si1 1_555 1_555
H1 C5 1_555 1_555
H2 C5 1_555 1_555
H3 C5 1_555 1_555
C6 Si2 1_555 1_555
H4 C6 1_555 1_555
H5 C6 1_555 1_555
H6 C6 1_555 1_555
C7 Si1 1_555 1_555
H7 C7 1_555 1_555
H8 C7 1_555 1_555
H9 C7 1_555 1_555
C8 Si1 1_555 1_555
H10 C8 1_555 1_555
H11 C8 1_555 1_555
H12 C8 1_555 1_555
C9 Si2 1_555 1_555
H13 C9 1_555 1_555
H14 C9 1_555 1_555
H15 C9 1_555 1_555
C10 Si2 1_555 1_555
H16 C10 1_555 1_555
H17 C10 1_555 1_555
H18 C10 1_555 1_555
S1D C3D 1_555 1_555
Si1D C4D 1_555 1_555
Si2D C3D 1_555 1_555
C1D C2 1_555 1_555
C2D C1 1_555 1_555
C3D C1D 1_555 1_555
C4D S1D 1_555 1_555
C5D Si1D 1_555 1_555
H1D C5D 1_555 1_555
H2D C5D 1_555 1_555
H3D C5D 1_555 1_555
C6D Si2D 1_555 1_555
H4D C6D 1_555 1_555
H5D C6D 1_555 1_555
H6D C6D 1_555 1_555
C7D Si1D 1_555 1_555
H7D C7D 1_555 1_555
H8D C7D 1_555 1_555
H9D C7D 1_555 1_555
C8D Si1D 1_555 1_555
H10D C8D 1_555 1_555
H11D C8D 1_555 1_555
H12D C8D 1_555 1_555
C9D Si2D 1_555 1_555
H13D C9D 1_555 1_555
H14D C9D 1_555 1_555
H15D C9D 1_555 1_555
C10D Si2D 1_555 1_555
H16D C10D 1_555 1_555
H17D C10D 1_555 1_555
H18D C10D 1_555 1_555
C1D C2D 1_555 1_555
C2D C4D 1_555 1_555

#END
