
#######################################################################
#
#                 Cambridge Crystallographic Data Centre
#                                CCDC 
#
#######################################################################
#
# If this CIF has been generated from an entry in the Cambridge 
# Structural Database, then it will include bibliographic, chemical, 
# crystal, experimental, refinement or atomic coordinate data resulting 
# from the CCDC's data processing and validation procedures.
#
#######################################################################

data_BUDBEJ
_chemical_formula_moiety         'C18 H16 N2 O4'
_chemical_name_systematic        N,N'-bis(2-furylmethyl)isophthalamide
_symmetry_cell_setting           tetragonal
_symmetry_space_group_name_H-M   'P 43 21 2'
_symmetry_Int_Tables_number      96
_space_group_name_Hall           'P 4nw 2abw'
loop_
_symmetry_equiv_pos_site_id
_symmetry_equiv_pos_as_xyz
1 x,y,z
2 -x,-y,1/2+z
3 1/2+x,1/2-y,1/4-z
4 1/2-x,1/2+y,3/4-z
5 -y,-x,1/2-z
6 y,x,-z
7 1/2+y,1/2-x,1/4+z
8 1/2-y,1/2+x,3/4+z
_cell_length_a                   10.356
_cell_length_b                   10.356
_cell_length_c                   14.731
_cell_angle_alpha                90
_cell_angle_beta                 90
_cell_angle_gamma                90
_cell_volume                     1579.85
_exptl_crystal_colour            colorless
_exptl_crystal_description       block
_cell_formula_units_Z            4
loop_
_atom_site_label
_atom_site_type_symbol
_atom_site_fract_x
_atom_site_fract_y
_atom_site_fract_z
C1 C 0.7129(2) 0.0741(2) 0.38535(13)
C2 C 0.8155(2) 0.0830(2) 0.31454(13)
C3 C 0.8193(2) 0.1807(2) 0.2500
H1 H 0.7545 0.2455 0.2500
C4 C 1.0075(3) -0.0075(3) 0.2500
H2 H 1.0723 -0.0723 0.2500
C5 C 0.9115(3) -0.0101(3) 0.31453(19)
H3 H 0.9110 -0.0761 0.3593
C6 C 0.4959(2) 0.1405(2) 0.43254(14)
H4 H 0.4446 0.2191 0.4198
H5 H 0.5330 0.1495 0.4942
C7 C 0.4085(2) 0.0270(3) 0.43137(14)
C8 C 0.4307(3) -0.0960(3) 0.41546(19)
H6 H 0.5101 -0.1342 0.3975
C9 C 0.3106(4) -0.1600(4) 0.4309(3)
H7 H 0.2950 -0.2500 0.4256
C10 C 0.2269(4) -0.0729(4) 0.4534(3)
H8 H 0.1384 -0.0891 0.4662
N1 N 0.60100(18) 0.13257(19) 0.36711(12)
O1 O 0.73402(16) 0.01740(16) 0.45745(10)
O2 O 0.2844(2) 0.0460(2) 0.45607(15)
H9 H 0.587(3) 0.156(3) 0.309(2)
C1D C 0.9259(2) 0.2871(2) 0.11465(13)
C2D C 0.9170(2) 0.1845(2) 0.18546(13)
C5D C 1.0101(3) 0.0885(3) 0.18547(19)
H3D H 1.0761 0.0890 0.1407
C6D C 0.8595(2) 0.5041(2) 0.06746(14)
H4D H 0.7809 0.5554 0.0802
H5D H 0.8505 0.4670 0.0058
C7D C 0.9730(3) 0.5915(2) 0.06863(14)
C8D C 1.0960(3) 0.5693(3) 0.08454(19)
H6D H 1.1342 0.4899 0.1025
C9D C 1.1600(4) 0.6894(4) 0.0691(3)
H7D H 1.2500 0.7050 0.0744
C10D C 1.0729(4) 0.7731(4) 0.0466(3)
H8D H 1.0891 0.8616 0.0338
N1D N 0.86743(19) 0.39900(18) 0.13289(12)
O1D O 0.98260(16) 0.26598(16) 0.04255(10)
O2D O 0.9540(2) 0.7156(2) 0.04393(15)
H9D H 0.844(3) 0.413(3) 0.191(2)
loop_
_geom_bond_atom_site_label_1
_geom_bond_atom_site_label_2
_geom_bond_site_symmetry_1
_geom_bond_site_symmetry_2
C1 C2 1_555 1_555
C2 C3 1_555 1_555
C3 H1 1_555 1_555
C4 H2 1_555 1_555
C5 C2 1_555 1_555
H3 C5 1_555 1_555
C6 H4 1_555 1_555
H5 C6 1_555 1_555
C7 C6 1_555 1_555
C8 C7 1_555 1_555
H6 C8 1_555 1_555
C9 C8 1_555 1_555
H7 C9 1_555 1_555
C10 C9 1_555 1_555
H8 C10 1_555 1_555
N1 C1 1_555 1_555
O1 C1 1_555 1_555
O2 C7 1_555 1_555
H9 N1 1_555 1_555
C1D C2D 1_555 1_555
C2D C3 1_555 1_555
C5D C4 1_555 1_555
H3D C5D 1_555 1_555
C6D H4D 1_555 1_555
H5D C6D 1_555 1_555
C7D C6D 1_555 1_555
C8D C7D 1_555 1_555
H6D C8D 1_555 1_555
C9D C8D 1_555 1_555
H7D C9D 1_555 1_555
C10D C9D 1_555 1_555
H8D C10D 1_555 1_555
N1D C1D 1_555 1_555
O1D C1D 1_555 1_555
O2D C7D 1_555 1_555
H9D N1D 1_555 1_555
C4 C5 1_555 1_555
C6 N1 1_555 1_555
C10 O2 1_555 1_555
C2D C5D 1_555 1_555
C6D N1D 1_555 1_555
C10D O2D 1_555 1_555

#END
