
#######################################################################
#
#                 Cambridge Crystallographic Data Centre
#                                CCDC 
#
#######################################################################
#
# If this CIF has been generated from an entry in the Cambridge 
# Structural Database, then it will include bibliographic, chemical, 
# crystal, experimental, refinement or atomic coordinate data resulting 
# from the CCDC's data processing and validation procedures.
#
#######################################################################

data_BUDBIN
_chemical_compound_source        'Chinese liverwort Notoscyphus lutescens'
_chemical_name_common            'Notolutesin A'
_chemical_formula_moiety         'C20 H28 O3'
_chemical_name_systematic        
6-Hydroxy-2,4a-dimethyl-2-vinyl-1,3,4,4a,4b,5,6,11,12,12a-decahydrophenanthro[1,10a-c]furan-8(2H)-one
_chemical_properties_biological  'Cytotoxic activity'
_symmetry_cell_setting           orthorhombic
_symmetry_space_group_name_H-M   'P 21 21 21'
_symmetry_Int_Tables_number      19
_space_group_name_Hall           'P 2ac 2ab'
loop_
_symmetry_equiv_pos_site_id
_symmetry_equiv_pos_as_xyz
1 x,y,z
2 1/2-x,-y,1/2+z
3 1/2+x,1/2-y,-z
4 -x,1/2+y,1/2-z
_cell_length_a                   6.2545(4)
_cell_length_b                   8.1557(6)
_cell_length_c                   34.847(2)
_cell_angle_alpha                90
_cell_angle_beta                 90
_cell_angle_gamma                90
_cell_volume                     1777.54
_exptl_crystal_colour            colorless
_exptl_crystal_description       plate
_chemical_melting_point          '195-197 deg.C'
_cell_formula_units_Z            4
loop_
_atom_site_label
_atom_site_type_symbol
_atom_site_fract_x
_atom_site_fract_y
_atom_site_fract_z
C1 C 0.3844(3) -0.2016(2) 0.39825(5)
H1 H 0.2351 -0.2013 0.4058
H2 H 0.3906 -0.2353 0.3716
C2 C 0.5008(4) -0.3311(2) 0.42240(6)
H3 H 0.6478 -0.3414 0.4129
C3 C 0.5075(3) -0.2734(2) 0.46343(5)
H4 H 0.4957 -0.3480 0.4835
C4 C 0.5304(3) -0.1153(2) 0.47047(5)
C5 C 0.5685(3) 0.0163(2) 0.44121(5)
C6 C 0.8107(3) 0.0503(3) 0.43956(5)
H5 H 0.8595 0.0839 0.4648
H6 H 0.8848 -0.0502 0.4329
C7 C 0.8691(3) 0.1844(3) 0.41021(6)
H7 H 0.8753 0.2893 0.4233
H8 H 1.0103 0.1617 0.4000
C8 C 0.7098(3) 0.1967(2) 0.37670(5)
H9 H 0.5920 0.2668 0.3854
C9 C 0.6122(3) 0.0294(2) 0.36629(4)
C10 C 0.4693(3) -0.0240(2) 0.40101(5)
H10 H 0.3417 0.0453 0.3993
C11 C 0.4631(4) 0.0558(3) 0.33157(5)
H11 H 0.4077 -0.0496 0.3233
H12 H 0.3425 0.1225 0.3395
C12 C 0.5738(4) 0.1392(3) 0.29739(5)
H13 H 0.6859 0.0678 0.2879
H14 H 0.4705 0.1539 0.2769
C13 C 0.6708(4) 0.3056(3) 0.30756(6)
C14 C 0.8153(4) 0.2838(3) 0.34281(6)
H15 H 0.9409 0.2219 0.3352
H16 H 0.8632 0.3910 0.3512
C15 C 0.8071(6) 0.3739(4) 0.27561(8)
H17 H 0.8635 0.4774 0.2804
C16 C 0.8590(9) 0.3123(6) 0.24254(10)
H18 H 0.8091 0.2091 0.2355
H19 H 0.9459 0.3713 0.2259
C17 C 0.4953(6) 0.4319(3) 0.31556(8)
H20 H 0.3993 0.4365 0.2941
H21 H 0.5589 0.5377 0.3194
H22 H 0.4177 0.4006 0.3382
C18 C 0.5063(3) -0.0354(3) 0.50816(5)
C19 C 0.4583(4) 0.1612(3) 0.46166(5)
H23 H 0.5288 0.2637 0.4554
H24 H 0.3092 0.1687 0.4541
C20 C 0.7836(4) -0.0982(3) 0.35570(6)
H25 H 0.8847 -0.0500 0.3383
H26 H 0.7168 -0.1908 0.3437
H27 H 0.8563 -0.1334 0.3785
O1 O 0.4770(3) 0.12589(18) 0.50272(4)
O2 O 0.5112(3) -0.0946(2) 0.54011(4)
O3 O 0.3980(3) -0.48610(16) 0.41903(5)
H28 H 0.2754 -0.4793 0.4272
loop_
_geom_bond_atom_site_label_1
_geom_bond_atom_site_label_2
_geom_bond_site_symmetry_1
_geom_bond_site_symmetry_2
C1 H1 1_555 1_555
H2 C1 1_555 1_555
C2 C1 1_555 1_555
H3 C2 1_555 1_555
C3 C2 1_555 1_555
H4 C3 1_555 1_555
C4 C3 1_555 1_555
C5 C4 1_555 1_555
C6 C5 1_555 1_555
H5 C6 1_555 1_555
H6 C6 1_555 1_555
C7 C6 1_555 1_555
H7 C7 1_555 1_555
H8 C7 1_555 1_555
C8 C7 1_555 1_555
H9 C8 1_555 1_555
C9 C8 1_555 1_555
C10 C1 1_555 1_555
H10 C10 1_555 1_555
C11 C9 1_555 1_555
H11 C11 1_555 1_555
H12 C11 1_555 1_555
C12 C11 1_555 1_555
H13 C12 1_555 1_555
H14 C12 1_555 1_555
C13 C12 1_555 1_555
C14 C8 1_555 1_555
H15 C14 1_555 1_555
H16 C14 1_555 1_555
C15 C13 1_555 1_555
H17 C15 1_555 1_555
C16 C15 1_555 1_555
H18 C16 1_555 1_555
H19 C16 1_555 1_555
C17 C13 1_555 1_555
H20 C17 1_555 1_555
H21 C17 1_555 1_555
H22 C17 1_555 1_555
C18 C4 1_555 1_555
C19 C5 1_555 1_555
H23 C19 1_555 1_555
H24 C19 1_555 1_555
C20 C9 1_555 1_555
H25 C20 1_555 1_555
H26 C20 1_555 1_555
H27 C20 1_555 1_555
O1 C18 1_555 1_555
O2 C18 1_555 1_555
O3 C2 1_555 1_555
H28 O3 1_555 1_555
C5 C10 1_555 1_555
C9 C10 1_555 1_555
C13 C14 1_555 1_555
C19 O1 1_555 1_555

#END
