
#######################################################################
#
#                 Cambridge Crystallographic Data Centre
#                                CCDC 
#
#######################################################################
#
# If this CIF has been generated from an entry in the Cambridge 
# Structural Database, then it will include bibliographic, chemical, 
# crystal, experimental, refinement or atomic coordinate data resulting 
# from the CCDC's data processing and validation procedures.
#
#######################################################################

data_BUDFEL
_chemical_formula_moiety         'C14 H26 N4 O2'
_chemical_name_systematic        dl-Bi-(3,5,5-trimethyl-2-oxopiperazin-3-yl)
_symmetry_cell_setting           monoclinic
_symmetry_space_group_name_H-M   'P 21/n'
_symmetry_Int_Tables_number      14
_space_group_name_Hall           '-P 2yn'
loop_
_symmetry_equiv_pos_site_id
_symmetry_equiv_pos_as_xyz
1 x,y,z
2 1/2-x,1/2+y,1/2-z
3 -x,-y,-z
4 1/2+x,1/2-y,1/2+z
_cell_length_a                   8.502(8)
_cell_length_b                   16.458(8)
_cell_length_c                   11.377(6)
_cell_angle_alpha                90
_cell_angle_beta                 106.98(6)
_cell_angle_gamma                90
_cell_volume                     1522.54
_exptl_crystal_colour            colorless
_chemical_melting_point          182-183deg.C
_cell_formula_units_Z            4
loop_
_atom_site_label
_atom_site_type_symbol
_atom_site_fract_x
_atom_site_fract_y
_atom_site_fract_z
C1 C 0.49580 0.21830 -0.21460
C2 C 0.62170 0.23340 -0.09020
O1 O 0.76860 0.23470 -0.08290
N1 N 0.57100 0.24400 0.00900
C3 C 0.40000 0.25170 0.00580
C4 C 0.29830 0.28380 -0.11790
N2 N 0.32290 0.23080 -0.21550
C5 C 0.51690 0.12700 -0.25040
C6 C 0.50530 0.07390 -0.14330
O2 O 0.37210 0.06730 -0.12060
N3 N 0.63860 0.03590 -0.07560
C7 C 0.79460 0.03270 -0.10220
C8 C 0.76800 0.04380 -0.23850
N4 N 0.67460 0.11880 -0.27890
C9 C 0.53390 0.27550 -0.30840
C10 C 0.34120 0.37140 -0.13630
C11 C 0.11770 0.27850 -0.12470
C12 C 0.37680 0.10280 -0.36370
C13 C 0.68010 -0.02940 -0.31020
C14 C 0.93350 0.05380 -0.26090
H1 H 0.65300 0.24800 0.08700
H2 H 0.35900 0.19900 0.02100
H3 H 0.39000 0.28700 0.07100
H4 H 0.28000 0.17700 -0.20600
H5 H 0.64700 0.27100 -0.30700
H6 H 0.46700 0.26300 -0.39000
H7 H 0.51200 0.33100 -0.29200
H8 H 0.45700 0.37900 -0.12100
H9 H 0.28900 0.38900 -0.22000
H10 H 0.30500 0.40800 -0.08400
H11 H 0.08900 0.31600 -0.06900
H12 H 0.04900 0.29200 -0.20700
H13 H 0.08700 0.22500 -0.10700
H14 H 0.62900 0.00800 -0.00300
H15 H 0.86800 0.07400 -0.05600
H16 H 0.85000 -0.01900 -0.07400
H17 H 0.74200 0.16400 -0.23900
H18 H 0.27300 0.10600 -0.34500
H19 H 0.37300 0.13800 -0.43000
H20 H 0.39000 0.04800 -0.38800
H21 H 0.57900 -0.04100 -0.29300
H22 H 0.65400 -0.02000 -0.39900
H23 H 0.74700 -0.07700 -0.29300
H24 H 1.00600 0.00900 -0.22800
H25 H 0.92300 0.05500 -0.34900
H26 H 0.98700 0.10200 -0.22600
loop_
_geom_bond_atom_site_label_1
_geom_bond_atom_site_label_2
_geom_bond_site_symmetry_1
_geom_bond_site_symmetry_2
C1 C2 1_555 1_555
C2 O1 1_555 1_555
N1 C2 1_555 1_555
C3 N1 1_555 1_555
C4 C3 1_555 1_555
N2 C1 1_555 1_555
C5 C1 1_555 1_555
C6 C5 1_555 1_555
O2 C6 1_555 1_555
N3 C6 1_555 1_555
C7 N3 1_555 1_555
C8 C7 1_555 1_555
N4 C5 1_555 1_555
C9 C1 1_555 1_555
C10 C4 1_555 1_555
C11 C4 1_555 1_555
C12 C5 1_555 1_555
C13 C8 1_555 1_555
C14 C8 1_555 1_555
H1 N1 1_555 1_555
H2 C3 1_555 1_555
H3 C3 1_555 1_555
H4 N2 1_555 1_555
H5 C9 1_555 1_555
H6 C9 1_555 1_555
H7 C9 1_555 1_555
H8 C10 1_555 1_555
H9 C10 1_555 1_555
H10 C10 1_555 1_555
H11 C11 1_555 1_555
H12 C11 1_555 1_555
H13 C11 1_555 1_555
H14 N3 1_555 1_555
H15 C7 1_555 1_555
H16 C7 1_555 1_555
H17 N4 1_555 1_555
H18 C12 1_555 1_555
H19 C12 1_555 1_555
H20 C12 1_555 1_555
H21 C13 1_555 1_555
H22 C13 1_555 1_555
H23 C13 1_555 1_555
H24 C14 1_555 1_555
H25 C14 1_555 1_555
H26 C14 1_555 1_555
C4 N2 1_555 1_555
C8 N4 1_555 1_555

#END
