
#######################################################################
#
#                 Cambridge Crystallographic Data Centre
#                                CCDC 
#
#######################################################################
#
# If this CIF has been generated from an entry in the Cambridge 
# Structural Database, then it will include bibliographic, chemical, 
# crystal, experimental, refinement or atomic coordinate data resulting 
# from the CCDC's data processing and validation procedures.
#
#######################################################################

data_BUDFOX
_chemical_formula_moiety         'C19 H21 Cl1 O2'
_chemical_name_systematic        
1-(4-chlorophenyl)-6-methyleneoctahydro-1H-spiro[cyclopropa[a]indene-3,2'-[1,3]dioxolane]
_symmetry_cell_setting           tetragonal
_symmetry_space_group_name_H-M   'P 43 21 2'
_symmetry_Int_Tables_number      96
_space_group_name_Hall           'P 4nw 2abw'
loop_
_symmetry_equiv_pos_site_id
_symmetry_equiv_pos_as_xyz
1 x,y,z
2 -x,-y,1/2+z
3 1/2-y,1/2+x,3/4+z
4 1/2+y,1/2-x,1/4+z
5 1/2-x,1/2+y,3/4-z
6 1/2+x,1/2-y,1/4-z
7 y,x,-z
8 -y,-x,1/2-z
_cell_length_a                   11.6351(6)
_cell_length_b                   11.6351(6)
_cell_length_c                   48.952(3)
_cell_angle_alpha                90
_cell_angle_beta                 90
_cell_angle_gamma                90
_cell_volume                     6626.9
_exptl_crystal_colour            'light colorless'
_exptl_crystal_description       block
_cell_formula_units_Z            16
loop_
_atom_site_label
_atom_site_type_symbol
_atom_site_fract_x
_atom_site_fract_y
_atom_site_fract_z
Cl1 Cl 0.9612(2) 0.6894(2) 0.99241(5)
O1 O 0.5022(6) 0.6707(6) 0.80823(11)
O2 O 0.6301(7) 0.6504(6) 0.77344(11)
C1 C 0.7761(8) 0.6851(7) 0.95973(16)
H1 H 0.7470 0.7424 0.9710
C2 C 0.5942(8) 0.6003(7) 0.79840(15)
C3 C 0.6190(8) 0.4157(7) 0.83808(16)
H2 H 0.6843 0.3801 0.8287
C4 C 0.6551(7) 0.5401(7) 0.84467(16)
H3 H 0.5871 0.5792 0.8519
C5 C 0.7545(7) 0.5582(7) 0.92034(15)
C6 C 0.7153(7) 0.6475(7) 0.93725(16)
H4 H 0.6457 0.6826 0.9331
C7 C 0.7384(7) 0.5249(8) 0.86831(15)
H5 H 0.8194 0.5462 0.8661
C8 C 0.6904(8) 0.6038(8) 0.81912(16)
H6 H 0.7588 0.5687 0.8114
H7 H 0.7083 0.6830 0.8236
C9 C 0.8797(9) 0.6360(8) 0.96482(16)
C10 C 0.6851(8) 0.5240(8) 0.89630(17)
H8 H 0.6044 0.5479 0.8969
C11 C 0.7069(9) 0.4119(8) 0.88194(18)
H9 H 0.7685 0.3618 0.8886
C12 C 0.6124(9) 0.3611(7) 0.86572(17)
C13 C 0.9222(9) 0.5502(9) 0.94950(19)
H10 H 0.9932 0.5181 0.9537
C14 C 0.8597(8) 0.5094(9) 0.92728(19)
H11 H 0.8886 0.4489 0.9169
C15 C 0.5498(9) 0.4793(8) 0.79238(16)
H12 H 0.6078 0.4374 0.7822
H13 H 0.4817 0.4846 0.7810
C16 C 0.5204(9) 0.4125(8) 0.81851(17)
H14 H 0.4531 0.4460 0.8270
H15 H 0.5028 0.3333 0.8139
C17 C 0.4573(10) 0.7303(10) 0.7857(2)
H16 H 0.3837 0.7604 0.7836
C18 C 0.5368(12) 0.2824(9) 0.8739(2)
C19 C 0.5513(12) 0.7345(10) 0.7662(2)
H17 H 0.5577 0.7848 0.7515
Cl2 Cl 0.3107(3) 0.5451(2) 0.50142(5)
O3 O 0.3580(6) 0.8607(6) 0.72392(11)
O4 O 0.3364(6) 0.9893(6) 0.68949(12)
C20 C 0.4604(7) 0.8374(6) 0.65193(14)
H18 H 0.4204 0.9055 0.6450
C21 C 0.4071(8) 0.8969(8) 0.69867(15)
C22 C 0.4359(7) 0.7407(7) 0.57555(16)
C23 C 0.5853(7) 0.8728(8) 0.65784(14)
H19 H 0.6207 0.8070 0.6671
C24 C 0.3997(8) 0.8009(8) 0.67795(15)
H20 H 0.3198 0.7836 0.6741
H21 H 0.4355 0.7321 0.6852
C25 C 0.3591(8) 0.6218(8) 0.53008(16)
C26 C 0.3541(8) 0.7871(8) 0.55796(17)
H22 H 0.3239 0.8593 0.5618
C27 C 0.5839(8) 0.7845(8) 0.61383(16)
H23 H 0.6320 0.7221 0.6068
C28 C 0.5921(8) 0.9711(9) 0.67770(16)
H24 H 0.5579 1.0392 0.6697
H25 H 0.6719 0.9879 0.6818
C29 C 0.3162(8) 0.7292(8) 0.53489(17)
H26 H 0.2632 0.7625 0.5231
C30 C 0.6396(7) 0.8784(9) 0.62995(15)
C31 C 0.5285(8) 0.9394(9) 0.70384(16)
H27 H 0.5713 0.8800 0.7133
H28 H 0.5254 1.0062 0.7157
C32 C 0.4715(7) 0.8091(8) 0.59998(16)
H29 H 0.4490 0.8903 0.5996
C33 C 0.4741(8) 0.7545(8) 0.62814(15)
H30 H 0.4522 0.6737 0.6304
C34 C 0.4785(9) 0.6322(8) 0.56929(18)
H31 H 0.5333 0.5988 0.5806
C35 C 0.4405(10) 0.5733(9) 0.5465(2)
H32 H 0.4701 0.5012 0.5424
C36 C 0.7173(8) 0.9540(12) 0.6220(2)
C37 C 0.2746(10) 1.0313(12) 0.7123(2)
H33 H 0.1957 1.0478 0.7073
H34 H 0.3097 1.1012 0.7192
C38 C 0.2787(14) 0.9416(13) 0.7328(3)
H35 H 0.2362 0.9388 0.7489
loop_
_geom_bond_atom_site_label_1
_geom_bond_atom_site_label_2
_geom_bond_site_symmetry_1
_geom_bond_site_symmetry_2
Cl1 C9 1_555 1_555
O1 C2 1_555 1_555
O2 C2 1_555 1_555
C1 H1 1_555 1_555
C2 C8 1_555 1_555
C3 H2 1_555 1_555
C4 C3 1_555 1_555
H3 C4 1_555 1_555
C5 C6 1_555 1_555
C6 C1 1_555 1_555
H4 C6 1_555 1_555
C7 C4 1_555 1_555
H5 C7 1_555 1_555
C8 C4 1_555 1_555
H6 C8 1_555 1_555
H7 C8 1_555 1_555
C9 C1 1_555 1_555
C10 C5 1_555 1_555
H8 C10 1_555 1_555
C11 C7 1_555 1_555
H9 C11 1_555 1_555
C12 C3 1_555 1_555
C13 C9 1_555 1_555
H10 C13 1_555 1_555
C14 C5 1_555 1_555
H11 C14 1_555 1_555
C15 C2 1_555 1_555
H12 C15 1_555 1_555
H13 C15 1_555 1_555
C16 C3 1_555 1_555
H14 C16 1_555 1_555
H15 C16 1_555 1_555
C17 O1 1_555 1_555
H16 C17 1_555 1_555
C18 C12 1_555 1_555
C19 O2 1_555 1_555
H17 C19 1_555 1_555
Cl2 C25 1_555 1_555
O3 C21 1_555 1_555
O4 C21 1_555 1_555
C20 H18 1_555 1_555
C21 C24 1_555 1_555
C22 C26 1_555 1_555
C23 C20 1_555 1_555
H19 C23 1_555 1_555
C24 C20 1_555 1_555
H20 C24 1_555 1_555
H21 C24 1_555 1_555
C25 C29 1_555 1_555
C26 H22 1_555 1_555
C27 H23 1_555 1_555
C28 C23 1_555 1_555
H24 C28 1_555 1_555
H25 C28 1_555 1_555
C29 C26 1_555 1_555
H26 C29 1_555 1_555
C30 C23 1_555 1_555
C31 C21 1_555 1_555
H27 C31 1_555 1_555
H28 C31 1_555 1_555
C32 C22 1_555 1_555
H29 C32 1_555 1_555
C33 C20 1_555 1_555
H30 C33 1_555 1_555
C34 C22 1_555 1_555
H31 C34 1_555 1_555
C35 C25 1_555 1_555
H32 C35 1_555 1_555
C36 C30 1_555 1_555
C37 O4 1_555 1_555
H33 C37 1_555 1_555
H34 C37 1_555 1_555
C38 O3 1_555 1_555
H35 C38 1_555 1_555
C7 C10 1_555 1_555
C10 C11 1_555 1_555
C11 C12 1_555 1_555
C13 C14 1_555 1_555
C15 C16 1_555 1_555
C17 C19 1_555 1_555
C27 C30 1_555 1_555
C27 C32 1_555 1_555
C27 C33 1_555 1_555
C28 C31 1_555 1_555
C32 C33 1_555 1_555
C34 C35 1_555 1_555
C37 C38 1_555 1_555

#END
