
#######################################################################
#
#                 Cambridge Crystallographic Data Centre
#                                CCDC 
#
#######################################################################
#
# If this CIF has been generated from an entry in the Cambridge 
# Structural Database, then it will include bibliographic, chemical, 
# crystal, experimental, refinement or atomic coordinate data resulting 
# from the CCDC's data processing and validation procedures.
#
#######################################################################

data_BUDHEP
_chemical_formula_moiety         'C16 H12 Cl1 N1 O3'
_chemical_name_systematic        
3-(4-Chlorobenzyl)-5-phenyl-1,3-oxazolidine-2,4-dione
_symmetry_cell_setting           triclinic
_symmetry_space_group_name_H-M   'P -1'
_symmetry_Int_Tables_number      2
_space_group_name_Hall           '-P 1'
loop_
_symmetry_equiv_pos_site_id
_symmetry_equiv_pos_as_xyz
1 x,y,z
2 -x,-y,-z
_cell_length_a                   10.3981(8)
_cell_length_b                   10.4368(8)
_cell_length_c                   15.4169(12)
_cell_angle_alpha                78.123(5)
_cell_angle_beta                 81.589(5)
_cell_angle_gamma                61.978(5)
_cell_volume                     1442.94
_exptl_crystal_colour            white
_exptl_crystal_description       block
_cell_formula_units_Z            4
loop_
_atom_site_label
_atom_site_type_symbol
_atom_site_fract_x
_atom_site_fract_y
_atom_site_fract_z
Cl1 Cl 0.14959(12) 0.72810(13) 0.03751(5)
O1 O 0.18761(17) 0.75601(18) 0.55337(10)
N1 N 0.00661(18) 0.76721(18) 0.47752(11)
C1 C 0.0298(2) 0.6226(2) 0.70203(13)
C2 C 0.0661(2) 0.6007(2) 0.60675(13)
H1 H 0.1491 0.5038 0.6033
C3 C 0.0329(2) 0.8404(2) 0.31435(14)
C4 C -0.0062(3) 0.8854(2) 0.40508(14)
H2 H 0.0566 0.9258 0.4148
H3 H -0.1058 0.9628 0.4064
C5 C 0.1215(3) 0.6981(3) 0.30093(15)
H4 H 0.1578 0.6242 0.3493
C6 C -0.0647(3) 0.7578(3) 0.72568(16)
H5 H -0.1053 0.8392 0.6819
C7 C 0.1042(3) 0.7720(4) 0.14442(16)
C8 C 0.1573(3) 0.6640(3) 0.21571(17)
H6 H 0.2176 0.5674 0.2070
C9 C -0.0196(3) 0.9473(3) 0.24143(17)
H7 H -0.0808 1.0440 0.2497
C10 C 0.0169(4) 0.9138(4) 0.15662(18)
H8 H -0.0179 0.9874 0.1080
C11 C -0.0994(3) 0.7732(3) 0.81418(17)
H9 H -0.1633 0.8648 0.8298
C12 C 0.0886(3) 0.5036(3) 0.76780(17)
H10 H 0.1523 0.4115 0.7529
C13 C -0.0404(4) 0.6546(4) 0.87856(18)
H11 H -0.0643 0.6654 0.9380
C14 C 0.0532(4) 0.5209(4) 0.85627(19)
H12 H 0.0937 0.4404 0.9005
O2 O -0.05876(16) 0.60951(16) 0.56805(9)
O3 O -0.18211(16) 0.73075(17) 0.44545(10)
C15 C -0.0877(2) 0.7047(2) 0.49172(14)
C16 C 0.0989(2) 0.7163(2) 0.54513(14)
Cl2 Cl -0.30639(11) 0.92161(12) 0.03488(5)
O4 O -0.71511(17) 1.00401(17) 0.43588(10)
O5 O -0.36026(17) 0.54885(17) 0.53281(11)
N2 N -0.53320(18) 0.76530(19) 0.46102(11)
C17 C -0.4645(2) 0.7802(2) 0.59200(14)
H13 H -0.3780 0.7965 0.5863
C18 C -0.4940(2) 0.7334(2) 0.68829(14)
C19 C -0.4913(2) 0.7755(2) 0.29706(14)
C20 C -0.3802(3) 0.8666(3) 0.13559(17)
C21 C -0.5484(3) 0.7171(3) 0.38346(15)
H14 H -0.6510 0.7466 0.3790
H15 H -0.4975 0.6105 0.3918
C22 C -0.4091(2) 0.8482(3) 0.29276(15)
H16 H -0.3900 0.8662 0.3449
C23 C -0.3540(3) 0.8952(3) 0.21240(17)
H17 H -0.2997 0.9456 0.2104
C24 C -0.5966(3) 0.6835(3) 0.71638(17)
H18 H -0.6479 0.6751 0.6750
C25 C -0.4186(3) 0.7439(3) 0.75071(17)
H19 H -0.3488 0.7772 0.7324
C26 C -0.4624(4) 0.7964(4) 0.13791(19)
H20 H -0.4810 0.7788 0.0855
C27 C -0.5187(3) 0.7509(3) 0.21865(18)
H21 H -0.5755 0.7033 0.2200
C28 C -0.5462(4) 0.6568(4) 0.8672(2)
H22 H -0.5639 0.6304 0.9275
C29 C -0.4456(4) 0.7055(4) 0.8404(2)
H23 H -0.3943 0.7133 0.8820
C30 C -0.6235(3) 0.6459(4) 0.8059(2)
H24 H -0.6936 0.6132 0.8250
O6 O -0.58689(16) 0.91768(15) 0.55752(10)
C31 C -0.6211(2) 0.9052(2) 0.48009(15)
C32 C -0.4421(2) 0.6785(2) 0.52801(14)
loop_
_geom_bond_atom_site_label_1
_geom_bond_atom_site_label_2
_geom_bond_site_symmetry_1
_geom_bond_site_symmetry_2
Cl1 C7 1_555 1_555
O1 C16 1_555 1_555
N1 C4 1_555 1_555
C1 C2 1_555 1_555
C2 H1 1_555 1_555
C3 C4 1_555 1_555
C4 H2 1_555 1_555
H3 C4 1_555 1_555
C5 C3 1_555 1_555
H4 C5 1_555 1_555
C6 C1 1_555 1_555
H5 C6 1_555 1_555
C7 C8 1_555 1_555
C8 C5 1_555 1_555
H6 C8 1_555 1_555
C9 C3 1_555 1_555
H7 C9 1_555 1_555
C10 C7 1_555 1_555
H8 C10 1_555 1_555
C11 C6 1_555 1_555
H9 C11 1_555 1_555
C12 C1 1_555 1_555
H10 C12 1_555 1_555
C13 C11 1_555 1_555
H11 C13 1_555 1_555
C14 C12 1_555 1_555
H12 C14 1_555 1_555
O2 C2 1_555 1_555
O3 C15 1_555 1_555
C15 N1 1_555 1_555
C16 N1 1_555 1_555
Cl2 C20 1_555 1_555
O4 C31 1_555 1_555
O5 C32 1_555 1_555
N2 C21 1_555 1_555
C17 H13 1_555 1_555
C18 C17 1_555 1_555
C19 C21 1_555 1_555
C20 C23 1_555 1_555
C21 H14 1_555 1_555
H15 C21 1_555 1_555
C22 C19 1_555 1_555
H16 C22 1_555 1_555
C23 C22 1_555 1_555
H17 C23 1_555 1_555
C24 C18 1_555 1_555
H18 C24 1_555 1_555
C25 C18 1_555 1_555
H19 C25 1_555 1_555
C26 C20 1_555 1_555
H20 C26 1_555 1_555
C27 C19 1_555 1_555
H21 C27 1_555 1_555
C28 H22 1_555 1_555
C29 C25 1_555 1_555
H23 C29 1_555 1_555
C30 C24 1_555 1_555
H24 C30 1_555 1_555
O6 C17 1_555 1_555
C31 N2 1_555 1_555
C32 N2 1_555 1_555
C2 C16 1_555 1_555
C9 C10 1_555 1_555
C13 C14 1_555 1_555
O2 C15 1_555 1_555
C17 C32 1_555 1_555
C26 C27 1_555 1_555
C28 C29 1_555 1_555
C28 C30 1_555 1_555
O6 C31 1_555 1_555

#END
