
#######################################################################
#
#                 Cambridge Crystallographic Data Centre
#                                CCDC 
#
#######################################################################
#
# If this CIF has been generated from an entry in the Cambridge 
# Structural Database, then it will include bibliographic, chemical, 
# crystal, experimental, refinement or atomic coordinate data resulting 
# from the CCDC's data processing and validation procedures.
#
#######################################################################

data_BUDKAN
_chemical_formula_moiety         'C12 H16 Br1 N1 O1'
_chemical_name_systematic        N-(4-Bromo-2-methylphenyl)pivalamide
_symmetry_cell_setting           monoclinic
_symmetry_space_group_name_H-M   'P 21/c'
_symmetry_Int_Tables_number      14
_space_group_name_Hall           '-P 2ybc'
loop_
_symmetry_equiv_pos_site_id
_symmetry_equiv_pos_as_xyz
1 x,y,z
2 -x,1/2+y,1/2-z
3 -x,-y,-z
4 x,1/2-y,1/2+z
_cell_length_a                   11.764(3)
_cell_length_b                   19.584(5)
_cell_length_c                   12.956(3)
_cell_angle_alpha                90
_cell_angle_beta                 117.877(19)
_cell_angle_gamma                90
_cell_volume                     2638.5
_exptl_crystal_colour            colorless
_exptl_crystal_description       block
_cell_formula_units_Z            8
_exptl_crystal_recrystallization_method chloroform
loop_
_atom_site_label
_atom_site_type_symbol
_atom_site_fract_x
_atom_site_fract_y
_atom_site_fract_z
Br1 Br 0.96107(9) 0.07766(6) 1.22541(8)
N1 N 0.4710(6) 0.0356(3) 0.7724(5)
H1 H 0.4492 -0.0041 0.7412
O1 O 0.4160(5) 0.1460(3) 0.7638(5)
C1 C 0.8081(8) 0.0605(4) 1.0861(7)
C2 C 0.6924(8) 0.0724(4) 1.0821(6)
H3 H 0.6884 0.0871 1.1486
C3 C 0.5816(8) 0.0626(4) 0.9801(6)
H4 H 0.5024 0.0697 0.9780
C4 C 0.5866(7) 0.0423(3) 0.8792(6)
C5 C 0.7052(8) 0.0280(4) 0.8833(6)
C6 C 0.8141(8) 0.0384(4) 0.9878(7)
H5 H 0.8942 0.0303 0.9922
C7 C 0.7118(8) 0.0065(5) 0.7749(7)
H6 H 0.7998 -0.0013 0.7934
H7 H 0.6764 0.0419 0.7171
H8 H 0.6634 -0.0348 0.7450
C8 C 0.3938(7) 0.0895(4) 0.7178(6)
C9 C 0.2783(8) 0.0769(4) 0.5992(6)
C10 C 0.1890(9) 0.0268(5) 0.6154(8)
H9 H 0.1604 0.0462 0.6674
H10 H 0.2341 -0.0150 0.6478
H11 H 0.1159 0.0178 0.5412
C11 C 0.2083(9) 0.1434(4) 0.5504(8)
H12 H 0.1838 0.1633 0.6048
H13 H 0.1328 0.1349 0.4777
H14 H 0.2638 0.1743 0.5376
C12 C 0.3226(10) 0.0449(5) 0.5156(7)
H15 H 0.3794 0.0759 0.5047
H16 H 0.2491 0.0360 0.4416
H17 H 0.3670 0.0029 0.5481
Br2 Br 0.00476(11) 0.12629(7) -0.17802(9)
N2 N 0.4775(6) 0.2083(3) 0.2649(5)
H2 H 0.4777 0.2497 0.2871
O2 O 0.5853(6) 0.1099(3) 0.3045(5)
C13 C 0.1525(9) 0.1490(4) -0.0371(7)
C14 C 0.2695(10) 0.1463(4) -0.0340(7)
H18 H 0.2766 0.1318 -0.0991
C15 C 0.3774(8) 0.1652(4) 0.0661(7)
H19 H 0.4576 0.1640 0.0684
C16 C 0.3671(8) 0.1861(4) 0.1639(7)
C17 C 0.2495(10) 0.1873(4) 0.1621(7)
C18 C 0.1419(9) 0.1689(4) 0.0592(8)
H20 H 0.0612 0.1701 0.0558
C19 C 0.2349(10) 0.2096(5) 0.2664(7)
H21 H 0.1461 0.2068 0.2483
H22 H 0.2643 0.2558 0.2860
H23 H 0.2851 0.1803 0.3314
C20 C 0.5824(9) 0.1700(5) 0.3295(8)
C21 C 0.6956(13) 0.2023(7) 0.4300(12)
C22 C 0.8063(12) 0.1606(6) 0.4813(11)
H24 H 0.7860 0.1187 0.5075
H25 H 0.8731 0.1840 0.5466
H26 H 0.8350 0.1507 0.4247
C23 C 0.7298(12) 0.2717(6) 0.3915(11)
H27 H 0.8004 0.2926 0.4573
H28 H 0.6565 0.3015 0.3628
H29 H 0.7534 0.2637 0.3310
C24 C 0.6485(12) 0.2294(6) 0.5109(11)
H30 H 0.6243 0.1921 0.5445
H31 H 0.5752 0.2583 0.4683
H32 H 0.7155 0.2553 0.5719
loop_
_geom_bond_atom_site_label_1
_geom_bond_atom_site_label_2
_geom_bond_site_symmetry_1
_geom_bond_site_symmetry_2
Br1 C1 1_555 1_555
Br2 C13 1_555 1_555
N1 H1 1_555 1_555
N2 H2 1_555 1_555
O1 C8 1_555 1_555
O2 C20 1_555 1_555
C1 C2 1_555 1_555
C2 H3 1_555 1_555
C3 C2 1_555 1_555
H4 C3 1_555 1_555
C4 N1 1_555 1_555
C5 C4 1_555 1_555
C6 C1 1_555 1_555
H5 C6 1_555 1_555
C7 C5 1_555 1_555
H6 C7 1_555 1_555
H7 C7 1_555 1_555
H8 C7 1_555 1_555
C8 N1 1_555 1_555
C9 C8 1_555 1_555
C10 C9 1_555 1_555
H9 C10 1_555 1_555
H10 C10 1_555 1_555
H11 C10 1_555 1_555
C11 C9 1_555 1_555
H12 C11 1_555 1_555
H13 C11 1_555 1_555
H14 C11 1_555 1_555
C12 C9 1_555 1_555
H15 C12 1_555 1_555
H16 C12 1_555 1_555
H17 C12 1_555 1_555
C13 C14 1_555 1_555
C14 H18 1_555 1_555
C15 C14 1_555 1_555
H19 C15 1_555 1_555
C16 N2 1_555 1_555
C17 C16 1_555 1_555
C18 C13 1_555 1_555
H20 C18 1_555 1_555
C19 C17 1_555 1_555
H21 C19 1_555 1_555
H22 C19 1_555 1_555
H23 C19 1_555 1_555
C20 N2 1_555 1_555
C21 C20 1_555 1_555
C22 C21 1_555 1_555
H24 C22 1_555 1_555
H25 C22 1_555 1_555
H26 C22 1_555 1_555
C23 C21 1_555 1_555
H27 C23 1_555 1_555
H28 C23 1_555 1_555
H29 C23 1_555 1_555
C24 C21 1_555 1_555
H30 C24 1_555 1_555
H31 C24 1_555 1_555
H32 C24 1_555 1_555
C3 C4 1_555 1_555
C5 C6 1_555 1_555
C15 C16 1_555 1_555
C17 C18 1_555 1_555

#END
