
#######################################################################
#
#                 Cambridge Crystallographic Data Centre
#                                CCDC 
#
#######################################################################
#
# If this CIF has been generated from an entry in the Cambridge 
# Structural Database, then it will include bibliographic, chemical, 
# crystal, experimental, refinement or atomic coordinate data resulting 
# from the CCDC's data processing and validation procedures.
#
#######################################################################

data_BUDMUK
_chemical_formula_moiety         'C21 H26 O4'
_chemical_name_systematic        
2-(3-Acetyl-3-hydroxy-3,4,6a,7,8,9,10,10a-octahydro-2H-1-benzoxocin-4-yl)-1-phenylethanone
_symmetry_cell_setting           monoclinic
_symmetry_space_group_name_H-M   'P 21/c'
_symmetry_Int_Tables_number      14
_space_group_name_Hall           '-P 2ybc'
loop_
_symmetry_equiv_pos_site_id
_symmetry_equiv_pos_as_xyz
1 x,y,z
2 -x,1/2+y,1/2-z
3 -x,-y,-z
4 x,1/2-y,1/2+z
_cell_length_a                   13.2047(13)
_cell_length_b                   12.1238(11)
_cell_length_c                   11.6452(10)
_cell_angle_alpha                90
_cell_angle_beta                 94.938(9)
_cell_angle_gamma                90
_cell_volume                     1857.37
_exptl_crystal_colour            colorless
_exptl_crystal_description       block
_cell_formula_units_Z            4
loop_
_atom_site_label
_atom_site_type_symbol
_atom_site_fract_x
_atom_site_fract_y
_atom_site_fract_z
O1 O 0.13165(10) 0.38733(12) 0.45735(12)
O2 O 0.42275(12) 0.42471(14) 0.61010(13)
O3 O 0.29868(13) 0.28879(13) 0.70323(11)
H1 H 0.3286 0.3416 0.7343
O4 O 0.33748(13) 0.02800(14) 0.36451(13)
C1 C 0.03438(14) 0.33585(18) 0.42655(18)
H2 H -0.0098 0.3475 0.4889
C2 C -0.00913(17) 0.3973(2) 0.3204(2)
H3 H 0.0386 0.3930 0.2617
H4 H -0.0170 0.4744 0.3398
C3 C -0.11198(17) 0.3518(2) 0.2709(2)
H5 H -0.1625 0.3649 0.3251
H6 H -0.1335 0.3902 0.1999
C4 C -0.10517(19) 0.2291(2) 0.2472(2)
H7 H -0.0618 0.2169 0.1853
H8 H -0.1723 0.2008 0.2227
C5 C -0.06227(16) 0.1675(2) 0.3547(2)
H9 H -0.0564 0.0899 0.3363
H10 H -0.1095 0.1741 0.4137
C6 C 0.04285(15) 0.21085(18) 0.40345(17)
H11 H 0.0904 0.2005 0.3442
C7 C 0.08075(15) 0.14360(18) 0.50761(18)
H12 H 0.0322 0.1022 0.5418
C8 C 0.17543(15) 0.13661(17) 0.55617(18)
H13 H 0.1873 0.0887 0.6183
C9 C 0.26530(14) 0.20009(16) 0.51865(17)
H14 H 0.2522 0.2161 0.4362
C10 C 0.27570(15) 0.31157(17) 0.58399(16)
C11 C 0.17480(15) 0.37620(18) 0.57297(18)
H15 H 0.1264 0.3389 0.6176
H16 H 0.1865 0.4491 0.6057
C12 C 0.35965(15) 0.38456(17) 0.54019(17)
C13 C 0.35854(17) 0.4092(2) 0.41404(18)
H17 H 0.2932 0.4381 0.3865
H18 H 0.3715 0.3427 0.3730
H19 H 0.4102 0.4626 0.4018
C14 C 0.36476(15) 0.13323(18) 0.53592(19)
H20 H 0.4202 0.1763 0.5095
H21 H 0.3803 0.1180 0.6173
C15 C 0.35535(14) 0.02535(18) 0.46969(18)
C16 C 0.36551(14) -0.08271(17) 0.53022(17)
C17 C 0.40619(17) -0.0948(2) 0.64383(19)
H22 H 0.4273 -0.0327 0.6862
C18 C 0.4157(2) -0.1980(2) 0.6946(2)
H23 H 0.4437 -0.2047 0.7703
C19 C 0.38402(19) -0.2905(2) 0.6336(2)
H24 H 0.3897 -0.3596 0.6682
C20 C 0.3440(2) -0.2805(2) 0.5212(2)
H25 H 0.3227 -0.3431 0.4797
C21 C 0.33515(17) -0.17762(19) 0.4694(2)
H26 H 0.3086 -0.1719 0.3931
loop_
_geom_bond_atom_site_label_1
_geom_bond_atom_site_label_2
_geom_bond_site_symmetry_1
_geom_bond_site_symmetry_2
O1 C1 1_555 1_555
O2 C12 1_555 1_555
O3 H1 1_555 1_555
O4 C15 1_555 1_555
C1 H2 1_555 1_555
C2 C1 1_555 1_555
H3 C2 1_555 1_555
H4 C2 1_555 1_555
C3 C2 1_555 1_555
H5 C3 1_555 1_555
H6 C3 1_555 1_555
C4 C3 1_555 1_555
H7 C4 1_555 1_555
H8 C4 1_555 1_555
C5 C4 1_555 1_555
H9 C5 1_555 1_555
H10 C5 1_555 1_555
C6 C1 1_555 1_555
H11 C6 1_555 1_555
C7 C6 1_555 1_555
H12 C7 1_555 1_555
C8 C7 1_555 1_555
H13 C8 1_555 1_555
C9 C8 1_555 1_555
H14 C9 1_555 1_555
C10 O3 1_555 1_555
C11 O1 1_555 1_555
H15 C11 1_555 1_555
H16 C11 1_555 1_555
C12 C10 1_555 1_555
C13 C12 1_555 1_555
H17 C13 1_555 1_555
H18 C13 1_555 1_555
H19 C13 1_555 1_555
C14 C9 1_555 1_555
H20 C14 1_555 1_555
H21 C14 1_555 1_555
C15 C14 1_555 1_555
C16 C15 1_555 1_555
C17 C16 1_555 1_555
H22 C17 1_555 1_555
C18 C17 1_555 1_555
H23 C18 1_555 1_555
C19 C18 1_555 1_555
H24 C19 1_555 1_555
C20 C19 1_555 1_555
H25 C20 1_555 1_555
C21 C16 1_555 1_555
H26 C21 1_555 1_555
C5 C6 1_555 1_555
C9 C10 1_555 1_555
C10 C11 1_555 1_555
C20 C21 1_555 1_555

#END
