
#######################################################################
#
#                 Cambridge Crystallographic Data Centre
#                                CCDC 
#
#######################################################################
#
# If this CIF has been generated from an entry in the Cambridge 
# Structural Database, then it will include bibliographic, chemical, 
# crystal, experimental, refinement or atomic coordinate data resulting 
# from the CCDC's data processing and validation procedures.
#
#######################################################################

data_BUDNUL
_chemical_formula_moiety         'C21 H20 N4 O3'
_chemical_name_systematic        
12-(4-Methoxyphenyl)-9,9-dimethyl-8,9,10,12-tetrahydro-11H-chromeno[3,2-e][1,2,4]triazolo[1,5-c]pyrimidin-11-one
_symmetry_cell_setting           orthorhombic
_symmetry_space_group_name_H-M   'P 21 21 21'
_symmetry_Int_Tables_number      19
_space_group_name_Hall           'P 2ac 2ab'
loop_
_symmetry_equiv_pos_site_id
_symmetry_equiv_pos_as_xyz
1 x,y,z
2 1/2-x,-y,1/2+z
3 -x,1/2+y,1/2-z
4 1/2+x,1/2-y,-z
_cell_length_a                   6.898(3)
_cell_length_b                   13.722(6)
_cell_length_c                   19.927(8)
_cell_angle_alpha                90
_cell_angle_beta                 90
_cell_angle_gamma                90
_cell_volume                     1886.18
_cell_formula_units_Z            4
loop_
_atom_site_label
_atom_site_type_symbol
_atom_site_fract_x
_atom_site_fract_y
_atom_site_fract_z
C1 C 0.9246(6) 0.1494(3) 0.1849(2)
O1 O 0.8448(4) 0.39482(19) 0.11103(13)
O2 O 1.0119(4) 0.3569(2) 0.48515(13)
C2 C 1.1207(5) 0.3051(3) 0.20425(17)
H1 H 1.2392 0.2668 0.1979
C3 C 1.1473(5) 0.4030(3) 0.17089(18)
N1 N 1.3084(5) 0.5546(2) 0.15552(16)
C4 C 1.3113(6) 0.4616(3) 0.18232(18)
N2 N 1.0122(5) 0.5354(2) 0.10433(17)
C5 C 1.0853(5) 0.3174(3) 0.27988(19)
C6 C 1.0099(5) 0.4443(3) 0.13098(19)
N3 N 1.4771(5) 0.6031(3) 0.1721(2)
C7 C 0.7455(6) 0.1011(3) 0.1583(2)
H2 H 0.6428 0.1083 0.1912
H3 H 0.7711 0.0320 0.1533
O3 O 1.0389(5) 0.1052(2) 0.22063(16)
C8 C 0.8298(5) 0.2978(3) 0.12920(18)
C9 C 0.9558(5) 0.2532(3) 0.17030(19)
C10 C 1.2061(6) 0.3166(3) 0.39337(19)
H4 H 1.3078 0.3065 0.4232
C11 C 1.2339(5) 0.3021(3) 0.3257(2)
H5 H 1.3546 0.2817 0.3104
C12 C 1.0272(6) 0.3459(3) 0.41682(19)
N4 N 1.4767(5) 0.4474(3) 0.21527(16)
C13 C 0.9074(5) 0.3478(3) 0.30441(19)
H6 H 0.8057 0.3584 0.2747
C14 C 1.1615(7) 0.5891(3) 0.1182(2)
H7 H 1.1670 0.6526 0.1020
C15 C 0.6567(6) 0.2529(3) 0.0975(2)
H8 H 0.6386 0.2809 0.0532
H9 H 0.5431 0.2684 0.1241
C16 C 0.8780(6) 0.3626(3) 0.3723(2)
H10 H 0.7581 0.3838 0.3879
C17 C 0.6736(6) 0.1410(3) 0.0909(2)
C18 C 0.4743(7) 0.0971(4) 0.0746(3)
H11 H 0.4248 0.1261 0.0342
H12 H 0.3866 0.1097 0.1109
H13 H 0.4870 0.0280 0.0684
C19 C 0.8346(7) 0.3935(4) 0.5110(2)
H14 H 0.8133 0.4582 0.4942
H15 H 0.8405 0.3950 0.5591
H16 H 0.7299 0.3520 0.4971
C20 C 1.5690(6) 0.5354(4) 0.2065(2)
H17 H 1.6916 0.5467 0.2243
C21 C 0.8159(7) 0.1144(4) 0.0350(2)
H18 H 0.7741 0.1434 -0.0063
H19 H 0.8201 0.0448 0.0300
H20 H 0.9427 0.1381 0.0463
loop_
_geom_bond_atom_site_label_1
_geom_bond_atom_site_label_2
_geom_bond_site_symmetry_1
_geom_bond_site_symmetry_2
C1 C7 1_555 1_555
O1 C6 1_555 1_555
O2 C12 1_555 1_555
C2 H1 1_555 1_555
C3 C2 1_555 1_555
N1 C4 1_555 1_555
C4 C3 1_555 1_555
N2 C6 1_555 1_555
C5 C2 1_555 1_555
C6 C3 1_555 1_555
N3 N1 1_555 1_555
C7 H2 1_555 1_555
H3 C7 1_555 1_555
O3 C1 1_555 1_555
C8 O1 1_555 1_555
C9 C1 1_555 1_555
C10 H4 1_555 1_555
C11 C5 1_555 1_555
H5 C11 1_555 1_555
C12 C10 1_555 1_555
N4 C4 1_555 1_555
C13 C5 1_555 1_555
H6 C13 1_555 1_555
C14 N1 1_555 1_555
H7 C14 1_555 1_555
C15 C8 1_555 1_555
H8 C15 1_555 1_555
H9 C15 1_555 1_555
C16 C12 1_555 1_555
H10 C16 1_555 1_555
C17 C7 1_555 1_555
C18 C17 1_555 1_555
H11 C18 1_555 1_555
H12 C18 1_555 1_555
H13 C18 1_555 1_555
C19 O2 1_555 1_555
H14 C19 1_555 1_555
H15 C19 1_555 1_555
H16 C19 1_555 1_555
C20 N3 1_555 1_555
H17 C20 1_555 1_555
C21 C17 1_555 1_555
H18 C21 1_555 1_555
H19 C21 1_555 1_555
H20 C21 1_555 1_555
C2 C9 1_555 1_555
N2 C14 1_555 1_555
C8 C9 1_555 1_555
C10 C11 1_555 1_555
N4 C20 1_555 1_555
C13 C16 1_555 1_555
C15 C17 1_555 1_555

#END
