
#######################################################################
#
#                 Cambridge Crystallographic Data Centre
#                                CCDC 
#
#######################################################################
#
# If this CIF has been generated from an entry in the Cambridge 
# Structural Database, then it will include bibliographic, chemical, 
# crystal, experimental, refinement or atomic coordinate data resulting 
# from the CCDC's data processing and validation procedures.
#
#######################################################################

data_BUDNIY
_chemical_formula_moiety         'C14 H11 N3 O3,H2 O1'
_chemical_name_systematic        
"(E)-N'-(1,3-Benzodioxol-5-ylmethylene)nicotinohydrazide monohydrate"
_symmetry_cell_setting           monoclinic
_symmetry_space_group_name_H-M   'P 21/n'
_symmetry_Int_Tables_number      14
_space_group_name_Hall           '-P 2yn'
loop_
_symmetry_equiv_pos_site_id
_symmetry_equiv_pos_as_xyz
1 x,y,z
2 1/2-x,1/2+y,1/2-z
3 -x,-y,-z
4 1/2+x,1/2-y,1/2+z
_cell_length_a                   8.6414(2)
_cell_length_b                   12.0874(2)
_cell_length_c                   13.4464(3)
_cell_angle_alpha                90
_cell_angle_beta                 103.1610(10)
_cell_angle_gamma                90
_cell_volume                     1367.61
_exptl_crystal_colour            colorless
_exptl_crystal_description       block
_cell_formula_units_Z            4
_exptl_crystal_recrystallization_method methanol/water
loop_
_atom_site_label
_atom_site_type_symbol
_atom_site_fract_x
_atom_site_fract_y
_atom_site_fract_z
N1 N 0.25573(14) 0.30595(11) 0.16863(10)
C1 C 0.46242(17) 0.23623(12) 0.09399(11)
O1 O 0.08396(13) 0.45982(9) 0.23857(10)
C2 C -0.09502(16) 0.32960(12) 0.28168(11)
O2 O 0.84690(15) 0.27321(11) -0.03215(11)
N2 N 0.12618(14) 0.27993(10) 0.20830(10)
H1 H 0.0972 0.2122 0.2116
C3 C 0.65230(18) 0.34247(13) 0.03595(12)
N3 N -0.33050(15) 0.39773(11) 0.32710(11)
O3 O 0.73361(16) 0.43293(10) 0.01301(11)
C4 C 0.53331(19) 0.14169(13) 0.06740(13)
H2 H 0.4908 0.0732 0.0781
C5 C 0.32492(19) 0.22390(13) 0.13835(12)
H3 H 0.2860 0.1532 0.1449
C6 C -0.12747(19) 0.22473(13) 0.31162(13)
H4 H -0.0606 0.1659 0.3059
C7 C 0.66608(19) 0.14538(13) 0.02518(13)
H5 H 0.7142 0.0814 0.0084
C8 C -0.35719(19) 0.29587(15) 0.35623(13)
H6 H -0.4466 0.2835 0.3822
C9 C 0.72117(19) 0.24715(14) 0.00991(13)
C10 C 0.04620(17) 0.36199(12) 0.24153(12)
C11 C 0.52308(19) 0.34048(12) 0.07778(12)
H7 H 0.4771 0.4053 0.0948
C12 C -0.26006(19) 0.20836(14) 0.34996(13)
H8 H -0.2834 0.1384 0.3714
C13 C -0.20100(18) 0.41282(13) 0.29066(12)
H9 H -0.1805 0.4837 0.2700
C14 C 0.8597(2) 0.38998(17) -0.02752(16)
H10 H 0.8535 0.4197 -0.0953
H11 H 0.9612 0.4112 0.0157
O4 O -0.59280(17) 0.54330(10) 0.28071(14)
H12 H -0.5119(16) 0.5021(15) 0.2985(18)
H13 H -0.6745(16) 0.5040(15) 0.2633(16)
loop_
_geom_bond_atom_site_label_1
_geom_bond_atom_site_label_2
_geom_bond_site_symmetry_1
_geom_bond_site_symmetry_2
N1 N2 1_555 1_555
C1 C4 1_555 1_555
O1 C10 1_555 1_555
C2 C6 1_555 1_555
O2 C9 1_555 1_555
N2 H1 1_555 1_555
C3 O3 1_555 1_555
N3 C8 1_555 1_555
O3 C14 1_555 1_555
C4 H2 1_555 1_555
C5 N1 1_555 1_555
H3 C5 1_555 1_555
C6 H4 1_555 1_555
C7 C4 1_555 1_555
H5 C7 1_555 1_555
C8 H6 1_555 1_555
C9 C3 1_555 1_555
C10 C2 1_555 1_555
C11 C1 1_555 1_555
H7 C11 1_555 1_555
C12 C6 1_555 1_555
H8 C12 1_555 1_555
C13 C2 1_555 1_555
H9 C13 1_555 1_555
C14 O2 1_555 1_555
H10 C14 1_555 1_555
H11 C14 1_555 1_555
O4 H12 1_555 1_555
H13 O4 1_555 1_555
C1 C5 1_555 1_555
N2 C10 1_555 1_555
C3 C11 1_555 1_555
N3 C13 1_555 1_555
C7 C9 1_555 1_555
C8 C12 1_555 1_555

#END
