
#######################################################################
#
#                 Cambridge Crystallographic Data Centre
#                                CCDC 
#
#######################################################################
#
# If this CIF has been generated from an entry in the Cambridge 
# Structural Database, then it will include bibliographic, chemical, 
# crystal, experimental, refinement or atomic coordinate data resulting 
# from the CCDC's data processing and validation procedures.
#
#######################################################################

data_BUDPEW
_chemical_formula_moiety         'C9 H11 N3 O1'
_chemical_name_systematic        N'-(Propan-2-ylidene)nicotinohydrazide
_symmetry_cell_setting           monoclinic
_symmetry_space_group_name_H-M   'P 21/n'
_symmetry_Int_Tables_number      14
_space_group_name_Hall           '-P 2yn'
loop_
_symmetry_equiv_pos_site_id
_symmetry_equiv_pos_as_xyz
1 x,y,z
2 1/2-x,1/2+y,1/2-z
3 -x,-y,-z
4 1/2+x,1/2-y,1/2+z
_cell_length_a                   7.5439(4)
_cell_length_b                   18.0292(9)
_cell_length_c                   7.6172(4)
_cell_angle_alpha                90
_cell_angle_beta                 115.937(3)
_cell_angle_gamma                90
_cell_volume                     931.667
_exptl_crystal_colour            colorless
_exptl_crystal_description       block
_cell_formula_units_Z            4
_exptl_crystal_recrystallization_method methanol
loop_
_atom_site_label
_atom_site_type_symbol
_atom_site_fract_x
_atom_site_fract_y
_atom_site_fract_z
N1 N 0.6021(2) 0.20018(9) 0.3243(2)
N2 N 0.5607(2) 0.23097(8) 0.1426(2)
H1 H 0.4896 0.2078 0.0361
N3 N 0.5259(3) 0.44511(10) -0.2362(3)
O1 O 0.74766(19) 0.33093(7) 0.29001(19)
C1 C 0.5162(3) 0.07664(11) 0.1687(3)
H2 H 0.3751 0.0725 0.1065
H3 H 0.5731 0.0290 0.2184
H4 H 0.5612 0.0935 0.0755
C2 C 0.5773(2) 0.13080(11) 0.3328(3)
C3 C 0.6197(3) 0.10093(13) 0.5301(3)
H5 H 0.6712 0.1398 0.6252
H6 H 0.7147 0.0617 0.5627
H7 H 0.5003 0.0821 0.5293
C4 C 0.6361(2) 0.29792(10) 0.1407(3)
C5 C 0.5842(2) 0.33173(9) -0.0540(2)
C6 C 0.5646(3) 0.29200(11) -0.2158(3)
H8 H 0.5770 0.2406 -0.2101
C7 C 0.5262(3) 0.32960(13) -0.3867(3)
H9 H 0.5129 0.3040 -0.4978
C8 C 0.5083(3) 0.40459(13) -0.3895(3)
H10 H 0.4821 0.4292 -0.5055
C9 C 0.5659(3) 0.40808(11) -0.0721(3)
H11 H 0.5827 0.4353 0.0377
loop_
_geom_bond_atom_site_label_1
_geom_bond_atom_site_label_2
_geom_bond_site_symmetry_1
_geom_bond_site_symmetry_2
N1 N2 1_555 1_555
N2 H1 1_555 1_555
N3 C8 1_555 1_555
O1 C4 1_555 1_555
C1 H2 1_555 1_555
H3 C1 1_555 1_555
H4 C1 1_555 1_555
C2 N1 1_555 1_555
C3 C2 1_555 1_555
H5 C3 1_555 1_555
H6 C3 1_555 1_555
H7 C3 1_555 1_555
C4 N2 1_555 1_555
C5 C4 1_555 1_555
C6 C5 1_555 1_555
H8 C6 1_555 1_555
C7 C6 1_555 1_555
H9 C7 1_555 1_555
C8 C7 1_555 1_555
H10 C8 1_555 1_555
C9 N3 1_555 1_555
H11 C9 1_555 1_555
C1 C2 1_555 1_555
C5 C9 1_555 1_555

#END
