
#######################################################################
#
#                 Cambridge Crystallographic Data Centre
#                                CCDC 
#
#######################################################################
#
# If this CIF has been generated from an entry in the Cambridge 
# Structural Database, then it will include bibliographic, chemical, 
# crystal, experimental, refinement or atomic coordinate data resulting 
# from the CCDC's data processing and validation procedures.
#
#######################################################################

data_BUDPUM
_chemical_formula_moiety         'C18 H22 N2 O4 S1,2(H2 O1)'
_chemical_name_systematic        
'4-((4-(Diethylamino)-2-hydroxybenzylidene)ammonio)-3-methylbenzenesulfonate dihydrate'
_symmetry_cell_setting           monoclinic
_symmetry_space_group_name_H-M   'C 2/c'
_symmetry_Int_Tables_number      15
_space_group_name_Hall           '-C 2yn'
loop_
_symmetry_equiv_pos_site_id
_symmetry_equiv_pos_as_xyz
1 x,y,z
2 -x,y,1/2-z
3 1/2+x,1/2+y,z
4 1/2-x,1/2+y,1/2-z
5 -x,-y,-z
6 x,-y,1/2+z
7 1/2-x,1/2-y,-z
8 1/2+x,1/2-y,1/2+z
_cell_length_a                   21.690(3)
_cell_length_b                   11.4142(17)
_cell_length_c                   16.639(2)
_cell_angle_alpha                90
_cell_angle_beta                 112.459(2)
_cell_angle_gamma                90
_cell_volume                     3806.94
_exptl_crystal_colour            colorless
_exptl_crystal_description       block
_cell_formula_units_Z            8
_exptl_crystal_recrystallization_method methanol
loop_
_atom_site_label
_atom_site_type_symbol
_atom_site_fract_x
_atom_site_fract_y
_atom_site_fract_z
S1 S 0.18156(3) 0.09473(5) -0.21298(4)
O1 O 0.17722(12) 0.1276(2) -0.29916(14)
O2 O 0.11837(9) 0.1127(2) -0.20400(13)
O3 O 0.20786(13) -0.0203(2) -0.1892(2)
O6 O 0.50747(8) 0.45092(15) 0.15864(11)
H5 H 0.5392 0.4405 0.2047
N1 N 0.39104(9) 0.41470(17) 0.02004(12)
H6 H 0.4154 0.3891 0.0709
N2 N 0.60480(10) 0.83477(18) 0.19161(14)
C1 C 0.24039(11) 0.1925(2) -0.13942(15)
C2 C 0.28796(12) 0.1511(2) -0.06245(15)
H7 H 0.2863 0.0733 -0.0468
C3 C 0.33840(11) 0.2239(2) -0.00783(14)
C4 C 0.33861(11) 0.3409(2) -0.03262(14)
C5 C 0.28903(12) 0.3837(2) -0.10848(16)
H8 H 0.2886 0.4624 -0.1230
C6 C 0.24063(12) 0.3090(2) -0.16183(16)
H9 H 0.2081 0.3371 -0.2129
C7 C 0.39164(13) 0.1746(2) 0.07302(16)
H10 H 0.3837 0.0925 0.0774
H11 H 0.3905 0.2145 0.1232
H12 H 0.4346 0.1853 0.0700
C8 C 0.40592(11) 0.5183(2) -0.00150(15)
H13 H 0.3790 0.5459 -0.0563
C9 C 0.45786(11) 0.59191(19) 0.04893(15)
C10 C 0.50910(11) 0.5615(2) 0.13088(14)
C11 C 0.55669(11) 0.6412(2) 0.17671(15)
H14 H 0.5891 0.6194 0.2299
C12 C 0.55782(11) 0.7562(2) 0.14517(16)
C13 C 0.50789(13) 0.7859(2) 0.06268(17)
H15 H 0.5073 0.8605 0.0400
C14 C 0.46131(13) 0.7060(2) 0.01705(16)
H16 H 0.4303 0.7270 -0.0374
C15 C 0.65369(14) 0.8065(3) 0.27868(18)
H17 H 0.6912 0.8598 0.2929
H18 H 0.6702 0.7277 0.2782
C16 C 0.6252(3) 0.8148(4) 0.3481(2)
H19 H 0.5824 0.7771 0.3282
H20 H 0.6203 0.8957 0.3603
H21 H 0.6547 0.7768 0.4000
C17 C 0.60749(14) 0.9541(2) 0.1600(2)
H22 H 0.5944 0.9516 0.0973
H23 H 0.6532 0.9818 0.1850
C18 C 0.56346(19) 1.0404(3) 0.1815(3)
H24 H 0.5791 1.0499 0.2434
H25 H 0.5185 1.0116 0.1598
H26 H 0.5648 1.1145 0.1549
O4 O 0.18994(19) 0.6795(4) 0.0958(2)
H1 H 0.2252 0.6420 0.1254
H2 H 0.1630 0.6669 0.1209
O5 O 0.276(2) 0.6202(16) 1.001(2)
H3 H 0.3031 0.5664 1.0016
H4 H 0.2582 0.6426 0.9487
loop_
_geom_bond_atom_site_label_1
_geom_bond_atom_site_label_2
_geom_bond_site_symmetry_1
_geom_bond_site_symmetry_2
S1 O1 1_555 1_555
O2 S1 1_555 1_555
O3 S1 1_555 1_555
O4 H1 1_555 1_555
H2 O4 1_555 1_555
O5 H3 1_555 1_555
H4 O5 1_555 1_555
O6 H5 1_555 1_555
N1 H6 1_555 1_555
N2 C12 1_555 1_555
C1 S1 1_555 1_555
C2 C1 1_555 1_555
H7 C2 1_555 1_555
C3 C2 1_555 1_555
C4 N1 1_555 1_555
C5 C4 1_555 1_555
H8 C5 1_555 1_555
C6 C1 1_555 1_555
H9 C6 1_555 1_555
C7 C3 1_555 1_555
H10 C7 1_555 1_555
H11 C7 1_555 1_555
H12 C7 1_555 1_555
C8 N1 1_555 1_555
H13 C8 1_555 1_555
C9 C8 1_555 1_555
C10 O6 1_555 1_555
C11 C10 1_555 1_555
H14 C11 1_555 1_555
C12 C11 1_555 1_555
C13 C12 1_555 1_555
H15 C13 1_555 1_555
C14 C9 1_555 1_555
H16 C14 1_555 1_555
C15 N2 1_555 1_555
H17 C15 1_555 1_555
H18 C15 1_555 1_555
C16 C15 1_555 1_555
H19 C16 1_555 1_555
H20 C16 1_555 1_555
H21 C16 1_555 1_555
C17 N2 1_555 1_555
H22 C17 1_555 1_555
H23 C17 1_555 1_555
C18 C17 1_555 1_555
H24 C18 1_555 1_555
H25 C18 1_555 1_555
H26 C18 1_555 1_555
C3 C4 1_555 1_555
C5 C6 1_555 1_555
C9 C10 1_555 1_555
C13 C14 1_555 1_555

#END
