
#######################################################################
#
#                 Cambridge Crystallographic Data Centre
#                                CCDC 
#
#######################################################################
#
# If this CIF has been generated from an entry in the Cambridge 
# Structural Database, then it will include bibliographic, chemical, 
# crystal, experimental, refinement or atomic coordinate data resulting 
# from the CCDC's data processing and validation procedures.
#
#######################################################################

data_BUDQAT
_chemical_formula_moiety         'C20 H10 F2 N2 O2'
_chemical_name_systematic        
3,3'-Difluoro-4,4'-(p-phenylenedioxy)dibenzonitrile
_symmetry_cell_setting           triclinic
_symmetry_space_group_name_H-M   'P -1'
_symmetry_Int_Tables_number      2
_space_group_name_Hall           '-P 1'
loop_
_symmetry_equiv_pos_site_id
_symmetry_equiv_pos_as_xyz
1 x,y,z
2 -x,-y,-z
_cell_length_a                   6.9800(10)
_cell_length_b                   7.6150(10)
_cell_length_c                   8.2940(10)
_cell_angle_alpha                106.376(3)
_cell_angle_beta                 93.698(3)
_cell_angle_gamma                109.085(3)
_cell_volume                     393.702
_exptl_crystal_colour            colorless
_exptl_crystal_description       prismatic
_cell_formula_units_Z            1
_exptl_crystal_recrystallization_method ethanol
loop_
_atom_site_label
_atom_site_type_symbol
_atom_site_fract_x
_atom_site_fract_y
_atom_site_fract_z
O1 O 0.31400(15) 0.41880(17) 0.64633(14)
N1 N 0.2645(2) 0.0341(2) 1.2835(2)
F1 F 0.21076(16) 0.59370(13) 0.94706(13)
C1 C 0.2380(2) 0.4219(2) 0.9251(2)
C2 C 0.2823(2) 0.3307(2) 0.77070(18)
C3 C 0.3137(2) 0.1573(2) 0.7484(2)
H1 H 0.3429 0.0941 0.6448
C4 C 0.3023(2) 0.0761(2) 0.8780(2)
H2 H 0.3229 -0.0419 0.8619
C5 C 0.2601(2) 0.1714(2) 1.03224(18)
C6 C 0.2256(2) 0.3453(2) 1.05636(19)
H3 H 0.1949 0.4084 1.1592
C7 C 0.2590(2) 0.0934(2) 1.1718(2)
C8 C 0.1518(2) 0.4580(2) 0.57622(16)
C9 C -0.0514(2) 0.3477(2) 0.56761(18)
H4 H -0.0856 0.2450 0.6129
C10 C 0.2042(2) 0.6087(2) 0.50919(18)
H5 H 0.3420 0.6816 0.5152
O1A O -0.31400(15) 0.58120(17) 0.35367(14)
N1A N -0.2645(2) 0.9659(2) -0.2835(2)
F1A F -0.21076(16) 0.40630(13) 0.05294(13)
C1A C -0.2380(2) 0.5781(2) 0.0749(2)
C2A C -0.2823(2) 0.6693(2) 0.22930(18)
C3A C -0.3137(2) 0.8427(2) 0.2516(2)
H1A H -0.3429 0.9059 0.3552
C4A C -0.3023(2) 0.9239(2) 0.1220(2)
H2A H -0.3229 1.0419 0.1381
C5A C -0.2601(2) 0.8286(2) -0.03224(18)
C6A C -0.2256(2) 0.6547(2) -0.05636(19)
H3A H -0.1949 0.5916 -0.1592
C7A C -0.2590(2) 0.9066(2) -0.1718(2)
C8A C -0.1518(2) 0.5420(2) 0.42378(16)
C9A C 0.0514(2) 0.6523(2) 0.43239(18)
H4A H 0.0856 0.7550 0.3871
C10A C -0.2042(2) 0.3913(2) 0.49081(18)
H5A H -0.3420 0.3184 0.4848
loop_
_geom_bond_atom_site_label_1
_geom_bond_atom_site_label_2
_geom_bond_site_symmetry_1
_geom_bond_site_symmetry_2
O1 C2 1_555 1_555
N1 C7 1_555 1_555
F1 C1 1_555 1_555
C1 C2 1_555 1_555
C2 C3 1_555 1_555
C3 H1 1_555 1_555
C4 C3 1_555 1_555
H2 C4 1_555 1_555
C5 C4 1_555 1_555
C6 C1 1_555 1_555
H3 C6 1_555 1_555
C7 C5 1_555 1_555
C8 O1 1_555 1_555
C9 C8 1_555 1_555
H4 C9 1_555 1_555
C10 C8 1_555 1_555
H5 C10 1_555 1_555
O1A C2A 1_555 1_555
N1A C7A 1_555 1_555
F1A C1A 1_555 1_555
C1A C2A 1_555 1_555
C2A C3A 1_555 1_555
C3A H1A 1_555 1_555
C4A C3A 1_555 1_555
H2A C4A 1_555 1_555
C5A C4A 1_555 1_555
C6A C1A 1_555 1_555
H3A C6A 1_555 1_555
C7A C5A 1_555 1_555
C8A O1A 1_555 1_555
C9A C10 1_555 1_555
H4A C9A 1_555 1_555
C10A C9 1_555 1_555
H5A C10A 1_555 1_555
C5 C6 1_555 1_555
C5A C6A 1_555 1_555
C8A C9A 1_555 1_555
C8A C10A 1_555 1_555

#END
