
#######################################################################
#
#                 Cambridge Crystallographic Data Centre
#                                CCDC 
#
#######################################################################
#
# If this CIF has been generated from an entry in the Cambridge 
# Structural Database, then it will include bibliographic, chemical, 
# crystal, experimental, refinement or atomic coordinate data resulting 
# from the CCDC's data processing and validation procedures.
#
#######################################################################

data_BUDVEC
_chemical_formula_moiety         'C10 H11 N3 O2'
_chemical_name_systematic        
1-(But-2-en-1-ylidene)-2-(2-nitrophenyl)hydrazine
_symmetry_cell_setting           triclinic
_symmetry_space_group_name_H-M   'P -1'
_symmetry_Int_Tables_number      2
_space_group_name_Hall           '-P 1'
loop_
_symmetry_equiv_pos_site_id
_symmetry_equiv_pos_as_xyz
1 x,y,z
2 -x,-y,-z
_cell_length_a                   4.2390(6)
_cell_length_b                   11.456(2)
_cell_length_c                   11.9840(17)
_cell_angle_alpha                113.271(15)
_cell_angle_beta                 96.534(12)
_cell_angle_gamma                95.595(13)
_cell_volume                     524.639
_exptl_crystal_colour            red
_exptl_crystal_description       block
_cell_formula_units_Z            2
_exptl_crystal_recrystallization_method methanol
loop_
_atom_site_label
_atom_site_type_symbol
_atom_site_fract_x
_atom_site_fract_y
_atom_site_fract_z
C1 C 1.2639(7) 0.1906(3) -0.4898(3)
H1 H 1.1868 0.2699 -0.4786
H2 H 1.1535 0.1237 -0.5661
H3 H 1.4905 0.2007 -0.4916
C2 C 1.2028(7) 0.1556(3) -0.3856(3)
H4 H 1.2765 0.0820 -0.3851
C3 C 1.0549(7) 0.2191(3) -0.2947(3)
H5 H 0.9757 0.2916 -0.2958
C4 C 1.0060(7) 0.1857(3) -0.1944(3)
H6 H 1.0791 0.1129 -0.1913
C5 C 0.6836(7) 0.2802(3) 0.0774(2)
C6 C 0.6046(6) 0.4007(3) 0.0883(3)
H7 H 0.6489 0.4308 0.0293
C7 C 0.4654(7) 0.4732(3) 0.1834(3)
H8 H 0.4153 0.5520 0.1879
C8 C 0.3955(8) 0.4328(4) 0.2745(3)
H9 H 0.3012 0.4840 0.3394
C9 C 0.4679(7) 0.3169(3) 0.2666(3)
H10 H 0.4228 0.2883 0.3265
C10 C 0.6101(7) 0.2408(3) 0.1686(2)
N1 N 0.8634(6) 0.2541(2) -0.1088(2)
N2 N 0.8205(5) 0.2108(2) -0.01925(19)
H11 H 0.8807 0.1395 -0.0246
N3 N 0.6751(6) 0.1190(3) 0.1671(2)
O1 O 0.5896(6) 0.0865(2) 0.2464(2)
O2 O 0.8241(5) 0.05249(18) 0.08917(18)
loop_
_geom_bond_atom_site_label_1
_geom_bond_atom_site_label_2
_geom_bond_site_symmetry_1
_geom_bond_site_symmetry_2
C1 H1 1_555 1_555
H2 C1 1_555 1_555
H3 C1 1_555 1_555
C2 C1 1_555 1_555
H4 C2 1_555 1_555
C3 C2 1_555 1_555
H5 C3 1_555 1_555
C4 C3 1_555 1_555
H6 C4 1_555 1_555
C5 C6 1_555 1_555
C6 H7 1_555 1_555
C7 C6 1_555 1_555
H8 C7 1_555 1_555
C8 C7 1_555 1_555
H9 C8 1_555 1_555
C9 C8 1_555 1_555
H10 C9 1_555 1_555
C10 C5 1_555 1_555
N1 C4 1_555 1_555
N2 C5 1_555 1_555
H11 N2 1_555 1_555
N3 C10 1_555 1_555
O1 N3 1_555 1_555
O2 N3 1_555 1_555
C9 C10 1_555 1_555
N1 N2 1_555 1_555

#END
