
#######################################################################
#
#                 Cambridge Crystallographic Data Centre
#                                CCDC 
#
#######################################################################
#
# If this CIF has been generated from an entry in the Cambridge 
# Structural Database, then it will include bibliographic, chemical, 
# crystal, experimental, refinement or atomic coordinate data resulting 
# from the CCDC's data processing and validation procedures.
#
#######################################################################

data_BUDXAA
_chemical_formula_moiety         'C10 H26 N4 2+,2(C6 H4 N1 O2 1-),2(H2 O1)'
_chemical_name_systematic        
'4,11-Diaza-1,8-diazoniacyclotetradecane bis(pyridine-2-carboxylate) dihydrate'
_symmetry_cell_setting           monoclinic
_symmetry_space_group_name_H-M   'P 21/c'
_symmetry_Int_Tables_number      14
_space_group_name_Hall           '-P 2ybc'
loop_
_symmetry_equiv_pos_site_id
_symmetry_equiv_pos_as_xyz
1 x,y,z
2 -x,1/2+y,1/2-z
3 -x,-y,-z
4 x,1/2-y,1/2+z
_cell_length_a                   10.2746(8)
_cell_length_b                   12.0551(9)
_cell_length_c                   10.3244(8)
_cell_angle_alpha                90
_cell_angle_beta                 93.104(2)
_cell_angle_gamma                90
_cell_volume                     1276.92
_exptl_crystal_colour            colorless
_exptl_crystal_description       block
_cell_formula_units_Z            2
_exptl_crystal_recrystallization_method acetone
loop_
_atom_site_label
_atom_site_type_symbol
_atom_site_fract_x
_atom_site_fract_y
_atom_site_fract_z
O1 O 0.84295(15) 0.05500(12) 0.30790(13)
O2 O 0.71238(16) 0.00216(13) 0.46269(15)
N1 N 0.67291(18) 0.21986(15) 0.23751(17)
C1 C 0.5839(2) 0.29517(19) 0.1972(2)
H1 H 0.6109 0.3538 0.1434
C2 C 0.4558(2) 0.2926(2) 0.2290(2)
H2 H 0.3960 0.3481 0.1984
C3 C 0.4166(2) 0.2074(2) 0.3066(2)
H3 H 0.3282 0.2017 0.3283
C4 C 0.5066(2) 0.1306(2) 0.3524(2)
H4 H 0.4818 0.0725 0.4082
C5 C 0.6339(2) 0.13915(18) 0.31597(19)
C6 C 0.7385(2) 0.05841(18) 0.3658(2)
N2 N 0.14631(18) 0.09306(16) 0.05713(17)
H5 H 0.1475 0.0811 0.1452
N3 N 0.12754(18) -0.12813(15) -0.05896(17)
H6 H 0.1456 -0.1194 -0.1447
H7 H 0.0565 -0.0845 -0.0438
C7 C 0.0412(3) 0.2719(2) 0.0986(3)
H8 H 0.0561 0.3529 0.0946
H9 H 0.0435 0.2503 0.1912
C8 C 0.1501(2) 0.2132(2) 0.0340(2)
H10 H 0.1424 0.2276 -0.0605
H11 H 0.2349 0.2430 0.0681
C9 C 0.2570(2) 0.0350(2) 0.0057(2)
H12 H 0.3388 0.0598 0.0519
H13 H 0.2625 0.0525 -0.0875
C10 C 0.2406(2) -0.0876(2) 0.0229(2)
H14 H 0.3206 -0.1264 -0.0015
H15 H 0.2270 -0.1042 0.1151
C11 C 0.0922(3) -0.24601(19) -0.0372(3)
H16 H 0.0928 -0.2609 0.0571
H17 H 0.1577 -0.2949 -0.0748
N2B N -0.14631(18) -0.09306(16) -0.05713(17)
H5B H -0.1475 -0.0811 -0.1452
N3B N -0.12754(18) 0.12813(15) 0.05896(17)
H6B H -0.1456 0.1194 0.1447
H7B H -0.0565 0.0845 0.0438
C7B C -0.0412(3) -0.2719(2) -0.0986(3)
H8B H -0.0561 -0.3529 -0.0946
H9B H -0.0435 -0.2503 -0.1912
C8B C -0.1501(2) -0.2132(2) -0.0340(2)
H10B H -0.1424 -0.2276 0.0605
H11B H -0.2349 -0.2430 -0.0681
C9B C -0.2570(2) -0.0350(2) -0.0057(2)
H12B H -0.3388 -0.0598 -0.0519
H13B H -0.2625 -0.0525 0.0875
C10B C -0.2406(2) 0.0876(2) -0.0229(2)
H14B H -0.3206 0.1264 0.0015
H15B H -0.2270 0.1042 -0.1151
C11B C -0.0922(3) 0.24601(19) 0.0372(3)
H16B H -0.0928 0.2609 -0.0571
H17B H -0.1577 0.2949 0.0748
O3 O 0.11622(16) 0.04470(16) 0.33220(14)
H18 H 0.0351 0.0418 0.3385
H19 H 0.1593 0.0314 0.4019
loop_
_geom_bond_atom_site_label_1
_geom_bond_atom_site_label_2
_geom_bond_site_symmetry_1
_geom_bond_site_symmetry_2
O1 C6 1_555 1_555
O2 C6 1_555 1_555
N1 C1 1_555 1_555
C1 H1 1_555 1_555
C2 C1 1_555 1_555
H2 C2 1_555 1_555
C3 C2 1_555 1_555
H3 C3 1_555 1_555
C4 C3 1_555 1_555
H4 C4 1_555 1_555
C5 N1 1_555 1_555
C6 C5 1_555 1_555
N2 H5 1_555 1_555
N3 H6 1_555 1_555
H7 N3 1_555 1_555
C7 H8 1_555 1_555
H9 C7 1_555 1_555
C8 N2 1_555 1_555
H10 C8 1_555 1_555
H11 C8 1_555 1_555
C9 N2 1_555 1_555
H12 C9 1_555 1_555
H13 C9 1_555 1_555
C10 N3 1_555 1_555
H14 C10 1_555 1_555
H15 C10 1_555 1_555
C11 N3 1_555 1_555
H16 C11 1_555 1_555
H17 C11 1_555 1_555
O3 H18 1_555 1_555
H19 O3 1_555 1_555
N2B H5B 1_555 1_555
N3B H6B 1_555 1_555
H7B N3B 1_555 1_555
C7B C11 1_555 1_555
H8B C7B 1_555 1_555
H9B C7B 1_555 1_555
C8B N2B 1_555 1_555
H10B C8B 1_555 1_555
H11B C8B 1_555 1_555
C9B N2B 1_555 1_555
H12B C9B 1_555 1_555
H13B C9B 1_555 1_555
C10B N3B 1_555 1_555
H14B C10B 1_555 1_555
H15B C10B 1_555 1_555
C11B C7 1_555 1_555
H16B C11B 1_555 1_555
H17B C11B 1_555 1_555
C4 C5 1_555 1_555
C7 C8 1_555 1_555
C9 C10 1_555 1_555
N3B C11B 1_555 1_555
C7B C8B 1_555 1_555
C9B C10B 1_555 1_555

#END
