
#######################################################################
#
#                 Cambridge Crystallographic Data Centre
#                                CCDC 
#
#######################################################################
#
# If this CIF has been generated from an entry in the Cambridge 
# Structural Database, then it will include bibliographic, chemical, 
# crystal, experimental, refinement or atomic coordinate data resulting 
# from the CCDC's data processing and validation procedures.
#
#######################################################################

data_BUDYIJ
_chemical_formula_moiety         'C10 H12 N2 O3,H2 O1'
_chemical_name_systematic        
"N'-(4-Hydroxy-3-methoxybenzylidene)acetohydrazide monohydrate"
_symmetry_cell_setting           orthorhombic
_symmetry_space_group_name_H-M   'P b c a'
_symmetry_Int_Tables_number      61
_space_group_name_Hall           '-P 2ac 2ab'
loop_
_symmetry_equiv_pos_site_id
_symmetry_equiv_pos_as_xyz
1 x,y,z
2 1/2-x,-y,1/2+z
3 1/2+x,1/2-y,-z
4 -x,1/2+y,1/2-z
5 -x,-y,-z
6 1/2+x,y,1/2-z
7 1/2-x,1/2+y,z
8 x,1/2-y,1/2+z
_cell_length_a                   7.892(2)
_cell_length_b                   16.374(5)
_cell_length_c                   18.334(6)
_cell_angle_alpha                90
_cell_angle_beta                 90
_cell_angle_gamma                90
_cell_volume                     2369.19
_exptl_crystal_colour            colorless
_exptl_crystal_description       block
_chemical_melting_point          '492-494 K'
_cell_formula_units_Z            8
_exptl_crystal_recrystallization_method ethanol
loop_
_atom_site_label
_atom_site_type_symbol
_atom_site_fract_x
_atom_site_fract_y
_atom_site_fract_z
O1 O 0.44998(15) 0.16677(8) 0.62044(7)
O2 O 0.58987(17) 0.08238(8) 0.51886(7)
H1 H 0.661(3) 0.0446(14) 0.4961(12)
N1 N 1.03345(18) 0.42155(9) 0.73839(8)
H2 H 1.131(2) 0.4257(11) 0.7207(10)
O3 O 0.85188(16) 0.45567(8) 0.82838(7)
N2 N 0.92032(17) 0.36650(8) 0.70786(7)
C1 C 0.8701(2) 0.26735(10) 0.61434(9)
C2 C 0.6871(2) 0.14216(10) 0.54766(9)
C3 C 0.7033(2) 0.25087(10) 0.63651(9)
H3 H 0.6540 0.2817 0.6735
C4 C 0.6124(2) 0.18899(10) 0.60350(9)
C5 C 0.9926(2) 0.46154(11) 0.79905(10)
C6 C 0.9721(2) 0.32982(10) 0.65066(9)
H4 H 1.0776 0.3432 0.6315
C7 C 0.8503(2) 0.15935(11) 0.52546(9)
H5 H 0.8992 0.1293 0.4879
C8 C 0.9417(2) 0.22132(10) 0.55890(9)
H6 H 1.0521 0.2321 0.5440
C9 C 1.1285(3) 0.51521(13) 0.83054(11)
H7 H 1.2178 0.5219 0.7955
H8 H 1.1732 0.4904 0.8739
H9 H 1.0815 0.5676 0.8423
C10 C 0.3699(3) 0.20816(14) 0.67877(12)
H10 H 0.2576 0.1868 0.6854
H11 H 0.3636 0.2654 0.6679
H12 H 0.4342 0.2003 0.7227
O4 O 0.75904(19) -0.03511(8) 0.45548(8)
H13 H 0.791(3) -0.0175(14) 0.4128(12)
H14 H 0.676(3) -0.0698(15) 0.4498(13)
loop_
_geom_bond_atom_site_label_1
_geom_bond_atom_site_label_2
_geom_bond_site_symmetry_1
_geom_bond_site_symmetry_2
O1 C4 1_555 1_555
O2 H1 1_555 1_555
N1 H2 1_555 1_555
O3 C5 1_555 1_555
N2 N1 1_555 1_555
C1 C3 1_555 1_555
C2 O2 1_555 1_555
C3 H3 1_555 1_555
C4 C2 1_555 1_555
C5 N1 1_555 1_555
C6 N2 1_555 1_555
H4 C6 1_555 1_555
C7 C2 1_555 1_555
H5 C7 1_555 1_555
C8 C1 1_555 1_555
H6 C8 1_555 1_555
C9 C5 1_555 1_555
H7 C9 1_555 1_555
H8 C9 1_555 1_555
H9 C9 1_555 1_555
C10 O1 1_555 1_555
H10 C10 1_555 1_555
H11 C10 1_555 1_555
H12 C10 1_555 1_555
O4 H13 1_555 1_555
H14 O4 1_555 1_555
C1 C6 1_555 1_555
C3 C4 1_555 1_555
C7 C8 1_555 1_555

#END
