
#######################################################################
#
#                 Cambridge Crystallographic Data Centre
#                                CCDC 
#
#######################################################################
#
# If this CIF has been generated from an entry in the Cambridge 
# Structural Database, then it will include bibliographic, chemical, 
# crystal, experimental, refinement or atomic coordinate data resulting 
# from the CCDC's data processing and validation procedures.
#
#######################################################################

data_BUDYEG
_chemical_formula_moiety         'C20 H26 O5'
_chemical_name_systematic        
11'-hydroxy-8,8-dimethyl-10'-methylene-3',6-dioxaspiro[bicyclo[3.2.1]octane-2,5'-tricyclo[7.2.1.0^1,6^]dodecane]-2',3-dione
_symmetry_cell_setting           orthorhombic
_symmetry_space_group_name_H-M   'P 21 21 21'
_symmetry_Int_Tables_number      19
_space_group_name_Hall           'P 2ac 2ab'
loop_
_symmetry_equiv_pos_site_id
_symmetry_equiv_pos_as_xyz
1 x,y,z
2 1/2+x,1/2-y,-z
3 -x,1/2+y,1/2-z
4 1/2-x,-y,1/2+z
_cell_length_a                   10.9250(4)
_cell_length_b                   11.6275(4)
_cell_length_c                   14.0233(5)
_cell_angle_alpha                90
_cell_angle_beta                 90
_cell_angle_gamma                90
_cell_volume                     1781.39
_exptl_crystal_colour            colorless
_exptl_crystal_description       prism
_cell_formula_units_Z            4
loop_
_atom_site_label
_atom_site_type_symbol
_atom_site_fract_x
_atom_site_fract_y
_atom_site_fract_z
O1 O 1.06804(14) 0.30900(14) 0.25772(10)
O2 O 0.74480(15) 0.19635(11) 0.31168(13)
O3 O 0.75801(11) 0.71067(10) 0.35470(9)
H1 H 0.8070 0.7383 0.3146
O4 O 0.75457(12) 0.46995(11) 0.12334(9)
O5 O 0.72442(12) 0.65595(11) 0.12030(9)
C1 C 0.94033(15) 0.47805(17) 0.46082(13)
H2 H 0.8693 0.4277 0.4695
H3 H 0.9134 0.5584 0.4603
H4 H 0.9982 0.4662 0.5133
C2 C 1.00265(14) 0.44982(15) 0.36647(12)
C3 C 0.92423(15) 0.45755(14) 0.27462(12)
H5 H 0.9098 0.5397 0.2569
C4 C 0.80052(15) 0.39145(14) 0.28081(12)
C5 C 0.70055(14) 0.46634(13) 0.33108(12)
H6 H 0.7416 0.5083 0.3844
C6 C 0.64973(14) 0.55962(14) 0.25997(12)
C7 C 0.64837(15) 0.67907(14) 0.30851(13)
H7 H 0.6286 0.7385 0.2593
C8 C 0.54203(15) 0.67012(14) 0.37686(14)
C9 C 0.5257(2) 0.73662(18) 0.45127(15)
H8 H 0.5832 0.7956 0.4653
H9 H 0.4564 0.7259 0.4912
C10 C 1.03964(17) 0.32419(18) 0.35768(13)
H10 H 1.1125 0.3070 0.3984
C11 C 0.81913(17) 0.27128(15) 0.32580(14)
C12 C 0.9334(2) 0.24499(16) 0.38221(16)
H11 H 0.9581 0.1644 0.3699
H12 H 0.9149 0.2521 0.4511
C13 C 0.50957(15) 0.54438(16) 0.24430(14)
H13 H 0.4772 0.5999 0.1970
H14 H 0.4888 0.4651 0.2242
C14 C 0.46317(15) 0.57043(16) 0.34517(14)
H15 H 0.3745 0.5919 0.3446
C15 C 0.48651(16) 0.46509(17) 0.40930(16)
H16 H 0.5013 0.4913 0.4755
H17 H 0.4127 0.4157 0.4096
C16 C 0.59701(15) 0.39404(15) 0.37522(15)
H18 H 0.5686 0.3374 0.3274
H19 H 0.6303 0.3506 0.4301
C17 C 0.71284(15) 0.56802(15) 0.16391(12)
C18 C 0.74755(19) 0.36736(15) 0.18054(14)
H20 H 0.7945 0.3048 0.1496
H21 H 0.6612 0.3424 0.1861
C19 C 1.01150(18) 0.4010(2) 0.20397(14)
H22 H 0.9664 0.3703 0.1483
H23 H 1.0737 0.4566 0.1813
C20 C 1.11548(17) 0.5285(2) 0.35872(15)
H24 H 1.1655 0.5207 0.4164
H25 H 1.0888 0.6085 0.3519
H26 H 1.1640 0.5063 0.3029
loop_
_geom_bond_atom_site_label_1
_geom_bond_atom_site_label_2
_geom_bond_site_symmetry_1
_geom_bond_site_symmetry_2
O1 C10 1_555 1_555
O2 C11 1_555 1_555
O3 H1 1_555 1_555
O4 C17 1_555 1_555
O5 C17 1_555 1_555
C1 H2 1_555 1_555
H3 C1 1_555 1_555
H4 C1 1_555 1_555
C2 C1 1_555 1_555
C3 C2 1_555 1_555
H5 C3 1_555 1_555
C4 C3 1_555 1_555
C5 C4 1_555 1_555
H6 C5 1_555 1_555
C6 C5 1_555 1_555
C7 O3 1_555 1_555
H7 C7 1_555 1_555
C8 C7 1_555 1_555
C9 C8 1_555 1_555
H8 C9 1_555 1_555
H9 C9 1_555 1_555
C10 C2 1_555 1_555
H10 C10 1_555 1_555
C11 C4 1_555 1_555
C12 C10 1_555 1_555
H11 C12 1_555 1_555
H12 C12 1_555 1_555
C13 C6 1_555 1_555
H13 C13 1_555 1_555
H14 C13 1_555 1_555
C14 C8 1_555 1_555
H15 C14 1_555 1_555
C15 C14 1_555 1_555
H16 C15 1_555 1_555
H17 C15 1_555 1_555
C16 C5 1_555 1_555
H18 C16 1_555 1_555
H19 C16 1_555 1_555
C17 C6 1_555 1_555
C18 O4 1_555 1_555
H20 C18 1_555 1_555
H21 C18 1_555 1_555
C19 O1 1_555 1_555
H22 C19 1_555 1_555
H23 C19 1_555 1_555
C20 C2 1_555 1_555
H24 C20 1_555 1_555
H25 C20 1_555 1_555
H26 C20 1_555 1_555
C3 C19 1_555 1_555
C4 C18 1_555 1_555
C6 C7 1_555 1_555
C11 C12 1_555 1_555
C13 C14 1_555 1_555
C15 C16 1_555 1_555

#END
