
#######################################################################
#
#                 Cambridge Crystallographic Data Centre
#                                CCDC 
#
#######################################################################
#
# If this CIF has been generated from an entry in the Cambridge 
# Structural Database, then it will include bibliographic, chemical, 
# crystal, experimental, refinement or atomic coordinate data resulting 
# from the CCDC's data processing and validation procedures.
#
#######################################################################

data_BUFFEO
_chemical_formula_moiety         'C14 H11 N3 O3,C1 H4 O1'
_chemical_name_systematic        
'(E)-2-(Isonicotinoylhydrazonomethyl)benzoic acid methanol solvate'
_symmetry_cell_setting           monoclinic
_symmetry_space_group_name_H-M   'P 21/n'
_symmetry_Int_Tables_number      14
_space_group_name_Hall           '-P 2yn'
loop_
_symmetry_equiv_pos_site_id
_symmetry_equiv_pos_as_xyz
1 x,y,z
2 1/2-x,1/2+y,1/2-z
3 -x,-y,-z
4 1/2+x,1/2-y,1/2+z
_cell_length_a                   6.9768(11)
_cell_length_b                   12.2103(13)
_cell_length_c                   17.2650(19)
_cell_angle_alpha                90
_cell_angle_beta                 95.4970(10)
_cell_angle_gamma                90
_cell_volume                     1464.02
_exptl_crystal_colour            yellow
_exptl_crystal_description       block
_cell_formula_units_Z            4
_exptl_crystal_recrystallization_method methanol
loop_
_atom_site_label
_atom_site_type_symbol
_atom_site_fract_x
_atom_site_fract_y
_atom_site_fract_z
N1 N 0.2762(4) 0.52906(18) 0.52873(12)
H1 H 0.3076 0.5854 0.5570
N2 N 0.2993(4) 0.42528(18) 0.55868(14)
N3 N 0.1111(4) 0.8638(2) 0.36585(14)
O1 O 0.1643(3) 0.46359(16) 0.41058(12)
O2 O 0.5588(3) 0.46550(16) 0.77984(11)
H2 H 0.5752 0.5125 0.8137
O3 O 0.4040(4) 0.38081(18) 0.86917(13)
C1 C 0.2034(5) 0.5407(2) 0.45415(17)
C2 C 0.1221(5) 0.8462(3) 0.44169(18)
H3 H 0.1103 0.9057 0.4745
C3 C 0.1501(5) 0.7440(2) 0.47459(17)
H4 H 0.1551 0.7347 0.5282
C4 C 0.1704(4) 0.6558(2) 0.42630(15)
C5 C 0.1561(5) 0.6736(2) 0.34726(16)
H5 H 0.1660 0.6155 0.3131
C6 C 0.1271(5) 0.7785(3) 0.31942(18)
H6 H 0.1183 0.7900 0.2659
C7 C 0.3532(4) 0.4180(2) 0.63048(16)
H7 H 0.3768 0.4809 0.6602
C8 C 0.3783(4) 0.3093(2) 0.66650(17)
C9 C 0.4202(5) 0.2943(2) 0.74724(17)
C10 C 0.4338(5) 0.1888(2) 0.77718(19)
H8 H 0.4572 0.1786 0.8306
C11 C 0.4133(5) 0.0993(3) 0.7289(2)
H9 H 0.4255 0.0290 0.7496
C12 C 0.3750(5) 0.1135(3) 0.6503(2)
H10 H 0.3624 0.0530 0.6175
C13 C 0.3551(5) 0.2177(2) 0.61980(18)
H11 H 0.3254 0.2264 0.5665
C14 C 0.4585(5) 0.3846(3) 0.80510(18)
O4 O 0.4701(4) 0.3132(2) 0.38940(15)
H12 H 0.3697 0.3467 0.3775
C15 C 0.4316(6) 0.2034(3) 0.3937(2)
H13 H 0.4264 0.1828 0.4471
H14 H 0.5314 0.1626 0.3720
H15 H 0.3101 0.1879 0.3648
loop_
_geom_bond_atom_site_label_1
_geom_bond_atom_site_label_2
_geom_bond_site_symmetry_1
_geom_bond_site_symmetry_2
N1 H1 1_555 1_555
N2 N1 1_555 1_555
N3 C2 1_555 1_555
O1 C1 1_555 1_555
O2 H2 1_555 1_555
O3 C14 1_555 1_555
C1 N1 1_555 1_555
C2 H3 1_555 1_555
C3 C2 1_555 1_555
H4 C3 1_555 1_555
C4 C1 1_555 1_555
C5 C4 1_555 1_555
H5 C5 1_555 1_555
C6 N3 1_555 1_555
H6 C6 1_555 1_555
C7 N2 1_555 1_555
H7 C7 1_555 1_555
C8 C7 1_555 1_555
C9 C8 1_555 1_555
C10 C9 1_555 1_555
H8 C10 1_555 1_555
C11 C10 1_555 1_555
H9 C11 1_555 1_555
C12 C11 1_555 1_555
H10 C12 1_555 1_555
C13 C8 1_555 1_555
H11 C13 1_555 1_555
C14 O2 1_555 1_555
O4 H12 1_555 1_555
C15 O4 1_555 1_555
H13 C15 1_555 1_555
H14 C15 1_555 1_555
H15 C15 1_555 1_555
C3 C4 1_555 1_555
C5 C6 1_555 1_555
C9 C14 1_555 1_555
C12 C13 1_555 1_555

#END
