
#######################################################################
#
#                 Cambridge Crystallographic Data Centre
#                                CCDC 
#
#######################################################################
#
# If this CIF has been generated from an entry in the Cambridge 
# Structural Database, then it will include bibliographic, chemical, 
# crystal, experimental, refinement or atomic coordinate data resulting 
# from the CCDC's data processing and validation procedures.
#
#######################################################################

data_BUFHUG
_chemical_formula_moiety         'C13 H12 N2 O2 S1'
_chemical_name_systematic        3-Ethoxy-2-(1,3-thiazol-2-yl)isoindolin-1-one
_symmetry_cell_setting           monoclinic
_symmetry_space_group_name_H-M   'P 21/n'
_symmetry_Int_Tables_number      14
_space_group_name_Hall           '-P 2yn'
loop_
_symmetry_equiv_pos_site_id
_symmetry_equiv_pos_as_xyz
1 x,y,z
2 1/2-x,1/2+y,1/2-z
3 -x,-y,-z
4 1/2+x,1/2-y,1/2+z
_cell_length_a                   8.0933(11)
_cell_length_b                   9.1406(14)
_cell_length_c                   17.2077(19)
_cell_angle_alpha                90
_cell_angle_beta                 98.7200(10)
_cell_angle_gamma                90
_cell_volume                     1258.27
_exptl_crystal_colour            colorless
_exptl_crystal_description       block
_cell_formula_units_Z            4
_exptl_crystal_recrystallization_method dichloromethane/petroleum
loop_
_atom_site_label
_atom_site_type_symbol
_atom_site_fract_x
_atom_site_fract_y
_atom_site_fract_z
S1 S 0.40181(10) 0.62694(9) 0.23706(4)
N1 N 0.5832(2) 0.5184(2) 0.14152(12)
N2 N 0.3056(2) 0.4365(2) 0.11652(11)
O1 O 0.0910(2) 0.5044(2) 0.18270(11)
O2 O 0.44903(19) 0.23876(18) 0.06204(9)
C1 C 0.4324(3) 0.5174(3) 0.15857(14)
C2 C 0.6825(3) 0.6082(3) 0.19276(15)
H1 H 0.7953 0.6217 0.1899
C3 C 0.6079(4) 0.6747(4) 0.24650(17)
H2 H 0.6608 0.7387 0.2843
C4 C 0.1397(3) 0.4400(3) 0.12897(15)
C5 C 0.0457(3) 0.3538(3) 0.06545(14)
C6 C 0.1552(3) 0.3004(3) 0.01772(14)
C7 C 0.3314(3) 0.3506(3) 0.04657(13)
H3 H 0.3668 0.4169 0.0075
C8 C -0.1242(3) 0.3255(3) 0.04990(16)
H4 H -0.1971 0.3625 0.0819
C9 C -0.1811(3) 0.2406(3) -0.01463(18)
H5 H -0.2947 0.2200 -0.0265
C10 C -0.0725(4) 0.1850(3) -0.06238(18)
H6 H -0.1140 0.1277 -0.1056
C11 C 0.0976(3) 0.2142(3) -0.04631(16)
H7 H 0.1708 0.1764 -0.0780
C12 C 0.4196(4) 0.1366(3) 0.12151(17)
H8 H 0.3049 0.1023 0.1115
H9 H 0.4381 0.1833 0.1727
C13 C 0.5357(4) 0.0121(3) 0.12016(18)
H10 H 0.5135 -0.0360 0.0701
H11 H 0.5203 -0.0559 0.1610
H12 H 0.6488 0.0473 0.1286
loop_
_geom_bond_atom_site_label_1
_geom_bond_atom_site_label_2
_geom_bond_site_symmetry_1
_geom_bond_site_symmetry_2
S1 C1 1_555 1_555
N1 C1 1_555 1_555
N2 C1 1_555 1_555
O1 C4 1_555 1_555
O2 C7 1_555 1_555
C2 N1 1_555 1_555
H1 C2 1_555 1_555
C3 S1 1_555 1_555
H2 C3 1_555 1_555
C4 N2 1_555 1_555
C5 C4 1_555 1_555
C6 C5 1_555 1_555
C7 N2 1_555 1_555
H3 C7 1_555 1_555
C8 C5 1_555 1_555
H4 C8 1_555 1_555
C9 C8 1_555 1_555
H5 C9 1_555 1_555
C10 C9 1_555 1_555
H6 C10 1_555 1_555
C11 C6 1_555 1_555
H7 C11 1_555 1_555
C12 O2 1_555 1_555
H8 C12 1_555 1_555
H9 C12 1_555 1_555
C13 C12 1_555 1_555
H10 C13 1_555 1_555
H11 C13 1_555 1_555
H12 C13 1_555 1_555
C2 C3 1_555 1_555
C6 C7 1_555 1_555
C10 C11 1_555 1_555

#END
