
#######################################################################
#
#                 Cambridge Crystallographic Data Centre
#                                CCDC 
#
#######################################################################
#
# If this CIF has been generated from an entry in the Cambridge 
# Structural Database, then it will include bibliographic, chemical, 
# crystal, experimental, refinement or atomic coordinate data resulting 
# from the CCDC's data processing and validation procedures.
#
#######################################################################

data_BUFJIW
_chemical_formula_moiety         'C29 H29 Cl1 N2 O7'
_chemical_name_systematic        
3-(6-(Benzyloxy)-2,2-dimethyltetrahydrofuro[2,3-d][1,3]dioxol-5-yl)-5-(4-chlorophenyl)-4-nitro-2-phenyl-1,2-oxazolidine
_symmetry_cell_setting           orthorhombic
_symmetry_space_group_name_H-M   'P 21 21 21'
_symmetry_Int_Tables_number      19
_space_group_name_Hall           'P 2ac 2ab'
loop_
_symmetry_equiv_pos_site_id
_symmetry_equiv_pos_as_xyz
1 x,y,z
2 1/2-x,-y,1/2+z
3 1/2+x,1/2-y,-z
4 -x,1/2+y,1/2-z
_cell_length_a                   12.7862(5)
_cell_length_b                   13.0160(5)
_cell_length_c                   16.8232(6)
_cell_angle_alpha                90
_cell_angle_beta                 90
_cell_angle_gamma                90
_cell_volume                     2799.8
_exptl_crystal_colour            colorless
_exptl_crystal_description       needle
_cell_formula_units_Z            4
_exptl_crystal_recrystallization_method ethanol
loop_
_atom_site_label
_atom_site_type_symbol
_atom_site_fract_x
_atom_site_fract_y
_atom_site_fract_z
C1 C 0.33984(19) 0.6866(2) 0.65294(16)
H1 H 0.3415 0.6459 0.6983
C2 C 0.2814(2) 0.7761(2) 0.65257(18)
H2 H 0.2457 0.7964 0.6981
C3 C 0.2765(2) 0.8340(2) 0.5857(2)
C4 C 0.3326(2) 0.8082(2) 0.5200(2)
H3 H 0.3301 0.8493 0.4749
C5 C 0.3933(2) 0.7205(2) 0.52082(18)
H4 H 0.4332 0.7039 0.4764
C6 C 0.39575(17) 0.65738(18) 0.58632(15)
C7 C 0.45334(17) 0.55719(17) 0.58177(14)
H5 H 0.5181 0.5658 0.5513
C8 C 0.38927(17) 0.46762(17) 0.54776(13)
H6 H 0.3143 0.4808 0.5544
C9 C 0.42248(17) 0.37460(18) 0.59803(14)
H7 H 0.4536 0.3214 0.5643
C10 C 0.33056(15) 0.33112(18) 0.64465(14)
H8 H 0.3092 0.3802 0.6857
C11 C 0.34793(16) 0.22621(18) 0.68184(14)
H9 H 0.3831 0.2310 0.7335
C12 C 0.23650(18) 0.18767(19) 0.68975(14)
H10 H 0.2314 0.1126 0.6886
C13 C 0.17952(16) 0.23875(19) 0.62140(14)
H11 H 0.1606 0.1884 0.5805
C14 C 0.08681(19) 0.2635(2) 0.73843(15)
C15 C 0.0626(3) 0.3618(3) 0.7812(2)
H12 H 0.1132 0.4131 0.7668
H13 H 0.0653 0.3503 0.8375
H14 H -0.0060 0.3849 0.7666
C16 C 0.0104(2) 0.1788(3) 0.7552(2)
H15 H -0.0575 0.1981 0.7359
H16 H 0.0069 0.1669 0.8114
H17 H 0.0328 0.1171 0.7289
C17 C 0.4468(2) 0.0741(2) 0.66159(16)
H18 H 0.3903 0.0319 0.6819
H19 H 0.4917 0.0925 0.7058
C18 C 0.50869(17) 0.01390(19) 0.60141(15)
C19 C 0.5602(2) -0.0733(2) 0.62669(19)
H20 H 0.5570 -0.0928 0.6798
C20 C 0.6160(2) -0.1312(3) 0.5736(2)
H21 H 0.6507 -0.1899 0.5910
C21 C 0.6215(2) -0.1038(3) 0.4954(2)
H22 H 0.6591 -0.1439 0.4597
C22 C 0.5717(2) -0.0176(2) 0.46998(17)
H23 H 0.5757 0.0018 0.4169
C23 C 0.5151(2) 0.0412(2) 0.52292(16)
H24 H 0.4809 0.1000 0.5052
C24 C 0.60915(17) 0.3964(2) 0.63870(14)
C25 C 0.63995(19) 0.2974(2) 0.62056(17)
H25 H 0.5905 0.2457 0.6140
C26 C 0.7453(2) 0.2761(3) 0.61224(17)
H26 H 0.7663 0.2100 0.5988
C27 C 0.8194(2) 0.3512(3) 0.62345(18)
H27 H 0.8901 0.3359 0.6187
C28 C 0.7876(2) 0.4485(3) 0.64162(19)
H28 H 0.8373 0.4999 0.6485
C29 C 0.68311(17) 0.4720(2) 0.64995(16)
H29 H 0.6626 0.5384 0.6631
N1 N 0.50029(14) 0.41439(15) 0.65469(12)
N2 N 0.4148(2) 0.45251(17) 0.46170(13)
O1 O 0.47679(12) 0.52172(12) 0.66073(9)
O2 O 0.4993(2) 0.4215(2) 0.44423(13)
O3 O 0.3483(2) 0.4733(2) 0.41370(13)
O4 O 0.24623(11) 0.31531(12) 0.59000(9)
O5 O 0.19043(12) 0.23172(14) 0.75864(9)
O6 O 0.08979(12) 0.28308(14) 0.65527(10)
O7 O 0.40491(11) 0.16447(12) 0.62710(9)
Cl1 Cl 0.19572(8) 0.94167(6) 0.58228(7)
loop_
_geom_bond_atom_site_label_1
_geom_bond_atom_site_label_2
_geom_bond_site_symmetry_1
_geom_bond_site_symmetry_2
C1 H1 1_555 1_555
C2 C1 1_555 1_555
H2 C2 1_555 1_555
C3 C2 1_555 1_555
C4 C3 1_555 1_555
H3 C4 1_555 1_555
C5 C4 1_555 1_555
H4 C5 1_555 1_555
C6 C1 1_555 1_555
C7 C6 1_555 1_555
H5 C7 1_555 1_555
C8 C7 1_555 1_555
H6 C8 1_555 1_555
C9 C8 1_555 1_555
H7 C9 1_555 1_555
C10 C9 1_555 1_555
H8 C10 1_555 1_555
C11 C10 1_555 1_555
H9 C11 1_555 1_555
C12 C11 1_555 1_555
H10 C12 1_555 1_555
C13 C12 1_555 1_555
H11 C13 1_555 1_555
C14 C15 1_555 1_555
C15 H12 1_555 1_555
H13 C15 1_555 1_555
H14 C15 1_555 1_555
C16 C14 1_555 1_555
H15 C16 1_555 1_555
H16 C16 1_555 1_555
H17 C16 1_555 1_555
C17 H18 1_555 1_555
H19 C17 1_555 1_555
C18 C17 1_555 1_555
C19 C18 1_555 1_555
H20 C19 1_555 1_555
C20 C19 1_555 1_555
H21 C20 1_555 1_555
C21 C20 1_555 1_555
H22 C21 1_555 1_555
C22 C21 1_555 1_555
H23 C22 1_555 1_555
C23 C18 1_555 1_555
H24 C23 1_555 1_555
C24 C25 1_555 1_555
C25 H25 1_555 1_555
C26 C25 1_555 1_555
H26 C26 1_555 1_555
C27 C26 1_555 1_555
H27 C27 1_555 1_555
C28 C27 1_555 1_555
H28 C28 1_555 1_555
C29 C24 1_555 1_555
H29 C29 1_555 1_555
N1 C9 1_555 1_555
N2 C8 1_555 1_555
O1 C7 1_555 1_555
O2 N2 1_555 1_555
O3 N2 1_555 1_555
O4 C10 1_555 1_555
O5 C12 1_555 1_555
O6 C13 1_555 1_555
O7 C11 1_555 1_555
Cl1 C3 1_555 1_555
C5 C6 1_555 1_555
C13 O4 1_555 1_555
C14 O5 1_555 1_555
C14 O6 1_555 1_555
C17 O7 1_555 1_555
C22 C23 1_555 1_555
C24 N1 1_555 1_555
C28 C29 1_555 1_555
N1 O1 1_555 1_555

#END
