
#######################################################################
#
#                 Cambridge Crystallographic Data Centre
#                                CCDC 
#
#######################################################################
#
# If this CIF has been generated from an entry in the Cambridge 
# Structural Database, then it will include bibliographic, chemical, 
# crystal, experimental, refinement or atomic coordinate data resulting 
# from the CCDC's data processing and validation procedures.
#
#######################################################################

data_BUFMIA
_chemical_formula_moiety         'C21 H29 Cl1 O5'
_chemical_name_systematic        
2-chloro-6-(3-hydroxy-5-(1-methoxy-1-(4-methyl-2-furyl)propan-2-yl)-2-methyltetrahydrofuran-2-yl)-3-methylcyclohex-2-en-1-one
_symmetry_cell_setting           monoclinic
_symmetry_space_group_name_H-M   'P 21'
_symmetry_Int_Tables_number      4
_space_group_name_Hall           'P 2yb'
loop_
_symmetry_equiv_pos_site_id
_symmetry_equiv_pos_as_xyz
1 x,y,z
2 -x,1/2+y,-z
_cell_length_a                   6.89517(13)
_cell_length_b                   11.9687(2)
_cell_length_c                   12.8821(3)
_cell_angle_alpha                90
_cell_angle_beta                 103.991(2)
_cell_angle_gamma                90
_cell_volume                     1031.57
_exptl_crystal_colour            colorless
_exptl_crystal_description       monoclinic
_cell_formula_units_Z            2
loop_
_atom_site_label
_atom_site_type_symbol
_atom_site_fract_x
_atom_site_fract_y
_atom_site_fract_z
Cl1 Cl -0.26034(5) -0.24638(3) -0.87424(3)
O1 O -0.37484(16) -0.44669(9) -0.99858(9)
O2 O -0.0133(2) -0.50167(11) -0.37669(10)
O3 O -0.29018(19) -0.40892(10) -0.56896(10)
C1 C -0.0984(2) -0.35502(12) -0.88773(12)
O4 O -0.29420(16) -0.79337(10) -0.94925(10)
H1 H -0.4053 -0.8221 -0.9665
C2 C -0.1984(2) -0.44989(12) -0.95244(11)
O5 O -0.09478(15) -0.57119(9) -0.77172(8)
C3 C -0.0713(2) -0.55327(12) -0.95600(11)
H2 H -0.1233 -0.5901 -1.0251
C4 C -0.3053(2) -0.69260(12) -0.89334(12)
H3 H -0.4046 -0.6428 -0.9376
C5 C 0.0968(2) -0.35113(13) -0.83923(12)
C6 C 0.1440(2) -0.51735(13) -0.95057(13)
H4 H 0.2263 -0.5834 -0.9486
H5 H 0.1473 -0.4757 -1.0147
C7 C 0.3204(3) -0.48026(15) -0.33943(14)
C8 C 0.0682(2) -0.72257(12) -0.84035(14)
H6 H 0.1913 -0.6872 -0.8049
H7 H 0.0834 -0.7568 -0.9053
H8 H 0.0344 -0.7786 -0.7944
C9 C -0.2681(2) -0.59513(12) -0.73051(12)
H9 H -0.3686 -0.5366 -0.7537
C10 C 0.0382(3) -0.47646(14) -0.47030(13)
C11 C -0.1213(2) -0.47619(14) -0.57218(12)
H10 H -0.0620 -0.4451 -0.6278
C12 C -0.3472(2) -0.70514(13) -0.78337(13)
H11 H -0.2761 -0.7684 -0.7450
H12 H -0.4890 -0.7135 -0.7883
C13 C 0.1949(3) -0.25815(15) -0.76855(15)
H13 H 0.2853 -0.2194 -0.8022
H14 H 0.2678 -0.2881 -0.7013
H15 H 0.0949 -0.2072 -0.7568
C14 C 0.2380(3) -0.46262(14) -0.45157(14)
H16 H 0.3092 -0.4449 -0.5021
C15 C -0.0979(2) -0.63541(12) -0.86653(12)
C16 C 0.2310(2) -0.44566(13) -0.85321(13)
H17 H 0.2564 -0.4924 -0.7898
H18 H 0.3580 -0.4154 -0.8597
C17 C -0.1989(2) -0.59427(13) -0.60940(13)
H19 H -0.0861 -0.6461 -0.5890
C18 C 0.1640(4) -0.50238(15) -0.29913(14)
H20 H 0.1732 -0.5166 -0.2271
C19 C 0.5376(3) -0.4726(2) -0.28138(17)
H21 H 0.6125 -0.5280 -0.3090
H22 H 0.5512 -0.4853 -0.2064
H23 H 0.5875 -0.3996 -0.2917
C20 C -0.2417(3) -0.29368(17) -0.55429(19)
H24 H -0.1765 -0.2694 -0.6083
H25 H -0.1540 -0.2826 -0.4849
H26 H -0.3618 -0.2512 -0.5598
C21 C -0.3631(3) -0.63513(17) -0.55708(16)
H27 H -0.4820 -0.5917 -0.5831
H28 H -0.3192 -0.6269 -0.4809
H29 H -0.3910 -0.7124 -0.5744
loop_
_geom_bond_atom_site_label_1
_geom_bond_atom_site_label_2
_geom_bond_site_symmetry_1
_geom_bond_site_symmetry_2
Cl1 C1 1_555 1_555
O1 C2 1_555 1_555
O2 C10 1_555 1_555
O3 C11 1_555 1_555
C1 C2 1_555 1_555
O4 H1 1_555 1_555
C2 C3 1_555 1_555
O5 C9 1_555 1_555
C3 H2 1_555 1_555
C4 O4 1_555 1_555
H3 C4 1_555 1_555
C5 C1 1_555 1_555
C6 C3 1_555 1_555
H4 C6 1_555 1_555
H5 C6 1_555 1_555
C7 C14 1_555 1_555
C8 H6 1_555 1_555
H7 C8 1_555 1_555
H8 C8 1_555 1_555
C9 H9 1_555 1_555
C10 C11 1_555 1_555
C11 H10 1_555 1_555
C12 C4 1_555 1_555
H11 C12 1_555 1_555
H12 C12 1_555 1_555
C13 C5 1_555 1_555
H13 C13 1_555 1_555
H14 C13 1_555 1_555
H15 C13 1_555 1_555
C14 C10 1_555 1_555
H16 C14 1_555 1_555
C15 O5 1_555 1_555
C16 C5 1_555 1_555
H17 C16 1_555 1_555
H18 C16 1_555 1_555
C17 C9 1_555 1_555
H19 C17 1_555 1_555
C18 O2 1_555 1_555
H20 C18 1_555 1_555
C19 C7 1_555 1_555
H21 C19 1_555 1_555
H22 C19 1_555 1_555
H23 C19 1_555 1_555
C20 O3 1_555 1_555
H24 C20 1_555 1_555
H25 C20 1_555 1_555
H26 C20 1_555 1_555
C21 C17 1_555 1_555
H27 C21 1_555 1_555
H28 C21 1_555 1_555
H29 C21 1_555 1_555
C3 C15 1_555 1_555
C4 C15 1_555 1_555
C6 C16 1_555 1_555
C7 C18 1_555 1_555
C8 C15 1_555 1_555
C9 C12 1_555 1_555
C11 C17 1_555 1_555

#END
