
#######################################################################
#
#                 Cambridge Crystallographic Data Centre
#                                CCDC 
#
#######################################################################
#
# If this CIF has been generated from an entry in the Cambridge 
# Structural Database, then it will include bibliographic, chemical, 
# crystal, experimental, refinement or atomic coordinate data resulting 
# from the CCDC's data processing and validation procedures.
#
#######################################################################

data_BUFMIZ
_chemical_formula_moiety         'C10 H9 N3 S1'
_chemical_name_systematic        2-(Methylsulfanyl)-4-(pyridin-3-yl)pyrimidine
_symmetry_cell_setting           monoclinic
_symmetry_space_group_name_H-M   'P 21/c'
_symmetry_Int_Tables_number      14
_space_group_name_Hall           '-P 2ybc'
loop_
_symmetry_equiv_pos_site_id
_symmetry_equiv_pos_as_xyz
1 x,y,z
2 -x,1/2+y,1/2-z
3 -x,-y,-z
4 x,1/2-y,1/2+z
_cell_length_a                   4.0010(8)
_cell_length_b                   13.713(3)
_cell_length_c                   17.877(4)
_cell_angle_alpha                90
_cell_angle_beta                 96.35(3)
_cell_angle_gamma                90
_cell_volume                     974.817
_exptl_crystal_colour            colorless
_exptl_crystal_description       block
_cell_formula_units_Z            4
_exptl_crystal_recrystallization_method cyclohexane
loop_
_atom_site_label
_atom_site_type_symbol
_atom_site_fract_x
_atom_site_fract_y
_atom_site_fract_z
S1 S 0.4309(2) 0.94155(5) 0.29123(4)
N1 N 0.6539(7) 1.07222(17) 0.20518(13)
C1 C 0.4170(9) 0.9369(2) 0.39062(19)
H1 H 0.3104 0.8775 0.4036
H2 H 0.2913 0.9916 0.4060
H3 H 0.6417 0.9392 0.4157
N2 N 0.7361(5) 1.10742(16) 0.33703(12)
C2 C 0.6299(7) 1.05331(19) 0.27802(15)
C3 C 0.8168(8) 1.1546(2) 0.19312(16)
H4 H 0.8455 1.1712 0.1438
N3 N 1.0852(8) 1.2696(2) 0.52338(14)
C4 C 0.9438(7) 1.2158(2) 0.24957(15)
H5 H 1.0587 1.2722 0.2391
C5 C 0.8963(6) 1.19124(18) 0.32285(14)
C6 C 1.0102(7) 1.25258(18) 0.38859(15)
C7 C 1.1366(8) 1.3459(2) 0.38145(16)
H6 H 1.1536 1.3722 0.3341
C8 C 1.2363(8) 1.3989(2) 0.44521(17)
H7 H 1.3228 1.4615 0.4416
C9 C 1.2066(8) 1.3584(2) 0.51438(17)
H8 H 1.2750 1.3951 0.5571
C10 C 0.9898(8) 1.2193(2) 0.46139(15)
H9 H 0.9027 1.1572 0.4670
loop_
_geom_bond_atom_site_label_1
_geom_bond_atom_site_label_2
_geom_bond_site_symmetry_1
_geom_bond_site_symmetry_2
S1 C1 1_555 1_555
N1 C2 1_555 1_555
C1 H1 1_555 1_555
H2 C1 1_555 1_555
H3 C1 1_555 1_555
N2 C2 1_555 1_555
C2 S1 1_555 1_555
C3 N1 1_555 1_555
H4 C3 1_555 1_555
N3 C9 1_555 1_555
C4 C3 1_555 1_555
H5 C4 1_555 1_555
C5 N2 1_555 1_555
C6 C5 1_555 1_555
C7 C6 1_555 1_555
H6 C7 1_555 1_555
C8 C7 1_555 1_555
H7 C8 1_555 1_555
C9 C8 1_555 1_555
H8 C9 1_555 1_555
C10 N3 1_555 1_555
H9 C10 1_555 1_555
C4 C5 1_555 1_555
C6 C10 1_555 1_555

#END
