
#######################################################################
#
#                 Cambridge Crystallographic Data Centre
#                                CCDC 
#
#######################################################################
#
# If this CIF has been generated from an entry in the Cambridge 
# Structural Database, then it will include bibliographic, chemical, 
# crystal, experimental, refinement or atomic coordinate data resulting 
# from the CCDC's data processing and validation procedures.
#
#######################################################################

data_BUFQAV
_chemical_formula_moiety         'C21 H17 F3 N2 O3'
_chemical_name_systematic        
(3R*,4S*,5S*)-2-Benzyl-3-(naphthalen-1-yl)-4-nitro-5-(trifluoromethyl)isoxazolidine
_symmetry_cell_setting           triclinic
_symmetry_space_group_name_H-M   'P -1'
_symmetry_Int_Tables_number      2
_space_group_name_Hall           '-P 1'
loop_
_symmetry_equiv_pos_site_id
_symmetry_equiv_pos_as_xyz
1 x,y,z
2 -x,-y,-z
_cell_length_a                   9.282(1)
_cell_length_b                   10.580(1)
_cell_length_c                   10.789(1)
_cell_angle_alpha                64.680(5)
_cell_angle_beta                 81.900(5)
_cell_angle_gamma                81.550(5)
_cell_volume                     943.72
_exptl_crystal_colour            colorless
_exptl_crystal_description       prism
_cell_formula_units_Z            2
loop_
_atom_site_label
_atom_site_type_symbol
_atom_site_fract_x
_atom_site_fract_y
_atom_site_fract_z
F1 F 0.2934(2) -0.12476(17) 0.3103(2)
F2 F 0.0735(2) -0.15596(17) 0.3893(2)
F3 F 0.2108(2) -0.08816(17) 0.48731(16)
O1 O 0.24445(18) 0.15571(15) 0.25922(14)
O2 O -0.09750(19) 0.14731(18) 0.0053(2)
O3 O -0.11173(19) 0.2385(2) 0.1507(2)
N1 N 0.23713(17) 0.26882(16) 0.11937(16)
N2 N -0.0495(2) 0.16483(19) 0.0954(2)
C1 C 0.1778(3) -0.0738(2) 0.3657(3)
C2 C 0.3817(2) 0.3204(2) 0.0862(2)
H1 H 0.3950 0.3786 -0.0118
H2 H 0.4558 0.2410 0.1077
C3 C 0.2189(2) 0.18939(19) 0.0400(2)
H3 H 0.312(2) 0.124(2) 0.041(2)
C4 C 0.1005(2) 0.0946(2) 0.1329(2)
H4 H 0.108(2) 0.011(2) 0.122(2)
C5 C 0.1286(2) 0.0752(2) 0.2759(2)
H5 H 0.038(2) 0.105(2) 0.322(2)
C6 C 0.4026(2) 0.4040(2) 0.1636(2)
C7 C 0.3124(2) 0.5250(2) 0.1483(2)
H6 H 0.2363 0.5528 0.0917
C8 C 0.3334(3) 0.6045(2) 0.2153(3)
H7 H 0.2711 0.6851 0.2045
C9 C 0.4459(3) 0.5657(3) 0.2982(3)
H8 H 0.4604 0.6201 0.3432
C10 C 0.5362(3) 0.4470(3) 0.3142(3)
H9 H 0.6122 0.4202 0.3707
C11 C 0.5156(2) 0.3661(2) 0.2472(2)
H10 H 0.5783 0.2855 0.2584
C12 C 0.1849(2) 0.2844(2) -0.1056(2)
C13 C 0.1138(2) 0.4152(2) -0.1350(2)
H11 H 0.0855 0.4443 -0.0644
C14 C 0.0826(3) 0.5067(2) -0.2703(3)
H12 H 0.0332 0.5950 -0.2885
C15 C 0.1246(2) 0.4658(2) -0.3736(2)
H13 H 0.1054 0.5275 -0.4630
C16 C 0.1969(2) 0.3318(2) -0.3487(2)
C17 C 0.2411(3) 0.2880(3) -0.4562(2)
H14 H 0.2218 0.3492 -0.5457
C18 C 0.3104(3) 0.1602(3) -0.4318(3)
H15 H 0.3386 0.1338 -0.5042
C19 C 0.3400(3) 0.0672(3) -0.2989(3)
H16 H 0.3877 -0.0213 -0.2830
C20 C 0.3000(3) 0.1041(2) -0.1910(2)
H17 H 0.3205 0.0403 -0.1025
C21 C 0.2281(2) 0.2376(2) -0.2125(2)
loop_
_geom_bond_atom_site_label_1
_geom_bond_atom_site_label_2
_geom_bond_site_symmetry_1
_geom_bond_site_symmetry_2
F1 C1 1_555 1_555
F2 C1 1_555 1_555
F3 C1 1_555 1_555
O1 N1 1_555 1_555
O2 N2 1_555 1_555
O3 N2 1_555 1_555
N1 C2 1_555 1_555
N2 C4 1_555 1_555
C1 C5 1_555 1_555
C2 H1 1_555 1_555
H2 C2 1_555 1_555
C3 N1 1_555 1_555
H3 C3 1_555 1_555
C4 C3 1_555 1_555
H4 C4 1_555 1_555
C5 O1 1_555 1_555
H5 C5 1_555 1_555
C6 C2 1_555 1_555
C7 C6 1_555 1_555
H6 C7 1_555 1_555
C8 C7 1_555 1_555
H7 C8 1_555 1_555
C9 C8 1_555 1_555
H8 C9 1_555 1_555
C10 C9 1_555 1_555
H9 C10 1_555 1_555
C11 C6 1_555 1_555
H10 C11 1_555 1_555
C12 C3 1_555 1_555
C13 C12 1_555 1_555
H11 C13 1_555 1_555
C14 C13 1_555 1_555
H12 C14 1_555 1_555
C15 C14 1_555 1_555
H13 C15 1_555 1_555
C16 C15 1_555 1_555
C17 C16 1_555 1_555
H14 C17 1_555 1_555
C18 C17 1_555 1_555
H15 C18 1_555 1_555
C19 C18 1_555 1_555
H16 C19 1_555 1_555
C20 C19 1_555 1_555
H17 C20 1_555 1_555
C21 C12 1_555 1_555
C4 C5 1_555 1_555
C10 C11 1_555 1_555
C16 C21 1_555 1_555
C20 C21 1_555 1_555

#END
