
#######################################################################
#
#                 Cambridge Crystallographic Data Centre
#                                CCDC 
#
#######################################################################
#
# If this CIF has been generated from an entry in the Cambridge 
# Structural Database, then it will include bibliographic, chemical, 
# crystal, experimental, refinement or atomic coordinate data resulting 
# from the CCDC's data processing and validation procedures.
#
#######################################################################

data_BUFQIE
_chemical_formula_moiety         'C16 H15 Br2 N1 O3 S2'
_chemical_name_systematic        
'8b-bromo-2-(bromomethyl)-4-methyl-3a-phenyl-1,3a,4,8b-tetrahydro-2H-furo[2,3-c]thieno[3,2-e][1,2]thiazine 5,5-dioxide'
_symmetry_cell_setting           monoclinic
_symmetry_space_group_name_H-M   'P 21/n'
_symmetry_Int_Tables_number      14
_space_group_name_Hall           '-P 2yn'
loop_
_symmetry_equiv_pos_site_id
_symmetry_equiv_pos_as_xyz
1 x,y,z
2 1/2-x,1/2+y,1/2-z
3 -x,-y,-z
4 1/2+x,1/2-y,1/2+z
_cell_length_a                   13.0300(3)
_cell_length_b                   10.2670(2)
_cell_length_c                   13.4550(3)
_cell_angle_alpha                90
_cell_angle_beta                 100.0030(10)
_cell_angle_gamma                90
_cell_volume                     1772.63
_exptl_crystal_colour            colorless
_exptl_crystal_description       prism
_cell_formula_units_Z            4
loop_
_atom_site_label
_atom_site_type_symbol
_atom_site_fract_x
_atom_site_fract_y
_atom_site_fract_z
C1 C 0.4546(4) 0.1448(5) 0.3040(4)
C2 C 0.4048(3) 0.2018(4) 0.2167(3)
C3 C 0.2960(4) 0.1827(5) 0.2035(4)
H1 H 0.2490 0.2148 0.1490
C4 C 0.2682(4) 0.1126(5) 0.2789(4)
H2 H 0.1995 0.0908 0.2816
C5 C 0.4667(3) 0.2728(4) 0.1505(3)
C6 C 0.5597(3) 0.3536(4) 0.2079(3)
C7 C 0.7217(4) 0.3289(5) 0.3364(4)
H3 H 0.7567 0.2694 0.3861
H4 H 0.7083 0.4090 0.3686
H5 H 0.7648 0.3457 0.2868
C8 C 0.5337(3) 0.4831(4) 0.2543(3)
C9 C 0.4905(4) 0.4831(5) 0.3409(3)
H6 H 0.4764 0.4044 0.3700
C10 C 0.4677(4) 0.5987(5) 0.3849(4)
H7 H 0.4370 0.5976 0.4424
C11 C 0.4906(4) 0.7155(5) 0.3433(4)
H8 H 0.4778 0.7935 0.3741
C12 C 0.5323(4) 0.7166(5) 0.2566(4)
H9 H 0.5461 0.7955 0.2276
C13 C 0.5539(4) 0.6004(4) 0.2121(4)
H10 H 0.5822 0.6017 0.1532
C14 C 0.5223(4) 0.1884(4) 0.0821(3)
H11 H 0.5510 0.1103 0.1169
H12 H 0.4752 0.1636 0.0211
C15 C 0.6091(4) 0.2775(5) 0.0580(4)
H13 H 0.5865 0.3169 -0.0085
C16 C 0.7119(4) 0.2148(5) 0.0602(4)
H14 H 0.7319 0.1686 0.1234
H15 H 0.7640 0.2811 0.0559
Br1 Br 0.37527(4) 0.39348(5) 0.06197(4)
Br2 Br 0.70618(6) 0.09409(6) -0.05146(5)
N1 N 0.6224(3) 0.2713(4) 0.2870(3)
O1 O 0.6096(3) 0.1662(6) 0.4512(3)
O2 O 0.6310(3) 0.0316(4) 0.3078(4)
O3 O 0.6207(2) 0.3789(3) 0.1335(2)
S1 S 0.58787(10) 0.14443(13) 0.34479(11)
S2 S 0.37063(12) 0.06775(14) 0.36893(12)
loop_
_geom_bond_atom_site_label_1
_geom_bond_atom_site_label_2
_geom_bond_site_symmetry_1
_geom_bond_site_symmetry_2
C1 C2 1_555 1_555
C2 C3 1_555 1_555
C3 H1 1_555 1_555
C4 C3 1_555 1_555
H2 C4 1_555 1_555
C5 C2 1_555 1_555
C6 C5 1_555 1_555
C7 H3 1_555 1_555
H4 C7 1_555 1_555
H5 C7 1_555 1_555
C8 C6 1_555 1_555
C9 C8 1_555 1_555
H6 C9 1_555 1_555
C10 C9 1_555 1_555
H7 C10 1_555 1_555
C11 C10 1_555 1_555
H8 C11 1_555 1_555
C12 C11 1_555 1_555
H9 C12 1_555 1_555
C13 C8 1_555 1_555
H10 C13 1_555 1_555
C14 C5 1_555 1_555
H11 C14 1_555 1_555
H12 C14 1_555 1_555
C15 C14 1_555 1_555
H13 C15 1_555 1_555
C16 C15 1_555 1_555
H14 C16 1_555 1_555
H15 C16 1_555 1_555
Br1 C5 1_555 1_555
Br2 C16 1_555 1_555
N1 C6 1_555 1_555
O1 S1 1_555 1_555
O2 S1 1_555 1_555
O3 C6 1_555 1_555
S1 C1 1_555 1_555
S2 C1 1_555 1_555
C4 S2 1_555 1_555
C7 N1 1_555 1_555
C12 C13 1_555 1_555
C15 O3 1_555 1_555
N1 S1 1_555 1_555

#END
