
#######################################################################
#
#                 Cambridge Crystallographic Data Centre
#                                CCDC 
#
#######################################################################
#
# If this CIF has been generated from an entry in the Cambridge 
# Structural Database, then it will include bibliographic, chemical, 
# crystal, experimental, refinement or atomic coordinate data resulting 
# from the CCDC's data processing and validation procedures.
#
#######################################################################

data_BUFQUQ
_chemical_formula_moiety         'C21 H13 N1 O2'
_chemical_name_systematic        4-Phenylpyrano[2,3-a]carbazol-2(11H)-one
_symmetry_cell_setting           triclinic
_symmetry_space_group_name_H-M   'P -1'
_symmetry_Int_Tables_number      2
_space_group_name_Hall           '-P 1'
loop_
_symmetry_equiv_pos_site_id
_symmetry_equiv_pos_as_xyz
1 x,y,z
2 -x,-y,-z
_cell_length_a                   6.0823(6)
_cell_length_b                   10.4873(11)
_cell_length_c                   12.9568(13)
_cell_angle_alpha                112.474(2)
_cell_angle_beta                 100.793(2)
_cell_angle_gamma                91.149(2)
_cell_volume                     746.364
_exptl_crystal_colour            yellow
_exptl_crystal_description       block
_cell_formula_units_Z            2
loop_
_atom_site_label
_atom_site_type_symbol
_atom_site_fract_x
_atom_site_fract_y
_atom_site_fract_z
C1 C 0.33903(19) 1.07903(12) 0.34938(9)
C2 C 0.51916(19) 1.16078(12) 0.43583(10)
H1 H 0.6545 1.1214 0.4511
C3 C 0.5007(2) 1.29962(13) 0.49956(10)
H2 H 0.6223 1.3543 0.5591
C4 C 0.3045(2) 1.35830(13) 0.47610(10)
H3 H 0.2933 1.4536 0.5187
C5 C 0.1244(2) 1.27775(13) 0.39032(11)
H4 H -0.0099 1.3179 0.3745
C6 C 0.1414(2) 1.13858(12) 0.32796(10)
H5 H 0.0175 1.0834 0.2702
C7 C 0.55754(18) 0.77644(12) 0.13232(9)
C8 C 0.52841(19) 0.91191(12) 0.21304(10)
H6 H 0.6280 0.9889 0.2235
C9 C 0.36508(18) 0.93400(11) 0.27456(9)
C10 C 0.21719(18) 0.81682(12) 0.26293(9)
C11 C 0.04595(19) 0.82676(12) 0.32598(9)
H7 H 0.0239 0.9149 0.3794
C12 C -0.08892(19) 0.71119(12) 0.31124(9)
H8 H -0.2031 0.7198 0.3538
C13 C -0.05578(18) 0.58028(12) 0.23247(9)
C14 C 0.11786(18) 0.56903(12) 0.17107(9)
C15 C 0.25240(18) 0.68648(12) 0.18626(9)
C16 C -0.16173(19) 0.44071(12) 0.19427(9)
C17 C -0.34503(19) 0.38189(12) 0.21850(10)
H9 H -0.4300 0.4387 0.2698
C18 C -0.3998(2) 0.23969(13) 0.16633(10)
H10 H -0.5231 0.1990 0.1825
C19 C -0.2760(2) 0.15447(12) 0.08974(10)
H11 H -0.3154 0.0570 0.0564
C20 C -0.09740(19) 0.20981(12) 0.06190(10)
H12 H -0.0156 0.1524 0.0091
C21 C -0.04289(19) 0.35337(12) 0.11461(9)
N1 N 0.12443(16) 0.43309(10) 0.10091(8)
H13 H 0.2188 0.4021 0.0551
O1 O 0.69486(14) 0.75238(9) 0.07180(7)
O2 O 0.41658(13) 0.66639(8) 0.12284(7)
loop_
_geom_bond_atom_site_label_1
_geom_bond_atom_site_label_2
_geom_bond_site_symmetry_1
_geom_bond_site_symmetry_2
C1 C2 1_555 1_555
C2 H1 1_555 1_555
C3 C2 1_555 1_555
H2 C3 1_555 1_555
C4 C3 1_555 1_555
H3 C4 1_555 1_555
C5 C4 1_555 1_555
H4 C5 1_555 1_555
C6 C1 1_555 1_555
H5 C6 1_555 1_555
C7 C8 1_555 1_555
C8 H6 1_555 1_555
C9 C1 1_555 1_555
C10 C9 1_555 1_555
C11 C10 1_555 1_555
H7 C11 1_555 1_555
C12 C11 1_555 1_555
H8 C12 1_555 1_555
C13 C12 1_555 1_555
C14 C13 1_555 1_555
C15 C10 1_555 1_555
C16 C13 1_555 1_555
C17 C16 1_555 1_555
H9 C17 1_555 1_555
C18 C17 1_555 1_555
H10 C18 1_555 1_555
C19 C18 1_555 1_555
H11 C19 1_555 1_555
C20 C19 1_555 1_555
H12 C20 1_555 1_555
C21 C16 1_555 1_555
N1 C14 1_555 1_555
H13 N1 1_555 1_555
O1 C7 1_555 1_555
O2 C7 1_555 1_555
C5 C6 1_555 1_555
C8 C9 1_555 1_555
C14 C15 1_555 1_555
C15 O2 1_555 1_555
C20 C21 1_555 1_555
C21 N1 1_555 1_555

#END
