
#######################################################################
#
#                 Cambridge Crystallographic Data Centre
#                                CCDC 
#
#######################################################################
#
# If this CIF has been generated from an entry in the Cambridge 
# Structural Database, then it will include bibliographic, chemical, 
# crystal, experimental, refinement or atomic coordinate data resulting 
# from the CCDC's data processing and validation procedures.
#
#######################################################################

data_BUFWEE
_chemical_formula_moiety         'C20 H19 N2 O4 P1'
_chemical_name_systematic        
rac-1,2-Diacetyl-3,5-bis(2-furanyl)-4-phenyl-1,2,4-diazaphospholane
_symmetry_cell_setting           triclinic
_symmetry_space_group_name_H-M   'P -1'
_symmetry_Int_Tables_number      2
_space_group_name_Hall           '-P 1'
loop_
_symmetry_equiv_pos_site_id
_symmetry_equiv_pos_as_xyz
1 x,y,z
2 -x,-y,-z
_cell_length_a                   8.7622(9)
_cell_length_b                   10.7731(11)
_cell_length_c                   11.2695(12)
_cell_angle_alpha                96.209(2)
_cell_angle_beta                 111.340(2)
_cell_angle_gamma                105.863(2)
_cell_volume                     927.182
_exptl_crystal_colour            colorless
_exptl_crystal_description       prism
_cell_formula_units_Z            2
loop_
_atom_site_label
_atom_site_type_symbol
_atom_site_fract_x
_atom_site_fract_y
_atom_site_fract_z
P1 P 0.51418(5) 0.69631(4) 0.61637(4)
O1 O 0.6829(3) 0.70216(18) 0.9641(2)
O2 O 0.35891(16) 0.91687(12) 0.55843(12)
O3 O 0.06664(17) 0.53685(13) 0.68581(13)
O4 O 0.56897(17) 1.04339(12) 0.88607(12)
N1 N 0.44363(18) 0.82263(13) 0.80421(13)
N2 N 0.29065(18) 0.71936(13) 0.71940(13)
C1 C 0.5979(2) 0.81595(15) 0.78224(16)
H1 H 0.6572 0.9058 0.7734
C2 C 0.2866(2) 0.69056(15) 0.58701(15)
H2 H 0.2021 0.5999 0.5375
C3 C 0.7262(2) 0.78667(17) 0.89443(17)
C4 C 0.8988(2) 0.8381(2) 0.9335(2)
H3 H 0.9589 0.8981 0.8964
C5 C 0.9732(4) 0.7856(3) 1.0407(3)
H4 H 1.0941 0.8050 1.0907
C6 C 0.8466(5) 0.7054(3) 1.0593(2)
H5 H 0.8608 0.6568 1.1256
C7 C 0.2372(2) 0.79122(16) 0.51455(16)
C8 C 0.0924(2) 0.78946(19) 0.4156(2)
H6 H -0.0102 0.7149 0.3678
C9 C 0.1227(3) 0.9218(2) 0.3960(2)
H7 H 0.0442 0.9521 0.3329
C10 C 0.2839(3) 0.99453(18) 0.48451(18)
H8 H 0.3382 1.0866 0.4944
C11 C 0.1930(2) 0.63032(16) 0.76434(17)
C12 C 0.2450(3) 0.6530(2) 0.9097(2)
H9 H 0.1437 0.6101 0.9269
H10 H 0.2887 0.7485 0.9483
H11 H 0.3364 0.6154 0.9486
C13 C 0.4348(2) 0.94871(16) 0.83547(15)
C14 C 0.2585(2) 0.95957(18) 0.80893(18)
H12 H 0.2713 1.0520 0.8394
H13 H 0.2038 0.9037 0.8554
H14 H 0.1855 0.9300 0.7147
C15 C 0.5237(2) 0.54106(16) 0.66521(15)
C16 C 0.6864(2) 0.52495(16) 0.70118(16)
H15 H 0.7802 0.5917 0.6974
C17 C 0.7126(2) 0.41243(18) 0.74239(18)
H16 H 0.8244 0.4036 0.7680
C18 C 0.5764(3) 0.31322(18) 0.74621(18)
H17 H 0.5947 0.2371 0.7760
C19 C 0.4128(3) 0.32607(18) 0.70614(19)
H18 H 0.3182 0.2571 0.7061
C20 C 0.3862(2) 0.43915(17) 0.66598(18)
H19 H 0.2737 0.4469 0.6390
loop_
_geom_bond_atom_site_label_1
_geom_bond_atom_site_label_2
_geom_bond_site_symmetry_1
_geom_bond_site_symmetry_2
P1 C1 1_555 1_555
O1 C3 1_555 1_555
O2 C7 1_555 1_555
O3 C11 1_555 1_555
O4 C13 1_555 1_555
N1 N2 1_555 1_555
N2 C2 1_555 1_555
C1 N1 1_555 1_555
H1 C1 1_555 1_555
C2 P1 1_555 1_555
H2 C2 1_555 1_555
C3 C1 1_555 1_555
C4 C3 1_555 1_555
H3 C4 1_555 1_555
C5 C4 1_555 1_555
H4 C5 1_555 1_555
C6 O1 1_555 1_555
H5 C6 1_555 1_555
C7 C2 1_555 1_555
C8 C7 1_555 1_555
H6 C8 1_555 1_555
C9 C8 1_555 1_555
H7 C9 1_555 1_555
C10 O2 1_555 1_555
H8 C10 1_555 1_555
C11 N2 1_555 1_555
C12 C11 1_555 1_555
H9 C12 1_555 1_555
H10 C12 1_555 1_555
H11 C12 1_555 1_555
C13 N1 1_555 1_555
C14 C13 1_555 1_555
H12 C14 1_555 1_555
H13 C14 1_555 1_555
H14 C14 1_555 1_555
C15 P1 1_555 1_555
C16 C15 1_555 1_555
H15 C16 1_555 1_555
C17 C16 1_555 1_555
H16 C17 1_555 1_555
C18 C17 1_555 1_555
H17 C18 1_555 1_555
C19 C18 1_555 1_555
H18 C19 1_555 1_555
C20 C15 1_555 1_555
H19 C20 1_555 1_555
C5 C6 1_555 1_555
C9 C10 1_555 1_555
C19 C20 1_555 1_555

#END
