
#######################################################################
#
#                 Cambridge Crystallographic Data Centre
#                                CCDC 
#
#######################################################################
#
# If this CIF has been generated from an entry in the Cambridge 
# Structural Database, then it will include bibliographic, chemical, 
# crystal, experimental, refinement or atomic coordinate data resulting 
# from the CCDC's data processing and validation procedures.
#
#######################################################################

data_BUGLEV
_chemical_formula_moiety         'C42 H58 N4 O7,0.5(C1 H1 Cl3)'
_chemical_name_systematic        
'5-Isobutoxy-1,3-bis((2-(2-(octyloxy)benzoyl)hydrazino)carbonyl)benzene chloroform solvate'
_symmetry_cell_setting           triclinic
_symmetry_space_group_name_H-M   'P -1'
_symmetry_Int_Tables_number      2
_space_group_name_Hall           '-P 1'
loop_
_symmetry_equiv_pos_site_id
_symmetry_equiv_pos_as_xyz
1 x,y,z
2 -x,-y,-z
_cell_length_a                   13.3079(11)
_cell_length_b                   16.4137(14)
_cell_length_c                   21.4570(18)
_cell_angle_alpha                77.214(2)
_cell_angle_beta                 74.374(2)
_cell_angle_gamma                76.646(2)
_cell_volume                     4327.86
_exptl_crystal_colour            colorless
_exptl_crystal_description       prismatic
_cell_formula_units_Z            4
loop_
_atom_site_label
_atom_site_type_symbol
_atom_site_fract_x
_atom_site_fract_y
_atom_site_fract_z
Cl1 Cl 0.2795(8) 0.7218(5) 0.4646(5)
Cl2 Cl 0.4046(9) 0.5872(7) 0.5253(5)
Cl3 Cl 0.4365(13) 0.7466(9) 0.5109(7)
C85 C 0.3402(15) 0.6842(12) 0.5324(10)
H109 H 0.2914 0.6893 0.5752
O1 O 0.3556(3) 0.3424(2) 0.19653(19)
O2 O 0.1865(3) 0.6225(2) 0.20460(18)
O3 O -0.1718(3) 0.2755(2) 0.34590(19)
O4 O -0.2222(3) 0.5537(2) 0.27146(19)
O5 O 0.1987(4) 0.0866(2) 0.2871(3)
O6 O 0.5020(3) 0.5172(2) 0.13969(19)
O7 O -0.4537(3) 0.4083(2) 0.3126(2)
N1 N 0.2302(3) 0.4530(3) 0.2231(2)
N2 N 0.3056(3) 0.5035(3) 0.1978(2)
N3 N -0.1473(3) 0.3913(3) 0.2707(3)
N4 N -0.2550(4) 0.4239(3) 0.2820(3)
C1 C 0.2638(4) 0.3689(3) 0.2222(2)
C2 C 0.1838(4) 0.3136(3) 0.2499(2)
C3 C 0.2207(4) 0.2266(3) 0.2583(3)
H1 H 0.2935 0.2061 0.2487
C4 C 0.1520(5) 0.1703(3) 0.2805(3)
C5 C 0.0429(4) 0.1998(3) 0.2964(3)
H2 H -0.0040 0.1619 0.3129
C6 C 0.0058(4) 0.2861(3) 0.2871(2)
C7 C 0.0752(4) 0.3433(3) 0.2640(2)
H3 H 0.0489 0.4015 0.2580
C8 C -0.1125(4) 0.3162(3) 0.3046(2)
C9 C 0.2794(4) 0.5877(3) 0.1889(2)
C10 C 0.3658(4) 0.6374(3) 0.1613(2)
C11 C 0.3382(5) 0.7239(3) 0.1587(3)
H4 H 0.2671 0.7478 0.1724
C12 C 0.4119(6) 0.7763(4) 0.1368(3)
H5 H 0.3905 0.8347 0.1347
C13 C 0.5186(6) 0.7414(4) 0.1178(3)
H6 H 0.5691 0.7763 0.1044
C14 C 0.5496(5) 0.6557(3) 0.1189(3)
H7 H 0.6212 0.6329 0.1057
C15 C 0.4761(4) 0.6030(3) 0.1394(3)
C16 C -0.2864(4) 0.5075(3) 0.2832(2)
C17 C -0.4025(5) 0.5409(3) 0.2969(3)
C18 C -0.4303(6) 0.6286(4) 0.2946(3)
H8 H -0.3772 0.6607 0.2846
C19 C -0.5367(7) 0.6691(5) 0.3072(4)
H9 H -0.5543 0.7278 0.3046
C20 C -0.6140(8) 0.6215(6) 0.3232(4)
H10 H -0.6847 0.6484 0.3320
C21 C -0.5905(5) 0.5331(5) 0.3268(4)
H11 H -0.6443 0.5014 0.3386
C22 C -0.4827(4) 0.4935(4) 0.3121(3)
C23 C 0.1354(6) 0.0235(4) 0.2996(4)
H12 H 0.0978 0.0327 0.2649
H13 H 0.0835 0.0266 0.3409
C24 C 0.2064(8) -0.0623(4) 0.3023(7)
H14 H 0.2326 -0.0748 0.3425
C25 C 0.1463(9) -0.1303(6) 0.3041(8)
H15 H 0.0841 -0.1050 0.2874
H16 H 0.1257 -0.1586 0.3486
H17 H 0.1907 -0.1708 0.2776
C26 C 0.2975(13) -0.0681(10) 0.2464(8)
H18 H 0.3544 -0.1109 0.2591
H19 H 0.3205 -0.0142 0.2321
H20 H 0.2777 -0.0829 0.2111
C27 C 0.6101(4) 0.4807(3) 0.1148(3)
H21 H 0.6529 0.4809 0.1449
H22 H 0.6381 0.5133 0.0726
C28 C 0.6131(4) 0.3916(3) 0.1077(3)
H23 H 0.5779 0.3620 0.1493
H24 H 0.6866 0.3630 0.0980
C29 C 0.5621(5) 0.3844(4) 0.0552(3)
H25 H 0.5854 0.4245 0.0162
H26 H 0.4858 0.4012 0.0699
C30 C 0.5855(6) 0.2950(4) 0.0360(3)
H27 H 0.5506 0.2978 0.0011
H28 H 0.6613 0.2792 0.0189
C31 C 0.5502(5) 0.2279(4) 0.0910(3)
H29 H 0.4769 0.2472 0.1122
H30 H 0.5925 0.2191 0.1231
C32 C 0.5590(5) 0.1432(4) 0.0697(4)
H31 H 0.5131 0.1515 0.0397
H32 H 0.6313 0.1261 0.0457
C33 C 0.5306(7) 0.0731(4) 0.1244(4)
H33 H 0.4582 0.0901 0.1480
H34 H 0.5761 0.0653 0.1546
C34 C 0.5398(8) -0.0109(5) 0.1043(6)
H35 H 0.5115 -0.0020 0.0661
H36 H 0.5007 -0.0468 0.1396
H37 H 0.6131 -0.0377 0.0944
C35 C -0.5333(5) 0.3560(4) 0.3342(4)
H38 H -0.5869 0.3766 0.3087
H39 H -0.5674 0.3575 0.3801
C36 C -0.4807(6) 0.2683(4) 0.3251(4)
H40 H -0.4240 0.2497 0.3484
H41 H -0.4494 0.2672 0.2788
C37 C -0.5591(9) 0.2077(6) 0.3503(5)
H42 H -0.6193 0.2297 0.3302
H43 H -0.5851 0.2049 0.3974
C38 C -0.5090(14) 0.1165(10) 0.3354(9)
H44 H -0.5255 0.1191 0.2935
H45 H -0.4337 0.1179 0.3246
C39 C -0.511(2) 0.0299(14) 0.3644(13)
H46 H -0.5851 0.0244 0.3759
H47 H -0.4902 0.0223 0.4056
C40 C -0.4519(15) -0.0448(12) 0.3340(9)
H48 H -0.5002 -0.0763 0.3272
H49 H -0.4053 -0.0276 0.2921
C41 C -0.3919(17) -0.0950(12) 0.3799(10)
H50 H -0.4309 -0.0968 0.4253
H51 H -0.3235 -0.0792 0.3737
C42 C -0.3844(13) -0.1764(10) 0.3530(8)
H52 H -0.4540 -0.1822 0.3520
H53 H -0.3543 -0.2248 0.3809
H54 H -0.3401 -0.1728 0.3094
H110 H 0.188(4) 0.471(4) 0.257(2)
H111 H 0.366(2) 0.473(3) 0.185(2)
H112 H -0.304(3) 0.393(3) 0.288(3)
H115 H -0.115(4) 0.413(4) 0.2310(15)
O8 O 0.9386(4) 0.7644(2) 0.37508(18)
O9 O 1.1212(4) 0.4933(2) 0.3462(2)
O10 O 0.8179(4) 0.7472(2) 0.0754(2)
O11 O 0.9353(3) 0.4595(2) 0.14273(17)
O12 O 0.7980(4) 0.9785(2) 0.1919(2)
O13 O 1.0735(5) 0.6190(3) 0.4993(2)
O14 O 0.8128(3) 0.58776(19) -0.01782(15)
N5 N 1.0312(4) 0.6561(3) 0.3238(2)
N6 N 1.0716(4) 0.6193(3) 0.3786(2)
N7 N 0.8664(3) 0.6263(3) 0.1401(2)
N8 N 0.8540(3) 0.5830(2) 0.0950(2)
C43 C 0.9637(4) 0.7305(3) 0.3265(2)
C44 C 0.9200(4) 0.7685(3) 0.2673(2)
C45 C 0.8842(4) 0.8563(3) 0.2577(3)
H55 H 0.8921 0.8890 0.2858
C46 C 0.8365(5) 0.8941(3) 0.2056(3)
C47 C 0.8241(4) 0.8457(3) 0.1649(3)
H56 H 0.7915 0.8715 0.1303
C48 C 0.8595(4) 0.7581(3) 0.1745(2)
C49 C 0.9074(4) 0.7203(3) 0.2259(2)
H57 H 0.9314 0.6618 0.2327
C50 C 0.8444(4) 0.7118(3) 0.1266(3)
C51 C 1.1105(4) 0.5359(4) 0.3888(3)
C52 C 1.1409(4) 0.4982(4) 0.4524(3)
C53 C 1.1935(6) 0.4148(5) 0.4577(3)
H58 H 1.2101 0.3882 0.4212
C54 C 1.2222(8) 0.3698(7) 0.5129(5)
H59 H 1.2554 0.3131 0.5148
C55 C 1.2011(7) 0.4095(8) 0.5660(5)
H60 H 1.2206 0.3797 0.6045
C56 C 1.1521(7) 0.4922(6) 0.5631(3)
H61 H 1.1386 0.5185 0.5994
C57 C 1.1216(5) 0.5382(4) 0.5056(3)
C58 C 0.8947(4) 0.5013(3) 0.0965(2)
C59 C 0.8864(3) 0.4605(3) 0.0436(2)
C60 C 0.9223(4) 0.3728(3) 0.0488(3)
H62 H 0.9489 0.3438 0.0851
C61 C 0.9198(4) 0.3278(3) 0.0030(3)
H63 H 0.9442 0.2694 0.0082
C62 C 0.8814(5) 0.3695(3) -0.0503(3)
H64 H 0.8794 0.3394 -0.0818
C63 C 0.8455(4) 0.4554(3) -0.0580(3)
H65 H 0.8195 0.4830 -0.0948
C64 C 0.8472(4) 0.5017(3) -0.0122(2)
C65 C 0.8273(5) 1.0346(3) 0.2232(3)
H66 H 0.9039 1.0259 0.2161
H67 H 0.7968 1.0251 0.2700
C66 C 0.7831(5) 1.1260(3) 0.1913(3)
H68 H 0.7055 1.1332 0.2011
C67 C 0.8234(6) 1.1403(4) 0.1173(4)
H69 H 0.8994 1.1255 0.1066
H70 H 0.8021 1.1990 0.0998
H71 H 0.7943 1.1054 0.0988
C68 C 0.8118(8) 1.1871(4) 0.2255(5)
H72 H 0.8867 1.1872 0.2115
H73 H 0.7933 1.1690 0.2722
H74 H 0.7735 1.2434 0.2144
C69 C 1.0808(11) 0.6589(7) 0.5507(7)
H75 H 1.1493 0.6386 0.5618
H76 H 1.0255 0.6475 0.5898
C70 C 1.0663(14) 0.7560(11) 0.5216(11)
H77 H 1.0895 0.7875 0.5466
H78 H 1.1041 0.7663 0.4759
C71 C 0.9475(11) 0.7782(8) 0.5286(5)
H79 H 0.9096 0.7638 0.5738
H80 H 0.9249 0.7499 0.5009
C72 C 0.9314(15) 0.8778(11) 0.5046(11)
H81 H 0.9508 0.9066 0.5333
H82 H 0.9709 0.8926 0.4599
C73 C 0.8185(15) 0.8956(10) 0.5095(11)
H83 H 0.7821 0.9269 0.5451
H84 H 0.7916 0.8432 0.5179
C74 C 0.801(3) 0.9481(15) 0.4447(15)
H85 H 0.8442 0.9185 0.4094
H86 H 0.7271 0.9538 0.4436
C75 C 0.8261(16) 1.0304(14) 0.4339(10)
H87 H 0.8548 1.0469 0.3873
H88 H 0.8811 1.0276 0.4565
C76 C 0.731(3) 1.1004(13) 0.4571(18)
H89 H 0.7171 1.1425 0.4200
H90 H 0.7473 1.1266 0.4880
H91 H 0.6690 1.0753 0.4777
C77 C 0.7716(5) 0.6313(3) -0.0742(3)
H92 H 0.7126 0.6071 -0.0760
H93 H 0.8263 0.6252 -0.1141
C78 C 0.7352(5) 0.7233(4) -0.0684(3)
H94 H 0.6914 0.7498 -0.0996
H95 H 0.6909 0.7273 -0.0248
C79 C 0.8219(5) 0.7721(3) -0.0800(3)
H96 H 0.8658 0.7696 -0.1240
H97 H 0.8662 0.7462 -0.0491
C80 C 0.7769(6) 0.8662(4) -0.0723(4)
H98 H 0.7366 0.8925 -0.1054
H99 H 0.7284 0.8678 -0.0297
C81 C 0.8582(6) 0.9161(4) -0.0784(4)
H100 H 0.9050 0.9150 -0.1217
H101 H 0.9002 0.8873 -0.0466
C82 C 0.8232(7) 1.0064(4) -0.0694(4)
H102 H 0.7825 1.0364 -0.1016
H103 H 0.7764 1.0085 -0.0262
C83 C 0.9115(9) 1.0516(6) -0.0758(6)
H104 H 0.9508 1.0211 -0.0430
H105 H 0.9591 1.0465 -0.1184
C84 C 0.8875(8) 1.1397(5) -0.0698(5)
H106 H 0.9096 1.1734 -0.1119
H107 H 0.9242 1.1484 -0.0396
H108 H 0.8124 1.1563 -0.0536
H113 H 0.848(4) 0.613(3) 0.0592(15)
H114 H 1.061(4) 0.659(3) 0.402(2)
H116 H 0.848(4) 0.600(3) 0.1792(14)
H117 H 1.066(4) 0.652(4) 0.2850(14)
loop_
_geom_bond_atom_site_label_1
_geom_bond_atom_site_label_2
_geom_bond_site_symmetry_1
_geom_bond_site_symmetry_2
Cl1 C85 1_555 1_555
Cl2 C85 1_555 1_555
Cl3 C85 1_555 1_555
O1 C1 1_555 1_555
O2 C9 1_555 1_555
O3 C8 1_555 1_555
O4 C16 1_555 1_555
O5 C4 1_555 1_555
O6 C15 1_555 1_555
O7 C22 1_555 1_555
O8 C43 1_555 1_555
O9 C51 1_555 1_555
O10 C50 1_555 1_555
O11 C58 1_555 1_555
O12 C46 1_555 1_555
O13 C57 1_555 1_555
O14 C64 1_555 1_555
N1 N2 1_555 1_555
N2 C9 1_555 1_555
N3 N4 1_555 1_555
N4 C16 1_555 1_555
N5 N6 1_555 1_555
N6 C51 1_555 1_555
N7 N8 1_555 1_555
N8 C58 1_555 1_555
C1 N1 1_555 1_555
C2 C1 1_555 1_555
C3 C2 1_555 1_555
H1 C3 1_555 1_555
C4 C3 1_555 1_555
C5 C4 1_555 1_555
H2 C5 1_555 1_555
C6 C5 1_555 1_555
C7 C2 1_555 1_555
H3 C7 1_555 1_555
C8 N3 1_555 1_555
C9 C10 1_555 1_555
C10 C11 1_555 1_555
C11 H4 1_555 1_555
C12 C11 1_555 1_555
H5 C12 1_555 1_555
C13 C12 1_555 1_555
H6 C13 1_555 1_555
C14 C13 1_555 1_555
H7 C14 1_555 1_555
C15 C10 1_555 1_555
C16 C17 1_555 1_555
C17 C18 1_555 1_555
C18 H8 1_555 1_555
C19 C18 1_555 1_555
H9 C19 1_555 1_555
C20 C19 1_555 1_555
H10 C20 1_555 1_555
C21 C20 1_555 1_555
H11 C21 1_555 1_555
C22 C17 1_555 1_555
C23 O5 1_555 1_555
H12 C23 1_555 1_555
H13 C23 1_555 1_555
C24 C23 1_555 1_555
H14 C24 1_555 1_555
C25 C24 1_555 1_555
H15 C25 1_555 1_555
H16 C25 1_555 1_555
H17 C25 1_555 1_555
C26 C24 1_555 1_555
H18 C26 1_555 1_555
H19 C26 1_555 1_555
H20 C26 1_555 1_555
C27 O6 1_555 1_555
H21 C27 1_555 1_555
H22 C27 1_555 1_555
C28 C27 1_555 1_555
H23 C28 1_555 1_555
H24 C28 1_555 1_555
C29 C28 1_555 1_555
H25 C29 1_555 1_555
H26 C29 1_555 1_555
C30 C29 1_555 1_555
H27 C30 1_555 1_555
H28 C30 1_555 1_555
C31 C30 1_555 1_555
H29 C31 1_555 1_555
H30 C31 1_555 1_555
C32 C31 1_555 1_555
H31 C32 1_555 1_555
H32 C32 1_555 1_555
C33 C32 1_555 1_555
H33 C33 1_555 1_555
H34 C33 1_555 1_555
C34 C33 1_555 1_555
H35 C34 1_555 1_555
H36 C34 1_555 1_555
H37 C34 1_555 1_555
C35 O7 1_555 1_555
H38 C35 1_555 1_555
H39 C35 1_555 1_555
C36 C35 1_555 1_555
H40 C36 1_555 1_555
H41 C36 1_555 1_555
C37 C36 1_555 1_555
H42 C37 1_555 1_555
H43 C37 1_555 1_555
C38 C37 1_555 1_555
H44 C38 1_555 1_555
H45 C38 1_555 1_555
C39 C38 1_555 1_555
H46 C39 1_555 1_555
H47 C39 1_555 1_555
C40 C39 1_555 1_555
H48 C40 1_555 1_555
H49 C40 1_555 1_555
C41 C40 1_555 1_555
H50 C41 1_555 1_555
H51 C41 1_555 1_555
C42 C41 1_555 1_555
H52 C42 1_555 1_555
H53 C42 1_555 1_555
H54 C42 1_555 1_555
C43 N5 1_555 1_555
C44 C43 1_555 1_555
C45 C44 1_555 1_555
H55 C45 1_555 1_555
C46 C45 1_555 1_555
C47 C46 1_555 1_555
H56 C47 1_555 1_555
C48 C47 1_555 1_555
C49 C44 1_555 1_555
H57 C49 1_555 1_555
C50 N7 1_555 1_555
C51 C52 1_555 1_555
C52 C53 1_555 1_555
C53 H58 1_555 1_555
C54 C53 1_555 1_555
H59 C54 1_555 1_555
C55 C54 1_555 1_555
H60 C55 1_555 1_555
C56 C55 1_555 1_555
H61 C56 1_555 1_555
C57 C52 1_555 1_555
C58 C59 1_555 1_555
C59 C60 1_555 1_555
C60 H62 1_555 1_555
C61 C60 1_555 1_555
H63 C61 1_555 1_555
C62 C61 1_555 1_555
H64 C62 1_555 1_555
C63 C62 1_555 1_555
H65 C63 1_555 1_555
C64 C59 1_555 1_555
C65 O12 1_555 1_555
H66 C65 1_555 1_555
H67 C65 1_555 1_555
C66 C65 1_555 1_555
H68 C66 1_555 1_555
C67 C66 1_555 1_555
H69 C67 1_555 1_555
H70 C67 1_555 1_555
H71 C67 1_555 1_555
C68 C66 1_555 1_555
H72 C68 1_555 1_555
H73 C68 1_555 1_555
H74 C68 1_555 1_555
C69 O13 1_555 1_555
H75 C69 1_555 1_555
H76 C69 1_555 1_555
C70 C69 1_555 1_555
H77 C70 1_555 1_555
H78 C70 1_555 1_555
C71 C70 1_555 1_555
H79 C71 1_555 1_555
H80 C71 1_555 1_555
C72 C71 1_555 1_555
H81 C72 1_555 1_555
H82 C72 1_555 1_555
C73 C72 1_555 1_555
H83 C73 1_555 1_555
H84 C73 1_555 1_555
C74 C73 1_555 1_555
H85 C74 1_555 1_555
H86 C74 1_555 1_555
C75 C74 1_555 1_555
H87 C75 1_555 1_555
H88 C75 1_555 1_555
C76 C75 1_555 1_555
H89 C76 1_555 1_555
H90 C76 1_555 1_555
H91 C76 1_555 1_555
C77 O14 1_555 1_555
H92 C77 1_555 1_555
H93 C77 1_555 1_555
C78 C77 1_555 1_555
H94 C78 1_555 1_555
H95 C78 1_555 1_555
C79 C78 1_555 1_555
H96 C79 1_555 1_555
H97 C79 1_555 1_555
C80 C79 1_555 1_555
H98 C80 1_555 1_555
H99 C80 1_555 1_555
C81 C80 1_555 1_555
H100 C81 1_555 1_555
H101 C81 1_555 1_555
C82 C81 1_555 1_555
H102 C82 1_555 1_555
H103 C82 1_555 1_555
C83 C82 1_555 1_555
H104 C83 1_555 1_555
H105 C83 1_555 1_555
C84 C83 1_555 1_555
H106 C84 1_555 1_555
H107 C84 1_555 1_555
H108 C84 1_555 1_555
C85 H109 1_555 1_555
H110 N1 1_555 1_555
H111 N2 1_555 1_555
H112 N4 1_555 1_555
H113 N8 1_555 1_555
H114 N6 1_555 1_555
H115 N3 1_555 1_555
H116 N7 1_555 1_555
H117 N5 1_555 1_555
C6 C7 1_555 1_555
C6 C8 1_555 1_555
C14 C15 1_555 1_555
C21 C22 1_555 1_555
C48 C49 1_555 1_555
C48 C50 1_555 1_555
C56 C57 1_555 1_555
C63 C64 1_555 1_555

#END
