
#######################################################################
#
#                 Cambridge Crystallographic Data Centre
#                                CCDC 
#
#######################################################################
#
# If this CIF has been generated from an entry in the Cambridge 
# Structural Database, then it will include bibliographic, chemical, 
# crystal, experimental, refinement or atomic coordinate data resulting 
# from the CCDC's data processing and validation procedures.
#
#######################################################################

data_BUGLIZ
_chemical_formula_moiety         'C62 H70 N8 O14,2(C1 H4 O1)'
_chemical_name_systematic        
'1,2-bis(3,5-bis((2-(2-(isobutoxy)benzoyl)hydrazino)carbonyl)phenoxy)ethane methanol solvate'
_symmetry_cell_setting           orthorhombic
_symmetry_space_group_name_H-M   'P b c a'
_symmetry_Int_Tables_number      61
_space_group_name_Hall           '-P 2ac 2ab'
loop_
_symmetry_equiv_pos_site_id
_symmetry_equiv_pos_as_xyz
1 x,y,z
2 1/2-x,-y,1/2+z
3 -x,1/2+y,1/2-z
4 1/2+x,1/2-y,-z
5 -x,-y,-z
6 1/2+x,y,1/2-z
7 x,1/2-y,1/2+z
8 1/2-x,1/2+y,z
_cell_length_a                   9.4533(8)
_cell_length_b                   26.088(2)
_cell_length_c                   27.221(2)
_cell_angle_alpha                90
_cell_angle_beta                 90
_cell_angle_gamma                90
_cell_volume                     6713.18
_exptl_crystal_colour            colorless
_exptl_crystal_description       prismatic
_cell_formula_units_Z            4
loop_
_atom_site_label
_atom_site_type_symbol
_atom_site_fract_x
_atom_site_fract_y
_atom_site_fract_z
N1 N 0.6426(7) 0.5554(3) 0.8674(2)
N2 N 0.6067(8) 0.5882(3) 0.8297(2)
N3 N 0.4029(6) 0.3630(2) 1.0361(2)
N4 N 0.2959(6) 0.3294(3) 1.0497(2)
O1 O 0.4879(6) 0.4964(2) 0.84274(19)
O2 O 0.4459(6) 0.6284(3) 0.8753(2)
O3 O 0.2874(5) 0.38160(18) 0.96652(17)
O4 O 0.1508(5) 0.39204(19) 1.07460(17)
O5 O 0.8467(6) 0.4658(3) 1.0210(2)
O6 O 0.5735(11) 0.5996(3) 0.7351(2)
O7 O 0.2053(6) 0.2387(2) 1.0771(2)
C1 C 0.5697(7) 0.5116(3) 0.8731(2)
C2 C 0.5982(7) 0.4828(3) 0.9196(2)
C3 C 0.4933(6) 0.4499(3) 0.9357(2)
H2 H 0.4122 0.4454 0.9169
C4 C 0.5072(6) 0.4237(2) 0.9791(2)
C5 C 0.6280(6) 0.4304(3) 1.0068(2)
H3 H 0.6386 0.4131 1.0365
C6 C 0.7330(6) 0.4629(3) 0.9904(3)
C7 C 0.7194(6) 0.4894(3) 0.9474(2)
H4 H 0.7905 0.5115 0.9369
C8 C 0.3886(6) 0.3882(2) 0.9935(2)
C9 C 0.5007(9) 0.6213(3) 0.8353(3)
C10 C 0.4552(10) 0.6513(4) 0.7909(3)
C11 C 0.3653(13) 0.6909(5) 0.8001(4)
H5 H 0.3368 0.6981 0.8320
C12 C 0.3161(16) 0.7206(6) 0.7607(7)
H6 H 0.2582 0.7489 0.7663
C13 C 0.355(2) 0.7075(8) 0.7143(7)
H7 H 0.3175 0.7260 0.6882
C14 C 0.4427(17) 0.6696(7) 0.7047(5)
H8 H 0.4720 0.6634 0.6726
C15 C 0.4909(13) 0.6392(5) 0.7425(3)
C16 C 0.1697(7) 0.3473(3) 1.0649(2)
C17 C 0.0510(7) 0.3085(3) 1.0673(2)
C18 C -0.0838(8) 0.3275(3) 1.0644(3)
H9 H -0.0971 0.3628 1.0623
C19 C -0.1999(8) 0.2957(4) 1.0644(4)
H10 H -0.2906 0.3092 1.0617
C20 C -0.1802(9) 0.2441(4) 1.0685(4)
H11 H -0.2578 0.2221 1.0680
C21 C -0.0468(9) 0.2244(3) 1.0735(4)
H12 H -0.0349 0.1893 1.0776
C22 C 0.0703(8) 0.2558(3) 1.0724(3)
C23 C 0.9516(9) 0.5135(4) 1.0152(3)
H13 H 0.9082 0.5424 0.9987
H14 H 0.9929 0.5243 1.0461
C24 C 0.5795(19) 0.5814(7) 0.6862(4)
H15 H 0.4898 0.5875 0.6700
H16 H 0.6526 0.5996 0.6683
C25 C 0.609(2) 0.5284(8) 0.6865(5)
H17 H 0.7036 0.5256 0.7014
C26 C 0.627(2) 0.5092(8) 0.6365(6)
H18 H 0.5403 0.5140 0.6186
H19 H 0.6499 0.4734 0.6375
H20 H 0.7017 0.5277 0.6206
C27 C 0.524(3) 0.4921(9) 0.7127(7)
H21 H 0.5463 0.4937 0.7471
H22 H 0.5430 0.4582 0.7006
H23 H 0.4260 0.5001 0.7079
C28 C 0.2339(11) 0.1860(4) 1.0854(5)
H24 H 0.1940 0.1654 1.0592
H25 H 0.1924 0.1750 1.1163
C29 C 0.3994(14) 0.1794(4) 1.0870(7)
H26 H 0.4444 0.1941 1.0578
C30 C 0.4329(18) 0.1264(6) 1.0923(12)
H27 H 0.5332 0.1217 1.0891
H28 H 0.3851 0.1071 1.0673
H29 H 0.4029 0.1147 1.1241
C31 C 0.4413(17) 0.2062(6) 1.1313(7)
H30 H 0.3878 0.1934 1.1586
H31 H 0.4235 0.2422 1.1274
H32 H 0.5403 0.2008 1.1371
H36 H 0.693(6) 0.569(2) 0.892(2)
H37 H 0.634(6) 0.579(2) 0.802(2)
H38 H 0.450(6) 0.372(2) 1.0611(15)
H39 H 0.309(6) 0.298(2) 1.044(2)
N1D N 1.3574(7) 0.4446(3) 1.1326(2)
N2D N 1.3933(8) 0.4118(3) 1.1703(2)
N3D N 1.5971(6) 0.6370(2) 0.9639(2)
N4D N 1.7041(6) 0.6706(3) 0.9503(2)
O1D O 1.5121(6) 0.5036(2) 1.15726(19)
O2D O 1.5541(6) 0.3716(3) 1.1247(2)
O3D O 1.7126(5) 0.61840(18) 1.03348(17)
O4D O 1.8492(5) 0.60796(19) 0.92540(17)
O5D O 1.1533(6) 0.5342(3) 0.9790(2)
O6D O 1.4265(11) 0.4004(3) 1.2649(2)
O7D O 1.7947(6) 0.7613(2) 0.9229(2)
C1D C 1.4303(7) 0.4884(3) 1.1269(2)
C2D C 1.4018(7) 0.5172(3) 1.0804(2)
C3D C 1.5067(6) 0.5501(3) 1.0643(2)
H2D H 1.5878 0.5546 1.0831
C4D C 1.4928(6) 0.5763(2) 1.0209(2)
C5D C 1.3720(6) 0.5696(3) 0.9932(2)
H3D H 1.3614 0.5869 0.9635
C6D C 1.2670(6) 0.5371(3) 1.0096(3)
C7D C 1.2806(6) 0.5106(3) 1.0526(2)
H4D H 1.2095 0.4885 1.0631
C8D C 1.6114(6) 0.6118(2) 1.0065(2)
C9D C 1.4993(9) 0.3787(3) 1.1647(3)
C10D C 1.5448(10) 0.3487(4) 1.2091(3)
C11D C 1.6347(13) 0.3091(5) 1.1999(4)
H5D H 1.6632 0.3019 1.1680
C12D C 1.6839(16) 0.2794(6) 1.2393(7)
H6D H 1.7418 0.2511 1.2337
C13D C 1.645(2) 0.2925(8) 1.2857(7)
H7D H 1.6825 0.2740 1.3118
C14D C 1.5573(17) 0.3304(7) 1.2953(5)
H8D H 1.5280 0.3366 1.3274
C15D C 1.5091(13) 0.3608(5) 1.2575(3)
C16D C 1.8303(7) 0.6527(3) 0.9351(2)
C17D C 1.9490(7) 0.6915(3) 0.9327(2)
C18D C 2.0838(8) 0.6725(3) 0.9356(3)
H9D H 2.0971 0.6372 0.9377
C19D C 2.1999(8) 0.7043(4) 0.9356(4)
H10D H 2.2906 0.6908 0.9383
C20D C 2.1802(9) 0.7559(4) 0.9315(4)
H11D H 2.2578 0.7779 0.9320
C21D C 2.0468(9) 0.7756(3) 0.9265(4)
H12D H 2.0349 0.8107 0.9224
C22D C 1.9297(8) 0.7442(3) 0.9276(3)
C23D C 1.0484(9) 0.4865(4) 0.9848(3)
H13D H 1.0918 0.4576 1.0013
H14D H 1.0071 0.4757 0.9539
C24D C 1.4205(19) 0.4186(7) 1.3138(4)
H15D H 1.5102 0.4125 1.3300
H16D H 1.3474 0.4004 1.3317
C25D C 1.391(2) 0.4716(8) 1.3135(5)
H17D H 1.2964 0.4744 1.2986
C26D C 1.373(2) 0.4908(8) 1.3635(6)
H18D H 1.4597 0.4860 1.3814
H19D H 1.3501 0.5266 1.3625
H20D H 1.2983 0.4723 1.3794
C27D C 1.476(3) 0.5079(9) 1.2873(7)
H21D H 1.4537 0.5063 1.2529
H22D H 1.4570 0.5418 1.2994
H23D H 1.5740 0.4999 1.2921
C28D C 1.7661(11) 0.8140(4) 0.9146(5)
H24D H 1.8060 0.8346 0.9408
H25D H 1.8076 0.8250 0.8837
C29D C 1.6006(14) 0.8206(4) 0.9130(7)
H26D H 1.5556 0.8059 0.9422
C30D C 1.5671(18) 0.8736(6) 0.9077(12)
H27D H 1.4668 0.8783 0.9109
H28D H 1.6149 0.8929 0.9327
H29D H 1.5971 0.8853 0.8759
C31D C 1.5587(17) 0.7938(6) 0.8687(7)
H30D H 1.6122 0.8066 0.8414
H31D H 1.5765 0.7578 0.8726
H32D H 1.4597 0.7992 0.8629
H36D H 1.307(6) 0.431(2) 1.108(2)
H37D H 1.366(6) 0.421(2) 1.198(2)
H38D H 1.550(6) 0.628(2) 0.9389(15)
H39D H 1.691(6) 0.702(2) 0.956(2)
O8 O 0.531(4) 0.3802(17) 0.8110(13)
H1 H 0.5592 0.3888 0.8382
C32 C 0.381(4) 0.3757(13) 0.8119(13)
H33 H 0.3520 0.3598 0.8422
H34 H 0.3500 0.3550 0.7848
H35 H 0.3388 0.4091 0.8096
loop_
_geom_bond_atom_site_label_1
_geom_bond_atom_site_label_2
_geom_bond_site_symmetry_1
_geom_bond_site_symmetry_2
N1 N2 1_555 1_555
N2 C9 1_555 1_555
N3 N4 1_555 1_555
N4 C16 1_555 1_555
O1 C1 1_555 1_555
O2 C9 1_555 1_555
O3 C8 1_555 1_555
O4 C16 1_555 1_555
O5 C6 1_555 1_555
O6 C15 1_555 1_555
O7 C22 1_555 1_555
O8 H1 1_555 1_555
C1 N1 1_555 1_555
C2 C1 1_555 1_555
C3 C2 1_555 1_555
H2 C3 1_555 1_555
C4 C3 1_555 1_555
C5 C4 1_555 1_555
H3 C5 1_555 1_555
C6 C5 1_555 1_555
C7 C2 1_555 1_555
H4 C7 1_555 1_555
C8 N3 1_555 1_555
C9 C10 1_555 1_555
C10 C11 1_555 1_555
C11 H5 1_555 1_555
C12 C11 1_555 1_555
H6 C12 1_555 1_555
C13 C12 1_555 1_555
H7 C13 1_555 1_555
C14 C13 1_555 1_555
H8 C14 1_555 1_555
C15 C10 1_555 1_555
C16 C17 1_555 1_555
C17 C18 1_555 1_555
C18 H9 1_555 1_555
C19 C18 1_555 1_555
H10 C19 1_555 1_555
C20 C19 1_555 1_555
H11 C20 1_555 1_555
C21 C20 1_555 1_555
H12 C21 1_555 1_555
C22 C17 1_555 1_555
C23 O5 1_555 1_555
H13 C23 1_555 1_555
H14 C23 1_555 1_555
C24 O6 1_555 1_555
H15 C24 1_555 1_555
H16 C24 1_555 1_555
C25 C24 1_555 1_555
H17 C25 1_555 1_555
C26 C25 1_555 1_555
H18 C26 1_555 1_555
H19 C26 1_555 1_555
H20 C26 1_555 1_555
C27 C25 1_555 1_555
H21 C27 1_555 1_555
H22 C27 1_555 1_555
H23 C27 1_555 1_555
C28 O7 1_555 1_555
H24 C28 1_555 1_555
H25 C28 1_555 1_555
C29 C28 1_555 1_555
H26 C29 1_555 1_555
C30 C29 1_555 1_555
H27 C30 1_555 1_555
H28 C30 1_555 1_555
H29 C30 1_555 1_555
C31 C29 1_555 1_555
H30 C31 1_555 1_555
H31 C31 1_555 1_555
H32 C31 1_555 1_555
C32 O8 1_555 1_555
H33 C32 1_555 1_555
H34 C32 1_555 1_555
H35 C32 1_555 1_555
H36 N1 1_555 1_555
H37 N2 1_555 1_555
H38 N3 1_555 1_555
H39 N4 1_555 1_555
N1D N2D 1_555 1_555
N2D C9D 1_555 1_555
N3D N4D 1_555 1_555
N4D C16D 1_555 1_555
O1D C1D 1_555 1_555
O2D C9D 1_555 1_555
O3D C8D 1_555 1_555
O4D C16D 1_555 1_555
O5D C6D 1_555 1_555
O6D C15D 1_555 1_555
O7D C22D 1_555 1_555
C1D N1D 1_555 1_555
C2D C1D 1_555 1_555
C3D C2D 1_555 1_555
H2D C3D 1_555 1_555
C4D C3D 1_555 1_555
C5D C4D 1_555 1_555
H3D C5D 1_555 1_555
C6D C5D 1_555 1_555
C7D C2D 1_555 1_555
H4D C7D 1_555 1_555
C8D N3D 1_555 1_555
C9D C10D 1_555 1_555
C10D C11D 1_555 1_555
C11D H5D 1_555 1_555
C12D C11D 1_555 1_555
H6D C12D 1_555 1_555
C13D C12D 1_555 1_555
H7D C13D 1_555 1_555
C14D C13D 1_555 1_555
H8D C14D 1_555 1_555
C15D C10D 1_555 1_555
C16D C17D 1_555 1_555
C17D C18D 1_555 1_555
C18D H9D 1_555 1_555
C19D C18D 1_555 1_555
H10D C19D 1_555 1_555
C20D C19D 1_555 1_555
H11D C20D 1_555 1_555
C21D C20D 1_555 1_555
H12D C21D 1_555 1_555
C22D C17D 1_555 1_555
C23D C23 1_555 1_555
H13D C23D 1_555 1_555
H14D C23D 1_555 1_555
C24D O6D 1_555 1_555
H15D C24D 1_555 1_555
H16D C24D 1_555 1_555
C25D C24D 1_555 1_555
H17D C25D 1_555 1_555
C26D C25D 1_555 1_555
H18D C26D 1_555 1_555
H19D C26D 1_555 1_555
H20D C26D 1_555 1_555
C27D C25D 1_555 1_555
H21D C27D 1_555 1_555
H22D C27D 1_555 1_555
H23D C27D 1_555 1_555
C28D O7D 1_555 1_555
H24D C28D 1_555 1_555
H25D C28D 1_555 1_555
C29D C28D 1_555 1_555
H26D C29D 1_555 1_555
C30D C29D 1_555 1_555
H27D C30D 1_555 1_555
H28D C30D 1_555 1_555
H29D C30D 1_555 1_555
C31D C29D 1_555 1_555
H30D C31D 1_555 1_555
H31D C31D 1_555 1_555
H32D C31D 1_555 1_555
H36D N1D 1_555 1_555
H37D N2D 1_555 1_555
H38D N3D 1_555 1_555
H39D N4D 1_555 1_555
C4 C8 1_555 1_555
C6 C7 1_555 1_555
C14 C15 1_555 1_555
C21 C22 1_555 1_555
O5D C23D 1_555 1_555
C4D C8D 1_555 1_555
C6D C7D 1_555 1_555
C14D C15D 1_555 1_555
C21D C22D 1_555 1_555

#END
