
#######################################################################
#
#                 Cambridge Crystallographic Data Centre
#                                CCDC 
#
#######################################################################
#
# If this CIF has been generated from an entry in the Cambridge 
# Structural Database, then it will include bibliographic, chemical, 
# crystal, experimental, refinement or atomic coordinate data resulting 
# from the CCDC's data processing and validation procedures.
#
#######################################################################

data_BUGQUQ
_chemical_name_common            
21-nitro-8alpha-phenyl-6alpha,14alpha-endo-ethenotetrahydrothebaine
_chemical_formula_moiety         'C27 H28 N2 O5'
_chemical_name_systematic        
3,6-Dimethoxy-17-methyl-19-(3-nitrophenyl)-7,8-didehydro-18,19-dihydro-4,5-epoxy-6,14-ethenomorphinan
_symmetry_cell_setting           monoclinic
_symmetry_space_group_name_H-M   'P 21'
_symmetry_Int_Tables_number      4
_space_group_name_Hall           'P 2yb'
loop_
_symmetry_equiv_pos_site_id
_symmetry_equiv_pos_as_xyz
1 x,y,z
2 -x,1/2+y,-z
_cell_length_a                   7.450(3)
_cell_length_b                   7.917(3)
_cell_length_c                   19.126(7)
_cell_angle_alpha                90
_cell_angle_beta                 93.072(5)
_cell_angle_gamma                90
_cell_volume                     1126.46
_exptl_crystal_colour            colorless
_exptl_crystal_description       parallelepiped
_cell_formula_units_Z            2
loop_
_atom_site_label
_atom_site_type_symbol
_atom_site_fract_x
_atom_site_fract_y
_atom_site_fract_z
N1 N 0.7638(5) 0.3870(6) 0.00274(19)
N2 N 0.5067(5) -0.0654(5) 0.28997(19)
O1 O 0.0107(4) 0.4024(6) 0.30645(15)
O2 O 0.0140(6) 0.6280(7) 0.41961(18)
O3 O -0.0091(5) 0.4600(6) 0.14800(17)
O4 O 0.8560(5) 0.3660(6) -0.0472(2)
O5 O 0.7207(5) 0.5269(5) 0.02343(18)
C1 C 0.5023(5) 0.1179(6) 0.11904(17)
C2 C 0.5653(5) 0.2580(6) 0.08469(18)
H1 H 0.5173 0.3644 0.0926
C3 C 0.6996(5) 0.2383(6) 0.03866(19)
C4 C 0.7758(5) 0.0841(7) 0.0243(2)
H2 H 0.8640 0.0741 -0.0080
C5 C 0.7161(6) -0.0542(6) 0.0599(2)
H3 H 0.7657 -0.1600 0.0524
C6 C 0.5813(5) -0.0360(6) 0.1072(2)
H4 H 0.5437 -0.1304 0.1314
C7 C 0.4646(7) 0.4242(8) 0.4364(2)
H5 H 0.5736 0.4365 0.4619
C8 C 0.3195(8) 0.5276(8) 0.4516(2)
H6 H 0.3316 0.6015 0.4893
C9 C 0.1583(7) 0.5232(7) 0.4120(2)
C10 C 0.1453(6) 0.4068(7) 0.35846(19)
C11 C 0.0726(5) 0.2879(7) 0.2526(2)
H7 H -0.0236 0.2076 0.2397
C12 C 0.1317(5) 0.3761(7) 0.1857(2)
C13 C 0.3474(5) 0.1268(6) 0.16788(18)
H8 H 0.319(7) 0.003(8) 0.176(3)
C14 C 0.1838(5) 0.2286(7) 0.1377(2)
H9 H 0.0818 0.1532 0.1308
H10 H 0.2112 0.2735 0.0923
C15 C 0.5544(5) 0.1145(6) 0.28302(19)
H11 H 0.6612 0.1195 0.2553
C16 C 0.6027(6) 0.2073(7) 0.3540(2)
H12 H 0.6462 0.1244 0.3882
H13 H 0.6999 0.2859 0.3470
C17 C 0.4480(6) 0.3032(7) 0.38373(18)
C18 C 0.2797(5) 0.2944(6) 0.34906(18)
C19 C 0.2351(5) 0.1900(6) 0.28585(19)
C20 C 0.4017(5) 0.2059(6) 0.24060(17)
C21 C 0.1923(6) 0.0074(7) 0.3026(2)
H14 H 0.0980 0.0047 0.3356
H15 H 0.1473 -0.0486 0.2601
C22 C 0.3532(7) -0.0882(7) 0.3331(2)
H16 H 0.3835 -0.0480 0.3801
H17 H 0.3243 -0.2074 0.3358
C23 C 0.4362(5) 0.3899(6) 0.22945(18)
H18 H 0.5470 0.4397 0.2409
C24 C 0.2990(6) 0.4757(6) 0.20245(19)
H19 H 0.3053 0.5913 0.1942
C25 C 0.6584(9) -0.1688(10) 0.3146(3)
H20 H 0.6207 -0.2843 0.3181
H21 H 0.7026 -0.1296 0.3599
H22 H 0.7522 -0.1608 0.2823
C26 C -0.0723(8) 0.6122(10) 0.1770(3)
H23 H 0.0176 0.6984 0.1739
H24 H -0.0968 0.5941 0.2252
H25 H -0.1804 0.6471 0.1514
C27 C 0.0076(14) 0.7275(13) 0.4776(3)
H26 H 0.1013 0.8106 0.4773
H27 H 0.0239 0.6588 0.5189
H28 H -0.1070 0.7829 0.4776
loop_
_geom_bond_atom_site_label_1
_geom_bond_atom_site_label_2
_geom_bond_site_symmetry_1
_geom_bond_site_symmetry_2
N1 O4 1_555 1_555
N2 C15 1_555 1_555
O1 C10 1_555 1_555
O2 C9 1_555 1_555
O3 C12 1_555 1_555
O5 N1 1_555 1_555
C1 C2 1_555 1_555
C2 H1 1_555 1_555
C3 N1 1_555 1_555
C4 C3 1_555 1_555
H2 C4 1_555 1_555
C5 C4 1_555 1_555
H3 C5 1_555 1_555
C6 C1 1_555 1_555
H4 C6 1_555 1_555
C7 H5 1_555 1_555
C8 C7 1_555 1_555
H6 C8 1_555 1_555
C9 C8 1_555 1_555
C10 C9 1_555 1_555
C11 O1 1_555 1_555
H7 C11 1_555 1_555
C12 C11 1_555 1_555
C13 C1 1_555 1_555
H8 C13 1_555 1_555
C14 C12 1_555 1_555
H9 C14 1_555 1_555
H10 C14 1_555 1_555
C15 H11 1_555 1_555
C16 C15 1_555 1_555
H12 C16 1_555 1_555
H13 C16 1_555 1_555
C17 C7 1_555 1_555
C18 C10 1_555 1_555
C19 C11 1_555 1_555
C20 C13 1_555 1_555
C21 C19 1_555 1_555
H14 C21 1_555 1_555
H15 C21 1_555 1_555
C22 N2 1_555 1_555
H16 C22 1_555 1_555
H17 C22 1_555 1_555
C23 C20 1_555 1_555
H18 C23 1_555 1_555
C24 C12 1_555 1_555
H19 C24 1_555 1_555
C25 N2 1_555 1_555
H20 C25 1_555 1_555
H21 C25 1_555 1_555
H22 C25 1_555 1_555
C26 O3 1_555 1_555
H23 C26 1_555 1_555
H24 C26 1_555 1_555
H25 C26 1_555 1_555
C27 O2 1_555 1_555
H26 C27 1_555 1_555
H27 C27 1_555 1_555
H28 C27 1_555 1_555
C2 C3 1_555 1_555
C5 C6 1_555 1_555
C13 C14 1_555 1_555
C15 C20 1_555 1_555
C16 C17 1_555 1_555
C17 C18 1_555 1_555
C18 C19 1_555 1_555
C19 C20 1_555 1_555
C21 C22 1_555 1_555
C23 C24 1_555 1_555

#END
