
#######################################################################
#
#                 Cambridge Crystallographic Data Centre
#                                CCDC 
#
#######################################################################
#
# If this CIF has been generated from an entry in the Cambridge 
# Structural Database, then it will include bibliographic, chemical, 
# crystal, experimental, refinement or atomic coordinate data resulting 
# from the CCDC's data processing and validation procedures.
#
#######################################################################

data_BUGQUP
_chemical_formula_moiety         'C50 H36 N4 O4 P2,0.5(C1 H2 Cl2)'
_chemical_name_systematic        
'rac-1,2-bis(1,3-Diphenyl-2,3-dihydro-1H-(1,2,4)diazaphospholyl-(1,2-b)phthalazine-5,10-dione)benzene dichloromethane solvate'
_symmetry_cell_setting           monoclinic
_symmetry_space_group_name_H-M   'C 2/c'
_symmetry_Int_Tables_number      15
_space_group_name_Hall           '-C 2yn'
loop_
_symmetry_equiv_pos_site_id
_symmetry_equiv_pos_as_xyz
1 x,y,z
2 1/2+x,1/2+y,z
3 x,-y,1/2+z
4 1/2+x,1/2-y,1/2+z
5 -x,-y,-z
6 1/2-x,1/2-y,-z
7 -x,y,1/2-z
8 1/2-x,1/2+y,1/2-z
_cell_length_a                   22.304(3)
_cell_length_b                   20.373(3)
_cell_length_c                   20.207(3)
_cell_angle_alpha                90
_cell_angle_beta                 101.770(2)
_cell_angle_gamma                90
_cell_volume                     8988.99
_exptl_crystal_colour            colorless
_exptl_crystal_description       prism
_cell_formula_units_Z            8
loop_
_atom_site_label
_atom_site_type_symbol
_atom_site_fract_x
_atom_site_fract_y
_atom_site_fract_z
P1 P 0.08125(5) 0.16098(5) 0.60467(5)
P2 P 0.17494(5) 0.18365(5) 0.74265(5)
O1 O 0.05707(12) 0.08130(13) 0.39414(13)
O2 O 0.06694(12) 0.33826(13) 0.45745(13)
O3 O 0.22255(12) 0.00594(12) 0.88600(13)
O4 O 0.36259(11) 0.21786(13) 0.87643(12)
N1 N 0.06176(14) 0.16387(15) 0.46938(15)
N2 N 0.07118(14) 0.23115(15) 0.48761(15)
N3 N 0.24120(14) 0.10024(14) 0.83454(16)
N4 N 0.27691(14) 0.15925(15) 0.83729(15)
C1 C 0.04380(17) 0.12327(18) 0.52207(17)
H1 H 0.0608 0.0781 0.5195
C2 C 0.07912(18) 0.24366(17) 0.56045(18)
H2 H 0.0421 0.2679 0.5681
C3 C 0.06435(17) 0.1406(2) 0.4062(2)
C4 C 0.07306(16) 0.1901(2) 0.35673(19)
C5 C 0.08013(17) 0.1697(2) 0.2928(2)
H3 H 0.0815 0.1243 0.2829
C6 C 0.08515(19) 0.2160(2) 0.2438(2)
H4 H 0.0915 0.2024 0.2008
C7 C 0.08082(18) 0.2827(2) 0.2582(2)
H5 H 0.0824 0.3143 0.2240
C8 C 0.07425(17) 0.3032(2) 0.3216(2)
H6 H 0.0720 0.3487 0.3310
C9 C 0.07097(17) 0.2573(2) 0.37150(19)
C10 C 0.06773(17) 0.2802(2) 0.4400(2)
C11 C 0.1349(2) 0.28611(19) 0.5872(2)
C12 C 0.1322(2) 0.3329(2) 0.6376(2)
H7 H 0.0953 0.3389 0.6535
C13 C 0.1841(3) 0.3710(2) 0.6647(3)
H8 H 0.1815 0.4038 0.6975
C14 C 0.2381(3) 0.3614(2) 0.6444(3)
H9 H 0.2732 0.3861 0.6646
C15 C 0.2422(2) 0.3157(2) 0.5947(2)
H10 H 0.2797 0.3097 0.5800
C16 C 0.1903(2) 0.2780(2) 0.5659(2)
H11 H 0.1931 0.2468 0.5317
C17 C -0.02553(18) 0.11809(18) 0.51513(18)
C18 C -0.06677(18) 0.16259(18) 0.47881(19)
H12 H -0.0522 0.1988 0.4571
C19 C -0.12958(19) 0.1542(2) 0.4741(2)
H13 H -0.1576 0.1844 0.4488
C20 C -0.15119(18) 0.1018(2) 0.5063(2)
H14 H -0.1940 0.0963 0.5033
C21 C -0.11017(18) 0.05758(19) 0.54282(19)
H15 H -0.1249 0.0219 0.5652
C22 C -0.04735(18) 0.06518(18) 0.54686(19)
H16 H -0.0195 0.0342 0.5713
C23 C 0.17731(17) 0.10880(17) 0.79877(19)
H17 H 0.1518 0.1180 0.8331
C24 C 0.24448(16) 0.21535(18) 0.80065(18)
H18 H 0.2717 0.2366 0.7732
C25 C 0.25918(18) 0.04963(19) 0.88006(19)
C26 C 0.32295(18) 0.05160(19) 0.91769(19)
C27 C 0.34735(19) -0.0025(2) 0.9565(2)
H19 H 0.3236 -0.0413 0.9560
C28 C 0.4053(2) 0.0001(2) 0.9952(2)
H20 H 0.4215 -0.0365 1.0221
C29 C 0.4407(2) 0.0568(2) 0.9951(2)
H21 H 0.4806 0.0584 1.0228
C30 C 0.41883(18) 0.1108(2) 0.9554(2)
H22 H 0.4434 0.1488 0.9549
C31 C 0.35931(18) 0.10740(19) 0.91628(19)
C32 C 0.33432(19) 0.1652(2) 0.87629(19)
C33 C 0.22615(17) 0.26607(18) 0.84768(19)
C34 C 0.20281(19) 0.2497(2) 0.9036(2)
H23 H 0.2019 0.2049 0.9166
C35 C 0.1804(2) 0.2978(2) 0.9417(2)
H24 H 0.1642 0.2859 0.9800
C36 C 0.18213(18) 0.3629(2) 0.9230(2)
H25 H 0.1667 0.3957 0.9484
C37 C 0.2058(2) 0.3805(2) 0.8682(2)
H26 H 0.2068 0.4254 0.8557
C38 C 0.22835(19) 0.33265(19) 0.8311(2)
H27 H 0.2456 0.3452 0.7937
C39 C 0.14988(18) 0.04966(18) 0.75669(19)
C40 C 0.08630(18) 0.04203(18) 0.74489(19)
H28 H 0.0626 0.0691 0.7680
C41 C 0.05757(19) -0.0052(2) 0.6994(2)
H29 H 0.0144 -0.0107 0.6917
C42 C 0.0921(2) -0.04417(19) 0.6655(2)
H30 H 0.0725 -0.0751 0.6330
C43 C 0.1545(2) -0.03827(19) 0.6785(2)
H31 H 0.1778 -0.0664 0.6560
C44 C 0.18457(19) 0.00817(19) 0.7242(2)
H32 H 0.2280 0.0115 0.7332
C45 C 0.16208(17) 0.13609(18) 0.6107(2)
C46 C 0.18276(19) 0.10386(19) 0.5581(2)
H33 H 0.1544 0.0940 0.5175
C47 C 0.2442(2) 0.0860(2) 0.5644(2)
H34 H 0.2570 0.0627 0.5290
C48 C 0.2863(2) 0.1024(2) 0.6223(2)
H35 H 0.3285 0.0927 0.6258
C49 C 0.2666(2) 0.1329(2) 0.6748(2)
H36 H 0.2957 0.1435 0.7146
C50 C 0.20489(18) 0.14871(18) 0.67136(19)
loop_
_geom_bond_atom_site_label_1
_geom_bond_atom_site_label_2
_geom_bond_site_symmetry_1
_geom_bond_site_symmetry_2
P1 C1 1_555 1_555
P2 C23 1_555 1_555
O1 C3 1_555 1_555
O2 C10 1_555 1_555
O3 C25 1_555 1_555
O4 C32 1_555 1_555
N1 N2 1_555 1_555
N2 C2 1_555 1_555
N3 N4 1_555 1_555
N4 C24 1_555 1_555
C1 N1 1_555 1_555
H1 C1 1_555 1_555
C2 P1 1_555 1_555
H2 C2 1_555 1_555
C3 N1 1_555 1_555
C4 C3 1_555 1_555
C5 C4 1_555 1_555
H3 C5 1_555 1_555
C6 C5 1_555 1_555
H4 C6 1_555 1_555
C7 C6 1_555 1_555
H5 C7 1_555 1_555
C8 C7 1_555 1_555
H6 C8 1_555 1_555
C9 C4 1_555 1_555
C10 N2 1_555 1_555
C11 C2 1_555 1_555
C12 C11 1_555 1_555
H7 C12 1_555 1_555
C13 C12 1_555 1_555
H8 C13 1_555 1_555
C14 C13 1_555 1_555
H9 C14 1_555 1_555
C15 C14 1_555 1_555
H10 C15 1_555 1_555
C16 C11 1_555 1_555
H11 C16 1_555 1_555
C17 C1 1_555 1_555
C18 C17 1_555 1_555
H12 C18 1_555 1_555
C19 C18 1_555 1_555
H13 C19 1_555 1_555
C20 C19 1_555 1_555
H14 C20 1_555 1_555
C21 C20 1_555 1_555
H15 C21 1_555 1_555
C22 C17 1_555 1_555
H16 C22 1_555 1_555
C23 N3 1_555 1_555
H17 C23 1_555 1_555
C24 P2 1_555 1_555
H18 C24 1_555 1_555
C25 N3 1_555 1_555
C26 C25 1_555 1_555
C27 C26 1_555 1_555
H19 C27 1_555 1_555
C28 C27 1_555 1_555
H20 C28 1_555 1_555
C29 C28 1_555 1_555
H21 C29 1_555 1_555
C30 C29 1_555 1_555
H22 C30 1_555 1_555
C31 C26 1_555 1_555
C32 N4 1_555 1_555
C33 C24 1_555 1_555
C34 C33 1_555 1_555
H23 C34 1_555 1_555
C35 C34 1_555 1_555
H24 C35 1_555 1_555
C36 C35 1_555 1_555
H25 C36 1_555 1_555
C37 C36 1_555 1_555
H26 C37 1_555 1_555
C38 C33 1_555 1_555
H27 C38 1_555 1_555
C39 C23 1_555 1_555
C40 C39 1_555 1_555
H28 C40 1_555 1_555
C41 C40 1_555 1_555
H29 C41 1_555 1_555
C42 C41 1_555 1_555
H30 C42 1_555 1_555
C43 C42 1_555 1_555
H31 C43 1_555 1_555
C44 C39 1_555 1_555
H32 C44 1_555 1_555
C45 P1 1_555 1_555
C46 C45 1_555 1_555
H33 C46 1_555 1_555
C47 C46 1_555 1_555
H34 C47 1_555 1_555
C48 C47 1_555 1_555
H35 C48 1_555 1_555
C49 C48 1_555 1_555
H36 C49 1_555 1_555
C50 P2 1_555 1_555
C8 C9 1_555 1_555
C9 C10 1_555 1_555
C15 C16 1_555 1_555
C21 C22 1_555 1_555
C30 C31 1_555 1_555
C31 C32 1_555 1_555
C37 C38 1_555 1_555
C43 C44 1_555 1_555
C45 C50 1_555 1_555
C49 C50 1_555 1_555

#END
