
#######################################################################
#
#                 Cambridge Crystallographic Data Centre
#                                CCDC 
#
#######################################################################
#
# If this CIF has been generated from an entry in the Cambridge 
# Structural Database, then it will include bibliographic, chemical, 
# crystal, experimental, refinement or atomic coordinate data resulting 
# from the CCDC's data processing and validation procedures.
#
#######################################################################

data_BUGQOJ
_chemical_formula_moiety         'C28 H11 F10 N2 O2 P1'
_chemical_name_systematic        
rac-1,2-bis(Perfluorophenyl)-2-phenyl-2,3-dihydro-1H-(1,2,4)diazaphospholo-(1,2-b)phthalazine-5,10-dione
_symmetry_cell_setting           monoclinic
_symmetry_space_group_name_H-M   'P 21/n'
_symmetry_Int_Tables_number      14
_space_group_name_Hall           '-P 2yn'
loop_
_symmetry_equiv_pos_site_id
_symmetry_equiv_pos_as_xyz
1 x,y,z
2 1/2+x,1/2-y,1/2+z
3 -x,-y,-z
4 1/2-x,1/2+y,1/2-z
_cell_length_a                   17.559(2)
_cell_length_b                   7.4607(10)
_cell_length_c                   18.904(3)
_cell_angle_alpha                90
_cell_angle_beta                 91.015(2)
_cell_angle_gamma                90
_cell_volume                     2476.08
_exptl_crystal_colour            'pale yellow'
_exptl_crystal_description       prism
_cell_formula_units_Z            4
loop_
_atom_site_label
_atom_site_type_symbol
_atom_site_fract_x
_atom_site_fract_y
_atom_site_fract_z
P1 P 0.46460(3) 0.79409(8) 0.17557(3)
F1 F 0.35644(6) 0.56952(15) 0.27565(6)
F2 F 0.21456(6) 0.59011(16) 0.33058(6)
F3 F 0.16066(6) 0.90764(15) 0.38134(6)
F4 F 0.25146(6) 1.21100(16) 0.37722(6)
F5 F 0.39370(6) 1.19164(15) 0.32483(6)
F6 F 0.49641(6) 0.39084(14) 0.07168(5)
F7 F 0.61646(6) 0.33638(15) -0.01486(6)
F8 F 0.76170(6) 0.42960(16) 0.02897(6)
F9 F 0.78518(6) 0.57007(16) 0.16254(6)
F10 F 0.66670(6) 0.63370(15) 0.24773(6)
O1 O 0.51346(7) 0.92875(19) 0.40839(7)
O2 O 0.55441(7) 0.27974(18) 0.28615(7)
N1 N 0.51876(9) 0.5719(2) 0.28161(8)
N2 N 0.51216(9) 0.7461(2) 0.31227(9)
C1 C 0.46267(10) 0.8703(3) 0.27082(10)
H1 H 0.4853 0.9931 0.2737
C2 C 0.50616(11) 0.5653(3) 0.20440(10)
H2 H 0.4664 0.4722 0.1945
C3 C 0.52954(11) 0.7803(3) 0.38292(11)
C4 C 0.56562(10) 0.6298(3) 0.42365(11)
C5 C 0.58856(11) 0.6580(3) 0.49431(11)
H3 H 0.5841 0.7735 0.5150
C6 C 0.61812(11) 0.5140(3) 0.53414(11)
H4 H 0.6346 0.5327 0.5817
C7 C 0.62345(11) 0.3427(3) 0.50397(11)
H5 H 0.6431 0.2458 0.5313
C8 C 0.59989(11) 0.3146(3) 0.43386(11)
H6 H 0.6032 0.1981 0.4138
C9 C 0.57137(10) 0.4572(3) 0.39284(10)
C10 C 0.54806(11) 0.4247(3) 0.31806(11)
C11 C 0.38147(11) 0.8785(3) 0.29977(10)
C12 C 0.33269(11) 0.7307(3) 0.30168(10)
C13 C 0.25971(12) 0.7380(3) 0.32920(10)
C14 C 0.23234(11) 0.8999(3) 0.35492(11)
C15 C 0.27835(12) 1.0508(3) 0.35356(10)
C16 C 0.35124(12) 1.0382(3) 0.32638(10)
C17 C 0.57662(11) 0.5150(3) 0.16243(11)
C18 C 0.56815(11) 0.4374(3) 0.09532(11)
C19 C 0.62869(12) 0.4097(3) 0.05024(11)
C20 C 0.70178(12) 0.4571(3) 0.07237(11)
C21 C 0.71317(12) 0.5275(3) 0.13920(12)
C22 C 0.65168(12) 0.5578(3) 0.18312(11)
C23 C 0.55156(11) 0.8997(3) 0.14133(11)
C24 C 0.56085(12) 0.8827(3) 0.06761(11)
H7 H 0.5202 0.8367 0.0392
C25 C 0.62903(12) 0.9324(3) 0.03573(12)
H8 H 0.6350 0.9175 -0.0138
C26 C 0.68819(12) 1.0040(3) 0.07711(12)
H9 H 0.7348 1.0359 0.0557
C27 C 0.67945(12) 1.0293(3) 0.14995(12)
H10 H 0.7197 1.0805 0.1774
C28 C 0.61159(11) 0.9793(3) 0.18242(11)
H11 H 0.6055 0.9983 0.2317
loop_
_geom_bond_atom_site_label_1
_geom_bond_atom_site_label_2
_geom_bond_site_symmetry_1
_geom_bond_site_symmetry_2
P1 C1 1_555 1_555
F1 C12 1_555 1_555
F2 C13 1_555 1_555
F3 C14 1_555 1_555
F4 C15 1_555 1_555
F5 C16 1_555 1_555
F6 C18 1_555 1_555
F7 C19 1_555 1_555
F8 C20 1_555 1_555
F9 C21 1_555 1_555
F10 C22 1_555 1_555
O1 C3 1_555 1_555
O2 C10 1_555 1_555
N1 N2 1_555 1_555
N2 C1 1_555 1_555
C1 H1 1_555 1_555
C2 P1 1_555 1_555
H2 C2 1_555 1_555
C3 N2 1_555 1_555
C4 C3 1_555 1_555
C5 C4 1_555 1_555
H3 C5 1_555 1_555
C6 C5 1_555 1_555
H4 C6 1_555 1_555
C7 C6 1_555 1_555
H5 C7 1_555 1_555
C8 C7 1_555 1_555
H6 C8 1_555 1_555
C9 C4 1_555 1_555
C10 N1 1_555 1_555
C11 C1 1_555 1_555
C12 C11 1_555 1_555
C13 C12 1_555 1_555
C14 C13 1_555 1_555
C15 C14 1_555 1_555
C16 C11 1_555 1_555
C17 C2 1_555 1_555
C18 C17 1_555 1_555
C19 C18 1_555 1_555
C20 C19 1_555 1_555
C21 C20 1_555 1_555
C22 C17 1_555 1_555
C23 P1 1_555 1_555
C24 C23 1_555 1_555
H7 C24 1_555 1_555
C25 C24 1_555 1_555
H8 C25 1_555 1_555
C26 C25 1_555 1_555
H9 C26 1_555 1_555
C27 C26 1_555 1_555
H10 C27 1_555 1_555
C28 C23 1_555 1_555
H11 C28 1_555 1_555
N1 C2 1_555 1_555
C8 C9 1_555 1_555
C9 C10 1_555 1_555
C15 C16 1_555 1_555
C21 C22 1_555 1_555
C27 C28 1_555 1_555

#END
