
#######################################################################
#
#                 Cambridge Crystallographic Data Centre
#                                CCDC 
#
#######################################################################
#
# If this CIF has been generated from an entry in the Cambridge 
# Structural Database, then it will include bibliographic, chemical, 
# crystal, experimental, refinement or atomic coordinate data resulting 
# from the CCDC's data processing and validation procedures.
#
#######################################################################

data_BUGQAV
_chemical_formula_moiety         'C34 H32 N4 P2'
_chemical_name_systematic        
1,2-bis(3,5-diphenyl-3,4-diazaphospholanyl)benzene
_symmetry_cell_setting           monoclinic
_symmetry_space_group_name_H-M   'C 2/c'
_symmetry_Int_Tables_number      15
_space_group_name_Hall           '-C 2yn'
loop_
_symmetry_equiv_pos_site_id
_symmetry_equiv_pos_as_xyz
1 x,y,z
2 1/2+x,1/2+y,z
3 x,-y,1/2+z
4 1/2+x,1/2-y,1/2+z
5 -x,-y,-z
6 1/2-x,1/2-y,-z
7 -x,y,1/2-z
8 1/2-x,1/2+y,1/2-z
_cell_length_a                   15.5844(19)
_cell_length_b                   11.8756(12)
_cell_length_c                   16.5320(18)
_cell_angle_alpha                90
_cell_angle_beta                 111.021(2)
_cell_angle_gamma                90
_cell_volume                     2856.02
_exptl_crystal_colour            colorless
_exptl_crystal_description       prism
_cell_formula_units_Z            4
loop_
_atom_site_label
_atom_site_type_symbol
_atom_site_fract_x
_atom_site_fract_y
_atom_site_fract_z
P1 P 0.51734(2) 0.29763(3) 0.35059(2)
C1 C 0.50628(9) 0.43464(11) 0.29461(7)
C2 C 0.51156(9) 0.53794(11) 0.33680(8)
H1 H 0.5192 0.5386 0.3965
C3 C 0.50586(9) 0.63960(11) 0.29361(8)
H2 H 0.5100 0.7088 0.3237
C4 C 0.64670(9) 0.29981(10) 0.41050(8)
H3 H 0.6639 0.2267 0.4422
C5 C 0.70157(9) 0.30952(11) 0.35189(8)
C6 C 0.72705(12) 0.41203(13) 0.32711(12)
H4 H 0.7108 0.4801 0.3483
C7 C 0.77641(13) 0.41619(15) 0.27120(13)
H5 H 0.7936 0.4870 0.2549
C8 C 0.80034(11) 0.31833(15) 0.23966(10)
H6 H 0.8333 0.3214 0.2012
C9 C 0.77601(11) 0.21604(14) 0.26446(10)
H7 H 0.7931 0.1482 0.2437
C10 C 0.72646(10) 0.21163(12) 0.31980(9)
H8 H 0.7094 0.1406 0.3358
N1 N 0.66566(7) 0.38900(9) 0.47586(7)
H9 H 0.6603 0.4578 0.4501
N2 N 0.59469(7) 0.39013(9) 0.51311(7)
H10 H 0.6163 0.3437 0.5615
C11 C 0.50513(9) 0.34256(11) 0.45456(8)
H11 H 0.4582 0.4040 0.4409
C12 C 0.47038(9) 0.24548(12) 0.49389(8)
C13 C 0.37596(11) 0.23600(15) 0.47489(10)
H12 H 0.3356 0.2911 0.4394
C14 C 0.34015(13) 0.14662(17) 0.50739(12)
H13 H 0.2756 0.1405 0.4931
C15 C 0.39783(15) 0.06703(15) 0.56011(12)
H14 H 0.3733 0.0067 0.5827
C16 C 0.49112(14) 0.07546(13) 0.57982(11)
H15 H 0.5310 0.0208 0.6163
C17 C 0.52793(11) 0.16405(12) 0.54651(9)
H16 H 0.5924 0.1685 0.5599
C1F C 0.49372(9) 0.43464(11) 0.20539(7)
P1F P 0.48266(2) 0.29763(3) 0.14941(2)
C4F C 0.35330(9) 0.29981(10) 0.08950(8)
H3F H 0.3361 0.2267 0.0578
C5F C 0.29843(9) 0.30952(11) 0.14811(8)
C6F C 0.27295(12) 0.41203(13) 0.17289(12)
H4F H 0.2892 0.4801 0.1517
C7F C 0.22359(13) 0.41619(15) 0.22880(13)
H5F H 0.2064 0.4870 0.2451
C8F C 0.19966(11) 0.31833(15) 0.26034(10)
H6F H 0.1667 0.3214 0.2988
C9F C 0.22399(11) 0.21604(14) 0.23554(10)
H7F H 0.2069 0.1482 0.2563
C10F C 0.27354(10) 0.21163(12) 0.18020(9)
H8F H 0.2906 0.1406 0.1642
N1F N 0.33434(7) 0.38900(9) 0.02414(7)
H9F H 0.3397 0.4578 0.0499
N2F N 0.40531(7) 0.39013(9) -0.01311(7)
H10F H 0.3837 0.3437 -0.0615
C11F C 0.49487(9) 0.34256(11) 0.04544(8)
H11F H 0.5418 0.4040 0.0591
C12F C 0.52962(9) 0.24548(12) 0.00611(8)
C13F C 0.62404(11) 0.23600(15) 0.02511(10)
H12F H 0.6644 0.2911 0.0606
C14F C 0.65985(13) 0.14662(17) -0.00739(12)
H13F H 0.7244 0.1405 0.0069
C15F C 0.60217(15) 0.06703(15) -0.06011(12)
H14F H 0.6267 0.0067 -0.0827
C16F C 0.50888(14) 0.07546(13) -0.07982(11)
H15F H 0.4690 0.0208 -0.1163
C17F C 0.47207(11) 0.16405(12) -0.04651(9)
H16F H 0.4076 0.1685 -0.0599
C2F C 0.48844(9) 0.53794(11) 0.16320(8)
H1F H 0.4808 0.5386 0.1035
C3F C 0.49414(9) 0.63960(11) 0.20639(8)
H2F H 0.4900 0.7088 0.1763
loop_
_geom_bond_atom_site_label_1
_geom_bond_atom_site_label_2
_geom_bond_site_symmetry_1
_geom_bond_site_symmetry_2
P1 C1 1_555 1_555
C1 C2 1_555 1_555
C2 H1 1_555 1_555
C3 C2 1_555 1_555
H2 C3 1_555 1_555
C4 P1 1_555 1_555
H3 C4 1_555 1_555
C5 C4 1_555 1_555
C6 C5 1_555 1_555
H4 C6 1_555 1_555
C7 C6 1_555 1_555
H5 C7 1_555 1_555
C8 C7 1_555 1_555
H6 C8 1_555 1_555
C9 C8 1_555 1_555
H7 C9 1_555 1_555
C10 C5 1_555 1_555
H8 C10 1_555 1_555
N1 C4 1_555 1_555
H9 N1 1_555 1_555
N2 N1 1_555 1_555
H10 N2 1_555 1_555
C11 P1 1_555 1_555
H11 C11 1_555 1_555
C12 C11 1_555 1_555
C13 C12 1_555 1_555
H12 C13 1_555 1_555
C14 C13 1_555 1_555
H13 C14 1_555 1_555
C15 C14 1_555 1_555
H14 C15 1_555 1_555
C16 C15 1_555 1_555
H15 C16 1_555 1_555
C17 C12 1_555 1_555
H16 C17 1_555 1_555
C1F C1 1_555 1_555
P1F C1F 1_555 1_555
C4F P1F 1_555 1_555
H3F C4F 1_555 1_555
C5F C4F 1_555 1_555
C6F C5F 1_555 1_555
H4F C6F 1_555 1_555
C7F C6F 1_555 1_555
H5F C7F 1_555 1_555
C8F C7F 1_555 1_555
H6F C8F 1_555 1_555
C9F C8F 1_555 1_555
H7F C9F 1_555 1_555
C10F C5F 1_555 1_555
H8F C10F 1_555 1_555
N1F C4F 1_555 1_555
H9F N1F 1_555 1_555
N2F N1F 1_555 1_555
H10F N2F 1_555 1_555
C11F P1F 1_555 1_555
H11F C11F 1_555 1_555
C12F C11F 1_555 1_555
C13F C12F 1_555 1_555
H12F C13F 1_555 1_555
C14F C13F 1_555 1_555
H13F C14F 1_555 1_555
C15F C14F 1_555 1_555
H14F C15F 1_555 1_555
C16F C15F 1_555 1_555
H15F C16F 1_555 1_555
C17F C12F 1_555 1_555
H16F C17F 1_555 1_555
C2F C1F 1_555 1_555
H1F C2F 1_555 1_555
C3F C3 1_555 1_555
H2F C3F 1_555 1_555
C9 C10 1_555 1_555
N2 C11 1_555 1_555
C16 C17 1_555 1_555
C9F C10F 1_555 1_555
N2F C11F 1_555 1_555
C16F C17F 1_555 1_555
C2F C3F 1_555 1_555

#END
