
#######################################################################
#
#                 Cambridge Crystallographic Data Centre
#                                CCDC 
#
#######################################################################
#
# If this CIF has been generated from an entry in the Cambridge 
# Structural Database, then it will include bibliographic, chemical, 
# crystal, experimental, refinement or atomic coordinate data resulting 
# from the CCDC's data processing and validation procedures.
#
#######################################################################

data_BUGQID
_chemical_formula_moiety         'C24 H17 N2 O4 P1'
_chemical_name_systematic        
rac-1,2-bis(2-Furanyl)-2-phenyl-2,3-dihydro-1H-(1,2,4)diazaphospholo-(1,2-b)phthalazine-5,10-dione
_symmetry_cell_setting           monoclinic
_symmetry_space_group_name_H-M   'P 21/n'
_symmetry_Int_Tables_number      14
_space_group_name_Hall           '-P 2yn'
loop_
_symmetry_equiv_pos_site_id
_symmetry_equiv_pos_as_xyz
1 x,y,z
2 1/2+x,1/2-y,1/2+z
3 -x,-y,-z
4 1/2-x,1/2+y,1/2-z
_cell_length_a                   12.8834(10)
_cell_length_b                   9.7288(8)
_cell_length_c                   16.5904(14)
_cell_angle_alpha                90
_cell_angle_beta                 104.093(2)
_cell_angle_gamma                90
_cell_volume                     2016.85
_exptl_crystal_colour            yellow
_exptl_crystal_description       prism
_cell_formula_units_Z            4
loop_
_atom_site_label
_atom_site_type_symbol
_atom_site_fract_x
_atom_site_fract_y
_atom_site_fract_z
P1 P 0.69618(3) 0.96906(4) 0.52519(3)
C1 C 0.69858(13) 0.82674(16) 0.45010(10)
H1 H 0.6234 0.7964 0.4252
C2 C 0.74796(13) 0.87201(16) 0.38188(10)
O1 O 0.82903(9) 0.96847(12) 0.40297(7)
C3 C 0.85668(14) 1.00175(17) 0.33033(11)
H2 H 0.9100 1.0668 0.3260
C4 C 0.79741(14) 0.92915(18) 0.26624(11)
H3 H 0.8015 0.9333 0.2099
C5 C 0.72708(14) 0.84451(17) 0.29961(11)
H4 H 0.6757 0.7813 0.2697
N1 N 0.75731(11) 0.71276(13) 0.50013(8)
C6 C 0.74657(13) 0.57941(16) 0.47304(10)
O2 O 0.67315(10) 0.54718(12) 0.41349(7)
C7 C 0.83124(13) 0.48427(16) 0.51690(10)
C8 C 0.82718(14) 0.34576(17) 0.49285(11)
H5 H 0.7675 0.3117 0.4523
C9 C 0.91095(15) 0.25903(17) 0.52879(11)
H6 H 0.9085 0.1651 0.5127
C10 C 0.99867(14) 0.30814(17) 0.58822(11)
H7 H 1.0555 0.2475 0.6124
C11 C 1.00379(14) 0.44495(17) 0.61247(10)
H8 H 1.0640 0.4782 0.6528
C12 C 0.91952(13) 0.53345(16) 0.57698(10)
C13 C 0.92427(13) 0.67825(16) 0.60500(10)
O3 O 0.99710(9) 0.72559(12) 0.66039(7)
N2 N 0.83966(11) 0.75799(13) 0.56738(8)
C14 C 0.82441(13) 0.89890(16) 0.59554(10)
H9 H 0.8850 0.9562 0.5864
C15 C 0.82632(13) 0.90682(17) 0.68531(10)
O4 O 0.77325(10) 0.80805(13) 0.71759(8)
C16 C 0.77960(17) 0.8460(2) 0.79884(12)
H10 H 0.7496 0.7957 0.8368
C17 C 0.83392(19) 0.9634(2) 0.81632(13)
H11 H 0.8493 1.0110 0.8679
C18 C 0.86460(17) 1.0039(2) 0.74271(12)
H12 H 0.9042 1.0835 0.7356
C19 C 0.59624(13) 0.90794(17) 0.57816(10)
C20 C 0.57144(13) 1.00303(17) 0.63437(11)
H13 H 0.6043 1.0911 0.6402
C21 C 0.49974(14) 0.96998(19) 0.68133(11)
H14 H 0.4848 1.0344 0.7200
C22 C 0.44974(14) 0.8427(2) 0.67182(12)
H15 H 0.4006 0.8199 0.7041
C23 C 0.47138(14) 0.74865(19) 0.61519(11)
H16 H 0.4361 0.6622 0.6081
C24 C 0.54488(13) 0.78074(17) 0.56861(11)
H17 H 0.5600 0.7157 0.5303
loop_
_geom_bond_atom_site_label_1
_geom_bond_atom_site_label_2
_geom_bond_site_symmetry_1
_geom_bond_site_symmetry_2
P1 C1 1_555 1_555
C1 H1 1_555 1_555
C2 C1 1_555 1_555
O1 C2 1_555 1_555
C3 O1 1_555 1_555
H2 C3 1_555 1_555
C4 C3 1_555 1_555
H3 C4 1_555 1_555
C5 C2 1_555 1_555
H4 C5 1_555 1_555
N1 C1 1_555 1_555
C6 N1 1_555 1_555
O2 C6 1_555 1_555
C7 C6 1_555 1_555
C8 C7 1_555 1_555
H5 C8 1_555 1_555
C9 C8 1_555 1_555
H6 C9 1_555 1_555
C10 C9 1_555 1_555
H7 C10 1_555 1_555
C11 C10 1_555 1_555
H8 C11 1_555 1_555
C12 C7 1_555 1_555
C13 C12 1_555 1_555
O3 C13 1_555 1_555
N2 N1 1_555 1_555
C14 P1 1_555 1_555
H9 C14 1_555 1_555
C15 C14 1_555 1_555
O4 C15 1_555 1_555
C16 O4 1_555 1_555
H10 C16 1_555 1_555
C17 C16 1_555 1_555
H11 C17 1_555 1_555
C18 C15 1_555 1_555
H12 C18 1_555 1_555
C19 P1 1_555 1_555
C20 C19 1_555 1_555
H13 C20 1_555 1_555
C21 C20 1_555 1_555
H14 C21 1_555 1_555
C22 C21 1_555 1_555
H15 C22 1_555 1_555
C23 C22 1_555 1_555
H16 C23 1_555 1_555
C24 C19 1_555 1_555
H17 C24 1_555 1_555
C4 C5 1_555 1_555
C11 C12 1_555 1_555
C13 N2 1_555 1_555
N2 C14 1_555 1_555
C17 C18 1_555 1_555
C23 C24 1_555 1_555

#END
