
#######################################################################
#
#                 Cambridge Crystallographic Data Centre
#                                CCDC 
#
#######################################################################
#
# If this CIF has been generated from an entry in the Cambridge 
# Structural Database, then it will include bibliographic, chemical, 
# crystal, experimental, refinement or atomic coordinate data resulting 
# from the CCDC's data processing and validation procedures.
#
#######################################################################

data_BUHCOW02
_chemical_formula_moiety         'C10 H12 Se4 1+,C10 H12 Se4,N1 O3 1-'
_chemical_name_systematic        'bis(Tetramethyltetraselenafulvalene) nitrate'
_symmetry_cell_setting           triclinic
_symmetry_space_group_name_H-M   'P -1'
_symmetry_Int_Tables_number      2
_space_group_name_Hall           '-P 1'
loop_
_symmetry_equiv_pos_site_id
_symmetry_equiv_pos_as_xyz
1 x,y,z
2 -x,-y,-z
_cell_length_a                   7.227(2)
_cell_length_b                   7.582(2)
_cell_length_c                   12.846(4)
_cell_angle_alpha                89.13(2)
_cell_angle_beta                 86.57(2)
_cell_angle_gamma                70.54(2)
_cell_volume                     662.49
_cell_formula_units_Z            1
loop_
_atom_site_label
_atom_site_type_symbol
_atom_site_fract_x
_atom_site_fract_y
_atom_site_fract_z
Se1 Se 0.7106(2) 0.6430(2) 0.3814(1)
Se2 Se 0.8372(2) 0.2432(2) 0.4839(1)
Se3 Se 0.7564(3) 0.4434(3) 0.7255(1)
Se4 Se 0.6206(3) 0.8439(2) 0.6225(1)
C1 C 0.748(2) 0.504(2) 0.505(1)
C2 C 0.795(2) 0.426(2) 0.294(1)
C3 C 0.843(3) 0.266(3) 0.336(1)
C4 C 0.787(2) 0.472(2) 0.178(1)
C5 C 0.919(3) 0.074(3) 0.281(1)
C6 C 0.712(2) 0.588(2) 0.605(1)
C7 C 0.672(2) 0.659(2) 0.810(1)
C8 C 0.620(2) 0.821(2) 0.771(1)
C9 C 0.678(2) 0.620(3) 0.928(1)
C10 C 0.545(2) 1.007(3) 0.829(1)
loop_
_geom_bond_atom_site_label_1
_geom_bond_atom_site_label_2
_geom_bond_site_symmetry_1
_geom_bond_site_symmetry_2
Se1 C1 1_555 1_555
Se2 C1 1_555 1_555
Se3 C6 1_555 1_555
Se4 C6 1_555 1_555
C1 C6 1_555 1_555
C2 Se1 1_555 1_555
C3 Se2 1_555 1_555
C4 C2 1_555 1_555
C5 C3 1_555 1_555
C7 Se3 1_555 1_555
C8 Se4 1_555 1_555
C9 C7 1_555 1_555
C10 C8 1_555 1_555
C2 C3 1_555 1_555
C7 C8 1_555 1_555

#END
