
#######################################################################
#
#                 Cambridge Crystallographic Data Centre
#                                CCDC 
#
#######################################################################
#
# If this CIF has been generated from an entry in the Cambridge 
# Structural Database, then it will include bibliographic, chemical, 
# crystal, experimental, refinement or atomic coordinate data resulting 
# from the CCDC's data processing and validation procedures.
#
#######################################################################

data_BUHFUH
_chemical_formula_moiety         'C16 H14 N2 O2'
_chemical_name_systematic        
1-((3,5-dimethyl-1,2-oxazol-4-yl)carbonoimidoyl)-2-naphthol
_symmetry_cell_setting           triclinic
_symmetry_space_group_name_H-M   'P -1'
_symmetry_Int_Tables_number      2
_space_group_name_Hall           '-P 1'
loop_
_symmetry_equiv_pos_site_id
_symmetry_equiv_pos_as_xyz
1 x,y,z
2 -x,-y,-z
_cell_length_a                   7.5360(8)
_cell_length_b                   9.0395(11)
_cell_length_c                   10.8864(11)
_cell_angle_alpha                74.071(10)
_cell_angle_beta                 86.689(9)
_cell_angle_gamma                69.227(11)
_cell_volume                     666.12
_exptl_crystal_colour            yellow
_exptl_crystal_description       plate
_cell_formula_units_Z            2
loop_
_atom_site_label
_atom_site_type_symbol
_atom_site_fract_x
_atom_site_fract_y
_atom_site_fract_z
C1 C 0.1961(3) 0.5782(3) 1.1413(2)
C2 C 0.4250(3) 0.3160(3) 1.1248(2)
C3 C 0.2490(3) 0.5363(3) 1.2710(2)
H1 H 0.1915 0.6094 1.3195
C4 C 0.5209(3) 0.1994(3) 1.0577(3)
H2 H 0.4922 0.2229 0.9709
C5 C 0.2304(3) 0.5209(3) 0.9318(2)
H3 H 0.2966 0.4516 0.8822
C6 C 0.4734(3) 0.2752(3) 1.2559(2)
C7 C 0.0485(3) 0.7000(3) 0.7484(2)
C8 C 0.3835(3) 0.3898(3) 1.3256(2)
H4 H 0.4177 0.3638 1.4117
C9 C -0.0752(4) 0.8520(4) 0.6867(3)
C10 C 0.6115(3) 0.1217(3) 1.3147(3)
H5 H 0.6425 0.0951 1.4015
C11 C 0.6550(4) 0.0528(3) 1.1180(3)
H6 H 0.7176 -0.0214 1.0714
C12 C 0.7000(4) 0.0120(4) 1.2479(3)
H7 H 0.7899 -0.0893 1.2883
C13 C 0.1016(4) 0.6145(4) 0.6527(2)
C14 C 0.2233(4) 0.4429(4) 0.6596(3)
H8 H 0.3542 0.4307 0.6680
H9 H 0.2029 0.4171 0.5830
H10 H 0.1918 0.3698 0.7322
C15 C -0.1821(4) 0.9983(4) 0.7293(3)
H11 H -0.3117 1.0049 0.7407
H12 H -0.1780 1.0948 0.6662
H13 H -0.1266 0.9909 0.8089
C16 C 0.2827(3) 0.4734(3) 1.0658(2)
N1 N 0.0959(2) 0.6552(2) 0.87795(17)
N2 N 0.0193(4) 0.7073(3) 0.5422(2)
O1 O -0.0939(3) 0.8604(3) 0.56242(18)
O2 O 0.0566(2) 0.7238(2) 1.09353(16)
H14 H 0.0434 0.7407 1.0161
loop_
_geom_bond_atom_site_label_1
_geom_bond_atom_site_label_2
_geom_bond_site_symmetry_1
_geom_bond_site_symmetry_2
C1 C3 1_555 1_555
C2 C4 1_555 1_555
C3 H1 1_555 1_555
C4 H2 1_555 1_555
C5 H3 1_555 1_555
C6 C2 1_555 1_555
C7 C9 1_555 1_555
C8 C3 1_555 1_555
H4 C8 1_555 1_555
C9 C15 1_555 1_555
C10 C6 1_555 1_555
H5 C10 1_555 1_555
C11 C4 1_555 1_555
H6 C11 1_555 1_555
C12 C10 1_555 1_555
H7 C12 1_555 1_555
C13 C7 1_555 1_555
C14 C13 1_555 1_555
H8 C14 1_555 1_555
H9 C14 1_555 1_555
H10 C14 1_555 1_555
C15 H11 1_555 1_555
H12 C15 1_555 1_555
H13 C15 1_555 1_555
C16 C1 1_555 1_555
N1 C5 1_555 1_555
N2 C13 1_555 1_555
O1 C9 1_555 1_555
O2 C1 1_555 1_555
H14 O2 1_555 1_555
C2 C16 1_555 1_555
C5 C16 1_555 1_555
C6 C8 1_555 1_555
C7 N1 1_555 1_555
C11 C12 1_555 1_555
N2 O1 1_555 1_555

#END
