
#######################################################################
#
#                 Cambridge Crystallographic Data Centre
#                                CCDC 
#
#######################################################################
#
# If this CIF has been generated from an entry in the Cambridge 
# Structural Database, then it will include bibliographic, chemical, 
# crystal, experimental, refinement or atomic coordinate data resulting 
# from the CCDC's data processing and validation procedures.
#
#######################################################################

data_BUHGIW
_chemical_formula_moiety         'C18 H19 N1 O2'
_chemical_name_systematic        
3-(4-(dimethylamino)phenyl)-1-(2-hydroxy-4-methylphenyl)prop-2-en-1-one
_symmetry_cell_setting           monoclinic
_symmetry_space_group_name_H-M   'P 21/c'
_symmetry_Int_Tables_number      14
_space_group_name_Hall           '-P 2ybc'
loop_
_symmetry_equiv_pos_site_id
_symmetry_equiv_pos_as_xyz
1 x,y,z
2 -x,1/2+y,1/2-z
3 -x,-y,-z
4 x,1/2-y,1/2+z
_cell_length_a                   9.1548(18)
_cell_length_b                   15.718(3)
_cell_length_c                   12.523(4)
_cell_angle_alpha                90
_cell_angle_beta                 120.38(2)
_cell_angle_gamma                90
_cell_volume                     1554.57
_exptl_crystal_colour            red
_exptl_crystal_description       block
_cell_formula_units_Z            4
loop_
_atom_site_label
_atom_site_type_symbol
_atom_site_fract_x
_atom_site_fract_y
_atom_site_fract_z
C1 C 0.5557(3) 0.21129(12) -0.32475(17)
C2 C 0.4428(3) 0.26962(13) -0.40860(18)
H1 H 0.4041 0.2625 -0.4925
C3 C 0.3865(3) 0.33797(13) -0.37066(18)
C4 C 0.4420(3) 0.34629(13) -0.24533(19)
H2 H 0.4033 0.3914 -0.2182
C5 C 0.5537(3) 0.28853(12) -0.16092(18)
H3 H 0.5901 0.2959 -0.0774
C6 C 0.6144(2) 0.21871(11) -0.19737(16)
C7 C 0.7364(3) 0.15772(12) -0.10967(18)
C8 C 0.7995(3) 0.16475(13) 0.02245(17)
H4 H 0.7600 0.2087 0.0508
C9 C 0.9124(3) 0.11014(12) 0.10430(18)
H5 H 0.9471 0.0668 0.0716
C10 C 0.9876(3) 0.10993(11) 0.23752(17)
C11 C 0.9552(3) 0.17188(13) 0.30211(17)
H6 H 0.8852 0.2173 0.2585
C12 C 1.0228(3) 0.16828(13) 0.42775(17)
H7 H 0.9976 0.2111 0.4671
C13 C 1.1294(3) 0.10129(12) 0.49828(17)
C14 C 1.1661(3) 0.03988(13) 0.43432(19)
H8 H 1.2385 -0.0048 0.4778
C15 C 1.0970(3) 0.04459(12) 0.30867(19)
H9 H 1.1240 0.0026 0.2692
C16 C 1.1421(4) 0.15686(15) 0.68528(19)
H10 H 1.1687 0.2137 0.6727
H11 H 1.2006 0.1445 0.7723
H12 H 1.0223 0.1519 0.6522
C17 C 1.3055(3) 0.02909(15) 0.6963(2)
H13 H 1.2450 -0.0238 0.6714
H14 H 1.3449 0.0391 0.7822
H15 H 1.4005 0.0266 0.6837
C18 C 0.2679(4) 0.40269(17) -0.4623(2)
H16 H 0.2472 0.4472 -0.4190
H17 H 0.1628 0.3757 -0.5193
H18 H 0.3180 0.4265 -0.5069
N1 N 1.1944(2) 0.09743(11) 0.62323(15)
O1 O 0.6089(2) 0.14776(10) -0.36972(13)
H19 H 0.6744 0.1169 -0.3127
O2 O 0.7899(2) 0.09924(9) -0.14906(12)
loop_
_geom_bond_atom_site_label_1
_geom_bond_atom_site_label_2
_geom_bond_site_symmetry_1
_geom_bond_site_symmetry_2
C1 C2 1_555 1_555
C2 H1 1_555 1_555
C3 C2 1_555 1_555
C4 C3 1_555 1_555
H2 C4 1_555 1_555
C5 C4 1_555 1_555
H3 C5 1_555 1_555
C6 C1 1_555 1_555
C7 C6 1_555 1_555
C8 C7 1_555 1_555
H4 C8 1_555 1_555
C9 C8 1_555 1_555
H5 C9 1_555 1_555
C10 C9 1_555 1_555
C11 C10 1_555 1_555
H6 C11 1_555 1_555
C12 C11 1_555 1_555
H7 C12 1_555 1_555
C13 C12 1_555 1_555
C14 C13 1_555 1_555
H8 C14 1_555 1_555
C15 C10 1_555 1_555
H9 C15 1_555 1_555
C16 H10 1_555 1_555
H11 C16 1_555 1_555
H12 C16 1_555 1_555
C17 H13 1_555 1_555
H14 C17 1_555 1_555
H15 C17 1_555 1_555
C18 C3 1_555 1_555
H16 C18 1_555 1_555
H17 C18 1_555 1_555
H18 C18 1_555 1_555
N1 C13 1_555 1_555
O1 C1 1_555 1_555
H19 O1 1_555 1_555
O2 C7 1_555 1_555
C5 C6 1_555 1_555
C14 C15 1_555 1_555
C16 N1 1_555 1_555
C17 N1 1_555 1_555

#END
