
#######################################################################
#
#                 Cambridge Crystallographic Data Centre
#                                CCDC 
#
#######################################################################
#
# If this CIF has been generated from an entry in the Cambridge 
# Structural Database, then it will include bibliographic, chemical, 
# crystal, experimental, refinement or atomic coordinate data resulting 
# from the CCDC's data processing and validation procedures.
#
#######################################################################

data_BUHKUM
_chemical_compound_source        'Calcarisporium arbuscula'
_chemical_name_common            'arbumycin dihydrate'
_chemical_formula_moiety         'C25 H43 N3 O8,2(H2 O1)'
_chemical_name_systematic        
'3,6,15-tri-sec-butyl-9-(1-hydroxyethyl)-12-methyl-1,7-dioxa-4,10,13-triazacyclopentadecane-2,5,8,11,14-pentone dihydrate'
_symmetry_cell_setting           monoclinic
_symmetry_space_group_name_H-M   'C 2'
_symmetry_Int_Tables_number      5
_space_group_name_Hall           'C 2y'
loop_
_symmetry_equiv_pos_site_id
_symmetry_equiv_pos_as_xyz
1 x,y,z
2 -x,y,-z
3 1/2+x,1/2+y,z
4 1/2-x,1/2+y,-z
_cell_length_a                   23.6827(10)
_cell_length_b                   14.0590(6)
_cell_length_c                   9.4123(4)
_cell_angle_alpha                90
_cell_angle_beta                 105.531(3)
_cell_angle_gamma                90
_cell_volume                     3019.44
_exptl_crystal_colour            colorless
_exptl_crystal_description       platelet
_cell_formula_units_Z            4
loop_
_atom_site_label
_atom_site_type_symbol
_atom_site_fract_x
_atom_site_fract_y
_atom_site_fract_z
O1 O 0.33937(8) 0.25025(13) 0.3507(2)
O2 O 0.14412(8) 0.27648(14) 0.2064(2)
O3 O 0.06931(8) 0.37994(15) 0.1852(2)
O4 O 0.19571(9) 0.49870(13) -0.1020(2)
O5 O 0.37288(9) 0.45796(14) 0.1815(3)
O6 O 0.36378(12) 0.2879(2) 0.5915(3)
O7 O 0.18621(10) 0.20142(17) 0.5755(2)
O8 O 0.06457(10) 0.24374(15) -0.1150(3)
H1 H 0.0956 0.2153 -0.1167
N1 N 0.18025(10) 0.35769(15) -0.0057(3)
H2 H 0.1938(15) 0.308(2) 0.035(4)
N2 N 0.30597(10) 0.34176(16) 0.0944(2)
H3 H 0.2954(15) 0.289(2) 0.107(4)
N3 N 0.23386(10) 0.18904(15) 0.3983(3)
H4 H 0.2324(15) 0.195(3) 0.311(3)
C1 C 0.21449(12) 0.42029(19) -0.0504(3)
C2 C 0.27695(12) 0.39086(19) -0.0427(3)
H5 H 0.2998 0.4499 -0.0482
C3 C 0.35215(12) 0.37851(19) 0.1931(3)
C4 C 0.38199(12) 0.3178(2) 0.3246(3)
H6 H 0.3948 0.3599 0.4129
C5 C 0.33463(12) 0.2431(2) 0.4893(3)
C6 C 0.29046(12) 0.16765(19) 0.5013(3)
H7 H 0.2855 0.1703 0.6034
C7 C 0.18630(12) 0.20648(19) 0.4453(3)
C8 C 0.12947(13) 0.2328(2) 0.3321(3)
H8 H 0.1085 0.2810 0.3773
C9 C 0.10818(12) 0.3478(2) 0.1398(3)
C10 C 0.12134(12) 0.38174(19) -0.0006(3)
H9 H 0.1182 0.4527 -0.0026
C11 C 0.07185(12) 0.3429(2) -0.1311(3)
H10 H 0.0346 0.3744 -0.1259
C12 C 0.08175(15) 0.3686(2) -0.2784(4)
H11 H 0.1179 0.3386 -0.2876
H12 H 0.0851 0.4378 -0.2853
H13 H 0.0486 0.3460 -0.3578
C13 C 0.27835(14) 0.3284(3) -0.1743(3)
H14 H 0.3191 0.3186 -0.1765
H15 H 0.2566 0.3597 -0.2657
H16 H 0.2602 0.2668 -0.1654
C14 C 0.43547(13) 0.2633(2) 0.3056(3)
H17 H 0.4520 0.2269 0.3987
C15 C 0.48305(13) 0.3333(3) 0.2884(4)
H18 H 0.5201 0.2992 0.3004
H19 H 0.4881 0.3832 0.3635
H20 H 0.4712 0.3623 0.1901
C16 C 0.42030(14) 0.1914(2) 0.1801(4)
H21 H 0.4089 0.2260 0.0850
H22 H 0.3862 0.1533 0.1883
C17 C 0.47143(17) 0.1241(3) 0.1802(6)
H23 H 0.5043 0.1609 0.1639
H24 H 0.4587 0.0771 0.1013
H25 H 0.4839 0.0915 0.2755
C18 C 0.31335(13) 0.0673(2) 0.4780(3)
H26 H 0.3119 0.0606 0.3713
C19 C 0.37713(15) 0.0559(3) 0.5678(4)
H27 H 0.3808 0.0734 0.6706
H28 H 0.4022 0.0974 0.5270
H29 H 0.3893 -0.0104 0.5632
C20 C 0.27481(15) -0.0107(2) 0.5166(4)
H30 H 0.2350 -0.0051 0.4486
H31 H 0.2908 -0.0732 0.4983
C21 C 0.26941(17) -0.0096(3) 0.6738(4)
H32 H 0.3086 -0.0083 0.7427
H33 H 0.2486 -0.0668 0.6914
H34 H 0.2475 0.0470 0.6886
C22 C 0.08801(14) 0.1486(2) 0.2796(4)
H35 H 0.0541 0.1732 0.2005
C23 C 0.0636(2) 0.1129(4) 0.4038(5)
H36 H 0.0314 0.0685 0.3639
H37 H 0.0491 0.1668 0.4498
H38 H 0.0946 0.0802 0.4777
C24 C 0.11654(14) 0.0699(2) 0.2103(4)
H39 H 0.1364 0.0995 0.1413
H40 H 0.1471 0.0388 0.2894
C25 C 0.0758(2) -0.0050(4) 0.1291(6)
H41 H 0.0597 -0.0408 0.1986
H42 H 0.0972 -0.0483 0.0806
H43 H 0.0437 0.0251 0.0547
O9 O 0.25779(9) 0.66342(13) 0.9140(2)
H44 H 0.2356(13) 0.614(2) 0.897(4)
H45 H 0.2863(13) 0.654(3) 0.991(3)
O10 O 0.34266(10) 0.64246(13) 0.1744(2)
H46 H 0.3367(17) 0.654(3) 0.258(3)
H47 H 0.3534(17) 0.585(2) 0.171(4)
loop_
_geom_bond_atom_site_label_1
_geom_bond_atom_site_label_2
_geom_bond_site_symmetry_1
_geom_bond_site_symmetry_2
O1 C4 1_555 1_555
O2 C8 1_555 1_555
O3 C9 1_555 1_555
O4 C1 1_555 1_555
O5 C3 1_555 1_555
O6 C5 1_555 1_555
O7 C7 1_555 1_555
O8 H1 1_555 1_555
N1 H2 1_555 1_555
N2 H3 1_555 1_555
N3 H4 1_555 1_555
C1 N1 1_555 1_555
C2 N2 1_555 1_555
H5 C2 1_555 1_555
C3 N2 1_555 1_555
C4 C3 1_555 1_555
H6 C4 1_555 1_555
C5 O1 1_555 1_555
C6 N3 1_555 1_555
H7 C6 1_555 1_555
C7 N3 1_555 1_555
C8 C7 1_555 1_555
H8 C8 1_555 1_555
C9 O2 1_555 1_555
C10 N1 1_555 1_555
H9 C10 1_555 1_555
C11 O8 1_555 1_555
H10 C11 1_555 1_555
C12 C11 1_555 1_555
H11 C12 1_555 1_555
H12 C12 1_555 1_555
H13 C12 1_555 1_555
C13 C2 1_555 1_555
H14 C13 1_555 1_555
H15 C13 1_555 1_555
H16 C13 1_555 1_555
C14 C4 1_555 1_555
H17 C14 1_555 1_555
C15 C14 1_555 1_555
H18 C15 1_555 1_555
H19 C15 1_555 1_555
H20 C15 1_555 1_555
C16 C14 1_555 1_555
H21 C16 1_555 1_555
H22 C16 1_555 1_555
C17 C16 1_555 1_555
H23 C17 1_555 1_555
H24 C17 1_555 1_555
H25 C17 1_555 1_555
C18 C6 1_555 1_555
H26 C18 1_555 1_555
C19 C18 1_555 1_555
H27 C19 1_555 1_555
H28 C19 1_555 1_555
H29 C19 1_555 1_555
C20 C18 1_555 1_555
H30 C20 1_555 1_555
H31 C20 1_555 1_555
C21 C20 1_555 1_555
H32 C21 1_555 1_555
H33 C21 1_555 1_555
H34 C21 1_555 1_555
C22 C8 1_555 1_555
H35 C22 1_555 1_555
C23 C22 1_555 1_555
H36 C23 1_555 1_555
H37 C23 1_555 1_555
H38 C23 1_555 1_555
C24 C22 1_555 1_555
H39 C24 1_555 1_555
H40 C24 1_555 1_555
C25 C24 1_555 1_555
H41 C25 1_555 1_555
H42 C25 1_555 1_555
H43 C25 1_555 1_555
O9 H44 1_555 1_555
H45 O9 1_555 1_555
O10 H46 1_555 1_555
H47 O10 1_555 1_555
C1 C2 1_555 1_555
C5 C6 1_555 1_555
C9 C10 1_555 1_555
C10 C11 1_555 1_555

#END
