
#######################################################################
#
#                 Cambridge Crystallographic Data Centre
#                                CCDC 
#
#######################################################################
#
# If this CIF has been generated from an entry in the Cambridge 
# Structural Database, then it will include bibliographic, chemical, 
# crystal, experimental, refinement or atomic coordinate data resulting 
# from the CCDC's data processing and validation procedures.
#
#######################################################################

data_BUHKOG
_chemical_formula_moiety         'C15 H11 N3'
_chemical_name_systematic        3,5-diphenyl-1,2,4-triazine
_symmetry_cell_setting           monoclinic
_symmetry_space_group_name_H-M   'I 2/c'
_symmetry_Int_Tables_number      15
_space_group_name_Hall           '-I 2yc'
loop_
_symmetry_equiv_pos_site_id
_symmetry_equiv_pos_as_xyz
1 x,y,z
2 -x,y,1/2-z
3 1/2+x,1/2+y,1/2+z
4 1/2-x,1/2+y,-z
5 -x,-y,-z
6 x,-y,1/2+z
7 1/2-x,1/2-y,1/2-z
8 1/2+x,1/2-y,z
_cell_length_a                   24.392(6)
_cell_length_b                   4.0190(5)
_cell_length_c                   24.609(17)
_cell_angle_alpha                90
_cell_angle_beta                 105.47(4)
_cell_angle_gamma                90
_cell_volume                     2325.05
_exptl_crystal_colour            'light yellow'
_exptl_crystal_description       block
_cell_formula_units_Z            8
loop_
_atom_site_label
_atom_site_type_symbol
_atom_site_fract_x
_atom_site_fract_y
_atom_site_fract_z
N1 N 0.09924(15) 0.7923(9) 0.24439(11)
N2 N 0.05295(15) 0.6239(9) 0.21433(12)
N3 N 0.09344(9) 0.5875(6) 0.13675(9)
C1 C 0.23544(14) 0.9760(9) 0.17415(14)
H1 H 0.2390 1.0330 0.2116
C2 C 0.27963(15) 1.0441(9) 0.15065(16)
H2 H 0.3124 1.1469 0.1722
C3 C 0.27533(14) 0.9608(9) 0.09575(16)
H3 H 0.3051 1.0065 0.0798
C4 C 0.22685(14) 0.8097(9) 0.06454(14)
H4 H 0.2237 0.7533 0.0272
C5 C 0.18240(13) 0.7397(9) 0.08796(12)
H5 H 0.1499 0.6348 0.0664
C6 C 0.18617(12) 0.8253(7) 0.14338(12)
C7 C 0.13852(12) 0.7540(7) 0.16795(12)
C8 C 0.14153(14) 0.8552(9) 0.22120(12)
H6 H 0.1735 0.9697 0.2417
C9 C 0.05107(12) 0.5241(7) 0.16039(11)
C10 C 0.00079(12) 0.3460(7) 0.12692(12)
C11 C -0.04080(13) 0.2197(8) 0.15100(14)
H7 H -0.0366 0.2470 0.1894
C12 C -0.08751(14) 0.0567(9) 0.11883(16)
H8 H -0.1147 -0.0259 0.1355
C13 C -0.09437(14) 0.0145(8) 0.06219(16)
H9 H -0.1263 -0.0950 0.0404
C14 C -0.05382(14) 0.1350(8) 0.03783(14)
H10 H -0.0585 0.1065 -0.0006
C15 C -0.00642(13) 0.2972(8) 0.06965(12)
H11 H 0.0209 0.3746 0.0527
loop_
_geom_bond_atom_site_label_1
_geom_bond_atom_site_label_2
_geom_bond_site_symmetry_1
_geom_bond_site_symmetry_2
N1 N2 1_555 1_555
N2 C9 1_555 1_555
N3 C7 1_555 1_555
C1 H1 1_555 1_555
C2 C1 1_555 1_555
H2 C2 1_555 1_555
C3 C2 1_555 1_555
H3 C3 1_555 1_555
C4 C3 1_555 1_555
H4 C4 1_555 1_555
C5 C4 1_555 1_555
H5 C5 1_555 1_555
C6 C1 1_555 1_555
C7 C6 1_555 1_555
C8 N1 1_555 1_555
H6 C8 1_555 1_555
C9 N3 1_555 1_555
C10 C9 1_555 1_555
C11 C10 1_555 1_555
H7 C11 1_555 1_555
C12 C11 1_555 1_555
H8 C12 1_555 1_555
C13 C12 1_555 1_555
H9 C13 1_555 1_555
C14 C13 1_555 1_555
H10 C14 1_555 1_555
C15 C10 1_555 1_555
H11 C15 1_555 1_555
C5 C6 1_555 1_555
C7 C8 1_555 1_555
C14 C15 1_555 1_555

#END
