
#######################################################################
#
#                 Cambridge Crystallographic Data Centre
#                                CCDC 
#
#######################################################################
#
# If this CIF has been generated from an entry in the Cambridge 
# Structural Database, then it will include bibliographic, chemical, 
# crystal, experimental, refinement or atomic coordinate data resulting 
# from the CCDC's data processing and validation procedures.
#
#######################################################################

data_BUHQAW
_chemical_formula_moiety         'C20 H23 N2 O4 P1'
_chemical_name_systematic        
2-Cyclohexyl-1,3-bis(2-furanyl)tetrahydro-1H-(1,2,4)diazaphospholo-(1,2-a)pyridazine-5,8-dione
_symmetry_cell_setting           monoclinic
_symmetry_space_group_name_H-M   'P 21/n'
_symmetry_Int_Tables_number      14
_space_group_name_Hall           '-P 2yn'
loop_
_symmetry_equiv_pos_site_id
_symmetry_equiv_pos_as_xyz
1 x,y,z
2 1/2+x,1/2-y,1/2+z
3 -x,-y,-z
4 1/2-x,1/2+y,1/2-z
_cell_length_a                   9.3813(7)
_cell_length_b                   11.3553(9)
_cell_length_c                   18.4671(15)
_cell_angle_alpha                90.00
_cell_angle_beta                 103.440(2)
_cell_angle_gamma                90.00
_cell_volume                     1913.38
_cell_formula_units_Z            4
loop_
_atom_site_label
_atom_site_type_symbol
_atom_site_fract_x
_atom_site_fract_y
_atom_site_fract_z
P1 P 0.73642(7) 0.64564(6) 0.09022(3)
O1 O 0.96986(18) 0.65738(16) -0.01127(9)
O2 O 0.7396(2) 1.00712(16) 0.00802(10)
O3 O 1.1759(2) 0.8132(2) 0.21037(11)
O4 O 0.8753(2) 0.7529(2) 0.27257(11)
N1 N 0.8548(2) 0.85199(18) 0.07030(11)
N2 N 0.9508(2) 0.80687(19) 0.13553(10)
C1 C 0.6063(3) 0.7244(2) 0.13690(14)
H1 H 0.6596 0.7884 0.1672
C2 C 0.4718(3) 0.7772(2) 0.08305(16)
H2 H 0.4179 0.8252 0.1110
H3 H 0.5045 0.8281 0.0480
C3 C 0.3715(3) 0.6857(3) 0.04086(16)
H4 H 0.4221 0.6419 0.0093
H5 H 0.2870 0.7236 0.0091
C4 C 0.3204(3) 0.6010(3) 0.09387(18)
H6 H 0.2607 0.6432 0.1217
H7 H 0.2605 0.5395 0.0654
C5 C 0.4504(3) 0.5459(3) 0.14752(17)
H8 H 0.4154 0.4972 0.1829
H9 H 0.5025 0.4953 0.1200
C6 C 0.5546(3) 0.6369(3) 0.18919(16)
H10 H 0.6393 0.5975 0.2197
H11 H 0.5066 0.6801 0.2222
C7 C 0.7692(3) 0.7609(2) 0.02346(12)
H12 H 0.6743 0.7949 -0.0012
C8 C 0.8397(2) 0.7160(2) -0.03481(12)
C9 C 0.8000(3) 0.7156(2) -0.10955(13)
H13 H 0.7158 0.7489 -0.1391
C10 C 0.9111(3) 0.6544(2) -0.13469(15)
H14 H 0.9139 0.6400 -0.1839
C11 C 1.0100(3) 0.6217(2) -0.07469(16)
H15 H 1.0952 0.5802 -0.0754
C12 C 0.8325(3) 0.9689(2) 0.05992(14)
C13 C 0.9390(3) 1.0423(3) 0.11519(16)
H16 H 0.9018 1.0531 0.1596
H17 H 0.9477 1.1194 0.0940
C14 C 1.0887(3) 0.9849(3) 0.13624(15)
H18 H 1.1313 0.9839 0.0931
H19 H 1.1522 1.0314 0.1747
C15 C 1.0816(3) 0.8615(2) 0.16390(14)
C16 C 0.9189(3) 0.6857(2) 0.15347(13)
H20 H 0.9936 0.6349 0.1403
C17 C 0.9264(3) 0.6686(2) 0.23425(14)
C18 C 0.9717(3) 0.5759(3) 0.27726(16)
H21 H 1.0122 0.5070 0.2635
C19 C 0.9464(4) 0.6027(4) 0.34850(19)
H22 H 0.9668 0.5543 0.3903
C20 C 0.8897(4) 0.7067(4) 0.34427(17)
H23 H 0.8622 0.7455 0.3833
loop_
_geom_bond_atom_site_label_1
_geom_bond_atom_site_label_2
_geom_bond_site_symmetry_1
_geom_bond_site_symmetry_2
P1 C1 1_555 1_555
O1 C8 1_555 1_555
O2 C12 1_555 1_555
O3 C15 1_555 1_555
O4 C17 1_555 1_555
N1 N2 1_555 1_555
N2 C15 1_555 1_555
C1 H1 1_555 1_555
C2 C1 1_555 1_555
H2 C2 1_555 1_555
H3 C2 1_555 1_555
C3 C2 1_555 1_555
H4 C3 1_555 1_555
H5 C3 1_555 1_555
C4 C3 1_555 1_555
H6 C4 1_555 1_555
H7 C4 1_555 1_555
C5 C4 1_555 1_555
H8 C5 1_555 1_555
H9 C5 1_555 1_555
C6 C1 1_555 1_555
H10 C6 1_555 1_555
H11 C6 1_555 1_555
C7 P1 1_555 1_555
H12 C7 1_555 1_555
C8 C7 1_555 1_555
C9 C8 1_555 1_555
H13 C9 1_555 1_555
C10 C9 1_555 1_555
H14 C10 1_555 1_555
C11 O1 1_555 1_555
H15 C11 1_555 1_555
C12 N1 1_555 1_555
C13 C12 1_555 1_555
H16 C13 1_555 1_555
H17 C13 1_555 1_555
C14 C13 1_555 1_555
H18 C14 1_555 1_555
H19 C14 1_555 1_555
C15 C14 1_555 1_555
C16 P1 1_555 1_555
H20 C16 1_555 1_555
C17 C16 1_555 1_555
C18 C17 1_555 1_555
H21 C18 1_555 1_555
C19 C18 1_555 1_555
H22 C19 1_555 1_555
C20 O4 1_555 1_555
H23 C20 1_555 1_555
N1 C7 1_555 1_555
N2 C16 1_555 1_555
C5 C6 1_555 1_555
C10 C11 1_555 1_555
C19 C20 1_555 1_555

#END
