
#######################################################################
#
#                 Cambridge Crystallographic Data Centre
#                                CCDC 
#
#######################################################################
#
# If this CIF has been generated from an entry in the Cambridge 
# Structural Database, then it will include bibliographic, chemical, 
# crystal, experimental, refinement or atomic coordinate data resulting 
# from the CCDC's data processing and validation procedures.
#
#######################################################################

data_BUHQIE
_chemical_formula_moiety         'C14 H23 N2 P1'
_chemical_name_systematic        
rac-3,5-Di-n-propyl-4-phenyl-1,2,4-diazaphospholane
_symmetry_cell_setting           monoclinic
_symmetry_space_group_name_H-M   'P 21/n'
_symmetry_Int_Tables_number      14
_space_group_name_Hall           '-P 2yn'
loop_
_symmetry_equiv_pos_site_id
_symmetry_equiv_pos_as_xyz
1 x,y,z
2 1/2+x,1/2-y,1/2+z
3 -x,-y,-z
4 1/2-x,1/2+y,1/2-z
_cell_length_a                   13.6487(18)
_cell_length_b                   5.6485(8)
_cell_length_c                   18.897(3)
_cell_angle_alpha                90.00
_cell_angle_beta                 92.388(3)
_cell_angle_gamma                90.00
_cell_volume                     1455.59
_cell_formula_units_Z            4
loop_
_atom_site_label
_atom_site_type_symbol
_atom_site_fract_x
_atom_site_fract_y
_atom_site_fract_z
P1 P 0.05551(4) 0.75289(9) 0.21006(3)
N1 N 0.20336(12) 1.0529(3) 0.17955(9)
H1 H 0.25626(18) 0.9671(7) 0.1955(2)
N2 N 0.15777(12) 1.1595(3) 0.23907(9)
H2 H 0.1150(3) 1.2731(5) 0.22308(19)
C1 C 0.13354(14) 0.8933(3) 0.14171(10)
H3 H 0.0901 0.9910 0.1093
C2 C 0.18660(15) 0.7140(4) 0.09732(10)
H4 H 0.2227 0.6025 0.1293
H5 H 0.2353 0.7980 0.0692
C3 C 0.11847(16) 0.5737(4) 0.04745(11)
H6 H 0.0663 0.5009 0.0751
H7 H 0.0867 0.6834 0.0127
C4 C 0.17077(18) 0.3809(4) 0.00795(12)
H8 H 0.2243 0.4508 -0.0181
H9 H 0.1243 0.3032 -0.0255
H10 H 0.1976 0.2640 0.0418
C5 C 0.10338(14) 0.9772(3) 0.27707(10)
H11 H 0.1529 0.8925 0.3083
C6 C 0.03047(15) 1.0872(4) 0.32598(11)
H12 H -0.0208 1.1699 0.2968
H13 H 0.0650 1.2075 0.3558
C7 C -0.01891(18) 0.9117(5) 0.37397(12)
H14 H -0.0681 0.9974 0.4012
H15 H -0.0544 0.7931 0.3441
C8 C 0.0501(2) 0.7834(5) 0.42528(14)
H16 H 0.0963 0.6885 0.3989
H17 H 0.0124 0.6795 0.4555
H18 H 0.0865 0.8990 0.4548
C9 C -0.06954(15) 0.8473(3) 0.18454(10)
C10 C -0.14320(15) 0.6876(4) 0.19966(10)
H19 H -0.1264 0.5449 0.2239
C11 C -0.24038(16) 0.7312(4) 0.18032(11)
H20 H -0.2895 0.6201 0.1918
C12 C -0.26568(16) 0.9350(4) 0.14460(12)
H21 H -0.3321 0.9629 0.1299
C13 C -0.19475(16) 1.0989(4) 0.13005(12)
H22 H -0.2126 1.2418 0.1063
C14 C -0.09721(15) 1.0566(4) 0.14987(11)
H23 H -0.0488 1.1712 0.1397
loop_
_geom_bond_atom_site_label_1
_geom_bond_atom_site_label_2
_geom_bond_site_symmetry_1
_geom_bond_site_symmetry_2
P1 C1 1_555 1_555
N1 H1 1_555 1_555
N2 N1 1_555 1_555
H2 N2 1_555 1_555
C1 N1 1_555 1_555
H3 C1 1_555 1_555
C2 C1 1_555 1_555
H4 C2 1_555 1_555
H5 C2 1_555 1_555
C3 C2 1_555 1_555
H6 C3 1_555 1_555
H7 C3 1_555 1_555
C4 C3 1_555 1_555
H8 C4 1_555 1_555
H9 C4 1_555 1_555
H10 C4 1_555 1_555
C5 P1 1_555 1_555
H11 C5 1_555 1_555
C6 C5 1_555 1_555
H12 C6 1_555 1_555
H13 C6 1_555 1_555
C7 C6 1_555 1_555
H14 C7 1_555 1_555
H15 C7 1_555 1_555
C8 C7 1_555 1_555
H16 C8 1_555 1_555
H17 C8 1_555 1_555
H18 C8 1_555 1_555
C9 P1 1_555 1_555
C10 C9 1_555 1_555
H19 C10 1_555 1_555
C11 C10 1_555 1_555
H20 C11 1_555 1_555
C12 C11 1_555 1_555
H21 C12 1_555 1_555
C13 C12 1_555 1_555
H22 C13 1_555 1_555
C14 C9 1_555 1_555
H23 C14 1_555 1_555
N2 C5 1_555 1_555
C13 C14 1_555 1_555

#END
