
#######################################################################
#
#                 Cambridge Crystallographic Data Centre
#                                CCDC 
#
#######################################################################
#
# If this CIF has been generated from an entry in the Cambridge 
# Structural Database, then it will include bibliographic, chemical, 
# crystal, experimental, refinement or atomic coordinate data resulting 
# from the CCDC's data processing and validation procedures.
#
#######################################################################

data_BUHVUW
_chemical_formula_moiety         'C31 H23 Cl2 N1 O1 Te1'
_chemical_name_systematic        
2-(Dichloro(4-methoxyphenyl)-\l^4^-tellanyl)-4-methyl-N-(pyren-1-ylmethylene)aniline
_symmetry_cell_setting           triclinic
_symmetry_space_group_name_H-M   'P -1'
_symmetry_Int_Tables_number      2
_space_group_name_Hall           '-P 1'
loop_
_symmetry_equiv_pos_site_id
_symmetry_equiv_pos_as_xyz
1 x,y,z
2 -x,-y,-z
_cell_length_a                   8.4804(9)
_cell_length_b                   8.9301(9)
_cell_length_c                   17.1533(18)
_cell_angle_alpha                77.546(2)
_cell_angle_beta                 84.220(2)
_cell_angle_gamma                79.966(2)
_cell_volume                     1246.37
_exptl_crystal_colour            red
_chemical_melting_point          187deg.C
_cell_formula_units_Z            2
_exptl_crystal_recrystallization_method chloroform
loop_
_atom_site_label
_atom_site_type_symbol
_atom_site_fract_x
_atom_site_fract_y
_atom_site_fract_z
C1 C 0.5759(8) 0.5055(8) 0.8157(4)
C2 C 0.5032(8) 0.6155(7) 0.7550(4)
C3 C 0.5689(8) 0.7541(8) 0.7292(4)
H1 H 0.5227 0.8319 0.6890
C4 C 0.7000(8) 0.7737(7) 0.7633(4)
H2 H 0.7406 0.8663 0.7458
C5 C 0.7770(8) 0.6609(8) 0.8237(4)
C6 C 0.7104(8) 0.5252(7) 0.8501(4)
H3 H 0.7560 0.4479 0.8907
C7 C 0.9243(8) 0.6857(8) 0.8571(4)
H4 H 1.0170 0.6559 0.8236
H5 H 0.9340 0.6238 0.9101
H6 H 0.9166 0.7934 0.8591
C8 C 0.3103(8) 0.6559(7) 0.6610(4)
H7 H 0.3641 0.7323 0.6294
C9 C 0.1628(7) 0.6268(8) 0.6333(4)
C10 C 0.0779(8) 0.5186(8) 0.6817(4)
H8 H 0.1194 0.4624 0.7294
C11 C -0.0656(8) 0.4918(8) 0.6613(4)
H9 H -0.1187 0.4174 0.6950
C12 C -0.2856(8) 0.5550(8) 0.5684(4)
H10 H -0.3431 0.4847 0.6026
C13 C -0.3471(9) 0.6334(9) 0.5010(4)
H11 H -0.4474 0.6179 0.4897
C14 C -0.3232(9) 0.8219(10) 0.3724(5)
H12 H -0.4232 0.8087 0.3596
C15 C -0.2354(10) 0.9222(9) 0.3184(4)
H13 H -0.2764 0.9726 0.2696
C16 C -0.0885(9) 0.9472(9) 0.3366(4)
H14 H -0.0320 1.0154 0.3004
C17 C 0.1253(9) 0.8948(9) 0.4328(4)
H15 H 0.1831 0.9642 0.3982
C18 C 0.1851(8) 0.8215(8) 0.5025(4)
H16 H 0.2825 0.8420 0.5147
C19 C -0.1327(8) 0.5748(8) 0.5906(4)
C20 C -0.2641(8) 0.7420(8) 0.4445(4)
C21 C -0.0244(9) 0.8711(9) 0.4089(4)
C22 C 0.1033(8) 0.7115(7) 0.5594(4)
C23 C -0.0482(8) 0.6846(8) 0.5385(4)
C24 C -0.1090(8) 0.7663(8) 0.4644(4)
C25 C 0.6030(8) 0.1831(8) 0.9440(4)
C26 C 0.6822(8) 0.0339(7) 0.9413(4)
H17 H 0.6724 -0.0111 0.8983
C27 C 0.7775(8) -0.0484(8) 1.0043(4)
H18 H 0.8324 -0.1476 1.0029
C28 C 0.7884(8) 0.0197(8) 1.0680(4)
C29 C 0.7056(9) 0.1659(9) 1.0717(4)
H19 H 0.7130 0.2095 1.1156
C30 C 0.6106(9) 0.2483(8) 1.0095(4)
H20 H 0.5530 0.3459 1.0122
C31 C 0.9748(7) -0.1930(8) 1.1306(4)
H21 H 1.0351 -0.2253 1.1774
H22 H 1.0472 -0.1870 1.0836
H23 H 0.9052 -0.2670 1.1303
N1 N 0.3677(7) 0.5813(6) 0.7261(3)
O1 O 0.8827(6) -0.0469(6) 1.1312(3)
Cl1 Cl 0.2751(2) 0.4406(2) 0.93991(10)
Cl2 Cl 0.6658(2) 0.19012(18) 0.74992(9)
Te1 Te 0.46360(5) 0.30506(5) 0.84727(2)
loop_
_geom_bond_atom_site_label_1
_geom_bond_atom_site_label_2
_geom_bond_site_symmetry_1
_geom_bond_site_symmetry_2
C1 C2 1_555 1_555
C2 C3 1_555 1_555
C3 H1 1_555 1_555
C4 C3 1_555 1_555
H2 C4 1_555 1_555
C5 C4 1_555 1_555
C6 C1 1_555 1_555
H3 C6 1_555 1_555
C7 C5 1_555 1_555
H4 C7 1_555 1_555
H5 C7 1_555 1_555
H6 C7 1_555 1_555
C8 H7 1_555 1_555
C9 C8 1_555 1_555
C10 C9 1_555 1_555
H8 C10 1_555 1_555
C11 C10 1_555 1_555
H9 C11 1_555 1_555
C12 H10 1_555 1_555
C13 C12 1_555 1_555
H11 C13 1_555 1_555
C14 H12 1_555 1_555
C15 C14 1_555 1_555
H13 C15 1_555 1_555
C16 C15 1_555 1_555
H14 C16 1_555 1_555
C17 H15 1_555 1_555
C18 C17 1_555 1_555
H16 C18 1_555 1_555
C19 C11 1_555 1_555
C20 C13 1_555 1_555
C21 C16 1_555 1_555
C22 C9 1_555 1_555
C23 C19 1_555 1_555
C24 C20 1_555 1_555
C25 C26 1_555 1_555
C26 H17 1_555 1_555
C27 C26 1_555 1_555
H18 C27 1_555 1_555
C28 C27 1_555 1_555
C29 C28 1_555 1_555
H19 C29 1_555 1_555
C30 C25 1_555 1_555
H20 C30 1_555 1_555
C31 H21 1_555 1_555
H22 C31 1_555 1_555
H23 C31 1_555 1_555
N1 C2 1_555 1_555
O1 C28 1_555 1_555
Cl1 Te1 1_555 1_555
Cl2 Te1 1_555 1_555
Te1 C1 1_555 1_555
C5 C6 1_555 1_555
C8 N1 1_555 1_555
C12 C19 1_555 1_555
C14 C20 1_555 1_555
C17 C21 1_555 1_555
C18 C22 1_555 1_555
C21 C24 1_555 1_555
C22 C23 1_555 1_555
C23 C24 1_555 1_555
C25 Te1 1_555 1_555
C29 C30 1_555 1_555
C31 O1 1_555 1_555

#END
