
#######################################################################
#
#                 Cambridge Crystallographic Data Centre
#                                CCDC 
#
#######################################################################
#
# If this CIF has been generated from an entry in the Cambridge 
# Structural Database, then it will include bibliographic, chemical, 
# crystal, experimental, refinement or atomic coordinate data resulting 
# from the CCDC's data processing and validation procedures.
#
#######################################################################

data_BUJFER
_chemical_compound_source        'Gliocladium virens'
_chemical_name_common            'Heptelidic acid benzene solvate monohydrate'
_chemical_formula_moiety         'C15 H20 O5,C6 H6,H2 O1'
_chemical_name_systematic        
"1,5a,6,7,8,9a-Hexahydro-6-(1-methylethyl)-1-oxospiro(2-benzoxepin-9(3H),2'-oxirane)-4-carboxylic acid benzene solvate monohydrate"
_symmetry_cell_setting           orthorhombic
_symmetry_space_group_name_H-M   'P 21 21 21'
_symmetry_Int_Tables_number      19
_space_group_name_Hall           'P 2ac 2ab'
loop_
_symmetry_equiv_pos_site_id
_symmetry_equiv_pos_as_xyz
1 x,y,z
2 1/2+x,1/2-y,-z
3 -x,1/2+y,1/2-z
4 1/2-x,-y,1/2+z
_cell_length_a                   15.682
_cell_length_b                   15.497
_cell_length_c                   16.799
_cell_angle_alpha                90
_cell_angle_beta                 90
_cell_angle_gamma                90
_cell_volume                     4082.56
_exptl_crystal_colour            colorless
_cell_formula_units_Z            8
loop_
_atom_site_label
_atom_site_type_symbol
_atom_site_fract_x
_atom_site_fract_y
_atom_site_fract_z
O1 O 0.41470 0.19500 0.56120
O2 O 0.37370 0.32130 0.61330
O3 O 0.65470 0.25360 0.61400
O4 O 0.74690 0.35190 0.65100
O5 O 0.81520 0.28910 0.80430
C1 C 0.42720 0.25720 0.60370
C2 C 0.50590 0.26650 0.65260
C3 C 0.57810 0.20130 0.63060
C4 C 0.69130 0.30020 0.67150
C5 C 0.66150 0.28430 0.75570
C6 C 0.72800 0.30650 0.82180
C7 C 0.78850 0.37640 0.81570
C8 C 0.69550 0.27610 0.90310
C9 C 0.60990 0.32060 0.92120
C10 C 0.54420 0.30410 0.85650
C11 C 0.57620 0.33370 0.77390
C12 C 0.51000 0.32320 0.71150
C13 C 0.45300 0.34320 0.87620
C14 C 0.45570 0.44140 0.87890
C15 C 0.41810 0.30810 0.95510
O6 O 0.08410 0.22060 0.56060
O7 O 0.12900 0.09150 0.59600
O8 O -0.15610 0.15530 0.59980
O9 O -0.25490 0.06040 0.61270
O10 O -0.32310 0.07200 0.77490
C16 C 0.07400 0.15270 0.59240
C17 C -0.00970 0.13330 0.63870
C18 C -0.07790 0.19920 0.62890
C19 C -0.19740 0.09860 0.64450
C20 C -0.16800 0.08860 0.73080
C21 C -0.23270 0.04840 0.78850
C22 C -0.29500 -0.02000 0.76380
C23 C -0.20410 0.05400 0.87250
C24 C -0.11760 0.00360 0.88120
C25 C -0.05180 0.04230 0.82380
C26 C -0.08140 0.03520 0.73710
C27 C -0.01430 0.06130 0.68130
C28 C 0.03850 -0.00090 0.83520
C29 C 0.03890 -0.09850 0.81820
C30 C 0.07060 0.01780 0.91970
O11 O 0.72860 0.17030 0.45610
O12 O 0.76650 0.38340 0.48750
C31 C 0.18060 0.30250 0.86560
C32 C 0.10010 0.26440 0.83680
C33 C 0.02860 0.29600 0.86470
C34 C 0.02460 0.35660 0.92010
C35 C 0.09700 0.39280 0.94310
C36 C 0.17860 0.36800 0.92000
C37 C 0.08290 0.97490 0.40510
C38 C 0.16320 0.95290 0.41470
C39 C 0.20930 0.91220 0.35090
C40 C 0.16240 0.89100 0.28080
C41 C 0.06420 0.91420 0.28150
C42 C 0.03850 0.95320 0.33750
loop_
_geom_bond_atom_site_label_1
_geom_bond_atom_site_label_2
_geom_bond_site_symmetry_1
_geom_bond_site_symmetry_2
O1 C1 1_555 1_555
O2 C1 1_555 1_555
O3 C3 1_555 1_555
O4 C4 1_555 1_555
O5 C6 1_555 1_555
C1 C2 1_555 1_555
C2 C3 1_555 1_555
C4 O3 1_555 1_555
C5 C4 1_555 1_555
C6 C5 1_555 1_555
C7 O5 1_555 1_555
C8 C6 1_555 1_555
C9 C8 1_555 1_555
C10 C9 1_555 1_555
C11 C5 1_555 1_555
C12 C2 1_555 1_555
C13 C10 1_555 1_555
C14 C13 1_555 1_555
C15 C13 1_555 1_555
O6 C16 1_555 1_555
O7 C16 1_555 1_555
O8 C18 1_555 1_555
O9 C19 1_555 1_555
O10 C21 1_555 1_555
C16 C17 1_555 1_555
C17 C18 1_555 1_555
C19 O8 1_555 1_555
C20 C19 1_555 1_555
C21 C20 1_555 1_555
C22 O10 1_555 1_555
C23 C21 1_555 1_555
C24 C23 1_555 1_555
C25 C24 1_555 1_555
C26 C20 1_555 1_555
C27 C17 1_555 1_555
C28 C25 1_555 1_555
C29 C28 1_555 1_555
C30 C28 1_555 1_555
C31 C32 1_555 1_555
C32 C33 1_555 1_555
C33 C34 1_555 1_555
C34 C35 1_555 1_555
C35 C36 1_555 1_555
C36 C31 1_555 1_555
C37 C38 1_555 1_555
C38 C39 1_555 1_555
C39 C40 1_555 1_555
C40 C41 1_555 1_555
C41 C42 1_555 1_555
C42 C37 1_555 1_555
C6 C7 1_555 1_555
C10 C11 1_555 1_555
C11 C12 1_555 1_555
C21 C22 1_555 1_555
C25 C26 1_555 1_555
C26 C27 1_555 1_555

#END
