
#######################################################################
#
#                 Cambridge Crystallographic Data Centre
#                                CCDC 
#
#######################################################################
#
# If this CIF has been generated from an entry in the Cambridge 
# Structural Database, then it will include bibliographic, chemical, 
# crystal, experimental, refinement or atomic coordinate data resulting 
# from the CCDC's data processing and validation procedures.
#
#######################################################################

data_BUJMUO
_chemical_formula_moiety         'C11 H13 N1 O3 S1'
_chemical_name_systematic        
cis-3,5-Dimethyl-1,1-dioxo-2-phenyl-4-thiazolidinone
_symmetry_cell_setting           monoclinic
_symmetry_space_group_name_H-M   'P 21/n'
_symmetry_Int_Tables_number      14
_space_group_name_Hall           '-P 2yn'
loop_
_symmetry_equiv_pos_site_id
_symmetry_equiv_pos_as_xyz
1 x,y,z
2 1/2-x,1/2+y,1/2-z
3 -x,-y,-z
4 1/2+x,1/2-y,1/2+z
_cell_length_a                   14.502(5)
_cell_length_b                   23.354(8)
_cell_length_c                   6.909(2)
_cell_angle_alpha                90
_cell_angle_beta                 90.26(2)
_cell_angle_gamma                90
_cell_volume                     2339.91
_exptl_crystal_colour            white
_chemical_melting_point          139-40deg.C
_cell_formula_units_Z            8
loop_
_atom_site_label
_atom_site_type_symbol
_atom_site_fract_x
_atom_site_fract_y
_atom_site_fract_z
S1 S 0.62639 0.74497 0.80330
C1 C 0.75010 0.74990 0.76810
N1 N 0.78230 0.76800 0.95900
C2 C 0.72250 0.79220 1.08290
C3 C 0.62390 0.79160 1.00570
O1 O 0.60200 0.68870 0.86410
O2 O 0.58000 0.76890 0.63910
C4 C 0.55250 0.77610 1.15360
O3 O 0.74290 0.81220 1.23980
C5 C 0.88150 0.77460 0.99250
C6 C 0.79160 0.69500 0.69630
C7 C 0.81000 0.64970 0.81810
C8 C 0.84970 0.60060 0.74700
C9 C 0.87000 0.59590 0.55470
C10 C 0.85040 0.64000 0.43220
C11 C 0.81110 0.68970 0.50240
H1 H 0.75300 0.78100 0.68000
H2 H 0.61800 0.82700 0.95900
H3 H 0.57200 0.74300 1.21700
H4 H 0.49900 0.77600 1.10400
H5 H 0.55400 0.80300 1.24100
H6 H 0.90200 0.79800 0.90600
H7 H 0.90900 0.74000 0.98400
H8 H 0.89500 0.79000 1.12000
H9 H 0.79300 0.65300 0.95600
H10 H 0.86400 0.57200 0.83900
H11 H 0.90000 0.56600 0.50000
H12 H 0.86400 0.63800 0.30000
H13 H 0.80200 0.72200 0.42300
S2 S 0.34418 1.04371 0.70380
C12 C 0.22070 1.05410 0.73500
N2 N 0.19180 1.07350 0.54450
C13 C 0.25580 1.09460 0.42290
C14 C 0.35310 1.08950 0.50080
O4 O 0.36080 0.98640 0.63940
O5 O 0.39300 1.06460 0.86910
C15 C 0.42550 1.07230 0.35800
O6 O 0.23800 1.11590 0.26600
C16 C 0.09430 1.08440 0.50930
C17 C 0.17470 1.00040 0.80580
C18 C 0.15780 0.95420 0.68660
C19 C 0.11790 0.90540 0.75690
C20 C 0.09510 0.90130 0.94650
C21 C 0.11260 0.94600 1.06830
C22 C 0.15210 0.99560 0.99780
H14 H 0.22000 1.08600 0.81900
H15 H 0.36300 1.12200 0.54800
H16 H 0.41400 1.03900 0.31400
H17 H 0.48900 1.06800 0.41200
H18 H 0.43100 1.09700 0.26500
H19 H 0.06900 1.11600 0.57800
H20 H 0.05600 1.05700 0.55700
H21 H 0.09100 1.09700 0.37700
H22 H 0.17200 0.95600 0.56000
H23 H 0.10500 0.87600 0.67800
H24 H 0.06800 0.86800 1.00900
H25 H 0.09500 0.94300 1.18400
H26 H 0.15300 1.02700 1.06100
loop_
_geom_bond_atom_site_label_1
_geom_bond_atom_site_label_2
_geom_bond_site_symmetry_1
_geom_bond_site_symmetry_2
S1 C1 1_555 1_555
C1 N1 1_555 1_555
N1 C2 1_555 1_555
C2 C3 1_555 1_555
C3 S1 1_555 1_555
O1 S1 1_555 1_555
O2 S1 1_555 1_555
C4 C3 1_555 1_555
O3 C2 1_555 1_555
C5 N1 1_555 1_555
C6 C1 1_555 1_555
C7 C6 1_555 1_555
C8 C7 1_555 1_555
C9 C8 1_555 1_555
C10 C9 1_555 1_555
C11 C6 1_555 1_555
H1 C1 1_555 1_555
H2 C3 1_555 1_555
H3 C4 1_555 1_555
H4 C4 1_555 1_555
H5 C4 1_555 1_555
H6 C5 1_555 1_555
H7 C5 1_555 1_555
H8 C5 1_555 1_555
H9 C7 1_555 1_555
H10 C8 1_555 1_555
H11 C9 1_555 1_555
H12 C10 1_555 1_555
H13 C11 1_555 1_555
S2 C12 1_555 1_555
C12 N2 1_555 1_555
N2 C13 1_555 1_555
C13 C14 1_555 1_555
C14 S2 1_555 1_555
O4 S2 1_555 1_555
O5 S2 1_555 1_555
C15 C14 1_555 1_555
O6 C13 1_555 1_555
C16 N2 1_555 1_555
C17 C12 1_555 1_555
C18 C17 1_555 1_555
C19 C18 1_555 1_555
C20 C19 1_555 1_555
C21 C20 1_555 1_555
C22 C17 1_555 1_555
H14 C12 1_555 1_555
H15 C14 1_555 1_555
H16 C15 1_555 1_555
H17 C15 1_555 1_555
H18 C15 1_555 1_555
H19 C16 1_555 1_555
H20 C16 1_555 1_555
H21 C16 1_555 1_555
H22 C18 1_555 1_555
H23 C19 1_555 1_555
H24 C20 1_555 1_555
H25 C21 1_555 1_555
H26 C22 1_555 1_555
C10 C11 1_555 1_555
C21 C22 1_555 1_555

#END
