
#######################################################################
#
#                 Cambridge Crystallographic Data Centre
#                                CCDC 
#
#######################################################################
#
# If this CIF has been generated from an entry in the Cambridge 
# Structural Database, then it will include bibliographic, chemical, 
# crystal, experimental, refinement or atomic coordinate data resulting 
# from the CCDC's data processing and validation procedures.
#
#######################################################################

data_BUJYEM
_chemical_formula_moiety         'C33 H30 N2 O6 S2'
_chemical_name_systematic        
'methyl 1-((4-methylphenyl)sulfonyl)-6-(((4-methylphenyl)sulfonyl)amino)-2,5-diphenyl-1,4-dihydropyridine-3-carboxylate unknown solvate'
_symmetry_cell_setting           triclinic
_symmetry_space_group_name_H-M   'P -1'
_symmetry_Int_Tables_number      2
_space_group_name_Hall           '-P 1'
loop_
_symmetry_equiv_pos_site_id
_symmetry_equiv_pos_as_xyz
1 x,y,z
2 -x,-y,-z
_cell_length_a                   10.7946(6)
_cell_length_b                   12.4093(6)
_cell_length_c                   13.1553(7)
_cell_angle_alpha                76.627(5)
_cell_angle_beta                 68.739(5)
_cell_angle_gamma                81.216(4)
_cell_volume                     1593.12
_exptl_crystal_colour            colorless
_exptl_crystal_description       block
_cell_formula_units_Z            2
loop_
_atom_site_label
_atom_site_type_symbol
_atom_site_fract_x
_atom_site_fract_y
_atom_site_fract_z
S1 S 0.36352(5) 0.85919(4) 0.04845(4)
S2 S 0.62073(5) 0.69409(4) 0.24274(4)
O1 O 0.44429(14) 0.91697(12) -0.05749(11)
O2 O 0.34731(15) 0.74409(11) 0.06272(12)
O3 O 0.65714(15) 0.80615(13) 0.20440(13)
O4 O 0.63640(15) 0.63202(14) 0.34408(13)
O5 O 0.12866(17) 0.58109(14) 0.60133(13)
O6 O 0.18273(15) 0.46910(13) 0.47823(13)
N1 N 0.43315(16) 0.87252(14) 0.13556(13)
H1 H 0.4963 0.9184 0.1144
N2 N 0.45845(16) 0.70063(14) 0.25584(14)
C1 C 0.0917(2) 0.87061(19) 0.13579(19)
H2 H 0.0997 0.7918 0.1537
C2 C -0.0329(2) 0.9285(2) 0.1614(2)
H3 H -0.1106 0.8885 0.1967
C3 C -0.0461(2) 1.0430(2) 0.13646(19)
C4 C 0.0685(2) 1.1004(2) 0.08373(19)
H4 H 0.0609 1.1793 0.0661
C5 C 0.1928(2) 1.04445(19) 0.05675(19)
H5 H 0.2704 1.0843 0.0198
C6 C 0.2040(2) 0.92943(17) 0.08385(16)
C7 C -0.1814(3) 1.1056(3) 0.1670(2)
H6 H -0.2495 1.0565 0.1767
H7 H -0.1829 1.1697 0.1077
H8 H -0.2000 1.1313 0.2365
C8 C 0.39186(19) 0.81002(16) 0.24574(16)
C9 C 0.2964(2) 0.84138(17) 0.33323(16)
C10 C 0.2602(2) 0.75791(17) 0.44164(17)
H9 H 0.3144 0.7672 0.4853
H10 H 0.1652 0.7727 0.4854
C11 C 0.2834(2) 0.63949(17) 0.42284(17)
C12 C 0.38310(19) 0.61228(16) 0.33443(16)
C13 C 0.2250(2) 0.95395(17) 0.32989(16)
C14 C 0.2956(2) 1.04777(18) 0.29805(18)
H11 H 0.3901 1.0400 0.2757
C15 C 0.2296(3) 1.15265(19) 0.2986(2)
H12 H 0.2789 1.2162 0.2772
C16 C 0.0921(3) 1.16503(19) 0.33006(19)
H13 H 0.0467 1.2369 0.3298
C17 C 0.0215(2) 1.07250(19) 0.36166(18)
H14 H -0.0729 1.0807 0.3829
C18 C 0.0871(2) 0.96720(18) 0.36275(17)
H15 H 0.0372 0.9037 0.3862
C19 C 0.1916(2) 0.56133(18) 0.51034(18)
C20 C 0.1043(2) 0.3861(2) 0.5634(2)
H16 H 0.1001 0.3241 0.5306
H17 H 0.0139 0.4188 0.5969
H18 H 0.1455 0.3590 0.6208
C21 C 0.43083(19) 0.50233(16) 0.30177(17)
C22 C 0.4728(2) 0.41415(18) 0.37138(19)
H19 H 0.4664 0.4216 0.4434
C23 C 0.5243(2) 0.31485(19) 0.3347(2)
H20 H 0.5546 0.2547 0.3816
C24 C 0.5318(2) 0.30277(19) 0.2310(2)
H21 H 0.5657 0.2341 0.2073
C25 C 0.4902(2) 0.39035(19) 0.1617(2)
H22 H 0.4960 0.3822 0.0900
C26 C 0.4400(2) 0.49019(18) 0.19680(17)
H23 H 0.4117 0.5506 0.1490
C27 C 0.7044(2) 0.61778(17) 0.13688(17)
C28 C 0.7690(2) 0.51544(18) 0.1613(2)
H24 H 0.7684 0.4855 0.2348
C29 C 0.8348(2) 0.45734(19) 0.0761(2)
H25 H 0.8797 0.3869 0.0920
C30 C 0.8369(2) 0.49919(19) -0.0314(2)
C31 C 0.7707(2) 0.60327(19) -0.05337(19)
H26 H 0.7716 0.6335 -0.1269
C32 C 0.7044(2) 0.66276(18) 0.02985(18)
H27 H 0.6595 0.7333 0.0143
C33 C 0.9057(3) 0.4352(2) -0.1239(2)
H28 H 0.8388 0.4091 -0.1448
H29 H 0.9601 0.3714 -0.0986
H30 H 0.9631 0.4837 -0.1883
loop_
_geom_bond_atom_site_label_1
_geom_bond_atom_site_label_2
_geom_bond_site_symmetry_1
_geom_bond_site_symmetry_2
S1 O1 1_555 1_555
S2 O3 1_555 1_555
O2 S1 1_555 1_555
O4 S2 1_555 1_555
O5 C19 1_555 1_555
O6 C19 1_555 1_555
N1 S1 1_555 1_555
H1 N1 1_555 1_555
N2 S2 1_555 1_555
C1 H2 1_555 1_555
C2 C1 1_555 1_555
H3 C2 1_555 1_555
C3 C2 1_555 1_555
C4 C3 1_555 1_555
H4 C4 1_555 1_555
C5 C4 1_555 1_555
H5 C5 1_555 1_555
C6 S1 1_555 1_555
C7 C3 1_555 1_555
H6 C7 1_555 1_555
H7 C7 1_555 1_555
H8 C7 1_555 1_555
C8 N1 1_555 1_555
C9 C8 1_555 1_555
C10 C9 1_555 1_555
H9 C10 1_555 1_555
H10 C10 1_555 1_555
C11 C10 1_555 1_555
C12 N2 1_555 1_555
C13 C9 1_555 1_555
C14 C13 1_555 1_555
H11 C14 1_555 1_555
C15 C14 1_555 1_555
H12 C15 1_555 1_555
C16 C15 1_555 1_555
H13 C16 1_555 1_555
C17 C16 1_555 1_555
H14 C17 1_555 1_555
C18 C13 1_555 1_555
H15 C18 1_555 1_555
C19 C11 1_555 1_555
C20 O6 1_555 1_555
H16 C20 1_555 1_555
H17 C20 1_555 1_555
H18 C20 1_555 1_555
C21 C12 1_555 1_555
C22 C21 1_555 1_555
H19 C22 1_555 1_555
C23 C22 1_555 1_555
H20 C23 1_555 1_555
C24 C23 1_555 1_555
H21 C24 1_555 1_555
C25 C24 1_555 1_555
H22 C25 1_555 1_555
C26 C21 1_555 1_555
H23 C26 1_555 1_555
C27 S2 1_555 1_555
C28 C27 1_555 1_555
H24 C28 1_555 1_555
C29 C28 1_555 1_555
H25 C29 1_555 1_555
C30 C29 1_555 1_555
C31 C30 1_555 1_555
H26 C31 1_555 1_555
C32 C27 1_555 1_555
H27 C32 1_555 1_555
C33 C30 1_555 1_555
H28 C33 1_555 1_555
H29 C33 1_555 1_555
H30 C33 1_555 1_555
N2 C8 1_555 1_555
C1 C6 1_555 1_555
C5 C6 1_555 1_555
C11 C12 1_555 1_555
C17 C18 1_555 1_555
C25 C26 1_555 1_555
C31 C32 1_555 1_555

#END
