
#######################################################################
#
#                 Cambridge Crystallographic Data Centre
#                                CCDC 
#
#######################################################################
#
# If this CIF has been generated from an entry in the Cambridge 
# Structural Database, then it will include bibliographic, chemical, 
# crystal, experimental, refinement or atomic coordinate data resulting 
# from the CCDC's data processing and validation procedures.
#
#######################################################################

data_BUJZOV
_chemical_formula_moiety         'C42 H48 O6'
_chemical_name_systematic        
31,32,33,34,35,36-Hexamethoxyheptacyclo(25.3.1.1^2,6^.1^7,11^.1^12,16^.1^17,21^.1^22,26^)hexatriaconta-1(31),7,9,11(35),12,14,16(34),22,24,26(32),27,29-dodecaene
_symmetry_cell_setting           triclinic
_symmetry_space_group_name_H-M   'P -1'
_symmetry_Int_Tables_number      2
_space_group_name_Hall           '-P 1'
loop_
_symmetry_equiv_pos_site_id
_symmetry_equiv_pos_as_xyz
1 x,y,z
2 -x,-y,-z
_cell_length_a                   8.974(2)
_cell_length_b                   10.855(3)
_cell_length_c                   10.959(3)
_cell_angle_alpha                77.47(2)
_cell_angle_beta                 76.56(2)
_cell_angle_gamma                115.03(2)
_cell_volume                     878.529
_cell_formula_units_Z            1
loop_
_atom_site_label
_atom_site_type_symbol
_atom_site_fract_x
_atom_site_fract_y
_atom_site_fract_z
C1 C 0.17000 0.17040 0.73920
C2 C 0.12680 0.23330 0.82820
C3 C 0.11860 0.35790 0.78560
C4 C 0.14180 0.41680 0.65380
C5 C 0.18530 0.35830 0.55990
C6 C 0.20630 0.23760 0.60250
O1 O 0.25400 0.17900 0.51100
C7 C 0.43000 0.20390 0.48100
C8 C 0.19740 0.42120 0.41630
C9 C 0.38330 0.50310 0.31120
C10 C 0.38450 0.56280 0.17350
C11 C 0.26890 0.43750 0.13450
C12 C 0.08030 0.35300 0.23390
C13 C 0.06080 0.30540 0.37940
O2 O -0.11420 0.27390 0.45780
C14 C -0.21750 0.14850 0.56040
C15 C -0.04120 0.22590 0.20260
C16 C -0.17280 0.23100 0.15950
C17 C -0.29460 0.11290 0.13930
C18 C -0.29320 -0.01580 0.17040
C19 C 0.16510 0.02790 0.78600
C20 C -0.03440 0.09760 0.22370
O3 O 0.09710 0.08870 0.26320
C21 C 0.22710 0.08570 0.16390
H1 H 0.10100 0.18400 0.93300
H2 H 0.09100 0.40900 0.85600
H3 H 0.12800 0.51200 0.62200
H4 H 0.46100 0.16900 0.39800
H5 H 0.44500 0.14500 0.56600
H6 H 0.51900 0.31900 0.45100
H7 H 0.16200 0.50500 0.41500
H8 H 0.40500 0.41200 0.32500
H9 H 0.48200 0.58800 0.33100
H10 H 0.32000 0.62700 0.17300
H11 H 0.51200 0.62400 0.09300
H12 H 0.30500 0.35400 0.13400
H13 H 0.26000 0.47800 0.03900
H14 H 0.03800 0.43300 0.21900
H15 H 0.08207 0.21336 0.40089
H16 H -0.34400 0.12800 0.62340
H17 H -0.15300 0.11800 0.62300
H18 H -0.23700 0.08500 0.49700
H19 H -0.18200 0.32900 0.14200
H20 H -0.39000 0.12300 0.09900
H21 H -0.39300 -0.10900 0.16000
H22 H 0.33700 0.11500 0.19800
H23 H 0.26400 0.17000 0.07100
H24 H 0.19200 -0.01600 0.14800
C19A C -0.16510 -0.02790 0.21400
C18A C 0.29320 0.01580 0.82960
C20A C 0.03440 -0.09760 0.77630
C1A C -0.17000 -0.17040 0.26080
C17A C 0.29460 -0.11290 0.86070
H21A H 0.39300 0.10900 0.84000
C15A C 0.04120 -0.22590 0.79740
O3A O -0.09710 -0.08870 0.73680
C2A C -0.12680 -0.23330 0.17180
C6A C -0.20630 -0.23760 0.39750
C16A C 0.17280 -0.23100 0.84050
H20A H 0.39000 -0.12300 0.90100
C12A C -0.08030 -0.35300 0.76610
C21A C -0.22710 -0.08570 0.83610
C3A C -0.11860 -0.35790 0.21440
H1A H -0.10100 -0.18400 0.06700
C5A C -0.18530 -0.35830 0.44010
O1A O -0.25400 -0.17900 0.48900
H19A H 0.18200 -0.32900 0.85800
C11A C -0.26890 -0.43750 0.86550
C13A C -0.06080 -0.30540 0.62060
H14A H -0.03800 -0.43300 0.78100
H22A H -0.33700 -0.11500 0.80200
H23A H -0.26400 -0.17000 0.92900
H24A H -0.19200 0.01600 0.85200
C4A C -0.14180 -0.41680 0.34620
H2A H -0.09100 -0.40900 0.14400
C8A C -0.19740 -0.42120 0.58370
C7A C -0.43000 -0.20390 0.51900
C10A C -0.38450 -0.56280 0.82650
H12A H -0.30500 -0.35400 0.86600
H13A H -0.26000 -0.47800 0.96100
O2A O 0.11420 -0.27390 0.54220
H15A H -0.08207 -0.21336 0.59911
H3A H -0.12800 -0.51200 0.37800
C9A C -0.38330 -0.50310 0.68880
H7A H -0.16200 -0.50500 0.58500
H4A H -0.46100 -0.16900 0.60200
H5A H -0.44500 -0.14500 0.43400
H6A H -0.51900 -0.31900 0.54900
H10A H -0.32000 -0.62700 0.82700
H11A H -0.51200 -0.62400 0.90700
C14A C 0.21750 -0.14850 0.43960
H8A H -0.40500 -0.41200 0.67500
H9A H -0.48200 -0.58800 0.66900
H16A H 0.34400 -0.12800 0.37660
H17A H 0.15300 -0.11800 0.37700
H18A H 0.23700 -0.08500 0.50300
loop_
_geom_bond_atom_site_label_1
_geom_bond_atom_site_label_2
_geom_bond_site_symmetry_1
_geom_bond_site_symmetry_2
C1 C2 1_555 1_555
C2 C3 1_555 1_555
C3 C4 1_555 1_555
C4 C5 1_555 1_555
C5 C6 1_555 1_555
C6 C1 1_555 1_555
O1 C6 1_555 1_555
C7 O1 1_555 1_555
C8 C5 1_555 1_555
C9 C8 1_555 1_555
C10 C9 1_555 1_555
C11 C10 1_555 1_555
C12 C11 1_555 1_555
C13 C8 1_555 1_555
O2 C13 1_555 1_555
C14 O2 1_555 1_555
C15 C12 1_555 1_555
C16 C15 1_555 1_555
C17 C16 1_555 1_555
C18 C17 1_555 1_555
C19 C1 1_555 1_555
C20 C15 1_555 1_555
O3 C20 1_555 1_555
C21 O3 1_555 1_555
H1 C2 1_555 1_555
H2 C3 1_555 1_555
H3 C4 1_555 1_555
H4 C7 1_555 1_555
H5 C7 1_555 1_555
H6 C7 1_555 1_555
H7 C8 1_555 1_555
H8 C9 1_555 1_555
H9 C9 1_555 1_555
H10 C10 1_555 1_555
H11 C10 1_555 1_555
H12 C11 1_555 1_555
H13 C11 1_555 1_555
H14 C12 1_555 1_555
H15 C13 1_555 1_555
H16 C14 1_555 1_555
H17 C14 1_555 1_555
H18 C14 1_555 1_555
H19 C16 1_555 1_555
H20 C17 1_555 1_555
H21 C18 1_555 1_555
H22 C21 1_555 1_555
H23 C21 1_555 1_555
H24 C21 1_555 1_555
C19A C18 1_555 1_555
C18A C19 1_555 1_555
C20A C19 1_555 1_555
C1A C19A 1_555 1_555
C17A C18A 1_555 1_555
H21A C18A 1_555 1_555
C15A C20A 1_555 1_555
O3A C20A 1_555 1_555
C2A C1A 1_555 1_555
C6A C1A 1_555 1_555
C16A C17A 1_555 1_555
H20A C17A 1_555 1_555
C12A C15A 1_555 1_555
C21A O3A 1_555 1_555
C3A C2A 1_555 1_555
H1A C2A 1_555 1_555
C5A C6A 1_555 1_555
O1A C6A 1_555 1_555
H19A C16A 1_555 1_555
C11A C12A 1_555 1_555
C13A C12A 1_555 1_555
H14A C12A 1_555 1_555
H22A C21A 1_555 1_555
H23A C21A 1_555 1_555
H24A C21A 1_555 1_555
C4A C3A 1_555 1_555
H2A C3A 1_555 1_555
C8A C5A 1_555 1_555
C7A O1A 1_555 1_555
C10A C11A 1_555 1_555
H12A C11A 1_555 1_555
H13A C11A 1_555 1_555
O2A C13A 1_555 1_555
H15A C13A 1_555 1_555
H3A C4A 1_555 1_555
C9A C8A 1_555 1_555
H7A C8A 1_555 1_555
H4A C7A 1_555 1_555
H5A C7A 1_555 1_555
H6A C7A 1_555 1_555
H10A C10A 1_555 1_555
H11A C10A 1_555 1_555
C14A O2A 1_555 1_555
H8A C9A 1_555 1_555
H9A C9A 1_555 1_555
H16A C14A 1_555 1_555
H17A C14A 1_555 1_555
H18A C14A 1_555 1_555
C12 C13 1_555 1_555
C20 C19A 1_555 1_555
C15A C16A 1_555 1_555
C5A C4A 1_555 1_555
C13A C8A 1_555 1_555
C10A C9A 1_555 1_555

#END
