
#######################################################################
#
#                 Cambridge Crystallographic Data Centre
#                                CCDC 
#
#######################################################################
#
# If this CIF has been generated from an entry in the Cambridge 
# Structural Database, then it will include bibliographic, chemical, 
# crystal, experimental, refinement or atomic coordinate data resulting 
# from the CCDC's data processing and validation procedures.
#
#######################################################################

data_BUJZUB
_chemical_formula_moiety         'C30 H35 N1 O5'
_chemical_name_systematic        
28,29,30-Trimethoxy-3,21,27-dioxa-azapentacyclo(21.3.1.1^5,9^.1^10,14^.1^15,19^)triaconta-1(27),5,7,9(30),15,17,19(28),23,25-nonaene
_symmetry_cell_setting           triclinic
_symmetry_space_group_name_H-M   'P -1'
_symmetry_Int_Tables_number      2
_space_group_name_Hall           '-P 1'
loop_
_symmetry_equiv_pos_site_id
_symmetry_equiv_pos_as_xyz
1 x,y,z
2 -x,-y,-z
_cell_length_a                   7.778(3)
_cell_length_b                   10.534(6)
_cell_length_c                   16.429(8)
_cell_angle_alpha                93.90(4)
_cell_angle_beta                 100.80(4)
_cell_angle_gamma                102.97(4)
_cell_volume                     1279.96
_cell_formula_units_Z            2
loop_
_atom_site_label
_atom_site_type_symbol
_atom_site_fract_x
_atom_site_fract_y
_atom_site_fract_z
C1 C 0.35990 0.20480 0.73050
C2 C 0.25160 0.27200 0.68220
C3 C 0.17810 0.22490 0.59860
C4 C 0.20330 0.10740 0.56540
C5 C 0.30670 0.03600 0.61250
C6 C 0.39010 0.09050 0.69510
O1 O 0.49970 0.02390 0.74360
C7 C 0.68920 0.08350 0.75270
C8 C 0.30270 -0.10310 0.57840
C9 C 0.48670 -0.13380 0.57720
C10 C 0.46140 -0.27490 0.53990
C11 C 0.37320 -0.36860 0.59620
C12 C 0.19040 -0.34350 0.60650
C13 C 0.20000 -0.19730 0.63060
O2 O 0.01600 -0.18610 0.61540
C14 C -0.03950 -0.13880 0.68620
C15 C 0.10430 -0.42060 0.67010
C16 C -0.06920 -0.50170 0.64500
C17 C -0.15970 -0.56220 0.70250
C18 C -0.08050 -0.53800 0.78610
C19 C 0.09030 -0.45690 0.81330
C20 C 0.18420 -0.40230 0.75520
O3 O 0.35540 -0.31930 0.78110
C21 C 0.49420 -0.38290 0.81290
C22 C 0.16870 -0.42170 0.90870
C23 C 0.13330 -0.11660 0.95310
C24 C 0.25450 -0.08530 1.02810
C25 C 0.35120 0.04310 1.05170
C26 C 0.32270 0.13490 0.99890
C27 C 0.19550 0.09800 0.92540
N1 N 0.10340 -0.02550 0.90150
C28 C 0.15230 0.19640 0.86620
O4 O 0.30690 0.29820 0.86240
C29 C 0.43350 0.25100 0.82310
O5 O 0.04900 -0.37300 0.95000
C30 C -0.02300 -0.26400 0.92300
H1 H 0.22400 0.36000 0.70900
H2 H 0.10200 0.28000 0.55900
H3 H 0.14100 0.07100 0.50100
H4 H 0.76100 0.02000 0.78600
H5 H 0.72800 0.18000 0.78700
H6 H 0.72200 0.08900 0.69200
H7 H 0.23700 -0.11500 0.51300
H8 H 0.56500 -0.12000 0.64000
H9 H 0.55800 -0.06800 0.54000
H10 H 0.37600 -0.29100 0.47800
H11 H 0.59100 -0.29300 0.53500
H12 H 0.35100 -0.46800 0.56800
H13 H 0.46200 -0.35500 0.65700
H14 H 0.10700 -0.37700 0.54500
H15 H 0.27200 -0.17000 0.69500
H16 H -0.18300 -0.14800 0.66900
H17 H 0.02900 -0.03700 0.70700
H18 H -0.01100 -0.19800 0.73600
H19 H -0.13400 -0.51700 0.58000
H20 H -0.29100 -0.62800 0.68200
H21 H -0.15300 -0.58300 0.83100
H22 H 0.62300 -0.31400 0.82100
H23 H 0.49000 -0.46600 0.77000
H24 H 0.47600 -0.41500 0.87200
H25 H 0.23100 -0.49500 0.93600
H26 H 0.27400 -0.16000 1.06900
H27 H 0.44700 0.07000 1.11000
H28 H 0.40000 0.23500 1.01500
H29 H 0.05300 0.24100 0.88600
H30 H 0.09800 0.14400 0.80400
H31 H 0.55400 0.32900 0.83000
H32 H 0.46700 0.17000 0.85400
H33 H -0.03500 -0.26900 0.85600
H34 H -0.15400 -0.27100 0.93700
loop_
_geom_bond_atom_site_label_1
_geom_bond_atom_site_label_2
_geom_bond_site_symmetry_1
_geom_bond_site_symmetry_2
C1 C2 1_555 1_555
C2 C3 1_555 1_555
C3 C4 1_555 1_555
C4 C5 1_555 1_555
C5 C6 1_555 1_555
C6 C1 1_555 1_555
O1 C6 1_555 1_555
C7 O1 1_555 1_555
C8 C5 1_555 1_555
C9 C8 1_555 1_555
C10 C9 1_555 1_555
C11 C10 1_555 1_555
C12 C11 1_555 1_555
C13 C8 1_555 1_555
O2 C13 1_555 1_555
C14 O2 1_555 1_555
C15 C12 1_555 1_555
C16 C15 1_555 1_555
C17 C16 1_555 1_555
C18 C17 1_555 1_555
C19 C18 1_555 1_555
C20 C15 1_555 1_555
O3 C20 1_555 1_555
C21 O3 1_555 1_555
C22 C19 1_555 1_555
C23 C24 1_555 1_555
C24 C25 1_555 1_555
C25 C26 1_555 1_555
C26 C27 1_555 1_555
C27 N1 1_555 1_555
N1 C23 1_555 1_555
C28 C27 1_555 1_555
O4 C28 1_555 1_555
C29 C1 1_555 1_555
O5 C22 1_555 1_555
C30 C23 1_555 1_555
H1 C2 1_555 1_555
H2 C3 1_555 1_555
H3 C4 1_555 1_555
H4 C7 1_555 1_555
H5 C7 1_555 1_555
H6 C7 1_555 1_555
H7 C8 1_555 1_555
H8 C9 1_555 1_555
H9 C9 1_555 1_555
H10 C10 1_555 1_555
H11 C10 1_555 1_555
H12 C11 1_555 1_555
H13 C11 1_555 1_555
H14 C12 1_555 1_555
H15 C13 1_555 1_555
H16 C14 1_555 1_555
H17 C14 1_555 1_555
H18 C14 1_555 1_555
H19 C16 1_555 1_555
H20 C17 1_555 1_555
H21 C18 1_555 1_555
H22 C21 1_555 1_555
H23 C21 1_555 1_555
H24 C21 1_555 1_555
H25 C22 1_555 1_555
H26 C24 1_555 1_555
H27 C25 1_555 1_555
H28 C26 1_555 1_555
H29 C28 1_555 1_555
H30 C28 1_555 1_555
H31 C29 1_555 1_555
H32 C29 1_555 1_555
H33 C30 1_555 1_555
H34 C30 1_555 1_555
C12 C13 1_555 1_555
C19 C20 1_555 1_555
O4 C29 1_555 1_555
O5 C30 1_555 1_555

#END
