
#######################################################################
#
#                 Cambridge Crystallographic Data Centre
#                                CCDC 
#
#######################################################################
#
# If this CIF has been generated from an entry in the Cambridge 
# Structural Database, then it will include bibliographic, chemical, 
# crystal, experimental, refinement or atomic coordinate data resulting 
# from the CCDC's data processing and validation procedures.
#
#######################################################################

data_BUKBEO
_chemical_formula_moiety         
'C30 H35 N1 O5,C4 H12 N1 1+,Cl1 O4 1-,0.5(C6 H12)'
_chemical_name_systematic        
'28,29,30-Trimethoxy-3,21,27-dioxa-azapentacyclo(21.3.1.1^5,9^.1^10,14^.1^15,19^)triaconta-1(27),5,7,9(30),15,17,19(28),23,25-nonaene t-butylammonium perchlorate cyclohexane solvate'
_symmetry_cell_setting           orthorhombic
_symmetry_space_group_name_H-M   'P b c a'
_symmetry_Int_Tables_number      61
_space_group_name_Hall           '-P 2ac 2ab'
loop_
_symmetry_equiv_pos_site_id
_symmetry_equiv_pos_as_xyz
1 x,y,z
2 1/2-x,-y,1/2+z
3 1/2+x,1/2-y,-z
4 -x,1/2+y,1/2-z
5 -x,-y,-z
6 1/2+x,y,1/2-z
7 1/2-x,1/2+y,z
8 x,1/2-y,1/2+z
_cell_length_a                   17.609(3)
_cell_length_b                   20.446(4)
_cell_length_c                   20.024(5)
_cell_angle_alpha                90
_cell_angle_beta                 90
_cell_angle_gamma                90
_cell_volume                     7209.31
_cell_formula_units_Z            8
loop_
_atom_site_label
_atom_site_type_symbol
_atom_site_fract_x
_atom_site_fract_y
_atom_site_fract_z
C1 C 0.49170 0.19630 0.43640
C2 C 0.47020 0.16300 0.37860
C3 C 0.39780 0.13870 0.37210
C4 C 0.34680 0.14290 0.42420
C5 C 0.36630 0.17530 0.48420
C6 C 0.43720 0.20490 0.48650
O1 O 0.45720 0.24280 0.54160
C7 C 0.42680 0.30810 0.53420
C8 C 0.32060 0.17080 0.54880
C9 C 0.23390 0.16250 0.54150
C10 C 0.19650 0.15780 0.61090
C11 C 0.23150 0.10330 0.65380
C12 C 0.31690 0.11120 0.65830
C13 C 0.34970 0.11040 0.58780
O2 O 0.43100 0.10890 0.58880
C14 C 0.46110 0.05120 0.55820
C15 C 0.35950 0.06170 0.70010
C16 C 0.34070 -0.00440 0.70090
C17 C 0.39020 -0.04980 0.72970
C18 C 0.45990 -0.03100 0.75370
C19 C 0.48000 0.03450 0.75460
C20 C 0.42740 0.08020 0.73080
O3 O 0.44750 0.14650 0.73420
C21 C 0.41300 0.17850 0.79040
C22 C 0.55740 0.05740 0.77670
O4 O 0.60390 0.07670 0.72000
C23 C 0.63320 0.02000 0.68620
C24 C 0.68160 0.04120 0.62760
C25 C 0.75650 0.02420 0.62380
C26 C 0.79610 0.04060 0.56630
C27 C 0.75960 0.07340 0.51510
C28 C 0.68480 0.09040 0.52400
N1 N 0.64560 0.07440 0.57940
C29 C 0.64080 0.12490 0.47010
O5 O 0.61280 0.18610 0.49610
C30 C 0.57090 0.22300 0.44670
H1 H 0.51100 0.15600 0.33900
H2 H 0.38100 0.11600 0.32600
H3 H 0.29100 0.12100 0.41900
H4 H 0.43700 0.33700 0.57800
H5 H 0.36600 0.30400 0.52500
H6 H 0.45300 0.33100 0.49200
H7 H 0.32900 0.21700 0.57300
H8 H 0.21100 0.20400 0.51500
H9 H 0.22200 0.11800 0.51400
H10 H 0.13700 0.14800 0.60400
H11 H 0.20400 0.20400 0.63600
H12 H 0.21900 0.05700 0.63200
H13 H 0.20800 0.10500 0.70300
H14 H 0.32500 0.15700 0.68400
H15 H 0.33100 0.06700 0.56300
H16 H 0.52200 0.05500 0.56000
H17 H 0.44300 0.04500 0.50700
H18 H 0.44300 0.01000 0.58700
H19 H 0.28800 -0.02100 0.67900
H20 H 0.37300 -0.10100 0.73300
H21 H 0.49900 -0.06700 0.77200
H22 H 0.42400 0.23000 0.79000
H23 H 0.43500 0.15800 0.83600
H24 H 0.35200 0.17000 0.78800
H25 H 0.58500 0.01800 0.80300
H26 H 0.55100 0.09900 0.81000
H27 H 0.66800 -0.00800 0.72100
H28 H 0.58700 -0.01000 0.66900
H29 H 0.78400 -0.00100 0.66400
H30 H 0.85500 0.02800 0.56100
H31 H 0.78900 0.08500 0.46900
H32 H 0.59400 0.09500 0.45500
H33 H 0.67700 0.13400 0.42800
H34 H 0.56700 0.27300 0.46300
H35 H 0.60100 0.22100 0.40000
N2 N 0.56540 0.19310 0.63890
C31 C 0.61770 0.24480 0.66790
C32 C 0.60280 0.30910 0.63250
C33 C 0.59960 0.25010 0.74210
C34 C 0.69870 0.22140 0.65690
H36 H 0.55700 0.14800 0.64800
H37 H 0.51300 0.20100 0.63100
H38 H 0.57200 0.18400 0.59300
H39 H 0.63900 0.34700 0.65400
H40 H 0.54400 0.32400 0.63700
H41 H 0.61600 0.30300 0.58000
H42 H 0.63900 0.28400 0.76400
H43 H 0.60300 0.20400 0.76800
H44 H 0.54300 0.26900 0.74700
H45 H 0.73600 0.25500 0.68300
H46 H 0.70700 0.17200 0.67500
H47 H 0.71200 0.22300 0.60400
Cl1 Cl 0.31840 0.14420 0.18680
O6 O 0.39040 0.17010 0.20290
O7 O 0.27580 0.13010 0.24670
O8 O 0.27730 0.18660 0.14540
O9 O 0.33070 0.08500 0.15020
C35 C 0.01900 -0.03100 0.56500
C36 C -0.04300 -0.05700 0.51800
C37 C 0.02200 0.04400 0.55600
C37D C -0.02200 -0.04400 0.44400
C36D C 0.04300 0.05700 0.48200
C35D C -0.01900 0.03100 0.43500
loop_
_geom_bond_atom_site_label_1
_geom_bond_atom_site_label_2
_geom_bond_site_symmetry_1
_geom_bond_site_symmetry_2
C1 C2 1_555 1_555
C2 C3 1_555 1_555
C3 C4 1_555 1_555
C4 C5 1_555 1_555
C5 C6 1_555 1_555
C6 C1 1_555 1_555
O1 C6 1_555 1_555
C7 O1 1_555 1_555
C8 C5 1_555 1_555
C9 C8 1_555 1_555
C10 C9 1_555 1_555
C11 C10 1_555 1_555
C12 C11 1_555 1_555
C13 C8 1_555 1_555
O2 C13 1_555 1_555
C14 O2 1_555 1_555
C15 C12 1_555 1_555
C16 C15 1_555 1_555
C17 C16 1_555 1_555
C18 C17 1_555 1_555
C19 C18 1_555 1_555
C20 C15 1_555 1_555
O3 C20 1_555 1_555
C21 O3 1_555 1_555
C22 C19 1_555 1_555
O4 C22 1_555 1_555
C23 O4 1_555 1_555
C24 C23 1_555 1_555
C25 C24 1_555 1_555
C26 C25 1_555 1_555
C27 C26 1_555 1_555
C28 C27 1_555 1_555
N1 C24 1_555 1_555
C29 C28 1_555 1_555
O5 C29 1_555 1_555
C30 C1 1_555 1_555
H1 C2 1_555 1_555
H2 C3 1_555 1_555
H3 C4 1_555 1_555
H4 C7 1_555 1_555
H5 C7 1_555 1_555
H6 C7 1_555 1_555
H7 C8 1_555 1_555
H8 C9 1_555 1_555
H9 C9 1_555 1_555
H10 C10 1_555 1_555
H11 C10 1_555 1_555
H12 C11 1_555 1_555
H13 C11 1_555 1_555
H14 C12 1_555 1_555
H15 C13 1_555 1_555
H16 C14 1_555 1_555
H17 C14 1_555 1_555
H18 C14 1_555 1_555
H19 C16 1_555 1_555
H20 C17 1_555 1_555
H21 C18 1_555 1_555
H22 C21 1_555 1_555
H23 C21 1_555 1_555
H24 C21 1_555 1_555
H25 C22 1_555 1_555
H26 C22 1_555 1_555
H27 C23 1_555 1_555
H28 C23 1_555 1_555
H29 C25 1_555 1_555
H30 C26 1_555 1_555
H31 C27 1_555 1_555
H32 C29 1_555 1_555
H33 C29 1_555 1_555
H34 C30 1_555 1_555
H35 C30 1_555 1_555
N2 C31 1_555 1_555
C31 C32 1_555 1_555
C32 H39 1_555 1_555
C33 C31 1_555 1_555
C34 C31 1_555 1_555
H36 N2 1_555 1_555
H37 N2 1_555 1_555
H38 N2 1_555 1_555
H40 C32 1_555 1_555
H41 C32 1_555 1_555
H42 C33 1_555 1_555
H43 C33 1_555 1_555
H44 C33 1_555 1_555
H45 C34 1_555 1_555
H46 C34 1_555 1_555
H47 C34 1_555 1_555
Cl1 O6 1_555 1_555
O7 Cl1 1_555 1_555
O8 Cl1 1_555 1_555
O9 Cl1 1_555 1_555
C35 C36 1_555 1_555
C36 C37D 1_555 1_555
C37 C35 1_555 1_555
C37D C35D 1_555 1_555
C36D C37 1_555 1_555
C35D C36D 1_555 1_555
C12 C13 1_555 1_555
C19 C20 1_555 1_555
C28 N1 1_555 1_555
O5 C30 1_555 1_555

#END
