
#######################################################################
#
#                 Cambridge Crystallographic Data Centre
#                                CCDC 
#
#######################################################################
#
# If this CIF has been generated from an entry in the Cambridge 
# Structural Database, then it will include bibliographic, chemical, 
# crystal, experimental, refinement or atomic coordinate data resulting 
# from the CCDC's data processing and validation procedures.
#
#######################################################################

data_BUKVOU
_chemical_name_common            
'4,9-bis((trifluoromethanesulfonyl)oxy)-14,19,24,26,28,30,32,34-octamethoxypillar(5)arene hexane solvate'
_chemical_formula_moiety         'C45 H44 F6 O14 S2,C6 H14'
_chemical_name_systematic        
'14,19,24,26,28,30,32,34-octamethoxyhexacyclo[21.2.2.2^3,6^.2^8,11^.2^13,16^.2^18,21^]pentatriaconta-1(25),3,5,8,10,13,15,18,20,23,26,28,30,32,34-pentadecaene-4,9-diyl bis(trifluoromethanesulfonate) hexane solvate'
_symmetry_cell_setting           orthorhombic
_symmetry_space_group_name_H-M   'P 21 21 21'
_symmetry_Int_Tables_number      19
_space_group_name_Hall           'P 2ac 2ab'
loop_
_symmetry_equiv_pos_site_id
_symmetry_equiv_pos_as_xyz
1 x,y,z
2 1/2-x,-y,1/2+z
3 -x,1/2+y,1/2-z
4 1/2+x,1/2-y,-z
_cell_length_a                   11.3045(7)
_cell_length_b                   12.1357(7)
_cell_length_c                   37.187(2)
_cell_angle_alpha                90
_cell_angle_beta                 90
_cell_angle_gamma                90
_cell_volume                     5101.61
_exptl_crystal_colour            colorless
_exptl_crystal_description       block
_cell_formula_units_Z            4
_exptl_crystal_recrystallization_method dichloromethane/hexane
loop_
_atom_site_label
_atom_site_type_symbol
_atom_site_fract_x
_atom_site_fract_y
_atom_site_fract_z
S1 S -0.04657(8) 0.28211(7) 0.11468(2)
S2 S 0.10599(8) 0.07015(7) 0.26088(2)
F1 F -0.0117(2) 0.4686(2) 0.08169(7)
F2 F -0.0225(3) 0.4823(2) 0.13891(7)
F3 F -0.1799(2) 0.4537(2) 0.10748(8)
F4 F 0.1304(2) -0.1386(2) 0.27660(7)
F5 F 0.0254(2) -0.10791(17) 0.23001(6)
F6 F -0.0458(2) -0.0736(2) 0.28229(7)
O1 O 0.4951(2) 0.33934(19) 0.04783(6)
O2 O 0.5090(2) 0.35489(17) 0.17697(6)
O3 O 0.3414(2) -0.33735(17) 0.18989(6)
O4 O 0.6670(2) -0.0079(2) 0.21838(7)
O5 O 0.2790(2) -0.31214(19) 0.05871(6)
O6 O 0.7387(2) -0.2918(2) 0.10969(6)
O7 O 0.1488(2) 0.06356(19) 0.02091(7)
O8 O 0.6124(2) -0.07069(18) 0.00413(7)
O9 O 0.0846(2) 0.2732(2) 0.12660(6)
O10 O -0.0684(3) 0.2380(3) 0.08009(8)
O11 O -0.1135(3) 0.2492(3) 0.14491(8)
O12 O 0.1982(2) 0.04520(17) 0.23110(6)
O13 O 0.1605(3) 0.0925(3) 0.29415(7)
O14 O 0.0130(3) 0.1369(2) 0.24789(8)
C1 C 0.2998(3) 0.2729(2) 0.05066(8)
C2 C 0.1960(3) 0.2583(2) 0.06993(8)
H1 H 0.1306 0.2218 0.0592
C3 C 0.1876(3) 0.2966(2) 0.10468(8)
C4 C 0.2783(3) 0.3511(2) 0.12225(8)
C5 C 0.3820(3) 0.3672(2) 0.10260(8)
H2 H 0.4459 0.4059 0.1133
C6 C 0.3939(3) 0.3279(2) 0.06768(8)
C7 C 0.5935(3) 0.3887(3) 0.06536(9)
H3 H 0.6603 0.3928 0.0486
H4 H 0.6158 0.3443 0.0863
H5 H 0.5721 0.4632 0.0732
C8 C 0.2720(3) 0.3854(2) 0.16138(8)
H6 H 0.1894 0.4046 0.1676
H7 H 0.3217 0.4516 0.1652
C9 C 0.3147(3) 0.2928(2) 0.18548(7)
C10 C 0.2369(3) 0.2167(2) 0.19962(8)
H8 H 0.1544 0.2241 0.1956
C11 C 0.2799(3) 0.1295(2) 0.21971(8)
C12 C 0.3984(3) 0.1138(2) 0.22734(7)
C13 C 0.4767(3) 0.1901(2) 0.21258(8)
H9 H 0.5593 0.1821 0.2166
C14 C 0.4355(3) 0.2781(2) 0.19203(8)
C15 C 0.6318(3) 0.3304(3) 0.17597(9)
H10 H 0.6446 0.2623 0.1623
H11 H 0.6614 0.3210 0.2005
H12 H 0.6743 0.3911 0.1643
C16 C 0.4440(3) 0.0170(2) 0.24907(8)
H13 H 0.5148 0.0404 0.2627
H14 H 0.3827 -0.0055 0.2666
C17 C 0.4757(3) -0.0808(2) 0.22570(8)
C18 C 0.3930(3) -0.1626(2) 0.21871(8)
H15 H 0.3157 -0.1564 0.2286
C19 C 0.4209(3) -0.2536(2) 0.19753(7)
C20 C 0.5337(3) -0.2649(2) 0.18288(7)
C21 C 0.6169(3) -0.1831(2) 0.19002(8)
H16 H 0.6946 -0.1900 0.1805
C22 C 0.5884(3) -0.0915(2) 0.21084(8)
C23 C 0.2284(4) -0.3308(3) 0.20642(11)
H17 H 0.1798 -0.3933 0.1986
H18 H 0.1898 -0.2618 0.1994
H19 H 0.2376 -0.3328 0.2326
C24 C 0.7760(4) -0.0077(4) 0.19983(14)
H20 H 0.7614 -0.0104 0.1739
H21 H 0.8226 -0.0721 0.2070
H22 H 0.8198 0.0597 0.2057
C25 C 0.5648(3) -0.3612(2) 0.15865(8)
H23 H 0.5188 -0.4269 0.1661
H24 H 0.6499 -0.3788 0.1612
C26 C 0.5379(3) -0.3344(2) 0.11958(8)
C27 C 0.4221(3) -0.3412(2) 0.10709(8)
H25 H 0.3617 -0.3672 0.1227
C28 C 0.3930(3) -0.3105(2) 0.07212(8)
C29 C 0.4801(3) -0.2742(2) 0.04847(8)
C30 C 0.5965(3) -0.2693(2) 0.06061(8)
H26 H 0.6573 -0.2462 0.0446
C31 C 0.6251(3) -0.2979(2) 0.09590(8)
C32 C 0.1896(4) -0.3578(3) 0.08109(11)
H27 H 0.1136 -0.3559 0.0684
H28 H 0.1838 -0.3147 0.1033
H29 H 0.2098 -0.4342 0.0869
C33 C 0.8314(4) -0.2642(4) 0.08581(11)
H30 H 0.8357 -0.3194 0.0666
H31 H 0.9065 -0.2628 0.0990
H32 H 0.8163 -0.1915 0.0753
C34 C 0.4480(3) -0.2357(2) 0.01092(8)
H33 H 0.5166 -0.2464 -0.0053
H34 H 0.3817 -0.2808 0.0017
C35 C 0.4125(3) -0.1153(2) 0.01073(8)
C36 C 0.2945(3) -0.0845(2) 0.01490(8)
H35 H 0.2351 -0.1395 0.0170
C37 C 0.2633(3) 0.0267(2) 0.01603(8)
C38 C 0.3487(3) 0.1081(2) 0.01214(8)
C39 C 0.4657(3) 0.0774(2) 0.00809(8)
H36 H 0.5248 0.1325 0.0056
C40 C 0.4984(3) -0.0340(2) 0.00764(8)
C41 C 0.0562(4) -0.0156(3) 0.02232(12)
H37 H 0.0542 -0.0572 -0.0003
H38 H -0.0196 0.0221 0.0258
H39 H 0.0702 -0.0663 0.0424
C42 C 0.7020(4) 0.0099(3) -0.00196(12)
H40 H 0.6809 0.0547 -0.0229
H41 H 0.7777 -0.0270 -0.0064
H42 H 0.7090 0.0575 0.0192
C43 C 0.3132(3) 0.2289(2) 0.01270(8)
H43 H 0.3738 0.2727 -0.0001
H44 H 0.2373 0.2379 -0.0003
C44 C -0.0664(3) 0.4311(3) 0.11061(10)
C45 C 0.0514(3) -0.0719(3) 0.26247(10)
C46 C 0.1068(7) -0.0331(6) 0.13333(18)
H45 H 0.0787 0.0221 0.1161
H46 H 0.1082 -0.0011 0.1575
H47 H 0.0536 -0.0969 0.1330
C47 C 0.2324(6) -0.0701(4) 0.12282(15)
H48 H 0.2559 -0.1311 0.1390
H49 H 0.2294 -0.1001 0.0981
C48 C 0.3260(6) 0.0147(4) 0.12406(14)
H50 H 0.3317 0.0429 0.1490
H51 H 0.3019 0.0770 0.1085
C49 C 0.4464(5) -0.0231(4) 0.11246(12)
H52 H 0.4405 -0.0505 0.0875
H53 H 0.4695 -0.0863 0.1278
C50 C 0.5439(6) 0.0607(4) 0.11392(16)
H54 H 0.5198 0.1257 0.0996
H55 H 0.5537 0.0852 0.1391
C51 C 0.6569(7) 0.0219(6) 0.10075(17)
H56 H 0.6465 -0.0107 0.0769
H57 H 0.6884 -0.0337 0.1173
H58 H 0.7122 0.0839 0.0992
loop_
_geom_bond_atom_site_label_1
_geom_bond_atom_site_label_2
_geom_bond_site_symmetry_1
_geom_bond_site_symmetry_2
S1 O9 1_555 1_555
S2 O12 1_555 1_555
F1 C44 1_555 1_555
F2 C44 1_555 1_555
F3 C44 1_555 1_555
F4 C45 1_555 1_555
F5 C45 1_555 1_555
F6 C45 1_555 1_555
O1 C6 1_555 1_555
O2 C14 1_555 1_555
O3 C19 1_555 1_555
O4 C22 1_555 1_555
O5 C28 1_555 1_555
O6 C31 1_555 1_555
O7 C37 1_555 1_555
O8 C40 1_555 1_555
O9 C3 1_555 1_555
O10 S1 1_555 1_555
O11 S1 1_555 1_555
O12 C11 1_555 1_555
O13 S2 1_555 1_555
O14 S2 1_555 1_555
C1 C2 1_555 1_555
C2 H1 1_555 1_555
C3 C2 1_555 1_555
C4 C3 1_555 1_555
C5 C4 1_555 1_555
H2 C5 1_555 1_555
C6 C1 1_555 1_555
C7 O1 1_555 1_555
H3 C7 1_555 1_555
H4 C7 1_555 1_555
H5 C7 1_555 1_555
C8 C4 1_555 1_555
H6 C8 1_555 1_555
H7 C8 1_555 1_555
C9 C8 1_555 1_555
C10 C9 1_555 1_555
H8 C10 1_555 1_555
C11 C10 1_555 1_555
C12 C11 1_555 1_555
C13 C12 1_555 1_555
H9 C13 1_555 1_555
C14 C9 1_555 1_555
C15 O2 1_555 1_555
H10 C15 1_555 1_555
H11 C15 1_555 1_555
H12 C15 1_555 1_555
C16 C12 1_555 1_555
H13 C16 1_555 1_555
H14 C16 1_555 1_555
C17 C16 1_555 1_555
C18 C17 1_555 1_555
H15 C18 1_555 1_555
C19 C18 1_555 1_555
C20 C19 1_555 1_555
C21 C20 1_555 1_555
H16 C21 1_555 1_555
C22 C17 1_555 1_555
C23 O3 1_555 1_555
H17 C23 1_555 1_555
H18 C23 1_555 1_555
H19 C23 1_555 1_555
C24 O4 1_555 1_555
H20 C24 1_555 1_555
H21 C24 1_555 1_555
H22 C24 1_555 1_555
C25 C20 1_555 1_555
H23 C25 1_555 1_555
H24 C25 1_555 1_555
C26 C25 1_555 1_555
C27 C26 1_555 1_555
H25 C27 1_555 1_555
C28 C27 1_555 1_555
C29 C28 1_555 1_555
C30 C29 1_555 1_555
H26 C30 1_555 1_555
C31 C26 1_555 1_555
C32 O5 1_555 1_555
H27 C32 1_555 1_555
H28 C32 1_555 1_555
H29 C32 1_555 1_555
C33 O6 1_555 1_555
H30 C33 1_555 1_555
H31 C33 1_555 1_555
H32 C33 1_555 1_555
C34 C29 1_555 1_555
H33 C34 1_555 1_555
H34 C34 1_555 1_555
C35 C34 1_555 1_555
C36 C35 1_555 1_555
H35 C36 1_555 1_555
C37 C36 1_555 1_555
C38 C37 1_555 1_555
C39 C38 1_555 1_555
H36 C39 1_555 1_555
C40 C35 1_555 1_555
C41 O7 1_555 1_555
H37 C41 1_555 1_555
H38 C41 1_555 1_555
H39 C41 1_555 1_555
C42 O8 1_555 1_555
H40 C42 1_555 1_555
H41 C42 1_555 1_555
H42 C42 1_555 1_555
C43 C1 1_555 1_555
H43 C43 1_555 1_555
H44 C43 1_555 1_555
C44 S1 1_555 1_555
C45 S2 1_555 1_555
C46 H45 1_555 1_555
H46 C46 1_555 1_555
H47 C46 1_555 1_555
C47 C46 1_555 1_555
H48 C47 1_555 1_555
H49 C47 1_555 1_555
C48 C47 1_555 1_555
H50 C48 1_555 1_555
H51 C48 1_555 1_555
C49 C48 1_555 1_555
H52 C49 1_555 1_555
H53 C49 1_555 1_555
C50 C49 1_555 1_555
H54 C50 1_555 1_555
H55 C50 1_555 1_555
C51 C50 1_555 1_555
H56 C51 1_555 1_555
H57 C51 1_555 1_555
H58 C51 1_555 1_555
C5 C6 1_555 1_555
C13 C14 1_555 1_555
C21 C22 1_555 1_555
C30 C31 1_555 1_555
C38 C43 1_555 1_555
C39 C40 1_555 1_555

#END
