
#######################################################################
#
#                 Cambridge Crystallographic Data Centre
#                                CCDC 
#
#######################################################################
#
# If this CIF has been generated from an entry in the Cambridge 
# Structural Database, then it will include bibliographic, chemical, 
# crystal, experimental, refinement or atomic coordinate data resulting 
# from the CCDC's data processing and validation procedures.
#
#######################################################################

data_BUKVIO
_chemical_name_common            
'4-((trifluoromethanesulfonyl)oxy)-9,14,19,24,26,28,30,32,34-nonamethoxypillar(5)arene dichloromethane hexane solvate'
_chemical_formula_moiety         
'C45 H47 F3 O12 S1,1.13(C1 H2 Cl2),0.44(C6 H14)'
_chemical_name_systematic        
'9,14,19,24,26,28,30,32,34-nonamethoxyhexacyclo[21.2.2.2^3,6^.2^8,11^.2^13,16^.2^18,21^]pentatriaconta-1(25),3,5,8,10,13,15,18,20,23,26,28,30,32,34-pentadecaen-4-yl trifluoromethanesulfonate dichloromethane hexane solvate'
_symmetry_cell_setting           orthorhombic
_symmetry_space_group_name_H-M   'P n a 21'
_symmetry_Int_Tables_number      33
_space_group_name_Hall           'P 2c -2n'
loop_
_symmetry_equiv_pos_site_id
_symmetry_equiv_pos_as_xyz
1 x,y,z
2 -x,-y,1/2+z
3 1/2-x,1/2+y,1/2+z
4 1/2+x,1/2-y,z
_cell_length_a                   35.9931(11)
_cell_length_b                   12.0648(4)
_cell_length_c                   11.3690(4)
_cell_angle_alpha                90
_cell_angle_beta                 90
_cell_angle_gamma                90
_cell_volume                     4936.98
_exptl_crystal_colour            colorless
_exptl_crystal_description       block
_cell_formula_units_Z            4
_exptl_crystal_recrystallization_method dichloromethane/hexane
loop_
_atom_site_label
_atom_site_type_symbol
_atom_site_fract_x
_atom_site_fract_y
_atom_site_fract_z
S1 S 0.35809(5) 0.62204(17) 0.99332(18)
F1 F 0.39667(17) 0.6953(5) 1.1655(5)
F2 F 0.42836(16) 0.6724(6) 1.0063(5)
F3 F 0.4126(2) 0.5287(6) 1.1102(7)
O1 O 0.36579(13) 0.5270(4) 0.9000(5)
O2 O 0.35442(16) 0.7273(5) 0.9411(5)
O3 O 0.33174(18) 0.5777(6) 1.0717(6)
O4 O 0.44773(12) 0.5840(4) 0.4938(5)
O5 O 0.25305(14) 0.2759(4) 0.7631(4)
O6 O 0.31356(13) 0.5853(4) 0.4600(4)
O7 O 0.30879(14) -0.0987(4) 0.6350(4)
O8 O 0.26708(14) 0.2070(5) 0.2962(4)
O9 O 0.44059(14) -0.0772(4) 0.6988(5)
O10 O 0.38797(14) -0.0474(5) 0.2415(4)
O11 O 0.47554(15) 0.3116(4) 0.8410(5)
O12 O 0.49100(15) 0.1847(4) 0.3763(5)
C1 C 0.38556(18) 0.5476(5) 0.7944(6)
C2 C 0.36766(18) 0.5917(5) 0.6968(6)
C3 C 0.38864(18) 0.6056(5) 0.5961(6)
H1 H 0.3775 0.6386 0.5289
C4 C 0.42565(18) 0.5725(5) 0.5907(6)
C5 C 0.44344(17) 0.5239(5) 0.6894(7)
C6 C 0.42284(19) 0.5136(5) 0.7914(6)
H2 H 0.4340 0.4832 0.8600
C7 C 0.4018(3) 0.6286(9) 1.0739(9)
C8 C 0.4307(2) 0.6296(8) 0.3918(7)
H3 H 0.4482 0.6266 0.3258
H4 H 0.4238 0.7069 0.4070
H5 H 0.4084 0.5868 0.3724
C9 C 0.32642(18) 0.6191(5) 0.6972(6)
H6 H 0.3185 0.6379 0.7781
H7 H 0.3218 0.6843 0.6464
C10 C 0.30426(17) 0.5220(5) 0.6531(6)
C11 C 0.28899(17) 0.4450(6) 0.7307(6)
H8 H 0.2926 0.4544 0.8128
C12 C 0.26864(17) 0.3546(6) 0.6904(6)
C13 C 0.26272(17) 0.3397(5) 0.5699(6)
C14 C 0.27764(16) 0.4163(5) 0.4927(6)
H9 H 0.2738 0.4067 0.4107
C15 C 0.29805(16) 0.5069(5) 0.5319(6)
C16 C 0.26206(19) 0.2802(6) 0.8853(6)
H10 H 0.2888 0.2687 0.8955
H11 H 0.2484 0.2221 0.9272
H12 H 0.2551 0.3528 0.9170
C17 C 0.3120(2) 0.5667(6) 0.3344(6)
H13 H 0.3248 0.6271 0.2936
H14 H 0.2860 0.5644 0.3090
H15 H 0.3240 0.4961 0.3155
C18 C 0.24006(17) 0.2420(6) 0.5241(6)
H16 H 0.2220 0.2189 0.5852
H17 H 0.2258 0.2656 0.4539
C19 C 0.26428(16) 0.1446(5) 0.4921(6)
C20 C 0.27452(18) 0.0675(5) 0.5772(6)
H18 H 0.2650 0.0754 0.6547
C21 C 0.29781(18) -0.0193(5) 0.5534(6)
C22 C 0.31188(17) -0.0348(5) 0.4380(6)
C23 C 0.30135(18) 0.0410(6) 0.3526(6)
H19 H 0.3102 0.0317 0.2744
C24 C 0.27846(17) 0.1294(6) 0.3779(6)
C25 C 0.2973(3) -0.0809(7) 0.7524(7)
H20 H 0.2701 -0.0827 0.7564
H21 H 0.3062 -0.0085 0.7792
H22 H 0.3076 -0.1392 0.8029
C26 C 0.2786(2) 0.1911(7) 0.1773(6)
H23 H 0.2663 0.2456 0.1268
H24 H 0.2719 0.1162 0.1517
H25 H 0.3056 0.2007 0.1718
C27 C 0.33875(19) -0.1291(6) 0.4108(6)
H26 H 0.3316 -0.1955 0.4568
H27 H 0.3371 -0.1482 0.3263
C28 C 0.37810(19) -0.0972(5) 0.4406(6)
C29 C 0.39130(18) -0.1076(5) 0.5557(6)
H28 H 0.3757 -0.1395 0.6138
C30 C 0.42662(18) -0.0724(5) 0.5873(6)
C31 C 0.45025(18) -0.0280(5) 0.5014(6)
C32 C 0.43779(18) -0.0211(5) 0.3846(6)
H29 H 0.4538 0.0072 0.3253
C33 C 0.40247(19) -0.0553(5) 0.3561(6)
C34 C 0.4185(2) -0.1299(7) 0.7869(7)
H30 H 0.4123 -0.2052 0.7615
H31 H 0.3956 -0.0874 0.7989
H32 H 0.4325 -0.1331 0.8608
C35 C 0.4135(3) -0.0249(10) 0.1485(8)
H33 H 0.4020 -0.0436 0.0729
H34 H 0.4360 -0.0696 0.1594
H35 H 0.4201 0.0539 0.1492
C36 C 0.48836(19) 0.0161(5) 0.5363(7)
H36 H 0.4984 -0.0293 0.6016
H37 H 0.5055 0.0091 0.4687
C37 C 0.48664(17) 0.1360(5) 0.5744(6)
C38 C 0.48254(17) 0.1656(5) 0.6927(6)
H38 H 0.4809 0.1091 0.7508
C39 C 0.48077(18) 0.2766(6) 0.7270(6)
C40 C 0.48369(17) 0.3603(6) 0.6430(6)
C41 C 0.48694(18) 0.3307(5) 0.5246(6)
H39 H 0.4885 0.3872 0.4667
C42 C 0.48799(18) 0.2201(6) 0.4896(7)
C43 C 0.4775(3) 0.2310(7) 0.9322(7)
H40 H 0.4575 0.1768 0.9220
H41 H 0.4748 0.2676 1.0086
H42 H 0.5016 0.1931 0.9287
C44 C 0.4945(3) 0.2669(6) 0.2883(7)
H43 H 0.4976 0.2313 0.2115
H44 H 0.5162 0.3134 0.3052
H45 H 0.4721 0.3131 0.2872
C45 C 0.48273(18) 0.4811(5) 0.6801(7)
H46 H 0.4952 0.4891 0.7572
H47 H 0.4966 0.5261 0.6220
Cl1 Cl 0.3850(2) 0.2500(5) 0.2516(7)
Cl2 Cl 0.38323(13) 0.3549(4) 0.4794(6)
C46 C 0.3824(6) 0.2288(15) 0.4039(16)
H48 H 0.3592 0.1886 0.4229
H49 H 0.4036 0.1826 0.4296
Cl3 Cl 0.3713(3) 0.1342(5) 0.6985(8)
Cl4 Cl 0.37327(16) 0.2408(5) 0.9270(7)
C47 C 0.3760(4) 0.2586(15) 0.7755(16)
H50 H 0.4002 0.2925 0.7557
H51 H 0.3562 0.3104 0.7501
C48 C 0.389(3) 0.266(5) 0.298(4)
H52 H 0.3706 0.3004 0.2452
H53 H 0.3850 0.1850 0.2975
H54 H 0.4139 0.2830 0.2716
C49 C 0.3832(7) 0.308(2) 0.418(2)
H55 H 0.4062 0.3473 0.4419
H56 H 0.3630 0.3633 0.4161
C50 C 0.3743(7) 0.2268(19) 0.5108(17)
H57 H 0.3904 0.1611 0.4997
H58 H 0.3483 0.2023 0.4998
C51 C 0.3787(6) 0.2664(15) 0.6344(16)
H59 H 0.4051 0.2869 0.6471
H60 H 0.3636 0.3342 0.6448
C52 C 0.3677(15) 0.184(3) 0.726(2)
H61 H 0.3804 0.1131 0.7104
H62 H 0.3406 0.1712 0.7209
C53 C 0.3771(15) 0.222(3) 0.848(3)
H63 H 0.4045 0.2223 0.8573
H64 H 0.3683 0.2991 0.8585
C54? C 0.361(4) 0.153(8) 0.943(5)
H65? H 0.3338 0.1533 0.9365
H66? H 0.3682 0.1833 1.0198
H67? H 0.3702 0.0769 0.9360
loop_
_geom_bond_atom_site_label_1
_geom_bond_atom_site_label_2
_geom_bond_site_symmetry_1
_geom_bond_site_symmetry_2
S1 O1 1_555 1_555
F1 C7 1_555 1_555
F2 C7 1_555 1_555
F3 C7 1_555 1_555
O1 C1 1_555 1_555
O2 S1 1_555 1_555
O3 S1 1_555 1_555
O4 C4 1_555 1_555
O5 C12 1_555 1_555
O6 C15 1_555 1_555
O7 C21 1_555 1_555
O8 C24 1_555 1_555
O9 C30 1_555 1_555
O10 C33 1_555 1_555
O11 C39 1_555 1_555
O12 C42 1_555 1_555
C1 C2 1_555 1_555
C2 C3 1_555 1_555
C3 H1 1_555 1_555
C4 C3 1_555 1_555
C5 C4 1_555 1_555
C6 C1 1_555 1_555
H2 C6 1_555 1_555
C7 S1 1_555 1_555
C8 O4 1_555 1_555
H3 C8 1_555 1_555
H4 C8 1_555 1_555
H5 C8 1_555 1_555
C9 C2 1_555 1_555
H6 C9 1_555 1_555
H7 C9 1_555 1_555
C10 C9 1_555 1_555
C11 C10 1_555 1_555
H8 C11 1_555 1_555
C12 C11 1_555 1_555
C13 C12 1_555 1_555
C14 C13 1_555 1_555
H9 C14 1_555 1_555
C15 C10 1_555 1_555
C16 O5 1_555 1_555
H10 C16 1_555 1_555
H11 C16 1_555 1_555
H12 C16 1_555 1_555
C17 O6 1_555 1_555
H13 C17 1_555 1_555
H14 C17 1_555 1_555
H15 C17 1_555 1_555
C18 C13 1_555 1_555
H16 C18 1_555 1_555
H17 C18 1_555 1_555
C19 C18 1_555 1_555
C20 C19 1_555 1_555
H18 C20 1_555 1_555
C21 C20 1_555 1_555
C22 C21 1_555 1_555
C23 C22 1_555 1_555
H19 C23 1_555 1_555
C24 C19 1_555 1_555
C25 O7 1_555 1_555
H20 C25 1_555 1_555
H21 C25 1_555 1_555
H22 C25 1_555 1_555
C26 O8 1_555 1_555
H23 C26 1_555 1_555
H24 C26 1_555 1_555
H25 C26 1_555 1_555
C27 C22 1_555 1_555
H26 C27 1_555 1_555
H27 C27 1_555 1_555
C28 C27 1_555 1_555
C29 C28 1_555 1_555
H28 C29 1_555 1_555
C30 C29 1_555 1_555
C31 C30 1_555 1_555
C32 C31 1_555 1_555
H29 C32 1_555 1_555
C33 C28 1_555 1_555
C34 O9 1_555 1_555
H30 C34 1_555 1_555
H31 C34 1_555 1_555
H32 C34 1_555 1_555
C35 O10 1_555 1_555
H33 C35 1_555 1_555
H34 C35 1_555 1_555
H35 C35 1_555 1_555
C36 C31 1_555 1_555
H36 C36 1_555 1_555
H37 C36 1_555 1_555
C37 C36 1_555 1_555
C38 C37 1_555 1_555
H38 C38 1_555 1_555
C39 C38 1_555 1_555
C40 C39 1_555 1_555
C41 C40 1_555 1_555
H39 C41 1_555 1_555
C42 C37 1_555 1_555
C43 O11 1_555 1_555
H40 C43 1_555 1_555
H41 C43 1_555 1_555
H42 C43 1_555 1_555
C44 O12 1_555 1_555
H43 C44 1_555 1_555
H44 C44 1_555 1_555
H45 C44 1_555 1_555
C45 C5 1_555 1_555
H46 C45 1_555 1_555
H47 C45 1_555 1_555
Cl1 C46 1_555 1_555
Cl2 C46 1_555 1_555
C46 H48 1_555 1_555
H49 C46 1_555 1_555
Cl3 C47 1_555 1_555
Cl4 C47 1_555 1_555
C47 H50 1_555 1_555
H51 C47 1_555 1_555
C48 H52 1_555 1_555
H53 C48 1_555 1_555
H54 C48 1_555 1_555
C49 C48 1_555 1_555
H55 C49 1_555 1_555
H56 C49 1_555 1_555
C50 C49 1_555 1_555
H57 C50 1_555 1_555
H58 C50 1_555 1_555
C51 C50 1_555 1_555
H59 C51 1_555 1_555
H60 C51 1_555 1_555
C52 C51 1_555 1_555
H61 C52 1_555 1_555
H62 C52 1_555 1_555
C53 C52 1_555 1_555
H63 C53 1_555 1_555
H64 C53 1_555 1_555
C5 C6 1_555 1_555
C14 C15 1_555 1_555
C23 C24 1_555 1_555
C32 C33 1_555 1_555
C40 C45 1_555 1_555
C41 C42 1_555 1_555

#END
