
#######################################################################
#
#                 Cambridge Crystallographic Data Centre
#                                CCDC 
#
#######################################################################
#
# If this CIF has been generated from an entry in the Cambridge 
# Structural Database, then it will include bibliographic, chemical, 
# crystal, experimental, refinement or atomic coordinate data resulting 
# from the CCDC's data processing and validation procedures.
#
#######################################################################

data_BUKZUC
_chemical_formula_moiety         'C22 H18 Ca1 N6 O1 S2'
_chemical_name_systematic        
Aqua-bis(2,2'-bipyridyl)-bis(thiocyanato-N)-calcium
_symmetry_cell_setting           monoclinic
_symmetry_space_group_name_H-M   'P 21/c'
_symmetry_Int_Tables_number      14
_space_group_name_Hall           '-P 2ybc'
loop_
_symmetry_equiv_pos_site_id
_symmetry_equiv_pos_as_xyz
1 x,y,z
2 -x,1/2+y,1/2-z
3 -x,-y,-z
4 x,1/2-y,1/2+z
_cell_length_a                   16.33(1)
_cell_length_b                   9.851(3)
_cell_length_c                   14.802(7)
_cell_angle_alpha                90
_cell_angle_beta                 97.91(5)
_cell_angle_gamma                90
_cell_volume                     2358.5
_cell_formula_units_Z            4
loop_
_atom_site_label
_atom_site_type_symbol
_atom_site_fract_x
_atom_site_fract_y
_atom_site_fract_z
Ca1 Ca 0.73200 0.09520 0.97740
N1 N 0.69090 0.28100 1.06590
N2 N 0.79840 0.00450 1.12570
N3 N 0.57910 0.06600 0.91940
N4 N 0.67890 -0.14530 0.96550
N5 N 0.87340 0.19820 0.99060
N6 N 0.83020 -0.00970 0.87610
O1 O 0.70550 0.24290 0.84490
C1 C 0.66450 0.35560 1.11300
S1 S 0.62420 0.45960 1.18300
C2 C 0.82020 0.02710 1.20110
S2 S 0.84990 0.05370 1.30750
C3 C 0.53000 0.17190 0.90030
C4 C 0.44960 0.16390 0.85630
C5 C 0.41940 0.03580 0.82770
C6 C 0.46880 -0.07490 0.84600
C7 C 0.55010 -0.05780 0.89290
C8 C 0.60590 -0.17700 0.91990
C9 C 0.58380 -0.31150 0.89870
C10 C 0.63830 -0.41550 0.92740
C11 C 0.71200 -0.38460 0.97660
C12 C 0.73050 -0.24810 0.99360
C13 C 0.89480 0.29480 1.05240
C14 C 0.97430 0.34700 1.07150
C15 C 1.03390 0.29720 1.02580
C16 C 1.01390 0.19630 0.96200
C17 C 0.93230 0.14950 0.94480
C18 C 0.90670 0.04120 0.87550
C19 C 0.96010 -0.00510 0.81490
C20 C 0.93200 -0.10510 0.75390
C21 C 0.85400 -0.15800 0.75220
C22 C 0.80570 -0.10760 0.81510
loop_
_geom_bond_atom_site_label_1
_geom_bond_atom_site_label_2
_geom_bond_site_symmetry_1
_geom_bond_site_symmetry_2
Ca1 N1 1_555 1_555
N1 C1 1_555 1_555
N2 Ca1 1_555 1_555
N3 Ca1 1_555 1_555
N4 Ca1 1_555 1_555
N5 Ca1 1_555 1_555
N6 Ca1 1_555 1_555
O1 Ca1 1_555 1_555
C1 S1 1_555 1_555
C2 N2 1_555 1_555
S2 C2 1_555 1_555
C3 N3 1_555 1_555
C4 C3 1_555 1_555
C5 C4 1_555 1_555
C6 C5 1_555 1_555
C7 N3 1_555 1_555
C8 N4 1_555 1_555
C9 C8 1_555 1_555
C10 C9 1_555 1_555
C11 C10 1_555 1_555
C12 N4 1_555 1_555
C13 N5 1_555 1_555
C14 C13 1_555 1_555
C15 C14 1_555 1_555
C16 C15 1_555 1_555
C17 N5 1_555 1_555
C18 N6 1_555 1_555
C19 C18 1_555 1_555
C20 C19 1_555 1_555
C21 C20 1_555 1_555
C22 N6 1_555 1_555
C6 C7 1_555 1_555
C7 C8 1_555 1_555
C11 C12 1_555 1_555
C16 C17 1_555 1_555
C17 C18 1_555 1_555
C21 C22 1_555 1_555

#END
