
#######################################################################
#
#                 Cambridge Crystallographic Data Centre
#                                CCDC 
#
#######################################################################
#
# If this CIF has been generated from an entry in the Cambridge 
# Structural Database, then it will include bibliographic, chemical, 
# crystal, experimental, refinement or atomic coordinate data resulting 
# from the CCDC's data processing and validation procedures.
#
#######################################################################

data_BULDOD
_chemical_formula_moiety         'C6 H14 N1 1+,C6 H3 N2 O5 1-'
_chemical_name_systematic        '1-methylpiperidinium 2,4-dinitrophenolate'
_symmetry_cell_setting           monoclinic
_symmetry_space_group_name_H-M   'P 21/c'
_symmetry_Int_Tables_number      14
_space_group_name_Hall           '-P 2ybc'
loop_
_symmetry_equiv_pos_site_id
_symmetry_equiv_pos_as_xyz
1 x,y,z
2 -x,1/2+y,1/2-z
3 -x,-y,-z
4 x,1/2-y,1/2+z
_cell_length_a                   7.5357(6)
_cell_length_b                   17.1542(11)
_cell_length_c                   10.8286(9)
_cell_angle_alpha                90
_cell_angle_beta                 102.802(9)
_cell_angle_gamma                90
_cell_volume                     1365
_exptl_crystal_colour            yellow
_exptl_crystal_description       rectangular
_chemical_melting_point          '416.2 K'
_cell_formula_units_Z            4
_exptl_crystal_recrystallization_method ethanol
loop_
_atom_site_label
_atom_site_type_symbol
_atom_site_fract_x
_atom_site_fract_y
_atom_site_fract_z
O1 O 0.2670(2) 0.51460(8) 0.20443(14)
C1 C 0.2669(3) 0.39144(12) 0.52846(19)
C2 C 0.2734(3) 0.47937(11) 0.30735(19)
C3 C 0.2554(3) 0.51391(10) 0.42502(19)
C4 C 0.2936(3) 0.39618(11) 0.3139(2)
H1 H 0.3094 0.3699 0.2420
C5 C 0.2911(3) 0.35414(11) 0.4186(2)
H2 H 0.3054 0.3003 0.4178
C6 C 0.2495(3) 0.47067(12) 0.5312(2)
H3 H 0.2337 0.4953 0.6045
O2 O 0.2966(3) 0.63959(9) 0.36103(19)
N1 N 0.2606(3) 0.34693(14) 0.6395(2)
N2 N 0.2426(3) 0.59723(11) 0.4366(2)
O3 O 0.2802(3) 0.27643(12) 0.63755(19)
O4 O 0.2347(3) 0.38140(13) 0.73345(18)
O5 O 0.1852(3) 0.62353(10) 0.5250(2)
N3 N 0.1839(2) 0.64838(10) 0.07121(18)
C7 C 0.3581(3) 0.68366(12) 0.0544(2)
H4 H 0.4293 0.7005 0.1359
H5 H 0.3320 0.7291 0.0000
C8 C 0.4667(3) 0.62539(14) -0.0037(3)
H6 H 0.5757 0.6505 -0.0181
H7 H 0.5042 0.5829 0.0554
C9 C 0.1858(4) 0.55772(16) -0.1071(3)
H8 H 0.1136 0.5396 -0.1875
H9 H 0.2140 0.5130 -0.0512
C10 C 0.3595(4) 0.59281(16) -0.1274(2)
H10 H 0.3323 0.6341 -0.1900
H11 H 0.4307 0.5533 -0.1586
C11 C 0.0768(3) 0.61536(15) -0.0504(2)
H12 H 0.0379 0.6574 -0.1101
H13 H -0.0313 0.5899 -0.0350
C12 C 0.0726(4) 0.70616(15) 0.1226(3)
H14 H -0.0384 0.6821 0.1325
H15 H 0.1395 0.7244 0.2033
H16 H 0.0447 0.7493 0.0651
H17 H 0.212(3) 0.6088(14) 0.128(2)
loop_
_geom_bond_atom_site_label_1
_geom_bond_atom_site_label_2
_geom_bond_site_symmetry_1
_geom_bond_site_symmetry_2
O1 C2 1_555 1_555
C1 C5 1_555 1_555
C2 C3 1_555 1_555
C3 C6 1_555 1_555
C4 C2 1_555 1_555
H1 C4 1_555 1_555
C5 C4 1_555 1_555
H2 C5 1_555 1_555
C6 C1 1_555 1_555
H3 C6 1_555 1_555
O2 N2 1_555 1_555
N1 C1 1_555 1_555
N2 C3 1_555 1_555
O3 N1 1_555 1_555
O4 N1 1_555 1_555
O5 N2 1_555 1_555
N3 C7 1_555 1_555
C7 H4 1_555 1_555
H5 C7 1_555 1_555
C8 C7 1_555 1_555
H6 C8 1_555 1_555
H7 C8 1_555 1_555
C9 H8 1_555 1_555
H9 C9 1_555 1_555
C10 C8 1_555 1_555
H10 C10 1_555 1_555
H11 C10 1_555 1_555
C11 N3 1_555 1_555
H12 C11 1_555 1_555
H13 C11 1_555 1_555
C12 N3 1_555 1_555
H14 C12 1_555 1_555
H15 C12 1_555 1_555
H16 C12 1_555 1_555
H17 N3 1_555 1_555
C9 C10 1_555 1_555
C9 C11 1_555 1_555

#END
