
#######################################################################
#
#                 Cambridge Crystallographic Data Centre
#                                CCDC 
#
#######################################################################
#
# If this CIF has been generated from an entry in the Cambridge 
# Structural Database, then it will include bibliographic, chemical, 
# crystal, experimental, refinement or atomic coordinate data resulting 
# from the CCDC's data processing and validation procedures.
#
#######################################################################

data_BULDET
_chemical_formula_moiety         'C17 H18 N2 O5'
_chemical_name_systematic        
'ethyl 2-amino-4-(1-cyano-2-ethoxy-2-oxoethyl)-4H-chromene-3-carboxylate'
_symmetry_cell_setting           monoclinic
_symmetry_space_group_name_H-M   'P 21/n'
_symmetry_Int_Tables_number      14
_space_group_name_Hall           '-P 2yn'
loop_
_symmetry_equiv_pos_site_id
_symmetry_equiv_pos_as_xyz
1 x,y,z
2 1/2-x,1/2+y,1/2-z
3 -x,-y,-z
4 1/2+x,1/2-y,1/2+z
_cell_length_a                   9.271(5)
_cell_length_b                   8.507(5)
_cell_length_c                   21.337(5)
_cell_angle_alpha                90
_cell_angle_beta                 93.690(5)
_cell_angle_gamma                90
_cell_volume                     1679.33
_exptl_crystal_colour            brown
_exptl_crystal_description       rectangular
_cell_formula_units_Z            4
loop_
_atom_site_label
_atom_site_type_symbol
_atom_site_fract_x
_atom_site_fract_y
_atom_site_fract_z
O1 O -0.0500(2) 0.1781(3) 0.97891(11)
C1 C -0.0596(3) 0.3670(4) 0.89493(15)
C2 C -0.2703(3) 0.2036(4) 0.91569(15)
C3 C -0.1945(3) 0.1486(4) 0.96792(15)
C4 C -0.1588(4) 0.1757(4) 0.81135(15)
C5 C 0.1247(4) 0.5679(5) 0.89874(19)
H1 H 0.1625 0.6595 0.8826
O2 O -0.0506(4) 0.1712(4) 0.71455(14)
N1 N -0.2422(3) 0.0620(4) 1.01432(14)
H2 H -0.3315 0.0341 1.0134
H3 H -0.1837 0.0340 1.0452
C6 C -0.1935(3) 0.2893(4) 0.86570(15)
C7 C 0.1343(4) 0.3657(5) 0.97586(17)
H4 H 0.1796 0.3185 1.0112
C8 C 0.1924(4) 0.4986(5) 0.95003(19)
H5 H 0.2781 0.5408 0.9678
C9 C 0.0076(3) 0.3044(4) 0.94826(15)
C10 C -0.0462(4) 0.0621(4) 0.83223(16)
C11 C 0.0001(4) 0.5033(4) 0.87047(17)
H6 H -0.0443 0.5506 0.8350
N2 N 0.0423(4) -0.0199(4) 0.85206(16)
C12 C -0.1236(4) 0.2593(5) 0.75144(16)
C13 C -0.0098(8) 0.2396(9) 0.6545(2)
H7 H -0.0284 0.3518 0.6550
H8 H 0.0932 0.2250 0.6512
C14 C -0.0784(10) 0.1788(11) 0.6052(3)
H9 H -0.0593 0.0680 0.6038
H10 H -0.0462 0.2278 0.5680
H11 H -0.1804 0.1957 0.6073
C15 C -0.4228(3) 0.1730(4) 0.90714(16)
O3 O -0.4810(2) 0.2268(3) 0.85192(11)
C16 C -0.6358(4) 0.2034(5) 0.8388(2)
H12 H -0.6589(8) 0.091(3) 0.8396(2)
H13 H -0.6896(17) 0.2565(17) 0.8705(10)
C17 C -0.6745(5) 0.2679(9) 0.7772(2)
H14 H -0.7762 0.2539 0.7674
H15 H -0.6516 0.3780 0.7770
H16 H -0.6212 0.2147 0.7465
O4 O -0.4960(3) 0.1037(4) 0.94413(13)
O5 O -0.1581(5) 0.3912(4) 0.73974(16)
H17 H -0.258(3) 0.366(4) 0.8435(14)
H18 H -0.252(4) 0.124(5) 0.7980(17)
loop_
_geom_bond_atom_site_label_1
_geom_bond_atom_site_label_2
_geom_bond_site_symmetry_1
_geom_bond_site_symmetry_2
O1 C3 1_555 1_555
C1 C6 1_555 1_555
C2 C3 1_555 1_555
C3 N1 1_555 1_555
C4 C6 1_555 1_555
C5 H1 1_555 1_555
O2 C12 1_555 1_555
N1 H2 1_555 1_555
H3 N1 1_555 1_555
C6 C2 1_555 1_555
C7 H4 1_555 1_555
C8 C5 1_555 1_555
H5 C8 1_555 1_555
C9 O1 1_555 1_555
C10 C4 1_555 1_555
C11 C1 1_555 1_555
H6 C11 1_555 1_555
N2 C10 1_555 1_555
C12 C4 1_555 1_555
C13 O2 1_555 1_555
H7 C13 1_555 1_555
H8 C13 1_555 1_555
C14 C13 1_555 1_555
H9 C14 1_555 1_555
H10 C14 1_555 1_555
H11 C14 1_555 1_555
C15 C2 1_555 1_555
O3 C15 1_555 1_555
C16 O3 1_555 1_555
H12 C16 1_555 1_555
H13 C16 1_555 1_555
C17 C16 1_555 1_555
H14 C17 1_555 1_555
H15 C17 1_555 1_555
H16 C17 1_555 1_555
O4 C15 1_555 1_555
O5 C12 1_555 1_555
H17 C6 1_555 1_555
H18 C4 1_555 1_555
C1 C9 1_555 1_555
C5 C11 1_555 1_555
C7 C8 1_555 1_555
C7 C9 1_555 1_555

#END
