
#######################################################################
#
#                 Cambridge Crystallographic Data Centre
#                                CCDC 
#
#######################################################################
#
# If this CIF has been generated from an entry in the Cambridge 
# Structural Database, then it will include bibliographic, chemical, 
# crystal, experimental, refinement or atomic coordinate data resulting 
# from the CCDC's data processing and validation procedures.
#
#######################################################################

data_BULTEJ
_chemical_formula_moiety         
'C35 H36 N6 2+,0.5(C4 H4 O4),2(C4 H3 O4 1-),H2 O1'
_chemical_name_systematic        
'3,4,21,22-tetraethyl-29,31,32,33-tetraaza-28,30-diazoniaheptacyclo[22.3.1.12,5.16,10.111,14.115,19.120,23]tritriaconta-1(28),2,4,6(32),7,9,11,13,15(30),16,18,20,22,24,26-pentadecaene bis(3-carboxyacrylate) but-2-enedioic acid monohydrate unknown solvate'
_symmetry_cell_setting           triclinic
_symmetry_space_group_name_H-M   'P -1'
_symmetry_Int_Tables_number      2
_space_group_name_Hall           '-P 1'
loop_
_symmetry_equiv_pos_site_id
_symmetry_equiv_pos_as_xyz
1 x,y,z
2 -x,-y,-z
_cell_length_a                   10.836(8)
_cell_length_b                   12.429(13)
_cell_length_c                   17.378(10)
_cell_angle_alpha                85.76(3)
_cell_angle_beta                 75.054(14)
_cell_angle_gamma                84.33(4)
_cell_volume                     2247.38
_exptl_crystal_colour            red
_exptl_crystal_description       plate
_cell_formula_units_Z            2
loop_
_atom_site_label
_atom_site_type_symbol
_atom_site_fract_x
_atom_site_fract_y
_atom_site_fract_z
C1 C 0.7892(4) 0.4695(3) 0.9763(2)
C2 C 0.8380(4) 0.4347(3) 1.0422(2)
H1 H 0.8055 0.4588 1.0948
C3 C 0.9423(4) 0.3587(3) 1.0176(2)
H2 H 0.9926 0.3218 1.0502
C4 C 0.9590(3) 0.3470(3) 0.9353(2)
C5 C 1.0523(3) 0.2812(3) 0.8818(2)
C6 C 1.1629(4) 0.2227(3) 0.8987(2)
H3 H 1.1788 0.2264 0.9496
C7 C 1.2479(4) 0.1605(3) 0.8418(2)
H4 H 1.3178 0.1183 0.8555
C8 C 1.2319(4) 0.1591(3) 0.7643(2)
H5 H 1.2928 0.1195 0.7247
C9 C 1.1257(3) 0.2166(3) 0.7465(2)
C10 C 1.0966(3) 0.2246(3) 0.6686(2)
C11 C 1.1211(3) 0.1529(3) 0.6062(2)
C12 C 1.0581(3) 0.2032(3) 0.5486(2)
C13 C 0.9956(3) 0.3026(3) 0.57874(19)
C14 C 0.9040(3) 0.3805(3) 0.55250(19)
C15 C 0.9001(3) 0.4036(3) 0.4739(2)
H6 H 0.9598 0.3664 0.4324
C16 C 0.8091(3) 0.4810(3) 0.4559(2)
H7 H 0.8056 0.4957 0.4020
C17 C 0.7227(3) 0.5376(3) 0.5163(2)
H8 H 0.6624 0.5919 0.5031
C18 C 0.7239(3) 0.5150(3) 0.59592(19)
C19 C 0.6364(3) 0.5694(3) 0.66301(19)
C20 C 0.5177(3) 0.6289(3) 0.6695(2)
C21 C 0.4736(3) 0.6640(3) 0.7490(2)
C22 C 0.5662(3) 0.6224(3) 0.7895(2)
C23 C 0.5729(4) 0.6236(3) 0.8727(2)
C24 C 0.4923(4) 0.6883(3) 0.9308(2)
H9 H 0.4278 0.7381 0.9175
C25 C 0.5074(4) 0.6791(3) 1.0076(2)
H10 H 0.4523 0.7220 1.0476
C26 C 0.6029(4) 0.6071(3) 1.0263(2)
H11 H 0.6136 0.5992 1.0790
C27 C 0.6839(4) 0.5459(3) 0.9647(2)
C28 C 1.1883(4) 0.0397(3) 0.6032(2)
H12 H 1.2732 0.0424 0.6140
H13 H 1.2023 0.0136 0.5489
C29 C 1.1103(4) -0.0411(3) 0.6645(3)
H14 H 1.1021 -0.0188 0.7186
H15 H 1.1546 -0.1138 0.6582
H16 H 1.0248 -0.0418 0.6554
C30 C 1.0560(4) 0.1571(3) 0.4713(2)
H17 H 0.9742 0.1826 0.4579
H18 H 1.0599 0.0772 0.4780
C31 C 1.1693(4) 0.1905(3) 0.4014(2)
H19 H 1.1616 0.2692 0.3914
H20 H 1.1674 0.1549 0.3533
H21 H 1.2505 0.1685 0.4154
C32 C 0.4413(4) 0.6472(3) 0.6075(2)
H22 H 0.3493 0.6444 0.6346
H23 H 0.4658 0.5870 0.5707
C33 C 0.4592(4) 0.7547(3) 0.5580(2)
H24 H 0.4290 0.8151 0.5931
H25 H 0.4098 0.7584 0.5177
H26 H 0.5502 0.7591 0.5315
C34 C 0.3477(4) 0.7292(3) 0.7840(2)
H27 H 0.3138 0.7034 0.8401
H28 H 0.2846 0.7164 0.7540
C35 C 0.3622(4) 0.8527(3) 0.7811(2)
H29 H 0.4261 0.8658 0.8095
H30 H 0.2796 0.8905 0.8066
H31 H 0.3900 0.8797 0.7255
N1 N 0.8630(3) 0.4137(2) 0.91285(16)
H32 H 0.8508 0.4196 0.8645
N2 N 1.0396(3) 0.2708(2) 0.80507(16)
H33 H 0.9698 0.3021 0.7934
N3 N 1.0212(3) 0.3138(2) 0.65149(15)
H34 H 0.9936 0.3692 0.6819
N4 N 0.8123(3) 0.4344(2) 0.61078(16)
H35 H 0.8104 0.4157 0.6609
N5 N 0.6641(3) 0.5667(2) 0.73618(15)
H36 H 0.7338 0.5344 0.7473
N6 N 0.6679(3) 0.5523(2) 0.88975(16)
C36 C 0.6927(3) 0.2686(3) 0.79274(19)
C37 C 0.5787(3) 0.3087(3) 0.7642(2)
C38 C 0.4856(4) 0.3436(3) 0.7419(2)
C39 C 0.3762(3) 0.3913(3) 0.7129(2)
O1 O 0.7880(2) 0.32369(19) 0.77143(13)
O2 O 0.6815(2) 0.1816(2) 0.83693(14)
O3 O 0.3702(2) 0.3846(2) 0.64513(15)
O4 O 0.2873(2) 0.4407(2) 0.77034(14)
C40 C 1.0024(3) 0.5835(3) 0.74810(19)
C41 C 0.9262(4) 0.6803(3) 0.7846(2)
C42 C 0.8573(4) 0.7537(3) 0.8182(2)
C43 C 0.7650(4) 0.8349(3) 0.8658(2)
O5 O 0.9413(2) 0.50696(19) 0.73429(14)
O6 O 1.1220(3) 0.5835(2) 0.73358(16)
O7 O 0.6907(3) 0.8912(2) 0.82502(15)
O8 O 0.7576(3) 0.8447(2) 0.93493(16)
C44 C 0.8417(4) 0.0663(3) 0.9625(2)
C45 C 0.9525(4) 0.0179(3) 0.9897(2)
O9 O 0.8703(3) 0.0901(2) 0.88500(15)
O10 O 0.7352(3) 0.0821(3) 1.00796(16)
C44A C 1.1583(4) -0.0663(3) 1.0375(2)
C45A C 1.0475(4) -0.0179(3) 1.0103(2)
O9A O 1.1297(3) -0.0901(2) 1.11500(15)
O10A O 1.2648(3) -0.0821(3) 0.99204(16)
O11 O 0.5044(3) 0.0240(3) 0.9050(2)
loop_
_geom_bond_atom_site_label_1
_geom_bond_atom_site_label_2
_geom_bond_site_symmetry_1
_geom_bond_site_symmetry_2
C1 C2 1_555 1_555
C2 H1 1_555 1_555
C3 C2 1_555 1_555
H2 C3 1_555 1_555
C4 C3 1_555 1_555
C5 C4 1_555 1_555
C6 C5 1_555 1_555
H3 C6 1_555 1_555
C7 C6 1_555 1_555
H4 C7 1_555 1_555
C8 C7 1_555 1_555
H5 C8 1_555 1_555
C9 C8 1_555 1_555
C10 C9 1_555 1_555
C11 C10 1_555 1_555
C12 C11 1_555 1_555
C13 C12 1_555 1_555
C14 C13 1_555 1_555
C15 C14 1_555 1_555
H6 C15 1_555 1_555
C16 C15 1_555 1_555
H7 C16 1_555 1_555
C17 C16 1_555 1_555
H8 C17 1_555 1_555
C18 C17 1_555 1_555
C19 C18 1_555 1_555
C20 C19 1_555 1_555
C21 C20 1_555 1_555
C22 C21 1_555 1_555
C23 C22 1_555 1_555
C24 C23 1_555 1_555
H9 C24 1_555 1_555
C25 C24 1_555 1_555
H10 C25 1_555 1_555
C26 C25 1_555 1_555
H11 C26 1_555 1_555
C27 C1 1_555 1_555
C28 C11 1_555 1_555
H12 C28 1_555 1_555
H13 C28 1_555 1_555
C29 C28 1_555 1_555
H14 C29 1_555 1_555
H15 C29 1_555 1_555
H16 C29 1_555 1_555
C30 C12 1_555 1_555
H17 C30 1_555 1_555
H18 C30 1_555 1_555
C31 C30 1_555 1_555
H19 C31 1_555 1_555
H20 C31 1_555 1_555
H21 C31 1_555 1_555
C32 C20 1_555 1_555
H22 C32 1_555 1_555
H23 C32 1_555 1_555
C33 C32 1_555 1_555
H24 C33 1_555 1_555
H25 C33 1_555 1_555
H26 C33 1_555 1_555
C34 C21 1_555 1_555
H27 C34 1_555 1_555
H28 C34 1_555 1_555
C35 C34 1_555 1_555
H29 C35 1_555 1_555
H30 C35 1_555 1_555
H31 C35 1_555 1_555
N1 C1 1_555 1_555
H32 N1 1_555 1_555
N2 C5 1_555 1_555
H33 N2 1_555 1_555
N3 C10 1_555 1_555
H34 N3 1_555 1_555
N4 C14 1_555 1_555
H35 N4 1_555 1_555
N5 C19 1_555 1_555
H36 N5 1_555 1_555
N6 C23 1_555 1_555
C36 C37 1_555 1_555
C37 C38 1_555 1_555
C38 C39 1_555 1_555
C39 O3 1_555 1_555
O1 C36 1_555 1_555
O2 C36 1_555 1_555
O4 C39 1_555 1_555
C40 C41 1_555 1_555
C41 C42 1_555 1_555
C42 C43 1_555 1_555
C43 O7 1_555 1_555
O5 C40 1_555 1_555
O6 C40 1_555 1_555
O8 C43 1_555 1_555
C44 C45 1_555 1_555
C45 C45A 1_555 1_555
O9 C44 1_555 1_555
O10 C44 1_555 1_555
C44A C45A 1_555 1_555
O9A C44A 1_555 1_555
O10A C44A 1_555 1_555
C4 N1 1_555 1_555
C9 N2 1_555 1_555
C13 N3 1_555 1_555
C18 N4 1_555 1_555
C22 N5 1_555 1_555
C26 C27 1_555 1_555
C27 N6 1_555 1_555

#END
