
#######################################################################
#
#                 Cambridge Crystallographic Data Centre
#                                CCDC 
#
#######################################################################
#
# If this CIF has been generated from an entry in the Cambridge 
# Structural Database, then it will include bibliographic, chemical, 
# crystal, experimental, refinement or atomic coordinate data resulting 
# from the CCDC's data processing and validation procedures.
#
#######################################################################

data_BULWEM
_chemical_formula_moiety         'C19 H14 Cl1 N1 O1'
_chemical_name_systematic        
2-[5-chloro-2-((E)-2-phenylethenyl)phenoxy]pyridine
_symmetry_cell_setting           monoclinic
_symmetry_space_group_name_H-M   'P c'
_symmetry_Int_Tables_number      7
_space_group_name_Hall           'P -2yc'
loop_
_symmetry_equiv_pos_site_id
_symmetry_equiv_pos_as_xyz
1 x,y,z
2 x,-y,1/2+z
_cell_length_a                   15.4830(9)
_cell_length_b                   19.5326(9)
_cell_length_c                   21.3110(14)
_cell_angle_alpha                90
_cell_angle_beta                 100.485(6)
_cell_angle_gamma                90
_cell_volume                     6337.33
_exptl_crystal_colour            white
_chemical_melting_point          '402 K'
_cell_formula_units_Z            16
_exptl_crystal_recrystallization_method acetonitrile
loop_
_atom_site_label
_atom_site_type_symbol
_atom_site_fract_x
_atom_site_fract_y
_atom_site_fract_z
O1 O 0.6528(8) 0.7166(5) 0.5969(6)
N1 N 0.7948(10) 0.7620(7) 0.6201(8)
C1 C 0.7403(14) 0.7077(8) 0.6066(9)
C2 C 0.6010(12) 0.8156(8) 0.6462(10)
C3 C 0.6146(12) 0.7809(9) 0.7077(9)
H1 H 0.6346 0.7360 0.7076
C4 C 0.6151(12) 0.7731(8) 0.8250(9)
H2 H 0.6177 0.8010 0.8606
C5 C 0.6213(12) 0.7860(7) 0.5915(9)
C6 C 0.6240(14) 0.7042(12) 0.8350(12)
H3 H 0.6191 0.6772 0.7985
C7 C 0.6061(15) 0.8149(8) 0.5345(9)
C8 C 0.5633(12) 0.8809(8) 0.6392(10)
H4 H 0.5469 0.9027 0.6740
C9 C 0.7688(16) 0.6417(9) 0.6012(9)
H5 H 0.7283 0.6064 0.5914
C10 C 0.6023(13) 0.8049(9) 0.7651(10)
H6 H 0.5820 0.8497 0.7646
C11 C 0.8590(15) 0.6280(9) 0.6104(10)
H7 H 0.8796 0.5833 0.6098
C12 C 0.5513(14) 0.9113(10) 0.5836(11)
H8 H 0.5279 0.9553 0.5806
C13 C 0.5722(14) 0.8809(9) 0.5268(11)
H9 H 0.5637 0.9036 0.4878
C14 C 0.6264(16) 0.7802(9) 0.4773(10)
H10 H 0.6888 0.7753 0.4814
H11 H 0.6041 0.8070 0.4401
H12 H 0.5993 0.7358 0.4733
C15 C 0.8814(13) 0.7511(10) 0.6266(12)
H13 H 0.9196 0.7880 0.6353
C16 C 0.6387(17) 0.6706(12) 0.8904(12)
H14 H 0.6171 0.6246 0.8839
H15 H 0.6089 0.6934 0.9202
H16 H 0.7007 0.6697 0.9069
C17 C 0.9171(13) 0.6830(10) 0.6205(9)
H17 H 0.9772 0.6764 0.6232
O2 O 0.4553(10) 1.0340(6) 0.7994(7)
C18 C 0.5394(11) 1.0430(9) 0.7895(9)
C19 C 0.5848(11) 0.9911(7) 0.7770(8)
H18 H 0.5609 0.9473 0.7728
N2 N 0.3784(12) 0.9316(8) 0.7498(10)
C20 C 0.5692(15) 1.1091(8) 0.7946(9)
H19 H 0.5338 1.1450 0.8033
N3 N 0.4262(12) 0.9647(8) 0.8075(10)
C21 C 0.3013(12) 0.9798(8) 0.5721(10)
C22 C 0.3084(14) 1.0532(9) 0.5649(9)
H20 H 0.3582 1.0634 0.5455
H21 H 0.3158 1.0746 0.6061
H22 H 0.2560 1.0702 0.5384
C23 C 0.3633(11) 0.9696(8) 0.6872(9)
H23 H 0.3859 1.0136 0.6867
C24 C 0.4442(14) 0.9337(10) 0.8646(10)
C25 C 0.282(2) 0.9372(13) 0.5214(11)
H24 H 0.2889 0.8900 0.5261
C26 C 0.3206(12) 0.9447(9) 0.6338(9)
H25 H 0.3002 0.9001 0.6350
C27 C 0.6501(16) 1.1190(10) 0.7866(10)
H26 H 0.6723 1.1633 0.7888
C28 C 0.3422(15) 0.8684(9) 0.7577(12)
H27 H 0.3059 0.8469 0.7238
C29 C 0.6665(15) 1.0029(9) 0.7704(10)
H28 H 0.7008 0.9660 0.7623
C30 C 0.3606(16) 0.8382(9) 0.8161(11)
H29 H 0.3402 0.7939 0.8200
C31 C 0.7029(17) 1.0660(10) 0.7749(11)
H30 H 0.7608 1.0730 0.7703
C32 C 0.4064(16) 0.8681(9) 0.8684(11)
H31 H 0.4133 0.8456 0.9075
C33 C 0.4892(16) 0.9674(10) 0.9219(9)
H32 H 0.5485 0.9775 0.9175
H33 H 0.4896 0.9379 0.9580
H34 H 0.4592 1.0092 0.9281
C34 C 0.256(3) 0.9615(12) 0.472(3)
H35 H 0.2281 0.9341 0.4384
O3 O 0.267(4) 1.0381(19) 0.461(2)
H36 H 0.2206 1.0540 0.4417
O4 O 0.2054(10) 0.4663(6) 0.2996(6)
N4 N 0.3356(12) 0.5112(7) 0.2778(8)
C35 C 0.1300(12) 0.5671(8) 0.2493(9)
C36 C 0.2873(12) 0.4576(9) 0.2902(9)
C37 C 0.1135(12) 0.5294(8) 0.1876(9)
H37 H 0.1339 0.4847 0.1871
N5 N 0.1763(12) 0.5356(8) 0.3070(9)
C38 C 0.0557(15) 0.4457(10) 0.0586(13)
H38 H 0.1148 0.4287 0.0678
H39 H 0.0206 0.4219 0.0843
C39 C 0.0556(13) 0.5181(9) 0.0726(11)
C40 C 0.0729(14) 0.5550(9) 0.1353(11)
H40 H 0.0527 0.5998 0.1361
C41 C 0.0928(15) 0.6319(9) 0.2565(10)
H41 H 0.0567 0.6531 0.2224
C42 C 0.1946(14) 0.5652(10) 0.3644(10)
C43 C 0.3186(13) 0.3911(8) 0.2952(8)
H42 H 0.2840 0.3550 0.3045
C44 C 0.032(2) 0.5575(13) 0.0230(11)
H43 H 0.0321 0.6047 0.0287
C45 C 0.1557(17) 0.6307(8) 0.3668(12)
H44 H 0.1609 0.6526 0.4061
C46 C 0.3977(17) 0.3814(9) 0.2863(10)
H45 H 0.4188 0.3367 0.2882
C47 C 0.1112(16) 0.6625(10) 0.3144(11)
H46 H 0.0924 0.7073 0.3183
C48 C 0.4199(14) 0.4969(9) 0.2700(10)
H47 H 0.4551 0.5330 0.2614
C49 C 0.2427(16) 0.5315(9) 0.4218(9)
H48 H 0.2066 0.4963 0.4351
H49 H 0.2574 0.5646 0.4553
H50 H 0.2955 0.5114 0.4125
C50 C 0.4540(15) 0.4337(10) 0.2742(11)
H51 H 0.5115 0.4252 0.2692
C51 C 0.007(2) 0.5320(18) -0.036(2)
H52 H 0.0392 0.5539 -0.0644
H53 H -0.0549 0.5402 -0.0499
H54 H 0.0178 0.4836 -0.0352
O5 O 0.1545(8) 0.7170(5) 0.5971(6)
C52 C 0.2417(13) 0.7071(9) 0.6054(9)
N6 N 0.2934(10) 0.7622(8) 0.6190(8)
C53 C 0.1212(13) 0.7877(8) 0.5911(9)
C54 C 0.1009(13) 0.8152(8) 0.6473(9)
C55 C 0.1157(14) 0.7800(10) 0.7075(9)
H55 H 0.1370 0.7354 0.7090
N7 N 0.1171(16) 0.7713(12) 0.8225(13)
C56 C 0.1078(15) 0.8146(9) 0.5353(10)
O6 O 0.1236(16) 0.6972(12) 0.8373(16)
C57 C 0.2690(15) 0.6409(9) 0.6004(9)
H56 H 0.2286 0.6054 0.5910
C58 C 0.1005(16) 0.8076(10) 0.7605(9)
H57 H 0.0785 0.8520 0.7591
C59 C 0.0503(16) 0.9122(10) 0.5834(13)
H58 H 0.0268 0.9562 0.5804
C60 C 0.3604(15) 0.6283(9) 0.6099(10)
H59 H 0.3812 0.5836 0.6097
C61 C 0.0623(13) 0.8816(9) 0.6390(10)
H60 H 0.0455 0.9036 0.6736
C62 C 0.0715(15) 0.8813(10) 0.5263(11)
H61 H 0.0621 0.9033 0.4870
C63 C 0.3814(14) 0.7503(10) 0.6267(12)
H62 H 0.4203 0.7866 0.6370
C64 C 0.1366(19) 0.6675(14) 0.8956(13)
H63 H 0.1346 0.6187 0.8909
H64 H 0.0914 0.6820 0.9181
H65 H 0.1929 0.6809 0.9192
C65 C 0.1292(17) 0.7809(8) 0.4761(10)
H66 H 0.1916 0.7818 0.4777
H67 H 0.1004 0.8051 0.4389
H68 H 0.1092 0.7342 0.4740
C66 C 0.4167(14) 0.6807(10) 0.6190(10)
H69 H 0.4765 0.6737 0.6206
N8 N 0.120(4) 0.808(3) 0.871(3)
H70 H 0.0840 0.8415 0.8644
H71 H 0.1048 0.7809 0.8992
N9 N 0.7047(9) 0.5330(6) 0.8009(7)
C67 C 0.6307(12) 0.4319(8) 0.7535(10)
N10 N 0.8362(12) 0.4917(7) 0.7775(8)
H72 H 0.8169 0.4504 0.7741
C68 C 0.7808(16) 0.5424(8) 0.7891(9)
C69 C 0.5500(15) 0.4762(11) 0.5602(13)
C70 C 0.6762(13) 0.4662(8) 0.8050(9)
N11 N 0.6114(14) 0.4700(8) 0.6880(10)
H73 H 0.6281 0.5120 0.6887
C71 C 0.5920(15) 0.3690(9) 0.7564(11)
H74 H 0.5558 0.3492 0.7215
N12 N 0.5706(16) 0.4453(10) 0.6284(13)
H75 H 0.5531 0.4036 0.6298
N13 N 0.8191(13) 0.6094(9) 0.7942(8)
H76 H 0.7880 0.6440 0.8015
C72 C 0.6917(14) 0.4361(10) 0.8615(12)
C73 C 0.5537(15) 0.5538(9) 0.5593(12)
H77 H 0.5159 0.5720 0.5863
H78 H 0.5345 0.5699 0.5165
H79 H 0.6129 0.5687 0.5745
C74 C 0.9018(14) 0.6188(10) 0.7877(10)
H80 H 0.9248 0.6629 0.7924
C75 C 0.6112(17) 0.3374(11) 0.8153(12)
H81 H 0.5933 0.2925 0.8196
C76 C 0.6549(16) 0.3701(9) 0.8657(11)
H82 H 0.6616 0.3490 0.9054
C77 C 0.9201(14) 0.5035(10) 0.7710(10)
H83 H 0.9549 0.4665 0.7640
C78 C 0.5180(19) 0.4506(15) 0.494(2)
C79 C 0.9555(15) 0.5666(10) 0.7743(11)
H84 H 1.0126 0.5745 0.7681
C80 C 0.7410(17) 0.4680(9) 0.9213(10)
H85 H 0.7908 0.4925 0.9119
H86 H 0.7605 0.4328 0.9521
H87 H 0.7031 0.4991 0.9383
N14 N 0.9554(9) 1.0312(6) 0.8000(6)
H88 H 0.9213 1.0654 0.8029
N15 N 1.0844(12) 0.9897(7) 0.7771(8)
C81 C 1.0364(13) 1.0415(8) 0.7906(8)
C82 C 0.8812(12) 0.9324(8) 0.7523(9)
C83 C 0.9255(12) 0.9643(7) 0.8053(8)
N16 N 0.8628(12) 0.9691(9) 0.6879(10)
H89 H 0.8825 1.0101 0.6868
C84 C 0.8001(13) 0.9815(9) 0.5705(10)
N17 N 1.0748(15) 1.1091(8) 0.7945(9)
H90 H 1.0441 1.1440 0.8017
C85 C 0.8191(13) 0.9434(10) 0.6333(10)
H91 H 0.7988 0.8986 0.6338
C86 C 1.1677(14) 1.0011(9) 0.7717(10)
H92 H 1.2022 0.9635 0.7658
C87 C 0.8630(16) 0.8372(9) 0.8170(11)
H93 H 0.8452 0.7922 0.8210
C88 C 1.2046(17) 1.0631(11) 0.7743(11)
H94 H 1.2618 1.0683 0.7675
C89 C 0.8428(15) 0.8693(9) 0.7570(11)
H95 H 0.8059 0.8491 0.7226
C90 C 0.8040(13) 1.0547(9) 0.5585(11)
H96 H 0.7676 1.0786 0.5833
H97 H 0.7834 1.0636 0.5140
H98 H 0.8636 1.0703 0.5704
C91 C 0.9435(14) 0.9353(10) 0.8618(11)
C92 C 1.1584(14) 1.1176(11) 0.7869(10)
H99 H 1.1838 1.1609 0.7902
C93 C 0.9068(16) 0.8693(9) 0.8681(11)
H100 H 0.9135 0.8486 0.9080
C94 C 0.7785(18) 0.9420(11) 0.5190(10)
H101 H 0.7802 0.8945 0.5228
C95 C 0.9922(16) 0.9670(10) 0.9215(10)
H102 H 1.0483 0.9830 0.9144
H103 H 1.0008 0.9335 0.9551
H104 H 0.9590 1.0047 0.9334
C96 C 0.754(2) 0.9720(16) 0.4600(19)
O7 O 0.9048(9) 0.2165(6) 0.5980(6)
C97 C 1.0448(12) 0.2609(7) 0.6193(9)
H105 H 1.0215 0.3044 0.6229
C98 C 0.9948(13) 0.2075(9) 0.6065(9)
C99 C 0.8513(12) 0.3166(9) 0.6481(9)
C100 C 0.8657(13) 0.2663(12) 0.8276(10)
H106 H 0.8682 0.2181 0.8194
H107 H 0.8183 0.2755 0.8498
H108 H 0.9201 0.2808 0.8533
C101 C 0.8649(14) 0.2806(9) 0.7092(10)
H109 H 0.8856 0.2360 0.7088
N18 N 0.8691(13) 0.2870(9) 0.5912(11)
C102 C 0.8511(14) 0.3038(10) 0.7666(11)
H110 H 0.8302 0.3484 0.7675
C103 C 1.0213(14) 0.1408(8) 0.6015(9)
H111 H 0.9810 0.1052 0.5931
C104 C 0.8570(16) 0.3154(10) 0.5332(10)
C105 C 0.8141(14) 0.3819(8) 0.6393(10)
H112 H 0.7997 0.4046 0.6744
C106 C 1.1127(14) 0.1292(10) 0.6096(10)
H113 H 1.1343 0.0849 0.6087
C107 C 0.8210(14) 0.3813(9) 0.5274(11)
H114 H 0.8116 0.4045 0.4886
C108 C 1.1292(17) 0.2507(10) 0.6270(12)
H115 H 1.1670 0.2875 0.6383
C109 C 1.1674(16) 0.1820(10) 0.6184(11)
H116 H 1.2272 0.1765 0.6191
C110 C 0.7990(16) 0.4119(10) 0.5843(14)
H117 H 0.7729 0.4550 0.5812
C111 C 0.8779(16) 0.2804(9) 0.4761(10)
H118 H 0.9405 0.2788 0.4789
H119 H 0.8519 0.3050 0.4385
H120 H 0.8550 0.2346 0.4741
O8 O 0.4040(9) 0.2165(6) 0.5977(7)
N19 N 0.5478(14) 0.2591(8) 0.6203(9)
H121 H 0.5277 0.2996 0.6243
C112 C 0.3509(13) 0.3151(9) 0.6479(11)
C113 C 0.4918(13) 0.2052(9) 0.6057(9)
C114 C 0.3647(13) 0.2728(9) 0.8257(10)
H122 H 0.3676 0.3007 0.8614
C115 C 0.3700(12) 0.2859(8) 0.5916(9)
C116 C 0.3646(14) 0.2802(10) 0.7078(10)
H123 H 0.3848 0.2353 0.7081
C117 C 0.3145(14) 0.3795(10) 0.6401(11)
H124 H 0.2994 0.4012 0.6754
C118 C 0.3512(14) 0.3059(9) 0.7641(11)
H125 H 0.3306 0.3507 0.7630
C119 C 0.6355(16) 0.2482(11) 0.6285(13)
H126 H 0.6741 0.2843 0.6407
C120 C 0.5225(14) 0.1403(8) 0.6016(9)
H127 H 0.4837 0.1037 0.5932
C121 C 0.6125(15) 0.1297(9) 0.6101(10)
H128 H 0.6338 0.0851 0.6100
C122 C 0.3739(19) 0.2012(15) 0.8363(16)
H129 H 0.3703 0.1738 0.8002
C123 C 0.3559(15) 0.3139(9) 0.5355(11)
C124 C 0.3200(16) 0.3792(10) 0.5251(12)
H130 H 0.3094 0.4005 0.4854
N20 N 0.3000(17) 0.4116(10) 0.5853(14)
H131 H 0.2786 0.4523 0.5835
C125 C 0.6696(15) 0.1818(9) 0.6185(10)
H132 H 0.7289 0.1751 0.6179
C126 C 0.3757(15) 0.2793(9) 0.4768(9)
H133 H 0.4375 0.2822 0.4765
H134 H 0.3437 0.3016 0.4395
H135 H 0.3585 0.2321 0.4768
C127 C 0.3869(16) 0.1701(12) 0.8910(11)
H136 H 0.3794 0.1217 0.8843
H137 H 0.3453 0.1863 0.9160
H138 H 0.4454 0.1792 0.9132
O9 O 0.8848(14) 0.1737(10) 0.8806(12)
H139? H 0.0317 0.4385 0.0143
loop_
_geom_bond_atom_site_label_1
_geom_bond_atom_site_label_2
_geom_bond_site_symmetry_1
_geom_bond_site_symmetry_2
O1 C1 1_555 1_555
N1 C1 1_555 1_555
C1 C9 1_555 1_555
C2 C3 1_555 1_555
C3 H1 1_555 1_555
C4 H2 1_555 1_555
C5 O1 1_555 1_555
C6 C4 1_555 1_555
H3 C6 1_555 1_555
C7 C5 1_555 1_555
C8 C2 1_555 1_555
H4 C8 1_555 1_555
C9 H5 1_555 1_555
C10 C3 1_555 1_555
H6 C10 1_555 1_555
C11 C9 1_555 1_555
H7 C11 1_555 1_555
C12 C8 1_555 1_555
H8 C12 1_555 1_555
C13 C7 1_555 1_555
H9 C13 1_555 1_555
C14 C7 1_555 1_555
H10 C14 1_555 1_555
H11 C14 1_555 1_555
H12 C14 1_555 1_555
C15 N1 1_555 1_555
H13 C15 1_555 1_555
C16 C6 1_555 1_555
H14 C16 1_555 1_555
H15 C16 1_555 1_555
H16 C16 1_555 1_555
C17 C11 1_555 1_555
H17 C17 1_555 1_555
O2 C18 1_555 1_555
C18 C19 1_555 1_555
C19 H18 1_555 1_555
N2 N3 1_555 1_555
C20 C18 1_555 1_555
H19 C20 1_555 1_555
N3 O2 1_555 1_555
C21 C22 1_555 1_555
C22 H20 1_555 1_555
H21 C22 1_555 1_555
H22 C22 1_555 1_555
C23 N2 1_555 1_555
H23 C23 1_555 1_555
C24 N3 1_555 1_555
C25 C21 1_555 1_555
H24 C25 1_555 1_555
C26 C21 1_555 1_555
H25 C26 1_555 1_555
C27 C20 1_555 1_555
H26 C27 1_555 1_555
C28 N2 1_555 1_555
H27 C28 1_555 1_555
C29 C19 1_555 1_555
H28 C29 1_555 1_555
C30 C28 1_555 1_555
H29 C30 1_555 1_555
C31 C27 1_555 1_555
H30 C31 1_555 1_555
C32 C24 1_555 1_555
H31 C32 1_555 1_555
C33 C24 1_555 1_555
H32 C33 1_555 1_555
H33 C33 1_555 1_555
H34 C33 1_555 1_555
C34 C25 1_555 1_555
H35 C34 1_555 1_555
O3 C34 1_555 1_555
H36 O3 1_555 1_555
O4 C36 1_555 1_555
N4 C36 1_555 1_555
C35 C37 1_555 1_555
C36 C43 1_555 1_555
C37 H37 1_555 1_555
N5 O4 1_555 1_555
C38 H38 1_555 1_555
H39 C38 1_555 1_555
C39 C38 1_555 1_555
C40 C37 1_555 1_555
H40 C40 1_555 1_555
C41 C35 1_555 1_555
H41 C41 1_555 1_555
C42 N5 1_555 1_555
C43 H42 1_555 1_555
C44 C39 1_555 1_555
H43 C44 1_555 1_555
C45 C42 1_555 1_555
H44 C45 1_555 1_555
C46 C43 1_555 1_555
H45 C46 1_555 1_555
C47 C41 1_555 1_555
H46 C47 1_555 1_555
C48 N4 1_555 1_555
H47 C48 1_555 1_555
C49 C42 1_555 1_555
H48 C49 1_555 1_555
H49 C49 1_555 1_555
H50 C49 1_555 1_555
C50 C46 1_555 1_555
H51 C50 1_555 1_555
C51 C44 1_555 1_555
H52 C51 1_555 1_555
H53 C51 1_555 1_555
H54 C51 1_555 1_555
O5 C52 1_555 1_555
C52 N6 1_555 1_555
N6 C63 1_555 1_555
C53 O5 1_555 1_555
C54 C53 1_555 1_555
C55 C54 1_555 1_555
H55 C55 1_555 1_555
N7 O6 1_555 1_555
C56 C53 1_555 1_555
O6 C64 1_555 1_555
C57 C52 1_555 1_555
H56 C57 1_555 1_555
C58 C55 1_555 1_555
H57 C58 1_555 1_555
C59 H58 1_555 1_555
C60 C57 1_555 1_555
H59 C60 1_555 1_555
C61 C54 1_555 1_555
H60 C61 1_555 1_555
C62 C56 1_555 1_555
H61 C62 1_555 1_555
C63 H62 1_555 1_555
C64 H63 1_555 1_555
H64 C64 1_555 1_555
H65 C64 1_555 1_555
C65 C56 1_555 1_555
H66 C65 1_555 1_555
H67 C65 1_555 1_555
H68 C65 1_555 1_555
C66 C60 1_555 1_555
H69 C66 1_555 1_555
N8 N7 1_555 1_555
H70 N8 1_555 1_555
H71 N8 1_555 1_555
N9 C68 1_555 1_555
C67 C70 1_555 1_555
N10 H72 1_555 1_555
C68 N10 1_555 1_555
C69 N12 1_555 1_555
C70 N9 1_555 1_555
N11 C67 1_555 1_555
H73 N11 1_555 1_555
C71 C67 1_555 1_555
H74 C71 1_555 1_555
N12 N11 1_555 1_555
H75 N12 1_555 1_555
N13 C68 1_555 1_555
H76 N13 1_555 1_555
C72 C70 1_555 1_555
C73 C69 1_555 1_555
H77 C73 1_555 1_555
H78 C73 1_555 1_555
H79 C73 1_555 1_555
C74 N13 1_555 1_555
H80 C74 1_555 1_555
C75 C71 1_555 1_555
H81 C75 1_555 1_555
C76 C72 1_555 1_555
H82 C76 1_555 1_555
C77 N10 1_555 1_555
H83 C77 1_555 1_555
C78 C69 1_555 1_555
C79 C74 1_555 1_555
H84 C79 1_555 1_555
C80 C72 1_555 1_555
H85 C80 1_555 1_555
H86 C80 1_555 1_555
H87 C80 1_555 1_555
N14 H88 1_555 1_555
N15 C81 1_555 1_555
C81 N14 1_555 1_555
C82 C83 1_555 1_555
C83 N14 1_555 1_555
N16 C82 1_555 1_555
H89 N16 1_555 1_555
C84 C85 1_555 1_555
N17 C81 1_555 1_555
H90 N17 1_555 1_555
C85 N16 1_555 1_555
H91 C85 1_555 1_555
C86 N15 1_555 1_555
H92 C86 1_555 1_555
C87 H93 1_555 1_555
C88 C86 1_555 1_555
H94 C88 1_555 1_555
C89 C82 1_555 1_555
H95 C89 1_555 1_555
C90 C84 1_555 1_555
H96 C90 1_555 1_555
H97 C90 1_555 1_555
H98 C90 1_555 1_555
C91 C83 1_555 1_555
C92 N17 1_555 1_555
H99 C92 1_555 1_555
C93 C87 1_555 1_555
H100 C93 1_555 1_555
C94 C84 1_555 1_555
H101 C94 1_555 1_555
C95 C91 1_555 1_555
H102 C95 1_555 1_555
H103 C95 1_555 1_555
H104 C95 1_555 1_555
C96 C94 1_555 1_555
O7 C98 1_555 1_555
C97 H105 1_555 1_555
C98 C97 1_555 1_555
C99 C101 1_555 1_555
C100 H106 1_555 1_555
H107 C100 1_555 1_555
H108 C100 1_555 1_555
C101 H109 1_555 1_555
N18 O7 1_555 1_555
C102 C100 1_555 1_555
H110 C102 1_555 1_555
C103 C98 1_555 1_555
H111 C103 1_555 1_555
C104 N18 1_555 1_555
C105 C99 1_555 1_555
H112 C105 1_555 1_555
C106 C103 1_555 1_555
H113 C106 1_555 1_555
C107 C104 1_555 1_555
H114 C107 1_555 1_555
C108 C97 1_555 1_555
H115 C108 1_555 1_555
C109 C106 1_555 1_555
H116 C109 1_555 1_555
C110 C105 1_555 1_555
H117 C110 1_555 1_555
C111 C104 1_555 1_555
H118 C111 1_555 1_555
H119 C111 1_555 1_555
H120 C111 1_555 1_555
O8 C113 1_555 1_555
N19 H121 1_555 1_555
C112 C115 1_555 1_555
C113 N19 1_555 1_555
C114 H122 1_555 1_555
C115 O8 1_555 1_555
C116 C112 1_555 1_555
H123 C116 1_555 1_555
C117 C112 1_555 1_555
H124 C117 1_555 1_555
C118 C114 1_555 1_555
H125 C118 1_555 1_555
C119 N19 1_555 1_555
H126 C119 1_555 1_555
C120 C113 1_555 1_555
H127 C120 1_555 1_555
C121 C120 1_555 1_555
H128 C121 1_555 1_555
C122 C114 1_555 1_555
H129 C122 1_555 1_555
C123 C115 1_555 1_555
C124 C123 1_555 1_555
H130 C124 1_555 1_555
N20 C117 1_555 1_555
H131 N20 1_555 1_555
C125 C119 1_555 1_555
H132 C125 1_555 1_555
C126 C123 1_555 1_555
H133 C126 1_555 1_555
H134 C126 1_555 1_555
H135 C126 1_555 1_555
C127 C122 1_555 1_555
H136 C127 1_555 1_555
H137 C127 1_555 1_555
H138 C127 1_555 1_555
C2 C5 1_555 1_555
C4 C10 1_555 1_555
C12 C13 1_555 1_555
C15 C17 1_555 1_555
C23 C26 1_555 1_555
C29 C31 1_555 1_555
C30 C32 1_555 1_555
C35 N5 1_555 1_555
C39 C40 1_555 1_555
C45 C47 1_555 1_555
C48 C50 1_555 1_555
N7 C58 1_555 1_555
C59 C61 1_555 1_555
C59 C62 1_555 1_555
C63 C66 1_555 1_555
H70 H71 1_555 1_555
C75 C76 1_555 1_555
C77 C79 1_555 1_555
C87 C89 1_555 1_555
C88 C92 1_555 1_555
C91 C93 1_555 1_555
C99 N18 1_555 1_555
C101 C102 1_555 1_555
C107 C110 1_555 1_555
C108 C109 1_555 1_555
C116 C118 1_555 1_555
C121 C125 1_555 1_555
C124 N20 1_555 1_555

#END
