
#######################################################################
#
#                 Cambridge Crystallographic Data Centre
#                                CCDC 
#
#######################################################################
#
# If this CIF has been generated from an entry in the Cambridge 
# Structural Database, then it will include bibliographic, chemical, 
# crystal, experimental, refinement or atomic coordinate data resulting 
# from the CCDC's data processing and validation procedures.
#
#######################################################################

data_BUMPRA
_chemical_formula_moiety         'C14 H24 N1 1+,I1 1-'
_chemical_name_systematic        '2,6-Di-t-butyl-1-methylpyridinium iodide'
_symmetry_cell_setting           monoclinic
_symmetry_space_group_name_H-M   'P 21/c'
_symmetry_Int_Tables_number      14
_space_group_name_Hall           '-P 2ybc'
loop_
_symmetry_equiv_pos_site_id
_symmetry_equiv_pos_as_xyz
1 x,y,z
2 -x,1/2+y,1/2-z
3 -x,-y,-z
4 x,1/2-y,1/2+z
_cell_length_a                   7.150(3)
_cell_length_b                   12.646(6)
_cell_length_c                   17.802(9)
_cell_angle_alpha                90
_cell_angle_beta                 104.88(4)
_cell_angle_gamma                90
_cell_volume                     1555.66
_exptl_crystal_colour            'dark yellow'
_chemical_melting_point          178-180deg.C
_cell_formula_units_Z            4
loop_
_atom_site_label
_atom_site_type_symbol
_atom_site_fract_x
_atom_site_fract_y
_atom_site_fract_z
I1 I 0.79693 0.64106 0.20274
N1 N 0.54636 0.35976 0.25131
C1 C 0.56883 0.39048 0.32745
C2 C 0.42855 0.45659 0.34154
C3 C 0.27526 0.48993 0.28348
C4 C 0.25773 0.45689 0.20766
C5 C 0.39438 0.39069 0.19094
C6 C 0.36933 0.35522 0.10612
C7 C 0.54038 0.38497 0.07378
C8 C 0.19474 0.41136 0.05242
C9 C 0.33106 0.23717 0.09616
C10 C 0.69334 0.28726 0.23476
C11 C 0.73804 0.35466 0.39453
C12 C 0.75364 0.23420 0.40547
C13 C 0.92926 0.40133 0.38543
C14 C 0.71183 0.40010 0.47181
H1 H 0.52104 0.38630 0.01814
H2 H 0.20777 0.39530 -0.00985
H3 H 0.93014 0.41885 0.34051
H4 H 0.14423 0.48283 0.16438
H5 H 0.46143 0.20019 0.12291
H6 H 0.65700 0.21252 0.24906
H7 H 0.82194 0.30449 0.27315
H8 H 0.88447 0.20938 0.39709
H9 H 0.65079 0.19900 0.36136
H10 H 0.70319 0.29598 0.18172
H11 H 0.73571 0.21690 0.45707
H12 H 1.03052 0.35268 0.40522
H13 H 0.95482 0.46471 0.41741
H14 H 0.62688 0.46096 0.46076
H15 H 0.83149 0.42174 0.50450
H16 H 0.17970 0.53555 0.29509
H17 H 0.20593 0.48653 0.06414
H18 H 0.07836 0.38661 0.06132
H19 H 0.27577 0.21766 0.04383
H20 H 0.22870 0.21681 0.12419
H21 H 0.65461 0.34799 0.49488
H22 H 0.43926 0.48148 0.39176
H23 H 0.63836 0.32784 0.08984
H24 H 0.60231 0.44156 0.09592
loop_
_geom_bond_atom_site_label_1
_geom_bond_atom_site_label_2
_geom_bond_site_symmetry_1
_geom_bond_site_symmetry_2
N1 C1 1_555 1_555
C1 C2 1_555 1_555
C2 C3 1_555 1_555
C3 C4 1_555 1_555
C4 C5 1_555 1_555
C5 N1 1_555 1_555
C6 C5 1_555 1_555
C7 C6 1_555 1_555
C8 C6 1_555 1_555
C9 C6 1_555 1_555
C10 N1 1_555 1_555
C11 C1 1_555 1_555
C12 C11 1_555 1_555
C13 C11 1_555 1_555
C14 C11 1_555 1_555
H1 C7 1_555 1_555
H2 C8 1_555 1_555
H3 C13 1_555 1_555
H4 C4 1_555 1_555
H5 C9 1_555 1_555
H6 C10 1_555 1_555
H7 C10 1_555 1_555
H8 C12 1_555 1_555
H9 C12 1_555 1_555
H10 C10 1_555 1_555
H11 C12 1_555 1_555
H12 C13 1_555 1_555
H13 C13 1_555 1_555
H14 C14 1_555 1_555
H15 C14 1_555 1_555
H16 C3 1_555 1_555
H17 C8 1_555 1_555
H18 C8 1_555 1_555
H19 C9 1_555 1_555
H20 C9 1_555 1_555
H21 C14 1_555 1_555
H22 C2 1_555 1_555
H23 C7 1_555 1_555
H24 C7 1_555 1_555

#END
