
#######################################################################
#
#                 Cambridge Crystallographic Data Centre
#                                CCDC 
#
#######################################################################
#
# If this CIF has been generated from an entry in the Cambridge 
# Structural Database, then it will include bibliographic, chemical, 
# crystal, experimental, refinement or atomic coordinate data resulting 
# from the CCDC's data processing and validation procedures.
#
#######################################################################

data_BUMPRB
_chemical_formula_moiety         'C14 H24 N1 1+,Cl1 O4 1-'
_chemical_name_systematic        '2,6-Di-t-butyl-1-methylpyridinium perchlorate'
_symmetry_cell_setting           orthorhombic
_symmetry_space_group_name_H-M   'P 21 21 21'
_symmetry_Int_Tables_number      19
_space_group_name_Hall           'P 2ac 2ab'
loop_
_symmetry_equiv_pos_site_id
_symmetry_equiv_pos_as_xyz
1 x,y,z
2 1/2+x,1/2-y,-z
3 -x,1/2+y,1/2-z
4 1/2-x,-y,1/2+z
_cell_length_a                   7.676(2)
_cell_length_b                   12.340(3)
_cell_length_c                   16.567(4)
_cell_angle_alpha                90
_cell_angle_beta                 90
_cell_angle_gamma                90
_cell_volume                     1569.26
_exptl_crystal_colour            colorless
_chemical_melting_point          208-210deg.C
_cell_formula_units_Z            4
loop_
_atom_site_label
_atom_site_type_symbol
_atom_site_fract_x
_atom_site_fract_y
_atom_site_fract_z
Cl1 Cl 0.82391 0.88696 0.19341
O1 O 0.65754 0.86437 0.22617
O2 O 0.93740 0.92082 0.25660
O3 O 0.88930 0.79111 0.15705
O4 O 0.80382 0.96813 0.13330
N1 N 0.52486 0.61303 0.25226
C1 C 0.52270 0.64210 0.33063
C2 C 0.38992 0.70576 0.35779
C3 C 0.26156 0.74037 0.30679
C4 C 0.26280 0.70508 0.22819
C5 C 0.39263 0.63919 0.19981
C6 C 0.66108 0.60367 0.39171
C7 C 0.60504 0.63394 0.47877
C8 C 0.83945 0.66030 0.37931
C9 C 0.67819 0.47626 0.39102
C10 C 0.38685 0.60329 0.10889
C11 C 0.20454 0.62610 0.07548
C12 C 0.51073 0.67616 0.06097
C13 C 0.41677 0.48177 0.09271
C14 C 0.67910 0.55062 0.21970
H1 H 0.16742 0.62790 0.01208
H2 H 0.65385 0.67308 0.50000
H3 H 0.52889 0.67313 0.02151
H4 H 0.42691 0.75881 0.41562
H5 H 0.67918 0.45129 0.43568
H6 H 0.63729 0.52455 0.16528
H7 H 0.84097 0.62616 0.42683
H8 H 0.42198 0.48908 0.02133
H9 H 0.15870 0.66643 0.08982
H10 H 0.81438 0.73274 0.38955
H11 H 0.17266 0.78343 0.32395
H12 H 0.17139 0.72617 0.19031
H13 H 0.86489 0.65227 0.32140
H14 H 0.78139 0.46358 0.36406
H15 H 0.59104 0.45196 0.35960
H16 H 0.70772 0.49125 0.25136
H17 H 0.77919 0.58889 0.21424
H18 H 0.62934 0.66324 0.08357
H19 H 0.49363 0.74643 0.07465
H20 H 0.60407 0.56858 0.51191
H21 H 0.48676 0.65119 0.47825
H22 H 0.33488 0.44557 0.11387
H23 H 0.52348 0.46619 0.11482
H24 H 0.17327 0.55176 0.09640
loop_
_geom_bond_atom_site_label_1
_geom_bond_atom_site_label_2
_geom_bond_site_symmetry_1
_geom_bond_site_symmetry_2
Cl1 O1 1_555 1_555
O2 Cl1 1_555 1_555
O3 Cl1 1_555 1_555
O4 Cl1 1_555 1_555
N1 C1 1_555 1_555
C1 C2 1_555 1_555
C2 C3 1_555 1_555
C3 C4 1_555 1_555
C4 C5 1_555 1_555
C5 N1 1_555 1_555
C6 C1 1_555 1_555
C7 C6 1_555 1_555
C8 C6 1_555 1_555
C9 C6 1_555 1_555
C10 C5 1_555 1_555
C11 C10 1_555 1_555
C12 C10 1_555 1_555
C13 C10 1_555 1_555
C14 N1 1_555 1_555
H1 C11 1_555 1_555
H2 C7 1_555 1_555
H3 C12 1_555 1_555
H4 C2 1_555 1_555
H5 C9 1_555 1_555
H6 C14 1_555 1_555
H7 C8 1_555 1_555
H8 C13 1_555 1_555
H9 C11 1_555 1_555
H10 C8 1_555 1_555
H11 C3 1_555 1_555
H12 C4 1_555 1_555
H13 C8 1_555 1_555
H14 C9 1_555 1_555
H15 C9 1_555 1_555
H16 C14 1_555 1_555
H17 C14 1_555 1_555
H18 C12 1_555 1_555
H19 C12 1_555 1_555
H20 C7 1_555 1_555
H21 C7 1_555 1_555
H22 C13 1_555 1_555
H23 C13 1_555 1_555
H24 C11 1_555 1_555

#END
