
#######################################################################
#
#                 Cambridge Crystallographic Data Centre
#                                CCDC 
#
#######################################################################
#
# If this CIF has been generated from an entry in the Cambridge 
# Structural Database, then it will include bibliographic, chemical, 
# crystal, experimental, refinement or atomic coordinate data resulting 
# from the CCDC's data processing and validation procedures.
#
#######################################################################

data_BUNBET
_chemical_formula_moiety         'C15 H15 N3 O4'
_chemical_name_systematic        
4'-methoxy-1,3-dimethyl-2,5-dioxo-1'H-spiro[imidazolidine-4,2'-quinoline]-1'-carbaldehyde
_symmetry_cell_setting           monoclinic
_symmetry_space_group_name_H-M   'P 21/n'
_symmetry_Int_Tables_number      14
_space_group_name_Hall           '-P 2yn'
loop_
_symmetry_equiv_pos_site_id
_symmetry_equiv_pos_as_xyz
1 x,y,z
2 1/2-x,1/2+y,1/2-z
3 -x,-y,-z
4 1/2+x,1/2-y,1/2+z
_cell_length_a                   11.4762(3)
_cell_length_b                   7.95324(15)
_cell_length_c                   16.5869(5)
_cell_angle_alpha                90
_cell_angle_beta                 107.894(3)
_cell_angle_gamma                90
_cell_volume                     1440.7
_exptl_crystal_colour            'light colorless'
_exptl_crystal_description       block
_cell_formula_units_Z            4
loop_
_atom_site_label
_atom_site_type_symbol
_atom_site_fract_x
_atom_site_fract_y
_atom_site_fract_z
O1 O 0.58486(9) 1.02901(15) 0.10297(7)
O2 O 0.54772(12) 0.97604(16) 0.27314(7)
O3 O 0.53991(12) 0.51501(14) 0.10939(8)
O4 O 0.09940(11) 0.97107(14) 0.19328(7)
N1 N 0.38297(10) 1.03855(14) 0.09344(7)
N2 N 0.56887(11) 0.72848(16) 0.20797(8)
N3 N 0.40410(11) 0.73481(14) 0.09417(7)
C1 C 0.39193(12) 0.88336(16) 0.14262(8)
C2 C 0.28962(13) 0.87036(17) 0.18085(9)
H1 H 0.2945 0.7884 0.2217
C3 C 0.19199(13) 0.97110(17) 0.15886(9)
C4 C 0.17315(12) 1.09259(16) 0.08974(8)
C5 C 0.06298(14) 1.1770(2) 0.05542(11)
H2 H 0.0001 1.1634 0.0793
C6 C 0.04644(15) 1.2810(2) -0.01395(12)
H3 H -0.0268 1.3393 -0.0359
C7 C 0.13818(16) 1.2982(2) -0.05060(11)
H4 H 0.1260 1.3665 -0.0980
C8 C 0.24862(15) 1.21493(19) -0.01755(10)
H5 H 0.3095 1.2249 -0.0435
C9 C 0.26797(12) 1.11627(16) 0.05461(8)
C10 C 0.51394(13) 0.87532(19) 0.21645(9)
C11 C 0.50570(13) 0.64534(18) 0.13273(9)
C12 C 0.48766(13) 1.10233(19) 0.08243(9)
H6 H 0.4840 1.2080 0.0578
C13 C 0.68576(18) 0.6724(3) 0.26478(13)
H7 H 0.7297 0.7669 0.2955
H8 H 0.7329 0.6215 0.2324
H9 H 0.6720 0.5916 0.3039
C14 C 0.31129(14) 0.6816(2) 0.01796(10)
H10 H 0.2421 0.6381 0.0322
H11 H 0.3440 0.5954 -0.0095
H12 H 0.2861 0.7757 -0.0196
C15 C 0.1031(2) 0.8454(3) 0.25533(14)
H13 H 0.1105 0.7365 0.2324
H14 H 0.0292 0.8501 0.2708
H15 H 0.1722 0.8650 0.3045
loop_
_geom_bond_atom_site_label_1
_geom_bond_atom_site_label_2
_geom_bond_site_symmetry_1
_geom_bond_site_symmetry_2
O1 C12 1_555 1_555
O2 C10 1_555 1_555
O3 C11 1_555 1_555
O4 C3 1_555 1_555
N1 C1 1_555 1_555
N2 C10 1_555 1_555
N3 C1 1_555 1_555
C1 C2 1_555 1_555
C2 H1 1_555 1_555
C3 C2 1_555 1_555
C4 C3 1_555 1_555
C5 C4 1_555 1_555
H2 C5 1_555 1_555
C6 C5 1_555 1_555
H3 C6 1_555 1_555
C7 C6 1_555 1_555
H4 C7 1_555 1_555
C8 C7 1_555 1_555
H5 C8 1_555 1_555
C9 N1 1_555 1_555
C10 C1 1_555 1_555
C11 N2 1_555 1_555
C12 N1 1_555 1_555
H6 C12 1_555 1_555
C13 N2 1_555 1_555
H7 C13 1_555 1_555
H8 C13 1_555 1_555
H9 C13 1_555 1_555
C14 N3 1_555 1_555
H10 C14 1_555 1_555
H11 C14 1_555 1_555
H12 C14 1_555 1_555
C15 O4 1_555 1_555
H13 C15 1_555 1_555
H14 C15 1_555 1_555
H15 C15 1_555 1_555
N3 C11 1_555 1_555
C4 C9 1_555 1_555
C8 C9 1_555 1_555

#END
