
#######################################################################
#
#                 Cambridge Crystallographic Data Centre
#                                CCDC 
#
#######################################################################
#
# If this CIF has been generated from an entry in the Cambridge 
# Structural Database, then it will include bibliographic, chemical, 
# crystal, experimental, refinement or atomic coordinate data resulting 
# from the CCDC's data processing and validation procedures.
#
#######################################################################

data_BUNQOS
_chemical_compound_source        'Ervatamia hainanensis'
_chemical_formula_moiety         'C20 H24 N2 O2,C2 H6 O1,H2 O1'
_chemical_name_systematic        
'16-ethylidene-14-methyl-4-aza-14-azoniatetracyclo[12.2.2.0^3,11^.0^5,10^]octadeca-3(11),5,7,9-tetraene-2-carboxylate ethanol solvate monohydrate'
_chemical_properties_biological  'anti-inflammatory activity'
_symmetry_cell_setting           orthorhombic
_symmetry_space_group_name_H-M   'P 21 21 21'
_symmetry_Int_Tables_number      19
_space_group_name_Hall           'P 2ac 2ab'
loop_
_symmetry_equiv_pos_site_id
_symmetry_equiv_pos_as_xyz
1 x,y,z
2 1/2-x,-y,1/2+z
3 1/2+x,1/2-y,-z
4 -x,1/2+y,1/2-z
_cell_length_a                   6.33312(18)
_cell_length_b                   12.6666(3)
_cell_length_c                   25.6966(10)
_cell_angle_alpha                90
_cell_angle_beta                 90
_cell_angle_gamma                90
_cell_volume                     2061.36
_exptl_crystal_colour            'light colorless'
_cell_formula_units_Z            4
loop_
_atom_site_label
_atom_site_type_symbol
_atom_site_fract_x
_atom_site_fract_y
_atom_site_fract_z
O1 O -0.3768(4) -0.6277(2) -0.21554(10)
O2 O -0.6329(5) -0.6714(2) -0.16018(11)
N1 N -0.5505(4) -0.6886(2) -0.30702(11)
H1 H -0.4411 -0.7021 -0.2883
N2 N -0.8800(4) -0.3675(2) -0.33773(11)
C1 C -0.7223(5) -0.6294(2) -0.29105(12)
C2 C -0.6492(5) -0.4057(3) -0.33557(14)
H2 H -0.6401 -0.4741 -0.3524
H3 H -0.5621 -0.3570 -0.3552
C3 C -1.0306(5) -0.4500(3) -0.36012(13)
H4 H -0.9839 -0.4660 -0.3952
H5 H -1.1689 -0.4176 -0.3630
C4 C -1.0580(5) -0.5551(2) -0.33132(14)
H6 H -1.0986 -0.5404 -0.2956
H7 H -1.1726 -0.5940 -0.3474
C5 C -0.8649(5) -0.6234(2) -0.33091(12)
C6 C -0.7787(6) -0.6827(2) -0.37366(13)
C7 C -0.8502(7) -0.7089(3) -0.42393(14)
H8 H -0.9790 -0.6838 -0.4362
C8 C -0.7243(7) -0.7728(3) -0.45464(15)
H9 H -0.7699 -0.7905 -0.4879
C9 C -0.5311(7) -0.8115(3) -0.43706(15)
H10 H -0.4519 -0.8551 -0.4587
C10 C -0.4546(6) -0.7864(3) -0.38819(14)
H11 H -0.3246 -0.8112 -0.3767
C11 C -0.5808(5) -0.7223(2) -0.35698(13)
C12 C -0.5597(5) -0.4150(3) -0.28050(13)
H12 H -0.5118 -0.3456 -0.2698
H13 H -0.4362 -0.4602 -0.2820
C13 C -0.7059(5) -0.4578(2) -0.23788(13)
H14 H -0.6413 -0.4387 -0.2045
C14 C -0.7314(5) -0.5812(2) -0.23770(12)
H15 H -0.8708 -0.5972 -0.2232
C15 C -0.5658(5) -0.6306(2) -0.20133(13)
C16 C -1.0474(6) -0.4629(3) -0.15210(14)
H16 H -1.1483 -0.5195 -0.1520
H17 H -1.0775 -0.4156 -0.1239
H18 H -0.9078 -0.4913 -0.1480
C17 C -1.0608(5) -0.4046(3) -0.20236(13)
H19 H -1.1839 -0.3662 -0.2079
C18 C -0.9180(5) -0.4010(2) -0.24015(13)
C19 C -0.9499(5) -0.3261(2) -0.28514(13)
H20 H -0.8732 -0.2615 -0.2779
H21 H -1.0987 -0.3083 -0.2871
C20 C -0.8904(6) -0.2745(3) -0.37444(14)
H22 H -1.0318 -0.2473 -0.3752
H23 H -0.8502 -0.2967 -0.4088
H24 H -0.7956 -0.2203 -0.3627
O3 O -0.1863(9) -0.3739(4) -0.48840(19)
H25 H -0.2451 -0.3307 -0.4696
C21 C -0.482(2) -0.4909(7) -0.4771(4)
H26 H -0.5233 -0.4429 -0.4500
H27 H -0.4072 -0.5494 -0.4621
H28 H -0.6057 -0.5162 -0.4947
C22 C -0.3412(16) -0.4345(6) -0.5153(3)
H29 H -0.2719 -0.4858 -0.5375
H30 H -0.4256 -0.3884 -0.5371
O4 O -0.4016(9) -0.2181(5) -0.44195(18)
H31 H -0.4244 -0.2276 -0.4097
H32 H -0.4754 -0.1666 -0.4527
loop_
_geom_bond_atom_site_label_1
_geom_bond_atom_site_label_2
_geom_bond_site_symmetry_1
_geom_bond_site_symmetry_2
O1 C15 1_555 1_555
O2 C15 1_555 1_555
N1 H1 1_555 1_555
N2 C2 1_555 1_555
C1 N1 1_555 1_555
C2 H2 1_555 1_555
H3 C2 1_555 1_555
C3 N2 1_555 1_555
H4 C3 1_555 1_555
H5 C3 1_555 1_555
C4 C3 1_555 1_555
H6 C4 1_555 1_555
H7 C4 1_555 1_555
C5 C1 1_555 1_555
C6 C5 1_555 1_555
C7 C6 1_555 1_555
H8 C7 1_555 1_555
C8 C7 1_555 1_555
H9 C8 1_555 1_555
C9 C8 1_555 1_555
H10 C9 1_555 1_555
C10 C9 1_555 1_555
H11 C10 1_555 1_555
C11 N1 1_555 1_555
C12 C2 1_555 1_555
H12 C12 1_555 1_555
H13 C12 1_555 1_555
C13 C12 1_555 1_555
H14 C13 1_555 1_555
C14 C1 1_555 1_555
H15 C14 1_555 1_555
C15 C14 1_555 1_555
C16 H16 1_555 1_555
H17 C16 1_555 1_555
H18 C16 1_555 1_555
C17 C16 1_555 1_555
H19 C17 1_555 1_555
C18 C13 1_555 1_555
C19 N2 1_555 1_555
H20 C19 1_555 1_555
H21 C19 1_555 1_555
C20 N2 1_555 1_555
H22 C20 1_555 1_555
H23 C20 1_555 1_555
H24 C20 1_555 1_555
O3 H25 1_555 1_555
C21 H26 1_555 1_555
H27 C21 1_555 1_555
H28 C21 1_555 1_555
C22 O3 1_555 1_555
H29 C22 1_555 1_555
H30 C22 1_555 1_555
O4 H31 1_555 1_555
H32 O4 1_555 1_555
C4 C5 1_555 1_555
C6 C11 1_555 1_555
C10 C11 1_555 1_555
C13 C14 1_555 1_555
C17 C18 1_555 1_555
C18 C19 1_555 1_555
C21 C22 1_555 1_555

#END
