
#######################################################################
#
#                 Cambridge Crystallographic Data Centre
#                                CCDC 
#
#######################################################################
#
# If this CIF has been generated from an entry in the Cambridge 
# Structural Database, then it will include bibliographic, chemical, 
# crystal, experimental, refinement or atomic coordinate data resulting 
# from the CCDC's data processing and validation procedures.
#
#######################################################################

data_BUPPOS
_chemical_formula_moiety         '2(C3 H10 N1 1+),2(C6 H21 B12 O1 1-)'
_chemical_name_systematic        
'Trimethylammonium 8,9-(trimethylene)-11,12-(\m~2~-methoxyborane)-8,9-dicarbadodecaborate(11)'
_symmetry_cell_setting           monoclinic
_symmetry_space_group_name_H-M   'P 21/n'
_symmetry_Int_Tables_number      14
_space_group_name_Hall           '-P 2yn'
loop_
_symmetry_equiv_pos_site_id
_symmetry_equiv_pos_as_xyz
1 x,y,z
2 1/2-x,1/2+y,1/2-z
3 -x,-y,-z
4 1/2+x,1/2-y,1/2+z
_cell_length_a                   22.267(5)
_cell_length_b                   7.9141(16)
_cell_length_c                   22.267(5)
_cell_angle_alpha                90
_cell_angle_beta                 93.30
_cell_angle_gamma                90
_cell_volume                     3917.46
_exptl_crystal_colour            colorless
_exptl_crystal_description       block
_cell_formula_units_Z            4
loop_
_atom_site_label
_atom_site_type_symbol
_atom_site_fract_x
_atom_site_fract_y
_atom_site_fract_z
O1 O 0.4120(3) 0.4167(9) 0.5226(3)
C4 C 0.3738(4) 0.3446(13) 0.3370(4)
C5 C 0.3151(4) 0.4214(11) 0.3564(4)
C6 C 0.4041(6) 0.4741(16) 0.3004(5)
H12 H 0.4213 0.4224 0.2658
H13 H 0.4357 0.5311 0.3243
C7 C 0.3547(7) 0.5964(17) 0.2807(6)
H14 H 0.3353 0.5611 0.2426
H15 H 0.3710 0.7089 0.2759
C8 C 0.3100(6) 0.5956(14) 0.3293(5)
H16 H 0.3200 0.6814 0.3593
H17 H 0.2695 0.6160 0.3124
C9 C 0.4326(7) 0.5863(19) 0.5350(6)
H18 H 0.4473 0.5943 0.5763
H19 H 0.3998 0.6638 0.5278
H20 H 0.4643 0.6137 0.5093
B1 B 0.2981(5) 0.0760(16) 0.3575(6)
B2 B 0.3720(6) 0.1366(15) 0.3219(5)
H30 H 0.3908 0.0726 0.2833
B3 B 0.3100(5) 0.2661(13) 0.3054(5)
H31 H 0.2937 0.2755 0.2579
B4 B 0.2577(5) 0.2830(15) 0.3596(6)
H32 H 0.2109 0.3007 0.3422
B5 B 0.2647(5) 0.1783(15) 0.4253(6)
H33 H 0.2214 0.1401 0.4424
B6 B 0.3245(6) 0.0414(15) 0.4402(6)
H34 H 0.3149 -0.0753 0.4647
B7 B 0.3779(5) 0.0240(14) 0.3879(5)
H35 H 0.3987 -0.1010 0.3832
B8 B 0.2926(5) 0.3912(15) 0.4246(6)
H36 H 0.2942 0.5130 0.4485
B9 B 0.3233(5) 0.2436(15) 0.4744(6)
H37 H 0.3123 0.2663 0.5212
B10 B 0.3914(5) 0.1453(14) 0.4534(5)
H38 H 0.4267 0.0995 0.4861
B11 B 0.4169(5) 0.2247(15) 0.3827(5)
H39 H 0.4600 0.2899 0.3927
B12 B 0.3878(5) 0.3815(15) 0.4626(5)
H40 H 0.3894 0.4614 0.4291
H41 H 0.263(5) -0.019(13) 0.341(4)
O2 O 1.0184(3) 0.5797(9) 0.4100(3)
B13 B 0.8559(6) 0.9304(14) 0.3007(5)
B14 B 0.8524(7) 0.7211(19) 0.2604(6)
H42 H 0.8320 0.7020 0.2147
B15 B 0.8027(5) 0.7503(15) 0.3131(5)
H43 H 0.7549 0.7480 0.2973
B16 B 0.8220(6) 0.8790(14) 0.3741(5)
H44 H 0.7847 0.9489 0.3928
B17 B 0.8878(5) 0.9773(14) 0.3793(5)
H45 H 0.8849 1.1009 0.4016
B18 B 0.9378(6) 0.9582(15) 0.3204(6)
H46 H 0.9624 1.0716 0.3073
B19 B 0.9180(7) 0.8171(18) 0.2626(6)
H47 H 0.9322 0.8481 0.2175
B20 B 0.8834(5) 0.7857(13) 0.4186(5)
H48 H 0.8943 0.7219 0.4617
B21 B 0.9536(6) 0.8560(15) 0.3907(6)
H49 H 0.9879 0.9013 0.4244
B22 B 0.9710(5) 0.7536(16) 0.3221(5)
H50 H 1.0176 0.7282 0.3109
B23 B 0.9174(6) 0.6103(15) 0.2921(5)
H51 H 0.9405 0.4873 0.2928
B24 B 0.9596(5) 0.6196(14) 0.3863(5)
H52 H 0.9252 0.5434 0.3888
C13 C 0.8509(4) 0.5851(12) 0.3179(5)
C14 C 0.8341(4) 0.6662(12) 0.3781(5)
C15 C 0.8215(6) 0.4110(15) 0.3179(7)
H53 H 0.8031 0.3855 0.2784
H54 H 0.8513 0.3250 0.3284
C16 C 0.7743(6) 0.4146(17) 0.3638(7)
H55 H 0.7692 0.3036 0.3812
H56 H 0.7359 0.4522 0.3457
C17 C 0.7983(6) 0.5391(17) 0.4111(6)
H57 H 0.7655 0.5938 0.4303
H58 H 0.8236 0.4820 0.4416
C18 C 1.0315(6) 0.4047(16) 0.4279(7)
H59 H 1.0727 0.3960 0.4429
H60 H 1.0249 0.3318 0.3937
H61 H 1.0055 0.3717 0.4587
H62 H 0.8286 1.0518 0.2819
N1 N 0.4122(4) 0.1839(11) 0.6164(4)
H1 H 0.4045 0.2362 0.5804
C1 C 0.3790(10) 0.265(3) 0.6591(7)
H3 H 0.3929 0.3791 0.6643
H4 H 0.3839 0.2060 0.6968
H5 H 0.3372 0.2655 0.6458
C2 C 0.4753(7) 0.181(3) 0.6288(10)
H6 H 0.4902 0.2950 0.6316
H7 H 0.4941 0.1233 0.5970
H8 H 0.4844 0.1237 0.6661
C3 C 0.3873(10) 0.015(2) 0.6123(7)
H9 H 0.3447 0.0219 0.6034
H10 H 0.3951 -0.0424 0.6498
H11 H 0.4056 -0.0457 0.5808
N2 N 0.1132(4) 0.8110(11) 0.4103(4)
H2 H 0.0767 0.7595 0.4049
C10 C 0.1264(8) 0.827(2) 0.4755(6)
H21 H 0.0954 0.8920 0.4928
H22 H 0.1644 0.8825 0.4829
H23 H 0.1281 0.7166 0.4935
C11 C 0.1566(7) 0.711(3) 0.3774(9)
H24 H 0.1601 0.5996 0.3946
H25 H 0.1952 0.7652 0.3802
H26 H 0.1427 0.7017 0.3359
C12 C 0.1071(6) 0.9831(18) 0.3836(8)
H27 H 0.0785 1.0472 0.4049
H28 H 0.0935 0.9741 0.3420
H29 H 0.1454 1.0390 0.3867
loop_
_geom_bond_atom_site_label_1
_geom_bond_atom_site_label_2
_geom_bond_site_symmetry_1
_geom_bond_site_symmetry_2
O1 C9 1_555 1_555
O2 B24 1_555 1_555
N1 H1 1_555 1_555
N2 H2 1_555 1_555
C1 N1 1_555 1_555
H3 C1 1_555 1_555
H4 C1 1_555 1_555
H5 C1 1_555 1_555
C2 N1 1_555 1_555
H6 C2 1_555 1_555
H7 C2 1_555 1_555
H8 C2 1_555 1_555
C3 N1 1_555 1_555
H9 C3 1_555 1_555
H10 C3 1_555 1_555
H11 C3 1_555 1_555
C4 C5 1_555 1_555
C5 C8 1_555 1_555
C6 C4 1_555 1_555
H12 C6 1_555 1_555
H13 C6 1_555 1_555
C7 C6 1_555 1_555
H14 C7 1_555 1_555
H15 C7 1_555 1_555
C8 C7 1_555 1_555
H16 C8 1_555 1_555
H17 C8 1_555 1_555
C9 H18 1_555 1_555
H19 C9 1_555 1_555
H20 C9 1_555 1_555
C10 N2 1_555 1_555
H21 C10 1_555 1_555
H22 C10 1_555 1_555
H23 C10 1_555 1_555
C11 N2 1_555 1_555
H24 C11 1_555 1_555
H25 C11 1_555 1_555
H26 C11 1_555 1_555
C12 N2 1_555 1_555
H27 C12 1_555 1_555
H28 C12 1_555 1_555
H29 C12 1_555 1_555
B1 B2 1_555 1_555
B2 C4 1_555 1_555
H30 B2 1_555 1_555
B3 C4 1_555 1_555
H31 B3 1_555 1_555
B4 C5 1_555 1_555
H32 B4 1_555 1_555
B5 B1 1_555 1_555
H33 B5 1_555 1_555
B6 B1 1_555 1_555
H34 B6 1_555 1_555
B7 B1 1_555 1_555
H35 B7 1_555 1_555
B8 C5 1_555 1_555
H36 B8 1_555 1_555
B9 B5 1_555 1_555
H37 B9 1_555 1_555
B10 B6 1_555 1_555
H38 B10 1_555 1_555
B11 C4 1_555 1_555
H39 B11 1_555 1_555
B12 O1 1_555 1_555
H40 B12 1_555 1_555
H41 B1 1_555 1_555
B13 B14 1_555 1_555
B14 H42 1_555 1_555
B15 B13 1_555 1_555
H43 B15 1_555 1_555
B16 B13 1_555 1_555
H44 B16 1_555 1_555
B17 B13 1_555 1_555
H45 B17 1_555 1_555
B18 B13 1_555 1_555
H46 B18 1_555 1_555
B19 B13 1_555 1_555
H47 B19 1_555 1_555
B20 B16 1_555 1_555
H48 B20 1_555 1_555
B21 B17 1_555 1_555
H49 B21 1_555 1_555
B22 B18 1_555 1_555
H50 B22 1_555 1_555
B23 B14 1_555 1_555
H51 B23 1_555 1_555
B24 B21 1_555 1_555
H52 B24 1_555 1_555
C13 B14 1_555 1_555
C14 B15 1_555 1_555
C15 C13 1_555 1_555
H53 C15 1_555 1_555
H54 C15 1_555 1_555
C16 C15 1_555 1_555
H55 C16 1_555 1_555
H56 C16 1_555 1_555
C17 C14 1_555 1_555
H57 C17 1_555 1_555
H58 C17 1_555 1_555
C18 O2 1_555 1_555
H59 C18 1_555 1_555
H60 C18 1_555 1_555
H61 C18 1_555 1_555
H62 B13 1_555 1_555
C5 B3 1_555 1_555
B1 B3 1_555 1_555
B1 B4 1_555 1_555
B2 B3 1_555 1_555
B2 B7 1_555 1_555
B2 B11 1_555 1_555
B3 B4 1_555 1_555
B4 B5 1_555 1_555
B4 B8 1_555 1_555
B5 B6 1_555 1_555
B5 B8 1_555 1_555
B6 B7 1_555 1_555
B6 B9 1_555 1_555
B7 B10 1_555 1_555
B7 B11 1_555 1_555
B8 B9 1_555 1_555
B9 B10 1_555 1_555
B9 B12 1_555 1_555
B10 B11 1_555 1_555
B10 B12 1_555 1_555
B14 B15 1_555 1_555
B14 B19 1_555 1_555
B15 B16 1_555 1_555
B15 C13 1_555 1_555
B16 B17 1_555 1_555
B16 C14 1_555 1_555
B17 B18 1_555 1_555
B17 B20 1_555 1_555
B18 B19 1_555 1_555
B18 B21 1_555 1_555
B19 B22 1_555 1_555
B19 B23 1_555 1_555
B20 B21 1_555 1_555
B20 C14 1_555 1_555
B21 B22 1_555 1_555
B22 B23 1_555 1_555
B22 B24 1_555 1_555
B23 C13 1_555 1_555
C13 C14 1_555 1_555
C16 C17 1_555 1_555

#END
