
#######################################################################
#
#                 Cambridge Crystallographic Data Centre
#                                CCDC 
#
#######################################################################
#
# If this CIF has been generated from an entry in the Cambridge 
# Structural Database, then it will include bibliographic, chemical, 
# crystal, experimental, refinement or atomic coordinate data resulting 
# from the CCDC's data processing and validation procedures.
#
#######################################################################

data_BUPPEJ
_chemical_formula_moiety         'C21 H26 N2 O4'
_chemical_name_systematic        
"methyl 9-(1-hydroxyethyl)-3'-oxo-1',3'-dihydro-3H-spiro[7-azatricyclo[5.3.1.0^3,8^]undecane-4,2'-indole]-3-carboxylate"
_symmetry_cell_setting           monoclinic
_symmetry_space_group_name_H-M   'P 21'
_symmetry_Int_Tables_number      4
_space_group_name_Hall           'P 2yb'
loop_
_symmetry_equiv_pos_site_id
_symmetry_equiv_pos_as_xyz
1 x,y,z
2 -x,1/2+y,-z
_cell_length_a                   8.82965(14)
_cell_length_b                   10.54451(18)
_cell_length_c                   9.86508(16)
_cell_angle_alpha                90
_cell_angle_beta                 90.6454(16)
_cell_angle_gamma                90
_cell_volume                     918.423
_exptl_crystal_colour            'light colorless'
_exptl_crystal_description       block
_cell_formula_units_Z            2
loop_
_atom_site_label
_atom_site_type_symbol
_atom_site_fract_x
_atom_site_fract_y
_atom_site_fract_z
O1 O -0.7226(3) -0.0293(2) -0.7770(3)
O2 O -0.2440(3) -0.1075(2) -0.4393(2)
H1 H -0.1796 -0.0851 -0.3838
O3 O -0.4173(3) -0.0768(2) -0.9558(2)
O4 O -0.4179(4) -0.2727(2) -1.0402(2)
N1 N -0.7174(3) -0.3366(2) -0.9192(3)
H2 H -0.7025 -0.4171 -0.9235
N2 N -0.4783(3) -0.2315(2) -0.5588(2)
C1 C -0.6587(3) -0.2547(3) -0.8113(3)
C2 C -0.4151(4) -0.3621(3) -0.5413(3)
H3 H -0.4971 -0.4229 -0.5352
H4 H -0.3558 -0.3664 -0.4581
C3 C -0.6444(3) -0.2274(3) -0.5534(3)
H5 H -0.6776 -0.1397 -0.5546
H6 H -0.6774 -0.2651 -0.4690
C4 C -0.7186(3) -0.2984(3) -0.6729(3)
H7 H -0.8272 -0.2852 -0.6708
H8 H -0.6998 -0.3885 -0.6626
C5 C -0.7322(3) -0.1245(3) -0.8463(3)
C6 C -0.8182(3) -0.1425(3) -0.9716(3)
C7 C -0.9071(4) -0.0581(4) -1.0466(4)
H9 H -0.9206 0.0251 -1.0180
C8 C -0.9746(4) -0.1017(5) -1.1645(4)
H10 H -1.0364 -0.0479 -1.2153
C9 C -0.9507(5) -0.2251(5) -1.2075(4)
H11 H -0.9943 -0.2513 -1.2891
C10 C -0.8647(4) -0.3109(4) -1.1338(4)
H12 H -0.8510 -0.3936 -1.1640
C11 C -0.7988(3) -0.2688(3) -1.0120(3)
C12 C -0.3159(3) -0.3942(3) -0.6612(3)
H13 H -0.2746 -0.4799 -0.6501
C13 C -0.1866(3) -0.2985(3) -0.6652(3)
H14 H -0.1208 -0.3176 -0.7406
H15 H -0.1271 -0.3040 -0.5821
C14 C -0.4798(3) -0.2516(2) -0.8092(3)
C15 C -0.4115(3) -0.3877(2) -0.7913(3)
H16 H -0.4927 -0.4495 -0.7872
H17 H -0.3491 -0.4081 -0.8686
C16 C -0.0300(4) -0.0479(4) -0.5679(4)
H18 H -0.0047 0.0128 -0.4988
H19 H 0.0022 -0.0167 -0.6543
H20 H 0.0202 -0.1267 -0.5485
C17 C -0.1999(3) -0.0687(3) -0.5710(3)
H21 H -0.2484 0.0130 -0.5904
C18 C -0.2514(3) -0.1634(2) -0.6811(3)
H22 H -0.2181 -0.1304 -0.7687
C19 C -0.4257(3) -0.1719(2) -0.6859(3)
H23 H -0.4681 -0.0863 -0.6931
C20 C -0.4325(3) -0.1880(3) -0.9414(3)
C21 C -0.3858(7) -0.2246(5) -1.1731(3)
H24 H -0.3569 -0.2934 -1.2311
H25 H -0.3046 -0.1643 -1.1673
H26 H -0.4746 -0.1841 -1.2099
loop_
_geom_bond_atom_site_label_1
_geom_bond_atom_site_label_2
_geom_bond_site_symmetry_1
_geom_bond_site_symmetry_2
O1 C5 1_555 1_555
O2 H1 1_555 1_555
O3 C20 1_555 1_555
O4 C20 1_555 1_555
N1 H2 1_555 1_555
N2 C2 1_555 1_555
C1 N1 1_555 1_555
C2 H3 1_555 1_555
H4 C2 1_555 1_555
C3 N2 1_555 1_555
H5 C3 1_555 1_555
H6 C3 1_555 1_555
C4 C1 1_555 1_555
H7 C4 1_555 1_555
H8 C4 1_555 1_555
C5 C1 1_555 1_555
C6 C5 1_555 1_555
C7 C6 1_555 1_555
H9 C7 1_555 1_555
C8 C7 1_555 1_555
H10 C8 1_555 1_555
C9 C8 1_555 1_555
H11 C9 1_555 1_555
C10 C9 1_555 1_555
H12 C10 1_555 1_555
C11 N1 1_555 1_555
C12 C2 1_555 1_555
H13 C12 1_555 1_555
C13 C12 1_555 1_555
H14 C13 1_555 1_555
H15 C13 1_555 1_555
C14 C1 1_555 1_555
C15 C12 1_555 1_555
H16 C15 1_555 1_555
H17 C15 1_555 1_555
C16 H18 1_555 1_555
H19 C16 1_555 1_555
H20 C16 1_555 1_555
C17 O2 1_555 1_555
H21 C17 1_555 1_555
C18 C13 1_555 1_555
H22 C18 1_555 1_555
C19 N2 1_555 1_555
H23 C19 1_555 1_555
C20 C14 1_555 1_555
C21 O4 1_555 1_555
H24 C21 1_555 1_555
H25 C21 1_555 1_555
H26 C21 1_555 1_555
C3 C4 1_555 1_555
C6 C11 1_555 1_555
C10 C11 1_555 1_555
C14 C15 1_555 1_555
C14 C19 1_555 1_555
C16 C17 1_555 1_555
C17 C18 1_555 1_555
C18 C19 1_555 1_555

#END
