
#######################################################################
#
#                 Cambridge Crystallographic Data Centre
#                                CCDC 
#
#######################################################################
#
# If this CIF has been generated from an entry in the Cambridge 
# Structural Database, then it will include bibliographic, chemical, 
# crystal, experimental, refinement or atomic coordinate data resulting 
# from the CCDC's data processing and validation procedures.
#
#######################################################################

data_BUPQIO
_chemical_compound_source        'Vitex vestita'
_chemical_name_common            'Vitexolide A'
_chemical_formula_moiety         'C20 H30 O4'
_chemical_name_systematic        
5-hydroxy-4-(1-hydroxy-2-(5,5,8a-trimethyl-2-methylenedecahydronaphthalen-1-yl)ethyl)furan-2(5H)-one
_chemical_properties_biological  'antibacterial activity'
_symmetry_cell_setting           orthorhombic
_symmetry_space_group_name_H-M   'P 21 21 21'
_symmetry_Int_Tables_number      19
_space_group_name_Hall           'P 2ac 2ab'
loop_
_symmetry_equiv_pos_site_id
_symmetry_equiv_pos_as_xyz
1 x,y,z
2 1/2+x,1/2-y,-z
3 -x,1/2+y,1/2-z
4 1/2-x,-y,1/2+z
_cell_length_a                   7.4701(9)
_cell_length_b                   9.9307(15)
_cell_length_c                   24.744(4)
_cell_angle_alpha                90
_cell_angle_beta                 90
_cell_angle_gamma                90
_cell_volume                     1835.59
_exptl_crystal_colour            colorless
_exptl_crystal_description       needle
_cell_formula_units_Z            4
_exptl_crystal_recrystallization_method methanol/water
loop_
_atom_site_label
_atom_site_type_symbol
_atom_site_fract_x
_atom_site_fract_y
_atom_site_fract_z
C1 C 0.5356(10) 0.0034(7) 0.6177(3)
H1 H 0.6562 0.0395 0.6190
H2 H 0.5031 -0.0243 0.6540
C2 C 0.5330(9) -0.1176(8) 0.5811(4)
H3 H 0.6184 -0.1838 0.5939
H4 H 0.5677 -0.0911 0.5449
C3 C 0.3464(10) -0.1794(8) 0.5799(4)
H5 H 0.3162 -0.2105 0.6159
H6 H 0.3478 -0.2572 0.5562
C4 C 0.2017(9) -0.0824(8) 0.5607(4)
C5 C 0.2180(8) 0.0490(7) 0.5946(3)
H7 H 0.1889 0.0220 0.6317
C6 C 0.0753(10) 0.1570(7) 0.5798(3)
H8 H 0.1041 0.1958 0.5448
H9 H -0.0413 0.1145 0.5770
C7 C 0.0683(10) 0.2656(8) 0.6210(3)
H10 H 0.0278 0.2282 0.6551
H11 H -0.0174 0.3335 0.6099
C8 C 0.2522(9) 0.3313(9) 0.6289(3)
C9 C 0.3935(9) 0.2269(7) 0.6441(3)
H12 H 0.3535 0.1825 0.6774
C10 C 0.4048(9) 0.1160(7) 0.5986(3)
C11 C 0.5764(9) 0.2933(7) 0.6560(3)
H13 H 0.6703 0.2264 0.6521
H14 H 0.5982 0.3638 0.6297
C12 C 0.5844(10) 0.3532(7) 0.7127(3)
H15 H 0.4786 0.4103 0.7174
C13 C 0.7480(9) 0.4411(7) 0.7194(3)
C14 C 0.8830(9) 0.4268(8) 0.7540(3)
H16 H 0.8954 0.3571 0.7788
C15 C 1.0093(12) 0.5387(8) 0.7468(4)
C16 C 0.7862(10) 0.5615(8) 0.6820(5)
H17 H 0.8198 0.5259 0.6465
C17 C 0.2763(12) 0.4574(9) 0.6212(4)
H18 H 0.3901 0.4943 0.6248
H19 H 0.1800 0.5121 0.6120
C18 C 0.0197(10) -0.1470(9) 0.5722(4)
H20 H 0.0060 -0.2262 0.5504
H21 H -0.0738 -0.0841 0.5638
H22 H 0.0128 -0.1713 0.6097
C19 C 0.2127(11) -0.0621(9) 0.5004(3)
H23 H 0.3250 -0.0206 0.4915
H24 H 0.1163 -0.0051 0.4888
H25 H 0.2040 -0.1476 0.4826
C20 C 0.4767(10) 0.1775(7) 0.5467(3)
H26 H 0.3957 0.2458 0.5343
H27 H 0.4878 0.1087 0.5197
H28 H 0.5919 0.2168 0.5535
O1 O 0.5796(6) 0.2521(5) 0.7532(2)
H29 H 0.6784 0.2166 0.7557
O2 O 1.1516(7) 0.5588(6) 0.7683(3)
O3 O 0.9466(7) 0.6185(5) 0.7069(2)
O4 O 0.6604(8) 0.6516(6) 0.6748(3)
H30 H 0.5717 0.6306 0.6924
loop_
_geom_bond_atom_site_label_1
_geom_bond_atom_site_label_2
_geom_bond_site_symmetry_1
_geom_bond_site_symmetry_2
C1 H1 1_555 1_555
H2 C1 1_555 1_555
C2 C1 1_555 1_555
H3 C2 1_555 1_555
H4 C2 1_555 1_555
C3 C2 1_555 1_555
H5 C3 1_555 1_555
H6 C3 1_555 1_555
C4 C3 1_555 1_555
C5 C4 1_555 1_555
H7 C5 1_555 1_555
C6 C5 1_555 1_555
H8 C6 1_555 1_555
H9 C6 1_555 1_555
C7 C6 1_555 1_555
H10 C7 1_555 1_555
H11 C7 1_555 1_555
C8 C7 1_555 1_555
C9 C8 1_555 1_555
H12 C9 1_555 1_555
C10 C1 1_555 1_555
C11 C9 1_555 1_555
H13 C11 1_555 1_555
H14 C11 1_555 1_555
C12 C11 1_555 1_555
H15 C12 1_555 1_555
C13 C12 1_555 1_555
C14 C13 1_555 1_555
H16 C14 1_555 1_555
C15 C14 1_555 1_555
C16 C13 1_555 1_555
H17 C16 1_555 1_555
C17 C8 1_555 1_555
H18 C17 1_555 1_555
H19 C17 1_555 1_555
C18 C4 1_555 1_555
H20 C18 1_555 1_555
H21 C18 1_555 1_555
H22 C18 1_555 1_555
C19 C4 1_555 1_555
H23 C19 1_555 1_555
H24 C19 1_555 1_555
H25 C19 1_555 1_555
C20 C10 1_555 1_555
H26 C20 1_555 1_555
H27 C20 1_555 1_555
H28 C20 1_555 1_555
O1 C12 1_555 1_555
H29 O1 1_555 1_555
O2 C15 1_555 1_555
O3 C15 1_555 1_555
O4 C16 1_555 1_555
H30 O4 1_555 1_555
C5 C10 1_555 1_555
C9 C10 1_555 1_555
C16 O3 1_555 1_555

#END
