
#######################################################################
#
#                 Cambridge Crystallographic Data Centre
#                                CCDC 
#
#######################################################################
#
# If this CIF has been generated from an entry in the Cambridge 
# Structural Database, then it will include bibliographic, chemical, 
# crystal, experimental, refinement or atomic coordinate data resulting 
# from the CCDC's data processing and validation procedures.
#
#######################################################################

data_BUQMOR
_chemical_compound_source        'fruits of Xanthium sibiricum'
_chemical_name_common            'Norxanthantolide B'
_chemical_formula_moiety         'C11 H14 O3'
_chemical_name_systematic        
(3R,3aR,7S,8aS)-3,7-Dimethyl-3a,7,8,8a-tetrahydro-2H-cyclohepta[b]furan-2,6(3H)-dione
_symmetry_cell_setting           orthorhombic
_symmetry_space_group_name_H-M   'P 21 21 21'
_symmetry_Int_Tables_number      19
_space_group_name_Hall           'P 2ac 2ab'
loop_
_symmetry_equiv_pos_site_id
_symmetry_equiv_pos_as_xyz
1 x,y,z
2 1/2-x,-y,1/2+z
3 1/2+x,1/2-y,-z
4 -x,1/2+y,1/2-z
_cell_length_a                   6.1491(5)
_cell_length_b                   8.0979(5)
_cell_length_c                   20.2092(14)
_cell_angle_alpha                90
_cell_angle_beta                 90
_cell_angle_gamma                90
_cell_volume                     1006.31
_chemical_melting_point          '89-90 deg.C'
_cell_formula_units_Z            4
loop_
_atom_site_label
_atom_site_type_symbol
_atom_site_fract_x
_atom_site_fract_y
_atom_site_fract_z
O1 O 1.0517(2) 0.1467(2) 0.03350(7)
O2 O 0.8670(2) 0.31540(18) 0.09974(7)
O3 O 0.1613(3) 0.4278(2) 0.25291(7)
C1 C 0.2411(3) 0.3629(3) 0.20384(10)
C2 C 0.2569(3) 0.1812(3) 0.20118(10)
H1 H 0.1677 0.1207 0.2309
C3 C 0.3843(3) 0.0940(3) 0.16103(9)
H2 H 0.3733 -0.0228 0.1637
C4 C 0.5433(3) 0.1626(2) 0.11203(9)
H3 H 0.4617 0.1988 0.0717
C5 C 0.6685(3) 0.3107(3) 0.13957(10)
H4 H 0.7072 0.2894 0.1869
C6 C 0.5560(3) 0.4755(3) 0.13413(10)
H5 H 0.5860 0.5230 0.0899
H6 H 0.6177 0.5514 0.1676
C7 C 0.3079(3) 0.4654(3) 0.14410(10)
H7 H 0.2463 0.4097 0.1041
C8 C 0.7268(3) 0.0475(3) 0.09067(10)
H8 H 0.7793 -0.0139 0.1305
C9 C 0.9001(3) 0.1671(3) 0.07016(9)
C10 C 0.6704(4) -0.0776(3) 0.03731(11)
H9 H 0.5640 -0.1566 0.0547
H10 H 0.8023 -0.1367 0.0239
H11 H 0.6085 -0.0202 -0.0010
C11 C 0.2076(4) 0.6373(3) 0.14726(11)
H12 H 0.2589 0.6941 0.1871
H13 H 0.0488 0.6279 0.1487
H14 H 0.2506 0.7004 0.1080
loop_
_geom_bond_atom_site_label_1
_geom_bond_atom_site_label_2
_geom_bond_site_symmetry_1
_geom_bond_site_symmetry_2
O1 C9 1_555 1_555
O2 C5 1_555 1_555
O3 C1 1_555 1_555
C1 C2 1_555 1_555
C2 H1 1_555 1_555
C3 C2 1_555 1_555
H2 C3 1_555 1_555
C4 C3 1_555 1_555
H3 C4 1_555 1_555
C5 C4 1_555 1_555
H4 C5 1_555 1_555
C6 C5 1_555 1_555
H5 C6 1_555 1_555
H6 C6 1_555 1_555
C7 C1 1_555 1_555
H7 C7 1_555 1_555
C8 C4 1_555 1_555
H8 C8 1_555 1_555
C9 O2 1_555 1_555
C10 C8 1_555 1_555
H9 C10 1_555 1_555
H10 C10 1_555 1_555
H11 C10 1_555 1_555
C11 C7 1_555 1_555
H12 C11 1_555 1_555
H13 C11 1_555 1_555
H14 C11 1_555 1_555
C6 C7 1_555 1_555
C8 C9 1_555 1_555

#END
