
#######################################################################
#
#                 Cambridge Crystallographic Data Centre
#                                CCDC 
#
#######################################################################
#
# If this CIF has been generated from an entry in the Cambridge 
# Structural Database, then it will include bibliographic, chemical, 
# crystal, experimental, refinement or atomic coordinate data resulting 
# from the CCDC's data processing and validation procedures.
#
#######################################################################

data_BUQMUX
_chemical_compound_source        'fruits of Xanthium sibiricum'
_chemical_name_common            'Sibirolide A'
_chemical_formula_moiety         'C15 H16 O3'
_chemical_name_systematic        
(5aS,5bR,6aS,7aS,7bR)-3,5a-Dimethyl-7-methylene-5,5a,5b,6,6a,7,7a,7b-octahydrocyclopropa[1,2]indeno[4,5-b]furan-2,4-dione
_symmetry_cell_setting           tetragonal
_symmetry_space_group_name_H-M   'P 41 21 2'
_symmetry_Int_Tables_number      92
_space_group_name_Hall           'P 4abw 2nw'
loop_
_symmetry_equiv_pos_site_id
_symmetry_equiv_pos_as_xyz
1 x,y,z
2 1/2-y,1/2+x,1/4+z
3 -x,-y,1/2+z
4 1/2+y,1/2-x,3/4+z
5 1/2+x,1/2-y,3/4-z
6 1/2-x,1/2+y,1/4-z
7 y,x,-z
8 -y,-x,1/2-z
_cell_length_a                   9.6557(17)
_cell_length_b                   9.6557(17)
_cell_length_c                   26.319(4)
_cell_angle_alpha                90
_cell_angle_beta                 90
_cell_angle_gamma                90
_cell_volume                     2453.79
_chemical_melting_point          '100-101 deg.C'
_cell_formula_units_Z            8
loop_
_atom_site_label
_atom_site_type_symbol
_atom_site_fract_x
_atom_site_fract_y
_atom_site_fract_z
O1 O 0.71951(12) 0.11225(13) 0.13806(5)
O2 O 0.27745(13) 0.43322(12) 0.08524(4)
O3 O 0.31961(12) 0.23097(12) 0.04690(4)
C1 C 0.43660(18) -0.25774(17) 0.06089(6)
H1 H 0.4380 -0.3147 0.0917
C2 C 0.41634(19) -0.32868(18) 0.01023(7)
H2 H 0.4660 -0.2919 -0.0188
H3 H 0.4050 -0.4285 0.0102
C3 C 0.30046(18) -0.24245(18) 0.03208(6)
H4 H 0.2176 -0.2891 0.0451
C4 C 0.29064(16) -0.09298(17) 0.01668(6)
C5 C 0.37933(16) -0.01733(16) 0.05472(6)
H5 H 0.3280 -0.0178 0.0869
C6 C 0.42910(17) 0.12886(16) 0.04691(6)
H6 H 0.4822 0.1351 0.0153
C7 C 0.51851(16) 0.17084(17) 0.09117(6)
C8 C 0.61796(16) 0.07183(17) 0.11539(6)
C9 C 0.57574(17) -0.07938(17) 0.11318(6)
H7 H 0.5121 -0.0992 0.1408
H8 H 0.6570 -0.1372 0.1176
C10 C 0.50619(17) -0.11449(17) 0.06233(6)
C11 C 0.47462(16) 0.29085(16) 0.11026(6)
C12 C 0.34858(17) 0.33151(17) 0.08107(6)
C13 C 0.52443(17) 0.37713(18) 0.15330(6)
H9 H 0.5787 0.3211 0.1759
H10 H 0.4465 0.4144 0.1713
H11 H 0.5803 0.4516 0.1405
C14 C 0.61532(18) -0.09753(18) 0.02016(6)
H12 H 0.5701 -0.0946 -0.0123
H13 H 0.6783 -0.1744 0.0211
H14 H 0.6657 -0.0130 0.0254
C15 C 0.22027(18) -0.04163(18) -0.02206(6)
H15 H 0.1699 -0.1003 -0.0431
H16 H 0.2212 0.0532 -0.0283
loop_
_geom_bond_atom_site_label_1
_geom_bond_atom_site_label_2
_geom_bond_site_symmetry_1
_geom_bond_site_symmetry_2
O1 C8 1_555 1_555
O2 C12 1_555 1_555
O3 C6 1_555 1_555
C1 H1 1_555 1_555
C2 C1 1_555 1_555
H2 C2 1_555 1_555
H3 C2 1_555 1_555
C3 C1 1_555 1_555
H4 C3 1_555 1_555
C4 C3 1_555 1_555
C5 C4 1_555 1_555
H5 C5 1_555 1_555
C6 C5 1_555 1_555
H6 C6 1_555 1_555
C7 C6 1_555 1_555
C8 C7 1_555 1_555
C9 C8 1_555 1_555
H7 C9 1_555 1_555
H8 C9 1_555 1_555
C10 C1 1_555 1_555
C11 C7 1_555 1_555
C12 O3 1_555 1_555
C13 C11 1_555 1_555
H9 C13 1_555 1_555
H10 C13 1_555 1_555
H11 C13 1_555 1_555
C14 C10 1_555 1_555
H12 C14 1_555 1_555
H13 C14 1_555 1_555
H14 C14 1_555 1_555
C15 C4 1_555 1_555
H15 C15 1_555 1_555
H16 C15 1_555 1_555
C2 C3 1_555 1_555
C5 C10 1_555 1_555
C9 C10 1_555 1_555
C11 C12 1_555 1_555

#END
