
#######################################################################
#
#                 Cambridge Crystallographic Data Centre
#                                CCDC 
#
#######################################################################
#
# If this CIF has been generated from an entry in the Cambridge 
# Structural Database, then it will include bibliographic, chemical, 
# crystal, experimental, refinement or atomic coordinate data resulting 
# from the CCDC's data processing and validation procedures.
#
#######################################################################

data_BURLOR
_chemical_formula_moiety         'C30 H19 N3 O2'
_chemical_name_systematic        
'8-hexyl-7,9-dioxo-8,9-dihydro-7H-benzo[6,7]fluorantheno[1,10-efg]isoindole-5,11-dicarbonitrile unknown solvate'
_symmetry_cell_setting           monoclinic
_symmetry_space_group_name_H-M   'I 2/a'
_symmetry_Int_Tables_number      15
_space_group_name_Hall           '-I 2ya'
loop_
_symmetry_equiv_pos_site_id
_symmetry_equiv_pos_as_xyz
1 x,y,z
2 1/2-x,y,-z
3 1/2+x,1/2+y,1/2+z
4 -x,1/2+y,1/2-z
5 -x,-y,-z
6 1/2+x,-y,z
7 1/2-x,1/2-y,1/2-z
8 x,1/2-y,1/2+z
_cell_length_a                   7.2119(4)
_cell_length_b                   21.7175(15)
_cell_length_c                   31.966(2)
_cell_angle_alpha                90
_cell_angle_beta                 95.488(6)
_cell_angle_gamma                90
_cell_volume                     4983.71
_exptl_crystal_colour            white
_exptl_crystal_description       needle
_cell_formula_units_Z            8
loop_
_atom_site_label
_atom_site_type_symbol
_atom_site_fract_x
_atom_site_fract_y
_atom_site_fract_z
O1 O -0.0386(3) 0.52090(9) 0.12650(5)
O2 O 0.1079(2) 0.34980(9) 0.20557(6)
N1 N 0.2735(4) 0.35552(13) 0.39725(8)
N2 N 0.0224(3) 0.42547(10) 0.15661(6)
N3 N -0.1213(3) 0.77377(12) 0.19936(8)
C1 C 0.6077(6) 0.2632(3) 0.04376(14)
H1 H 0.5349 0.2379 0.0238
H2 H 0.7168 0.2410 0.0547
H3 H 0.6442 0.3001 0.0302
C2 C 0.1806(3) 0.45754(11) 0.21908(7)
C3 C 0.1050(3) 0.40304(12) 0.19464(7)
C4 C 0.3036(3) 0.60213(12) 0.31866(7)
C5 C -0.0392(3) 0.73105(12) 0.21071(8)
C6 C 0.0371(4) 0.37115(15) 0.08832(8)
H4 H -0.0414 0.3498 0.0667
H5 H 0.0794 0.4089 0.0761
C7 C 0.3359(3) 0.53812(12) 0.31699(8)
C8 C 0.2804(4) 0.38959(13) 0.37025(8)
C9 C 0.0670(3) 0.67713(12) 0.22532(8)
C10 C 0.3093(3) 0.51982(11) 0.27446(7)
C11 C 0.1336(3) 0.50950(12) 0.19528(7)
C12 C 0.2603(3) 0.57309(11) 0.24976(7)
C13 C -0.0793(4) 0.38754(14) 0.12394(9)
H6 H -0.1896 0.4097 0.1125
H7 H -0.1199 0.3499 0.1366
C14 C 0.0733(3) 0.62807(12) 0.19770(8)
H8 H 0.0198 0.6322 0.1702
C15 C 0.0308(3) 0.48911(12) 0.15512(7)
C16 C 0.1541(3) 0.68953(13) 0.34512(8)
H9 H 0.1263 0.7142 0.3675
C17 C 0.2926(3) 0.43482(12) 0.33735(7)
C18 C 0.3174(5) 0.31351(19) 0.06618(10)
H10 H 0.2407 0.2880 0.0465
H11 H 0.3481 0.3505 0.0513
C19 C 0.1613(3) 0.57097(12) 0.21093(8)
C20 C 0.3145(3) 0.49883(13) 0.34989(7)
C21 C 0.4936(4) 0.27966(18) 0.07907(10)
H12 H 0.4629 0.2421 0.0933
H13 H 0.5694 0.3047 0.0992
C22 C 0.2575(3) 0.62354(12) 0.27764(8)
C23 C 0.2443(3) 0.63070(13) 0.35398(8)
C24 C 0.2628(3) 0.46027(11) 0.26204(7)
C25 C 0.2040(4) 0.33154(16) 0.10134(9)
H14 H 0.2840 0.3535 0.1225
H15 H 0.1618 0.2944 0.1143
C26 C 0.2671(3) 0.41587(12) 0.29571(8)
H16 H 0.2526 0.3742 0.2895
C27 C 0.2479(4) 0.59157(14) 0.39042(8)
H17 H 0.2264 0.6091 0.4161
C28 C 0.1488(3) 0.67493(12) 0.26866(8)
C29 C 0.2818(4) 0.52936(14) 0.38887(8)
H18 H 0.2838 0.5063 0.4134
C30 C 0.1082(3) 0.71016(13) 0.30478(8)
H19 H 0.0492 0.7481 0.3007
loop_
_geom_bond_atom_site_label_1
_geom_bond_atom_site_label_2
_geom_bond_site_symmetry_1
_geom_bond_site_symmetry_2
O1 C15 1_555 1_555
O2 C3 1_555 1_555
N1 C8 1_555 1_555
N2 C3 1_555 1_555
N3 C5 1_555 1_555
C1 H1 1_555 1_555
H2 C1 1_555 1_555
H3 C1 1_555 1_555
C2 C3 1_555 1_555
C4 C7 1_555 1_555
C5 C9 1_555 1_555
C6 H4 1_555 1_555
H5 C6 1_555 1_555
C7 C10 1_555 1_555
C8 C17 1_555 1_555
C9 C14 1_555 1_555
C10 C12 1_555 1_555
C11 C2 1_555 1_555
C12 C19 1_555 1_555
C13 N2 1_555 1_555
H6 C13 1_555 1_555
H7 C13 1_555 1_555
C14 H8 1_555 1_555
C15 N2 1_555 1_555
C16 H9 1_555 1_555
C17 C20 1_555 1_555
C18 H10 1_555 1_555
H11 C18 1_555 1_555
C19 C11 1_555 1_555
C20 C7 1_555 1_555
C21 C1 1_555 1_555
H12 C21 1_555 1_555
H13 C21 1_555 1_555
C22 C4 1_555 1_555
C23 C4 1_555 1_555
C24 C2 1_555 1_555
C25 C6 1_555 1_555
H14 C25 1_555 1_555
H15 C25 1_555 1_555
C26 C17 1_555 1_555
H16 C26 1_555 1_555
C27 C23 1_555 1_555
H17 C27 1_555 1_555
C28 C9 1_555 1_555
C29 C20 1_555 1_555
H18 C29 1_555 1_555
C30 C16 1_555 1_555
H19 C30 1_555 1_555
C6 C13 1_555 1_555
C10 C24 1_555 1_555
C11 C15 1_555 1_555
C12 C22 1_555 1_555
C14 C19 1_555 1_555
C16 C23 1_555 1_555
C18 C21 1_555 1_555
C18 C25 1_555 1_555
C22 C28 1_555 1_555
C24 C26 1_555 1_555
C27 C29 1_555 1_555
C28 C30 1_555 1_555

#END
