
#######################################################################
#
#                 Cambridge Crystallographic Data Centre
#                                CCDC 
#
#######################################################################
#
# If this CIF has been generated from an entry in the Cambridge 
# Structural Database, then it will include bibliographic, chemical, 
# crystal, experimental, refinement or atomic coordinate data resulting 
# from the CCDC's data processing and validation procedures.
#
#######################################################################

data_BURLIL
_chemical_formula_moiety         'C32 H23 N3 O2'
_chemical_name_systematic        
'8-(2-ethylhexyl)-7,9-dioxo-8,9-dihydro-7H-benzo[6,7]fluorantheno[1,10-efg]isoindole-5,11-dicarbonitrile unknown solvate'
_symmetry_cell_setting           monoclinic
_symmetry_space_group_name_H-M   'C 2/c'
_symmetry_Int_Tables_number      15
_space_group_name_Hall           '-C 2yn'
loop_
_symmetry_equiv_pos_site_id
_symmetry_equiv_pos_as_xyz
1 x,y,z
2 -x,y,1/2-z
3 1/2+x,1/2+y,z
4 1/2-x,1/2+y,1/2-z
5 -x,-y,-z
6 x,-y,1/2+z
7 1/2-x,1/2-y,-z
8 1/2+x,1/2-y,1/2+z
_cell_length_a                   33.040(3)
_cell_length_b                   21.8380(18)
_cell_length_c                   7.2037(7)
_cell_angle_alpha                90
_cell_angle_beta                 95.946(9)
_cell_angle_gamma                90
_cell_volume                     5169.7
_exptl_crystal_colour            yellowish
_exptl_crystal_description       needle
_cell_formula_units_Z            8
_exptl_crystal_recrystallization_method 'vapour deposition'
loop_
_atom_site_label
_atom_site_type_symbol
_atom_site_fract_x
_atom_site_fract_y
_atom_site_fract_z
O1 O 0.29319(11) 0.64789(15) 0.6434(5)
O2 O 0.36868(11) 0.47667(16) 0.8027(5)
C1 C 0.4087(2) 0.7255(3) 0.2805(10)
H1 H 0.3873 0.7553 0.3055
H2 H 0.3960 0.6938 0.1951
N1 N 0.34080(12) 0.57251(18) 0.7318(5)
N2 N 0.10708(16) 0.6414(2) 0.4699(8)
C2 C 0.15775(16) 0.3098(2) 0.5935(7)
H3 H 0.1354 0.2851 0.6208
C3 C 0.14969(16) 0.3687(2) 0.5026(7)
C4 C 0.11589(16) 0.4697(2) 0.4607(7)
H4 H 0.0917 0.4933 0.4567
N3 N 0.29809(15) 0.2253(2) 0.8782(7)
C5 C 0.22336(15) 0.3753(2) 0.4933(6)
C6 C 0.13378(17) 0.6083(2) 0.4641(7)
C7 C 0.11414(17) 0.4081(2) 0.4961(7)
H5 H 0.0887 0.3905 0.5171
C8 C 0.40755(19) 0.6273(4) 0.7373(9)
H6 H 0.4225 0.6579 0.8217
C9 C 0.19657(16) 0.2888(2) 0.6411(7)
H7 H 0.2005 0.2502 0.7012
C10 C 0.4423(3) 0.7584(4) 0.1870(14)
H8 H 0.4317 0.7708 0.0605
H9 H 0.4654 0.7306 0.1806
H10 H 0.4512 0.7946 0.2601
C11 C 0.27333(16) 0.3217(2) 0.6879(6)
C12 C 0.23135(14) 0.3242(2) 0.6017(6)
C13 C 0.30404(14) 0.5949(2) 0.6484(6)
C14 C 0.15365(16) 0.4995(2) 0.4294(6)
C15 C 0.30005(14) 0.3707(2) 0.6834(6)
H11 H 0.3271 0.3666 0.7410
C16 C 0.3946(2) 0.6647(3) 0.5622(8)
H12 H 0.3791 0.6372 0.4717
H13 H 0.3754 0.6966 0.5969
C17 C 0.4259(2) 0.6956(5) 0.4635(11)
H14 H 0.4468 0.6653 0.4369
H15 H 0.4394 0.7274 0.5462
C18 C 0.28704(16) 0.2679(2) 0.7954(7)
C19 C 0.16551(15) 0.5639(2) 0.4518(6)
C20 C 0.18358(16) 0.3968(2) 0.4464(6)
C21 C 0.30306(15) 0.4891(2) 0.6216(6)
C22 C 0.23857(15) 0.5376(2) 0.4861(6)
C23 C 0.25002(15) 0.4257(2) 0.4909(6)
C24 C 0.27984(15) 0.5405(2) 0.5723(6)
C25 C 0.22655(15) 0.4787(2) 0.4403(6)
C26 C 0.18579(16) 0.4605(2) 0.4113(6)
C27 C 0.37107(16) 0.6111(3) 0.8414(7)
H16 H 0.3808 0.5893 0.9580
H17 H 0.3577 0.6494 0.8763
C28 C 0.34168(15) 0.5090(2) 0.7278(6)
C29 C 0.20569(16) 0.5824(2) 0.4800(6)
H18 H 0.2120 0.6246 0.4954
C30 C 0.28762(14) 0.4272(2) 0.5937(6)
C31 C 0.4368(4) 0.5812(7) 0.724(2)
H19 H 0.4574 0.5973 0.6467
H20 H 0.4231 0.5465 0.6550
C32 C 0.4592(6) 0.5557(11) 0.902(3)
H21 H 0.4829 0.5322 0.8718
H22 H 0.4410 0.5288 0.9643
H23 H 0.4683 0.5895 0.9861
H24? H 0.4144 0.5868 0.6834
C33? C 0.4472(4) 0.6423(7) 0.867(2)
H25? H 0.4694 0.6494 0.7870
H26? H 0.4428 0.6813 0.9325
C34? C 0.4619(6) 0.5935(11) 1.016(3)
H27? H 0.4721 0.5576 0.9538
H28? H 0.4392 0.5815 1.0849
H29? H 0.4838 0.6108 1.1024
loop_
_geom_bond_atom_site_label_1
_geom_bond_atom_site_label_2
_geom_bond_site_symmetry_1
_geom_bond_site_symmetry_2
O1 C13 1_555 1_555
O2 C28 1_555 1_555
C1 H1 1_555 1_555
H2 C1 1_555 1_555
N1 C13 1_555 1_555
N2 C6 1_555 1_555
C2 H3 1_555 1_555
C3 C2 1_555 1_555
C4 H4 1_555 1_555
N3 C18 1_555 1_555
C5 C12 1_555 1_555
C6 C19 1_555 1_555
C7 C3 1_555 1_555
H5 C7 1_555 1_555
C8 H6 1_555 1_555
C9 C2 1_555 1_555
H7 C9 1_555 1_555
C10 C1 1_555 1_555
H8 C10 1_555 1_555
H9 C10 1_555 1_555
H10 C10 1_555 1_555
C11 C12 1_555 1_555
C12 C9 1_555 1_555
C13 C24 1_555 1_555
C14 C4 1_555 1_555
C15 C11 1_555 1_555
H11 C15 1_555 1_555
C16 C8 1_555 1_555
H12 C16 1_555 1_555
H13 C16 1_555 1_555
C17 C1 1_555 1_555
H14 C17 1_555 1_555
H15 C17 1_555 1_555
C18 C11 1_555 1_555
C19 C14 1_555 1_555
C20 C3 1_555 1_555
C21 C24 1_555 1_555
C22 C24 1_555 1_555
C23 C5 1_555 1_555
C25 C22 1_555 1_555
C26 C14 1_555 1_555
C27 N1 1_555 1_555
H16 C27 1_555 1_555
H17 C27 1_555 1_555
C28 N1 1_555 1_555
C29 C19 1_555 1_555
H18 C29 1_555 1_555
C30 C15 1_555 1_555
C31 C8 1_555 1_555
H19 C31 1_555 1_555
H20 C31 1_555 1_555
C32 C31 1_555 1_555
H21 C32 1_555 1_555
H22 C32 1_555 1_555
H23 C32 1_555 1_555
C4 C7 1_555 1_555
C5 C20 1_555 1_555
C8 C27 1_555 1_555
C16 C17 1_555 1_555
C20 C26 1_555 1_555
C21 C28 1_555 1_555
C21 C30 1_555 1_555
C22 C29 1_555 1_555
C23 C25 1_555 1_555
C23 C30 1_555 1_555
C25 C26 1_555 1_555

#END
