
#######################################################################
#
#                 Cambridge Crystallographic Data Centre
#                                CCDC 
#
#######################################################################
#
# If this CIF has been generated from an entry in the Cambridge 
# Structural Database, then it will include bibliographic, chemical, 
# crystal, experimental, refinement or atomic coordinate data resulting 
# from the CCDC's data processing and validation procedures.
#
#######################################################################

data_BURLAB
_chemical_compound_source        'Piqueria trinervia Cav'
_chemical_formula_moiety         'C10 H14 O2'
_chemical_name_systematic        'Piquerol A'
_chemical_properties_biological  
'growth inhibiting factor; insecticidal activity'
_symmetry_cell_setting           orthorhombic
_symmetry_space_group_name_H-M   'P 21 21 21'
_symmetry_Int_Tables_number      19
_space_group_name_Hall           'P 2ac 2ab'
loop_
_symmetry_equiv_pos_site_id
_symmetry_equiv_pos_as_xyz
1 x,y,z
2 1/2+x,1/2-y,-z
3 -x,1/2+y,1/2-z
4 1/2-x,-y,1/2+z
_cell_length_a                   6.859(2)
_cell_length_b                   9.232(3)
_cell_length_c                   14.851(6)
_cell_angle_alpha                90
_cell_angle_beta                 90
_cell_angle_gamma                90
_cell_volume                     940.399
_cell_formula_units_Z            4
loop_
_atom_site_label
_atom_site_type_symbol
_atom_site_fract_x
_atom_site_fract_y
_atom_site_fract_z
O1 O 0.54030 1.13850 1.02730
O2 O -0.10920 1.09030 0.95000
C1 C 0.41020 1.02010 1.01890
C2 C 0.26210 1.03520 1.09220
C3 C 0.07570 1.01500 1.08030
C4 C -0.01140 0.97090 0.99180
C5 C 0.14390 0.90190 0.93250
C6 C 0.31310 1.00620 0.92850
C7 C 0.36210 1.08250 0.85840
C8 C 0.07690 0.83900 0.84320
C9 C 0.21800 0.73660 0.80100
C10 C -0.09330 0.86450 0.80660
H1 H 0.48370 0.93220 1.02480
H2 H 0.30710 1.06210 1.15110
H3 H -0.00940 1.02810 1.13100
H4 H -0.11060 0.89930 1.00180
H5 H 0.18690 0.81310 0.95960
H6 H 0.47440 1.14420 0.85810
H7 H 0.28980 1.08490 0.80180
H8 H 0.33320 0.73270 0.82760
H9 H 0.25160 0.76940 0.74170
H10 H 0.16110 0.64170 0.79730
H11 H -0.19390 0.92000 0.83350
H12 H -0.10880 0.83030 0.76420
H13 H 0.64590 1.12200 1.00080
H14 H -0.04740 1.18060 0.95400
loop_
_geom_bond_atom_site_label_1
_geom_bond_atom_site_label_2
_geom_bond_site_symmetry_1
_geom_bond_site_symmetry_2
O1 C1 1_555 1_555
O2 C4 1_555 1_555
C1 C2 1_555 1_555
C2 C3 1_555 1_555
C3 C4 1_555 1_555
C4 C5 1_555 1_555
C5 C6 1_555 1_555
C6 C1 1_555 1_555
C7 C6 1_555 1_555
C8 C5 1_555 1_555
C9 C8 1_555 1_555
C10 C8 1_555 1_555
H1 C1 1_555 1_555
H2 C2 1_555 1_555
H3 C3 1_555 1_555
H4 C4 1_555 1_555
H5 C5 1_555 1_555
H6 C7 1_555 1_555
H7 C7 1_555 1_555
H8 C9 1_555 1_555
H9 C9 1_555 1_555
H10 C9 1_555 1_555
H11 C10 1_555 1_555
H12 C10 1_555 1_555
H13 O1 1_555 1_555
H14 O2 1_555 1_555

#END
