
#######################################################################
#
#                 Cambridge Crystallographic Data Centre
#                                CCDC 
#
#######################################################################
#
# If this CIF has been generated from an entry in the Cambridge 
# Structural Database, then it will include bibliographic, chemical, 
# crystal, experimental, refinement or atomic coordinate data resulting 
# from the CCDC's data processing and validation procedures.
#
#######################################################################

data_BURMOS
_chemical_formula_moiety         'C16 H10 N2'
_chemical_name_systematic        4-phenylquinoline-3-carbonitrile
_symmetry_cell_setting           monoclinic
_symmetry_space_group_name_H-M   'P 21/n'
_symmetry_Int_Tables_number      14
_space_group_name_Hall           '-P 2yn'
loop_
_symmetry_equiv_pos_site_id
_symmetry_equiv_pos_as_xyz
1 x,y,z
2 1/2-x,1/2+y,1/2-z
3 -x,-y,-z
4 1/2+x,1/2-y,1/2+z
_cell_length_a                   11.4760(11)
_cell_length_b                   6.7685(5)
_cell_length_c                   15.8831(16)
_cell_angle_alpha                90
_cell_angle_beta                 106.572(10)
_cell_angle_gamma                90
_cell_volume                     1182.48
_exptl_crystal_colour            colorless
_exptl_crystal_description       parallelepiped
_cell_formula_units_Z            4
loop_
_atom_site_label
_atom_site_type_symbol
_atom_site_fract_x
_atom_site_fract_y
_atom_site_fract_z
N1 N 0.33179(13) 0.17539(18) 0.30142(11)
N2 N -0.00196(15) 0.2016(3) 0.42297(12)
C1 C 0.28201(16) 0.1769(2) 0.21247(13)
C2 C 0.36101(18) 0.1716(2) 0.15887(16)
H1 H 0.4446 0.1692 0.1848
C3 C 0.3171(2) 0.1699(3) 0.07035(17)
H2 H 0.3706 0.1681 0.0361
C4 C 0.1914(2) 0.1707(3) 0.02993(14)
H3 H 0.1621 0.1672 -0.0310
C5 C 0.11183(18) 0.1767(2) 0.07914(13)
H4 H 0.0287 0.1776 0.0514
C6 C 0.15417(15) 0.1815(2) 0.17184(12)
C7 C 0.07586(15) 0.1868(2) 0.22664(11)
C8 C 0.12890(15) 0.1817(2) 0.31580(12)
C9 C 0.25718(16) 0.1765(2) 0.35001(13)
H5 H 0.2902 0.1737 0.4107
C10 C -0.05838(15) 0.1973(2) 0.18946(11)
C11 C -0.11272(18) 0.3608(3) 0.14198(13)
H6 H -0.0651 0.4649 0.1325
C12 C -0.23721(19) 0.3694(3) 0.10872(14)
H7 H -0.2734 0.4800 0.0772
C13 C -0.30804(19) 0.2169(4) 0.12172(14)
H8 H -0.3920 0.2230 0.0982
C14 C -0.25582(19) 0.0555(4) 0.16923(14)
H9 H -0.3043 -0.0475 0.1786
C15 C -0.13120(17) 0.0449(3) 0.20336(13)
H10 H -0.0959 -0.0650 0.2359
C16 C 0.05592(16) 0.1916(2) 0.37580(12)
loop_
_geom_bond_atom_site_label_1
_geom_bond_atom_site_label_2
_geom_bond_site_symmetry_1
_geom_bond_site_symmetry_2
N1 C1 1_555 1_555
N2 C16 1_555 1_555
C1 C2 1_555 1_555
C2 H1 1_555 1_555
C3 C2 1_555 1_555
H2 C3 1_555 1_555
C4 C3 1_555 1_555
H3 C4 1_555 1_555
C5 C4 1_555 1_555
H4 C5 1_555 1_555
C6 C1 1_555 1_555
C7 C6 1_555 1_555
C8 C7 1_555 1_555
C9 N1 1_555 1_555
H5 C9 1_555 1_555
C10 C7 1_555 1_555
C11 C10 1_555 1_555
H6 C11 1_555 1_555
C12 C11 1_555 1_555
H7 C12 1_555 1_555
C13 C12 1_555 1_555
H8 C13 1_555 1_555
C14 C13 1_555 1_555
H9 C14 1_555 1_555
C15 C10 1_555 1_555
H10 C15 1_555 1_555
C16 C8 1_555 1_555
C5 C6 1_555 1_555
C8 C9 1_555 1_555
C14 C15 1_555 1_555

#END
