
#######################################################################
#
#                 Cambridge Crystallographic Data Centre
#                                CCDC 
#
#######################################################################
#
# If this CIF has been generated from an entry in the Cambridge 
# Structural Database, then it will include bibliographic, chemical, 
# crystal, experimental, refinement or atomic coordinate data resulting 
# from the CCDC's data processing and validation procedures.
#
#######################################################################

data_BURMUY
_chemical_formula_moiety         'C24 H16 N2 O1'
_chemical_name_systematic        
4-(4-benzoyl-5-phenyl-1H-pyrrol-2-yl)benzonitrile
_symmetry_cell_setting           monoclinic
_symmetry_space_group_name_H-M   'P 21/c'
_symmetry_Int_Tables_number      14
_space_group_name_Hall           '-P 2ybc'
loop_
_symmetry_equiv_pos_site_id
_symmetry_equiv_pos_as_xyz
1 x,y,z
2 -x,1/2+y,1/2-z
3 -x,-y,-z
4 x,1/2-y,1/2+z
_cell_length_a                   13.1944(9)
_cell_length_b                   9.7945(10)
_cell_length_c                   14.6162(10)
_cell_angle_alpha                90
_cell_angle_beta                 100.206(7)
_cell_angle_gamma                90
_cell_volume                     1859
_exptl_crystal_colour            yellow
_exptl_crystal_description       parallelepiped
_cell_formula_units_Z            4
loop_
_atom_site_label
_atom_site_type_symbol
_atom_site_fract_x
_atom_site_fract_y
_atom_site_fract_z
O1 O 0.56370(11) 0.21187(17) 0.23191(9)
N1 N 0.53672(13) 0.2516(2) 0.53311(12)
H1 H 0.5471(15) 0.261(2) 0.5973(16)
N2 N 0.04695(16) -0.0784(3) 0.65426(18)
C1 C 0.60267(15) 0.2991(2) 0.47889(13)
C2 C 0.56043(15) 0.2627(2) 0.38701(13)
C3 C 0.46747(15) 0.1926(2) 0.39048(13)
H2 H 0.4233 0.1565 0.3396
C4 C 0.45314(15) 0.1864(2) 0.48066(13)
C5 C 0.69679(15) 0.3720(2) 0.52189(13)
C6 C 0.69009(18) 0.4838(3) 0.57801(14)
H3 H 0.6262 0.5119 0.5895
C7 C 0.7776(2) 0.5542(3) 0.61713(17)
H4 H 0.7725 0.6297 0.6546
C8 C 0.8724(2) 0.5131(4) 0.6009(2)
H5 H 0.9312 0.5612 0.6269
C9 C 0.88026(19) 0.4016(3) 0.5464(2)
H6 H 0.9445 0.3733 0.5359
C10 C 0.79279(17) 0.3309(3) 0.50689(15)
H7 H 0.7985 0.2550 0.4699
C11 C 0.60016(15) 0.2819(2) 0.30080(13)
C12 C 0.68370(16) 0.3806(2) 0.29402(13)
C13 C 0.68508(17) 0.5113(2) 0.33072(14)
H8 H 0.6316 0.5405 0.3597
C14 C 0.7659(2) 0.5980(3) 0.32424(17)
H9 H 0.7663 0.6859 0.3483
C15 C 0.84597(19) 0.5554(3) 0.28238(18)
H10 H 0.9011 0.6135 0.2798
C16 C 0.84440(18) 0.4274(3) 0.24452(18)
H11 H 0.8982 0.3989 0.2157
C17 C 0.76317(17) 0.3406(3) 0.24904(14)
H12 H 0.7616 0.2547 0.2218
C18 C 0.36911(15) 0.1271(2) 0.52042(14)
C19 C 0.27424(17) 0.1037(3) 0.46397(16)
H13 H 0.2662 0.1237 0.4009
C20 C 0.19253(17) 0.0521(3) 0.49866(17)
H14 H 0.1297 0.0382 0.4595
C21 C 0.20333(16) 0.0204(2) 0.59233(16)
C22 C 0.29710(16) 0.0384(2) 0.64883(15)
H15 H 0.3055 0.0148 0.7113
C23 C 0.37905(16) 0.0914(2) 0.61346(14)
H16 H 0.4421 0.1034 0.6527
C24 C 0.11664(18) -0.0343(3) 0.62810(17)
loop_
_geom_bond_atom_site_label_1
_geom_bond_atom_site_label_2
_geom_bond_site_symmetry_1
_geom_bond_site_symmetry_2
O1 C11 1_555 1_555
N1 H1 1_555 1_555
N2 C24 1_555 1_555
C1 N1 1_555 1_555
C2 C1 1_555 1_555
C3 C2 1_555 1_555
H2 C3 1_555 1_555
C4 N1 1_555 1_555
C5 C1 1_555 1_555
C6 C5 1_555 1_555
H3 C6 1_555 1_555
C7 C6 1_555 1_555
H4 C7 1_555 1_555
C8 C7 1_555 1_555
H5 C8 1_555 1_555
C9 C8 1_555 1_555
H6 C9 1_555 1_555
C10 C5 1_555 1_555
H7 C10 1_555 1_555
C11 C2 1_555 1_555
C12 C11 1_555 1_555
C13 C12 1_555 1_555
H8 C13 1_555 1_555
C14 C13 1_555 1_555
H9 C14 1_555 1_555
C15 C14 1_555 1_555
H10 C15 1_555 1_555
C16 C15 1_555 1_555
H11 C16 1_555 1_555
C17 C12 1_555 1_555
H12 C17 1_555 1_555
C18 C4 1_555 1_555
C19 C18 1_555 1_555
H13 C19 1_555 1_555
C20 C19 1_555 1_555
H14 C20 1_555 1_555
C21 C20 1_555 1_555
C22 C21 1_555 1_555
H15 C22 1_555 1_555
C23 C18 1_555 1_555
H16 C23 1_555 1_555
C24 C21 1_555 1_555
C3 C4 1_555 1_555
C9 C10 1_555 1_555
C16 C17 1_555 1_555
C22 C23 1_555 1_555

#END
