
#######################################################################
#
#                 Cambridge Crystallographic Data Centre
#                                CCDC 
#
#######################################################################
#
# If this CIF has been generated from an entry in the Cambridge 
# Structural Database, then it will include bibliographic, chemical, 
# crystal, experimental, refinement or atomic coordinate data resulting 
# from the CCDC's data processing and validation procedures.
#
#######################################################################

data_BURMEI
_chemical_formula_moiety         'C22 H14 N2'
_chemical_name_systematic        4-(4-phenylquinolin-3-yl)benzonitrile
_symmetry_cell_setting           triclinic
_symmetry_space_group_name_H-M   'P -1'
_symmetry_Int_Tables_number      2
_space_group_name_Hall           '-P 1'
loop_
_symmetry_equiv_pos_site_id
_symmetry_equiv_pos_as_xyz
1 x,y,z
2 -x,-y,-z
_cell_length_a                   5.8666(5)
_cell_length_b                   11.4535(10)
_cell_length_c                   12.2113(12)
_cell_angle_alpha                83.981(8)
_cell_angle_beta                 81.526(8)
_cell_angle_gamma                76.578(8)
_cell_volume                     787.26
_exptl_crystal_colour            brown
_exptl_crystal_description       parallelepiped
_cell_formula_units_Z            2
loop_
_atom_site_label
_atom_site_type_symbol
_atom_site_fract_x
_atom_site_fract_y
_atom_site_fract_z
N1 N 0.7683(3) 1.00540(14) 0.90902(12)
N2 N 1.9672(3) 0.36880(15) 0.90783(14)
C1 C 0.6349(3) 1.02861(15) 0.82284(14)
C2 C 0.4276(3) 1.12179(16) 0.83235(15)
H1 H 0.3918 1.1690 0.8947
C3 C 0.2793(3) 1.14414(17) 0.75272(15)
H2 H 0.1387 1.2052 0.7607
C4 C 0.3348(3) 1.07649(16) 0.65853(15)
H3 H 0.2311 1.0923 0.6033
C5 C 0.5367(3) 0.98827(15) 0.64613(14)
H4 H 0.5740 0.9455 0.5809
C6 C 0.6917(3) 0.95928(15) 0.72875(14)
C7 C 0.8958(3) 0.86229(15) 0.72330(14)
C8 C 1.0267(3) 0.83816(15) 0.81200(14)
C9 C 0.9522(3) 0.91412(16) 0.90190(15)
H5 H 1.0436 0.8973 0.9621
C10 C 0.9588(3) 0.79096(14) 0.62273(14)
C11 C 0.8149(3) 0.71731(15) 0.60010(15)
H6 H 0.6754 0.7118 0.6490
C12 C 0.8748(3) 0.65209(15) 0.50639(15)
H7 H 0.7770 0.6014 0.4920
C13 C 1.0766(3) 0.66044(16) 0.43360(15)
H8 H 1.1175 0.6153 0.3698
C14 C 1.2177(3) 0.73468(17) 0.45440(16)
H9 H 1.3549 0.7415 0.4043
C15 C 1.1596(3) 0.79954(16) 0.54852(15)
H10 H 1.2579 0.8502 0.5623
C16 C 1.2355(3) 0.73684(15) 0.82474(14)
C17 C 1.2483(3) 0.62129(16) 0.79140(15)
H11 H 1.1268 0.6083 0.7537
C18 C 1.4343(3) 0.52641(16) 0.81244(14)
H12 H 1.4397 0.4490 0.7895
C19 C 1.6138(3) 0.54445(16) 0.86725(14)
C20 C 1.6055(3) 0.65809(16) 0.90120(14)
H13 H 1.7276 0.6705 0.9388
C21 C 1.4185(3) 0.75276(16) 0.87990(14)
H14 H 1.4141 0.8300 0.9031
C22 C 1.8100(3) 0.44593(17) 0.88995(15)
loop_
_geom_bond_atom_site_label_1
_geom_bond_atom_site_label_2
_geom_bond_site_symmetry_1
_geom_bond_site_symmetry_2
N1 C1 1_555 1_555
N2 C22 1_555 1_555
C1 C2 1_555 1_555
C2 H1 1_555 1_555
C3 C2 1_555 1_555
H2 C3 1_555 1_555
C4 C3 1_555 1_555
H3 C4 1_555 1_555
C5 C4 1_555 1_555
H4 C5 1_555 1_555
C6 C1 1_555 1_555
C7 C6 1_555 1_555
C8 C7 1_555 1_555
C9 N1 1_555 1_555
H5 C9 1_555 1_555
C10 C7 1_555 1_555
C11 C10 1_555 1_555
H6 C11 1_555 1_555
C12 C11 1_555 1_555
H7 C12 1_555 1_555
C13 C12 1_555 1_555
H8 C13 1_555 1_555
C14 C13 1_555 1_555
H9 C14 1_555 1_555
C15 C10 1_555 1_555
H10 C15 1_555 1_555
C16 C8 1_555 1_555
C17 C16 1_555 1_555
H11 C17 1_555 1_555
C18 C17 1_555 1_555
H12 C18 1_555 1_555
C19 C18 1_555 1_555
C20 C19 1_555 1_555
H13 C20 1_555 1_555
C21 C16 1_555 1_555
H14 C21 1_555 1_555
C22 C19 1_555 1_555
C5 C6 1_555 1_555
C8 C9 1_555 1_555
C14 C15 1_555 1_555
C20 C21 1_555 1_555

#END
