
#######################################################################
#
#                 Cambridge Crystallographic Data Centre
#                                CCDC 
#
#######################################################################
#
# If this CIF has been generated from an entry in the Cambridge 
# Structural Database, then it will include bibliographic, chemical, 
# crystal, experimental, refinement or atomic coordinate data resulting 
# from the CCDC's data processing and validation procedures.
#
#######################################################################

data_BUSFOK
_chemical_formula_moiety         'C17 H16 O2 S2'
_chemical_name_systematic        
'1,10-Dithia(2.2)metacyclophane-4-carboxylic acid ethyl ester'
_symmetry_cell_setting           monoclinic
_symmetry_space_group_name_H-M   'P 21/c'
_symmetry_Int_Tables_number      14
_space_group_name_Hall           '-P 2ybc'
loop_
_symmetry_equiv_pos_site_id
_symmetry_equiv_pos_as_xyz
1 x,y,z
2 -x,1/2+y,1/2-z
3 -x,-y,-z
4 x,1/2-y,1/2+z
_cell_length_a                   8.907(2)
_cell_length_b                   4.873(2)
_cell_length_c                   35.577(9)
_cell_angle_alpha                90
_cell_angle_beta                 90.91(2)
_cell_angle_gamma                90
_cell_volume                     1543.98
_exptl_crystal_colour            colorless
_chemical_melting_point          126-7deg.C
_cell_formula_units_Z            4
loop_
_atom_site_label
_atom_site_type_symbol
_atom_site_fract_x
_atom_site_fract_y
_atom_site_fract_z
S1 S 0.78180 0.25030 0.26680
S2 S 0.58660 0.01880 0.40520
O1 O 0.90900 -0.18630 0.45490
O2 O 1.13680 -0.26790 0.43440
C1 C 0.92480 0.44430 0.29380
C2 C 0.74360 0.24420 0.41960
C3 C 1.00290 -0.15270 0.43220
C4 C 1.16250 -0.43370 0.46770
C5 C 1.31520 -0.49300 0.47290
C6 C 0.63100 0.26820 0.29900
C7 C 0.52260 0.47110 0.29460
C8 C 0.42120 0.50810 0.32320
C9 C 0.43360 0.36680 0.35590
C10 C 0.54400 0.16580 0.36080
C11 C 0.63470 0.11070 0.33050
C12 C 0.96100 0.32410 0.33050
C13 C 1.07300 0.12540 0.33490
C14 C 1.08660 -0.01420 0.36850
C15 C 0.98680 0.02130 0.39780
C16 C 0.87270 0.21750 0.39360
C17 C 0.87180 0.37700 0.36120
H1 H 0.89800 0.59800 0.29600
H2 H 1.01100 0.45800 0.27700
H3 H 0.77100 0.18600 0.44300
H4 H 0.69000 0.44400 0.41700
H5 H 1.10100 -0.62300 0.46500
H6 H 1.12300 -0.32300 0.49200
H7 H 1.34300 -0.61000 0.49800
H8 H 1.38800 -0.31700 0.47100
H9 H 1.33000 -0.61900 0.44800
H10 H 0.51900 0.59400 0.27200
H11 H 0.35100 0.63400 0.32000
H12 H 0.39500 0.41000 0.38100
H13 H 0.72100 -0.02200 0.33500
H14 H 1.12400 0.08000 0.31000
H15 H 1.15500 -0.12800 0.36900
H16 H 0.79000 0.49800 0.35600
loop_
_geom_bond_atom_site_label_1
_geom_bond_atom_site_label_2
_geom_bond_site_symmetry_1
_geom_bond_site_symmetry_2
S1 C1 1_555 1_555
S2 C2 1_555 1_555
O1 C3 1_555 1_555
O2 C3 1_555 1_555
C1 C12 1_555 1_555
C2 C16 1_555 1_555
C3 C15 1_555 1_555
C4 O2 1_555 1_555
C5 C4 1_555 1_555
C6 S1 1_555 1_555
C7 C6 1_555 1_555
C8 C7 1_555 1_555
C9 C8 1_555 1_555
C10 S2 1_555 1_555
C11 C6 1_555 1_555
C12 C13 1_555 1_555
C13 C14 1_555 1_555
C14 C15 1_555 1_555
C15 C16 1_555 1_555
C16 C17 1_555 1_555
C17 C12 1_555 1_555
H1 C1 1_555 1_555
H2 C1 1_555 1_555
H3 C2 1_555 1_555
H4 C2 1_555 1_555
H5 C4 1_555 1_555
H6 C4 1_555 1_555
H7 C5 1_555 1_555
H8 C5 1_555 1_555
H9 C5 1_555 1_555
H10 C7 1_555 1_555
H11 C8 1_555 1_555
H12 C9 1_555 1_555
H13 C11 1_555 1_555
H14 C13 1_555 1_555
H15 C14 1_555 1_555
H16 C17 1_555 1_555
C9 C10 1_555 1_555
C10 C11 1_555 1_555

#END
