
#######################################################################
#
#                 Cambridge Crystallographic Data Centre
#                                CCDC 
#
#######################################################################
#
# If this CIF has been generated from an entry in the Cambridge 
# Structural Database, then it will include bibliographic, chemical, 
# crystal, experimental, refinement or atomic coordinate data resulting 
# from the CCDC's data processing and validation procedures.
#
#######################################################################

data_BUSQIR
_chemical_formula_moiety         'C32 H26 Cl1 N3 O5'
_chemical_name_systematic        
'dimethyl 4-(3-chlorophenyl)-5,5-dicyano-1-(4-methoxyphenyl)-6-(2-phenylvinyl)-1,4,5,6-tetrahydropyridine-2,3-dicarboxylate unknown solvate'
_symmetry_cell_setting           triclinic
_symmetry_space_group_name_H-M   'P -1'
_symmetry_Int_Tables_number      2
_space_group_name_Hall           '-P 1'
loop_
_symmetry_equiv_pos_site_id
_symmetry_equiv_pos_as_xyz
1 x,y,z
2 -x,-y,-z
_cell_length_a                   10.5756(11)
_cell_length_b                   12.3932(13)
_cell_length_c                   13.5713(15)
_cell_angle_alpha                101.622(3)
_cell_angle_beta                 107.757(3)
_cell_angle_gamma                98.288(3)
_cell_volume                     1618.46
_exptl_crystal_colour            colorless
_exptl_crystal_description       block
_cell_formula_units_Z            2
loop_
_atom_site_label
_atom_site_type_symbol
_atom_site_fract_x
_atom_site_fract_y
_atom_site_fract_z
C1 C 0.2818(3) 0.5272(2) 0.5848(3)
H1 H 0.3598 0.5661 0.5784
C2 C 0.2398(4) 0.4109(3) 0.5424(3)
H2 H 0.2899 0.3725 0.5076
C3 C 0.1276(4) 0.3535(3) 0.5512(3)
H3 H 0.1011 0.2756 0.5227
C4 C 0.0528(3) 0.4075(2) 0.6007(2)
H4 H -0.0250 0.3669 0.6059
C5 C 0.0924(3) 0.5242(2) 0.6442(2)
H5 H 0.0411 0.5614 0.6786
C6 C 0.2086(2) 0.58505(19) 0.63614(18)
C7 C 0.2548(2) 0.70781(18) 0.67964(16)
H6 H 0.3408 0.7390 0.6808
C8 C 0.1900(2) 0.77874(17) 0.71694(15)
H7 H 0.1035 0.7516 0.7174
C9 C 0.25124(19) 0.90184(16) 0.75869(14)
H8 H 0.3440 0.9136 0.7567
C10 C 0.21941(18) 0.87631(16) 0.92973(14)
C11 C 0.29032(19) 0.79518(17) 0.95790(15)
H9 H 0.3661 0.7876 0.9382
C12 C 0.2494(2) 0.72603(19) 1.01464(18)
H10 H 0.2962 0.6706 1.0321
C13 C 0.1367(2) 0.7389(2) 1.04639(19)
C14 C -0.0086(5) 0.6768(5) 1.1352(5)
H11 H 0.0089 0.7485 1.1855
H12 H -0.0267 0.6172 1.1680
H13 H -0.0861 0.6707 1.0732
C15 C 0.0670(2) 0.8189(2) 1.0195(2)
H14 H -0.0075 0.8276 1.0406
C16 C 0.1075(2) 0.88743(19) 0.96038(16)
H15 H 0.0589 0.9413 0.9412
C17 C 0.29581(17) 1.06297(16) 0.90944(13)
C18 C 0.33567(18) 1.10100(16) 1.03026(14)
C19 C 0.2742(3) 1.1847(3) 1.17384(19)
H16 H 0.2748 1.1204 1.2033
H17 H 0.2061 1.2227 1.1878
H18 H 0.3619 1.2355 1.2064
C20 C 0.29974(18) 1.13687(16) 0.84845(14)
C21 C 0.3490(2) 1.25753(17) 0.89941(15)
C22 C 0.3553(3) 1.4389(2) 0.8671(2)
H19 H 0.3257 1.4631 0.9265
H20 H 0.3156 1.4733 0.8112
H21 H 0.4527 1.4609 0.8902
C23 C 0.5030(2) 1.09260(18) 0.74407(17)
H22 H 0.5160 1.0742 0.8090
C24 C 0.6083(2) 1.1023(2) 0.7043(2)
H23 H 0.6911 1.0881 0.7417
C25 C 0.5923(3) 1.1328(2) 0.6099(2)
H24 H 0.6638 1.1400 0.5836
C26 C 0.4698(3) 1.15233(18) 0.55549(17)
C27 C 0.3613(2) 1.14120(17) 0.59186(15)
H25 H 0.2783 1.1542 0.5531
C28 C 0.37788(19) 1.11027(15) 0.68741(14)
C29 C 0.25736(18) 1.09843(16) 0.72768(13)
H26 H 0.1979 1.1462 0.6976
C30 C 0.17193(19) 0.97503(16) 0.68926(14)
C31 C 0.0401(2) 0.9734(2) 0.70518(16)
C32 C 0.1451(2) 0.92631(18) 0.57461(16)
Cl1 Cl 0.44841(9) 1.19491(7) 0.43756(5)
N1 N 0.26061(15) 0.94843(13) 0.86934(11)
N2 N -0.0611(2) 0.9718(2) 0.71874(19)
N3 N 0.1219(2) 0.88741(19) 0.48534(16)
O1 O 0.1056(2) 0.6678(2) 1.10450(19)
O2 O 0.43764(14) 1.08659(13) 1.09047(11)
O3 O 0.24383(14) 1.14745(13) 1.05925(10)
O4 O 0.41305(17) 1.30033(13) 0.99266(11)
O5 O 0.31321(17) 1.31814(12) 0.82732(12)
loop_
_geom_bond_atom_site_label_1
_geom_bond_atom_site_label_2
_geom_bond_site_symmetry_1
_geom_bond_site_symmetry_2
C1 H1 1_555 1_555
C2 C1 1_555 1_555
H2 C2 1_555 1_555
C3 C2 1_555 1_555
H3 C3 1_555 1_555
C4 C3 1_555 1_555
H4 C4 1_555 1_555
C5 C4 1_555 1_555
H5 C5 1_555 1_555
C6 C1 1_555 1_555
C7 C6 1_555 1_555
H6 C7 1_555 1_555
C8 C7 1_555 1_555
H7 C8 1_555 1_555
C9 C8 1_555 1_555
H8 C9 1_555 1_555
C10 C11 1_555 1_555
C11 H9 1_555 1_555
C12 C11 1_555 1_555
H10 C12 1_555 1_555
C13 C12 1_555 1_555
C14 H11 1_555 1_555
H12 C14 1_555 1_555
H13 C14 1_555 1_555
C15 C13 1_555 1_555
H14 C15 1_555 1_555
C16 C10 1_555 1_555
H15 C16 1_555 1_555
C17 C18 1_555 1_555
C18 O2 1_555 1_555
C19 H16 1_555 1_555
H17 C19 1_555 1_555
H18 C19 1_555 1_555
C20 C17 1_555 1_555
C21 C20 1_555 1_555
C22 H19 1_555 1_555
H20 C22 1_555 1_555
H21 C22 1_555 1_555
C23 H22 1_555 1_555
C24 C23 1_555 1_555
H23 C24 1_555 1_555
C25 C24 1_555 1_555
H24 C25 1_555 1_555
C26 C25 1_555 1_555
C27 C26 1_555 1_555
H25 C27 1_555 1_555
C28 C23 1_555 1_555
C29 C20 1_555 1_555
H26 C29 1_555 1_555
C30 C9 1_555 1_555
C31 C30 1_555 1_555
C32 C30 1_555 1_555
Cl1 C26 1_555 1_555
N1 C9 1_555 1_555
N2 C31 1_555 1_555
N3 C32 1_555 1_555
O1 C13 1_555 1_555
O3 C18 1_555 1_555
O4 C21 1_555 1_555
O5 C21 1_555 1_555
C5 C6 1_555 1_555
C10 N1 1_555 1_555
C14 O1 1_555 1_555
C15 C16 1_555 1_555
C17 N1 1_555 1_555
C19 O3 1_555 1_555
C22 O5 1_555 1_555
C27 C28 1_555 1_555
C28 C29 1_555 1_555
C29 C30 1_555 1_555

#END
