
#######################################################################
#
#                 Cambridge Crystallographic Data Centre
#                                CCDC 
#
#######################################################################
#
# If this CIF has been generated from an entry in the Cambridge 
# Structural Database, then it will include bibliographic, chemical, 
# crystal, experimental, refinement or atomic coordinate data resulting 
# from the CCDC's data processing and validation procedures.
#
#######################################################################

data_BUSQUD
_chemical_formula_moiety         'C34 H31 Cl1 N2 O6'
_chemical_name_systematic        
'5-ethyl 2,3-dimethyl 4-(3-chlorophenyl)-5-cyano-1-(4-methylphenyl)-6-(2-phenylvinyl)-1,4,5,6-tetrahydropyridine-2,3,5-tricarboxylate'
_symmetry_cell_setting           triclinic
_symmetry_space_group_name_H-M   'P -1'
_symmetry_Int_Tables_number      2
_space_group_name_Hall           '-P 1'
loop_
_symmetry_equiv_pos_site_id
_symmetry_equiv_pos_as_xyz
1 x,y,z
2 -x,-y,-z
_cell_length_a                   11.1328(16)
_cell_length_b                   11.6441(16)
_cell_length_c                   13.0345(16)
_cell_angle_alpha                91.288(4)
_cell_angle_beta                 90.728(3)
_cell_angle_gamma                112.038(4)
_cell_volume                     1565.42
_exptl_crystal_colour            colorless
_exptl_crystal_description       block
_cell_formula_units_Z            2
loop_
_atom_site_label
_atom_site_type_symbol
_atom_site_fract_x
_atom_site_fract_y
_atom_site_fract_z
C1 C 0.5223(2) 0.4790(3) 0.79408(19)
H1 H 0.5197 0.4150 0.7491
C2 C 0.4291(3) 0.5299(3) 0.7859(2)
H2 H 0.3631 0.4983 0.7365
C3 C 0.4324(3) 0.6265(3) 0.8497(2)
H3 H 0.3692 0.6604 0.8437
C4 C 0.5300(3) 0.6724(3) 0.9226(2)
H4 H 0.5341 0.7391 0.9651
C5 C 0.6216(3) 0.6205(3) 0.9329(2)
H5 H 0.6859 0.6513 0.9837
C6 C 0.6200(2) 0.5228(2) 0.86899(17)
C7 C 0.7172(2) 0.4678(2) 0.88551(18)
H6 H 0.7634 0.4887 0.9476
C8 C 0.7471(2) 0.3926(2) 0.82329(17)
H7 H 0.7065 0.3727 0.7589
C9 C 0.8444(2) 0.3377(2) 0.85252(16)
H8 H 0.8646 0.3550 0.9260
C10 C 0.7646(2) 0.1242(2) 0.92200(16)
C11 C 0.8220(3) 0.0388(2) 0.93358(18)
H9 H 0.8813 0.0334 0.8860
C12 C 0.7910(3) -0.0384(2) 1.0158(2)
H10 H 0.8286 -0.0971 1.0222
C13 C 0.7056(3) -0.0309(2) 1.08887(18)
C14 C 0.6706(4) -0.1176(3) 1.1781(2)
H11 H 0.6636 -0.1988 1.1550
H12 H 0.5893 -0.1219 1.2050
H13 H 0.7368 -0.0872 1.2308
C15 C 0.6522(3) 0.0571(3) 1.07709(19)
H14 H 0.5955 0.0649 1.1261
C16 C 0.6804(2) 0.1339(2) 0.99472(18)
H15 H 0.6425 0.1923 0.9883
C17 C 0.7845(2) 0.1579(2) 0.73662(16)
C18 C 0.6900(3) 0.0253(2) 0.72153(17)
C19 C 0.6675(4) -0.1764(3) 0.6732(3)
H16 H 0.6262 -0.2110 0.7357
H17 H 0.7186 -0.2218 0.6494
H18 H 0.6027 -0.1817 0.6221
C20 C 0.8473(2) 0.2290(2) 0.65804(16)
C21 C 0.8148(2) 0.1920(2) 0.54989(18)
C22 C 0.6679(3) 0.0511(3) 0.4307(2)
H19 H 0.6520 0.1145 0.3937
H20 H 0.5909 -0.0228 0.4293
H21 H 0.7371 0.0337 0.3994
C23 C 0.9507(2) 0.3569(2) 0.67616(16)
H22 H 0.9186 0.4165 0.6458
C24 C 1.0773(2) 0.3708(2) 0.62352(16)
C25 C 1.1229(3) 0.2753(2) 0.6217(2)
H23 H 1.0758 0.2012 0.6528
C26 C 1.2367(3) 0.2886(3) 0.5743(2)
H24 H 1.2661 0.2236 0.5742
C27 C 1.3077(3) 0.3968(3) 0.5272(2)
H25 H 1.3841 0.4055 0.4943
C28 C 1.2629(2) 0.4914(3) 0.52998(18)
C29 C 1.1489(2) 0.4806(2) 0.57708(17)
H26 H 1.1205 0.5462 0.5776
C30 C 0.9751(2) 0.3906(2) 0.79358(16)
C31 C 1.0587(2) 0.3319(2) 0.84007(18)
C32 C 1.0379(2) 0.5292(2) 0.81934(18)
C33 C 1.0537(4) 0.7305(3) 0.7732(3)
H27 H 1.0695 0.7479 0.8464
H28 H 1.1345 0.7715 0.7385
C34 C 0.9571(8) 0.7772(7) 0.7372(9)
H29 H 0.8777 0.7372 0.7726
H30 H 0.9421 0.7601 0.6648
H31 H 0.9877 0.8650 0.7505
Cl1 Cl 1.35496(7) 0.63048(8) 0.47306(6)
N1 N 0.79278(18) 0.20274(16) 0.83545(13)
N2 N 1.1170(2) 0.2833(2) 0.87911(18)
O1 O 0.57742(19) -0.00677(18) 0.73743(14)
O2 O 0.75033(19) -0.04820(16) 0.69208(13)
O3 O 0.87619(18) 0.24657(18) 0.47879(12)
O4 O 0.70383(18) 0.09300(17) 0.53565(12)
O5 O 1.1038(2) 0.56844(18) 0.89531(14)
O6 O 1.00731(18) 0.59674(15) 0.75252(13)
H32? H 1.1381 0.7576 0.8074
H33? H 1.0641 0.7725 0.7086
C35? C 0.9688(8) 0.7651(6) 0.8349(8)
H34? H 0.9985 0.8539 0.8401
H35? H 0.9669 0.7327 0.9022
H36? H 0.8832 0.7324 0.8045
loop_
_geom_bond_atom_site_label_1
_geom_bond_atom_site_label_2
_geom_bond_site_symmetry_1
_geom_bond_site_symmetry_2
C1 H1 1_555 1_555
C2 C1 1_555 1_555
H2 C2 1_555 1_555
C3 C2 1_555 1_555
H3 C3 1_555 1_555
C4 C3 1_555 1_555
H4 C4 1_555 1_555
C5 C4 1_555 1_555
H5 C5 1_555 1_555
C6 C1 1_555 1_555
C7 C6 1_555 1_555
H6 C7 1_555 1_555
C8 C7 1_555 1_555
H7 C8 1_555 1_555
C9 C8 1_555 1_555
H8 C9 1_555 1_555
C10 C11 1_555 1_555
C11 H9 1_555 1_555
C12 C11 1_555 1_555
H10 C12 1_555 1_555
C13 C12 1_555 1_555
C14 C13 1_555 1_555
H11 C14 1_555 1_555
H12 C14 1_555 1_555
H13 C14 1_555 1_555
C15 C13 1_555 1_555
H14 C15 1_555 1_555
C16 C10 1_555 1_555
H15 C16 1_555 1_555
C17 C18 1_555 1_555
C18 O1 1_555 1_555
C19 H16 1_555 1_555
H17 C19 1_555 1_555
H18 C19 1_555 1_555
C20 C17 1_555 1_555
C21 C20 1_555 1_555
C22 H19 1_555 1_555
H20 C22 1_555 1_555
H21 C22 1_555 1_555
C23 C20 1_555 1_555
H22 C23 1_555 1_555
C24 C23 1_555 1_555
C25 C24 1_555 1_555
H23 C25 1_555 1_555
C26 C25 1_555 1_555
H24 C26 1_555 1_555
C27 C26 1_555 1_555
H25 C27 1_555 1_555
C28 C27 1_555 1_555
C29 C24 1_555 1_555
H26 C29 1_555 1_555
C30 C9 1_555 1_555
C31 C30 1_555 1_555
C32 C30 1_555 1_555
C33 H27 1_555 1_555
H28 C33 1_555 1_555
C34 C33 1_555 1_555
H29 C34 1_555 1_555
H30 C34 1_555 1_555
H31 C34 1_555 1_555
Cl1 C28 1_555 1_555
N1 C9 1_555 1_555
N2 C31 1_555 1_555
O2 C18 1_555 1_555
O3 C21 1_555 1_555
O4 C21 1_555 1_555
O5 C32 1_555 1_555
O6 C32 1_555 1_555
C5 C6 1_555 1_555
C10 N1 1_555 1_555
C15 C16 1_555 1_555
C17 N1 1_555 1_555
C19 O2 1_555 1_555
C22 O4 1_555 1_555
C23 C30 1_555 1_555
C28 C29 1_555 1_555
C33 O6 1_555 1_555

#END
