
#######################################################################
#
#                 Cambridge Crystallographic Data Centre
#                                CCDC 
#
#######################################################################
#
# If this CIF has been generated from an entry in the Cambridge 
# Structural Database, then it will include bibliographic, chemical, 
# crystal, experimental, refinement or atomic coordinate data resulting 
# from the CCDC's data processing and validation procedures.
#
#######################################################################

data_BUSRAK
_chemical_formula_moiety         'C33 H28 Br1 Cl1 N2 O6'
_chemical_name_systematic        
'5-ethyl 2,3-dimethyl 4-(4-bromophenyl)-1-(4-chlorophenyl)-5-cyano-6-(2-phenylvinyl)-1,4,5,6-tetrahydropyridine-2,3,5-tricarboxylate'
_symmetry_cell_setting           triclinic
_symmetry_space_group_name_H-M   'P -1'
_symmetry_Int_Tables_number      2
_space_group_name_Hall           '-P 1'
loop_
_symmetry_equiv_pos_site_id
_symmetry_equiv_pos_as_xyz
1 x,y,z
2 -x,-y,-z
_cell_length_a                   10.3813(11)
_cell_length_b                   11.9323(13)
_cell_length_c                   13.7042(14)
_cell_angle_alpha                73.561(3)
_cell_angle_beta                 89.023(3)
_cell_angle_gamma                74.213(3)
_cell_volume                     1563.46
_exptl_crystal_colour            colorless
_exptl_crystal_description       block
_cell_formula_units_Z            2
loop_
_atom_site_label
_atom_site_type_symbol
_atom_site_fract_x
_atom_site_fract_y
_atom_site_fract_z
Br1 Br 0.18293(17) 0.7143(3) 0.42481(15)
C1 C 0.1855(2) 0.19438(18) 1.31928(15)
H1 H 0.1497 0.1414 1.2975
C2 C 0.1489(2) 0.2189(2) 1.41042(16)
H2 H 0.0892 0.1822 1.4493
C3 C 0.2002(2) 0.2970(2) 1.44328(15)
H3 H 0.1754 0.3137 1.5043
C4 C 0.2883(2) 0.3504(2) 1.38569(16)
H4 H 0.3229 0.4039 1.4078
C5 C 0.32657(19) 0.32588(18) 1.29533(14)
H5 H 0.3875 0.3620 1.2576
C6 C 0.27452(16) 0.24744(14) 1.26020(12)
C7 C 0.31080(16) 0.21755(14) 1.16467(12)
H6 H 0.2782 0.1576 1.1516
C8 C 0.38491(15) 0.26690(14) 1.09545(12)
H7 H 0.4179 0.3283 1.1052
C9 C 0.41731(15) 0.22661(13) 1.00141(11)
H8 H 0.3770 0.1605 1.0041
C10 C 0.65613(18) 0.04925(16) 1.16127(13)
H9 H 0.6105 -0.0050 1.1531
C11 C 0.72876(19) 0.02561(18) 1.25117(14)
H10 H 0.7330 -0.0445 1.3040
C12 C 0.79504(19) 0.1070(2) 1.26190(14)
C13 C 0.7923(2) 0.20996(19) 1.18459(16)
H11 H 0.8392 0.2633 1.1927
C14 C 0.71893(18) 0.23339(16) 1.09444(14)
H12 H 0.7156 0.3032 1.0415
C15 C 0.65068(15) 0.15322(14) 1.08294(12)
C16 C 0.60653(15) 0.16050(13) 0.90437(11)
C17 C 0.75053(15) 0.08549(14) 0.91019(12)
C18 C 0.96214(18) 0.0892(2) 0.84901(17)
H13 H 1.0123 0.0483 0.9134
H14 H 1.0060 0.1456 0.8078
H15 H 0.9571 0.0304 0.8148
C19 C 0.52541(15) 0.19567(13) 0.81771(11)
C20 C 0.57726(16) 0.14092(14) 0.73620(12)
C21 C 0.5259(2) 0.1048(2) 0.58282(16)
H16 H 0.5987 0.1321 0.5498
H17 H 0.4522 0.1252 0.5336
H18 H 0.5550 0.0181 0.6127
C22 C 0.38273(14) 0.27616(13) 0.80958(11)
H19 H 0.3228 0.2240 0.8158
C23 C 0.33872(15) 0.37939(14) 0.71114(11)
C24 C 0.42279(17) 0.44639(16) 0.66119(13)
H20 H 0.5123 0.4242 0.6847
C25 C 0.3753(2) 0.54600(17) 0.57671(14)
H21 H 0.4321 0.5911 0.5441
C26 C 0.2439(2) 0.57734(17) 0.54175(13)
C27 C 0.15835(19) 0.51299(18) 0.58959(14)
H22 H 0.0690 0.5358 0.5656
C28 C 0.20623(17) 0.41373(16) 0.67393(13)
H23 H 0.1486 0.3693 0.7062
C29 C 0.36173(15) 0.33118(13) 0.90153(11)
C30 C 0.43593(17) 0.42286(14) 0.89032(12)
C31 C 0.21407(16) 0.39008(14) 0.91224(12)
C32 C 0.00652(17) 0.34449(19) 0.94856(16)
H24 H 0.0016 0.3888 0.9986
H25 H -0.0210 0.2716 0.9798
C33 C -0.0872(2) 0.4216(2) 0.8588(2)
H26 H -0.0628 0.4955 0.8296
H27 H -0.1772 0.4405 0.8800
H28 H -0.0821 0.3783 0.8088
Cl1 Cl 0.88284(8) 0.07839(9) 1.37734(5)
N1 N 0.49897(18) 0.48902(15) 0.88214(13)
N2 N 0.56305(12) 0.18165(12) 0.99368(10)
O1 O 0.17116(13) 0.49235(11) 0.91659(11)
O2 O 0.14465(11) 0.30990(10) 0.92035(9)
O3 O 0.78688(12) -0.02120(11) 0.95409(9)
O4 O 0.82866(11) 0.15405(11) 0.86561(10)
O5 O 0.68925(12) 0.07682(11) 0.73647(9)
O6 O 0.48326(12) 0.16337(11) 0.66200(9)
Br2? Br 0.1743(8) 0.6930(14) 0.4173(5)
loop_
_geom_bond_atom_site_label_1
_geom_bond_atom_site_label_2
_geom_bond_site_symmetry_1
_geom_bond_site_symmetry_2
Br1 C26 1_555 1_555
C1 H1 1_555 1_555
C2 C1 1_555 1_555
H2 C2 1_555 1_555
C3 C2 1_555 1_555
H3 C3 1_555 1_555
C4 C3 1_555 1_555
H4 C4 1_555 1_555
C5 C4 1_555 1_555
H5 C5 1_555 1_555
C6 C1 1_555 1_555
C7 C6 1_555 1_555
H6 C7 1_555 1_555
C8 C7 1_555 1_555
H7 C8 1_555 1_555
C9 C8 1_555 1_555
H8 C9 1_555 1_555
C10 H9 1_555 1_555
C11 C10 1_555 1_555
H10 C11 1_555 1_555
C12 C11 1_555 1_555
C13 C12 1_555 1_555
H11 C13 1_555 1_555
C14 C13 1_555 1_555
H12 C14 1_555 1_555
C15 C10 1_555 1_555
C16 C17 1_555 1_555
C17 O3 1_555 1_555
C18 H13 1_555 1_555
H14 C18 1_555 1_555
H15 C18 1_555 1_555
C19 C16 1_555 1_555
C20 C19 1_555 1_555
C21 H16 1_555 1_555
H17 C21 1_555 1_555
H18 C21 1_555 1_555
C22 C19 1_555 1_555
H19 C22 1_555 1_555
C23 C22 1_555 1_555
C24 C23 1_555 1_555
H20 C24 1_555 1_555
C25 C24 1_555 1_555
H21 C25 1_555 1_555
C26 C25 1_555 1_555
C27 C26 1_555 1_555
H22 C27 1_555 1_555
C28 C23 1_555 1_555
H23 C28 1_555 1_555
C29 C9 1_555 1_555
C30 C29 1_555 1_555
C31 C29 1_555 1_555
C32 H24 1_555 1_555
H25 C32 1_555 1_555
C33 C32 1_555 1_555
H26 C33 1_555 1_555
H27 C33 1_555 1_555
H28 C33 1_555 1_555
Cl1 C12 1_555 1_555
N1 C30 1_555 1_555
N2 C9 1_555 1_555
O1 C31 1_555 1_555
O2 C31 1_555 1_555
O4 C17 1_555 1_555
O5 C20 1_555 1_555
O6 C20 1_555 1_555
C5 C6 1_555 1_555
C14 C15 1_555 1_555
C15 N2 1_555 1_555
C16 N2 1_555 1_555
C18 O4 1_555 1_555
C21 O6 1_555 1_555
C22 C29 1_555 1_555
C27 C28 1_555 1_555
C32 O2 1_555 1_555

#END
