
#######################################################################
#
#                 Cambridge Crystallographic Data Centre
#                                CCDC 
#
#######################################################################
#
# If this CIF has been generated from an entry in the Cambridge 
# Structural Database, then it will include bibliographic, chemical, 
# crystal, experimental, refinement or atomic coordinate data resulting 
# from the CCDC's data processing and validation procedures.
#
#######################################################################

data_BUSREN
_chemical_formula_moiety         'C25 H9 Cl7 N6 S6'
_chemical_name_systematic        
2,2',2''-((2,4,5,7,8,9,10-Heptachlorofluoranthene-1,3,6-triyl)trisulfanediyl)tris(5-methyl-1,3,4-thiadiazole)
_symmetry_cell_setting           triclinic
_symmetry_space_group_name_H-M   'P -1'
_symmetry_Int_Tables_number      2
_space_group_name_Hall           '-P 1'
loop_
_symmetry_equiv_pos_site_id
_symmetry_equiv_pos_as_xyz
1 x,y,z
2 -x,-y,-z
_cell_length_a                   11.8343(9)
_cell_length_b                   12.3360(5)
_cell_length_c                   12.7275(8)
_cell_angle_alpha                84.027(4)
_cell_angle_beta                 63.974(7)
_cell_angle_gamma                66.052(6)
_cell_volume                     1519.7
_exptl_crystal_colour            yellow
_exptl_crystal_description       block
_cell_formula_units_Z            2
loop_
_atom_site_label
_atom_site_type_symbol
_atom_site_fract_x
_atom_site_fract_y
_atom_site_fract_z
Cl1 Cl 0.8789(2) 0.91355(14) 0.44282(15)
Cl2 Cl 1.1835(2) 0.77705(14) 0.28322(16)
S1 S 0.5910(2) 1.11174(16) 0.48348(15)
Cl3 Cl 0.3874(2) 1.30566(17) 0.67988(16)
S2 S 0.5225(3) 1.69139(19) 0.8753(2)
Cl4 Cl 0.4171(2) 1.53729(17) 0.68540(17)
S3 S 0.6280(3) 1.65243(16) 0.61262(19)
Cl5 Cl 1.3789(2) 0.90697(18) 0.19558(19)
S4 S 1.0684(3) 1.43149(18) 0.21207(19)
S5 S 0.6468(3) 1.0038(2) 0.2575(2)
Cl6 Cl 0.9032(3) 1.62798(18) 0.4089(2)
S6 S 0.9216(2) 1.3466(2) 0.10975(18)
Cl7 Cl 1.2623(2) 1.17813(18) 0.2475(2)
C1 C 0.7966(8) 1.3147(5) 0.4620(6)
C2 C 1.0102(8) 1.1765(6) 0.3337(6)
C3 C 0.7809(8) 1.2072(5) 0.4570(5)
C4 C 0.6895(9) 1.4214(6) 0.5312(6)
C5 C 0.9196(8) 1.1177(6) 0.3831(6)
N1 N 0.6812(7) 1.4824(5) 0.8748(5)
C6 C 0.9752(7) 0.9938(5) 0.3710(5)
C7 C 0.5630(8) 1.4138(6) 0.5992(6)
C8 C 0.6734(8) 1.0947(6) 0.3291(6)
C9 C 0.5442(9) 1.3133(6) 0.5913(6)
C10 C 0.6490(8) 1.2114(6) 0.5128(6)
N2 N 0.6985(8) 1.4909(5) 0.7606(6)
C11 C 1.1147(8) 0.9311(5) 0.3062(6)
C12 C 0.9275(8) 1.3056(5) 0.3764(6)
C13 C 1.0204(10) 1.2878(6) -0.0340(6)
C14 C 1.0619(9) 1.3557(7) 0.1071(7)
C15 C 1.1494(9) 1.1132(6) 0.2797(6)
C16 C 0.7299(10) 1.5190(6) 0.5194(6)
N3 N 0.7931(8) 1.1177(6) 0.1445(5)
C17 C 0.8528(10) 1.5107(6) 0.4290(7)
C18 C 0.5986(9) 1.5780(7) 0.9405(7)
N4 N 0.7491(7) 1.1471(6) 0.2621(5)
C19 C 1.2033(8) 0.9878(6) 0.2632(6)
C20 C 0.9480(9) 1.4074(6) 0.3448(7)
C21 C 0.5752(10) 1.5911(9) 1.0656(7)
H1 H 0.6288 1.5150 1.0859
H2 H 0.4773 1.6146 1.1181
H3 H 0.6042 1.6523 1.0741
C22 C 0.7475(10) 1.0451(7) 0.1289(7)
C23 C 0.6258(10) 1.5979(7) 0.7488(8)
N5 N 1.1452(9) 1.2751(7) -0.0742(6)
C24 C 0.9662(9) 1.2485(7) -0.1022(7)
H4 H 1.0386 1.2180 -0.1820
H5 H 0.8878 1.3162 -0.1058
H6 H 0.9366 1.1854 -0.0636
C25 C 0.7773(13) 1.0028(8) 0.0093(8)
H7 H 0.8364 1.0373 -0.0508
H8 H 0.6908 1.0278 0.0029
H9 H 0.8240 0.9157 -0.0020
N6 N 1.1680(9) 1.3169(8) 0.0079(7)
loop_
_geom_bond_atom_site_label_1
_geom_bond_atom_site_label_2
_geom_bond_site_symmetry_1
_geom_bond_site_symmetry_2
Cl1 C6 1_555 1_555
Cl2 C11 1_555 1_555
S1 C8 1_555 1_555
Cl3 C9 1_555 1_555
S2 C18 1_555 1_555
Cl4 C7 1_555 1_555
S3 C16 1_555 1_555
Cl5 C19 1_555 1_555
S4 C14 1_555 1_555
S5 C8 1_555 1_555
Cl6 C17 1_555 1_555
S6 C13 1_555 1_555
Cl7 C15 1_555 1_555
C1 C3 1_555 1_555
C2 C5 1_555 1_555
C3 C5 1_555 1_555
C4 C1 1_555 1_555
C5 C6 1_555 1_555
N1 N2 1_555 1_555
C6 C11 1_555 1_555
C7 C4 1_555 1_555
C8 N4 1_555 1_555
C9 C7 1_555 1_555
C10 S1 1_555 1_555
N2 C23 1_555 1_555
C11 C19 1_555 1_555
C12 C1 1_555 1_555
C13 N5 1_555 1_555
C14 S6 1_555 1_555
C15 C2 1_555 1_555
C16 C4 1_555 1_555
N3 N4 1_555 1_555
C17 C16 1_555 1_555
C18 N1 1_555 1_555
C19 C15 1_555 1_555
C20 S4 1_555 1_555
C21 C18 1_555 1_555
H1 C21 1_555 1_555
H2 C21 1_555 1_555
H3 C21 1_555 1_555
C22 S5 1_555 1_555
C23 S2 1_555 1_555
N5 N6 1_555 1_555
C24 C13 1_555 1_555
H4 C24 1_555 1_555
H5 C24 1_555 1_555
H6 C24 1_555 1_555
C25 C22 1_555 1_555
H7 C25 1_555 1_555
H8 C25 1_555 1_555
H9 C25 1_555 1_555
N6 C14 1_555 1_555
S3 C23 1_555 1_555
C2 C12 1_555 1_555
C3 C10 1_555 1_555
C9 C10 1_555 1_555
C12 C20 1_555 1_555
N3 C22 1_555 1_555
C17 C20 1_555 1_555

#END
