
#######################################################################
#
#                 Cambridge Crystallographic Data Centre
#                                CCDC 
#
#######################################################################
#
# If this CIF has been generated from an entry in the Cambridge 
# Structural Database, then it will include bibliographic, chemical, 
# crystal, experimental, refinement or atomic coordinate data resulting 
# from the CCDC's data processing and validation procedures.
#
#######################################################################

data_BUSRAJ
_chemical_formula_moiety         'C19 H3 Cl9 N2 S2'
_chemical_name_systematic        
2-Methyl-5-((2,3,4,5,6,7,8,9,10-nonachlorofluoranthen-1-yl)sulfanyl)-1,3,4-thiadiazole
_symmetry_cell_setting           triclinic
_symmetry_space_group_name_H-M   'P -1'
_symmetry_Int_Tables_number      2
_space_group_name_Hall           '-P 1'
loop_
_symmetry_equiv_pos_site_id
_symmetry_equiv_pos_as_xyz
1 x,y,z
2 -x,-y,-z
_cell_length_a                   8.3193(7)
_cell_length_b                   11.2070(8)
_cell_length_c                   12.0009(9)
_cell_angle_alpha                87.175(6)
_cell_angle_beta                 77.446(7)
_cell_angle_gamma                84.556(6)
_cell_volume                     1086.75
_exptl_crystal_colour            yellow
_exptl_crystal_description       block
_cell_formula_units_Z            2
loop_
_atom_site_label
_atom_site_type_symbol
_atom_site_fract_x
_atom_site_fract_y
_atom_site_fract_z
Cl1 Cl 0.21782(13) 0.74525(9) 0.36761(8)
Cl2 Cl 0.21930(13) 1.14232(10) 0.59861(8)
Cl3 Cl 0.48770(13) 1.23710(9) 0.40638(8)
Cl4 Cl 0.09680(13) 0.89237(10) 0.58586(8)
S1 S 0.55248(14) 0.61701(10) 0.26682(9)
Cl5 Cl 0.53728(15) 1.30576(10) 0.14944(8)
Cl6 Cl 0.79806(15) 1.27685(10) -0.06984(8)
Cl7 Cl 0.93885(14) 1.03689(10) -0.16404(8)
S2 S 0.78887(16) 0.43265(11) 0.35144(10)
Cl8 Cl 0.76470(16) 0.57161(10) 0.02062(9)
Cl9 Cl 0.90763(17) 0.76923(12) -0.13812(9)
N1 N 1.0191(5) 0.5707(4) 0.2896(3)
C1 C 0.7931(5) 1.0391(4) -0.0371(3)
C2 C 0.5734(5) 1.0618(4) 0.1762(3)
C3 C 0.5454(5) 0.8562(4) 0.1956(3)
C4 C 0.3090(5) 0.8741(4) 0.3796(3)
C5 C 0.4089(5) 1.1051(4) 0.3874(3)
N2 N 0.8803(5) 0.6307(3) 0.2589(3)
C6 C 0.6197(5) 1.1641(4) 0.1134(3)
C7 C 0.4318(5) 0.9144(4) 0.2936(3)
C8 C 0.7751(5) 0.8102(4) -0.0116(3)
C9 C 0.5997(5) 0.7392(4) 0.1690(3)
C10 C 0.7325(5) 0.9316(4) 0.0202(3)
C11 C 0.7326(5) 1.1503(4) 0.0054(3)
C12 C 0.6206(5) 0.9484(4) 0.1250(3)
C13 C 0.7529(5) 0.5689(4) 0.2854(3)
C14 C 0.2958(5) 1.0578(4) 0.4797(3)
C15 C 0.2419(5) 0.9454(4) 0.4751(3)
C16 C 0.4655(5) 1.0369(4) 0.2902(3)
C17 C 0.7112(5) 0.7183(4) 0.0601(3)
C18 C 0.9891(5) 0.4694(4) 0.3396(3)
C19 C 1.1163(6) 0.3908(4) 0.3837(3)
H1 H 1.2204 0.4290 0.3680
H2 H 1.1333 0.3136 0.3461
H3 H 1.0793 0.3778 0.4664
loop_
_geom_bond_atom_site_label_1
_geom_bond_atom_site_label_2
_geom_bond_site_symmetry_1
_geom_bond_site_symmetry_2
Cl1 C4 1_555 1_555
Cl2 C14 1_555 1_555
Cl3 C5 1_555 1_555
Cl4 C15 1_555 1_555
S1 C9 1_555 1_555
Cl5 C6 1_555 1_555
Cl6 C11 1_555 1_555
Cl7 C1 1_555 1_555
S2 C13 1_555 1_555
Cl8 C17 1_555 1_555
Cl9 C8 1_555 1_555
N1 N2 1_555 1_555
C1 C10 1_555 1_555
C2 C6 1_555 1_555
C3 C7 1_555 1_555
C4 C7 1_555 1_555
C5 C14 1_555 1_555
N2 C13 1_555 1_555
C6 C11 1_555 1_555
C7 C16 1_555 1_555
C8 C10 1_555 1_555
C9 C3 1_555 1_555
C10 C12 1_555 1_555
C11 C1 1_555 1_555
C12 C2 1_555 1_555
C13 S1 1_555 1_555
C14 C15 1_555 1_555
C15 C4 1_555 1_555
C16 C2 1_555 1_555
C17 C8 1_555 1_555
C18 S2 1_555 1_555
C19 C18 1_555 1_555
H1 C19 1_555 1_555
H2 C19 1_555 1_555
H3 C19 1_555 1_555
N1 C18 1_555 1_555
C3 C12 1_555 1_555
C5 C16 1_555 1_555
C9 C17 1_555 1_555

#END
