
#######################################################################
#
#                 Cambridge Crystallographic Data Centre
#                                CCDC 
#
#######################################################################
#
# If this CIF has been generated from an entry in the Cambridge 
# Structural Database, then it will include bibliographic, chemical, 
# crystal, experimental, refinement or atomic coordinate data resulting 
# from the CCDC's data processing and validation procedures.
#
#######################################################################

data_BUTBUP
_chemical_formula_moiety         'C22 H23 N1 O2 S1'
_chemical_name_systematic        
'Methyl 7-phenyl-7a,8,9,10-tetrahydro-6H,7H-thiochromeno[3,4-b]pyrrolizine-6a(11aH)-carboxylate'
_symmetry_cell_setting           triclinic
_symmetry_space_group_name_H-M   'P -1'
_symmetry_Int_Tables_number      2
_space_group_name_Hall           '-P 1'
loop_
_symmetry_equiv_pos_site_id
_symmetry_equiv_pos_as_xyz
1 x,y,z
2 -x,-y,-z
_cell_length_a                   9.5184(4)
_cell_length_b                   10.4041(5)
_cell_length_c                   10.6923(4)
_cell_angle_alpha                81.270(2)
_cell_angle_beta                 66.626(2)
_cell_angle_gamma                74.385(2)
_cell_volume                     934.881
_exptl_crystal_colour            colorless
_exptl_crystal_description       Block
_cell_formula_units_Z            2
loop_
_atom_site_label
_atom_site_type_symbol
_atom_site_fract_x
_atom_site_fract_y
_atom_site_fract_z
C1 C 0.9603(3) 0.3962(4) 0.3621(3)
H1 H 1.0279 0.4231 0.2778
C2 C 0.9631(3) 0.2640(3) 0.3945(3)
H2 H 1.0334 0.2005 0.3328
C3 C 0.8613(3) 0.2244(3) 0.5191(2)
H3 H 0.8631 0.1341 0.5402
C4 C 0.7568(2) 0.3172(2) 0.6132(2)
C5 C 0.7572(3) 0.4499(2) 0.5783(2)
H4 H 0.6883 0.5142 0.6397
C6 C 0.8587(3) 0.4888(3) 0.4532(3)
H5 H 0.8574 0.5790 0.4312
C7 C 0.6470(2) 0.2688(2) 0.74667(19)
H6 H 0.6321 0.1845 0.7293
C8 C 0.4827(2) 0.3576(2) 0.8094(2)
H7 H 0.4892 0.4514 0.7964
C9 C 0.3619(3) 0.3412(4) 0.7578(3)
H8 H 0.2928 0.4264 0.7482
H9 H 0.4119 0.2990 0.6710
C10 C 0.2769(10) 0.2563(10) 0.8649(7)
H10 H 0.1701 0.2721 0.8687
H11 H 0.3275 0.1631 0.8465
C11 C 0.2750(3) 0.2854(3) 0.9919(3)
H12 H 0.2653 0.2084 1.0558
H13 H 0.1886 0.3601 1.0319
C12 C 0.5497(2) 0.21009(19) 0.98166(19)
H14 H 0.5360 0.1253 0.9643
C13 C 0.5386(2) 0.2033(2) 1.1270(2)
C14 C 0.4304(3) 0.1386(3) 1.2261(2)
H15 H 0.3685 0.1005 1.2005
C15 C 0.4123(4) 0.1294(3) 1.3608(3)
H16 H 0.3387 0.0858 1.4254
C16 C 0.5026(4) 0.1842(3) 1.3991(3)
H17 H 0.4899 0.1786 1.4905
C17 C 0.6118(3) 0.2473(3) 1.3047(2)
H18 H 0.6728 0.2845 1.3323
C18 C 0.6326(3) 0.2566(2) 1.1671(2)
C19 C 0.7422(2) 0.35732(19) 0.9027(2)
H19 H 0.6539 0.4339 0.9156
H20 H 0.8314 0.3793 0.8260
C20 C 0.7012(2) 0.23802(18) 0.87029(19)
C21 C 0.8360(2) 0.1159(2) 0.8429(2)
C22 C 1.1091(3) 0.0345(3) 0.7589(3)
H21 H 1.2034 0.0674 0.7209
H22 H 1.1072 -0.0189 0.6941
H23 H 1.1068 -0.0189 0.8409
N1 N 0.42652(18) 0.31903(18) 0.95607(17)
O1 O 0.8198(2) 0.00459(16) 0.8592(2)
O2 O 0.97460(16) 0.14517(15) 0.78985(17)
S1 S 0.78888(7) 0.32480(6) 1.05291(6)
H24? H 0.3418 0.4164 0.6965
H25? H 0.4002 0.2600 0.7085
C23? C 0.2151(9) 0.3342(11) 0.8782(7)
H26? H 0.1624 0.2720 0.8659
H27? H 0.1432 0.4214 0.8954
H28? H 0.2000 0.3268 1.0756
H29? H 0.2873 0.1894 1.0068
loop_
_geom_bond_atom_site_label_1
_geom_bond_atom_site_label_2
_geom_bond_site_symmetry_1
_geom_bond_site_symmetry_2
C1 H1 1_555 1_555
C2 C1 1_555 1_555
H2 C2 1_555 1_555
C3 C2 1_555 1_555
H3 C3 1_555 1_555
C4 C3 1_555 1_555
C5 C4 1_555 1_555
H4 C5 1_555 1_555
C6 C1 1_555 1_555
H5 C6 1_555 1_555
C7 C4 1_555 1_555
H6 C7 1_555 1_555
C8 C7 1_555 1_555
H7 C8 1_555 1_555
C9 C8 1_555 1_555
H8 C9 1_555 1_555
H9 C9 1_555 1_555
C10 C9 1_555 1_555
H10 C10 1_555 1_555
H11 C10 1_555 1_555
C11 C10 1_555 1_555
H12 C11 1_555 1_555
H13 C11 1_555 1_555
C12 H14 1_555 1_555
C13 C12 1_555 1_555
C14 C13 1_555 1_555
H15 C14 1_555 1_555
C15 C14 1_555 1_555
H16 C15 1_555 1_555
C16 C15 1_555 1_555
H17 C16 1_555 1_555
C17 C16 1_555 1_555
H18 C17 1_555 1_555
C18 C13 1_555 1_555
C19 H19 1_555 1_555
H20 C19 1_555 1_555
C20 C7 1_555 1_555
C21 C20 1_555 1_555
C22 H21 1_555 1_555
H22 C22 1_555 1_555
H23 C22 1_555 1_555
N1 C8 1_555 1_555
O1 C21 1_555 1_555
O2 C21 1_555 1_555
S1 C18 1_555 1_555
C5 C6 1_555 1_555
C11 N1 1_555 1_555
C12 C20 1_555 1_555
C12 N1 1_555 1_555
C17 C18 1_555 1_555
C19 C20 1_555 1_555
C19 S1 1_555 1_555
C22 O2 1_555 1_555

#END
