
#######################################################################
#
#                 Cambridge Crystallographic Data Centre
#                                CCDC 
#
#######################################################################
#
# If this CIF has been generated from an entry in the Cambridge 
# Structural Database, then it will include bibliographic, chemical, 
# crystal, experimental, refinement or atomic coordinate data resulting 
# from the CCDC's data processing and validation procedures.
#
#######################################################################

data_BUTBAV
_chemical_compound_source        
'Isolated from fungal strain Phoma sp. N 19 obtained from the leaves of Cirsium arvense (L.) Scop.'
_chemical_name_common            'phaeosphaeride A'
_chemical_formula_moiety         'C15 H23 N1 O5'
_chemical_name_systematic        
3,4-dihydroxy-6-methoxy-3-methyl-7-methylene-2-pentyl-3,4,6,7-tetrahydropyrano[2,3-c]pyrrol-5(2H)-one
_symmetry_cell_setting           monoclinic
_symmetry_space_group_name_H-M   'P 21'
_symmetry_Int_Tables_number      4
_space_group_name_Hall           'P 2yb'
loop_
_symmetry_equiv_pos_site_id
_symmetry_equiv_pos_as_xyz
1 x,y,z
2 -x,1/2+y,-z
_cell_length_a                   10.14078(18)
_cell_length_b                   9.10361(14)
_cell_length_c                   17.5991(3)
_cell_angle_alpha                90
_cell_angle_beta                 100.1847(16)
_cell_angle_gamma                90
_cell_volume                     1599.11
_exptl_crystal_colour            colorless
_exptl_crystal_description       tabular
_cell_formula_units_Z            4
_exptl_crystal_recrystallization_method heptane
loop_
_atom_site_label
_atom_site_type_symbol
_atom_site_fract_x
_atom_site_fract_y
_atom_site_fract_z
C1 C 1.1431(5) 0.8972(6) 0.9253(3)
N1 N 1.1842(4) 0.7850(5) 0.8817(2)
C2 C 1.1862(5) 0.8314(6) 0.8053(3)
C3 C 1.1266(5) 0.9782(6) 0.8025(3)
C4 C 1.0975(5) 1.0166(5) 0.8717(3)
C5 C 1.0311(5) 1.1589(6) 0.8845(3)
H1 H 1.0984 1.2269 0.9115
C6 C 0.9703(5) 1.2250(6) 0.8039(3)
C7 C 1.0752(5) 1.2122(5) 0.7508(3)
H2 H 1.1580 1.2596 0.7765
C8 C 1.0343(5) 1.2809(6) 0.6718(3)
H3 H 1.0006 1.3791 0.6779
H4 H 0.9620 1.2237 0.6426
C9 C 1.1482(5) 1.2899(7) 0.6264(3)
H5 H 1.1855 1.1924 0.6231
H6 H 1.2183 1.3519 0.6543
C10 C 1.1059(7) 1.3504(8) 0.5454(4)
H7 H 1.0380 1.2864 0.5171
H8 H 1.0657 1.4463 0.5487
C11 C 1.2195(8) 1.3646(9) 0.5007(4)
H9 H 1.2627 1.2697 0.4998
H10 H 1.2852 1.4326 0.5278
C12 C 1.1771(12) 1.4175(13) 0.4187(5)
H11 H 1.1119 1.3511 0.3913
H12 H 1.2538 1.4211 0.3936
H13 H 1.1387 1.5138 0.4189
C13 C 1.2311(5) 0.7567(6) 0.7508(3)
H14 H 1.2660 0.6629 0.7611
H15 H 1.2277 0.7979 0.7021
C14 C 0.8381(5) 1.1508(6) 0.7705(3)
H16 H 0.8540 1.0495 0.7600
H17 H 0.7986 1.1992 0.7235
H18 H 0.7782 1.1570 0.8070
C15 C 1.2068(6) 0.5407(6) 0.9208(3)
H19 H 1.1648 0.5103 0.8701
H20 H 1.1400 0.5521 0.9528
H21 H 1.2706 0.4678 0.9429
O1 O 1.1050(4) 1.0568(4) 0.73717(19)
O2 O 0.9541(4) 1.3789(4) 0.8112(2)
H22 H 0.8942 1.3951 0.8359
O3 O 0.9324(4) 1.1327(4) 0.9312(2)
H23 H 0.9060 1.2114 0.9456
O4 O 1.1447(4) 0.8881(4) 0.99543(19)
O5 O 1.2747(4) 0.6794(4) 0.9159(2)
C16 C 0.4815(5) 1.9716(6) 0.8996(3)
N2 N 0.4361(4) 2.0638(5) 0.8379(2)
C17 C 0.4890(5) 2.0271(6) 0.7717(3)
C18 C 0.5564(5) 1.8865(6) 0.7938(3)
C19 C 0.5529(5) 1.8520(5) 0.8678(3)
C20 C 0.6116(5) 1.7116(5) 0.9032(3)
H24 H 0.5393 1.6398 0.9020
C21 C 0.7097(5) 1.6545(5) 0.8525(3)
C22 C 0.6355(5) 1.6563(5) 0.7676(3)
H25 H 0.5498 1.6055 0.7656
C23 C 0.7086(5) 1.5840(6) 0.7096(3)
H26 H 0.7419 1.4891 0.7296
H27 H 0.7853 1.6439 0.7038
C24 C 0.6212(6) 1.5621(7) 0.6302(3)
H28 H 0.5384 1.5139 0.6364
H29 H 0.5986 1.6572 0.6066
C25 C 0.6921(6) 1.4697(7) 0.5771(3)
H30 H 0.7732 1.5202 0.5699
H31 H 0.7183 1.3768 0.6023
C26 C 0.6074(6) 1.4392(8) 0.4983(3)
H32 H 0.5805 1.5318 0.4730
H33 H 0.5269 1.3871 0.5051
C27 C 0.6823(7) 1.3483(8) 0.4466(3)
H34 H 0.6244 1.3297 0.3982
H35 H 0.7096 1.2566 0.4715
H36 H 0.7599 1.4013 0.4377
C28 C 0.4806(5) 2.1038(6) 0.7075(3)
H37 H 0.4356 2.1932 0.7026
H38 H 0.5198 2.0685 0.6671
C29 C 0.8399(5) 1.7422(6) 0.8646(3)
H39 H 0.8201 1.8444 0.8550
H40 H 0.8958 1.7077 0.8296
H41 H 0.8858 1.7298 0.9168
C30 C 0.5035(6) 2.3002(6) 0.8752(4)
H42 H 0.5616 2.2998 0.8376
H43 H 0.5520 2.2663 0.9238
H44 H 0.4719 2.3983 0.8809
O6 O 0.6069(4) 1.8064(4) 0.74144(18)
O7 O 0.7369(3) 1.5024(4) 0.86892(19)
H45 H 0.7410 1.4877 0.9152
O8 O 0.6775(3) 1.7297(4) 0.98091(18)
H46 H 0.6363 1.6850 1.0097
O9 O 0.4586(4) 1.9909(4) 0.9650(2)
O10 O 0.3911(4) 2.2045(4) 0.8499(2)
loop_
_geom_bond_atom_site_label_1
_geom_bond_atom_site_label_2
_geom_bond_site_symmetry_1
_geom_bond_site_symmetry_2
C1 N1 1_555 1_555
N1 C2 1_555 1_555
C2 C3 1_555 1_555
C3 C4 1_555 1_555
C4 C1 1_555 1_555
C5 C4 1_555 1_555
H1 C5 1_555 1_555
C6 C5 1_555 1_555
C7 C6 1_555 1_555
H2 C7 1_555 1_555
C8 C7 1_555 1_555
H3 C8 1_555 1_555
H4 C8 1_555 1_555
C9 C8 1_555 1_555
H5 C9 1_555 1_555
H6 C9 1_555 1_555
C10 C9 1_555 1_555
H7 C10 1_555 1_555
H8 C10 1_555 1_555
C11 C10 1_555 1_555
H9 C11 1_555 1_555
H10 C11 1_555 1_555
C12 C11 1_555 1_555
H11 C12 1_555 1_555
H12 C12 1_555 1_555
H13 C12 1_555 1_555
C13 C2 1_555 1_555
H14 C13 1_555 1_555
H15 C13 1_555 1_555
C14 C6 1_555 1_555
H16 C14 1_555 1_555
H17 C14 1_555 1_555
H18 C14 1_555 1_555
C15 H19 1_555 1_555
H20 C15 1_555 1_555
H21 C15 1_555 1_555
O1 C3 1_555 1_555
O2 C6 1_555 1_555
H22 O2 1_555 1_555
O3 C5 1_555 1_555
H23 O3 1_555 1_555
O4 C1 1_555 1_555
O5 N1 1_555 1_555
C16 N2 1_555 1_555
N2 C17 1_555 1_555
C17 C18 1_555 1_555
C18 C19 1_555 1_555
C19 C16 1_555 1_555
C20 C19 1_555 1_555
H24 C20 1_555 1_555
C21 C20 1_555 1_555
C22 C21 1_555 1_555
H25 C22 1_555 1_555
C23 C22 1_555 1_555
H26 C23 1_555 1_555
H27 C23 1_555 1_555
C24 C23 1_555 1_555
H28 C24 1_555 1_555
H29 C24 1_555 1_555
C25 C24 1_555 1_555
H30 C25 1_555 1_555
H31 C25 1_555 1_555
C26 C25 1_555 1_555
H32 C26 1_555 1_555
H33 C26 1_555 1_555
C27 C26 1_555 1_555
H34 C27 1_555 1_555
H35 C27 1_555 1_555
H36 C27 1_555 1_555
C28 C17 1_555 1_555
H37 C28 1_555 1_555
H38 C28 1_555 1_555
C29 C21 1_555 1_555
H39 C29 1_555 1_555
H40 C29 1_555 1_555
H41 C29 1_555 1_555
C30 H42 1_555 1_555
H43 C30 1_555 1_555
H44 C30 1_555 1_555
O6 C18 1_555 1_555
O7 C21 1_555 1_555
H45 O7 1_555 1_555
O8 C20 1_555 1_555
H46 O8 1_555 1_555
O9 C16 1_555 1_555
O10 N2 1_555 1_555
C7 O1 1_555 1_555
C15 O5 1_555 1_555
C22 O6 1_555 1_555
C30 O10 1_555 1_555

#END
