
#######################################################################
#
#                 Cambridge Crystallographic Data Centre
#                                CCDC 
#
#######################################################################
#
# If this CIF has been generated from an entry in the Cambridge 
# Structural Database, then it will include bibliographic, chemical, 
# crystal, experimental, refinement or atomic coordinate data resulting 
# from the CCDC's data processing and validation procedures.
#
#######################################################################

data_BUTCIE
_chemical_name_common            Cyclosulfamuron
_chemical_formula_moiety         'C17 H19 N5 O6 S1'
_chemical_name_systematic        
1-(2-(Cyclopropylcarbonyl)anilinosulfonyl)-3-(4,6-dimethoxypyrimidin-2-yl)urea
_chemical_properties_biological  'herbicidal activity'
_symmetry_cell_setting           monoclinic
_symmetry_space_group_name_H-M   'P 21/n'
_symmetry_Int_Tables_number      14
_space_group_name_Hall           '-P 2yn'
loop_
_symmetry_equiv_pos_site_id
_symmetry_equiv_pos_as_xyz
1 x,y,z
2 1/2-x,1/2+y,1/2-z
3 -x,-y,-z
4 1/2+x,1/2-y,1/2+z
_cell_length_a                   12.7019(4)
_cell_length_b                   9.6216(3)
_cell_length_c                   15.6213(5)
_cell_angle_alpha                90
_cell_angle_beta                 93.6194(12)
_cell_angle_gamma                90
_cell_volume                     1905.31
_exptl_crystal_colour            colorless
_exptl_crystal_description       block
_cell_formula_units_Z            4
loop_
_atom_site_label
_atom_site_type_symbol
_atom_site_fract_x
_atom_site_fract_y
_atom_site_fract_z
S1 S 1.03274(3) 0.41778(4) 0.19915(2)
O1 O 1.02757(11) 0.25129(16) -0.03440(8)
O2 O 1.12410(9) 0.48608(12) 0.17159(7)
O3 O 0.95254(9) 0.49585(12) 0.23699(7)
O4 O 1.19071(9) 0.18921(12) 0.19997(7)
O5 O 0.94327(9) 0.31556(13) 0.52112(7)
O6 O 1.17908(10) -0.04334(14) 0.61128(7)
N1 N 0.98567(10) 0.33405(14) 0.11638(8)
H1 H 1.0187 0.3456 0.0690
N2 N 1.06665(10) 0.30293(14) 0.27345(8)
H2 H 1.0317 0.3014 0.3203
N3 N 1.17533(10) 0.13526(15) 0.33969(8)
H3 H 1.2279 0.0767 0.3351
N4 N 1.05707(10) 0.22678(14) 0.43352(8)
N5 N 1.17993(10) 0.04736(14) 0.47520(8)
C1 C 1.00581(16) 0.0853(2) -0.18258(11)
H4 H 1.0695 0.1442 -0.1740
H5 H 1.0162 -0.0019 -0.2147
C2 C 0.90252(18) 0.1560(2) -0.19567(11)
H6 H 0.8486 0.1127 -0.2357
H7 H 0.9019 0.2589 -0.1950
C3 C 0.93094(14) 0.08205(17) -0.11251(10)
H8 H 0.8943 -0.0082 -0.1031
C4 C 0.95231(14) 0.17112(17) -0.03618(10)
C5 C 0.88087(12) 0.16383(17) 0.03524(10)
C6 C 0.79319(14) 0.0755(2) 0.02989(12)
H9 H 0.7797 0.0215 -0.0206
C7 C 0.72575(15) 0.0639(2) 0.09523(13)
H10 H 0.6672 0.0023 0.0901
C8 C 0.74454(14) 0.1432(2) 0.16818(12)
H11 H 0.6987 0.1354 0.2137
C9 C 0.82919(13) 0.23370(19) 0.17609(10)
H12 H 0.8403 0.2886 0.2264
C10 C 0.89805(12) 0.24451(16) 0.11062(9)
C11 C 1.14737(12) 0.20858(16) 0.26595(9)
C12 C 1.13446(12) 0.13831(16) 0.42007(9)
C13 C 1.01967(12) 0.22237(17) 0.51212(9)
C14 C 1.05796(13) 0.13144(18) 0.57482(9)
H13 H 1.0303 0.1274 0.6299
C15 C 1.13996(13) 0.04587(18) 0.55188(10)
C16 C 0.89737(16) 0.3201(2) 0.60284(11)
H14 H 0.8605 0.2326 0.6124
H15 H 0.8472 0.3974 0.6035
H16 H 0.9531 0.3336 0.6484
C17 C 1.26553(16) -0.1300(2) 0.58797(12)
H17 H 1.2435 -0.1851 0.5372
H18 H 1.2862 -0.1925 0.6357
H19 H 1.3256 -0.0714 0.5752
loop_
_geom_bond_atom_site_label_1
_geom_bond_atom_site_label_2
_geom_bond_site_symmetry_1
_geom_bond_site_symmetry_2
S1 O2 1_555 1_555
O1 C4 1_555 1_555
O3 S1 1_555 1_555
O4 C11 1_555 1_555
O5 C13 1_555 1_555
O6 C15 1_555 1_555
N1 S1 1_555 1_555
H1 N1 1_555 1_555
N2 S1 1_555 1_555
H2 N2 1_555 1_555
N3 H3 1_555 1_555
N4 C12 1_555 1_555
N5 C12 1_555 1_555
C1 H4 1_555 1_555
H5 C1 1_555 1_555
C2 C1 1_555 1_555
H6 C2 1_555 1_555
H7 C2 1_555 1_555
C3 C1 1_555 1_555
H8 C3 1_555 1_555
C4 C3 1_555 1_555
C5 C4 1_555 1_555
C6 C5 1_555 1_555
H9 C6 1_555 1_555
C7 C6 1_555 1_555
H10 C7 1_555 1_555
C8 C7 1_555 1_555
H11 C8 1_555 1_555
C9 C8 1_555 1_555
H12 C9 1_555 1_555
C10 N1 1_555 1_555
C11 N2 1_555 1_555
C12 N3 1_555 1_555
C13 N4 1_555 1_555
C14 C13 1_555 1_555
H13 C14 1_555 1_555
C15 N5 1_555 1_555
C16 O5 1_555 1_555
H14 C16 1_555 1_555
H15 C16 1_555 1_555
H16 C16 1_555 1_555
C17 O6 1_555 1_555
H17 C17 1_555 1_555
H18 C17 1_555 1_555
H19 C17 1_555 1_555
N3 C11 1_555 1_555
C2 C3 1_555 1_555
C5 C10 1_555 1_555
C9 C10 1_555 1_555
C14 C15 1_555 1_555

#END
