
#######################################################################
#
#                 Cambridge Crystallographic Data Centre
#                                CCDC 
#
#######################################################################
#
# If this CIF has been generated from an entry in the Cambridge 
# Structural Database, then it will include bibliographic, chemical, 
# crystal, experimental, refinement or atomic coordinate data resulting 
# from the CCDC's data processing and validation procedures.
#
#######################################################################

data_BUTCEZ
_chemical_formula_moiety         'C23 H22 Br1 N1 O3 S1'
_chemical_name_systematic        
N-(1-Bromo-3-oxo-1,3-diphenylpropan-2-yl)-N,4-dimethylbenzenesulfonamide
_symmetry_cell_setting           triclinic
_symmetry_space_group_name_H-M   'P -1'
_symmetry_Int_Tables_number      2
_space_group_name_Hall           '-P 1'
loop_
_symmetry_equiv_pos_site_id
_symmetry_equiv_pos_as_xyz
1 x,y,z
2 -x,-y,-z
_cell_length_a                   9.3355(17)
_cell_length_b                   9.7351(18)
_cell_length_c                   13.257(3)
_cell_angle_alpha                71.587(2)
_cell_angle_beta                 80.260(2)
_cell_angle_gamma                71.765(3)
_cell_volume                     1082.42
_cell_formula_units_Z            2
loop_
_atom_site_label
_atom_site_type_symbol
_atom_site_fract_x
_atom_site_fract_y
_atom_site_fract_z
Br1 Br -0.20769(6) 0.67535(5) 0.05704(4)
C1 C 0.0177(5) 0.6243(4) 0.1975(3)
C2 C 0.0224(6) 0.7081(5) 0.2630(3)
H1 H -0.0613 0.7363 0.3088
C3 C 0.1520(7) 0.7502(6) 0.2602(4)
H2 H 0.1549 0.8057 0.3051
C4 C 0.2737(7) 0.7122(6) 0.1937(4)
H3 H 0.3593 0.7422 0.1928
C5 C 0.2723(6) 0.6289(5) 0.1269(3)
H4 H 0.3562 0.6029 0.0807
C6 C 0.1455(6) 0.5851(4) 0.1298(3)
H5 H 0.1446 0.5279 0.0855
C7 C -0.1233(5) 0.5824(4) 0.1986(3)
H6 H -0.1980 0.6209 0.2517
C8 C -0.1044(4) 0.4135(4) 0.2232(3)
H7 H -0.0379 0.3771 0.1660
C9 C -0.2579(5) 0.3836(5) 0.2278(3)
C10 C -0.2752(4) 0.2713(4) 0.1818(3)
C11 C -0.1532(5) 0.1655(4) 0.1481(3)
H8 H -0.0549 0.1646 0.1536
C12 C -0.1774(5) 0.0633(5) 0.1070(3)
H9 H -0.0956 -0.0068 0.0844
C13 C -0.3237(6) 0.0641(5) 0.0990(3)
H10 H -0.3398 -0.0054 0.0707
C14 C -0.4448(6) 0.1670(6) 0.1325(3)
H11 H -0.5430 0.1677 0.1266
C15 C -0.4205(5) 0.2681(5) 0.1744(3)
H12 H -0.5028 0.3363 0.1985
C16 C -0.1246(5) 0.3420(6) 0.4258(3)
H13 H -0.2063 0.4331 0.4134
H14 H -0.0611 0.3431 0.4753
H15 H -0.1648 0.2568 0.4548
C17 C 0.2203(4) 0.1947(4) 0.4200(3)
C18 C 0.2865(5) 0.3103(5) 0.3928(3)
H16 H 0.2693 0.3847 0.3283
C19 C 0.3785(5) 0.3154(5) 0.4616(3)
H17 H 0.4221 0.3946 0.4433
C20 C 0.4070(4) 0.2062(5) 0.5563(3)
C21 C 0.3402(5) 0.0904(5) 0.5828(3)
H18 H 0.3590 0.0153 0.6469
C22 C 0.2460(5) 0.0844(4) 0.5157(3)
H19 H 0.2001 0.0066 0.5348
C23 C 0.5113(5) 0.2116(6) 0.6306(4)
H20 H 0.6107 0.2056 0.5952
H21 H 0.5161 0.1283 0.6937
H22 H 0.4728 0.3044 0.6498
N1 N -0.0346(3) 0.3315(4) 0.3239(2)
O1 O -0.3670(3) 0.4552(4) 0.2730(3)
O2 O 0.1845(3) 0.2012(3) 0.22643(18)
O3 O 0.0620(3) 0.0478(3) 0.3783(2)
S1 S 0.10882(10) 0.18127(10) 0.33061(7)
loop_
_geom_bond_atom_site_label_1
_geom_bond_atom_site_label_2
_geom_bond_site_symmetry_1
_geom_bond_site_symmetry_2
Br1 C7 1_555 1_555
C1 C2 1_555 1_555
C2 H1 1_555 1_555
C3 C2 1_555 1_555
H2 C3 1_555 1_555
C4 C3 1_555 1_555
H3 C4 1_555 1_555
C5 C4 1_555 1_555
H4 C5 1_555 1_555
C6 C1 1_555 1_555
H5 C6 1_555 1_555
C7 C1 1_555 1_555
H6 C7 1_555 1_555
C8 C7 1_555 1_555
H7 C8 1_555 1_555
C9 C8 1_555 1_555
C10 C9 1_555 1_555
C11 C10 1_555 1_555
H8 C11 1_555 1_555
C12 C11 1_555 1_555
H9 C12 1_555 1_555
C13 C12 1_555 1_555
H10 C13 1_555 1_555
C14 C13 1_555 1_555
H11 C14 1_555 1_555
C15 C10 1_555 1_555
H12 C15 1_555 1_555
C16 H13 1_555 1_555
H14 C16 1_555 1_555
H15 C16 1_555 1_555
C17 C18 1_555 1_555
C18 H16 1_555 1_555
C19 C18 1_555 1_555
H17 C19 1_555 1_555
C20 C19 1_555 1_555
C21 C20 1_555 1_555
H18 C21 1_555 1_555
C22 C17 1_555 1_555
H19 C22 1_555 1_555
C23 C20 1_555 1_555
H20 C23 1_555 1_555
H21 C23 1_555 1_555
H22 C23 1_555 1_555
N1 C8 1_555 1_555
O1 C9 1_555 1_555
O2 S1 1_555 1_555
O3 S1 1_555 1_555
S1 C17 1_555 1_555
C5 C6 1_555 1_555
C14 C15 1_555 1_555
C16 N1 1_555 1_555
C21 C22 1_555 1_555
N1 S1 1_555 1_555

#END
