
#######################################################################
#
#                 Cambridge Crystallographic Data Centre
#                                CCDC 
#
#######################################################################
#
# If this CIF has been generated from an entry in the Cambridge 
# Structural Database, then it will include bibliographic, chemical, 
# crystal, experimental, refinement or atomic coordinate data resulting 
# from the CCDC's data processing and validation procedures.
#
#######################################################################

data_BUTFIH
_chemical_formula_moiety         'C22 H21 Br1 N2 O3 S2'
_chemical_name_systematic        
N-(4-Methylphenylsulfonyl)phenethylimidoyl-S,S-methyl-2-bromophenylsulfoximide
_symmetry_cell_setting           orthorhombic
_symmetry_space_group_name_H-M   'P b c a'
_symmetry_Int_Tables_number      61
_space_group_name_Hall           '-P 2ac 2ab'
loop_
_symmetry_equiv_pos_site_id
_symmetry_equiv_pos_as_xyz
1 x,y,z
2 1/2-x,-y,1/2+z
3 -x,1/2+y,1/2-z
4 1/2+x,1/2-y,-z
5 -x,-y,-z
6 1/2+x,y,1/2-z
7 x,1/2-y,1/2+z
8 1/2-x,1/2+y,z
_cell_length_a                   11.7745(2)
_cell_length_b                   15.3391(3)
_cell_length_c                   24.3582(4)
_cell_angle_alpha                90
_cell_angle_beta                 90
_cell_angle_gamma                90
_cell_volume                     4399.34
_exptl_crystal_colour            colorless
_exptl_crystal_description       block
_chemical_melting_point          '171-173 deg.C'
_cell_formula_units_Z            8
loop_
_atom_site_label
_atom_site_type_symbol
_atom_site_fract_x
_atom_site_fract_y
_atom_site_fract_z
Br1 Br 0.69078(2) 0.05952(2) 0.59709(2)
S1 S 0.53136(4) 0.11229(3) 0.71090(2)
S2 S 0.34838(5) -0.11065(3) 0.63997(2)
C1 C 0.48829(18) 0.13786(12) 0.64220(8)
C2 C 0.54840(19) 0.11635(14) 0.59502(9)
C3 C 0.38538(19) 0.18175(14) 0.63754(9)
H1 H 0.3454 0.1974 0.669
C4 C 0.5040(2) 0.13649(17) 0.54417(10)
H2 H 0.5437 0.1216 0.5125
C5 C 0.3424(2) 0.20208(16) 0.58650(11)
H3 H 0.2737 0.2317 0.5835
C6 C 0.4011(2) 0.17862(18) 0.54016(10)
H4 H 0.3711 0.1912 0.5058
O1 O 0.44119(14) 0.13934(11) 0.74710(6)
O2 O 0.40942(15) -0.14944(11) 0.59517(7)
O3 O 0.29604(15) -0.16898(11) 0.67859(7)
N1 N 0.57840(14) 0.01727(11) 0.71723(7)
N2 N 0.42250(15) -0.03728(11) 0.67194(7)
C7 C 0.69203(19) -0.13949(13) 0.67235(9)
C8 C 0.51971(17) -0.05058(13) 0.69566(8)
C9 C 0.0962(2) 0.06327(16) 0.62586(10)
H5 H 0.0497 0.0948 0.6495
C10 C 0.24343(18) -0.04111(14) 0.61250(8)
C11 C 0.17447(19) 0.00639(17) 0.64737(9)
H6 H 0.1811 -0.0002 0.6852
C12 C 0.58027(19) -0.13719(14) 0.70267(10)
H7 H 0.5938 -0.1475 0.7414
H8 H 0.5319 -0.1836 0.6892
C13 C 0.08480(19) 0.07485(15) 0.56960(10)
C14 C 0.78744(19) -0.09848(15) 0.69330(10)
H9 H 0.7831 -0.0704 0.7271
C15 C 0.7007(2) -0.18138(16) 0.62228(11)
H10 H 0.6376 -0.2092 0.6074
C16 C 0.2319(2) -0.03216(17) 0.55655(9)
H11 H 0.2771 -0.0647 0.5329
C17 C 0.8037(3) -0.1820(2) 0.59390(11)
H12 H 0.809 -0.2107 0.5604
C18 C 0.6526(2) 0.17520(16) 0.72398(11)
H13 H 0.6338 0.2359 0.7212
H14 H 0.7105 0.1612 0.6976
H15 H 0.68 0.1629 0.7603
C19 C 0.8883(2) -0.09863(18) 0.66502(11)
H16 H 0.9512 -0.0702 0.6796
C20 C 0.1526(2) 0.02548(17) 0.53571(10)
H17 H 0.1449 0.031 0.4979
C21 C 0.8972(2) -0.1406(2) 0.61519(12)
H18 H 0.9657 -0.1408 0.5962
C22 C 0.0030(2) 0.14110(18) 0.54670(12)
H19 H 0.0323 0.1987 0.5529
H20 H -0.0692 0.1352 0.5646
H21 H -0.0061 0.1317 0.508
loop_
_geom_bond_atom_site_label_1
_geom_bond_atom_site_label_2
_geom_bond_site_symmetry_1
_geom_bond_site_symmetry_2
Br1 C2 1_555 1_555
S1 C1 1_555 1_555
S2 O2 1_555 1_555
C1 C2 1_555 1_555
C2 C4 1_555 1_555
C3 C1 1_555 1_555
H1 C3 1_555 1_555
C4 H2 1_555 1_555
C5 C3 1_555 1_555
H3 C5 1_555 1_555
C6 C4 1_555 1_555
H4 C6 1_555 1_555
O1 S1 1_555 1_555
O3 S2 1_555 1_555
N1 S1 1_555 1_555
N2 S2 1_555 1_555
C7 C12 1_555 1_555
C8 N1 1_555 1_555
C9 H5 1_555 1_555
C10 S2 1_555 1_555
C11 C9 1_555 1_555
H6 C11 1_555 1_555
C12 C8 1_555 1_555
H7 C12 1_555 1_555
H8 C12 1_555 1_555
C13 C9 1_555 1_555
C14 C7 1_555 1_555
H9 C14 1_555 1_555
C15 C7 1_555 1_555
H10 C15 1_555 1_555
C16 C10 1_555 1_555
H11 C16 1_555 1_555
C17 C15 1_555 1_555
H12 C17 1_555 1_555
C18 S1 1_555 1_555
H13 C18 1_555 1_555
H14 C18 1_555 1_555
H15 C18 1_555 1_555
C19 C14 1_555 1_555
H16 C19 1_555 1_555
C20 C13 1_555 1_555
H17 C20 1_555 1_555
C21 C17 1_555 1_555
H18 C21 1_555 1_555
C22 C13 1_555 1_555
H19 C22 1_555 1_555
H20 C22 1_555 1_555
H21 C22 1_555 1_555
C5 C6 1_555 1_555
N2 C8 1_555 1_555
C10 C11 1_555 1_555
C16 C20 1_555 1_555
C19 C21 1_555 1_555

#END
