
#######################################################################
#
#                 Cambridge Crystallographic Data Centre
#                                CCDC 
#
#######################################################################
#
# If this CIF has been generated from an entry in the Cambridge 
# Structural Database, then it will include bibliographic, chemical, 
# crystal, experimental, refinement or atomic coordinate data resulting 
# from the CCDC's data processing and validation procedures.
#
#######################################################################

data_BUTJUV
_chemical_formula_moiety         'C22 H18 Br1 Cl1 O2'
_chemical_name_systematic        
(Z)-1-Bromo-2-(p-chlorophenyl)-1,2-bis(p-methoxyphenyl)-ethylene
_symmetry_cell_setting           monoclinic
_symmetry_space_group_name_H-M   'P 21/n'
_symmetry_Int_Tables_number      14
_space_group_name_Hall           '-P 2yn'
loop_
_symmetry_equiv_pos_site_id
_symmetry_equiv_pos_as_xyz
1 x,y,z
2 1/2-x,1/2+y,1/2-z
3 -x,-y,-z
4 1/2+x,1/2-y,1/2+z
_cell_length_a                   19.502(10)
_cell_length_b                   9.118(5)
_cell_length_c                   11.233(6)
_cell_angle_alpha                90
_cell_angle_beta                 88.18(1)
_cell_angle_gamma                90
_cell_volume                     1996.44
_cell_formula_units_Z            4
loop_
_atom_site_label
_atom_site_type_symbol
_atom_site_fract_x
_atom_site_fract_y
_atom_site_fract_z
Br1 Br 0.50950 0.10520 0.34760
Cl1 Cl 0.67780 -0.05080 0.83190
O1 O 0.90560 0.08260 0.05850
O2 O 0.56780 0.42570 -0.17650
C1 C 0.72040 0.11310 0.24960
C2 C 0.84690 0.10200 0.12920
C3 C 0.65410 0.11810 0.31950
C4 C 0.69370 -0.09270 0.59920
C5 C 0.62710 0.34190 0.12240
C6 C 0.78010 0.17380 0.30060
C7 C 0.62220 0.41690 0.01380
C8 C 0.72660 0.05060 0.13830
C9 C 0.57560 0.36270 -0.06700
C10 C 0.68910 -0.05590 0.47770
C11 C 0.64110 0.13800 0.65480
C12 C 0.58700 0.22270 0.15150
C13 C 0.84250 0.16670 0.23730
C14 C 0.65810 0.07540 0.44750
C15 C 0.78800 0.04070 0.07630
C16 C 0.59420 0.15350 0.26540
C17 C 0.63600 0.17090 0.53670
C18 C 0.53960 0.17640 0.06750
C19 C 0.67040 0.00280 0.68260
C20 C 0.53550 0.24300 -0.04030
C21 C 0.60620 0.55400 -0.20970
C22 C 0.96910 0.14710 0.11020
H1 H 0.61330 0.18860 0.73050
H2 H 0.77190 0.20290 0.39660
H3 H 0.79840 0.01480 -0.01170
H4 H 0.66220 0.39350 0.18770
H5 H 0.68610 0.01130 0.09110
H6 H 0.71350 -0.11140 0.39970
H7 H 0.50390 0.10170 0.08870
H8 H 0.51240 0.18500 -0.11600
H9 H 0.71690 -0.19470 0.63130
H10 H 0.66350 0.48560 -0.00630
H11 H 0.59960 0.60300 -0.29010
H12 H 1.00410 0.13130 0.02070
H13 H 0.88420 0.22890 0.27950
H14 H 0.60390 0.63350 -0.13260
H15 H 0.60860 0.26560 0.50280
H16 H 0.65450 0.52400 -0.20510
H17 H 0.97040 0.07080 0.16110
H18 H 0.94880 0.20980 0.08970
loop_
_geom_bond_atom_site_label_1
_geom_bond_atom_site_label_2
_geom_bond_site_symmetry_1
_geom_bond_site_symmetry_2
Br1 C16 1_555 1_555
Cl1 C19 1_555 1_555
O1 C2 1_555 1_555
O2 C9 1_555 1_555
C1 C3 1_555 1_555
C2 C13 1_555 1_555
C3 C14 1_555 1_555
C4 C10 1_555 1_555
C5 C7 1_555 1_555
C6 C1 1_555 1_555
C7 C9 1_555 1_555
C8 C1 1_555 1_555
C9 C20 1_555 1_555
C10 C14 1_555 1_555
C11 C17 1_555 1_555
C12 C5 1_555 1_555
C13 C6 1_555 1_555
C14 C17 1_555 1_555
C15 C2 1_555 1_555
C16 C3 1_555 1_555
C17 H15 1_555 1_555
C18 C12 1_555 1_555
C19 C4 1_555 1_555
C20 C18 1_555 1_555
C21 O2 1_555 1_555
C22 O1 1_555 1_555
H1 C11 1_555 1_555
H2 C6 1_555 1_555
H3 C15 1_555 1_555
H4 C5 1_555 1_555
H5 C8 1_555 1_555
H6 C10 1_555 1_555
H7 C18 1_555 1_555
H8 C20 1_555 1_555
H9 C4 1_555 1_555
H10 C7 1_555 1_555
H11 C21 1_555 1_555
H12 C22 1_555 1_555
H13 C13 1_555 1_555
H14 C21 1_555 1_555
H16 C21 1_555 1_555
H17 C22 1_555 1_555
H18 C22 1_555 1_555
C8 C15 1_555 1_555
C11 C19 1_555 1_555
C12 C16 1_555 1_555

#END
