
#######################################################################
#
#                 Cambridge Crystallographic Data Centre
#                                CCDC 
#
#######################################################################
#
# If this CIF has been generated from an entry in the Cambridge 
# Structural Database, then it will include bibliographic, chemical, 
# crystal, experimental, refinement or atomic coordinate data resulting 
# from the CCDC's data processing and validation procedures.
#
#######################################################################

data_BUTNAH
_chemical_formula_moiety         'C46 H38 Se1'
_chemical_name_systematic        
2,7-di-t-butyl-9,15-diphenyldibenzo[10,11:6,7]tetraceno[2,3-b]selenophene
_symmetry_cell_setting           monoclinic
_symmetry_space_group_name_H-M   'P 21/c'
_symmetry_Int_Tables_number      14
_space_group_name_Hall           '-P 2ybc'
loop_
_symmetry_equiv_pos_site_id
_symmetry_equiv_pos_as_xyz
1 x,y,z
2 -x,1/2+y,1/2-z
3 -x,-y,-z
4 x,1/2-y,1/2+z
_cell_length_a                   15.8185(10)
_cell_length_b                   10.2356(6)
_cell_length_c                   24.1115(12)
_cell_angle_alpha                90
_cell_angle_beta                 118.525(3)
_cell_angle_gamma                90
_cell_volume                     3430.03
_exptl_crystal_colour            yellow
_exptl_crystal_description       prism
_cell_formula_units_Z            4
_exptl_crystal_recrystallization_method dichloromethane/methanol
_exptl_crystal_preparation       Luminescent
loop_
_atom_site_label
_atom_site_type_symbol
_atom_site_fract_x
_atom_site_fract_y
_atom_site_fract_z
Se1 Se 0.61213(10) -0.12375(12) -0.03779(5)
C1 C 0.5031(5) -0.1805(7) -0.0350(4)
H1 H 0.4455 -0.1971 -0.0714
C2 C 0.5142(15) -0.198(2) 0.0304(8)
H2 H 0.4718 -0.2385 0.0416
C3 C 0.96534(18) 0.0920(2) 0.38900(12)
C4 C 1.04017(18) 0.0642(2) 0.37333(13)
C5 C 1.01835(18) 0.0262(2) 0.31162(13)
C6 C 1.09585(19) -0.0081(2) 0.30209(13)
H3 H 1.0825 -0.0396 0.2625
C7 C 1.19175(19) 0.0017(2) 0.34790(15)
C8 C 1.2116(2) 0.0495(3) 0.40611(15)
H4 H 1.2753 0.0622 0.4367
C9 C 1.1373(2) 0.0793(3) 0.42010(14)
C10 C 1.1577(2) 0.1236(3) 0.48158(15)
H5 H 1.2214 0.1326 0.5126
C11 C 1.0875(2) 0.1522(3) 0.49560(14)
H6 H 1.1034 0.1803 0.5361
C12 C 0.98814(19) 0.1401(2) 0.44911(13)
C13 C 0.9150(2) 0.1805(3) 0.46193(13)
H7 H 0.9308 0.2089 0.5024
C14 C 0.8200(2) 0.1794(3) 0.41611(13)
C15 C 0.79824(19) 0.1251(2) 0.35783(13)
H8 H 0.7341 0.1225 0.3268
C16 C 0.86731(18) 0.0745(2) 0.34344(12)
C17 C 0.84282(18) 0.0154(2) 0.28143(12)
C18 C 0.75195(18) -0.0359(2) 0.24135(12)
C19 C 0.72588(18) -0.0666(2) 0.17760(12)
C20 C 0.63436(19) -0.1194(2) 0.13507(12)
H9 H 0.5921 -0.1427 0.1500
C21 C 0.6074(2) -0.1364(3) 0.07248(14)
C22 C 0.6711(2) -0.1018(3) 0.04965(15)
C23 C 0.7610(2) -0.0548(2) 0.08949(13)
H10 H 0.8023 -0.0330 0.0736
C24 C 0.79162(18) -0.0389(2) 0.15440(12)
C25 C 0.88785(18) -0.0007(2) 0.19776(13)
C26 C 0.91622(18) 0.0142(2) 0.26173(12)
C27 C 0.95187(18) 0.0301(2) 0.16963(12)
C28 C 0.97750(18) 0.1586(2) 0.16732(12)
H11 H 0.9583 0.2238 0.1858
C29 C 1.0310(2) 0.1913(3) 0.13797(14)
H12 H 1.0471 0.2781 0.1364
C30 C 1.0605(2) 0.0958(3) 0.11119(14)
H13 H 1.0973 0.1177 0.0919
C31 C 1.0358(2) -0.0321(3) 0.11271(15)
H14 H 1.0552 -0.0967 0.0941
C32 C 0.9819(2) -0.0646(3) 0.14191(14)
H15 H 0.9656 -0.1515 0.1430
C33 C 0.67981(19) -0.0691(3) 0.26297(12)
C34 C 0.5913(2) -0.0072(3) 0.23977(15)
H16 H 0.5766 0.0608 0.2111
C35 C 0.5252(2) -0.0437(4) 0.25803(18)
H17 H 0.4664 -0.0008 0.2419
C36 C 0.5459(3) -0.1437(5) 0.3001(2)
H18 H 0.5011 -0.1686 0.3127
C37 C 0.6327(3) -0.2073(4) 0.32387(18)
H19 H 0.6465 -0.2755 0.3524
C38 C 0.6998(2) -0.1702(3) 0.30534(14)
H20 H 0.7585 -0.2136 0.3215
C39 C 0.7399(2) 0.2413(3) 0.42593(14)
C40 C 0.7040(4) 0.3604(5) 0.3845(2)
H21 H 0.6466 0.3919 0.3840
H22 H 0.6903 0.3381 0.3423
H23 H 0.7525 0.4273 0.4006
C41 C 0.6570(3) 0.1472(5) 0.4074(3)
H24 H 0.6111 0.1838 0.4184
H25 H 0.6807 0.0660 0.4293
H26 H 0.6265 0.1322 0.3627
C42 C 0.7727(3) 0.2778(4) 0.49354(17)
H27 H 0.8220 0.3433 0.5065
H28 H 0.7978 0.2020 0.5198
H29 H 0.7192 0.3117 0.4975
C43 C 1.2713(2) -0.0403(3) 0.33223(16)
C44 C 1.2601(3) -0.1840(3) 0.3164(2)
H30 H 1.2609 -0.2324 0.3508
H31 H 1.3122 -0.2125 0.3095
H32 H 1.2001 -0.1985 0.2789
C45 C 1.2637(3) 0.0410(4) 0.27738(19)
H33 H 1.3143 0.0170 0.2682
H34 H 1.2694 0.1319 0.2884
H35 H 1.2025 0.0256 0.2409
C46 C 1.3719(2) -0.0156(3) 0.38768(18)
H36 H 1.3782 -0.0603 0.4245
H37 H 1.3810 0.0764 0.3961
H38 H 1.4196 -0.0476 0.3772
Se2? Se 0.49426(8) -0.20351(10) 0.00871(7)
C47? C 0.5460(6) -0.1834(9) -0.0465(4)
H39? H 0.5119 -0.2025 -0.0894
C48? C 0.6455(10) -0.1348(18) -0.0156(9)
H40? H 0.6850 -0.1264 -0.0341
loop_
_geom_bond_atom_site_label_1
_geom_bond_atom_site_label_2
_geom_bond_site_symmetry_1
_geom_bond_site_symmetry_2
Se1 C1 1_555 1_555
C1 H1 1_555 1_555
C2 C1 1_555 1_555
H2 C2 1_555 1_555
C3 C4 1_555 1_555
C4 C5 1_555 1_555
C5 C6 1_555 1_555
C6 H3 1_555 1_555
C7 C6 1_555 1_555
C8 C7 1_555 1_555
H4 C8 1_555 1_555
C9 C4 1_555 1_555
C10 C9 1_555 1_555
H5 C10 1_555 1_555
C11 C10 1_555 1_555
H6 C11 1_555 1_555
C12 C3 1_555 1_555
C13 C12 1_555 1_555
H7 C13 1_555 1_555
C14 C13 1_555 1_555
C15 C14 1_555 1_555
H8 C15 1_555 1_555
C16 C3 1_555 1_555
C17 C16 1_555 1_555
C18 C17 1_555 1_555
C19 C18 1_555 1_555
C20 C19 1_555 1_555
H9 C20 1_555 1_555
C21 C2 1_555 1_555
C22 Se1 1_555 1_555
C23 C22 1_555 1_555
H10 C23 1_555 1_555
C24 C19 1_555 1_555
C25 C24 1_555 1_555
C26 C5 1_555 1_555
C27 C25 1_555 1_555
C28 C27 1_555 1_555
H11 C28 1_555 1_555
C29 C28 1_555 1_555
H12 C29 1_555 1_555
C30 C29 1_555 1_555
H13 C30 1_555 1_555
C31 C30 1_555 1_555
H14 C31 1_555 1_555
C32 C27 1_555 1_555
H15 C32 1_555 1_555
C33 C18 1_555 1_555
C34 C33 1_555 1_555
H16 C34 1_555 1_555
C35 C34 1_555 1_555
H17 C35 1_555 1_555
C36 C35 1_555 1_555
H18 C36 1_555 1_555
C37 C36 1_555 1_555
H19 C37 1_555 1_555
C38 C33 1_555 1_555
H20 C38 1_555 1_555
C39 C14 1_555 1_555
C40 C39 1_555 1_555
H21 C40 1_555 1_555
H22 C40 1_555 1_555
H23 C40 1_555 1_555
C41 C39 1_555 1_555
H24 C41 1_555 1_555
H25 C41 1_555 1_555
H26 C41 1_555 1_555
C42 C39 1_555 1_555
H27 C42 1_555 1_555
H28 C42 1_555 1_555
H29 C42 1_555 1_555
C43 C7 1_555 1_555
C44 C43 1_555 1_555
H30 C44 1_555 1_555
H31 C44 1_555 1_555
H32 C44 1_555 1_555
C45 C43 1_555 1_555
H33 C45 1_555 1_555
H34 C45 1_555 1_555
H35 C45 1_555 1_555
C46 C43 1_555 1_555
H36 C46 1_555 1_555
H37 C46 1_555 1_555
H38 C46 1_555 1_555
C8 C9 1_555 1_555
C11 C12 1_555 1_555
C15 C16 1_555 1_555
C17 C26 1_555 1_555
C20 C21 1_555 1_555
C21 C22 1_555 1_555
C23 C24 1_555 1_555
C25 C26 1_555 1_555
C31 C32 1_555 1_555
C37 C38 1_555 1_555

#END
