
#######################################################################
#
#                 Cambridge Crystallographic Data Centre
#                                CCDC 
#
#######################################################################
#
# If this CIF has been generated from an entry in the Cambridge 
# Structural Database, then it will include bibliographic, chemical, 
# crystal, experimental, refinement or atomic coordinate data resulting 
# from the CCDC's data processing and validation procedures.
#
#######################################################################

data_BUTTIU
_chemical_formula_moiety         'C25 H19 N3 O4 S2,3(C2 H6 O1 S1)'
_chemical_name_systematic        
"3,3'-pyridine-2,6-diylbis(5-phenyl-4H-1,4-thiazine) 1,1,1',1'-tetraoxide dimethylsulfoxide solvate"
_symmetry_cell_setting           triclinic
_symmetry_space_group_name_H-M   'P -1'
_symmetry_Int_Tables_number      2
_space_group_name_Hall           '-P 1'
loop_
_symmetry_equiv_pos_site_id
_symmetry_equiv_pos_as_xyz
1 x,y,z
2 -x,-y,-z
_cell_length_a                   10.6274(5)
_cell_length_b                   10.8445(7)
_cell_length_c                   14.7918(11)
_cell_angle_alpha                86.690(3)
_cell_angle_beta                 87.617(3)
_cell_angle_gamma                81.397(3)
_cell_volume                     1681.81
_exptl_crystal_colour            colorless
_exptl_crystal_description       plate
_cell_formula_units_Z            2
loop_
_atom_site_label
_atom_site_type_symbol
_atom_site_fract_x
_atom_site_fract_y
_atom_site_fract_z
C1 C 0.3634(2) 0.1447(2) 0.56062(17)
H1 H 0.3835 0.1315 0.4984
C2 C 0.2378(2) 0.1570(3) 0.59216(19)
H2 H 0.1721 0.1544 0.5510
C3 C 0.2073(2) 0.1728(3) 0.68260(19)
H3 H 0.1208 0.1817 0.7034
C4 C 0.3033(2) 0.1759(2) 0.74372(18)
H4 H 0.2828 0.1845 0.8064
C5 C 0.4285(2) 0.1661(2) 0.71194(17)
H5 H 0.4939 0.1691 0.7533
C6 C 0.4605(2) 0.1519(2) 0.62004(16)
C7 C 0.5947(2) 0.1452(2) 0.58716(16)
N1 N 0.61381(17) 0.17821(19) 0.49717(13)
H6 H 0.5478 0.2155 0.4670
C8 C 0.7292(2) 0.1568(2) 0.45130(17)
C9 C 0.8405(2) 0.1217(2) 0.49358(17)
H7 H 0.9162 0.1001 0.4580
S1 S 0.84901(6) 0.11525(6) 0.60888(4)
O1 O 0.92960(18) 0.0031(2) 0.63947(14)
O2 O 0.88610(17) 0.2292(2) 0.63766(14)
C10 C 0.6945(2) 0.1063(2) 0.64177(17)
H8 H 0.6775 0.0726 0.7009
C11 C 0.7228(2) 0.1667(2) 0.35103(17)
N2 N 0.60742(17) 0.15865(18) 0.31934(14)
C12 C 0.5966(2) 0.1627(2) 0.22970(16)
C13 C 0.6963(2) 0.1768(2) 0.16827(17)
H9 H 0.6845 0.1789 0.1049
C14 C 0.8139(2) 0.1878(2) 0.20202(17)
H10 H 0.8839 0.1984 0.1618
C15 C 0.8278(2) 0.1830(2) 0.29450(17)
H11 H 0.9073 0.1907 0.3191
C16 C 0.4680(2) 0.1504(2) 0.19809(16)
N3 N 0.36591(17) 0.20915(18) 0.24653(14)
H12 H 0.3795 0.2405 0.2982
C17 C 0.2427(2) 0.2211(2) 0.21753(17)
C18 C 0.2113(2) 0.1613(2) 0.14583(17)
H13 H 0.1263 0.1796 0.1260
S2 S 0.31513(5) 0.05504(6) 0.08909(4)
O3 O 0.30533(16) 0.0793(2) -0.00785(12)
O4 O 0.29750(17) -0.07030(17) 0.11947(15)
C19 C 0.4577(2) 0.0848(2) 0.12447(17)
H14 H 0.5331 0.0540 0.0911
C20 C 0.1439(2) 0.3055(2) 0.26719(17)
C21 C 0.1384(2) 0.3019(3) 0.36149(17)
H15 H 0.1994 0.2462 0.3948
C22 C 0.0437(2) 0.3800(3) 0.4070(2)
H16 H 0.0394 0.3767 0.4713
C23 C -0.0441(2) 0.4624(3) 0.3586(2)
H17 H -0.1073 0.5172 0.3897
C24 C -0.0400(2) 0.4651(3) 0.2650(2)
H18 H -0.1013 0.5209 0.2320
C25 C 0.0535(2) 0.3867(2) 0.21885(18)
H19 H 0.0558 0.3886 0.1545
S3 S 0.43138(6) 0.48723(6) 0.39624(5)
C26 C 0.5906(3) 0.4895(3) 0.3542(2)
H20 H 0.6502 0.4479 0.3991
H21 H 0.6053 0.5762 0.3426
H22 H 0.6040 0.4457 0.2977
C27 C 0.3490(3) 0.5538(3) 0.2989(2)
H23 H 0.3814 0.5069 0.2460
H24 H 0.3624 0.6410 0.2886
H25 H 0.2578 0.5500 0.3083
O5 O 0.41275(16) 0.35206(16) 0.40236(12)
S4 S 0.62053(7) 0.56064(7) 0.11309(5)
C28 C 0.7270(3) 0.5341(3) 0.0175(2)
H26 H 0.7887 0.4590 0.0300
H27 H 0.7722 0.6061 0.0056
H28 H 0.6786 0.5227 -0.0356
C29 C 0.5177(3) 0.6889(3) 0.0638(2)
H29 H 0.4856 0.6647 0.0073
H30 H 0.5647 0.7594 0.0510
H31 H 0.4459 0.7134 0.1060
O6 O 0.5457(2) 0.45375(18) 0.12316(15)
S5 S 0.01363(6) 0.25194(7) -0.08633(5)
C30 C 0.0219(3) 0.0906(3) -0.1061(2)
H32 H 0.0995 0.0441 -0.0803
H33 H 0.0233 0.0797 -0.1714
H34 H -0.0527 0.0591 -0.0774
C31 C -0.1305(3) 0.3045(3) -0.14320(19)
H35 H -0.1987 0.2619 -0.1155
H36 H -0.1188 0.2856 -0.2073
H37 H -0.1534 0.3948 -0.1382
O7 O -0.01688(19) 0.2657(2) 0.01283(13)
loop_
_geom_bond_atom_site_label_1
_geom_bond_atom_site_label_2
_geom_bond_site_symmetry_1
_geom_bond_site_symmetry_2
C1 H1 1_555 1_555
C2 C1 1_555 1_555
H2 C2 1_555 1_555
C3 C2 1_555 1_555
H3 C3 1_555 1_555
C4 C3 1_555 1_555
H4 C4 1_555 1_555
C5 C4 1_555 1_555
H5 C5 1_555 1_555
C6 C1 1_555 1_555
C7 C6 1_555 1_555
N1 C7 1_555 1_555
H6 N1 1_555 1_555
C8 N1 1_555 1_555
C9 C8 1_555 1_555
H7 C9 1_555 1_555
S1 C9 1_555 1_555
O1 S1 1_555 1_555
O2 S1 1_555 1_555
C10 C7 1_555 1_555
H8 C10 1_555 1_555
C11 C8 1_555 1_555
N2 C11 1_555 1_555
C12 N2 1_555 1_555
C13 C12 1_555 1_555
H9 C13 1_555 1_555
C14 C13 1_555 1_555
H10 C14 1_555 1_555
C15 C11 1_555 1_555
H11 C15 1_555 1_555
C16 C12 1_555 1_555
N3 C16 1_555 1_555
H12 N3 1_555 1_555
C17 N3 1_555 1_555
C18 C17 1_555 1_555
H13 C18 1_555 1_555
S2 C18 1_555 1_555
O3 S2 1_555 1_555
O4 S2 1_555 1_555
C19 C16 1_555 1_555
H14 C19 1_555 1_555
C20 C17 1_555 1_555
C21 C20 1_555 1_555
H15 C21 1_555 1_555
C22 C21 1_555 1_555
H16 C22 1_555 1_555
C23 C22 1_555 1_555
H17 C23 1_555 1_555
C24 C23 1_555 1_555
H18 C24 1_555 1_555
C25 C20 1_555 1_555
H19 C25 1_555 1_555
S3 C26 1_555 1_555
C26 H20 1_555 1_555
H21 C26 1_555 1_555
H22 C26 1_555 1_555
C27 S3 1_555 1_555
H23 C27 1_555 1_555
H24 C27 1_555 1_555
H25 C27 1_555 1_555
O5 S3 1_555 1_555
S4 C28 1_555 1_555
C28 H26 1_555 1_555
H27 C28 1_555 1_555
H28 C28 1_555 1_555
C29 S4 1_555 1_555
H29 C29 1_555 1_555
H30 C29 1_555 1_555
H31 C29 1_555 1_555
O6 S4 1_555 1_555
S5 C30 1_555 1_555
C30 H32 1_555 1_555
H33 C30 1_555 1_555
H34 C30 1_555 1_555
C31 S5 1_555 1_555
H35 C31 1_555 1_555
H36 C31 1_555 1_555
H37 C31 1_555 1_555
O7 S5 1_555 1_555
C5 C6 1_555 1_555
S1 C10 1_555 1_555
C14 C15 1_555 1_555
S2 C19 1_555 1_555
C24 C25 1_555 1_555

#END
