
#######################################################################
#
#                 Cambridge Crystallographic Data Centre
#                                CCDC 
#
#######################################################################
#
# If this CIF has been generated from an entry in the Cambridge 
# Structural Database, then it will include bibliographic, chemical, 
# crystal, experimental, refinement or atomic coordinate data resulting 
# from the CCDC's data processing and validation procedures.
#
#######################################################################

data_BUTVAP
_chemical_name_common            
'(4aR,6R,8aS)-8a-(2,4-Difluorophenyl)-6-(fluoromethyl)-4,4a,5,6,8,8a-hexahydropyrano[3,4-d][1,3]thiazin-2-amine methanesulfonate'
_chemical_formula_moiety         'C14 H16 F3 N2 O1 S1 1+,C1 H3 O3 S1 1-'
_chemical_name_systematic        
'8a-(2,4-difluorophenyl)-6-(fluoromethyl)hexahydropyrano[3,4-d][1,3]thiazin-2(1H)-iminium methanesulfonate'
_chemical_properties_biological  'BACE1 inhibitor activity'
_symmetry_cell_setting           orthorhombic
_symmetry_space_group_name_H-M   'P 21 21 21'
_symmetry_Int_Tables_number      19
_space_group_name_Hall           'P 2ac 2ab'
loop_
_symmetry_equiv_pos_site_id
_symmetry_equiv_pos_as_xyz
1 x,y,z
2 1/2-x,-y,1/2+z
3 -x,1/2+y,1/2-z
4 1/2+x,1/2-y,-z
_cell_length_a                   7.54580(10)
_cell_length_b                   11.82020(10)
_cell_length_c                   19.8322(2)
_cell_angle_alpha                90
_cell_angle_beta                 90
_cell_angle_gamma                90
_cell_volume                     1768.89
_cell_formula_units_Z            4
loop_
_atom_site_label
_atom_site_type_symbol
_atom_site_fract_x
_atom_site_fract_y
_atom_site_fract_z
C1 C 0.1904(4) 0.5788(2) 0.24861(13)
H1 H 0.1226 0.6404 0.2681
H2 H 0.1132 0.5376 0.2181
C2 C 0.3536(4) 0.5647(2) 0.34962(13)
H3 H 0.2878 0.6308 0.3658
C3 C 0.5235(4) 0.6034(2) 0.31637(14)
H4 H 0.5889 0.5383 0.3001
H5 H 0.5968 0.6426 0.3491
C4 C 0.4823(4) 0.6828(2) 0.25734(13)
H6 H 0.4240 0.7495 0.2766
C5 C 0.3477(3) 0.6277(2) 0.20857(12)
C6 C 0.3905(5) 0.4866(3) 0.40809(16)
H7 H 0.4459 0.4179 0.3916
H8 H 0.4721 0.5229 0.4391
C7 C 0.6471(4) 0.7250(2) 0.22135(15)
H9 H 0.7283 0.7554 0.2546
H10 H 0.6136 0.7865 0.1915
C8 C 0.5995(4) 0.5196(2) 0.15671(12)
C9 C 0.2784(3) 0.7114(2) 0.15518(12)
C10 C 0.1934(4) 0.8119(2) 0.17154(13)
C11 C 0.1326(5) 0.8893(2) 0.12471(15)
H11 H 0.0755 0.9554 0.1379
C12 C 0.1599(4) 0.8645(3) 0.05838(16)
C13 C 0.2398(5) 0.7661(3) 0.03787(14)
H12 H 0.2544 0.7505 -0.0078
C14 C 0.2979(4) 0.6906(3) 0.08612(14)
H13 H 0.3518 0.6238 0.0723
F1 F 0.2388(5) 0.4601(3) 0.44101(15)
F2 F 0.1678(3) 0.83857(16) 0.23753(9)
F3 F 0.1082(4) 0.94016(18) 0.01139(10)
H14 H 0.371(4) 0.475(2) 0.1683(13)
H15 H 0.570(4) 0.381(2) 0.1103(14)
H16 H 0.778(6) 0.422(3) 0.113(2)
N1 N 0.4320(3) 0.53092(19) 0.17547(11)
N2 N 0.6485(4) 0.4278(2) 0.12419(12)
O1 O 0.2475(3) 0.50482(17) 0.30107(9)
S1 S 0.76187(10) 0.61842(7) 0.17246(5)
C15 C 0.1472(5) 0.2343(4) 0.01603(18)
H17 H 0.2296 0.1734 0.0223
H18 H 0.1933 0.2863 -0.0168
H19 H 0.0360 0.2046 0.0005
O2 O 0.0423(4) 0.2240(3) 0.13825(15)
O3 O 0.2913(3) 0.34063(18) 0.11364(12)
O4 O -0.0010(3) 0.3991(2) 0.07915(15)
S2 S 0.11547(9) 0.30517(6) 0.09313(3)
loop_
_geom_bond_atom_site_label_1
_geom_bond_atom_site_label_2
_geom_bond_site_symmetry_1
_geom_bond_site_symmetry_2
C1 H1 1_555 1_555
H2 C1 1_555 1_555
C2 H3 1_555 1_555
C3 C2 1_555 1_555
H4 C3 1_555 1_555
H5 C3 1_555 1_555
C4 C3 1_555 1_555
H6 C4 1_555 1_555
C5 C1 1_555 1_555
C6 C2 1_555 1_555
H7 C6 1_555 1_555
H8 C6 1_555 1_555
C7 C4 1_555 1_555
H9 C7 1_555 1_555
H10 C7 1_555 1_555
C8 N1 1_555 1_555
C9 C5 1_555 1_555
C10 C9 1_555 1_555
C11 C10 1_555 1_555
H11 C11 1_555 1_555
C12 C11 1_555 1_555
C13 C12 1_555 1_555
H12 C13 1_555 1_555
C14 C9 1_555 1_555
H13 C14 1_555 1_555
F1 C6 1_555 1_555
F2 C10 1_555 1_555
F3 C12 1_555 1_555
H14 N1 1_555 1_555
H15 N2 1_555 1_555
H16 N2 1_555 1_555
N1 C5 1_555 1_555
N2 C8 1_555 1_555
O1 C1 1_555 1_555
S1 C7 1_555 1_555
C15 H17 1_555 1_555
H18 C15 1_555 1_555
H19 C15 1_555 1_555
O2 S2 1_555 1_555
O3 S2 1_555 1_555
O4 S2 1_555 1_555
S2 C15 1_555 1_555
C2 O1 1_555 1_555
C4 C5 1_555 1_555
C8 S1 1_555 1_555
C13 C14 1_555 1_555

#END
