
#######################################################################
#
#                 Cambridge Crystallographic Data Centre
#                                CCDC 
#
#######################################################################
#
# If this CIF has been generated from an entry in the Cambridge 
# Structural Database, then it will include bibliographic, chemical, 
# crystal, experimental, refinement or atomic coordinate data resulting 
# from the CCDC's data processing and validation procedures.
#
#######################################################################

data_BUVDOM
_chemical_formula_moiety         'C19 H12 Br1 F3 O4'
_chemical_name_systematic        
4-(3-Bromophenyl)-2-hydroxy-2-(trifluoromethyl)-3,4-dihydro-2H,5H-pyrano[3,2-c]chromen-5-one
_symmetry_cell_setting           monoclinic
_symmetry_space_group_name_H-M   'C 2/c'
_symmetry_Int_Tables_number      15
_space_group_name_Hall           '-C 2yn'
loop_
_symmetry_equiv_pos_site_id
_symmetry_equiv_pos_as_xyz
1 x,y,z
2 -x,y,1/2-z
3 1/2+x,1/2+y,z
4 1/2-x,1/2+y,1/2-z
5 -x,-y,-z
6 x,-y,1/2+z
7 1/2-x,1/2-y,-z
8 1/2+x,1/2-y,1/2+z
_cell_length_a                   17.1540(13)
_cell_length_b                   9.0858(7)
_cell_length_c                   22.0144(16)
_cell_angle_alpha                90
_cell_angle_beta                 94.7550(10)
_cell_angle_gamma                90
_cell_volume                     3419.31
_exptl_crystal_colour            yellow
_exptl_crystal_description       block
_cell_formula_units_Z            8
loop_
_atom_site_label
_atom_site_type_symbol
_atom_site_fract_x
_atom_site_fract_y
_atom_site_fract_z
Br1 Br 0.08903(2) 0.24705(4) 0.057813(13)
O1 O 0.16141(11) 0.5617(2) 0.40110(8)
C1 C 0.17906(16) 0.4259(3) 0.28255(11)
H1 H 0.2096 0.4918 0.2585
C2 C 0.26683(16) 0.4309(3) 0.44923(11)
C3 C 0.21712(16) 0.4590(3) 0.39434(11)
C4 C 0.22774(15) 0.3889(3) 0.34122(11)
C5 C 0.12245(17) 0.6247(3) 0.34649(12)
C6 C 0.10526(16) 0.5084(3) 0.29874(12)
H2 H 0.0807 0.5540 0.2622
H3 H 0.0685 0.4382 0.3133
C7 C 0.04749(19) 0.6870(4) 0.36880(14)
C8 C 0.31117(19) 0.4704(3) 0.55435(13)
H4 H 0.3063 0.5174 0.5914
C9 C 0.32612(17) 0.3298(3) 0.44549(12)
C10 C 0.37010(19) 0.3694(4) 0.54901(13)
H5 H 0.4049 0.3494 0.5826
C11 C 0.37850(18) 0.2977(4) 0.49518(13)
H6 H 0.4183 0.2293 0.4920
C12 C 0.25947(17) 0.5017(3) 0.50485(11)
H7 H 0.2197 0.5699 0.5084
C13 C 0.10536(16) 0.2124(3) 0.14304(12)
C14 C 0.13849(16) 0.3222(3) 0.18018(12)
H8 H 0.1523 0.4118 0.1637
C15 C 0.08469(17) 0.0787(3) 0.16565(13)
H9 H 0.0627 0.0059 0.1399
C16 C 0.15092(16) 0.2971(3) 0.24242(12)
C17 C 0.09733(18) 0.0545(3) 0.22766(14)
H10 H 0.0836 -0.0354 0.2439
C18 C 0.13021(17) 0.1628(3) 0.26581(12)
H11 H 0.1384 0.1452 0.3075
O2 O 0.33746(11) 0.2583(2) 0.39189(8)
C19 C 0.29229(17) 0.2891(3) 0.33886(12)
O3 O 0.31190(12) 0.2269(2) 0.29373(9)
O4 O 0.16674(14) 0.7415(2) 0.32882(10)
H12 H 0.1746 0.7323 0.2928
F1 F 0.06005(11) 0.7904(2) 0.41076(8)
F2 F 0.00463(12) 0.5843(2) 0.39277(10)
F3 F 0.00387(12) 0.7457(2) 0.32233(9)
loop_
_geom_bond_atom_site_label_1
_geom_bond_atom_site_label_2
_geom_bond_site_symmetry_1
_geom_bond_site_symmetry_2
Br1 C13 1_555 1_555
O1 C3 1_555 1_555
C1 H1 1_555 1_555
C2 C3 1_555 1_555
C3 C4 1_555 1_555
C4 C1 1_555 1_555
C5 O1 1_555 1_555
C6 C1 1_555 1_555
H2 C6 1_555 1_555
H3 C6 1_555 1_555
C7 C5 1_555 1_555
C8 H4 1_555 1_555
C9 C2 1_555 1_555
C10 C8 1_555 1_555
H5 C10 1_555 1_555
C11 C9 1_555 1_555
H6 C11 1_555 1_555
C12 C2 1_555 1_555
H7 C12 1_555 1_555
C13 C14 1_555 1_555
C14 H8 1_555 1_555
C15 C13 1_555 1_555
H9 C15 1_555 1_555
C16 C1 1_555 1_555
C17 C15 1_555 1_555
H10 C17 1_555 1_555
C18 C16 1_555 1_555
H11 C18 1_555 1_555
O2 C9 1_555 1_555
C19 C4 1_555 1_555
O3 C19 1_555 1_555
O4 C5 1_555 1_555
H12 O4 1_555 1_555
F1 C7 1_555 1_555
F2 C7 1_555 1_555
F3 C7 1_555 1_555
C5 C6 1_555 1_555
C8 C12 1_555 1_555
C10 C11 1_555 1_555
C14 C16 1_555 1_555
C17 C18 1_555 1_555
O2 C19 1_555 1_555

#END
