
#######################################################################
#
#                 Cambridge Crystallographic Data Centre
#                                CCDC 
#
#######################################################################
#
# If this CIF has been generated from an entry in the Cambridge 
# Structural Database, then it will include bibliographic, chemical, 
# crystal, experimental, refinement or atomic coordinate data resulting 
# from the CCDC's data processing and validation procedures.
#
#######################################################################

data_BUVFOP
_chemical_formula_moiety         'C16 H26 O6'
_chemical_name_systematic        
'diethyl 4-hydroxy-4-methyl-6-oxo-2-propylcyclohexane-1,3-dicarboxylate'
_symmetry_cell_setting           monoclinic
_symmetry_space_group_name_H-M   'P 21/c'
_symmetry_Int_Tables_number      14
_space_group_name_Hall           '-P 2ybc'
loop_
_symmetry_equiv_pos_site_id
_symmetry_equiv_pos_as_xyz
1 x,y,z
2 -x,1/2+y,1/2-z
3 -x,-y,-z
4 x,1/2-y,1/2+z
_cell_length_a                   11.2212(2)
_cell_length_b                   9.38150(10)
_cell_length_c                   16.7778(3)
_cell_angle_alpha                90
_cell_angle_beta                 104.532(2)
_cell_angle_gamma                90
_cell_volume                     1709.72
_cell_formula_units_Z            4
loop_
_atom_site_label
_atom_site_type_symbol
_atom_site_fract_x
_atom_site_fract_y
_atom_site_fract_z
C1 C -0.01385(16) 0.78009(17) 0.05961(11)
C2 C 0.03878(15) 0.67390(16) 0.12706(10)
H1 H 0.0179 0.5784 0.1041
C3 C 0.18045(15) 0.68236(17) 0.15673(10)
H2 H 0.2003 0.7714 0.1878
C4 C 0.24252(15) 0.68950(16) 0.08486(10)
H3 H 0.3283 0.7178 0.1079
C5 C 0.18413(16) 0.80144(17) 0.01939(10)
C6 C 0.04477(16) 0.78016(18) -0.01085(10)
H4 H 0.0098 0.8561 -0.0488
H5 H 0.0280 0.6904 -0.0402
C7 C 0.24420(16) 0.54504(18) 0.04580(10)
C8 C 0.3690(2) 0.3653(2) 0.00878(16)
H6 H 0.4406 0.3634 -0.0138
H7 H 0.2967 0.3460 -0.0355
C9 C 0.3813(3) 0.2561(3) 0.07279(19)
H8 H 0.4498 0.2791 0.1181
H9 H 0.3950 0.1650 0.0506
H10 H 0.3073 0.2527 0.0916
C10 C -0.02037(16) 0.69114(18) 0.19776(11)
C11 C -0.1807(2) 0.6068(2) 0.25431(13)
H11 H -0.1926 0.7029 0.2722
H12 H -0.1304 0.5549 0.3007
C12 C -0.3010(2) 0.5350(3) 0.22372(15)
H13 H -0.3526 0.5915 0.1810
H14 H -0.3399 0.5238 0.2682
H15 H -0.2885 0.4429 0.2021
C13 C 0.22977(16) 0.55988(19) 0.21659(11)
H16 H 0.1811 0.5552 0.2569
H17 H 0.2175 0.4711 0.1860
C14 C 0.36411(18) 0.5708(2) 0.26201(12)
H18 H 0.4132 0.5766 0.2221
H19 H 0.3767 0.6582 0.2939
C15 C 0.4091(2) 0.4466(2) 0.31900(14)
H20 H 0.3568 0.4351 0.3559
H21 H 0.4919 0.4645 0.3501
H22 H 0.4071 0.3612 0.2871
C16 C 0.2429(2) 0.8017(2) -0.05261(12)
H23 H 0.2090 0.8780 -0.0895
H24 H 0.2269 0.7124 -0.0813
H25 H 0.3302 0.8149 -0.0327
O1 O -0.09823(12) 0.85905(13) 0.06333(8)
O2 O 0.20732(12) 0.93364(12) 0.06282(8)
H26 H 0.1783 0.9992 0.0316
O3 O 0.15504(11) 0.47257(13) 0.01963(8)
O4 O 0.35777(12) 0.50548(13) 0.04407(9)
O5 O 0.01717(14) 0.76612(17) 0.25662(9)
O6 O -0.12072(11) 0.61042(13) 0.18739(7)
loop_
_geom_bond_atom_site_label_1
_geom_bond_atom_site_label_2
_geom_bond_site_symmetry_1
_geom_bond_site_symmetry_2
C1 C2 1_555 1_555
C2 H1 1_555 1_555
C3 C2 1_555 1_555
H2 C3 1_555 1_555
C4 C3 1_555 1_555
H3 C4 1_555 1_555
C5 C4 1_555 1_555
C6 C1 1_555 1_555
H4 C6 1_555 1_555
H5 C6 1_555 1_555
C7 C4 1_555 1_555
C8 H6 1_555 1_555
H7 C8 1_555 1_555
C9 C8 1_555 1_555
H8 C9 1_555 1_555
H9 C9 1_555 1_555
H10 C9 1_555 1_555
C10 C2 1_555 1_555
C11 H11 1_555 1_555
H12 C11 1_555 1_555
C12 C11 1_555 1_555
H13 C12 1_555 1_555
H14 C12 1_555 1_555
H15 C12 1_555 1_555
C13 C3 1_555 1_555
H16 C13 1_555 1_555
H17 C13 1_555 1_555
C14 C13 1_555 1_555
H18 C14 1_555 1_555
H19 C14 1_555 1_555
C15 C14 1_555 1_555
H20 C15 1_555 1_555
H21 C15 1_555 1_555
H22 C15 1_555 1_555
C16 C5 1_555 1_555
H23 C16 1_555 1_555
H24 C16 1_555 1_555
H25 C16 1_555 1_555
O1 C1 1_555 1_555
O2 C5 1_555 1_555
H26 O2 1_555 1_555
O3 C7 1_555 1_555
O4 C7 1_555 1_555
O5 C10 1_555 1_555
O6 C10 1_555 1_555
C5 C6 1_555 1_555
C8 O4 1_555 1_555
C11 O6 1_555 1_555

#END
