
#######################################################################
#
#                 Cambridge Crystallographic Data Centre
#                                CCDC 
#
#######################################################################
#
# If this CIF has been generated from an entry in the Cambridge 
# Structural Database, then it will include bibliographic, chemical, 
# crystal, experimental, refinement or atomic coordinate data resulting 
# from the CCDC's data processing and validation procedures.
#
#######################################################################

data_BUVGIK
_chemical_formula_moiety         'C19 H34 O2 Si1'
_chemical_name_systematic        
8-((t-butyl(dimethyl)silyl)oxy)-3-methyltricyclo[6.4.0.0^4,9^]dodecan-2-one
_symmetry_cell_setting           monoclinic
_symmetry_space_group_name_H-M   'P c'
_symmetry_Int_Tables_number      7
_space_group_name_Hall           'P -2yc'
loop_
_symmetry_equiv_pos_site_id
_symmetry_equiv_pos_as_xyz
1 x,y,z
2 x,-y,1/2+z
_cell_length_a                   10.2481(14)
_cell_length_b                   8.2189(10)
_cell_length_c                   11.9222(15)
_cell_angle_alpha                90
_cell_angle_beta                 112.918(9)
_cell_angle_gamma                90
_cell_volume                     924.917
_exptl_crystal_colour            colorless
_cell_formula_units_Z            2
_exptl_crystal_recrystallization_method cyclohexane
loop_
_atom_site_label
_atom_site_type_symbol
_atom_site_fract_x
_atom_site_fract_y
_atom_site_fract_z
Si1 Si 0.38427(6) 0.31751(6) 0.50336(5)
O1 O 0.22585(16) 0.33336(17) 0.50727(14)
O2 O -0.14242(17) 0.21746(19) 0.63486(15)
C1 C 0.1156(2) 0.2206(2) 0.5003(2)
C2 C 0.0235(2) 0.3106(2) 0.5559(2)
H1 H 0.0832 0.3357 0.6430
C3 C -0.1030(3) 0.2126(2) 0.5514(2)
C4 C -0.1853(3) 0.1163(3) 0.4358(2)
H2 H -0.2523 0.1959 0.3786
C5 C -0.0915(3) 0.0540(2) 0.3698(2)
H3 H -0.1543 0.0290 0.2834
C6 C 0.0214(2) 0.1790(2) 0.3690(2)
H4 H 0.0827 0.1230 0.3330
C7 C 0.1850(3) 0.0661(3) 0.5723(2)
H5 H 0.2577 0.0271 0.5431
H6 H 0.2341 0.0954 0.6592
C8 C 0.0826(3) -0.0729(2) 0.5621(2)
H7 H 0.1369 -0.1730 0.5972
H8 H 0.0247 -0.0458 0.6094
C9 C -0.0145(3) -0.1036(3) 0.4297(2)
H9 H -0.0851 -0.1879 0.4259
H10 H 0.0421 -0.1443 0.3846
C10 C -0.2784(3) -0.0135(3) 0.4584(2)
H11 H -0.3434 0.0378 0.4900
H12 H -0.2186 -0.0924 0.5179
H13 H -0.3330 -0.0695 0.3818
C11 C -0.0369(3) 0.3332(3) 0.2930(2)
H14 H 0.0420 0.3893 0.2808
H15 H -0.1064 0.3004 0.2118
C12 C -0.1084(3) 0.4543(3) 0.3489(2)
H16 H -0.2060 0.4167 0.3321
H17 H -0.1151 0.5615 0.3091
C13 C -0.0285(2) 0.4745(3) 0.4867(2)
H18 H -0.0914 0.5294 0.5203
H19 H 0.0545 0.5459 0.5019
C14 C 0.5156(3) 0.2228(3) 0.6449(2)
H20 H 0.4974 0.1056 0.6442
H21 H 0.5066 0.2723 0.7164
H22 H 0.6116 0.2407 0.6484
C15 C 0.3751(3) 0.2010(3) 0.3668(2)
H23 H 0.2989 0.2448 0.2944
H24 H 0.3560 0.0862 0.3768
H25 H 0.4655 0.2105 0.3572
C16 C 0.4376(3) 0.5360(3) 0.4919(2)
C17 C 0.3288(3) 0.6176(3) 0.3781(2)
H26 H 0.3241 0.5583 0.3053
H27 H 0.3575 0.7304 0.3734
H28 H 0.2355 0.6164 0.3829
C18 C 0.4433(3) 0.6312(3) 0.6047(2)
H29 H 0.4705 0.7441 0.5987
H30 H 0.5132 0.5811 0.6781
H31 H 0.3498 0.6290 0.6091
C19 C 0.5840(3) 0.5403(3) 0.4863(2)
H32 H 0.6528 0.4870 0.5587
H33 H 0.6124 0.6536 0.4834
H34 H 0.5806 0.4830 0.4131
loop_
_geom_bond_atom_site_label_1
_geom_bond_atom_site_label_2
_geom_bond_site_symmetry_1
_geom_bond_site_symmetry_2
Si1 O1 1_555 1_555
O1 C1 1_555 1_555
O2 C3 1_555 1_555
C1 C2 1_555 1_555
C2 H1 1_555 1_555
C3 C2 1_555 1_555
C4 C3 1_555 1_555
H2 C4 1_555 1_555
C5 C4 1_555 1_555
H3 C5 1_555 1_555
C6 C1 1_555 1_555
H4 C6 1_555 1_555
C7 C1 1_555 1_555
H5 C7 1_555 1_555
H6 C7 1_555 1_555
C8 C7 1_555 1_555
H7 C8 1_555 1_555
H8 C8 1_555 1_555
C9 C5 1_555 1_555
H9 C9 1_555 1_555
H10 C9 1_555 1_555
C10 C4 1_555 1_555
H11 C10 1_555 1_555
H12 C10 1_555 1_555
H13 C10 1_555 1_555
C11 C6 1_555 1_555
H14 C11 1_555 1_555
H15 C11 1_555 1_555
C12 C11 1_555 1_555
H16 C12 1_555 1_555
H17 C12 1_555 1_555
C13 C2 1_555 1_555
H18 C13 1_555 1_555
H19 C13 1_555 1_555
C14 Si1 1_555 1_555
H20 C14 1_555 1_555
H21 C14 1_555 1_555
H22 C14 1_555 1_555
C15 Si1 1_555 1_555
H23 C15 1_555 1_555
H24 C15 1_555 1_555
H25 C15 1_555 1_555
C16 Si1 1_555 1_555
C17 C16 1_555 1_555
H26 C17 1_555 1_555
H27 C17 1_555 1_555
H28 C17 1_555 1_555
C18 C16 1_555 1_555
H29 C18 1_555 1_555
H30 C18 1_555 1_555
H31 C18 1_555 1_555
C19 C16 1_555 1_555
H32 C19 1_555 1_555
H33 C19 1_555 1_555
H34 C19 1_555 1_555
C5 C6 1_555 1_555
C8 C9 1_555 1_555
C12 C13 1_555 1_555

#END
