
#######################################################################
#
#                 Cambridge Crystallographic Data Centre
#                                CCDC 
#
#######################################################################
#
# If this CIF has been generated from an entry in the Cambridge 
# Structural Database, then it will include bibliographic, chemical, 
# crystal, experimental, refinement or atomic coordinate data resulting 
# from the CCDC's data processing and validation procedures.
#
#######################################################################

data_BUVKIM
_chemical_formula_moiety         'C40 H56 N4 O12,2(H2 O1)'
_chemical_name_systematic        
'1,12,19,30-Tetraoxo-5,8,23,26,39,42,47,50-octaoxa-2,11,20,29-tetra-aza(12.12.8^2,11^.8^20,29^)(1,4)benzeno(2)phane dihydrate'
_symmetry_cell_setting           triclinic
_symmetry_space_group_name_H-M   'P -1'
_symmetry_Int_Tables_number      2
_space_group_name_Hall           '-P 1'
loop_
_symmetry_equiv_pos_site_id
_symmetry_equiv_pos_as_xyz
1 x,y,z
2 -x,-y,-z
_cell_length_a                   10.964(29)
_cell_length_b                   11.864(20)
_cell_length_c                   17.982(5)
_cell_angle_alpha                99.96(6)
_cell_angle_beta                 94.03(8)
_cell_angle_gamma                114.33(13)
_cell_volume                     2072.92
_chemical_melting_point          215-8deg.C
_cell_formula_units_Z            2
loop_
_atom_site_label
_atom_site_type_symbol
_atom_site_fract_x
_atom_site_fract_y
_atom_site_fract_z
C1 C 0.16180 0.25390 0.12380
O1 O 0.19170 0.19240 0.07150
N1 N 0.03440 0.21280 0.13810
C2 C -0.06970 0.09290 0.08810
C3 C -0.11090 0.11310 0.01050
O2 O -0.17170 0.19910 0.01970
C4 C -0.11900 0.29620 -0.02020
C5 C -0.19480 0.37470 -0.01050
O3 O -0.16030 0.44710 0.06530
C6 C -0.23970 0.51440 0.07940
C7 C -0.22220 0.56490 0.16440
N2 N -0.09160 0.67370 0.19830
C8 C -0.08420 0.78770 0.19970
O4 O -0.17270 0.80620 0.16670
C9 C 0.03940 0.90080 0.24610
C10 C 0.13550 0.98400 0.20960
C11 C 0.24360 1.09270 0.25080
C12 C 0.25580 1.12400 0.33110
C13 C 0.15860 1.04510 0.36780
C14 C 0.05270 0.93210 0.32560
C15 C 0.36070 1.24660 0.37930
O5 O 0.32140 1.30680 0.42820
N3 N 0.49000 1.28930 0.37070
C16 C 0.55130 1.22130 0.32120
C17 C 0.61380 1.29000 0.25990
O6 O 0.53160 1.24900 0.19070
C18 C 0.55700 1.17220 0.12950
C19 C 0.48820 1.03340 0.12030
O7 O 0.51910 1.00110 0.18940
C20 C 0.44900 0.87550 0.18790
C21 C 0.46860 0.84810 0.26730
N4 N 0.59040 0.83710 0.29380
C22 C 0.59880 0.72810 0.29150
O8 O 0.69840 0.72110 0.32160
C23 C 0.47960 0.60840 0.24870
C24 C 0.45050 0.57920 0.16900
C25 C 0.34820 0.46150 0.13020
C26 C 0.26940 0.37650 0.17000
C27 C 0.30000 0.40640 0.24990
C28 C 0.40420 0.51770 0.28810
C29 C -0.01310 0.27970 0.19770
C30 C -0.04430 0.20380 0.26260
O9 O -0.09600 0.26150 0.32050
C31 C 0.00580 0.36020 0.38000
C32 C -0.00510 0.47890 0.38920
O10 O 0.02370 0.52450 0.32150
C33 C -0.01880 0.61100 0.31130
C34 C 0.01560 0.64900 0.23290
C35 C 0.58710 1.40980 0.42380
C36 C 0.62100 1.38610 0.50160
O11 O 0.68580 1.30410 0.49380
C37 C 0.63380 1.20420 0.53220
C38 C 0.70180 1.12150 0.51550
O12 O 0.65930 1.05490 0.43750
C39 C 0.74200 0.99650 0.41230
C40 C 0.71390 0.95540 0.32620
H1 H -0.16070 0.05910 0.11450
H2 H -0.03060 0.02350 0.08070
H3 H -0.18360 0.02280 -0.02550
H4 H -0.02250 0.15070 -0.01590
H5 H -0.12930 0.25620 -0.08100
H6 H -0.01380 0.35520 -0.00190
H7 H -0.30090 0.31230 -0.02270
H8 H -0.17000 0.43820 -0.04980
H9 H -0.20640 0.59270 0.05220
H10 H -0.34420 0.45050 0.05740
H11 H -0.23130 0.48720 0.19250
H12 H -0.30490 0.58970 0.17650
H13 H 0.12160 0.95960 0.14730
H14 H 0.31860 1.15320 0.22190
H15 H 0.16810 1.06630 0.42900
H16 H -0.02320 0.86990 0.35450
H17 H 0.63020 1.21430 0.35710
H18 H 0.47510 1.12940 0.29430
H19 H 0.70680 1.28170 0.25300
H20 H 0.63450 1.38820 0.27850
H21 H 0.52390 1.19520 0.07880
H22 H 0.66230 1.19850 0.13690
H23 H 0.52330 0.98990 0.07370
H24 H 0.38070 1.00300 0.10630
H25 H 0.34610 0.84760 0.16860
H26 H 0.49020 0.82410 0.14830
H27 H 0.38680 0.76010 0.26820
H28 H 0.46390 0.92480 0.30780
H29 H 0.50940 0.64580 0.13710
H30 H 0.32930 0.43920 0.06840
H31 H 0.23810 0.33950 0.28130
H32 H 0.42690 0.53660 0.34970
H33 H 0.67950 1.44610 0.39950
H34 H 0.54360 1.47600 0.42910
H35 H 0.52660 1.34150 0.52350
H36 H 0.68600 1.47390 0.54070
H37 H 0.52610 1.15010 0.51600
H38 H 0.65910 1.24470 0.59250
H39 H 0.80850 1.17570 0.52440
H40 H 0.67310 1.05380 0.55150
H41 H 0.84680 1.06010 0.43190
H42 H 0.71760 0.91140 0.43510
H43 H 0.79920 0.94150 0.30750
H44 H 0.70570 1.03150 0.30390
O13 O 0.13680 0.26150 0.53840
H45 H 0.18320 0.26050 0.56940
H46 H 0.18370 0.25220 0.51540
O14 O 0.37440 0.23590 0.96060
H47 H 0.34180 0.24270 0.99670
H48 H 0.32680 0.23540 0.93050
loop_
_geom_bond_atom_site_label_1
_geom_bond_atom_site_label_2
_geom_bond_site_symmetry_1
_geom_bond_site_symmetry_2
C1 O1 1_555 1_555
N1 C1 1_555 1_555
C2 N1 1_555 1_555
C3 C2 1_555 1_555
O2 C3 1_555 1_555
C4 O2 1_555 1_555
C5 C4 1_555 1_555
O3 C5 1_555 1_555
C6 O3 1_555 1_555
C7 C6 1_555 1_555
N2 C7 1_555 1_555
C8 N2 1_555 1_555
O4 C8 1_555 1_555
C9 C8 1_555 1_555
C10 C9 1_555 1_555
C11 C10 1_555 1_555
C12 C11 1_555 1_555
C13 C12 1_555 1_555
C14 C9 1_555 1_555
C15 C12 1_555 1_555
O5 C15 1_555 1_555
N3 C15 1_555 1_555
C16 N3 1_555 1_555
C17 C16 1_555 1_555
O6 C17 1_555 1_555
C18 O6 1_555 1_555
C19 C18 1_555 1_555
O7 C19 1_555 1_555
C20 O7 1_555 1_555
C21 C20 1_555 1_555
N4 C21 1_555 1_555
C22 N4 1_555 1_555
O8 C22 1_555 1_555
C23 C22 1_555 1_555
C24 C23 1_555 1_555
C25 C24 1_555 1_555
C26 C1 1_555 1_555
C27 C26 1_555 1_555
C28 C23 1_555 1_555
C29 N1 1_555 1_555
C30 C29 1_555 1_555
O9 C30 1_555 1_555
C31 O9 1_555 1_555
C32 C31 1_555 1_555
O10 C32 1_555 1_555
C33 O10 1_555 1_555
C34 N2 1_555 1_555
C35 N3 1_555 1_555
C36 C35 1_555 1_555
O11 C36 1_555 1_555
C37 O11 1_555 1_555
C38 C37 1_555 1_555
O12 C38 1_555 1_555
C39 O12 1_555 1_555
C40 N4 1_555 1_555
H1 C2 1_555 1_555
H2 C2 1_555 1_555
H3 C3 1_555 1_555
H4 C3 1_555 1_555
H5 C4 1_555 1_555
H6 C4 1_555 1_555
H7 C5 1_555 1_555
H8 C5 1_555 1_555
H9 C6 1_555 1_555
H10 C6 1_555 1_555
H11 C7 1_555 1_555
H12 C7 1_555 1_555
H13 C10 1_555 1_555
H14 C11 1_555 1_555
H15 C13 1_555 1_555
H16 C14 1_555 1_555
H17 C16 1_555 1_555
H18 C16 1_555 1_555
H19 C17 1_555 1_555
H20 C17 1_555 1_555
H21 C18 1_555 1_555
H22 C18 1_555 1_555
H23 C19 1_555 1_555
H24 C19 1_555 1_555
H25 C20 1_555 1_555
H26 C20 1_555 1_555
H27 C21 1_555 1_555
H28 C21 1_555 1_555
H29 C24 1_555 1_555
H30 C25 1_555 1_555
H31 C27 1_555 1_555
H32 C28 1_555 1_555
H33 C35 1_555 1_555
H34 C35 1_555 1_555
H35 C36 1_555 1_555
H36 C36 1_555 1_555
H37 C37 1_555 1_555
H38 C37 1_555 1_555
H39 C38 1_555 1_555
H40 C38 1_555 1_555
H41 C39 1_555 1_555
H42 C39 1_555 1_555
H43 C40 1_555 1_555
H44 C40 1_555 1_555
O13 H45 1_555 1_555
H46 O13 1_555 1_555
O14 H47 1_555 1_555
H48 O14 1_555 1_555
C13 C14 1_555 1_555
C25 C26 1_555 1_555
C27 C28 1_555 1_555
C33 C34 1_555 1_555
C39 C40 1_555 1_555

#END
