
#######################################################################
#
#                 Cambridge Crystallographic Data Centre
#                                CCDC 
#
#######################################################################
#
# If this CIF has been generated from an entry in the Cambridge 
# Structural Database, then it will include bibliographic, chemical, 
# crystal, experimental, refinement or atomic coordinate data resulting 
# from the CCDC's data processing and validation procedures.
#
#######################################################################

data_BUVKAF
_chemical_formula_moiety         'C26 H27 N3 O3'
_chemical_name_systematic        
'3-(2,3-Dihydro-1H-benzotriazol-1-yl)-1-(4-ethylphenyl)-1-oxopropan-2-yl 4-ethylbenzoate'
_symmetry_cell_setting           monoclinic
_symmetry_space_group_name_H-M   'P 21/c'
_symmetry_Int_Tables_number      14
_space_group_name_Hall           '-P 2ybc'
loop_
_symmetry_equiv_pos_site_id
_symmetry_equiv_pos_as_xyz
1 x,y,z
2 -x,1/2+y,1/2-z
3 -x,-y,-z
4 x,1/2-y,1/2+z
_cell_length_a                   12.7575(17)
_cell_length_b                   8.8652(13)
_cell_length_c                   20.842(3)
_cell_angle_alpha                90
_cell_angle_beta                 104.686(2)
_cell_angle_gamma                90
_cell_volume                     2280.17
_exptl_crystal_colour            colorless
_exptl_crystal_description       block
_cell_formula_units_Z            4
loop_
_atom_site_label
_atom_site_type_symbol
_atom_site_fract_x
_atom_site_fract_y
_atom_site_fract_z
C1 C 0.9555(6) 0.7276(7) 0.4490(6)
H1 H 1.0316 0.7325 0.4700
H2 H 0.9357 0.8102 0.4185
H3 H 0.9152 0.7335 0.4820
O1 O 0.42074(12) 0.41592(18) 0.30045(7)
O2 O 0.31327(10) 0.57864(15) 0.19475(7)
O3 O 0.34042(11) 0.75020(16) 0.27589(7)
N1 N 0.38819(13) 0.4999(2) 0.08681(8)
N2 N 0.28827(16) 0.4501(2) 0.05692(10)
H4 H 0.2519 0.3858 0.0734
N3 N 0.25547(16) 0.5132(3) 0.00007(10)
H5 H 0.1941 0.4975 -0.0278
C2 C 0.9290(3) 0.5865(5) 0.4130(2)
H6 H 0.9728 0.4992 0.4283
C3 C 0.8096(2) 0.5677(3) 0.37756(14)
C4 C 0.76895(19) 0.6255(3) 0.31461(13)
H7 H 0.8159 0.6816 0.2940
C5 C 0.66134(17) 0.6042(2) 0.28073(11)
H8 H 0.6358 0.6440 0.2383
C6 C 0.59181(16) 0.5248(2) 0.30928(9)
C7 C 0.6334(2) 0.4674(3) 0.37305(11)
H9 H 0.5881 0.4132 0.3933
C8 C 0.7386(2) 0.4892(3) 0.40616(12)
H10 H 0.7636 0.4509 0.4488
C9 C 0.47746(17) 0.4952(2) 0.27576(9)
C10 C 0.42816(15) 0.5615(2) 0.20635(9)
H11 H 0.4621 0.6584 0.2013
C11 C 0.44333(17) 0.4497(2) 0.15343(9)
H12 H 0.5201 0.4381 0.1565
H13 H 0.4151 0.3520 0.1617
C12 C 0.42012(16) 0.6017(2) 0.04694(9)
C13 C 0.51500(18) 0.6847(2) 0.05217(11)
H14 H 0.5733 0.6791 0.0894
C14 C 0.5169(2) 0.7755(3) -0.00119(12)
H15 H 0.5784 0.8332 0.0005
C15 C 0.4315(3) 0.7845(3) -0.05705(13)
H16 H 0.4371 0.8476 -0.0917
C16 C 0.3386(2) 0.7022(3) -0.06248(11)
H17 H 0.2811 0.7078 -0.1002
C17 C 0.33394(18) 0.6094(3) -0.00894(10)
C18 C 0.27889(16) 0.6829(2) 0.23180(9)
C19 C 0.16007(16) 0.7027(2) 0.21087(9)
C20 C 0.09598(18) 0.6293(3) 0.15589(11)
H18 H 0.1278 0.5642 0.1314
C21 C -0.01527(19) 0.6526(3) 0.13729(12)
H19 H -0.0573 0.6017 0.1007
C22 C -0.06448(18) 0.7503(3) 0.17227(13)
C23 C -0.0001(2) 0.8233(3) 0.22625(12)
H20 H -0.0321 0.8901 0.2500
C24 C 0.11053(19) 0.8004(3) 0.24628(11)
H21 H 0.1518 0.8503 0.2834
C25 C -0.1849(2) 0.7801(4) 0.14952(16)
H22 H -0.2192 0.6966 0.1221
H23 H -0.2143 0.7842 0.1881
C26 C -0.2119(3) 0.9199(4) 0.1121(2)
H24 H -0.2892 0.9323 0.0992
H25 H -0.1847 0.9159 0.0732
H26 H -0.1796 1.0036 0.1392
C27? C 0.9728(7) 0.7222(9) 0.4139(7)
H27? H 1.0475 0.7157 0.4381
H28? H 0.9685 0.7522 0.3691
H29? H 0.9365 0.7954 0.4345
loop_
_geom_bond_atom_site_label_1
_geom_bond_atom_site_label_2
_geom_bond_site_symmetry_1
_geom_bond_site_symmetry_2
C1 H1 1_555 1_555
H2 C1 1_555 1_555
H3 C1 1_555 1_555
O1 C9 1_555 1_555
O2 C10 1_555 1_555
O3 C18 1_555 1_555
N1 N2 1_555 1_555
N2 H4 1_555 1_555
N3 N2 1_555 1_555
H5 N3 1_555 1_555
C2 C1 1_555 1_555
H6 C2 1_555 1_555
C3 C2 1_555 1_555
C4 C3 1_555 1_555
H7 C4 1_555 1_555
C5 C4 1_555 1_555
H8 C5 1_555 1_555
C6 C5 1_555 1_555
C7 C6 1_555 1_555
H9 C7 1_555 1_555
C8 C3 1_555 1_555
H10 C8 1_555 1_555
C9 C6 1_555 1_555
C10 C9 1_555 1_555
H11 C10 1_555 1_555
C11 N1 1_555 1_555
H12 C11 1_555 1_555
H13 C11 1_555 1_555
C12 N1 1_555 1_555
C13 C12 1_555 1_555
H14 C13 1_555 1_555
C14 C13 1_555 1_555
H15 C14 1_555 1_555
C15 C14 1_555 1_555
H16 C15 1_555 1_555
C16 C15 1_555 1_555
H17 C16 1_555 1_555
C17 N3 1_555 1_555
C18 O2 1_555 1_555
C19 C18 1_555 1_555
C20 C19 1_555 1_555
H18 C20 1_555 1_555
C21 C20 1_555 1_555
H19 C21 1_555 1_555
C22 C21 1_555 1_555
C23 C22 1_555 1_555
H20 C23 1_555 1_555
C24 C19 1_555 1_555
H21 C24 1_555 1_555
C25 C22 1_555 1_555
H22 C25 1_555 1_555
H23 C25 1_555 1_555
C26 C25 1_555 1_555
H24 C26 1_555 1_555
H25 C26 1_555 1_555
H26 C26 1_555 1_555
C7 C8 1_555 1_555
C10 C11 1_555 1_555
C12 C17 1_555 1_555
C16 C17 1_555 1_555
C23 C24 1_555 1_555

#END
