
#######################################################################
#
#                 Cambridge Crystallographic Data Centre
#                                CCDC 
#
#######################################################################
#
# If this CIF has been generated from an entry in the Cambridge 
# Structural Database, then it will include bibliographic, chemical, 
# crystal, experimental, refinement or atomic coordinate data resulting 
# from the CCDC's data processing and validation procedures.
#
#######################################################################

data_BUVPIR
_chemical_formula_moiety         'C15 H20 N1 O1 1+,Cl1 1-,0.5(H2 O1)'
_chemical_name_systematic        
'1-Phenyl-3-methyl-3-azabicyclo(3.3.1)nonan-9-one hydrochloride hemihydrate'
_symmetry_cell_setting           monoclinic
_symmetry_space_group_name_H-M   'C 2/c'
_symmetry_Int_Tables_number      15
_space_group_name_Hall           '-C 2yn'
loop_
_symmetry_equiv_pos_site_id
_symmetry_equiv_pos_as_xyz
1 x,y,z
2 1/2+x,1/2+y,z
3 -x,y,1/2-z
4 1/2-x,1/2+y,1/2-z
5 -x,-y,-z
6 1/2-x,1/2-y,-z
7 x,-y,1/2+z
8 1/2+x,1/2-y,1/2+z
_cell_length_a                   32.263(10)
_cell_length_b                   7.362(1)
_cell_length_c                   12.626(6)
_cell_angle_alpha                90
_cell_angle_beta                 99.88(3)
_cell_angle_gamma                90
_cell_volume                     2954.45
_exptl_crystal_colour            colorless
_chemical_melting_point          210deg.C
_cell_formula_units_Z            8
loop_
_atom_site_label
_atom_site_type_symbol
_atom_site_fract_x
_atom_site_fract_y
_atom_site_fract_z
Cl1 Cl 0.05780 0.22040 -0.32500
O1 O 0.13870 0.20360 0.21420
C1 C 0.14800 0.11020 0.03070
C2 C 0.11590 -0.01360 -0.04450
N1 N 0.07340 0.06690 -0.08750
C3 C 0.05560 0.17680 -0.00300
C4 C 0.08700 0.30660 0.06220
C5 C 0.10170 0.46270 -0.00510
C6 C 0.13010 0.40200 -0.08550
C7 C 0.16420 0.26980 -0.03330
C8 C 0.12560 0.20230 0.11570
C9 C 0.18320 -0.01660 0.08350
C10 C 0.17410 -0.15630 0.15210
C11 C 0.20480 -0.27930 0.19790
C12 C 0.24560 -0.26330 0.17650
C13 C 0.25500 -0.12500 0.10930
C14 C 0.22430 -0.00250 0.06220
C15 C 0.0435 -0.0842 -0.1291
H1 H 0.10900 -0.12900 -0.00100
H2 H 0.12900 -0.05500 -0.11000
H3 H 0.04400 0.07700 0.05000
H4 H 0.03000 0.25100 -0.04300
H5 H 0.07100 0.36500 0.12500
H6 H 0.11600 0.55500 0.05100
H7 H 0.07600 0.52800 -0.04100
H8 H 0.11300 0.34600 -0.15500
H9 H 0.14400 0.51600 -0.11200
H10 H 0.18000 0.21400 -0.09200
H11 H 0.18600 0.33800 0.02300
H12 H 0.14400 -0.17000 0.16900
H13 H 0.19600 -0.39100 0.24700
H14 H 0.26900 -0.36000 0.20800
H15 H 0.28500 -0.11900 0.09100
H16 H 0.23200 0.10100 0.01200
H17 H 0.05600 -0.15200 -0.18800
H18 H 0.01400 -0.02700 -0.16000
H19 H 0.03900 -0.17000 -0.06800
H20 H 0.07700 0.14100 -0.15200
O2 O 0.00000 0.54330 -0.25000
H21 H 0.02000 0.46900 -0.28600
H21B H -0.02000 0.46900 -0.21400
loop_
_geom_bond_atom_site_label_1
_geom_bond_atom_site_label_2
_geom_bond_site_symmetry_1
_geom_bond_site_symmetry_2
O1 C8 1_555 1_555
C1 C2 1_555 1_555
C2 N1 1_555 1_555
N1 C3 1_555 1_555
C3 C4 1_555 1_555
C4 C5 1_555 1_555
C5 C6 1_555 1_555
C6 C7 1_555 1_555
C7 C1 1_555 1_555
C8 C1 1_555 1_555
C9 C1 1_555 1_555
C10 C9 1_555 1_555
C11 C10 1_555 1_555
C12 C11 1_555 1_555
C13 C12 1_555 1_555
C14 C9 1_555 1_555
C15 N1 1_555 1_555
H1 C2 1_555 1_555
H2 C2 1_555 1_555
H3 C3 1_555 1_555
H4 C3 1_555 1_555
H5 C4 1_555 1_555
H6 C5 1_555 1_555
H7 C5 1_555 1_555
H8 C6 1_555 1_555
H9 C6 1_555 1_555
H10 C7 1_555 1_555
H11 C7 1_555 1_555
H12 C10 1_555 1_555
H13 C11 1_555 1_555
H14 C12 1_555 1_555
H15 C13 1_555 1_555
H16 C14 1_555 1_555
H17 C15 1_555 1_555
H18 C15 1_555 1_555
H19 C15 1_555 1_555
H20 N1 1_555 1_555
O2 H21 1_555 1_555
H21B O2 1_555 1_555
C4 C8 1_555 1_555
C13 C14 1_555 1_555

#END
