
#######################################################################
#
#                 Cambridge Crystallographic Data Centre
#                                CCDC 
#
#######################################################################
#
# If this CIF has been generated from an entry in the Cambridge 
# Structural Database, then it will include bibliographic, chemical, 
# crystal, experimental, refinement or atomic coordinate data resulting 
# from the CCDC's data processing and validation procedures.
#
#######################################################################

data_BUVQAK
_chemical_formula_moiety         'C40 H30 N2'
_chemical_name_systematic        
1-Benzyl-4,5-bis(biphenyl-2-yl)-2-phenylimidazole
_symmetry_cell_setting           monoclinic
_symmetry_space_group_name_H-M   'P 21/n'
_symmetry_Int_Tables_number      14
_space_group_name_Hall           '-P 2yn'
loop_
_symmetry_equiv_pos_site_id
_symmetry_equiv_pos_as_xyz
1 x,y,z
2 1/2+x,1/2-y,1/2+z
3 -x,-y,-z
4 1/2-x,1/2+y,1/2-z
_cell_length_a                   10.257(2)
_cell_length_b                   28.375(5)
_cell_length_c                   10.590(2)
_cell_angle_alpha                90
_cell_angle_beta                 112.21(3)
_cell_angle_gamma                90
_cell_volume                     2853.46
_exptl_crystal_colour            colorless
_exptl_crystal_description       block
_chemical_melting_point          174-176deg.C
_cell_formula_units_Z            4
loop_
_atom_site_label
_atom_site_type_symbol
_atom_site_fract_x
_atom_site_fract_y
_atom_site_fract_z
N1 N 0.8458(3) 0.20388(10) 0.0813(3)
N2 N 1.0737(3) 0.20781(10) 0.2150(3)
C1 C 0.7009(3) 0.21671(12) -0.0015(4)
H1 H 0.6591 0.1918 -0.0704
H2 H 0.7011 0.2463 -0.0508
C2 C 0.6097(4) 0.22337(12) 0.0805(5)
C3 C 0.6514(4) 0.21075(13) 0.2168(5)
H3 H 0.7442 0.1993 0.2643
C4 C 0.5600(4) 0.21453(13) 0.2845(4)
H4 H 0.5896 0.2044 0.3766
C5 C 0.4278(4) 0.23263(13) 0.2206(5)
H5 H 0.3661 0.2358 0.2681
C6 C 0.3855(4) 0.24615(15) 0.0859(6)
H6 H 0.2938 0.2587 0.0402
C7 C 0.4758(4) 0.24158(14) 0.0163(5)
H7 H 0.4451 0.2511 -0.0765
C8 C 0.9592(4) 0.23288(12) 0.1467(4)
C9 C 0.9592(4) 0.28479(12) 0.1391(4)
C10 C 0.8432(4) 0.31391(13) 0.1179(4)
H8 H 0.7551 0.3002 0.1067
C11 C 0.8541(4) 0.36228(13) 0.1128(4)
H9 H 0.7733 0.3814 0.0964
C12 C 0.9816(4) 0.38316(13) 0.1312(4)
H10 H 0.9892 0.4165 0.1286
C13 C 1.0984(4) 0.35487(12) 0.1535(4)
H11 H 1.1866 0.3689 0.1668
C14 C 1.0875(4) 0.30656(12) 0.1568(4)
H12 H 1.1684 0.2877 0.1712
C15 C 0.8950(4) 0.15783(12) 0.1092(4)
C16 C 1.0339(4) 0.16105(12) 0.1921(4)
C17 C 0.8083(3) 0.11632(12) 0.0409(4)
C18 C 0.6883(4) 0.10420(13) 0.0642(4)
H13 H 0.6608 0.1232 0.1238
C19 C 0.6075(4) 0.06535(13) 0.0034(4)
H14 H 0.5246 0.0581 0.0194
C20 C 0.6490(4) 0.03721(14) -0.0811(5)
H15 H 0.5953 0.0102 -0.1227
C21 C 0.7685(4) 0.04843(12) -0.1048(4)
H16 H 0.7967 0.0285 -0.1620
C22 C 0.8490(3) 0.08807(12) -0.0474(4)
C23 C 0.9744(4) 0.09908(13) -0.0814(4)
C24 C 1.0699(4) 0.06343(13) -0.0751(4)
H17 H 1.0530 0.0324 -0.0516
C25 C 1.1883(4) 0.07255(14) -0.1026(5)
H18 H 1.2522 0.0477 -0.0978
C26 C 1.2149(4) 0.11724(15) -0.1370(4)
H19 H 1.2987 0.1237 -0.1522
C27 C 1.1183(4) 0.15257(14) -0.1492(4)
H20 H 1.1333 0.1832 -0.1774
C28 C 0.9999(4) 0.14365(13) -0.1205(4)
H21 H 0.9350 0.1684 -0.1277
C29 C 1.1376(3) 0.12288(12) 0.2475(4)
C30 C 1.2631(4) 0.12565(13) 0.2248(4)
H22 H 1.2799 0.1524 0.1792
C31 C 1.3633(4) 0.09051(14) 0.2667(4)
H23 H 1.4493 0.0937 0.2530
C32 C 1.3376(4) 0.05045(14) 0.3290(4)
H24 H 1.4047 0.0256 0.3557
C33 C 1.2142(4) 0.04680(13) 0.3520(4)
H25 H 1.1973 0.0193 0.3947
C34 C 1.1131(4) 0.08281(13) 0.3138(4)
C35 C 0.9887(4) 0.07870(13) 0.3542(4)
C36 C 0.9089(4) 0.03754(14) 0.3280(4)
H26 H 0.9316 0.0122 0.2812
C37 C 0.7971(4) 0.03320(16) 0.3698(5)
H27 H 0.7436 0.0049 0.3518
C38 C 0.7625(4) 0.06993(17) 0.4377(5)
H28 H 0.6852 0.0670 0.4658
C39 C 0.8407(4) 0.11055(16) 0.4640(5)
H29 H 0.8179 0.1357 0.5114
C40 C 0.9522(4) 0.11522(14) 0.4223(4)
H30 H 1.0048 0.1437 0.4403
loop_
_geom_bond_atom_site_label_1
_geom_bond_atom_site_label_2
_geom_bond_site_symmetry_1
_geom_bond_site_symmetry_2
N1 C1 1_555 1_555
N2 C8 1_555 1_555
C1 H1 1_555 1_555
H2 C1 1_555 1_555
C2 C1 1_555 1_555
C3 C2 1_555 1_555
H3 C3 1_555 1_555
C4 C3 1_555 1_555
H4 C4 1_555 1_555
C5 C4 1_555 1_555
H5 C5 1_555 1_555
C6 C5 1_555 1_555
H6 C6 1_555 1_555
C7 C2 1_555 1_555
H7 C7 1_555 1_555
C8 N1 1_555 1_555
C9 C8 1_555 1_555
C10 C9 1_555 1_555
H8 C10 1_555 1_555
C11 C10 1_555 1_555
H9 C11 1_555 1_555
C12 C11 1_555 1_555
H10 C12 1_555 1_555
C13 C12 1_555 1_555
H11 C13 1_555 1_555
C14 C9 1_555 1_555
H12 C14 1_555 1_555
C15 N1 1_555 1_555
C16 N2 1_555 1_555
C17 C15 1_555 1_555
C18 C17 1_555 1_555
H13 C18 1_555 1_555
C19 C18 1_555 1_555
H14 C19 1_555 1_555
C20 C19 1_555 1_555
H15 C20 1_555 1_555
C21 C20 1_555 1_555
H16 C21 1_555 1_555
C22 C17 1_555 1_555
C23 C22 1_555 1_555
C24 C23 1_555 1_555
H17 C24 1_555 1_555
C25 C24 1_555 1_555
H18 C25 1_555 1_555
C26 C25 1_555 1_555
H19 C26 1_555 1_555
C27 C26 1_555 1_555
H20 C27 1_555 1_555
C28 C23 1_555 1_555
H21 C28 1_555 1_555
C29 C16 1_555 1_555
C30 C29 1_555 1_555
H22 C30 1_555 1_555
C31 C30 1_555 1_555
H23 C31 1_555 1_555
C32 C31 1_555 1_555
H24 C32 1_555 1_555
C33 C32 1_555 1_555
H25 C33 1_555 1_555
C34 C29 1_555 1_555
C35 C34 1_555 1_555
C36 C35 1_555 1_555
H26 C36 1_555 1_555
C37 C36 1_555 1_555
H27 C37 1_555 1_555
C38 C37 1_555 1_555
H28 C38 1_555 1_555
C39 C38 1_555 1_555
H29 C39 1_555 1_555
C40 C35 1_555 1_555
H30 C40 1_555 1_555
C6 C7 1_555 1_555
C13 C14 1_555 1_555
C15 C16 1_555 1_555
C21 C22 1_555 1_555
C27 C28 1_555 1_555
C33 C34 1_555 1_555
C39 C40 1_555 1_555

#END
