
#######################################################################
#
#                 Cambridge Crystallographic Data Centre
#                                CCDC 
#
#######################################################################
#
# If this CIF has been generated from an entry in the Cambridge 
# Structural Database, then it will include bibliographic, chemical, 
# crystal, experimental, refinement or atomic coordinate data resulting 
# from the CCDC's data processing and validation procedures.
#
#######################################################################

data_BUVQEO
_chemical_formula_moiety         'C14 H13 Br1 F8 N2 O1'
_chemical_name_systematic        
4-(1-(Trifluoromethyl)-1,2,2,2-tetrafluoroethyl)-2-bromo-3-fluoro-5-methoxy-6-piperidinylpyridine
_symmetry_cell_setting           monoclinic
_symmetry_space_group_name_H-M   'P 21/c'
_symmetry_Int_Tables_number      14
_space_group_name_Hall           '-P 2ybc'
loop_
_symmetry_equiv_pos_site_id
_symmetry_equiv_pos_as_xyz
1 x,y,z
2 x,1/2-y,1/2+z
3 -x,-y,-z
4 -x,1/2+y,1/2-z
_cell_length_a                   10.530(2)
_cell_length_b                   13.802(3)
_cell_length_c                   11.485(2)
_cell_angle_alpha                90
_cell_angle_beta                 90.86(3)
_cell_angle_gamma                90
_cell_volume                     1668.99
_exptl_crystal_colour            colorless
_exptl_crystal_description       block
_chemical_melting_point          81-83deg.C
_cell_formula_units_Z            4
loop_
_atom_site_label
_atom_site_type_symbol
_atom_site_fract_x
_atom_site_fract_y
_atom_site_fract_z
Br1 Br 0.16671(5) 0.50691(4) 0.32714(4)
F1 F -0.0639(3) 0.3966(2) 0.3933(2)
O1 O -0.3331(3) 0.4920(3) 0.0762(3)
N1 N -0.0112(4) 0.5627(3) 0.1598(3)
N2 N -0.1444(3) 0.6335(3) 0.0172(3)
C1 C 0.0060(5) 0.5043(3) 0.2503(4)
C2 C -0.0879(5) 0.4460(3) 0.2942(4)
C3 C -0.2034(5) 0.4391(4) 0.2344(4)
C4 C -0.2211(5) 0.4987(3) 0.1358(4)
C5 C -0.1249(4) 0.5648(3) 0.1057(4)
C6 C -0.2510(5) 0.7008(4) 0.0391(4)
H1 H -0.2278 0.7450 0.1039
H2 H -0.3268 0.6635 0.0622
C7 C -0.2817(5) 0.7598(4) -0.0701(4)
H3 H -0.3509 0.8061 -0.0535
H4 H -0.3114 0.7159 -0.1330
C8 C -0.1642(5) 0.8156(3) -0.1107(4)
H5 H -0.1842 0.8504 -0.1840
H6 H -0.1387 0.8639 -0.0511
C9 C -0.0564(5) 0.7444(3) -0.1299(4)
H7 H 0.0210 0.7804 -0.1516
H8 H -0.0792 0.7005 -0.1950
C10 C -0.0290(4) 0.6846(3) -0.0201(4)
H9 H 0.0387 0.6369 -0.0361
H10 H 0.0014 0.7279 0.0431
C11 C -0.3250(5) 0.4708(4) -0.0472(5)
H11 H -0.4107 0.4671 -0.0813
H12 H -0.2816 0.4086 -0.0579
H13 H -0.2772 0.5222 -0.0858
F2 F -0.2457(5) 0.2978(4) 0.3471(4)
F3 F -0.2806(4) 0.2816(3) 0.0930(4)
F4 F -0.4654(4) 0.3399(4) 0.1292(4)
F5 F -0.3979(5) 0.2151(4) 0.2224(5)
F6 F -0.4553(8) 0.5170(6) 0.2945(7)
F7 F -0.3486(6) 0.4510(5) 0.4422(5)
F8 F -0.5013(8) 0.3684(7) 0.3805(7)
C12 C -0.3006(8) 0.3650(6) 0.2733(7)
C13 C -0.3589(7) 0.2973(5) 0.1716(6)
C14 C -0.3999(9) 0.4158(8) 0.3463(8)
F9? F 0.5778(12) 0.2350(9) 0.3059(11)
F10? F 0.7783(13) 0.2447(10) 0.2889(12)
F11? F 0.4740(16) 0.4149(13) 0.3958(14)
F12? F 0.704(2) 0.2960(16) 0.4344(19)
F13? F 0.706(2) 0.3895(18) 0.435(2)
F14? F 0.5376(8) 0.4793(7) 0.2838(8)
F15? F 0.5206(15) 0.3328(13) 0.3771(13)
F16? F 0.481(2) 0.4176(19) 0.218(2)
F17? F 0.5641(19) 0.4532(16) 0.3323(18)
F18? F 0.6381(13) 0.4861(12) 0.4374(12)
C15? C 0.663(3) 0.390(2) 0.281(2)
C16? C 0.675(3) 0.284(2) 0.295(3)
C17? C 0.569(2) 0.3690(17) 0.175(2)
loop_
_geom_bond_atom_site_label_1
_geom_bond_atom_site_label_2
_geom_bond_site_symmetry_1
_geom_bond_site_symmetry_2
Br1 C1 1_555 1_555
F1 C2 1_555 1_555
O1 C4 1_555 1_555
N1 C1 1_555 1_555
N2 C5 1_555 1_555
C1 C2 1_555 1_555
C2 C3 1_555 1_555
C3 C4 1_555 1_555
C4 C5 1_555 1_555
C5 N1 1_555 1_555
C6 N2 1_555 1_555
H1 C6 1_555 1_555
H2 C6 1_555 1_555
C7 C6 1_555 1_555
H3 C7 1_555 1_555
H4 C7 1_555 1_555
C8 C7 1_555 1_555
H5 C8 1_555 1_555
H6 C8 1_555 1_555
C9 C8 1_555 1_555
H7 C9 1_555 1_555
H8 C9 1_555 1_555
C10 N2 1_555 1_555
H9 C10 1_555 1_555
H10 C10 1_555 1_555
C11 O1 1_555 1_555
H11 C11 1_555 1_555
H12 C11 1_555 1_555
H13 C11 1_555 1_555
F2 C12 1_555 1_555
F3 C13 1_555 1_555
F4 C13 1_555 1_555
F5 C13 1_555 1_555
F6 C14 1_555 1_555
F7 C14 1_555 1_555
F8 C14 1_555 1_555
C12 C3 1_555 1_555
C13 C12 1_555 1_555
C14 C12 1_555 1_555
C9 C10 1_555 1_555

#END
