
#######################################################################
#
#                 Cambridge Crystallographic Data Centre
#                                CCDC 
#
#######################################################################
#
# If this CIF has been generated from an entry in the Cambridge 
# Structural Database, then it will include bibliographic, chemical, 
# crystal, experimental, refinement or atomic coordinate data resulting 
# from the CCDC's data processing and validation procedures.
#
#######################################################################

data_BUVZIC
_chemical_name_common            'tris(Chloranil) bis(2-aminophenoxazine-3-one)'
_chemical_formula_moiety         '2(C12 H8 N2 O2),3(C6 H2 Cl4 O2)'
_chemical_name_systematic        
'tris(2,3,5,6-Tetrachlorobenzene-1,4-diol) bis(2-aminophenoxazine-3-one)'
_chemical_properties_biological  
'2-aminophenoxazine-3-one has antibacterial activity'
_symmetry_cell_setting           triclinic
_symmetry_space_group_name_H-M   'P -1'
_symmetry_Int_Tables_number      2
_space_group_name_Hall           '-P 1'
loop_
_symmetry_equiv_pos_site_id
_symmetry_equiv_pos_as_xyz
1 x,y,z
2 -x,-y,-z
_cell_length_a                   9.3384(13)
_cell_length_b                   10.8469(15)
_cell_length_c                   12.0839(16)
_cell_angle_alpha                99.180(3)
_cell_angle_beta                 104.737(3)
_cell_angle_gamma                109.772(3)
_cell_volume                     1072.63
_exptl_crystal_colour            red
_exptl_crystal_description       plate
_cell_formula_units_Z            1
loop_
_atom_site_label
_atom_site_type_symbol
_atom_site_fract_x
_atom_site_fract_y
_atom_site_fract_z
O1 O 0.6354(2) 0.37630(18) 0.47329(15)
C1 C 0.6787(3) 0.4945(3) 0.4411(2)
C2 C 0.5660(3) 0.5075(3) 0.3382(2)
C3 C 0.6141(3) 0.6315(3) 0.3065(2)
H1 H 0.5445 0.6417 0.2393
C4 C 0.7580(3) 0.7366(3) 0.3700(2)
N1 N 0.8112(3) 0.8567(2) 0.3465(2)
H2 H 0.906(3) 0.923(2) 0.397(2)
H3 H 0.742(3) 0.881(3) 0.297(2)
C5 C 0.8725(3) 0.7209(3) 0.4734(2)
O2 O 1.0043(2) 0.8164(2) 0.52940(16)
C6 C 0.8232(3) 0.5946(3) 0.5030(2)
H4 H 0.8937 0.5812 0.5675
N2 N 0.4250(2) 0.4082(2) 0.27880(17)
C7 C 0.4855(3) 0.2745(3) 0.4137(2)
C8 C 0.3811(3) 0.2906(3) 0.3170(2)
C9 C 0.2294(3) 0.1856(3) 0.2595(2)
H5 H 0.1564 0.1939 0.1930
C10 C 0.1842(3) 0.0695(3) 0.2984(2)
H6 H 0.0804 -0.0015 0.2588
C11 C 0.2912(3) 0.0567(3) 0.3957(2)
H7 H 0.2598 -0.0232 0.4221
C12 C 0.4410(3) 0.1582(3) 0.4533(2)
H8 H 0.5136 0.1494 0.5195
C13 C 0.0237(3) 0.4123(2) -0.0822(2)
Cl1 Cl 0.05549(7) 0.30443(6) -0.18538(5)
C14 C 0.1138(3) 0.4429(2) 0.0372(2)
O3 O 0.2191(2) 0.38367(18) 0.06522(14)
H9 H 0.274(3) 0.408(3) 0.1339(16)
C15 C 0.0876(3) 0.5317(2) 0.1181(2)
Cl2 Cl 0.19651(7) 0.57175(6) 0.26728(5)
C13A C -0.0237(3) 0.5877(2) 0.0822(2)
Cl1A Cl -0.05549(7) 0.69557(6) 0.18538(5)
C14A C -0.1138(3) 0.5571(2) -0.0372(2)
O3A O -0.2191(2) 0.61633(18) -0.06522(14)
H9A H -0.274(3) 0.592(3) -0.1339(16)
C15A C -0.0876(3) 0.4683(2) -0.1181(2)
Cl2A Cl -0.19651(7) 0.42825(6) -0.26728(5)
C16 C 0.6276(3) 0.8654(2) 0.9730(2)
O4 O 0.7413(2) 0.85430(19) 1.06244(16)
H10 H 0.734(4) 0.777(2) 1.044(3)
C17 C 0.4751(3) 0.7634(2) 0.9164(2)
Cl3 Cl 0.42741(7) 0.61488(6) 0.95959(5)
C18 C 0.3626(3) 0.7797(2) 0.8255(2)
Cl4 Cl 0.17400(7) 0.65117(6) 0.75384(5)
C19 C 0.3996(3) 0.8988(2) 0.7901(2)
O5 O 0.2973(2) 0.92215(19) 0.70236(16)
H11 H 0.213(3) 0.857(3) 0.666(3)
C20 C 0.5526(3) 1.0019(2) 0.8480(2)
Cl5 Cl 0.59977(7) 1.14961(6) 0.80328(5)
C21 C 0.6651(3) 0.9854(2) 0.9381(2)
Cl6 Cl 0.85541(7) 1.11200(6) 1.00590(5)
loop_
_geom_bond_atom_site_label_1
_geom_bond_atom_site_label_2
_geom_bond_site_symmetry_1
_geom_bond_site_symmetry_2
O1 C1 1_555 1_555
C1 C2 1_555 1_555
C2 C3 1_555 1_555
C3 H1 1_555 1_555
C4 C3 1_555 1_555
N1 C4 1_555 1_555
H2 N1 1_555 1_555
H3 N1 1_555 1_555
C5 C4 1_555 1_555
O2 C5 1_555 1_555
C6 C1 1_555 1_555
H4 C6 1_555 1_555
N2 C2 1_555 1_555
C7 O1 1_555 1_555
C8 N2 1_555 1_555
C9 C8 1_555 1_555
H5 C9 1_555 1_555
C10 C9 1_555 1_555
H6 C10 1_555 1_555
C11 C10 1_555 1_555
H7 C11 1_555 1_555
C12 C7 1_555 1_555
H8 C12 1_555 1_555
C13 Cl1 1_555 1_555
C14 C13 1_555 1_555
O3 C14 1_555 1_555
H9 O3 1_555 1_555
C15 C14 1_555 1_555
Cl2 C15 1_555 1_555
C16 O4 1_555 1_555
O4 H10 1_555 1_555
C17 C16 1_555 1_555
Cl3 C17 1_555 1_555
C18 C17 1_555 1_555
Cl4 C18 1_555 1_555
C19 C18 1_555 1_555
O5 C19 1_555 1_555
H11 O5 1_555 1_555
C20 C19 1_555 1_555
Cl5 C20 1_555 1_555
C21 C16 1_555 1_555
Cl6 C21 1_555 1_555
C13A C15 1_555 1_555
Cl1A C13A 1_555 1_555
C14A C13A 1_555 1_555
O3A C14A 1_555 1_555
H9A O3A 1_555 1_555
C15A C13 1_555 1_555
Cl2A C15A 1_555 1_555
C5 C6 1_555 1_555
C7 C8 1_555 1_555
C11 C12 1_555 1_555
C20 C21 1_555 1_555
C14A C15A 1_555 1_555

#END
