
#######################################################################
#
#                 Cambridge Crystallographic Data Centre
#                                CCDC 
#
#######################################################################
#
# If this CIF has been generated from an entry in the Cambridge 
# Structural Database, then it will include bibliographic, chemical, 
# crystal, experimental, refinement or atomic coordinate data resulting 
# from the CCDC's data processing and validation procedures.
#
#######################################################################

data_BUWBIF
_chemical_formula_moiety         'C18 H17 N1 O1'
_chemical_name_systematic        
(E)-1-Methyl-3-(1-phenylpropylidene)-1,3-dihydro-2H-indol-2-one
_symmetry_cell_setting           monoclinic
_symmetry_space_group_name_H-M   'P 21/c'
_symmetry_Int_Tables_number      14
_space_group_name_Hall           '-P 2ybc'
loop_
_symmetry_equiv_pos_site_id
_symmetry_equiv_pos_as_xyz
1 x,y,z
2 -x,1/2+y,1/2-z
3 -x,-y,-z
4 x,1/2-y,1/2+z
_cell_length_a                   10.327(2)
_cell_length_b                   8.3989(17)
_cell_length_c                   16.403(3)
_cell_angle_alpha                90
_cell_angle_beta                 96.26(3)
_cell_angle_gamma                90
_cell_volume                     1414.24
_exptl_crystal_colour            colorless
_exptl_crystal_description       plate
_cell_formula_units_Z            4
loop_
_atom_site_label
_atom_site_type_symbol
_atom_site_fract_x
_atom_site_fract_y
_atom_site_fract_z
O1 O 0.66526(16) 0.9889(2) 0.04271(10)
N1 N 0.59781(18) 0.8200(2) 0.14028(11)
C1 C 0.7516(2) 0.9100(3) 0.34224(14)
H1 H 0.8115 0.9869 0.3663
C2 C 0.7029(2) 0.7925(3) 0.39060(15)
H2 H 0.7299 0.7898 0.4478
C3 C 0.6154(2) 0.6797(3) 0.35627(15)
H3 H 0.5829 0.6010 0.3904
C4 C 0.5743(2) 0.6799(3) 0.27235(15)
H4 H 0.5146 0.6026 0.2485
C5 C 0.6239(2) 0.7968(3) 0.22521(14)
C6 C 0.6679(2) 0.9464(3) 0.11448(14)
C7 C 0.7427(2) 1.0157(3) 0.19002(13)
C8 C 0.7117(2) 0.9136(3) 0.25854(13)
C9 C 0.5082(2) 0.7264(3) 0.08520(15)
H5 H 0.4917 0.7813 0.0324
H6 H 0.4260 0.7130 0.1092
H7 H 0.5465 0.6217 0.0769
C10 C 0.8190(2) 1.1458(3) 0.19057(14)
C11 C 0.8430(3) 1.2381(3) 0.11476(15)
H8 H 0.8419 1.1642 0.0677
H9 H 0.9302 1.2882 0.1232
C12 C 0.7398(3) 1.3667(3) 0.09531(17)
H10 H 0.7578 1.4246 0.0459
H11 H 0.7419 1.4410 0.1415
H12 H 0.6536 1.3171 0.0860
C13 C 0.8818(2) 1.2109(3) 0.26984(14)
C14 C 0.8133(2) 1.3136(3) 0.31631(14)
H13 H 0.7272 1.3449 0.2966
C15 C 0.8702(2) 1.3705(3) 0.39121(15)
H14 H 0.8231 1.4408 0.4224
C16 C 0.9953(2) 1.3249(3) 0.42043(15)
H15 H 1.0336 1.3616 0.4723
C17 C 1.0643(2) 1.2258(3) 0.37380(15)
H16 H 1.1509 1.1959 0.3933
C18 C 1.0083(2) 1.1694(3) 0.29862(15)
H17 H 1.0569 1.1020 0.2668
loop_
_geom_bond_atom_site_label_1
_geom_bond_atom_site_label_2
_geom_bond_site_symmetry_1
_geom_bond_site_symmetry_2
O1 C6 1_555 1_555
N1 C5 1_555 1_555
C1 H1 1_555 1_555
C2 C1 1_555 1_555
H2 C2 1_555 1_555
C3 C2 1_555 1_555
H3 C3 1_555 1_555
C4 C3 1_555 1_555
H4 C4 1_555 1_555
C5 C4 1_555 1_555
C6 N1 1_555 1_555
C7 C6 1_555 1_555
C8 C1 1_555 1_555
C9 N1 1_555 1_555
H5 C9 1_555 1_555
H6 C9 1_555 1_555
H7 C9 1_555 1_555
C10 C7 1_555 1_555
C11 C10 1_555 1_555
H8 C11 1_555 1_555
H9 C11 1_555 1_555
C12 C11 1_555 1_555
H10 C12 1_555 1_555
H11 C12 1_555 1_555
H12 C12 1_555 1_555
C13 C10 1_555 1_555
C14 C13 1_555 1_555
H13 C14 1_555 1_555
C15 C14 1_555 1_555
H14 C15 1_555 1_555
C16 C15 1_555 1_555
H15 C16 1_555 1_555
C17 C16 1_555 1_555
H16 C17 1_555 1_555
C18 C13 1_555 1_555
H17 C18 1_555 1_555
C5 C8 1_555 1_555
C7 C8 1_555 1_555
C17 C18 1_555 1_555

#END
