
#######################################################################
#
#                 Cambridge Crystallographic Data Centre
#                                CCDC 
#
#######################################################################
#
# If this CIF has been generated from an entry in the Cambridge 
# Structural Database, then it will include bibliographic, chemical, 
# crystal, experimental, refinement or atomic coordinate data resulting 
# from the CCDC's data processing and validation procedures.
#
#######################################################################

data_BUWBAX
_chemical_formula_moiety         'C20 H22 O3'
_chemical_name_systematic        
1-(6,7-Dimethoxy-3-methyl-4-(pent-1-yn-1-yl)-2-naphthyl)ethanone
_symmetry_cell_setting           monoclinic
_symmetry_space_group_name_H-M   'P 21/c'
_symmetry_Int_Tables_number      14
_space_group_name_Hall           '-P 2ybc'
loop_
_symmetry_equiv_pos_site_id
_symmetry_equiv_pos_as_xyz
1 x,y,z
2 -x,1/2+y,1/2-z
3 -x,-y,-z
4 x,1/2-y,1/2+z
_cell_length_a                   11.2119(4)
_cell_length_b                   14.3426(5)
_cell_length_c                   11.8826(4)
_cell_angle_alpha                90
_cell_angle_beta                 115.9320(10)
_cell_angle_gamma                90
_cell_volume                     1718.42
_exptl_crystal_colour            colorless
_exptl_crystal_description       block
_cell_formula_units_Z            4
loop_
_atom_site_label
_atom_site_type_symbol
_atom_site_fract_x
_atom_site_fract_y
_atom_site_fract_z
O1 O 0.61504(18) -0.93960(11) 1.12088(14)
O2 O 0.69766(18) -1.07379(11) 1.27692(14)
O3 O 1.1124(3) -0.67760(16) 1.8358(2)
C1 C 0.8369(2) -0.70992(15) 1.4526(2)
C2 C 0.9184(2) -0.69076(16) 1.5775(2)
C3 C 0.9725(2) -0.76707(16) 1.6621(2)
C4 C 0.9386(2) -0.85718(16) 1.6189(2)
H1 H 0.9719 -0.9062 1.6753
C5 C 0.8556(2) -0.87758(14) 1.49294(19)
C6 C 0.8059(2) -0.80310(14) 1.4072(2)
C7 C 0.7250(2) -0.82357(16) 1.2798(2)
H2 H 0.6932 -0.7751 1.2222
C8 C 0.6931(2) -0.91295(16) 1.24036(19)
C9 C 0.7401(2) -0.98818(15) 1.3275(2)
C10 C 0.8209(2) -0.97024(15) 1.44969(19)
H3 H 0.8538 -1.0195 1.5058
C11 C 0.5549(3) -0.86802(19) 1.0300(2)
H4 H 0.5025 -0.8958 0.9499
H5 H 0.6226 -0.8297 1.0250
H6 H 0.4990 -0.8304 1.0540
C12 C 0.7224(3) -1.14904(17) 1.3622(2)
H7 H 0.6880 -1.2057 1.3163
H8 H 0.6798 -1.1370 1.4153
H9 H 0.8162 -1.1553 1.4124
C13 C 1.0686(3) -0.75363(18) 1.7953(2)
C14 C 1.1159(3) -0.83497(19) 1.8818(2)
H10 H 1.1759 -0.8139 1.9638
H11 H 1.1607 -0.8781 1.8516
H12 H 1.0414 -0.8653 1.8856
C15 C 0.7798(3) -0.63549(17) 1.3640(2)
C16 C 0.7309(3) -0.57655(19) 1.2867(3)
C17 C 0.6678(4) -0.5029(2) 1.1915(3)
H13 H 0.7321 -0.4808 1.1635
H14 H 0.5948 -0.5305 1.1199
C18 C 0.6186(4) -0.4247(3) 1.2323(4)
H15 H 0.6921 -0.3941 1.3002
H16 H 0.5579 -0.4466 1.2648
C19 C 0.5474(3) -0.3539(2) 1.1291(3)
H17 H 0.5164 -0.3032 1.1620
H18 H 0.4732 -0.3833 1.0623
H19 H 0.6075 -0.3306 1.0980
C20 C 0.9435(3) -0.58999(18) 1.6181(3)
H20 H 0.8978 -0.5503 1.5470
H21 H 1.0369 -0.5775 1.6533
H22 H 0.9117 -0.5781 1.6797
loop_
_geom_bond_atom_site_label_1
_geom_bond_atom_site_label_2
_geom_bond_site_symmetry_1
_geom_bond_site_symmetry_2
O1 C8 1_555 1_555
O2 C9 1_555 1_555
O3 C13 1_555 1_555
C1 C2 1_555 1_555
C2 C3 1_555 1_555
C3 C4 1_555 1_555
C4 H1 1_555 1_555
C5 C4 1_555 1_555
C6 C1 1_555 1_555
C7 C6 1_555 1_555
H2 C7 1_555 1_555
C8 C7 1_555 1_555
C9 C8 1_555 1_555
C10 C5 1_555 1_555
H3 C10 1_555 1_555
C11 O1 1_555 1_555
H4 C11 1_555 1_555
H5 C11 1_555 1_555
H6 C11 1_555 1_555
C12 O2 1_555 1_555
H7 C12 1_555 1_555
H8 C12 1_555 1_555
H9 C12 1_555 1_555
C13 C3 1_555 1_555
C14 C13 1_555 1_555
H10 C14 1_555 1_555
H11 C14 1_555 1_555
H12 C14 1_555 1_555
C15 C1 1_555 1_555
C16 C15 1_555 1_555
C17 C16 1_555 1_555
H13 C17 1_555 1_555
H14 C17 1_555 1_555
C18 C17 1_555 1_555
H15 C18 1_555 1_555
H16 C18 1_555 1_555
C19 C18 1_555 1_555
H17 C19 1_555 1_555
H18 C19 1_555 1_555
H19 C19 1_555 1_555
C20 C2 1_555 1_555
H20 C20 1_555 1_555
H21 C20 1_555 1_555
H22 C20 1_555 1_555
C5 C6 1_555 1_555
C9 C10 1_555 1_555

#END
