
#######################################################################
#
#                 Cambridge Crystallographic Data Centre
#                                CCDC 
#
#######################################################################
#
# If this CIF has been generated from an entry in the Cambridge 
# Structural Database, then it will include bibliographic, chemical, 
# crystal, experimental, refinement or atomic coordinate data resulting 
# from the CCDC's data processing and validation procedures.
#
#######################################################################

data_BUWDED
_chemical_formula_moiety         'C23 H17 Br2 N1'
_chemical_name_systematic        
2-(4-Bromobenzyl)-3-(4-bromophenyl)-6-methylquinoline
_symmetry_cell_setting           triclinic
_symmetry_space_group_name_H-M   'P -1'
_symmetry_Int_Tables_number      2
_space_group_name_Hall           '-P 1'
loop_
_symmetry_equiv_pos_site_id
_symmetry_equiv_pos_as_xyz
1 x,y,z
2 -x,-y,-z
_cell_length_a                   5.9442(6)
_cell_length_b                   11.4199(14)
_cell_length_c                   14.7237(17)
_cell_angle_alpha                69.186(5)
_cell_angle_beta                 87.564(5)
_cell_angle_gamma                81.137(5)
_cell_volume                     923.013
_exptl_crystal_colour            colorless
_exptl_crystal_description       stick
_cell_formula_units_Z            2
loop_
_atom_site_label
_atom_site_type_symbol
_atom_site_fract_x
_atom_site_fract_y
_atom_site_fract_z
Br1 Br -0.76365(4) 0.76728(2) -0.055456(17)
Br2 Br 0.32029(4) 1.01734(2) 0.113872(17)
C1 C -0.5578(4) 0.6521(2) 0.04299(17)
C2 C -0.6352(4) 0.6041(2) 0.13709(17)
H1 H -0.7898 0.6257 0.1517
C3 C -0.4834(4) 0.5237(2) 0.21016(17)
H2 H -0.5367 0.4884 0.2745
C4 C -0.2531(4) 0.4939(2) 0.19029(16)
C5 C -0.1832(4) 0.5410(2) 0.09366(17)
H3 H -0.0296 0.5186 0.0783
C6 C -0.3341(4) 0.6202(2) 0.01949(17)
H4 H -0.2846 0.6517 -0.0458
C7 C -0.0806(4) 0.4187(2) 0.26801(16)
C8 C 0.0669(4) 0.3178(2) 0.25886(17)
H5 H 0.0457 0.2895 0.2069
C9 C 0.2490(4) 0.2558(2) 0.32560(17)
C10 C 0.4188(4) 0.1599(2) 0.31492(18)
H6 H 0.4031 0.1286 0.2641
C11 C 0.6050(4) 0.1110(2) 0.37596(18)
C12 C 0.7919(4) 0.0126(2) 0.3623(2)
H7 H 0.7488 -0.0133 0.3096
H8 H 0.814 -0.0612 0.4226
H9 H 0.9339 0.0488 0.3459
C13 C 0.6234(4) 0.1571(2) 0.45275(18)
H10 H 0.7513 0.1241 0.4956
C14 C 0.4608(4) 0.2478(2) 0.46634(17)
H11 H 0.4756 0.2756 0.5191
C15 C 0.2702(4) 0.3009(2) 0.40228(16)
N1 N 0.1200(3) 0.39846(19) 0.41369(14)
C16 C -0.0456(4) 0.4562(2) 0.34908(16)
C17 C -0.1814(4) 0.5742(2) 0.36236(17)
H12 H -0.3407 0.5854 0.34
H13 H -0.183 0.5643 0.432
C18 C -0.0721(4) 0.6892(2) 0.30388(16)
C19 C 0.1242(4) 0.7130(2) 0.33973(17)
H14 H 0.18 0.6606 0.4029
C20 C 0.2383(4) 0.8115(2) 0.28474(16)
H15 H 0.3709 0.8269 0.3099
C21 C 0.1557(4) 0.8876(2) 0.19211(17)
C22 C -0.0429(4) 0.8693(2) 0.15590(17)
H16 H -0.1009 0.9236 0.0936
C23 C -0.1553(4) 0.7706(2) 0.21202(17)
H17 H -0.2915 0.758 0.1877
loop_
_geom_bond_atom_site_label_1
_geom_bond_atom_site_label_2
_geom_bond_site_symmetry_1
_geom_bond_site_symmetry_2
Br1 C1 1_555 1_555
Br2 C21 1_555 1_555
C1 C2 1_555 1_555
C2 H1 1_555 1_555
C3 C2 1_555 1_555
H2 C3 1_555 1_555
C4 C3 1_555 1_555
C5 C4 1_555 1_555
H3 C5 1_555 1_555
C6 C1 1_555 1_555
H4 C6 1_555 1_555
C7 C4 1_555 1_555
C8 C7 1_555 1_555
H5 C8 1_555 1_555
C9 C8 1_555 1_555
C10 C9 1_555 1_555
H6 C10 1_555 1_555
C11 C10 1_555 1_555
C12 C11 1_555 1_555
H7 C12 1_555 1_555
H8 C12 1_555 1_555
H9 C12 1_555 1_555
C13 C11 1_555 1_555
H10 C13 1_555 1_555
C14 C13 1_555 1_555
H11 C14 1_555 1_555
C15 C9 1_555 1_555
N1 C15 1_555 1_555
C16 C7 1_555 1_555
C17 C16 1_555 1_555
H12 C17 1_555 1_555
H13 C17 1_555 1_555
C18 C17 1_555 1_555
C19 C18 1_555 1_555
H14 C19 1_555 1_555
C20 C19 1_555 1_555
H15 C20 1_555 1_555
C21 C20 1_555 1_555
C22 C21 1_555 1_555
H16 C22 1_555 1_555
C23 C18 1_555 1_555
H17 C23 1_555 1_555
C5 C6 1_555 1_555
C14 C15 1_555 1_555
N1 C16 1_555 1_555
C22 C23 1_555 1_555

#END
