
#######################################################################
#
#                 Cambridge Crystallographic Data Centre
#                                CCDC 
#
#######################################################################
#
# If this CIF has been generated from an entry in the Cambridge 
# Structural Database, then it will include bibliographic, chemical, 
# crystal, experimental, refinement or atomic coordinate data resulting 
# from the CCDC's data processing and validation procedures.
#
#######################################################################

data_BUWGOR
_chemical_formula_moiety         'C25 H18 O1 S4'
_chemical_name_systematic        
2,3-bis(2-methyl-1-benzothiophen-3-yl)-5,6-dihydro-4H-thieno[2,3-b]thiopyran-4-one
_symmetry_cell_setting           monoclinic
_symmetry_space_group_name_H-M   'P 21/c'
_symmetry_Int_Tables_number      14
_space_group_name_Hall           '-P 2ybc'
loop_
_symmetry_equiv_pos_site_id
_symmetry_equiv_pos_as_xyz
1 x,y,z
2 -x,1/2+y,1/2-z
3 -x,-y,-z
4 x,1/2-y,1/2+z
_cell_length_a                   11.4693(5)
_cell_length_b                   12.2105(5)
_cell_length_c                   15.7400(6)
_cell_angle_alpha                90
_cell_angle_beta                 90.067(2)
_cell_angle_gamma                90
_cell_volume                     2204.32
_exptl_crystal_colour            orange
_exptl_crystal_description       BLOCK
_chemical_melting_point          '233.7 deg.C'
_cell_formula_units_Z            4
_chemical_properties_physical    Light-sensitive
_exptl_crystal_recrystallization_method 
'Re-crystallisation from solvent: Hexane and Ethyl acetate'
_exptl_crystal_preparation       Luminescent
loop_
_atom_site_label
_atom_site_type_symbol
_atom_site_fract_x
_atom_site_fract_y
_atom_site_fract_z
S1 S 0.69331(6) -0.15107(7) 0.31990(4)
S2 S 0.35929(6) 0.02706(7) 0.14571(5)
S3 S 0.12366(8) 0.11113(9) 0.09979(7)
S4 S 0.30115(8) -0.35954(7) 0.41883(6)
O1 O 0.02448(19) -0.1477(2) 0.28277(17)
C1 C 0.6852(2) -0.1874(2) 0.21346(18)
C2 C 0.7696(3) -0.2370(3) 0.1653(2)
H1 H 0.8407 -0.2568 0.1892
C3 C 0.7469(3) -0.2569(3) 0.0811(2)
H2 H 0.8038 -0.2891 0.0473
C4 C 0.6396(3) -0.2293(3) 0.0460(2)
H3 H 0.6257 -0.2438 -0.0111
C5 C 0.5538(3) -0.1811(3) 0.09371(19)
H4 H 0.4823 -0.1634 0.0694
C6 C 0.5753(2) -0.1588(2) 0.17956(16)
C7 C 0.4998(2) -0.1085(2) 0.24243(16)
C8 C 0.5532(2) -0.0983(2) 0.31961(15)
C9 C 0.5077(3) -0.0453(3) 0.39750(18)
H5 H 0.5648 -0.0505 0.4420
H6 H 0.4374 -0.0814 0.4150
H7 H 0.4914 0.0304 0.3860
C10 C 0.3798(2) -0.0713(2) 0.22372(16)
C11 C 0.2117(2) 0.0269(2) 0.16127(17)
C12 C -0.0043(3) 0.1007(4) 0.1655(4)
H8 H 0.0083 0.1440 0.2163
H9 H -0.0693 0.1330 0.1351
C13 C -0.0365(3) -0.0081(3) 0.1907(3)
H10 H -0.0581 -0.0487 0.1401
H11 H -0.1053 -0.0032 0.2263
C14 C 0.0549(2) -0.0729(3) 0.2379(2)
C15 C 0.1783(2) -0.0462(2) 0.22296(16)
C16 C 0.2774(2) -0.1023(2) 0.26017(15)
C17 C 0.2721(2) -0.1834(2) 0.33009(17)
C18 C 0.2256(2) -0.1591(3) 0.41388(18)
C19 C 0.1783(3) -0.0621(3) 0.4438(2)
H12 H 0.1721 -0.0015 0.4083
C20 C 0.1396(4) -0.0564(5) 0.5283(3)
H13 H 0.1092 0.0084 0.5500
C21 C 0.1476(4) -0.1508(6) 0.5797(3)
H14 H 0.1190 -0.1479 0.6349
C22 C 0.1954(4) -0.2452(5) 0.5517(3)
H15 H 0.2012 -0.3057 0.5874
C23 C 0.2360(3) -0.2502(3) 0.4680(2)
C24 C 0.3141(2) -0.2875(2) 0.32398(19)
C25 C 0.3661(3) -0.3433(3) 0.2501(2)
H16 H 0.3872 -0.4168 0.2655
H17 H 0.4345 -0.3043 0.2321
H18 H 0.3106 -0.3452 0.2044
loop_
_geom_bond_atom_site_label_1
_geom_bond_atom_site_label_2
_geom_bond_site_symmetry_1
_geom_bond_site_symmetry_2
S1 C1 1_555 1_555
S2 C10 1_555 1_555
S3 C11 1_555 1_555
S4 C23 1_555 1_555
O1 C14 1_555 1_555
C1 C2 1_555 1_555
C2 H1 1_555 1_555
C3 C2 1_555 1_555
H2 C3 1_555 1_555
C4 C3 1_555 1_555
H3 C4 1_555 1_555
C5 C4 1_555 1_555
H4 C5 1_555 1_555
C6 C1 1_555 1_555
C7 C6 1_555 1_555
C8 S1 1_555 1_555
C9 C8 1_555 1_555
H5 C9 1_555 1_555
H6 C9 1_555 1_555
H7 C9 1_555 1_555
C10 C7 1_555 1_555
C11 S2 1_555 1_555
C12 S3 1_555 1_555
H8 C12 1_555 1_555
H9 C12 1_555 1_555
C13 C12 1_555 1_555
H10 C13 1_555 1_555
H11 C13 1_555 1_555
C14 C13 1_555 1_555
C15 C11 1_555 1_555
C16 C10 1_555 1_555
C17 C16 1_555 1_555
C18 C17 1_555 1_555
C19 C18 1_555 1_555
H12 C19 1_555 1_555
C20 C19 1_555 1_555
H13 C20 1_555 1_555
C21 C20 1_555 1_555
H14 C21 1_555 1_555
C22 C21 1_555 1_555
H15 C22 1_555 1_555
C23 C18 1_555 1_555
C24 S4 1_555 1_555
C25 C24 1_555 1_555
H16 C25 1_555 1_555
H17 C25 1_555 1_555
H18 C25 1_555 1_555
C5 C6 1_555 1_555
C7 C8 1_555 1_555
C14 C15 1_555 1_555
C15 C16 1_555 1_555
C17 C24 1_555 1_555
C22 C23 1_555 1_555

#END
