
#######################################################################
#
#                 Cambridge Crystallographic Data Centre
#                                CCDC 
#
#######################################################################
#
# If this CIF has been generated from an entry in the Cambridge 
# Structural Database, then it will include bibliographic, chemical, 
# crystal, experimental, refinement or atomic coordinate data resulting 
# from the CCDC's data processing and validation procedures.
#
#######################################################################

data_BUWJOU
_chemical_formula_moiety         'C34 H36 N2 O16 S4'
_chemical_name_systematic        
'4-(((4-methylphenyl)sulfonyl)oxy)-2,3-bis((((4-methylphenyl)sulfonyl)oxy)methyl)-2,3-dinitrobutyl 4-methylbenzenesulfonate'
_symmetry_cell_setting           triclinic
_symmetry_space_group_name_H-M   'P -1'
_symmetry_Int_Tables_number      2
_space_group_name_Hall           '-P 1'
loop_
_symmetry_equiv_pos_site_id
_symmetry_equiv_pos_as_xyz
1 x,y,z
2 -x,-y,-z
_cell_length_a                   11.341(2)
_cell_length_b                   13.743(3)
_cell_length_c                   14.845(3)
_cell_angle_alpha                104.69(3)
_cell_angle_beta                 98.80(3)
_cell_angle_gamma                110.30(3)
_cell_volume                     2023.7
_cell_formula_units_Z            2
loop_
_atom_site_label
_atom_site_type_symbol
_atom_site_fract_x
_atom_site_fract_y
_atom_site_fract_z
S1 S 0.16335(19) 0.11916(12) 0.34196(13)
C1 C 0.1186(5) 0.3614(4) 0.2742(3)
N1 N 0.0087(5) 0.3620(5) 0.1995(4)
O1 O 0.0363(5) 0.4277(4) 0.1580(3)
S2 S 0.30126(15) 0.31877(12) 0.07750(10)
N2 N 0.0368(4) 0.4087(3) 0.4182(3)
C2 C 0.1442(4) 0.4555(4) 0.3726(3)
O2 O -0.1017(4) 0.2958(4) 0.1884(3)
S3 S 0.2652(2) 0.72971(13) 0.31649(13)
O3 O -0.0654(4) 0.4180(3) 0.3933(3)
C3 C 0.2370(5) 0.3862(4) 0.2350(3)
H1 H 0.2657 0.4596 0.2305
H2 H 0.3079 0.3818 0.2771
S4 S 0.39231(12) 0.59800(10) 0.62279(9)
O4 O 0.0547(4) 0.3635(3) 0.4762(3)
C4 C 0.0710(5) 0.2456(4) 0.2804(4)
H3 H -0.0038 0.2311 0.3070
H4 H 0.0458 0.1915 0.2167
O5 O 0.1777(3) 0.2397(3) 0.3426(2)
C5 C 0.1346(5) 0.5605(4) 0.3604(4)
H5 H 0.0563 0.5423 0.3111
H6 H 0.1323 0.6073 0.4206
C6 C 0.2760(4) 0.4831(4) 0.4409(3)
H7 H 0.2778 0.4192 0.4566
H8 H 0.3470 0.5099 0.4125
O6 O 0.2708(5) 0.1415(3) 0.4203(3)
O7 O 0.0321(5) 0.0593(3) 0.3395(4)
C7 C 0.1911(6) 0.0670(4) 0.2313(4)
O8 O 0.1985(3) 0.3049(3) 0.1404(2)
C8 C 0.0909(6) -0.0120(5) 0.1541(5)
H9 H 0.0073 -0.0434 0.1609
O9 O 0.2322(4) 0.2291(3) -0.0097(2)
C9 C 0.1180(7) -0.0432(5) 0.0662(5)
H10 H 0.0509 -0.0962 0.0136
O10 O 0.4216(3) 0.3302(3) 0.1341(3)
C10 C 0.2408(7) 0.0017(5) 0.0542(4)
O11 O 0.2487(3) 0.6150(3) 0.3323(3)
C11 C 0.3403(6) 0.0788(5) 0.1329(5)
H11 H 0.4244 0.1094 0.1266
O12 O 0.1402(5) 0.7139(4) 0.2591(3)
C12 C 0.3142(6) 0.1106(4) 0.2220(4)
H12 H 0.3814 0.1620 0.2753
O13 O 0.3796(5) 0.7570(4) 0.2832(3)
C13 C 0.2687(8) -0.0278(6) -0.0434(5)
H13 H 0.3595 0.0118 -0.0370
H14 H 0.2172 -0.0086 -0.0878
H15 H 0.2469 -0.1054 -0.0673
O14 O 0.2843(3) 0.5681(3) 0.5258(2)
C14 C 0.3224(6) 0.4431(4) 0.0594(3)
O15 O 0.5104(3) 0.6024(3) 0.5982(2)
C15 C 0.2173(7) 0.4530(5) 0.0062(4)
H16 H 0.1372 0.3933 -0.0216
O16 O 0.3856(3) 0.6918(3) 0.6859(2)
C16 C 0.2353(8) 0.5547(6) -0.0043(5)
H17 H 0.1659 0.5623 -0.0396
C17 C 0.3524(8) 0.6438(6) 0.0360(5)
C18 C 0.4539(7) 0.6303(5) 0.0880(5)
H18 H 0.5346 0.6895 0.1146
C19 C 0.4391(6) 0.5312(5) 0.1017(4)
H19 H 0.5078 0.5248 0.1392
C20 C 0.3681(9) 0.7525(6) 0.0228(6)
H20 H 0.2865 0.7462 -0.0134
H21 H 0.4330 0.7724 -0.0115
H22 H 0.3947 0.8080 0.0849
C21 C 0.3299(5) 0.4864(4) 0.6611(3)
C22 C 0.2491(5) 0.4881(5) 0.7210(4)
H23 H 0.2339 0.5510 0.7440
C23 C 0.1898(6) 0.3967(5) 0.7473(4)
H24 H 0.1351 0.3984 0.7879
C24 C 0.2123(7) 0.3032(5) 0.7130(5)
C25 C 0.2962(7) 0.3037(5) 0.6547(5)
H25 H 0.3133 0.2416 0.6333
C26 C 0.3565(6) 0.3947(5) 0.6268(4)
H26 H 0.4121 0.3937 0.5869
C27 C 0.1469(7) 0.2031(6) 0.7403(5)
H27 H 0.1720 0.1456 0.7101
H28 H 0.0540 0.1785 0.7190
H29 H 0.1731 0.2214 0.8092
C28 C 0.2942(6) 0.8155(4) 0.4335(4)
C29 C 0.4159(7) 0.8540(5) 0.4957(5)
H30 H 0.4818 0.8372 0.4746
C30 C 0.4384(7) 0.9181(5) 0.5899(5)
H31 H 0.5204 0.9447 0.6325
C31 C 0.3408(9) 0.9431(6) 0.6217(5)
C32 C 0.2234(8) 0.9047(6) 0.5576(6)
H32 H 0.1577 0.9218 0.5787
C33 C 0.1958(7) 0.8406(6) 0.4612(5)
H33 H 0.1147 0.8163 0.4182
C34 C 0.3649(9) 1.0101(7) 0.7267(6)
H34 H 0.4540 1.0320 0.7606
H35 H 0.3082 0.9663 0.7563
H36 H 0.3478 1.0744 0.7295
loop_
_geom_bond_atom_site_label_1
_geom_bond_atom_site_label_2
_geom_bond_site_symmetry_1
_geom_bond_site_symmetry_2
S1 O5 1_555 1_555
C1 N1 1_555 1_555
N1 O1 1_555 1_555
S2 O8 1_555 1_555
N2 C2 1_555 1_555
C2 C1 1_555 1_555
O2 N1 1_555 1_555
S3 O11 1_555 1_555
O3 N2 1_555 1_555
C3 C1 1_555 1_555
H1 C3 1_555 1_555
H2 C3 1_555 1_555
S4 O14 1_555 1_555
O4 N2 1_555 1_555
C4 C1 1_555 1_555
H3 C4 1_555 1_555
H4 C4 1_555 1_555
O5 C4 1_555 1_555
C5 C2 1_555 1_555
H5 C5 1_555 1_555
H6 C5 1_555 1_555
C6 C2 1_555 1_555
H7 C6 1_555 1_555
H8 C6 1_555 1_555
O6 S1 1_555 1_555
O7 S1 1_555 1_555
C7 S1 1_555 1_555
O8 C3 1_555 1_555
C8 C7 1_555 1_555
H9 C8 1_555 1_555
O9 S2 1_555 1_555
C9 C8 1_555 1_555
H10 C9 1_555 1_555
O10 S2 1_555 1_555
C10 C9 1_555 1_555
O11 C5 1_555 1_555
C11 C10 1_555 1_555
H11 C11 1_555 1_555
O12 S3 1_555 1_555
C12 C7 1_555 1_555
H12 C12 1_555 1_555
O13 S3 1_555 1_555
C13 C10 1_555 1_555
H13 C13 1_555 1_555
H14 C13 1_555 1_555
H15 C13 1_555 1_555
O14 C6 1_555 1_555
C14 S2 1_555 1_555
O15 S4 1_555 1_555
C15 C14 1_555 1_555
H16 C15 1_555 1_555
O16 S4 1_555 1_555
C16 C15 1_555 1_555
H17 C16 1_555 1_555
C17 C16 1_555 1_555
C18 C17 1_555 1_555
H18 C18 1_555 1_555
C19 C14 1_555 1_555
H19 C19 1_555 1_555
C20 C17 1_555 1_555
H20 C20 1_555 1_555
H21 C20 1_555 1_555
H22 C20 1_555 1_555
C21 S4 1_555 1_555
C22 C21 1_555 1_555
H23 C22 1_555 1_555
C23 C22 1_555 1_555
H24 C23 1_555 1_555
C24 C23 1_555 1_555
C25 C24 1_555 1_555
H25 C25 1_555 1_555
C26 C21 1_555 1_555
H26 C26 1_555 1_555
C27 C24 1_555 1_555
H27 C27 1_555 1_555
H28 C27 1_555 1_555
H29 C27 1_555 1_555
C28 S3 1_555 1_555
C29 C28 1_555 1_555
H30 C29 1_555 1_555
C30 C29 1_555 1_555
H31 C30 1_555 1_555
C31 C30 1_555 1_555
C32 C31 1_555 1_555
H32 C32 1_555 1_555
C33 C28 1_555 1_555
H33 C33 1_555 1_555
C34 C31 1_555 1_555
H34 C34 1_555 1_555
H35 C34 1_555 1_555
H36 C34 1_555 1_555
C11 C12 1_555 1_555
C18 C19 1_555 1_555
C25 C26 1_555 1_555
C32 C33 1_555 1_555

#END
