
#######################################################################
#
#                 Cambridge Crystallographic Data Centre
#                                CCDC 
#
#######################################################################
#
# If this CIF has been generated from an entry in the Cambridge 
# Structural Database, then it will include bibliographic, chemical, 
# crystal, experimental, refinement or atomic coordinate data resulting 
# from the CCDC's data processing and validation procedures.
#
#######################################################################

data_BUWKUZ01
_chemical_formula_moiety         'C19 H16 O4,C1 H4 O1'
_chemical_name_systematic        
'5-hydroxy-1,7-bis(4-hydroxyphenyl)hepta-1,4,6-trien-3-one methanol solvate'
_symmetry_cell_setting           monoclinic
_symmetry_space_group_name_H-M   'P 21/n'
_symmetry_Int_Tables_number      14
_space_group_name_Hall           '-P 2yn'
loop_
_symmetry_equiv_pos_site_id
_symmetry_equiv_pos_as_xyz
1 x,y,z
2 1/2-x,1/2+y,1/2-z
3 -x,-y,-z
4 1/2+x,1/2-y,1/2+z
_cell_length_a                   6.7776(7)
_cell_length_b                   7.5709(6)
_cell_length_c                   32.901(4)
_cell_angle_alpha                90
_cell_angle_beta                 93.641(9)
_cell_angle_gamma                90
_cell_volume                     1684.83
_exptl_crystal_colour            yellow
_exptl_crystal_description       plate
_cell_formula_units_Z            4
loop_
_atom_site_label
_atom_site_type_symbol
_atom_site_fract_x
_atom_site_fract_y
_atom_site_fract_z
O1 O 0.61848(13) 0.36168(13) 0.39997(3)
O2 O 0.30895(13) 0.31920(13) 0.35493(3)
H1 H 0.403(2) 0.319(3) 0.3784(5)
C1 C 0.57084(18) 0.50014(17) 0.33622(4)
H2 H 0.621822 0.574790 0.317035
C2 C 0.38822(17) 0.42431(17) 0.32817(4)
O3 O -0.46452(14) 0.47137(14) 0.15125(3)
H3 H -0.412(3) 0.516(3) 0.1269(5)
C3 C 0.27209(18) 0.45418(17) 0.29022(4)
H4 H 0.321176 0.529021 0.270853
O4 O 1.68734(14) 0.86071(15) 0.47378(3)
H5 H 1.741(3) 0.927(3) 0.4528(6)
C4 C 0.09525(18) 0.37648(17) 0.28231(4)
H6 H 0.052869 0.301085 0.302296
C5 C -0.03745(17) 0.39693(16) 0.24600(4)
C6 C -0.12610(19) 0.50671(17) 0.17814(4)
H7 H -0.090495 0.563597 0.154645
C7 C 0.01276(18) 0.48203(17) 0.21036(4)
H8 H 0.141223 0.522633 0.208276
C8 C -0.37031(18) 0.35648(17) 0.21548(4)
H9 H -0.497842 0.312970 0.217178
C9 C -0.31977(18) 0.44623(17) 0.18087(4)
C10 C -0.23059(18) 0.33197(17) 0.24741(4)
H10 H -0.265511 0.270886 0.270400
C11 C 0.68334(18) 0.46619(17) 0.37349(4)
C12 C 0.87452(17) 0.55288(17) 0.38070(4)
H11 H 0.933308 0.607014 0.359157
C13 C 0.96674(17) 0.55552(17) 0.41804(4)
H12 H 0.901650 0.498709 0.438377
C14 C 1.15545(17) 0.63595(17) 0.43068(4)
C15 C 1.27180(18) 0.72721(17) 0.40408(4)
H13 H 1.229442 0.737285 0.376734
C16 C 1.44897(18) 0.80257(18) 0.41796(4)
H14 H 1.525208 0.862466 0.399893
C17 C 1.51428(18) 0.78943(18) 0.45889(4)
C18 C 1.4016(2) 0.69832(19) 0.48581(4)
H15 H 1.444113 0.688703 0.513159
C19 C 1.22573(19) 0.62224(19) 0.47143(4)
H16 H 1.151561 0.559815 0.489434
O5 O 0.86131(14) 0.08980(13) 0.42213(3)
H17 H 0.788(3) 0.196(2) 0.4193(6)
C20 C 1.04391(19) 0.12397(19) 0.44570(4)
H18 H 1.125227 0.200904 0.430684
H19 H 1.112269 0.014617 0.451147
H20 H 1.015849 0.179137 0.470961
loop_
_geom_bond_atom_site_label_1
_geom_bond_atom_site_label_2
_geom_bond_site_symmetry_1
_geom_bond_site_symmetry_2
O1 C11 1_555 1_555
O2 H1 1_555 1_555
C1 H2 1_555 1_555
C2 O2 1_555 1_555
O3 H3 1_555 1_555
C3 C2 1_555 1_555
H4 C3 1_555 1_555
O4 H5 1_555 1_555
C4 C3 1_555 1_555
H6 C4 1_555 1_555
C5 C4 1_555 1_555
C6 H7 1_555 1_555
C7 C5 1_555 1_555
H8 C7 1_555 1_555
C8 H9 1_555 1_555
C9 O3 1_555 1_555
C10 C5 1_555 1_555
H10 C10 1_555 1_555
C11 C1 1_555 1_555
C12 C11 1_555 1_555
H11 C12 1_555 1_555
C13 C12 1_555 1_555
H12 C13 1_555 1_555
C14 C13 1_555 1_555
C15 C14 1_555 1_555
H13 C15 1_555 1_555
C16 C15 1_555 1_555
H14 C16 1_555 1_555
C17 O4 1_555 1_555
C18 C17 1_555 1_555
H15 C18 1_555 1_555
C19 C14 1_555 1_555
H16 C19 1_555 1_555
O5 H17 1_555 1_555
C20 O5 1_555 1_555
H18 C20 1_555 1_555
H19 C20 1_555 1_555
H20 C20 1_555 1_555
C1 C2 1_555 1_555
C6 C7 1_555 1_555
C6 C9 1_555 1_555
C8 C9 1_555 1_555
C8 C10 1_555 1_555
C16 C17 1_555 1_555
C18 C19 1_555 1_555

#END
