
#######################################################################
#
#                 Cambridge Crystallographic Data Centre
#                                CCDC 
#
#######################################################################
#
# If this CIF has been generated from an entry in the Cambridge 
# Structural Database, then it will include bibliographic, chemical, 
# crystal, experimental, refinement or atomic coordinate data resulting 
# from the CCDC's data processing and validation procedures.
#
#######################################################################

data_BUWQUH
_chemical_formula_moiety         'C18 H20 F1 N3 O2'
_chemical_name_systematic        
N'-(4-(diethylamino)-2-hydroxybenzylidene)-2-fluorobenzohydrazide
_symmetry_cell_setting           monoclinic
_symmetry_space_group_name_H-M   'P 21/c'
_symmetry_Int_Tables_number      14
_space_group_name_Hall           '-P 2ybc'
loop_
_symmetry_equiv_pos_site_id
_symmetry_equiv_pos_as_xyz
1 x,y,z
2 -x,1/2+y,1/2-z
3 -x,-y,-z
4 x,1/2-y,1/2+z
_cell_length_a                   10.6827(2)
_cell_length_b                   16.5256(3)
_cell_length_c                   9.81740(10)
_cell_angle_alpha                90
_cell_angle_beta                 102.564(2)
_cell_angle_gamma                90
_cell_volume                     1691.64
_cell_formula_units_Z            4
loop_
_atom_site_label
_atom_site_type_symbol
_atom_site_fract_x
_atom_site_fract_y
_atom_site_fract_z
F1 F -0.0513(2) 0.38986(13) 0.1934(3)
N1 N 0.6993(2) 0.00714(19) 0.1829(3)
N2 N 0.19372(17) 0.19657(12) 0.2660(2)
N3 N 0.08035(18) 0.24010(13) 0.2413(2)
O1 O 0.04195(17) 0.20379(12) 0.45014(17)
O2 O 0.36573(18) 0.09334(13) 0.40197(19)
H1 H 0.2985 0.1191 0.3863
C1 C 0.3713(2) 0.15049(15) 0.1775(2)
C2 C 0.4221(2) 0.09946(14) 0.2910(2)
C3 C 0.5302(2) 0.05318(16) 0.2934(3)
H2 H 0.5612 0.0201 0.3698
C4 C 0.5941(2) 0.05508(17) 0.1829(3)
C5 C 0.5445(2) 0.10697(18) 0.0697(3)
H3 H 0.5851 0.1102 -0.0049
C6 C 0.4374(2) 0.15245(18) 0.0687(3)
H4 H 0.4071 0.1861 -0.0073
C7 C 0.2567(2) 0.19756(15) 0.1686(3)
H5 H 0.2274 0.2296 0.0902
C8 C 0.0077(2) 0.23795(13) 0.3376(2)
C9 C -0.1216(2) 0.27675(14) 0.2974(2)
C10 C -0.1478(3) 0.34856(18) 0.2272(3)
C11 C -0.2688(3) 0.3816(2) 0.1947(4)
H6 H -0.2836 0.4310 0.1485
C12 C -0.3676(3) 0.3397(3) 0.2324(4)
H7 H -0.4507 0.3598 0.2079
C13 C -0.3447(3) 0.2692(2) 0.3052(4)
H8 H -0.4117 0.2422 0.3323
C14 C -0.2226(2) 0.23784(18) 0.3387(3)
H9 H -0.2074 0.1900 0.3896
C15 C 0.7687(3) 0.0101(2) 0.0711(3)
H10 H 0.7075 0.0177 -0.0167
H11 H 0.8105 -0.0416 0.0666
C16 C 0.8671(4) 0.0753(3) 0.0861(4)
H12 H 0.8260 0.1272 0.0829
H13 H 0.9116 0.0715 0.0112
H14 H 0.9272 0.0693 0.1737
C17 C 0.7491(3) -0.0522(3) 0.3016(4)
H15 H 0.6774 -0.0746 0.3349
H16 H 0.7934 -0.0964 0.2672
C18 C 0.8337(4) -0.0133(3) 0.4126(5)
H17 H 0.9034 0.0103 0.3790
H18 H 0.8667 -0.0521 0.4842
H19 H 0.7885 0.0284 0.4503
H20 H 0.050(3) 0.2605(19) 0.1559(17)
loop_
_geom_bond_atom_site_label_1
_geom_bond_atom_site_label_2
_geom_bond_site_symmetry_1
_geom_bond_site_symmetry_2
F1 C10 1_555 1_555
N1 C4 1_555 1_555
N2 N3 1_555 1_555
N3 C8 1_555 1_555
O1 C8 1_555 1_555
O2 H1 1_555 1_555
C1 C2 1_555 1_555
C2 O2 1_555 1_555
C3 C2 1_555 1_555
H2 C3 1_555 1_555
C4 C3 1_555 1_555
C5 C4 1_555 1_555
H3 C5 1_555 1_555
C6 C1 1_555 1_555
H4 C6 1_555 1_555
C7 N2 1_555 1_555
H5 C7 1_555 1_555
C8 C9 1_555 1_555
C9 C10 1_555 1_555
C10 C11 1_555 1_555
C11 H6 1_555 1_555
C12 C11 1_555 1_555
H7 C12 1_555 1_555
C13 C12 1_555 1_555
H8 C13 1_555 1_555
C14 C9 1_555 1_555
H9 C14 1_555 1_555
C15 N1 1_555 1_555
H10 C15 1_555 1_555
H11 C15 1_555 1_555
C16 C15 1_555 1_555
H12 C16 1_555 1_555
H13 C16 1_555 1_555
H14 C16 1_555 1_555
C17 N1 1_555 1_555
H15 C17 1_555 1_555
H16 C17 1_555 1_555
C18 C17 1_555 1_555
H17 C18 1_555 1_555
H18 C18 1_555 1_555
H19 C18 1_555 1_555
H20 N3 1_555 1_555
C1 C7 1_555 1_555
C5 C6 1_555 1_555
C13 C14 1_555 1_555

#END
