
#######################################################################
#
#                 Cambridge Crystallographic Data Centre
#                                CCDC 
#
#######################################################################
#
# If this CIF has been generated from an entry in the Cambridge 
# Structural Database, then it will include bibliographic, chemical, 
# crystal, experimental, refinement or atomic coordinate data resulting 
# from the CCDC's data processing and validation procedures.
#
#######################################################################

data_BUWQUG
_chemical_formula_moiety         'C72 H48 I12 O18 Si12,4(C8 H10)'
_chemical_name_systematic        
'1,3,5,7,9,11,13,15,17,19,21,23-dodecakis(4-Iodophenyl)heptacyclo[11.11.1.1^3,9^.1^5,21^.1^7,19^.1^11,17^.1^15,23^]dodecasiloxane m-xylene solvate'
_symmetry_cell_setting           monoclinic
_symmetry_space_group_name_H-M   'C 2/c'
_symmetry_Int_Tables_number      15
_space_group_name_Hall           '-C 2yn'
loop_
_symmetry_equiv_pos_site_id
_symmetry_equiv_pos_as_xyz
1 x,y,z
2 -x,y,1/2-z
3 1/2+x,1/2+y,z
4 1/2-x,1/2+y,1/2-z
5 -x,-y,-z
6 x,-y,1/2+z
7 1/2-x,1/2-y,-z
8 1/2+x,1/2-y,1/2+z
_cell_length_a                   32.082(9)
_cell_length_b                   14.704(4)
_cell_length_c                   28.755(8)
_cell_angle_alpha                90
_cell_angle_beta                 118.438(4)
_cell_angle_gamma                90
_cell_volume                     11927.9
_exptl_crystal_colour            colorless
_exptl_crystal_description       block
_cell_formula_units_Z            4
loop_
_atom_site_label
_atom_site_type_symbol
_atom_site_fract_x
_atom_site_fract_y
_atom_site_fract_z
I1 I 0.823650(13) 0.27175(3) 0.482577(15)
I2 I 0.58156(3) 0.67632(5) 0.44292(4)
I3 I 0.28694(2) 0.25028(8) 0.38939(3)
I4 I 0.448745(13) -0.15691(3) 0.548071(13)
I5 I 0.79666(2) -0.08885(5) 0.57352(3)
I6 I 0.36580(2) -0.59407(4) 0.25548(3)
O1 O 0.56387(14) 0.2111(3) 0.33471(16)
O2 O 0.47718(13) 0.2271(3) 0.31879(14)
O3 O 0.46631(14) 0.0525(3) 0.32119(14)
O4 O 0.53653(13) -0.0658(3) 0.36105(14)
O5 O 0.58881(15) 0.0407(3) 0.33800(19)
O6 O 0.5000 0.2990(5) 0.2500
O7 O 0.41236(14) 0.1454(3) 0.23476(15)
O8 O 0.45059(14) -0.1147(3) 0.28919(14)
O9 O 0.5000 -0.1969(5) 0.2500
O10 O 0.58375(14) -0.1319(3) 0.31391(14)
Si1 Si 0.59859(5) 0.14196(10) 0.32604(5)
Si2 Si 0.51856(5) 0.27834(11) 0.31175(5)
Si3 Si 0.43866(5) 0.14662(10) 0.29791(5)
Si4 Si 0.48075(5) -0.05104(10) 0.33975(5)
Si5 Si 0.58478(5) -0.06029(11) 0.35652(5)
Si6 Si 0.44770(5) -0.18021(11) 0.24286(5)
C1 C 0.66042(17) 0.1771(4) 0.3710(2)
C2 C 0.6959(2) 0.1128(5) 0.3987(3)
H1 H 0.6882 0.0499 0.3948
C3 C 0.7427(2) 0.1400(5) 0.4321(3)
H2 H 0.7666 0.0963 0.4512
C4 C 0.75317(18) 0.2306(4) 0.4365(2)
C5 C 0.7187(2) 0.2957(5) 0.4115(2)
H3 H 0.7266 0.3585 0.4163
C6 C 0.6723(2) 0.2685(5) 0.3791(2)
H4 H 0.6483 0.3132 0.3622
C7 C 0.53567(18) 0.3862(4) 0.3478(2)
C8 C 0.5750(3) 0.3921(5) 0.3986(2)
H5 H 0.5929 0.3389 0.4146
C9 C 0.5881(3) 0.4732(6) 0.4258(3)
H6 H 0.6149 0.4758 0.4600
C10 C 0.5621(3) 0.5505(6) 0.4030(4)
C11 C 0.5233(3) 0.5475(6) 0.3547(4)
H7 H 0.5051 0.6010 0.3400
C12 C 0.5097(3) 0.4653(6) 0.3262(4)
H8 H 0.4828 0.4639 0.2921
C13 C 0.3939(2) 0.1652(5) 0.3197(3)
C14 C 0.4055(3) 0.1533(11) 0.3726(4)
H9 H 0.4351 0.1269 0.3962
C15 C 0.3746(3) 0.1792(12) 0.3917(3)
H10 H 0.3841 0.1721 0.4282
C16 C 0.3329(3) 0.2131(8) 0.3602(4)
C17 C 0.3166(3) 0.2207(7) 0.3059(4)
H11 H 0.2853 0.2406 0.2825
C18 C 0.3491(3) 0.1971(6) 0.2872(4)
H12 H 0.3393 0.2037 0.2506
C19 C 0.46946(17) -0.0822(3) 0.39514(17)
C20 C 0.4243(2) -0.0884(6) 0.3895(2)
H13 H 0.3976 -0.0782 0.3558
C21 C 0.4174(2) -0.1096(6) 0.4329(2)
H14 H 0.3864 -0.1133 0.4290
C22 C 0.45612(18) -0.1250(4) 0.48094(19)
C23 C 0.5009(2) -0.1183(8) 0.4875(2)
H15 H 0.5274 -0.1265 0.5215
C24 C 0.5074(2) -0.0994(6) 0.4440(2)
H16 H 0.5386 -0.0984 0.4481
C25 C 0.42121(18) -0.2898(4) 0.2440(2)
C26 C 0.4140(2) -0.3145(5) 0.2865(3)
H17 H 0.4204 -0.2719 0.3139
C27 C 0.3975(3) -0.4007(5) 0.2891(3)
H18 H 0.3926 -0.4170 0.3181
C28 C 0.3883(2) -0.4624(5) 0.2491(3)
C29 C 0.3956(3) -0.4421(5) 0.2065(3)
H19 H 0.3898 -0.4857 0.1797
C30 C 0.4120(3) -0.3546(5) 0.2046(3)
H20 H 0.4170 -0.3387 0.1756
C31 C 0.63852(19) -0.0842(4) 0.4191(2)
C32 C 0.6745(2) -0.1400(5) 0.4204(2)
H21 H 0.6684 -0.1764 0.3905
C33 C 0.7195(2) -0.1429(6) 0.4650(3)
H22 H 0.7437 -0.1804 0.4651
C34 C 0.7281(3) -0.0929(5) 0.5072(3)
C35 C 0.6946(3) -0.0386(6) 0.5094(3)
H23 H 0.7017 -0.0036 0.5401
C36 C 0.6490(2) -0.0357(6) 0.4648(3)
H24 H 0.6250 0.0003 0.4661
I1A I 0.176350(13) 0.27175(3) 0.017423(15)
I2A I 0.41844(3) 0.67632(5) 0.05708(4)
I3A I 0.71306(2) 0.25028(8) 0.11061(3)
I4A I 0.551255(13) -0.15691(3) -0.048071(13)
I5A I 0.20334(2) -0.08885(5) -0.07352(3)
I6A I 0.63420(2) -0.59407(4) 0.24452(3)
O1A O 0.43613(14) 0.2111(3) 0.16529(16)
O2A O 0.52282(13) 0.2271(3) 0.18121(14)
O3A O 0.53369(14) 0.0525(3) 0.17881(14)
O4A O 0.46347(13) -0.0658(3) 0.13895(14)
O5A O 0.41119(15) 0.0407(3) 0.16200(19)
O7A O 0.58764(14) 0.1454(3) 0.26524(15)
O8A O 0.54941(14) -0.1147(3) 0.21081(14)
O10A O 0.41625(14) -0.1319(3) 0.18609(14)
Si1A Si 0.40141(5) 0.14196(10) 0.17396(5)
Si2A Si 0.48144(5) 0.27834(11) 0.18825(5)
Si3A Si 0.56134(5) 0.14662(10) 0.20209(5)
Si4A Si 0.51925(5) -0.05104(10) 0.16025(5)
Si5A Si 0.41522(5) -0.06029(11) 0.14348(5)
Si6A Si 0.55230(5) -0.18021(11) 0.25714(5)
C1A C 0.33958(17) 0.1771(4) 0.1290(2)
C2A C 0.3041(2) 0.1128(5) 0.1013(3)
H1A H 0.3118 0.0499 0.1052
C3A C 0.2573(2) 0.1400(5) 0.0679(3)
H2A H 0.2334 0.0963 0.0488
C4A C 0.24683(18) 0.2306(4) 0.0635(2)
C5A C 0.2813(2) 0.2957(5) 0.0885(2)
H3A H 0.2734 0.3585 0.0837
C6A C 0.3277(2) 0.2685(5) 0.1209(2)
H4A H 0.3517 0.3132 0.1378
C7A C 0.46433(18) 0.3862(4) 0.1522(2)
C8A C 0.4250(3) 0.3921(5) 0.1014(2)
H5A H 0.4071 0.3389 0.0854
C9A C 0.4119(3) 0.4732(6) 0.0742(3)
H6A H 0.3851 0.4758 0.0400
C10A C 0.4379(3) 0.5505(6) 0.0970(4)
C11A C 0.4767(3) 0.5475(6) 0.1453(4)
H7A H 0.4949 0.6010 0.1600
C12A C 0.4903(3) 0.4653(6) 0.1738(4)
H8A H 0.5172 0.4639 0.2079
C13A C 0.6061(2) 0.1652(5) 0.1803(3)
C14A C 0.5945(3) 0.1533(11) 0.1274(4)
H9A H 0.5649 0.1269 0.1038
C15A C 0.6254(3) 0.1792(12) 0.1083(3)
H10A H 0.6159 0.1721 0.0718
C16A C 0.6671(3) 0.2131(8) 0.1398(4)
C17A C 0.6834(3) 0.2207(7) 0.1941(4)
H11A H 0.7147 0.2406 0.2175
C18A C 0.6509(3) 0.1971(6) 0.2128(4)
H12A H 0.6607 0.2037 0.2494
C19A C 0.53054(17) -0.0822(3) 0.10486(17)
C20A C 0.5757(2) -0.0884(6) 0.1105(2)
H13A H 0.6024 -0.0782 0.1442
C21A C 0.5826(2) -0.1096(6) 0.0671(2)
H14A H 0.6136 -0.1133 0.0710
C22A C 0.54388(18) -0.1250(4) 0.01906(19)
C23A C 0.4991(2) -0.1183(8) 0.0125(2)
H15A H 0.4726 -0.1265 -0.0215
C24A C 0.4926(2) -0.0994(6) 0.0560(2)
H16A H 0.4614 -0.0984 0.0519
C25A C 0.57879(18) -0.2898(4) 0.2560(2)
C26A C 0.5860(2) -0.3145(5) 0.2135(3)
H17A H 0.5796 -0.2719 0.1861
C27A C 0.6025(3) -0.4007(5) 0.2109(3)
H18A H 0.6074 -0.4170 0.1819
C28A C 0.6117(2) -0.4624(5) 0.2509(3)
C29A C 0.6044(3) -0.4421(5) 0.2935(3)
H19A H 0.6102 -0.4857 0.3203
C30A C 0.5880(3) -0.3546(5) 0.2954(3)
H20A H 0.5830 -0.3387 0.3244
C31A C 0.36148(19) -0.0842(4) 0.0809(2)
C32A C 0.3255(2) -0.1400(5) 0.0796(2)
H21A H 0.3316 -0.1764 0.1095
C33A C 0.2805(2) -0.1429(6) 0.0350(3)
H22A H 0.2563 -0.1804 0.0349
C34A C 0.2719(3) -0.0929(5) -0.0072(3)
C35A C 0.3054(3) -0.0386(6) -0.0094(3)
H23A H 0.2983 -0.0036 -0.0401
C36A C 0.3510(2) -0.0357(6) 0.0352(3)
H24A H 0.3750 0.0003 0.0339
C37 C 0.3086(3) 0.9098(9) 0.2472(4)
C38 C 0.3151(4) 0.8140(10) 0.2520(5)
H25 H 0.3243 0.7802 0.2302
C39 C 0.3073(4) 0.7727(11) 0.2909(5)
H26 H 0.3124 0.7092 0.2972
C40 C 0.2925(4) 0.8219(10) 0.3195(4)
H27 H 0.2859 0.7917 0.3444
C41 C 0.2868(3) 0.9129(10) 0.3140(4)
C42 C 0.2942(3) 0.9550(9) 0.2767(4)
H28 H 0.2890 1.0187 0.2717
C43 C 0.3162(3) 0.9547(11) 0.2036(4)
H29 H 0.2970 0.9233 0.1699
H30 H 0.3498 0.9508 0.2128
H31 H 0.3067 1.0188 0.2001
C44 C 0.2707(5) 0.9703(12) 0.3479(5)
H32 H 0.2951 0.9675 0.3851
H33 H 0.2409 0.9459 0.3442
H34 H 0.2661 1.0336 0.3358
C45 C 0.4395(3) 0.4647(6) 0.4222(4)
C46 C 0.3913(4) 0.4625(9) 0.4021(4)
H35 H 0.3748 0.4063 0.3910
C47 C 0.3654(4) 0.5450(10) 0.3977(6)
C48 C 0.3896(4) 0.6272(9) 0.4127(5)
H36 H 0.3729 0.6822 0.4097
C49 C 0.4365(4) 0.6283(8) 0.4314(4)
H37 H 0.4528 0.6848 0.4408
C50 C 0.4618(4) 0.5497(8) 0.4374(4)
H38 H 0.4953 0.5530 0.4523
C51 C 0.4665(4) 0.3802(7) 0.4263(4)
H39 H 0.4793 0.3553 0.4622
H40 H 0.4926 0.3942 0.4189
H41 H 0.4454 0.3355 0.4007
C52 C 0.3090(5) 0.5288(19) 0.3719(8)
H42 H 0.2933 0.5865 0.3709
H43 H 0.3026 0.4848 0.3934
H44 H 0.2968 0.5052 0.3359
loop_
_geom_bond_atom_site_label_1
_geom_bond_atom_site_label_2
_geom_bond_site_symmetry_1
_geom_bond_site_symmetry_2
I1 C4 1_555 1_555
I2 C10 1_555 1_555
I3 C16 1_555 1_555
I4 C22 1_555 1_555
I5 C34 1_555 1_555
I6 C28 1_555 1_555
O1 Si1 1_555 1_555
O2 Si2 1_555 1_555
O3 Si3 1_555 1_555
O4 Si4 1_555 1_555
O5 Si1 1_555 1_555
O6 Si2 1_555 1_555
O7 Si3 1_555 1_555
O8 Si4 1_555 1_555
O9 Si6 1_555 1_555
O10 Si5 1_555 1_555
Si1 C1 1_555 1_555
Si2 O1 1_555 1_555
Si3 O2 1_555 1_555
Si4 O3 1_555 1_555
Si5 O4 1_555 1_555
Si6 O8 1_555 1_555
C1 C2 1_555 1_555
C2 H1 1_555 1_555
C3 C2 1_555 1_555
H2 C3 1_555 1_555
C4 C3 1_555 1_555
C5 C4 1_555 1_555
H3 C5 1_555 1_555
C6 C1 1_555 1_555
H4 C6 1_555 1_555
C7 Si2 1_555 1_555
C8 C7 1_555 1_555
H5 C8 1_555 1_555
C9 C8 1_555 1_555
H6 C9 1_555 1_555
C10 C9 1_555 1_555
C11 C10 1_555 1_555
H7 C11 1_555 1_555
C12 C7 1_555 1_555
H8 C12 1_555 1_555
C13 Si3 1_555 1_555
C14 C13 1_555 1_555
H9 C14 1_555 1_555
C15 C14 1_555 1_555
H10 C15 1_555 1_555
C16 C15 1_555 1_555
C17 C16 1_555 1_555
H11 C17 1_555 1_555
C18 C13 1_555 1_555
H12 C18 1_555 1_555
C19 Si4 1_555 1_555
C20 C19 1_555 1_555
H13 C20 1_555 1_555
C21 C20 1_555 1_555
H14 C21 1_555 1_555
C22 C21 1_555 1_555
C23 C22 1_555 1_555
H15 C23 1_555 1_555
C24 C19 1_555 1_555
H16 C24 1_555 1_555
C25 Si6 1_555 1_555
C26 C25 1_555 1_555
H17 C26 1_555 1_555
C27 C26 1_555 1_555
H18 C27 1_555 1_555
C28 C27 1_555 1_555
C29 C28 1_555 1_555
H19 C29 1_555 1_555
C30 C25 1_555 1_555
H20 C30 1_555 1_555
C31 Si5 1_555 1_555
C32 C31 1_555 1_555
H21 C32 1_555 1_555
C33 C32 1_555 1_555
H22 C33 1_555 1_555
C34 C33 1_555 1_555
C35 C34 1_555 1_555
H23 C35 1_555 1_555
C36 C31 1_555 1_555
H24 C36 1_555 1_555
C37 C38 1_555 1_555
C38 H25 1_555 1_555
C39 C38 1_555 1_555
H26 C39 1_555 1_555
C40 C39 1_555 1_555
H27 C40 1_555 1_555
C41 C40 1_555 1_555
C42 C37 1_555 1_555
H28 C42 1_555 1_555
C43 C37 1_555 1_555
H29 C43 1_555 1_555
H30 C43 1_555 1_555
H31 C43 1_555 1_555
C44 C41 1_555 1_555
H32 C44 1_555 1_555
H33 C44 1_555 1_555
H34 C44 1_555 1_555
C45 C46 1_555 1_555
C46 H35 1_555 1_555
C47 C46 1_555 1_555
C48 C47 1_555 1_555
H36 C48 1_555 1_555
C49 C48 1_555 1_555
H37 C49 1_555 1_555
C50 C45 1_555 1_555
H38 C50 1_555 1_555
C51 C45 1_555 1_555
H39 C51 1_555 1_555
H40 C51 1_555 1_555
H41 C51 1_555 1_555
C52 C47 1_555 1_555
H42 C52 1_555 1_555
H43 C52 1_555 1_555
H44 C52 1_555 1_555
I1A C4A 1_555 1_555
I2A C10A 1_555 1_555
I3A C16A 1_555 1_555
I4A C22A 1_555 1_555
I5A C34A 1_555 1_555
I6A C28A 1_555 1_555
O1A Si1A 1_555 1_555
O2A Si2A 1_555 1_555
O3A Si3A 1_555 1_555
O4A Si4A 1_555 1_555
O5A Si1A 1_555 1_555
O7A Si1 1_555 1_555
O8A Si4A 1_555 1_555
O10A Si6 1_555 1_555
Si1A O7 1_555 1_555
Si2A O6 1_555 1_555
Si3A O2A 1_555 1_555
Si4A O3A 1_555 1_555
Si5A O4A 1_555 1_555
Si6A O9 1_555 1_555
C1A Si1A 1_555 1_555
C2A C1A 1_555 1_555
H1A C2A 1_555 1_555
C3A C2A 1_555 1_555
H2A C3A 1_555 1_555
C4A C3A 1_555 1_555
C5A C4A 1_555 1_555
H3A C5A 1_555 1_555
C6A C1A 1_555 1_555
H4A C6A 1_555 1_555
C7A Si2A 1_555 1_555
C8A C7A 1_555 1_555
H5A C8A 1_555 1_555
C9A C8A 1_555 1_555
H6A C9A 1_555 1_555
C10A C9A 1_555 1_555
C11A C10A 1_555 1_555
H7A C11A 1_555 1_555
C12A C7A 1_555 1_555
H8A C12A 1_555 1_555
C13A Si3A 1_555 1_555
C14A C13A 1_555 1_555
H9A C14A 1_555 1_555
C15A C14A 1_555 1_555
H10A C15A 1_555 1_555
C16A C15A 1_555 1_555
C17A C16A 1_555 1_555
H11A C17A 1_555 1_555
C18A C13A 1_555 1_555
H12A C18A 1_555 1_555
C19A Si4A 1_555 1_555
C20A C19A 1_555 1_555
H13A C20A 1_555 1_555
C21A C20A 1_555 1_555
H14A C21A 1_555 1_555
C22A C21A 1_555 1_555
C23A C22A 1_555 1_555
H15A C23A 1_555 1_555
C24A C19A 1_555 1_555
H16A C24A 1_555 1_555
C25A Si6A 1_555 1_555
C26A C25A 1_555 1_555
H17A C26A 1_555 1_555
C27A C26A 1_555 1_555
H18A C27A 1_555 1_555
C28A C27A 1_555 1_555
C29A C28A 1_555 1_555
H19A C29A 1_555 1_555
C30A C25A 1_555 1_555
H20A C30A 1_555 1_555
C31A Si5A 1_555 1_555
C32A C31A 1_555 1_555
H21A C32A 1_555 1_555
C33A C32A 1_555 1_555
H22A C33A 1_555 1_555
C34A C33A 1_555 1_555
C35A C34A 1_555 1_555
H23A C35A 1_555 1_555
C36A C31A 1_555 1_555
H24A C36A 1_555 1_555
O5 Si5 1_555 1_555
O10 Si6A 1_555 1_555
C5 C6 1_555 1_555
C11 C12 1_555 1_555
C17 C18 1_555 1_555
C23 C24 1_555 1_555
C29 C30 1_555 1_555
C35 C36 1_555 1_555
C41 C42 1_555 1_555
C49 C50 1_555 1_555
O1A Si2A 1_555 1_555
O5A Si5A 1_555 1_555
O7A Si3A 1_555 1_555
O8A Si6A 1_555 1_555
O10A Si5A 1_555 1_555
C5A C6A 1_555 1_555
C11A C12A 1_555 1_555
C17A C18A 1_555 1_555
C23A C24A 1_555 1_555
C29A C30A 1_555 1_555
C35A C36A 1_555 1_555

#END
