
#######################################################################
#
#                 Cambridge Crystallographic Data Centre
#                                CCDC 
#
#######################################################################
#
# If this CIF has been generated from an entry in the Cambridge 
# Structural Database, then it will include bibliographic, chemical, 
# crystal, experimental, refinement or atomic coordinate data resulting 
# from the CCDC's data processing and validation procedures.
#
#######################################################################

data_BUWSAP
_chemical_formula_moiety         'C18 H18 N2 O4'
_chemical_name_systematic        
1,3,3-trimethyl-5-nitro-1-(4-nitrophenyl)indane
_symmetry_cell_setting           monoclinic
_symmetry_space_group_name_H-M   'P 21/c'
_symmetry_Int_Tables_number      14
_space_group_name_Hall           '-P 2ybc'
loop_
_symmetry_equiv_pos_site_id
_symmetry_equiv_pos_as_xyz
1 x,y,z
2 -x,1/2+y,1/2-z
3 -x,-y,-z
4 x,1/2-y,1/2+z
_cell_length_a                   9.501(4)
_cell_length_b                   16.660(4)
_cell_length_c                   12.732(4)
_cell_angle_alpha                90
_cell_angle_beta                 127.06(4)
_cell_angle_gamma                90
_cell_volume                     1608.22
_exptl_crystal_colour            colorless
_exptl_crystal_description       block
_cell_formula_units_Z            4
loop_
_atom_site_label
_atom_site_type_symbol
_atom_site_fract_x
_atom_site_fract_y
_atom_site_fract_z
O1 O -0.1608(3) 0.43498(15) 0.21905(19)
O2 O -0.0634(3) 0.55328(16) 0.24423(19)
O3 O 1.2259(3) 0.26135(13) 0.9084(3)
O4 O 1.0376(3) 0.23932(16) 0.7007(3)
N1 N -0.0548(3) 0.48721(17) 0.2861(2)
N2 N 1.0762(3) 0.26353(14) 0.8052(3)
C1 C 0.0916(3) 0.46912(14) 0.4239(2)
C2 C 0.2209(3) 0.52582(14) 0.4971(2)
H1 H 0.2144 0.5759 0.4622
C3 C 0.3614(3) 0.50563(13) 0.6245(2)
C4 C 0.3701(3) 0.43113(13) 0.6746(2)
C5 C 0.2336(3) 0.37612(14) 0.6008(2)
H2 H 0.2375 0.3267 0.6363
C6 C 0.0922(3) 0.39603(14) 0.4739(2)
H3 H -0.0012 0.3604 0.4232
C7 C 0.5404(3) 0.41990(14) 0.81148(19)
C8 C 0.5952(3) 0.50857(14) 0.8520(2)
H4 H 0.5485 0.5287 0.8969
H5 H 0.7227 0.5131 0.9111
C9 C 0.5196(3) 0.55744(14) 0.7250(2)
C10 C 0.5120(4) 0.37639(17) 0.9037(2)
H6 H 0.4248 0.4045 0.9049
H7 H 0.6211 0.3749 0.9910
H8 H 0.4725 0.3226 0.8728
C11 C 0.6492(3) 0.56185(17) 0.6910(3)
H9 H 0.5931 0.5876 0.6072
H10 H 0.6843 0.5086 0.6871
H11 H 0.7512 0.5921 0.7574
C12 C 0.4650(4) 0.64178(15) 0.7334(3)
H12 H 0.4174 0.6698 0.6526
H13 H 0.5660 0.6702 0.8050
H14 H 0.3771 0.6385 0.7480
C13 C 0.6773(3) 0.37386(13) 0.8082(2)
C14 C 0.6379(3) 0.33501(14) 0.6974(2)
H15 H 0.5217 0.3344 0.6217
C15 C 0.7654(3) 0.29723(15) 0.6957(2)
H16 H 0.7363 0.2714 0.6203
C16 C 0.9366(3) 0.29850(14) 0.8080(3)
C17 C 0.9793(3) 0.33318(16) 0.9214(2)
H17 H 1.0948 0.3313 0.9979
C18 C 0.8511(3) 0.37059(16) 0.9213(2)
H18 H 0.8806 0.3943 0.9984
loop_
_geom_bond_atom_site_label_1
_geom_bond_atom_site_label_2
_geom_bond_site_symmetry_1
_geom_bond_site_symmetry_2
O1 N1 1_555 1_555
O2 N1 1_555 1_555
O3 N2 1_555 1_555
O4 N2 1_555 1_555
N1 C1 1_555 1_555
N2 C16 1_555 1_555
C1 C2 1_555 1_555
C2 H1 1_555 1_555
C3 C2 1_555 1_555
C4 C3 1_555 1_555
C5 C4 1_555 1_555
H2 C5 1_555 1_555
C6 C1 1_555 1_555
H3 C6 1_555 1_555
C7 C4 1_555 1_555
C8 C7 1_555 1_555
H4 C8 1_555 1_555
H5 C8 1_555 1_555
C9 C3 1_555 1_555
C10 C7 1_555 1_555
H6 C10 1_555 1_555
H7 C10 1_555 1_555
H8 C10 1_555 1_555
C11 C9 1_555 1_555
H9 C11 1_555 1_555
H10 C11 1_555 1_555
H11 C11 1_555 1_555
C12 C9 1_555 1_555
H12 C12 1_555 1_555
H13 C12 1_555 1_555
H14 C12 1_555 1_555
C13 C7 1_555 1_555
C14 C13 1_555 1_555
H15 C14 1_555 1_555
C15 C14 1_555 1_555
H16 C15 1_555 1_555
C16 C15 1_555 1_555
C17 C16 1_555 1_555
H17 C17 1_555 1_555
C18 C13 1_555 1_555
H18 C18 1_555 1_555
C5 C6 1_555 1_555
C8 C9 1_555 1_555
C17 C18 1_555 1_555

#END
