
#######################################################################
#
#                 Cambridge Crystallographic Data Centre
#                                CCDC 
#
#######################################################################
#
# If this CIF has been generated from an entry in the Cambridge 
# Structural Database, then it will include bibliographic, chemical, 
# crystal, experimental, refinement or atomic coordinate data resulting 
# from the CCDC's data processing and validation procedures.
#
#######################################################################

data_BUWSET
_chemical_formula_moiety         'C18 H18 N2 O4'
_chemical_name_systematic        
1,1,3-trimethyl-5-nitro-3-(4-nitrophenyl)indane
_symmetry_cell_setting           monoclinic
_symmetry_space_group_name_H-M   'P 21/n'
_symmetry_Int_Tables_number      14
_space_group_name_Hall           '-P 2yn'
loop_
_symmetry_equiv_pos_site_id
_symmetry_equiv_pos_as_xyz
1 x,y,z
2 1/2-x,1/2+y,1/2-z
3 -x,-y,-z
4 1/2+x,1/2-y,1/2+z
_cell_length_a                   8.0246(16)
_cell_length_b                   29.435(6)
_cell_length_c                   13.328(3)
_cell_angle_alpha                90
_cell_angle_beta                 90.92(3)
_cell_angle_gamma                90
_cell_volume                     3147.72
_exptl_crystal_colour            colorless
_exptl_crystal_description       block
_cell_formula_units_Z            8
loop_
_atom_site_label
_atom_site_type_symbol
_atom_site_fract_x
_atom_site_fract_y
_atom_site_fract_z
O1 O 0.79435(19) 1.06393(5) 0.15453(11)
O2 O 0.60656(17) 1.01357(5) 0.11788(11)
O3 O 0.5240(2) 0.75812(5) 0.36782(12)
O4 O 0.5920(2) 0.70293(5) 0.27256(12)
N1 N 0.7524(2) 1.02509(6) 0.13072(12)
N2 N 0.5927(2) 0.74317(6) 0.29370(12)
C1 C 0.9600(2) 0.91537(6) 0.07710(13)
C2 C 0.8378(2) 0.94835(6) 0.08211(13)
H1 H 0.7289 0.9424 0.0610
C3 C 0.8829(2) 0.99062(6) 0.11962(13)
C4 C 1.0445(2) 1.00133(7) 0.14863(14)
H2 H 1.0709 1.0303 0.1716
C5 C 1.1663(2) 0.96807(7) 0.14282(13)
H3 H 1.2759 0.9746 0.1615
C6 C 1.1233(2) 0.92494(6) 0.10895(13)
C7 C 1.2327(2) 0.88316(6) 0.10219(14)
C8 C 1.1309(2) 0.85347(7) 0.02769(14)
H4 H 1.1456 0.8216 0.0437
H5 H 1.1680 0.8586 -0.0403
C9 C 0.9441(2) 0.86713(6) 0.03711(13)
C10 C 0.8549(2) 0.86706(7) -0.06608(14)
H6 H 0.7412 0.8765 -0.0584
H7 H 0.8575 0.8370 -0.0939
H8 H 0.9103 0.8877 -0.1102
C11 C 1.2474(3) 0.86113(7) 0.20668(15)
H9 H 1.3002 0.8820 0.2525
H10 H 1.3130 0.8339 0.2025
H11 H 1.1382 0.8537 0.2302
C12 C 1.4080(2) 0.89336(7) 0.06490(15)
H12 H 1.4005 0.9082 0.0008
H13 H 1.4689 0.8655 0.0584
H14 H 1.4647 0.9128 0.1120
C13 C 0.8510(2) 0.83508(6) 0.10756(13)
C14 C 0.7764(2) 0.84978(6) 0.19540(13)
H15 H 0.7850 0.8801 0.2140
C15 C 0.6898(2) 0.81991(6) 0.25544(13)
H16 H 0.6384 0.8302 0.3132
C16 C 0.6806(2) 0.77476(6) 0.22858(13)
C17 C 0.7533(2) 0.75875(7) 0.14196(14)
H17 H 0.7454 0.7282 0.1244
C18 C 0.8376(2) 0.78903(7) 0.08232(14)
H18 H 0.8867 0.7786 0.0239
O5 O 0.4032(2) 1.06173(5) 0.67505(12)
O6 O 0.22872(18) 1.00619(5) 0.65644(10)
O7 O 0.4221(2) 0.75994(6) 0.98220(12)
O8 O 0.5998(2) 0.71286(5) 0.92183(12)
N3 N 0.3710(2) 1.02156(6) 0.65627(12)
N4 N 0.5215(2) 0.74837(6) 0.91789(13)
C19 C 0.6044(2) 0.91647(6) 0.59701(13)
C20 C 0.4734(2) 0.94508(6) 0.61988(13)
H19 H 0.3655 0.9340 0.6259
C21 C 0.5086(2) 0.99080(6) 0.63349(13)
C22 C 0.6675(2) 1.00878(7) 0.62446(13)
H20 H 0.6866 1.0396 0.6342
C23 C 0.7975(2) 0.97976(7) 0.60053(13)
H21 H 0.9052 0.9909 0.5944
C24 C 0.7650(2) 0.93400(6) 0.58595(13)
C25 C 0.8863(2) 0.89712(6) 0.55576(14)
C26 C 0.7649(2) 0.86093(7) 0.51543(14)
H22 H 0.8117 0.8308 0.5253
H23 H 0.7443 0.8654 0.4442
C27 C 0.5994(2) 0.86561(6) 0.57389(13)
C28 C 0.4472(2) 0.85302(7) 0.50821(14)
H24 H 0.3474 0.8574 0.5457
H25 H 0.4553 0.8218 0.4881
H26 H 0.4440 0.8721 0.4497
C29 C 0.9852(2) 0.88096(7) 0.64879(14)
H27 H 1.0522 0.9055 0.6744
H28 H 1.0559 0.8561 0.6307
H29 H 0.9092 0.8712 0.6994
C30 C 1.0079(2) 0.91203(7) 0.47514(15)
H30 H 0.9469 0.9248 0.4194
H31 H 1.0704 0.8862 0.4529
H32 H 1.0828 0.9344 0.5025
C31 C 0.5909(2) 0.83594(6) 0.66920(14)
C32 C 0.4933(2) 0.84909(7) 0.74973(14)
H33 H 0.4430 0.8775 0.7488
C33 C 0.4697(2) 0.82081(7) 0.83089(14)
H34 H 0.4027 0.8298 0.8836
C34 C 0.5471(2) 0.77893(6) 0.83260(14)
C35 C 0.6466(2) 0.76502(7) 0.75507(15)
H35 H 0.6994 0.7369 0.7575
C36 C 0.6666(3) 0.79344(7) 0.67382(15)
H36 H 0.7322 0.7840 0.6209
loop_
_geom_bond_atom_site_label_1
_geom_bond_atom_site_label_2
_geom_bond_site_symmetry_1
_geom_bond_site_symmetry_2
O1 N1 1_555 1_555
O2 N1 1_555 1_555
O3 N2 1_555 1_555
O4 N2 1_555 1_555
N1 C3 1_555 1_555
N2 C16 1_555 1_555
C1 C2 1_555 1_555
C2 H1 1_555 1_555
C3 C2 1_555 1_555
C4 C3 1_555 1_555
H2 C4 1_555 1_555
C5 C4 1_555 1_555
H3 C5 1_555 1_555
C6 C1 1_555 1_555
C7 C6 1_555 1_555
C8 C7 1_555 1_555
H4 C8 1_555 1_555
H5 C8 1_555 1_555
C9 C1 1_555 1_555
C10 C9 1_555 1_555
H6 C10 1_555 1_555
H7 C10 1_555 1_555
H8 C10 1_555 1_555
C11 C7 1_555 1_555
H9 C11 1_555 1_555
H10 C11 1_555 1_555
H11 C11 1_555 1_555
C12 C7 1_555 1_555
H12 C12 1_555 1_555
H13 C12 1_555 1_555
H14 C12 1_555 1_555
C13 C9 1_555 1_555
C14 C13 1_555 1_555
H15 C14 1_555 1_555
C15 C14 1_555 1_555
H16 C15 1_555 1_555
C16 C15 1_555 1_555
C17 C16 1_555 1_555
H17 C17 1_555 1_555
C18 C13 1_555 1_555
H18 C18 1_555 1_555
O5 N3 1_555 1_555
O6 N3 1_555 1_555
O7 N4 1_555 1_555
O8 N4 1_555 1_555
N3 C21 1_555 1_555
N4 C34 1_555 1_555
C19 C20 1_555 1_555
C20 H19 1_555 1_555
C21 C20 1_555 1_555
C22 C21 1_555 1_555
H20 C22 1_555 1_555
C23 C22 1_555 1_555
H21 C23 1_555 1_555
C24 C19 1_555 1_555
C25 C24 1_555 1_555
C26 C25 1_555 1_555
H22 C26 1_555 1_555
H23 C26 1_555 1_555
C27 C19 1_555 1_555
C28 C27 1_555 1_555
H24 C28 1_555 1_555
H25 C28 1_555 1_555
H26 C28 1_555 1_555
C29 C25 1_555 1_555
H27 C29 1_555 1_555
H28 C29 1_555 1_555
H29 C29 1_555 1_555
C30 C25 1_555 1_555
H30 C30 1_555 1_555
H31 C30 1_555 1_555
H32 C30 1_555 1_555
C31 C27 1_555 1_555
C32 C31 1_555 1_555
H33 C32 1_555 1_555
C33 C32 1_555 1_555
H34 C33 1_555 1_555
C34 C33 1_555 1_555
C35 C34 1_555 1_555
H35 C35 1_555 1_555
C36 C31 1_555 1_555
H36 C36 1_555 1_555
C5 C6 1_555 1_555
C8 C9 1_555 1_555
C17 C18 1_555 1_555
C23 C24 1_555 1_555
C26 C27 1_555 1_555
C35 C36 1_555 1_555

#END
