
#######################################################################
#
#                 Cambridge Crystallographic Data Centre
#                                CCDC 
#
#######################################################################
#
# If this CIF has been generated from an entry in the Cambridge 
# Structural Database, then it will include bibliographic, chemical, 
# crystal, experimental, refinement or atomic coordinate data resulting 
# from the CCDC's data processing and validation procedures.
#
#######################################################################

data_BUWXAU
_chemical_formula_moiety         'C21 H22 O6 S1'
_chemical_name_systematic        
'methyl 3-(4-methoxyphenyl)-5-methyl-4-((4-methylphenyl)sulfonyl)-2,3-dihydrofuran-2-carboxylate'
_symmetry_cell_setting           monoclinic
_symmetry_space_group_name_H-M   'P 21/n'
_symmetry_Int_Tables_number      14
_space_group_name_Hall           '-P 2yn'
loop_
_symmetry_equiv_pos_site_id
_symmetry_equiv_pos_as_xyz
1 x,y,z
2 1/2-x,1/2+y,1/2-z
3 -x,-y,-z
4 1/2+x,1/2-y,1/2+z
_cell_length_a                   11.2070(13)
_cell_length_b                   15.1397(18)
_cell_length_c                   12.1733(14)
_cell_angle_alpha                90
_cell_angle_beta                 101.3550(10)
_cell_angle_gamma                90
_cell_volume                     2025.02
_cell_formula_units_Z            4
loop_
_atom_site_label
_atom_site_type_symbol
_atom_site_fract_x
_atom_site_fract_y
_atom_site_fract_z
S1 S 0.12717(4) 0.12826(3) 0.36286(4)
C1 C 0.32692(18) -0.06637(13) 0.26720(17)
H1 H 0.3098 -0.1195 0.2208
C2 C 0.21477(16) -0.04190(12) 0.31769(16)
H2 H 0.2306 -0.0561 0.3978
C3 C 0.21655(16) 0.05753(11) 0.30177(15)
C4 C 0.29065(17) 0.07932(13) 0.23204(15)
C5 C 0.09623(17) -0.08300(11) 0.26030(15)
C6 C 0.0547(2) -0.07267(13) 0.14599(17)
H3 H 0.1050 -0.0464 0.1031
C7 C -0.0594(2) -0.10046(14) 0.09509(17)
H4 H -0.0856 -0.0927 0.0183
C8 C -0.1353(2) -0.13977(13) 0.15700(17)
C9 C -0.0940(2) -0.15444(13) 0.26954(17)
H5 H -0.1431 -0.1833 0.3114
C10 C 0.02134(18) -0.12586(12) 0.32019(16)
H6 H 0.0488 -0.1359 0.3964
C11 C -0.3368(2) -0.1882(2) 0.1596(3)
H7 H -0.3102 -0.2424 0.1976
H8 H -0.4130 -0.1977 0.1091
H9 H -0.3468 -0.1440 0.2136
C12 C -0.02097(17) 0.11727(11) 0.28268(16)
C13 C -0.10874(18) 0.07127(13) 0.32368(18)
H10 H -0.0904 0.0454 0.3943
C14 C -0.2246(2) 0.06392(14) 0.2588(2)
H11 H -0.2843 0.0339 0.2872
C15 C -0.25345(19) 0.10028(15) 0.1526(2)
C16 C -0.1641(2) 0.14656(15) 0.11365(18)
H12 H -0.1823 0.1723 0.0430
C17 C -0.04906(19) 0.15542(13) 0.17696(17)
H13 H 0.0099 0.1869 0.1492
C18 C -0.3787(2) 0.0894(2) 0.0804(3)
H14 H -0.4046 0.1445 0.0443
H15 H -0.4351 0.0718 0.1264
H16 H -0.3761 0.0450 0.0246
C19 C 0.3221(2) 0.16368(14) 0.18381(19)
H17 H 0.2679 0.2091 0.1991
H18 H 0.3144 0.1573 0.1043
H19 H 0.4043 0.1794 0.2167
C20 C 0.4393(2) -0.08046(13) 0.35732(19)
C21 C 0.5189(3) -0.16609(17) 0.5166(2)
H20 H 0.5963 -0.1672 0.4941
H21 H 0.5048 -0.2220 0.5490
H22 H 0.5187 -0.1201 0.5709
O1 O 0.34870(13) 0.00746(9) 0.19923(12)
O2 O 0.12626(13) 0.09469(10) 0.47283(11)
O3 O 0.16687(13) 0.21744(9) 0.35154(13)
O4 O 0.52889(15) -0.03598(12) 0.37191(16)
O5 O 0.42336(14) -0.14942(9) 0.41954(14)
O6 O -0.24952(16) -0.15971(12) 0.09908(14)
loop_
_geom_bond_atom_site_label_1
_geom_bond_atom_site_label_2
_geom_bond_site_symmetry_1
_geom_bond_site_symmetry_2
S1 C3 1_555 1_555
C1 H1 1_555 1_555
C2 C1 1_555 1_555
H2 C2 1_555 1_555
C3 C2 1_555 1_555
C4 C3 1_555 1_555
C5 C2 1_555 1_555
C6 C5 1_555 1_555
H3 C6 1_555 1_555
C7 C6 1_555 1_555
H4 C7 1_555 1_555
C8 C7 1_555 1_555
C9 C8 1_555 1_555
H5 C9 1_555 1_555
C10 C5 1_555 1_555
H6 C10 1_555 1_555
C11 H7 1_555 1_555
H8 C11 1_555 1_555
H9 C11 1_555 1_555
C12 S1 1_555 1_555
C13 C12 1_555 1_555
H10 C13 1_555 1_555
C14 C13 1_555 1_555
H11 C14 1_555 1_555
C15 C14 1_555 1_555
C16 C15 1_555 1_555
H12 C16 1_555 1_555
C17 C12 1_555 1_555
H13 C17 1_555 1_555
C18 C15 1_555 1_555
H14 C18 1_555 1_555
H15 C18 1_555 1_555
H16 C18 1_555 1_555
C19 C4 1_555 1_555
H17 C19 1_555 1_555
H18 C19 1_555 1_555
H19 C19 1_555 1_555
C20 C1 1_555 1_555
C21 H20 1_555 1_555
H21 C21 1_555 1_555
H22 C21 1_555 1_555
O1 C1 1_555 1_555
O2 S1 1_555 1_555
O3 S1 1_555 1_555
O4 C20 1_555 1_555
O5 C20 1_555 1_555
O6 C8 1_555 1_555
C4 O1 1_555 1_555
C9 C10 1_555 1_555
C11 O6 1_555 1_555
C16 C17 1_555 1_555
C21 O5 1_555 1_555

#END
