
#######################################################################
#
#                 Cambridge Crystallographic Data Centre
#                                CCDC 
#
#######################################################################
#
# If this CIF has been generated from an entry in the Cambridge 
# Structural Database, then it will include bibliographic, chemical, 
# crystal, experimental, refinement or atomic coordinate data resulting 
# from the CCDC's data processing and validation procedures.
#
#######################################################################

data_BUWYID
_chemical_formula_moiety         'C38 H38 F2 N4,Cs1 1+,H2 O1,F1 1-'
_chemical_name_systematic        
'cesium fluoride 5,15-bis(4-fluorophenyl)-5,10,10,15,20,20-hexamethyl-5,10,15,20,22,24-hexahydroporphyrin monohydrate'
_symmetry_cell_setting           orthorhombic
_symmetry_space_group_name_H-M   'P c a 21'
_symmetry_Int_Tables_number      29
_space_group_name_Hall           'P 2c -2ac'
loop_
_symmetry_equiv_pos_site_id
_symmetry_equiv_pos_as_xyz
1 x,y,z
2 -x,-y,1/2+z
3 1/2+x,-y,z
4 1/2-x,y,1/2+z
_cell_length_a                   20.796(4)
_cell_length_b                   11.066(2)
_cell_length_c                   15.206(3)
_cell_angle_alpha                90
_cell_angle_beta                 90
_cell_angle_gamma                90
_cell_volume                     3499.33
_exptl_crystal_colour            colorless
_exptl_crystal_description       rod
_cell_formula_units_Z            4
loop_
_atom_site_label
_atom_site_type_symbol
_atom_site_fract_x
_atom_site_fract_y
_atom_site_fract_z
Cs1 Cs 0.218106(14) 0.55873(3) 0.76637(3)
F1 F 0.22386(11) 0.5661(2) 0.95660(19)
F2 F 0.45344(13) 0.2361(3) 0.28955(19)
F3 F 0.06570(18) 1.1093(4) 0.3417(2)
N1 N 0.34649(18) 0.5793(3) 0.6104(3)
H1 H 0.329(2) 0.583(4) 0.567(4)
N2 N 0.22715(16) 0.4010(4) 0.5764(3)
H2 H 0.241(3) 0.447(4) 0.539(3)
N3 N 0.11676(17) 0.6523(3) 0.5958(3)
H3 H 0.138(2) 0.671(4) 0.552(3)
N4 N 0.23759(19) 0.8290(4) 0.6352(3)
H4 H 0.238(3) 0.810(5) 0.589(4)
C1 C 0.36879(19) 0.6755(4) 0.6599(3)
C2 C 0.39568(19) 0.6293(5) 0.7346(3)
H5 H 0.4143 0.6737 0.7799
C3 C 0.3901(2) 0.5028(5) 0.7308(3)
H6 H 0.4044 0.4490 0.7736
C4 C 0.36065(19) 0.4722(4) 0.6546(3)
C5 C 0.34177(19) 0.3491(4) 0.6183(3)
C6 C 0.26997(19) 0.3309(4) 0.6230(3)
C7 C 0.2345(2) 0.2526(4) 0.6721(3)
H7 H 0.2503 0.1945 0.7106
C8 C 0.1694(2) 0.2759(4) 0.6537(4)
H8 H 0.1348 0.2352 0.6785
C9 C 0.16487(19) 0.3664(4) 0.5944(3)
C10 C 0.1065(2) 0.4291(4) 0.5567(3)
C11 C 0.0911(2) 0.5397(4) 0.6120(3)
C12 C 0.0560(2) 0.5483(4) 0.6881(4)
H9 H 0.0336 0.4859 0.7154
C13 C 0.0600(2) 0.6705(4) 0.7177(3)
H10 H 0.0404 0.7019 0.7677
C14 C 0.0978(2) 0.7338(4) 0.6598(3)
C15 C 0.1192(2) 0.8643(4) 0.6615(3)
C16 C 0.1890(2) 0.8715(4) 0.6892(3)
C17 C 0.21732(19) 0.9168(4) 0.7612(6)
H11 H 0.1960 0.9518 0.8085
C18 C 0.2845(2) 0.9033(4) 0.7539(5)
H12 H 0.3149 0.9260 0.7957
C19 C 0.2969(2) 0.8505(4) 0.6737(3)
C20 C 0.3594(2) 0.8070(4) 0.6327(3)
C21 C 0.3738(2) 0.2519(5) 0.6775(4)
H13 H 0.3564 0.2569 0.7358
H14 H 0.4194 0.2656 0.6795
H15 H 0.3655 0.1731 0.6537
C22 C 0.36787(19) 0.3289(4) 0.5252(3)
C23 C 0.4271(2) 0.3757(5) 0.5002(4)
H16 H 0.4485 0.4281 0.5380
C24 C 0.4547(2) 0.3471(5) 0.4221(4)
H17 H 0.4941 0.3804 0.4064
C25 C 0.4241(2) 0.2692(4) 0.3669(3)
C26 C 0.3652(2) 0.2227(5) 0.3864(3)
H18 H 0.3437 0.1730 0.3469
C27 C 0.3384(2) 0.2520(4) 0.4674(3)
H19 H 0.2991 0.2181 0.4828
C28 C 0.1172(2) 0.4602(4) 0.4596(3)
H20 H 0.0786 0.4945 0.4356
H21 H 0.1280 0.3881 0.4278
H22 H 0.1517 0.5175 0.4546
C29 C 0.0488(2) 0.3409(5) 0.5623(5)
H23 H 0.0399 0.3228 0.6229
H24 H 0.0590 0.2677 0.5316
H25 H 0.0116 0.3777 0.5361
C30 C 0.0789(2) 0.9323(4) 0.7294(4)
H26 H 0.0342 0.9270 0.7138
H27 H 0.0917 1.0156 0.7307
H28 H 0.0853 0.8970 0.7864
C31 C 0.1072(2) 0.9255(4) 0.5711(3)
C32 C 0.0516(2) 0.9028(5) 0.5243(4)
H29 H 0.0228 0.8453 0.5455
C33 C 0.0374(3) 0.9625(5) 0.4472(5)
H30 H -0.0003 0.9461 0.4163
C34 C 0.0801(3) 1.0461(5) 0.4176(4)
C35 C 0.1351(3) 1.0724(4) 0.4596(4)
H31 H 0.1634 1.1296 0.4371
C36 C 0.1487(2) 1.0117(4) 0.5379(3)
H32 H 0.1863 1.0297 0.5683
C37 C 0.3592(2) 0.8225(5) 0.5321(4)
H33 H 0.3268 0.7714 0.5068
H34 H 0.4006 0.8006 0.5090
H35 H 0.3502 0.9052 0.5177
C38 C 0.4155(2) 0.8830(5) 0.6714(5)
H36 H 0.4105 0.9660 0.6543
H37 H 0.4557 0.8527 0.6495
H38 H 0.4149 0.8773 0.7344
O1 O 0.29804(17) 0.7409(3) 0.9595(3)
H39 H 0.2639(16) 0.688(4) 0.951(4)
H40 H 0.321(2) 0.780(5) 0.915(3)
loop_
_geom_bond_atom_site_label_1
_geom_bond_atom_site_label_2
_geom_bond_site_symmetry_1
_geom_bond_site_symmetry_2
F2 C25 1_555 1_555
F3 C34 1_555 1_555
N1 H1 1_555 1_555
N2 H2 1_555 1_555
N3 H3 1_555 1_555
N4 H4 1_555 1_555
C1 N1 1_555 1_555
C2 C1 1_555 1_555
H5 C2 1_555 1_555
C3 C2 1_555 1_555
H6 C3 1_555 1_555
C4 N1 1_555 1_555
C5 C4 1_555 1_555
C6 N2 1_555 1_555
C7 C6 1_555 1_555
H7 C7 1_555 1_555
C8 C7 1_555 1_555
H8 C8 1_555 1_555
C9 N2 1_555 1_555
C10 C9 1_555 1_555
C11 N3 1_555 1_555
C12 C11 1_555 1_555
H9 C12 1_555 1_555
C13 C12 1_555 1_555
H10 C13 1_555 1_555
C14 N3 1_555 1_555
C15 C14 1_555 1_555
C16 N4 1_555 1_555
C17 C16 1_555 1_555
H11 C17 1_555 1_555
C18 C17 1_555 1_555
H12 C18 1_555 1_555
C19 N4 1_555 1_555
C20 C1 1_555 1_555
C21 C5 1_555 1_555
H13 C21 1_555 1_555
H14 C21 1_555 1_555
H15 C21 1_555 1_555
C22 C5 1_555 1_555
C23 C22 1_555 1_555
H16 C23 1_555 1_555
C24 C23 1_555 1_555
H17 C24 1_555 1_555
C25 C24 1_555 1_555
C26 C25 1_555 1_555
H18 C26 1_555 1_555
C27 C22 1_555 1_555
H19 C27 1_555 1_555
C28 C10 1_555 1_555
H20 C28 1_555 1_555
H21 C28 1_555 1_555
H22 C28 1_555 1_555
C29 C10 1_555 1_555
H23 C29 1_555 1_555
H24 C29 1_555 1_555
H25 C29 1_555 1_555
C30 C15 1_555 1_555
H26 C30 1_555 1_555
H27 C30 1_555 1_555
H28 C30 1_555 1_555
C31 C15 1_555 1_555
C32 C31 1_555 1_555
H29 C32 1_555 1_555
C33 C32 1_555 1_555
H30 C33 1_555 1_555
C34 C33 1_555 1_555
C35 C34 1_555 1_555
H31 C35 1_555 1_555
C36 C31 1_555 1_555
H32 C36 1_555 1_555
C37 C20 1_555 1_555
H33 C37 1_555 1_555
H34 C37 1_555 1_555
H35 C37 1_555 1_555
C38 C20 1_555 1_555
H36 C38 1_555 1_555
H37 C38 1_555 1_555
H38 C38 1_555 1_555
O1 H39 1_555 1_555
H40 O1 1_555 1_555
C3 C4 1_555 1_555
C5 C6 1_555 1_555
C8 C9 1_555 1_555
C10 C11 1_555 1_555
C13 C14 1_555 1_555
C15 C16 1_555 1_555
C18 C19 1_555 1_555
C19 C20 1_555 1_555
C26 C27 1_555 1_555
C35 C36 1_555 1_555

#END
