
#######################################################################
#
#                 Cambridge Crystallographic Data Centre
#                                CCDC 
#
#######################################################################
#
# If this CIF has been generated from an entry in the Cambridge 
# Structural Database, then it will include bibliographic, chemical, 
# crystal, experimental, refinement or atomic coordinate data resulting 
# from the CCDC's data processing and validation procedures.
#
#######################################################################

data_BUXBAY
_chemical_formula_moiety         'C22 H19 N3 O1 2+,2(H2 O1),2(Cl1 1-)'
_chemical_name_systematic        
"4'-(4-Methoxyphenyl)-2,2':6',2''-terpyridinedi-ium dichloride dihydrate"
_symmetry_cell_setting           triclinic
_symmetry_space_group_name_H-M   'P -1'
_symmetry_Int_Tables_number      2
_space_group_name_Hall           '-P 1'
loop_
_symmetry_equiv_pos_site_id
_symmetry_equiv_pos_as_xyz
1 x,y,z
2 -x,-y,-z
_cell_length_a                   8.2390(6)
_cell_length_b                   11.0750(8)
_cell_length_c                   13.5200(8)
_cell_angle_alpha                103.205(4)
_cell_angle_beta                 106.017(2)
_cell_angle_gamma                105.297(6)
_cell_volume                     1081.7
_exptl_crystal_colour            yellow
_exptl_crystal_description       block
_cell_formula_units_Z            2
loop_
_atom_site_label
_atom_site_type_symbol
_atom_site_fract_x
_atom_site_fract_y
_atom_site_fract_z
C1 C 0.8808(4) 0.5790(3) 0.4393(2)
H1 H 0.9689 0.6270 0.5110
H2 H 0.9386 0.5467 0.3917
H3 H 0.7910 0.5056 0.4421
O1 O 0.7969(2) 0.66503(18) 0.39893(14)
C2 C 0.6615(3) 0.6119(2) 0.29978(19)
C3 C 0.5773(3) 0.6975(2) 0.2677(2)
H4 H 0.6134 0.7836 0.3139
C4 C 0.4415(3) 0.6558(2) 0.1685(2)
H5 H 0.3860 0.7140 0.1485
C5 C 0.3846(3) 0.5263(2) 0.09649(18)
C6 C 0.4704(3) 0.4424(2) 0.13064(19)
H6 H 0.4351 0.3562 0.0847
C7 C 0.6074(3) 0.4836(2) 0.23142(19)
H7 H 0.6620 0.4255 0.2526
C8 C 0.2394(3) 0.4830(2) -0.01095(19)
C9 C 0.1615(3) 0.5705(2) -0.04559(19)
H8 H 0.2019 0.6582 -0.0015
C10 C 0.0235(3) 0.5267(2) -0.14604(19)
N1 N -0.0368(3) 0.4030(2) -0.21513(16)
C11 C 0.0414(3) 0.3196(2) -0.18254(19)
C12 C 0.1749(3) 0.3541(2) -0.08206(19)
H9 H 0.2211 0.2915 -0.0622
C13 C -0.0212(3) 0.1871(2) -0.2641(2)
N2 N -0.1589(3) 0.1620(2) -0.35736(18)
H10 H -0.2044 0.2227 -0.3636
C14 C -0.2277(4) 0.0492(3) -0.4396(2)
H11 H -0.3239 0.0363 -0.5013
C15 C -0.1554(4) -0.0478(3) -0.4325(3)
H12 H -0.2023 -0.1273 -0.4895
C16 C -0.0128(4) -0.0271(3) -0.3407(2)
H13 H 0.0383 -0.0921 -0.3361
C17 C 0.0549(4) 0.0912(3) -0.2546(2)
H14 H 0.1497 0.1054 -0.1917
C18 C -0.0676(3) 0.6158(2) -0.18333(19)
C19 C -0.0310(4) 0.7445(3) -0.1235(2)
H15 H 0.0602 0.7832 -0.0553
C20 C -0.1311(4) 0.8165(3) -0.1655(2)
H16 H -0.1079 0.9032 -0.1250
C21 C -0.2648(4) 0.7595(3) -0.2673(2)
H17 H -0.3325 0.8068 -0.2959
C22 C -0.2955(3) 0.6321(3) -0.3251(2)
H18 H -0.3838 0.5923 -0.3942
N3 N -0.1989(3) 0.5646(2) -0.28246(16)
H19 H -0.2216 0.4842 -0.3202
Cl1 Cl 0.38661(8) 0.69786(7) 0.47695(5)
O2 O 0.3694(3) 0.1189(2) 0.97288(19)
H20 H 0.3994 0.1115 1.0363
H21 H 0.4560 0.1158 0.9503
Cl2 Cl 0.33265(14) 0.94167(8) 0.13056(7)
O3 O 0.2854(5) 0.8037(5) 0.6990(5)
O4? O 0.1834(18) 0.7483(10) 0.6986(7)
O5? O 0.3534(11) 0.9235(9) 0.7035(9)
loop_
_geom_bond_atom_site_label_1
_geom_bond_atom_site_label_2
_geom_bond_site_symmetry_1
_geom_bond_site_symmetry_2
C1 H1 1_555 1_555
H2 C1 1_555 1_555
H3 C1 1_555 1_555
O1 C1 1_555 1_555
C2 O1 1_555 1_555
C3 C2 1_555 1_555
H4 C3 1_555 1_555
C4 C3 1_555 1_555
H5 C4 1_555 1_555
C5 C4 1_555 1_555
C6 C5 1_555 1_555
H6 C6 1_555 1_555
C7 C2 1_555 1_555
H7 C7 1_555 1_555
C8 C5 1_555 1_555
C9 C8 1_555 1_555
H8 C9 1_555 1_555
C10 C9 1_555 1_555
N1 C10 1_555 1_555
C11 N1 1_555 1_555
C12 C8 1_555 1_555
H9 C12 1_555 1_555
C13 C11 1_555 1_555
N2 C13 1_555 1_555
H10 N2 1_555 1_555
C14 N2 1_555 1_555
H11 C14 1_555 1_555
C15 C14 1_555 1_555
H12 C15 1_555 1_555
C16 C15 1_555 1_555
H13 C16 1_555 1_555
C17 C13 1_555 1_555
H14 C17 1_555 1_555
C18 C10 1_555 1_555
C19 C18 1_555 1_555
H15 C19 1_555 1_555
C20 C19 1_555 1_555
H16 C20 1_555 1_555
C21 C20 1_555 1_555
H17 C21 1_555 1_555
C22 C21 1_555 1_555
H18 C22 1_555 1_555
N3 C18 1_555 1_555
H19 N3 1_555 1_555
O2 H20 1_555 1_555
H21 O2 1_555 1_555
C6 C7 1_555 1_555
C11 C12 1_555 1_555
C16 C17 1_555 1_555
C22 N3 1_555 1_555

#END
