
#######################################################################
#
#                 Cambridge Crystallographic Data Centre
#                                CCDC 
#
#######################################################################
#
# If this CIF has been generated from an entry in the Cambridge 
# Structural Database, then it will include bibliographic, chemical, 
# crystal, experimental, refinement or atomic coordinate data resulting 
# from the CCDC's data processing and validation procedures.
#
#######################################################################

data_BUXHUZ
_chemical_name_common            Cyclopentenol
_chemical_formula_moiety         'C9 H14 O4'
_chemical_name_systematic        
3a-(hydroxymethyl)-2,2-dimethyl-4,6a-dihydro-3aH-cyclopenta[d][1,3]dioxol-4-ol
_symmetry_cell_setting           monoclinic
_symmetry_space_group_name_H-M   'C 2'
_symmetry_Int_Tables_number      5
_space_group_name_Hall           'C 2y'
loop_
_symmetry_equiv_pos_site_id
_symmetry_equiv_pos_as_xyz
1 x,y,z
2 -x,y,-z
3 1/2+x,1/2+y,z
4 1/2-x,1/2+y,-z
_cell_length_a                   27.093(5)
_cell_length_b                   7.4084(12)
_cell_length_c                   9.9219(17)
_cell_angle_alpha                90
_cell_angle_beta                 99.815(5)
_cell_angle_gamma                90
_cell_volume                     1962.33
_exptl_crystal_colour            colorless
_exptl_crystal_description       needle
_chemical_melting_point          '324 K'
_cell_formula_units_Z            8
loop_
_atom_site_label
_atom_site_type_symbol
_atom_site_fract_x
_atom_site_fract_y
_atom_site_fract_z
C1 C 0.71005(5) 0.8426(2) 0.04485(14)
H1 H 0.7333 0.7528 0.0977
C2 C 0.63165(6) 0.8387(2) 0.13496(15)
H2 H 0.6325 0.7487 0.2104
C3 C 0.58173(6) 0.9167(2) -0.06917(16)
C4 C 0.65665(6) 0.7635(2) 0.02046(15)
C5 C 0.70553(6) 1.0020(2) 0.13505(15)
H3 H 0.7304 1.0928 0.1553
C6 C 0.66302(6) 1.0017(2) 0.18306(15)
H4 H 0.6534 1.0928 0.2407
C7 C 0.65351(6) 0.5609(2) 0.00185(15)
H5 H 0.6179 0.5241 -0.0179
H6 H 0.6692 0.5265 -0.0776
C8 C 0.57994(7) 1.1180(3) -0.09243(19)
H7 H 0.6088 1.1747 -0.0350
H8 H 0.5489 1.1667 -0.0685
H9 H 0.5809 1.1433 -0.1889
C9 C 0.53887(6) 0.8182(3) -0.15551(18)
H10 H 0.5071 0.8597 -0.1316
H11 H 0.5425 0.6881 -0.1386
H12 H 0.5392 0.8427 -0.2524
O1 O 0.72756(4) 0.88273(16) -0.07901(10)
H13 H 0.7049 0.9361 -0.1329
O2 O 0.62853(4) 0.84823(15) -0.09885(10)
O3 O 0.67766(4) 0.46833(16) 0.11889(11)
H14 H 0.7061 0.4343 0.1064
O4 O 0.58141(4) 0.87535(17) 0.07105(11)
C10 C 0.66982(6) 0.1139(2) 0.56278(16)
H15 H 0.6387 0.0454 0.5669
H16 H 0.6861 0.0598 0.4903
C11 C 0.65700(5) 0.3090(2) 0.52803(14)
C12 C 0.62585(6) 0.4035(2) 0.62061(16)
H17 H 0.6327 0.3506 0.7147
C13 C 0.70182(6) 0.4339(2) 0.52239(15)
H18 H 0.7308 0.3904 0.5908
C14 C 0.57383(5) 0.3503(3) 0.41468(16)
C15 C 0.68490(7) 0.6108(3) 0.57012(16)
H19 H 0.7020 0.7215 0.5631
C16 C 0.64389(6) 0.5967(3) 0.62284(17)
H20 H 0.6276 0.6953 0.6580
C17 C 0.55580(7) 0.5205(4) 0.3393(2)
H21 H 0.5576 0.5063 0.2420
H22 H 0.5770 0.6219 0.3769
H23 H 0.5211 0.5442 0.3498
C18 C 0.54211(7) 0.1883(3) 0.3654(2)
H24 H 0.5537 0.0836 0.4224
H25 H 0.5449 0.1627 0.2701
H26 H 0.5071 0.2134 0.3717
O5 O 0.62469(4) 0.31600(16) 0.39776(10)
O6 O 0.71655(4) 0.43762(17) 0.39149(11)
H27 H 0.6910 0.4441 0.3305
O7 O 0.70251(4) 0.10122(18) 0.69075(10)
H28 H 0.7309 0.0669 0.6781
O8 O 0.57507(4) 0.37109(18) 0.55826(11)
loop_
_geom_bond_atom_site_label_1
_geom_bond_atom_site_label_2
_geom_bond_site_symmetry_1
_geom_bond_site_symmetry_2
C1 H1 1_555 1_555
C2 H2 1_555 1_555
C3 C8 1_555 1_555
C4 C1 1_555 1_555
C5 C1 1_555 1_555
H3 C5 1_555 1_555
C6 C2 1_555 1_555
H4 C6 1_555 1_555
C7 C4 1_555 1_555
H5 C7 1_555 1_555
H6 C7 1_555 1_555
C8 H7 1_555 1_555
H8 C8 1_555 1_555
H9 C8 1_555 1_555
C9 C3 1_555 1_555
H10 C9 1_555 1_555
H11 C9 1_555 1_555
H12 C9 1_555 1_555
O1 C1 1_555 1_555
H13 O1 1_555 1_555
O2 C3 1_555 1_555
O3 C7 1_555 1_555
H14 O3 1_555 1_555
O4 C2 1_555 1_555
C10 H15 1_555 1_555
H16 C10 1_555 1_555
C11 C10 1_555 1_555
C12 C11 1_555 1_555
H17 C12 1_555 1_555
C13 C11 1_555 1_555
H18 C13 1_555 1_555
C14 C17 1_555 1_555
C15 C13 1_555 1_555
H19 C15 1_555 1_555
C16 C12 1_555 1_555
H20 C16 1_555 1_555
C17 H21 1_555 1_555
H22 C17 1_555 1_555
H23 C17 1_555 1_555
C18 C14 1_555 1_555
H24 C18 1_555 1_555
H25 C18 1_555 1_555
H26 C18 1_555 1_555
O5 C11 1_555 1_555
O6 C13 1_555 1_555
H27 O6 1_555 1_555
O7 C10 1_555 1_555
H28 O7 1_555 1_555
O8 C12 1_555 1_555
C2 C4 1_555 1_555
C3 O4 1_555 1_555
C4 O2 1_555 1_555
C5 C6 1_555 1_555
C14 O5 1_555 1_555
C14 O8 1_555 1_555
C15 C16 1_555 1_555

#END
