
#######################################################################
#
#                 Cambridge Crystallographic Data Centre
#                                CCDC 
#
#######################################################################
#
# If this CIF has been generated from an entry in the Cambridge 
# Structural Database, then it will include bibliographic, chemical, 
# crystal, experimental, refinement or atomic coordinate data resulting 
# from the CCDC's data processing and validation procedures.
#
#######################################################################

data_BUXLEN
_chemical_formula_moiety         'C15 H12 N4 O2'
_chemical_name_systematic        
'4-((3-(pyrazin-2-yl)-1H-pyrazol-1-yl)methyl)benzoic acid'
_symmetry_cell_setting           orthorhombic
_symmetry_space_group_name_H-M   'P b c a'
_symmetry_Int_Tables_number      61
_space_group_name_Hall           '-P 2ac 2ab'
loop_
_symmetry_equiv_pos_site_id
_symmetry_equiv_pos_as_xyz
1 x,y,z
2 1/2-x,-y,1/2+z
3 1/2+x,1/2-y,-z
4 -x,1/2+y,1/2-z
5 -x,-y,-z
6 1/2+x,y,1/2-z
7 1/2-x,1/2+y,z
8 x,1/2-y,1/2+z
_cell_length_a                   7.5291(5)
_cell_length_b                   16.1622(13)
_cell_length_c                   22.186(2)
_cell_angle_alpha                90
_cell_angle_beta                 90
_cell_angle_gamma                90
_cell_volume                     2699.74
_exptl_crystal_colour            white
_exptl_crystal_description       block
_cell_formula_units_Z            8
loop_
_atom_site_label
_atom_site_type_symbol
_atom_site_fract_x
_atom_site_fract_y
_atom_site_fract_z
N1 N 0.6061(3) 0.60902(13) 0.64288(11)
N2 N 0.7229(3) 0.63888(13) 0.60261(10)
N3 N 1.1570(4) 0.6672(2) 0.48154(14)
N4 N 1.1438(3) 0.54514(14) 0.56929(11)
O1 O 0.7666(3) 0.94649(12) 0.83849(10)
H1 H 0.8062 0.9710 0.8679
O2 O 0.6811(3) 0.85626(15) 0.90830(10)
C1 C 0.6946(3) 0.87632(18) 0.85587(14)
C2 C 0.6305(3) 0.82355(16) 0.80566(12)
C3 C 0.6501(3) 0.84615(16) 0.74583(13)
H2 H 0.7016 0.8968 0.7362
C4 C 0.5940(3) 0.79426(17) 0.70048(13)
H3 H 0.6076 0.8104 0.6605
C5 C 0.5176(3) 0.71833(16) 0.71357(13)
C6 C 0.4968(3) 0.69661(17) 0.77350(14)
H4 H 0.4450 0.6461 0.7831
C7 C 0.5515(3) 0.74853(17) 0.81912(13)
H5 H 0.5351 0.7331 0.8591
C8 C 0.4610(3) 0.66102(17) 0.66368(14)
H6 H 0.3649 0.6262 0.6779
H7 H 0.4166 0.6935 0.6301
C9 C 0.6542(4) 0.53424(17) 0.66411(15)
H8 H 0.5933 0.5026 0.6924
C10 C 0.8095(4) 0.51391(17) 0.63615(14)
H9 H 0.8761 0.4660 0.6414
C11 C 0.8475(3) 0.58019(15) 0.59807(12)
C12 C 1.0025(3) 0.59278(15) 0.55873(12)
C13 C 1.0032(4) 0.65349(18) 0.51472(13)
H10 H 0.9018 0.6848 0.5074
C14 C 1.3025(4) 0.6178(2) 0.49250(15)
H11 H 1.4074 0.6250 0.4710
C15 C 1.2892(4) 0.5579(2) 0.53570(15)
H12 H 1.3870 0.5239 0.5422
loop_
_geom_bond_atom_site_label_1
_geom_bond_atom_site_label_2
_geom_bond_site_symmetry_1
_geom_bond_site_symmetry_2
N1 N2 1_555 1_555
N2 C11 1_555 1_555
N3 C13 1_555 1_555
N4 C12 1_555 1_555
O1 H1 1_555 1_555
O2 C1 1_555 1_555
C1 O1 1_555 1_555
C2 C1 1_555 1_555
C3 C2 1_555 1_555
H2 C3 1_555 1_555
C4 C3 1_555 1_555
H3 C4 1_555 1_555
C5 C4 1_555 1_555
C6 C5 1_555 1_555
H4 C6 1_555 1_555
C7 C2 1_555 1_555
H5 C7 1_555 1_555
C8 N1 1_555 1_555
H6 C8 1_555 1_555
H7 C8 1_555 1_555
C9 N1 1_555 1_555
H8 C9 1_555 1_555
C10 C9 1_555 1_555
H9 C10 1_555 1_555
C11 C10 1_555 1_555
C12 C11 1_555 1_555
C13 C12 1_555 1_555
H10 C13 1_555 1_555
C14 N3 1_555 1_555
H11 C14 1_555 1_555
C15 N4 1_555 1_555
H12 C15 1_555 1_555
C5 C8 1_555 1_555
C6 C7 1_555 1_555
C14 C15 1_555 1_555

#END
