
#######################################################################
#
#                 Cambridge Crystallographic Data Centre
#                                CCDC 
#
#######################################################################
#
# If this CIF has been generated from an entry in the Cambridge 
# Structural Database, then it will include bibliographic, chemical, 
# crystal, experimental, refinement or atomic coordinate data resulting 
# from the CCDC's data processing and validation procedures.
#
#######################################################################

data_BUXMUD
_chemical_formula_moiety         'C19 H18 N2 O2'
_chemical_name_systematic        
'Ethyl 4,6-diphenyl-1,3-diazabicyclo[3.1.0]hex-3-ene-2-carboxylate'
_symmetry_cell_setting           triclinic
_symmetry_space_group_name_H-M   'P -1'
_symmetry_Int_Tables_number      2
_space_group_name_Hall           '-P 1'
loop_
_symmetry_equiv_pos_site_id
_symmetry_equiv_pos_as_xyz
1 x,y,z
2 -x,-y,-z
_cell_length_a                   9.7875(13)
_cell_length_b                   10.0668(14)
_cell_length_c                   10.6038(14)
_cell_angle_alpha                116.187(2)
_cell_angle_beta                 108.145(2)
_cell_angle_gamma                100.722(3)
_cell_volume                     824.33
_exptl_crystal_colour            colorless
_exptl_crystal_description       prismatic
_cell_formula_units_Z            2
loop_
_atom_site_label
_atom_site_type_symbol
_atom_site_fract_x
_atom_site_fract_y
_atom_site_fract_z
N1 N 0.67247(16) -0.06441(17) 1.01942(16)
N2 N 0.77569(16) 0.08077(16) 0.91902(15)
O1 O 0.91994(16) 0.25587(19) 1.26082(15)
O2 O 0.70685(18) 0.3076(2) 1.22556(16)
C1 C 0.6924(2) 0.0801(2) 1.01358(18)
H1 H 0.5907 0.0841 0.9675
C2 C 0.73865(18) -0.1438(2) 0.94358(18)
C3 C 0.80289(19) -0.0702(2) 0.86919(17)
H2 H 0.9001 -0.0745 0.8635
C4 C 0.6856(2) -0.0531(2) 0.75334(18)
H3 H 0.5765 -0.1106 0.7213
C5 C 0.7171(2) -0.0276(2) 0.63595(19)
C6 C 0.8577(3) 0.0799(2) 0.6767(2)
H4 H 0.9347 0.1379 0.7799
C7 C 0.8850(3) 0.1019(3) 0.5663(3)
H5 H 0.9800 0.1743 0.5949
C8 C 0.7710(4) 0.0164(3) 0.4133(3)
H6 H 0.7888 0.0316 0.3386
C9 C 0.6325(3) -0.0903(3) 0.3716(2)
H7 H 0.5562 -0.1485 0.2680
C10 C 0.6044(3) -0.1127(3) 0.4818(2)
H8 H 0.5092 -0.1855 0.4523
C11 C 0.74823(19) -0.2923(2) 0.93091(19)
C12 C 0.8144(2) -0.3766(2) 0.8426(2)
H9 H 0.8519 -0.3397 0.7889
C13 C 0.8256(3) -0.5145(3) 0.8328(3)
H10 H 0.8702 -0.5702 0.7722
C14 C 0.7718(3) -0.5705(3) 0.9114(3)
H11 H 0.7799 -0.6636 0.9049
C15 C 0.7061(3) -0.4882(3) 0.9995(3)
H12 H 0.6692 -0.5258 1.0532
C16 C 0.6940(3) -0.3506(3) 1.0096(2)
H13 H 0.6488 -0.2959 1.0700
C17 C 0.7883(2) 0.2242(2) 1.1802(2)
C18 C 0.7838(4) 0.4480(4) 1.3854(3)
H14 H 0.8130 0.4155 1.4603
H15 H 0.8773 0.5196 1.4011
C19 C 0.6809(4) 0.5268(4) 1.4092(3)
H16 H 0.6414 0.5454 1.3261
H17 H 0.7351 0.6272 1.5081
H18 H 0.5962 0.4614 1.4095
loop_
_geom_bond_atom_site_label_1
_geom_bond_atom_site_label_2
_geom_bond_site_symmetry_1
_geom_bond_site_symmetry_2
N1 C1 1_555 1_555
N2 C1 1_555 1_555
O1 C17 1_555 1_555
O2 C17 1_555 1_555
C1 H1 1_555 1_555
C2 N1 1_555 1_555
C3 N2 1_555 1_555
H2 C3 1_555 1_555
C4 N2 1_555 1_555
H3 C4 1_555 1_555
C5 C4 1_555 1_555
C6 C5 1_555 1_555
H4 C6 1_555 1_555
C7 C6 1_555 1_555
H5 C7 1_555 1_555
C8 C7 1_555 1_555
H6 C8 1_555 1_555
C9 C8 1_555 1_555
H7 C9 1_555 1_555
C10 C5 1_555 1_555
H8 C10 1_555 1_555
C11 C2 1_555 1_555
C12 C11 1_555 1_555
H9 C12 1_555 1_555
C13 C12 1_555 1_555
H10 C13 1_555 1_555
C14 C13 1_555 1_555
H11 C14 1_555 1_555
C15 C14 1_555 1_555
H12 C15 1_555 1_555
C16 C11 1_555 1_555
H13 C16 1_555 1_555
C17 C1 1_555 1_555
C18 O2 1_555 1_555
H14 C18 1_555 1_555
H15 C18 1_555 1_555
C19 C18 1_555 1_555
H16 C19 1_555 1_555
H17 C19 1_555 1_555
H18 C19 1_555 1_555
C2 C3 1_555 1_555
C3 C4 1_555 1_555
C9 C10 1_555 1_555
C15 C16 1_555 1_555

#END
