
#######################################################################
#
#                 Cambridge Crystallographic Data Centre
#                                CCDC 
#
#######################################################################
#
# If this CIF has been generated from an entry in the Cambridge 
# Structural Database, then it will include bibliographic, chemical, 
# crystal, experimental, refinement or atomic coordinate data resulting 
# from the CCDC's data processing and validation procedures.
#
#######################################################################

data_BUXPAL
_chemical_formula_moiety         'C18 H28 N2 2+,C4 H10 O1,2(I1 1-)'
_chemical_name_systematic        
"N,N'-(Azulen-1,3-ylenedimethyl)-bis(trimethylammonium) di-iodide n-butanol clathrate"
_symmetry_cell_setting           monoclinic
_symmetry_space_group_name_H-M   'C 2/c'
_symmetry_Int_Tables_number      15
_space_group_name_Hall           '-C 2yn'
loop_
_symmetry_equiv_pos_site_id
_symmetry_equiv_pos_as_xyz
1 x,y,z
2 1/2+x,1/2+y,z
3 -x,y,1/2-z
4 1/2-x,1/2+y,1/2-z
5 -x,-y,-z
6 1/2-x,1/2-y,-z
7 x,-y,1/2+z
8 1/2+x,1/2-y,1/2+z
_cell_length_a                   16.547(5)
_cell_length_b                   12.271(2)
_cell_length_c                   13.485(3)
_cell_angle_alpha                90
_cell_angle_beta                 109.94(2)
_cell_angle_gamma                90
_cell_volume                     2573.96
_exptl_crystal_colour            violet
_cell_formula_units_Z            4
loop_
_atom_site_label
_atom_site_type_symbol
_atom_site_fract_x
_atom_site_fract_y
_atom_site_fract_z
C11 C 0.17380 0.35910 0.02320
C12 C 0.25090 0.30910 -0.00030
O1 O 0.18390 0.45970 0.03350
H15 H 0.17040 0.34770 0.10140
H16 H 0.30560 0.34070 0.06350
H17 H 0.11030 0.34750 -0.03460
H18 H 0.24790 0.34870 -0.07310
C12E C 0.24910 0.19090 0.00030
C11E C 0.32620 0.14090 -0.02320
H16E H 0.19440 0.15930 -0.06350
H18E H 0.25210 0.15130 0.07310
O1E O 0.31610 0.04030 -0.03350
H15E H 0.32960 0.15230 -0.10140
H17E H 0.38970 0.15250 0.03460
I1 I 0.14878 0.10608 0.26586
N1 N 0.12110 0.19400 0.58540
C1 C 0.06030 0.26040 0.72540
C2 C 0.00000 0.19530 0.75000
C3 C 0.00000 0.61890 0.75000
C4 C 0.07010 0.57060 0.73270
C5 C 0.08690 0.46070 0.72460
C6 C 0.03940 0.36990 0.73480
C7 C 0.13550 0.21630 0.70160
C8 C 0.10820 0.29710 0.52400
C9 C 0.20140 0.13810 0.58130
C10 C 0.04630 0.12130 0.53800
H1 H 0.00000 0.10750 0.75000
H2 H 0.11810 0.62640 0.72400
H3 H 0.18770 0.27350 0.72970
H4 H 0.16200 0.35060 0.55810
H5 H 0.10170 0.27920 0.44330
H6 H 0.21070 0.06290 0.62510
H7 H 0.05560 0.04670 0.58240
H8 H -0.01140 0.16150 0.53950
H9 H 0.00000 0.70690 0.75000
H10 H 0.14520 0.44260 0.70880
H11 H 0.04990 0.33670 0.52540
H12 H 0.19400 0.12110 0.50010
H13 H 0.25600 0.19080 0.61520
H14 H 0.04040 0.10390 0.45740
C1B C -0.06030 0.26040 0.77460
C6B C -0.03940 0.36990 0.76520
C4B C -0.07010 0.57060 0.76730
C7B C -0.13550 0.21630 0.79840
C5B C -0.08690 0.46070 0.77540
H2B H -0.11810 0.62640 0.77600
N1B N -0.12110 0.19400 0.91460
H3B H -0.18770 0.27350 0.77030
H10B H -0.14520 0.44260 0.79120
C8B C -0.10820 0.29710 0.97600
C9B C -0.20140 0.13810 0.91870
C10B C -0.04630 0.12130 0.96200
H4B H -0.16200 0.35060 0.94190
H5B H -0.10170 0.27920 1.05670
H11B H -0.04990 0.33670 0.97460
H6B H -0.21070 0.06290 0.87490
H12B H -0.19400 0.12110 0.99990
H13B H -0.25600 0.19080 0.88480
H7B H -0.05560 0.04670 0.91760
H8B H 0.01140 0.16150 0.96050
H14B H -0.04040 0.10390 1.04260
loop_
_geom_bond_atom_site_label_1
_geom_bond_atom_site_label_2
_geom_bond_site_symmetry_1
_geom_bond_site_symmetry_2
N1 C7 1_555 1_555
C1 C2 1_555 1_555
C2 H1 1_555 1_555
C3 C4 1_555 1_555
C4 C5 1_555 1_555
C5 C6 1_555 1_555
C6 C1 1_555 1_555
C7 C1 1_555 1_555
C8 N1 1_555 1_555
C9 N1 1_555 1_555
C10 N1 1_555 1_555
H2 C4 1_555 1_555
H3 C7 1_555 1_555
H4 C8 1_555 1_555
H5 C8 1_555 1_555
H6 C9 1_555 1_555
H7 C10 1_555 1_555
H8 C10 1_555 1_555
H9 C3 1_555 1_555
H10 C5 1_555 1_555
H11 C8 1_555 1_555
H12 C9 1_555 1_555
H13 C9 1_555 1_555
H14 C10 1_555 1_555
C11 C12 1_555 1_555
C12 H16 1_555 1_555
O1 C11 1_555 1_555
H15 C11 1_555 1_555
H17 C11 1_555 1_555
H18 C12 1_555 1_555
C1B C2 1_555 1_555
C6B C6 1_555 1_555
C4B C3 1_555 1_555
C7B C1B 1_555 1_555
C5B C6B 1_555 1_555
H2B C4B 1_555 1_555
N1B C7B 1_555 1_555
H3B C7B 1_555 1_555
H10B C5B 1_555 1_555
C8B N1B 1_555 1_555
C9B N1B 1_555 1_555
C10B N1B 1_555 1_555
H4B C8B 1_555 1_555
H5B C8B 1_555 1_555
H11B C8B 1_555 1_555
H6B C9B 1_555 1_555
H12B C9B 1_555 1_555
H13B C9B 1_555 1_555
H7B C10B 1_555 1_555
H8B C10B 1_555 1_555
H14B C10B 1_555 1_555
C12E C12 1_555 1_555
C11E C12E 1_555 1_555
H16E C12E 1_555 1_555
H18E C12E 1_555 1_555
O1E C11E 1_555 1_555
H15E C11E 1_555 1_555
H17E C11E 1_555 1_555
C1B C6B 1_555 1_555
C4B C5B 1_555 1_555

#END
