
#######################################################################
#
#                 Cambridge Crystallographic Data Centre
#                                CCDC 
#
#######################################################################
#
# If this CIF has been generated from an entry in the Cambridge 
# Structural Database, then it will include bibliographic, chemical, 
# crystal, experimental, refinement or atomic coordinate data resulting 
# from the CCDC's data processing and validation procedures.
#
#######################################################################

data_BUXWUO
_chemical_name_common            
'5,20-Di(pyridin-2-yl)-10,15,25,30-tetrakis(hexafluorophenyl)[26]Hexaphyrin(1.1.1.1.1.1) chloroform ethanol n-hexane solvate'
_chemical_formula_moiety         
'C64 H22 F20 N8,1.27(C1 H1 Cl3),0.61(C6 H14),0.78(C2 H6 O1)'
_chemical_name_systematic        
'2,7,17,22-tetrakis(pentafluorophenyl)-12,27-di(pyridin-2-yl)-31,32,33,34,35,36-hexaazaheptacyclo[26.2.1.1^3,6^.1^8,11^.1^13,16^.1^18,21^.1^23,26^]hexatriaconta-1(31),2,4,6(36),7,9,11,13(34),14,16,18(33),19,21,23,25,27,29-heptadecaene chloroform ethanol n-hexane solvate'
_symmetry_cell_setting           monoclinic
_symmetry_space_group_name_H-M   'C 2/c'
_symmetry_Int_Tables_number      15
_space_group_name_Hall           '-C 2yn'
loop_
_symmetry_equiv_pos_site_id
_symmetry_equiv_pos_as_xyz
1 x,y,z
2 -x,y,1/2-z
3 1/2+x,1/2+y,z
4 1/2-x,1/2+y,1/2-z
5 -x,-y,-z
6 x,-y,1/2+z
7 1/2-x,1/2-y,-z
8 1/2+x,1/2-y,1/2+z
_cell_length_a                   15.633(4)
_cell_length_b                   24.880(6)
_cell_length_c                   17.612(5)
_cell_angle_alpha                90
_cell_angle_beta                 103.172(4)
_cell_angle_gamma                90
_cell_volume                     6669.95
_exptl_crystal_colour            'dark red'
_exptl_crystal_description       prism
_cell_formula_units_Z            4
loop_
_atom_site_label
_atom_site_type_symbol
_atom_site_fract_x
_atom_site_fract_y
_atom_site_fract_z
C33 C 0.1096(12) 0.1121(5) 0.1666(8)
H12 H 0.1630 0.1035 0.1466
Cl1 Cl 0.1239(2) 0.16734(18) 0.2143(3)
Cl2 Cl 0.0818(5) 0.0569(2) 0.2184(3)
Cl3 Cl 0.01061(18) 0.11739(16) 0.08267(18)
C34 C -0.0285(13) 0.2334(10) 0.0485(15)
H13 H 0.0235 0.2503 0.0365
H14 H -0.0353 0.1969 0.0268
H15 H -0.0215 0.2316 0.1052
C35 C -0.1258(14) 0.2730(11) 0.0059(12)
H16 H -0.1157 0.3099 0.0271
H17 H -0.1294 0.2755 -0.0509
C36 C -0.2186(15) 0.2543(12) 0.0169(14)
H18 H -0.2039 0.2210 0.0479
H19 H -0.2313 0.2812 0.0542
C34F C -0.4715(13) 0.2666(10) -0.0485(15)
H13F H -0.5235 0.2497 -0.0365
H14F H -0.4647 0.3031 -0.0268
H15F H -0.4785 0.2684 -0.1052
C35F C -0.3742(14) 0.2270(11) -0.0059(12)
H16F H -0.3843 0.1901 -0.0271
H17F H -0.3706 0.2245 0.0509
C36F C -0.2814(15) 0.2457(12) -0.0169(14)
H18F H -0.2961 0.2790 -0.0479
H19F H -0.2687 0.2188 -0.0542
C1 C 0.3257(8) 0.4617(3) 0.0634(7)
C2 C 0.2851(8) 0.4761(6) 0.1229(6)
C3 C 0.2548(8) 0.5283(6) 0.1269(6)
C4 C 0.2651(8) 0.5661(4) 0.0715(10)
C5 C 0.3057(9) 0.5516(4) 0.0121(9)
C6 C 0.3360(8) 0.4994(4) 0.0080(7)
F1 F 0.3715(12) 0.4839(4) -0.0501(9)
F2 F 0.3185(14) 0.5868(5) -0.0433(10)
F3 F 0.2417(11) 0.6180(6) 0.0742(8)
F4 F 0.2167(6) 0.5434(6) 0.1817(6)
F5 F 0.2697(7) 0.4417(5) 0.1742(6)
C7 C 0.44497(19) 0.07269(10) 0.12095(19)
C8 C 0.39139(17) 0.04281(12) 0.15809(18)
C9 C 0.4042(2) -0.01228(12) 0.1678(2)
C10 C 0.4706(2) -0.03748(10) 0.1404(2)
C11 C 0.5242(2) -0.00760(14) 0.1032(2)
C12 C 0.51135(18) 0.04749(14) 0.09352(19)
F6 F 0.32700(17) 0.06423(10) 0.18354(17)
F7 F 0.3527(2) -0.04105(13) 0.2038(2)
F8 F 0.4833(2) -0.09060(13) 0.1517(3)
F9 F 0.5878(2) -0.03214(16) 0.0777(2)
F10 F 0.56059(18) 0.07418(14) 0.05469(18)
N1 N 0.2949(2) 0.10595(15) 0.0245(2)
N2 N 0.4905(2) 0.22377(14) 0.1428(2)
N3 N 0.4599(2) 0.33762(15) 0.1205(2)
H1 H 0.4296 0.3080 0.1064
N4 N 0.7102(2) 0.30139(17) 0.3135(2)
C13 C 0.2159(3) 0.12811(18) -0.0082(3)
C14 C 0.2117(3) 0.18304(18) 0.0184(3)
H2 H 0.1628 0.2066 0.0056
C15 C 0.2909(3) 0.19401(18) 0.0650(3)
H3 H 0.3092 0.2270 0.0907
C16 C 0.3423(3) 0.14582(18) 0.0680(3)
C17 C 0.4281(3) 0.13283(18) 0.1103(3)
C18 C 0.4946(3) 0.16915(18) 0.1464(3)
C19 C 0.5805(3) 0.1514(2) 0.1911(3)
H4 H 0.5995 0.1154 0.2019
C20 C 0.6269(3) 0.1962(2) 0.2138(3)
H5 H 0.6858 0.1981 0.2435
C21 C 0.5695(3) 0.24151(18) 0.1840(3)
C22 C 0.5959(3) 0.29534(18) 0.1935(3)
C23 C 0.5446(2) 0.33941(18) 0.1637(2)
C24 C 0.5685(3) 0.39481(18) 0.1730(3)
H6 H 0.6239 0.4085 0.1999
C25 C 0.4987(3) 0.42446(19) 0.1366(3)
H7 H 0.4964 0.4626 0.1345
C26 C 0.4292(3) 0.38912(17) 0.1022(2)
C27 C 0.3476(3) 0.40435(18) 0.0571(3)
C28 C 0.6895(3) 0.30699(19) 0.2360(3)
C29 C 0.7498(3) 0.3233(3) 0.1960(4)
H8 H 0.7336 0.3277 0.1410
C30 C 0.8358(4) 0.3334(3) 0.2370(6)
H9 H 0.8780 0.3464 0.2104
C31 C 0.8583(3) 0.3248(2) 0.3128(4)
H10 H 0.9175 0.3289 0.3410
C32 C 0.7937(3) 0.3100(2) 0.3498(4)
H11 H 0.8095 0.3055 0.4048
C1F C 0.1743(8) 0.0383(3) -0.0634(7)
C2F C 0.2149(8) 0.0239(6) -0.1229(6)
C3F C 0.2452(8) -0.0283(6) -0.1269(6)
C4F C 0.2349(8) -0.0661(4) -0.0715(10)
C5F C 0.1943(9) -0.0516(4) -0.0121(9)
C6F C 0.1640(8) 0.0006(4) -0.0080(7)
F1F F 0.1285(12) 0.0161(4) 0.0501(9)
F2F F 0.1815(14) -0.0868(5) 0.0433(10)
F3F F 0.2583(11) -0.1180(6) -0.0742(8)
F4F F 0.2833(6) -0.0434(6) -0.1817(6)
F5F F 0.2303(7) 0.0583(5) -0.1742(6)
C7F C 0.05503(19) 0.42731(10) -0.12095(19)
C8F C 0.10861(17) 0.45719(12) -0.15809(18)
C9F C 0.0958(2) 0.51228(12) -0.1678(2)
C10F C 0.0294(2) 0.53748(10) -0.1404(2)
C11F C -0.0242(2) 0.50760(14) -0.1032(2)
C12F C -0.01135(18) 0.45251(14) -0.09352(19)
F6F F 0.17300(17) 0.43577(10) -0.18354(17)
F7F F 0.1473(2) 0.54105(13) -0.2038(2)
F8F F 0.0167(2) 0.59060(13) -0.1517(3)
F9F F -0.0878(2) 0.53214(16) -0.0777(2)
F10F F -0.06059(18) 0.42582(14) -0.05469(18)
N1F N 0.2051(2) 0.39405(15) -0.0245(2)
N2F N 0.0095(2) 0.27623(14) -0.1428(2)
N3F N 0.0401(2) 0.16238(15) -0.1205(2)
H1F H 0.0704 0.1920 -0.1064
N4F N -0.2102(2) 0.19861(17) -0.3135(2)
C13F C 0.2841(3) 0.37189(18) 0.0082(3)
C14F C 0.2883(3) 0.31696(18) -0.0184(3)
H2F H 0.3372 0.2934 -0.0056
C15F C 0.2091(3) 0.30599(18) -0.0650(3)
H3F H 0.1908 0.2730 -0.0907
C16F C 0.1577(3) 0.35418(18) -0.0680(3)
C17F C 0.0719(3) 0.36717(18) -0.1103(3)
C18F C 0.0054(3) 0.33085(18) -0.1464(3)
C19F C -0.0805(3) 0.3486(2) -0.1911(3)
H4F H -0.0995 0.3846 -0.2019
C20F C -0.1269(3) 0.3038(2) -0.2138(3)
H5F H -0.1858 0.3019 -0.2435
C21F C -0.0695(3) 0.25849(18) -0.1840(3)
C22F C -0.0959(3) 0.20466(18) -0.1935(3)
C23F C -0.0446(2) 0.16059(18) -0.1637(2)
C24F C -0.0685(3) 0.10519(18) -0.1730(3)
H6F H -0.1239 0.0915 -0.1999
C25F C 0.0013(3) 0.07554(19) -0.1366(3)
H7F H 0.0036 0.0374 -0.1345
C26F C 0.0708(3) 0.11088(17) -0.1022(2)
C27F C 0.1524(3) 0.09565(18) -0.0571(3)
C28F C -0.1895(3) 0.19301(19) -0.2360(3)
C29F C -0.2498(3) 0.1767(3) -0.1960(4)
H8F H -0.2336 0.1723 -0.1410
C30F C -0.3358(4) 0.1666(3) -0.2370(6)
H9F H -0.3780 0.1536 -0.2104
C31F C -0.3583(3) 0.1752(2) -0.3128(4)
H10F H -0.4175 0.1711 -0.3410
C32F C -0.2937(3) 0.1900(2) -0.3498(4)
H11F H -0.3095 0.1945 -0.4048
C37? C 0.3144(14) 0.4643(6) 0.0565(9)
C38? C 0.3103(14) 0.4968(8) -0.0084(7)
C39? C 0.2911(16) 0.5512(8) -0.0049(11)
C40? C 0.2759(19) 0.5730(6) 0.0634(14)
C41? C 0.280(2) 0.5405(9) 0.1284(10)
C42? C 0.2993(18) 0.4861(8) 0.1249(7)
F11? F 0.3312(17) 0.4799(6) -0.0726(9)
F12? F 0.307(2) 0.4573(9) 0.1904(12)
F13? F 0.261(3) 0.5598(9) 0.1960(15)
F14? F 0.2818(16) 0.5824(9) -0.0657(13)
F15? F 0.253(2) 0.6239(10) 0.0693(19)
C43? C -0.0248(17) 0.2710(10) 0.0375(14)
H20? H 0.0198 0.2691 0.0874
H21? H 0.0041 0.2722 -0.0070
C44? C -0.0918(16) 0.3170(10) 0.0358(13)
H22? H -0.0612 0.3517 0.0398
H23? H -0.1201 0.3130 0.0797
H24? H -0.1364 0.3156 -0.0133
O1? O -0.1031(16) 0.2210(9) 0.0284(12)
H25? H -0.0789 0.1908 0.0283
loop_
_geom_bond_atom_site_label_1
_geom_bond_atom_site_label_2
_geom_bond_site_symmetry_1
_geom_bond_site_symmetry_2
C1 C2 1_555 1_555
C2 C3 1_555 1_555
C3 C4 1_555 1_555
C4 C5 1_555 1_555
C5 C6 1_555 1_555
C6 C1 1_555 1_555
F1 C6 1_555 1_555
F2 C5 1_555 1_555
F3 C4 1_555 1_555
F4 C3 1_555 1_555
F5 C2 1_555 1_555
C7 C8 1_555 1_555
C8 C9 1_555 1_555
C9 C10 1_555 1_555
C10 C11 1_555 1_555
C11 C12 1_555 1_555
C12 C7 1_555 1_555
F6 C8 1_555 1_555
F7 C9 1_555 1_555
F8 C10 1_555 1_555
F9 C11 1_555 1_555
F10 C12 1_555 1_555
N1 C13 1_555 1_555
N2 C18 1_555 1_555
N3 H1 1_555 1_555
N4 C28 1_555 1_555
C13 C14 1_555 1_555
C14 H2 1_555 1_555
C15 C14 1_555 1_555
H3 C15 1_555 1_555
C16 N1 1_555 1_555
C17 C7 1_555 1_555
C18 C17 1_555 1_555
C19 C18 1_555 1_555
H4 C19 1_555 1_555
C20 C19 1_555 1_555
H5 C20 1_555 1_555
C21 N2 1_555 1_555
C22 C21 1_555 1_555
C23 N3 1_555 1_555
C24 C23 1_555 1_555
H6 C24 1_555 1_555
C25 C24 1_555 1_555
H7 C25 1_555 1_555
C26 N3 1_555 1_555
C27 C1 1_555 1_555
C28 C22 1_555 1_555
C29 C28 1_555 1_555
H8 C29 1_555 1_555
C30 C29 1_555 1_555
H9 C30 1_555 1_555
C31 C30 1_555 1_555
H10 C31 1_555 1_555
C32 N4 1_555 1_555
H11 C32 1_555 1_555
C33 H12 1_555 1_555
Cl1 C33 1_555 1_555
Cl2 C33 1_555 1_555
Cl3 C33 1_555 1_555
C34 H13 1_555 1_555
H14 C34 1_555 1_555
H15 C34 1_555 1_555
C35 C34 1_555 1_555
H16 C35 1_555 1_555
H17 C35 1_555 1_555
C36 C35 1_555 1_555
H18 C36 1_555 1_555
H19 C36 1_555 1_555
C1F C2F 1_555 1_555
C2F C3F 1_555 1_555
C3F C4F 1_555 1_555
C4F C5F 1_555 1_555
C5F C6F 1_555 1_555
C6F C1F 1_555 1_555
F1F C6F 1_555 1_555
F2F C5F 1_555 1_555
F3F C4F 1_555 1_555
F4F C3F 1_555 1_555
F5F C2F 1_555 1_555
C7F C8F 1_555 1_555
C8F C9F 1_555 1_555
C9F C10F 1_555 1_555
C10F C11F 1_555 1_555
C11F C12F 1_555 1_555
C12F C7F 1_555 1_555
F6F C8F 1_555 1_555
F7F C9F 1_555 1_555
F8F C10F 1_555 1_555
F9F C11F 1_555 1_555
F10F C12F 1_555 1_555
N1F C13F 1_555 1_555
N2F C18F 1_555 1_555
N3F H1F 1_555 1_555
N4F C28F 1_555 1_555
C13F C27 1_555 1_555
C14F C13F 1_555 1_555
H2F C14F 1_555 1_555
C15F C14F 1_555 1_555
H3F C15F 1_555 1_555
C16F N1F 1_555 1_555
C17F C7F 1_555 1_555
C18F C17F 1_555 1_555
C19F C18F 1_555 1_555
H4F C19F 1_555 1_555
C20F C19F 1_555 1_555
H5F C20F 1_555 1_555
C21F N2F 1_555 1_555
C22F C21F 1_555 1_555
C23F N3F 1_555 1_555
C24F C23F 1_555 1_555
H6F C24F 1_555 1_555
C25F C24F 1_555 1_555
H7F C25F 1_555 1_555
C26F N3F 1_555 1_555
C27F C13 1_555 1_555
C28F C22F 1_555 1_555
C29F C28F 1_555 1_555
H8F C29F 1_555 1_555
C30F C29F 1_555 1_555
H9F C30F 1_555 1_555
C31F C30F 1_555 1_555
H10F C31F 1_555 1_555
C32F N4F 1_555 1_555
H11F C32F 1_555 1_555
C34F H13F 1_555 1_555
H14F C34F 1_555 1_555
H15F C34F 1_555 1_555
C35F C34F 1_555 1_555
H16F C35F 1_555 1_555
H17F C35F 1_555 1_555
C36F C36 1_555 1_555
H18F C36F 1_555 1_555
H19F C36F 1_555 1_555
C15 C16 1_555 1_555
C16 C17 1_555 1_555
C20 C21 1_555 1_555
C22 C23 1_555 1_555
C25 C26 1_555 1_555
C26 C27 1_555 1_555
C31 C32 1_555 1_555
C1F C27F 1_555 1_555
C15F C16F 1_555 1_555
C16F C17F 1_555 1_555
C20F C21F 1_555 1_555
C22F C23F 1_555 1_555
C25F C26F 1_555 1_555
C26F C27F 1_555 1_555
C31F C32F 1_555 1_555
C35F C36F 1_555 1_555

#END
