
#######################################################################
#
#                 Cambridge Crystallographic Data Centre
#                                CCDC 
#
#######################################################################
#
# If this CIF has been generated from an entry in the Cambridge 
# Structural Database, then it will include bibliographic, chemical, 
# crystal, experimental, refinement or atomic coordinate data resulting 
# from the CCDC's data processing and validation procedures.
#
#######################################################################

data_BUXXOJ
_chemical_formula_moiety         'C25 H19 N3 O1 S1'
_chemical_name_systematic        
((Z)-2-((Z)-2-(3-Butyl-1,3-benzothiazol-2(3H)-ylidene)ethylidene)-3-oxo-2,3-dihydro-1H-inden-1-ylidene)malononitrile
_symmetry_cell_setting           monoclinic
_symmetry_space_group_name_H-M   'P 21/c'
_symmetry_Int_Tables_number      14
_space_group_name_Hall           '-P 2ybc'
loop_
_symmetry_equiv_pos_site_id
_symmetry_equiv_pos_as_xyz
1 x,y,z
2 -x,1/2+y,1/2-z
3 -x,-y,-z
4 x,1/2-y,1/2+z
_cell_length_a                   18.0569(8)
_cell_length_b                   4.7287(2)
_cell_length_c                   24.2655(11)
_cell_angle_alpha                90
_cell_angle_beta                 97.157(2)
_cell_angle_gamma                90
_cell_volume                     2055.78
_exptl_crystal_colour            'dark red'
_exptl_crystal_description       prism
_chemical_melting_point          '310 deg.C'
_cell_formula_units_Z            4
loop_
_atom_site_label
_atom_site_type_symbol
_atom_site_fract_x
_atom_site_fract_y
_atom_site_fract_z
C1 C 0.08399(7) 1.0220(3) 0.38880(5)
C2 C 0.02501(7) 1.2125(3) 0.38078(6)
H1 H -0.0068 1.2418 0.4086
C3 C 0.01418(8) 1.3579(3) 0.33104(6)
H2 H -0.0257 1.4897 0.3247
C4 C 0.06059(8) 1.3148(3) 0.29007(6)
H3 H 0.0518 1.4178 0.2563
C5 C 0.11933(7) 1.1248(3) 0.29757(5)
H4 H 0.1505 1.0940 0.2694
C6 C 0.13100(7) 0.9805(3) 0.34795(5)
C7 C 0.18623(7) 0.6797(3) 0.41618(5)
C8 C 0.23820(7) 0.4854(3) 0.44201(5)
H5 H 0.2813 0.4421 0.4249
C9 C 0.22855(7) 0.3558(3) 0.49139(5)
H6 H 0.1854 0.4072 0.5078
C10 C 0.27603(7) 0.1559(3) 0.51972(5)
C11 C 0.34681(7) 0.0647(3) 0.50174(5)
C12 C 0.38054(7) -0.1415(3) 0.54377(5)
C13 C 0.44783(8) -0.2821(3) 0.54569(6)
H7 H 0.4800 -0.2511 0.5181
C14 C 0.46710(9) -0.4703(4) 0.58909(7)
H8 H 0.5130 -0.5703 0.5915
C15 C 0.41963(10) -0.5122(4) 0.62883(7)
H9 H 0.4334 -0.6427 0.6581
C16 C 0.35208(9) -0.3683(3) 0.62718(6)
H10 H 0.3203 -0.3983 0.6550
C17 C 0.33233(7) -0.1802(3) 0.58396(5)
C18 C 0.26548(7) 0.0027(3) 0.56921(5)
C19 C 0.20463(8) 0.0093(3) 0.59881(5)
C20 C 0.13971(8) 0.1777(3) 0.58314(6)
C21 C 0.19985(9) -0.1544(4) 0.64776(6)
C22 C 0.24084(7) 0.6919(3) 0.32731(5)
H11 H 0.2146 0.6779 0.2891
H12 H 0.2590 0.5005 0.3387
C23 C 0.30742(8) 0.8868(3) 0.32698(6)
H13 H 0.3292 0.9267 0.3657
H14 H 0.2908 1.0684 0.3093
C24 C 0.36667(8) 0.7546(3) 0.29556(6)
H15 H 0.3877 0.5863 0.3161
H16 H 0.3430 0.6907 0.2587
C25 C 0.42934(9) 0.9572(4) 0.28779(8)
H17 H 0.4092 1.1209 0.2661
H18 H 0.4663 0.8613 0.2680
H19 H 0.4532 1.0208 0.3242
N1 N 0.18732(6) 0.7853(2) 0.36459(4)
N2 N 0.08706(9) 0.3098(4) 0.57127(7)
N3 N 0.19366(9) -0.2812(5) 0.68716(6)
O1 O 0.37417(5) 0.1378(2) 0.46012(4)
S1 S 0.11175(2) 0.81388(7) 0.44681(2)
loop_
_geom_bond_atom_site_label_1
_geom_bond_atom_site_label_2
_geom_bond_site_symmetry_1
_geom_bond_site_symmetry_2
C1 C2 1_555 1_555
C2 H1 1_555 1_555
C3 C2 1_555 1_555
H2 C3 1_555 1_555
C4 C3 1_555 1_555
H3 C4 1_555 1_555
C5 C4 1_555 1_555
H4 C5 1_555 1_555
C6 C1 1_555 1_555
C7 C8 1_555 1_555
C8 H5 1_555 1_555
C9 C8 1_555 1_555
H6 C9 1_555 1_555
C10 C9 1_555 1_555
C11 C10 1_555 1_555
C12 C11 1_555 1_555
C13 C12 1_555 1_555
H7 C13 1_555 1_555
C14 C13 1_555 1_555
H8 C14 1_555 1_555
C15 C14 1_555 1_555
H9 C15 1_555 1_555
C16 C15 1_555 1_555
H10 C16 1_555 1_555
C17 C12 1_555 1_555
C18 C10 1_555 1_555
C19 C18 1_555 1_555
C20 C19 1_555 1_555
C21 C19 1_555 1_555
C22 H11 1_555 1_555
H12 C22 1_555 1_555
C23 C22 1_555 1_555
H13 C23 1_555 1_555
H14 C23 1_555 1_555
C24 C23 1_555 1_555
H15 C24 1_555 1_555
H16 C24 1_555 1_555
C25 C24 1_555 1_555
H17 C25 1_555 1_555
H18 C25 1_555 1_555
H19 C25 1_555 1_555
N1 C6 1_555 1_555
N2 C20 1_555 1_555
N3 C21 1_555 1_555
O1 C11 1_555 1_555
S1 C1 1_555 1_555
C5 C6 1_555 1_555
C7 N1 1_555 1_555
C7 S1 1_555 1_555
C16 C17 1_555 1_555
C17 C18 1_555 1_555
C22 N1 1_555 1_555

#END
