
#######################################################################
#
#                 Cambridge Crystallographic Data Centre
#                                CCDC 
#
#######################################################################
#
# If this CIF has been generated from an entry in the Cambridge 
# Structural Database, then it will include bibliographic, chemical, 
# crystal, experimental, refinement or atomic coordinate data resulting 
# from the CCDC's data processing and validation procedures.
#
#######################################################################

data_BUXYAW
_chemical_formula_moiety         'C27 H27 N3 O1'
_chemical_name_systematic        
(2-(4-(Dibutylamino)benzylidene)-3-oxo-2,3-dihydro-1H-inden-1-ylidene)malononitrile
_symmetry_cell_setting           triclinic
_symmetry_space_group_name_H-M   'P -1'
_symmetry_Int_Tables_number      2
_space_group_name_Hall           '-P 1'
loop_
_symmetry_equiv_pos_site_id
_symmetry_equiv_pos_as_xyz
1 x,y,z
2 -x,-y,-z
_cell_length_a                   8.0089(14)
_cell_length_b                   10.4457(17)
_cell_length_c                   14.951(3)
_cell_angle_alpha                106.069(2)
_cell_angle_beta                 103.400(2)
_cell_angle_gamma                100.605(2)
_cell_volume                     1127.23
_exptl_crystal_colour            green
_exptl_crystal_description       block
_chemical_melting_point          '152-153 deg.C'
_cell_formula_units_Z            2
loop_
_atom_site_label
_atom_site_type_symbol
_atom_site_fract_x
_atom_site_fract_y
_atom_site_fract_z
C1 C 0.7798(2) -0.16554(18) -0.17045(13)
C2 C 0.7959(2) -0.30546(18) -0.17161(14)
C3 C 0.8060(3) -0.4192(2) -0.24413(16)
H1 H 0.8025 -0.4154 -0.3073
C4 C 0.8212(3) -0.5380(2) -0.22161(17)
H2 H 0.8270 -0.6161 -0.2705
C5 C 0.8281(3) -0.5453(2) -0.12991(17)
H3 H 0.8392 -0.6277 -0.1166
C6 C 0.8190(3) -0.4332(2) -0.05751(16)
H4 H 0.8235 -0.4370 0.0057
C7 C 0.8030(3) -0.3151(2) -0.08020(14)
C8 C 0.7906(3) -0.1838(2) -0.01467(14)
C9 C 0.7658(2) -0.09202(19) -0.07473(13)
C10 C 0.7249(3) 0.03368(19) -0.05137(14)
H5 H 0.6946 0.0634 -0.1061
C11 C 0.7177(2) 0.12900(19) 0.03570(14)
C12 C 0.6654(3) 0.2496(2) 0.02916(15)
H6 H 0.6295 0.2593 -0.0332
C13 C 0.6645(3) 0.3526(2) 0.10899(15)
H7 H 0.6284 0.4313 0.1007
C14 C 0.7168(3) 0.3431(2) 0.20375(14)
C15 C 0.7644(3) 0.2211(2) 0.21052(14)
H8 H 0.7972 0.2100 0.2726
C16 C 0.7644(3) 0.1189(2) 0.13026(14)
H9 H 0.7967 0.0388 0.1382
C17 C 0.8111(3) -0.1971(2) -0.33567(15)
C18 C 0.7881(3) -0.11682(19) -0.24664(14)
C19 C 0.7803(4) 0.0192(2) -0.24663(15)
C20 C 0.6567(3) 0.5655(2) 0.28156(17)
H10 H 0.6012 0.5897 0.3344
H11 H 0.5630 0.5404 0.2187
C21 C 0.7979(4) 0.6904(3) 0.2922(2)
H12 H 0.8428 0.6743 0.2348
H13 H 0.8990 0.7133 0.3516
C22 C 0.7899(3) 0.4350(2) 0.38193(15)
H14 H 0.8303 0.5290 0.4309
H15 H 0.8944 0.3967 0.3842
C23 C 0.6527(4) 0.3454(3) 0.40949(17)
H16 H 0.5872 0.2614 0.3525
H17 H 0.5658 0.3967 0.4265
C24 C 0.7367(4) 0.3026(3) 0.4956(2)
H18 H 0.8338 0.2617 0.4816
H19 H 0.7903 0.3862 0.5543
C25 C 0.6099(6) 0.2023(4) 0.5173(3)
H20 H 0.6725 0.1796 0.5730
H21 H 0.5583 0.1180 0.4602
H22 H 0.5148 0.2427 0.5330
C26 C 0.7022(13) 0.8090(7) 0.2998(6)
H23 H 0.6227 0.7941 0.2343
H24 H 0.6266 0.8023 0.3430
C27 C 0.8124(12) 0.9386(7) 0.3342(7)
H25 H 0.7414 1.0059 0.3370
H26 H 0.8850 0.9480 0.2907
H27 H 0.8902 0.9557 0.3998
N1 N 0.8296(3) -0.2564(2) -0.40816(15)
N2 N 0.7755(4) 0.1249(2) -0.25245(17)
N3 N 0.7234(2) 0.44517(18) 0.28492(12)
O1 O 0.7995(3) -0.16290(17) 0.07045(11)
C28? C 0.7900(18) 0.8384(13) 0.3106(19)
H28? H 0.8106 0.8838 0.3812
H29? H 0.8868 0.8880 0.2918
C29? C 0.6280(19) 0.8495(14) 0.2590(11)
H30? H 0.6272 0.9469 0.2765
H31? H 0.5312 0.7977 0.2754
H32? H 0.6113 0.8117 0.1889
loop_
_geom_bond_atom_site_label_1
_geom_bond_atom_site_label_2
_geom_bond_site_symmetry_1
_geom_bond_site_symmetry_2
C1 C2 1_555 1_555
C2 C3 1_555 1_555
C3 H1 1_555 1_555
C4 C3 1_555 1_555
H2 C4 1_555 1_555
C5 C4 1_555 1_555
H3 C5 1_555 1_555
C6 C5 1_555 1_555
H4 C6 1_555 1_555
C7 C2 1_555 1_555
C8 C7 1_555 1_555
C9 C1 1_555 1_555
C10 C9 1_555 1_555
H5 C10 1_555 1_555
C11 C10 1_555 1_555
C12 C11 1_555 1_555
H6 C12 1_555 1_555
C13 C12 1_555 1_555
H7 C13 1_555 1_555
C14 C13 1_555 1_555
C15 C14 1_555 1_555
H8 C15 1_555 1_555
C16 C11 1_555 1_555
H9 C16 1_555 1_555
C17 C18 1_555 1_555
C18 C1 1_555 1_555
C19 C18 1_555 1_555
C20 H10 1_555 1_555
H11 C20 1_555 1_555
C21 C20 1_555 1_555
H12 C21 1_555 1_555
H13 C21 1_555 1_555
C22 H14 1_555 1_555
H15 C22 1_555 1_555
C23 C22 1_555 1_555
H16 C23 1_555 1_555
H17 C23 1_555 1_555
C24 C23 1_555 1_555
H18 C24 1_555 1_555
H19 C24 1_555 1_555
C25 C24 1_555 1_555
H20 C25 1_555 1_555
H21 C25 1_555 1_555
H22 C25 1_555 1_555
C26 C21 1_555 1_555
H23 C26 1_555 1_555
H24 C26 1_555 1_555
C27 C26 1_555 1_555
H25 C27 1_555 1_555
H26 C27 1_555 1_555
H27 C27 1_555 1_555
N1 C17 1_555 1_555
N2 C19 1_555 1_555
N3 C14 1_555 1_555
O1 C8 1_555 1_555
C6 C7 1_555 1_555
C8 C9 1_555 1_555
C15 C16 1_555 1_555
C20 N3 1_555 1_555
C22 N3 1_555 1_555

#END
