
#######################################################################
#
#                 Cambridge Crystallographic Data Centre
#                                CCDC 
#
#######################################################################
#
# If this CIF has been generated from an entry in the Cambridge 
# Structural Database, then it will include bibliographic, chemical, 
# crystal, experimental, refinement or atomic coordinate data resulting 
# from the CCDC's data processing and validation procedures.
#
#######################################################################

data_BUXYEA
_chemical_formula_moiety         'C21 H17 N3 O1 S1'
_chemical_name_systematic        
(2-((5-(Diethylamino)-2-thienyl)methylene)-3-oxo-2,3-dihydro-1H-inden-1-ylidene)malononitrile
_symmetry_cell_setting           monoclinic
_symmetry_space_group_name_H-M   'P 21/n'
_symmetry_Int_Tables_number      14
_space_group_name_Hall           '-P 2yn'
loop_
_symmetry_equiv_pos_site_id
_symmetry_equiv_pos_as_xyz
1 x,y,z
2 1/2-x,1/2+y,1/2-z
3 -x,-y,-z
4 1/2+x,1/2-y,1/2+z
_cell_length_a                   4.9606(2)
_cell_length_b                   13.7482(5)
_cell_length_c                   26.0232(10)
_cell_angle_alpha                90
_cell_angle_beta                 93.2860(16)
_cell_angle_gamma                90
_cell_volume                     1771.85
_exptl_crystal_colour            'dark green'
_exptl_crystal_description       block
_chemical_melting_point          '250 deg.C'
_cell_formula_units_Z            4
loop_
_atom_site_label
_atom_site_type_symbol
_atom_site_fract_x
_atom_site_fract_y
_atom_site_fract_z
C1 C -0.1133(3) 0.80285(11) 0.39953(6)
C2 C -0.2981(3) 0.82987(11) 0.35985(6)
H1 H -0.3043 0.7969 0.3277
C3 C -0.4746(3) 0.90674(12) 0.36846(6)
H2 H -0.6033 0.9252 0.3418
C4 C -0.4667(3) 0.95690(12) 0.41499(6)
H3 H -0.5874 1.0094 0.4196
C5 C -0.2816(3) 0.92993(11) 0.45480(6)
H4 H -0.2740 0.9634 0.4868
C6 C -0.1099(3) 0.85347(11) 0.44648(6)
C7 C 0.1031(3) 0.81092(11) 0.48217(6)
C8 C 0.2264(3) 0.73090(11) 0.45466(6)
C9 C 0.1010(3) 0.72666(11) 0.40344(6)
C10 C 0.1674(3) 0.66824(11) 0.36256(6)
C11 C 0.3865(3) 0.60034(11) 0.36485(5)
C12 C 0.0328(3) 0.67279(11) 0.31258(6)
C13 C 0.4294(3) 0.66928(11) 0.47551(6)
H5 H 0.4720 0.6176 0.4532
C14 C 0.5810(3) 0.66804(11) 0.52198(6)
C15 C 0.7777(3) 0.59487(11) 0.53291(6)
H6 H 0.8041 0.5426 0.5099
C16 C 0.9269(3) 0.60379(11) 0.57838(6)
H7 H 1.0637 0.5595 0.5902
C17 C 0.8511(3) 0.68806(11) 0.60583(6)
C18 C 0.8714(3) 0.81048(12) 0.67410(6)
H8 H 0.8879 0.8049 0.7121
H9 H 0.6792 0.8226 0.6637
C19 C 1.0406(3) 0.89575(12) 0.65737(7)
H10 H 1.2289 0.8862 0.6698
H11 H 0.9719 0.9561 0.6718
H12 H 1.0301 0.8999 0.6197
C20 C 1.1634(3) 0.66209(12) 0.68084(6)
H13 H 1.2877 0.7070 0.7002
H14 H 1.2703 0.6239 0.6570
C21 C 1.0357(4) 0.59376(14) 0.71816(7)
H15 H 0.9287 0.6314 0.7416
H16 H 1.1776 0.5582 0.7380
H17 H 0.9182 0.5475 0.6989
N1 N 0.5619(3) 0.54540(11) 0.36501(5)
N2 N -0.0673(3) 0.67418(11) 0.27136(5)
N3 N 0.9571(3) 0.71863(10) 0.65111(5)
O1 O 0.1597(2) 0.83883(8) 0.52625(4)
S1 S 0.58733(7) 0.75109(3) 0.57367(2)
loop_
_geom_bond_atom_site_label_1
_geom_bond_atom_site_label_2
_geom_bond_site_symmetry_1
_geom_bond_site_symmetry_2
C1 C2 1_555 1_555
C2 H1 1_555 1_555
C3 C2 1_555 1_555
H2 C3 1_555 1_555
C4 C3 1_555 1_555
H3 C4 1_555 1_555
C5 C4 1_555 1_555
H4 C5 1_555 1_555
C6 C1 1_555 1_555
C7 C6 1_555 1_555
C8 C7 1_555 1_555
C9 C1 1_555 1_555
C10 C9 1_555 1_555
C11 C10 1_555 1_555
C12 C10 1_555 1_555
C13 C8 1_555 1_555
H5 C13 1_555 1_555
C14 C13 1_555 1_555
C15 C14 1_555 1_555
H6 C15 1_555 1_555
C16 C15 1_555 1_555
H7 C16 1_555 1_555
C17 C16 1_555 1_555
C18 H8 1_555 1_555
H9 C18 1_555 1_555
C19 C18 1_555 1_555
H10 C19 1_555 1_555
H11 C19 1_555 1_555
H12 C19 1_555 1_555
C20 H13 1_555 1_555
H14 C20 1_555 1_555
C21 C20 1_555 1_555
H15 C21 1_555 1_555
H16 C21 1_555 1_555
H17 C21 1_555 1_555
N1 C11 1_555 1_555
N2 C12 1_555 1_555
N3 C17 1_555 1_555
O1 C7 1_555 1_555
S1 C14 1_555 1_555
C5 C6 1_555 1_555
C8 C9 1_555 1_555
C17 S1 1_555 1_555
C18 N3 1_555 1_555
C20 N3 1_555 1_555

#END
