
#######################################################################
#
#                 Cambridge Crystallographic Data Centre
#                                CCDC 
#
#######################################################################
#
# If this CIF has been generated from an entry in the Cambridge 
# Structural Database, then it will include bibliographic, chemical, 
# crystal, experimental, refinement or atomic coordinate data resulting 
# from the CCDC's data processing and validation procedures.
#
#######################################################################

data_BUYJIP
_chemical_name_common            
"N,N'-bis(heptafluorobutyl)-2,3,6,7-tetrachloro-1,4,5,8-napthaleneteracarboxylic acid diimide"
_chemical_formula_moiety         'C22 H4 Cl4 F14 N2 O4'
_chemical_name_systematic        
4,5,9,10-Tetrachloro-2,7-bis(2,2,3,3,4,4,4-heptafluorobutyl)benzo[lmn][3,8]phenanthroline-1,3,6,8(2H,7H)-tetrone
_symmetry_cell_setting           triclinic
_symmetry_space_group_name_H-M   'P -1'
_symmetry_Int_Tables_number      2
_space_group_name_Hall           '-P 1'
loop_
_symmetry_equiv_pos_site_id
_symmetry_equiv_pos_as_xyz
1 x,y,z
2 -x,-y,-z
_cell_length_a                   5.1039(19)
_cell_length_b                   10.358(4)
_cell_length_c                   12.395(5)
_cell_angle_alpha                111.077(19)
_cell_angle_beta                 90.07(2)
_cell_angle_gamma                96.67(2)
_cell_volume                     606.645
_exptl_crystal_colour            yellow
_exptl_crystal_description       'thin plate'
_cell_formula_units_Z            1
loop_
_atom_site_label
_atom_site_type_symbol
_atom_site_fract_x
_atom_site_fract_y
_atom_site_fract_z
Cl1 Cl 1.0000(6) 0.7870(3) -0.1027(3)
Cl2 Cl 1.0909(6) 0.4953(3) -0.2392(3)
F1 F 0.5061(15) 1.4130(7) 0.5610(7)
F2 F 0.3557(15) 1.2297(7) 0.5873(7)
F3 F 0.7575(15) 1.2530(7) 0.5389(6)
F4 F 0.1752(15) 1.2344(7) 0.3815(7)
F5 F 0.5791(14) 1.2705(7) 0.3342(7)
F6 F 0.3075(13) 0.9888(6) 0.4061(6)
F7 F 0.6871(14) 1.0273(7) 0.3373(6)
H1 H 0.38(2) 1.035(11) 0.176(10)
H2 H 0.10(2) 0.988(10) 0.199(10)
N1 N 0.3769(18) 0.8452(9) 0.1561(8)
O1 O -0.0040(17) 0.7635(7) 0.2166(7)
O2 O 0.7162(16) 0.9308(8) 0.0762(8)
C1 C 0.516(3) 1.2753(12) 0.5183(12)
C2 C 0.427(3) 1.2118(12) 0.3961(12)
C3 C 0.437(3) 1.0505(13) 0.3352(11)
C4 C 0.309(3) 0.9907(13) 0.2156(12)
C5 C 0.196(3) 0.7418(12) 0.1707(11)
C6 C 0.585(3) 0.8316(13) 0.0813(11)
C7 C 0.622(2) 0.6827(13) 0.0109(12)
C8 C 0.470(2) 0.5653(11) 0.0275(10)
C9 C 0.812(2) 0.6586(11) -0.0716(11)
C10 C 0.858(2) 0.5187(12) -0.1329(10)
C11 C 0.727(2) 0.4058(12) -0.1146(11)
Cl1A Cl 0.0000(6) 0.2130(3) 0.1027(3)
Cl2A Cl -0.0909(6) 0.5047(3) 0.2392(3)
F1A F 0.4939(15) -0.4130(7) -0.5610(7)
F2A F 0.6443(15) -0.2297(7) -0.5873(7)
F3A F 0.2425(15) -0.2530(7) -0.5389(6)
F4A F 0.8248(15) -0.2344(7) -0.3815(7)
F5A F 0.4209(14) -0.2705(7) -0.3342(7)
F6A F 0.6925(13) 0.0112(6) -0.4061(6)
F7A F 0.3129(14) -0.0273(7) -0.3373(6)
H1A H 0.62(2) -0.035(11) -0.176(10)
H2A H 0.90(2) 0.012(10) -0.199(10)
N1A N 0.6231(18) 0.1548(9) -0.1561(8)
O1A O 1.0040(17) 0.2365(7) -0.2166(7)
O2A O 0.2838(16) 0.0692(8) -0.0762(8)
C1A C 0.484(3) -0.2753(12) -0.5183(12)
C2A C 0.573(3) -0.2118(12) -0.3961(12)
C3A C 0.563(3) -0.0505(13) -0.3352(11)
C4A C 0.691(3) 0.0093(13) -0.2156(12)
C5A C 0.804(3) 0.2582(12) -0.1707(11)
C6A C 0.415(3) 0.1684(13) -0.0813(11)
C7A C 0.378(2) 0.3173(13) -0.0109(12)
C8A C 0.530(2) 0.4347(11) -0.0275(10)
C9A C 0.188(2) 0.3414(11) 0.0716(11)
C10A C 0.142(2) 0.4813(12) 0.1329(10)
C11A C 0.273(2) 0.5942(12) 0.1146(11)
loop_
_geom_bond_atom_site_label_1
_geom_bond_atom_site_label_2
_geom_bond_site_symmetry_1
_geom_bond_site_symmetry_2
Cl1 C9 1_555 1_555
Cl2 C10 1_555 1_555
F1 C1 1_555 1_555
F2 C1 1_555 1_555
F3 C1 1_555 1_555
F4 C2 1_555 1_555
F5 C2 1_555 1_555
F6 C3 1_555 1_555
F7 C3 1_555 1_555
H1 C4 1_555 1_555
H2 C4 1_555 1_555
N1 C4 1_555 1_555
O1 C5 1_555 1_555
O2 C6 1_555 1_555
C1 C2 1_555 1_555
C2 C3 1_555 1_555
C3 C4 1_555 1_555
C5 N1 1_555 1_555
C6 N1 1_555 1_555
C7 C6 1_555 1_555
C8 C7 1_555 1_555
C9 C7 1_555 1_555
C10 C9 1_555 1_555
C11 C10 1_555 1_555
Cl1A C9A 1_555 1_555
Cl2A C10A 1_555 1_555
F1A C1A 1_555 1_555
F2A C1A 1_555 1_555
F3A C1A 1_555 1_555
F4A C2A 1_555 1_555
F5A C2A 1_555 1_555
F6A C3A 1_555 1_555
F7A C3A 1_555 1_555
H1A C4A 1_555 1_555
H2A C4A 1_555 1_555
N1A C4A 1_555 1_555
O1A C5A 1_555 1_555
O2A C6A 1_555 1_555
C1A C2A 1_555 1_555
C2A C3A 1_555 1_555
C3A C4A 1_555 1_555
C5A C11 1_555 1_555
C6A N1A 1_555 1_555
C7A C6A 1_555 1_555
C8A C8 1_555 1_555
C9A C7A 1_555 1_555
C10A C9A 1_555 1_555
C11A C5 1_555 1_555
C8 C11A 1_555 1_555
C11 C8A 1_555 1_555
N1A C5A 1_555 1_555
C7A C8A 1_555 1_555
C10A C11A 1_555 1_555

#END
