
#######################################################################
#
#                 Cambridge Crystallographic Data Centre
#                                CCDC 
#
#######################################################################
#
# If this CIF has been generated from an entry in the Cambridge 
# Structural Database, then it will include bibliographic, chemical, 
# crystal, experimental, refinement or atomic coordinate data resulting 
# from the CCDC's data processing and validation procedures.
#
#######################################################################

data_BUYJIQ
_chemical_formula_moiety         'C23 H29 Br2 N1 O3'
_chemical_name_systematic        
'2-(t-Butylamino)-1-(3,5-dibromophenyl)-2-oxoethyl adamantane-1-carboxylate'
_symmetry_cell_setting           orthorhombic
_symmetry_space_group_name_H-M   'P 21 21 21'
_symmetry_Int_Tables_number      19
_space_group_name_Hall           'P 2ac 2ab'
loop_
_symmetry_equiv_pos_site_id
_symmetry_equiv_pos_as_xyz
1 x,y,z
2 1/2-x,-y,1/2+z
3 1/2+x,1/2-y,-z
4 -x,1/2+y,1/2-z
_cell_length_a                   11.2823(2)
_cell_length_b                   22.5577(4)
_cell_length_c                   28.630(2)
_cell_angle_alpha                90
_cell_angle_beta                 90
_cell_angle_gamma                90
_cell_volume                     7286.41
_exptl_crystal_colour            colorless
_exptl_crystal_description       platelet
_cell_formula_units_Z            12
loop_
_atom_site_label
_atom_site_type_symbol
_atom_site_fract_x
_atom_site_fract_y
_atom_site_fract_z
Br1 Br -0.15765(13) -0.18306(7) 0.61332(6)
Br2 Br 0.20318(17) -0.23251(7) 0.48320(6)
N1 N 0.3974(7) -0.0453(4) 0.5763(3)
H1 H 0.3906 -0.0393 0.5467
O1 O 0.179(2) 0.0863(5) 0.5805(10)
O2 O 0.1008(7) 0.0071(3) 0.6021(2)
O3 O 0.3018(8) -0.0309(4) 0.6454(2)
C1 C 0.1292(9) -0.0871(4) 0.5667(3)
C2 C 0.3012(10) -0.0339(4) 0.6022(3)
C3 C 0.5127(10) -0.0668(5) 0.5924(3)
C4 C 0.1868(9) -0.0263(4) 0.5750(3)
H2 H 0.2022 -0.0065 0.5452
C5 C 0.0292(10) -0.1966(5) 0.5494(4)
H3 H -0.0058 -0.2331 0.5435
C6 C 0.1012(13) 0.0633(5) 0.6003(5)
C7 C 0.1307(11) -0.1800(5) 0.5259(4)
C8 C 0.1808(10) -0.1238(4) 0.5336(3)
H4 H 0.2469 -0.1115 0.5168
C9 C -0.0197(11) -0.1590(5) 0.5814(4)
C10 C 0.5902(14) -0.0792(9) 0.5503(5)
H5 H 0.6661 -0.0933 0.5605
H6 H 0.5531 -0.1087 0.5311
H7 H 0.6004 -0.0434 0.5326
C11 C -0.1179(18) 0.1075(10) 0.7166(6)
H8 H -0.0808 0.0733 0.7310
H9 H -0.1730 0.1243 0.7391
C12 C -0.0376(16) 0.1472(7) 0.6045(5)
H10 H -0.0724 0.1339 0.5753
H11 H 0.0257 0.1748 0.5972
C13 C 0.0664(14) 0.1135(10) 0.6753(5)
H12 H 0.1373 0.1365 0.6690
H13 H 0.0896 0.0789 0.6932
C14 C 0.5726(16) -0.0217(10) 0.6241(7)
H14 H 0.6479 -0.0369 0.6341
H15 H 0.5843 0.0147 0.6073
H16 H 0.5234 -0.0144 0.6508
C15 C -0.0909(13) 0.0537(6) 0.6437(6)
H17 H -0.0614 0.0193 0.6603
H18 H -0.1302 0.0401 0.6155
C16 C 0.5010(15) -0.1248(8) 0.6191(7)
H19 H 0.5780 -0.1377 0.6292
H20 H 0.4510 -0.1189 0.6458
H21 H 0.4667 -0.1543 0.5991
C17 C -0.1831(13) 0.0884(7) 0.6757(5)
H22 H -0.2495 0.0627 0.6845
C18 C -0.0241(15) 0.1528(11) 0.7056(5)
H23 H 0.0128 0.1691 0.7338
C19 C -0.0697(16) 0.2018(7) 0.6720(10)
H24 H -0.0561 0.2421 0.6766
C20 C -0.1332(17) 0.1789(7) 0.6343(7)
H25 H -0.1674 0.2116 0.6162
C21 C -0.2240(15) 0.1380(9) 0.6463(7)
H26 H -0.2581 0.1221 0.6179
H27 H -0.2863 0.1591 0.6628
C22 C 0.0304(9) -0.1042(5) 0.5902(3)
H28 H -0.0036 -0.0791 0.6122
C23 C 0.0127(9) 0.0944(4) 0.6307(3)
Br3 Br 0.68097(14) 0.94474(11) 0.99546(8)
Br4 Br 0.56315(19) 1.16397(9) 0.91495(10)
N2 N 0.1078(7) 1.0553(3) 0.8924(2)
H29 H 0.1398 1.0449 0.8663
O4 O 0.2264(5) 0.9364(3) 0.95371(19)
O5 O 0.1243(6) 1.0455(3) 0.97137(19)
O6 O 0.0853(8) 0.9095(4) 0.9026(3)
C24 C 0.3744(8) 1.0091(4) 0.9354(3)
C25 C 0.1334(8) 0.9027(4) 0.9399(3)
C26 C 0.2509(8) 0.9858(4) 0.9232(3)
H30 H 0.2498 0.9724 0.8906
C27 C 0.1982(8) 0.8288(5) 1.0005(4)
H31 H 0.2502 0.8578 1.0148
H32 H 0.2434 0.8071 0.9773
C28 C 0.0098(11) 0.8130(5) 0.9567(4)
H33 H -0.0573 0.8325 0.9421
H34 H 0.0513 0.7907 0.9328
C29 C 0.0078(10) 1.0969(5) 0.8895(3)
C30 C 0.6012(12) 1.0513(7) 0.9560(5)
H35 H 0.6766 1.0653 0.9631
C31 C 0.1522(12) 0.7857(6) 1.0379(4)
H36 H 0.2194 0.7644 1.0517
C32 C -0.0122(15) 1.1082(7) 0.8375(4)
H37 H -0.0770 1.1354 0.8336
H38 H 0.0583 1.1250 0.8241
H39 H -0.0304 1.0715 0.8222
C33 C 0.0684(12) 0.7420(6) 1.0175(5)
H40 H 0.0384 0.7165 1.0421
H41 H 0.1104 0.7173 0.9952
C34 C 0.0280(12) 0.8950(5) 1.0137(5)
H42 H -0.0399 0.9145 0.9997
H43 H 0.0796 0.9253 1.0267
C35 C -0.0337(11) 0.7714(5) 0.9935(4)
H44 H -0.0860 0.7416 0.9796
C36 C -0.1045(11) 1.0653(9) 0.9087(5)
H45 H -0.1709 1.0919 0.9071
H46 H -0.1206 1.0307 0.8902
H47 H -0.0913 1.0538 0.9405
C37 C 0.4061(10) 1.0661(5) 0.9222(4)
H48 H 0.3525 1.0897 0.9059
C38 C 0.5687(10) 0.9950(7) 0.9675(4)
C39 C 0.0918(17) 0.8178(7) 1.0740(4)
H49 H 0.1463 0.8455 1.0885
H50 H 0.0646 0.7904 1.0978
C40 C -0.1011(11) 0.8077(6) 1.0297(6)
H51 H -0.1357 0.7814 1.0528
H52 H -0.1647 0.8293 1.0146
C41 C 0.5184(11) 1.0880(6) 0.9331(5)
C42 C 0.0347(18) 1.1523(6) 0.9155(7)
H53 H -0.0314 1.1789 0.9133
H54 H 0.0494 1.1431 0.9477
H55 H 0.1037 1.1707 0.9023
C43 C -0.0147(16) 0.8519(6) 1.0539(6)
H56 H -0.0556 0.8740 1.0785
C44 C 0.0936(7) 0.8601(4) 0.9772(3)
C45 C 0.4544(9) 0.9735(5) 0.9578(4)
H57 H 0.4334 0.9352 0.9665
C46 C 0.1535(8) 1.0322(4) 0.9307(3)
Br5? Br 0.36671(15) 0.81306(8) 0.87338(6)
Br6? Br 0.3440(4) 0.74457(8) 0.68530(9)
N3? N 0.3059(7) 1.0345(3) 0.7364(3)
H58? H 0.3047 1.0233 0.7077
O7? O 0.2261(7) 1.0190(3) 0.8074(2)
O8? O -0.0177(10) 0.9113(6) 0.7015(3)
O9? O 0.0570(6) 0.9491(3) 0.7673(2)
C47? C 0.1718(8) 0.9527(4) 0.7449(3)
H59? H 0.1619 0.9580 0.7112
C48? C 0.2349(8) 1.0055(4) 0.7654(3)
C49? C 0.2380(8) 0.8953(4) 0.7547(3)
C50? C 0.3863(10) 1.0836(5) 0.7477(4)
C51? C 0.3202(13) 1.1346(5) 0.7705(5)
H60? H 0.2565 1.1471 0.7505
H61? H 0.2886 1.1219 0.8000
H62? H 0.3736 1.1672 0.7754
C52? C 0.3240(10) 0.8293(5) 0.8114(5)
C53? C -0.0291(10) 0.9206(5) 0.7430(4)
C54? C 0.3163(15) 0.8012(5) 0.7319(5)
C55? C 0.3473(13) 0.7889(5) 0.7775(5)
H63? H 0.3838 0.7531 0.7849
C56? C 0.4823(15) 1.0645(8) 0.7775(7)
H64? H 0.5331 1.0975 0.7841
H65? H 0.4507 1.0491 0.8061
H66? H 0.5270 1.0341 0.7619
C57? C 0.2578(12) 0.8551(5) 0.7196(4)
H67? H 0.2340 0.8627 0.6891
C58? C -0.2524(16) 0.8960(16) 0.8531(9)
H68? H -0.2573 0.9054 0.8864
C59? C -0.349(4) 0.9198(11) 0.8177(11)
H69? H -0.4262 0.9215 0.8326
H70? H -0.3285 0.9593 0.8070
C60? C 0.4350(18) 1.1079(8) 0.7016(5)
H71? H 0.3704 1.1205 0.6821
H72? H 0.4860 1.1411 0.7079
H73? H 0.4792 1.0775 0.6859
C61? C -0.2090(15) 0.8313(11) 0.8357(12)
H74? H -0.1889 0.8022 0.8598
C62? C -0.1631(16) 0.9457(9) 0.8110(8)
H75? H -0.2102 0.9788 0.7999
H76? H -0.0916 0.9606 0.8257
C63? C -0.1046(16) 0.8472(8) 0.7963(10)
H77? H -0.0285 0.8513 0.8118
H78? H -0.0986 0.8152 0.7738
C64? C -0.301(3) 0.8130(9) 0.7992(12)
H79? H -0.3651 0.7911 0.8138
H80? H -0.2651 0.7883 0.7754
C65? C -0.2393(16) 0.8936(16) 0.7419(6)
H81? H -0.2239 0.8620 0.7198
H82? H -0.2572 0.9295 0.7246
C66? C -0.3518(16) 0.8758(17) 0.7759(9)
H83? H -0.4284 0.8725 0.7600
C67? C -0.1346(9) 0.9031(4) 0.7720(3)
C68? C 0.2682(9) 0.8829(4) 0.8009(4)
H84? H 0.2512 0.9100 0.8245
loop_
_geom_bond_atom_site_label_1
_geom_bond_atom_site_label_2
_geom_bond_site_symmetry_1
_geom_bond_site_symmetry_2
Br1 C9 1_555 1_555
Br2 C7 1_555 1_555
N1 H1 1_555 1_555
O1 C6 1_555 1_555
O2 C4 1_555 1_555
O3 C2 1_555 1_555
C1 C4 1_555 1_555
C2 N1 1_555 1_555
C3 N1 1_555 1_555
C4 C2 1_555 1_555
H2 C4 1_555 1_555
C5 H3 1_555 1_555
C6 O2 1_555 1_555
C7 C5 1_555 1_555
C8 C1 1_555 1_555
H4 C8 1_555 1_555
C9 C5 1_555 1_555
C10 C3 1_555 1_555
H5 C10 1_555 1_555
H6 C10 1_555 1_555
H7 C10 1_555 1_555
C11 H8 1_555 1_555
H9 C11 1_555 1_555
C12 H10 1_555 1_555
H11 C12 1_555 1_555
C13 H12 1_555 1_555
H13 C13 1_555 1_555
C14 C3 1_555 1_555
H14 C14 1_555 1_555
H15 C14 1_555 1_555
H16 C14 1_555 1_555
C15 H17 1_555 1_555
H18 C15 1_555 1_555
C16 C3 1_555 1_555
H19 C16 1_555 1_555
H20 C16 1_555 1_555
H21 C16 1_555 1_555
C17 C11 1_555 1_555
H22 C17 1_555 1_555
C18 C11 1_555 1_555
H23 C18 1_555 1_555
C19 C18 1_555 1_555
H24 C19 1_555 1_555
C20 C12 1_555 1_555
H25 C20 1_555 1_555
C21 C17 1_555 1_555
H26 C21 1_555 1_555
H27 C21 1_555 1_555
C22 C1 1_555 1_555
H28 C22 1_555 1_555
C23 C6 1_555 1_555
Br3 C38 1_555 1_555
Br4 C41 1_555 1_555
N2 H29 1_555 1_555
O4 C25 1_555 1_555
O5 C46 1_555 1_555
O6 C25 1_555 1_555
C24 C26 1_555 1_555
C25 C44 1_555 1_555
C26 O4 1_555 1_555
H30 C26 1_555 1_555
C27 H31 1_555 1_555
H32 C27 1_555 1_555
C28 H33 1_555 1_555
H34 C28 1_555 1_555
C29 N2 1_555 1_555
C30 H35 1_555 1_555
C31 C27 1_555 1_555
H36 C31 1_555 1_555
C32 C29 1_555 1_555
H37 C32 1_555 1_555
H38 C32 1_555 1_555
H39 C32 1_555 1_555
C33 C31 1_555 1_555
H40 C33 1_555 1_555
H41 C33 1_555 1_555
C34 H42 1_555 1_555
H43 C34 1_555 1_555
C35 C28 1_555 1_555
H44 C35 1_555 1_555
C36 C29 1_555 1_555
H45 C36 1_555 1_555
H46 C36 1_555 1_555
H47 C36 1_555 1_555
C37 C24 1_555 1_555
H48 C37 1_555 1_555
C38 C30 1_555 1_555
C39 C31 1_555 1_555
H49 C39 1_555 1_555
H50 C39 1_555 1_555
C40 C35 1_555 1_555
H51 C40 1_555 1_555
H52 C40 1_555 1_555
C41 C30 1_555 1_555
C42 C29 1_555 1_555
H53 C42 1_555 1_555
H54 C42 1_555 1_555
H55 C42 1_555 1_555
C43 C34 1_555 1_555
H56 C43 1_555 1_555
C44 C27 1_555 1_555
C45 C24 1_555 1_555
H57 C45 1_555 1_555
C46 N2 1_555 1_555
C7 C8 1_555 1_555
C9 C22 1_555 1_555
C12 C23 1_555 1_555
C13 C18 1_555 1_555
C13 C23 1_555 1_555
C15 C17 1_555 1_555
C15 C23 1_555 1_555
C19 C20 1_555 1_555
C20 C21 1_555 1_555
C26 C46 1_555 1_555
C28 C44 1_555 1_555
C33 C35 1_555 1_555
C34 C44 1_555 1_555
C37 C41 1_555 1_555
C38 C45 1_555 1_555
C39 C43 1_555 1_555
C40 C43 1_555 1_555

#END
