
#######################################################################
#
#                 Cambridge Crystallographic Data Centre
#                                CCDC 
#
#######################################################################
#
# If this CIF has been generated from an entry in the Cambridge 
# Structural Database, then it will include bibliographic, chemical, 
# crystal, experimental, refinement or atomic coordinate data resulting 
# from the CCDC's data processing and validation procedures.
#
#######################################################################

data_BUYXEA
_chemical_formula_moiety         'C64 H24 F20 N8,4(C1 H2 Cl2)'
_chemical_name_systematic        
'2,12,17,27-tetrakis(pentafluorophenyl)-7,22-bis(pyridin-2-yl)-31,32,33,34,35,36-hexaazaheptacyclo[26.2.1.1^3,6^.1^8,11^.1^13,16^.1^18,21^.1^23,26^]hexatriaconta-1(31),2,4,6,8,10,12,14,16(34),17,19,21,23,25,27,29-hexadecaene dichloromethane solvate'
_symmetry_cell_setting           triclinic
_symmetry_space_group_name_H-M   'P -1'
_symmetry_Int_Tables_number      2
_space_group_name_Hall           '-P 1'
loop_
_symmetry_equiv_pos_site_id
_symmetry_equiv_pos_as_xyz
1 x,y,z
2 -x,-y,-z
_cell_length_a                   7.5903(18)
_cell_length_b                   14.3500(16)
_cell_length_c                   16.671(5)
_cell_angle_alpha                66.46(2)
_cell_angle_beta                 86.21(3)
_cell_angle_gamma                80.53(2)
_cell_volume                     1642.02
_exptl_crystal_colour            brown
_exptl_crystal_description       prism
_cell_formula_units_Z            1
loop_
_atom_site_label
_atom_site_type_symbol
_atom_site_fract_x
_atom_site_fract_y
_atom_site_fract_z
Cl1 Cl 0.23416(18) 0.42799(11) 0.03708(11)
Cl2 Cl 0.55851(16) 0.34846(9) 0.14412(9)
C1 C 0.4167(9) 0.3295(4) 0.0729(4)
H1 H 0.4865 0.3262 0.0215
H2 H 0.3726 0.2629 0.1038
Cl3 Cl -0.00820(13) 0.61651(7) 0.33031(7)
Cl4 Cl -0.08617(14) 0.65347(9) 0.49020(7)
C2 C 0.0503(8) 0.6714(6) 0.3995(5)
H3 H 0.1747 0.6417 0.4196
H4 H 0.0473 0.7461 0.3655
F1 F 0.3942(3) 0.15118(14) 0.29093(13)
F2 F 0.3919(3) 0.19448(15) 0.43334(14)
F3 F 0.2707(3) 0.06482(15) 0.58947(13)
F4 F 0.1483(3) -0.10615(14) 0.59942(12)
F5 F 0.1300(2) -0.14530(13) 0.45592(12)
F6 F 0.7111(3) -0.36440(15) 0.12419(14)
F7 F 0.9480(3) -0.54052(17) 0.17294(17)
F8 F 0.9242(3) -0.69207(14) 0.33297(16)
F9 F 0.6536(3) -0.67014(15) 0.44299(15)
F10 F 0.4127(3) -0.49836(15) 0.39386(14)
N1 N -0.1828(3) 0.22489(18) -0.12300(17)
H5 H -0.1785 0.1694 -0.1339
N2 N 0.1861(3) 0.04677(18) 0.13354(17)
H6 H 0.2547 -0.0013 0.1210
N3 N 0.3244(3) -0.16173(18) 0.23621(17)
N4 N 0.2599(3) -0.00683(18) -0.00365(17)
C3 C -0.3026(4) 0.3143(2) -0.1607(2)
C4 C -0.2652(4) 0.3829(2) -0.1265(2)
H7 H -0.3267 0.4506 -0.1399
C5 C -0.1205(5) 0.3345(2) -0.0686(2)
H8 H -0.0654 0.3639 -0.0367
C6 C -0.0721(4) 0.2351(2) -0.0665(2)
C7 C 0.0604(4) 0.1480(2) -0.0134(2)
C8 C 0.0768(4) 0.1287(2) 0.0733(2)
C9 C -0.0122(4) 0.1870(2) 0.1230(2)
H9 H -0.0998 0.2465 0.1007
C10 C 0.0504(4) 0.1423(2) 0.2059(2)
H10 H 0.0192 0.1669 0.2508
C11 C 0.1747(4) 0.0496(2) 0.2144(2)
C12 C 0.2617(4) -0.0235(2) 0.2889(2)
C13 C 0.3496(4) -0.1230(2) 0.2942(2)
C14 C 0.4744(4) -0.1938(2) 0.3628(2)
H11 H 0.5108 -0.1837 0.4118
C15 C 0.5273(4) -0.2757(2) 0.3427(2)
H12 H 0.6120 -0.3340 0.3738
C16 C 0.4311(4) -0.2587(2) 0.2648(2)
C17 C 0.4256(4) -0.3274(2) 0.2265(2)
C18 C 0.1651(4) 0.0838(2) -0.0563(2)
C19 C 0.1725(4) 0.1162(2) -0.1471(2)
H13 H 0.1116 0.1816 -0.1834
C20 C 0.2687(4) 0.0527(3) -0.1843(2)
H14 H 0.2704 0.0728 -0.2460
C21 C 0.3621(4) -0.0403(2) -0.1303(2)
H15 H 0.4282 -0.0858 -0.1539
C22 C 0.3566(4) -0.0654(2) -0.0413(2)
H16 H 0.4256 -0.1278 -0.0045
C23 C 0.2626(4) 0.0009(2) 0.3675(2)
C24 C 0.3269(4) 0.0878(2) 0.3651(2)
C25 C 0.3283(4) 0.1109(2) 0.4381(2)
C26 C 0.2681(4) 0.0449(2) 0.5176(2)
C27 C 0.2076(4) -0.0426(2) 0.5229(2)
C28 C 0.2018(4) -0.0624(2) 0.4483(2)
C29 C 0.5547(4) -0.4258(2) 0.2568(2)
C30 C 0.6941(5) -0.4397(2) 0.2033(2)
C31 C 0.8177(5) -0.5284(3) 0.2275(2)
C32 C 0.8040(4) -0.6062(2) 0.3085(2)
C33 C 0.6679(4) -0.5955(2) 0.3643(2)
C34 C 0.5443(4) -0.5055(2) 0.3376(2)
F1A F -0.3942(3) -0.15118(14) -0.29093(13)
F2A F -0.3919(3) -0.19448(15) -0.43334(14)
F3A F -0.2707(3) -0.06482(15) -0.58947(13)
F4A F -0.1483(3) 0.10615(14) -0.59942(12)
F5A F -0.1300(2) 0.14530(13) -0.45592(12)
F6A F -0.7111(3) 0.36440(15) -0.12419(14)
F7A F -0.9480(3) 0.54052(17) -0.17294(17)
F8A F -0.9242(3) 0.69207(14) -0.33297(16)
F9A F -0.6536(3) 0.67014(15) -0.44299(15)
F10A F -0.4127(3) 0.49836(15) -0.39386(14)
N1A N 0.1828(3) -0.22489(18) 0.12300(17)
H5A H 0.1785 -0.1694 0.1339
N2A N -0.1861(3) -0.04677(18) -0.13354(17)
H6A H -0.2547 0.0013 -0.1210
N3A N -0.3244(3) 0.16173(18) -0.23621(17)
N4A N -0.2599(3) 0.00683(18) 0.00365(17)
C3A C 0.3026(4) -0.3143(2) 0.1607(2)
C4A C 0.2652(4) -0.3829(2) 0.1265(2)
H7A H 0.3267 -0.4506 0.1399
C5A C 0.1205(5) -0.3345(2) 0.0686(2)
H8A H 0.0654 -0.3639 0.0367
C6A C 0.0721(4) -0.2351(2) 0.0665(2)
C7A C -0.0604(4) -0.1480(2) 0.0134(2)
C8A C -0.0768(4) -0.1287(2) -0.0733(2)
C9A C 0.0122(4) -0.1870(2) -0.1230(2)
H9A H 0.0998 -0.2465 -0.1007
C10A C -0.0504(4) -0.1423(2) -0.2059(2)
H10A H -0.0192 -0.1669 -0.2508
C11A C -0.1747(4) -0.0496(2) -0.2144(2)
C12A C -0.2617(4) 0.0235(2) -0.2889(2)
C13A C -0.3496(4) 0.1230(2) -0.2942(2)
C14A C -0.4744(4) 0.1938(2) -0.3628(2)
H11A H -0.5108 0.1837 -0.4118
C15A C -0.5273(4) 0.2757(2) -0.3427(2)
H12A H -0.6120 0.3340 -0.3738
C16A C -0.4311(4) 0.2587(2) -0.2648(2)
C17A C -0.4256(4) 0.3274(2) -0.2265(2)
C18A C -0.1651(4) -0.0838(2) 0.0563(2)
C19A C -0.1725(4) -0.1162(2) 0.1471(2)
H13A H -0.1116 -0.1816 0.1834
C20A C -0.2687(4) -0.0527(3) 0.1843(2)
H14A H -0.2704 -0.0728 0.2460
C21A C -0.3621(4) 0.0403(2) 0.1303(2)
H15A H -0.4282 0.0858 0.1539
C22A C -0.3566(4) 0.0654(2) 0.0413(2)
H16A H -0.4256 0.1278 0.0045
C23A C -0.2626(4) -0.0009(2) -0.3675(2)
C24A C -0.3269(4) -0.0878(2) -0.3651(2)
C25A C -0.3283(4) -0.1109(2) -0.4381(2)
C26A C -0.2681(4) -0.0449(2) -0.5176(2)
C27A C -0.2076(4) 0.0426(2) -0.5229(2)
C28A C -0.2018(4) 0.0624(2) -0.4483(2)
C29A C -0.5547(4) 0.4258(2) -0.2568(2)
C30A C -0.6941(5) 0.4397(2) -0.2033(2)
C31A C -0.8177(5) 0.5284(3) -0.2275(2)
C32A C -0.8040(4) 0.6062(2) -0.3085(2)
C33A C -0.6679(4) 0.5955(2) -0.3643(2)
C34A C -0.5443(4) 0.5055(2) -0.3376(2)
loop_
_geom_bond_atom_site_label_1
_geom_bond_atom_site_label_2
_geom_bond_site_symmetry_1
_geom_bond_site_symmetry_2
Cl1 C1 1_555 1_555
Cl2 C1 1_555 1_555
C1 H1 1_555 1_555
H2 C1 1_555 1_555
Cl3 C2 1_555 1_555
Cl4 C2 1_555 1_555
C2 H3 1_555 1_555
H4 C2 1_555 1_555
F1 C24 1_555 1_555
F2 C25 1_555 1_555
F3 C26 1_555 1_555
F4 C27 1_555 1_555
F5 C28 1_555 1_555
F6 C30 1_555 1_555
F7 C31 1_555 1_555
F8 C32 1_555 1_555
F9 C33 1_555 1_555
F10 C34 1_555 1_555
N1 H5 1_555 1_555
N2 H6 1_555 1_555
N3 C13 1_555 1_555
N4 C18 1_555 1_555
C3 N1 1_555 1_555
C4 C3 1_555 1_555
H7 C4 1_555 1_555
C5 C4 1_555 1_555
H8 C5 1_555 1_555
C6 N1 1_555 1_555
C7 C6 1_555 1_555
C8 N2 1_555 1_555
C9 C8 1_555 1_555
H9 C9 1_555 1_555
C10 C9 1_555 1_555
H10 C10 1_555 1_555
C11 N2 1_555 1_555
C12 C11 1_555 1_555
C13 C12 1_555 1_555
C14 C13 1_555 1_555
H11 C14 1_555 1_555
C15 C14 1_555 1_555
H12 C15 1_555 1_555
C16 N3 1_555 1_555
C17 C16 1_555 1_555
C18 C7 1_555 1_555
C19 C18 1_555 1_555
H13 C19 1_555 1_555
C20 C19 1_555 1_555
H14 C20 1_555 1_555
C21 C20 1_555 1_555
H15 C21 1_555 1_555
C22 N4 1_555 1_555
H16 C22 1_555 1_555
C23 C12 1_555 1_555
C24 C23 1_555 1_555
C25 C24 1_555 1_555
C26 C25 1_555 1_555
C27 C26 1_555 1_555
C28 C23 1_555 1_555
C29 C17 1_555 1_555
C30 C29 1_555 1_555
C31 C30 1_555 1_555
C32 C31 1_555 1_555
C33 C32 1_555 1_555
C34 C29 1_555 1_555
F1A C24A 1_555 1_555
F2A C25A 1_555 1_555
F3A C26A 1_555 1_555
F4A C27A 1_555 1_555
F5A C28A 1_555 1_555
F6A C30A 1_555 1_555
F7A C31A 1_555 1_555
F8A C32A 1_555 1_555
F9A C33A 1_555 1_555
F10A C34A 1_555 1_555
N1A H5A 1_555 1_555
N2A H6A 1_555 1_555
N3A C13A 1_555 1_555
N4A C18A 1_555 1_555
C3A C17 1_555 1_555
C4A C3A 1_555 1_555
H7A C4A 1_555 1_555
C5A C4A 1_555 1_555
H8A C5A 1_555 1_555
C6A N1A 1_555 1_555
C7A C6A 1_555 1_555
C8A N2A 1_555 1_555
C9A C8A 1_555 1_555
H9A C9A 1_555 1_555
C10A C9A 1_555 1_555
H10A C10A 1_555 1_555
C11A N2A 1_555 1_555
C12A C11A 1_555 1_555
C13A C12A 1_555 1_555
C14A C13A 1_555 1_555
H11A C14A 1_555 1_555
C15A C14A 1_555 1_555
H12A C15A 1_555 1_555
C16A N3A 1_555 1_555
C17A C3 1_555 1_555
C18A C7A 1_555 1_555
C19A C18A 1_555 1_555
H13A C19A 1_555 1_555
C20A C19A 1_555 1_555
H14A C20A 1_555 1_555
C21A C20A 1_555 1_555
H15A C21A 1_555 1_555
C22A N4A 1_555 1_555
H16A C22A 1_555 1_555
C23A C12A 1_555 1_555
C24A C23A 1_555 1_555
C25A C24A 1_555 1_555
C26A C25A 1_555 1_555
C27A C26A 1_555 1_555
C28A C23A 1_555 1_555
C29A C17A 1_555 1_555
C30A C29A 1_555 1_555
C31A C30A 1_555 1_555
C32A C31A 1_555 1_555
C33A C32A 1_555 1_555
C34A C29A 1_555 1_555
C5 C6 1_555 1_555
C7 C8 1_555 1_555
C10 C11 1_555 1_555
C15 C16 1_555 1_555
C21 C22 1_555 1_555
C27 C28 1_555 1_555
C33 C34 1_555 1_555
N1A C3A 1_555 1_555
C5A C6A 1_555 1_555
C7A C8A 1_555 1_555
C10A C11A 1_555 1_555
C15A C16A 1_555 1_555
C16A C17A 1_555 1_555
C21A C22A 1_555 1_555
C27A C28A 1_555 1_555
C33A C34A 1_555 1_555

#END
