
#######################################################################
#
#                 Cambridge Crystallographic Data Centre
#                                CCDC 
#
#######################################################################
#
# If this CIF has been generated from an entry in the Cambridge 
# Structural Database, then it will include bibliographic, chemical, 
# crystal, experimental, refinement or atomic coordinate data resulting 
# from the CCDC's data processing and validation procedures.
#
#######################################################################

data_BUYYID11
_chemical_formula_moiety         'C21 H30 O3'
_chemical_name_systematic        'Methyl 3-oxoandrost-4-ene-17\b-carboxylate'
_symmetry_cell_setting           monoclinic
_symmetry_space_group_name_H-M   'P 21'
_symmetry_Int_Tables_number      4
_space_group_name_Hall           'P 2yb'
loop_
_symmetry_equiv_pos_site_id
_symmetry_equiv_pos_as_xyz
1 x,y,z
2 -x,1/2+y,-z
_cell_length_a                   10.039(3)
_cell_length_b                   12.582(4)
_cell_length_c                   14.815(4)
_cell_angle_alpha                90
_cell_angle_beta                 90.143(9)
_cell_angle_gamma                90
_cell_volume                     1871.29
_cell_formula_units_Z            4
loop_
_atom_site_label
_atom_site_type_symbol
_atom_site_fract_x
_atom_site_fract_y
_atom_site_fract_z
C1 C 0.5606(3) 0.5436(3) 0.3063(2)
H1 H 0.6454 0.5271 0.2770
C2 C 0.5897(3) 0.6380(3) 0.3706(2)
H2 H 0.5069 0.6594 0.4004
C3 C 0.5163(3) 0.4387(3) 0.3553(2)
C4 C 0.5422(3) 0.7675(3) 0.2401(2)
C5 C 0.4650(4) 0.5765(3) 0.2303(2)
H3 H 0.3783 0.5917 0.2559
H4 H 0.4548 0.5175 0.1887
C6 C 0.6908(4) 0.6043(3) 0.4417(3)
H5 H 0.7061 0.6629 0.4830
H6 H 0.7747 0.5878 0.4125
C7 C 0.6101(3) 0.4166(3) 0.4331(2)
C8 C 0.5138(4) 0.6752(3) 0.1773(2)
H7 H 0.5942 0.6572 0.1445
H8 H 0.4464 0.6960 0.1338
C9 C 0.6399(4) 0.7294(3) 0.3133(2)
H9 H 0.7187 0.7029 0.2815
C10 C 0.6438(4) 0.5077(4) 0.4948(3)
H10 H 0.7131 0.4859 0.5365
H11 H 0.5657 0.5266 0.5297
C11 C 0.6584(4) 0.3181(4) 0.4512(3)
H12 H 0.7222 0.3110 0.4964
C12 C 0.6257(4) 0.8588(3) 0.1996(3)
H13 H 0.6955 0.8262 0.1627
C13 C 0.5227(5) 0.3458(3) 0.2864(3)
H14 H 0.4500 0.3533 0.2437
H15 H 0.6055 0.3508 0.2530
C14 C 0.5516(4) 0.9354(4) 0.1402(3)
C15 C 0.3744(4) 0.4465(4) 0.3936(3)
H16 H 0.3589 0.3882 0.4340
H17 H 0.3111 0.4439 0.3449
H18 H 0.3648 0.5124 0.4256
O1 O 0.5117(3) 0.8866(3) 0.0645(2)
O2 O 0.5283(5) 1.0261(3) 0.1548(3)
C16 C 0.6826(5) 0.8324(4) 0.3605(3)
H19 H 0.7672 0.8236 0.3915
H20 H 0.6160 0.8558 0.4035
O3 O 0.6529(5) 0.1347(3) 0.4259(3)
C17 C 0.6151(5) 0.2232(4) 0.4035(3)
C18 C 0.5144(6) 0.2372(4) 0.3300(3)
H21 H 0.4259 0.2274 0.3548
H22 H 0.5282 0.1831 0.2843
C19 C 0.4124(4) 0.8142(4) 0.2788(3)
H23 H 0.3566 0.8383 0.2301
H24 H 0.4332 0.8730 0.3177
H25 H 0.3664 0.7605 0.3126
C20 C 0.6948(6) 0.9108(4) 0.2812(4)
H26 H 0.6521 0.9777 0.2960
H27 H 0.7878 0.9245 0.2679
C21 C 0.4369(6) 0.9507(6) 0.0016(4)
H28 H 0.3555 0.9735 0.0293
H29 H 0.4168 0.9095 -0.0513
H30 H 0.4887 1.0117 -0.0152
C22 C 0.8101(4) 0.8735(4) 0.9417(3)
H31 H 0.7974 0.8147 0.9832
H32 H 0.7252 0.8885 0.9132
C23 C 0.9397(3) 0.9354(3) 0.8065(2)
H33 H 0.8548 0.9523 0.7771
C24 C 0.9576(3) 0.7106(3) 0.7403(2)
C25 C 0.9100(3) 0.8417(3) 0.8704(2)
H34 H 0.9930 0.8207 0.9004
C26 C 0.8604(4) 0.7482(3) 0.8131(2)
H35 H 0.7816 0.7743 0.7807
C27 C 1.0348(4) 0.9014(3) 0.7298(2)
H36 H 1.0455 0.9605 0.6884
H37 H 1.1215 0.8857 0.7555
C28 C 0.9860(4) 0.8042(3) 0.6770(2)
H38 H 0.9054 0.8224 0.6442
H39 H 1.0531 0.7835 0.6334
O4 O 0.9878(3) 0.5910(3) 0.5643(2)
C29 C 0.9836(3) 1.0384(3) 0.8550(2)
C30 C 0.8414(4) 1.1596(4) 0.9510(3)
H40 H 0.7770 1.1665 0.9955
C31 C 0.9774(5) 1.1327(3) 0.7860(3)
H41 H 1.0503 1.1252 0.7436
H42 H 0.8949 1.1277 0.7522
C32 C 0.8172(6) 0.6460(4) 0.8599(4)
H43 H 0.7323 0.6551 0.8902
H44 H 0.8833 0.6228 0.9035
C33 C 0.9856(6) 1.2428(4) 0.8294(4)
H45 H 1.0743 1.2535 0.8538
H46 H 0.9704 1.2966 0.7835
C34 C 0.8744(4) 0.6188(3) 0.6993(3)
H47 H 0.8045 0.6512 0.6621
C35 C 0.8562(4) 0.9712(4) 0.9944(3)
H48 H 0.7863 0.9930 1.0355
H49 H 0.9340 0.9529 1.0301
C36 C 0.8897(3) 1.0617(3) 0.9334(2)
C37 C 1.0632(6) 0.5266(6) 0.5021(4)
H50 H 1.1414 0.4999 0.5318
H51 H 1.0890 0.5690 0.4512
H52 H 1.0093 0.4682 0.4819
C38 C 0.8055(6) 0.5672(4) 0.7812(4)
H53 H 0.7126 0.5531 0.7676
H54 H 0.8486 0.5006 0.7965
O5 O 0.9709(5) 0.4517(3) 0.6544(3)
C39 C 0.9489(4) 0.5437(4) 0.6403(3)
O6 O 0.8468(5) 1.3435(3) 0.9263(3)
C40 C 0.8853(5) 1.2561(4) 0.9033(3)
C41 C 1.1256(3) 1.0301(4) 0.8936(3)
H55 H 1.1485 1.0954 0.9234
H56 H 1.1872 1.0172 0.8453
H57 H 1.1297 0.9726 0.9360
C42 C 1.0874(4) 0.6649(4) 0.7791(3)
H58 H 1.1436 0.6418 0.7306
H59 H 1.0673 0.6056 0.8175
H60 H 1.1325 0.7187 0.8134
loop_
_geom_bond_atom_site_label_1
_geom_bond_atom_site_label_2
_geom_bond_site_symmetry_1
_geom_bond_site_symmetry_2
C1 H1 1_555 1_555
C2 C1 1_555 1_555
H2 C2 1_555 1_555
C3 C1 1_555 1_555
C4 C8 1_555 1_555
C5 C1 1_555 1_555
H3 C5 1_555 1_555
H4 C5 1_555 1_555
C6 C2 1_555 1_555
H5 C6 1_555 1_555
H6 C6 1_555 1_555
C7 C3 1_555 1_555
C8 C5 1_555 1_555
H7 C8 1_555 1_555
H8 C8 1_555 1_555
C9 C2 1_555 1_555
H9 C9 1_555 1_555
C10 C6 1_555 1_555
H10 C10 1_555 1_555
H11 C10 1_555 1_555
C11 C7 1_555 1_555
H12 C11 1_555 1_555
C12 C4 1_555 1_555
H13 C12 1_555 1_555
C13 C3 1_555 1_555
H14 C13 1_555 1_555
H15 C13 1_555 1_555
C14 C12 1_555 1_555
C15 C3 1_555 1_555
H16 C15 1_555 1_555
H17 C15 1_555 1_555
H18 C15 1_555 1_555
O1 C14 1_555 1_555
O2 C14 1_555 1_555
C16 C9 1_555 1_555
H19 C16 1_555 1_555
H20 C16 1_555 1_555
O3 C17 1_555 1_555
C17 C11 1_555 1_555
C18 C13 1_555 1_555
H21 C18 1_555 1_555
H22 C18 1_555 1_555
C19 C4 1_555 1_555
H23 C19 1_555 1_555
H24 C19 1_555 1_555
H25 C19 1_555 1_555
C20 C12 1_555 1_555
H26 C20 1_555 1_555
H27 C20 1_555 1_555
C21 O1 1_555 1_555
H28 C21 1_555 1_555
H29 C21 1_555 1_555
H30 C21 1_555 1_555
C22 H31 1_555 1_555
H32 C22 1_555 1_555
C23 H33 1_555 1_555
C24 C26 1_555 1_555
C25 C22 1_555 1_555
H34 C25 1_555 1_555
C26 C25 1_555 1_555
H35 C26 1_555 1_555
C27 C23 1_555 1_555
H36 C27 1_555 1_555
H37 C27 1_555 1_555
C28 C24 1_555 1_555
H38 C28 1_555 1_555
H39 C28 1_555 1_555
O4 C37 1_555 1_555
C29 C23 1_555 1_555
C30 H40 1_555 1_555
C31 C29 1_555 1_555
H41 C31 1_555 1_555
H42 C31 1_555 1_555
C32 C26 1_555 1_555
H43 C32 1_555 1_555
H44 C32 1_555 1_555
C33 C31 1_555 1_555
H45 C33 1_555 1_555
H46 C33 1_555 1_555
C34 C24 1_555 1_555
H47 C34 1_555 1_555
C35 C22 1_555 1_555
H48 C35 1_555 1_555
H49 C35 1_555 1_555
C36 C29 1_555 1_555
C37 H50 1_555 1_555
H51 C37 1_555 1_555
H52 C37 1_555 1_555
C38 C32 1_555 1_555
H53 C38 1_555 1_555
H54 C38 1_555 1_555
O5 C39 1_555 1_555
C39 O4 1_555 1_555
O6 C40 1_555 1_555
C40 C30 1_555 1_555
C41 C29 1_555 1_555
H55 C41 1_555 1_555
H56 C41 1_555 1_555
H57 C41 1_555 1_555
C42 C24 1_555 1_555
H58 C42 1_555 1_555
H59 C42 1_555 1_555
H60 C42 1_555 1_555
C4 C9 1_555 1_555
C7 C10 1_555 1_555
C16 C20 1_555 1_555
C17 C18 1_555 1_555
C23 C25 1_555 1_555
C27 C28 1_555 1_555
C30 C36 1_555 1_555
C33 C40 1_555 1_555
C34 C38 1_555 1_555
C34 C39 1_555 1_555
C35 C36 1_555 1_555

#END
