
#######################################################################
#
#                 Cambridge Crystallographic Data Centre
#                                CCDC 
#
#######################################################################
#
# If this CIF has been generated from an entry in the Cambridge 
# Structural Database, then it will include bibliographic, chemical, 
# crystal, experimental, refinement or atomic coordinate data resulting 
# from the CCDC's data processing and validation procedures.
#
#######################################################################

data_BUZPAP
_chemical_name_common            
'Methyl-2-benzamido-3-(hydroxymethyl)-2-methyl-5-phenylpent-4-enoate dichloromethane solvate'
_chemical_formula_moiety         'C21 H23 N1 O4,0.5(C1 H2 Cl2)'
_chemical_name_systematic        
'methyl N-benzoyl-\b-(3-hydroxyprop-1-en-1-yl)-\a-methylphenylalaninate dichloromethane solvate'
_symmetry_cell_setting           monoclinic
_symmetry_space_group_name_H-M   'C 2'
_symmetry_Int_Tables_number      5
_space_group_name_Hall           'C 2y'
loop_
_symmetry_equiv_pos_site_id
_symmetry_equiv_pos_as_xyz
1 x,y,z
2 -x,y,-z
3 1/2+x,1/2+y,z
4 1/2-x,1/2+y,-z
_cell_length_a                   16.9612(5)
_cell_length_b                   8.4840(3)
_cell_length_c                   14.0565(6)
_cell_angle_alpha                90
_cell_angle_beta                 91.934(3)
_cell_angle_gamma                90
_cell_volume                     2021.56
_exptl_crystal_colour            colorless
_exptl_crystal_description       block
_chemical_melting_point          '72.4-73.8 deg.C'
_cell_formula_units_Z            4
_exptl_crystal_recrystallization_method dichloromethane/n-Hexane
loop_
_atom_site_label
_atom_site_type_symbol
_atom_site_fract_x
_atom_site_fract_y
_atom_site_fract_z
O1 O 0.5463(2) 0.2643(5) 0.6328(4)
O2 O 0.1950(2) 0.6531(5) 0.6257(3)
N1 N 0.44454(19) 0.4040(5) 0.6814(3)
H1 H 0.4221 0.4972 0.6855
C1 C 0.5259(2) 0.6908(6) 0.6321(3)
H2 H 0.4809 0.7018 0.6700
C2 C 0.5656(3) 0.8250(7) 0.5996(4)
H3 H 0.5477 0.9274 0.6159
C3 C 0.6306(3) 0.8076(7) 0.5440(4)
H4 H 0.6572 0.8983 0.5217
C4 C 0.6574(2) 0.6583(7) 0.5206(3)
H5 H 0.7026 0.6467 0.4831
C5 C 0.6180(2) 0.5271(7) 0.5519(3)
H6 H 0.6356 0.4251 0.5346
C6 C 0.5532(2) 0.5418(6) 0.6081(3)
C7 C 0.5149(2) 0.3932(6) 0.6400(3)
C8 C 0.4041(3) 0.2673(6) 0.7199(4)
C9 C 0.3694(4) 0.1666(7) 0.6424(5)
H7 H 0.4089 0.1479 0.5944
H8 H 0.3236 0.2201 0.6128
H9 H 0.3528 0.0656 0.6690
C10 C 0.3394(3) 0.3350(6) 0.7874(3)
H10 H 0.3683 0.3930 0.8398
C11 C 0.2931(3) 0.2041(6) 0.8342(3)
C12 C 0.3226(3) 0.1262(8) 0.9147(4)
H11 H 0.3734 0.1541 0.9397
C13 C 0.2811(4) 0.0103(8) 0.9596(4)
H12 H 0.3034 -0.0427 1.0136
C14 C 0.2052(4) -0.0281(8) 0.9242(4)
H13 H 0.1754 -0.1061 0.9554
C15 C 0.1741(4) 0.0452(8) 0.8459(4)
H14 H 0.1229 0.0175 0.8220
C16 C 0.2175(3) 0.1620(7) 0.8001(3)
H15 H 0.1953 0.2131 0.7453
C17 C 0.2890(2) 0.4525(6) 0.7361(3)
H16 H 0.2574 0.4157 0.6836
C18 C 0.2843(3) 0.6041(7) 0.7571(4)
H17 H 0.3150 0.6411 0.8103
C19 C 0.2342(4) 0.7221(8) 0.7031(5)
H18 H 0.1951 0.7678 0.7460
H19 H 0.2679 0.8087 0.6807
O3 O 0.5079(3) 0.2794(8) 0.8540(4)
O4 O 0.4804(4) 0.0490(8) 0.7833(4)
C20 C 0.4717(6) 0.2085(14) 0.7946(8)
C21 C 0.5497(6) -0.0097(15) 0.8408(8)
H20 H 0.5434 0.0179 0.9079
H21 H 0.5979 0.0390 0.8180
H22 H 0.5533 -0.1244 0.8345
H23 H 0.149(2) 0.693(9) 0.632(5)
Cl1 Cl 0.4380(3) 0.7064(5) 0.9328(3)
C24 C 0.5000 0.5878(18) 1.0000
H27 H 0.5310 0.5195 0.9581
H27A H 0.4690 0.5195 1.0419
Cl1A Cl 0.5620(3) 0.7064(5) 1.0672(3)
O5? O 0.4435(6) -0.0083(12) 0.7455(8)
O6? O 0.5033(8) 0.1988(18) 0.8145(10)
C22? C 0.4522(9) 0.1352(19) 0.7561(11)
C23? C 0.5609(11) 0.101(3) 0.8592(13)
H24? H 0.5796 0.1498 0.9190
H25? H 0.6053 0.0877 0.8171
H26? H 0.5377 -0.0021 0.8725
H28? H 0.5310 0.5195 0.9581
loop_
_geom_bond_atom_site_label_1
_geom_bond_atom_site_label_2
_geom_bond_site_symmetry_1
_geom_bond_site_symmetry_2
O1 C7 1_555 1_555
O2 C19 1_555 1_555
N1 H1 1_555 1_555
C1 H2 1_555 1_555
C2 C1 1_555 1_555
H3 C2 1_555 1_555
C3 C2 1_555 1_555
H4 C3 1_555 1_555
C4 C3 1_555 1_555
H5 C4 1_555 1_555
C5 C4 1_555 1_555
H6 C5 1_555 1_555
C6 C1 1_555 1_555
C7 N1 1_555 1_555
C8 N1 1_555 1_555
C9 C8 1_555 1_555
H7 C9 1_555 1_555
H8 C9 1_555 1_555
H9 C9 1_555 1_555
C10 C8 1_555 1_555
H10 C10 1_555 1_555
C11 C10 1_555 1_555
C12 C11 1_555 1_555
H11 C12 1_555 1_555
C13 C12 1_555 1_555
H12 C13 1_555 1_555
C14 C13 1_555 1_555
H13 C14 1_555 1_555
C15 C14 1_555 1_555
H14 C15 1_555 1_555
C16 C11 1_555 1_555
H15 C16 1_555 1_555
C17 C10 1_555 1_555
H16 C17 1_555 1_555
C18 C17 1_555 1_555
H17 C18 1_555 1_555
C19 C18 1_555 1_555
H18 C19 1_555 1_555
H19 C19 1_555 1_555
O3 C20 1_555 1_555
O4 C20 1_555 1_555
C20 C8 1_555 1_555
C21 O4 1_555 1_555
H20 C21 1_555 1_555
H21 C21 1_555 1_555
H22 C21 1_555 1_555
H23 O2 1_555 1_555
Cl1 C24 1_555 1_555
C24 H27 1_555 1_555
H27A C24 1_555 1_555
Cl1A C24 1_555 1_555
C5 C6 1_555 1_555
C6 C7 1_555 1_555
C15 C16 1_555 1_555

#END
