
#######################################################################
#
#                 Cambridge Crystallographic Data Centre
#                                CCDC 
#
#######################################################################
#
# If this CIF has been generated from an entry in the Cambridge 
# Structural Database, then it will include bibliographic, chemical, 
# crystal, experimental, refinement or atomic coordinate data resulting 
# from the CCDC's data processing and validation procedures.
#
#######################################################################

data_BUZYUS
_chemical_formula_moiety         'C24 H21 N5 O2'
_chemical_name_systematic        
morpholin-4-yl(6-(5-phenyl-2H-tetrazol-2-yl)biphenyl-3-yl)methanone
_symmetry_cell_setting           triclinic
_symmetry_space_group_name_H-M   'P -1'
_symmetry_Int_Tables_number      2
_space_group_name_Hall           '-P 1'
loop_
_symmetry_equiv_pos_site_id
_symmetry_equiv_pos_as_xyz
1 x,y,z
2 -x,-y,-z
_cell_length_a                   8.7322(7)
_cell_length_b                   9.9954(7)
_cell_length_c                   12.0561(10)
_cell_angle_alpha                78.166(7)
_cell_angle_beta                 89.574(7)
_cell_angle_gamma                82.698(6)
_cell_volume                     1021.37
_exptl_crystal_description       plate
_cell_formula_units_Z            2
loop_
_atom_site_label
_atom_site_type_symbol
_atom_site_fract_x
_atom_site_fract_y
_atom_site_fract_z
O1 O 0.2877(2) 1.08258(17) 0.55387(15)
O2 O 0.3465(3) 0.8565(2) 0.95024(16)
N1 N 0.1101(3) 0.5753(2) 0.14377(17)
N2 N 0.1134(3) 0.6769(2) 0.19767(18)
N3 N 0.1698(2) 0.6192(2) 0.30117(16)
N4 N 0.2031(2) 0.4829(2) 0.31777(16)
N5 N 0.2627(3) 0.9317(2) 0.71810(17)
C1 C 0.1643(3) 0.4579(2) 0.21806(19)
C2 C 0.1708(3) 0.3210(2) 0.19064(19)
C3 C 0.1266(3) 0.3097(3) 0.0823(2)
H1 H 0.0976 0.3906 0.0262
C4 C 0.1246(3) 0.1815(3) 0.0559(2)
H2 H 0.0940 0.1746 -0.0180
C5 C 0.1676(3) 0.0628(3) 0.1378(2)
H3 H 0.1667 -0.0255 0.1201
C6 C 0.2115(3) 0.0739(3) 0.2448(2)
H4 H 0.2400 -0.0075 0.3006
C7 C 0.2149(3) 0.2023(2) 0.2726(2)
H5 H 0.2468 0.2086 0.3463
C8 C 0.1996(3) 0.6998(2) 0.38291(19)
C9 C 0.0745(3) 0.7511(2) 0.4401(2)
H6 H -0.0266 0.7321 0.4260
C10 C 0.0996(3) 0.8306(2) 0.5182(2)
H7 H 0.0155 0.8656 0.5589
C11 C 0.2481(3) 0.8591(2) 0.53689(19)
C12 C 0.3729(3) 0.8041(2) 0.47998(19)
H8 H 0.4741 0.8221 0.4950
C13 C 0.3509(3) 0.7229(2) 0.40134(19)
C14 C 0.4840(3) 0.6694(2) 0.33720(19)
C15 C 0.4798(3) 0.6895(2) 0.2193(2)
H9 H 0.3904 0.7382 0.1781
C16 C 0.6044(3) 0.6394(3) 0.1617(2)
H10 H 0.6002 0.6537 0.0813
C17 C 0.7351(3) 0.5684(3) 0.2207(2)
H11 H 0.8194 0.5317 0.1811
C18 C 0.7431(3) 0.5509(3) 0.3377(2)
H12 H 0.8339 0.5039 0.3780
C19 C 0.6185(3) 0.6021(2) 0.3961(2)
H13 H 0.6248 0.5912 0.4762
C20 C 0.2700(3) 0.9665(2) 0.6053(2)
C21 C 0.2421(3) 0.7944(3) 0.7831(2)
H14 H 0.2585 0.7263 0.7336
H15 H 0.1357 0.7948 0.8120
C22 C 0.3579(4) 0.7549(3) 0.8817(2)
H16 H 0.3392 0.6653 0.9289
H17 H 0.4637 0.7439 0.8519
C23 C 0.3801(3) 0.9845(3) 0.8845(2)
H18 H 0.4854 0.9725 0.8540
H19 H 0.3770 1.0533 0.9332
C24 C 0.2640(3) 1.0366(3) 0.7871(2)
H20 H 0.1598 1.0567 0.8174
H21 H 0.2922 1.1228 0.7398
loop_
_geom_bond_atom_site_label_1
_geom_bond_atom_site_label_2
_geom_bond_site_symmetry_1
_geom_bond_site_symmetry_2
O1 C20 1_555 1_555
O2 C22 1_555 1_555
N1 N2 1_555 1_555
N2 N3 1_555 1_555
N3 N4 1_555 1_555
N4 C1 1_555 1_555
N5 C20 1_555 1_555
C1 N1 1_555 1_555
C2 C1 1_555 1_555
C3 C2 1_555 1_555
H1 C3 1_555 1_555
C4 C3 1_555 1_555
H2 C4 1_555 1_555
C5 C4 1_555 1_555
H3 C5 1_555 1_555
C6 C5 1_555 1_555
H4 C6 1_555 1_555
C7 C2 1_555 1_555
H5 C7 1_555 1_555
C8 N3 1_555 1_555
C9 C8 1_555 1_555
H6 C9 1_555 1_555
C10 C9 1_555 1_555
H7 C10 1_555 1_555
C11 C10 1_555 1_555
C12 C11 1_555 1_555
H8 C12 1_555 1_555
C13 C8 1_555 1_555
C14 C13 1_555 1_555
C15 C14 1_555 1_555
H9 C15 1_555 1_555
C16 C15 1_555 1_555
H10 C16 1_555 1_555
C17 C16 1_555 1_555
H11 C17 1_555 1_555
C18 C17 1_555 1_555
H12 C18 1_555 1_555
C19 C14 1_555 1_555
H13 C19 1_555 1_555
C20 C11 1_555 1_555
C21 N5 1_555 1_555
H14 C21 1_555 1_555
H15 C21 1_555 1_555
C22 C21 1_555 1_555
H16 C22 1_555 1_555
H17 C22 1_555 1_555
C23 O2 1_555 1_555
H18 C23 1_555 1_555
H19 C23 1_555 1_555
C24 N5 1_555 1_555
H20 C24 1_555 1_555
H21 C24 1_555 1_555
C6 C7 1_555 1_555
C12 C13 1_555 1_555
C18 C19 1_555 1_555
C23 C24 1_555 1_555

#END
