
#######################################################################
#
#                 Cambridge Crystallographic Data Centre
#                                CCDC 
#
#######################################################################
#
# If this CIF has been generated from an entry in the Cambridge 
# Structural Database, then it will include bibliographic, chemical, 
# crystal, experimental, refinement or atomic coordinate data resulting 
# from the CCDC's data processing and validation procedures.
#
#######################################################################

data_BZANIL01
_chemical_formula_moiety         'C13 H11 N1 O1'
_chemical_name_systematic        N-Benzoylaniline
_symmetry_cell_setting           triclinic
_symmetry_space_group_name_H-M   'P -1'
_symmetry_Int_Tables_number      2
_space_group_name_Hall           '-P 1'
loop_
_symmetry_equiv_pos_site_id
_symmetry_equiv_pos_as_xyz
1 x,y,z
2 -x,-y,-z
_cell_length_a                   5.3406(5)
_cell_length_b                   7.7727(7)
_cell_length_c                   12.3901(15)
_cell_angle_alpha                72.702(3)
_cell_angle_beta                 79.389(3)
_cell_angle_gamma                89.914(5)
_cell_volume                     481.887
_exptl_crystal_colour            colorless
_exptl_crystal_description       block
_cell_formula_units_Z            2
_exptl_crystal_recrystallization_method ethanol
loop_
_atom_site_label
_atom_site_type_symbol
_atom_site_fract_x
_atom_site_fract_y
_atom_site_fract_z
O1 O -0.1228(5) 0.7445(8) 0.0032(3)
C1 C 0.3558(7) 0.7580(4) -0.1536(2)
C2 C 0.1972(7) 0.8436(5) -0.2274(3)
C3 C 0.2568(10) 0.8509(8) -0.3418(3)
C4 C 0.4726(13) 0.7742(11) -0.3849(4)
C5 C 0.6307(9) 0.6894(8) -0.3111(4)
C6 C 0.5744(6) 0.6806(4) -0.1961(3)
C7 C 0.0825(5) 0.7454(4) 0.0341(3)
N1 N 0.3126(4) 0.7517(3) -0.0365(2)
C8 C 0.0876(7) 0.7398(4) 0.1551(2)
C9 C -0.1161(6) 0.6534(5) 0.2412(3)
C10 C -0.1225(10) 0.6464(10) 0.3541(4)
C11 C 0.0742(16) 0.7284(14) 0.3831(4)
C12 C 0.2777(11) 0.8169(9) 0.2974(4)
C13 C 0.2871(7) 0.8208(5) 0.1846(3)
H1 H 0.0488 0.8969 -0.1994
H2 H 0.1478 0.9096 -0.3923
H3 H 0.5109 0.7800 -0.4639
H4 H 0.7791 0.6366 -0.3396
H5 H 0.6840 0.6221 -0.1458
H6 H 0.4488 0.7518 -0.0059
H7 H -0.2533 0.5982 0.2221
H8 H -0.2623 0.5850 0.4123
H9 H 0.0699 0.7241 0.4608
H10 H 0.4118 0.8753 0.3165
H11 H 0.4297 0.8788 0.1269
N2? N 0.2751(7) 0.7473(5) 0.0386(3)
C14? C 0.129(3) 0.753(3) -0.0384(11)
O2? O -0.108(3) 0.744(5) -0.022(3)
C15? C 0.187(3) 0.737(3) 0.1560(8)
C16? C -0.038(3) 0.649(3) 0.2266(17)
C17? C -0.094(5) 0.645(5) 0.3413(17)
C18? C 0.074(7) 0.730(6) 0.3855(14)
C19? C 0.299(6) 0.817(5) 0.3149(19)
C20? C 0.355(3) 0.821(3) 0.2001(16)
C21? C 0.254(3) 0.761(3) -0.1574(13)
C22? C 0.135(4) 0.852(3) -0.247(2)
C23? C 0.246(6) 0.864(5) -0.3602(17)
C24? C 0.475(7) 0.784(6) -0.3831(15)
C25? C 0.594(5) 0.693(5) -0.293(2)
C26? C 0.483(3) 0.681(3) -0.1803(18)
H12? H 0.4412 0.7501 0.0146
H13? H -0.1528 0.5913 0.1964
H14? H -0.2479 0.5853 0.3896
H15? H 0.0354 0.7272 0.4639
H16? H 0.4138 0.8750 0.3451
H17? H 0.5088 0.8809 0.1519
H18? H -0.0215 0.9059 -0.2317
H19? H 0.1652 0.9259 -0.4217
H20? H 0.5511 0.7926 -0.4602
H21? H 0.7504 0.6392 -0.3088
H22? H 0.5637 0.6191 -0.1188
loop_
_geom_bond_atom_site_label_1
_geom_bond_atom_site_label_2
_geom_bond_site_symmetry_1
_geom_bond_site_symmetry_2
O1 C7 1_555 1_555
C1 C2 1_555 1_555
C2 C3 1_555 1_555
C3 C4 1_555 1_555
C4 C5 1_555 1_555
C5 C6 1_555 1_555
C6 C1 1_555 1_555
C7 N1 1_555 1_555
N1 C1 1_555 1_555
C8 C7 1_555 1_555
C9 C8 1_555 1_555
C10 C9 1_555 1_555
C11 C10 1_555 1_555
C12 C11 1_555 1_555
C13 C8 1_555 1_555
H1 C2 1_555 1_555
H2 C3 1_555 1_555
H3 C4 1_555 1_555
H4 C5 1_555 1_555
H5 C6 1_555 1_555
H6 N1 1_555 1_555
H7 C9 1_555 1_555
H8 C10 1_555 1_555
H9 C11 1_555 1_555
H10 C12 1_555 1_555
H11 C13 1_555 1_555
C12 C13 1_555 1_555

#END
