
#######################################################################
#
#                 Cambridge Crystallographic Data Centre
#                                CCDC 
#
#######################################################################
#
# If this CIF has been generated from an entry in the Cambridge 
# Structural Database, then it will include bibliographic, chemical, 
# crystal, experimental, refinement or atomic coordinate data resulting 
# from the CCDC's data processing and validation procedures.
#
#######################################################################

data_BZCOCT
_chemical_formula_moiety         'C16 H12'
_chemical_name_systematic        
3,4.7,8-Dibenzo-tricyclo(4.2.0.0^2,5^)octa-3,7-diene
_symmetry_cell_setting           monoclinic
_symmetry_space_group_name_H-M   'P 21/c'
_symmetry_Int_Tables_number      14
_space_group_name_Hall           '-P 2ybc'
loop_
_symmetry_equiv_pos_site_id
_symmetry_equiv_pos_as_xyz
1 x,y,z
2 -x,1/2+y,1/2-z
3 -x,-y,-z
4 x,1/2-y,1/2+z
_cell_length_a                   10.716(2)
_cell_length_b                   7.706(1)
_cell_length_c                   6.719(1)
_cell_angle_alpha                90
_cell_angle_beta                 98.37(2)
_cell_angle_gamma                90
_cell_volume                     548.928
_cell_formula_units_Z            2
loop_
_atom_site_label
_atom_site_type_symbol
_atom_site_fract_x
_atom_site_fract_y
_atom_site_fract_z
C1 C 0.45210 -0.37210 0.49200
C2 C 0.31840 -0.41610 0.40420
C3 C 0.19500 -0.38730 0.42830
C4 C 0.10440 -0.48210 0.29720
C5 C 0.14050 -0.59550 0.15670
C6 C 0.26530 -0.62440 0.13590
C7 C 0.35310 -0.53000 0.26520
C8 C 0.49380 -0.50480 0.33240
H1 H 0.16300 -0.29100 0.51800
H2 H 0.01000 -0.45800 0.32000
H3 H 0.06000 -0.67200 0.07400
H4 H 0.29200 -0.71300 0.04700
H5 H 0.56200 -0.49200 0.23700
H6 H 0.47300 -0.25500 0.49200
C8B C 0.50620 -0.49520 0.66760
C1B C 0.54790 -0.62790 0.50800
C7B C 0.64690 -0.47000 0.73480
H5B H 0.43800 -0.50800 0.76300
C2B C 0.68160 -0.58390 0.59580
H6B H 0.52700 -0.74500 0.50800
C6B C 0.73470 -0.37560 0.86410
C3B C 0.80500 -0.61270 0.57170
C5B C 0.85950 -0.40450 0.84330
H4B H 0.70800 -0.28700 0.95300
C4B C 0.89560 -0.51790 0.70280
H1B H 0.83700 -0.70900 0.48200
H3B H 0.94000 -0.32800 0.92600
H2B H 0.99000 -0.54200 0.68000
loop_
_geom_bond_atom_site_label_1
_geom_bond_atom_site_label_2
_geom_bond_site_symmetry_1
_geom_bond_site_symmetry_2
C1 C2 1_555 1_555
C2 C3 1_555 1_555
C3 C4 1_555 1_555
C4 C5 1_555 1_555
C5 C6 1_555 1_555
C6 C7 1_555 1_555
C7 C2 1_555 1_555
C8 C1 1_555 1_555
H1 C3 1_555 1_555
H2 C4 1_555 1_555
H3 C5 1_555 1_555
H4 C6 1_555 1_555
H5 C8 1_555 1_555
H6 C1 1_555 1_555
C8B C1 1_555 1_555
C1B C8 1_555 1_555
C7B C8B 1_555 1_555
H5B C8B 1_555 1_555
C2B C1B 1_555 1_555
H6B C1B 1_555 1_555
C6B C7B 1_555 1_555
C3B C2B 1_555 1_555
C5B C6B 1_555 1_555
H4B C6B 1_555 1_555
C4B C3B 1_555 1_555
H1B C3B 1_555 1_555
H3B C5B 1_555 1_555
H2B C4B 1_555 1_555
C7 C8 1_555 1_555
C8B C1B 1_555 1_555
C7B C2B 1_555 1_555
C5B C4B 1_555 1_555

#END
