
#######################################################################
#
#                 Cambridge Crystallographic Data Centre
#                                CCDC 
#
#######################################################################
#
# If this CIF has been generated from an entry in the Cambridge 
# Structural Database, then it will include bibliographic, chemical, 
# crystal, experimental, refinement or atomic coordinate data resulting 
# from the CCDC's data processing and validation procedures.
#
#######################################################################

data_BZCYDT
_chemical_formula_moiety         'C30 H20'
_chemical_name_systematic        
Tetrabenzo-pentacyclo(6.2.2.2^2,6^.0^2,7^.0^3,7^)tetradeca-4,9,11,13-tetraene
_symmetry_cell_setting           orthorhombic
_symmetry_space_group_name_H-M   'P b c a'
_symmetry_Int_Tables_number      61
_space_group_name_Hall           '-P 2ac 2ab'
loop_
_symmetry_equiv_pos_site_id
_symmetry_equiv_pos_as_xyz
1 x,y,z
2 1/2-x,1/2+y,z
3 x,1/2-y,1/2+z
4 1/2-x,-y,1/2+z
5 -x,-y,-z
6 1/2+x,1/2-y,-z
7 -x,1/2+y,1/2-z
8 1/2+x,y,1/2-z
_cell_length_a                   21.186(9)
_cell_length_b                   16.865(9)
_cell_length_c                   11.298(5)
_cell_angle_alpha                90
_cell_angle_beta                 90
_cell_angle_gamma                90
_cell_volume                     4036.8
_exptl_crystal_colour            colorless
_chemical_melting_point          247-9deg.C
_cell_formula_units_Z            8
loop_
_atom_site_label
_atom_site_type_symbol
_atom_site_fract_x
_atom_site_fract_y
_atom_site_fract_z
C1 C 0.13520 0.99320 0.54590
C2 C 0.20690 0.97620 0.56380
C3 C 0.25010 1.03980 0.62560
C4 C 0.32000 1.02830 0.63040
C5 C 0.33520 0.95620 0.68470
C6 C 0.27500 0.90800 0.70770
C7 C 0.22180 0.97140 0.69570
C8 C 0.16190 0.97260 0.77430
C9 C 0.12110 0.90640 0.72060
C10 C 0.10650 0.91870 0.60210
C11 C 0.11560 1.06110 0.62540
C12 C 0.12890 1.05060 0.74610
C13 C 0.26660 0.85880 0.59420
C14 C 0.23250 0.90200 0.50970
C15 C 0.21960 0.87090 0.39950
C16 C 0.24150 0.79290 0.37620
C17 C 0.27600 0.75130 0.45900
C18 C 0.28920 0.78340 0.56870
C19 C 0.39730 0.93500 0.70640
C20 C 0.44450 0.98860 0.67000
C21 C 0.43020 1.06040 0.61710
C22 C 0.36670 1.08070 0.59360
C23 C 0.11350 1.10760 0.83030
C24 C 0.08380 1.17740 0.78880
C25 C 0.07020 1.18750 0.67000
C26 C 0.08580 1.13010 0.58510
C27 C 0.07130 0.86280 0.53700
C28 C 0.05410 0.79210 0.59540
C29 C 0.06960 0.78010 0.71260
C30 C 0.10380 0.83660 0.77860
H1 H 0.12800 1.00100 0.44800
H2 H 0.23300 1.09700 0.63100
H3 H 0.27900 0.88200 0.79600
H4 H 0.17100 0.96700 0.87000
H5 H 0.18600 0.89900 0.34100
H6 H 0.23200 0.77200 0.30000
H7 H 0.29900 0.69600 0.44000
H8 H 0.31400 0.75500 0.63100
H9 H 0.40900 0.88400 0.76600
H10 H 0.49000 0.97700 0.68700
H11 H 0.45500 1.10000 0.55800
H12 H 0.35700 1.13600 0.55100
H13 H 0.12300 1.09900 0.92600
H14 H 0.07600 1.21700 0.85600
H15 H 0.04900 1.24600 0.63300
H16 H 0.07400 1.14100 0.48400
H17 H 0.06100 0.86800 0.44300
H18 H 0.02900 0.75100 0.54600
H19 H 0.06100 0.72500 0.75800
H20 H 0.11800 0.82600 0.87300
loop_
_geom_bond_atom_site_label_1
_geom_bond_atom_site_label_2
_geom_bond_site_symmetry_1
_geom_bond_site_symmetry_2
C1 C2 1_555 1_555
C2 C3 1_555 1_555
C3 C4 1_555 1_555
C4 C5 1_555 1_555
C5 C6 1_555 1_555
C6 C7 1_555 1_555
C7 C2 1_555 1_555
C8 C7 1_555 1_555
C9 C8 1_555 1_555
C10 C1 1_555 1_555
C11 C1 1_555 1_555
C12 C8 1_555 1_555
C13 C6 1_555 1_555
C14 C2 1_555 1_555
C15 C14 1_555 1_555
C16 C15 1_555 1_555
C17 C16 1_555 1_555
C18 C13 1_555 1_555
C19 C5 1_555 1_555
C20 C19 1_555 1_555
C21 C20 1_555 1_555
C22 C4 1_555 1_555
C23 C12 1_555 1_555
C24 C23 1_555 1_555
C25 C24 1_555 1_555
C26 C11 1_555 1_555
C27 C10 1_555 1_555
C28 C27 1_555 1_555
C29 C28 1_555 1_555
C30 C9 1_555 1_555
H1 C1 1_555 1_555
H2 C3 1_555 1_555
H3 C6 1_555 1_555
H4 C8 1_555 1_555
H5 C15 1_555 1_555
H6 C16 1_555 1_555
H7 C17 1_555 1_555
H8 C18 1_555 1_555
H9 C19 1_555 1_555
H10 C20 1_555 1_555
H11 C21 1_555 1_555
H12 C22 1_555 1_555
H13 C23 1_555 1_555
H14 C24 1_555 1_555
H15 C25 1_555 1_555
H16 C26 1_555 1_555
H17 C27 1_555 1_555
H18 C28 1_555 1_555
H19 C29 1_555 1_555
H20 C30 1_555 1_555
C3 C7 1_555 1_555
C9 C10 1_555 1_555
C11 C12 1_555 1_555
C13 C14 1_555 1_555
C17 C18 1_555 1_555
C21 C22 1_555 1_555
C25 C26 1_555 1_555
C29 C30 1_555 1_555

#END
