
#######################################################################
#
#                 Cambridge Crystallographic Data Centre
#                                CCDC 
#
#######################################################################
#
# If this CIF has been generated from an entry in the Cambridge 
# Structural Database, then it will include bibliographic, chemical, 
# crystal, experimental, refinement or atomic coordinate data resulting 
# from the CCDC's data processing and validation procedures.
#
#######################################################################

data_BZEXCH
_chemical_formula_moiety         'C26 H26 Br2 O6'
_chemical_name_systematic        
trans-2,5-Di-p-bromophenyl-2,5-diethoxycarbonylcyclohexane-1,4-dione
_symmetry_cell_setting           monoclinic
_symmetry_space_group_name_H-M   'P 21/c'
_symmetry_Int_Tables_number      14
_space_group_name_Hall           '-P 2ybc'
loop_
_symmetry_equiv_pos_site_id
_symmetry_equiv_pos_as_xyz
1 x,y,z
2 -x,1/2+y,1/2-z
3 -x,-y,-z
4 x,1/2-y,1/2+z
_cell_length_a                   14.41(1)
_cell_length_b                   6.024(5)
_cell_length_c                   14.79(1)
_cell_angle_alpha                90
_cell_angle_beta                 102.2(1)
_cell_angle_gamma                90
_cell_volume                     1254.86
_chemical_melting_point          216-7deg.C
_cell_formula_units_Z            2
loop_
_atom_site_label
_atom_site_type_symbol
_atom_site_fract_x
_atom_site_fract_y
_atom_site_fract_z
Br1 Br 0.45940 -0.06500 0.37650
C1 C 0.35430 -0.24090 0.31720
C2 C 0.15160 -0.66040 0.01990
C3 C 0.27110 -0.91870 0.00370
C4 C 0.33330 -1.08470 0.06530
C5 C -0.00930 -0.71750 0.03990
C6 C 0.36830 -0.44780 0.28360
C7 C 0.29020 -0.57030 0.23820
C8 C 0.19850 -0.49040 0.23100
C9 C 0.18680 -0.28240 0.26760
C10 C 0.26260 -0.15140 0.31150
C11 C 0.11390 -0.62510 0.18280
C12 C 0.08170 -0.58430 0.07890
C13 C 0.06130 -0.33510 0.05660
O1 O -0.03440 -0.87110 0.08420
O2 O 0.15500 -0.58110 -0.05310
O3 O 0.20430 -0.83600 0.05720
C13B C -0.06130 -0.66490 -0.05660
C5B C 0.00930 -0.28250 -0.03990
C12B C -0.08170 -0.41570 -0.07890
O1B O 0.03440 -0.12890 -0.08420
C2B C -0.15160 -0.33960 -0.01990
C11B C -0.11390 -0.37490 -0.18280
O2B O -0.15500 -0.41890 0.05310
O3B O -0.20430 -0.16400 -0.05720
C8B C -0.19850 -0.50960 -0.23100
C3B C -0.27110 -0.08130 -0.00370
C7B C -0.29020 -0.42970 -0.23820
C9B C -0.18680 -0.71760 -0.26760
C4B C -0.33330 0.08470 -0.06530
C6B C -0.36830 -0.55220 -0.28360
C10B C -0.26260 -0.84860 -0.31150
C1B C -0.35430 -0.75910 -0.31720
Br1B Br -0.45940 -0.93500 -0.37650
loop_
_geom_bond_atom_site_label_1
_geom_bond_atom_site_label_2
_geom_bond_site_symmetry_1
_geom_bond_site_symmetry_2
Br1 C1 1_555 1_555
C1 C6 1_555 1_555
C2 C12 1_555 1_555
C3 C4 1_555 1_555
C5 C12 1_555 1_555
C6 C7 1_555 1_555
C7 C8 1_555 1_555
C8 C9 1_555 1_555
C9 C10 1_555 1_555
C10 C1 1_555 1_555
C11 C8 1_555 1_555
C12 C11 1_555 1_555
C13 C12 1_555 1_555
O1 C5 1_555 1_555
O2 C2 1_555 1_555
O3 C2 1_555 1_555
C13B C5 1_555 1_555
C5B C13 1_555 1_555
C12B C13B 1_555 1_555
O1B C5B 1_555 1_555
C2B C12B 1_555 1_555
C11B C12B 1_555 1_555
O2B C2B 1_555 1_555
O3B C2B 1_555 1_555
C8B C11B 1_555 1_555
C3B O3B 1_555 1_555
C7B C8B 1_555 1_555
C9B C8B 1_555 1_555
C4B C3B 1_555 1_555
C6B C7B 1_555 1_555
C10B C9B 1_555 1_555
C1B C6B 1_555 1_555
Br1B C1B 1_555 1_555
C3 O3 1_555 1_555
C5B C12B 1_555 1_555
C10B C1B 1_555 1_555

#END
