
#######################################################################
#
#                 Cambridge Crystallographic Data Centre
#                                CCDC 
#
#######################################################################
#
# If this CIF has been generated from an entry in the Cambridge 
# Structural Database, then it will include bibliographic, chemical, 
# crystal, experimental, refinement or atomic coordinate data resulting 
# from the CCDC's data processing and validation procedures.
#
#######################################################################

data_BZSALT
_chemical_formula_moiety         'C21 H20 Br1 N1 O7 S1'
_chemical_name_systematic        
methyl-4,6-O-Benzylidene-2-O-p-bromobenzenesulfonyl-3-cyano-3-deoxy-\a-D-altropyranoside
_symmetry_cell_setting           triclinic
_symmetry_space_group_name_H-M   'P 1'
_symmetry_Int_Tables_number      1
_space_group_name_Hall           'P 1'
loop_
_symmetry_equiv_pos_site_id
_symmetry_equiv_pos_as_xyz
1 x,y,z
_cell_length_a                   6.05
_cell_length_b                   7.39
_cell_length_c                   12.62
_cell_angle_alpha                105.6
_cell_angle_beta                 97.4
_cell_angle_gamma                92.3
_cell_volume                     537.269
_cell_formula_units_Z            1
loop_
_atom_site_label
_atom_site_type_symbol
_atom_site_fract_x
_atom_site_fract_y
_atom_site_fract_z
Br1 Br 0.00000 0.00000 -1.00000
C1 C 0.14520 0.47040 -0.38670
C2 C 0.01130 0.21550 -0.23200
C3 C 0.56750 0.53210 -0.01590
C4 C 0.61240 0.51620 0.09780
C5 C 0.44930 0.57080 0.16890
C6 C 0.50280 0.56300 0.28030
C7 C 0.69910 0.50120 0.31940
C8 C 0.19120 0.26540 -0.38880
C9 C 0.84130 0.44710 0.24890
C10 C 0.80550 0.45300 0.14000
C11 C 0.30760 0.01720 -0.64200
C12 C 0.44040 0.07990 -0.70970
C13 C 0.34580 0.07170 -0.81810
C14 C 0.12400 0.00250 -0.85520
C15 C -0.00780 -0.05490 -0.78510
C16 C 0.07830 -0.04410 -0.68030
C17 C 0.22210 0.23490 -0.27260
C18 C 0.38340 0.39660 -0.19410
C19 C 0.30280 0.58700 -0.19840
C20 C 0.46840 0.74220 -0.12260
C21 C -0.15150 0.67270 -0.36970
N1 N -0.15170 0.19300 -0.19980
O1 O 0.39900 0.23080 -0.43590
O2 O 0.40700 0.38720 -0.08330
O3 O 0.49270 0.70990 -0.01410
O4 O 0.30280 -0.11100 -0.46990
O5 O 0.66690 0.02640 -0.50310
O6 O 0.29540 0.60590 -0.30740
O7 O -0.07210 0.49050 -0.36970
S1 S 0.43010 0.02640 -0.50780
loop_
_geom_bond_atom_site_label_1
_geom_bond_atom_site_label_2
_geom_bond_site_symmetry_1
_geom_bond_site_symmetry_2
Br1 C14 1_555 1_555
C1 C8 1_555 1_555
C2 C17 1_555 1_555
C3 C4 1_555 1_555
C4 C5 1_555 1_555
C5 C6 1_555 1_555
C6 C7 1_555 1_555
C7 C9 1_555 1_555
C8 C17 1_555 1_555
C9 C10 1_555 1_555
C10 C4 1_555 1_555
C11 C12 1_555 1_555
C12 C13 1_555 1_555
C13 C14 1_555 1_555
C14 C15 1_555 1_555
C15 C16 1_555 1_555
C16 C11 1_555 1_555
C17 C18 1_555 1_555
C18 C19 1_555 1_555
C19 C20 1_555 1_555
C20 O3 1_555 1_555
C21 O7 1_555 1_555
N1 C2 1_555 1_555
O1 C8 1_555 1_555
O2 C3 1_555 1_555
O3 C3 1_555 1_555
O4 S1 1_555 1_555
O5 S1 1_555 1_555
O6 C1 1_555 1_555
O7 C1 1_555 1_555
S1 C11 1_555 1_555
C18 O2 1_555 1_555
C19 O6 1_555 1_555
O1 S1 1_555 1_555

#END
