
#######################################################################
#
#                 Cambridge Crystallographic Data Centre
#                                CCDC 
#
#######################################################################
#
# If this CIF has been generated from an entry in the Cambridge 
# Structural Database, then it will include bibliographic, chemical, 
# crystal, experimental, refinement or atomic coordinate data resulting 
# from the CCDC's data processing and validation procedures.
#
#######################################################################

data_BZTZAC02
_chemical_formula_moiety         'C8 H7 N3 O2'
_chemical_name_systematic        '1H-benzotriazol-1-ylacetic acid'
_symmetry_cell_setting           monoclinic
_symmetry_space_group_name_H-M   'P 21/c'
_symmetry_Int_Tables_number      14
_space_group_name_Hall           '-P 2ybc'
loop_
_symmetry_equiv_pos_site_id
_symmetry_equiv_pos_as_xyz
1 x,y,z
2 -x,1/2+y,1/2-z
3 -x,-y,-z
4 x,1/2-y,1/2+z
_cell_length_a                   13.2539(16)
_cell_length_b                   4.4978(5)
_cell_length_c                   15.1638(18)
_cell_angle_alpha                90
_cell_angle_beta                 113.097(1)
_cell_angle_gamma                90
_cell_volume                     831.506
_exptl_crystal_colour            pink
_exptl_crystal_description       prism
_cell_formula_units_Z            4
loop_
_atom_site_label
_atom_site_type_symbol
_atom_site_fract_x
_atom_site_fract_y
_atom_site_fract_z
O1 O 0.39230(10) 0.4724(3) 0.16481(7)
H1 H 0.3646(16) 0.566(5) 0.1114(10)
O2 O 0.26745(13) 0.7218(4) 0.19925(9)
N1 N 0.34285(10) 0.4941(3) 0.38235(8)
N2 N 0.38833(10) 0.6899(3) 0.45433(8)
N3 N 0.32623(11) 0.7032(3) 0.50318(8)
C1 C 0.34401(13) 0.5565(3) 0.22140(10)
C2 C 0.39874(13) 0.4220(4) 0.31975(10)
H2 H 0.4009 0.2076 0.3137
H3 H 0.4738 0.4928 0.3487
C3 C 0.24866(12) 0.3781(3) 0.38359(9)
C4 C 0.17178(14) 0.1748(4) 0.32539(11)
H4 H 0.1786 0.0857 0.2727
C5 C 0.08578(15) 0.1149(4) 0.35092(14)
H5 H 0.0321 -0.0181 0.3140
C6 C 0.07566(16) 0.2477(5) 0.43113(14)
H6 H 0.0156 0.1992 0.4455
C7 C 0.15080(15) 0.4446(4) 0.48826(12)
H7 H 0.1440 0.5297 0.5416
C8 C 0.23900(13) 0.5128(3) 0.46273(10)
loop_
_geom_bond_atom_site_label_1
_geom_bond_atom_site_label_2
_geom_bond_site_symmetry_1
_geom_bond_site_symmetry_2
O1 H1 1_555 1_555
O2 C1 1_555 1_555
N1 N2 1_555 1_555
N2 N3 1_555 1_555
N3 C8 1_555 1_555
C1 O1 1_555 1_555
C2 N1 1_555 1_555
H2 C2 1_555 1_555
H3 C2 1_555 1_555
C3 N1 1_555 1_555
C4 C3 1_555 1_555
H4 C4 1_555 1_555
C5 C4 1_555 1_555
H5 C5 1_555 1_555
C6 C5 1_555 1_555
H6 C6 1_555 1_555
C7 C6 1_555 1_555
H7 C7 1_555 1_555
C8 C3 1_555 1_555
C1 C2 1_555 1_555
C7 C8 1_555 1_555

#END
