
#######################################################################
#
#                 Cambridge Crystallographic Data Centre
#                                CCDC 
#
#######################################################################
#
# If this CIF has been generated from an entry in the Cambridge 
# Structural Database, then it will include bibliographic, chemical, 
# crystal, experimental, refinement or atomic coordinate data resulting 
# from the CCDC's data processing and validation procedures.
#
#######################################################################

data_CABBAL
_chemical_formula_moiety         'C16 H11 Cl2 N1 O4 S1'
_chemical_name_systematic        
(3,4-dichlorophenyl)(4-hydroxy-2-methyl-1,1-dioxido-2H-1,2-benzothiazin-3-yl)methanone
_chemical_properties_biological  'herbicidal activity'
_symmetry_cell_setting           triclinic
_symmetry_space_group_name_H-M   'P -1'
_symmetry_Int_Tables_number      2
_space_group_name_Hall           '-P 1'
loop_
_symmetry_equiv_pos_site_id
_symmetry_equiv_pos_as_xyz
1 x,y,z
2 -x,-y,-z
_cell_length_a                   7.0818(12)
_cell_length_b                   9.3762(14)
_cell_length_c                   12.580(2)
_cell_angle_alpha                80.141(5)
_cell_angle_beta                 79.167(4)
_cell_angle_gamma                75.510(5)
_cell_volume                     787.53
_exptl_crystal_colour            colorless
_exptl_crystal_description       Prism
_cell_formula_units_Z            2
loop_
_atom_site_label
_atom_site_type_symbol
_atom_site_fract_x
_atom_site_fract_y
_atom_site_fract_z
S1 S 1.18543(3) 0.16398(2) 0.635122(17)
Cl1 Cl 0.15668(4) 0.70595(3) 0.58791(2)
Cl2 Cl 0.04787(3) 0.59184(3) 0.83781(2)
O1 O 1.24800(11) 0.29952(8) 0.62870(6)
O2 O 1.19125(11) 0.10380(9) 0.53692(6)
O3 O 1.07433(11) 0.18523(10) 0.97531(6)
H1 H 0.9752 0.2541 0.9892
O4 O 0.75104(11) 0.36167(9) 0.94736(6)
N1 N 0.96043(11) 0.18809(9) 0.70192(6)
C1 C 1.31685(13) 0.02938(10) 0.72590(7)
C2 C 1.47528(13) -0.08031(10) 0.68866(8)
H2 H 1.5100 -0.0891 0.6130
C3 C 1.58248(14) -0.17731(11) 0.76452(9)
H3 H 1.6922 -0.2525 0.7404
C4 C 1.52966(15) -0.16465(11) 0.87529(9)
H4 H 1.6043 -0.2307 0.9263
C5 C 1.36812(14) -0.05586(12) 0.91217(8)
H5 H 1.3323 -0.0487 0.9880
C6 C 1.25885(13) 0.04258(10) 0.83752(7)
C7 C 1.08544(13) 0.15600(11) 0.87473(7)
C8 C 0.94458(13) 0.22772(10) 0.80917(7)
C9 C 0.77678(13) 0.33933(10) 0.84967(7)
C10 C 0.62870(13) 0.42663(10) 0.77979(7)
C11 C 0.43387(13) 0.46600(10) 0.83154(7)
H6 H 0.4012 0.4353 0.9074
C12 C 0.28852(13) 0.54984(10) 0.77224(7)
C13 C 0.33681(14) 0.60002(10) 0.66196(7)
C14 C 0.53176(14) 0.56560(10) 0.61103(7)
H7 H 0.5654 0.6023 0.5364
C15 C 0.67730(14) 0.47761(10) 0.66917(7)
H8 H 0.8098 0.4520 0.6338
C16 C 0.84540(15) 0.07893(12) 0.69578(9)
H9 H 0.8911 -0.0134 0.7428
H10 H 0.8636 0.0585 0.6202
H11 H 0.7052 0.1193 0.7202
loop_
_geom_bond_atom_site_label_1
_geom_bond_atom_site_label_2
_geom_bond_site_symmetry_1
_geom_bond_site_symmetry_2
S1 O1 1_555 1_555
Cl1 C13 1_555 1_555
Cl2 C12 1_555 1_555
O2 S1 1_555 1_555
O3 H1 1_555 1_555
O4 C9 1_555 1_555
N1 S1 1_555 1_555
C1 S1 1_555 1_555
C2 C1 1_555 1_555
H2 C2 1_555 1_555
C3 C2 1_555 1_555
H3 C3 1_555 1_555
C4 C3 1_555 1_555
H4 C4 1_555 1_555
C5 C4 1_555 1_555
H5 C5 1_555 1_555
C6 C1 1_555 1_555
C7 O3 1_555 1_555
C8 N1 1_555 1_555
C9 C8 1_555 1_555
C10 C9 1_555 1_555
C11 C10 1_555 1_555
H6 C11 1_555 1_555
C12 C11 1_555 1_555
C13 C12 1_555 1_555
C14 C13 1_555 1_555
H7 C14 1_555 1_555
C15 C10 1_555 1_555
H8 C15 1_555 1_555
C16 N1 1_555 1_555
H9 C16 1_555 1_555
H10 C16 1_555 1_555
H11 C16 1_555 1_555
C5 C6 1_555 1_555
C6 C7 1_555 1_555
C7 C8 1_555 1_555
C14 C15 1_555 1_555

#END
