
#######################################################################
#
#                 Cambridge Crystallographic Data Centre
#                                CCDC 
#
#######################################################################
#
# If this CIF has been generated from an entry in the Cambridge 
# Structural Database, then it will include bibliographic, chemical, 
# crystal, experimental, refinement or atomic coordinate data resulting 
# from the CCDC's data processing and validation procedures.
#
#######################################################################

data_CABFOD
_chemical_formula_moiety         
'C14 H14 N3 O3 S1 1-,32.9(H2 O1),Na1 1+,C48 H48 N32 O16'
_chemical_name_systematic        
'sodium cucurbit(8)uril 4-((4-(dimethylamino)phenyl)diazenyl)benzenesulfonate hydrate'
_symmetry_cell_setting           monoclinic
_symmetry_space_group_name_H-M   'P 21/n'
_symmetry_Int_Tables_number      14
_space_group_name_Hall           '-P 2yn'
loop_
_symmetry_equiv_pos_site_id
_symmetry_equiv_pos_as_xyz
1 x,y,z
2 1/2-x,1/2+y,1/2-z
3 -x,-y,-z
4 1/2+x,1/2-y,1/2+z
_cell_length_a                   15.2512(12)
_cell_length_b                   23.2861(18)
_cell_length_c                   28.731(2)
_cell_angle_alpha                90
_cell_angle_beta                 104.596(4)
_cell_angle_gamma                90
_cell_volume                     9874.25
_cell_formula_units_Z            4
loop_
_atom_site_label
_atom_site_type_symbol
_atom_site_fract_x
_atom_site_fract_y
_atom_site_fract_z
C1 C -0.0980(9) 0.9081(5) 0.5243(5)
H1 H -0.1332 0.9175 0.4917
H2 H -0.1279 0.9245 0.5478
H3 H -0.0941 0.8663 0.5283
C2 C 0.0276(8) 0.9587(5) 0.5783(5)
H4 H 0.0662 0.9314 0.6002
H5 H -0.0228 0.9704 0.5917
H6 H 0.0633 0.9926 0.5745
N1 N -0.0077(8) 0.9319(4) 0.5322(5)
C3 C 0.0446(12) 0.9207(6) 0.5023(7)
C4 C 0.0172(9) 0.8874(5) 0.4596(7)
H7 H -0.0429 0.8729 0.4510
C5 C 0.0707(12) 0.8756(4) 0.4314(5)
H8 H 0.0488 0.8524 0.4037
C6 C 0.1612(11) 0.8973(5) 0.4419(6)
C7 C 0.1908(8) 0.9268(5) 0.4846(6)
H9 H 0.2517 0.9401 0.4936
C8 C 0.1355(13) 0.9377(5) 0.5145(5)
H10 H 0.1594 0.9571 0.5440
N2 N 0.2243(7) 0.8870(3) 0.4138(4)
N3 N 0.195(2) 0.865(2) 0.3735(10)
C9 C 0.262(6) 0.851(5) 0.347(3)
C10 C 0.232(2) 0.8183(15) 0.3059(9)
H11 H 0.1692 0.8092 0.2955
C11 C 0.2889(14) 0.7988(12) 0.2793(11)
H12 H 0.2665 0.7748 0.2522
C12 C 0.3824(15) 0.8149(8) 0.2927(8)
C13 C 0.4094(19) 0.8545(9) 0.3316(11)
H13 H 0.4687 0.8704 0.3387
C14 C 0.350(2) 0.8704(17) 0.3594(16)
H14 H 0.3704 0.8947 0.3865
S1 S 0.4559(4) 0.7919(3) 0.2595(2)
O1 O 0.4310(7) 0.7318(5) 0.2470(4)
O2 O 0.4368(12) 0.8300(5) 0.2169(7)
O3 O 0.550(4) 0.798(2) 0.2937(11)
O4 O 0.5225(8) 0.9372(7) 0.2462(5)
C15 C 1.2249(7) 0.2444(5) 0.5896(5)
H15 H 1.1779 0.2614 0.6037
H16 H 1.2800 0.2685 0.5996
C16 C 1.1059(13) 0.2563(4) 0.5128(8)
C17 C 1.0199(8) 0.2812(5) 0.4319(4)
H17 H 0.9752 0.2927 0.4498
H18 H 1.0349 0.3154 0.4150
C18 C 0.8938(10) 0.2192(4) 0.3921(6)
C19 C 0.7710(8) 0.1755(5) 0.3308(4)
H19 H 0.7484 0.1899 0.2974
H20 H 0.7341 0.1937 0.3506
C20 C 0.7094(8) 0.0892(6) 0.3582(6)
C21 C 0.6285(7) -0.0034(6) 0.3611(4)
H21 H 0.6037 0.0187 0.3843
H22 H 0.5785 -0.0097 0.3320
C22 C 0.6463(7) -0.0699(6) 0.4259(7)
C23 C 1.3636(7) 0.1641(5) 0.5307(4)
H23 H 1.4039 0.1960 0.5454
H24 H 1.3975 0.1395 0.5132
C24 C 1.2613(8) 0.1735(6) 0.4487(5)
C25 C 1.1744(8) 0.2178(4) 0.3733(5)
H25 H 1.1768 0.2579 0.3623
H26 H 1.2169 0.1950 0.3597
C26 C 1.0648(10) 0.1459(6) 0.3308(4)
C27 C 0.9264(7) 0.0968(5) 0.2822(4)
H27 H 0.8911 0.1152 0.2522
H28 H 0.9736 0.0726 0.2738
C28 C 0.8795(11) 0.0043(6) 0.3069(4)
C29 C 0.7888(6) -0.0830(5) 0.3071(4)
H29 H 0.7405 -0.0899 0.2774
H30 H 0.8449 -0.1011 0.3027
C30 C 0.8077(11) -0.1596(5) 0.3666(4)
C31 C 1.2527(8) 0.2456(4) 0.5062(5)
H31 H 1.3038 0.2733 0.5169
C32 C 1.1902(8) 0.2623(4) 0.4566(4)
H32 H 1.2048 0.3010 0.4455
C33 C 1.0056(8) 0.2325(4) 0.3511(5)
H33 H 1.0112 0.2707 0.3362
C34 C 0.9265(7) 0.1960(4) 0.3207(4)
H34 H 0.9000 0.2141 0.2887
C35 C 0.7711(7) 0.0763(5) 0.2947(4)
H35 H 0.7425 0.0909 0.2616
C36 C 0.7294(7) 0.0192(5) 0.3046(4)
H36 H 0.6779 0.0076 0.2772
C37 C 0.6733(8) -0.1068(6) 0.3542(4)
H37 H 0.6254 -0.1096 0.3233
C38 C 0.6695(8) -0.1579(5) 0.3867(5)
H38 H 0.6170 -0.1836 0.3726
N4 N 1.1933(10) 0.2455(3) 0.5378(4)
N5 N 1.1013(8) 0.2599(3) 0.4653(6)
N6 N 0.9811(6) 0.2374(3) 0.3971(4)
N7 N 0.8622(6) 0.1932(3) 0.3484(4)
N8 N 0.7575(5) 0.1144(4) 0.3308(3)
N9 N 0.6989(5) 0.0312(4) 0.3478(3)
N10 N 0.6588(5) -0.0576(5) 0.3817(5)
N11 N 0.6598(5) -0.1298(6) 0.4306(4)
N12 N 1.2857(6) 0.1873(3) 0.4970(4)
N13 N 1.2056(6) 0.2165(4) 0.4256(4)
N14 N 1.0839(6) 0.1960(4) 0.3539(3)
N15 N 0.9700(6) 0.1410(4) 0.3153(3)
N16 N 0.8679(6) 0.0611(4) 0.3006(3)
N17 N 0.8037(7) -0.0222(4) 0.3126(3)
N18 N 0.7641(6) -0.1105(4) 0.3460(4)
N19 N 0.7543(7) -0.1863(4) 0.3911(3)
O5 O 1.0415(7) 0.2617(3) 0.5321(3)
O6 O 0.8494(5) 0.2250(2) 0.4229(3)
O7 O 0.6815(4) 0.1120(3) 0.3910(3)
O8 O 0.6284(4) -0.0395(4) 0.4558(3)
O9 O 1.2875(4) 0.1316(3) 0.4315(3)
O10 O 1.1185(5) 0.1089(3) 0.3252(2)
O11 O 0.9517(5) -0.0211(3) 0.3068(2)
O12 O 0.8819(6) -0.1753(3) 0.3609(2)
C15B C 0.7751(7) -0.2444(5) 0.4104(5)
H15B H 0.8221 -0.2614 0.3963
H16B H 0.7200 -0.2685 0.4004
C16B C 0.8941(13) -0.2563(4) 0.4872(8)
C17B C 0.9801(8) -0.2812(5) 0.5681(4)
H17B H 1.0248 -0.2927 0.5502
H18B H 0.9651 -0.3154 0.5850
C18B C 1.1062(10) -0.2192(4) 0.6079(6)
C19B C 1.2290(8) -0.1755(5) 0.6692(4)
H19B H 1.2516 -0.1899 0.7026
H20B H 1.2659 -0.1937 0.6494
C20B C 1.2906(8) -0.0892(6) 0.6418(6)
C21B C 1.3715(7) 0.0034(6) 0.6389(4)
H21B H 1.3963 -0.0187 0.6157
H22B H 1.4215 0.0097 0.6680
C22B C 1.3537(7) 0.0699(6) 0.5741(7)
C23B C 0.6364(7) -0.1641(5) 0.4693(4)
H23B H 0.5961 -0.1960 0.4546
H24B H 0.6025 -0.1395 0.4868
C24B C 0.7387(8) -0.1735(6) 0.5513(5)
C25B C 0.8256(8) -0.2178(4) 0.6267(5)
H25B H 0.8232 -0.2579 0.6377
H26B H 0.7831 -0.1950 0.6403
C26B C 0.9352(10) -0.1459(6) 0.6692(4)
C27B C 1.0736(7) -0.0968(5) 0.7178(4)
H27B H 1.1089 -0.1152 0.7478
H28B H 1.0264 -0.0726 0.7262
C28B C 1.1205(11) -0.0043(6) 0.6931(4)
C29B C 1.2112(6) 0.0830(5) 0.6929(4)
H29B H 1.2595 0.0899 0.7226
H30B H 1.1551 0.1011 0.6973
C30B C 1.1923(11) 0.1596(5) 0.6334(4)
C31B C 0.7473(8) -0.2456(4) 0.4938(5)
H31B H 0.6962 -0.2733 0.4831
C32B C 0.8098(8) -0.2623(4) 0.5434(4)
H32B H 0.7952 -0.3010 0.5545
C33B C 0.9944(8) -0.2325(4) 0.6489(5)
H33B H 0.9888 -0.2707 0.6638
C34B C 1.0735(7) -0.1960(4) 0.6793(4)
H34B H 1.1000 -0.2141 0.7113
C35B C 1.2289(7) -0.0763(5) 0.7053(4)
H35B H 1.2575 -0.0909 0.7384
C36B C 1.2706(7) -0.0192(5) 0.6954(4)
H36B H 1.3221 -0.0076 0.7228
C37B C 1.3267(8) 0.1068(6) 0.6458(4)
H37B H 1.3746 0.1096 0.6767
C38B C 1.3305(8) 0.1579(5) 0.6133(5)
H38B H 1.3830 0.1836 0.6274
N4B N 0.8067(10) -0.2455(3) 0.4622(4)
N5B N 0.8987(8) -0.2599(3) 0.5347(6)
N6B N 1.0189(6) -0.2374(3) 0.6029(4)
N7B N 1.1378(6) -0.1932(3) 0.6516(4)
N8B N 1.2425(5) -0.1144(4) 0.6692(3)
N9B N 1.3011(5) -0.0312(4) 0.6522(3)
N10B N 1.3412(5) 0.0576(5) 0.6183(5)
N11B N 1.3402(5) 0.1298(6) 0.5694(4)
N12B N 0.7143(6) -0.1873(3) 0.5030(4)
N13B N 0.7944(6) -0.2165(4) 0.5744(4)
N14B N 0.9161(6) -0.1960(4) 0.6461(3)
N15B N 1.0300(6) -0.1410(4) 0.6847(3)
N16B N 1.1321(6) -0.0611(4) 0.6994(3)
N17B N 1.1963(7) 0.0222(4) 0.6874(3)
N18B N 1.2359(6) 0.1105(4) 0.6540(4)
N19B N 1.2457(7) 0.1863(4) 0.6089(3)
O5B O 0.9585(7) -0.2617(3) 0.4679(3)
O6B O 1.1506(5) -0.2250(2) 0.5771(3)
O7B O 1.3185(4) -0.1120(3) 0.6090(3)
O8B O 1.3716(4) 0.0395(4) 0.5442(3)
O9B O 0.7125(4) -0.1316(3) 0.5685(3)
O10B O 0.8815(5) -0.1089(3) 0.6748(2)
O11B O 1.0483(5) 0.0211(3) 0.6932(2)
O12B O 1.1181(6) 0.1753(3) 0.6391(2)
C39 C 0.8058(8) 0.2901(4) 0.5047(5)
H39 H 0.8350 0.2518 0.5096
H40 H 0.8493 0.3170 0.4959
C40 C 0.7189(11) 0.3158(6) 0.4231(7)
C41 C 0.6270(7) 0.3162(4) 0.3419(5)
H41 H 0.6192 0.2832 0.3195
H42 H 0.6782 0.3394 0.3368
C42 C 0.5468(11) 0.4077(7) 0.3212(4)
C43 C 0.4420(7) 0.4841(5) 0.2778(4)
H43 H 0.5009 0.5034 0.2807
H44 H 0.4144 0.4773 0.2432
C44 C 0.4135(13) 0.5763(7) 0.3124(4)
C45 C 0.3379(7) 0.6675(6) 0.3228(5)
H45 H 0.3981 0.6825 0.3219
H46 H 0.2927 0.6837 0.2949
C46 C 0.3755(11) 0.7202(6) 0.4001(6)
C47 C 0.6254(7) 0.2146(4) 0.5350(5)
H47 H 0.5690 0.2007 0.5424
H48 H 0.6668 0.1813 0.5377
C48 C 0.5154(11) 0.2466(4) 0.4596(5)
C49 C 0.4383(8) 0.2541(5) 0.3747(4)
H49 H 0.3880 0.2409 0.3881
H50 H 0.4471 0.2251 0.3511
C50 C 0.3398(12) 0.3392(5) 0.3531(5)
C51 C 0.2443(8) 0.4156(6) 0.3033(4)
H51 H 0.2187 0.4113 0.2682
H52 H 0.1997 0.3996 0.3196
C52 C 0.2047(9) 0.5014(7) 0.3408(5)
C53 C 0.1436(7) 0.5978(5) 0.3500(4)
H53 H 0.1053 0.6168 0.3211
H54 H 0.1039 0.5743 0.3648
C54 C 0.1768(8) 0.6419(7) 0.4277(7)
C55 C 0.6655(7) 0.2369(4) 0.4567(4)
H55 H 0.7005 0.2002 0.4590
C56 C 0.6067(9) 0.2467(5) 0.4051(4)
H56 H 0.6059 0.2121 0.3843
C57 C 0.4543(8) 0.3281(4) 0.3126(4)
H57 H 0.4514 0.2983 0.2871
C58 C 0.3963(8) 0.3822(5) 0.2925(4)
H58 H 0.3693 0.3782 0.2571
C59 C 0.2883(8) 0.5157(5) 0.2852(4)
H59 H 0.2625 0.5081 0.2502
C60 C 0.2551(9) 0.5742(5) 0.3003(4)
H60 H 0.2138 0.5942 0.2724
C61 C 0.2248(9) 0.6920(5) 0.3717(4)
H61 H 0.1841 0.7107 0.3428
C62 C 0.2379(7) 0.7310(5) 0.4167(5)
H62 H 0.1993 0.7663 0.4102
N20 N 0.7256(5) 0.2864(4) 0.4645(4)
N21 N 0.6503(8) 0.2955(4) 0.3882(5)
N22 N 0.5428(6) 0.3522(5) 0.3285(3)
N23 N 0.4586(8) 0.4289(4) 0.3020(3)
N24 N 0.3837(6) 0.5221(6) 0.2961(3)
N25 N 0.3383(9) 0.6056(5) 0.3182(3)
N26 N 0.3171(8) 0.6868(4) 0.3661(4)
N27 N 0.3339(7) 0.7445(4) 0.4296(4)
N28 N 0.6030(7) 0.2349(3) 0.4849(4)
N29 N 0.5195(7) 0.2580(3) 0.4129(4)
N30 N 0.4131(8) 0.3083(5) 0.3500(3)
N31 N 0.3280(6) 0.3817(4) 0.3174(4)
N32 N 0.2557(6) 0.4748(5) 0.3144(4)
N33 N 0.2108(6) 0.5603(5) 0.3357(3)
N34 N 0.1874(6) 0.6394(5) 0.3826(5)
N35 N 0.2103(6) 0.6916(5) 0.4510(4)
O13 O 0.7713(5) 0.3560(4) 0.4175(2)
O14 O 0.6150(6) 0.4392(3) 0.3291(2)
O15 O 0.4897(7) 0.5928(3) 0.3203(3)
O16 O 0.4581(7) 0.7271(3) 0.4007(2)
O17 O 0.4485(5) 0.2484(3) 0.4758(3)
O18 O 0.2891(5) 0.3303(3) 0.3790(3)
O19 O 0.1600(6) 0.4776(3) 0.3657(3)
O20 O 0.1397(5) 0.6047(4) 0.4473(3)
C39B C 0.1942(8) 0.7099(4) 0.4953(5)
H39B H 0.1650 0.7482 0.4904
H40B H 0.1507 0.6830 0.5041
C40B C 0.2811(11) 0.6842(6) 0.5769(7)
C41B C 0.3730(7) 0.6838(4) 0.6581(5)
H41B H 0.3808 0.7168 0.6805
H42B H 0.3218 0.6606 0.6632
C42B C 0.4532(11) 0.5923(7) 0.6788(4)
C43B C 0.5580(7) 0.5159(5) 0.7222(4)
H43B H 0.4991 0.4966 0.7193
H44B H 0.5856 0.5227 0.7568
C44B C 0.5865(13) 0.4237(7) 0.6876(4)
C45B C 0.6621(7) 0.3325(6) 0.6772(5)
H45B H 0.6019 0.3175 0.6781
H46B H 0.7073 0.3163 0.7051
C46B C 0.6245(11) 0.2798(6) 0.5999(6)
C47B C 0.3746(7) 0.7854(4) 0.4650(5)
H47B H 0.4310 0.7993 0.4576
H48B H 0.3332 0.8187 0.4623
C48B C 0.4846(11) 0.7534(4) 0.5404(5)
C49B C 0.5617(8) 0.7459(5) 0.6253(4)
H49B H 0.6120 0.7591 0.6119
H50B H 0.5529 0.7749 0.6489
C50B C 0.6602(12) 0.6608(5) 0.6469(5)
C51B C 0.7557(8) 0.5844(6) 0.6967(4)
H51B H 0.7813 0.5887 0.7318
H52B H 0.8003 0.6004 0.6804
C52B C 0.7953(9) 0.4986(7) 0.6592(5)
C53B C 0.8564(7) 0.4022(5) 0.6500(4)
H53B H 0.8947 0.3832 0.6789
H54B H 0.8961 0.4257 0.6352
C54B C 0.8232(8) 0.3581(7) 0.5723(7)
C55B C 0.3345(7) 0.7631(4) 0.5433(4)
H55B H 0.2995 0.7998 0.5410
C56B C 0.3933(9) 0.7533(5) 0.5949(4)
H56B H 0.3941 0.7879 0.6157
C57B C 0.5457(8) 0.6719(4) 0.6874(4)
H57B H 0.5486 0.7017 0.7129
C58B C 0.6037(8) 0.6178(5) 0.7075(4)
H58B H 0.6307 0.6218 0.7429
C59B C 0.7117(8) 0.4843(5) 0.7148(4)
H59B H 0.7375 0.4919 0.7498
C60B C 0.7449(9) 0.4258(5) 0.6997(4)
H60B H 0.7862 0.4058 0.7276
C61B C 0.7752(9) 0.3080(5) 0.6283(4)
H61B H 0.8159 0.2893 0.6572
C62B C 0.7621(7) 0.2690(5) 0.5833(5)
H62B H 0.8007 0.2337 0.5898
N20B N 0.2744(5) 0.7136(4) 0.5355(4)
N21B N 0.3497(8) 0.7045(4) 0.6118(5)
N22B N 0.4572(6) 0.6478(5) 0.6715(3)
N23B N 0.5414(8) 0.5711(4) 0.6980(3)
N24B N 0.6163(6) 0.4779(6) 0.7039(3)
N25B N 0.6617(9) 0.3944(5) 0.6818(3)
N26B N 0.6829(8) 0.3132(4) 0.6339(4)
N27B N 0.6661(7) 0.2555(4) 0.5704(4)
N28B N 0.3970(7) 0.7651(3) 0.5151(4)
N29B N 0.4805(7) 0.7420(3) 0.5871(4)
N30B N 0.5869(8) 0.6917(5) 0.6500(3)
N31B N 0.6720(6) 0.6183(4) 0.6826(4)
N32B N 0.7443(6) 0.5252(5) 0.6856(4)
N33B N 0.7892(6) 0.4397(5) 0.6643(3)
N34B N 0.8126(6) 0.3606(5) 0.6174(5)
N35B N 0.7897(6) 0.3084(5) 0.5490(4)
O13B O 0.2287(5) 0.6440(4) 0.5825(2)
O14B O 0.3850(6) 0.5608(3) 0.6709(2)
O15B O 0.5103(7) 0.4072(3) 0.6797(3)
O16B O 0.5419(7) 0.2729(3) 0.5993(2)
O17B O 0.5515(5) 0.7516(3) 0.5242(3)
O18B O 0.7109(5) 0.6697(3) 0.6210(3)
O19B O 0.8400(6) 0.5224(3) 0.6343(3)
O20B O 0.8603(5) 0.3953(4) 0.5527(3)
Na1 Na 0.8285(6) 0.0747(4) 0.0219(4)
O21 O 0.0132(4) 0.7258(3) 0.3812(3)
O22 O 0.1384(5) 0.7055(3) 0.2448(3)
O23 O 0.5413(4) 0.0643(3) 0.5224(2)
O24 O 0.1811(4) 0.5123(3) 0.0769(3)
O25 O 0.5489(4) 0.1916(3) 0.2831(3)
O26 O 0.0802(4) 0.5206(3) 0.2337(3)
O27 O 0.4178(4) 0.0534(3) 0.3609(3)
O28 O 0.7073(5) 0.7988(3) 0.2503(3)
O29 O 0.2138(4) 0.6263(3) 0.1936(2)
O30 O 0.0265(4) 0.8706(3) 0.2981(2)
H63 H 0.0034 0.9033 0.3004
H64 H 0.0744 0.8672 0.3207
O31 O 0.6047(5) 0.6870(3) 0.3242(3)
O32 O 0.3451(5) 0.4975(3) 0.1465(3)
O33 O 0.5629(4) 0.0841(3) 0.2476(3)
O34 O 0.5361(4) 0.1150(3) 0.4317(3)
O35 O 0.6405(5) 0.8431(3) 0.1586(3)
O36 O 0.5841(8) 0.2738(4) 0.2236(4)
O37 O 0.5697(6) 0.1232(4) 0.1557(4)
O38 O 0.7634(6) 0.0083(4) 0.1990(3)
O39 O 0.5914(9) 0.9552(6) 0.1764(6)
O40 O 0.5057(17) 1.0076(10) 0.0916(10)
O41 O 0.4953(18) 0.9011(12) 0.9916(11)
O42 O 0.7376(12) 0.1936(8) 0.2051(8)
O43 O 0.932(5) 0.951(3) 0.930(3)
O44 O 0.742(3) -0.0220(16) 0.0733(19)
O45 O 0.810(4) -0.033(2) -0.048(2)
O46 O 1.092(8) 0.117(6) -0.019(6)
O47 O 0.6745(12) 0.0024(8) -0.0474(7)
O48 O 0.7435(10) 0.1163(6) 0.1624(6)
N36? N 0.189(4) 0.860(4) 0.3757(18)
C63? C 0.261(12) 0.851(11) 0.351(6)
C64? C 0.247(5) 0.815(3) 0.312(2)
H65? H 0.1911 0.7956 0.3022
C65? C 0.312(4) 0.807(3) 0.287(2)
H66? H 0.3026 0.7780 0.2624
C66? C 0.394(3) 0.840(2) 0.2968(17)
C67? C 0.408(5) 0.875(2) 0.340(2)
H67? H 0.4637 0.8951 0.3504
C68? C 0.343(5) 0.879(4) 0.366(3)
H68? H 0.3560 0.9016 0.3941
S2? S 0.4646(7) 0.8412(7) 0.2569(6)
O49? O 0.4951(13) 0.9048(12) 0.2543(7)
O50? O 0.412(2) 0.8087(15) 0.2124(17)
O51? O 0.542(7) 0.802(5) 0.275(3)
O52? O 0.8907(11) 0.1323(7) -0.0256(7)
O53? O 0.7084(13) 0.1164(8) 0.0497(8)
O54? O 0.8839(19) 0.1531(11) 0.0756(9)
O55? O 0.7035(19) 0.0940(9) -0.0506(8)
O56? O 0.750(2) -0.0211(12) 0.0231(19)
O57? O 0.861(3) 0.0276(15) -0.0492(15)
O58? O 0.8844(12) 0.0264(8) 0.0999(7)
O59? O 0.935(4) 0.133(2) 0.024(3)
O60? O 0.642(2) 0.1120(14) 0.0011(14)
O61? O 0.9339(17) 0.1267(10) 0.0671(9)
O62? O 0.779(2) 0.0853(11) -0.0497(10)
O63? O 0.770(3) -0.0237(15) -0.014(3)
O64? O 0.817(4) 0.073(3) 0.110(2)
O65? O 1.0778(19) 0.0917(12) -0.0538(12)
O66? O 0.938(2) 0.0382(15) -0.0829(12)
O67? O 0.998(2) 0.0700(11) -0.0781(10)
loop_
_geom_bond_atom_site_label_1
_geom_bond_atom_site_label_2
_geom_bond_site_symmetry_1
_geom_bond_site_symmetry_2
C1 H1 1_555 1_555
H2 C1 1_555 1_555
H3 C1 1_555 1_555
C2 H4 1_555 1_555
H5 C2 1_555 1_555
H6 C2 1_555 1_555
N1 C1 1_555 1_555
C3 N1 1_555 1_555
C4 C3 1_555 1_555
H7 C4 1_555 1_555
C5 C4 1_555 1_555
H8 C5 1_555 1_555
C6 C5 1_555 1_555
C7 C6 1_555 1_555
H9 C7 1_555 1_555
C8 C3 1_555 1_555
H10 C8 1_555 1_555
N2 C6 1_555 1_555
N3 N2 1_555 1_555
C9 N3 1_555 1_555
C10 C9 1_555 1_555
H11 C10 1_555 1_555
C11 C10 1_555 1_555
H12 C11 1_555 1_555
C12 C11 1_555 1_555
C13 C12 1_555 1_555
H13 C13 1_555 1_555
C14 C9 1_555 1_555
H14 C14 1_555 1_555
S1 C12 1_555 1_555
O1 S1 1_555 1_555
O2 S1 1_555 1_555
O3 S1 1_555 1_555
C15 H15 1_555 1_555
H16 C15 1_555 1_555
C16 N4 1_555 1_555
C17 H17 1_555 1_555
H18 C17 1_555 1_555
C18 N6 1_555 1_555
C19 H19 1_555 1_555
H20 C19 1_555 1_555
C20 N8 1_555 1_555
C21 H21 1_555 1_555
H22 C21 1_555 1_555
C22 N10 1_555 1_555
C23 H23 1_555 1_555
H24 C23 1_555 1_555
C24 N12 1_555 1_555
C25 H25 1_555 1_555
H26 C25 1_555 1_555
C26 N14 1_555 1_555
C27 H27 1_555 1_555
H28 C27 1_555 1_555
C28 N16 1_555 1_555
C29 H29 1_555 1_555
H30 C29 1_555 1_555
C30 N18 1_555 1_555
C31 H31 1_555 1_555
C32 C31 1_555 1_555
H32 C32 1_555 1_555
C33 H33 1_555 1_555
C34 C33 1_555 1_555
H34 C34 1_555 1_555
C35 H35 1_555 1_555
C36 C35 1_555 1_555
H36 C36 1_555 1_555
C37 H37 1_555 1_555
C38 C37 1_555 1_555
H38 C38 1_555 1_555
N4 C15 1_555 1_555
N5 C16 1_555 1_555
N6 C17 1_555 1_555
N7 C18 1_555 1_555
N8 C19 1_555 1_555
N9 C20 1_555 1_555
N10 C21 1_555 1_555
N11 C22 1_555 1_555
N12 C23 1_555 1_555
N13 C24 1_555 1_555
N14 C25 1_555 1_555
N15 C26 1_555 1_555
N16 C27 1_555 1_555
N17 C28 1_555 1_555
N18 C29 1_555 1_555
N19 C30 1_555 1_555
O5 C16 1_555 1_555
O6 C18 1_555 1_555
O7 C20 1_555 1_555
O8 C22 1_555 1_555
O9 C24 1_555 1_555
O10 C26 1_555 1_555
O11 C28 1_555 1_555
O12 C30 1_555 1_555
C39 H39 1_555 1_555
H40 C39 1_555 1_555
C40 N20 1_555 1_555
C41 H41 1_555 1_555
H42 C41 1_555 1_555
C42 N22 1_555 1_555
C43 H43 1_555 1_555
H44 C43 1_555 1_555
C44 N24 1_555 1_555
C45 H45 1_555 1_555
H46 C45 1_555 1_555
C46 N26 1_555 1_555
C47 H47 1_555 1_555
H48 C47 1_555 1_555
C48 N28 1_555 1_555
C49 H49 1_555 1_555
H50 C49 1_555 1_555
C50 N30 1_555 1_555
C51 H51 1_555 1_555
H52 C51 1_555 1_555
C52 N32 1_555 1_555
C53 H53 1_555 1_555
H54 C53 1_555 1_555
C54 N34 1_555 1_555
C55 H55 1_555 1_555
C56 C55 1_555 1_555
H56 C56 1_555 1_555
C57 H57 1_555 1_555
C58 C57 1_555 1_555
H58 C58 1_555 1_555
C59 H59 1_555 1_555
C60 C59 1_555 1_555
H60 C60 1_555 1_555
C61 H61 1_555 1_555
C62 C61 1_555 1_555
H62 C62 1_555 1_555
N20 C39 1_555 1_555
N21 C40 1_555 1_555
N22 C41 1_555 1_555
N23 C42 1_555 1_555
N24 C43 1_555 1_555
N25 C44 1_555 1_555
N26 C45 1_555 1_555
N27 C46 1_555 1_555
N28 C47 1_555 1_555
N29 C48 1_555 1_555
N30 C49 1_555 1_555
N31 C50 1_555 1_555
N32 C51 1_555 1_555
N33 C52 1_555 1_555
N34 C53 1_555 1_555
N35 C54 1_555 1_555
O13 C40 1_555 1_555
O14 C42 1_555 1_555
O15 C44 1_555 1_555
O16 C46 1_555 1_555
O17 C48 1_555 1_555
O18 C50 1_555 1_555
O19 C52 1_555 1_555
O20 C54 1_555 1_555
O30 H63 1_555 1_555
H64 O30 1_555 1_555
C15B N19 1_555 1_555
H15B C15B 1_555 1_555
H16B C15B 1_555 1_555
C16B N4B 1_555 1_555
C17B H17B 1_555 1_555
H18B C17B 1_555 1_555
C18B N6B 1_555 1_555
C19B H19B 1_555 1_555
H20B C19B 1_555 1_555
C20B N8B 1_555 1_555
C21B H21B 1_555 1_555
H22B C21B 1_555 1_555
C22B N10B 1_555 1_555
C23B N11 1_555 1_555
H23B C23B 1_555 1_555
H24B C23B 1_555 1_555
C24B N12B 1_555 1_555
C25B H25B 1_555 1_555
H26B C25B 1_555 1_555
C26B N14B 1_555 1_555
C27B H27B 1_555 1_555
H28B C27B 1_555 1_555
C28B N16B 1_555 1_555
C29B H29B 1_555 1_555
H30B C29B 1_555 1_555
C30B N18B 1_555 1_555
C31B H31B 1_555 1_555
C32B C31B 1_555 1_555
H32B C32B 1_555 1_555
C33B H33B 1_555 1_555
C34B C33B 1_555 1_555
H34B C34B 1_555 1_555
C35B H35B 1_555 1_555
C36B C35B 1_555 1_555
H36B C36B 1_555 1_555
C37B H37B 1_555 1_555
C38B C37B 1_555 1_555
H38B C38B 1_555 1_555
N4B C15B 1_555 1_555
N5B C16B 1_555 1_555
N6B C17B 1_555 1_555
N7B C18B 1_555 1_555
N8B C19B 1_555 1_555
N9B C20B 1_555 1_555
N10B C21B 1_555 1_555
N11B C23 1_555 1_555
N12B C23B 1_555 1_555
N13B C24B 1_555 1_555
N14B C25B 1_555 1_555
N15B C26B 1_555 1_555
N16B C27B 1_555 1_555
N17B C28B 1_555 1_555
N18B C29B 1_555 1_555
N19B C15 1_555 1_555
O5B C16B 1_555 1_555
O6B C18B 1_555 1_555
O7B C20B 1_555 1_555
O8B C22B 1_555 1_555
O9B C24B 1_555 1_555
O10B C26B 1_555 1_555
O11B C28B 1_555 1_555
O12B C30B 1_555 1_555
C39B N35 1_555 1_555
H39B C39B 1_555 1_555
H40B C39B 1_555 1_555
C40B N20B 1_555 1_555
C41B H41B 1_555 1_555
H42B C41B 1_555 1_555
C42B N22B 1_555 1_555
C43B H43B 1_555 1_555
H44B C43B 1_555 1_555
C44B N24B 1_555 1_555
C45B H45B 1_555 1_555
H46B C45B 1_555 1_555
C46B N26B 1_555 1_555
C47B N27 1_555 1_555
H47B C47B 1_555 1_555
H48B C47B 1_555 1_555
C48B N28B 1_555 1_555
C49B H49B 1_555 1_555
H50B C49B 1_555 1_555
C50B N30B 1_555 1_555
C51B H51B 1_555 1_555
H52B C51B 1_555 1_555
C52B N32B 1_555 1_555
C53B H53B 1_555 1_555
H54B C53B 1_555 1_555
C54B N34B 1_555 1_555
C55B H55B 1_555 1_555
C56B C55B 1_555 1_555
H56B C56B 1_555 1_555
C57B H57B 1_555 1_555
C58B C57B 1_555 1_555
H58B C58B 1_555 1_555
C59B H59B 1_555 1_555
C60B C59B 1_555 1_555
H60B C60B 1_555 1_555
C61B H61B 1_555 1_555
C62B C61B 1_555 1_555
H62B C62B 1_555 1_555
N20B C39B 1_555 1_555
N21B C40B 1_555 1_555
N22B C41B 1_555 1_555
N23B C42B 1_555 1_555
N24B C43B 1_555 1_555
N25B C44B 1_555 1_555
N26B C45B 1_555 1_555
N27B C47 1_555 1_555
N28B C47B 1_555 1_555
N29B C48B 1_555 1_555
N30B C49B 1_555 1_555
N31B C50B 1_555 1_555
N32B C51B 1_555 1_555
N33B C52B 1_555 1_555
N34B C53B 1_555 1_555
N35B C39 1_555 1_555
O13B C40B 1_555 1_555
O14B C42B 1_555 1_555
O15B C44B 1_555 1_555
O16B C46B 1_555 1_555
O17B C48B 1_555 1_555
O18B C50B 1_555 1_555
O19B C52B 1_555 1_555
O20B C54B 1_555 1_555
C2 N1 1_555 1_555
C7 C8 1_555 1_555
C13 C14 1_555 1_555
C17 N5 1_555 1_555
C19 N7 1_555 1_555
C21 N9 1_555 1_555
C25 N13 1_555 1_555
C27 N15 1_555 1_555
C29 N17 1_555 1_555
C31 N4 1_555 1_555
C31 N12 1_555 1_555
C32 N5 1_555 1_555
C32 N13 1_555 1_555
C33 N6 1_555 1_555
C33 N14 1_555 1_555
C34 N7 1_555 1_555
C34 N15 1_555 1_555
C35 N8 1_555 1_555
C35 N16 1_555 1_555
C36 N9 1_555 1_555
C36 N17 1_555 1_555
C37 N10 1_555 1_555
C37 N18 1_555 1_555
C38 N11 1_555 1_555
C38 N19 1_555 1_555
C41 N21 1_555 1_555
C43 N23 1_555 1_555
C45 N25 1_555 1_555
C49 N29 1_555 1_555
C51 N31 1_555 1_555
C53 N33 1_555 1_555
C55 N20 1_555 1_555
C55 N28 1_555 1_555
C56 N21 1_555 1_555
C56 N29 1_555 1_555
C57 N22 1_555 1_555
C57 N30 1_555 1_555
C58 N23 1_555 1_555
C58 N31 1_555 1_555
C59 N24 1_555 1_555
C59 N32 1_555 1_555
C60 N25 1_555 1_555
C60 N33 1_555 1_555
C61 N26 1_555 1_555
C61 N34 1_555 1_555
C62 N27 1_555 1_555
C62 N35 1_555 1_555
C17B N5B 1_555 1_555
C19B N7B 1_555 1_555
C21B N9B 1_555 1_555
C22B N11B 1_555 1_555
C25B N13B 1_555 1_555
C27B N15B 1_555 1_555
C29B N17B 1_555 1_555
C30B N19B 1_555 1_555
C31B N4B 1_555 1_555
C31B N12B 1_555 1_555
C32B N5B 1_555 1_555
C32B N13B 1_555 1_555
C33B N6B 1_555 1_555
C33B N14B 1_555 1_555
C34B N7B 1_555 1_555
C34B N15B 1_555 1_555
C35B N8B 1_555 1_555
C35B N16B 1_555 1_555
C36B N9B 1_555 1_555
C36B N17B 1_555 1_555
C37B N10B 1_555 1_555
C37B N18B 1_555 1_555
C38B N11B 1_555 1_555
C38B N19B 1_555 1_555
C41B N21B 1_555 1_555
C43B N23B 1_555 1_555
C45B N25B 1_555 1_555
C46B N27B 1_555 1_555
C49B N29B 1_555 1_555
C51B N31B 1_555 1_555
C53B N33B 1_555 1_555
C54B N35B 1_555 1_555
C55B N20B 1_555 1_555
C55B N28B 1_555 1_555
C56B N21B 1_555 1_555
C56B N29B 1_555 1_555
C57B N22B 1_555 1_555
C57B N30B 1_555 1_555
C58B N23B 1_555 1_555
C58B N31B 1_555 1_555
C59B N24B 1_555 1_555
C59B N32B 1_555 1_555
C60B N25B 1_555 1_555
C60B N33B 1_555 1_555
C61B N26B 1_555 1_555
C61B N34B 1_555 1_555
C62B N27B 1_555 1_555
C62B N35B 1_555 1_555

#END
