
#######################################################################
#
#                 Cambridge Crystallographic Data Centre
#                                CCDC 
#
#######################################################################
#
# If this CIF has been generated from an entry in the Cambridge 
# Structural Database, then it will include bibliographic, chemical, 
# crystal, experimental, refinement or atomic coordinate data resulting 
# from the CCDC's data processing and validation procedures.
#
#######################################################################

data_CABJEW
_chemical_formula_moiety         'C24 H26 O5'
_chemical_name_systematic        
(2E,6E)-2,6-bis(2,4-Dimethoxybenzylidene)cyclohexanone
_symmetry_cell_setting           monoclinic
_symmetry_space_group_name_H-M   'P 21/c'
_symmetry_Int_Tables_number      14
_space_group_name_Hall           '-P 2ybc'
loop_
_symmetry_equiv_pos_site_id
_symmetry_equiv_pos_as_xyz
1 x,y,z
2 -x,1/2+y,1/2-z
3 -x,-y,-z
4 x,1/2-y,1/2+z
_cell_length_a                   16.4159(16)
_cell_length_b                   7.6772(8)
_cell_length_c                   16.2411(15)
_cell_angle_alpha                90
_cell_angle_beta                 96.198(2)
_cell_angle_gamma                90
_cell_volume                     2034.87
_exptl_crystal_colour            green
_exptl_crystal_description       prismatic
_cell_formula_units_Z            4
_exptl_crystal_recrystallization_method methanol/chloroform
loop_
_atom_site_label
_atom_site_type_symbol
_atom_site_fract_x
_atom_site_fract_y
_atom_site_fract_z
O1 O 0.32722(10) 0.3019(2) 1.00725(9)
O2 O 0.46678(9) 0.6080(2) 0.82687(9)
O3 O 0.36908(11) 0.7086(3) 0.53924(9)
O4 O 0.28735(9) 0.4783(2) 1.27514(9)
O5 O 0.03723(11) 0.4286(2) 1.39353(10)
C1 C 0.26639(14) 0.3879(3) 0.98344(13)
C2 C 0.25641(13) 0.4652(3) 0.89827(13)
C3 C 0.32359(13) 0.4647(3) 0.85744(13)
H1 H 0.3701 0.4150 0.8857
C4 C 0.20100(13) 0.4173(3) 1.03932(13)
C5 C 0.22025(13) 0.3846(3) 1.12005(13)
H2 H 0.2737 0.3472 1.1347
C6 C 0.16946(13) 0.3988(3) 1.18881(13)
C7 C 0.08701(14) 0.3585(3) 1.18120(14)
H3 H 0.0620 0.3248 1.1295
C8 C 0.03956(14) 0.3659(3) 1.24694(15)
H4 H -0.0160 0.3389 1.2393
C9 C 0.07635(15) 0.4139(3) 1.32306(15)
C10 C 0.15927(15) 0.4518(3) 1.33450(14)
H5 H 0.1838 0.4827 1.3867
C11 C 0.20568(14) 0.4437(3) 1.26852(14)
C12 C 0.33354(13) 0.5316(3) 0.77459(13)
C13 C 0.27368(15) 0.5225(3) 0.70753(14)
H6 H 0.2229 0.4752 0.7154
C14 C 0.28643(16) 0.5803(3) 0.63021(14)
H7 H 0.2451 0.5709 0.5865
C15 C 0.36126(16) 0.6529(3) 0.61764(14)
C16 C 0.42287(14) 0.6655(3) 0.68274(13)
H8 H 0.4730 0.7153 0.6747
C17 C 0.40893(13) 0.6030(3) 0.75996(13)
C18 C 0.17645(13) 0.5492(3) 0.86680(13)
H9 H 0.1403 0.4625 0.8390
H10 H 0.1860 0.6386 0.8268
C19 C 0.13534(14) 0.6305(3) 0.93785(14)
H11 H 0.1699 0.7222 0.9636
H12 H 0.0833 0.6817 0.9164
C20 C 0.12133(14) 0.4925(3) 1.00167(14)
H13 H 0.0925 0.5436 1.0448
H14 H 0.0874 0.4003 0.9755
C21 C 0.32754(14) 0.5258(3) 1.35460(14)
H15 H 0.3025 0.6288 1.3740
H16 H 0.3844 0.5481 1.3500
H17 H 0.3227 0.4324 1.3931
C22 C -0.04839(16) 0.3964(4) 1.38544(17)
H18 H -0.0754 0.4753 1.3455
H19 H -0.0689 0.4136 1.4380
H20 H -0.0588 0.2787 1.3673
C23 C 0.54617(14) 0.6729(4) 0.81756(15)
H21 H 0.5718 0.5999 0.7799
H22 H 0.5786 0.6733 0.8704
H23 H 0.5419 0.7895 0.7961
C24 C 0.44694(17) 0.7708(4) 0.52211(15)
H24 H 0.4617 0.8708 0.5559
H25 H 0.4446 0.8025 0.4647
H26 H 0.4872 0.6810 0.5341
loop_
_geom_bond_atom_site_label_1
_geom_bond_atom_site_label_2
_geom_bond_site_symmetry_1
_geom_bond_site_symmetry_2
O1 C1 1_555 1_555
O2 C17 1_555 1_555
O3 C15 1_555 1_555
O4 C11 1_555 1_555
O5 C9 1_555 1_555
C1 C2 1_555 1_555
C2 C3 1_555 1_555
C3 H1 1_555 1_555
C4 C1 1_555 1_555
C5 C4 1_555 1_555
H2 C5 1_555 1_555
C6 C5 1_555 1_555
C7 C6 1_555 1_555
H3 C7 1_555 1_555
C8 C7 1_555 1_555
H4 C8 1_555 1_555
C9 C8 1_555 1_555
C10 C9 1_555 1_555
H5 C10 1_555 1_555
C11 C6 1_555 1_555
C12 C3 1_555 1_555
C13 C12 1_555 1_555
H6 C13 1_555 1_555
C14 C13 1_555 1_555
H7 C14 1_555 1_555
C15 C14 1_555 1_555
C16 C15 1_555 1_555
H8 C16 1_555 1_555
C17 C12 1_555 1_555
C18 C2 1_555 1_555
H9 C18 1_555 1_555
H10 C18 1_555 1_555
C19 C18 1_555 1_555
H11 C19 1_555 1_555
H12 C19 1_555 1_555
C20 C4 1_555 1_555
H13 C20 1_555 1_555
H14 C20 1_555 1_555
C21 O4 1_555 1_555
H15 C21 1_555 1_555
H16 C21 1_555 1_555
H17 C21 1_555 1_555
C22 O5 1_555 1_555
H18 C22 1_555 1_555
H19 C22 1_555 1_555
H20 C22 1_555 1_555
C23 O2 1_555 1_555
H21 C23 1_555 1_555
H22 C23 1_555 1_555
H23 C23 1_555 1_555
C24 O3 1_555 1_555
H24 C24 1_555 1_555
H25 C24 1_555 1_555
H26 C24 1_555 1_555
C10 C11 1_555 1_555
C16 C17 1_555 1_555
C19 C20 1_555 1_555

#END
