
#######################################################################
#
#                 Cambridge Crystallographic Data Centre
#                                CCDC 
#
#######################################################################
#
# If this CIF has been generated from an entry in the Cambridge 
# Structural Database, then it will include bibliographic, chemical, 
# crystal, experimental, refinement or atomic coordinate data resulting 
# from the CCDC's data processing and validation procedures.
#
#######################################################################

data_CABKAT
_chemical_formula_moiety         'C8 H9 N2 O4 1-,C2 H8 N1 1+'
_chemical_name_systematic        
'Dimethylammonium 4-carboxy-2-n-propyl-1H-imidazole-5-carboxylate'
_symmetry_cell_setting           monoclinic
_symmetry_space_group_name_H-M   'P 21/n'
_symmetry_Int_Tables_number      14
_space_group_name_Hall           '-P 2yn'
loop_
_symmetry_equiv_pos_site_id
_symmetry_equiv_pos_as_xyz
1 x,y,z
2 1/2-x,1/2+y,1/2-z
3 -x,-y,-z
4 1/2+x,1/2-y,1/2+z
_cell_length_a                   9.1790(14)
_cell_length_b                   15.203(2)
_cell_length_c                   9.2891(14)
_cell_angle_alpha                90
_cell_angle_beta                 112.015(2)
_cell_angle_gamma                90
_cell_volume                     1201.76
_cell_formula_units_Z            4
loop_
_atom_site_label
_atom_site_type_symbol
_atom_site_fract_x
_atom_site_fract_y
_atom_site_fract_z
O1 O 0.36617(15) 1.02223(9) 0.04975(16)
O2 O 0.14501(15) 1.09441(9) 0.00473(15)
H1 H 0.0812 1.1009 0.0464
O3 O -0.04522(15) 1.11903(9) 0.12755(16)
O4 O -0.08178(18) 1.07398(11) 0.33847(18)
N1 N 0.35395(16) 0.94255(9) 0.31572(16)
N2 N 0.17872(16) 0.96398(9) 0.42134(16)
H2 H 0.1316 0.9595 0.4854
C1 C 0.6143(2) 0.75451(14) 0.6902(2)
H3 H 0.6501 0.7886 0.7841
H4 H 0.7025 0.7266 0.6774
H5 H 0.5418 0.7105 0.6960
C2 C 0.5329(2) 0.81448(13) 0.5527(2)
H6 H 0.6076 0.8579 0.5460
H7 H 0.4991 0.7799 0.4581
C3 C 0.3935(2) 0.86087(13) 0.5636(2)
H8 H 0.3188 0.8171 0.5687
H9 H 0.4277 0.8940 0.6599
C4 C 0.3118(2) 0.92185(12) 0.4332(2)
C5 C -0.0090(2) 1.07264(13) 0.2509(2)
C6 C 0.13093(19) 1.01503(11) 0.29070(19)
C7 C 0.24112(19) 1.00121(11) 0.22556(19)
C8 C 0.2534(2) 1.04032(12) 0.0854(2)
N3 N 0.57305(18) 0.87988(11) 0.17314(18)
H10 H 0.5210 0.9017 0.2302
H11 H 0.5901 0.9245 0.1177
C9 C 0.7253(3) 0.84541(18) 0.2782(3)
H12 H 0.7086 0.7943 0.3307
H13 H 0.7787 0.8896 0.3533
H14 H 0.7880 0.8299 0.2194
C10 C 0.4738(3) 0.81377(16) 0.0656(3)
H15 H 0.5253 0.7929 -0.0007
H16 H 0.3748 0.8397 0.0036
H17 H 0.4565 0.7654 0.1237
loop_
_geom_bond_atom_site_label_1
_geom_bond_atom_site_label_2
_geom_bond_site_symmetry_1
_geom_bond_site_symmetry_2
O1 C8 1_555 1_555
O2 H1 1_555 1_555
O3 C5 1_555 1_555
O4 C5 1_555 1_555
N1 C4 1_555 1_555
N2 H2 1_555 1_555
C1 H3 1_555 1_555
H4 C1 1_555 1_555
H5 C1 1_555 1_555
C2 C1 1_555 1_555
H6 C2 1_555 1_555
H7 C2 1_555 1_555
C3 C2 1_555 1_555
H8 C3 1_555 1_555
H9 C3 1_555 1_555
C4 N2 1_555 1_555
C5 C6 1_555 1_555
C6 N2 1_555 1_555
C7 N1 1_555 1_555
C8 O2 1_555 1_555
N3 H10 1_555 1_555
H11 N3 1_555 1_555
C9 N3 1_555 1_555
H12 C9 1_555 1_555
H13 C9 1_555 1_555
H14 C9 1_555 1_555
C10 N3 1_555 1_555
H15 C10 1_555 1_555
H16 C10 1_555 1_555
H17 C10 1_555 1_555
C3 C4 1_555 1_555
C6 C7 1_555 1_555
C7 C8 1_555 1_555

#END
