
#######################################################################
#
#                 Cambridge Crystallographic Data Centre
#                                CCDC 
#
#######################################################################
#
# If this CIF has been generated from an entry in the Cambridge 
# Structural Database, then it will include bibliographic, chemical, 
# crystal, experimental, refinement or atomic coordinate data resulting 
# from the CCDC's data processing and validation procedures.
#
#######################################################################

data_CABNIE
_chemical_formula_moiety         'C14 H8 O4 S2 2-,2(C5 H7 N2 1+),2(H2 O1)'
_chemical_name_systematic        
"bis(2-Aminopyridinium) 2,2'-dithiobis(benzoate) dihydrate"
_symmetry_cell_setting           monoclinic
_symmetry_space_group_name_H-M   'C 2/c'
_symmetry_Int_Tables_number      15
_space_group_name_Hall           '-C 2yn'
loop_
_symmetry_equiv_pos_site_id
_symmetry_equiv_pos_as_xyz
1 x,y,z
2 -x,y,1/2-z
3 1/2+x,1/2+y,z
4 1/2-x,1/2+y,1/2-z
5 -x,-y,-z
6 x,-y,1/2+z
7 1/2-x,1/2-y,-z
8 1/2+x,1/2-y,1/2+z
_cell_length_a                   13.4290(13)
_cell_length_b                   9.7934(9)
_cell_length_c                   20.331(2)
_cell_angle_alpha                90
_cell_angle_beta                 105.808(2)
_cell_angle_gamma                90
_cell_volume                     2572.72
_exptl_crystal_colour            colorless
_exptl_crystal_description       block
_cell_formula_units_Z            4
loop_
_atom_site_label
_atom_site_type_symbol
_atom_site_fract_x
_atom_site_fract_y
_atom_site_fract_z
S1 S 0.04241(4) 0.12501(5) 0.30001(3)
O1 O 0.33145(11) 0.10483(16) 0.44974(8)
O2 O 0.16068(11) 0.09688(16) 0.42730(8)
C1 C 0.14275(14) 0.24854(18) 0.30453(9)
C2 C 0.23119(14) 0.24370(18) 0.36015(10)
C3 C 0.30938(15) 0.3382(2) 0.36324(11)
H1 H 0.3688 0.3350 0.3997
C4 C 0.30104(17) 0.4362(2) 0.31379(12)
H2 H 0.3538 0.4996 0.3172
C5 C 0.21404(18) 0.4400(2) 0.25919(12)
H3 H 0.2080 0.5062 0.2255
C6 C 0.13551(16) 0.3460(2) 0.25418(11)
H4 H 0.0775 0.3482 0.2167
C7 C 0.24240(15) 0.1409(2) 0.41680(10)
S1A S -0.04241(4) 0.12501(5) 0.19999(3)
O1A O -0.33145(11) 0.10483(16) 0.05026(8)
O2A O -0.16068(11) 0.09688(16) 0.07270(8)
C1A C -0.14275(14) 0.24854(18) 0.19547(9)
C2A C -0.23119(14) 0.24370(18) 0.13985(10)
C3A C -0.30938(15) 0.3382(2) 0.13676(11)
H1A H -0.3688 0.3350 0.1003
C4A C -0.30104(17) 0.4362(2) 0.18621(12)
H2A H -0.3538 0.4996 0.1828
C5A C -0.21404(18) 0.4400(2) 0.24081(12)
H3A H -0.2080 0.5062 0.2745
C6A C -0.13551(16) 0.3460(2) 0.24582(11)
H4A H -0.0775 0.3482 0.2833
C7A C -0.24240(15) 0.1409(2) 0.08320(10)
O3 O 0.49470(14) 0.2359(2) 0.54357(11)
H5 H 0.4511(18) 0.203(3) 0.5096(11)
H6 H 0.458(2) 0.290(3) 0.5579(14)
N1 N 0.66096(14) 0.06815(18) 0.44288(9)
H7 H 0.6680(15) 0.0113(19) 0.4773(9)
N2 N 0.83487(16) 0.1142(2) 0.47828(10)
H8 H 0.8900(14) 0.156(2) 0.4743(11)
H9 H 0.8415(16) 0.0512(19) 0.5093(9)
C8 C 0.74370(16) 0.1380(2) 0.43563(10)
C9 C 0.72691(19) 0.2352(2) 0.38259(11)
H10 H 0.7818 0.2865 0.3761
C10 C 0.6301(2) 0.2531(3) 0.34111(12)
H11 H 0.6190 0.3172 0.3061
C11 C 0.5471(2) 0.1773(3) 0.34987(13)
H12 H 0.4810 0.1893 0.3208
C12 C 0.56443(17) 0.0865(3) 0.40112(12)
H13 H 0.5097 0.0357 0.4081
loop_
_geom_bond_atom_site_label_1
_geom_bond_atom_site_label_2
_geom_bond_site_symmetry_1
_geom_bond_site_symmetry_2
S1 C1 1_555 1_555
O1 C7 1_555 1_555
O2 C7 1_555 1_555
C1 C2 1_555 1_555
C2 C3 1_555 1_555
C3 H1 1_555 1_555
C4 C3 1_555 1_555
H2 C4 1_555 1_555
C5 C4 1_555 1_555
H3 C5 1_555 1_555
C6 C1 1_555 1_555
H4 C6 1_555 1_555
C7 C2 1_555 1_555
O3 H5 1_555 1_555
H6 O3 1_555 1_555
N1 H7 1_555 1_555
N2 H8 1_555 1_555
H9 N2 1_555 1_555
C8 N1 1_555 1_555
C9 C8 1_555 1_555
H10 C9 1_555 1_555
C10 C9 1_555 1_555
H11 C10 1_555 1_555
C11 C10 1_555 1_555
H12 C11 1_555 1_555
C12 N1 1_555 1_555
H13 C12 1_555 1_555
S1A S1 1_555 1_555
O1A C7A 1_555 1_555
O2A C7A 1_555 1_555
C1A S1A 1_555 1_555
C2A C1A 1_555 1_555
C3A C2A 1_555 1_555
H1A C3A 1_555 1_555
C4A C3A 1_555 1_555
H2A C4A 1_555 1_555
C5A C4A 1_555 1_555
H3A C5A 1_555 1_555
C6A C1A 1_555 1_555
H4A C6A 1_555 1_555
C7A C2A 1_555 1_555
C5 C6 1_555 1_555
N2 C8 1_555 1_555
C11 C12 1_555 1_555
C5A C6A 1_555 1_555

#END
