
#######################################################################
#
#                 Cambridge Crystallographic Data Centre
#                                CCDC 
#
#######################################################################
#
# If this CIF has been generated from an entry in the Cambridge 
# Structural Database, then it will include bibliographic, chemical, 
# crystal, experimental, refinement or atomic coordinate data resulting 
# from the CCDC's data processing and validation procedures.
#
#######################################################################

data_CABQIH
_chemical_formula_moiety         'C6 H10 Cl2 N4'
_chemical_name_systematic        
(R,R)-4-Amino-3,5-bis(1-chloroethyl)-1,2,4-triazole
_symmetry_cell_setting           orthorhombic
_symmetry_space_group_name_H-M   'P 21 21 21'
_symmetry_Int_Tables_number      19
_space_group_name_Hall           'P 2ac 2ab'
loop_
_symmetry_equiv_pos_site_id
_symmetry_equiv_pos_as_xyz
1 x,y,z
2 1/2-x,-y,1/2+z
3 -x,1/2+y,1/2-z
4 1/2+x,1/2-y,-z
_cell_length_a                   9.8480(4)
_cell_length_b                   15.8197(6)
_cell_length_c                   17.5827(7)
_cell_angle_alpha                90
_cell_angle_beta                 90
_cell_angle_gamma                90
_cell_volume                     2739.25
_exptl_crystal_colour            colorless
_exptl_crystal_description       needle
_chemical_melting_point          '145-147 deg.C'
_cell_formula_units_Z            12
loop_
_atom_site_label
_atom_site_type_symbol
_atom_site_fract_x
_atom_site_fract_y
_atom_site_fract_z
Cl1 Cl 0.46773(4) 0.35844(2) 0.182992(19)
Cl2 Cl 0.72367(3) 0.32180(2) -0.161891(19)
N1 N 0.35047(10) 0.35208(7) -0.00618(6)
N2 N 0.39670(10) 0.29970(7) -0.06460(7)
N3 N 0.57163(10) 0.34247(6) 0.00213(6)
N4 N 0.70277(10) 0.35464(8) 0.03176(7)
H1 H 0.7519(16) 0.3801(10) -0.0041(9)
H2 H 0.7397(17) 0.3037(10) 0.0397(10)
C1 C 0.45693(12) 0.37625(7) 0.03248(7)
C2 C 0.45351(13) 0.42982(8) 0.10221(7)
H3 H 0.5333 0.4689 0.1018
C3 C 0.32439(13) 0.48123(9) 0.10888(8)
H4 H 0.3170 0.5194 0.0652
H5 H 0.3267 0.5144 0.1559
H6 H 0.2459 0.4431 0.1098
C4 C 0.52948(12) 0.29510(7) -0.05867(7)
C5 C 0.62243(12) 0.24662(8) -0.10865(7)
H7 H 0.6845 0.2123 -0.0759
C6 C 0.54953(14) 0.18743(8) -0.16305(8)
H8 H 0.4951 0.1469 -0.1340
H9 H 0.6165 0.1569 -0.1938
H10 H 0.4900 0.2203 -0.1965
Cl3 Cl 0.74068(3) 0.21895(2) 0.420517(18)
Cl4 Cl 0.53412(3) 0.14060(2) 0.063733(17)
N5 N 0.45558(10) 0.13200(6) 0.31660(6)
N6 N 0.46013(10) 0.08141(7) 0.25236(6)
N7 N 0.62874(10) 0.17085(6) 0.24654(6)
N8 N 0.74809(10) 0.21429(7) 0.22611(6)
H11 H 0.8168(18) 0.1842(10) 0.2373(9)
H12 H 0.7540(18) 0.2228(11) 0.1790(11)
C7 C 0.55746(11) 0.18563(7) 0.31132(7)
C8 C 0.59220(12) 0.25301(8) 0.36700(7)
H13 H 0.6151 0.3059 0.3387
C9 C 0.47668(13) 0.27130(9) 0.42123(7)
H14 H 0.3969 0.2897 0.3923
H15 H 0.5039 0.3161 0.4566
H16 H 0.4545 0.2200 0.4499
C10 C 0.56478(12) 0.10541(8) 0.21128(7)
C11 C 0.60696(12) 0.07191(8) 0.13603(7)
H17 H 0.7082 0.0746 0.1323
C12 C 0.56201(15) -0.01830(8) 0.12314(8)
H18 H 0.6015 -0.0547 0.1624
H19 H 0.5926 -0.0372 0.0729
H20 H 0.4627 -0.0215 0.1257
Cl5 Cl 1.06861(3) 0.02412(2) 0.436400(19)
Cl6 Cl 1.16383(4) -0.05101(2) 0.05701(2)
N9 N 0.95525(11) 0.07906(7) 0.25927(6)
N10 N 0.92836(11) 0.03043(7) 0.19522(6)
N11 N 1.12094(10) -0.01153(7) 0.24458(6)
N12 N 1.24297(11) -0.05718(7) 0.25098(7)
H21 H 1.3034(16) -0.0245(10) 0.2482(9)
H22 H 1.2388(16) -0.0851(10) 0.2913(9)
C13 C 1.07060(12) 0.05317(8) 0.28762(7)
C14 C 1.13741(12) 0.08493(8) 0.35784(7)
H23 H 1.2372 0.0738 0.3542
C15 C 1.11557(15) 0.17821(9) 0.37128(8)
H24 H 1.1533 0.2104 0.3286
H25 H 1.1611 0.1951 0.4185
H26 H 1.0181 0.1897 0.3755
C16 C 1.02937(12) -0.02283(8) 0.18741(7)
C17 C 1.04256(13) -0.08753(8) 0.12706(7)
H27 H 1.0769 -0.1412 0.1502
C18 C 0.90705(15) -0.10493(10) 0.08843(9)
H28 H 0.8413 -0.1246 0.1263
H29 H 0.9191 -0.1485 0.0494
H30 H 0.8735 -0.0529 0.0647
loop_
_geom_bond_atom_site_label_1
_geom_bond_atom_site_label_2
_geom_bond_site_symmetry_1
_geom_bond_site_symmetry_2
Cl1 C2 1_555 1_555
Cl2 C5 1_555 1_555
N1 N2 1_555 1_555
N2 C4 1_555 1_555
N3 N4 1_555 1_555
N4 H1 1_555 1_555
H2 N4 1_555 1_555
C1 N1 1_555 1_555
C2 C1 1_555 1_555
H3 C2 1_555 1_555
C3 C2 1_555 1_555
H4 C3 1_555 1_555
H5 C3 1_555 1_555
H6 C3 1_555 1_555
C4 N3 1_555 1_555
C5 C4 1_555 1_555
H7 C5 1_555 1_555
C6 C5 1_555 1_555
H8 C6 1_555 1_555
H9 C6 1_555 1_555
H10 C6 1_555 1_555
Cl3 C8 1_555 1_555
Cl4 C11 1_555 1_555
N5 N6 1_555 1_555
N6 C10 1_555 1_555
N7 N8 1_555 1_555
N8 H11 1_555 1_555
H12 N8 1_555 1_555
C7 N5 1_555 1_555
C8 C7 1_555 1_555
H13 C8 1_555 1_555
C9 C8 1_555 1_555
H14 C9 1_555 1_555
H15 C9 1_555 1_555
H16 C9 1_555 1_555
C10 N7 1_555 1_555
C11 C10 1_555 1_555
H17 C11 1_555 1_555
C12 C11 1_555 1_555
H18 C12 1_555 1_555
H19 C12 1_555 1_555
H20 C12 1_555 1_555
Cl5 C14 1_555 1_555
Cl6 C17 1_555 1_555
N9 N10 1_555 1_555
N10 C16 1_555 1_555
N11 N12 1_555 1_555
N12 H21 1_555 1_555
H22 N12 1_555 1_555
C13 N9 1_555 1_555
C14 C13 1_555 1_555
H23 C14 1_555 1_555
C15 C14 1_555 1_555
H24 C15 1_555 1_555
H25 C15 1_555 1_555
H26 C15 1_555 1_555
C16 N11 1_555 1_555
C17 C16 1_555 1_555
H27 C17 1_555 1_555
C18 C17 1_555 1_555
H28 C18 1_555 1_555
H29 C18 1_555 1_555
H30 C18 1_555 1_555
N3 C1 1_555 1_555
N7 C7 1_555 1_555
N11 C13 1_555 1_555

#END
