
#######################################################################
#
#                 Cambridge Crystallographic Data Centre
#                                CCDC 
#
#######################################################################
#
# If this CIF has been generated from an entry in the Cambridge 
# Structural Database, then it will include bibliographic, chemical, 
# crystal, experimental, refinement or atomic coordinate data resulting 
# from the CCDC's data processing and validation procedures.
#
#######################################################################

data_CABQED
_chemical_formula_moiety         'C20 H17 N5 O8'
_chemical_name_systematic        
'4-Nitobenzoic acid 1-(5-(1-(4-nitrobenzoyloxy)ethyl)-2H-1,2,4-triazol-3-yl) ethyl ester'
_symmetry_cell_setting           monoclinic
_symmetry_space_group_name_H-M   'P 21'
_symmetry_Int_Tables_number      4
_space_group_name_Hall           'P 2yb'
loop_
_symmetry_equiv_pos_site_id
_symmetry_equiv_pos_as_xyz
1 x,y,z
2 -x,1/2+y,-z
_cell_length_a                   5.0789(5)
_cell_length_b                   22.316(3)
_cell_length_c                   9.2116(10)
_cell_angle_alpha                90
_cell_angle_beta                 93.527(5)
_cell_angle_gamma                90
_cell_volume                     1042.07
_exptl_crystal_colour            colorless
_exptl_crystal_description       block
_chemical_melting_point          '173-178 deg.C'
_cell_formula_units_Z            2
loop_
_atom_site_label
_atom_site_type_symbol
_atom_site_fract_x
_atom_site_fract_y
_atom_site_fract_z
N1 N 0.5605(5) 0.17243(14) 0.6645(3)
H1 H 0.401(8) 0.172(2) 0.643(4)
N2 N 0.6420(5) 0.20537(13) 0.7827(3)
N3 N 0.9884(4) 0.16672(12) 0.6741(3)
C1 C 0.7657(5) 0.14957(15) 0.6018(3)
C2 C 0.7435(6) 0.11257(17) 0.4664(4)
H2 H 0.9227 0.0994 0.4402
C3 C 0.6036(8) 0.1445(2) 0.3386(4)
H3 H 0.5951 0.1181 0.2535
H4 H 0.7007 0.1810 0.3167
H5 H 0.4243 0.1551 0.3630
C4 C 0.8998(5) 0.20094(14) 0.7849(3)
C5 C 1.0749(6) 0.22876(14) 0.9034(3)
H6 H 1.2455 0.2412 0.8638
C6 C 1.1282(7) 0.18721(18) 1.0312(4)
H7 H 1.2426 0.2074 1.1056
H8 H 1.2155 0.1509 0.9988
H9 H 0.9611 0.1764 1.0723
O1 O 0.5876(4) 0.06050(11) 0.5054(2)
C7 C 0.6288(7) 0.00970(17) 0.4329(4)
O2 O 0.7850(5) 0.00583(14) 0.3387(3)
C8 C 0.4634(7) -0.04028(18) 0.4831(4)
C9 C 0.2732(7) -0.03127(17) 0.5818(4)
H10 H 0.2459 0.0077 0.6193
C10 C 0.1223(8) -0.07869(19) 0.6263(4)
H11 H -0.0107 -0.0727 0.6930
C11 C 0.1701(8) -0.13507(18) 0.5712(5)
C12 C 0.3565(8) -0.14563(19) 0.4743(5)
H12 H 0.3830 -0.1849 0.4382
C13 C 0.5066(9) -0.09821(19) 0.4295(5)
H13 H 0.6388 -0.1047 0.3626
N4 N 0.0056(9) -0.18522(16) 0.6203(5)
O3 O -0.1583(8) -0.17556(16) 0.7114(4)
O4 O 0.0400(9) -0.23464(15) 0.5662(5)
O5 O 0.9413(4) 0.28091(10) 0.9576(2)
C14 C 0.9567(6) 0.33085(16) 0.8789(4)
O6 O 1.0866(5) 0.33505(12) 0.7739(3)
C15 C 0.7962(6) 0.38045(16) 0.9351(3)
C16 C 0.6046(6) 0.36980(17) 1.0321(4)
H14 H 0.5759 0.3302 1.0656
C17 C 0.4542(7) 0.41667(18) 1.0805(5)
H15 H 0.3209 0.4097 1.1464
C18 C 0.5028(7) 0.47392(17) 1.0304(4)
C19 C 0.6914(8) 0.48596(18) 0.9343(4)
H16 H 0.7206 0.5257 0.9019
C20 C 0.8392(7) 0.43823(17) 0.8856(4)
H17 H 0.9701 0.4452 0.8182
N5 N 0.3446(7) 0.52427(17) 1.0821(4)
O7 O 0.1858(7) 0.51351(15) 1.1749(4)
O8 O 0.3774(7) 0.57400(15) 1.0289(5)
loop_
_geom_bond_atom_site_label_1
_geom_bond_atom_site_label_2
_geom_bond_site_symmetry_1
_geom_bond_site_symmetry_2
N1 H1 1_555 1_555
N2 N1 1_555 1_555
N3 C1 1_555 1_555
C1 N1 1_555 1_555
C2 C1 1_555 1_555
H2 C2 1_555 1_555
C3 C2 1_555 1_555
H3 C3 1_555 1_555
H4 C3 1_555 1_555
H5 C3 1_555 1_555
C4 N2 1_555 1_555
C5 C4 1_555 1_555
H6 C5 1_555 1_555
C6 C5 1_555 1_555
H7 C6 1_555 1_555
H8 C6 1_555 1_555
H9 C6 1_555 1_555
O1 C2 1_555 1_555
C7 O1 1_555 1_555
O2 C7 1_555 1_555
C8 C7 1_555 1_555
C9 C8 1_555 1_555
H10 C9 1_555 1_555
C10 C9 1_555 1_555
H11 C10 1_555 1_555
C11 C10 1_555 1_555
C12 C11 1_555 1_555
H12 C12 1_555 1_555
C13 C8 1_555 1_555
H13 C13 1_555 1_555
N4 C11 1_555 1_555
O3 N4 1_555 1_555
O4 N4 1_555 1_555
O5 C5 1_555 1_555
C14 O5 1_555 1_555
O6 C14 1_555 1_555
C15 C14 1_555 1_555
C16 C15 1_555 1_555
H14 C16 1_555 1_555
C17 C16 1_555 1_555
H15 C17 1_555 1_555
C18 C17 1_555 1_555
C19 C18 1_555 1_555
H16 C19 1_555 1_555
C20 C15 1_555 1_555
H17 C20 1_555 1_555
N5 C18 1_555 1_555
O7 N5 1_555 1_555
O8 N5 1_555 1_555
N3 C4 1_555 1_555
C12 C13 1_555 1_555
C19 C20 1_555 1_555

#END
